data_POSCAR
  _audit_creation_date              2014-09-24
  _audit_creation_method            'ToBaCCo'
  _symmetry_space_group_name_H-M    'P1'
  _symmetry_Int_Tables_number       1
  _symmetry_cell_setting            triclinic
  loop_
  _symmetry_equiv_pos_as_xyz
 x,y,z
_cell_length_a 38.7147
_cell_length_b 41.2999
_cell_length_c 54.3488
_cell_angle_alpha 89.852400
_cell_angle_beta 89.907200
_cell_angle_gamma 119.022800
loop_
  _atom_site_label
  _atom_site_type_symbol
  _atom_site_fract_x
  _atom_site_fract_y
  _atom_site_fract_z
C1 C -0.02665 0.49188 1.25548
 C2 C 0.01311 0.51501 1.25557
 C3 C 0.03606 0.52675 1.27875
 C4 C 0.03581 0.53040 1.23239
 C5 C -0.04984 0.48413 1.23242
 C6 C -0.04900 0.47304 1.27819
 C7 C 0.02665 0.54477 1.29725
 C8 C 0.05021 0.55791 1.31825
 C9 C 0.08379 0.55334 1.32130
 C10 C 0.09271 0.53480 1.30252
 C11 C 0.06922 0.52196 1.28155
 C12 C 0.05969 0.56878 1.22969
 C13 C 0.08118 0.58364 1.20805
 C14 C 0.07959 0.56049 1.18868
 C15 C 0.05575 0.52188 1.19149
 C16 C 0.03433 0.50705 1.21321
 C17 C -0.07313 0.44748 1.22463
 C18 C -0.09387 0.43986 1.20251
 C19 C -0.09166 0.46889 1.18775
 C20 C -0.06962 0.50546 1.19610
 C21 C -0.04888 0.51305 1.21825
 C22 C -0.03764 0.45191 1.29304
 C23 C -0.05993 0.43332 1.31384
 C24 C -0.09392 0.43550 1.32018
 C25 C -0.10569 0.45599 1.30491
 C26 C -0.08341 0.47456 1.28421
 H27 H 0.00149 0.54930 1.29521
 H28 H 0.04218 0.57200 1.33206
 H29 H 0.11804 0.53053 1.30320
 H30 H 0.07710 0.50837 1.26731
 H31 H 0.06138 0.58730 1.24429
 H32 H 0.09923 0.61342 1.20646
 H33 H 0.01656 0.47729 1.21508
 H34 H -0.07476 0.42478 1.23553
 H35 H -0.11183 0.41122 1.19724
 H36 H -0.06799 0.52823 1.18529
 H37 H -0.03179 0.54149 1.22427
 H38 H -0.01182 0.44944 1.28837
 H39 H -0.05057 0.41727 1.32504
 H40 H -0.13251 0.45720 1.30850
 H41 H -0.09315 0.49010 1.27277
 H42 H 0.05319 0.50284 1.17714
 C43 C 0.50540 0.47696 1.24638
 C44 C 0.48648 0.49751 1.24642
 C45 C 0.47345 0.50692 1.26986
 C46 C 0.47892 0.51224 1.22325
 C47 C 0.51146 0.46077 1.22337
 C48 C 0.52113 0.47007 1.26958
 C49 C 0.44930 0.47892 1.28651
 C50 C 0.43766 0.48783 1.30870
 C51 C 0.45000 0.52487 1.31477
 C52 C 0.47341 0.55285 1.29778
 C53 C 0.48490 0.54389 1.27552
 C54 C 0.44116 0.50747 1.21836
 C55 C 0.43415 0.52224 1.19696
 C56 C 0.46495 0.54225 1.18008
 C57 C 0.50283 0.54750 1.18524
 C58 C 0.50977 0.53261 1.20658
 C59 C 0.54877 0.46479 1.21788
 C60 C 0.55460 0.44897 1.19665
 C61 C 0.52311 0.42867 1.18041
 C62 C 0.48560 0.42400 1.18621
 C63 C 0.47981 0.43990 1.20744
 C64 C 0.54738 0.49980 1.28424
 C65 C 0.56144 0.49328 1.30633
 C66 C 0.54941 0.45697 1.31422
 C67 C 0.52406 0.42723 1.29911
 C68 C 0.51016 0.43379 1.27695
 H69 H 0.43948 0.45014 1.28230
 H70 H 0.41921 0.46572 1.32127
 H71 H 0.48243 0.58160 1.30138
 H72 H 0.50312 0.56586 1.26280
 H73 H 0.41710 0.49234 1.23116
 H74 H 0.40486 0.51862 1.19409
 H75 H 0.53936 0.53740 1.21027
 H76 H 0.57349 0.48026 1.23007
 H77 H 0.58363 0.45213 1.19338
 H78 H 0.46072 0.40808 1.17423
 H79 H 0.45050 0.43560 1.21160
 H80 H 0.55685 0.52805 1.27860
 H81 H 0.58137 0.51665 1.31744
 H82 H 0.51527 0.39892 1.30414
 H83 H 0.49041 0.41053 1.26570
 H84 H 0.52716 0.56321 1.17272
 C85 C 0.47784 1.01912 1.24966
 C86 C 0.45606 0.98166 1.24972
 C87 C 0.44761 0.96013 1.27282
 C88 C 0.44123 0.96021 1.22676
 C89 C 0.48722 1.04104 1.22666
 C90 C 0.49440 1.03999 1.27263
 C91 C 0.46443 0.93724 1.27667
 C92 C 0.45744 0.91722 1.29855
 C93 C 0.43285 0.91936 1.31696
 C94 C 0.41547 0.94192 1.31265
 C95 C 0.42303 0.96235 1.29088
 C96 C 0.46755 0.96111 1.20868
 C97 C 0.45328 0.93940 1.18758
 C98 C 0.41241 0.91633 1.18434
 C99 C 0.38617 0.91621 1.20221
 C100 C 0.40049 0.93765 1.22341
 C101 C 0.45732 1.04067 1.21197
 C102 C 0.46692 1.06170 1.19033
 C103 C 0.50656 1.08312 1.18279
 C104 C 0.53642 1.08369 1.19799
 C105 C 0.52673 1.06300 1.21968
 C106 C 0.48106 1.06385 1.28129
 C107 C 0.49628 1.08374 1.30296
 C108 C 0.52570 1.08042 1.31634
 C109 C 0.53957 1.05700 1.30709
 C110 C 0.52389 1.03679 1.28554
 H111 H 0.48330 0.93514 1.26275
 H112 H 0.47070 0.89961 1.30038
 H113 H 0.39620 0.94408 1.32626
 H114 H 0.40961 0.97977 1.28804
 H115 H 0.49912 0.97826 1.21107
 H116 H 0.47423 0.94086 1.17383
 H117 H 0.37982 0.93667 1.23725
 H118 H 0.42662 1.02423 1.21732
 H119 H 0.44318 1.06084 1.17931
 H120 H 0.56743 1.10054 1.19384
 H121 H 0.55018 1.06389 1.23101
 H122 H 0.45863 1.06692 1.27127
 H123 H 0.48532 1.10217 1.30852
 H124 H 0.56237 1.05397 1.31668
 H125 H 0.53488 1.01880 1.27883
 H126 H 0.35459 0.89881 1.20003
 C127 C 1.02509 0.51005 0.74033
 C128 C 0.98512 0.49539 0.74090
 C129 C 0.96154 0.48719 0.71796
 C130 C 0.96276 0.48652 0.76442
 C131 C 1.04939 0.52102 0.76304
 C132 C 1.04684 0.51650 0.71678
 C133 C 0.96880 0.51512 0.70067
 C134 C 0.94583 0.50701 0.67938
 C135 C 0.91534 0.47086 0.67498
 C136 C 0.90766 0.44312 0.69261
 C137 C 0.93053 0.45128 0.71388
 C138 C 0.93703 0.50074 0.76892
 C139 C 0.91527 0.49220 0.79076
 C140 C 0.91840 0.46888 0.80840
 C141 C 0.94439 0.45472 0.80390
 C142 C 0.96610 0.46325 0.78200
 C143 C 1.07516 0.50689 0.76758
 C144 C 1.09900 0.51757 0.78849
 C145 C 1.09809 0.54303 0.80529
 C146 C 1.07215 0.55732 0.80056
 C147 C 1.04821 0.54647 0.77961
 C148 C 1.03976 0.48711 0.70101
 C149 C 1.06096 0.49377 0.67900
 C150 C 1.08929 0.53000 0.67215
 C151 C 1.09658 0.55927 0.68842
 C152 C 1.07569 0.55244 0.71047
 H153 H 0.99202 0.54323 0.70376
 H154 H 0.95196 0.52897 0.66628
 H155 H 0.88353 0.41527 0.69037
 H156 H 0.92408 0.42951 0.72721
 H157 H 0.93396 0.51867 0.75555
 H158 H 0.89563 0.50359 0.79377
 H159 H 0.98545 0.45161 0.77874
 H160 H 1.07668 0.48738 0.75495
 H161 H 1.11847 0.50594 0.79140
 H162 H 1.06989 0.57686 0.81268
 H163 H 1.02897 0.55818 0.77619
 H164 H 1.01797 0.45904 0.70584
 H165 H 1.05482 0.47052 0.66717
 H166 H 1.11897 0.58747 0.68486
 H167 H 1.08190 0.57535 0.72265
 H168 H 0.94849 0.43739 0.81719
 C169 C 0.53370 0.54780 0.75637
 C170 C 0.55513 0.52966 0.75612
 C171 C 0.56636 0.51880 0.73269
 C172 C 0.56657 0.51799 0.77922
 C173 C 0.51463 0.55104 0.77925
 C174 C 0.52656 0.56365 0.73355
 C175 C 0.53750 0.49795 0.71518
 C176 C 0.54783 0.48623 0.69370
 C177 C 0.58720 0.49461 0.68954
 C178 C 0.61608 0.51590 0.70693
 C179 C 0.60571 0.52765 0.72842
 C180 C 0.55830 0.48115 0.78212
 C181 C 0.56933 0.46986 0.80355
 C182 C 0.58891 0.49528 0.82256
 C183 C 0.59788 0.53230 0.81942
 C184 C 0.58676 0.54358 0.79796
 C185 C 0.52014 0.58571 0.78661
 C186 C 0.50088 0.58885 0.80745
 C187 C 0.47566 0.55723 0.82134
 C188 C 0.46967 0.52247 0.81367
 C189 C 0.48898 0.51937 0.79281
 C190 C 0.55800 0.58751 0.71824
 C191 C 0.55073 0.60186 0.69672
 C192 C 0.51199 0.59262 0.69013
 C193 C 0.48071 0.56968 0.70594
 C194 C 0.48797 0.55533 0.72738
 H195 H 0.50686 0.49041 0.71829
 H196 H 0.52489 0.47084 0.68044
 H197 H 0.64662 0.52290 0.70408
 H198 H 0.62835 0.54358 0.74178
 H199 H 0.54319 0.46107 0.76776
 H200 H 0.56314 0.44141 0.80484
 H201 H 0.59416 0.57232 0.79587
 H202 H 0.53920 0.61035 0.77609
 H203 H 0.50512 0.61595 0.81219
 H204 H 0.44996 0.49767 0.82383
 H205 H 0.48348 0.49221 0.78702
 H206 H 0.58812 0.59501 0.72295
 H207 H 0.57539 0.61992 0.68507
 H208 H 0.45061 0.56307 0.70208
 H209 H 0.46335 0.53742 0.73911
 H210 H 0.61342 0.55251 0.83364
 C211 C 0.48589 -0.03186 0.75291
 C212 C 0.50419 0.00586 0.75238
 C213 C 0.52088 0.02725 0.72926
 C214 C 0.50839 0.02789 0.77490
 C215 C 0.47069 -0.05312 0.77619
 C216 C 0.47973 -0.05403 0.73023
 C217 C 0.54891 0.02301 0.71518
 C218 C 0.56415 0.04349 0.69349
 C219 C 0.55165 0.06849 0.68549
 C220 C 0.52451 0.07347 0.70008
 C221 C 0.50932 0.05302 0.72169
 C222 C 0.54598 0.05562 0.78198
 C223 C 0.55072 0.07675 0.80298
 C224 C 0.51782 0.07057 0.81742
 C225 C 0.48004 0.04356 0.80988
 C226 C 0.47532 0.02237 0.78881
 C227 C 0.43072 -0.07970 0.77809
 C228 C 0.41583 -0.10012 0.79973
 C229 C 0.44062 -0.09489 0.81998
 C230 C 0.48100 -0.06820 0.81790
 C231 C 0.49578 -0.04766 0.79619
 C232 C 0.45872 -0.05102 0.71015
 C233 C 0.45278 -0.07244 0.68905
 C234 C 0.46761 -0.09764 0.68766
 C235 C 0.48848 -0.10049 0.70799
 C236 C 0.49424 -0.07915 0.72904
 H237 H 0.55903 0.00395 0.72103
 H238 H 0.58551 0.03959 0.68283
 H239 H 0.51534 0.09354 0.69517
 H240 H 0.48828 0.05720 0.73250
 H241 H 0.57178 0.06079 0.77125
 H242 H 0.58015 0.09829 0.80754
 H243 H 0.44591 0.00175 0.78331
 H244 H 0.41090 -0.08442 0.76281
 H245 H 0.38469 -0.12032 0.80053
 H246 H 0.50158 -0.06266 0.83275
 H247 H 0.52688 -0.02755 0.79495
 H248 H 0.44677 -0.03215 0.71088
 H249 H 0.43663 -0.06876 0.67414
 H250 H 0.50032 -0.11949 0.70773
 H251 H 0.51036 -0.08202 0.74440
 H252 H 0.45418 0.03866 0.82044
 O253 O 0.39229 0.67918 0.97804
 O254 O 0.39138 0.73913 0.99131
 C255 C 0.36972 0.74727 0.97788
 O256 O 0.33230 0.73058 0.97937
 O257 O 0.26400 0.66997 0.97925
 C258 C 0.26174 0.64592 0.96388
 O259 O 0.27968 0.62745 0.96672
 O260 O 0.34221 0.62130 0.97642
 C261 C 0.37524 0.64717 0.96876
 O262 O 0.38179 0.65484 1.02507
 O263 O 0.37793 0.71340 1.03818
 C264 C 0.35967 0.73099 1.04295
 O265 O 0.33304 0.73046 1.02905
 O266 O 0.26724 0.66724 1.02874
 C267 C 0.24864 0.63209 1.02916
 O268 O 0.25566 0.61222 1.01426
 O269 O 0.31953 0.60877 1.02419
 C270 C 0.35424 0.62386 1.03273
 Cr271 Cr 0.38373 0.69570 1.00795
 Cr272 Cr 0.30017 0.69854 1.00406
 Cr273 Cr 0.30032 0.61939 0.99564
 O274 O 0.32812 0.67114 1.00254
 O275 O 0.61449 0.31852 0.97066
 O276 O 0.61293 0.25518 0.97680
 C277 C 0.63790 0.24928 0.96504
 O278 O 0.67435 0.26506 0.97006
 O279 O 0.74146 0.32471 0.97688
 C280 C 0.74718 0.35287 0.96440
 O281 O 0.72975 0.37139 0.96885
 O282 O 0.66542 0.37519 0.97610
 C283 C 0.63408 0.35246 0.96504
 O284 O 0.61443 0.32815 1.02011
 O285 O 0.61511 0.26587 1.02630
 C286 C 0.63418 0.24893 1.03095
 O287 O 0.66431 0.25382 1.01881
 O288 O 0.72918 0.31543 1.02576
 C289 C 0.74697 0.34967 1.03047
 O290 O 0.74217 0.37341 1.01812
 O291 O 0.67624 0.37424 1.02499
 C292 C 0.64015 0.35712 1.03106
 Cr293 Cr 0.61649 0.29295 0.99843
 Cr294 Cr 0.70118 0.29087 0.99786
 Cr295 Cr 0.70223 0.37144 0.99703
 O296 O 0.67320 0.31842 0.99778
 O297 O 0.64427 0.36841 0.53270
 O298 O 0.70963 0.36827 0.52226
 C299 C 0.71696 0.34455 0.53256
 O300 O 0.69945 0.31052 0.52711
 O301 O 0.63302 0.24869 0.52338
 C302 C 0.60444 0.24467 0.53714
 O303 O 0.58556 0.26217 0.53392
 O304 O 0.58246 0.32321 0.52796
 C305 C 0.60835 0.35158 0.53905
 O306 O 0.62844 0.36945 0.48405
 O307 O 0.69243 0.36694 0.47397
 C308 C 0.70908 0.34880 0.46690
 O309 O 0.70452 0.31949 0.47760
 O310 O 0.63654 0.25911 0.47376
 C311 C 0.59940 0.24331 0.47126
 O312 O 0.57696 0.24924 0.48534
 O313 O 0.57826 0.31211 0.47907
 C314 C 0.59695 0.34604 0.47329
 Cr315 Cr 0.66759 0.36616 0.50326
 Cr316 Cr 0.66727 0.28553 0.50058
 Cr317 Cr 0.58309 0.28771 0.50647
 O318 O 0.63943 0.31319 0.50346
 O319 O 0.35383 0.62421 0.52774
 O320 O 0.28721 0.62040 0.51536
 C321 C 0.27863 0.64372 0.52501
 O322 O 0.29516 0.67756 0.51898
 O323 O 0.35893 0.74093 0.51343
 C324 C 0.38647 0.74707 0.52850
 O325 O 0.40740 0.73121 0.52716
 O326 O 0.41478 0.67183 0.52398
 C327 C 0.38906 0.64296 0.53503
 O328 O 0.37264 0.62250 0.47981
 O329 O 0.30739 0.62092 0.46739
 C330 C 0.28878 0.63700 0.45985
 O331 O 0.29088 0.66546 0.47017
 O332 O 0.35710 0.72716 0.46493
 C333 C 0.39433 0.74549 0.46301
 O334 O 0.41769 0.74191 0.47782
 O335 O 0.42125 0.68066 0.47456
 C336 C 0.40410 0.64655 0.46920
 Cr337 Cr 0.33128 0.62407 0.49757
 Cr338 Cr 0.32671 0.70179 0.49205
 Cr339 Cr 0.41312 0.70529 0.50074
 O340 O 0.35703 0.67697 0.49680
 C341 C 0.43695 0.53307 0.33852
 C342 C 0.45680 0.56730 0.35030
 C343 C 0.44293 0.57502 0.37371
 N344 N 0.46396 0.60865 0.38445
 N345 N 0.45148 0.61652 0.40530
 C346 C 0.41746 0.59102 0.41625
 N347 N 0.39650 0.55731 0.40557
 N348 N 0.40900 0.54943 0.38471
 C349 C 0.40237 0.59997 0.43870
 C350 C 0.42180 0.63498 0.44944
 H351 H 0.48372 0.58923 0.34244
 H352 H 0.37423 0.57921 0.44609
 H353 H 0.41153 0.51075 0.34754
 H354 H 0.44970 0.65578 0.44178
 C355 C 0.42405 0.89910 0.33908
 C356 C 0.44284 0.87942 0.34723
 C357 C 0.42932 0.85577 0.36928
 N358 N 0.45169 0.84177 0.37888
 N359 N 0.43909 0.81928 0.39837
 C360 C 0.40355 0.80982 0.40883
 N361 N 0.38117 0.82374 0.39918
 N362 N 0.39385 0.84637 0.37980
 C363 C 0.38830 0.78398 0.42968
 C364 C 0.41137 0.77251 0.44283
 H365 H 0.46843 0.88148 0.33782
 H366 H 0.35777 0.77391 0.43498
 H367 H 0.40146 0.89915 0.35088
 H368 H 0.44251 0.78409 0.43862
 C369 C 0.10626 0.56746 0.34168
 C370 C 0.13955 0.56401 0.34763
 C371 C 0.16415 0.58179 0.36930
 N372 N 0.19348 0.57420 0.37523
 N373 N 0.21653 0.59020 0.39455
 C374 C 0.21130 0.61458 0.40864
 N375 N 0.18207 0.62237 0.40267
 N376 N 0.15887 0.60624 0.38335
 C377 C 0.23670 0.63219 0.43008
 C378 C 0.26350 0.62111 0.43822
 H379 H 0.14839 0.54747 0.33673
 H380 H 0.23360 0.65343 0.43991
 H381 H 0.09806 0.58263 0.35456
 H382 H 0.26533 0.59892 0.42878
 C383 C 0.56437 0.45113 0.33796
 C384 C 0.54390 0.41891 0.35193
 C385 C 0.55885 0.41298 0.37544
 N386 N 0.53685 0.38125 0.38823
 N387 N 0.55009 0.37476 0.40924
 C388 C 0.58585 0.39978 0.41831
 N389 N 0.60783 0.43168 0.40559
 N390 N 0.59457 0.43819 0.38454
 C391 C 0.60136 0.39186 0.44097
 C392 C 0.58051 0.35792 0.45305
 H393 H 0.51549 0.39724 0.34577
 H394 H 0.63043 0.41199 0.44735
 H395 H 0.59137 0.47367 0.34522
 H396 H 0.55182 0.33771 0.44616
 C397 C 0.54221 0.10003 0.33820
 C398 C 0.52736 0.11980 0.35121
 C399 C 0.54668 0.14136 0.37331
 N400 N 0.52757 0.15491 0.38725
 N401 N 0.54477 0.17527 0.40703
 C402 C 0.58182 0.18302 0.41357
 N403 N 0.60106 0.16958 0.39958
 N404 N 0.58376 0.14902 0.37982
 C405 C 0.60133 0.20649 0.43498
 C406 C 0.58055 0.21697 0.45112
 H407 H 0.49999 0.11881 0.34596
 H408 H 0.63248 0.21606 0.43787
 H409 H 0.56746 0.09893 0.34589
 H410 H 0.54909 0.20611 0.44859
 C411 C 0.88285 0.41543 0.34226
 C412 C 0.85857 0.42621 0.35472
 C413 C 0.83347 0.40602 0.37585
 N414 N 0.81079 0.41894 0.38629
 N415 N 0.78719 0.40124 0.40517
 C416 C 0.78521 0.36981 0.41443
 N417 N 0.80801 0.35680 0.40403
 N418 N 0.83170 0.37457 0.38503
 C419 C 0.75884 0.35050 0.43547
 C420 C 0.73508 0.36404 0.44535
 H421 H 0.85782 0.45096 0.34897
 H422 H 0.75842 0.32618 0.44330
 H423 H 0.88582 0.39232 0.34926
 H424 H 0.73606 0.38839 0.43710
 C425 C 0.52816 0.41119 1.15783
 C426 C 0.56453 0.42404 1.14597
 C427 C 0.57033 0.40643 1.12397
 N428 N 0.60659 0.42165 1.11339
 N429 N 0.61308 0.40614 1.09376
 C430 C 0.58359 0.37472 1.08386
 N431 N 0.54717 0.35942 1.09441
 N432 N 0.54064 0.37499 1.11411
 C433 C 0.59122 0.35732 1.06228
 C434 C 0.62887 0.37289 1.05183
 H435 H 0.59013 0.44852 1.15273
 H436 H 0.56743 0.33200 1.05486
 H437 H 0.50219 0.38835 1.14981
 H438 H 0.65225 0.39813 1.05965
 C439 C 0.88756 0.46189 1.16389
 C440 C 0.87757 0.43025 1.14995
 C441 C 0.85599 0.42269 1.12660
 N442 N 0.84575 0.39049 1.11472
 N443 N 0.82528 0.38247 1.09388
 C444 C 0.81434 0.40640 1.08407
 N445 N 0.82487 0.43880 1.09584
 N446 N 0.84531 0.44681 1.11676
 C447 C 0.79035 0.39694 1.06156
 C448 C 0.77456 0.36177 1.05124
 H449 H 0.88584 0.41006 1.15616
 H450 H 0.78329 0.41720 1.05379
 H451 H 0.88137 0.48299 1.15663
 H452 H 0.78068 0.34128 1.05967
 C453 C 0.51485 0.10355 1.16074
 C454 C 0.55203 0.12132 1.14945
 C455 C 0.56013 0.14408 1.12716
 N456 N 0.59517 0.15624 1.11538
 N457 N 0.60375 0.17770 1.09552
 C458 C 0.57767 0.18797 1.08673
 N459 N 0.54261 0.17589 1.09854
 N460 N 0.53394 0.15426 1.11839
 C461 C 0.58755 0.21254 1.06519
 C462 C 0.62164 0.22235 1.05142
 H463 H 0.57621 0.11790 1.15632
 H464 H 0.56795 0.22332 1.06026
 H465 H 0.49071 0.10480 1.15151
 H466 H 0.64036 0.21044 1.05598
 C467 C 0.45909 0.55933 1.15757
 C468 C 0.42239 0.54688 1.14636
 C469 C 0.41696 0.56518 1.12458
 N470 N 0.38090 0.55079 1.11388
 N471 N 0.37513 0.56734 1.09448
 C472 C 0.40522 0.59898 1.08504
 N473 N 0.44133 0.61338 1.09571
 N474 N 0.44712 0.59678 1.11511
 C475 C 0.39891 0.61808 1.06401
 C476 C 0.36230 0.60400 1.05247
 H477 H 0.39669 0.52267 1.15346
 H478 H 0.42333 0.64414 1.05787
 H479 H 0.48493 0.58193 1.14910
 H480 H 0.33807 0.57780 1.05859
 C481 C 0.10324 0.57800 1.16617
 C482 C 0.10824 0.55869 1.14664
 C483 C 0.13372 0.57791 1.12537
 N484 N 0.13866 0.55802 1.10721
 N485 N 0.16240 0.57501 1.08816
 C486 C 0.18207 0.61256 1.08655
 N487 N 0.17697 0.63244 1.10464
 N488 N 0.15324 0.61545 1.12369
 C489 C 0.20966 0.63185 1.06619
 C490 C 0.21744 0.61288 1.04771
 H491 H 0.09431 0.52885 1.14690
 H492 H 0.22551 0.66185 1.06637
 H493 H 0.11844 0.60798 1.16524
 H494 H 0.20167 0.58288 1.04757
 C495 C 0.39641 0.89198 1.16271
 C496 C 0.41685 0.87623 1.15120
 C497 C 0.40009 0.85002 1.13075
 N498 N 0.41901 0.83171 1.12272
 N499 N 0.40438 0.80778 1.10424
 C500 C 0.37029 0.80130 1.09303
 N501 N 0.35141 0.81974 1.10098
 N502 N 0.36599 0.84361 1.11956
 C503 C 0.35453 0.77551 1.07222
 C504 C 0.37154 0.75399 1.06515
 H505 H 0.44537 0.88170 1.15815
 H506 H 0.32974 0.77400 1.06207
 H507 H 0.36648 0.88381 1.15702
 H508 H 0.39564 0.75496 1.07582
 C509 C 0.59917 0.48166 0.66743
 C510 C 0.57300 0.45072 0.65395
 C511 C 0.58588 0.43719 0.63278
 N512 N 0.55938 0.40628 0.62083
 N513 N 0.57058 0.39339 0.60174
 C514 C 0.60872 0.41095 0.59392
 N515 N 0.63521 0.44190 0.60584
 N516 N 0.62401 0.45480 0.62493
 C517 C 0.62158 0.39699 0.57297
 C518 C 0.59548 0.36544 0.56004
 H519 H 0.54236 0.43486 0.65944
 H520 H 0.65241 0.41203 0.56761
 H521 H 0.63019 0.49571 0.66246
 H522 H 0.56463 0.35047 0.56536
 C523 C 0.56806 0.08974 0.66236
 C524 C 0.54791 0.10390 0.64864
 C525 C 0.56441 0.12745 0.62670
 N526 N 0.54317 0.14150 0.61567
 N527 N 0.55758 0.16389 0.59630
 C528 C 0.59385 0.17316 0.58708
 N529 N 0.61508 0.15883 0.59796
 N530 N 0.60066 0.13642 0.61747
 C531 C 0.61002 0.19891 0.56598
 C532 C 0.59082 0.21798 0.55763
 H533 H 0.51854 0.09787 0.65421
 H534 H 0.63744 0.20367 0.55751
 H535 H 0.59618 0.09356 0.65570
 H536 H 0.56426 0.21383 0.56702
 C537 C 0.89122 0.46319 0.65240
 C538 C 0.87101 0.42801 0.64195
 C539 C 0.84512 0.41967 0.62042
 N540 N 0.82703 0.38486 0.61117
 N541 N 0.80255 0.37624 0.59215
 C542 C 0.79516 0.40210 0.58161
 N543 N 0.81337 0.43702 0.59079
 N544 N 0.83791 0.44567 0.60986
 C545 C 0.76718 0.39237 0.56100
 C546 C 0.74724 0.35637 0.55185
 H547 H 0.87421 0.40544 0.64967
 H548 H 0.76144 0.41356 0.55339
 H549 H 0.89025 0.48615 0.64337
 H550 H 0.75308 0.33537 0.55968
 C551 C 0.50520 0.60782 0.66703
 C552 C 0.46921 0.59081 0.65460
 C553 C 0.46179 0.60595 0.63195
 N554 N 0.42591 0.58756 0.62110
 N555 N 0.41811 0.60077 0.60075
 C556 C 0.44590 0.63293 0.59043
 N557 N 0.48191 0.65137 0.60125
 N558 N 0.48973 0.63814 0.62167
 C559 C 0.43714 0.64768 0.56799
 C560 C 0.39984 0.62959 0.55723
 H561 H 0.44535 0.56493 0.66136
 H562 H 0.46011 0.67311 0.55999
 H563 H 0.52971 0.63229 0.65909
 H564 H 0.37702 0.60436 0.56556
 C565 C 0.46249 0.87978 0.66705
 C566 C 0.44117 0.87804 0.64583
 C567 C 0.43647 0.85295 0.62529
 N568 N 0.41296 0.85011 0.60600
 N569 N 0.40796 0.82724 0.58743
 C570 C 0.42639 0.80639 0.58741
 N571 N 0.45008 0.80938 0.60663
 N572 N 0.45501 0.83219 0.62523
 C573 C 0.42068 0.78055 0.56720
 C574 C 0.39407 0.77420 0.54814
 H575 H 0.42652 0.89446 0.64397
 H576 H 0.43702 0.76545 0.56773
 H577 H 0.47567 0.86186 0.66779
 H578 H 0.37714 0.78876 0.54796
 C579 C 0.10971 0.53554 0.64970
 C580 C 0.13366 0.57034 0.63916
 C581 C 0.15684 0.57587 0.61660
 N582 N 0.17582 0.61010 0.60638
 N583 N 0.19831 0.61651 0.58651
 C584 C 0.20287 0.58898 0.57608
 N585 N 0.18382 0.55460 0.58626
 N586 N 0.16114 0.54813 0.60618
 C587 C 0.22925 0.59675 0.55469
 C588 C 0.24819 0.63202 0.54420
 H589 H 0.13518 0.59499 0.64700
 H590 H 0.23495 0.57520 0.54781
 H591 H 0.10585 0.51141 0.63960
 H592 H 0.24182 0.65311 0.55121
 C593 C 0.45410 0.55943 0.84320
 C594 C 0.46721 0.59161 0.85704
 C595 C 0.44474 0.59460 0.87786
 N596 N 0.45948 0.62692 0.89034
 N597 N 0.43937 0.63073 0.90892
 C598 C 0.40370 0.60237 0.91577
 N599 N 0.38892 0.56991 0.90333
 N600 N 0.40907 0.56609 0.88468
 C601 C 0.38129 0.60684 0.93615
 C602 C 0.39587 0.64050 0.94840
 H603 H 0.49511 0.61575 0.85267
 H604 H 0.35311 0.58365 0.94142
 H605 H 0.42761 0.53466 0.84892
 H606 H 0.42402 0.66350 0.94283
 C607 C 0.12324 0.55299 0.82589
 C608 C 0.12701 0.57871 0.84389
 C609 C 0.15435 0.58754 0.86478
 N610 N 0.15794 0.61339 0.88146
 N611 N 0.18244 0.62160 0.90048
 C612 C 0.20429 0.60423 0.90353
 N613 N 0.20071 0.57839 0.88687
 N614 N 0.17623 0.57022 0.86785
 C615 C 0.23115 0.61252 0.92459
 C616 C 0.23628 0.63893 0.94224
 H617 H 0.11024 0.59328 0.84298
 H618 H 0.24695 0.59701 0.92635
 H619 H 0.14152 0.53989 0.82787
 H620 H 0.22066 0.65460 0.94042
 C621 C 0.42381 0.88325 0.84118
 C622 C 0.44446 0.88341 0.86237
 C623 C 0.42449 0.85843 0.88333
 N624 N 0.44609 0.85623 0.90226
 N625 N 0.42852 0.83308 0.92101
 C626 C 0.38863 0.81135 0.92158
 N627 N 0.36701 0.81379 0.90276
 N628 N 0.38458 0.83685 0.88399
 C629 C 0.36872 0.78459 0.94164
 C630 C 0.38956 0.77747 0.95984
 H631 H 0.47602 0.90092 0.86374
 H632 H 0.33678 0.76858 0.94124
 H633 H 0.39232 0.86414 0.84091
 H634 H 0.42154 0.79281 0.95988
 C635 C 0.60159 0.48433 0.84535
 C636 C 0.58340 0.44797 0.85413
 C637 C 0.59748 0.43679 0.87596
 N638 N 0.57796 0.40104 0.88364
 N639 N 0.59069 0.39003 0.90299
 C640 C 0.62348 0.41437 0.91540
 N641 N 0.64298 0.45018 0.90776
 N642 N 0.63023 0.46121 0.88838
 C643 C 0.63821 0.40229 0.93651
 C644 C 0.61914 0.36563 0.94466
 H645 H 0.55771 0.42669 0.84488
 H646 H 0.66488 0.42254 0.94557
 H647 H 0.62538 0.50581 0.85588
 H648 H 0.59244 0.34552 0.93556
 C649 C 0.89427 0.46035 0.83112
 C650 C 0.88627 0.43061 0.84672
 C651 C 0.86031 0.42191 0.86834
 N652 N 0.85286 0.39223 0.88263
 N653 N 0.82887 0.38352 0.90201
 C654 C 0.81139 0.40417 0.90784
 N655 N 0.81890 0.43391 0.89359
 N656 N 0.84294 0.44263 0.87420
 C657 C 0.78421 0.39442 0.92891
 C658 C 0.77562 0.36405 0.94396
 H659 H 0.89796 0.41215 0.84275
 H660 H 0.77026 0.41123 0.93241
 H661 H 0.88060 0.47727 0.83508
 H662 H 0.78976 0.34740 0.94047
 C663 C 0.52213 0.09249 0.83992
 C664 C 0.55688 0.10859 0.85366
 C665 C 0.56325 0.13239 0.87518
 N666 N 0.59859 0.14730 0.88676
 N667 N 0.60595 0.16981 0.90583
 C668 C 0.57830 0.17839 0.91414
 N669 N 0.54271 0.16327 0.90267
 N670 N 0.53531 0.14070 0.88349
 C671 C 0.58722 0.20419 0.93497
 C672 C 0.62524 0.22250 0.94476
 H673 H 0.58099 0.10373 0.84855
 H674 H 0.56430 0.20939 0.94220
 H675 H 0.49700 0.09506 0.84620
 H676 H 0.64790 0.21751 0.93678
   
