data_POSCAR
  _audit_creation_date              2014-09-24
  _audit_creation_method            'ToBaCCo'
  _symmetry_space_group_name_H-M    'P1'
  _symmetry_Int_Tables_number       1
  _symmetry_cell_setting            triclinic
  loop_
  _symmetry_equiv_pos_as_xyz
 x,y,z
_cell_length_a 26.5554
_cell_length_b 26.6231
_cell_length_c 46.5210
_cell_angle_alpha 90.343100
_cell_angle_beta 90.022700
_cell_angle_gamma 89.660000
loop_
  _atom_site_label
  _atom_site_type_symbol
  _atom_site_fract_x
  _atom_site_fract_y
  _atom_site_fract_z
C1 C -0.03333 0.63002 0.99569
 C2 C -0.01862 0.60696 1.02159
 C3 C -0.00478 0.55595 1.02098
 C4 C -0.00889 0.52693 0.99567
 C5 C -0.02500 0.55080 0.97029
 C6 C -0.03624 0.60242 0.96980
 C7 C 0.00315 0.47184 0.99581
 C8 C 0.02046 0.44714 0.97076
 C9 C 0.02961 0.39518 0.97041
 C10 C 0.02351 0.36781 0.99588
 C11 C 0.00820 0.39183 1.02139
 C12 C -0.00345 0.44323 1.02093
 H13 H -0.03902 0.67001 0.99532
 H14 H 0.00915 0.53887 1.04051
 H15 H -0.02944 0.52920 0.95068
 H16 H 0.02687 0.46802 0.95123
 H17 H 0.02821 0.32749 0.99567
 H18 H -0.01810 0.46054 1.04032
 C19 C 0.37185 -0.02239 0.50409
 C20 C 0.39978 -0.02860 0.52950
 C21 C 0.45162 -0.01869 0.52921
 C22 C 0.47557 -0.00056 0.50431
 C23 C 0.44636 0.00635 0.47932
 C24 C 0.39516 -0.00601 0.47878
 C25 C 0.53055 0.01187 0.50448
 C26 C 0.55933 0.00809 0.47912
 C27 C 0.61026 0.02200 0.47855
 C28 C 0.63352 0.03663 0.50449
 C29 C 0.60617 0.03915 0.53044
 C30 C 0.55458 0.02779 0.52992
 H31 H 0.33157 -0.02783 0.50420
 H32 H 0.47302 -0.02520 0.54864
 H33 H 0.46307 0.02166 0.46008
 H34 H 0.54211 -0.00573 0.45954
 H35 H 0.67351 0.04254 0.50483
 H36 H 0.53311 0.03187 0.54958
 C37 C 0.09822 0.01724 0.27340
 H38 H 0.10125 0.04761 0.25822
 C39 C 0.13680 0.00925 0.29335
 H40 H 0.16952 0.03309 0.29253
 C41 C 0.05113 -0.04964 0.29300
 H42 H 0.01709 -0.07177 0.29303
 C43 C 0.08869 -0.05895 0.31327
 H44 H 0.08341 -0.08865 0.32878
 N45 N 0.05636 -0.01195 0.27370
 C46 C -0.05270 -0.04735 0.20683
 H47 H -0.07506 -0.01326 0.20756
 C48 C -0.06267 -0.08392 0.18608
 H49 H -0.09315 -0.07782 0.17099
 C50 C 0.01562 -0.09534 0.22488
 H51 H 0.04699 -0.09888 0.23954
 C52 C 0.00706 -0.13293 0.20434
 H53 H 0.03214 -0.16499 0.20385
 Zn54 Zn 0.00029 0.00169 0.24990
 N55 N -0.01404 -0.05351 0.22563
 C56 C -0.01704 0.09812 0.22538
 N57 N 0.01297 0.05657 0.22543
 C58 C 0.05057 0.05059 0.20592
 C59 C 0.05907 0.08709 0.18514
 C60 C -0.01005 0.13561 0.20486
 C61 C -0.09625 -0.01327 0.27522
 C62 C -0.13366 -0.00481 0.29586
 C63 C -0.08405 0.06344 0.31502
 C64 C -0.04776 0.05365 0.29405
 N65 N -0.05430 0.01575 0.27477
 H66 H -0.04746 0.10161 0.24069
 H67 H 0.07329 0.01672 0.20613
 H68 H 0.08891 0.08096 0.16960
 H69 H -0.03522 0.16757 0.20542
 H70 H -0.10016 -0.04399 0.26013
 H71 H -0.16585 -0.02937 0.29573
 H72 H -0.07745 0.09345 0.33038
 H73 H -0.01362 0.07560 0.29348
 C74 C -0.03233 -0.12714 0.18435
 C75 C 0.13183 -0.02882 0.31401
 C76 C -0.12755 0.03374 0.31651
 C77 C 0.02815 0.13007 0.18397
 C78 C 0.05839 0.03514 0.79450
 H79 H 0.07489 -0.00211 0.79470
 C80 C 0.07315 0.07074 0.81493
 H81 H 0.10132 0.06068 0.83076
 C82 C 0.00001 0.09263 0.77435
 H83 H -0.02952 0.10053 0.75903
 C84 C 0.01362 0.12939 0.79442
 H85 H -0.00614 0.16497 0.79409
 N86 N 0.02239 0.04655 0.77478
 C87 C 0.04183 -0.06231 0.70517
 H88 H 0.00455 -0.07848 0.70461
 C89 C 0.07753 -0.07657 0.68464
 H90 H 0.06754 -0.10406 0.66838
 C91 C 0.09918 -0.00513 0.72629
 H92 H 0.10696 0.02379 0.74202
 C93 C 0.13606 -0.01825 0.70613
 H94 H 0.17161 0.00122 0.70684
 Zn95 Zn 0.00049 -0.00574 0.75013
 N96 N 0.05312 -0.02715 0.72543
 C97 C -0.04128 0.05190 0.70635
 N98 N -0.05273 0.01682 0.72635
 C99 C -0.09950 -0.00351 0.72777
 C100 C -0.13702 0.01131 0.70846
 C101 C -0.07746 0.06767 0.68656
 C102 C -0.05568 -0.04717 0.79446
 C103 C -0.07063 -0.08314 0.81433
 C104 C -0.01436 -0.14286 0.79154
 C105 C -0.00038 -0.10553 0.77213
 N106 N -0.02106 -0.05879 0.77395
 H107 H -0.00356 0.06696 0.70546
 H108 H -0.10756 -0.03211 0.74345
 H109 H -0.17326 -0.00659 0.71007
 H110 H -0.06704 0.09516 0.67057
 H111 H -0.07098 -0.00946 0.79568
 H112 H -0.09777 -0.07258 0.83071
 H113 H 0.00380 -0.17909 0.78959
 H114 H 0.02791 -0.11373 0.75608
 C115 C 0.12529 -0.05434 0.68479
 C116 C 0.05058 0.11851 0.81520
 C117 C -0.04968 -0.13175 0.81336
 C118 C -0.12610 0.04713 0.68713
 C119 C -0.01601 -0.36661 0.04793
 C120 C -0.03685 -0.31882 0.05263
 C121 C -0.03205 -0.29154 0.08006
 N122 N -0.05688 -0.24732 0.08366
 N123 N -0.05224 -0.22110 0.10795
 C124 C -0.02249 -0.23806 0.12961
 N125 N 0.00236 -0.28239 0.12605
 N126 N -0.00237 -0.30872 0.10173
 C127 C -0.01557 -0.20816 0.15606
 C128 C -0.04148 -0.16289 0.16036
 H129 H -0.05928 -0.30061 0.03632
 H130 H 0.01111 -0.22181 0.17174
 H131 H 0.00135 -0.38518 0.06613
 H132 H -0.06938 -0.15194 0.14455
 C133 C 0.00220 0.36369 0.04853
 C134 C 0.03067 0.32089 0.05479
 C135 C 0.02482 0.29257 0.08160
 N136 N 0.05472 0.25205 0.08652
 N137 N 0.04947 0.22520 0.11037
 C138 C 0.01410 0.23784 0.13025
 N139 N -0.01574 0.27849 0.12539
 N140 N -0.01048 0.30540 0.10151
 C141 C 0.00672 0.20733 0.15623
 C142 C 0.03583 0.16429 0.16144
 H143 H 0.05905 0.30782 0.03977
 H144 H -0.02328 0.21869 0.17054
 H145 H -0.02336 0.37860 0.06465
 H146 H 0.06578 0.15574 0.14632
 C147 C 0.37532 -0.04105 0.55720
 C148 C 0.32776 -0.06283 0.55923
 C149 C 0.29944 -0.06405 0.58640
 N150 N 0.25175 -0.08205 0.58661
 N151 N 0.22402 -0.07983 0.61044
 C152 C 0.24295 -0.05951 0.63499
 N153 N 0.29086 -0.04205 0.63489
 N154 N 0.31858 -0.04422 0.61103
 C155 C 0.21155 -0.05334 0.66088
 C156 C 0.16085 -0.06704 0.66123
 H157 H 0.30922 -0.07713 0.54019
 H158 H 0.22860 -0.03580 0.67946
 H159 H 0.39479 -0.03064 0.57680
 H160 H 0.14582 -0.08701 0.64279
 C161 C -0.37083 0.04962 0.55714
 C162 C -0.32141 0.06670 0.56049
 C163 C -0.29478 0.06500 0.58821
 N164 N -0.24716 0.08287 0.59006
 N165 N -0.22062 0.07774 0.61416
 C166 C -0.24064 0.05439 0.63734
 N167 N -0.28847 0.03692 0.63560
 N168 N -0.31508 0.04212 0.61148
 C169 C -0.21022 0.04475 0.66325
 C170 C -0.16050 0.06153 0.66561
 H171 H -0.30023 0.08044 0.54238
 H172 H -0.22729 0.02237 0.67984
 H173 H -0.39245 0.04298 0.57651
 H174 H -0.14698 0.08653 0.64903
 C175 C -0.04710 -0.37485 0.94317
 C176 C -0.06460 -0.32549 0.93998
 C177 C -0.06365 -0.29919 0.91227
 N178 N -0.08215 -0.25171 0.91062
 N179 N -0.07777 -0.22545 0.88649
 C180 C -0.05455 -0.24563 0.86308
 N181 N -0.03644 -0.29333 0.86462
 N182 N -0.04090 -0.31966 0.88877
 C183 C -0.04577 -0.21551 0.83710
 C184 C -0.06320 -0.16592 0.83498
 H185 H -0.07831 -0.30416 0.95822
 H186 H -0.02347 -0.23266 0.82026
 H187 H -0.04064 -0.39667 0.92374
 H188 H -0.08799 -0.15228 0.85187
 C189 C 0.04118 0.37008 0.94261
 C190 C 0.06262 0.32219 0.94044
 C191 C 0.06308 0.29347 0.91331
 N192 N 0.08085 0.24559 0.91300
 N193 N 0.07798 0.21759 0.88924
 C194 C 0.05720 0.23643 0.86486
 N195 N 0.03997 0.28452 0.86506
 N196 N 0.04280 0.31252 0.88885
 C197 C 0.05035 0.20482 0.83908
 C198 C 0.06391 0.15405 0.83864
 H199 H 0.07725 0.30375 0.95937
 H200 H 0.03245 0.22184 0.82065
 H201 H 0.03045 0.38939 0.92309
 H202 H 0.08432 0.13899 0.85686
 C203 C -0.36353 0.01937 0.45219
 C204 C -0.31589 0.04002 0.44750
 C205 C -0.28884 0.03469 0.42006
 N206 N -0.24500 0.05962 0.41623
 N207 N -0.21899 0.05437 0.39194
 C208 C -0.23577 0.02389 0.37053
 N209 N -0.27969 -0.00107 0.37433
 N210 N -0.30582 0.00428 0.39864
 C211 C -0.20609 0.01615 0.34410
 C212 C -0.16156 0.04270 0.33920
 H213 H -0.29767 0.06255 0.46380
 H214 H -0.21953 -0.01169 0.32902
 H215 H -0.38219 0.00197 0.43398
 H216 H -0.15182 0.07177 0.35461
 C217 C 0.36631 0.00036 0.45181
 C218 C 0.32515 -0.02974 0.44488
 C219 C 0.29599 -0.02354 0.41825
 N220 N 0.25877 -0.05646 0.41190
 N221 N 0.23109 -0.05091 0.38824
 C222 C 0.23953 -0.01215 0.37005
 N223 N 0.27683 0.02076 0.37638
 N224 N 0.30463 0.01514 0.40003
 C225 C 0.20779 -0.00439 0.34447
 C226 C 0.16932 -0.03768 0.33711
 H227 H 0.31428 -0.05974 0.45917
 H228 H 0.21382 0.02940 0.33225
 H229 H 0.37955 0.02745 0.43629
 H230 H 0.16430 -0.07078 0.35023
   
