data_POSCAR
  _audit_creation_date              2014-09-24
  _audit_creation_method            'ToBaCCo'
  _symmetry_space_group_name_H-M    'P1'
  _symmetry_Int_Tables_number       1
  _symmetry_cell_setting            triclinic
  loop_
  _symmetry_equiv_pos_as_xyz
 x,y,z
_cell_length_a 28.9592
_cell_length_b 28.7796
_cell_length_c 36.3588
_cell_angle_alpha 90.287000
_cell_angle_beta 89.999900
_cell_angle_gamma 117.934100
loop_
  _atom_site_label
  _atom_site_type_symbol
  _atom_site_fract_x
  _atom_site_fract_y
  _atom_site_fract_z
C1 C -0.03284 0.51619 1.35112
 C2 C 0.02055 0.54676 1.35045
 C3 C 0.03914 0.52800 1.32183
 N4 N -0.00149 0.48789 1.30450
 C5 C -0.04537 0.48049 1.32246
 C6 C 0.09247 0.54700 1.31173
 C7 C 0.10622 0.53389 1.27723
 C8 C 0.15392 0.53569 1.26912
 C9 C 0.15289 0.52376 1.23236
 C10 C 0.10472 0.51514 1.21893
 N11 N 0.07636 0.52098 1.24653
 C12 C 0.09077 0.50910 1.18135
 C13 C 0.03977 0.49556 1.16930
 C14 C 0.02646 0.50476 1.13454
 C15 C -0.02673 0.48525 1.13441
 C16 C -0.04457 0.46208 1.16846
 N17 N -0.00358 0.46919 1.18987
 C18 C -0.09750 0.43365 1.17973
 C19 C -0.11046 0.41938 1.21686
 C20 C -0.15650 0.37716 1.22854
 C21 C -0.15537 0.37821 1.26626
 C22 C -0.10902 0.42163 1.27667
 N23 N -0.08141 0.44600 1.24631
 C24 C -0.09634 0.44140 1.31299
 H25 H -0.05947 0.52114 1.36965
 H26 H 0.04265 0.57993 1.36843
 H27 H -0.04810 0.48245 1.24552
 H28 H 0.18635 0.54503 1.28769
 H29 H 0.18470 0.52327 1.21703
 H30 H 0.05214 0.52479 1.11187
 H31 H -0.04904 0.48874 1.11175
 H32 H -0.18591 0.35060 1.28388
 H33 H 0.04150 0.52281 1.24375
 H34 H -0.18765 0.34851 1.21158
 C35 C 0.56042 0.56089 1.36030
 C36 C 0.58717 0.53227 1.35918
 C37 C 0.56367 0.49401 1.33213
 N38 N 0.52430 0.49935 1.31609
 C39 C 0.52237 0.54026 1.33324
 C40 C 0.57739 0.45383 1.32341
 C41 C 0.56428 0.42701 1.28894
 C42 C 0.56858 0.38198 1.28055
 C43 C 0.55397 0.36966 1.24437
 C44 C 0.54019 0.40675 1.23163
 N45 N 0.54689 0.44175 1.25881
 C46 C 0.52538 0.40942 1.19498
 C47 C 0.49926 0.43815 1.18417
 C48 C 0.48570 0.44265 1.14826
 C49 C 0.45841 0.47069 1.14971
 C50 C 0.45601 0.48241 1.18645
 N51 N 0.48041 0.46186 1.20748
 C52 C 0.42896 0.50898 1.20005
 C53 C 0.42868 0.52212 1.23749
 C54 C 0.39583 0.53988 1.25263
 C55 C 0.41125 0.55320 1.28863
 C56 C 0.45310 0.54315 1.29451
 N57 N 0.46348 0.52442 1.26316
 C58 C 0.48419 0.55661 1.32670
 H59 H 0.56836 0.59340 1.37876
 H60 H 0.62037 0.53917 1.37628
 H61 H 0.49673 0.52037 1.25830
 H62 H 0.58073 0.35983 1.29850
 H63 H 0.55335 0.33689 1.22923
 H64 H 0.49362 0.42658 1.12352
 H65 H 0.44149 0.48041 1.12635
 H66 H 0.39448 0.56997 1.30778
 H67 H 0.54511 0.47675 1.25574
 H68 H 0.36483 0.54409 1.23893
 C69 C 0.46905 0.98718 1.13138
 C70 C 0.48094 1.03906 1.12972
 C71 C 0.50155 1.06112 1.16372
 N72 N 0.50038 1.02365 1.18661
 C73 C 0.48035 0.97834 1.16690
 C74 C 0.52370 1.11542 1.17280
 C75 C 0.53240 1.13319 1.20986
 C76 C 0.56628 1.18426 1.22093
 C77 C 0.56455 1.18531 1.25864
 C78 C 0.52922 1.13496 1.26983
 N79 N 0.50980 1.10343 1.23987
 C80 C 0.51480 1.11930 1.30677
 C81 C 0.48390 1.06580 1.31594
 C82 C 0.44691 1.04770 1.34361
 C83 C 0.42743 0.99417 1.34456
 C84 C 0.45462 0.98150 1.31833
 N85 N 0.48829 1.02543 1.30017
 C86 C 0.44983 0.93072 1.31149
 C87 C 0.46414 0.91901 1.27674
 C88 C 0.47366 0.87695 1.26903
 C89 C 0.48179 0.87740 1.23173
 C90 C 0.47731 0.91983 1.21768
 N91 N 0.46685 0.94510 1.24529
 C92 C 0.47631 0.93039 1.17994
 H93 H 0.45371 0.95959 1.10877
 H94 H 0.47521 1.05819 1.10592
 H95 H 0.45556 0.97430 1.24223
 H96 H 0.59103 1.21718 1.20375
 H97 H 0.58757 1.21939 1.27563
 H98 H 0.43447 1.07073 1.36065
 H99 H 0.39606 0.96775 1.36214
 H100 H 0.48880 0.84884 1.21661
 H101 H 0.48001 1.06474 1.23983
 H102 H 0.47422 0.84850 1.28812
 C103 C 1.05661 0.51881 0.63998
 C104 C 1.00316 0.49462 0.63756
 C105 C 0.98526 0.49821 0.67213
 N106 N 1.02571 0.52546 0.69523
 C107 C 1.06967 0.53890 0.67553
 C108 C 0.93239 0.47785 0.68181
 C109 C 0.91434 0.46397 0.71806
 C110 C 0.86300 0.44628 0.72907
 C111 C 0.86011 0.43049 0.76496
 C112 C 0.90993 0.43965 0.77494
 N113 N 0.94262 0.45959 0.74614
 C114 C 0.92372 0.42898 0.80985
 C115 C 0.97543 0.45374 0.82366
 C116 C 0.98936 0.44791 0.85906
 C117 C 1.04080 0.48435 0.86344
 C118 C 1.05759 0.51023 0.83002
 N119 N 1.01701 0.49169 0.80610
 C120 C 1.10683 0.55470 0.82301
 C121 C 1.12261 0.57604 0.78718
 C122 C 1.16864 0.62156 0.77935
 C123 C 1.17354 0.62495 0.74183
 C124 C 1.13041 0.58179 0.72743
 N125 N 1.09972 0.55206 0.75509
 C126 C 1.12098 0.57044 0.68946
 H127 H 1.08245 0.52057 0.61796
 H128 H 0.98017 0.47493 0.61350
 H129 H 1.06862 0.51453 0.75180
 H130 H 0.83066 0.44365 0.71267
 H131 H 0.82531 0.41438 0.78183
 H132 H 0.96436 0.42215 0.88028
 H133 H 1.06180 0.49159 0.88911
 H134 H 1.20526 0.65587 0.72683
 H135 H 0.98038 0.46425 0.74460
 H136 H 1.19719 0.64892 0.79842
 C137 C 0.46555 0.50977 0.63570
 C138 C 0.50154 0.49153 0.63411
 C139 C 0.51875 0.49241 0.66979
 N140 N 0.49501 0.51136 0.69307
 C141 C 0.46234 0.52197 0.67225
 C142 C 0.55688 0.47720 0.67989
 C143 C 0.56705 0.46912 0.71680
 C144 C 0.60960 0.46307 0.72832
 C145 C 0.60350 0.45284 0.76546
 C146 C 0.55764 0.45335 0.77570
 N147 N 0.53551 0.46295 0.74586
 C148 C 0.53633 0.44288 0.81153
 C149 C 0.49609 0.45429 0.82296
 C150 C 0.46848 0.43726 0.85555
 C151 C 0.43629 0.46000 0.85765
 C152 C 0.44506 0.48996 0.82620
 N153 N 0.48163 0.48644 0.80499
 C154 C 0.42167 0.52234 0.81867
 C155 C 0.42001 0.54112 0.78299
 C156 C 0.40188 0.57683 0.77497
 C157 C 0.40400 0.58257 0.73733
 C158 C 0.42390 0.55070 0.72335
 N159 N 0.43304 0.52520 0.75131
 C160 C 0.43117 0.54448 0.68549
 H161 H 0.44413 0.51337 0.61246
 H162 H 0.51316 0.47841 0.60950
 H163 H 0.44250 0.49475 0.74848
 H164 H 0.64162 0.46545 0.71170
 H165 H 0.62989 0.44590 0.78293
 H166 H 0.47125 0.41126 0.87581
 H167 H 0.40931 0.45486 0.87976
 H168 H 0.39247 0.60764 0.72200
 H169 H 0.49830 0.45975 0.74470
 H170 H 0.38813 0.59644 0.79417
 C171 C 0.46962 0.00879 0.86145
 C172 C 0.43371 -0.04331 0.85908
 C173 C 0.43756 -0.06015 0.82387
 N174 N 0.47344 -0.01938 0.80426
 C175 C 0.49305 0.02266 0.82730
 C176 C 0.41022 -0.11287 0.81081
 C177 C 0.40463 -0.12529 0.77268
 C178 C 0.39053 -0.17490 0.75822
 C179 C 0.38991 -0.17081 0.72068
 C180 C 0.40339 -0.11881 0.71285
 N181 N 0.41225 -0.09131 0.74481
 C182 C 0.40671 -0.09840 0.67687
 C183 C 0.43053 -0.04360 0.67017
 C184 C 0.42103 -0.02027 0.63980
 C185 C 0.45442 0.03249 0.64243
 C186 C 0.48253 0.03982 0.67465
 N187 N 0.46779 -0.00664 0.69174
 C188 C 0.52334 0.08842 0.68659
 C189 C 0.54290 0.09732 0.72283
 C190 C 0.58871 0.14028 0.73431
 C191 C 0.59186 0.13568 0.77180
 C192 C 0.54762 0.09026 0.78207
 N193 N 0.51802 0.06722 0.75206
 C194 C 0.53360 0.07295 0.81858
 H195 H 0.47703 0.03388 0.88536
 H196 H 0.40767 -0.06606 0.88092
 H197 H 0.48025 0.03608 0.75204
 H198 H 0.38287 -0.21029 0.77304
 H199 H 0.38160 -0.20259 0.70146
 H200 H 0.39276 -0.03921 0.61804
 H201 H 0.45740 0.06212 0.62299
 H202 H 0.62279 0.16308 0.78949
 H203 H 0.41914 -0.05258 0.74759
 H204 H 0.61672 0.17180 0.71748
 O205 O 0.43253 0.67254 0.97448
 O206 O 0.42310 0.75888 0.97654
 C207 C 0.39154 0.76002 0.95293
 O208 O 0.34266 0.73127 0.95510
 O209 O 0.25850 0.64344 0.96679
 C210 C 0.25401 0.59918 0.95692
 O211 O 0.27872 0.57809 0.97192
 O212 O 0.37082 0.58972 0.98629
 C213 C 0.41036 0.62327 0.96839
 O214 O 0.43061 0.66885 1.04783
 O215 O 0.41243 0.74964 1.04985
 C216 C 0.38179 0.76993 1.05038
 O217 O 0.34516 0.75845 1.02708
 O218 O 0.26314 0.66865 1.03848
 C219 C 0.24676 0.62396 1.05328
 O220 O 0.26186 0.59046 1.04387
 O221 O 0.35353 0.60089 1.05928
 C222 C 0.40105 0.62974 1.06705
 Cr223 Cr 0.42169 0.71072 1.01200
 Cr224 Cr 0.30412 0.69918 0.99727
 Cr225 Cr 0.31755 0.59278 1.01510
 O226 O 0.34745 0.66716 1.00807
 O227 O 0.60231 0.37305 0.96995
 O228 O 0.58990 0.28233 0.94835
 C229 C 0.60991 0.25637 0.93330
 O230 O 0.65095 0.25617 0.94528
 O231 O 0.74120 0.34055 0.93875
 C232 C 0.77055 0.38984 0.93954
 O233 O 0.76859 0.41935 0.96472
 O234 O 0.68617 0.43387 0.96284
 C235 C 0.63791 0.41449 0.95513
 O236 O 0.60561 0.34432 1.04130
 O237 O 0.59326 0.25367 1.01923
 C238 C 0.62428 0.23618 1.02949
 O239 O 0.67021 0.25262 1.01711
 O240 O 0.76259 0.33412 1.01011
 C241 C 0.77403 0.36884 1.03510
 O242 O 0.75390 0.39960 1.03700
 O243 O 0.67620 0.42158 1.03562
 C244 C 0.63558 0.39035 1.05266
 Cr245 Cr 0.60063 0.31444 0.99457
 Cr246 Cr 0.70496 0.29762 0.97830
 Cr247 Cr 0.71944 0.41566 0.99970
 O248 O 0.67467 0.34237 0.99076
 O249 O 0.66088 0.39222 0.54944
 O250 O 0.74887 0.38662 0.55482
 C251 C 0.77532 0.36168 0.55491
 O252 O 0.76987 0.32721 0.53084
 O253 O 0.68478 0.23846 0.53811
 C254 C 0.63710 0.21451 0.54722
 O255 O 0.60212 0.22366 0.53290
 O256 O 0.60227 0.30835 0.55657
 C257 C 0.62390 0.35569 0.56719
 O258 O 0.67523 0.40273 0.47559
 O259 O 0.76658 0.40431 0.48288
 C260 C 0.77495 0.37652 0.45926
 O261 O 0.74900 0.32674 0.45823
 O262 O 0.66521 0.23483 0.46571
 C263 C 0.62312 0.22954 0.45117
 O264 O 0.59872 0.25352 0.46277
 O265 O 0.59510 0.33762 0.48714
 C266 C 0.62613 0.37928 0.47029
 Cr267 Cr 0.71148 0.39381 0.51534
 Cr268 Cr 0.71579 0.28318 0.49842
 Cr269 Cr 0.60227 0.28220 0.50966
 O270 O 0.67646 0.31956 0.50776
 O271 O 0.35421 0.61857 0.53656
 O272 O 0.27227 0.63168 0.54653
 C273 C 0.24545 0.65591 0.54581
 O274 O 0.24743 0.68517 0.51936
 O275 O 0.33747 0.77056 0.52139
 C276 C 0.38679 0.79366 0.52595
 O277 O 0.41790 0.78253 0.50747
 O278 O 0.42148 0.69875 0.53084
 C279 C 0.39819 0.65501 0.54704
 O280 O 0.32674 0.59382 0.46556
 O281 O 0.24141 0.60216 0.47608
 C282 C 0.23192 0.62723 0.45091
 O283 O 0.25825 0.67687 0.44692
 O284 O 0.34496 0.76896 0.44825
 C285 C 0.38264 0.77045 0.42966
 O286 O 0.40457 0.74290 0.43761
 O287 O 0.40856 0.65979 0.46137
 C288 C 0.37252 0.61429 0.45227
 Cr289 Cr 0.30000 0.61414 0.50560
 Cr290 Cr 0.29852 0.72407 0.48407
 Cr291 Cr 0.41039 0.71972 0.48454
 O292 O 0.33661 0.68577 0.49115
 C293 C 0.47691 0.58968 0.35506
 C294 C 0.43481 0.57001 0.37664
 C295 C 0.42746 0.60238 0.40517
 C296 C 0.38352 0.58293 0.42491
 H297 H 0.40507 0.52953 0.37277
 H298 H 0.45750 0.64263 0.40936
 H299 H 0.50764 0.62959 0.35920
 H300 H 0.35341 0.54294 0.41985
 C301 C 0.42952 0.88995 0.33813
 C302 C 0.43067 0.89785 0.37464
 C303 C 0.40506 0.85514 0.40158
 C304 C 0.40367 0.80801 0.39906
 H305 H 0.44978 0.93712 0.38610
 H306 H 0.39070 0.86508 0.42635
 H307 H 0.41305 0.84963 0.32855
 H308 H 0.42301 0.79938 0.37656
 C309 C 0.13415 0.58033 0.33514
 C310 C 0.13329 0.57703 0.37186
 C311 C 0.17962 0.61146 0.39402
 C312 C 0.18635 0.59619 0.42728
 H313 H 0.10003 0.54607 0.38567
 H314 H 0.20910 0.64813 0.38260
 H315 H 0.17118 0.60687 0.32259
 H316 H 0.15799 0.55789 0.43726
 C317 C 0.60489 0.43937 0.34938
 C318 C 0.59657 0.43811 0.38575
 C319 C 0.62397 0.42040 0.41176
 C320 C 0.60278 0.40133 0.44446
 H321 H 0.56636 0.44654 0.39651
 H322 H 0.66001 0.42048 0.40356
 H323 H 0.63011 0.42363 0.33957
 H324 H 0.56460 0.39735 0.45114
 C325 C 0.53171 0.15823 0.33482
 C326 C 0.54372 0.14942 0.36881
 C327 C 0.56656 0.19167 0.39655
 C328 C 0.60090 0.19125 0.42092
 H329 H 0.54127 0.11166 0.37554
 H330 H 0.55612 0.22325 0.39662
 H331 H 0.54110 0.19827 0.32797
 H332 H 0.61347 0.16128 0.41867
 C333 C 0.85999 0.42158 0.34023
 C334 C 0.86546 0.41509 0.37603
 C335 C 0.81900 0.38810 0.39955
 C336 C 0.81928 0.40384 0.43410
 H337 H 0.90376 0.42795 0.38806
 H338 H 0.78393 0.35588 0.38818
 H339 H 0.82066 0.40835 0.32991
 H340 H 0.85290 0.43888 0.44419
 C341 C 0.53785 0.38039 1.16618
 C342 C 0.57520 0.40696 1.14169
 C343 C 0.58560 0.38132 1.10994
 C344 C 0.62354 0.41062 1.08651
 H345 H 0.59718 0.44943 1.14435
 H346 H 0.56177 0.33948 1.10523
 H347 H 0.51579 0.33789 1.16486
 H348 H 0.64731 0.45224 1.09228
 C349 C 0.86054 0.41928 1.15480
 C350 C 0.86123 0.40532 1.11978
 C351 C 0.81817 0.39677 1.09473
 C352 C 0.81416 0.37438 1.06190
 H353 H 0.89333 0.39966 1.10942
 H354 H 0.79010 0.40984 1.10293
 H355 H 0.82411 0.41617 1.16530
 H356 H 0.84080 0.35911 1.05455
 C357 C 0.53886 0.15394 1.14483
 C358 C 0.55943 0.15023 1.11258
 C359 C 0.57433 0.19128 1.08439
 C360 C 0.60649 0.19430 1.05709
 H361 H 0.56791 0.11790 1.10738
 H362 H 0.56022 0.22007 1.08656
 H363 H 0.53829 0.19062 1.15089
 H364 H 0.62329 0.16764 1.05654
 C365 C 0.39945 0.52402 1.17358
 C366 C 0.42480 0.56436 1.15083
 C367 C 0.39748 0.57734 1.12171
 C368 C 0.42448 0.61745 1.09904
 H369 H 0.46703 0.58684 1.15284
 H370 H 0.35576 0.55295 1.11796
 H371 H 0.35723 0.50141 1.17263
 H372 H 0.46616 0.64151 1.10336
 C373 C 0.13147 0.51778 1.15357
 C374 C 0.15200 0.56093 1.13290
 C375 C 0.19059 0.56905 1.10391
 C376 C 0.20798 0.61171 1.08275
 H377 H 0.13897 0.59033 1.13698
 H378 H 0.20440 0.54032 1.09977
 H379 H 0.14498 0.48863 1.15073
 H380 H 0.19380 0.64003 1.08768
 C381 C 0.47184 0.88956 1.15309
 C382 C 0.42947 0.86449 1.13202
 C383 C 0.42602 0.82584 1.10413
 C384 C 0.38809 0.80891 1.07886
 H385 H 0.39752 0.87400 1.13465
 H386 H 0.45501 0.81203 1.10387
 H387 H 0.50340 0.87940 1.15143
 H388 H 0.36009 0.82402 1.07912
 C389 C 0.58809 0.47050 0.64978
 C390 C 0.58803 0.42464 0.64372
 C391 C 0.61352 0.41632 0.61100
 C392 C 0.60349 0.36770 0.60107
 H393 H 0.56643 0.39200 0.66210
 H394 H 0.63842 0.44962 0.59408
 H395 H 0.60663 0.50206 0.63009
 H396 H 0.57682 0.33468 0.61755
 C397 C 0.54599 0.13223 0.66004
 C398 C 0.56956 0.12850 0.62943
 C399 C 0.58660 0.16955 0.60125
 C400 C 0.62137 0.17391 0.57559
 H401 H 0.57506 0.09416 0.62478
 H402 H 0.57065 0.19697 0.60163
 H403 H 0.54304 0.16771 0.66592
 H404 H 0.64050 0.14936 0.57669
 C405 C 0.89368 0.46913 0.65268
 C406 C 0.87250 0.42466 0.63320
 C407 C 0.83188 0.41480 0.60560
 C408 C 0.81511 0.37298 0.58343
 H409 H 0.88543 0.39535 0.63778
 H410 H 0.81621 0.44226 0.60304
 H411 H 0.88087 0.49861 0.64874
 H412 H 0.83228 0.34672 0.58552
 C413 C 0.40329 0.56120 0.65852
 C414 C 0.42849 0.59644 0.63225
 C415 C 0.39968 0.60741 0.60299
 C416 C 0.42474 0.64595 0.57873
 H417 H 0.47085 0.61558 0.63142
 H418 H 0.35778 0.58275 0.60068
 H419 H 0.36114 0.54398 0.66062
 H420 H 0.46629 0.67171 0.58208
 C421 C 0.38528 0.86542 0.64729
 C422 C 0.40594 0.87413 0.61338
 C423 C 0.38236 0.83445 0.58408
 C424 C 0.40934 0.83540 0.55397
 H425 H 0.44201 0.90937 0.60752
 H426 H 0.34299 0.80280 0.58787
 H427 H 0.35322 0.82675 0.65281
 H428 H 0.44985 0.86494 0.55130
 C429 C 0.16471 0.59197 0.66588
 C430 C 0.16375 0.61021 0.63235
 C431 C 0.20767 0.62513 0.60691
 C432 C 0.20761 0.64768 0.57502
 H433 H 0.12972 0.61333 0.62311
 H434 H 0.23843 0.61500 0.61329
 H435 H 0.20196 0.59721 0.67634
 H436 H 0.17749 0.65907 0.56952
 C437 C 0.39789 0.53745 0.84977
 C438 C 0.42493 0.55887 0.88066
 C439 C 0.40171 0.57295 0.91205
 C440 C 0.43206 0.60458 0.93879
 H441 H 0.46528 0.56658 0.88266
 H442 H 0.35985 0.55915 0.91263
 H443 H 0.35870 0.53270 0.84661
 H444 H 0.47420 0.62176 0.93662
 C445 C 0.14044 0.58192 0.85250
 C446 C 0.15765 0.55898 0.87687
 C447 C 0.19413 0.59024 0.90621
 C448 C 0.21785 0.56966 0.92697
 H449 H 0.14675 0.51757 0.87423
 H450 H 0.20185 0.63053 0.91068
 H451 H 0.15808 0.62448 0.85308
 H452 H 0.21086 0.52977 0.92166
 C453 C 0.38816 0.84478 0.83598
 C454 C 0.41093 0.84437 0.86799
 C455 C 0.38637 0.80086 0.89434
 C456 C 0.41384 0.79868 0.92320
 H457 H 0.44916 0.87628 0.87479
 H458 H 0.34584 0.77172 0.89072
 H459 H 0.35365 0.80910 0.82786
 H460 H 0.45473 0.82745 0.92569
 C461 C 0.55721 0.41875 0.83842
 C462 C 0.57737 0.44195 0.87068
 C463 C 0.59232 0.41507 0.89895
 C464 C 0.62256 0.44151 0.92740
 H465 H 0.58146 0.48066 0.87665
 H466 H 0.57889 0.37312 0.89628
 H467 H 0.55588 0.38150 0.83137
 H468 H 0.63950 0.48398 0.92875
 C469 C 0.88072 0.39654 0.83502
 C470 C 0.86634 0.41980 0.86099
 C471 C 0.82282 0.38979 0.88602
 C472 C 0.81031 0.41565 0.91125
 H473 H 0.88755 0.46232 0.86376
 H474 H 0.80224 0.34720 0.88451
 H475 H 0.85915 0.35443 0.83054
 H476 H 0.83202 0.45826 0.91239
 C477 C 0.56376 0.10772 0.84950
 C478 C 0.56450 0.15376 0.85607
 C479 C 0.59270 0.18597 0.88819
 C480 C 0.58364 0.22483 0.90043
 H481 H 0.54291 0.16685 0.83823
 H482 H 0.61992 0.17656 0.90274
 H483 H 0.58233 0.09297 0.86874
 H484 H 0.55452 0.23237 0.88682
   
