data_POSCAR
  _audit_creation_date              2014-09-24
  _audit_creation_method            'ToBaCCo'
  _symmetry_space_group_name_H-M    'P1'
  _symmetry_Int_Tables_number       1
  _symmetry_cell_setting            triclinic
  loop_
  _symmetry_equiv_pos_as_xyz
 x,y,z
_cell_length_a 28.3201
_cell_length_b 28.3221
_cell_length_c 28.2226
_cell_angle_alpha 81.401700
_cell_angle_beta 99.555800
_cell_angle_gamma 87.066800
loop_
  _atom_site_label
  _atom_site_type_symbol
  _atom_site_fract_x
  _atom_site_fract_y
  _atom_site_fract_z
O1 O 0.57400 0.49413 0.03069
 O2 O 0.44827 0.48410 0.04721
 O3 O 0.51492 0.42601 0.03012
 O4 O 0.50656 0.55203 0.04795
 O5 O 0.48303 0.57449 -0.03124
 O6 O 0.49135 0.44846 -0.04906
 O7 O 0.42387 0.50638 -0.03183
 O8 O 0.54957 0.51641 -0.04839
 Cu9 Cu 0.51346 0.48681 0.04692
 Cu10 Cu 0.48440 0.51369 -0.04806
 C11 C 0.58314 0.50716 -0.01172
 C12 C 0.41464 0.49335 0.01056
 C13 C 0.50435 0.41580 -0.01250
 C14 C 0.49367 0.58470 0.01137
 O15 O 0.04355 0.55971 0.49322
 O16 O 0.03225 0.42957 0.50492
 O17 O 0.02419 0.49994 0.43215
 O18 O 0.05190 0.49047 0.56566
 O19 O -0.02549 0.50154 0.56761
 O20 O -0.05322 0.51085 0.43407
 O21 O -0.04507 0.44174 0.50662
 O22 O -0.03379 0.57183 0.49472
 Cu23 Cu 0.04571 0.49362 0.49877
 Cu24 Cu -0.04713 0.50779 0.50098
 C25 C 0.00701 0.58792 0.49244
 C26 C -0.00856 0.41358 0.50731
 C27 C -0.01923 0.50663 0.41045
 C28 C 0.01794 0.49478 0.58929
 O29 O 0.49858 0.04716 0.55287
 O30 O 0.48479 0.02974 0.42482
 O31 O 0.42701 0.03087 0.48803
 O32 O 0.55551 0.04587 0.48960
 O33 O 0.57207 -0.03198 0.51346
 O34 O 0.44352 -0.04705 0.51148
 O35 O 0.50065 -0.04823 0.44840
 O36 O 0.51390 -0.03082 0.57643
 Cu37 Cu 0.48974 0.04625 0.48646
 Cu38 Cu 0.50930 -0.04736 0.51482
 C39 C 0.50812 0.01113 0.58649
 C40 C 0.49076 -0.01219 0.41485
 C41 C 0.41347 -0.01069 0.49980
 C42 C 0.58559 0.00954 0.50149
 C43 C 0.50158 -0.00969 -0.04818
 C44 C 0.50387 -0.04797 -0.00924
 C45 C 0.50544 -0.03772 0.03819
 C46 C 0.50261 0.00957 0.04769
 C47 C 0.50019 0.04787 0.00877
 C48 C 0.49864 0.03761 -0.03867
 H49 H 0.49309 0.06685 -0.06886
 H50 H 0.51081 -0.06696 0.06840
 C51 C -0.00651 0.51204 1.04556
 C52 C -0.04670 0.50267 1.01209
 C53 C -0.03888 0.48994 0.96751
 C54 C 0.00682 0.48878 0.95452
 C55 C 0.04701 0.49819 0.98796
 C56 C 0.03920 0.51087 1.03257
 H57 H 0.06902 0.52005 1.05800
 H58 H -0.06869 0.48074 0.94209
 C59 C 0.04665 0.01218 0.49706
 C60 C 0.01191 0.04692 0.50397
 C61 C -0.03431 0.03314 0.50865
 C62 C -0.04754 -0.01345 0.50433
 C63 C -0.01281 -0.04819 0.49740
 C64 C 0.03341 -0.03439 0.49271
 H65 H 0.05909 -0.05970 0.48372
 H66 H -0.05999 0.05849 0.51758
 C67 C -0.36707 0.51195 0.98071
 C68 C -0.32790 0.50381 1.01887
 C69 C -0.27826 0.50853 1.01041
 N70 N -0.24092 0.49883 1.04829
 N71 N -0.19583 0.50218 1.04088
 C72 C -0.18646 0.51551 0.99529
 N73 N -0.22381 0.52540 0.95751
 N74 N -0.26883 0.52202 0.96490
 C75 C -0.13698 0.51749 0.98576
 C76 C -0.09658 0.50657 1.02250
 H77 H -0.33365 0.49335 1.05587
 H78 H -0.13262 0.52724 0.94827
 H79 H -0.36122 0.52243 0.94375
 H80 H -0.10232 0.50144 1.05969
 C81 C 0.36744 0.48881 1.01776
 C82 C 0.32795 0.49754 0.97982
 C83 C 0.27841 0.49279 0.98861
 N84 N 0.24088 0.50266 0.95094
 N85 N 0.19588 0.49928 0.95861
 C86 C 0.18677 0.48577 1.00427
 N87 N 0.22429 0.47573 1.04185
 N88 N 0.26924 0.47912 1.03420
 C89 C 0.13737 0.48373 1.01405
 C90 C 0.09685 0.49445 0.97743
 H91 H 0.33324 0.50845 0.94273
 H92 H 0.13318 0.47402 1.05160
 H93 H 0.36153 0.47783 1.05465
 H94 H 0.10246 0.49952 0.94020
 C95 C 0.01288 -0.36329 0.49017
 C96 C -0.02478 -0.32908 0.48918
 C97 C -0.01596 -0.27875 0.49251
 N98 N -0.05326 -0.24481 0.48499
 N99 N -0.04543 -0.19941 0.48909
 C100 C 0.00001 -0.18648 0.50125
 N101 N 0.03717 -0.22045 0.50895
 N102 N 0.02937 -0.26567 0.50457
 C103 C 0.00999 -0.13696 0.50678
 C104 C -0.02465 -0.09821 0.49309
 H105 H -0.06132 -0.33937 0.48674
 H106 H 0.04639 -0.13119 0.52233
 H107 H 0.04884 -0.35183 0.49031
 H108 H -0.06131 -0.10491 0.47941
 C109 C -0.01484 0.36215 0.50953
 C110 C 0.02306 0.32795 0.51182
 C111 C 0.01448 0.27760 0.50832
 N112 N 0.05183 0.24362 0.51672
 N113 N 0.04419 0.19819 0.51260
 C114 C -0.00111 0.18525 0.49953
 N115 N -0.03831 0.21926 0.49095
 N116 N -0.03071 0.26450 0.49534
 C117 C -0.01090 0.13568 0.49405
 C118 C 0.02372 0.09696 0.50821
 H119 H 0.05959 0.33837 0.51548
 H120 H -0.04718 0.12983 0.47817
 H121 H -0.05107 0.35110 0.50777
 H122 H 0.06030 0.10367 0.52217
 C123 C 0.51165 0.01828 -0.36534
 C124 C 0.51642 -0.01958 -0.32660
 C125 C 0.51751 -0.01125 -0.27628
 N126 N 0.50903 -0.04713 -0.24186
 N127 N 0.50921 -0.03979 -0.19628
 C128 C 0.51826 0.00365 -0.18345
 N129 N 0.52726 0.03934 -0.21775
 N130 N 0.52668 0.03212 -0.26338
 C131 C 0.51905 0.01248 -0.13336
 C132 C 0.50047 -0.01850 -0.09899
 H133 H 0.51669 -0.05623 -0.33342
 H134 H 0.53488 0.04444 -0.12363
 H135 H 0.50841 0.05476 -0.35820
 H136 H 0.48539 -0.05048 -0.10962
 C137 C 0.48665 -0.01960 0.36400
 C138 C 0.48821 0.01802 0.32647
 C139 C 0.48681 0.01019 0.27596
 N140 N 0.49872 0.04515 0.24259
 N141 N 0.49818 0.03824 0.19683
 C142 C 0.48540 -0.00381 0.18275
 N143 N 0.47307 -0.03857 0.21601
 N144 N 0.47392 -0.03178 0.26182
 C145 C 0.48431 -0.01220 0.13248
 C146 C 0.50388 0.01830 0.09852
 H147 H 0.49281 0.05386 0.33463
 H148 H 0.46735 -0.04341 0.12215
 H149 H 0.48503 -0.05590 0.35635
 H150 H 0.51979 0.04983 0.10939
 C151 C 0.49130 -0.36516 0.01898
 C152 C 0.49051 -0.32739 -0.01901
 C153 C 0.48966 -0.27730 -0.01098
 N154 N 0.50018 -0.24259 -0.04545
 N155 N 0.49975 -0.19709 -0.03842
 C156 C 0.48843 -0.18466 0.00323
 N157 N 0.47751 -0.21931 0.03747
 N158 N 0.47830 -0.26483 0.03061
 C159 C 0.48702 -0.13468 0.01152
 C160 C 0.50615 -0.09868 -0.01731
 H161 H 0.49255 -0.33479 -0.05521
 H162 H 0.46998 -0.12627 0.04115
 H163 H 0.49263 -0.35797 0.05580
 H164 H 0.52236 -0.10794 -0.04716
 C165 C 0.50703 0.36567 -0.02014
 C166 C 0.50873 0.32780 0.01794
 C167 C 0.51043 0.27769 0.00996
 N168 N 0.50097 0.24266 0.04471
 N169 N 0.50225 0.19712 0.03777
 C170 C 0.51340 0.18499 -0.00406
 N171 N 0.52327 0.21998 -0.03858
 N172 N 0.52163 0.26552 -0.03180
 C173 C 0.51566 0.13500 -0.01229
 C174 C 0.49748 0.09856 0.01690
 H175 H 0.50694 0.33508 0.05424
 H176 H 0.53246 0.12699 -0.04221
 H177 H 0.50551 0.35853 -0.05700
 H178 H 0.48157 0.10748 0.04705
 C179 C -0.36360 0.01638 0.50023
 C180 C -0.32790 -0.02131 0.51229
 C181 C -0.27789 -0.01375 0.50707
 N182 N -0.24300 -0.05013 0.52225
 N183 N -0.19771 -0.04348 0.51717
 C184 C -0.18583 -0.00026 0.49649
 N185 N -0.22073 0.03595 0.48120
 N186 N -0.26587 0.02936 0.48640
 C187 C -0.13632 0.00848 0.49067
 C188 C -0.09734 -0.02520 0.50857
 H189 H -0.33683 -0.05712 0.52528
 H190 H -0.13050 0.04324 0.47163
 H191 H -0.35429 0.05230 0.48819
 H192 H -0.10353 -0.06075 0.52535
 C193 C 0.36266 -0.01754 0.50105
 C194 C 0.32698 0.02017 0.48915
 C195 C 0.27698 0.01258 0.49435
 N196 N 0.24210 0.04897 0.47927
 N197 N 0.19681 0.04230 0.48433
 C198 C 0.18493 -0.00097 0.50490
 N199 N 0.21982 -0.03719 0.52009
 N200 N 0.26496 -0.03058 0.51490
 C201 C 0.13542 -0.00974 0.51069
 C202 C 0.09644 0.02395 0.49285
 H203 H 0.33593 0.05601 0.47628
 H204 H 0.12961 -0.04453 0.52966
 H205 H 0.35334 -0.05348 0.51293
 H206 H 0.10264 0.05953 0.47615
 C207 C -0.03080 0.50808 1.35749
 C208 C 0.00344 0.51665 1.32770
 C209 C -0.00641 0.51280 1.27566
 N210 N 0.02126 0.53432 1.24522
 N211 N 0.01406 0.52942 1.19840
 C212 C -0.02073 0.50231 1.18042
 N213 N -0.04821 0.48051 1.21094
 N214 N -0.04138 0.48588 1.25765
 C215 C -0.02703 0.49431 1.12950
 C216 C -0.00967 0.52479 1.09395
 H217 H 0.03846 0.52675 1.34289
 H218 H -0.04392 0.46263 1.12038
 H219 H -0.06712 0.50221 1.34159
 H220 H 0.00939 0.55490 1.10436
 C221 C 0.02959 0.49336 0.64224
 C222 C -0.00457 0.48488 0.67213
 C223 C 0.00554 0.48863 0.72419
 N224 N -0.02196 0.46702 0.75478
 N225 N -0.01447 0.47179 0.80163
 C226 C 0.02043 0.49883 0.81952
 N227 N 0.04772 0.52071 0.78885
 N228 N 0.04061 0.51548 0.74210
 C229 C 0.02703 0.50668 0.87049
 C230 C 0.00995 0.47605 0.90612
 H231 H -0.03965 0.47485 0.65704
 H232 H 0.04389 0.53839 0.87958
 H233 H 0.06596 0.49913 0.65807
 H234 H -0.00906 0.44590 0.89574
   
