data_POSCAR
  _audit_creation_date              2014-09-24
  _audit_creation_method            'ToBaCCo'
  _symmetry_space_group_name_H-M    'P1'
  _symmetry_Int_Tables_number       1
  _symmetry_cell_setting            triclinic
  loop_
  _symmetry_equiv_pos_as_xyz
 x,y,z
_cell_length_a 25.0953
_cell_length_b 25.2997
_cell_length_c 25.2348
_cell_angle_alpha 89.921500
_cell_angle_beta 89.979800
_cell_angle_gamma 90.124500
loop_
  _atom_site_label
  _atom_site_type_symbol
  _atom_site_fract_x
  _atom_site_fract_y
  _atom_site_fract_z
C1 C 0.31350 0.36662 1.37915
 N2 N 0.33766 0.32229 1.39770
 C3 C 0.38267 0.30352 1.37442
 N4 N 0.40280 0.32895 1.33133
 C5 C 0.37893 0.37322 1.31219
 N6 N 0.33437 0.39180 1.33627
 C7 C 1.18790 0.63466 0.87886
 N8 N 1.16358 0.67886 0.89749
 C9 C 1.11855 0.69764 0.87418
 N10 N 1.09860 0.67236 0.83098
 C11 C 1.12264 0.62827 0.81175
 N12 N 1.16717 0.60965 0.83588
 C13 C 0.68995 -0.12278 0.11862
 N14 N 0.66524 -0.16680 0.09972
 C15 C 0.62230 -0.18760 0.12528
 N16 N 0.60431 -0.16398 0.17008
 C17 C 0.62824 -0.11984 0.18918
 N18 N 0.67145 -0.09977 0.16373
 C19 C -0.18737 1.12060 -0.38311
 N20 N -0.16324 1.16436 -0.40299
 C21 C -0.11988 1.18556 -0.37871
 N22 N -0.10113 1.16274 -0.33364
 C23 C -0.12473 1.11865 -0.31355
 N24 N -0.16825 1.09819 -0.33807
 C25 C 0.68908 0.61926 0.61727
 N26 N 0.66948 0.59660 0.66207
 C27 C 0.62584 0.61700 0.68640
 N28 N 0.60267 0.66125 0.66638
 C29 C 0.62192 0.68433 0.62160
 N30 N 0.66536 0.66320 0.59752
 C31 C 0.80856 0.38021 0.11894
 N32 N 0.83214 0.33616 0.09923
 C33 C 0.87534 0.31457 0.12332
 N34 N 0.89463 0.33726 0.16819
 C35 C 0.87171 0.38152 0.18836
 N36 N 0.82827 0.40243 0.16396
 C37 C 0.31288 0.12761 0.87935
 N38 N 0.33419 0.10362 0.83613
 C39 C 0.37903 0.12277 0.81297
 N40 N 0.40261 0.16674 0.83307
 C41 C 0.38187 0.19123 0.87624
 N42 N 0.33661 0.17189 0.89881
 C43 C 0.18560 0.87374 0.37951
 N44 N 0.16417 0.89779 0.33635
 C45 C 0.11948 0.87841 0.31318
 N46 N 0.09624 0.83418 0.33317
 C47 C 0.11714 0.80964 0.37626
 N48 N 0.16221 0.82920 0.39888
 Zn49 Zn 0.06538 0.97534 0.01164
 Zn50 Zn -0.04136 0.96391 -0.04059
 Zn51 Zn -0.03136 1.01593 0.06569
 Zn52 Zn 0.01049 1.07072 -0.02957
 O53 O 0.00064 1.00632 0.00160
 O54 O 0.07049 0.91352 -0.02152
 O55 O -0.10203 0.94325 -0.00791
 O56 O 0.00649 0.99031 0.11989
 O57 O -0.00777 0.90421 -0.06091
 O58 O 0.07868 0.96059 0.07951
 O59 O -0.09378 0.98307 0.06975
 O60 O -0.01544 1.12460 0.00861
 O61 O -0.06132 0.99681 -0.10070
 O62 O -0.04573 1.08353 0.07994
 O63 O -0.02203 1.07483 -0.09201
 O64 O 0.07886 1.08520 -0.04333
 O65 O 0.11991 1.01409 -0.01291
 C66 C 0.03877 0.88736 -0.05053
 C67 C -0.11967 0.95386 0.03810
 C68 C 0.05126 0.96720 0.12120
 C69 C -0.03868 1.12549 0.05327
 C70 C -0.05073 1.04282 -0.11811
 C71 C 0.12109 1.05872 -0.03591
 Zn72 Zn 0.48794 -0.07031 0.47019
 Zn73 Zn 0.52940 -0.01637 0.56598
 Zn74 Zn 0.54017 0.03602 0.45968
 Zn75 Zn 0.43330 0.02509 0.51169
 O76 O 0.49783 -0.00626 0.50173
 O77 O 0.51317 -0.12450 0.50838
 O78 O 0.59215 0.01578 0.57010
 O79 O 0.56089 0.00342 0.39984
 O80 O 0.54315 -0.08416 0.58014
 O81 O 0.52121 -0.07443 0.40806
 O82 O 0.60050 0.05603 0.49256
 O83 O 0.42866 0.08695 0.47840
 O84 O 0.49168 0.00959 0.62016
 O85 O 0.50713 0.09589 0.43923
 O86 O 0.41990 0.03995 0.57955
 O87 O 0.37869 -0.01336 0.48706
 O88 O 0.41962 -0.08425 0.45606
 C89 C 0.53610 -0.12586 0.55317
 C90 C 0.61817 0.04491 0.53840
 C91 C 0.55056 -0.04254 0.38240
 C92 C 0.46067 0.11298 0.44947
 C93 C 0.44714 0.03315 0.62134
 C94 C 0.37746 -0.05776 0.46375
 Zn95 Zn 0.97334 0.48464 0.56586
 Zn96 Zn 1.01475 0.43077 0.46959
 Zn97 Zn 0.96181 0.53643 0.45943
 Zn98 Zn 1.06906 0.52659 0.51122
 O99 O 1.00460 0.49472 0.50136
 O100 O 0.96002 0.41680 0.57999
 O101 O 0.98149 0.42619 0.40722
 O102 O 0.90123 0.55563 0.49244
 O103 O 0.98961 0.37659 0.50797
 O104 O 0.91029 0.51607 0.57022
 O105 O 0.94146 0.50370 0.39932
 O106 O 1.07303 0.58856 0.47835
 O107 O 1.08327 0.41724 0.45570
 O108 O 0.99434 0.59687 0.43955
 O109 O 1.12380 0.48879 0.48612
 O110 O 1.08276 0.54165 0.57912
 O111 O 1.01105 0.51117 0.61999
 C112 C 0.96690 0.37517 0.55290
 C113 C 0.95197 0.45787 0.38163
 C114 C 0.88383 0.54462 0.53846
 C115 C 1.04065 0.61448 0.44992
 C116 C 1.12529 0.44425 0.46309
 C117 C 1.05556 0.53502 0.62101
 Zn118 Zn 0.52809 0.51631 1.06550
 Zn119 Zn 0.53956 0.46311 0.95985
 Zn120 Zn 0.43216 0.47379 1.01127
 Zn121 Zn 0.48658 0.56895 0.96862
 O122 O 0.49676 0.50537 1.00116
 O123 O 0.59104 0.48460 1.07052
 O124 O 0.50677 0.40257 0.94050
 O125 O 0.41870 0.45915 1.07928
 O126 O 0.60016 0.44413 0.99332
 O127 O 0.49017 0.49043 1.11992
 O128 O 0.42788 0.41166 0.97877
 O129 O 0.41807 0.58295 0.95517
 O130 O 0.55976 0.49521 0.89917
 O131 O 0.37733 0.51171 0.98615
 O132 O 0.51907 0.57247 0.90609
 O133 O 0.51265 0.62342 1.00557
 O134 O 0.54171 0.58442 1.07855
 C135 C 0.61748 0.45555 1.03926
 C136 C 0.46021 0.38538 0.95065
 C137 C 0.44579 0.46631 1.12111
 C138 C 0.37593 0.55621 0.96290
 C139 C 0.54863 0.54069 0.88082
 C140 C 0.53533 0.62555 1.05043
 C141 C 1.26535 0.38578 0.40242
 C142 C 1.27128 0.44134 0.42635
 C143 C 1.22529 0.46109 0.44697
 C144 C 1.17722 0.42347 0.44184
 C145 C 1.17407 0.41069 0.38241
 C146 C 1.21988 0.39079 0.36190
 C147 C 1.24151 0.35199 0.44768
 C148 C 1.19543 0.37182 0.46812
 H149 H 1.30855 0.46322 0.42728
 H150 H 1.22359 0.49982 0.46532
 H151 H 1.13862 0.41661 0.35847
 H152 H 1.22335 0.37960 0.32050
 H153 H 1.25901 0.31571 0.46261
 H154 H 1.17403 0.35259 0.50022
 C155 C 0.23601 0.61533 0.90221
 C156 C 0.22988 0.55976 0.92624
 C157 C 0.27579 0.53981 0.94689
 C158 C 0.32401 0.57724 0.94168
 C159 C 0.32721 0.59007 0.88223
 C160 C 0.28149 0.61018 0.86169
 C161 C 0.25996 0.64898 0.94740
 C162 C 0.30597 0.62895 0.96786
 H163 H 0.19253 0.53802 0.92723
 H164 H 0.27735 0.50105 0.96531
 H165 H 0.36263 0.58404 0.85827
 H166 H 0.27810 0.62145 0.82028
 H167 H 0.24259 0.68532 0.96224
 H168 H 0.32743 0.64807 0.99992
 C169 C -0.26180 0.89619 0.09518
 C170 C -0.24763 0.87398 0.03993
 C171 C -0.20061 0.89269 0.02006
 C172 C -0.17202 0.93181 0.05712
 C173 C -0.21343 0.97510 0.06811
 C174 C -0.26038 0.95655 0.08782
 C175 C -0.21309 0.88347 0.12972
 C176 C -0.16631 0.90189 0.10982
 H177 H -0.27244 0.84650 0.01793
 H178 H -0.18555 0.88090 -0.01846
 H179 H -0.20665 1.01679 0.06029
 H180 H -0.29361 0.98247 0.09676
 H181 H -0.21509 0.86122 0.16652
 H182 H -0.12848 0.89532 0.12963
 C183 C 0.76135 0.10079 0.59343
 C184 C 0.74681 0.12306 0.53838
 C185 C 0.69938 0.10489 0.51924
 C186 C 0.67084 0.06619 0.55690
 C187 C 0.71186 0.02241 0.56758
 C188 C 0.75925 0.04052 0.58658
 C189 C 0.71337 0.11417 0.62864
 C190 C 0.66610 0.09627 0.60951
 H191 H 0.77170 0.15026 0.51606
 H192 H 0.68398 0.11686 0.48088
 H193 H 0.70444 -0.01923 0.56023
 H194 H 0.79231 0.01436 0.59547
 H195 H 0.71629 0.13638 0.66532
 H196 H 0.62863 0.10322 0.62985
 C197 C 0.40524 0.25501 0.39277
 C198 C 0.36943 0.20734 0.38010
 C199 C 0.38866 0.16049 0.39818
 C200 C 0.44198 0.16516 0.42772
 C201 C 0.47949 0.19307 0.38827
 C202 C 0.46031 0.24010 0.36991
 C203 C 0.41307 0.25318 0.45321
 C204 C 0.43206 0.20621 0.47141
 H205 H 0.33231 0.21007 0.35816
 H206 H 0.36795 0.12334 0.39164
 H207 H 0.51778 0.17749 0.37591
 H208 H 0.48268 0.26435 0.34217
 H209 H 0.40491 0.28617 0.47946
 H210 H 0.44003 0.19915 0.51311
 C211 C 0.90283 0.23405 0.60289
 C212 C 0.87940 0.25563 0.55065
 C213 C 0.90109 0.30232 0.53497
 C214 C 0.94434 0.32358 0.57237
 C215 C 0.91726 0.32596 0.62709
 C216 C 0.89559 0.27924 0.64291
 C217 C 0.96332 0.23158 0.59288
 C218 C 0.98503 0.27851 0.57699
 H219 H 0.84875 0.23606 0.52748
 H220 H 0.88871 0.32227 0.49889
 H221 H 0.91533 0.36115 0.65156
 H222 H 0.87514 0.27489 0.68061
 H223 H 0.98701 0.19605 0.59777
 H224 H 1.02719 0.28309 0.56849
 C225 C 0.09560 0.74594 -0.10734
 C226 C 0.08765 0.74746 -0.04691
 C227 C 0.06820 0.79421 -0.02867
 C228 C 0.05797 0.83536 -0.07230
 C229 C 0.11131 0.84058 -0.10179
 C230 C 0.13100 0.79397 -0.11991
 C231 C 0.04041 0.76049 -0.13022
 C232 C 0.02079 0.80728 -0.11181
 H233 H 0.09609 0.71446 -0.02069
 H234 H 0.06011 0.80103 0.01304
 H235 H 0.13171 0.87794 -0.10825
 H236 H 0.16819 0.79165 -0.14180
 H237 H 0.01829 0.73617 -0.15799
 H238 H -0.01762 0.82256 -0.12418
 C239 C 0.59841 0.76467 1.10647
 C240 C 0.63855 0.71908 1.10208
 C241 C 0.61723 0.67352 1.08297
 C242 C 0.55747 0.67714 1.07022
 C243 C 0.53141 0.69631 1.12168
 C244 C 0.55263 0.74205 1.14077
 C245 C 0.57429 0.76995 1.05073
 C246 C 0.55285 0.72424 1.03172
 H247 H 0.68027 0.72228 1.11308
 H248 H 0.64081 0.63800 1.07752
 H249 H 0.49886 0.67581 1.14130
 H250 H 0.53781 0.76014 1.17684
 H251 H 0.57384 0.80656 1.02821
 H252 H 0.53426 0.72210 0.99295
 C253 C 0.39784 0.39859 1.26150
 C254 C 0.44975 0.37588 1.23848
 C255 C 0.46492 0.39880 1.19207
 C256 C 0.42711 0.44240 1.17257
 C257 C 0.37196 0.41570 1.17027
 C258 C 0.35681 0.39287 1.21670
 C259 C 0.40812 0.45842 1.26568
 C260 C 0.42334 0.48139 1.21907
 H261 H 0.47298 0.34481 1.25701
 H262 H 0.50082 0.38706 1.17117
 H263 H 0.34668 0.41497 1.13539
 H264 H 0.31888 0.37261 1.22118
 H265 H 0.40381 0.48076 1.30212
 H266 H 0.43189 0.52333 1.21565
 C267 C 0.60873 -0.09656 0.24041
 C268 C 0.54811 -0.08814 0.24140
 C269 C 0.52938 -0.06960 0.28840
 C270 C 0.57288 -0.06075 0.33026
 C271 C 0.60177 -0.11405 0.33477
 C272 C 0.62031 -0.13280 0.28784
 C273 C 0.63236 -0.04254 0.25619
 C274 C 0.61351 -0.02374 0.30328
 H275 H 0.52216 -0.09569 0.20783
 H276 H 0.48746 -0.06133 0.29496
 H277 H 0.60754 -0.13509 0.37186
 H278 H 0.64189 -0.16983 0.28485
 H279 H 0.66107 -0.02076 0.23248
 H280 H 0.62638 0.01385 0.31956
 C281 C -0.10562 1.09616 -0.26175
 C282 C -0.12876 1.04173 -0.24635
 C283 C -0.11099 1.02326 -0.19875
 C284 C -0.07177 1.06088 -0.17084
 C285 C -0.02725 1.07044 -0.21161
 C286 C -0.04494 1.08874 -0.25917
 C287 C -0.11908 1.13222 -0.21478
 C288 C -0.10159 1.11375 -0.16728
 H289 H -0.15631 1.01934 -0.27077
 H290 H -0.12365 0.98542 -0.18276
 H291 H 0.01461 1.06287 -0.20388
 H292 H -0.01821 1.09680 -0.29206
 H293 H -0.14103 1.16898 -0.21851
 H294 H -0.10864 1.13472 -0.13044
 C295 C 1.10372 0.60293 0.76109
 C296 C 1.09322 0.54314 0.76552
 C297 C 1.07794 0.52015 0.71901
 C298 C 1.07434 0.55906 0.67233
 C299 C 1.03668 0.60284 0.69164
 C300 C 1.05191 0.62578 0.73796
 C301 C 1.14480 0.60842 0.71625
 C302 C 1.12958 0.58556 0.66990
 H303 H 1.09742 0.52084 0.80205
 H304 H 1.06924 0.47824 0.71579
 H305 H 1.00086 0.61470 0.67067
 H306 H 1.02880 0.65700 0.75633
 H307 H 1.18279 0.62857 0.72064
 H308 H 1.15486 0.58616 0.63500
 C309 C 0.74045 0.59956 0.59385
 C310 C 0.78851 0.61364 0.62872
 C311 C 0.83581 0.59603 0.60949
 C312 C 0.83105 0.56548 0.55713
 C313 C 0.79027 0.52142 0.56838
 C314 C 0.74285 0.53924 0.58747
 C315 C 0.75469 0.62149 0.53855
 C316 C 0.80213 0.60361 0.51933
 H317 H 0.78562 0.63608 0.66525
 H318 H 0.87332 0.60347 0.62962
 H319 H 0.79788 0.47978 0.56135
 H320 H 0.70997 0.51285 0.59676
 H321 H 0.72956 0.64825 0.51610
 H322 H 0.81729 0.61540 0.48079
 C323 C 0.76011 0.39949 1.09628
 C324 C 0.74645 0.37838 1.04043
 C325 C 0.69934 0.39665 1.02081
 C326 C 0.67004 0.43440 1.05855
 C327 C 0.66445 0.40326 1.11058
 C328 C 0.71139 0.38520 1.13031
 C329 C 0.75796 0.45997 1.09033
 C330 C 0.71084 0.47816 1.07075
 H331 H 0.77176 0.35203 1.01773
 H332 H 0.68478 0.38555 0.98188
 H333 H 0.62661 0.39577 1.13013
 H334 H 0.71353 0.36234 1.16671
 H335 H 0.79076 0.48623 1.10017
 H336 H 0.70349 0.51990 1.06394
 C337 C 0.26371 1.10931 -0.09848
 C338 C 0.21821 1.14927 -0.10570
 C339 C 0.17095 1.13329 -0.08457
 C340 C 0.17318 1.07851 -0.05797
 C341 C 0.19481 1.04154 -0.10106
 C342 C 0.24199 1.05737 -0.12223
 C343 C 0.26588 1.09886 -0.03838
 C344 C 0.21845 1.08286 -0.01720
 H345 H 0.22275 1.18705 -0.12572
 H346 H 0.13548 1.15768 -0.08652
 H347 H 0.17475 1.00564 -0.11373
 H348 H 0.26182 1.03445 -0.15273
 H349 H 0.30158 1.10360 -0.01454
 H350 H 0.21364 1.07410 0.02465
 C351 C 0.23475 -0.10796 0.40153
 C352 C 0.25619 -0.05572 0.37805
 C353 C 0.30343 -0.03999 0.39908
 C354 C 0.32535 -0.07735 0.44177
 C355 C 0.28029 -0.08223 0.48276
 C356 C 0.23281 -0.09814 0.46171
 C357 C 0.28031 -0.14773 0.39376
 C358 C 0.32761 -0.13185 0.41475
 H359 H 0.23612 -0.03255 0.34785
 H360 H 0.32334 -0.00390 0.38659
 H361 H 0.28528 -0.07388 0.52465
 H362 H 0.19724 -0.10319 0.48571
 H363 H 0.27579 -0.18531 0.37347
 H364 H 0.36313 -0.15613 0.41241
 C365 C 0.59951 -0.26708 0.60320
 C366 C 0.60681 -0.22192 0.64328
 C367 C 0.58540 -0.17516 0.62744
 C368 C 0.55849 -0.17748 0.57266
 C369 C 0.60175 -0.19872 0.53534
 C370 C 0.62320 -0.24544 0.55105
 C371 C 0.53905 -0.26951 0.59303
 C372 C 0.51759 -0.22257 0.57715
 H373 H 0.62711 -0.22631 0.68103
 H374 H 0.58742 -0.13998 0.65193
 H375 H 0.61433 -0.17874 0.49931
 H376 H 0.65384 -0.26500 0.52793
 H377 H 0.51517 -0.30504 0.59783
 H378 H 0.47548 -0.21799 0.56855
 C379 C 1.09435 0.75800 0.39542
 C380 C 1.08747 0.75506 0.45583
 C381 C 1.06897 0.70755 0.47340
 C382 C 1.05873 0.66721 0.42903
 C383 C 1.02053 0.69541 0.39066
 C384 C 1.03917 0.74297 0.37301
 C385 C 1.13036 0.71111 0.38135
 C386 C 1.11171 0.66369 0.39872
 H387 H 1.09601 0.78765 0.48247
 H388 H 1.06171 0.69959 0.51507
 H389 H 0.98218 0.67967 0.37848
 H390 H 1.01642 0.76759 0.34604
 H391 H 1.16722 0.71485 0.35910
 H392 H 1.13264 0.62693 0.39125
 C393 C -0.10226 1.26615 0.10451
 C394 C -0.12590 1.24511 0.05215
 C395 C -0.10443 1.19857 0.03601
 C396 C -0.06120 1.17690 0.07314
 C397 C -0.02032 1.22195 0.07806
 C398 C -0.04179 1.26870 0.09436
 C399 C -0.10960 1.22053 0.14417
 C400 C -0.08817 1.17396 0.12790
 H401 H -0.15654 1.26491 0.02922
 H402 H -0.11697 1.17901 -0.00019
 H403 H 0.02180 1.21748 0.06942
 H404 H -0.01792 1.30417 0.09948
 H405 H -0.12994 1.22448 0.18195
 H406 H -0.09022 1.13850 0.15207
 C407 C 0.40516 0.24257 0.89565
 C408 C 0.36982 0.28995 0.88146
 C409 C 0.38893 0.33708 0.89902
 C410 C 0.44167 0.33285 0.92964
 C411 C 0.43063 0.29243 0.97388
 C412 C 0.41168 0.24520 0.95612
 C413 C 0.46066 0.25707 0.87361
 C414 C 0.47977 0.30433 0.89145
 H415 H 0.33306 0.28675 0.85899
 H416 H 0.36848 0.37411 0.89148
 H417 H 0.43771 0.30013 1.01561
 H418 H 0.40257 0.21260 0.98266
 H419 H 0.48329 0.23229 0.84673
 H420 H 0.51838 0.31966 0.87953
 C421 C 0.60594 0.59420 0.73790
 C422 C 0.61827 0.63043 0.78508
 C423 C 0.59994 0.61184 0.83225
 C424 C 0.57049 0.55868 0.82827
 C425 C 0.52673 0.56775 0.78667
 C426 C 0.54525 0.58618 0.73940
 C427 C 0.62908 0.54002 0.75381
 C428 C 0.61046 0.52141 0.80112
 H429 H 0.64009 0.66739 0.78172
 H430 H 0.60618 0.63295 0.86918
 H431 H 0.48477 0.55977 0.79363
 H432 H 0.51912 0.59393 0.70602
 H433 H 0.65724 0.51790 0.72994
 H434 H 0.62300 0.48371 0.81740
 C435 C 0.39837 0.09851 0.76211
 C436 C 0.45046 0.12182 0.73982
 C437 C 0.46593 0.09975 0.69318
 C438 C 0.42820 0.05635 0.67283
 C439 C 0.42409 0.01656 0.71873
 C440 C 0.40856 0.03866 0.76552
 C441 C 0.35766 0.10487 0.71711
 C442 C 0.37311 0.08289 0.67048
 H443 H 0.47354 0.15268 0.75896
 H444 H 0.50196 0.11199 0.67267
 H445 H 0.43263 -0.02529 0.71478
 H446 H 0.40399 0.01570 0.80161
 H447 H 0.31975 0.12500 0.72160
 H448 H 0.34812 0.08420 0.63541
 C449 C 0.10014 0.90250 0.26225
 C450 C 0.14100 0.89630 0.21737
 C451 C 0.12552 0.91809 0.17061
 C452 C 0.07025 0.94426 0.17278
 C453 C 0.03275 0.90067 0.19325
 C454 C 0.04825 0.87882 0.24000
 C455 C 0.08956 0.96228 0.26540
 C456 C 0.07400 0.98418 0.21848
 H457 H 0.17904 0.87644 0.22201
 H458 H 0.15059 0.91687 0.13559
 H459 H -0.00316 0.88817 0.17275
 H460 H 0.02530 0.84786 0.25926
 H461 H 0.09391 0.98534 0.30139
 H462 H 0.06519 1.02597 0.21431
 C463 C 0.89232 0.40421 0.23966
 C464 C 0.88074 0.36794 0.28714
 C465 C 0.89987 0.38646 0.33400
 C466 C 0.92932 0.43961 0.32945
 C467 C 0.97237 0.43052 0.28715
 C468 C 0.95306 0.41219 0.24021
 C469 C 0.86950 0.45836 0.25587
 C470 C 0.88890 0.47690 0.30283
 H471 H 0.85882 0.33101 0.28421
 H472 H 0.89425 0.36531 0.37106
 H473 H 1.01445 0.43840 0.29342
 H474 H 0.97866 0.40444 0.20643
 H475 H 0.84091 0.48049 0.23247
 H476 H 0.87659 0.51457 0.31925
   
