data_POSCAR
  _audit_creation_date              2014-09-24
  _audit_creation_method            'ToBaCCo'
  _symmetry_space_group_name_H-M    'P1'
  _symmetry_Int_Tables_number       1
  _symmetry_cell_setting            triclinic
  loop_
  _symmetry_equiv_pos_as_xyz
 x,y,z
_cell_length_a 75.2896
_cell_length_b 75.3493
_cell_length_c 21.7425
_cell_angle_alpha 89.904000
_cell_angle_beta 90.270200
_cell_angle_gamma 120.077800
loop_
  _atom_site_label
  _atom_site_type_symbol
  _atom_site_fract_x
  _atom_site_fract_y
  _atom_site_fract_z
C1 C 0.24914 0.49058 0.52707
 C2 C 0.24728 0.48789 0.46482
 C3 C 0.22990 0.48725 0.43020
 C4 C 0.26258 0.48554 0.42816
 C5 C 0.26785 0.49391 0.56047
 C6 C 0.23248 0.49024 0.56436
 C7 C 0.21789 0.47074 0.39121
 C8 C 0.20130 0.46973 0.35914
 C9 C 0.19611 0.48537 0.36478
 C10 C 0.20886 0.50221 0.40358
 C11 C 0.22547 0.50313 0.43528
 C12 C 0.26764 0.47047 0.44305
 C13 C 0.28252 0.46884 0.40934
 C14 C 0.29245 0.48212 0.35975
 C15 C 0.28691 0.49681 0.34394
 C16 C 0.27206 0.49844 0.37770
 C17 C 0.28745 0.50935 0.54207
 C18 C 0.30500 0.51141 0.57093
 C19 C 0.30330 0.49829 0.61943
 C20 C 0.28364 0.48342 0.63946
 C21 C 0.26609 0.48129 0.61030
 C22 C 0.23669 0.50685 0.60273
 C23 C 0.22084 0.50728 0.63468
 C24 C 0.20050 0.49102 0.62916
 C25 C 0.19647 0.47406 0.59235
 C26 C 0.21233 0.47362 0.56060
 H27 H 0.22106 0.45827 0.38676
 H28 H 0.19206 0.45589 0.33300
 H29 H 0.20695 0.51543 0.40792
 H30 H 0.23502 0.51639 0.46366
 H31 H 0.26022 0.46012 0.48118
 H32 H 0.28655 0.45746 0.42288
 H33 H 0.26820 0.51002 0.36511
 H34 H 0.28914 0.51959 0.50468
 H35 H 0.31993 0.52326 0.55529
 H36 H 0.28185 0.47302 0.67646
 H37 H 0.25112 0.46936 0.62541
 H38 H 0.25217 0.51973 0.60668
 H39 H 0.22449 0.52039 0.66352
 H40 H 0.18097 0.46137 0.58672
 H41 H 0.20882 0.46050 0.53200
 H42 H 0.29402 0.50701 0.30532
 C43 C 0.49746 -0.25229 0.53306
 C44 C 0.49809 -0.25149 0.47036
 C45 C 0.50078 -0.26656 0.43347
 C46 C 0.49680 -0.23508 0.43603
 C47 C 0.49875 -0.23515 0.57023
 C48 C 0.49577 -0.27019 0.56715
 C49 C 0.51721 -0.26991 0.44542
 C50 C 0.51949 -0.28432 0.41128
 C51 C 0.50550 -0.29553 0.36407
 C52 C 0.48932 -0.29181 0.35136
 C53 C 0.48704 -0.27739 0.38557
 C54 C 0.51197 -0.22308 0.39305
 C55 C 0.51162 -0.20678 0.36351
 C56 C 0.49604 -0.20221 0.37618
 C57 C 0.48046 -0.21473 0.41766
 C58 C 0.48077 -0.23108 0.44697
 C59 C 0.48354 -0.23890 0.61363
 C60 C 0.48408 -0.22266 0.64628
 C61 C 0.49997 -0.20239 0.63648
 C62 C 0.51555 -0.19879 0.59438
 C63 C 0.51500 -0.21502 0.56187
 C64 C 0.48014 -0.29015 0.55325
 C65 C 0.47917 -0.30697 0.58351
 C66 C 0.49376 -0.30434 0.62915
 C67 C 0.50903 -0.28402 0.64398
 C68 C 0.50994 -0.26725 0.61351
 H69 H 0.52821 -0.26143 0.48143
 H70 H 0.53202 -0.28693 0.42252
 H71 H 0.47849 -0.29996 0.31465
 H72 H 0.47440 -0.27485 0.37523
 H73 H 0.52437 -0.22602 0.38351
 H74 H 0.52362 -0.19768 0.33089
 H75 H 0.46871 -0.24040 0.47918
 H76 H 0.47099 -0.25435 0.62115
 H77 H 0.47205 -0.22596 0.67913
 H78 H 0.52790 -0.18336 0.58538
 H79 H 0.52709 -0.21185 0.52934
 H80 H 0.46867 -0.29271 0.51875
 H81 H 0.46647 -0.32195 0.57194
 H82 H 0.52109 -0.28080 0.67685
 H83 H 0.52216 -0.25193 0.62486
 H84 H 0.46831 -0.21156 0.42874
 C85 C 1.25015 0.75114 0.52855
 C86 C 1.24916 0.75176 0.46591
 C87 C 1.26511 0.76931 0.43004
 C88 C 1.23201 0.73519 0.43008
 C89 C 1.23288 0.73530 0.56562
 C90 C 1.26850 0.76666 0.56299
 C91 C 1.27021 0.78949 0.44367
 C92 C 1.28554 0.80592 0.41073
 C93 C 1.29601 0.80263 0.36219
 C94 C 1.29021 0.78212 0.34778
 C95 C 1.27500 0.76575 0.38127
 C96 C 1.22128 0.74018 0.38700
 C97 C 1.20492 0.72480 0.35370
 C98 C 1.19896 0.70407 0.36265
 C99 C 1.21002 0.69912 0.40492
 C100 C 1.22648 0.71454 0.43800
 C101 C 1.23664 0.72420 0.61042
 C102 C 1.22053 0.70899 0.64472
 C103 C 1.20006 0.70435 0.63501
 C104 C 1.19658 0.71606 0.59071
 C105 C 1.21277 0.73143 0.55716
 C106 C 1.28814 0.77015 0.54900
 C107 C 1.30545 0.78577 0.57848
 C108 C 1.30362 0.79832 0.62344
 C109 C 1.28358 0.79399 0.63874
 C110 C 1.26633 0.77838 0.60902
 H111 H 1.26226 0.79254 0.47986
 H112 H 1.28846 0.82111 0.42228
 H113 H 1.29798 0.77849 0.31257
 H114 H 1.27124 0.75025 0.36992
 H115 H 1.22544 0.75602 0.37970
 H116 H 1.19700 0.72917 0.32063
 H117 H 1.23480 0.71037 0.47015
 H118 H 1.25207 0.72699 0.61791
 H119 H 1.22424 0.70027 0.67656
 H120 H 1.18146 0.71402 0.58312
 H121 H 1.20959 0.74034 0.52443
 H122 H 1.29008 0.76086 0.51466
 H123 H 1.32016 0.78749 0.56667
 H124 H 1.28096 0.80329 0.67114
 H125 H 1.25127 0.77593 0.62041
 H126 H 1.20574 0.68330 0.41319
 C127 C 0.75656 0.50830 0.53151
 C128 C 0.75753 0.50809 0.46893
 C129 C 0.77491 0.50828 0.43640
 C130 C 0.74113 0.50759 0.42987
 C131 C 0.73994 0.50985 0.56328
 C132 C 0.77210 0.50710 0.57086
 C133 C 0.79525 0.52377 0.44754
 C134 C 0.81149 0.52335 0.41805
 C135 C 0.80767 0.50753 0.37647
 C136 C 0.78725 0.49235 0.36430
 C137 C 0.77103 0.49278 0.39381
 C138 C 0.74551 0.52436 0.39195
 C139 C 0.72991 0.52457 0.35757
 C140 C 0.70983 0.50779 0.35941
 C141 C 0.70560 0.49071 0.39582
 C142 C 0.72113 0.49068 0.43122
 C143 C 0.72775 0.49515 0.60699
 C144 C 0.71150 0.49592 0.63517
 C145 C 0.70693 0.51149 0.62019
 C146 C 0.71981 0.52659 0.57741
 C147 C 0.73617 0.52587 0.54995
 C148 C 0.77618 0.49100 0.56432
 C149 C 0.79192 0.49086 0.59819
 C150 C 0.80399 0.50679 0.64021
 C151 C 0.79899 0.52242 0.64824
 C152 C 0.78327 0.52251 0.61411
 H153 H 0.79853 0.53606 0.47951
 H154 H 0.82705 0.53518 0.42867
 H155 H 0.78380 0.48017 0.33173
 H156 H 0.75544 0.48079 0.38419
 H157 H 0.76090 0.53749 0.39037
 H158 H 0.73349 0.53783 0.32947
 H159 H 0.71758 0.47758 0.46004
 H160 H 0.73046 0.48268 0.61808
 H161 H 0.70198 0.48357 0.66618
 H162 H 0.71786 0.53950 0.56623
 H163 H 0.74590 0.53785 0.51803
 H164 H 0.76729 0.47861 0.53236
 H165 H 0.79413 0.47786 0.59205
 H166 H 0.80786 0.53539 0.67813
 H167 H 0.78032 0.53508 0.61982
 H168 H 0.69019 0.47765 0.39800
 C169 C 0.49131 0.24421 0.53711
 C170 C 0.49255 0.24473 0.47451
 C171 C 0.49140 0.26080 0.43789
 C172 C 0.49476 0.22898 0.43968
 C173 C 0.48910 0.22638 0.57270
 C174 C 0.49184 0.26127 0.57286
 C175 C 0.47501 0.26449 0.44544
 C176 C 0.47418 0.27979 0.41136
 C177 C 0.48961 0.29156 0.36852
 C178 C 0.50576 0.28752 0.36013
 C179 C 0.50660 0.27223 0.39434
 C180 C 0.48093 0.21801 0.39211
 C181 C 0.48238 0.20262 0.36072
 C182 C 0.49778 0.19799 0.37607
 C183 C 0.51196 0.20942 0.42264
 C184 C 0.51054 0.22484 0.45386
 C185 C 0.50332 0.22924 0.61882
 C186 C 0.50179 0.21248 0.65103
 C187 C 0.48575 0.19229 0.63853
 C188 C 0.47118 0.18976 0.59297
 C189 C 0.47286 0.20656 0.56066
 C190 C 0.50772 0.28153 0.56485
 C191 C 0.50778 0.29753 0.59743
 C192 C 0.49201 0.29372 0.63966
 C193 C 0.47639 0.27309 0.64831
 C194 C 0.47638 0.25716 0.61551
 H195 H 0.46291 0.25556 0.47795
 H196 H 0.46163 0.28262 0.41922
 H197 H 0.51768 0.29607 0.32675
 H198 H 0.51924 0.26947 0.38735
 H199 H 0.46877 0.22111 0.38006
 H200 H 0.47145 0.19436 0.32434
 H201 H 0.52160 0.23340 0.48966
 H202 H 0.51580 0.24450 0.62938
 H203 H 0.51292 0.21565 0.68710
 H204 H 0.45889 0.17475 0.57964
 H205 H 0.46159 0.20408 0.52552
 H206 H 0.52014 0.28497 0.53338
 H207 H 0.52072 0.31276 0.59061
 H208 H 0.46346 0.26903 0.67810
 H209 H 0.46394 0.24160 0.62230
 H210 H 0.52390 0.20614 0.43589
 C211 C 0.74181 0.25928 0.53278
 C212 C 0.74187 0.25993 0.47003
 C213 C 0.72445 0.24408 0.43325
 C214 C 0.75972 0.27600 0.43562
 C215 C 0.75796 0.27636 0.56979
 C216 C 0.72596 0.24117 0.56683
 C217 C 0.72804 0.23310 0.38766
 C218 C 0.71160 0.21688 0.35686
 C219 C 0.69128 0.21140 0.37103
 C220 C 0.68777 0.22301 0.41475
 C221 C 0.70421 0.23930 0.44520
 C222 C 0.77953 0.27923 0.44639
 C223 C 0.79637 0.29481 0.41558
 C224 C 0.79372 0.30732 0.37277
 C225 C 0.77378 0.30368 0.36092
 C226 C 0.75692 0.28809 0.39189
 C227 C 0.76235 0.29657 0.56083
 C228 C 0.77865 0.31276 0.59207
 C229 C 0.79103 0.30920 0.63375
 C230 C 0.78575 0.28859 0.64434
 C231 C 0.76944 0.27245 0.61287
 C232 C 0.71391 0.24357 0.61137
 C233 C 0.69818 0.22642 0.64092
 C234 C 0.69437 0.20659 0.62686
 C235 C 0.70691 0.20434 0.58353
 C236 C 0.72262 0.22147 0.55407
 H237 H 0.74354 0.23659 0.37760
 H238 H 0.71475 0.20813 0.32364
 H239 H 0.67229 0.21936 0.42573
 H240 H 0.70114 0.24789 0.47922
 H241 H 0.78196 0.26981 0.47918
 H242 H 0.81152 0.29732 0.42615
 H243 H 0.74172 0.28567 0.38252
 H244 H 0.75326 0.29984 0.52896
 H245 H 0.78106 0.32797 0.58416
 H246 H 0.79482 0.28469 0.67412
 H247 H 0.76629 0.25693 0.62039
 H248 H 0.71639 0.25867 0.62219
 H249 H 0.68899 0.22866 0.67481
 H250 H 0.70428 0.18928 0.57132
 H251 H 0.73197 0.21934 0.52048
 H252 H 0.77122 0.31284 0.32750
 N253 N 0.98103 0.51949 0.05573
 N254 N 0.96630 0.52398 0.06234
 N255 N 1.02332 0.52751 0.10342
 N256 N 1.03898 0.53710 0.14155
 N257 N 1.02421 0.53988 0.05943
 N258 N 1.04051 0.55827 0.06660
 N259 N 0.98020 0.50714 0.09968
 N260 N 0.96491 0.50290 0.13743
 C261 C 0.95632 0.51347 0.11346
 C262 C 1.04956 0.55630 0.11816
 N263 N 1.02194 0.47604 0.06686
 N264 N 1.03758 0.47302 0.07619
 N265 N 0.97874 0.46821 0.10408
 N266 N 0.96260 0.45876 0.14027
 N267 N 0.97875 0.45547 0.06300
 N268 N 0.96261 0.43702 0.07005
 N269 N 1.02191 0.48874 0.10802
 N270 N 1.03751 0.49474 0.14638
 Mn271 Mn 1.00101 0.49789 0.10452
 C272 C 1.04713 0.48476 0.12614
 C273 C 0.95268 0.43928 0.11850
 N274 N 1.02520 0.53914 -0.07310
 N275 N 1.04062 0.55786 -0.08292
 N276 N 0.98186 0.50583 -0.11773
 N277 N 0.96599 0.49958 -0.15518
 N278 N 0.98197 0.51861 -0.07656
 N279 N 0.96613 0.52136 -0.08487
 N280 N 1.02500 0.52636 -0.11445
 N281 N 1.04022 0.53605 -0.15366
 Mn282 Mn 1.00312 0.52952 -0.00868
 C283 C 1.04991 0.55569 -0.13324
 C284 C 0.95634 0.50946 -0.13432
 N285 N 0.97977 0.45472 -0.06907
 N286 N 0.96320 0.43647 -0.07475
 N287 N 1.02372 0.48749 -0.10966
 N288 N 1.03949 0.49230 -0.14606
 N289 N 1.02295 0.47525 -0.06542
 N290 N 1.03816 0.47141 -0.07045
 N291 N 0.98051 0.46699 -0.11317
 N292 N 0.96447 0.45741 -0.15005
 Mn293 Mn 1.00086 0.46515 -0.00114
 Mn294 Mn 1.00279 0.49666 -0.11452
 Cl295 Cl 1.00195 0.49732 -0.00497
 C296 C 0.95384 0.43834 -0.12568
 C297 C 1.04837 0.48214 -0.12099
 N298 N 0.48470 0.45900 0.06870
 N299 N 0.48202 0.44042 0.07622
 N300 N 0.47391 0.49169 0.11226
 N301 N 0.46353 0.49685 0.14975
 N302 N 0.46186 0.47929 0.06908
 N303 N 0.44291 0.47568 0.07608
 N304 N 0.49665 0.47138 0.11208
 N305 N 0.50244 0.46159 0.15025
 C306 C 0.49320 0.44228 0.12733
 C307 C 0.44420 0.48674 0.12672
 N308 N 0.52369 0.54341 0.07287
 N309 N 0.52573 0.56172 0.08044
 N310 N 0.53414 0.51035 0.11472
 N311 N 0.54446 0.50557 0.15411
 N312 N 0.54640 0.52289 0.07240
 N313 N 0.56539 0.52683 0.08146
 N314 N 0.51138 0.53059 0.11460
 N315 N 0.50472 0.53982 0.15168
 Mn316 Mn 0.50401 0.50100 0.11410
 C317 C 0.51383 0.55926 0.12995
 C318 C 0.56392 0.51590 0.13267
 N319 N 0.46224 0.48002 -0.06333
 N320 N 0.44339 0.47668 -0.07033
 N321 N 0.49722 0.47254 -0.10594
 N322 N 0.50338 0.46317 -0.14425
 N323 N 0.48507 0.45973 -0.06390
 N324 N 0.48263 0.44130 -0.07250
 N325 N 0.47445 0.49292 -0.10509
 N326 N 0.46423 0.49872 -0.14158
 Mn327 Mn 0.47325 0.46927 0.00260
 C328 C 0.44483 0.48841 -0.11944
 C329 C 0.49416 0.44368 -0.12285
 N330 N 0.54678 0.52365 -0.05990
 N331 N 0.56565 0.52701 -0.06611
 N332 N 0.51208 0.53184 -0.10287
 N333 N 0.50597 0.54165 -0.13992
 N334 N 0.52412 0.54413 -0.05946
 N335 N 0.52650 0.56262 -0.06574
 N336 N 0.53482 0.51147 -0.10363
 N337 N 0.54526 0.50628 -0.14093
 Mn338 Mn 0.53548 0.53374 0.00647
 Mn339 Mn 0.50464 0.50220 -0.10517
 Cl340 Cl 0.50435 0.50155 0.00448
 C341 C 0.56450 0.51613 -0.11699
 C342 C 0.51511 0.56086 -0.11622
 N343 N 0.46033 -0.02219 0.06814
 N344 N 0.44169 -0.03779 0.07773
 N345 N 0.49320 0.02188 0.10766
 N346 N 0.49817 0.03766 0.14427
 N347 N 0.48059 0.02093 0.06422
 N348 N 0.47660 0.03601 0.07013
 N349 N 0.47295 -0.02119 0.11163
 N350 N 0.46325 -0.03603 0.15205
 C351 C 0.44376 -0.04631 0.13023
 C352 C 0.48769 0.04635 0.12027
 N353 N 0.54480 0.02363 0.06843
 N354 N 0.56298 0.04034 0.07350
 N355 N 0.51192 -0.01967 0.11397
 N356 N 0.50640 -0.03521 0.15213
 N357 N 0.52455 -0.01948 0.07220
 N358 N 0.52801 -0.03481 0.08084
 N359 N 0.53218 0.02353 0.11008
 N360 N 0.54140 0.04019 0.14442
 Mn361 Mn 0.50258 0.00114 0.11160
 C362 C 0.56065 0.05050 0.12130
 C363 C 0.51663 -0.04449 0.13096
 N364 N 0.48054 0.01962 -0.06817
 N365 N 0.47718 0.03503 -0.07692
 N366 N 0.47280 -0.02342 -0.10617
 N367 N 0.46323 -0.03979 -0.14172
 N368 N 0.46031 -0.02349 -0.06413
 N369 N 0.44195 -0.03989 -0.06982
 N370 N 0.49315 0.01975 -0.10993
 N371 N 0.49874 0.03528 -0.14810
 Mn372 Mn 0.47022 -0.00129 -0.00005
 C373 C 0.48859 0.04464 -0.12709
 C374 C 0.44396 -0.04991 -0.11852
 N375 N 0.52447 -0.02082 -0.06004
 N376 N 0.52810 -0.03616 -0.06513
 N377 N 0.53220 0.02141 -0.10738
 N378 N 0.54178 0.03699 -0.14565
 N379 N 0.54473 0.02227 -0.06379
 N380 N 0.56315 0.03842 -0.07120
 N381 N 0.51189 -0.02176 -0.10359
 N382 N 0.50663 -0.03776 -0.13950
 Mn383 Mn 0.53486 0.00141 0.00423
 Mn384 Mn 0.50250 -0.00102 -0.10759
 Cl385 Cl 0.50253 0.00005 0.00204
 C386 C 0.51689 -0.04660 -0.11499
 C387 C 0.56111 0.04746 -0.12251
 C388 C 1.17046 0.47121 0.28269
 C389 C 1.15342 0.46992 0.25252
 C390 C 1.14475 0.48157 0.27208
 C391 C 1.15333 0.49441 0.32341
 C392 C 1.17038 0.49580 0.35375
 C393 C 1.17950 0.48421 0.33441
 C394 C 1.12636 0.47923 0.23932
 C395 C 1.12055 0.49340 0.24053
 C396 C 1.10178 0.49080 0.20969
 C397 C 1.09303 0.50222 0.23143
 C398 C 1.07526 0.50021 0.20434
 C399 C 1.06596 0.48686 0.15442
 C400 C 1.07487 0.47571 0.13169
 C401 C 1.09264 0.47767 0.15892
 H402 H 1.17684 0.46255 0.26259
 H403 H 1.14713 0.45990 0.21294
 H404 H 1.14656 0.50296 0.34192
 H405 H 1.17534 0.50516 0.39473
 H406 H 1.11743 0.46525 0.21333
 H407 H 1.12951 0.50740 0.26642
 H408 H 1.09986 0.51258 0.27003
 H409 H 1.06882 0.50913 0.22253
 H410 H 1.06814 0.46550 0.09275
 H411 H 1.09926 0.46913 0.13933
 C412 C 0.52715 0.69250 0.31082
 C413 C 0.52924 0.67751 0.27928
 C414 C 0.51199 0.65843 0.26557
 C415 C 0.49243 0.65490 0.28226
 C416 C 0.49034 0.66991 0.31373
 C417 C 0.50769 0.68880 0.32885
 C418 C 0.51500 0.64280 0.23339
 C419 C 0.50178 0.62258 0.23757
 C420 C 0.50521 0.60676 0.20847
 C421 C 0.49501 0.58681 0.23270
 C422 C 0.49784 0.57141 0.20720
 C423 C 0.51082 0.57559 0.15649
 C424 C 0.52075 0.59542 0.13134
 C425 C 0.51795 0.61086 0.15691
 H426 H 0.54078 0.70704 0.32081
 H427 H 0.54445 0.68073 0.26626
 H428 H 0.47868 0.64067 0.27079
 H429 H 0.47514 0.66658 0.32712
 H430 H 0.52930 0.64819 0.20904
 H431 H 0.48845 0.61715 0.26677
 H432 H 0.48496 0.58317 0.27197
 H433 H 0.48985 0.55622 0.22729
 H434 H 0.53066 0.59899 0.09176
 H435 H 0.52554 0.62583 0.13554
 C436 C 0.31671 -0.18297 0.26814
 C437 C 0.33244 -0.16654 0.23620
 C438 C 0.34409 -0.14737 0.26442
 C439 C 0.33931 -0.14474 0.32483
 C440 C 0.32349 -0.16108 0.35675
 C441 C 0.31189 -0.18064 0.32930
 C442 C 0.36070 -0.13035 0.22914
 C443 C 0.37740 -0.11501 0.25603
 C444 C 0.39422 -0.09795 0.22147
 C445 C 0.41383 -0.08746 0.24826
 C446 C 0.42999 -0.07087 0.21818
 C447 C 0.42678 -0.06425 0.16096
 C448 C 0.40716 -0.07466 0.13407
 C449 C 0.39100 -0.09135 0.16401
 H450 H 0.30790 -0.19724 0.24340
 H451 H 0.33558 -0.16885 0.18922
 H452 H 0.34764 -0.13001 0.34759
 H453 H 0.32107 -0.15833 0.40393
 H454 H 0.35956 -0.13119 0.17946
 H455 H 0.37944 -0.11537 0.30527
 H456 H 0.41667 -0.09214 0.29264
 H457 H 0.44495 -0.06310 0.24008
 H458 H 0.40424 -0.06980 0.09012
 H459 H 0.37597 -0.09866 0.14271
 C460 C 0.82435 0.48785 0.33987
 C461 C 0.84057 0.48699 0.31199
 C462 C 0.85762 0.50484 0.28953
 C463 C 0.85828 0.52374 0.29664
 C464 C 0.84206 0.52461 0.32466
 C465 C 0.82489 0.50667 0.34643
 C466 C 0.87463 0.50317 0.26140
 C467 C 0.88821 0.51704 0.22215
 C468 C 0.90529 0.51536 0.19451
 C469 C 0.91415 0.52602 0.13983
 C470 C 0.93060 0.52526 0.11306
 C471 C 0.93863 0.51392 0.14079
 C472 C 0.92987 0.50331 0.19560
 C473 C 0.91344 0.50408 0.22241
 H474 H 0.81150 0.47382 0.35720
 H475 H 0.83978 0.47228 0.30786
 H476 H 0.87141 0.53795 0.28174
 H477 H 0.84289 0.53932 0.32893
 H478 H 0.87528 0.48945 0.27160
 H479 H 0.88639 0.52975 0.20733
 H480 H 0.90830 0.53496 0.11767
 H481 H 0.93710 0.53363 0.07085
 H482 H 0.93587 0.49459 0.21827
 H483 H 0.90755 0.49621 0.26561
 C484 C 0.47026 0.30532 0.30997
 C485 C 0.46960 0.32105 0.27776
 C486 C 0.48754 0.33997 0.26843
 C487 C 0.50634 0.34262 0.29049
 C488 C 0.50699 0.32689 0.32269
 C489 C 0.48894 0.30810 0.33317
 C490 C 0.48604 0.35634 0.23488
 C491 C 0.49978 0.37637 0.24124
 C492 C 0.49786 0.39289 0.21031
 C493 C 0.50826 0.41268 0.23572
 C494 C 0.50679 0.42872 0.20863
 C495 C 0.49498 0.42534 0.15518
 C496 C 0.48489 0.40567 0.12884
 C497 C 0.48635 0.38959 0.15597
 H498 H 0.45614 0.29089 0.31628
 H499 H 0.45497 0.31849 0.26059
 H500 H 0.52062 0.35670 0.28258
 H501 H 0.52162 0.32954 0.34015
 H502 H 0.47242 0.35166 0.20721
 H503 H 0.51237 0.38112 0.27344
 H504 H 0.51740 0.41570 0.27714
 H505 H 0.51485 0.44376 0.22975
 H506 H 0.47587 0.40270 0.08721
 H507 H 0.47867 0.37476 0.13369
 C508 C 0.65717 0.17920 0.37850
 C509 C 0.64112 0.16142 0.35243
 C510 C 0.64134 0.15701 0.28982
 C511 C 0.65778 0.17119 0.25326
 C512 C 0.67390 0.18894 0.27948
 C513 C 0.67382 0.19306 0.34242
 C514 C 0.62407 0.13764 0.26502
 C515 C 0.62484 0.12892 0.21203
 C516 C 0.60790 0.10897 0.18918
 C517 C 0.61232 0.09841 0.14418
 C518 C 0.59698 0.07944 0.12188
 C519 C 0.57685 0.07063 0.14419
 C520 C 0.57227 0.08130 0.18831
 C521 C 0.58755 0.10033 0.21029
 H522 H 0.65678 0.18186 0.42728
 H523 H 0.62862 0.15088 0.38163
 H524 H 0.65827 0.16885 0.20442
 H525 H 0.68639 0.19956 0.25041
 H526 H 0.61069 0.12976 0.29399
 H527 H 0.63884 0.13594 0.18552
 H528 H 0.62777 0.10476 0.12659
 H529 H 0.60091 0.07161 0.08752
 H530 H 0.55679 0.07501 0.20556
 H531 H 0.58319 0.10820 0.24310
 C532 C 0.46545 0.15676 -0.32277
 C533 C 0.46426 0.13981 -0.29261
 C534 C 0.48194 0.14045 -0.26937
 C535 C 0.50086 0.15869 -0.27505
 C536 C 0.50210 0.17573 -0.30472
 C537 C 0.48443 0.17512 -0.32984
 C538 C 0.48001 0.12204 -0.23837
 C539 C 0.49522 0.11766 -0.23681
 C540 C 0.49310 0.09888 -0.20788
 C541 C 0.50537 0.09104 -0.22919
 C542 C 0.50384 0.07336 -0.20316
 C543 C 0.49017 0.06330 -0.15467
 C544 C 0.47814 0.07133 -0.13245
 C545 C 0.47958 0.08895 -0.15873
 H546 H 0.45120 0.15550 -0.33834
 H547 H 0.44942 0.12605 -0.28778
 H548 H 0.51478 0.15994 -0.25628
 H549 H 0.51720 0.18904 -0.30987
 H550 H 0.46514 0.11116 -0.21981
 H551 H 0.50939 0.12749 -0.26085
 H552 H 0.51605 0.09852 -0.26654
 H553 H 0.51342 0.06761 -0.22089
 H554 H 0.46763 0.06400 -0.09467
 H555 H 0.47036 0.09491 -0.13974
 C556 C 0.67994 0.52096 -0.38465
 C557 C 0.66293 0.52097 -0.35931
 C558 C 0.65545 0.51224 -0.30155
 C559 C 0.66507 0.50306 -0.26994
 C560 C 0.68196 0.50282 -0.29544
 C561 C 0.68985 0.51183 -0.35336
 C562 C 0.63721 0.51237 -0.27682
 C563 C 0.63362 0.51237 -0.21647
 C564 C 0.61566 0.51311 -0.19210
 C565 C 0.61729 0.52227 -0.13465
 C566 C 0.60069 0.52334 -0.11035
 C567 C 0.58201 0.51494 -0.14265
 C568 C 0.58019 0.50535 -0.19951
 C569 C 0.59685 0.50445 -0.22409
 H570 H 0.68459 0.52736 -0.43022
 H571 H 0.65556 0.52785 -0.38507
 H572 H 0.65944 0.49577 -0.22581
 H573 H 0.68914 0.49610 -0.26819
 H574 H 0.62708 0.51372 -0.30963
 H575 H 0.64482 0.51316 -0.18353
 H576 H 0.63154 0.52885 -0.10883
 H577 H 0.60247 0.53067 -0.06615
 H578 H 0.56590 0.49858 -0.22511
 H579 H 0.59484 0.49670 -0.26760
 C580 C 0.81872 0.34551 -0.36404
 C581 C 0.83636 0.36150 -0.33703
 C582 C 0.84449 0.35837 -0.28277
 C583 C 0.83412 0.33902 -0.25454
 C584 C 0.81646 0.32298 -0.28138
 C585 C 0.80846 0.32575 -0.33726
 C586 C 0.86361 0.37570 -0.25704
 C587 C 0.87664 0.37318 -0.22067
 C588 C 0.89623 0.39039 -0.19688
 C589 C 0.90526 0.38701 -0.14486
 C590 C 0.92394 0.40259 -0.12158
 C591 C 0.93409 0.42186 -0.15025
 C592 C 0.92521 0.42527 -0.20256
 C593 C 0.90652 0.40970 -0.22584
 H594 H 0.81394 0.34867 -0.40768
 H595 H 0.84401 0.37630 -0.35965
 H596 H 0.83932 0.33621 -0.21109
 H597 H 0.80881 0.30863 -0.25656
 H598 H 0.86721 0.39096 -0.27048
 H599 H 0.87300 0.35789 -0.20740
 H600 H 0.89778 0.37226 -0.12198
 H601 H 0.93044 0.39952 -0.08119
 H602 H 0.93278 0.43996 -0.22580
 H603 H 0.90052 0.41280 -0.26719
 C604 C 0.48171 -0.18458 -0.32398
 C605 C 0.48186 -0.16779 -0.29618
 C606 C 0.50028 -0.15110 -0.27469
 C607 C 0.51864 -0.15152 -0.28191
 C608 C 0.51847 -0.16832 -0.30970
 C609 C 0.50003 -0.18499 -0.33134
 C610 C 0.49978 -0.13321 -0.24821
 C611 C 0.51455 -0.11924 -0.21153
 C612 C 0.51432 -0.10100 -0.18689
 C613 C 0.52610 -0.09126 -0.13435
 C614 C 0.52683 -0.07367 -0.11068
 C615 C 0.51590 -0.06536 -0.13943
 C616 C 0.50417 -0.07500 -0.19213
 C617 C 0.50344 -0.09258 -0.21584
 H618 H 0.46729 -0.19701 -0.34113
 H619 H 0.46754 -0.16778 -0.29188
 H620 H 0.53326 -0.13876 -0.26770
 H621 H 0.53283 -0.16822 -0.31444
 H622 H 0.48633 -0.13200 -0.25805
 H623 H 0.52705 -0.12146 -0.19687
 H624 H 0.53477 -0.09730 -0.11148
 H625 H 0.53603 -0.06654 -0.07002
 H626 H 0.49571 -0.06882 -0.21549
 H627 H 0.49473 -0.09917 -0.25757
 C628 C 0.33833 0.50232 -0.38918
 C629 C 0.35558 0.50290 -0.36286
 C630 C 0.35683 0.50077 -0.29907
 C631 C 0.34062 0.49866 -0.26182
 C632 C 0.32332 0.49799 -0.28823
 C633 C 0.32193 0.49968 -0.35220
 C634 C 0.37534 0.50108 -0.27365
 C635 C 0.37591 0.49335 -0.21845
 C636 C 0.39404 0.49267 -0.19412
 C637 C 0.39112 0.47916 -0.14558
 C638 C 0.40761 0.47781 -0.12128
 C639 C 0.42745 0.49000 -0.14492
 C640 C 0.43053 0.50377 -0.19278
 C641 C 0.41404 0.50521 -0.21696
 H642 H 0.33763 0.50349 -0.43868
 H643 H 0.36787 0.50469 -0.39264
 H644 H 0.34123 0.49775 -0.21231
 H645 H 0.31108 0.49636 -0.25851
 H646 H 0.38851 0.50681 -0.30360
 H647 H 0.36216 0.48605 -0.19081
 H648 H 0.37595 0.46947 -0.12665
 H649 H 0.40479 0.46713 -0.08412
 H650 H 0.44573 0.51356 -0.21131
 H651 H 0.41720 0.51635 -0.25280
 C652 C 1.18658 0.68237 -0.27280
 C653 C 1.17033 0.66649 -0.24064
 C654 C 1.15067 0.65580 -0.26668
 C655 C 1.14735 0.66173 -0.32488
 C656 C 1.16348 0.67777 -0.35684
 C657 C 1.18353 0.68836 -0.33178
 C658 C 1.13385 0.63897 -0.23146
 C659 C 1.11816 0.62266 -0.25872
 C660 C 1.10130 0.60563 -0.22421
 C661 C 1.09086 0.58610 -0.25129
 C662 C 1.07441 0.56978 -0.22118
 C663 C 1.06784 0.57277 -0.16378
 C664 C 1.07821 0.59231 -0.13663
 C665 C 1.09481 0.60860 -0.16647
 H666 H 1.20131 0.69036 -0.24982
 H667 H 1.17319 0.66244 -0.19530
 H668 H 1.13223 0.65412 -0.34574
 H669 H 1.16016 0.68115 -0.40242
 H670 H 1.13512 0.63955 -0.18178
 H671 H 1.11809 0.62114 -0.30826
 H672 H 1.09546 0.58346 -0.29591
 H673 H 1.06664 0.55490 -0.24331
 H674 H 1.07340 0.59505 -0.09251
 H675 H 1.10215 0.62357 -0.14497
 C676 C 0.82829 0.51817 -0.27194
 C677 C 0.84537 0.51939 -0.24225
 C678 C 0.85552 0.50975 -0.26689
 C679 C 0.84826 0.49887 -0.32237
 C680 C 0.83117 0.49760 -0.35219
 C681 C 0.82084 0.50735 -0.32794
 C682 C 0.87416 0.51231 -0.23511
 C683 C 0.88136 0.49934 -0.24200
 C684 C 0.90050 0.50227 -0.21266
 C685 C 0.90985 0.49179 -0.23742
 C686 C 0.92799 0.49415 -0.21204
 C687 C 0.93715 0.50698 -0.16100
 C688 C 0.92769 0.51723 -0.13539
 C689 C 0.90951 0.51487 -0.16074
 H690 H 0.82070 0.52531 -0.24936
 H691 H 0.85062 0.52786 -0.19948
 H692 H 0.85611 0.49190 -0.34439
 H693 H 0.82697 0.48986 -0.39616
 H694 H 0.88209 0.52548 -0.20522
 H695 H 0.87323 0.48611 -0.27162
 H696 H 0.90319 0.48185 -0.27699
 H697 H 0.93486 0.48592 -0.23249
 H698 H 0.93428 0.52702 -0.09552
 H699 H 0.90254 0.52271 -0.13876
 C700 C 0.48127 0.30666 -0.27173
 C701 C 0.48061 0.32260 -0.24113
 C702 C 0.49048 0.34250 -0.26528
 C703 C 0.50092 0.34612 -0.32140
 C704 C 0.50161 0.33021 -0.35218
 C705 C 0.49173 0.31004 -0.32822
 C706 C 0.48870 0.35872 -0.23203
 C707 C 0.50204 0.37885 -0.23841
 C708 C 0.49988 0.39513 -0.20687
 C709 C 0.51008 0.41502 -0.23151
 C710 C 0.50829 0.43081 -0.20412
 C711 C 0.49634 0.42706 -0.15114
 C712 C 0.48646 0.40730 -0.12554
 C713 C 0.48826 0.39150 -0.15290
 H714 H 0.47406 0.29187 -0.24934
 H715 H 0.47247 0.31938 -0.19789
 H716 H 0.50803 0.36104 -0.34302
 H717 H 0.50909 0.33376 -0.39646
 H718 H 0.47582 0.35362 -0.20122
 H719 H 0.51494 0.38387 -0.26913
 H720 H 0.51929 0.41831 -0.27262
 H721 H 0.51619 0.44594 -0.22464
 H722 H 0.47736 0.40405 -0.08423
 H723 H 0.48074 0.37663 -0.13098
 C724 C 0.65805 0.18694 -0.33536
 C725 C 0.64170 0.16943 -0.30923
 C726 C 0.64415 0.15297 -0.29020
 C727 C 0.66329 0.15426 -0.29877
 C728 C 0.67962 0.17175 -0.32496
 C729 C 0.67719 0.18828 -0.34361
 C730 C 0.62627 0.13450 -0.26396
 C731 C 0.62809 0.12130 -0.22661
 C732 C 0.61037 0.10271 -0.20037
 C733 C 0.61354 0.09395 -0.14744
 C734 C 0.59749 0.07610 -0.12198
 C735 C 0.57793 0.06649 -0.14927
 C736 C 0.57468 0.07514 -0.20238
 C737 C 0.59075 0.09304 -0.22787
 H738 H 0.65559 0.19926 -0.35027
 H739 H 0.62707 0.16874 -0.30386
 H740 H 0.66567 0.14169 -0.28658
 H741 H 0.69420 0.17235 -0.33055
 H742 H 0.61120 0.13233 -0.27382
 H743 H 0.64322 0.12460 -0.21213
 H744 H 0.62851 0.10097 -0.12560
 H745 H 0.60046 0.06978 -0.08103
 H746 H 0.55976 0.06797 -0.22455
 H747 H 0.58779 0.09892 -0.26972
 C748 C 1.18304 0.51043 -0.33841
 C749 C 1.16661 0.51118 -0.31148
 C750 C 1.15027 0.49360 -0.28506
 C751 C 1.15065 0.47510 -0.28656
 C752 C 1.16710 0.47436 -0.31343
 C753 C 1.18344 0.49199 -0.33989
 C754 C 1.13279 0.49500 -0.25923
 C755 C 1.11941 0.48153 -0.21873
 C756 C 1.10163 0.48262 -0.19403
 C757 C 1.09248 0.47205 -0.13946
 C758 C 1.07530 0.47205 -0.11548
 C759 C 1.06679 0.48254 -0.14581
 C760 C 1.07586 0.49311 -0.20043
 C761 C 1.09304 0.49309 -0.22454
 H762 H 1.19520 0.52419 -0.35940
 H763 H 1.16662 0.52557 -0.31165
 H764 H 1.13813 0.46103 -0.26847
 H765 H 1.16699 0.45994 -0.31359
 H766 H 1.13147 0.50811 -0.27284
 H767 H 1.12182 0.46950 -0.20081
 H768 H 1.09865 0.46374 -0.11527
 H769 H 1.06862 0.46374 -0.07329
 H770 H 1.06951 0.50119 -0.22502
 H771 H 1.09914 0.50088 -0.26771
 C772 C 0.48412 0.65907 -0.37050
 C773 C 0.48427 0.64243 -0.34259
 C774 C 0.49369 0.64457 -0.28528
 C775 C 0.50239 0.66361 -0.25520
 C776 C 0.50226 0.68030 -0.28292
 C777 C 0.49331 0.67850 -0.34160
 C778 C 0.49385 0.62656 -0.25827
 C779 C 0.50813 0.62814 -0.21794
 C780 C 0.50903 0.61033 -0.19228
 C781 C 0.52074 0.61325 -0.13885
 C782 C 0.52260 0.59715 -0.11386
 C783 C 0.51288 0.57779 -0.14207
 C784 C 0.50118 0.57478 -0.19554
 C785 C 0.49932 0.59088 -0.22061
 H786 H 0.47758 0.65665 -0.41617
 H787 H 0.47739 0.62789 -0.36670
 H788 H 0.50898 0.66567 -0.20965
 H789 H 0.50858 0.69435 -0.25663
 H790 H 0.48208 0.61163 -0.27405
 H791 H 0.51993 0.64317 -0.20278
 H792 H 0.52850 0.62807 -0.11630
 H793 H 0.53174 0.59992 -0.07258
 H794 H 0.49362 0.56003 -0.21846
 H795 H 0.49067 0.58802 -0.26283
 C796 C 0.34047 -0.17533 -0.37889
 C797 C 0.35756 -0.15842 -0.35274
 C798 C 0.35624 -0.15069 -0.29546
 C799 C 0.33730 -0.16029 -0.26473
 C800 C 0.32018 -0.17719 -0.29073
 C801 C 0.32128 -0.18503 -0.34874
 C802 C 0.37459 -0.13205 -0.27129
 C803 C 0.37703 -0.12613 -0.21218
 C804 C 0.39470 -0.10675 -0.18920
 C805 C 0.41395 -0.09702 -0.21847
 C806 C 0.43002 -0.07858 -0.19534
 C807 C 0.42719 -0.06956 -0.14261
 C808 C 0.40813 -0.07948 -0.11280
 C809 C 0.39212 -0.09793 -0.13568
 H810 H 0.34233 -0.17993 -0.42436
 H811 H 0.37187 -0.15117 -0.37794
 H812 H 0.33533 -0.15466 -0.22109
 H813 H 0.30625 -0.18426 -0.26391
 H814 H 0.38636 -0.12277 -0.30425
 H815 H 0.36533 -0.13530 -0.17899
 H816 H 0.41679 -0.10366 -0.25861
 H817 H 0.44465 -0.07137 -0.21881
 H818 H 0.40555 -0.07297 -0.07175
 H819 H 0.37753 -0.10518 -0.11193
 C820 C 0.47812 -0.18500 0.32808
 C821 C 0.47853 -0.16779 0.30224
 C822 C 0.49719 -0.14942 0.29468
 C823 C 0.51545 -0.14845 0.31475
 C824 C 0.51503 -0.16562 0.34074
 C825 C 0.49638 -0.18412 0.34754
 C826 C 0.49701 -0.13142 0.26778
 C827 C 0.51307 -0.11652 0.23754
 C828 C 0.51317 -0.09843 0.21037
 C829 C 0.52651 -0.08823 0.16138
 C830 C 0.52750 -0.07080 0.13532
 C831 C 0.51534 -0.06304 0.15833
 C832 C 0.50209 -0.07311 0.20770
 C833 C 0.50100 -0.09064 0.23358
 H834 H 0.46352 -0.19906 0.33229
 H835 H 0.46425 -0.16889 0.28758
 H836 H 0.53004 -0.13435 0.31185
 H837 H 0.52930 -0.16426 0.35677
 H838 H 0.48285 -0.13106 0.27051
 H839 H 0.52646 -0.11800 0.22957
 H840 H 0.53615 -0.09381 0.14300
 H841 H 0.53789 -0.06333 0.09738
 H842 H 0.49262 -0.06739 0.22653
 H843 H 0.49098 -0.09772 0.27247
 C844 C 0.30687 0.46192 0.31060
 C845 C 0.32255 0.46093 0.27943
 C846 C 0.34060 0.47894 0.26306
 C847 C 0.34238 0.49802 0.27669
 C848 C 0.32671 0.49900 0.30775
 C849 C 0.30883 0.48097 0.32543
 C850 C 0.35708 0.47725 0.23133
 C851 C 0.37693 0.49184 0.23480
 C852 C 0.39373 0.49006 0.20581
 C853 C 0.41364 0.50175 0.22995
 C854 C 0.42999 0.50062 0.20426
 C855 C 0.42682 0.48789 0.15340
 C856 C 0.40700 0.47644 0.12837
 C857 C 0.39058 0.47752 0.15423
 H858 H 0.29313 0.44776 0.32272
 H859 H 0.32069 0.44605 0.26877
 H860 H 0.35575 0.51224 0.26306
 H861 H 0.32871 0.51391 0.31873
 H862 H 0.35278 0.46298 0.20796
 H863 H 0.38136 0.50520 0.26329
 H864 H 0.41652 0.51168 0.26923
 H865 H 0.44514 0.50974 0.22426
 H866 H 0.40418 0.46667 0.08874
 H867 H 0.37560 0.46878 0.13305
 C868 C 1.16354 0.68922 0.31776
 C869 C 1.14677 0.67385 0.28567
 C870 C 1.14710 0.65648 0.26415
 C871 C 1.16480 0.65502 0.27403
 C872 C 1.18163 0.67045 0.30591
 C873 C 1.18116 0.68770 0.32838
 C874 C 1.12889 0.64049 0.23078
 C875 C 1.12384 0.62071 0.22950
 C876 C 1.10496 0.60453 0.19934
 C877 C 1.09605 0.58438 0.22153
 C878 C 1.07805 0.56873 0.19514
 C879 C 1.06873 0.57287 0.14535
 C880 C 1.07789 0.59291 0.12199
 C881 C 1.09584 0.60862 0.14869
 H882 H 1.16257 0.70218 0.33507
 H883 H 1.13336 0.67539 0.27842
 H884 H 1.16589 0.64219 0.25631
 H885 H 1.19514 0.66904 0.31211
 H886 H 1.11861 0.64500 0.21036
 H887 H 1.13301 0.61584 0.25516
 H888 H 1.10289 0.58079 0.26005
 H889 H 1.07143 0.55337 0.21374
 H890 H 1.07114 0.59647 0.08322
 H891 H 1.10264 0.62383 0.12908
 C892 C 0.51774 0.18291 0.32913
 C893 C 0.51859 0.16671 0.30077
 C894 C 0.50051 0.14837 0.28660
 C895 C 0.48150 0.14642 0.30233
 C896 C 0.48066 0.16259 0.33081
 C897 C 0.49876 0.18103 0.34454
 C898 C 0.50208 0.13134 0.25819
 C899 C 0.48704 0.11661 0.22406
 C900 C 0.48822 0.09919 0.19698
 C901 C 0.47582 0.08898 0.14591
 C902 C 0.47584 0.07198 0.12044
 C903 C 0.48812 0.06468 0.14606
 C904 C 0.50054 0.07484 0.19720
 C905 C 0.50057 0.09189 0.22256
 H906 H 0.53196 0.19697 0.33862
 H907 H 0.53343 0.16855 0.28957
 H908 H 0.46726 0.13228 0.29429
 H909 H 0.46582 0.16046 0.34346
 H910 H 0.51645 0.13150 0.26385
 H911 H 0.47351 0.11761 0.21339
 H912 H 0.46604 0.09418 0.12565
 H913 H 0.46608 0.06443 0.08107
 H914 H 0.51008 0.06947 0.21807
 H915 H 0.50987 0.09892 0.26305
 C916 C 0.68070 0.49245 0.28410
 C917 C 0.66498 0.49309 0.25147
 C918 C 0.66118 0.50932 0.26038
 C919 C 0.67378 0.52529 0.30091
 C920 C 0.68977 0.52487 0.33247
 C921 C 0.69323 0.50837 0.32473
 C922 C 0.64420 0.50947 0.22652
 C923 C 0.63223 0.51571 0.25287
 C924 C 0.61477 0.51533 0.22053
 C925 C 0.59693 0.51031 0.25365
 C926 C 0.58025 0.51014 0.22467
 C927 C 0.58139 0.51561 0.16247
 C928 C 0.59936 0.52095 0.12941
 C929 C 0.61587 0.52064 0.15806
 H930 H 0.68324 0.47966 0.27722
 H931 H 0.65552 0.48072 0.22009
 H932 H 0.67144 0.53820 0.30765
 H933 H 0.69927 0.53729 0.36365
 H934 H 0.64065 0.50304 0.18056
 H935 H 0.63446 0.52001 0.30104
 H936 H 0.59583 0.50632 0.30192
 H937 H 0.56660 0.50608 0.25121
 H938 H 0.60058 0.52524 0.08138
 H939 H 0.62964 0.52497 0.13181
 C940 C 0.81317 0.34339 0.33268
 C941 C 0.83045 0.35950 0.30486
 C942 C 0.84661 0.35680 0.28456
 C943 C 0.84521 0.33762 0.29333
 C944 C 0.82793 0.32152 0.32112
 C945 C 0.81174 0.32423 0.34130
 C946 C 0.86497 0.37453 0.25725
 C947 C 0.87815 0.37261 0.22035
 C948 C 0.89685 0.39026 0.19424
 C949 C 0.90590 0.38696 0.14249
 C950 C 0.92393 0.40292 0.11758
 C951 C 0.93339 0.42254 0.14422
 C952 C 0.92442 0.42592 0.19602
 C953 C 0.90638 0.40994 0.22102
 H954 H 0.80111 0.34607 0.34867
 H955 H 0.83123 0.37416 0.29938
 H956 H 0.85756 0.33502 0.28018
 H957 H 0.82725 0.30691 0.32684
 H958 H 0.86716 0.38961 0.26642
 H959 H 0.87487 0.35747 0.20655
 H960 H 0.89900 0.37194 0.12124
 H961 H 0.93052 0.39987 0.07761
 H962 H 0.93148 0.44086 0.21774
 H963 H 0.90031 0.41302 0.26205
   
