data_POSCAR
  _audit_creation_date              2014-09-24
  _audit_creation_method            'ToBaCCo'
  _symmetry_space_group_name_H-M    'P1'
  _symmetry_Int_Tables_number       1
  _symmetry_cell_setting            triclinic
  loop_
  _symmetry_equiv_pos_as_xyz
 x,y,z
_cell_length_a 40.7362
_cell_length_b 44.7111
_cell_length_c 39.3956
_cell_angle_alpha 92.440300
_cell_angle_beta 90.153400
_cell_angle_gamma 89.994300
loop_
  _atom_site_label
  _atom_site_type_symbol
  _atom_site_fract_x
  _atom_site_fract_y
  _atom_site_fract_z
C1 C 0.17474 0.22507 0.21544
 C2 C 0.17790 0.24762 0.19182
 C3 C 0.20281 0.24597 0.16771
 C4 C 0.22486 0.22177 0.16692
 C5 C 0.22185 0.19996 0.19060
 C6 C 0.19689 0.20161 0.21476
 C7 C 0.15149 0.21899 0.23981
 N8 N 0.15963 0.19259 0.25344
 C9 C 0.18718 0.18183 0.23837
 C10 C 0.24443 0.17805 0.18288
 N11 N 0.26110 0.18590 0.15505
 C12 C 0.24954 0.21253 0.14478
 C13 C 0.19885 0.26989 0.14715
 N14 N 0.17247 0.28586 0.15834
 C15 C 0.15933 0.27251 0.18539
 H16 H 0.12980 0.23206 0.24614
 H17 H 0.19854 0.16052 0.24326
 H18 H 0.24757 0.15725 0.19567
 H19 H 0.25750 0.22362 0.12232
 H20 H 0.21359 0.27498 0.12530
 H21 H 0.13752 0.28003 0.19890
 C22 C -0.20990 0.77791 0.24816
 C23 C -0.21149 0.75534 0.22234
 C24 C -0.23952 0.75203 0.20237
 C25 C -0.26641 0.77127 0.20817
 C26 C -0.26485 0.79325 0.23401
 C27 C -0.23653 0.79664 0.25395
 C28 C -0.18443 0.78899 0.26818
 N29 N -0.19533 0.81377 0.28572
 C30 C -0.22700 0.81872 0.27725
 C31 C -0.29213 0.81102 0.23139
 N32 N -0.31023 0.80043 0.20469
 C33 C -0.29487 0.77623 0.19008
 C34 C -0.23300 0.72998 0.17772
 N35 N -0.20201 0.71997 0.18259
 C36 C -0.18856 0.73532 0.20953
 H37 H -0.15938 0.78086 0.26826
 H38 H -0.24133 0.83804 0.28569
 H39 H -0.29717 0.83150 0.24617
 H40 H -0.30252 0.76457 0.16672
 H41 H -0.24926 0.72220 0.15742
 H42 H -0.16369 0.73249 0.21866
 C43 C -0.19204 0.22044 -0.21771
 C44 C -0.19650 0.24399 -0.19336
 C45 C -0.21932 0.24119 -0.16755
 C46 C -0.23785 0.21490 -0.16566
 C47 C -0.23352 0.19185 -0.18980
 C48 C -0.21068 0.19464 -0.21586
 C49 C -0.17026 0.21569 -0.24427
 N50 N -0.17574 0.18783 -0.25813
 C51 C -0.20023 0.17478 -0.24105
 C52 C -0.25289 0.16837 -0.18077
 N53 N -0.26876 0.17670 -0.15179
 C54 C -0.25992 0.20501 -0.14211
 C55 C -0.21713 0.26648 -0.14654
 N56 N -0.19374 0.28444 -0.15903
 C57 C -0.18081 0.27105 -0.18747
 H58 H -0.15134 0.23089 -0.25220
 H59 H -0.20907 0.15215 -0.24593
 H60 H -0.25456 0.14653 -0.19368
 H61 H -0.26814 0.21707 -0.11927
 H62 H -0.23078 0.27112 -0.12336
 H63 H -0.16089 0.27994 -0.20213
 C64 C 0.18528 0.78459 -0.25125
 C65 C 0.18622 0.75969 -0.23066
 C66 C 0.21196 0.75646 -0.20793
 C67 C 0.23694 0.77800 -0.20540
 C68 C 0.23606 0.80236 -0.22590
 C69 C 0.21022 0.80565 -0.24885
 C70 C 0.16208 0.79518 -0.27341
 N71 N 0.17279 0.82188 -0.28419
 C72 C 0.20201 0.82855 -0.26939
 C73 C 0.26127 0.82117 -0.21590
 N74 N 0.27729 0.80874 -0.18990
 C75 C 0.26278 0.78242 -0.18304
 C76 C 0.20532 0.73180 -0.18944
 N77 N 0.17641 0.72004 -0.20048
 C78 C 0.16433 0.73682 -0.22549
 H79 H 0.13880 0.78485 -0.28021
 H80 H 0.21567 0.84906 -0.27242
 H81 H 0.26645 0.84300 -0.22553
 H82 H 0.26940 0.76844 -0.16231
 H83 H 0.21978 0.72361 -0.16868
 H84 H 0.14088 0.73327 -0.23803
 C85 C 0.21251 1.18911 0.78893
 C86 C 0.23612 1.18894 0.81501
 C87 C 0.23693 1.21202 0.83970
 C88 C 0.21419 1.23554 0.83865
 C89 C 0.19104 1.23566 0.81284
 C90 C 0.19019 1.21243 0.78795
 C91 C 0.20490 1.16927 0.76223
 N92 N 0.17870 1.18031 0.74551
 C93 C 0.16945 1.20656 0.76090
 C94 C 0.17146 1.26034 0.81856
 N95 N 0.18221 1.27510 0.84713
 C96 C 0.20825 1.26033 0.85983
 C97 C 0.26161 1.20564 0.86223
 N98 N 0.27564 1.17942 0.85170
 C99 C 0.26037 1.16891 0.82300
 H100 H 0.21705 1.14824 0.75585
 H101 H 0.14881 1.22007 0.75334
 H102 H 0.15059 1.26683 0.80343
 H103 H 0.22141 1.26682 0.88290
 H104 H 0.26862 1.21883 0.88477
 H105 H 0.26625 1.14811 0.80927
 C106 C 0.80190 0.80564 0.73494
 C107 C 0.77615 0.80703 0.75865
 C108 C 0.77495 0.78659 0.78410
 C109 C 0.79937 0.76475 0.78638
 C110 C 0.82477 0.76339 0.76309
 C111 C 0.82601 0.78388 0.73719
 C112 C 0.81084 0.82374 0.70901
 N113 N 0.83950 0.81325 0.69573
 C114 C 0.84913 0.78906 0.71271
 C115 C 0.84624 0.74163 0.77307
 N116 N 0.83423 0.72998 0.80168
 C117 C 0.80571 0.74383 0.81018
 C118 C 0.74905 0.79439 0.80493
 N119 N 0.73455 0.81894 0.79274
 C120 C 0.75079 0.82706 0.76457
 H121 H 0.79811 0.84358 0.70120
 H122 H 0.87180 0.77684 0.70839
 H123 H 0.86937 0.73548 0.76118
 H124 H 0.79133 0.73974 0.83261
 H125 H 0.74204 0.78374 0.82801
 H126 H 0.74531 0.84663 0.75032
 C127 C 0.22837 0.79658 1.24163
 C128 C 0.25271 0.79316 1.21657
 C129 C 0.25406 0.76716 1.19604
 C130 C 0.23110 0.74418 1.20047
 C131 C 0.20735 0.74757 1.22545
 C132 C 0.20592 0.77383 1.24600
 C133 C 0.21915 0.82035 1.26304
 N134 N 0.19187 0.81221 1.28002
 C135 C 0.18349 0.78395 1.26986
 C136 C 0.18663 0.72339 1.22227
 N137 N 0.19717 0.70542 1.19607
 C138 C 0.22423 0.71777 1.18235
 C139 C 0.27880 0.77090 1.17272
 N140 N 0.29233 0.79830 1.17888
 C141 C 0.27661 0.81216 1.20541
 H142 H 0.23055 0.84224 1.26507
 H143 H 0.16193 0.77213 1.27816
 H144 H 0.16446 0.71992 1.23670
 H145 H 0.23682 0.70904 1.15988
 H146 H 0.28601 0.75518 1.15244
 H147 H 0.28178 0.83461 1.21538
 C148 C 0.79494 1.19612 1.23703
 C149 C 0.77096 1.19262 1.21145
 C150 C 0.76943 1.21270 1.18558
 C151 C 0.79187 1.23650 1.18494
 C152 C 0.81540 1.23992 1.21026
 C153 C 0.81694 1.21971 1.23636
 C154 C 0.80382 1.17903 1.26394
 N155 N 0.83044 1.19194 1.27927
 C156 C 0.83876 1.21670 1.26270
 C157 C 0.83511 1.26353 1.20231
 N158 N 0.82408 1.27445 1.17290
 C159 C 0.79774 1.25823 1.16186
 C160 C 0.74501 1.20299 1.16349
 N161 N 0.73182 1.17772 1.17544
 C162 C 0.74742 1.17104 1.20459
 H163 H 0.79255 1.15828 1.27107
 H164 H 0.85980 1.23081 1.26861
 H165 H 0.85650 1.27161 1.21626
 H166 H 0.78458 1.26144 1.13838
 H167 H 0.73781 1.21314 1.14013
 H168 H 0.74244 1.15161 1.21925
 O169 O 0.53808 0.96332 0.93497
 O170 O 0.47066 0.96310 1.06564
 O171 O 0.54166 0.94459 1.03728
 O172 O 0.43630 0.97605 0.96581
 O173 O 0.52890 0.97591 1.07609
 O174 O 0.47763 0.95762 0.93811
 O175 O 0.45135 0.94919 1.01700
 O176 O 0.55432 0.94116 0.97926
 C177 C 0.55359 0.94284 0.94807
 C178 C 0.45605 0.94387 1.04716
 C179 C 0.53872 0.95053 1.06770
 C180 C 0.44773 0.95754 0.94439
 O181 O 0.47252 1.01748 0.94276
 O182 O 0.51971 1.02982 1.05388
 O183 O 0.57197 0.99956 0.97895
 O184 O 0.41816 0.99728 1.02823
 O185 O 0.45973 1.02143 1.05258
 O186 O 0.53527 1.01988 0.94498
 O187 O 0.45481 1.02708 0.99343
 O188 O 0.56354 1.00392 1.04048
 Co189 Co 0.50516 0.98932 0.94604
 Co190 Co 0.49542 0.99618 1.05623
 Co191 Co 0.55354 0.97343 1.00899
 Co192 Co 0.45559 0.98790 1.00592
 O193 O 0.50445 0.98556 1.00159
 C194 C 0.45701 1.03406 0.96344
 C195 C 0.55026 1.02791 1.05158
 C196 C 0.56381 1.01861 0.95735
 C197 C 0.42888 1.01645 1.05187
 O198 O 0.02261 0.48339 0.05918
 O199 O 0.02392 0.53808 -0.07131
 O200 O 0.00432 0.44804 -0.04075
 O201 O 0.04294 0.54742 0.03209
 O202 O 0.02807 0.48336 -0.06613
 O203 O 0.00892 0.53738 0.06962
 O204 O 0.04708 0.55654 -0.02597
 O205 O 0.03550 0.46325 0.01075
 C206 C 0.04196 0.46774 0.04123
 C207 C 0.04576 0.55363 -0.05727
 C208 C 0.02623 0.45639 -0.06011
 C209 C 0.03632 0.54689 0.06226
 O210 O -0.05017 0.52845 0.04534
 O211 O -0.03841 0.48106 -0.06515
 O212 O -0.01726 0.43478 0.02035
 O213 O -0.01619 0.57287 -0.03021
 O214 O -0.03834 0.53800 -0.06508
 O215 O -0.04174 0.47366 0.04503
 O216 O -0.02198 0.56776 0.03177
 O217 O -0.05010 0.46877 -0.01441
 Co218 Co -0.01352 0.50613 0.04884
 Co219 Co -0.00600 0.50971 -0.06117
 Co220 Co -0.00689 0.46805 -0.00132
 Co221 Co 0.01158 0.55714 0.00197
 O222 O -0.00245 0.51210 -0.00559
 C223 C -0.04790 0.55619 0.04297
 C224 C -0.05761 0.46925 -0.04486
 C225 C -0.03600 0.44562 0.04481
 C226 C -0.03606 0.56478 -0.05383
 O227 O 1.06249 0.04197 0.46153
 O228 O 0.95125 0.03648 0.53381
 O229 O 0.98823 0.04515 0.43769
 O230 O 1.01594 0.05350 0.54731
 O231 O 0.94882 0.04530 0.47330
 O232 O 1.06462 0.04208 0.52584
 O233 O 0.97840 0.02301 0.58045
 O234 O 1.03659 0.01847 0.42031
 C235 C 1.05565 0.03895 0.43060
 C236 C 0.95355 0.03646 0.56635
 C237 C 0.96351 0.05730 0.44994
 C238 C 1.04615 0.05910 0.54424
 O239 O 1.06582 -0.01810 0.52171
 O240 O 0.94879 -0.01492 0.45649
 O241 O 1.01481 -0.03232 0.43967
 O242 O 0.99264 -0.02489 0.54909
 O243 O 0.95053 -0.02389 0.51689
 O244 O 1.06406 -0.01834 0.45788
 O245 O 1.04086 0.00346 0.56465
 O246 O 0.97414 -0.00340 0.40804
 Co247 Co 1.05982 0.01190 0.49184
 Co248 Co 0.95505 0.01076 0.49499
 Co249 Co 0.99995 0.00647 0.44277
 Co250 Co 1.00257 0.01430 0.54424
 O251 O 1.00794 0.01096 0.49329
 C252 C 1.06051 -0.01588 0.55295
 C253 C 0.94996 -0.01624 0.42387
 C254 C 1.04538 -0.03686 0.44164
 C255 C 0.96718 -0.03680 0.53823
 C256 C 1.09019 0.09857 0.36346
 C257 C 1.11367 0.08935 0.33877
 C258 C 1.12586 0.11022 0.31571
 C259 C 1.11444 0.14022 0.31743
 C260 C 1.09039 0.14925 0.34159
 C261 C 1.07834 0.12839 0.36481
 C262 C 1.05458 0.13801 0.38904
 C263 C 1.04282 0.16731 0.39006
 C264 C 1.05445 0.18762 0.36718
 C265 C 1.07805 0.17883 0.34322
 C266 C 1.14950 0.10046 0.29134
 C267 C 1.16069 0.07099 0.28982
 C268 C 1.14873 0.05059 0.31237
 C269 C 1.12548 0.05953 0.33661
 C270 C 1.12852 0.16161 0.29487
 C271 C 1.14246 0.17734 0.27540
 C272 C 1.07829 0.07732 0.38739
 C273 C 1.06832 0.05962 0.40715
 H274 H 1.04470 0.12299 0.40726
 H275 H 1.02447 0.17424 0.40859
 H276 H 1.04516 0.21032 0.36802
 H277 H 1.08641 0.19539 0.32595
 H278 H 1.15954 0.11540 0.27315
 H279 H 1.17875 0.06394 0.27102
 H280 H 1.15752 0.02772 0.31109
 H281 H 1.11691 0.04281 0.35357
 C282 C 0.89377 -0.07896 0.37248
 C283 C 0.88416 -0.10476 0.38963
 C284 C 0.86632 -0.12793 0.37195
 C285 C 0.85825 -0.12517 0.33725
 C286 C 0.86788 -0.09936 0.32012
 C287 C 0.88567 -0.07619 0.33781
 C288 C 0.89503 -0.05063 0.32017
 C289 C 0.88705 -0.04802 0.28600
 C290 C 0.86966 -0.07067 0.26869
 C291 C 0.86012 -0.09609 0.28542
 C292 C 0.85698 -0.15348 0.38959
 C293 C 0.86510 -0.15614 0.42372
 C294 C 0.88262 -0.13354 0.44099
 C295 C 0.89205 -0.10807 0.42429
 C296 C 0.83940 -0.14842 0.31924
 C297 C 0.82314 -0.16685 0.30356
 C298 C 0.91279 -0.05574 0.39030
 C299 C 0.92927 -0.03711 0.40535
 H300 H 0.90855 -0.03240 0.33255
 H301 H 0.89440 -0.02832 0.27290
 H302 H 0.86353 -0.06855 0.24215
 H303 H 0.84666 -0.11310 0.27083
 H304 H 0.84339 -0.17168 0.37720
 H305 H 0.85781 -0.17586 0.43682
 H306 H 0.88898 -0.13577 0.46745
 H307 H 0.90557 -0.09108 0.43885
 C308 C 0.90394 0.09850 0.62553
 C309 C 0.92293 0.11857 0.64631
 C310 C 0.90708 0.13984 0.66857
 C311 C 0.87239 0.14086 0.66993
 C312 C 0.85344 0.12159 0.64814
 C313 C 0.86927 0.10034 0.62589
 C314 C 0.84984 0.08113 0.60459
 C315 C 0.81570 0.08290 0.60521
 C316 C 0.80019 0.10368 0.62697
 C317 C 0.81871 0.12284 0.64826
 C318 C 0.92652 0.15951 0.68929
 C319 C 0.96069 0.15824 0.68805
 C320 C 0.97621 0.13740 0.66637
 C321 C 0.95768 0.11776 0.64566
 C322 C 0.85604 0.15988 0.69545
 C323 C 0.84136 0.17395 0.71734
 C324 C 0.92016 0.07577 0.60419
 C325 C 0.93457 0.05729 0.58679
 H326 H 0.86080 0.06463 0.58721
 H327 H 0.80120 0.06807 0.58872
 H328 H 0.77365 0.10498 0.62734
 H329 H 0.80551 0.13869 0.66463
 H330 H 0.91552 0.17613 0.70650
 H331 H 0.97521 0.17348 0.70403
 H332 H 1.00274 0.13641 0.66561
 H333 H 0.97089 0.10201 0.62916
 C334 C 1.10074 -0.07650 0.61561
 C335 C 1.12689 -0.06855 0.63790
 C336 C 1.14057 -0.09030 0.65906
 C337 C 1.12795 -0.11988 0.65783
 C338 C 1.10140 -0.12768 0.63597
 C339 C 1.08783 -0.10595 0.61467
 C340 C 1.06153 -0.11436 0.59273
 C341 C 1.04888 -0.14334 0.59201
 C342 C 1.06199 -0.16450 0.61304
 C343 C 1.08800 -0.15690 0.63479
 C344 C 1.16682 -0.08183 0.68108
 C345 C 1.17912 -0.05271 0.68217
 C346 C 1.16569 -0.03144 0.66148
 C347 C 1.13989 -0.03914 0.63954
 C348 C 1.14289 -0.14224 0.67860
 C349 C 1.15660 -0.15983 0.69615
 C350 C 1.08714 -0.05445 0.59359
 C351 C 1.07544 -0.03646 0.57514
 H352 H 1.05039 -0.09864 0.57601
 H353 H 1.02865 -0.14934 0.57519
 H354 H 1.05197 -0.18694 0.61250
 H355 H 1.09742 -0.17412 0.65067
 H356 H 1.17807 -0.09754 0.69772
 H357 H 1.19917 -0.04663 0.69919
 H358 H 1.17532 -0.00885 0.66244
 H359 H 1.13026 -0.02180 0.62394
 C360 C 0.36669 1.08075 1.09053
 C361 C 0.36825 1.10934 1.07639
 C362 C 0.34623 1.13231 1.08770
 C363 C 0.32335 1.12674 1.11361
 C364 C 0.32186 1.09815 1.12781
 C365 C 0.34355 1.07508 1.11616
 C366 C 0.34157 1.04669 1.13062
 C367 C 0.31880 1.04123 1.15594
 C368 C 0.29758 1.06378 1.16739
 C369 C 0.29897 1.09193 1.15360
 C370 C 0.34767 1.16045 1.07267
 C371 C 0.37036 1.16582 1.04722
 C372 C 0.39221 1.14351 1.03645
 C373 C 0.39138 1.11560 1.05090
 C374 C 0.30157 1.15026 1.12644
 C375 C 0.28263 1.16808 1.13922
 C376 C 0.38847 1.05708 1.07821
 C377 C 0.40671 1.03791 1.06706
 H378 H 0.35759 1.02844 1.12258
 H379 H 0.31763 1.01940 1.16674
 H380 H 0.27992 1.05944 1.18707
 H381 H 0.28187 1.10866 1.16336
 H382 H 0.33123 1.17850 1.08034
 H383 H 0.37106 1.18743 1.03586
 H384 H 0.40982 1.14779 1.01671
 H385 H 0.40883 1.09896 1.04162
 C386 C 0.38794 0.89502 0.89786
 C387 C 0.39715 0.88094 0.86646
 C388 C 0.37541 0.86035 0.84961
 C389 C 0.34466 0.85401 0.86430
 C390 C 0.33612 0.86703 0.89646
 C391 C 0.35782 0.88766 0.91328
 C392 C 0.34861 0.90074 0.94521
 C393 C 0.31878 0.89360 0.96009
 C394 C 0.29761 0.87330 0.94369
 C395 C 0.30602 0.86013 0.91221
 C396 C 0.38494 0.84675 0.81806
 C397 C 0.41517 0.85326 0.80362
 C398 C 0.43646 0.87340 0.82012
 C399 C 0.42767 0.88717 0.85118
 C400 C 0.32081 0.83607 0.84517
 C401 C 0.30033 0.82252 0.82865
 C402 C 0.40916 0.91742 0.91402
 C403 C 0.42671 0.93598 0.92761
 H404 H 0.36437 0.91649 0.95906
 H405 H 0.31218 0.90371 0.98458
 H406 H 0.27454 0.86771 0.95543
 H407 H 0.28880 0.84441 0.90047
 H408 H 0.36926 0.83085 0.80435
 H409 H 0.42211 0.84261 0.77951
 H410 H 0.45992 0.87837 0.80881
 H411 H 0.44507 0.90264 0.86307
 C412 C 0.57961 0.89225 1.13246
 C413 C 0.60445 0.90312 1.15491
 C414 C 0.62494 0.88265 1.17164
 C415 C 0.62050 0.85142 1.16570
 C416 C 0.59433 0.84059 1.14495
 C417 C 0.57372 0.86111 1.12834
 C418 C 0.54787 0.84983 1.10745
 C419 C 0.54252 0.81911 1.10309
 C420 C 0.56275 0.79905 1.11924
 C421 C 0.58844 0.80955 1.13994
 C422 C 0.64995 0.89407 1.19362
 C423 C 0.65456 0.92481 1.19888
 C424 C 0.63454 0.94482 1.18244
 C425 C 0.60974 0.93423 1.16067
 C426 C 0.64413 0.83087 1.17952
 C427 C 0.66536 0.81559 1.19126
 C428 C 0.56273 0.91290 1.11101
 C429 C 0.55069 0.93019 1.09194
 H430 H 0.53144 0.86461 1.09451
 H431 H 0.52257 0.81084 1.08709
 H432 H 0.55851 0.77521 1.11574
 H433 H 0.60350 0.79314 1.15209
 H434 H 0.66610 0.87943 1.20709
 H435 H 0.67376 0.93314 1.21581
 H436 H 0.63820 0.96868 1.18661
 H437 H 0.59467 0.95066 1.14860
 C438 C 0.63127 1.07797 0.92406
 C439 C 0.63193 1.10788 0.93738
 C440 C 0.65339 1.12899 0.92314
 C441 C 0.67401 1.12002 0.89571
 C442 C 0.67402 1.08989 0.88305
 C443 C 0.65257 1.06879 0.89728
 C444 C 0.65277 1.03883 0.88403
 C445 C 0.67357 1.03001 0.85742
 C446 C 0.69461 1.05064 0.84353
 C447 C 0.69494 1.08025 0.85608
 C448 C 0.65350 1.15883 0.93665
 C449 C 0.63289 1.16757 0.96346
 C450 C 0.61183 1.14693 0.97733
 C451 C 0.61128 1.11738 0.96460
 C452 C 0.69458 1.14176 0.87971
 C453 C 0.71189 1.15885 0.86516
 C454 C 0.60776 1.05695 0.93682
 C455 C 0.58785 1.03942 0.94659
 H456 H 0.63695 1.02192 0.89408
 H457 H 0.67334 1.00706 0.84751
 H458 H 0.71075 1.04367 0.82289
 H459 H 0.71178 1.09543 0.84442
 H460 H 0.66948 1.17566 0.92667
 H461 H 0.63324 1.19049 0.97349
 H462 H 0.59575 1.15386 0.99798
 H463 H 0.59456 1.10211 0.97632
 C464 C 0.10085 0.40680 0.08421
 C465 C 0.08324 0.37986 0.08853
 C466 C 0.09887 0.35527 0.10357
 C467 C 0.13207 0.35763 0.11409
 C468 C 0.14976 0.38443 0.10944
 C469 C 0.13407 0.40911 0.09448
 C470 C 0.15215 0.43567 0.09021
 C471 C 0.18488 0.43784 0.10041
 C472 C 0.20025 0.41373 0.11499
 C473 C 0.18300 0.38727 0.11952
 C474 C 0.08066 0.32870 0.10781
 C475 C 0.04801 0.32644 0.09740
 C476 C 0.03277 0.35039 0.08252
 C477 C 0.05001 0.37684 0.07811
 C478 C 0.14764 0.33246 0.12993
 C479 C 0.15946 0.31105 0.14308
 C480 C 0.08411 0.43178 0.06930
 C481 C 0.06687 0.45017 0.05660
 H482 H 0.14118 0.45497 0.07896
 H483 H 0.19839 0.45834 0.09697
 H484 H 0.22568 0.41554 0.12284
 H485 H 0.19598 0.36911 0.13096
 H486 H 0.09141 0.30938 0.11919
 H487 H 0.03447 0.30597 0.10089
 H488 H 0.00742 0.34851 0.07438
 H489 H 0.03692 0.39478 0.06643
 C490 C -0.12725 0.41093 -0.08113
 C491 C -0.13116 0.38453 -0.06291
 C492 C -0.14765 0.35943 -0.07829
 C493 C -0.16001 0.36085 -0.11182
 C494 C -0.15797 0.38789 -0.12913
 C495 C -0.14155 0.41304 -0.11370
 C496 C -0.13928 0.43968 -0.13167
 C497 C -0.15297 0.44148 -0.16398
 C498 C -0.16904 0.41689 -0.17908
 C499 C -0.17155 0.39032 -0.16199
 C500 C -0.15083 0.33312 -0.05982
 C501 C -0.13790 0.33160 -0.02714
 C502 C -0.12154 0.35607 -0.01220
 C503 C -0.11823 0.38233 -0.02971
 C504 C -0.17290 0.33401 -0.12912
 C505 C -0.18272 0.31124 -0.14318
 C506 C -0.10519 0.43416 -0.06806
 C507 C -0.08466 0.45156 -0.05740
 H508 H -0.12713 0.45940 -0.12083
 H509 H -0.15111 0.46206 -0.17735
 H510 H -0.17964 0.41840 -0.20418
 H511 H -0.18434 0.37181 -0.17471
 H512 H -0.16336 0.31350 -0.07037
 H513 H -0.14052 0.31130 -0.01338
 H514 H -0.11137 0.35469 0.01309
 H515 H -0.10555 0.40087 -0.01690
 C516 C 0.09826 0.60872 -0.11646
 C517 C 0.08002 0.63312 -0.12851
 C518 C 0.09583 0.65499 -0.14785
 C519 C 0.12979 0.65241 -0.15493
 C520 C 0.14781 0.62759 -0.14368
 C521 C 0.13197 0.60566 -0.12439
 C522 C 0.15048 0.58116 -0.11322
 C523 C 0.18374 0.57837 -0.12093
 C524 C 0.19925 0.59981 -0.13978
 C525 C 0.18161 0.62420 -0.15108
 C526 C 0.07716 0.67926 -0.15948
 C527 C 0.04384 0.68193 -0.15204
 C528 C 0.02839 0.66065 -0.13296
 C529 C 0.04609 0.63642 -0.12138
 C530 C 0.14642 0.67605 -0.17228
 C531 C 0.16022 0.69623 -0.18573
 C532 C 0.08219 0.58738 -0.09529
 C533 C 0.06691 0.57098 -0.07769
 H534 H 0.13944 0.56392 -0.09851
 H535 H 0.19755 0.55947 -0.11222
 H536 H 0.22508 0.59753 -0.14571
 H537 H 0.19471 0.64027 -0.16573
 H538 H 0.08807 0.69638 -0.17443
 H539 H 0.02994 0.70064 -0.16109
 H540 H 0.00255 0.66293 -0.12709
 H541 H 0.03287 0.62040 -0.10679
 C542 C -0.11224 0.61392 0.09069
 C543 C -0.10030 0.62752 0.12145
 C544 C -0.11980 0.64904 0.13978
 C545 C -0.15117 0.65683 0.12732
 C546 C -0.16324 0.64302 0.09676
 C547 C -0.14371 0.62149 0.07839
 C548 C -0.15627 0.60799 0.04794
 C549 C -0.18732 0.61544 0.03600
 C550 C -0.20637 0.63653 0.05387
 C551 C -0.19458 0.65025 0.08392
 C552 C -0.10723 0.66236 0.17039
 C553 C -0.07639 0.65461 0.18260
 C554 C -0.05738 0.63352 0.16475
 C555 C -0.06903 0.62012 0.13450
 C556 C -0.17068 0.67920 0.14606
 C557 C -0.18566 0.69799 0.16258
 C558 C -0.09161 0.59257 0.07179
 C559 C -0.07271 0.57547 0.05761
 H560 H -0.14228 0.59154 0.03312
 H561 H -0.19660 0.60488 0.01267
 H562 H -0.23042 0.64230 0.04440
 H563 H -0.21028 0.66650 0.09698
 H564 H -0.12108 0.67886 0.18527
 H565 H -0.06721 0.66499 0.20607
 H566 H -0.03349 0.62747 0.17440
 H567 H -0.05324 0.60386 0.12159
 C568 C 1.09499 0.11281 0.61313
 C569 C 1.08417 0.14062 0.62745
 C570 C 1.10214 0.15488 0.65459
 C571 C 1.13083 0.14121 0.66723
 C572 C 1.14169 0.11342 0.65282
 C573 C 1.12373 0.09917 0.62572
 C574 C 1.13489 0.07116 0.61205
 C575 C 1.16287 0.05763 0.62483
 C576 C 1.18044 0.07162 0.65128
 C577 C 1.17013 0.09921 0.66518
 C578 C 1.09065 0.18256 0.66872
 C579 C 1.06218 0.19570 0.65648
 C580 C 1.04465 0.18173 0.62995
 C581 C 1.05542 0.15450 0.61548
 C582 C 1.14874 0.15534 0.69554
 C583 C 1.16327 0.16708 0.71927
 C584 C 1.07585 0.09705 0.58688
 C585 C 1.06123 0.08139 0.56629
 H586 H 1.12215 0.05935 0.59141
 H587 H 1.17095 0.03618 0.61414
 H588 H 1.20218 0.06103 0.66112
 H589 H 1.18462 0.10919 0.68574
 H590 H 1.10344 0.19427 0.68940
 H591 H 1.05368 0.21683 0.66765
 H592 H 1.02252 0.19200 0.62059
 H593 H 1.04096 0.14443 0.59493
 C594 C 0.92891 -0.10908 0.58369
 C595 C 0.89728 -0.11942 0.57395
 C596 C 0.87935 -0.13802 0.59566
 C597 C 0.89326 -0.14626 0.62688
 C598 C 0.92590 -0.13783 0.63531
 C599 C 0.94373 -0.11908 0.61369
 C600 C 0.97597 -0.11025 0.62304
 C601 C 0.99038 -0.11996 0.65275
 C602 C 0.97303 -0.13846 0.67380
 C603 C 0.94111 -0.14728 0.66536
 C604 C 0.84749 -0.14756 0.58575
 C605 C 0.83378 -0.13906 0.55517
 C606 C 0.85133 -0.12088 0.53392
 C607 C 0.88272 -0.11107 0.54310
 C608 C 0.87343 -0.16167 0.65127
 C609 C 0.85710 -0.17373 0.67223
 C610 C 0.94430 -0.08540 0.56533
 C611 C 0.95569 -0.06407 0.55184
 H612 H 0.99045 -0.09600 0.60736
 H613 H 1.01516 -0.11315 0.65942
 H614 H 0.98435 -0.14598 0.69682
 H615 H 0.92859 -0.16170 0.68251
 H616 H 0.83297 -0.16179 0.60141
 H617 H 0.80941 -0.14662 0.54792
 H618 H 0.84058 -0.11436 0.51019
 H619 H 0.89553 -0.09709 0.52569
 C620 C 1.09482 -0.09854 0.38234
 C621 C 1.09868 -0.12914 0.38918
 C622 C 1.11940 -0.14764 0.36823
 C623 C 1.13616 -0.13539 0.34057
 C624 C 1.13209 -0.10481 0.33357
 C625 C 1.11133 -0.08635 0.35447
 C626 C 1.10768 -0.05582 0.34693
 C627 C 1.12405 -0.04390 0.31960
 C628 C 1.14438 -0.06196 0.29922
 C629 C 1.14844 -0.09208 0.30599
 C630 C 1.12289 -0.17818 0.37562
 C631 C 1.10641 -0.19008 0.40291
 C632 C 1.08619 -0.17197 0.42339
 C633 C 1.08228 -0.14182 0.41672
 C634 C 1.15711 -0.15430 0.31894
 C635 C 1.17398 -0.17012 0.30055
 C636 C 1.07513 -0.07902 0.40455
 C637 C 1.06034 -0.06095 0.42218
 H638 H 1.09211 -0.04083 0.36196
 H639 H 1.12092 -0.02053 0.31421
 H640 H 1.15706 -0.05259 0.27802
 H641 H 1.16452 -0.10521 0.28940
 H642 H 1.13837 -0.19315 0.36043
 H643 H 1.10937 -0.21349 0.40821
 H644 H 1.07345 -0.18134 0.44455
 H645 H 1.06625 -0.12860 0.43330
 C646 C 0.92131 0.12518 0.39980
 C647 C 0.93623 0.13453 0.36963
 C648 C 0.91764 0.15075 0.34599
 C649 C 0.88418 0.15734 0.35260
 C650 C 0.86995 0.14974 0.38382
 C651 C 0.88862 0.13366 0.40753
 C652 C 0.87374 0.12587 0.43834
 C653 C 0.84134 0.13381 0.44557
 C654 C 0.82307 0.14951 0.42236
 C655 C 0.83708 0.15742 0.39177
 C656 C 0.93297 0.15954 0.31579
 C657 C 0.96571 0.15243 0.30911
 C658 C 0.98381 0.13639 0.33212
 C659 C 0.96935 0.12746 0.36208
 C660 C 0.86408 0.17037 0.32653
 C661 C 0.84778 0.18066 0.30423
 C662 C 0.93790 0.10355 0.42029
 C663 C 0.95046 0.08355 0.43526
 H664 H 0.88707 0.11379 0.45722
 H665 H 0.83035 0.12775 0.46930
 H666 H 0.79791 0.15561 0.42809
 H667 H 0.82196 0.16969 0.37454
 H668 H 0.91988 0.17206 0.29713
 H669 H 0.97707 0.15937 0.28592
 H670 H 1.00919 0.13086 0.32675
 H671 H 0.98442 0.11516 0.37932
 C672 C 0.09352 0.39461 -0.09392
 C673 C 0.10248 0.39134 -0.12854
 C674 C 0.12374 0.36770 -0.13949
 C675 C 0.13582 0.34746 -0.11573
 C676 C 0.12804 0.35156 -0.08084
 C677 C 0.10683 0.37525 -0.06988
 C678 C 0.09915 0.37881 -0.03489
 C679 C 0.11211 0.35952 -0.01142
 C680 C 0.13284 0.33632 -0.02218
 C681 C 0.14077 0.33226 -0.05648
 C682 C 0.13214 0.36469 -0.17433
 C683 C 0.11990 0.38450 -0.19762
 C684 C 0.09907 0.40761 -0.18688
 C685 C 0.09035 0.41109 -0.15276
 C686 C 0.15424 0.32138 -0.12774
 C687 C 0.16811 0.29940 -0.13918
 C688 C 0.06977 0.41715 -0.08316
 C689 C 0.04980 0.43537 -0.07343
 H690 H 0.08318 0.39656 -0.02528
 H691 H 0.10604 0.36260 0.01524
 H692 H 0.14285 0.32140 -0.00386
 H693 H 0.15708 0.31397 -0.06367
 H694 H 0.14835 0.34713 -0.18390
 H695 H 0.12663 0.38190 -0.22415
 H696 H 0.08962 0.42295 -0.20507
 H697 H 0.07414 0.42945 -0.14560
 C698 C -0.09125 0.38559 0.09494
 C699 C -0.07601 0.36756 0.11909
 C700 C -0.09427 0.34475 0.13451
 C701 C -0.12766 0.34008 0.12562
 C702 C -0.14284 0.35800 0.10130
 C703 C -0.12462 0.38094 0.08604
 C704 C -0.14030 0.39863 0.06183
 C705 C -0.17294 0.39353 0.05264
 C706 C -0.19071 0.37100 0.06745
 C707 C -0.17599 0.35342 0.09160
 C708 C -0.07842 0.32691 0.15848
 C709 C -0.04547 0.33140 0.16684
 C710 C -0.02762 0.35370 0.15173
 C711 C -0.04260 0.37168 0.12817
 C712 C -0.14618 0.31682 0.14161
 C713 C -0.16048 0.29730 0.15570
 C714 C -0.07215 0.40793 0.07815
 C715 C -0.05582 0.42571 0.06351
 H716 H -0.12746 0.41638 0.04957
 H717 H -0.18447 0.40711 0.03388
 H718 H -0.21606 0.36711 0.06021
 H719 H -0.19080 0.33616 0.10244
 H720 H -0.09123 0.30925 0.17093
 H721 H -0.03373 0.31748 0.18514
 H722 H -0.00201 0.35708 0.15826
 H723 H -0.02768 0.38876 0.11714
 C724 C -0.08700 0.62790 -0.10386
 C725 C -0.07535 0.63406 -0.13668
 C726 C -0.09175 0.65547 -0.15623
 C727 C -0.11980 0.67046 -0.14291
 C728 C -0.13120 0.66459 -0.10991
 C729 C -0.11468 0.64327 -0.09028
 C730 C -0.12631 0.63791 -0.05727
 C731 C -0.15350 0.65324 -0.04401
 C732 C -0.16976 0.67400 -0.06326
 C733 C -0.15887 0.67968 -0.09587
 C734 C -0.07952 0.66144 -0.18887
 C735 C -0.05184 0.64666 -0.20180
 C736 C -0.03585 0.62562 -0.18274
 C737 C -0.04739 0.61926 -0.15058
 C738 C -0.13677 0.69202 -0.16311
 C739 C -0.15064 0.71001 -0.17994
 C740 C -0.07034 0.60571 -0.08433
 C741 C -0.05542 0.58706 -0.06947
 H742 H -0.11447 0.62195 -0.04135
 H743 H -0.16196 0.64905 -0.01866
 H744 H -0.19090 0.68582 -0.05284
 H745 H -0.17228 0.69608 -0.10984
 H746 H -0.09112 0.67761 -0.20468
 H747 H -0.04276 0.65157 -0.22676
 H748 H -0.01432 0.61424 -0.19286
 H749 H -0.03397 0.60282 -0.13670
 C750 C 0.09680 0.59543 0.12609
 C751 C 0.13068 0.58879 0.12861
 C752 C 0.15246 0.61009 0.14430
 C753 C 0.14016 0.63783 0.15743
 C754 C 0.10601 0.64381 0.15643
 C755 C 0.08428 0.62255 0.14070
 C756 C 0.05032 0.62923 0.13950
 C757 C 0.03818 0.65616 0.15344
 C758 C 0.05941 0.67693 0.16890
 C759 C 0.09294 0.67095 0.17045
 C760 C 0.18628 0.60316 0.14609
 C761 C 0.19825 0.57588 0.13287
 C762 C 0.17695 0.55503 0.11757
 C763 C 0.14352 0.56132 0.11534
 C764 C 0.16240 0.66077 0.17102
 C765 C 0.17927 0.68099 0.18240
 C766 C 0.07536 0.57603 0.10556
 C767 C 0.05744 0.56163 0.08679
 H768 H 0.03279 0.61370 0.12792
 H769 H 0.01217 0.66096 0.15222
 H770 H 0.04986 0.69781 0.17973
 H771 H 0.10842 0.68783 0.18280
 H772 H 0.20374 0.61867 0.15780
 H773 H 0.22419 0.57089 0.13451
 H774 H 0.18637 0.53387 0.10738
 H775 H 0.12785 0.54440 0.10334
 C776 C 0.39744 1.09965 0.92884
 C777 C 0.40432 1.11421 0.89846
 C778 C 0.38002 1.13249 0.88372
 C779 C 0.34905 1.13625 0.89958
 C780 C 0.34285 1.12304 0.93097
 C781 C 0.36697 1.10444 0.94546
 C782 C 0.35975 1.09062 0.97624
 C783 C 0.32985 1.09558 0.99263
 C784 C 0.30647 1.11415 0.97874
 C785 C 0.31270 1.12766 0.94818
 C786 C 0.38729 1.14640 0.85303
 C787 C 0.41771 1.14242 0.83737
 C788 C 0.44147 1.12456 0.85180
 C789 C 0.43497 1.11054 0.88199
 C790 C 0.32303 1.15228 0.88273
 C791 C 0.30118 1.16497 0.86842
 C792 C 0.42049 1.07801 0.94161
 C793 C 0.43822 1.05873 0.95178
 H794 H 0.37719 1.07608 0.98811
 H795 H 0.32485 1.08503 1.01631
 H796 H 0.28334 1.11801 0.99165
 H797 H 0.29372 1.14185 0.93830
 H798 H 0.36963 1.16057 0.84090
 H799 H 0.42288 1.15326 0.81393
 H800 H 0.46506 1.12155 0.83955
 H801 H 0.45424 1.09693 0.89231
 C802 C 0.40898 0.87461 1.09081
 C803 C 0.38427 0.85856 1.07246
 C804 C 0.36182 0.84031 1.08990
 C805 C 0.36433 0.83814 1.12558
 C806 C 0.39058 0.85243 1.14349
 C807 C 0.41301 0.87065 1.12603
 C808 C 0.43885 0.88494 1.14450
 C809 C 0.44248 0.88132 1.17927
 C810 C 0.42050 0.86359 1.19638
 C811 C 0.39478 0.84929 1.17883
 C812 C 0.33698 0.82489 1.07107
 C813 C 0.33462 0.82714 1.03596
 C814 C 0.35670 0.84480 1.01891
 C815 C 0.38116 0.86055 1.03685
 C816 C 0.33895 0.82280 1.14414
 C817 C 0.31749 0.81111 1.16002
 C818 C 0.42781 0.89752 1.07438
 C819 C 0.44178 0.91795 1.06152
 H820 H 0.45665 0.89881 1.13223
 H821 H 0.46245 0.89232 1.19300
 H822 H 0.42341 0.86087 1.22339
 H823 H 0.37838 0.83564 1.19321
 H824 H 0.31938 0.81076 1.08323
 H825 H 0.31561 0.81503 1.02189
 H826 H 0.35495 0.84621 0.99161
 H827 H 0.39782 0.87398 1.02249
 C828 C 0.61379 1.08857 1.09603
 C829 C 0.61260 1.11992 1.09248
 C830 C 0.63659 1.13869 1.10885
 C831 C 0.66158 1.12600 1.12878
 C832 C 0.66259 1.09465 1.13256
 C833 C 0.63865 1.07590 1.11616
 C834 C 0.64022 1.04462 1.12040
 C835 C 0.66466 1.03225 1.14025
 C836 C 0.68805 1.05059 1.15625
 C837 C 0.68715 1.08143 1.15253
 C838 C 0.63492 1.16995 1.10485
 C839 C 0.61014 1.18235 1.08545
 C840 C 0.58660 1.16402 1.06964
 C841 C 0.58779 1.13312 1.07288
 C842 C 0.68634 1.14503 1.14536
 C843 C 0.70726 1.16031 1.15927
 C844 C 0.58970 1.06905 1.07910
 C845 C 0.57084 1.05126 1.06591
 H846 H 0.62260 1.02937 1.10852
 H847 H 0.66545 1.00830 1.14321
 H848 H 0.70700 1.04087 1.17164
 H849 H 0.70590 1.09474 1.16552
 H850 H 0.65264 1.18511 1.11673
 H851 H 0.60917 1.20632 1.08271
 H852 H 0.56738 1.17379 1.05465
 H853 H 0.56905 1.11974 1.05998
 C854 C 0.61561 0.89390 0.88647
 C855 C 0.60854 0.86526 0.87158
 C856 C 0.63213 0.85041 0.85031
 C857 C 0.66264 0.86433 0.84405
 C858 C 0.66942 0.89325 0.85838
 C859 C 0.64588 0.90806 0.87969
 C860 C 0.65337 0.93690 0.89394
 C861 C 0.68323 0.95065 0.88736
 C862 C 0.70619 0.93621 0.86643
 C863 C 0.69951 0.90784 0.85205
 C864 C 0.62457 0.82172 0.83585
 C865 C 0.59455 0.80810 0.84216
 C866 C 0.57149 0.82264 0.86293
 C867 C 0.57828 0.85090 0.87756
 C868 C 0.68771 0.84836 0.82436
 C869 C 0.70916 0.83491 0.80918
 C870 C 0.59196 0.90911 0.90865
 C871 C 0.57355 0.92338 0.92695
 H872 H 0.63632 0.94913 0.91032
 H873 H 0.68857 0.97265 0.89856
 H874 H 0.72932 0.94703 0.86132
 H875 H 0.71815 0.89753 0.83590
 H876 H 0.64170 0.80957 0.81946
 H877 H 0.58914 0.78616 0.83086
 H878 H 0.54821 0.81197 0.86774
 H879 H 0.55960 0.86135 0.89354
   
