data_POSCAR
  _audit_creation_date              2014-09-24
  _audit_creation_method            'ToBaCCo'
  _symmetry_space_group_name_H-M    'P1'
  _symmetry_Int_Tables_number       1
  _symmetry_cell_setting            triclinic
  loop_
  _symmetry_equiv_pos_as_xyz
 x,y,z
_cell_length_a 50.3891
_cell_length_b 50.3586
_cell_length_c 50.3833
_cell_angle_alpha 90.019300
_cell_angle_beta 90.015700
_cell_angle_gamma 90.022300
loop_
  _atom_site_label
  _atom_site_type_symbol
  _atom_site_fract_x
  _atom_site_fract_y
  _atom_site_fract_z
O1 O 0.35481 0.39200 0.02536
 O2 O 0.39142 0.35561 -0.02644
 O3 O 0.35463 0.39207 -0.02635
 O4 O 0.39143 0.35541 0.02529
 O5 O 0.36043 0.32431 0.02518
 O6 O 0.32373 0.36087 -0.02633
 O7 O 0.36042 0.32450 -0.02642
 O8 O 0.32389 0.36081 0.02526
 Cu9 Cu 0.37621 0.37692 -0.00054
 Cu10 Cu 0.33900 0.33949 -0.00059
 C11 C 0.33314 0.38254 0.03402
 C12 C 0.38209 0.33388 -0.03513
 C13 C 0.33292 0.38265 -0.03501
 C14 C 0.38212 0.33364 0.03393
 O15 O 0.64526 0.60797 0.02532
 O16 O 0.60867 0.64439 -0.02646
 O17 O 0.64540 0.60787 -0.02641
 O18 O 0.60871 0.64463 0.02526
 O19 O 0.63977 0.67567 0.02514
 O20 O 0.67635 0.63901 -0.02639
 O21 O 0.63972 0.67544 -0.02646
 O22 O 0.67624 0.63910 0.02522
 Cu23 Cu 0.62387 0.62307 -0.00057
 Cu24 Cu 0.66114 0.66043 -0.00063
 C25 C 0.66695 0.61740 0.03398
 C26 C 0.61802 0.66610 -0.03514
 C27 C 0.66711 0.61724 -0.03508
 C28 C 0.61807 0.66639 0.03388
 O29 O 0.64498 0.39235 0.97468
 O30 O 0.60834 0.35584 1.02639
 O31 O 0.64507 0.39239 1.02641
 O32 O 0.60835 0.35574 0.97466
 O33 O 0.63938 0.32469 0.97475
 O34 O 0.67599 0.36124 1.02636
 O35 O 0.63936 0.32478 1.02634
 O36 O 0.67591 0.36120 0.97476
 Cu37 Cu 0.62355 0.37722 1.00054
 Cu38 Cu 0.66078 0.33985 1.00056
 C39 C 0.66665 0.38292 0.96603
 C40 C 0.61768 0.33411 1.03505
 C41 C 0.66677 0.38299 1.03508
 C42 C 0.61768 0.33400 0.96600
 O43 O 0.39136 0.64449 1.02660
 O44 O 0.35467 0.60796 0.97490
 O45 O 0.39130 0.64458 0.97488
 O46 O 0.35461 0.60795 1.02662
 O47 O 0.32369 0.63910 1.02659
 O48 O 0.36027 0.67563 0.97498
 O49 O 0.32374 0.63910 0.97499
 O50 O 0.36034 0.67555 1.02658
 Cu51 Cu 0.37612 0.62310 1.00075
 Cu52 Cu 0.33889 0.66047 1.00079
 C53 C 0.38205 0.66623 1.03526
 C54 C 0.33299 0.61738 0.96625
 C55 C 0.38196 0.66633 0.96623
 C56 C 0.33291 0.61735 1.03530
 O57 O -0.02627 0.39121 0.35505
 O58 O 0.02550 0.35480 0.39165
 O59 O 0.02545 0.39140 0.35501
 O60 O -0.02621 0.35448 0.39154
 O61 O -0.02600 0.32351 0.36042
 O62 O 0.02553 0.36032 0.32399
 O63 O 0.02560 0.32381 0.36054
 O64 O -0.02607 0.36015 0.32401
 Cu65 Cu -0.00040 0.37611 0.37646
 Cu66 Cu -0.00022 0.33882 0.33911
 C67 C -0.03487 0.38182 0.33333
 C68 C 0.03424 0.33313 0.38227
 C69 C 0.03417 0.38207 0.33329
 C70 C -0.03479 0.33272 0.38213
 O71 O 0.02563 0.64478 0.60809
 O72 O -0.02622 0.60848 0.64471
 O73 O -0.02609 0.64514 0.60814
 O74 O 0.02550 0.60823 0.64478
 O75 O 0.02562 0.63936 0.67576
 O76 O -0.02583 0.67616 0.63921
 O77 O -0.02597 0.63960 0.67570
 O78 O 0.02577 0.67582 0.63915
 Cu79 Cu -0.00031 0.62351 0.62329
 Cu80 Cu -0.00008 0.66086 0.66058
 C81 C 0.03441 0.66647 0.61745
 C82 C -0.03481 0.61792 0.66641
 C83 C -0.03463 0.66692 0.61751
 C84 C 0.03422 0.61758 0.66650
 O85 O 0.97446 0.64472 0.39203
 O86 O 1.02617 0.60825 0.35538
 O87 O 1.02618 0.64496 0.39192
 O88 O 0.97445 0.60810 0.35539
 O89 O 0.97438 0.63918 0.32438
 O90 O 1.02597 0.67593 0.36082
 O91 O 1.02597 0.63932 0.32437
 O92 O 0.97438 0.67571 0.36093
 Cu93 Cu 1.00033 0.62337 0.37682
 Cu94 Cu 1.00016 0.66066 0.33950
 C95 C 0.96574 0.66641 0.38266
 C96 C 1.03476 0.61764 0.33366
 C97 C 1.03478 0.66670 0.38252
 C98 C 0.96572 0.61743 0.33368
 O99 O 0.97419 0.35479 0.60806
 O100 O 1.02591 0.39120 0.64485
 O101 O 1.02591 0.35454 0.60825
 O102 O 0.97419 0.39136 0.64477
 O103 O 0.97405 0.36025 0.67573
 O104 O 1.02564 0.32352 0.63930
 O105 O 1.02565 0.36009 0.67582
 O106 O 0.97404 0.32376 0.63911
 Cu107 Cu 1.00007 0.37612 0.62335
 Cu108 Cu 0.99982 0.33878 0.66061
 C109 C 0.96544 0.33309 0.61738
 C110 C 1.03447 0.38178 0.66657
 C111 C 1.03447 0.33277 0.61762
 C112 C 0.96543 0.38201 0.66646
 O113 O 0.35517 -0.02581 0.39186
 O114 O 0.39168 0.02616 0.35553
 O115 O 0.35499 0.02595 0.39206
 O116 O 0.39184 -0.02559 0.35532
 O117 O 0.36082 -0.02553 0.32426
 O118 O 0.32406 0.02589 0.36091
 O119 O 0.36065 0.02609 0.32447
 O120 O 0.32424 -0.02574 0.36070
 Cu121 Cu 0.37655 0.00018 0.37684
 Cu122 Cu 0.33932 0.00018 0.33946
 C123 C 0.33352 -0.03451 0.38239
 C124 C 0.38232 0.03485 0.33384
 C125 C 0.33327 0.03458 0.38268
 C126 C 0.38254 -0.03422 0.33355
 O127 O 0.60826 0.02594 0.64461
 O128 O 0.64481 -0.02602 0.60831
 O129 O 0.60816 -0.02582 0.64487
 O130 O 0.64491 0.02573 0.60803
 O131 O 0.67587 0.02579 0.63915
 O132 O 0.63921 -0.02564 0.67591
 O133 O 0.67576 -0.02583 0.63944
 O134 O 0.63932 0.02600 0.67564
 Cu135 Cu 0.62339 -0.00005 0.62331
 Cu136 Cu 0.66066 0.00010 0.66067
 C137 C 0.61764 0.03470 0.66629
 C138 C 0.66649 -0.03464 0.61776
 C139 C 0.61750 -0.03440 0.66663
 C140 C 0.66664 0.03441 0.61738
 O141 O 0.35506 1.02577 0.60821
 O142 O 0.39160 0.97392 0.64465
 O143 O 0.35494 0.97401 0.60807
 O144 O 0.39171 1.02567 0.64477
 O145 O 0.36068 1.02560 0.67580
 O146 O 0.32399 0.97406 0.63919
 O147 O 0.36056 0.97397 0.67567
 O148 O 0.32411 1.02568 0.63933
 Cu149 Cu 0.37647 0.99984 0.62328
 Cu150 Cu 0.33921 0.99982 0.66063
 C151 C 0.33339 1.03444 0.61764
 C152 C 0.38223 0.96524 0.66634
 C153 C 0.33323 0.96535 0.61745
 C154 C 0.38238 1.03433 0.66651
 O155 O 0.64570 1.02629 0.39170
 O156 O 0.60908 0.97440 0.35529
 O157 O 0.64576 0.97453 0.39185
 O158 O 0.60900 1.02616 0.35515
 O159 O 0.64001 1.02605 0.32410
 O160 O 0.67669 0.97454 0.36072
 O161 O 0.64010 0.97442 0.32425
 O162 O 0.67662 1.02617 0.36055
 Cu163 Cu 0.62425 1.00035 0.37665
 Cu164 Cu 0.66147 1.00029 0.33928
 C165 C 0.66738 1.03495 0.38226
 C166 C 0.61842 0.96570 0.33359
 C167 C 0.66746 0.96585 0.38247
 C168 C 0.61831 1.03478 0.33340
 C169 C 0.82005 0.78532 0.48672
 C170 C 0.82009 0.78528 0.51468
 C171 C 0.80293 0.80222 0.52852
 C172 C 0.78596 0.81937 0.51469
 C173 C 0.78598 0.81945 0.48673
 C174 C 0.80293 0.80231 0.47290
 H175 H 0.80315 0.80254 0.45137
 H176 H 0.80312 0.80240 0.55005
 C177 C 0.17999 0.21466 0.48675
 C178 C 0.17990 0.21466 0.51471
 C179 C 0.19705 0.19773 0.52856
 C180 C 0.21407 0.18062 0.51474
 C181 C 0.21411 0.18058 0.48678
 C182 C 0.19717 0.19771 0.47294
 H183 H 0.19699 0.19751 0.45141
 H184 H 0.19682 0.19752 0.55008
 C185 C 0.18044 0.78487 0.51321
 C186 C 0.18040 0.78483 0.48525
 C187 C 0.19758 0.80176 0.47142
 C188 C 0.21456 0.81890 0.48526
 C189 C 0.21456 0.81897 0.51322
 C190 C 0.19759 0.80184 0.52705
 H191 H 0.19737 0.80207 0.54857
 H192 H 0.19738 0.80194 0.44990
 C193 C 0.81990 0.21419 0.51281
 C194 C 0.81995 0.21421 0.48486
 C195 C 0.80279 0.19727 0.47100
 C196 C 0.78579 0.18013 0.48482
 C197 C 0.78578 0.18007 0.51277
 C198 C 0.80274 0.19721 0.52662
 H199 H 0.80293 0.19700 0.54815
 H200 H 0.80300 0.19708 0.44948
 C201 C 0.48557 0.81921 0.78550
 C202 C 0.51352 0.81925 0.78545
 C203 C 0.52736 0.80209 0.80238
 C204 C 0.51354 0.78512 0.81953
 C205 C 0.48559 0.78513 0.81964
 C206 C 0.47175 0.80209 0.80250
 H207 H 0.45022 0.80230 0.80275
 H208 H 0.54889 0.80228 0.80254
 C209 C 0.48582 0.18091 0.21479
 C210 C 0.51377 0.18090 0.21480
 C211 C 0.52757 0.19806 0.19784
 C212 C 0.51372 0.21499 0.18068
 C213 C 0.48576 0.21495 0.18061
 C214 C 0.47196 0.19800 0.19778
 H215 H 0.45043 0.19776 0.19757
 H216 H 0.54910 0.19789 0.19764
 C217 C 0.51429 0.18106 0.78509
 C218 C 0.48634 0.18099 0.78504
 C219 C 0.47248 0.19815 0.80196
 C220 C 0.48629 0.21515 0.81911
 C221 C 0.51424 0.21518 0.81919
 C222 C 0.52810 0.19823 0.80207
 H223 H 0.54962 0.19804 0.80231
 H224 H 0.45096 0.19793 0.80213
 C225 C 0.51468 0.81975 0.21440
 C226 C 0.48672 0.81976 0.21450
 C227 C 0.47285 0.80257 0.19759
 C228 C 0.48664 0.78561 0.18041
 C229 C 0.51459 0.78564 0.18026
 C230 C 0.52847 0.80263 0.19737
 H231 H 0.54999 0.80285 0.19709
 H232 H 0.45133 0.80274 0.19747
 C233 C 0.78543 0.48623 0.81968
 C234 C 0.78536 0.51420 0.81969
 C235 C 0.80224 0.52805 0.80250
 C236 C 0.81937 0.51422 0.78551
 C237 C 0.81946 0.48625 0.78551
 C238 C 0.80238 0.47240 0.80252
 H239 H 0.80263 0.45086 0.80274
 H240 H 0.80241 0.54959 0.80268
 C241 C 0.21443 0.48609 0.18023
 C242 C 0.21455 0.51406 0.18025
 C243 C 0.19767 0.52792 0.19745
 C244 C 0.18050 0.51409 0.21440
 C245 C 0.18036 0.48612 0.21435
 C246 C 0.19744 0.47227 0.19735
 H247 H 0.19716 0.45073 0.19710
 H248 H 0.19754 0.54946 0.19729
 C249 C 0.78528 0.51379 0.18046
 C250 C 0.78515 0.48582 0.18043
 C251 C 0.80202 0.47193 0.19760
 C252 C 0.81919 0.48572 0.21459
 C253 C 0.81933 0.51369 0.21462
 C254 C 0.80226 0.52758 0.19764
 H255 H 0.80256 0.54912 0.19744
 H256 H 0.80214 0.45039 0.19739
 C257 C 0.21405 0.51365 0.82015
 C258 C 0.21411 0.48568 0.82020
 C259 C 0.19721 0.47180 0.80304
 C260 C 0.18007 0.48559 0.78603
 C261 C 0.17998 0.51356 0.78600
 C262 C 0.19708 0.52745 0.80297
 H263 H 0.19685 0.54898 0.80316
 H264 H 0.19704 0.45026 0.80325
 C265 C 0.27385 0.41884 0.13042
 C266 C 0.26432 0.41096 0.10227
 C267 C 0.29028 0.42207 0.09076
 C268 C 0.30008 0.42975 0.11860
 C269 C 0.26115 0.44629 0.12662
 C270 C 0.28710 0.45744 0.11513
 C271 C 0.25139 0.43863 0.09877
 C272 C 0.27759 0.44954 0.08697
 C273 C 0.30608 0.40829 0.07066
 C274 C 0.31866 0.39667 0.05399
 C275 C 0.24467 0.45986 0.14627
 C276 C 0.23094 0.47144 0.16202
 H277 H 0.27211 0.40638 0.14851
 H278 H 0.25513 0.39170 0.09673
 H279 H 0.32029 0.42596 0.12650
 H280 H 0.29624 0.47673 0.12067
 H281 H 0.23118 0.44242 0.09086
 H282 H 0.27931 0.46204 0.06890
 C283 C 0.74847 0.56108 0.09887
 C284 C 0.72218 0.55028 0.08714
 C285 C 0.70968 0.57785 0.09081
 C286 C 0.73573 0.58885 0.10225
 C287 C 0.73870 0.55364 0.12676
 C288 C 0.72619 0.58119 0.13044
 C289 C 0.71266 0.54259 0.11534
 C290 C 0.69987 0.57039 0.11870
 C291 C 0.69394 0.59164 0.07067
 C292 C 0.68140 0.60326 0.05397
 C293 C 0.75512 0.54007 0.14646
 C294 C 0.76881 0.52848 0.16224
 H295 H 0.76864 0.55711 0.09095
 H296 H 0.72035 0.53770 0.06913
 H297 H 0.74504 0.60802 0.09662
 H298 H 0.72804 0.59373 0.14847
 H299 H 0.70341 0.52339 0.12098
 H300 H 0.67970 0.57436 0.12660
 C301 C 0.74859 0.43842 0.90100
 C302 C 0.72271 0.44964 0.91320
 C303 C 0.70951 0.42241 0.90925
 C304 C 0.73516 0.41101 0.89735
 C305 C 0.73867 0.44652 0.87333
 C306 C 0.72547 0.41932 0.86938
 C307 C 0.71303 0.45797 0.88522
 C308 C 0.69956 0.43052 0.88159
 C309 C 0.69371 0.40868 0.92938
 C310 C 0.68113 0.39707 0.94606
 C311 C 0.75517 0.46003 0.85365
 C312 C 0.76892 0.47158 0.83789
 H313 H 0.76894 0.44182 0.90873
 H314 H 0.72139 0.46198 0.93141
 H315 H 0.74409 0.39155 0.90257
 H316 H 0.72681 0.40701 0.85114
 H317 H 0.70416 0.47746 0.87998
 H318 H 0.67920 0.42714 0.87387
 C319 C 0.25046 0.57471 0.89297
 C320 C 0.26552 0.56080 0.91585
 C321 C 0.29006 0.57776 0.90953
 C322 C 0.27524 0.59188 0.88693
 C323 C 0.26089 0.55352 0.87369
 C324 C 0.28543 0.57046 0.86734
 C325 C 0.27571 0.53938 0.89628
 C326 C 0.30052 0.55655 0.89027
 C327 C 0.30589 0.59156 0.92963
 C328 C 0.31849 0.60321 0.94629
 C329 C 0.24437 0.53994 0.85405
 C330 C 0.23060 0.52834 0.83832
 H331 H 0.22970 0.58203 0.89384
 H332 H 0.25753 0.55696 0.93602
 H333 H 0.27523 0.61362 0.88332
 H334 H 0.29340 0.57427 0.84717
 H335 H 0.27567 0.51762 0.89987
 H336 H 0.32127 0.54922 0.88942
 C337 C 0.12861 0.29161 0.44286
 C338 C 0.11999 0.28802 0.41354
 C339 C 0.09085 0.29045 0.42219
 C340 C 0.09915 0.29430 0.45128
 C341 C 0.12659 0.26142 0.44671
 C342 C 0.09746 0.26386 0.45537
 C343 C 0.11828 0.25758 0.41764
 C344 C 0.08886 0.26026 0.42608
 C345 C 0.07081 0.30618 0.40825
 C346 C 0.05418 0.31871 0.39651
 C347 C 0.14616 0.24496 0.46042
 C348 C 0.16184 0.23122 0.47208
 H349 H 0.14520 0.30428 0.44992
 H350 H 0.12901 0.29816 0.39619
 H351 H 0.09106 0.30955 0.46498
 H352 H 0.08846 0.25374 0.47275
 H353 H 0.12637 0.24231 0.40397
 H354 H 0.07228 0.24755 0.41905
 C355 C 0.13112 0.72479 0.58022
 C356 C 0.10334 0.73463 0.58894
 C357 C 0.09111 0.70910 0.57758
 C358 C 0.11858 0.69899 0.56906
 C359 C 0.12690 0.73814 0.55315
 C360 C 0.11469 0.71261 0.54174
 C361 C 0.09943 0.74821 0.56166
 C362 C 0.08690 0.72244 0.55049
 C363 C 0.07104 0.69336 0.59148
 C364 C 0.05438 0.68085 0.60320
 C365 C 0.14652 0.75460 0.53948
 C366 C 0.16224 0.76833 0.52786
 H367 H 0.14953 0.72597 0.59228
 H368 H 0.09844 0.74352 0.60850
 H369 H 0.12620 0.67856 0.57224
 H370 H 0.11960 0.70379 0.52215
 H371 H 0.09179 0.76864 0.55847
 H372 H 0.06852 0.72129 0.53839
 C373 C 0.86984 0.72641 0.41905
 C374 C 0.89826 0.73565 0.41183
 C375 C 0.90917 0.70923 0.42247
 C376 C 0.88106 0.69973 0.42950
 C377 C 0.87345 0.73842 0.44683
 C378 C 0.88435 0.71202 0.45753
 C379 C 0.90157 0.74789 0.43982
 C380 C 0.91277 0.72124 0.45028
 C381 C 0.92920 0.69342 0.40860
 C382 C 0.94582 0.68085 0.39690
 C383 C 0.85388 0.75495 0.46046
 C384 C 0.83820 0.76874 0.47207
 H385 H 0.85197 0.72874 0.40638
 H386 H 0.90422 0.74519 0.39288
 H387 H 0.87288 0.67974 0.42511
 H388 H 0.87838 0.70254 0.47651
 H389 H 0.90976 0.76788 0.44421
 H390 H 0.93062 0.71893 0.46299
 C391 C 0.88914 0.28359 0.53969
 C392 C 0.88370 0.30130 0.56427
 C393 C 0.90895 0.29027 0.57734
 C394 C 0.91470 0.27284 0.55298
 C395 C 0.87328 0.26109 0.55283
 C396 C 0.89853 0.25010 0.56589
 C397 C 0.86752 0.27853 0.57717
 C398 C 0.89307 0.26776 0.59044
 C399 C 0.92894 0.30609 0.59130
 C400 C 0.94553 0.31865 0.60307
 C401 C 0.85373 0.24456 0.53914
 C402 C 0.83805 0.23078 0.52749
 H403 H 0.88726 0.28988 0.51865
 H404 H 0.87786 0.32255 0.56375
 H405 H 0.93430 0.27069 0.54317
 H406 H 0.90440 0.22885 0.56641
 H407 H 0.84789 0.28066 0.58695
 H408 H 0.89492 0.26143 0.61146
 C409 C 0.45026 0.09734 0.25919
 C410 C 0.45216 0.09526 0.28980
 C411 C 0.42192 0.09164 0.29105
 C412 C 0.41982 0.09341 0.26068
 C413 C 0.44612 0.12745 0.26181
 C414 C 0.41589 0.12381 0.26307
 C415 C 0.44826 0.12570 0.29218
 C416 C 0.41779 0.12175 0.29370
 C417 C 0.40813 0.07155 0.30687
 C418 C 0.39650 0.05486 0.31943
 C419 C 0.45966 0.14705 0.24524
 C420 C 0.47121 0.16275 0.23142
 H421 H 0.46379 0.08755 0.24481
 H422 H 0.46694 0.08332 0.30095
 H423 H 0.40799 0.07989 0.24790
 H424 H 0.40114 0.13577 0.25190
 H425 H 0.46014 0.13922 0.30491
 H426 H 0.40429 0.13155 0.30809
 C427 C 0.54318 0.11657 0.71186
 C428 C 0.57120 0.11971 0.69953
 C429 C 0.57810 0.09155 0.70903
 C430 C 0.55030 0.08811 0.72108
 C431 C 0.55399 0.12745 0.73823
 C432 C 0.56087 0.09930 0.74769
 C433 C 0.58176 0.13091 0.72618
 C434 C 0.58886 0.10245 0.73541
 C435 C 0.59184 0.07142 0.69322
 C436 C 0.60346 0.05472 0.68067
 C437 C 0.54048 0.14712 0.75476
 C438 C 0.52893 0.16287 0.76853
 H439 H 0.52422 0.12263 0.70241
 H440 H 0.57558 0.12784 0.67954
 H441 H 0.53749 0.07031 0.71879
 H442 H 0.55648 0.09114 0.76768
 H443 H 0.59453 0.14873 0.72848
 H444 H 0.60778 0.09640 0.74492
 C445 C 0.45456 0.90183 0.73626
 C446 C 0.45089 0.90022 0.70577
 C447 C 0.42175 0.90849 0.70922
 C448 C 0.42524 0.91041 0.73946
 C449 C 0.44587 0.87267 0.73850
 C450 C 0.41675 0.88096 0.74194
 C451 C 0.44243 0.87073 0.70827
 C452 C 0.41307 0.87933 0.71145
 C453 C 0.40802 0.92859 0.69337
 C454 C 0.39640 0.94526 0.68078
 C455 C 0.45938 0.85306 0.75508
 C456 C 0.47093 0.83736 0.76890
 H457 H 0.47180 0.91082 0.74664
 H458 H 0.46480 0.90836 0.69075
 H459 H 0.41804 0.92696 0.75210
 H460 H 0.40288 0.87281 0.75699
 H461 H 0.44967 0.85416 0.69566
 H462 H 0.39586 0.87031 0.70105
 C463 C 0.54316 0.88498 0.28714
 C464 C 0.57063 0.88127 0.30050
 C465 C 0.57874 0.90899 0.29069
 C466 C 0.55150 0.91302 0.27760
 C467 C 0.55451 0.87322 0.26139
 C468 C 0.56260 0.90094 0.25161
 C469 C 0.58173 0.86918 0.27448
 C470 C 0.59004 0.89721 0.26493
 C471 C 0.59254 0.92906 0.30656
 C472 C 0.60420 0.94572 0.31915
 C473 C 0.54093 0.85362 0.24480
 C474 C 0.52935 0.83792 0.23098
 H475 H 0.52370 0.87970 0.29604
 H476 H 0.57406 0.87342 0.32081
 H477 H 0.53919 0.93124 0.27907
 H478 H 0.55916 0.90880 0.23131
 H479 H 0.59400 0.85093 0.27299
 H480 H 0.60947 0.90247 0.25597
 C481 C 0.43802 0.25206 0.90010
 C482 C 0.44911 0.27796 0.91241
 C483 C 0.42194 0.29114 0.90825
 C484 C 0.41065 0.26547 0.89623
 C485 C 0.44634 0.26200 0.87251
 C486 C 0.41919 0.27518 0.86834
 C487 C 0.45768 0.28766 0.88452
 C488 C 0.43027 0.30112 0.88067
 C489 C 0.40804 0.30692 0.92829
 C490 C 0.39633 0.31947 0.94492
 C491 C 0.45999 0.24550 0.85293
 C492 C 0.47162 0.23173 0.83725
 H493 H 0.44135 0.23170 0.90785
 H494 H 0.46129 0.27929 0.93073
 H495 H 0.39116 0.25652 0.90128
 H496 H 0.40705 0.27383 0.85000
 H497 H 0.47719 0.29656 0.87945
 H498 H 0.42695 0.32149 0.87294
 C499 C 0.58109 0.72571 0.86885
 C500 C 0.58892 0.73510 0.89706
 C501 C 0.57806 0.70895 0.90839
 C502 C 0.57043 0.69929 0.88049
 C503 C 0.55355 0.73815 0.87279
 C504 C 0.54265 0.71201 0.88410
 C505 C 0.56117 0.74778 0.90070
 C506 C 0.55051 0.72139 0.91232
 C507 C 0.59201 0.69313 0.92836
 C508 C 0.60375 0.68055 0.94495
 C509 C 0.53986 0.75470 0.85328
 C510 C 0.52821 0.76851 0.83764
 H511 H 0.59349 0.72770 0.85076
 H512 H 0.60810 0.74443 0.90263
 H513 H 0.57438 0.67916 0.87243
 H514 H 0.52344 0.70275 0.87853
 H515 H 0.55721 0.76790 0.90878
 H516 H 0.53806 0.71942 0.93040
 C517 C 0.45994 0.72653 0.10256
 C518 C 0.44580 0.69981 0.10830
 C519 C 0.42206 0.70923 0.09164
 C520 C 0.43600 0.73568 0.08559
 C521 C 0.44658 0.73853 0.12720
 C522 C 0.42286 0.74792 0.11052
 C523 C 0.43267 0.71208 0.13328
 C524 C 0.40872 0.72124 0.11629
 C525 C 0.40810 0.69335 0.07169
 C526 C 0.39634 0.68073 0.05513
 C527 C 0.46028 0.75512 0.14670
 C528 C 0.47194 0.76896 0.16233
 H529 H 0.48118 0.72893 0.09716
 H530 H 0.45509 0.67986 0.10713
 H531 H 0.43724 0.74520 0.06575
 H532 H 0.41359 0.76788 0.11167
 H533 H 0.43145 0.70259 0.15312
 H534 H 0.38750 0.71886 0.12171
 C535 C 0.56164 0.25215 0.09958
 C536 C 0.55060 0.27817 0.08749
 C537 C 0.57787 0.29120 0.09157
 C538 C 0.58910 0.26541 0.10336
 C539 C 0.55354 0.26197 0.12727
 C540 C 0.58078 0.27500 0.13136
 C541 C 0.54226 0.28775 0.11550
 C542 C 0.56976 0.30106 0.11926
 C543 C 0.59173 0.30705 0.07156
 C544 C 0.60343 0.31964 0.05496
 C545 C 0.53993 0.24541 0.14684
 C546 C 0.52834 0.23160 0.16253
 H547 H 0.55815 0.23184 0.09172
 H548 H 0.53832 0.27966 0.06926
 H549 H 0.60851 0.25640 0.09813
 H550 H 0.59303 0.27350 0.14961
 H551 H 0.52282 0.29670 0.12075
 H552 H 0.57323 0.32137 0.12711
 C553 C 0.27559 0.10437 0.54010
 C554 C 0.30070 0.11035 0.55685
 C555 C 0.29045 0.09127 0.57831
 C556 C 0.26561 0.08498 0.56177
 C557 C 0.26113 0.12715 0.55434
 C558 C 0.25091 0.10805 0.57578
 C559 C 0.28597 0.13346 0.57085
 C560 C 0.27598 0.11406 0.59252
 C561 C 0.30633 0.07115 0.59197
 C562 C 0.31893 0.05445 0.60353
 C563 C 0.24452 0.14679 0.54089
 C564 C 0.23069 0.16249 0.52937
 H565 H 0.27521 0.10065 0.51838
 H566 H 0.32135 0.11104 0.54920
 H567 H 0.25744 0.06483 0.55817
 H568 H 0.23026 0.10734 0.58342
 H569 H 0.29412 0.15363 0.57443
 H570 H 0.27634 0.11781 0.61423
 C571 C 0.71226 0.13247 0.43126
 C572 C 0.72137 0.11533 0.40739
 C573 C 0.70953 0.09072 0.42097
 C574 C 0.70016 0.10753 0.44463
 C575 C 0.73878 0.12660 0.44509
 C576 C 0.72695 0.10199 0.45869
 C577 C 0.74813 0.10977 0.42145
 C578 C 0.73605 0.08487 0.43483
 C579 C 0.69368 0.07059 0.40723
 C580 C 0.68109 0.05388 0.39563
 C581 C 0.75536 0.14625 0.45861
 C582 C 0.76918 0.16197 0.47017
 H583 H 0.70270 0.15228 0.42994
 H584 H 0.71888 0.12059 0.38614
 H585 H 0.68027 0.10636 0.45402
 H586 H 0.72945 0.09677 0.47996
 H587 H 0.76803 0.11093 0.41207
 H588 H 0.74564 0.06508 0.43618
 C589 C 0.72537 0.86864 0.58135
 C590 C 0.73501 0.89654 0.59002
 C591 C 0.70952 0.90859 0.57841
 C592 C 0.69961 0.88100 0.56995
 C593 C 0.73889 0.87279 0.55436
 C594 C 0.71340 0.88483 0.54271
 C595 C 0.74877 0.90038 0.56281
 C596 C 0.72304 0.91273 0.55140
 C597 C 0.69361 0.92867 0.59211
 C598 C 0.68098 0.94535 0.60367
 C599 C 0.75551 0.85319 0.54086
 C600 C 0.76934 0.83750 0.52932
 H601 H 0.72653 0.85030 0.59351
 H602 H 0.74373 0.90159 0.60962
 H603 H 0.67920 0.87329 0.57302
 H604 H 0.70475 0.87976 0.52308
 H605 H 0.76917 0.90811 0.55974
 H606 H 0.72190 0.93105 0.53921
 C607 C 0.25224 0.88914 0.42185
 C608 C 0.26398 0.91421 0.43523
 C609 C 0.29068 0.90851 0.42168
 C610 C 0.27919 0.88372 0.40810
 C611 C 0.26149 0.87253 0.44567
 C612 C 0.28820 0.86680 0.43215
 C613 C 0.27299 0.89731 0.45927
 C614 C 0.29996 0.89192 0.44552
 C615 C 0.30650 0.92869 0.40802
 C616 C 0.31907 0.94543 0.39647
 C617 C 0.24495 0.85283 0.45913
 C618 C 0.23116 0.83708 0.47065
 H619 H 0.23245 0.88776 0.41227
 H620 H 0.25421 0.93394 0.43637
 H621 H 0.28193 0.87837 0.38691
 H622 H 0.29794 0.84707 0.43104
 H623 H 0.27022 0.90264 0.48048
 H624 H 0.31974 0.89332 0.45512
 C625 C 0.11458 0.45725 0.71354
 C626 C 0.11853 0.43002 0.69972
 C627 C 0.09104 0.42138 0.70968
 C628 C 0.08678 0.44838 0.72322
 C629 C 0.12674 0.44567 0.73899
 C630 C 0.09925 0.43704 0.74892
 C631 C 0.13102 0.41869 0.72545
 C632 C 0.10322 0.40985 0.73514
 C633 C 0.07102 0.40757 0.69378
 C634 C 0.05440 0.39593 0.68113
 C635 C 0.14630 0.45928 0.75559
 C636 C 0.16196 0.47090 0.76941
 H637 H 0.11951 0.47692 0.70488
 H638 H 0.12621 0.42700 0.67929
 H639 H 0.06839 0.46047 0.72212
 H640 H 0.09155 0.44007 0.76934
 H641 H 0.14943 0.40664 0.72657
 H642 H 0.09831 0.39021 0.74385
 C643 C 0.12939 0.58276 0.27098
 C644 C 0.10007 0.58725 0.26294
 C645 C 0.09141 0.57809 0.29070
 C646 C 0.12043 0.57380 0.29901
 C647 C 0.12716 0.55389 0.26143
 C648 C 0.11852 0.54468 0.28918
 C649 C 0.09814 0.55817 0.25315
 C650 C 0.08918 0.54920 0.28115
 C651 C 0.07135 0.59186 0.30656
 C652 C 0.05471 0.60349 0.31917
 C653 C 0.14674 0.54033 0.24485
 C654 C 0.16240 0.52875 0.23103
 H655 H 0.14614 0.59640 0.26660
 H656 H 0.09223 0.60490 0.25232
 H657 H 0.12934 0.58036 0.31806
 H658 H 0.12636 0.52699 0.29974
 H659 H 0.08922 0.55159 0.23411
 H660 H 0.07246 0.53552 0.28551
 C661 C 0.88361 0.45653 0.28775
 C662 C 0.88035 0.42851 0.30007
 C663 C 0.90843 0.42146 0.29051
 C664 C 0.91200 0.44925 0.27846
 C665 C 0.87262 0.44578 0.26140
 C666 C 0.90070 0.43874 0.25187
 C667 C 0.86904 0.41801 0.27345
 C668 C 0.89743 0.41076 0.26415
 C669 C 0.92851 0.40763 0.30629
 C670 C 0.94516 0.39597 0.31885
 C671 C 0.85301 0.45940 0.24491
 C672 C 0.83731 0.47102 0.23116
 H673 H 0.87768 0.47554 0.29722
 H674 H 0.87224 0.42416 0.32009
 H675 H 0.92986 0.46197 0.28071
 H676 H 0.90882 0.44310 0.23186
 H677 H 0.85116 0.40533 0.27119
 H678 H 0.90335 0.39179 0.25462
 C679 C 0.86852 0.58113 0.72509
 C680 C 0.89634 0.58986 0.73484
 C681 C 0.90849 0.57837 0.70934
 C682 C 0.88098 0.56984 0.69933
 C683 C 0.87272 0.55409 0.73854
 C684 C 0.88485 0.54256 0.71305
 C685 C 0.90024 0.56262 0.74851
 C686 C 0.91268 0.55132 0.72278
 C687 C 0.92856 0.59218 0.69351
 C688 C 0.94521 0.60380 0.68091
 C689 C 0.85314 0.54049 0.75508
 C690 C 0.83748 0.52888 0.76889
 H691 H 0.85014 0.59322 0.72625
 H692 H 0.90131 0.60946 0.74362
 H693 H 0.87331 0.57295 0.67891
 H694 H 0.87988 0.52293 0.70431
 H695 H 0.90793 0.55950 0.76893
 H696 H 0.93104 0.53919 0.72164
 C697 C 0.72725 0.54056 0.89846
 C698 C 0.73617 0.56491 0.91503
 C699 C 0.70931 0.57819 0.90933
 C700 C 0.70013 0.55405 0.89307
 C701 C 0.73849 0.55394 0.87345
 C702 C 0.71164 0.56719 0.86774
 C703 C 0.74765 0.57805 0.88973
 C704 C 0.72056 0.59153 0.88432
 C705 C 0.69347 0.59204 0.92943
 C706 C 0.68086 0.60375 0.94607
 C707 C 0.75502 0.54037 0.85375
 C708 C 0.76879 0.52881 0.83797
 H709 H 0.73020 0.51944 0.90404
 H710 H 0.74608 0.56408 0.93469
 H711 H 0.68044 0.54430 0.89467
 H712 H 0.70175 0.56799 0.84806
 H713 H 0.76735 0.58779 0.88814
 H714 H 0.71763 0.61265 0.87871
 C715 C 0.27102 0.41721 0.87138
 C716 C 0.29891 0.42637 0.88061
 C717 C 0.29050 0.42168 0.90955
 C718 C 0.26287 0.41233 0.90062
 C719 C 0.26116 0.44596 0.87382
 C720 C 0.25278 0.44129 0.90276
 C721 C 0.28878 0.45536 0.88273
 C722 C 0.28065 0.45046 0.91199
 C723 C 0.30643 0.40783 0.92958
 C724 C 0.31910 0.39613 0.94617
 C725 C 0.24455 0.45954 0.85419
 C726 C 0.23073 0.47109 0.83845
 H727 H 0.26687 0.40368 0.85448
 H728 H 0.31806 0.42010 0.87172
 H729 H 0.25237 0.39450 0.90820
 H730 H 0.23363 0.44757 0.91166
 H731 H 0.29922 0.47323 0.87515
 H732 H 0.28478 0.46402 0.92887
 C733 C 0.25216 0.57769 0.11003
 C734 C 0.27897 0.59167 0.11561
 C735 C 0.29070 0.57826 0.09085
 C736 C 0.26412 0.56448 0.08499
 C737 C 0.26150 0.55390 0.12664
 C738 C 0.27323 0.54046 0.10188
 C739 C 0.28808 0.56764 0.13252
 C740 C 0.30007 0.55444 0.10744
 C741 C 0.30655 0.59215 0.07079
 C742 C 0.31916 0.60387 0.05416
 C743 C 0.24496 0.54027 0.14628
 C744 C 0.23116 0.52869 0.16202
 H745 H 0.23229 0.58712 0.11131
 H746 H 0.28151 0.61289 0.12104
 H747 H 0.25444 0.56330 0.06523
 H748 H 0.27067 0.51923 0.09648
 H749 H 0.29774 0.56880 0.15229
 H750 H 0.31993 0.54500 0.10614
 C751 C 0.74744 0.42227 0.11012
 C752 C 0.72050 0.40851 0.11558
 C753 C 0.70899 0.42196 0.09074
 C754 C 0.73570 0.43553 0.08500
 C755 C 0.73820 0.44617 0.12664
 C756 C 0.72669 0.45965 0.10181
 C757 C 0.71149 0.43264 0.13241
 C758 C 0.69972 0.44589 0.10725
 C759 C 0.69313 0.40814 0.07062
 C760 C 0.68052 0.39645 0.05396
 C761 C 0.75475 0.45972 0.14635
 C762 C 0.76854 0.47124 0.16215
 H763 H 0.76723 0.41270 0.11152
 H764 H 0.71777 0.38733 0.12103
 H765 H 0.74547 0.43659 0.06529
 H766 H 0.72944 0.48085 0.09640
 H767 H 0.70173 0.43160 0.15213
 H768 H 0.67993 0.45547 0.10583
 C769 C 0.89817 0.72608 0.54070
 C770 C 0.91567 0.73545 0.56418
 C771 C 0.90976 0.70922 0.57859
 C772 C 0.89256 0.69958 0.55530
 C773 C 0.87386 0.73840 0.55438
 C774 C 0.86792 0.71217 0.56876
 C775 C 0.89107 0.74801 0.57765
 C776 C 0.88544 0.72155 0.59225
 C777 C 0.92987 0.69336 0.59240
 C778 C 0.94652 0.68072 0.60406
 C779 C 0.85414 0.75493 0.54083
 C780 C 0.83835 0.76870 0.52929
 H781 H 0.90316 0.72814 0.51933
 H782 H 0.93553 0.74485 0.56242
 H783 H 0.89341 0.67951 0.54624
 H784 H 0.84806 0.70279 0.57050
 H785 H 0.89024 0.76810 0.58670
 H786 H 0.88041 0.71951 0.61360
 C787 C 0.88620 0.25428 0.41823
 C788 C 0.88222 0.28346 0.40937
 C789 C 0.90958 0.29037 0.42098
 C790 C 0.91383 0.26143 0.42964
 C791 C 0.87370 0.26115 0.44517
 C792 C 0.90104 0.26805 0.45680
 C793 C 0.86942 0.29009 0.43655
 C794 C 0.89709 0.29725 0.44794
 C795 C 0.92969 0.30625 0.40718
 C796 C 0.94634 0.31890 0.39554
 C797 C 0.85400 0.24459 0.45872
 C798 C 0.83822 0.23081 0.47026
 H799 H 0.88150 0.23645 0.40616
 H800 H 0.87469 0.28999 0.38972
 H801 H 0.93232 0.24982 0.42668
 H802 H 0.90854 0.26153 0.47647
 H803 H 0.85092 0.30167 0.43953
 H804 H 0.90180 0.31507 0.46004
 C805 C 0.13240 0.28306 0.57499
 C806 C 0.11233 0.30175 0.56104
 C807 C 0.09014 0.29055 0.57872
 C808 C 0.10990 0.27212 0.59287
 C809 C 0.12605 0.26142 0.55445
 C810 C 0.10385 0.25026 0.57211
 C811 C 0.10631 0.27984 0.54026
 C812 C 0.08381 0.26891 0.55815
 C813 C 0.07002 0.30638 0.59255
 C814 C 0.05335 0.31899 0.60421
 C815 C 0.14577 0.24493 0.54087
 C816 C 0.16159 0.23119 0.52931
 H817 H 0.15260 0.28869 0.58178
 H818 H 0.11557 0.32310 0.55661
 H819 H 0.11116 0.26911 0.61466
 H820 H 0.10059 0.22891 0.57654
 H821 H 0.10508 0.28282 0.51845
 H822 H 0.06363 0.26328 0.55134
 C823 C 0.11031 0.74719 0.42141
 C824 C 0.11561 0.72003 0.40799
 C825 C 0.09054 0.70891 0.42135
 C826 C 0.08496 0.73584 0.43457
 C827 C 0.12653 0.73804 0.44554
 C828 C 0.10147 0.72692 0.45892
 C829 C 0.13214 0.71111 0.43236
 C830 C 0.10675 0.69973 0.44550
 C831 C 0.07038 0.69309 0.40756
 C832 C 0.05368 0.68048 0.39592
 C833 C 0.14629 0.75453 0.45909
 C834 C 0.16211 0.76828 0.47064
 H835 H 0.11200 0.76688 0.41164
 H836 H 0.12121 0.71702 0.38690
 H837 H 0.06534 0.74583 0.43536
 H838 H 0.09590 0.72996 0.48003
 H839 H 0.15176 0.70114 0.43159
 H840 H 0.10505 0.68006 0.45529
 C841 C 0.53918 0.89289 0.72036
 C842 C 0.55723 0.91528 0.73129
 C843 C 0.57768 0.90891 0.70958
 C844 C 0.55984 0.88683 0.69838
 C845 C 0.55333 0.87301 0.73866
 C846 C 0.57376 0.86662 0.71695
 C847 C 0.57115 0.89510 0.74983
 C848 C 0.59180 0.88902 0.72790
 C849 C 0.59155 0.92903 0.69378
 C850 C 0.60325 0.94567 0.68118
 C851 C 0.53972 0.85330 0.75514
 C852 C 0.52814 0.83752 0.76889
 H853 H 0.51737 0.89422 0.71746
 H854 H 0.55056 0.93549 0.73701
 H855 H 0.55532 0.88367 0.67705
 H856 H 0.58041 0.84640 0.71125
 H857 H 0.57568 0.89828 0.77116
 H858 H 0.61359 0.88764 0.73083
 C859 C 0.43331 0.86757 0.28807
 C860 C 0.44643 0.89278 0.29992
 C861 C 0.42251 0.90922 0.29057
 C862 C 0.40918 0.88433 0.27897
 C863 C 0.44692 0.87342 0.26142
 C864 C 0.42301 0.88988 0.25209
 C865 C 0.46027 0.89829 0.27301
 C866 C 0.43614 0.91504 0.26393
 C867 C 0.40859 0.92928 0.30641
 C868 C 0.39685 0.94588 0.31902
 C869 C 0.46055 0.85376 0.24490
 C870 C 0.47213 0.83800 0.23111
 H871 H 0.43229 0.84782 0.29780
 H872 H 0.45594 0.89420 0.31975
 H873 H 0.38801 0.87880 0.28160
 H874 H 0.41352 0.88847 0.23226
 H875 H 0.48145 0.90379 0.27036
 H876 H 0.43719 0.93478 0.25418
 C877 C 0.53968 0.10615 0.27848
 C878 C 0.55916 0.08494 0.26769
 C879 C 0.57831 0.09141 0.29054
 C880 C 0.55904 0.11231 0.30160
 C881 C 0.55379 0.12724 0.26153
 C882 C 0.57290 0.13372 0.28439
 C883 C 0.57304 0.10632 0.25050
 C884 C 0.59237 0.11250 0.27359
 C885 C 0.59227 0.07133 0.30631
 C886 C 0.60402 0.05470 0.31889
 C887 C 0.54008 0.14691 0.24508
 C888 C 0.52844 0.16266 0.23135
 H889 H 0.51784 0.10380 0.28028
 H890 H 0.55364 0.06468 0.26100
 H891 H 0.55341 0.11453 0.32279
 H892 H 0.57841 0.15400 0.29106
 H893 H 0.57866 0.10408 0.22932
 H894 H 0.61420 0.11491 0.27174
 C895 C 0.46021 0.10284 0.72587
 C896 C 0.43687 0.08524 0.73541
 C897 C 0.42221 0.09113 0.70932
 C898 C 0.44534 0.10843 0.69952
 C899 C 0.44655 0.12711 0.73834
 C900 C 0.43192 0.13303 0.71225
 C901 C 0.42343 0.10980 0.74811
 C902 C 0.40858 0.11541 0.72179
 C903 C 0.40833 0.07098 0.69356
 C904 C 0.39664 0.05429 0.68100
 C905 C 0.46016 0.14686 0.75478
 C906 C 0.47173 0.16268 0.76850
 H907 H 0.48160 0.09792 0.72775
 H908 H 0.43878 0.06537 0.74475
 H909 H 0.45422 0.10763 0.67937
 H910 H 0.43003 0.15291 0.70293
 H911 H 0.41456 0.11058 0.76826
 H912 H 0.38719 0.12036 0.71994
 C913 C 0.54316 0.71265 0.11511
 C914 C 0.55087 0.72205 0.08686
 C915 C 0.57841 0.70949 0.09057
 C916 C 0.57092 0.69982 0.11851
 C917 C 0.55423 0.73874 0.12645
 C918 C 0.58175 0.72618 0.13016
 C919 C 0.56170 0.74838 0.09851
 C920 C 0.58943 0.73559 0.10192
 C921 C 0.59220 0.69360 0.07047
 C922 C 0.60385 0.68095 0.05382
 C923 C 0.54069 0.75529 0.14615
 C924 C 0.52916 0.76907 0.16195
 H925 H 0.52396 0.70343 0.12077
 H926 H 0.53828 0.72018 0.06887
 H927 H 0.57484 0.67966 0.12651
 H928 H 0.59430 0.72806 0.14818
 H929 H 0.55777 0.76854 0.09050
 H930 H 0.60860 0.74487 0.09628
 C931 C 0.43233 0.28829 0.13244
 C932 C 0.44561 0.30015 0.10735
 C933 C 0.42182 0.29074 0.09073
 C934 C 0.40833 0.27914 0.11550
 C935 C 0.44602 0.26165 0.12672
 C936 C 0.42225 0.25226 0.11008
 C937 C 0.45953 0.27324 0.10195
 C938 C 0.43554 0.26409 0.08503
 C939 C 0.40802 0.30655 0.07057
 C940 C 0.39636 0.31914 0.05389
 C941 C 0.45957 0.24518 0.14648
 C942 C 0.47113 0.23146 0.16230
 H943 H 0.43115 0.29805 0.15217
 H944 H 0.45510 0.32000 0.10599
 H945 H 0.38713 0.28174 0.12086
 H946 H 0.41277 0.23240 0.11143
 H947 H 0.48075 0.27062 0.09662
 H948 H 0.43674 0.25432 0.06531
 C949 C 0.56737 0.28877 0.86744
 C950 C 0.55412 0.30043 0.89265
 C951 C 0.57804 0.29111 0.90912
 C952 C 0.59149 0.27971 0.88424
 C953 C 0.55387 0.26200 0.87310
 C954 C 0.57777 0.25271 0.88959
 C955 C 0.54039 0.27340 0.89798
 C956 C 0.56451 0.26435 0.91475
 C957 C 0.59182 0.30692 0.92930
 C958 C 0.60347 0.31951 0.94601
 C959 C 0.54035 0.24551 0.85333
 C960 C 0.52883 0.23175 0.83750
 H961 H 0.56840 0.29861 0.84776
 H962 H 0.54451 0.32020 0.89414
 H963 H 0.61266 0.28248 0.87880
 H964 H 0.58736 0.23293 0.88811
 H965 H 0.51921 0.27060 0.90338
 H966 H 0.56345 0.25449 0.93443
 C967 C 0.45953 0.72614 0.89788
 C968 C 0.43600 0.73552 0.91529
 C969 C 0.42165 0.70924 0.90943
 C970 C 0.44498 0.69960 0.89232
 C971 C 0.44588 0.73835 0.87348
 C972 C 0.43156 0.71206 0.86760
 C973 C 0.42257 0.74797 0.89061
 C974 C 0.40802 0.72145 0.88503
 C975 C 0.40783 0.69342 0.92957
 C976 C 0.39618 0.68083 0.94625
 C977 C 0.45944 0.75484 0.85375
 C978 C 0.47099 0.76858 0.83794
 H979 H 0.48088 0.72828 0.90292
 H980 H 0.43771 0.74499 0.93512
 H981 H 0.45407 0.67954 0.89326
 H982 H 0.42987 0.70262 0.84776
 H983 H 0.41348 0.76803 0.88968
 H984 H 0.38668 0.71934 0.87996
 C985 C 0.74859 0.88942 0.42270
 C986 C 0.72153 0.88404 0.40914
 C987 C 0.71032 0.90915 0.42236
 C988 C 0.73715 0.91481 0.43573
 C989 C 0.73931 0.87325 0.44682
 C990 C 0.72811 0.89835 0.46007
 C991 C 0.71248 0.86756 0.43349
 C992 C 0.70102 0.89299 0.44650
 C993 C 0.69456 0.92926 0.40844
 C994 C 0.68198 0.94591 0.39672
 C995 C 0.75574 0.85354 0.46049
 C996 C 0.76945 0.83775 0.47210
 H997 H 0.76832 0.88774 0.41305
 H998 H 0.71864 0.87837 0.38804
 H999 H 0.74712 0.93446 0.43653
 H1000 H 0.73101 0.90399 0.48118
 H1001 H 0.70253 0.84791 0.43271
 H1002 H 0.68130 0.89469 0.45617
 C1003 C 0.27396 0.86889 0.58058
 C1004 C 0.30017 0.88085 0.56978
 C1005 C 0.29031 0.90865 0.57757
 C1006 C 0.26437 0.89699 0.58858
 C1007 C 0.26127 0.87276 0.55314
 C1008 C 0.25144 0.90057 0.56092
 C1009 C 0.28720 0.88440 0.54209
 C1010 C 0.27762 0.91252 0.55011
 C1011 C 0.30610 0.92876 0.59148
 C1012 C 0.31869 0.94541 0.60320
 C1013 C 0.24481 0.85306 0.53947
 C1014 C 0.23110 0.83726 0.52786
 H1015 H 0.27227 0.85074 0.59297
 H1016 H 0.32039 0.87298 0.57356
 H1017 H 0.25513 0.90240 0.60784
 H1018 H 0.23122 0.90845 0.55714
 H1019 H 0.29638 0.87899 0.52281
 H1020 H 0.27929 0.93065 0.53769
 C1021 C 0.27079 0.12936 0.41816
 C1022 C 0.29868 0.12008 0.42722
 C1023 C 0.29019 0.09114 0.42254
 C1024 C 0.26256 0.10013 0.41329
 C1025 C 0.26101 0.12693 0.44693
 C1026 C 0.25255 0.09799 0.44226
 C1027 C 0.28864 0.11797 0.45623
 C1028 C 0.28042 0.08872 0.45133
 C1029 C 0.30605 0.07109 0.40865
 C1030 C 0.31869 0.05448 0.39694
 C1031 C 0.24448 0.14658 0.46057
 C1032 C 0.23071 0.16234 0.47216
 H1033 H 0.26664 0.14628 0.40467
 H1034 H 0.31784 0.12894 0.42090
 H1035 H 0.25199 0.09256 0.39549
 H1036 H 0.23340 0.08912 0.44859
 H1037 H 0.29914 0.12553 0.47407
 H1038 H 0.28455 0.07182 0.46486
 C1039 C 0.74855 0.09865 0.56050
 C1040 C 0.73575 0.10233 0.58819
 C1041 C 0.70969 0.09082 0.57728
 C1042 C 0.72226 0.08684 0.54978
 C1043 C 0.73887 0.12651 0.55273
 C1044 C 0.71283 0.11501 0.54177
 C1045 C 0.72630 0.13049 0.58021
 C1046 C 0.69998 0.11868 0.56950
 C1047 C 0.69383 0.07083 0.59126
 C1048 C 0.68120 0.05426 0.60305
 C1049 C 0.75540 0.14611 0.53902
 C1050 C 0.76918 0.16184 0.52740
 H1051 H 0.76871 0.09063 0.55667
 H1052 H 0.74502 0.09690 0.60743
 H1053 H 0.72043 0.06871 0.53738
 H1054 H 0.70361 0.12046 0.52251
 H1055 H 0.72815 0.14864 0.59258
 H1056 H 0.67982 0.12668 0.57333
 C1057 C 0.89759 0.53974 0.27363
 C1058 C 0.91484 0.56346 0.26439
 C1059 C 0.90898 0.57759 0.29078
 C1060 C 0.89203 0.55407 0.30029
 C1061 C 0.87309 0.55335 0.26159
 C1062 C 0.86720 0.56745 0.28798
 C1063 C 0.89006 0.57685 0.25211
 C1064 C 0.88448 0.59117 0.27873
 C1065 C 0.92910 0.59144 0.30662
 C1066 C 0.94576 0.60314 0.31921
 C1067 C 0.85339 0.53979 0.24504
 C1068 C 0.83760 0.52826 0.23124
 H1069 H 0.90273 0.51842 0.27134
 H1070 H 0.93465 0.56194 0.25487
 H1071 H 0.89308 0.54483 0.32026
 H1072 H 0.84739 0.56895 0.29748
 H1073 H 0.88902 0.58608 0.23213
 H1074 H 0.87930 0.61247 0.28101
 C1075 C 0.89809 0.45967 0.72727
 C1076 C 0.91460 0.43532 0.73621
 C1077 C 0.90883 0.42197 0.70939
 C1078 C 0.89263 0.44612 0.70018
 C1079 C 0.87307 0.44638 0.73857
 C1080 C 0.86727 0.43307 0.71175
 C1081 C 0.88929 0.42226 0.74775
 C1082 C 0.88380 0.40871 0.72070
 C1083 C 0.92889 0.40806 0.69354
 C1084 C 0.94550 0.39632 0.68094
 C1085 C 0.85343 0.46003 0.75512
 C1086 C 0.83770 0.47162 0.76891
 H1087 H 0.90373 0.48079 0.73017
 H1088 H 0.93428 0.43613 0.74609
 H1089 H 0.89423 0.45581 0.68046
 H1090 H 0.84759 0.43228 0.70189
 H1091 H 0.88771 0.41258 0.76748
 H1092 H 0.87813 0.38760 0.71782
 C1093 C 0.11028 0.57754 0.74795
 C1094 C 0.11579 0.59089 0.72082
 C1095 C 0.09070 0.57763 0.70959
 C1096 C 0.08492 0.56448 0.73649
 C1097 C 0.12641 0.55330 0.73891
 C1098 C 0.10134 0.54002 0.72769
 C1099 C 0.13222 0.56642 0.71201
 C1100 C 0.10682 0.55337 0.70052
 C1101 C 0.07068 0.59152 0.69368
 C1102 C 0.05410 0.60325 0.68103
 C1103 C 0.14603 0.53970 0.75552
 C1104 C 0.16176 0.52815 0.76935
 H1105 H 0.11192 0.58734 0.76762
 H1106 H 0.12152 0.61196 0.71781
 H1107 H 0.06525 0.56380 0.74639
 H1108 H 0.09563 0.51893 0.73072
 H1109 H 0.15191 0.56707 0.70213
 H1110 H 0.10517 0.54355 0.68086
 C1111 C 0.10710 0.42541 0.25068
 C1112 C 0.11319 0.40790 0.27520
 C1113 C 0.09081 0.42200 0.29038
 C1114 C 0.08444 0.43931 0.26609
 C1115 C 0.12664 0.44633 0.26121
 C1116 C 0.10427 0.46046 0.27639
 C1117 C 0.13303 0.42904 0.28551
 C1118 C 0.11033 0.44294 0.30095
 C1119 C 0.07072 0.40812 0.30622
 C1120 C 0.05409 0.39639 0.31881
 C1121 C 0.14632 0.45993 0.24469
 C1122 C 0.16209 0.47151 0.23092
 H1123 H 0.10599 0.41833 0.22984
 H1124 H 0.11664 0.38613 0.27488
 H1125 H 0.06425 0.44341 0.25829
 H1126 H 0.10085 0.48224 0.27667
 H1127 H 0.15323 0.42496 0.29329
 H1128 H 0.11142 0.45002 0.32179
   
