data_POSCAR
  _audit_creation_date              2014-09-24
  _audit_creation_method            'ToBaCCo'
  _symmetry_space_group_name_H-M    'P1'
  _symmetry_Int_Tables_number       1
  _symmetry_cell_setting            triclinic
  loop_
  _symmetry_equiv_pos_as_xyz
 x,y,z
_cell_length_a 54.0593
_cell_length_b 24.2180
_cell_length_c 21.8335
_cell_angle_alpha 89.712300
_cell_angle_beta 89.899600
_cell_angle_gamma 90.232000
loop_
  _atom_site_label
  _atom_site_type_symbol
  _atom_site_fract_x
  _atom_site_fract_y
  _atom_site_fract_z
C1 C 0.70629 0.32174 0.55733
 C2 C 0.69449 0.33076 0.50133
 C3 C 0.70658 0.32123 0.44589
 C4 C 0.73125 0.30228 0.44575
 C5 C 0.74350 0.29292 0.50235
 C6 C 0.73096 0.30259 0.55848
 C7 C 0.74342 0.29287 0.61400
 C8 C 0.76772 0.27406 0.61445
 C9 C 0.78052 0.26434 0.55941
 C10 C 0.76830 0.27389 0.50280
 C11 C 0.74397 0.29247 0.39071
 C12 C 0.76833 0.27397 0.39112
 C13 C 0.78086 0.26449 0.44664
 C14 C 0.80561 0.24582 0.44774
 C15 C 0.81739 0.23642 0.50368
 C16 C 0.80523 0.24532 0.55921
 H17 H 0.73445 0.29979 0.65766
 H18 H 0.77644 0.26724 0.65844
 H19 H 0.73517 0.29912 0.34678
 H20 H 0.77729 0.26710 0.34745
 H21 H 0.67552 0.34539 0.50075
 H22 H 0.83639 0.22187 0.50400
 C23 C 0.29477 0.71136 0.44494
 C24 C 0.30644 0.70099 0.50072
 C25 C 0.29470 0.71192 0.55628
 C26 C 0.27058 0.73404 0.55671
 C27 C 0.25847 0.74470 0.50025
 C28 C 0.27062 0.73332 0.44402
 C29 C 0.25828 0.74386 0.38861
 C30 C 0.23433 0.76484 0.38836
 C31 C 0.22189 0.77606 0.44351
 C32 C 0.23410 0.76620 0.50000
 C33 C 0.25822 0.74542 0.61186
 C34 C 0.23427 0.76642 0.61165
 C35 C 0.22182 0.77690 0.55623
 C36 C 0.19732 0.79720 0.55526
 C37 C 0.18555 0.80688 0.49931
 C38 C 0.19745 0.79641 0.44380
 H39 H 0.26703 0.73575 0.34494
 H40 H 0.22560 0.77213 0.34448
 H41 H 0.26696 0.73796 0.65571
 H42 H 0.22553 0.77427 0.65539
 H43 H 0.32496 0.68378 0.50091
 H44 H 0.16661 0.82169 0.49885
 C45 C 0.20542 0.18309 -0.44477
 C46 C 0.19339 0.17271 -0.50001
 C47 C 0.20520 0.18160 -0.55617
 C48 C 0.22986 0.20139 -0.55759
 C49 C 0.24231 0.21190 -0.50156
 C50 C 0.23002 0.20278 -0.44486
 C51 C 0.24262 0.21352 -0.38991
 C52 C 0.26693 0.23265 -0.39049
 C53 C 0.27950 0.24179 -0.44606
 C54 C 0.26709 0.23148 -0.50215
 C55 C 0.24241 0.21092 -0.61318
 C56 C 0.26674 0.23010 -0.61376
 C57 C 0.27945 0.24050 -0.55877
 C58 C 0.30422 0.25959 -0.55857
 C59 C 0.31620 0.26947 -0.50304
 C60 C 0.30421 0.26083 -0.44716
 H61 H 0.23376 0.20710 -0.34590
 H62 H 0.27582 0.24020 -0.34692
 H63 H 0.23348 0.20352 -0.65676
 H64 H 0.27555 0.23672 -0.65778
 H65 H 0.17445 0.15753 -0.49915
 H66 H 0.33526 0.28392 -0.50318
 C67 C -0.30427 0.71355 -0.44539
 C68 C -0.31639 0.70393 -0.50079
 C69 C -0.30419 0.71046 -0.55683
 C70 C -0.27901 0.72653 -0.55812
 C71 C -0.26650 0.73667 -0.50213
 C72 C -0.27916 0.73023 -0.44545
 C73 C -0.26642 0.74097 -0.39059
 C74 C -0.24181 0.75814 -0.39133
 C75 C -0.22898 0.76495 -0.44691
 C76 C -0.24135 0.75385 -0.50285
 C77 C -0.26606 0.73307 -0.61370
 C78 C -0.24135 0.74949 -0.61437
 C79 C -0.22865 0.76025 -0.55950
 C80 C -0.20361 0.77744 -0.55944
 C81 C -0.19177 0.78859 -0.50406
 C82 C -0.20410 0.78278 -0.44823
 H83 H -0.27545 0.73638 -0.34654
 H84 H -0.23289 0.76604 -0.34787
 H85 H -0.27497 0.72547 -0.65725
 H86 H -0.23226 0.75397 -0.65837
 H87 H -0.33579 0.69186 -0.50032
 H88 H -0.17259 0.80224 -0.50431
 N89 N -0.02976 0.90831 -0.06944
 N90 N -0.04962 0.87737 -0.07849
 N91 N 0.02317 0.94260 -0.10921
 N92 N 0.04242 0.93681 -0.14562
 N93 N 0.02247 0.90307 -0.06784
 N94 N 0.04137 0.86915 -0.07505
 N95 N -0.02866 0.94840 -0.11009
 N96 N -0.04757 0.94588 -0.14796
 C97 C -0.06040 0.90152 -0.12768
 C98 C 0.05348 0.89093 -0.12390
 N99 N 0.02745 1.09766 -0.06265
 N100 N 0.04807 1.12697 -0.06832
 N101 N -0.02569 1.06683 -0.10678
 N102 N -0.04457 1.07527 -0.14369
 N103 N -0.02480 1.10472 -0.06398
 N104 N -0.04323 1.14000 -0.07054
 N105 N 0.02605 1.06042 -0.10603
 N106 N 0.04548 1.06323 -0.14231
 Mn107 Mn -0.00134 1.00460 -0.10858
 C108 C 0.05891 1.10483 -0.11850
 C109 C -0.05525 1.12093 -0.12058
 N110 N 0.02158 0.89971 0.06448
 N111 N 0.04080 0.86644 0.07046
 N112 N -0.03028 0.94271 0.10514
 N113 N -0.04923 0.93652 0.14269
 N114 N -0.03064 0.90477 0.06237
 N115 N -0.04996 0.87172 0.06957
 N116 N 0.02159 0.93698 0.10798
 N117 N 0.04066 0.93020 0.14466
 Mn118 Mn -0.00406 0.90309 -0.00263
 C119 C 0.05232 0.88608 0.12097
 C120 C -0.06134 0.89238 0.11969
 N121 N -0.02561 1.10149 0.06786
 N122 N -0.04338 1.13797 0.07661
 N123 N 0.02460 1.05491 0.11119
 N124 N 0.04369 1.05568 0.14855
 N125 N 0.02654 1.09423 0.06977
 N126 N 0.04716 1.12290 0.07791
 N127 N -0.02719 1.06138 0.10841
 N128 N -0.04594 1.06941 0.14594
 Mn129 Mn 0.00098 1.10041 0.00276
 Mn130 Mn -0.00290 0.99898 0.10877
 Cl131 Cl -0.00184 1.00177 0.00010
 C132 C -0.05582 1.11713 0.12544
 C133 C 0.05746 1.09827 0.12748
 N134 N 0.47113 0.55450 -0.10841
 N135 N 0.45196 0.55695 -0.14546
 N136 N 0.52204 0.60115 -0.06639
 N137 N 0.54069 0.63624 -0.07303
 N138 N 0.52291 0.56284 -0.10869
 N139 N 0.54204 0.57069 -0.14523
 N140 N 0.46985 0.59305 -0.06645
 N141 N 0.44961 0.62285 -0.07378
 C142 C 0.43880 0.59966 -0.12334
 C143 C 0.55283 0.61652 -0.12260
 N144 N 0.52257 0.56142 0.10801
 N145 N 0.54166 0.56857 0.14456
 N146 N 0.46967 0.59227 0.06553
 N147 N 0.44963 0.62259 0.07343
 N148 N 0.47080 0.55314 0.10727
 N149 N 0.45172 0.55570 0.14474
 N150 N 0.52187 0.60024 0.06584
 N151 N 0.54060 0.63499 0.07258
 Mn152 Mn 0.49585 0.59756 -0.00037
 C153 C 0.55260 0.61452 0.12210
 C154 C 0.43875 0.59904 0.12306
 N155 N 0.52652 0.44493 -0.10907
 N156 N 0.54585 0.44402 -0.14580
 N157 N 0.47594 0.39721 -0.06697
 N158 N 0.45755 0.36158 -0.07401
 N159 N 0.47477 0.43636 -0.10870
 N160 N 0.45574 0.42853 -0.14530
 N161 N 0.52818 0.40624 -0.06692
 N162 N 0.54887 0.37788 -0.07388
 Mn163 Mn 0.49881 0.49965 -0.10929
 C164 C 0.55950 0.40207 -0.12353
 C165 C 0.44526 0.38188 -0.12317
 N166 N 0.47447 0.43494 0.10695
 N167 N 0.45534 0.42658 0.14335
 N168 N 0.52799 0.40540 0.06550
 N169 N 0.54867 0.37696 0.07253
 N170 N 0.52621 0.44354 0.10782
 N171 N 0.54543 0.44215 0.14474
 N172 N 0.47577 0.39633 0.06505
 N173 N 0.45740 0.36056 0.07176
 Mn174 Mn 0.49848 0.49824 0.10808
 Mn175 Mn 0.50204 0.40037 -0.00084
 Cl176 Cl 0.49879 0.49894 -0.00060
 C177 C 0.44497 0.38017 0.12091
 C178 C 0.55915 0.40050 0.12240
 C179 C 0.38399 0.31810 0.20798
 C180 C 0.38505 0.26635 0.23818
 C181 C 0.36643 0.25146 0.28127
 C182 C 0.34689 0.28848 0.29385
 C183 C 0.34494 0.33860 0.26063
 C184 C 0.36352 0.35337 0.21735
 C185 C 0.36134 0.40395 0.18510
 C186 C 0.34132 0.43886 0.19521
 C187 C 0.32326 0.42460 0.23791
 C188 C 0.32497 0.37512 0.27047
 C189 C 0.36814 0.19996 0.31186
 C190 C 0.38765 0.16410 0.30000
 C191 C 0.40586 0.17867 0.25781
 C192 C 0.40468 0.22921 0.22717
 C193 C 0.33021 0.27721 0.34456
 C194 C 0.31745 0.26860 0.38894
 C195 C 0.40514 0.33755 0.17283
 C196 C 0.42320 0.35559 0.14713
 H197 H 0.37499 0.41684 0.15160
 H198 H 0.33996 0.47745 0.17024
 H199 H 0.30786 0.45210 0.24598
 H200 H 0.31045 0.36569 0.30311
 H201 H 0.35438 0.18677 0.34495
 H202 H 0.38865 0.12479 0.32367
 H203 H 0.42098 0.15069 0.24873
 H204 H 0.41921 0.23868 0.19455
 C205 C -0.12100 0.82838 0.21122
 C206 C -0.14485 0.85182 0.20553
 C207 C -0.16379 0.83711 0.24793
 C208 C -0.15876 0.79894 0.29552
 C209 C -0.13546 0.77254 0.29845
 C210 C -0.11653 0.78726 0.25613
 C211 C -0.09328 0.76085 0.26050
 C212 C -0.08889 0.72091 0.30531
 C213 C -0.10739 0.70664 0.34681
 C214 C -0.13042 0.73209 0.34372
 C215 C -0.18734 0.86181 0.24215
 C216 C -0.19212 0.89970 0.19543
 C217 C -0.17366 0.91377 0.15369
 C218 C -0.15020 0.89046 0.15867
 C219 C -0.17653 0.79022 0.34459
 C220 C -0.18996 0.78384 0.38823
 C221 C -0.10051 0.84978 0.17496
 C222 C -0.08288 0.86863 0.14804
 H223 H -0.07834 0.77046 0.22911
 H224 H -0.07104 0.70091 0.30782
 H225 H -0.10389 0.67562 0.38157
 H226 H -0.14425 0.71945 0.37688
 H227 H -0.20231 0.85173 0.27332
 H228 H -0.21025 0.91819 0.19155
 H229 H -0.17747 0.94320 0.11748
 H230 H -0.13640 0.90268 0.12523
 C231 C 0.61469 0.66895 0.20902
 C232 C 0.63489 0.63223 0.21457
 C233 C 0.65371 0.64268 0.25842
 C234 C 0.65228 0.69002 0.29597
 C235 C 0.63311 0.72889 0.28701
 C236 C 0.61423 0.71827 0.24341
 C237 C 0.59497 0.75711 0.23602
 C238 C 0.59441 0.80525 0.27067
 C239 C 0.61287 0.81570 0.31335
 C240 C 0.63203 0.77808 0.32167
 C241 C 0.67341 0.60474 0.26429
 C242 C 0.67458 0.55798 0.22743
 C243 C 0.65625 0.54792 0.18427
 C244 C 0.63652 0.58439 0.17788
 C245 C 0.66925 0.69688 0.34680
 C246 C 0.68225 0.70294 0.39110
 C247 C 0.59314 0.65290 0.17369
 C248 C 0.57474 0.63713 0.14801
 H249 H 0.58029 0.75087 0.20311
 H250 H 0.57958 0.83462 0.26431
 H251 H 0.61236 0.85316 0.34014
 H252 H 0.64603 0.78812 0.35524
 H253 H 0.68812 0.61097 0.29714
 H254 H 0.68975 0.52928 0.23254
 H255 H 0.65718 0.51142 0.15596
 H256 H 0.62266 0.57485 0.14381
 C257 C 0.12197 1.12834 0.21795
 C258 C 0.12793 1.08769 0.26239
 C259 C 0.14783 1.09683 0.30357
 C260 C 0.16150 1.14676 0.30044
 C261 C 0.15651 1.18582 0.25368
 C262 C 0.13666 1.17658 0.21227
 C263 C 0.13174 1.21656 0.16652
 C264 C 0.14609 1.26434 0.16167
 C265 C 0.16553 1.27335 0.20212
 C266 C 0.17074 1.23470 0.24778
 C267 C 0.15330 1.05584 0.34796
 C268 C 0.13942 1.00730 0.35173
 C269 C 0.11985 0.99851 0.31174
 C270 C 0.11410 1.03805 0.26748
 C271 C 0.17883 1.16001 0.34897
 C272 C 0.19190 1.17055 0.39210
 C273 C 0.09981 1.12153 0.18125
 C274 C 0.08071 1.11305 0.15443
 H275 H 0.11686 1.21115 0.13396
 H276 H 0.14212 1.29451 0.12632
 H277 H 0.17664 1.31048 0.19809
 H278 H 0.18610 1.24329 0.27805
 H279 H 0.16842 1.06069 0.37990
 H280 H 0.14394 0.97625 0.38571
 H281 H 0.10920 0.96063 0.31461
 H282 H 0.09888 1.02895 0.23699
 C283 C 0.62421 0.37255 -0.21323
 C284 C 0.63803 0.32316 -0.21008
 C285 C 0.65763 0.31410 -0.25231
 C286 C 0.66323 0.35450 -0.29735
 C287 C 0.65051 0.40548 -0.29778
 C288 C 0.63088 0.41450 -0.25573
 C289 C 0.61799 0.46527 -0.25817
 C290 C 0.62434 0.50590 -0.30089
 C291 C 0.64368 0.49721 -0.34168
 C292 C 0.65666 0.44764 -0.34040
 C293 C 0.67098 0.26406 -0.24899
 C294 C 0.66515 0.22414 -0.20500
 C295 C 0.64596 0.23299 -0.16375
 C296 C 0.63245 0.28185 -0.16613
 C297 C 0.68018 0.34188 -0.34690
 C298 C 0.69302 0.33203 -0.39066
 C299 C 0.60202 0.37910 -0.17646
 C300 C 0.58286 0.38734 -0.14979
 H301 H 0.60301 0.47431 -0.22693
 H302 H 0.61435 0.54455 -0.30194
 H303 H 0.64869 0.52910 -0.37439
 H304 H 0.67161 0.44284 -0.37294
 H305 H 0.68612 0.25553 -0.27999
 H306 H 0.67560 0.18614 -0.20291
 H307 H 0.64151 0.20185 -0.12969
 H308 H 0.61772 0.28707 -0.13304
 C309 C 0.11588 0.83853 -0.21091
 C310 C 0.11552 0.78906 -0.24504
 C311 C 0.13454 0.77854 -0.28835
 C312 C 0.15372 0.81778 -0.29745
 C313 C 0.15504 0.86530 -0.26012
 C314 C 0.13612 0.87553 -0.21639
 C315 C 0.13770 0.92344 -0.17977
 C316 C 0.15743 0.96026 -0.18621
 C317 C 0.17584 0.95048 -0.22934
 C318 C 0.17473 0.90362 -0.26609
 C319 C 0.13362 0.72906 -0.32255
 C320 C 0.11446 0.69107 -0.31409
 C321 C 0.09582 0.70151 -0.27182
 C322 C 0.09622 0.74993 -0.23764
 C323 C 0.17077 0.81107 -0.34824
 C324 C 0.18379 0.80497 -0.39256
 C325 C 0.09425 0.85424 -0.17572
 C326 C 0.07576 0.86941 -0.15005
 H327 H 0.12376 0.93281 -0.14578
 H328 H 0.15831 0.99684 -0.15799
 H329 H 0.19101 0.97945 -0.23450
 H330 H 0.18949 0.89759 -0.29890
 H331 H 0.14774 0.71904 -0.35584
 H332 H 0.11408 0.65334 -0.34045
 H333 H 0.08097 0.67191 -0.26541
 H334 H 0.08140 0.75615 -0.20505
 C335 C 0.37555 0.64146 -0.21346
 C336 C 0.36423 0.69394 -0.21022
 C337 C 0.34506 0.70793 -0.25192
 C338 C 0.33734 0.66929 -0.29646
 C339 C 0.34760 0.61560 -0.29717
 C340 C 0.36681 0.60166 -0.25564
 C341 C 0.37722 0.54813 -0.25828
 C342 C 0.36892 0.50961 -0.30084
 C343 C 0.34997 0.52309 -0.34106
 C344 C 0.33940 0.57545 -0.33955
 C345 C 0.33430 0.76097 -0.24865
 C346 C 0.34225 0.79913 -0.20526
 C347 C 0.36095 0.78539 -0.16435
 C348 C 0.37194 0.73347 -0.16670
 C349 C 0.32073 0.68600 -0.34523
 C350 C 0.30817 0.69866 -0.38858
 C351 C 0.39734 0.62945 -0.17716
 C352 C 0.41606 0.61742 -0.15048
 H353 H 0.39178 0.53537 -0.22742
 H354 H 0.37708 0.46888 -0.30221
 H355 H 0.34340 0.49281 -0.37359
 H356 H 0.32472 0.58401 -0.37179
 H357 H 0.31959 0.77329 -0.27931
 H358 H 0.33385 0.83959 -0.20336
 H359 H 0.36699 0.81509 -0.13059
 H360 H 0.38642 0.72458 -0.13398
 C361 C -0.11585 1.18330 -0.20768
 C362 C -0.11479 1.23572 -0.23650
 C363 C -0.13334 1.25108 -0.27928
 C364 C -0.15278 1.21384 -0.29305
 C365 C -0.15476 1.16301 -0.26110
 C366 C -0.13626 1.14776 -0.21809
 C367 C -0.13845 1.09647 -0.18718
 C368 C -0.15842 1.06134 -0.19825
 C369 C -0.17642 1.07610 -0.24063
 C370 C -0.17468 1.12628 -0.27193
 C371 C -0.13167 1.30331 -0.30838
 C372 C -0.11223 1.33937 -0.29552
 C373 C -0.09408 1.32432 -0.25371
 C374 C -0.09524 1.27311 -0.22443
 C375 C -0.16927 1.22576 -0.34381
 C376 C -0.18180 1.23521 -0.38824
 C377 C -0.09481 1.16364 -0.17270
 C378 C -0.07687 1.14544 -0.14700
 H379 H -0.12486 1.08316 -0.15396
 H380 H -0.15981 1.02222 -0.17425
 H381 H -0.19178 1.04845 -0.24942
 H382 H -0.18916 1.13613 -0.30431
 H383 H -0.14541 1.31691 -0.34108
 H384 H -0.11126 1.37921 -0.31813
 H385 H -0.07901 1.35247 -0.24390
 H386 H -0.08076 1.26329 -0.19203
 C387 C 0.61481 0.67337 -0.20950
 C388 C 0.61387 0.72219 -0.24523
 C389 C 0.63276 0.73343 -0.28892
 C390 C 0.65244 0.69566 -0.29664
 C391 C 0.65439 0.64910 -0.25755
 C392 C 0.63553 0.63799 -0.21367
 C393 C 0.63767 0.59082 -0.17559
 C394 C 0.65794 0.55571 -0.18054
 C395 C 0.67634 0.56647 -0.22363
 C396 C 0.67465 0.61253 -0.26192
 C397 C 0.63121 0.78206 -0.32490
 C398 C 0.61159 0.81864 -0.31772
 C399 C 0.59310 0.80758 -0.27502
 C400 C 0.59410 0.75989 -0.23915
 C401 C 0.66931 0.70239 -0.34797
 C402 C 0.68223 0.70768 -0.39272
 C403 C 0.59331 0.65634 -0.17416
 C404 C 0.57493 0.63984 -0.14850
 H405 H 0.62380 0.58080 -0.14148
 H406 H 0.65930 0.51978 -0.15107
 H407 H 0.69197 0.53891 -0.22751
 H408 H 0.68943 0.61938 -0.29463
 H409 H 0.64520 0.79248 -0.35858
 H410 H 0.61074 0.85577 -0.34543
 H411 H 0.57790 0.83612 -0.26961
 H412 H 0.57936 0.75311 -0.20632
 C413 C 0.12323 1.13536 -0.20927
 C414 C 0.12851 1.09404 -0.25313
 C415 C 0.14803 1.10216 -0.29585
 C416 C 0.16193 1.15180 -0.29501
 C417 C 0.15758 1.19163 -0.24905
 C418 C 0.13814 1.18336 -0.20596
 C419 C 0.13384 1.22406 -0.16103
 C420 C 0.14842 1.27160 -0.15855
 C421 C 0.16744 1.27970 -0.20067
 C422 C 0.17202 1.24033 -0.24560
 C423 C 0.15287 1.06053 -0.33956
 C424 C 0.13865 1.01245 -0.34140
 C425 C 0.11936 1.00475 -0.30009
 C426 C 0.11432 1.04481 -0.25624
 C427 C 0.17883 1.16382 -0.34501
 C428 C 0.19161 1.17306 -0.38918
 C429 C 0.10134 1.12952 -0.17119
 C430 C 0.08227 1.12096 -0.14410
 H431 H 0.11926 1.21942 -0.12732
 H432 H 0.14493 1.30232 -0.12377
 H433 H 0.17871 1.31669 -0.19853
 H434 H 0.18706 1.24825 -0.27730
 H435 H 0.16773 1.06458 -0.37256
 H436 H 0.14269 0.98093 -0.37490
 H437 H 0.10841 0.96725 -0.30153
 H438 H 0.09929 1.03649 -0.22468
 C439 C 0.38488 0.31995 -0.21191
 C440 C 0.36377 0.35379 -0.21919
 C441 C 0.34526 0.33926 -0.26247
 C442 C 0.34792 0.29080 -0.29781
 C443 C 0.36817 0.25505 -0.28745
 C444 C 0.38673 0.26974 -0.24444
 C445 C 0.40708 0.23396 -0.23580
 C446 C 0.40901 0.18496 -0.26863
 C447 C 0.39083 0.17054 -0.31062
 C448 C 0.37060 0.20501 -0.32011
 C449 C 0.32463 0.37438 -0.27011
 C450 C 0.32223 0.42230 -0.23553
 C451 C 0.34026 0.43639 -0.19300
 C452 C 0.36089 0.40280 -0.18491
 C453 C 0.33113 0.27991 -0.34819
 C454 C 0.31827 0.27112 -0.39216
 C455 C 0.40577 0.33945 -0.17619
 C456 C 0.42365 0.35747 -0.14998
 H457 H 0.42161 0.24329 -0.20335
 H458 H 0.42466 0.15798 -0.26135
 H459 H 0.39239 0.13239 -0.33595
 H460 H 0.35686 0.19184 -0.35298
 H461 H 0.31013 0.36508 -0.30263
 H462 H 0.30634 0.44876 -0.24197
 H463 H 0.33841 0.47390 -0.16664
 H464 H 0.37450 0.41555 -0.15149
 C465 C -0.12278 0.85664 -0.22024
 C466 C -0.13352 0.80331 -0.21706
 C467 C -0.15268 0.78850 -0.25844
 C468 C -0.16096 0.82713 -0.30263
 C469 C -0.15121 0.88147 -0.30346
 C470 C -0.13199 0.89623 -0.26232
 C471 C -0.12206 0.95041 -0.26516
 C472 C -0.13089 0.98884 -0.30744
 C473 C -0.14986 0.97454 -0.34726
 C474 C -0.15995 0.92153 -0.34554
 C475 C -0.16289 0.73469 -0.25515
 C476 C -0.15443 0.69658 -0.21206
 C477 C -0.13569 0.71106 -0.17159
 C478 C -0.12526 0.76377 -0.17389
 C479 C -0.17768 0.80991 -0.35089
 C480 C -0.19039 0.79677 -0.39374
 C481 C -0.10122 0.86997 -0.18357
 C482 C -0.08277 0.88293 -0.15620
 H483 H -0.10747 0.96376 -0.23470
 H484 H -0.12312 1.03010 -0.30892
 H485 H -0.15680 1.00470 -0.37963
 H486 H -0.17472 0.91240 -0.37735
 H487 H -0.17757 0.72170 -0.28556
 H488 H -0.16246 0.65559 -0.21006
 H489 H -0.12918 0.68129 -0.13821
 H490 H -0.11077 0.77325 -0.14143
 C491 C 0.37599 0.64160 0.21512
 C492 C 0.36739 0.60172 0.25792
 C493 C 0.34814 0.61539 0.29945
 C494 C 0.33776 0.66896 0.29831
 C495 C 0.34545 0.70781 0.25348
 C496 C 0.36463 0.69406 0.21166
 C497 C 0.37229 0.73381 0.16782
 C498 C 0.36128 0.78572 0.16530
 C499 C 0.34253 0.79916 0.20621
 C500 C 0.33465 0.76083 0.24997
 C501 C 0.34001 0.57508 0.34227
 C502 C 0.35076 0.52290 0.34435
 C503 C 0.36976 0.50970 0.30414
 C504 C 0.37797 0.54837 0.26113
 C505 C 0.32104 0.68538 0.34692
 C506 C 0.30837 0.69795 0.39008
 C507 C 0.39764 0.62955 0.17816
 C508 C 0.41620 0.61726 0.15089
 H509 H 0.38677 0.72509 0.13500
 H510 H 0.36734 0.81567 0.13143
 H511 H 0.33402 0.83951 0.20403
 H512 H 0.31996 0.77303 0.28076
 H513 H 0.32524 0.58336 0.37442
 H514 H 0.34429 0.49255 0.37730
 H515 H 0.37802 0.46908 0.30586
 H516 H 0.39260 0.53585 0.23040
 C517 C -0.11522 1.18083 0.21619
 C518 C -0.13473 1.14402 0.23142
 C519 C -0.15321 1.16028 0.27394
 C520 C -0.15201 1.21314 0.30109
 C521 C -0.13338 1.25112 0.28303
 C522 C -0.11492 1.23492 0.24037
 C523 C -0.09622 1.27322 0.22377
 C524 C -0.09579 1.32613 0.24861
 C525 C -0.11383 1.34196 0.29038
 C526 C -0.13244 1.30503 0.30761
 C527 C -0.17231 1.12249 0.28927
 C528 C -0.17307 1.07000 0.26345
 C529 C -0.15493 1.05406 0.22203
 C530 C -0.13596 1.09046 0.20597
 C531 C -0.16841 1.22636 0.35157
 C532 C -0.18109 1.23603 0.39566
 C533 C -0.09440 1.16114 0.18047
 C534 C -0.07684 1.14245 0.15369
 H535 H -0.08186 1.26278 0.19128
 H536 H -0.08137 1.35497 0.23537
 H537 H -0.11341 1.38310 0.30953
 H538 H -0.14613 1.31924 0.34008
 H539 H -0.18687 1.13318 0.32111
 H540 H -0.18779 1.04156 0.27565
 H541 H -0.15553 1.01328 0.20223
 H542 H -0.12236 1.07623 0.17329
 C543 C 0.62344 0.37054 0.21349
 C544 C 0.63792 0.32214 0.20969
 C545 C 0.65751 0.31338 0.25202
 C546 C 0.66248 0.35314 0.29773
 C547 C 0.64899 0.40311 0.29907
 C548 C 0.62934 0.41175 0.25704
 C549 C 0.61567 0.46145 0.26044
 C550 C 0.62130 0.50143 0.30400
 C551 C 0.64066 0.49315 0.34474
 C552 C 0.65439 0.44464 0.34254
 C553 C 0.67150 0.26432 0.24802
 C554 C 0.66634 0.22505 0.20331
 C555 C 0.64718 0.23362 0.16194
 C556 C 0.63305 0.28155 0.16493
 C557 C 0.67970 0.34085 0.34689
 C558 C 0.69269 0.33141 0.39052
 C559 C 0.60145 0.37693 0.17604
 C560 C 0.58241 0.38537 0.14896
 H561 H 0.60064 0.47022 0.22928
 H562 H 0.61075 0.53930 0.30567
 H563 H 0.64513 0.52458 0.37807
 H564 H 0.66934 0.44019 0.37506
 H565 H 0.68664 0.25605 0.27907
 H566 H 0.67728 0.18779 0.20072
 H567 H 0.64327 0.20299 0.12730
 H568 H 0.61839 0.28660 0.13170
 C569 C 0.11538 0.83588 0.20656
 C570 C 0.11583 0.78564 0.23983
 C571 C 0.13488 0.77588 0.28322
 C572 C 0.15334 0.81651 0.29310
 C573 C 0.15390 0.86499 0.25664
 C574 C 0.13489 0.87461 0.21303
 C575 C 0.13562 0.92364 0.17754
 C576 C 0.15463 0.96208 0.18488
 C577 C 0.17315 0.95283 0.22779
 C578 C 0.17287 0.90490 0.26346
 C579 C 0.13468 0.72573 0.31683
 C580 C 0.11619 0.68638 0.30775
 C581 C 0.09754 0.69599 0.26531
 C582 C 0.09726 0.74501 0.23163
 C583 C 0.17035 0.81015 0.34399
 C584 C 0.18331 0.80428 0.38840
 C585 C 0.09355 0.85053 0.17157
 C586 C 0.07485 0.86501 0.14627
 H587 H 0.12158 0.93262 0.14368
 H588 H 0.15486 0.99948 0.15752
 H589 H 0.18775 0.98305 0.23366
 H590 H 0.18769 0.89935 0.29615
 H591 H 0.14884 0.71631 0.35020
 H592 H 0.11634 0.64823 0.33379
 H593 H 0.08321 0.66530 0.25841
 H594 H 0.08246 0.75056 0.19888
   
