data_POSCAR
  _audit_creation_date              2014-09-24
  _audit_creation_method            'ToBaCCo'
  _symmetry_space_group_name_H-M    'P1'
  _symmetry_Int_Tables_number       1
  _symmetry_cell_setting            triclinic
  loop_
  _symmetry_equiv_pos_as_xyz
 x,y,z
_cell_length_a 49.3116
_cell_length_b 48.7404
_cell_length_c 49.4652
_cell_angle_alpha 85.960400
_cell_angle_beta 93.153100
_cell_angle_gamma 95.148000
loop_
  _atom_site_label
  _atom_site_type_symbol
  _atom_site_fract_x
  _atom_site_fract_y
  _atom_site_fract_z
C1 C 0.27715 0.48128 0.99959
 C2 C 0.26568 0.50560 1.00450
 C3 C 0.28262 0.52894 1.01152
 C4 C 0.31119 0.52822 1.01429
 C5 C 0.32212 0.50301 1.01057
 C6 C 0.30544 0.47964 1.00275
 C7 C 0.23578 0.50643 1.00299
 C8 C 0.22239 0.51218 1.02602
 C9 C 0.19373 0.51258 1.02540
 C10 C 0.17919 0.50728 1.00063
 C11 C 0.19244 0.50287 0.97711
 C12 C 0.22078 0.50183 0.97860
 H13 H 0.26389 0.46363 0.99346
 H14 H 0.27319 0.54738 1.01549
 H15 H 0.23482 0.51688 1.04407
 H16 H 0.23134 0.49836 0.96067
 H17 H 0.34388 0.50168 1.01258
 H18 H 0.15717 0.50539 0.99941
 C19 C 0.71559 0.47390 -0.01282
 C20 C 0.73323 0.49764 -0.00877
 C21 C 0.72249 0.52278 -0.00528
 C22 C 0.69417 0.52442 -0.00600
 C23 C 0.67678 0.50031 -0.00935
 C24 C 0.68721 0.47496 -0.01288
 C25 C 0.76299 0.49617 -0.00810
 C26 C 0.77562 0.48963 -0.03125
 C27 C 0.80411 0.48805 -0.03097
 C28 C 0.81938 0.49280 -0.00644
 C29 C 0.80688 0.49937 0.01685
 C30 C 0.77865 0.50117 0.01577
 H31 H 0.72407 0.45463 -0.01577
 H32 H 0.73624 0.54115 -0.00278
 H33 H 0.76283 0.48514 -0.04916
 H34 H 0.76877 0.50644 0.03352
 H35 H 0.65497 0.50119 -0.00857
 H36 H 0.84130 0.49236 -0.00537
 C37 C 0.03040 0.22704 0.48788
 C38 C 0.00590 0.23762 0.49328
 C39 C -0.01761 0.21970 0.49709
 C40 C -0.01692 0.19110 0.49556
 C41 C 0.00793 0.18070 0.49066
 C42 C 0.03169 0.19846 0.48676
 C43 C 0.00479 0.26751 0.49516
 C44 C 0.00726 0.28556 0.47191
 C45 C 0.00562 0.31428 0.47317
 C46 C 0.00203 0.32406 0.49892
 C47 C 0.00064 0.30624 0.52249
 C48 C 0.00149 0.27785 0.52032
 H49 H 0.04841 0.24110 0.48472
 H50 H -0.03655 0.22824 0.50063
 H51 H 0.01111 0.27677 0.45318
 H52 H 0.00044 0.26379 0.53828
 H53 H 0.00896 0.15860 0.49064
 H54 H -0.00091 0.34549 0.50098
 C55 C 1.01997 0.78024 0.50053
 C56 C 0.99659 0.76213 0.50469
 C57 C 0.97240 0.77234 0.51148
 C58 C 0.97115 0.80069 0.51351
 C59 C 0.99459 0.81868 0.50910
 C60 C 1.01959 0.80892 0.50308
 C61 C 0.99722 0.73235 0.50155
 C62 C 0.99392 0.71335 0.52405
 C63 C 0.99346 0.68452 0.52142
 C64 C 0.99559 0.67590 0.49490
 C65 C 1.00012 0.69481 0.47252
 C66 C 1.00083 0.72307 0.47600
 H67 H 1.03853 0.77134 0.49650
 H68 H 0.95449 0.75818 0.51483
 H69 H 0.99274 0.72186 0.54345
 H70 H 1.00406 0.73791 0.45886
 H71 H 0.99254 0.84058 0.50889
 H72 H 0.99291 0.65440 0.49073
 C73 C 0.49974 0.01709 0.22476
 C74 C 0.50747 -0.00617 0.24070
 C75 C 0.51701 -0.02820 0.22823
 C76 C 0.51893 -0.02713 0.19996
 C77 C 0.51184 -0.00337 0.18438
 C78 C 0.50210 0.01886 0.19647
 C79 C 0.50562 -0.00743 0.27048
 C80 C 0.48078 -0.00417 0.28193
 C81 C 0.47884 -0.00557 0.31024
 C82 C 0.50234 -0.00959 0.32695
 C83 C 0.52739 -0.01270 0.31580
 C84 C 0.52877 -0.01184 0.28747
 H85 H 0.49198 0.03380 0.23450
 H86 H 0.52270 -0.04625 0.24056
 H87 H 0.46284 -0.00133 0.26873
 H88 H 0.54791 -0.01442 0.27857
 H89 H 0.51367 -0.00237 0.16263
 H90 H 0.50131 -0.00954 0.34877
 C91 C 0.48646 0.02772 0.77651
 C92 C 0.49373 0.00446 0.76445
 C93 C 0.49787 -0.01988 0.78049
 C94 C 0.49430 -0.02147 0.80874
 C95 C 0.48766 0.00258 0.82039
 C96 C 0.48373 0.02709 0.80458
 C97 C 0.49682 0.00578 0.73488
 C98 C 0.52207 0.00207 0.72452
 C99 C 0.52554 0.00518 0.69645
 C100 C 0.50342 0.01248 0.67912
 C101 C 0.47728 0.01359 0.68881
 C102 C 0.47441 0.01082 0.71704
 H103 H 0.48321 0.04639 0.76397
 H104 H 0.50239 -0.03778 0.77037
 H105 H 0.53884 -0.00328 0.73839
 H106 H 0.45471 0.01170 0.72541
 H107 H 0.48706 0.00301 0.84218
 H108 H 0.50663 0.01697 0.65777
 C109 C 0.29284 0.03947 0.44656
 H110 H 0.29531 0.05561 0.46065
 C111 C 0.31211 0.03830 0.42711
 H112 H 0.32940 0.05363 0.42655
 C113 C 0.26846 -0.00139 0.43196
 H114 H 0.25196 -0.01735 0.43449
 C115 C 0.28713 -0.00324 0.41206
 H116 H 0.28428 -0.02029 0.39901
 N117 N 0.27183 0.01955 0.44893
 C118 C 0.21571 0.05330 0.50011
 H119 H 0.21622 0.03779 0.51685
 C120 C 0.19824 0.07422 0.50020
 H121 H 0.18524 0.07452 0.51709
 C122 C 0.23083 0.07032 0.45694
 H123 H 0.24314 0.06823 0.43990
 C124 C 0.21351 0.09163 0.45614
 H125 H 0.21298 0.10617 0.43857
 Zn126 Zn 0.25049 0.01970 0.47953
 N127 N 0.23134 0.05157 0.47864
 C128 C 0.28220 0.04143 0.52390
 N129 N 0.27504 0.01841 0.51027
 C130 C 0.28726 -0.00524 0.51660
 C131 C 0.30666 -0.00679 0.53810
 C132 C 0.30248 0.04119 0.54480
 C133 C 0.20470 -0.01166 0.45962
 C134 C 0.18331 -0.03246 0.45947
 C135 C 0.20113 -0.05105 0.50273
 C136 C 0.22198 -0.02968 0.50222
 N137 N 0.22363 -0.01073 0.48067
 H138 H 0.27298 0.06036 0.51785
 H139 H 0.28192 -0.02301 0.50485
 H140 H 0.31491 -0.02640 0.54319
 H141 H 0.30860 0.06027 0.55422
 H142 H 0.20610 0.00402 0.44303
 H143 H 0.16838 -0.03287 0.44257
 H144 H 0.19988 -0.06573 0.52019
 H145 H 0.23628 -0.02794 0.51943
 C146 C 0.19665 0.09354 0.47784
 C147 C 0.30974 0.01639 0.40988
 C148 C 0.18139 -0.05249 0.48124
 C149 C 0.31517 0.01681 0.55229
 C150 C 0.72856 0.00311 0.56808
 H151 H 0.74016 0.02198 0.56129
 C152 C 0.70980 0.00366 0.58818
 H153 H 0.70724 0.02323 0.59631
 C154 C 0.71569 -0.04428 0.56305
 H155 H 0.71723 -0.06262 0.55234
 C156 C 0.69757 -0.04496 0.58380
 H157 H 0.68636 -0.06441 0.58947
 N158 N 0.73086 -0.02055 0.55573
 C159 C 0.77487 0.03121 0.50028
 H160 H 0.75921 0.02847 0.48433
 C161 C 0.79487 0.05331 0.49778
 H162 H 0.79386 0.06775 0.48018
 C163 C 0.79558 0.01538 0.54215
 H164 H 0.79597 0.00010 0.55910
 C165 C 0.81612 0.03699 0.54036
 H166 H 0.83235 0.03798 0.55600
 Zn167 Zn 0.75157 -0.01969 0.52460
 N168 N 0.77570 0.01271 0.52215
 C169 C 0.70926 -0.00001 0.49136
 N170 N 0.72626 -0.02060 0.49438
 C171 C 0.72400 -0.04149 0.47732
 C172 C 0.70426 -0.04190 0.45591
 C173 C 0.68935 0.00045 0.47022
 C174 C 0.77594 -0.06771 0.54789
 C175 C 0.79383 -0.08842 0.54835
 C176 C 0.80723 -0.07119 0.50364
 C177 C 0.78903 -0.05093 0.50399
 N178 N 0.77366 -0.04966 0.52577
 H179 H 0.71111 0.01602 0.50557
 H180 H 0.73721 -0.05806 0.48045
 H181 H 0.70286 -0.05857 0.44241
 H182 H 0.67583 0.01686 0.46840
 H183 H 0.76448 -0.06573 0.56551
 H184 H 0.79523 -0.10267 0.56607
 H185 H 0.81970 -0.07134 0.48632
 H186 H 0.78743 -0.03581 0.48701
 C187 C 0.81619 0.05616 0.51775
 C188 C 0.69357 -0.02055 0.59613
 C189 C 0.80989 -0.09028 0.52606
 C190 C 0.68664 -0.02070 0.45214
 C191 C 0.44854 0.20932 1.03041
 H192 H 0.42961 0.21272 1.01906
 C193 C 0.44872 0.18993 1.05257
 H194 H 0.42959 0.17917 1.05849
 C195 C 0.49632 0.21931 1.03604
 H196 H 0.51491 0.23028 1.02897
 C197 C 0.49755 0.19962 1.05790
 H198 H 0.51729 0.19569 1.06725
 N199 N 0.47209 0.22360 1.02266
 C200 C 0.43556 0.28273 0.96439
 H201 H 0.44566 0.27888 0.94634
 C202 C 0.41648 0.30233 0.96295
 H203 H 0.41133 0.31239 0.94338
 C204 C 0.43091 0.27471 1.01171
 H205 H 0.43745 0.26471 1.03086
 C206 C 0.41236 0.29478 1.01136
 H207 H 0.40495 0.29977 1.03044
 Zn208 Zn 0.47155 0.24645 0.99018
 N209 N 0.44213 0.26909 0.98844
 C210 C 0.44755 0.21953 0.94365
 N211 N 0.46956 0.22257 0.96137
 C212 C 0.49099 0.20704 0.96035
 C213 C 0.49130 0.18820 0.94045
 C214 C 0.44702 0.20090 0.92334
 C215 C 0.50721 0.28856 1.00937
 C216 C 0.52867 0.30924 1.00911
 C217 C 0.54272 0.29293 0.96747
 C218 C 0.52075 0.27268 0.96837
 N219 N 0.50349 0.27097 0.98910
 H220 H 0.43015 0.23111 0.94546
 H221 H 0.50788 0.20925 0.97517
 H222 H 0.50847 0.17584 0.94030
 H223 H 0.42949 0.19900 0.90922
 H224 H 0.49305 0.28687 1.02547
 H225 H 0.53110 0.32329 1.02526
 H226 H 0.55591 0.29452 0.95054
 H227 H 0.51707 0.25897 0.95208
 C228 C 0.40501 0.30919 0.98675
 C229 C 0.47356 0.18432 1.06635
 C230 C 0.54655 0.31180 0.98780
 C231 C 0.46917 0.18499 0.92150
 C232 C 0.50269 0.77282 -0.03487
 H233 H 0.48700 0.75626 -0.03132
 C234 C 0.49973 0.79151 -0.05733
 H235 H 0.48204 0.78862 -0.07112
 C236 C 0.54418 0.79728 -0.02085
 H237 H 0.56114 0.79970 -0.00613
 C238 C 0.54196 0.81653 -0.04298
 H239 H 0.55727 0.83382 -0.04500
 N240 N 0.52464 0.77603 -0.01713
 C241 C 0.47948 0.72708 0.03916
 H242 H 0.48358 0.74177 0.05455
 C243 C 0.45712 0.70739 0.04117
 H244 H 0.44391 0.70727 0.05796
 C245 C 0.49194 0.70879 -0.00110
 H246 H 0.50592 0.70925 -0.01726
 C247 C 0.46965 0.68907 -0.00010
 H248 H 0.46657 0.67428 -0.01556
 Zn249 Zn 0.52733 0.75310 0.01535
 N250 N 0.49620 0.72755 0.01811
 C251 C 0.51036 0.79489 0.04342
 N252 N 0.52976 0.77670 0.04422
 C253 C 0.55052 0.77721 0.06353
 C254 C 0.55240 0.79692 0.08298
 C255 C 0.51160 0.81501 0.06221
 C256 C 0.57511 0.73525 -0.00503
 C257 C 0.59510 0.71691 -0.00648
 C258 C 0.57968 0.69307 0.03509
 C259 C 0.56018 0.71204 0.03589
 N260 N 0.55792 0.73227 0.01574
 H261 H 0.49422 0.79411 0.02771
 H262 H 0.56593 0.76278 0.06352
 H263 H 0.56929 0.79754 0.09793
 H264 H 0.49610 0.82949 0.06106
 H265 H 0.57276 0.75120 -0.02107
 H266 H 0.60834 0.71946 -0.02339
 H267 H 0.58010 0.67627 0.05060
 H268 H 0.54592 0.70985 0.05192
 C269 C 0.45193 0.68822 0.02124
 C270 C 0.51929 0.81399 -0.06140
 C271 C 0.59711 0.69497 0.01335
 C272 C 0.53300 0.81643 0.08210
 C273 C 1.05059 0.50380 0.21745
 H274 H 1.04393 0.48433 0.22788
 C275 C 1.07074 0.50467 0.19859
 H276 H 1.07920 0.48564 0.19485
 C277 C 1.04518 0.55127 0.20753
 H278 H 1.03437 0.56912 0.21036
 C279 C 1.06576 0.55327 0.18904
 H280 H 1.07117 0.57311 0.17863
 N281 N 1.03838 0.52694 0.22170
 C282 C 0.98583 0.47695 0.27460
 H283 H 0.96677 0.48158 0.26415
 C284 C 0.98610 0.45564 0.29504
 H285 H 0.96703 0.44417 0.30008
 C286 C 1.03322 0.48815 0.28233
 H287 H 1.05139 0.50140 0.27769
 C288 C 1.03456 0.46668 0.30242
 H289 H 1.05411 0.46321 0.31247
 Zn290 Zn 1.00845 0.52434 0.24440
 N291 N 1.00917 0.49275 0.26877
 C292 C 0.97247 0.49915 0.20664
 N293 N 0.97674 0.52194 0.22115
 C294 C 0.96027 0.54296 0.21724
 C295 C 0.93855 0.54156 0.19785
 C296 C 0.95097 0.49686 0.18717
 C297 C 1.03123 0.57351 0.26867
 C298 C 1.03158 0.59416 0.28694
 C299 C 0.98673 0.57577 0.30004
 C300 C 0.98720 0.55559 0.28149
 N301 N 1.00915 0.55483 0.26619
 H302 H 0.98621 0.48300 0.20983
 H303 H 0.96443 0.56119 0.22852
 H304 H 0.92577 0.55857 0.19480
 H305 H 0.94841 0.47887 0.17532
 H306 H 1.04900 0.57192 0.25727
 H307 H 1.04936 0.60877 0.28868
 H308 H 0.96937 0.57537 0.31257
 H309 H 0.97026 0.54000 0.27970
 C310 C 1.01069 0.45035 0.30949
 C311 C 1.07864 0.52965 0.18396
 C312 C 1.00923 0.59531 0.30314
 C313 C 0.93385 0.51839 0.18233
 C314 C -0.06043 0.44979 0.77638
 H315 H -0.05814 0.43177 0.76545
 C316 C -0.08119 0.44925 0.79463
 H317 H -0.09508 0.43087 0.79732
 C318 C -0.04452 0.49530 0.78706
 H319 H -0.02970 0.51291 0.78441
 C320 C -0.06507 0.49574 0.80525
 H321 H -0.06587 0.51380 0.81665
 N322 N -0.04255 0.47257 0.77312
 C323 C 0.00755 0.42432 0.73427
 H324 H 0.02414 0.42770 0.74919
 C325 C 0.00833 0.40368 0.71616
 H326 H 0.02530 0.39093 0.71779
 C327 C -0.03394 0.43769 0.71311
 H328 H -0.04988 0.45169 0.71155
 C329 C -0.03391 0.41745 0.69454
 H330 H -0.04991 0.41618 0.67868
 Zn331 Zn -0.01205 0.47318 0.75155
 N332 N -0.01316 0.44111 0.73210
 C333 C 0.02155 0.45632 0.79587
 N334 N 0.01938 0.47628 0.77543
 C335 C 0.03816 0.49845 0.77333
 C336 C 0.06041 0.50089 0.79194
 C337 C 0.04328 0.45816 0.81520
 C338 C -0.03390 0.51781 0.71978
 C339 C -0.03404 0.53832 0.69853
 C340 C 0.01159 0.52881 0.68913
 C341 C 0.01041 0.50784 0.70978
 N342 N -0.01181 0.50314 0.72503
 H343 H 0.00603 0.43921 0.79744
 H344 H 0.03573 0.51468 0.75765
 H345 H 0.07521 0.51856 0.78957
 H346 H 0.04403 0.44246 0.83177
 H347 H -0.05182 0.51301 0.73144
 H348 H -0.05235 0.54880 0.69416
 H349 H 0.03016 0.53269 0.67832
 H350 H 0.02739 0.49530 0.71381
 C351 C -0.01220 0.40055 0.69545
 C352 C -0.08355 0.47239 0.80947
 C353 C -0.01101 0.54421 0.68278
 C354 C 0.06305 0.48078 0.81350
 C355 C 0.10695 0.16230 0.47694
 C356 C 0.08263 0.15238 0.46334
 C357 C 0.05842 0.16458 0.46595
 C358 C 0.05788 0.18695 0.48229
 C359 C 0.08235 0.19745 0.49522
 C360 C 0.10660 0.18526 0.49257
 C361 C 0.13200 0.14755 0.47621
 C362 C 0.14848 0.14315 0.49994
 C363 C 0.17026 0.12667 0.50014
 C364 C 0.17605 0.11411 0.47663
 C365 C 0.16039 0.11956 0.45256
 C366 C 0.13861 0.13610 0.45235
 H367 H 0.04000 0.15626 0.45541
 H368 H 0.08259 0.21454 0.50810
 H369 H 0.18218 0.12318 0.51891
 H370 H 0.16418 0.11005 0.43415
 H371 H 0.12504 0.19360 0.50306
 H372 H 0.14386 0.15146 0.51873
 H373 H 0.08208 0.13454 0.45139
 H374 H 0.12656 0.13943 0.43363
 C375 C 0.65887 0.60131 0.00114
 C376 C 0.64765 0.58238 -0.01746
 C377 C 0.65935 0.55773 -0.01992
 C378 C 0.68249 0.55119 -0.00372
 C379 C 0.69397 0.57021 0.01470
 C380 C 0.68225 0.59500 0.01713
 C381 C 0.64555 0.62705 0.00418
 C382 C 0.64297 0.63671 0.02996
 C383 C 0.62814 0.65940 0.03292
 C384 C 0.61547 0.67288 0.01018
 C385 C 0.61896 0.66380 -0.01567
 C386 C 0.63390 0.64129 -0.01863
 H387 H 0.65024 0.54374 -0.03460
 H388 H 0.71169 0.56569 0.02759
 H389 H 0.62620 0.66608 0.05309
 H390 H 0.60926 0.67339 -0.03363
 H391 H 0.69153 0.60925 0.03148
 H392 H 0.65157 0.62614 0.04798
 H393 H 0.62942 0.58634 -0.02980
 H394 H 0.63590 0.63471 -0.03882
 C395 C 0.89719 -0.16197 0.52541
 C396 C 0.89670 -0.18465 0.50924
 C397 C 0.92048 -0.19749 0.50612
 C398 C 0.94524 -0.18793 0.51912
 C399 C 0.94544 -0.16609 0.53623
 C400 C 0.92174 -0.15321 0.53928
 C401 C 0.87286 -0.14620 0.52640
 C402 C 0.86694 -0.13467 0.55044
 C403 C 0.84598 -0.11719 0.55053
 C404 C 0.83036 -0.11095 0.52662
 C405 C 0.83550 -0.12346 0.50288
 C406 C 0.85654 -0.14082 0.50275
 H407 H 0.91971 -0.21420 0.49271
 H408 H 0.96413 -0.15852 0.54683
 H409 H 0.84274 -0.10776 0.56912
 H410 H 0.82354 -0.11945 0.48423
 H411 H 0.92296 -0.13565 0.55165
 H412 H 0.87887 -0.13872 0.56909
 H413 H 0.87802 -0.19214 0.49859
 H414 H 0.86068 -0.14913 0.48382
 C415 C 0.34280 0.40467 0.99065
 C416 C 0.35590 0.43077 0.98332
 C417 C 0.34344 0.45485 0.98646
 C418 C 0.31779 0.45371 0.99779
 C419 C 0.30447 0.42766 1.00484
 C420 C 0.31669 0.40346 1.00109
 C421 C 0.35682 0.37910 0.98821
 C422 C 0.35273 0.35613 1.00687
 C423 C 0.36744 0.33304 1.00572
 C424 C 0.38719 0.33249 0.98630
 C425 C 0.39074 0.35520 0.96723
 C426 C 0.37551 0.37792 0.96793
 H427 H 0.35409 0.47441 0.98007
 H428 H 0.28480 0.42589 1.01381
 H429 H 0.36353 0.31579 1.02038
 H430 H 0.40591 0.35602 0.95216
 H431 H 0.30565 0.38383 1.00651
 H432 H 0.33875 0.35620 1.02297
 H433 H 0.37617 0.43281 0.97567
 H434 H 0.37879 0.39476 0.95268
 C435 C 0.91007 0.13595 0.50479
 C436 C 0.91508 0.15893 0.52058
 C437 C 0.93876 0.17675 0.51770
 C438 C 0.95793 0.17212 0.49886
 C439 C 0.95284 0.14921 0.48301
 C440 C 0.92930 0.13130 0.48602
 C441 C 0.88510 0.11667 0.50801
 C442 C 0.87178 0.10453 0.48539
 C443 C 0.84920 0.08533 0.48851
 C444 C 0.83915 0.07793 0.51432
 C445 C 0.85203 0.09062 0.53687
 C446 C 0.87477 0.10968 0.53377
 H447 H 0.94217 0.19401 0.53047
 H448 H 0.96695 0.14521 0.46803
 H449 H 0.84008 0.07575 0.47071
 H450 H 0.84463 0.08572 0.55699
 H451 H 0.92636 0.11359 0.47382
 H452 H 0.87887 0.10977 0.46519
 H453 H 0.90059 0.16332 0.53502
 H454 H 0.88464 0.11842 0.55167
 C455 C 0.36568 0.59989 0.02475
 C456 C 0.33960 0.60218 0.01246
 C457 C 0.32119 0.57882 0.01014
 C458 C 0.32860 0.55232 0.01952
 C459 C 0.35453 0.55053 0.03289
 C460 C 0.37269 0.57397 0.03555
 C461 C 0.38624 0.62400 0.02467
 C462 C 0.40274 0.62968 0.04803
 C463 C 0.42358 0.65113 0.04717
 C464 C 0.42853 0.66698 0.02283
 C465 C 0.41168 0.66165 -0.00036
 C466 C 0.39063 0.64048 0.00060
 H467 H 0.30189 0.58158 -0.00076
 H468 H 0.36091 0.53108 0.04176
 H469 H 0.43639 0.65476 0.06527
 H470 H 0.41498 0.67372 -0.01931
 H471 H 0.39267 0.57166 0.04524
 H472 H 0.39968 0.61731 0.06685
 H473 H 0.33367 0.62202 0.00410
 H474 H 0.37838 0.63636 -0.01775
 C475 C 0.08966 -0.13419 0.49173
 C476 C 0.06841 -0.12772 0.50710
 C477 C 0.04577 -0.14652 0.51119
 C478 C 0.04331 -0.17242 0.49959
 C479 C 0.06520 -0.17886 0.48446
 C480 C 0.08806 -0.16004 0.48073
 C481 C 0.11335 -0.11380 0.48736
 C482 C 0.14006 -0.12143 0.49222
 C483 C 0.16227 -0.10157 0.48993
 C484 C 0.15812 -0.07388 0.48230
 C485 C 0.13144 -0.06646 0.47667
 C486 C 0.10926 -0.08620 0.47934
 H487 H 0.03078 -0.14074 0.52438
 H488 H 0.06450 -0.19784 0.47431
 H489 H 0.18269 -0.10779 0.49423
 H490 H 0.12769 -0.04522 0.47097
 H491 H 0.10421 -0.16539 0.46861
 H492 H 0.14368 -0.14257 0.49855
 H493 H 0.06954 -0.10816 0.51642
 H494 H 0.08884 -0.07988 0.47532
 C495 C 0.62999 0.40308 0.98215
 C496 C 0.65546 0.40109 0.99599
 C497 C 0.67439 0.42421 0.99703
 C498 C 0.66829 0.44971 0.98407
 C499 C 0.64325 0.45125 0.96923
 C500 C 0.62428 0.42825 0.96841
 C501 C 0.60881 0.37951 0.98321
 C502 C 0.58202 0.38384 0.98900
 C503 C 0.56195 0.36179 0.99059
 C504 C 0.56815 0.33496 0.98617
 C505 C 0.59487 0.33058 0.98011
 C506 C 0.61511 0.35266 0.97888
 H507 H 0.69336 0.42237 1.00885
 H508 H 0.63817 0.47038 0.95847
 H509 H 0.54145 0.36578 0.99501
 H510 H 0.60016 0.31005 0.97672
 H511 H 0.60498 0.43019 0.95720
 H512 H 0.57668 0.40428 0.99270
 H513 H 0.66027 0.38195 1.00691
 H514 H 0.63560 0.34882 0.97428
 C515 C 0.48376 0.09127 1.14543
 C516 C 0.47788 0.06462 1.13623
 C517 C 0.48295 0.04126 1.15307
 C518 C 0.49467 0.04380 1.17944
 C519 C 0.50009 0.07038 1.18890
 C520 C 0.49453 0.09380 1.17218
 C521 C 0.47966 0.11613 1.12675
 C522 C 0.49756 0.14021 1.12820
 C523 C 0.49495 0.16269 1.10933
 C524 C 0.47472 0.16155 1.08812
 C525 C 0.45639 0.13774 1.08715
 C526 C 0.45863 0.11553 1.10635
 H527 H 0.47786 0.02116 1.14524
 H528 H 0.50929 0.07321 1.20899
 H529 H 0.50910 0.18083 1.11121
 H530 H 0.44074 0.13572 1.07104
 H531 H 0.49887 0.11389 1.18023
 H532 H 0.51419 0.14148 1.14339
 H533 H 0.46999 0.06166 1.11570
 H534 H 0.44401 0.09770 1.10488
 C535 C -0.01058 0.62570 0.59043
 C536 C -0.00453 0.61792 0.56482
 C537 C -0.00291 0.63707 0.54257
 C538 C -0.00857 0.66487 0.54442
 C539 C -0.01566 0.67223 0.57019
 C540 C -0.01621 0.65317 0.59274
 C541 C -0.01055 0.60526 0.61446
 C542 C -0.02711 0.60734 0.63640
 C543 C -0.02691 0.58800 0.65872
 C544 C -0.01078 0.56550 0.65942
 C545 C 0.00553 0.56336 0.63732
 C546 C 0.00609 0.58317 0.61558
 H547 H 0.00380 0.62946 0.52436
 H548 H -0.02127 0.69254 0.57355
 H549 H -0.03941 0.59090 0.67541
 H550 H 0.01780 0.54618 0.63640
 H551 H -0.02076 0.66027 0.61209
 H552 H -0.04054 0.62371 0.63636
 H553 H -0.00081 0.59687 0.56170
 H554 H 0.01981 0.58102 0.59969
 C555 C 0.50364 0.90486 -0.14093
 C556 C 0.51718 0.90955 -0.16527
 C557 C 0.51392 0.93350 -0.18208
 C558 C 0.49723 0.95369 -0.17483
 C559 C 0.48347 0.94842 -0.15043
 C560 C 0.48668 0.92452 -0.13382
 C561 C 0.50744 0.87996 -0.12249
 C562 C 0.48520 0.86626 -0.10909
 C563 C 0.48900 0.84445 -0.08982
 C564 C 0.51514 0.83568 -0.08354
 C565 C 0.53727 0.84876 -0.09762
 C566 C 0.53346 0.87066 -0.11692
 H567 H 0.52558 0.93650 -0.20010
 H568 H 0.46934 0.96224 -0.14424
 H569 H 0.47155 0.83509 -0.07918
 H570 H 0.55760 0.84227 -0.09348
 H571 H 0.47606 0.92162 -0.11510
 H572 H 0.46484 0.87269 -0.11322
 H573 H 0.53033 0.89468 -0.17132
 H574 H 0.55101 0.88091 -0.12680
 C575 C 1.01001 0.37010 0.40236
 C576 C 1.00327 0.34173 0.40004
 C577 C 1.00182 0.32342 0.42311
 C578 C 1.00742 0.33276 0.44947
 C579 C 1.01470 0.36133 0.45141
 C580 C 1.01563 0.37959 0.42839
 C581 C 1.01095 0.38987 0.37792
 C582 C 1.02963 0.41344 0.37729
 C583 C 1.02956 0.43285 0.35516
 C584 C 1.01125 0.42900 0.33264
 C585 C 0.99308 0.40502 0.33289
 C586 C 0.99278 0.38583 0.35532
 H587 H 0.99525 0.30211 0.41986
 H588 H 1.02061 0.37003 0.47056
 H589 H 1.04357 0.45120 0.35611
 H590 H 0.97897 0.40102 0.31580
 H591 H 1.02060 0.40132 0.43116
 H592 H 1.04435 0.41705 0.39397
 H593 H 0.99908 0.33353 0.38032
 H594 H 0.97788 0.36813 0.35510
 C595 C 0.53571 0.90419 0.15532
 C596 C 0.54789 0.93080 0.14862
 C597 C 0.54359 0.95285 0.16395
 C598 C 0.52690 0.94884 0.18628
 C599 C 0.51598 0.92194 0.19390
 C600 C 0.52037 0.89982 0.17859
 C601 C 0.53695 0.88176 0.13675
 C602 C 0.53258 0.88725 0.10867
 C603 C 0.53172 0.86606 0.09103
 C604 C 0.53536 0.83888 0.10101
 C605 C 0.54048 0.83341 0.12901
 C606 C 0.54105 0.85465 0.14677
 H607 H 0.55279 0.97323 0.15793
 H608 H 0.50284 0.91822 0.21085
 H609 H 0.52805 0.87090 0.06950
 H610 H 0.54328 0.81260 0.13720
 H611 H 0.51056 0.87958 0.18411
 H612 H 0.52901 0.90785 0.10037
 H613 H 0.56022 0.93466 0.13107
 H614 H 0.54457 0.84988 0.16833
 C615 C -0.00365 0.33997 0.60033
 C616 C -0.01937 0.31543 0.59430
 C617 C -0.01798 0.30432 0.56911
 C618 C -0.00096 0.31761 0.54941
 C619 C 0.01484 0.34202 0.55556
 C620 C 0.01347 0.35308 0.58065
 C621 C -0.00555 0.35255 0.62660
 C622 C 0.01784 0.36532 0.63957
 C623 C 0.01578 0.37988 0.66258
 C624 C -0.00973 0.38191 0.67332
 C625 C -0.03296 0.36796 0.66115
 C626 C -0.03090 0.35345 0.63804
 H627 H -0.03052 0.28557 0.56490
 H628 H 0.02845 0.35254 0.54098
 H629 H 0.03407 0.39058 0.67120
 H630 H -0.05286 0.36880 0.66913
 H631 H 0.02551 0.37223 0.58444
 H632 H 0.03773 0.36459 0.63154
 H633 H -0.03263 0.30476 0.60910
 H634 H -0.04932 0.34392 0.62848
 C635 C 0.47122 0.09892 0.84686
 C636 C 0.45721 0.07324 0.85392
 C637 C 0.46048 0.05020 0.83955
 C638 C 0.47795 0.05223 0.81784
 C639 C 0.49112 0.07813 0.81007
 C640 C 0.48778 0.10122 0.82440
 C641 C 0.46995 0.12260 0.86399
 C642 C 0.49363 0.13976 0.87009
 C643 C 0.49315 0.16048 0.88813
 C644 C 0.46902 0.16450 0.90061
 C645 C 0.44511 0.14795 0.89385
 C646 C 0.44557 0.12725 0.87573
 H647 H 0.44974 0.03061 0.84577
 H648 H 0.50484 0.08035 0.79354
 H649 H 0.51182 0.17316 0.89257
 H650 H 0.42622 0.15037 0.90324
 H651 H 0.49854 0.12080 0.81819
 H652 H 0.51282 0.13658 0.86167
 H653 H 0.44450 0.07064 0.87124
 H654 H 0.42690 0.11462 0.87119
 C655 C 1.00922 0.66179 0.39533
 C656 C 0.99353 0.68430 0.39698
 C657 C 0.99108 0.69561 0.42189
 C658 C 1.00415 0.68453 0.44561
 C659 C 1.02048 0.66262 0.44376
 C660 C 1.02293 0.65136 0.41897
 C661 C 1.01008 0.64795 0.36961
 C662 C 1.03417 0.63742 0.36258
 C663 C 1.03414 0.62122 0.34038
 C664 C 1.01002 0.61529 0.32459
 C665 C 0.98627 0.62705 0.33076
 C666 C 0.98628 0.64316 0.35305
 H667 H 0.97830 0.71245 0.42274
 H668 H 1.03110 0.65392 0.46165
 H669 H 1.05275 0.61236 0.33637
 H670 H 0.96747 0.62324 0.31873
 H671 H 1.03487 0.63382 0.41853
 H672 H 1.05295 0.64111 0.37469
 H673 H 0.98293 0.69296 0.37907
 H674 H 0.96734 0.65082 0.35799
 C675 C 1.15028 0.52635 0.09507
 C676 C 1.13882 0.53102 0.06874
 C677 C 1.15335 0.52735 0.04608
 C678 C 1.17975 0.51798 0.04873
 C679 C 1.19138 0.51387 0.07535
 C680 C 1.17693 0.51813 0.09806
 C681 C 1.13392 0.52908 0.11907
 C682 C 1.13666 0.51143 0.14264
 C683 C 1.11955 0.51239 0.16412
 C684 C 1.09880 0.53059 0.16240
 C685 C 1.09667 0.54880 0.13916
 C686 C 1.11421 0.54833 0.11804
 H687 H 1.14362 0.53260 0.02653
 H688 H 1.21119 0.50615 0.07916
 H689 H 1.12238 0.49850 0.18189
 H690 H 1.08087 0.56293 0.13671
 H691 H 1.18666 0.51470 0.11801
 H692 H 1.15141 0.49618 0.14423
 H693 H 1.11827 0.53710 0.06540
 H694 H 1.11190 0.56281 0.10063
 C695 C 0.60023 -0.01048 0.66045
 C696 C 0.57460 -0.01682 0.64742
 C697 C 0.55071 -0.01235 0.65950
 C698 C 0.55151 -0.00044 0.68463
 C699 C 0.57707 0.00589 0.69788
 C700 C 0.60115 0.00078 0.68599
 C701 C 0.62555 -0.01495 0.64674
 C702 C 0.64939 0.00294 0.64971
 C703 C 0.67198 0.00031 0.63440
 C704 C 0.67110 -0.01982 0.61518
 C705 C 0.64757 -0.03833 0.61313
 C706 C 0.62546 -0.03627 0.62901
 H707 H 0.53149 -0.01828 0.64894
 H708 H 0.57853 0.01517 0.71720
 H709 H 0.68988 0.01451 0.63734
 H710 H 0.64549 -0.05393 0.59850
 H711 H 0.62044 0.00564 0.69686
 H712 H 0.65036 0.01966 0.66311
 H713 H 0.57280 -0.02486 0.62750
 H714 H 0.60795 -0.05112 0.62677
 C715 C -0.15471 0.47486 0.89809
 C716 C -0.17983 0.48644 0.89590
 C717 C -0.19380 0.49003 0.91908
 C718 C -0.18280 0.48252 0.94530
 C719 C -0.15786 0.47012 0.94711
 C720 C -0.14413 0.46632 0.92389
 C721 C -0.13875 0.47302 0.87380
 C722 C -0.12512 0.44945 0.87051
 C723 C -0.10802 0.44882 0.84897
 C724 C -0.10403 0.47184 0.83042
 C725 C -0.11837 0.49505 0.83321
 C726 C -0.13563 0.49560 0.85461
 H727 H -0.21243 0.50023 0.91623
 H728 H -0.14895 0.46267 0.96640
 H729 H -0.09708 0.43074 0.84744
 H730 H -0.11585 0.51299 0.81907
 H731 H -0.12477 0.45731 0.92623
 H732 H -0.12735 0.43166 0.88487
 H733 H -0.18853 0.49310 0.87620
 H734 H -0.14570 0.51412 0.85675
 C735 C 0.40292 0.00256 0.34720
 C736 C 0.42071 -0.01685 0.35801
 C737 C 0.44507 -0.01965 0.34580
 C738 C 0.45241 -0.00301 0.32254
 C739 C 0.43452 0.01621 0.31149
 C740 C 0.41004 0.01898 0.32370
 C741 C 0.37750 0.00604 0.36100
 C742 C 0.36894 0.03245 0.36352
 C743 C 0.34637 0.03580 0.37854
 C744 C 0.33188 0.01282 0.39147
 C745 C 0.33991 -0.01365 0.38812
 C746 C 0.36235 -0.01700 0.37301
 H747 H 0.45818 -0.03494 0.35460
 H748 H 0.43967 0.02949 0.29370
 H749 H 0.34052 0.05645 0.38039
 H750 H 0.32950 -0.03181 0.39801
 H751 H 0.39668 0.03394 0.31471
 H752 H 0.38024 0.05065 0.35469
 H753 H 0.41610 -0.02955 0.37630
 H754 H 0.36809 -0.03767 0.37108
 C755 C 0.14321 0.49453 0.90283
 C756 C 0.13849 0.51425 0.92104
 C757 C 0.15488 0.51720 0.94466
 C758 C 0.17625 0.50027 0.95103
 C759 C 0.18139 0.48080 0.93269
 C760 C 0.16499 0.47794 0.90882
 C761 C 0.12475 0.49099 0.87828
 C762 C 0.11643 0.46458 0.86953
 C763 C 0.09701 0.46126 0.84803
 C764 C 0.08532 0.48425 0.83491
 C765 C 0.09433 0.51069 0.84318
 C766 C 0.11392 0.51402 0.86439
 H767 H 0.15068 0.53274 0.95810
 H768 H 0.19766 0.46741 0.93708
 H769 H 0.09093 0.44062 0.84191
 H770 H 0.08564 0.52889 0.83388
 H771 H 0.16934 0.46274 0.89509
 H772 H 0.12421 0.44637 0.87987
 H773 H 0.12167 0.52708 0.91739
 H774 H 0.12024 0.53471 0.87023
 C775 C 0.59830 -0.01990 0.36994
 C776 C 0.59996 -0.00333 0.34555
 C777 C 0.57713 -0.00149 0.32766
 C778 C 0.55211 -0.01610 0.33384
 C779 C 0.55062 -0.03315 0.35793
 C780 C 0.57346 -0.03506 0.37576
 C781 C 0.62198 -0.02050 0.38982
 C782 C 0.62821 -0.04529 0.40410
 C783 C 0.64956 -0.04548 0.42392
 C784 C 0.66506 -0.02085 0.42997
 C785 C 0.65917 0.00384 0.41531
 C786 C 0.63790 0.00401 0.39544
 H787 H 0.57885 0.01198 0.30936
 H788 H 0.53170 -0.04489 0.36308
 H789 H 0.65346 -0.06480 0.43501
 H790 H 0.67094 0.02309 0.41930
 H791 H 0.57145 -0.04781 0.39449
 H792 H 0.61648 -0.06455 0.40003
 H793 H 0.61889 0.00837 0.34037
 H794 H 0.63345 0.02349 0.38500
 C795 C 0.85639 0.51140 0.09030
 C796 C 0.86486 0.52383 0.06532
 C797 C 0.84860 0.52030 0.04158
 C798 C 0.82347 0.50429 0.04229
 C799 C 0.81467 0.49237 0.06735
 C800 C 0.83100 0.49582 0.09110
 C801 C 0.87455 0.51380 0.11515
 C802 C 0.87794 0.49063 0.13319
 C803 C 0.89663 0.49230 0.15542
 C804 C 0.91229 0.51720 0.16016
 C805 C 0.90826 0.54060 0.14262
 C806 C 0.88963 0.53890 0.12033
 H807 H 0.85575 0.53002 0.02262
 H808 H 0.79545 0.47980 0.06847
 H809 H 0.89909 0.47400 0.16875
 H810 H 0.92018 0.56001 0.14557
 H811 H 0.82381 0.48620 0.11010
 H812 H 0.86679 0.47095 0.12962
 H813 H 0.88443 0.53572 0.06398
 H814 H 0.88723 0.55718 0.10696
 C815 C 0.40693 0.01679 0.63219
 C816 C 0.40626 0.02677 0.65818
 C817 C 0.42917 0.02663 0.67628
 C818 C 0.45315 0.01573 0.66923
 C819 C 0.45360 0.00570 0.64327
 C820 C 0.43125 0.00689 0.62491
 C821 C 0.38259 0.01628 0.61269
 C822 C 0.37904 -0.00336 0.59298
 C823 C 0.35757 -0.00294 0.57348
 C824 C 0.33790 0.01626 0.57370
 C825 C 0.34072 0.03518 0.59418
 C826 C 0.36295 0.03548 0.61308
 H827 H 0.42789 0.03501 0.69579
 H828 H 0.47104 -0.00371 0.63695
 H829 H 0.35696 -0.01756 0.55798
 H830 H 0.32587 0.04994 0.59574
 H831 H 0.43329 -0.00015 0.60493
 H832 H 0.39291 -0.01924 0.59231
 H833 H 0.38797 0.03434 0.66487
 H834 H 0.36484 0.05115 0.62766
   
