data_POSCAR
  _audit_creation_date              2014-09-24
  _audit_creation_method            'ToBaCCo'
  _symmetry_space_group_name_H-M    'P1'
  _symmetry_Int_Tables_number       1
  _symmetry_cell_setting            triclinic
  loop_
  _symmetry_equiv_pos_as_xyz
 x,y,z
_cell_length_a 30.9110
_cell_length_b 30.9293
_cell_length_c 45.1316
_cell_angle_alpha 90.006300
_cell_angle_beta 89.995000
_cell_angle_gamma 89.998500
loop_
  _atom_site_label
  _atom_site_type_symbol
  _atom_site_fract_x
  _atom_site_fract_y
  _atom_site_fract_z
B1 B 0.27065 0.23533 0.27960
 B2 B 0.21930 0.22352 0.27208
 B3 B 0.23386 0.27459 0.27797
 B4 B 0.28357 0.28295 0.26370
 B5 B 0.29933 0.23485 0.24817
 B6 B 0.25910 0.19769 0.25383
 B7 B 0.22653 0.26248 0.21967
 B8 B 0.27787 0.27434 0.22722
 B9 B 0.26330 0.22327 0.22134
 B10 B 0.21359 0.21489 0.23560
 B11 B 0.19781 0.26301 0.25111
 B12 B 0.23805 0.30018 0.24544
 B13 B 0.73701 0.77579 0.22071
 B14 B 0.72228 0.72474 0.22644
 B15 B 0.77367 0.73649 0.21901
 B16 B 0.78669 0.78397 0.23507
 B17 B 0.74116 0.80121 0.25327
 B18 B 0.70085 0.76419 0.24746
 B19 B 0.76609 0.72413 0.27727
 B20 B 0.78082 0.77518 0.27152
 B21 B 0.72941 0.76349 0.27893
 B22 B 0.71641 0.71597 0.26290
 B23 B 0.76196 0.69870 0.24468
 B24 B 0.80227 0.73574 0.25049
 B25 B 0.73731 0.22404 -0.22078
 B26 B 0.72255 0.27506 -0.22659
 B27 B 0.77395 0.26336 -0.21913
 B28 B 0.78700 0.21584 -0.23510
 B29 B 0.74150 0.19850 -0.25329
 B30 B 0.70117 0.23553 -0.24756
 B31 B 0.76642 0.27551 -0.27741
 B32 B 0.78117 0.22449 -0.27157
 B33 B 0.72976 0.23613 -0.27902
 B34 B 0.71672 0.28369 -0.26307
 B35 B 0.76223 0.30106 -0.24486
 B36 B 0.80257 0.26402 -0.25060
 B37 B 0.27042 0.76479 -0.27925
 B38 B 0.21911 0.77669 -0.27166
 B39 B 0.23357 0.72559 -0.27755
 B40 B 0.28332 0.71716 -0.26334
 B41 B 0.29919 0.76526 -0.24786
 B42 B 0.25900 0.80249 -0.25349
 B43 B 0.22643 0.73779 -0.21925
 B44 B 0.27772 0.72584 -0.22685
 B45 B 0.26325 0.77694 -0.22099
 B46 B 0.21352 0.78537 -0.23518
 B47 B 0.19762 0.73726 -0.25064
 B48 B 0.23781 0.70004 -0.24500
 B49 B 1.23096 1.26505 0.77906
 B50 B 1.28265 1.27406 0.77086
 B51 B 1.26559 1.22391 0.77721
 B52 B 1.21519 1.21800 0.76357
 B53 B 1.20159 1.26668 0.74796
 B54 B 1.24383 1.30175 0.75295
 B55 B 1.27213 1.23496 0.71877
 B56 B 1.22045 1.22590 0.72700
 B57 B 1.23752 1.27606 0.72067
 B58 B 1.28791 1.28197 0.73430
 B59 B 1.30153 1.23328 0.74988
 B60 B 1.25929 1.19820 0.74488
 B61 B 0.76913 0.73405 0.77972
 B62 B 0.71732 0.72535 0.77165
 B63 B 0.73474 0.77541 0.77791
 B64 B 0.78511 0.78096 0.76414
 B65 B 0.79832 0.73216 0.74856
 B66 B 0.75589 0.69736 0.75368
 B67 B 0.72785 0.76426 0.71951
 B68 B 0.77962 0.77300 0.72760
 B69 B 0.76220 0.72295 0.72136
 B70 B 0.71185 0.71738 0.73511
 B71 B 0.69861 0.76620 0.75067
 B72 B 0.74105 0.80100 0.74554
 B73 B 1.23784 0.72385 0.27922
 B74 B 1.22036 0.77387 0.27294
 B75 B 1.27210 0.76521 0.28121
 B76 B 1.28831 0.71838 0.26564
 B77 B 1.24443 0.69828 0.24692
 B78 B 1.20190 0.73300 0.25191
 B79 B 1.26561 0.77637 0.22278
 B80 B 1.28307 0.72634 0.22909
 B81 B 1.23132 0.73494 0.22084
 B82 B 1.21513 0.78182 0.23638
 B83 B 1.25902 0.80194 0.25513
 B84 B 1.30156 0.76722 0.25013
 B85 B 0.76901 1.26633 0.22056
 B86 B 0.71724 1.27499 0.22873
 B87 B 0.73464 1.22496 0.22235
 B88 B 0.78505 1.21936 0.23602
 B89 B 0.79831 1.26810 0.25168
 B90 B 0.75585 1.30292 0.24668
 B91 B 0.72794 1.23588 0.28079
 B92 B 0.77969 1.22718 0.27259
 B93 B 0.76228 1.27720 0.27895
 B94 B 0.71187 1.28282 0.26530
 B95 B 0.69860 1.23406 0.24966
 B96 B 0.74106 1.19924 0.25466
 O97 O 0.47562 1.07434 0.03638
 O98 O 0.52453 0.92656 0.03659
 O99 O 0.42580 0.97930 0.03725
 O100 O 0.57435 1.02165 0.03723
 O101 O 0.45135 0.91891 0.02242
 O102 O 0.54880 1.08193 0.02220
 O103 O 0.58346 0.94931 0.01875
 O104 O 0.41672 1.05150 0.01854
 C105 C 0.43623 1.07016 0.03888
 C106 C 0.56392 0.93064 0.03907
 C107 C 0.43104 0.94025 0.04140
 C108 C 0.56910 1.06074 0.04124
 O109 O 0.52449 1.07417 -0.03644
 O110 O 0.47575 0.92632 -0.03625
 O111 O 0.42585 1.02133 -0.03717
 O112 O 0.57442 0.97910 -0.03707
 O113 O 0.54891 0.91880 -0.02204
 O114 O 0.45129 1.08174 -0.02230
 O115 O 0.58342 1.05145 -0.01858
 O116 O 0.41680 0.94910 -0.01846
 Co117 Co 0.50005 1.07064 -0.00003
 Co118 Co 0.50012 0.93006 0.00017
 Co119 Co 0.42921 1.00031 0.00004
 Co120 Co 0.57098 1.00038 0.00008
 O121 O 0.50009 1.00035 0.00006
 C122 C 0.56389 1.07008 -0.03892
 C123 C 0.43636 0.93043 -0.03877
 C124 C 0.43106 1.06039 -0.04130
 C125 C 0.56922 0.94000 -0.04108
 O126 O 0.95042 0.58217 0.52160
 O127 O 1.04939 0.41852 0.52153
 O128 O 0.91702 0.44947 0.51937
 O129 O 1.08277 0.55121 0.51941
 O130 O 0.97629 0.42623 0.53663
 O131 O 1.02351 0.57439 0.53671
 O132 O 1.07410 0.47874 0.53704
 O133 O 0.92570 0.52192 0.53705
 C134 C 0.93037 0.56110 0.54078
 C135 C 1.06943 0.43957 0.54073
 C136 C 0.93695 0.43063 0.53949
 C137 C 1.06285 0.56994 0.53958
 O138 O 1.04905 0.58241 0.47857
 O139 O 0.95080 0.41832 0.47850
 O140 O 0.91682 0.55087 0.48074
 O141 O 1.08303 0.44987 0.48070
 O142 O 1.02386 0.42643 0.46341
 O143 O 0.97600 0.57436 0.46347
 O144 O 1.07401 0.52229 0.46308
 O145 O 0.92580 0.47846 0.46306
 Co146 Co 0.99976 0.57080 0.50009
 Co147 Co 1.00007 0.42991 0.50002
 Co148 Co 0.92917 0.50020 0.50005
 Co149 Co 1.07065 0.50051 0.50006
 O150 O 0.99991 0.50036 0.50006
 C151 C 1.06919 0.56145 0.45938
 C152 C 0.93064 0.43931 0.45933
 C153 C 0.93668 0.56973 0.46059
 C154 C 1.06319 0.43100 0.46055
 O155 O 1.02905 0.44939 0.05705
 O156 O 1.02961 0.55046 -0.05680
 O157 O 1.03276 0.41788 -0.03351
 O158 O 1.03272 0.58196 0.03377
 O159 O 1.05559 0.47788 -0.05065
 O160 O 1.05527 0.52190 0.05098
 O161 O 1.05484 0.57407 -0.01630
 O162 O 1.05452 0.42572 0.01664
 C163 C 1.05763 0.42891 0.04374
 C164 C 1.05813 0.57089 -0.04340
 C165 C 1.06027 0.43844 -0.04803
 C166 C 1.06011 0.56132 0.04834
 O167 O 0.97303 0.55063 0.05693
 O168 O 0.97331 0.44938 -0.05688
 O169 O 0.96949 0.41802 0.03370
 O170 O 0.96997 0.58199 -0.03366
 O171 O 0.94730 0.52196 -0.05085
 O172 O 0.94687 0.47812 0.05082
 O173 O 0.94782 0.57421 0.01642
 O174 O 0.94775 0.42585 -0.01646
 Co175 Co 1.00108 0.50001 0.04846
 Co176 Co 1.00144 0.49993 -0.04831
 Co177 Co 1.00114 0.42955 0.00009
 Co178 Co 1.00133 0.57038 0.00006
 O179 O 1.00125 0.49997 0.00008
 C180 C 0.94448 0.57100 0.04351
 C181 C 0.94464 0.42904 -0.04356
 C182 C 0.94204 0.43870 0.04821
 C183 C 0.94255 0.56139 -0.04823
 O184 O 0.53029 0.94996 0.55666
 O185 O 0.53041 1.04959 0.44345
 O186 O 0.53104 0.91707 0.46607
 O187 O 0.53124 1.08247 0.53405
 O188 O 0.55480 0.97678 0.44936
 O189 O 0.55483 1.02272 0.55079
 O190 O 0.55487 1.07403 0.48406
 O191 O 0.55469 0.92545 0.51604
 C192 C 0.55860 0.92936 0.54309
 C193 C 0.55876 1.07013 0.45701
 C194 C 0.55884 0.93727 0.45165
 C195 C 0.55899 1.06221 0.54847
 O196 O 0.47163 1.04996 0.55655
 O197 O 0.47153 0.94972 0.44358
 O198 O 0.47070 0.91733 0.53424
 O199 O 0.47089 1.08234 0.46588
 O200 O 0.44715 1.02255 0.44931
 O201 O 0.44708 0.97717 0.55084
 O202 O 0.44725 1.07425 0.51588
 O203 O 0.44706 0.92553 0.48426
 Co204 Co 0.50096 0.99993 0.54834
 Co205 Co 0.50097 0.99968 0.45180
 Co206 Co 0.50088 0.92919 0.50014
 Co207 Co 0.50106 1.07042 0.49998
 O208 O 0.50098 0.99981 0.50007
 C209 C 0.44329 1.07042 0.54293
 C210 C 0.44312 0.92936 0.45721
 C211 C 0.44290 0.93766 0.54857
 C212 C 0.44304 1.06205 0.45158
 O213 O 1.07291 1.05187 0.48164
 O214 O 0.92495 1.05240 0.51820
 O215 O 0.98004 1.05469 0.44918
 O216 O 1.01773 1.05472 0.55075
 O217 O 0.91887 1.03583 0.46776
 O218 O 1.07878 1.03544 0.53215
 O219 O 0.94637 1.02324 0.55747
 O220 O 1.05117 1.02278 0.44241
 C221 C 1.07000 1.05312 0.45452
 C222 C 0.92788 1.05375 0.54532
 C223 C 0.94096 1.06163 0.45249
 C224 C 1.05686 1.06135 0.54746
 O225 O 1.07254 0.94717 0.51844
 O226 O 0.92470 0.94752 0.48163
 O227 O 1.01758 0.94467 0.44922
 O228 O 0.97957 0.94491 0.55072
 O229 O 0.91855 0.96411 0.53207
 O230 O 1.07868 0.96356 0.46793
 O231 O 1.05082 0.97641 0.55763
 O232 O 0.94644 0.97655 0.44240
 Co233 Co 1.06869 0.99953 0.50003
 Co234 Co 0.92879 0.99994 0.49992
 Co235 Co 0.99879 0.99968 0.45143
 Co236 Co 0.99862 0.99981 0.54851
 O237 O 0.99872 0.99974 0.49997
 C238 C 1.06957 0.94598 0.54556
 C239 C 0.92773 0.94614 0.45452
 C240 C 1.05666 0.93777 0.45259
 C241 C 0.94047 0.93818 0.54736
 O242 O 0.57883 0.53530 -0.03237
 O243 O 0.41894 0.53579 0.03236
 O244 O 0.44639 0.52330 -0.05746
 O245 O 0.55136 0.52331 0.05746
 O246 O 0.42488 0.55240 -0.01815
 O247 O 0.57298 0.55213 0.01810
 O248 O 0.48015 0.55487 0.05074
 O249 O 0.51772 0.55459 -0.05081
 C250 C 0.55685 0.56124 -0.04760
 C251 C 0.44104 0.56165 0.04758
 C252 C 0.42776 0.55373 -0.04528
 C253 C 0.57015 0.55359 0.04522
 O254 O 0.57897 0.46398 0.03211
 O255 O 0.41850 0.46421 -0.03201
 O256 O 0.55076 0.47611 -0.05763
 O257 O 0.44678 0.47659 0.05769
 O258 O 0.42481 0.44758 0.01848
 O259 O 0.57257 0.44718 -0.01835
 O260 O 0.51793 0.44498 0.05078
 O261 O 0.47948 0.44486 -0.05062
 Co262 Co 0.56879 0.49966 -0.00012
 Co263 Co 0.42883 0.49998 0.00016
 Co264 Co 0.49861 0.49972 -0.04849
 Co265 Co 0.49903 0.49992 0.04854
 O266 O 0.49882 0.49982 0.00002
 C267 C 0.55701 0.43818 0.04747
 C268 C 0.44037 0.43826 -0.04732
 C269 C 0.56955 0.44577 -0.04547
 C270 C 0.42795 0.44622 0.04559
 C271 C 0.35766 1.10552 0.13591
 C272 C 0.36855 1.14887 0.15133
 C273 C 0.32087 1.16233 0.14846
 C274 C 0.30960 1.11929 0.13339
 C275 C 0.36666 1.12686 0.10580
 C276 C 0.31897 1.14034 0.10288
 C277 C 0.37789 1.16994 0.12089
 C278 C 0.32985 1.18375 0.11838
 C279 C 0.29710 1.18235 0.17289
 C280 C 0.28006 1.19958 0.19375
 C281 C 0.39227 1.10683 0.08221
 C282 C 0.41287 1.09016 0.06264
 H283 H 0.36945 1.07318 0.14288
 H284 H 0.38863 1.15261 0.17156
 H285 H 0.28122 1.09875 0.13878
 H286 H 0.29891 1.13663 0.08264
 H287 H 0.40624 1.19055 0.11555
 H288 H 0.31804 1.21613 0.11148
 C289 C 0.84602 0.59888 0.63468
 C290 C 0.86188 0.63757 0.65353
 C291 C 0.81781 0.65956 0.64893
 C292 C 0.80158 0.62121 0.63045
 C293 C 0.86274 0.62190 0.60679
 C294 C 0.81868 0.64392 0.60214
 C295 C 0.87893 0.66029 0.62529
 C296 C 0.83452 0.68265 0.62106
 C297 C 0.79457 0.68064 0.67312
 C298 C 0.77807 0.69861 0.69386
 C299 C 0.88777 0.60052 0.58352
 C300 C 0.90780 0.58262 0.56422
 H301 H 0.85114 0.56423 0.64005
 H302 H 0.87933 0.63519 0.67497
 H303 H 0.76950 0.60547 0.63283
 H304 H 0.80128 0.64632 0.58069
 H305 H 0.91098 0.67613 0.62295
 H306 H 0.82938 0.71733 0.61578
 C307 C 0.61562 0.86079 0.13623
 C308 C 0.63915 0.81673 0.13387
 C309 C 0.67945 0.83722 0.14806
 C310 C 0.65625 0.88096 0.15077
 C311 C 0.63353 0.87315 0.10565
 C312 C 0.67384 0.89361 0.11982
 C313 C 0.65671 0.82936 0.10291
 C314 C 0.69742 0.84949 0.11749
 C315 C 0.70330 0.81700 0.17236
 C316 C 0.72035 0.79964 0.19316
 C317 C 0.60789 0.89349 0.08220
 C318 C 0.58728 0.91041 0.06274
 H319 H 0.58174 0.86561 0.14369
 H320 H 0.62529 0.78479 0.13989
 H321 H 0.65643 0.90200 0.17070
 H322 H 0.68776 0.92551 0.11380
 H323 H 0.65650 0.80826 0.08300
 H324 H 0.73132 0.84460 0.11009
 C325 C 1.12784 0.33250 0.61811
 C326 C 1.17695 0.32261 0.61680
 C327 C 1.18168 0.33995 0.64851
 C328 C 1.13294 0.34945 0.65019
 C329 C 1.13694 0.37833 0.60659
 C330 C 1.14169 0.39557 0.63833
 C331 C 1.18568 0.36881 0.60487
 C332 C 1.19079 0.38575 0.63701
 C333 C 1.20488 0.31851 0.67257
 C334 C 1.22142 0.30036 0.69322
 C335 C 1.11198 0.39997 0.58341
 C336 C 1.09198 0.41799 0.56415
 H337 H 1.10164 0.31088 0.61013
 H338 H 1.19179 0.29237 0.60829
 H339 H 1.11156 0.34118 0.66912
 H340 H 1.12683 0.42574 0.64693
 H341 H 1.20703 0.37706 0.58591
 H342 H 1.21699 0.40733 0.64502
 C343 C 0.67531 1.10790 -0.11848
 C344 C 0.65848 1.11806 -0.15005
 C345 C 0.67960 1.16292 -0.14805
 C346 C 0.69681 1.15314 -0.11687
 C347 C 0.63356 1.12727 -0.10560
 C348 C 0.65465 1.17218 -0.10358
 C349 C 0.61641 1.13714 -0.13680
 C350 C 0.63786 1.18231 -0.13516
 C351 C 0.70352 1.18300 -0.17238
 C352 C 0.72061 1.20028 -0.19320
 C353 C 0.60787 1.10707 -0.08211
 C354 C 0.58724 1.09024 -0.06262
 H355 H 0.69037 1.07701 -0.11136
 H356 H 0.66044 1.09600 -0.16940
 H357 H 0.73014 1.15995 -0.10898
 H358 H 0.65268 1.19431 -0.08425
 H359 H 0.58310 1.13040 -0.14475
 H360 H 0.62286 1.21324 -0.14226
 C361 C 1.17256 0.60027 0.37537
 C362 C 1.15321 0.62023 0.34684
 C363 C 1.18185 0.66026 0.35144
 C364 C 1.20158 0.64068 0.37960
 C365 C 1.13680 0.62249 0.39347
 C366 C 1.16542 0.66256 0.39811
 C367 C 1.11714 0.64214 0.36529
 C368 C 1.14611 0.68251 0.36953
 C369 C 1.20521 0.68142 0.32733
 C370 C 1.22181 0.69945 0.30666
 C371 C 1.11173 0.60104 0.41669
 C372 C 1.09171 0.58308 0.43596
 H373 H 1.18306 0.56616 0.37802
 H374 H 1.14857 0.60304 0.32548
 H375 H 1.23656 0.64036 0.38517
 H376 H 1.17003 0.67980 0.41945
 H377 H 1.08218 0.64254 0.35966
 H378 H 1.13567 0.71663 0.36682
 C379 C 0.32798 0.89495 -0.12078
 C380 C 0.34611 0.88059 -0.15123
 C381 C 0.32113 0.83787 -0.14824
 C382 C 0.30261 0.85186 -0.11817
 C383 C 0.36695 0.87342 -0.10564
 C384 C 0.34200 0.83066 -0.10263
 C385 C 0.38541 0.85935 -0.13572
 C386 C 0.36009 0.81633 -0.13309
 C387 C 0.29727 0.81785 -0.17262
 C388 C 0.28014 0.80063 -0.19344
 C389 C 0.39253 0.89355 -0.08207
 C390 C 0.41307 0.91032 -0.06251
 H391 H 0.31512 0.92756 -0.11547
 H392 H 0.34744 0.90092 -0.17147
 H393 H 0.26830 0.84855 -0.11127
 H394 H 0.34068 0.81026 -0.08241
 H395 H 0.41969 0.86260 -0.14269
 H396 H 0.37291 0.78370 -0.13842
 C397 C 0.86927 0.38668 0.36016
 C398 C 0.86748 0.33734 0.35460
 C399 C 0.81809 0.34050 0.35133
 C400 C 0.81954 0.38953 0.35653
 C401 C 0.86308 0.37824 0.39341
 C402 C 0.81368 0.38139 0.39017
 C403 C 0.86165 0.32917 0.38821
 C404 C 0.81187 0.33195 0.38456
 C405 C 0.79480 0.31940 0.32718
 C406 C 0.77824 0.30146 0.30646
 C407 C 0.88811 0.39970 0.41664
 C408 C 0.90812 0.41768 0.43591
 H409 H 0.89319 0.40933 0.35038
 H410 H 0.88927 0.31887 0.33968
 H411 H 0.80186 0.41406 0.34327
 H412 H 0.79188 0.39981 0.40511
 H413 H 0.87931 0.30457 0.40142
 H414 H 0.78794 0.30922 0.39425
 C415 C 1.13996 0.30862 0.09996
 C416 C 1.18752 0.31475 0.11032
 C417 C 1.17174 0.31515 0.14262
 C418 C 1.12470 0.30867 0.13267
 C419 C 1.13458 0.35803 0.09912
 C420 C 1.11908 0.35828 0.13150
 C421 C 1.18167 0.36460 0.10905
 C422 C 1.16635 0.36453 0.14172
 C423 C 1.19101 0.29326 0.16820
 C424 C 1.20634 0.27775 0.19032
 C425 C 1.11091 0.38294 0.07672
 C426 C 1.08830 0.40394 0.06038
 H427 H 1.12895 0.28590 0.08248
 H428 H 1.21595 0.29651 0.10197
 H429 H 1.10145 0.28549 0.14262
 H430 H 1.09075 0.37648 0.14007
 H431 H 1.20493 0.38780 0.09912
 H432 H 1.17735 0.38731 0.15918
 C433 C 0.63562 0.87399 0.63118
 C434 C 0.62590 0.82673 0.64000
 C435 C 0.67472 0.81817 0.64220
 C436 C 0.68473 0.86523 0.63364
 C437 C 0.63713 0.86020 0.59846
 C438 C 0.68604 0.85175 0.60054
 C439 C 0.62718 0.81312 0.60703
 C440 C 0.67646 0.80419 0.60954
 C441 C 0.69392 0.79642 0.66788
 C442 C 0.70883 0.78064 0.69005
 C443 C 0.61305 0.88452 0.57594
 C444 C 0.58995 0.90499 0.55959
 H445 H 0.61869 0.90298 0.63992
 H446 H 0.60131 0.81626 0.65643
 H447 H 0.70865 0.88640 0.64489
 H448 H 0.71060 0.86229 0.58411
 H449 H 0.60331 0.79188 0.59581
 H450 H 0.69349 0.77516 0.60098
 C451 C 1.18005 0.66318 -0.09659
 C452 C 1.19125 0.64433 -0.12754
 C453 C 1.17214 0.68501 -0.14209
 C454 C 1.16136 0.70436 -0.11162
 C455 C 1.13520 0.64191 -0.09861
 C456 C 1.11621 0.68263 -0.11320
 C457 C 1.14614 0.62275 -0.12913
 C458 C 1.12738 0.66367 -0.14396
 C459 C 1.19118 0.70703 -0.16769
 C460 C 1.20636 0.72258 -0.18985
 C461 C 1.11158 0.61691 -0.07623
 C462 C 1.08892 0.59587 -0.05994
 H463 H 1.20155 0.66263 -0.07689
 H464 H 1.22238 0.62889 -0.13375
 H465 H 1.16782 0.73821 -0.10475
 H466 H 1.08511 0.69819 -0.10707
 H467 H 1.13977 0.58894 -0.13614
 H468 H 1.10584 0.66410 -0.16364
 C469 C 0.68628 1.13870 0.39548
 C470 C 0.67653 1.13224 0.36208
 C471 C 0.67499 1.18156 0.35804
 C472 C 0.68518 1.18853 0.39103
 C473 C 0.63740 1.13934 0.40169
 C474 C 0.63588 1.18868 0.39768
 C475 C 0.62747 1.13255 0.36863
 C476 C 0.62618 1.18207 0.36433
 C477 C 0.69416 1.20345 0.33240
 C478 C 0.70902 1.21935 0.31024
 C479 C 0.61327 1.11495 0.42417
 C480 C 0.59015 1.09447 0.44051
 H481 H 0.71083 1.12067 0.40850
 H482 H 0.69344 1.10925 0.34715
 H483 H 0.70919 1.21187 0.39990
 H484 H 0.61899 1.21168 0.41261
 H485 H 0.60357 1.10925 0.35955
 H486 H 0.60162 1.20007 0.35130
 C487 C 0.85302 0.62131 0.12839
 C488 C 0.87260 0.66064 0.14467
 C489 C 0.82896 0.68405 0.14205
 C490 C 0.80902 0.64496 0.12604
 C491 C 0.86666 0.64137 0.09867
 C492 C 0.82294 0.66472 0.09588
 C493 C 0.88647 0.68050 0.11472
 C494 C 0.84246 0.70429 0.11237
 C495 C 0.80947 0.70587 0.16758
 C496 C 0.79398 0.72131 0.18967
 C497 C 0.89064 0.61663 0.07631
 C498 C 0.91352 0.59579 0.06005
 H499 H 0.85747 0.58693 0.13478
 H500 H 0.89290 0.65918 0.16494
 H501 H 0.77689 0.63065 0.13102
 H502 H 0.80269 0.66606 0.07559
 H503 H 0.91858 0.69492 0.10984
 H504 H 0.83793 0.73870 0.10611
 C505 C 0.38565 1.15118 0.62762
 C506 C 0.36638 1.19717 0.62527
 C507 C 0.32580 1.18122 0.64157
 C508 C 0.34485 1.13550 0.64417
 C509 C 0.36402 1.13928 0.59803
 C510 C 0.32341 1.12330 0.61434
 C511 C 0.34499 1.18504 0.59531
 C512 C 0.30390 1.16944 0.61206
 C513 C 0.30628 1.20290 0.66717
 C514 C 0.29119 1.21863 0.68931
 C515 C 0.38846 1.11506 0.57563
 C516 C 0.41177 1.09468 0.55936
 H517 H 0.41951 1.14343 0.63389
 H518 H 0.38389 1.22773 0.63003
 H519 H 0.34472 1.11534 0.66452
 H520 H 0.30589 1.09274 0.60962
 H521 H 0.34519 1.20512 0.57493
 H522 H 0.26999 1.17731 0.60599
 C523 C 0.85069 0.37930 -0.12775
 C524 C 0.87147 0.34192 -0.14544
 C525 C 0.82939 0.31594 -0.14225
 C526 C 0.80824 0.35307 -0.12483
 C527 C 0.86711 0.35864 -0.09889
 C528 C 0.82497 0.33272 -0.09554
 C529 C 0.88813 0.32147 -0.11636
 C530 C 0.84570 0.29512 -0.11344
 C531 C 0.80982 0.29411 -0.16775
 C532 C 0.79427 0.27864 -0.18982
 C533 C 0.89103 0.38339 -0.07652
 C534 C 0.91381 0.40424 -0.06020
 H535 H 0.85286 0.41415 -0.13343
 H536 H 0.89049 0.34547 -0.16617
 H537 H 0.77511 0.36576 -0.12864
 H538 H 0.80601 0.32928 -0.07478
 H539 H 0.92125 0.30868 -0.11267
 H540 H 0.84346 0.26023 -0.10789
 C541 C 0.34689 0.88204 0.37352
 C542 C 0.36746 0.84506 0.35532
 C543 C 0.32543 0.81898 0.35850
 C544 C 0.30447 0.85571 0.37642
 C545 C 0.36373 0.86078 0.40205
 C546 C 0.32164 0.83475 0.40541
 C547 C 0.38452 0.82401 0.38407
 C548 C 0.34217 0.79757 0.38699
 C549 C 0.30598 0.79733 0.33287
 C550 C 0.29098 0.78159 0.31071
 C551 C 0.38818 0.88491 0.42449
 C552 C 0.41153 0.90520 0.44078
 H553 H 0.34896 0.91701 0.36817
 H554 H 0.38619 0.84909 0.33451
 H555 H 0.27128 0.86845 0.37296
 H556 H 0.30299 0.83082 0.42625
 H557 H 0.41770 0.81116 0.38742
 H558 H 0.34003 0.76257 0.39223
 C559 C 1.14075 1.10497 0.36511
 C560 C 1.11645 1.13777 0.34534
 C561 C 1.15751 1.16551 0.34422
 C562 C 1.18210 1.13300 0.36367
 C563 C 1.12629 1.13033 0.39272
 C564 C 1.16745 1.15807 0.39165
 C565 C 1.10173 1.16289 0.37327
 C566 C 1.14321 1.19107 0.37175
 C567 C 1.17579 1.18435 0.31732
 C568 C 1.19298 1.20047 0.29614
 C569 C 1.10788 1.10739 0.41810
 C570 C 1.09134 1.08466 0.43653
 H571 H 1.13969 1.06926 0.36268
 H572 H 1.09575 1.12955 0.32605
 H573 H 1.21531 1.12086 0.35931
 H574 H 1.18816 1.16627 0.41093
 H575 H 1.06857 1.17513 0.37762
 H576 H 1.14447 1.22678 0.37399
 C577 C 0.66121 0.62854 -0.12042
 C578 C 0.64513 0.62151 -0.15251
 C579 C 0.64904 0.67027 -0.15806
 C580 C 0.66546 0.67769 -0.12631
 C581 C 0.61425 0.63587 -0.11051
 C582 C 0.61811 0.68471 -0.11597
 C583 C 0.59791 0.62858 -0.14231
 C584 C 0.60211 0.67772 -0.14821
 C585 C 0.66969 0.68844 -0.18429
 C586 C 0.68888 0.70375 -0.20490
 C587 C 0.59454 0.61356 -0.08541
 C588 C 0.57769 0.59158 -0.06672
 H589 H 0.68535 0.60827 -0.10865
 H590 H 0.65635 0.59579 -0.16784
 H591 H 0.69357 0.69818 -0.12020
 H592 H 0.60693 0.71043 -0.10062
 H593 H 0.56983 0.60815 -0.14856
 H594 H 0.57809 0.69806 -0.16004
 C595 C 0.87973 1.11367 0.63856
 C596 C 0.89071 1.15971 0.64962
 C597 C 0.84250 1.16699 0.65594
 C598 C 0.83129 1.12127 0.64520
 C599 C 0.87285 1.13181 0.60716
 C600 C 0.82460 1.13913 0.61350
 C601 C 0.88412 1.17761 0.61784
 C602 C 0.83548 1.18533 0.62463
 C603 C 0.82454 1.18567 0.68298
 C604 C 0.80748 1.20161 0.70428
 C605 C 0.89083 1.10868 0.58171
 C606 C 0.90699 1.08567 0.56327
 H607 H 0.89812 1.08388 0.64404
 H608 H 0.91764 1.16821 0.66482
 H609 H 0.80954 1.09827 0.65681
 H610 H 0.79756 1.13069 0.59837
 H611 H 0.90580 1.20066 0.60623
 H612 H 0.81703 1.21516 0.61937
 C613 C 0.40747 0.63939 0.14096
 C614 C 0.39232 0.68698 0.14367
 C615 C 0.35068 0.67098 0.15862
 C616 C 0.36550 0.62380 0.15628
 C617 C 0.38450 0.63635 0.11082
 C618 C 0.34280 0.62052 0.12583
 C619 C 0.36967 0.68360 0.11306
 C620 C 0.32763 0.66804 0.12851
 C621 C 0.33051 0.68930 0.18498
 C622 C 0.31156 0.70472 0.20566
 C623 C 0.40376 0.61400 0.08556
 C624 C 0.42036 0.59200 0.06678
 H625 H 0.44061 0.62743 0.14574
 H626 H 0.41241 0.71448 0.15144
 H627 H 0.36365 0.59949 0.17432
 H628 H 0.32250 0.59312 0.11814
 H629 H 0.37151 0.70788 0.09500
 H630 H 0.29447 0.68005 0.12383
 C631 C 1.14590 0.89472 0.63334
 C632 C 1.11973 0.86702 0.65551
 C633 C 1.15702 0.83438 0.65622
 C634 C 1.18350 0.86179 0.63437
 C635 C 1.12576 0.86912 0.60758
 C636 C 1.16315 0.83646 0.60822
 C637 C 1.09933 0.84166 0.62944
 C638 C 1.13702 0.80858 0.63053
 C639 C 1.17541 0.81574 0.68314
 C640 C 1.19271 0.79971 0.70431
 C641 C 1.10737 0.89184 0.58211
 C642 C 1.09085 0.91447 0.56361
 H643 H 1.14953 0.93042 0.63418
 H644 H 1.10213 0.87942 0.67520
 H645 H 1.21829 0.86997 0.63685
 H646 H 1.18079 0.82407 0.58855
 H647 H 1.06455 0.83343 0.62702
 H648 H 1.13352 0.77288 0.62990
 C649 C 0.60079 0.32034 0.12403
 C650 C 0.64931 0.30847 0.12759
 C651 C 0.64908 0.32991 0.15832
 C652 C 0.60102 0.34136 0.15523
 C653 C 0.61440 0.36389 0.11059
 C654 C 0.61429 0.38516 0.14139
 C655 C 0.66249 0.35239 0.11371
 C656 C 0.66262 0.37339 0.14483
 C657 C 0.66963 0.31190 0.18465
 C658 C 0.68877 0.29664 0.20530
 C659 C 0.59472 0.38604 0.08539
 C660 C 0.57788 0.40792 0.06664
 H661 H 0.57532 0.29867 0.11509
 H662 H 0.66402 0.27661 0.12237
 H663 H 0.57608 0.33674 0.17264
 H664 H 0.59970 0.41701 0.14677
 H665 H 0.68752 0.35700 0.09635
 H666 H 0.68816 0.39501 0.15375
 C667 C 0.85364 0.82241 0.39104
 C668 C 0.81554 0.84033 0.37233
 C669 C 0.84215 0.83276 0.34401
 C670 C 0.87987 0.81437 0.36222
 C671 C 0.87258 0.86824 0.39265
 C672 C 0.89909 0.86054 0.36430
 C673 C 0.83478 0.88644 0.37438
 C674 C 0.86106 0.87851 0.34574
 C675 C 0.82416 0.81399 0.31700
 C676 C 0.80711 0.79802 0.29571
 C677 C 0.89056 0.89138 0.41809
 C678 C 0.90676 0.91434 0.43654
 H679 H 0.85071 0.79964 0.40994
 H680 H 0.78091 0.83177 0.37520
 H681 H 0.89821 0.78453 0.35680
 H682 H 0.93373 0.86898 0.36132
 H683 H 0.81621 0.91616 0.37972
 H684 H 0.86401 0.90133 0.32686
 C685 C 0.37786 0.38768 -0.14026
 C686 C 0.39583 0.34752 -0.15655
 C687 C 0.34966 0.32965 -0.15852
 C688 C 0.33141 0.36950 -0.14257
 C689 C 0.38335 0.36393 -0.11056
 C690 C 0.33712 0.34605 -0.11253
 C691 C 0.40164 0.32402 -0.12648
 C692 C 0.35502 0.30573 -0.12889
 C693 C 0.32966 0.31141 -0.18496
 C694 C 0.31089 0.29593 -0.20570
 C695 C 0.40267 0.38616 -0.08527
 C696 C 0.41941 0.40804 -0.06648
 H697 H 0.38739 0.42170 -0.14464
 H698 H 0.41965 0.34802 -0.17496
 H699 H 0.30240 0.38803 -0.14958
 H700 H 0.31321 0.34556 -0.09418
 H701 H 0.43060 0.30544 -0.11944
 H702 H 0.34533 0.27171 -0.12468
 C703 C 1.13895 0.38137 -0.13735
 C704 C 1.18783 0.37069 -0.13825
 C705 C 1.17659 0.32351 -0.14576
 C706 C 1.12803 0.33396 -0.14514
 C707 C 1.13816 0.36950 -0.10430
 C708 C 1.12700 0.32230 -0.11182
 C709 C 1.18680 0.35916 -0.10480
 C710 C 1.17598 0.31147 -0.11274
 C711 C 1.19635 0.29950 -0.17027
 C712 C 1.21170 0.28220 -0.19177
 C713 C 1.11392 0.39516 -0.08255
 C714 C 1.09104 0.41561 -0.06603
 H715 H 1.12361 0.41039 -0.14731
 H716 H 1.21314 0.39029 -0.14940
 H717 H 1.10401 0.32332 -0.16191
 H718 H 1.10172 0.30263 -0.10071
 H719 H 1.21079 0.36985 -0.08803
 H720 H 1.19142 0.28241 -0.10292
 C721 C 0.63796 0.87985 0.36234
 C722 C 0.68636 0.86707 0.36215
 C723 C 0.67338 0.82060 0.35391
 C724 C 0.62531 0.83313 0.35382
 C725 C 0.63546 0.86725 0.39522
 C726 C 0.62255 0.82075 0.38697
 C727 C 0.68360 0.85481 0.39543
 C728 C 0.67105 0.80784 0.38676
 C729 C 0.69315 0.79648 0.32946
 C730 C 0.70891 0.77949 0.30800
 C731 C 0.61162 0.89333 0.41693
 C732 C 0.58913 0.91412 0.43349
 H733 H 0.62426 0.90974 0.35247
 H734 H 0.71293 0.88577 0.35168
 H735 H 0.60148 0.82392 0.33653
 H736 H 0.59604 0.80195 0.39743
 H737 H 0.70741 0.86408 0.41271
 H738 H 0.68485 0.77791 0.39649
 C739 C 0.88717 0.65843 -0.12732
 C740 C 0.85743 0.63955 -0.15160
 C741 C 0.82465 0.67581 -0.14541
 C742 C 0.85412 0.69502 -0.12139
 C743 C 0.86403 0.63007 -0.10425
 C744 C 0.83125 0.66631 -0.09792
 C745 C 0.83455 0.61091 -0.12829
 C746 C 0.80133 0.64751 -0.12241
 C747 C 0.80433 0.69968 -0.16977
 C748 C 0.78860 0.71689 -0.19117
 C749 C 0.88866 0.60454 -0.08264
 C750 C 0.91170 0.58416 -0.06619
 H751 H 0.92273 0.66265 -0.12920
 H752 H 0.86811 0.62881 -0.17391
 H753 H 0.86196 0.72983 -0.11881
 H754 H 0.82065 0.67695 -0.07558
 H755 H 0.82667 0.57610 -0.13093
 H756 H 0.76575 0.64340 -0.12067
 C757 C 0.34996 1.17853 0.39988
 C758 C 0.36986 1.19063 0.36945
 C759 C 0.32708 1.17827 0.35441
 C760 C 0.30667 1.16653 0.38442
 C761 C 0.36557 1.13175 0.39553
 C762 C 0.32275 1.11932 0.38050
 C763 C 0.38573 1.14357 0.36547
 C764 C 0.34270 1.13148 0.35017
 C765 C 0.30704 1.20231 0.33005
 C766 C 0.29115 1.21929 0.30864
 C767 C 0.38976 1.10577 0.41710
 C768 C 0.41251 1.08508 0.43354
 H769 H 0.35311 1.19755 0.42063
 H770 H 0.38902 1.22018 0.36469
 H771 H 0.27391 1.17639 0.39190
 H772 H 0.30356 1.08978 0.38523
 H773 H 0.41843 1.13381 0.35779
 H774 H 0.33958 1.11240 0.32944
 C775 C 1.18207 0.65307 0.10037
 C776 C 1.16302 0.69402 0.11546
 C777 C 1.17704 0.67623 0.14574
 C778 C 1.19651 0.63575 0.13112
 C779 C 1.13833 0.63014 0.10445
 C780 C 1.15245 0.61248 0.13476
 C781 C 1.11900 0.67066 0.11912
 C782 C 1.13336 0.65323 0.14966
 C783 C 1.19687 0.70033 0.17018
 C784 C 1.21220 0.71770 0.19166
 C785 C 1.11394 0.60448 0.08278
 C786 C 1.09097 0.58406 0.06632
 H787 H 1.20194 0.65264 0.07989
 H788 H 1.16756 0.72782 0.10781
 H789 H 1.22870 0.62174 0.13632
 H790 H 1.14796 0.57872 0.14251
 H791 H 1.08683 0.68478 0.11400
 H792 H 1.11342 0.65357 0.17013
 C793 C 0.67971 1.15487 0.60094
 C794 C 0.66048 1.19614 0.61550
 C795 C 0.67381 1.17883 0.64606
 C796 C 0.69346 1.13805 0.63195
 C797 C 0.63584 1.13214 0.60479
 C798 C 0.64928 1.11497 0.63537
 C799 C 0.61631 1.17296 0.61893
 C800 C 0.63000 1.15602 0.64976
 C801 C 0.69356 1.20298 0.67049
 C802 C 0.70930 1.22002 0.69194
 C803 C 0.61193 1.10607 0.58312
 C804 C 0.58937 1.08530 0.56660
 H805 H 0.70002 1.15400 0.58066
 H806 H 0.66528 1.22979 0.60763
 H807 H 0.72550 1.12407 0.63758
 H808 H 0.64455 1.08135 0.64334
 H809 H 0.58430 1.18707 0.61339
 H810 H 0.60966 1.15679 0.67003
 C811 C 0.82582 0.33888 0.09844
 C812 C 0.84794 0.30509 0.11889
 C813 C 0.82416 0.32466 0.14559
 C814 C 0.80161 0.35802 0.12561
 C815 C 0.86341 0.37030 0.10431
 C816 C 0.83959 0.38979 0.13103
 C817 C 0.88579 0.33689 0.12436
 C818 C 0.86173 0.35612 0.15131
 C819 C 0.80397 0.30081 0.17001
 C820 C 0.78836 0.28357 0.19144
 C821 C 0.88802 0.39573 0.08264
 C822 C 0.91111 0.41602 0.06617
 H823 H 0.81123 0.33215 0.07645
 H824 H 0.85117 0.27002 0.11417
 H825 H 0.76668 0.36632 0.12640
 H826 H 0.83633 0.42484 0.13583
 H827 H 0.92069 0.32845 0.12369
 H828 H 0.87640 0.36293 0.17327
 C829 C 0.38349 0.86020 0.63594
 C830 C 0.33825 0.86981 0.64891
 C831 C 0.32683 0.82164 0.64583
 C832 C 0.37182 0.81177 0.63311
 C833 C 0.36540 0.86806 0.60467
 C834 C 0.35398 0.81988 0.60150
 C835 C 0.32036 0.87801 0.61736
 C836 C 0.30849 0.82938 0.61462
 C837 C 0.30677 0.79767 0.67022
 C838 C 0.29088 0.78076 0.69167
 C839 C 0.38961 0.89401 0.58309
 C840 C 0.41236 0.91468 0.56664
 H841 H 0.41450 0.87320 0.64458
 H842 H 0.33161 0.89010 0.66870
 H843 H 0.39277 0.78430 0.63980
 H844 H 0.36065 0.79965 0.58170
 H845 H 0.29940 0.90548 0.61071
 H846 H 0.27739 0.81632 0.60617
 C847 C 0.35233 1.16946 -0.10786
 C848 C 0.36684 1.17280 -0.14062
 C849 C 0.32097 1.15992 -0.15035
 C850 C 0.30606 1.15695 -0.11797
 C851 C 0.36491 1.12138 -0.10805
 C852 C 0.31903 1.10851 -0.11776
 C853 C 0.37977 1.12445 -0.14045
 C854 C 0.33357 1.11188 -0.15053
 C855 C 0.29808 1.18144 -0.17456
 C856 C 0.28167 1.19960 -0.19528
 C857 C 0.38938 1.09967 -0.08460
 C858 C 0.40896 1.08171 -0.06508
 H859 H 0.36043 1.19295 -0.09011
 H860 H 0.38614 1.19961 -0.15028
 H861 H 0.27549 1.17056 -0.10905
 H862 H 0.29968 1.08176 -0.10810
 H863 H 0.41034 1.11092 -0.14943
 H864 H 0.32549 1.08846 -0.16832
 C865 C 0.88436 0.66404 0.37367
 C866 C 0.86701 0.64006 0.34601
 C867 C 0.82306 0.66249 0.35022
 C868 C 0.84009 0.68680 0.37753
 C869 C 0.86816 0.62663 0.39312
 C870 C 0.82421 0.64910 0.39738
 C871 C 0.85113 0.60237 0.36579
 C872 C 0.80680 0.62513 0.36965
 C873 C 0.79958 0.68278 0.32573
 C874 C 0.78272 0.70022 0.30486
 C875 C 0.89336 0.60643 0.41690
 C876 C 0.91363 0.58970 0.43662
 H877 H 0.91648 0.67986 0.37553
 H878 H 0.88431 0.63654 0.32459
 H879 H 0.83515 0.72174 0.38205
 H880 H 0.80693 0.65266 0.41880
 H881 H 0.85603 0.56745 0.36119
 H882 H 0.77464 0.60940 0.36775
 C883 C 0.65276 1.16867 0.10579
 C884 C 0.63596 1.17705 0.13762
 C885 C 0.67940 1.16087 0.14993
 C886 C 0.69660 1.15286 0.11850
 C887 C 0.63534 1.12221 0.10773
 C888 C 0.67879 1.10604 0.12004
 C889 C 0.61820 1.13030 0.13918
 C890 C 0.66195 1.11445 0.15185
 C891 C 0.70232 1.18242 0.17410
 C892 C 0.71871 1.20061 0.19482
 C893 C 0.61084 1.10036 0.08436
 C894 C 0.59123 1.08225 0.06492
 H895 H 0.64859 1.19080 0.08664
 H896 H 0.61872 1.20660 0.14510
 H897 H 0.72909 1.16239 0.11031
 H898 H 0.69607 1.07653 0.11256
 H899 H 0.58571 1.12085 0.14742
 H900 H 0.66610 1.09239 0.17104
 C901 C 1.18059 0.63352 0.60640
 C902 C 1.17435 0.68049 0.61765
 C903 C 1.17627 0.66371 0.64966
 C904 C 1.18288 0.61711 0.63882
 C905 C 1.13125 0.62727 0.60695
 C906 C 1.13318 0.61056 0.63897
 C907 C 1.12465 0.67389 0.61780
 C908 C 1.12693 0.65746 0.65016
 C909 C 1.19975 0.68424 0.67407
 C910 C 1.21670 0.70176 0.69488
 C911 C 1.10607 0.60684 0.58324
 C912 C 1.08583 0.58999 0.56354
 H913 H 1.20238 0.62343 0.58811
 H914 H 1.19158 0.70946 0.60919
 H915 H 1.20713 0.59402 0.64769
 H916 H 1.11593 0.58166 0.64752
 H917 H 1.10041 0.69701 0.60896
 H918 H 1.10512 0.66758 0.66844
 C919 C 0.61532 0.85866 -0.13544
 C920 C 0.65122 0.88003 -0.15434
 C921 C 0.67965 0.83985 -0.14973
 C922 C 0.64407 0.81813 -0.13119
 C923 C 0.63561 0.87857 -0.10755
 C924 C 0.66402 0.83834 -0.10290
 C925 C 0.67120 0.90026 -0.12609
 C926 C 0.70001 0.85970 -0.12185
 C927 C 0.70254 0.81820 -0.17389
 C928 C 0.71888 0.79989 -0.19458
 C929 C 0.61107 0.90042 -0.08418
 C930 C 0.59142 0.91851 -0.06475
 H931 H 0.58026 0.85844 -0.14078
 H932 H 0.64629 0.89697 -0.17576
 H933 H 0.63332 0.78405 -0.13357
 H934 H 0.66891 0.82138 -0.08149
 H935 H 0.68201 0.93433 -0.12377
 H936 H 0.73508 0.85985 -0.11656
 C937 C 1.11948 0.37483 0.36039
 C938 C 1.16715 0.38537 0.35267
 C939 C 1.17672 0.33672 0.35073
 C940 C 1.12939 0.32588 0.35810
 C941 C 1.13172 0.37340 0.39335
 C942 C 1.14129 0.32471 0.39141
 C943 C 1.17907 0.38423 0.38602
 C944 C 1.18901 0.33519 0.38368
 C945 C 1.20019 0.31605 0.32636
 C946 C 1.21709 0.29845 0.30556
 C947 C 1.10654 0.39395 0.41700
 C948 C 1.08626 0.41088 0.43665
 H949 H 1.09061 0.39127 0.35105
 H950 H 1.17813 0.41010 0.33651
 H951 H 1.10929 0.30155 0.34637
 H952 H 1.13029 0.29995 0.40755
 H953 H 1.19920 0.40851 0.39776
 H954 H 1.21787 0.31867 0.39294
 C955 C 0.33070 0.84399 0.10296
 C956 C 0.35086 0.81745 0.12859
 C957 C 0.32081 0.84085 0.15047
 C958 C 0.30026 0.86704 0.12524
 C959 C 0.36480 0.87936 0.10817
 C960 C 0.33475 0.90274 0.13005
 C961 C 0.38530 0.85313 0.13341
 C962 C 0.35493 0.87619 0.15564
 C963 C 0.29794 0.81923 0.17465
 C964 C 0.28158 0.80091 0.19532
 C965 C 0.38931 0.90102 0.08470
 C966 C 0.40892 0.91894 0.06518
 H967 H 0.32111 0.83093 0.08101
 H968 H 0.35707 0.78210 0.12829
 H969 H 0.26505 0.87246 0.12216
 H970 H 0.32849 0.93808 0.13042
 H971 H 0.42049 0.84762 0.13653
 H972 H 0.36457 0.88922 0.17759
 C973 C 0.84291 0.33073 0.60359
 C974 C 0.86169 0.31534 0.63362
 C975 C 0.82347 0.33699 0.64959
 C976 C 0.80428 0.35203 0.61996
 C977 C 0.86854 0.37308 0.60677
 C978 C 0.83031 0.39470 0.62274
 C979 C 0.88767 0.35795 0.63642
 C980 C 0.84912 0.37928 0.65274
 C981 C 0.79996 0.31669 0.67407
 C982 C 0.78307 0.29930 0.69496
 C983 C 0.89372 0.39349 0.58306
 C984 C 0.91396 0.41042 0.56339
 H985 H 0.84072 0.31088 0.58315
 H986 H 0.87422 0.28240 0.63835
 H987 H 0.76974 0.34935 0.61348
 H988 H 0.81774 0.42761 0.61803
 H989 H 0.92219 0.36055 0.64295
 H990 H 0.85134 0.39907 0.67321
 C991 C 1.15482 1.16593 0.60922
 C992 C 1.13171 1.19626 0.63158
 C993 C 1.15140 1.17016 0.65722
 C994 C 1.17488 1.14029 0.63530
 C995 C 1.11541 1.13575 0.61009
 C996 C 1.13524 1.10983 0.63579
 C997 C 1.09193 1.16566 0.63200
 C998 C 1.11207 1.13999 0.65804
 C999 C 1.17254 1.18850 0.68323
 C1000 C 1.19195 1.20402 0.70367
 C1001 C 1.09511 1.11351 0.58516
 C1002 C 1.07789 1.09162 0.56656
 H1003 H 1.17213 1.17641 0.58891
 H1004 H 1.13052 1.23208 0.63035
 H1005 H 1.20920 1.12999 0.63708
 H1006 H 1.13659 1.07402 0.63720
 H1007 H 1.05763 1.17599 0.63023
 H1008 H 1.09482 1.12951 0.67838
 C1009 C 0.67558 0.64100 0.11116
 C1010 C 0.66332 0.68637 0.12320
 C1011 C 0.65947 0.66703 0.15449
 C1012 C 0.67207 0.62214 0.14284
 C1013 C 0.62733 0.63147 0.10637
 C1014 C 0.62362 0.61233 0.13774
 C1015 C 0.61468 0.67643 0.11798
 C1016 C 0.61127 0.65753 0.14971
 C1017 C 0.67830 0.68589 0.18122
 C1018 C 0.69581 0.70190 0.20232
 C1019 C 0.60844 0.60822 0.08127
 C1020 C 0.59164 0.58528 0.06305
 H1021 H 0.70186 0.63420 0.09505
 H1022 H 0.67990 0.71718 0.11768
 H1023 H 0.69572 0.59998 0.15342
 H1024 H 0.60711 0.58156 0.14348
 H1025 H 0.59109 0.69864 0.10739
 H1026 H 0.58509 0.66438 0.16588
 C1027 C 1.09540 0.86440 0.35873
 C1028 C 1.14028 0.87692 0.34624
 C1029 C 1.15089 0.82875 0.34284
 C1030 C 1.10633 0.81582 0.35497
 C1031 C 1.11496 0.86306 0.39004
 C1032 C 1.12554 0.81481 0.38674
 C1033 C 1.15956 0.87583 0.37784
 C1034 C 1.17052 0.82730 0.37412
 C1035 C 1.17210 0.81064 0.31678
 C1036 C 1.19164 0.79539 0.29629
 C1037 C 1.09469 0.88534 0.41497
 C1038 C 1.07756 0.90734 0.43354
 H1039 H 1.06418 0.87984 0.35272
 H1040 H 1.14648 0.90220 0.32930
 H1041 H 1.08472 0.79100 0.34515
 H1042 H 1.11937 0.78953 0.40368
 H1043 H 1.18136 0.90056 0.38759
 H1044 H 1.20177 0.81180 0.38000
 C1045 C 0.61230 0.32430 -0.11946
 C1046 C 0.61141 0.34454 -0.15088
 C1047 C 0.65925 0.33268 -0.15479
 C1048 C 0.66059 0.31200 -0.12382
 C1049 C 0.62671 0.36807 -0.10675
 C1050 C 0.67460 0.35618 -0.11066
 C1051 C 0.62551 0.38856 -0.13780
 C1052 C 0.67360 0.37639 -0.14204
 C1053 C 0.67831 0.31390 -0.18147
 C1054 C 0.69599 0.29792 -0.20253
 C1055 C 0.60771 0.39122 -0.08164
 C1056 C 0.59093 0.41411 -0.06338
 H1057 H 0.58708 0.30299 -0.10980
 H1058 H 0.58571 0.33970 -0.16773
 H1059 H 0.67527 0.28015 -0.11851
 H1060 H 0.70037 0.36100 -0.09386
 H1061 H 0.61092 0.42037 -0.14331
 H1062 H 0.69886 0.39767 -0.15169
 C1063 C 0.90901 1.15777 0.36449
 C1064 C 0.87995 1.13362 0.34198
 C1065 C 0.84823 1.17170 0.34266
 C1066 C 0.87688 1.19629 0.36479
 C1067 C 0.88342 1.13692 0.38995
 C1068 C 0.85164 1.17505 0.39072
 C1069 C 0.85465 1.11254 0.36776
 C1070 C 0.82260 1.15092 0.36812
 C1071 C 0.82746 1.19004 0.31653
 C1072 C 0.80821 1.20548 0.29598
 C1073 C 0.90329 1.11436 0.41491
 C1074 C 0.92020 1.09219 0.43348
 H1075 H 0.94479 1.16047 0.36339
 H1076 H 0.89133 1.11681 0.32169
 H1077 H 0.88576 1.23099 0.36310
 H1078 H 0.84026 1.19185 0.41101
 H1079 H 0.84558 1.07788 0.36932
 H1080 H 0.78680 1.14828 0.36919
 C1081 C 0.38409 0.67693 -0.11799
 C1082 C 0.38811 0.65828 -0.14977
 C1083 C 0.33996 0.66761 -0.15489
 C1084 C 0.33549 0.68670 -0.12357
 C1085 C 0.37144 0.63184 -0.10665
 C1086 C 0.32323 0.64120 -0.11179
 C1087 C 0.37575 0.61294 -0.13806
 C1088 C 0.32735 0.62258 -0.14350
 C1089 C 0.32147 0.68662 -0.18168
 C1090 C 0.30414 0.70279 -0.20280
 C1091 C 0.38999 0.60851 -0.08147
 C1092 C 0.40654 0.58550 -0.06318
 H1093 H 0.40740 0.69917 -0.10714
 H1094 H 0.41454 0.66535 -0.16570
 H1095 H 0.31867 0.71739 -0.11806
 H1096 H 0.29671 0.63418 -0.09591
 H1097 H 0.39249 0.58228 -0.14377
 H1098 H 0.30397 0.60040 -0.15435
 C1099 C 0.90834 0.84748 0.63710
 C1100 C 0.87482 0.86986 0.65745
 C1101 C 0.84782 0.82830 0.65730
 C1102 C 0.88096 0.80547 0.63733
 C1103 C 0.88278 0.86304 0.60991
 C1104 C 0.85573 0.82142 0.60966
 C1105 C 0.84954 0.88566 0.62995
 C1106 C 0.82221 0.84378 0.63011
 C1107 C 0.82718 0.80999 0.68350
 C1108 C 0.80805 0.79462 0.70412
 C1109 C 0.90259 0.88557 0.58492
 C1110 C 0.91953 0.90770 0.56635
 H1111 H 0.94403 0.84912 0.63960
 H1112 H 0.88244 0.88953 0.67735
 H1113 H 0.89360 0.77225 0.64081
 H1114 H 0.84810 0.80176 0.58976
 H1115 H 0.83668 0.91881 0.62657
 H1116 H 0.78650 0.84205 0.62766
 C1117 C 0.34102 0.32947 0.10726
 C1118 C 0.36827 0.30875 0.13243
 C1119 C 0.34040 0.33259 0.15542
 C1120 C 0.31281 0.35284 0.13072
 C1121 C 0.37193 0.36833 0.10719
 C1122 C 0.34396 0.39196 0.13025
 C1123 C 0.39946 0.34801 0.13190
 C1124 C 0.37124 0.37141 0.15526
 C1125 C 0.32179 0.31357 0.18215
 C1126 C 0.30434 0.29738 0.20321
 C1127 C 0.39037 0.39157 0.08194
 C1128 C 0.40682 0.41451 0.06358
 H1129 H 0.32878 0.31245 0.08730
 H1130 H 0.37813 0.27429 0.13381
 H1131 H 0.27695 0.35470 0.13072
 H1132 H 0.33395 0.42640 0.12903
 H1133 H 0.43533 0.34610 0.13202
 H1134 H 0.38345 0.38843 0.17523
   
