data_POSCAR
  _audit_creation_date              2014-09-24
  _audit_creation_method            'ToBaCCo'
  _symmetry_space_group_name_H-M    'P1'
  _symmetry_Int_Tables_number       1
  _symmetry_cell_setting            triclinic
  loop_
  _symmetry_equiv_pos_as_xyz
 x,y,z
_cell_length_a 48.1549
_cell_length_b 47.7870
_cell_length_c 46.6627
_cell_angle_alpha 90.276400
_cell_angle_beta 90.389600
_cell_angle_gamma 83.506600
loop_
  _atom_site_label
  _atom_site_type_symbol
  _atom_site_fract_x
  _atom_site_fract_y
  _atom_site_fract_z
C1 C 1.23236 0.23108 0.20697
 C2 C 1.24659 0.25303 0.19008
 C3 C 1.26122 0.26990 0.20665
 C4 C 1.26040 0.26326 0.23884
 C5 C 1.25655 0.21508 0.22391
 C6 C 1.27097 0.23177 0.24084
 C7 C 1.21475 0.24818 0.22959
 C8 C 1.22925 0.26500 0.24621
 H9 H 1.24792 0.25323 0.16698
 H10 H 1.27225 0.27686 0.25256
 H11 H 1.26126 0.19238 0.22325
 H12 H 1.19250 0.24723 0.23190
 C13 C 0.73027 -0.26688 0.19913
 C14 C 0.75148 -0.25126 0.18289
 C15 C 0.76870 -0.23776 0.20022
 C16 C 0.76310 -0.24103 0.23246
 C17 C 0.74806 -0.28627 0.21977
 C18 C 0.76547 -0.27314 0.23709
 C19 C 0.71496 -0.24412 0.21819
 C20 C 0.73182 -0.23071 0.23574
 H21 H 0.75168 -0.24892 0.15990
 H22 H 0.77699 -0.22992 0.24652
 H23 H 0.74657 -0.30870 0.22055
 H24 H 0.69241 -0.23935 0.21806
 C25 C 0.72750 0.23476 -0.30156
 C26 C 0.74899 0.24842 -0.31611
 C27 C 0.76659 0.26266 -0.29717
 C28 C 0.75899 0.26014 -0.26678
 C29 C 0.74246 0.21626 -0.28067
 C30 C 0.76033 0.22964 -0.26151
 C31 C 0.71237 0.25738 -0.28507
 C32 C 0.72927 0.27129 -0.26537
 H33 H 0.74795 0.25310 -0.33875
 H34 H 0.77249 0.27096 -0.25231
 H35 H 0.73877 0.19441 -0.27884
 H36 H 0.68992 0.26232 -0.28667
 C37 C 1.23641 -0.27025 -0.29360
 C38 C 1.25304 -0.25076 -0.31114
 C39 C 1.26733 -0.23322 -0.29505
 C40 C 1.26424 -0.23713 -0.26257
 C41 C 1.25847 -0.28585 -0.27379
 C42 C 1.27270 -0.26865 -0.25734
 C43 C 1.21818 -0.25050 -0.27361
 C44 C 1.23259 -0.23330 -0.25734
 H45 H 1.25527 -0.25203 -0.33414
 H46 H 1.27589 -0.22321 -0.24902
 H47 H 1.26164 -0.30857 -0.27186
 H48 H 1.19575 -0.25066 -0.27207
 C49 C 0.23589 0.22422 0.79333
 C50 C 0.25269 0.24142 0.81057
 C51 C 0.26796 0.26013 0.79456
 C52 C 0.26379 0.25748 0.76357
 C53 C 0.21751 0.24499 0.77445
 C54 C 0.23198 0.26233 0.75876
 C55 C 0.25693 0.20865 0.77247
 C56 C 0.27126 0.22602 0.75661
 H57 H 0.25707 0.23698 0.83295
 H58 H 0.27488 0.27140 0.74987
 H59 H 0.19502 0.24524 0.77296
 H60 H 0.26000 0.18598 0.77004
 C61 C 0.72859 0.72924 0.79948
 C62 C 0.75008 0.74213 0.81535
 C63 C 0.76570 0.76002 0.79844
 C64 C 0.75749 0.75982 0.76788
 C65 C 0.71189 0.75247 0.78539
 C66 C 0.72736 0.76920 0.76736
 C67 C 0.74396 0.71352 0.77672
 C68 C 0.75997 0.73007 0.75905
 H69 H 0.75743 0.73475 0.83617
 H70 H 0.76918 0.77289 0.75410
 H71 H 0.68925 0.75463 0.78578
 H72 H 0.74562 0.69074 0.77529
 C73 C 0.72841 0.23227 0.30112
 C74 C 0.74972 0.24784 0.31770
 C75 C 0.76671 0.26152 0.30067
 C76 C 0.76076 0.25852 0.26836
 C77 C 0.71279 0.25516 0.28244
 C78 C 0.72941 0.26881 0.26518
 C79 C 0.74600 0.21311 0.28020
 C80 C 0.76317 0.22645 0.26320
 H81 H 0.75006 0.25011 0.34073
 H82 H 0.77448 0.26976 0.25454
 H83 H 0.69025 0.25990 0.28267
 H84 H 0.74470 0.19066 0.27911
 C85 C 0.23054 0.72635 0.29428
 C86 C 0.24781 0.74564 0.31177
 C87 C 0.26239 0.76263 0.29568
 C88 C 0.25893 0.75833 0.26319
 C89 C 0.21255 0.74616 0.27410
 C90 C 0.22724 0.76279 0.25779
 C91 C 0.25218 0.71001 0.27466
 C92 C 0.26670 0.72661 0.25814
 H93 H 0.25018 0.74455 0.33479
 H94 H 0.27079 0.77177 0.24961
 H95 H 0.19006 0.74649 0.27251
 H96 H 0.25513 0.68725 0.27319
 N97 N 1.02366 0.02995 0.04930
 N98 N 1.04296 0.03559 0.06807
 N99 N 0.96242 0.04784 0.03017
 N100 N 0.94263 0.06795 0.03758
 N101 N 0.96553 0.02818 0.04990
 N102 N 0.94786 0.03437 0.07107
 N103 N 1.02052 0.04936 0.02938
 N104 N 1.03760 0.06865 0.03396
 C105 C 1.05161 0.05974 0.05808
 C106 C 0.93340 0.05901 0.06293
 N107 N 0.96390 0.02839 -0.05197
 N108 N 0.94586 0.03502 -0.07295
 N109 N 1.01957 0.04938 -0.03217
 N110 N 1.03700 0.06828 -0.03655
 N111 N 1.02207 0.02999 -0.05230
 N112 N 1.04128 0.03525 -0.07099
 N113 N 0.96148 0.04796 -0.03196
 N114 N 0.94183 0.06838 -0.03896
 Mn115 Mn 0.99092 0.04885 -0.00115
 C116 C 0.93190 0.05980 -0.06435
 C117 C 1.05050 0.05917 -0.06077
 N118 N 0.97405 -0.03267 0.04963
 N119 N 0.95622 -0.03904 0.06934
 N120 N 1.03463 -0.05034 0.02904
 N121 N 1.05541 -0.06988 0.03514
 N122 N 1.03225 -0.03079 0.04903
 N123 N 1.05144 -0.03649 0.06916
 N124 N 0.97654 -0.05199 0.02942
 N125 N 0.96049 -0.07191 0.03477
 Mn126 Mn 0.99887 -0.00133 0.04973
 C127 C 0.94772 -0.06350 0.05960
 C128 C 1.06600 -0.06077 0.06002
 N129 N 1.03068 -0.03070 -0.05266
 N130 N 1.04996 -0.03581 -0.07257
 N131 N 0.97556 -0.05194 -0.03226
 N132 N 0.95953 -0.07200 -0.03757
 N133 N 0.97253 -0.03269 -0.05237
 N134 N 0.95445 -0.03933 -0.07205
 N135 N 1.03369 -0.05019 -0.03280
 N136 N 1.05501 -0.06912 -0.03873
 Mn137 Mn 0.99726 -0.00125 -0.05261
 Mn138 Mn 1.00514 -0.05133 -0.00166
 Cl139 Cl 0.99797 -0.00126 -0.00143
 C140 C 1.06520 -0.05972 -0.06343
 C141 C 0.94627 -0.06380 -0.06231
 N142 N 0.96162 0.54830 0.53488
 N143 N 0.94225 0.56903 0.54165
 N144 N 1.02281 0.53064 0.55522
 N145 N 1.04246 0.53612 0.57362
 N146 N 1.01987 0.54971 0.53494
 N147 N 1.03749 0.56859 0.53889
 N148 N 0.96477 0.52958 0.55557
 N149 N 0.94789 0.53745 0.57706
 C150 C 0.93354 0.56177 0.56779
 C151 C 1.05153 0.55982 0.56303
 N152 N 1.03368 0.45013 0.53641
 N153 N 1.05481 0.43100 0.54248
 N154 N 0.97288 0.46835 0.55621
 N155 N 0.95496 0.46215 0.57594
 N156 N 0.97554 0.44876 0.53625
 N157 N 0.95949 0.42889 0.54176
 N158 N 1.03113 0.46989 0.55617
 N159 N 1.05054 0.46470 0.57619
 Mn160 Mn 0.99788 0.49961 0.55608
 C161 C 1.06538 0.44051 0.56717
 C162 C 0.94655 0.43756 0.56642
 N163 N 1.01986 0.54870 0.47346
 N164 N 1.03691 0.56786 0.46865
 N165 N 0.96454 0.52738 0.45324
 N166 N 0.94686 0.53350 0.43187
 N167 N 0.96173 0.54732 0.47284
 N168 N 0.94215 0.56755 0.46514
 N169 N 1.02269 0.52896 0.45371
 N170 N 1.04172 0.53424 0.43482
 Mn171 Mn 0.99068 0.54871 0.50404
 C172 C 1.05056 0.55852 0.44457
 C173 C 0.93269 0.55839 0.43975
 N174 N 0.97550 0.44763 0.47450
 N175 N 0.95935 0.42766 0.46924
 N176 N 1.03109 0.46824 0.45452
 N177 N 1.05013 0.46231 0.43450
 N178 N 1.03364 0.44896 0.47460
 N179 N 1.05440 0.42934 0.46868
 N180 N 0.97287 0.46663 0.45414
 N181 N 0.95483 0.46003 0.43445
 Mn182 Mn 1.00461 0.44865 0.50546
 Mn183 Mn 0.99780 0.49779 0.45365
 Cl184 Cl 0.99765 0.49869 0.50482
 C185 C 0.94636 0.43577 0.44432
 C186 C 1.06477 0.43815 0.44379
 N187 N 0.54973 0.01769 0.52861
 N188 N 0.56866 0.03536 0.53172
 N189 N 0.52687 -0.03603 0.55089
 N190 N 0.53328 -0.05237 0.57325
 N191 N 0.54627 -0.04045 0.53118
 N192 N 0.56628 -0.05983 0.53974
 N193 N 0.53036 0.02219 0.54824
 N194 N 0.53562 0.04308 0.56534
 C195 C 0.55959 0.05112 0.55467
 C196 C 0.55767 -0.06748 0.56580
 N197 N 0.44735 -0.02273 0.52944
 N198 N 0.42739 -0.03869 0.53485
 N199 N 0.47031 0.03285 0.54738
 N200 N 0.46567 0.05324 0.56652
 N201 N 0.45105 0.03544 0.52723
 N202 N 0.43273 0.05759 0.53221
 N203 N 0.46652 -0.02539 0.54970
 N204 N 0.46007 -0.04321 0.56947
 Mn205 Mn 0.49849 -0.00160 0.54934
 C206 C 0.43567 -0.05149 0.55980
 C207 C 0.44232 0.06873 0.55661
 N208 N 0.54668 -0.04310 0.46922
 N209 N 0.56703 -0.06275 0.46218
 N210 N 0.53103 0.01784 0.44708
 N211 N 0.53615 0.03776 0.42897
 N212 N 0.55009 0.01506 0.46740
 N213 N 0.56862 0.03298 0.46379
 N214 N 0.52746 -0.04039 0.44896
 N215 N 0.53434 -0.05816 0.42779
 Mn216 Mn 0.54837 -0.01281 0.49910
 C217 C 0.55879 -0.07238 0.43653
 C218 C 0.55971 0.04701 0.43975
 N219 N 0.45149 0.03288 0.46542
 N220 N 0.43372 0.05501 0.45858
 N221 N 0.46715 -0.02975 0.44807
 N222 N 0.46057 -0.04865 0.42918
 N223 N 0.44770 -0.02537 0.46768
 N224 N 0.42744 -0.04120 0.46272
 N225 N 0.47104 0.02841 0.44594
 N226 N 0.46713 0.04731 0.42538
 Mn227 Mn 0.44911 0.00511 0.49744
 Mn228 Mn 0.49916 -0.00601 0.44725
 Cl229 Cl 0.49876 -0.00395 0.49829
 C230 C 0.44394 0.06397 0.43366
 C231 C 0.43582 -0.05580 0.43877
 N232 N 0.54758 0.51872 0.03098
 N233 N 0.56580 0.53704 0.03454
 N234 N 0.52681 0.46330 0.05141
 N235 N 0.53373 0.44628 0.07312
 N236 N 0.54619 0.46020 0.03157
 N237 N 0.56669 0.44101 0.03938
 N238 N 0.52833 0.52188 0.05085
 N239 N 0.53304 0.54245 0.06864
 C240 C 0.55649 0.55175 0.05806
 C241 C 0.55840 0.43211 0.06511
 N242 N 0.44721 0.47431 0.03043
 N243 N 0.42727 0.45835 0.03584
 N244 N 0.46812 0.53040 0.05031
 N245 N 0.46293 0.55024 0.06995
 N246 N 0.44878 0.53286 0.03023
 N247 N 0.42987 0.55438 0.03574
 N248 N 0.46633 0.47175 0.05074
 N249 N 0.45981 0.45396 0.07056
 Mn250 Mn 0.49739 0.49682 0.05112
 C251 C 0.43549 0.44553 0.06079
 C252 C 0.43915 0.56526 0.06041
 N253 N 0.54659 0.45966 -0.03046
 N254 N 0.56745 0.44077 -0.03800
 N255 N 0.52880 0.52093 -0.05053
 N256 N 0.53390 0.54074 -0.06878
 N257 N 0.54790 0.51822 -0.03026
 N258 N 0.56641 0.53617 -0.03399
 N259 N 0.52732 0.46235 -0.05067
 N260 N 0.53465 0.44529 -0.07230
 Mn261 Mn 0.54725 0.48909 0.00048
 C262 C 0.55948 0.43155 -0.06391
 C263 C 0.55739 0.55015 -0.05804
 N264 N 0.44917 0.53232 -0.03149
 N265 N 0.43101 0.55451 -0.03683
 N266 N 0.46688 0.47086 -0.05121
 N267 N 0.46112 0.45201 -0.07051
 N268 N 0.44758 0.47372 -0.03133
 N269 N 0.42826 0.45684 -0.03650
 N270 N 0.46865 0.52949 -0.05116
 N271 N 0.46429 0.54971 -0.07038
 Mn272 Mn 0.44793 0.50332 -0.00056
 Mn273 Mn 0.49789 0.49589 -0.05118
 Cl274 Cl 0.49761 0.49615 -0.00003
 C275 C 0.44084 0.56532 -0.06103
 C276 C 0.43704 0.44327 -0.06090
 C277 C 1.18091 0.17655 0.16008
 C278 C 1.18881 0.20089 0.14708
 C279 C 1.20539 0.21847 0.16181
 C280 C 1.21497 0.21196 0.18986
 C281 C 1.20637 0.18794 0.20303
 C282 C 1.18982 0.17034 0.18829
 C283 C 1.16297 0.15817 0.14449
 N284 N 1.15545 0.13445 0.15677
 N285 N 1.13897 0.11824 0.14288
 C286 C 1.12931 0.12506 0.11610
 N287 N 1.13694 0.14871 0.10379
 N288 N 1.15341 0.16489 0.11766
 C289 C 1.11033 0.10752 0.10083
 C290 C 1.09910 0.11582 0.07389
 C291 C 1.08037 0.10003 0.05991
 C292 C 1.07247 0.07552 0.07247
 C293 C 1.08404 0.06682 0.09911
 C294 C 1.10275 0.08269 0.11318
 H295 H 1.18193 0.20661 0.12554
 H296 H 1.20995 0.23740 0.15115
 H297 H 1.21236 0.18282 0.22496
 H298 H 1.18382 0.15201 0.19916
 H299 H 1.10449 0.13476 0.06368
 H300 H 1.07187 0.10720 0.03934
 H301 H 1.07833 0.04798 0.10927
 H302 H 1.11106 0.07561 0.13386
 C303 C 1.18464 0.67476 0.66083
 C304 C 1.19460 0.69741 0.64656
 C305 C 1.21136 0.71509 0.66085
 C306 C 1.21903 0.71032 0.68977
 C307 C 1.20834 0.68805 0.70416
 C308 C 1.19166 0.67033 0.68984
 C309 C 1.16640 0.65641 0.64575
 N310 N 1.15745 0.63390 0.65910
 N311 N 1.14056 0.61780 0.64570
 C312 C 1.13190 0.62355 0.61837
 N313 N 1.14097 0.64596 0.60499
 N314 N 1.15788 0.66202 0.61837
 C315 C 1.11231 0.60632 0.60373
 C316 C 1.10133 0.61416 0.57657
 C317 C 1.08189 0.59877 0.56325
 C318 C 1.07308 0.57513 0.57670
 C319 C 1.08443 0.56684 0.60353
 C320 C 1.10382 0.58232 0.61696
 H321 H 1.18920 0.70175 0.62434
 H322 H 1.21751 0.73278 0.64915
 H323 H 1.21274 0.68443 0.72671
 H324 H 1.18397 0.65338 0.70166
 H325 H 1.10742 0.63247 0.56572
 H326 H 1.07356 0.60558 0.54249
 H327 H 1.07801 0.54865 0.61435
 H328 H 1.11194 0.57563 0.63782
 C329 C 0.67363 0.18652 0.64954
 C330 C 0.66765 0.19434 0.67801
 C331 C 0.68526 0.21008 0.69345
 C332 C 0.70919 0.21939 0.68083
 C333 C 0.71542 0.21085 0.65228
 C334 C 0.69774 0.19486 0.63686
 C335 C 0.65529 0.16878 0.63379
 N336 N 0.66247 0.15797 0.60756
 N337 N 0.64643 0.14104 0.59409
 C338 C 0.62253 0.13428 0.60627
 N339 N 0.61522 0.14535 0.63235
 N340 N 0.63126 0.16222 0.64581
 C341 C 0.60542 0.11429 0.59209
 C342 C 0.58061 0.10756 0.60478
 C343 C 0.56537 0.08741 0.59234
 C344 C 0.57468 0.07355 0.56703
 C345 C 0.59906 0.08072 0.55394
 C346 C 0.61427 0.10091 0.56632
 H347 H 0.64957 0.18782 0.68870
 H348 H 0.68026 0.21474 0.71570
 H349 H 0.73423 0.21559 0.64177
 H350 H 0.70322 0.18870 0.61508
 H351 H 0.57312 0.11755 0.62457
 H352 H 0.54657 0.08234 0.60280
 H353 H 0.60663 0.07045 0.53430
 H354 H 0.63322 0.10562 0.55593
 C355 C 0.67249 0.68537 0.15263
 C356 C 0.67010 0.69007 0.18226
 C357 C 0.68880 0.70545 0.19669
 C358 C 0.71020 0.71701 0.18194
 C359 C 0.71268 0.71211 0.15223
 C360 C 0.69398 0.69655 0.13778
 C361 C 0.65322 0.66811 0.13760
 N362 N 0.65729 0.66073 0.10968
 N363 N 0.64063 0.64424 0.09654
 C364 C 0.61916 0.63448 0.11071
 N365 N 0.61490 0.64210 0.13853
 N366 N 0.63158 0.65856 0.15169
 C367 C 0.60169 0.61482 0.09653
 C368 C 0.57863 0.60566 0.11064
 C369 C 0.56338 0.58564 0.09789
 C370 C 0.57103 0.57432 0.07091
 C371 C 0.59357 0.58400 0.05649
 C372 C 0.60868 0.60408 0.06911
 H373 H 0.65399 0.68153 0.19447
 H374 H 0.68664 0.70825 0.21965
 H375 H 0.72918 0.71960 0.13990
 H376 H 0.69657 0.69307 0.11496
 H377 H 0.57261 0.61362 0.13173
 H378 H 0.54603 0.57857 0.10940
 H379 H 0.59981 0.57576 0.03556
 H380 H 0.62624 0.61070 0.05759
 C381 C 0.82646 -0.18583 0.16311
 C382 C 0.81261 -0.17760 0.18878
 C383 C 0.79439 -0.19481 0.20139
 C384 C 0.78962 -0.22047 0.18848
 C385 C 0.80409 -0.22902 0.16334
 C386 C 0.82226 -0.21196 0.15083
 C387 C 0.84458 -0.16719 0.14854
 N388 N 0.85659 -0.17506 0.12308
 N389 N 0.87231 -0.15831 0.10940
 C390 C 0.87673 -0.13287 0.12051
 N391 N 0.86480 -0.12495 0.14605
 N392 N 0.84902 -0.14175 0.15976
 C393 C 0.89425 -0.11439 0.10488
 C394 C 0.90045 -0.08861 0.11661
 C395 C 0.91752 -0.07174 0.10180
 C396 C 0.92866 -0.08033 0.07500
 C397 C 0.92212 -0.10584 0.06315
 C398 C 0.90517 -0.12266 0.07788
 H399 H 0.81540 -0.15765 0.19885
 H400 H 0.78335 -0.18758 0.22065
 H401 H 0.80122 -0.24893 0.15319
 H402 H 0.83273 -0.21917 0.13124
 H403 H 0.89235 -0.08157 0.13733
 H404 H 0.92223 -0.05215 0.11144
 H405 H 0.93033 -0.11302 0.04251
 H406 H 0.90078 -0.14227 0.06807
 C407 C 0.82445 0.31421 0.66767
 C408 C 0.81641 0.29095 0.65256
 C409 C 0.79798 0.27386 0.66450
 C410 C 0.78686 0.27926 0.69212
 C411 C 0.79587 0.30200 0.70778
 C412 C 0.81426 0.31934 0.69559
 C413 C 0.84283 0.33304 0.65371
 N414 N 0.84951 0.35695 0.66671
 N415 N 0.86543 0.37397 0.65344
 C416 C 0.87526 0.36778 0.62662
 N417 N 0.86862 0.34386 0.61378
 N418 N 0.85277 0.32693 0.62699
 C419 C 0.89292 0.38644 0.61136
 C420 C 0.90293 0.37902 0.58380
 C421 C 0.91992 0.39592 0.56927
 C422 C 0.92740 0.42076 0.58182
 C423 C 0.91718 0.42857 0.60919
 C424 C 0.90010 0.41155 0.62386
 H425 H 0.82410 0.28598 0.63117
 H426 H 0.79293 0.25601 0.65193
 H427 H 0.78772 0.30767 0.72880
 H428 H 0.82009 0.33708 0.70788
 H429 H 0.89782 0.35995 0.57338
 H430 H 0.92740 0.38933 0.54818
 H431 H 0.92264 0.44762 0.61938
 H432 H 0.89270 0.41795 0.64501
 C433 C 0.31775 -0.17571 0.66487
 C434 C 0.29231 -0.18147 0.65250
 C435 C 0.27584 -0.19971 0.66582
 C436 C 0.28436 -0.21275 0.69184
 C437 C 0.30939 -0.20646 0.70469
 C438 C 0.32599 -0.18818 0.69129
 C439 C 0.33561 -0.15722 0.64980
 N440 N 0.36053 -0.15163 0.66102
 N441 N 0.37662 -0.13538 0.64701
 C442 C 0.36848 -0.12409 0.62119
 N443 N 0.34357 -0.12966 0.61007
 N444 N 0.32751 -0.14587 0.62404
 C445 C 0.38620 -0.10601 0.60538
 C446 C 0.37747 -0.09487 0.57853
 C447 C 0.39374 -0.07746 0.56367
 C448 C 0.41913 -0.07076 0.57527
 C449 C 0.42812 -0.08207 0.60192
 C450 C 0.41181 -0.09953 0.61685
 H451 H 0.28512 -0.17207 0.63233
 H452 H 0.25634 -0.20359 0.65568
 H453 H 0.31655 -0.21620 0.72469
 H454 H 0.34542 -0.18413 0.70146
 H455 H 0.35793 -0.09944 0.56897
 H456 H 0.38630 -0.06909 0.54314
 H457 H 0.44764 -0.07723 0.61135
 H458 H 0.41920 -0.10779 0.63743
 C459 C 0.31306 0.32655 0.16723
 C460 C 0.32176 0.31237 0.19267
 C461 C 0.30463 0.29454 0.20597
 C462 C 0.27850 0.29048 0.19407
 C463 C 0.26949 0.30527 0.16914
 C464 C 0.28653 0.32307 0.15590
 C465 C 0.33164 0.34426 0.15201
 N466 N 0.32358 0.35633 0.12656
 N467 N 0.34031 0.37170 0.11240
 C468 C 0.36590 0.37570 0.12300
 N469 N 0.37399 0.36370 0.14853
 N470 N 0.35723 0.34827 0.16271
 C471 C 0.38438 0.39286 0.10694
 C472 C 0.41024 0.39871 0.11836
 C473 C 0.42715 0.41549 0.10324
 C474 C 0.41855 0.42669 0.07642
 C475 C 0.39296 0.42048 0.06484
 C476 C 0.37608 0.40382 0.07990
 H477 H 0.34204 0.31458 0.20201
 H478 H 0.31229 0.28320 0.22498
 H479 H 0.24926 0.30294 0.15972
 H480 H 0.27898 0.33381 0.13651
 H481 H 0.41732 0.39058 0.13909
 H482 H 0.44679 0.41994 0.11267
 H483 H 0.38577 0.42876 0.04419
 H484 H 0.35640 0.39968 0.07034
 C485 C 0.81129 0.18131 -0.20005
 C486 C 0.80595 0.21069 -0.19693
 C487 C 0.78964 0.22689 -0.21723
 C488 C 0.77781 0.21406 -0.24104
 C489 C 0.78398 0.18457 -0.24411
 C490 C 0.80029 0.16860 -0.22405
 C491 C 0.82823 0.16359 -0.17879
 N492 N 0.83442 0.13554 -0.18359
 N493 N 0.84951 0.11928 -0.16483
 C494 C 0.85907 0.13029 -0.14030
 N495 N 0.85286 0.15838 -0.13537
 N496 N 0.83775 0.17471 -0.15422
 C497 C 0.87642 0.11196 -0.11988
 C498 C 0.88504 0.12249 -0.09347
 C499 C 0.90238 0.10529 -0.07495
 C500 C 0.91158 0.07729 -0.08255
 C501 C 0.90248 0.06658 -0.10859
 C502 C 0.88505 0.08367 -0.12699
 H503 H 0.81426 0.22121 -0.17871
 H504 H 0.78578 0.24924 -0.21331
 H505 H 0.77716 0.17334 -0.26252
 H506 H 0.80427 0.14609 -0.22754
 H507 H 0.87868 0.14410 -0.08724
 H508 H 0.90911 0.11411 -0.05500
 H509 H 0.90918 0.04508 -0.11499
 H510 H 0.87878 0.07477 -0.14708
 C511 C 0.81840 0.67867 0.29842
 C512 C 0.81209 0.66704 0.27179
 C513 C 0.79569 0.68297 0.25170
 C514 C 0.78497 0.71099 0.25768
 C515 C 0.79235 0.72308 0.28375
 C516 C 0.80875 0.70705 0.30400
 C517 C 0.83448 0.66094 0.32023
 N518 N 0.84038 0.67147 0.34640
 N519 N 0.85447 0.65519 0.36597
 C520 C 0.86315 0.62768 0.36022
 N521 N 0.85722 0.61722 0.33407
 N522 N 0.84318 0.63347 0.31454
 C523 C 0.87932 0.60951 0.38160
 C524 C 0.88876 0.58133 0.37485
 C525 C 0.90534 0.56452 0.39418
 C526 C 0.91285 0.57544 0.42073
 C527 C 0.90273 0.60328 0.42798
 C528 C 0.88615 0.62017 0.40859
 H529 H 0.81952 0.64541 0.26649
 H530 H 0.79138 0.67318 0.23144
 H531 H 0.78493 0.74464 0.28897
 H532 H 0.81349 0.71679 0.32418
 H533 H 0.88379 0.57232 0.35437
 H534 H 0.91277 0.54310 0.38804
 H535 H 0.90821 0.61224 0.44832
 H536 H 0.87912 0.64172 0.41455
 C537 C 0.33269 0.19395 0.29996
 C538 C 0.31334 0.21662 0.30863
 C539 C 0.29399 0.22974 0.28905
 C540 C 0.29335 0.22010 0.26062
 C541 C 0.31315 0.19802 0.25174
 C542 C 0.33277 0.18523 0.27114
 C543 C 0.35168 0.17838 0.32099
 N544 N 0.37386 0.16052 0.31196
 N545 N 0.38984 0.14495 0.33062
 C546 C 0.38425 0.14643 0.35911
 N547 N 0.36223 0.16451 0.36821
 N548 N 0.34631 0.18022 0.34953
 C549 C 0.40084 0.12739 0.37942
 C550 C 0.39111 0.12320 0.40727
 C551 C 0.40548 0.10309 0.42530
 C552 C 0.42996 0.08699 0.41590
 C553 C 0.44030 0.09201 0.38857
 C554 C 0.42586 0.11191 0.37050
 H555 H 0.31284 0.22390 0.33065
 H556 H 0.27877 0.24663 0.29641
 H557 H 0.31321 0.19042 0.22983
 H558 H 0.34738 0.16785 0.26373
 H559 H 0.37190 0.13479 0.41481
 H560 H 0.39711 0.09972 0.44632
 H561 H 0.45919 0.08002 0.38078
 H562 H 0.43407 0.11475 0.34929
 C563 C 0.32580 0.69644 -0.18931
 C564 C 0.29779 0.69095 -0.19129
 C565 C 0.28061 0.70261 -0.21332
 C566 C 0.29089 0.72038 -0.23352
 C567 C 0.31847 0.72687 -0.23108
 C568 C 0.33596 0.71470 -0.20929
 C569 C 0.34436 0.68186 -0.16735
 N570 N 0.37252 0.67807 -0.17091
 N571 N 0.38888 0.66266 -0.15236
 C572 C 0.37776 0.65057 -0.12944
 N573 N 0.34968 0.65489 -0.12563
 N574 N 0.33334 0.67013 -0.14422
 C575 C 0.39536 0.63125 -0.11025
 C576 C 0.38432 0.62194 -0.08462
 C577 C 0.39959 0.60127 -0.06807
 C578 C 0.42613 0.58930 -0.07688
 C579 C 0.43771 0.59938 -0.10182
 C580 C 0.42251 0.62025 -0.11830
 H581 H 0.28933 0.67692 -0.17633
 H582 H 0.25924 0.69762 -0.21471
 H583 H 0.32670 0.74056 -0.24651
 H584 H 0.35742 0.71937 -0.20821
 H585 H 0.36356 0.63014 -0.07767
 H586 H 0.39021 0.59402 -0.04884
 H587 H 0.45822 0.59061 -0.10901
 H588 H 0.43163 0.62696 -0.13790
 C589 C 1.19208 -0.17894 -0.19288
 C590 C 1.21206 -0.16909 -0.21100
 C591 C 1.22570 -0.18692 -0.23168
 C592 C 1.21909 -0.21461 -0.23497
 C593 C 1.19933 -0.22449 -0.21675
 C594 C 1.18613 -0.20693 -0.19580
 C595 C 1.17682 -0.16017 -0.17152
 N596 N 1.16360 -0.17121 -0.14936
 N597 N 1.14853 -0.15456 -0.13093
 C598 C 1.14588 -0.12614 -0.13395
 N599 N 1.15929 -0.11504 -0.15599
 N600 N 1.17455 -0.13172 -0.17435
 C601 C 1.12741 -0.10797 -0.11454
 C602 C 1.11758 -0.08016 -0.12219
 C603 C 1.09787 -0.06412 -0.10517
 C604 C 1.08787 -0.07549 -0.08006
 C605 C 1.09861 -0.10280 -0.07177
 C606 C 1.11806 -0.11891 -0.08889
 H607 H 1.21715 -0.14765 -0.20916
 H608 H 1.24091 -0.17891 -0.24553
 H609 H 1.19421 -0.24593 -0.21861
 H610 H 1.17081 -0.21516 -0.18224
 H611 H 1.12437 -0.07112 -0.14182
 H612 H 1.09002 -0.04305 -0.11199
 H613 H 1.09136 -0.11207 -0.05247
 H614 H 1.12538 -0.14017 -0.08226
 C615 C 1.18914 0.31757 0.31248
 C616 C 1.20913 0.32779 0.29463
 C617 C 1.22266 0.31049 0.27349
 C618 C 1.21606 0.28287 0.26946
 C619 C 1.19636 0.27255 0.28747
 C620 C 1.18320 0.28963 0.30888
 C621 C 1.17383 0.33605 0.33411
 N622 N 1.15965 0.32486 0.35549
 N623 N 1.14474 0.34141 0.37415
 C624 C 1.14323 0.36989 0.37216
 N625 N 1.15757 0.38111 0.35090
 N626 N 1.17264 0.36454 0.33232
 C627 C 1.12512 0.38817 0.39185
 C628 C 1.11679 0.41652 0.38503
 C629 C 1.09768 0.43301 0.40231
 C630 C 1.08680 0.42159 0.42695
 C631 C 1.09598 0.39362 0.43442
 C632 C 1.11480 0.37704 0.41697
 H633 H 1.21424 0.34918 0.29694
 H634 H 1.23770 0.31894 0.25977
 H635 H 1.19119 0.25119 0.28504
 H636 H 1.16791 0.28110 0.32222
 H637 H 1.12432 0.42574 0.36583
 H638 H 1.09104 0.45455 0.39611
 H639 H 1.08797 0.38427 0.45331
 H640 H 1.12095 0.35534 0.42295
 C641 C 0.68949 -0.17453 0.29700
 C642 C 0.68286 -0.17202 0.26768
 C643 C 0.69794 -0.18907 0.24755
 C644 C 0.72001 -0.20898 0.25624
 C645 C 0.72802 -0.21016 0.28519
 C646 C 0.71286 -0.19308 0.30546
 C647 C 0.67074 -0.15949 0.31847
 N648 N 0.67718 -0.16047 0.34688
 N649 N 0.65936 -0.14820 0.36613
 C650 C 0.63428 -0.13469 0.35775
 N651 N 0.62796 -0.13364 0.32937
 N652 N 0.64577 -0.14579 0.31017
 C653 C 0.61426 -0.12099 0.37887
 C654 C 0.58699 -0.11074 0.37021
 C655 C 0.56854 -0.09610 0.38941
 C656 C 0.57698 -0.09123 0.41766
 C657 C 0.60382 -0.10240 0.42674
 C658 C 0.62228 -0.11723 0.40753
 H659 H 0.66530 -0.15765 0.26030
 H660 H 0.69162 -0.18751 0.22524
 H661 H 0.74474 -0.22548 0.29244
 H662 H 0.71863 -0.19541 0.32786
 H663 H 0.57999 -0.11356 0.34839
 H664 H 0.54796 -0.08781 0.38182
 H665 H 0.61084 -0.09897 0.44844
 H666 H 0.64308 -0.12499 0.41493
 C667 C 0.68741 0.32818 -0.20572
 C668 C 0.71399 0.31436 -0.19893
 C669 C 0.72896 0.29693 -0.21919
 C670 C 0.71726 0.29237 -0.24637
 C671 C 0.69164 0.30812 -0.25357
 C672 C 0.67705 0.32569 -0.23365
 C673 C 0.66948 0.34379 -0.18386
 N674 N 0.64334 0.35535 -0.19113
 N675 N 0.62622 0.36796 -0.17160
 C676 C 0.63438 0.36956 -0.14383
 N677 N 0.66063 0.35822 -0.13646
 N678 N 0.67782 0.34549 -0.15607
 C679 C 0.61485 0.38359 -0.12238
 C680 C 0.62366 0.38857 -0.09421
 C681 C 0.60535 0.40329 -0.07475
 C682 C 0.57791 0.41323 -0.08309
 C683 C 0.56883 0.40734 -0.11086
 C684 C 0.58707 0.39274 -0.13028
 H685 H 0.72277 0.31617 -0.17767
 H686 H 0.74857 0.28555 -0.21255
 H687 H 0.68255 0.30703 -0.27475
 H688 H 0.65707 0.33665 -0.24006
 H689 H 0.64486 0.38169 -0.08739
 H690 H 0.61290 0.40754 -0.05343
 H691 H 0.54778 0.41465 -0.11788
 H692 H 0.57942 0.38904 -0.15168
 C693 C 1.18302 0.17132 -0.16078
 C694 C 1.19177 0.16463 -0.18888
 C695 C 1.20883 0.18156 -0.20341
 C696 C 1.21827 0.20526 -0.19002
 C697 C 1.20859 0.21242 -0.16220
 C698 C 1.19151 0.19551 -0.14769
 C699 C 1.16456 0.15365 -0.14546
 N700 N 1.15513 0.16086 -0.11878
 N701 N 1.13817 0.14531 -0.10515
 C702 C 1.12993 0.12183 -0.11759
 N703 N 1.13946 0.11452 -0.14423
 N704 N 1.15642 0.13010 -0.15788
 C705 C 1.11044 0.10501 -0.10263
 C706 C 1.10221 0.08038 -0.11516
 C707 C 1.08304 0.06517 -0.10139
 C708 C 1.07169 0.07434 -0.07488
 C709 C 1.08022 0.09865 -0.06214
 C710 C 1.09940 0.11380 -0.07583
 H711 H 1.18515 0.14649 -0.19988
 H712 H 1.21430 0.17620 -0.22537
 H713 H 1.21371 0.23137 -0.15162
 H714 H 1.18470 0.20166 -0.12627
 H715 H 1.11036 0.07296 -0.13574
 H716 H 1.07685 0.04646 -0.11166
 H717 H 1.07188 0.10616 -0.04166
 H718 H 1.10529 0.13261 -0.06550
 C719 C 1.17850 0.67331 0.34107
 C720 C 1.18802 0.69688 0.35445
 C721 C 1.20473 0.71398 0.33968
 C722 C 1.21287 0.70769 0.31120
 C723 C 1.20240 0.68465 0.29758
 C724 C 1.18575 0.66751 0.31238
 C725 C 1.16065 0.65530 0.35682
 N726 N 1.15215 0.63191 0.34439
 N727 N 1.13586 0.61596 0.35849
 C728 C 1.12737 0.62272 0.38561
 N729 N 1.13596 0.64605 0.39804
 N730 N 1.15226 0.66197 0.38397
 C731 C 1.10863 0.60547 0.40111
 C732 C 1.09814 0.61403 0.42820
 C733 C 1.07962 0.59850 0.44242
 C734 C 1.07122 0.57400 0.42996
 C735 C 1.08207 0.56503 0.40318
 C736 C 1.10055 0.58065 0.38886
 H737 H 1.18238 0.70234 0.37636
 H738 H 1.21061 0.73238 0.35065
 H739 H 1.20700 0.67991 0.27528
 H740 H 1.17836 0.64985 0.30120
 H741 H 1.10393 0.63298 0.43833
 H742 H 1.07166 0.60587 0.46310
 H743 H 1.07595 0.54619 0.39310
 H744 H 1.10830 0.57338 0.36808
 C745 C 0.67233 0.18306 0.34689
 C746 C 0.66878 0.18876 0.31755
 C747 C 0.68686 0.20471 0.30334
 C748 C 0.70877 0.21586 0.31808
 C749 C 0.71240 0.20995 0.34750
 C750 C 0.69432 0.19385 0.36171
 C751 C 0.65383 0.16509 0.36161
 N752 N 0.65891 0.15699 0.38917
 N753 N 0.64293 0.13989 0.40202
 C754 C 0.62116 0.13023 0.38788
 N755 N 0.61590 0.13856 0.36041
 N756 N 0.63190 0.15563 0.34755
 C757 C 0.60431 0.11010 0.40172
 C758 C 0.58103 0.10095 0.38761
 C759 C 0.56612 0.08077 0.40015
 C760 C 0.57433 0.06930 0.42692
 C761 C 0.59720 0.07884 0.44127
 C762 C 0.61199 0.09906 0.42885
 H763 H 0.65227 0.18054 0.30535
 H764 H 0.68388 0.20819 0.28055
 H765 H 0.72941 0.21698 0.35972
 H766 H 0.69782 0.18958 0.38429
 H767 H 0.57448 0.10911 0.36673
 H768 H 0.54849 0.07381 0.38869
 H769 H 0.60388 0.07047 0.46204
 H770 H 0.62976 0.10565 0.44035
 C771 C 0.67363 0.68033 -0.15517
 C772 C 0.69056 0.69731 -0.13985
 C773 C 0.70861 0.71338 -0.15418
 C774 C 0.71088 0.71228 -0.18440
 C775 C 0.69311 0.69565 -0.19951
 C776 C 0.67496 0.67988 -0.18517
 C777 C 0.65465 0.66313 -0.14007
 N778 N 0.63504 0.65051 -0.15482
 N779 N 0.61845 0.63439 -0.14144
 C780 C 0.62083 0.63013 -0.11274
 N781 N 0.64033 0.64288 -0.09795
 N782 N 0.65686 0.65910 -0.11132
 C783 C 0.60335 0.61106 -0.09813
 C784 C 0.60982 0.60195 -0.07003
 C785 C 0.59453 0.58250 -0.05690
 C786 C 0.57230 0.57195 -0.07146
 C787 C 0.56520 0.58165 -0.09917
 C788 C 0.58067 0.60093 -0.11245
 H789 H 0.68956 0.69857 -0.11669
 H790 H 0.72008 0.72699 -0.14124
 H791 H 0.69313 0.69499 -0.22273
 H792 H 0.66200 0.66724 -0.19770
 H793 H 0.62712 0.60932 -0.05838
 H794 H 0.60034 0.57547 -0.03542
 H795 H 0.54811 0.57387 -0.11083
 H796 H 0.57504 0.60766 -0.13405
 C797 C 0.82198 -0.18744 -0.16285
 C798 C 0.82122 -0.19068 -0.19275
 C799 C 0.80326 -0.20827 -0.20569
 C800 C 0.78524 -0.22303 -0.18906
 C801 C 0.78640 -0.21947 -0.15896
 C802 C 0.80447 -0.20222 -0.14620
 C803 C 0.84060 -0.16873 -0.14868
 N804 N 0.84474 -0.17004 -0.11988
 N805 N 0.86099 -0.15316 -0.10675
 C806 C 0.87377 -0.13405 -0.12177
 N807 N 0.86966 -0.13266 -0.15063
 N808 N 0.85344 -0.14968 -0.16382
 C809 C 0.89192 -0.11544 -0.10674
 C810 C 0.90135 -0.09218 -0.12054
 C811 C 0.91858 -0.07493 -0.10601
 C812 C 0.92693 -0.08082 -0.07755
 C813 C 0.91738 -0.10393 -0.06378
 C814 C 0.90001 -0.12093 -0.07812
 H815 H 0.83468 -0.17975 -0.20622
 H816 H 0.80427 -0.21024 -0.22869
 H817 H 0.77268 -0.22902 -0.14469
 H818 H 0.80420 -0.20003 -0.12309
 H819 H 0.89541 -0.08728 -0.14252
 H820 H 0.92570 -0.05728 -0.11717
 H821 H 0.92342 -0.10898 -0.04184
 H822 H 0.89320 -0.13864 -0.06679
 C823 C 0.82467 0.31328 0.33891
 C824 C 0.82068 0.28703 0.35072
 C825 C 0.80244 0.27001 0.33783
 C826 C 0.78770 0.27875 0.31278
 C827 C 0.79228 0.30452 0.30033
 C828 C 0.81055 0.32168 0.31331
 C829 C 0.84283 0.33187 0.35388
 N830 N 0.84711 0.35738 0.34303
 N831 N 0.86293 0.37416 0.35707
 C832 C 0.87505 0.36617 0.38259
 N833 N 0.87079 0.34067 0.39334
 N834 N 0.85503 0.32392 0.37932
 C835 C 0.89262 0.38466 0.39853
 C836 C 0.90382 0.37641 0.42550
 C837 C 0.92085 0.39329 0.44046
 C838 C 0.92718 0.41882 0.42883
 C839 C 0.91575 0.42739 0.40208
 C840 C 0.89861 0.41047 0.38706
 H841 H 0.83136 0.27969 0.37023
 H842 H 0.79973 0.25001 0.34762
 H843 H 0.78102 0.31189 0.28115
 H844 H 0.81318 0.34173 0.30360
 H845 H 0.89958 0.35676 0.43510
 H846 H 0.92931 0.38614 0.46106
 H847 H 0.92029 0.44700 0.39261
 H848 H 0.89030 0.41751 0.36638
 C849 C 0.31456 -0.18052 0.33575
 C850 C 0.32205 -0.19311 0.30917
 C851 C 0.30490 -0.21114 0.29580
 C852 C 0.28003 -0.21713 0.30882
 C853 C 0.27226 -0.20397 0.33502
 C854 C 0.28928 -0.18595 0.34830
 C855 C 0.33299 -0.16217 0.35069
 N856 N 0.32541 -0.15027 0.37636
 N857 N 0.34194 -0.13412 0.39016
 C858 C 0.36685 -0.12915 0.37895
 N859 N 0.37448 -0.14102 0.35323
 N860 N 0.35791 -0.15720 0.33940
 C861 C 0.38508 -0.11102 0.39448
 C862 C 0.41094 -0.10563 0.38314
 C863 C 0.42769 -0.08802 0.39770
 C864 C 0.41890 -0.07543 0.42385
 C865 C 0.39328 -0.08108 0.43537
 C866 C 0.37658 -0.09866 0.42088
 H867 H 0.34132 -0.18930 0.29883
 H868 H 0.31152 -0.22091 0.27567
 H869 H 0.25290 -0.20754 0.34532
 H870 H 0.28265 -0.17645 0.36860
 H871 H 0.41818 -0.11485 0.36291
 H872 H 0.44737 -0.08403 0.38832
 H873 H 0.38598 -0.07171 0.45551
 H874 H 0.35686 -0.10236 0.43034
 C875 C 0.32045 0.31434 -0.16404
 C876 C 0.29927 0.30294 -0.14904
 C877 C 0.28214 0.28532 -0.16272
 C878 C 0.28548 0.27840 -0.19205
 C879 C 0.30660 0.29028 -0.20716
 C880 C 0.32389 0.30786 -0.19328
 C881 C 0.33859 0.33290 -0.14901
 N882 N 0.36061 0.34256 -0.16236
 N883 N 0.37675 0.35921 -0.14856
 C884 C 0.37152 0.36690 -0.12085
 N885 N 0.34953 0.35721 -0.10757
 N886 N 0.33346 0.34057 -0.12132
 C887 C 0.38901 0.38578 -0.10538
 C888 C 0.38141 0.39578 -0.07781
 C889 C 0.39725 0.41415 -0.06334
 C890 C 0.42116 0.42288 -0.07599
 C891 C 0.42914 0.41260 -0.10332
 C892 C 0.41317 0.39429 -0.11793
 H893 H 0.29577 0.30765 -0.12654
 H894 H 0.26569 0.27798 -0.15011
 H895 H 0.31080 0.28544 -0.22943
 H896 H 0.34006 0.31628 -0.20551
 H897 H 0.36297 0.38969 -0.06744
 H898 H 0.39062 0.42167 -0.04226
 H899 H 0.44750 0.41901 -0.11357
 H900 H 0.41968 0.38691 -0.13908
 C901 C 1.18768 -0.18269 0.19277
 C902 C 1.20837 -0.17337 0.21073
 C903 C 1.22162 -0.19124 0.23162
 C904 C 1.21394 -0.21845 0.23531
 C905 C 1.19340 -0.22780 0.21729
 C906 C 1.18056 -0.21020 0.19613
 C907 C 1.17298 -0.16385 0.17104
 N908 N 1.15887 -0.17471 0.14911
 N909 N 1.14449 -0.15789 0.13026
 C910 C 1.14346 -0.12946 0.13260
 N911 N 1.15773 -0.11856 0.15443
 N912 N 1.17229 -0.13541 0.17321
 C913 C 1.12584 -0.11093 0.11265
 C914 C 1.11754 -0.08259 0.11969
 C915 C 1.09866 -0.06599 0.10215
 C916 C 1.08799 -0.07730 0.07709
 C917 C 1.09724 -0.10522 0.06939
 C918 C 1.11583 -0.12191 0.08706
 H919 H 1.21437 -0.15232 0.20857
 H920 H 1.23741 -0.18360 0.24531
 H921 H 1.18743 -0.24887 0.21943
 H922 H 1.16468 -0.21803 0.18271
 H923 H 1.12485 -0.07350 0.13925
 H924 H 1.09195 -0.04448 0.10854
 H925 H 1.08942 -0.11450 0.05016
 H926 H 1.12199 -0.14359 0.08089
 C927 C 1.19129 0.31854 0.69589
 C928 C 1.18494 0.29065 0.69800
 C929 C 1.19818 0.27251 0.71846
 C930 C 1.21837 0.28171 0.73699
 C931 C 1.22535 0.30931 0.73454
 C932 C 1.21166 0.32773 0.71435
 C933 C 1.17611 0.33783 0.67488
 N934 N 1.17405 0.36623 0.67847
 N935 N 1.15891 0.38333 0.66033
 C936 C 1.14543 0.37272 0.63775
 N937 N 1.14787 0.34436 0.63400
 N938 N 1.16281 0.32729 0.65220
 C939 C 1.12715 0.39131 0.61845
 C940 C 1.11785 0.38079 0.59234
 C941 C 1.09857 0.39723 0.57522
 C942 C 1.08794 0.42448 0.58393
 C943 C 1.09791 0.43546 0.60952
 C944 C 1.11745 0.41907 0.62656
 H945 H 1.16932 0.28292 0.68417
 H946 H 1.19276 0.25116 0.71968
 H947 H 1.24091 0.31678 0.74863
 H948 H 1.21706 0.34908 0.71312
 H949 H 1.12508 0.35959 0.58533
 H950 H 1.09137 0.38824 0.55555
 H951 H 1.09013 0.45646 0.61668
 H952 H 1.12421 0.42779 0.64655
 C953 C 0.68211 -0.17467 0.70899
 C954 C 0.67137 -0.17959 0.73614
 C955 C 0.68684 -0.19705 0.75567
 C956 C 0.71369 -0.21020 0.74881
 C957 C 0.72522 -0.20366 0.72226
 C958 C 0.70949 -0.18631 0.70252
 C959 C 0.66411 -0.15861 0.68739
 N960 N 0.67308 -0.15538 0.66018
 N961 N 0.65621 -0.14202 0.64061
 C962 C 0.62966 -0.13145 0.64741
 N963 N 0.62080 -0.13459 0.67464
 N964 N 0.63763 -0.14791 0.69415
 C965 C 0.61071 -0.11656 0.62583
 C966 C 0.58335 -0.10564 0.63336
 C967 C 0.56581 -0.09051 0.61353
 C968 C 0.57519 -0.08594 0.58573
 C969 C 0.60219 -0.09753 0.57785
 C970 C 0.61978 -0.11268 0.59770
 H971 H 0.65060 -0.17052 0.74219
 H972 H 0.67752 -0.20006 0.77630
 H973 H 0.74550 -0.21340 0.71555
 H974 H 0.71848 -0.18276 0.68183
 H975 H 0.57556 -0.10837 0.65476
 H976 H 0.54509 -0.08185 0.62020
 H977 H 0.60998 -0.09434 0.55653
 H978 H 0.64064 -0.12093 0.59111
 C979 C 0.68724 0.32675 0.20526
 C980 C 0.71084 0.30867 0.19667
 C981 C 0.72583 0.29095 0.21658
 C982 C 0.71740 0.29097 0.24527
 C983 C 0.69503 0.31037 0.25418
 C984 C 0.68012 0.32807 0.23443
 C985 C 0.66884 0.34262 0.18393
 N986 N 0.64403 0.35659 0.19214
 N987 N 0.62652 0.36951 0.17298
 C988 C 0.63301 0.36899 0.14471
 N989 N 0.65793 0.35522 0.13645
 N990 N 0.67545 0.34220 0.15565
 C991 C 0.61329 0.38337 0.12357
 C992 C 0.62132 0.38670 0.09499
 C993 C 0.60309 0.40173 0.07562
 C994 C 0.57647 0.41356 0.08443
 C995 C 0.56806 0.40933 0.11266
 C996 C 0.58629 0.39447 0.13203
 H997 H 0.71701 0.30726 0.17440
 H998 H 0.74287 0.27613 0.20915
 H999 H 0.68841 0.31113 0.27634
 H1000 H 0.66237 0.34205 0.24193
 H1001 H 0.64191 0.37831 0.08774
 H1002 H 0.61009 0.40467 0.05394
 H1003 H 0.54764 0.41817 0.12004
 H1004 H 0.57929 0.39204 0.15379
 C1005 C 0.81669 0.17874 0.20235
 C1006 C 0.81074 0.16720 0.22894
 C1007 C 0.79410 0.18300 0.24885
 C1008 C 0.78277 0.21077 0.24273
 C1009 C 0.78972 0.22279 0.21669
 C1010 C 0.80637 0.20689 0.19662
 C1011 C 0.83312 0.16111 0.18077
 N1012 N 0.83885 0.17154 0.15469
 N1013 N 0.85329 0.15532 0.13534
 C1014 C 0.86250 0.12800 0.14124
 N1015 N 0.85673 0.11765 0.16730
 N1016 N 0.84234 0.13382 0.18660
 C1017 C 0.87907 0.10990 0.12014
 C1018 C 0.88893 0.08190 0.12705
 C1019 C 0.90585 0.06517 0.10803
 C1020 C 0.91329 0.07598 0.08162
 C1021 C 0.90277 0.10363 0.07420
 C1022 C 0.88584 0.12046 0.09329
 H1023 H 0.81866 0.14576 0.23436
 H1024 H 0.79008 0.17331 0.26910
 H1025 H 0.78174 0.24415 0.21139
 H1026 H 0.81080 0.21654 0.17646
 H1027 H 0.88402 0.07297 0.14744
 H1028 H 0.91358 0.04390 0.11429
 H1029 H 0.90819 0.11250 0.05395
 H1030 H 0.87849 0.14187 0.08721
 C1031 C 0.81064 0.69038 0.69321
 C1032 C 0.78534 0.68058 0.70051
 C1033 C 0.76866 0.69389 0.72197
 C1034 C 0.77634 0.71803 0.73615
 C1035 C 0.80105 0.72880 0.72752
 C1036 C 0.81837 0.71467 0.70673
 C1037 C 0.82933 0.67408 0.67274
 N1038 N 0.85709 0.66856 0.67841
 N1039 N 0.87346 0.65135 0.66148
 C1040 C 0.86273 0.63926 0.63807
 N1041 N 0.83507 0.64520 0.63213
 N1042 N 0.81864 0.66206 0.64929
 C1043 C 0.88056 0.61920 0.62005
 C1044 C 0.87635 0.61830 0.59026
 C1045 C 0.89350 0.59946 0.57322
 C1046 C 0.91448 0.58058 0.58582
 C1047 C 0.91819 0.58097 0.61568
 C1048 C 0.90165 0.60041 0.63260
 H1049 H 0.77891 0.66191 0.69032
 H1050 H 0.74937 0.68538 0.72698
 H1051 H 0.80810 0.74698 0.73800
 H1052 H 0.83788 0.72257 0.70136
 H1053 H 0.86019 0.63259 0.58012
 H1054 H 0.89034 0.59957 0.55022
 H1055 H 0.93441 0.56678 0.62584
 H1056 H 0.90511 0.60055 0.65556
 C1057 C 0.32441 0.19320 0.68799
 C1058 C 0.33372 0.21267 0.70755
 C1059 C 0.31621 0.22401 0.72958
 C1060 C 0.28948 0.21547 0.73274
 C1061 C 0.28008 0.19635 0.71302
 C1062 C 0.29725 0.18552 0.69074
 C1063 C 0.34306 0.17980 0.66555
 N1064 N 0.33217 0.16728 0.64253
 N1065 N 0.34877 0.15317 0.62343
 C1066 C 0.37698 0.15083 0.62658
 N1067 N 0.38792 0.16369 0.64940
 N1068 N 0.37130 0.17798 0.66845
 C1069 C 0.39508 0.13267 0.60683
 C1070 C 0.42275 0.12291 0.61455
 C1071 C 0.43853 0.10283 0.59765
 C1072 C 0.42704 0.09234 0.57259
 C1073 C 0.39998 0.10322 0.56404
 C1074 C 0.38411 0.12308 0.58105
 H1075 H 0.35453 0.21903 0.70587
 H1076 H 0.32379 0.23877 0.74460
 H1077 H 0.25935 0.18979 0.71486
 H1078 H 0.28947 0.17051 0.67612
 H1079 H 0.43183 0.12988 0.63425
 H1080 H 0.45943 0.09491 0.60464
 H1081 H 0.39063 0.09561 0.54475
 H1082 H 0.36296 0.13035 0.57436
 C1083 C 0.32013 0.69050 0.19110
 C1084 C 0.32959 0.71040 0.21006
 C1085 C 0.31203 0.72275 0.23157
 C1086 C 0.28505 0.71488 0.23481
 C1087 C 0.27550 0.69530 0.21569
 C1088 C 0.29275 0.68340 0.19393
 C1089 C 0.33877 0.67623 0.16912
 N1090 N 0.32790 0.66301 0.14655
 N1091 N 0.34451 0.64846 0.12776
 C1092 C 0.37273 0.64635 0.13079
 N1093 N 0.38366 0.65984 0.15319
 N1094 N 0.36702 0.67457 0.17193
 C1095 C 0.39090 0.62808 0.11119
 C1096 C 0.41869 0.61874 0.11882
 C1097 C 0.43473 0.59891 0.10184
 C1098 C 0.42338 0.58830 0.07677
 C1099 C 0.39610 0.59864 0.06841
 C1100 C 0.37998 0.61822 0.08551
 H1101 H 0.35056 0.71634 0.20832
 H1102 H 0.31977 0.73779 0.24613
 H1103 H 0.25460 0.68920 0.21760
 H1104 H 0.28483 0.66810 0.17975
 H1105 H 0.42772 0.62591 0.13847
 H1106 H 0.45577 0.59139 0.10871
 H1107 H 0.38685 0.59091 0.04913
 H1108 H 0.35873 0.62516 0.07889
   
