data_POSCAR
  _audit_creation_date              2014-09-24
  _audit_creation_method            'ToBaCCo'
  _symmetry_space_group_name_H-M    'P1'
  _symmetry_Int_Tables_number       1
  _symmetry_cell_setting            triclinic
  loop_
  _symmetry_equiv_pos_as_xyz
 x,y,z
_cell_length_a 45.6468
_cell_length_b 45.4092
_cell_length_c 46.2327
_cell_angle_alpha 90.704700
_cell_angle_beta 90.160300
_cell_angle_gamma 89.978600
loop_
  _atom_site_label
  _atom_site_type_symbol
  _atom_site_fract_x
  _atom_site_fract_y
  _atom_site_fract_z
N1 N 0.58846 0.66937 0.61497
 N2 N 0.57663 0.65541 0.63677
 C3 C 0.55184 0.66943 0.64473
 C4 C 0.54810 0.69358 0.62710
 C5 C 0.57180 0.69285 0.60850
 H6 H 0.53777 0.66285 0.66227
 H7 H 0.57633 0.70801 0.59124
 Cu8 Cu 0.59534 0.62074 0.65286
 Cu9 Cu 0.62404 0.65556 0.59592
 Cu10 Cu 0.65686 0.59296 0.62359
 N11 N 0.61400 0.58579 0.66843
 N12 N 0.63815 0.57521 0.65693
 C13 C 0.64684 0.55154 0.67189
 C14 C 0.62708 0.54682 0.69418
 C15 C 0.60646 0.56913 0.69113
 H16 H 0.66629 0.53896 0.66686
 H17 H 0.58751 0.57320 0.70452
 N18 N 0.67236 0.61416 0.58998
 N19 N 0.66001 0.63809 0.57958
 C20 C 0.67554 0.64719 0.55664
 C21 C 0.69884 0.62807 0.55229
 C22 C 0.69606 0.60743 0.57393
 H23 H 0.67004 0.66618 0.54388
 H24 H 0.71022 0.58882 0.57777
 H25 H 0.61942 0.61159 0.60664
 H26 H 0.64194 0.63503 0.63161
 N27 N 0.90888 0.32797 0.11125
 N28 N 0.92031 0.33918 0.13505
 C29 C 0.94429 0.32353 0.14216
 C30 C 0.94820 0.30118 0.12168
 C31 C 0.92513 0.30488 0.10239
 H32 H 0.95786 0.32824 0.16082
 H33 H 0.92026 0.29183 0.08329
 Cu34 Cu 0.90280 0.37324 0.15438
 Cu35 Cu 0.87377 0.34397 0.09335
 Cu36 Cu 0.84295 0.40539 0.12615
 N37 N 0.88563 0.40848 0.17190
 N38 N 0.86222 0.42075 0.16067
 C39 C 0.85467 0.44437 0.17676
 C40 C 0.87435 0.44729 0.19949
 C41 C 0.89378 0.42404 0.19562
 H42 H 0.83611 0.45832 0.17213
 H43 H 0.91234 0.41870 0.20914
 N44 N 0.82655 0.38673 0.09107
 N45 N 0.83821 0.36331 0.07851
 C46 C 0.82214 0.35608 0.05498
 C47 C 0.79925 0.37598 0.05255
 C48 C 0.80283 0.39506 0.07589
 H49 H 0.82697 0.33789 0.04049
 H50 H 0.78917 0.41368 0.08148
 H51 H 0.88011 0.38649 0.10856
 H52 H 0.85618 0.36214 0.13064
 N53 N 0.40828 0.17363 -0.11114
 N54 N 0.42120 0.16127 -0.13358
 C55 C 0.44463 0.17754 -0.14091
 C56 C 0.44633 0.20153 -0.12223
 C57 C 0.42283 0.19838 -0.10366
 H58 H 0.45917 0.17258 -0.15873
 H59 H 0.41708 0.21272 -0.08572
 Cu60 Cu 0.40563 0.12557 -0.15143
 Cu61 Cu 0.37439 0.15603 -0.09251
 Cu62 Cu 0.34757 0.09116 -0.12282
 N63 N 0.38967 0.08984 -0.16890
 N64 N 0.36733 0.07617 -0.15725
 C65 C 0.36067 0.05226 -0.17347
 C66 C 0.37973 0.05097 -0.19669
 C67 C 0.39782 0.07522 -0.19309
 H68 H 0.34277 0.03739 -0.16914
 H69 H 0.41560 0.08166 -0.20703
 N70 N 0.33048 0.10990 -0.08808
 N71 N 0.34042 0.13478 -0.07676
 C72 C 0.32403 0.14201 -0.05356
 C73 C 0.30268 0.12067 -0.05001
 C74 C 0.30752 0.10067 -0.07238
 H75 H 0.32755 0.16132 -0.04013
 H76 H 0.29517 0.08089 -0.07702
 H77 H 0.38311 0.11331 -0.10537
 H78 H 0.35810 0.13491 -0.12901
 N79 N 0.09374 0.82634 0.38292
 N80 N 0.08015 0.83994 0.36187
 C81 C 0.05580 0.82480 0.35468
 C82 C 0.05407 0.80003 0.37194
 C83 C 0.07875 0.80181 0.38957
 H84 H 0.04077 0.83119 0.33781
 H85 H 0.08506 0.78690 0.40653
 Cu86 Cu 0.09624 0.87560 0.34533
 Cu87 Cu 0.12895 0.84247 0.40123
 Cu88 Cu 0.15701 0.90693 0.37245
 N89 N 0.11234 0.91127 0.32879
 N90 N 0.13626 0.92334 0.33943
 C91 C 0.14303 0.94727 0.32392
 C92 C 0.12224 0.95046 0.30225
 C93 C 0.10309 0.92713 0.30610
 H94 H 0.16176 0.96123 0.32815
 H95 H 0.08405 0.92182 0.29313
 N96 N 0.17477 0.88690 0.40581
 N97 N 0.16420 0.86240 0.41673
 C98 C 0.18073 0.85473 0.43962
 C99 C 0.20286 0.87535 0.44333
 C100 C 0.19831 0.89538 0.42139
 H101 H 0.17665 0.83573 0.45284
 H102 H 0.21098 0.91493 0.41719
 H103 H 0.12148 0.88598 0.39079
 H104 H 0.14432 0.86386 0.36514
 C105 C 0.10573 0.14877 0.12487
 C106 C 0.12816 0.14673 0.10420
 C107 C 0.14919 0.12417 0.10543
 C108 C 0.14763 0.10355 0.12780
 C109 C 0.12535 0.10519 0.14867
 C110 C 0.10459 0.12799 0.14708
 H111 H 0.12905 0.16257 0.08690
 H112 H 0.16364 0.08598 0.12880
 H113 H 0.08726 0.12936 0.16299
 C114 C 0.39332 0.84999 0.62703
 C115 C 0.37204 0.85100 0.60506
 C116 C 0.35228 0.87467 0.60351
 C117 C 0.35377 0.89722 0.62457
 C118 C 0.37470 0.89632 0.64685
 C119 C 0.39445 0.87268 0.64789
 H120 H 0.37163 0.83386 0.58856
 H121 H 0.33821 0.91523 0.62403
 H122 H 0.41085 0.87202 0.66486
 C123 C 0.90045 0.64461 0.37852
 C124 C 0.90045 0.62107 0.35857
 C125 C 0.87813 0.59977 0.35898
 C126 C 0.85635 0.60173 0.38040
 C127 C 0.85621 0.62502 0.40068
 C128 C 0.87829 0.64647 0.39942
 H129 H 0.91704 0.62023 0.34186
 H130 H 0.83912 0.58535 0.38096
 H131 H 0.87855 0.66450 0.41500
 C132 C 0.60321 0.35554 -0.12636
 C133 C 0.62527 0.35551 -0.10514
 C134 C 0.64789 0.37646 -0.10557
 C135 C 0.64867 0.39699 -0.12804
 C136 C 0.62696 0.39712 -0.14963
 C137 C 0.60411 0.37648 -0.14844
 H138 H 0.62418 0.33984 -0.08769
 H139 H 0.66617 0.41308 -0.12864
 H140 H 0.58741 0.37615 -0.16514
 C141 C 0.01502 0.23690 0.11902
 C142 C -0.00630 0.23737 0.09712
 C143 C -0.02835 0.25862 0.09796
 C144 C -0.02952 0.27960 0.12063
 C145 C -0.00775 0.27811 0.14224
 N146 N 0.01346 0.25710 0.14093
 C147 C 0.03864 0.21452 0.11948
 N148 N 0.05119 0.20753 0.14526
 C149 C 0.07268 0.18692 0.14749
 C150 C 0.08291 0.17199 0.12272
 C151 C 0.07067 0.17925 0.09586
 C152 C 0.04866 0.20048 0.09413
 H153 H -0.04441 0.25826 0.08075
 H154 H -0.00739 0.29340 0.16031
 H155 H 0.08187 0.18237 0.16857
 H156 H 0.07778 0.16819 0.07622
 H157 H -0.00650 0.22118 0.07977
 H158 H 0.03993 0.20593 0.07309
 C159 C 0.47916 0.75733 0.62857
 C160 C 0.47407 0.72916 0.63969
 C161 C 0.49663 0.70837 0.63946
 C162 C 0.52409 0.71547 0.62790
 C163 C 0.52827 0.74391 0.61711
 N164 N 0.50611 0.76389 0.61792
 C165 C 0.45629 0.78036 0.62866
 N166 N 0.46455 0.80908 0.63120
 C167 C 0.44485 0.83152 0.63110
 C168 C 0.41486 0.82563 0.62776
 C169 C 0.40584 0.79624 0.62471
 C170 C 0.42646 0.77352 0.62531
 H171 H 0.49245 0.68669 0.64799
 H172 H 0.54923 0.75047 0.60842
 H173 H 0.45267 0.85395 0.63312
 H174 H 0.38287 0.79088 0.62203
 H175 H 0.45310 0.72335 0.64889
 H176 H 0.41915 0.75099 0.62254
 C177 C 0.98802 0.73517 0.37241
 C178 C 0.98419 0.76055 0.35590
 C179 C 1.00616 0.78184 0.35546
 C180 C 1.03201 0.77826 0.37176
 C181 C 1.03494 0.75225 0.38786
 N182 N 1.01332 0.73162 0.38757
 C183 C 0.96510 0.71229 0.37364
 N184 N 0.97297 0.68339 0.37494
 C185 C 0.95278 0.66140 0.37616
 C186 C 0.92278 0.66810 0.37677
 C187 C 0.91423 0.69772 0.37584
 C188 C 0.93529 0.71985 0.37409
 H189 H 1.00238 0.80126 0.34269
 H190 H 1.05443 0.74793 0.40043
 H191 H 0.96012 0.63876 0.37708
 H192 H 0.89125 0.70367 0.37622
 H193 H 0.96452 0.76381 0.34319
 H194 H 0.92833 0.74263 0.37366
 C195 C 0.51075 0.26978 -0.12253
 C196 C 0.48298 0.27554 -0.11078
 C197 C 0.46199 0.25320 -0.11047
 C198 C 0.46848 0.22529 -0.12211
 C199 C 0.49654 0.22042 -0.13355
 N200 N 0.51676 0.24240 -0.13326
 C201 C 0.53384 0.29253 -0.12313
 N202 N 0.56237 0.28418 -0.12051
 C203 C 0.58476 0.30389 -0.12118
 C204 C 0.57901 0.33390 -0.12527
 C205 C 0.54981 0.34295 -0.12840
 C206 C 0.52716 0.32238 -0.12717
 H207 H 0.44062 0.25788 -0.10142
 H208 H 0.50259 0.19910 -0.14238
 H209 H 0.60705 0.29606 -0.11895
 H210 H 0.54454 0.36595 -0.13156
 H211 H 0.47766 0.29686 -0.10148
 H212 H 0.50477 0.32971 -0.12994
 C213 C 0.11930 0.01651 0.23676
 C214 C 0.09590 -0.00333 0.23948
 C215 C 0.09678 -0.02467 0.26090
 C216 C 0.12096 -0.02661 0.27962
 C217 C 0.14400 -0.00647 0.27603
 N218 N 0.14264 0.01415 0.25498
 C219 C 0.11980 0.03943 0.21418
 N220 N 0.14605 0.05095 0.20614
 C221 C 0.14838 0.07188 0.18549
 C222 C 0.12322 0.08263 0.17159
 C223 C 0.09591 0.07132 0.17980
 C224 C 0.09408 0.04992 0.20109
 H225 H 0.07846 -0.03961 0.26263
 H226 H 0.16324 -0.00713 0.28969
 H227 H 0.16985 0.08029 0.18017
 H228 H 0.07595 0.07877 0.16952
 H229 H 0.07728 -0.00295 0.22499
 H230 H 0.07267 0.04211 0.20730
 C231 C 0.63029 0.48181 -0.24141
 C232 C 0.65216 0.48263 -0.26264
 C233 C 0.65104 0.50399 -0.28402
 C234 C 0.62811 0.52474 -0.28460
 C235 C 0.60636 0.52271 -0.26313
 N236 N 0.60800 0.50166 -0.24254
 C237 C 0.63038 0.45971 -0.21810
 N238 N 0.60467 0.45304 -0.20483
 C239 C 0.60300 0.43315 -0.18315
 C240 C 0.62833 0.41874 -0.17341
 C241 C 0.65511 0.42549 -0.18659
 C242 C 0.65627 0.44596 -0.20879
 H243 H 0.66829 0.50398 -0.29998
 H244 H 0.58802 0.53773 -0.26242
 H245 H 0.58197 0.42895 -0.17326
 H246 H 0.67516 0.41478 -0.17988
 H247 H 0.66977 0.46670 -0.26321
 H248 H 0.67732 0.45118 -0.21806
 C249 C 0.37919 0.98737 0.73435
 C250 C 0.39202 1.01505 0.73000
 C251 C 0.39248 1.03573 0.75257
 C252 C 0.38001 1.02901 0.77940
 C253 C 0.36764 1.00099 0.78293
 N254 N 0.36771 0.98110 0.76070
 C255 C 0.37828 0.96463 0.71121
 N256 N 0.37886 0.93571 0.71860
 C257 C 0.37800 0.91363 0.69849
 C258 C 0.37598 0.92016 0.66897
 C259 C 0.37494 0.94980 0.66087
 C260 C 0.37615 0.97209 0.68189
 H261 H 0.40225 1.05706 0.74887
 H262 H 0.35818 0.99473 0.80338
 H263 H 0.37846 0.89100 0.70558
 H264 H 0.37344 0.95570 0.63829
 H265 H 0.40201 1.02057 0.70957
 H266 H 0.37488 0.99481 0.67523
 C267 C 0.87335 0.51241 0.26749
 C268 C 0.85105 0.51210 0.24653
 C269 C 0.85146 0.49097 0.22446
 C270 C 0.87410 0.47006 0.22287
 C271 C 0.89629 0.47144 0.24399
 N272 N 0.89540 0.49230 0.26538
 C273 C 0.87375 0.53442 0.29143
 N274 N 0.89979 0.54194 0.30395
 C275 C 0.90176 0.56240 0.32564
 C276 C 0.87647 0.57656 0.33608
 C277 C 0.84939 0.56871 0.32380
 C278 C 0.84791 0.54764 0.30169
 H279 H 0.83390 0.49118 0.20874
 H280 H 0.91438 0.45608 0.24361
 H281 H 0.92306 0.56749 0.33475
 H282 H 0.82933 0.57921 0.33094
 H283 H 0.83360 0.52822 0.24675
 H284 H 0.82665 0.54171 0.29304
 C285 C 0.23717 0.11748 0.01626
 C286 C 0.23986 0.09390 -0.00352
 C287 C 0.26115 0.09493 -0.02508
 C288 C 0.27982 0.11939 -0.02722
 C289 C 0.27616 0.14263 -0.00721
 N290 N 0.25524 0.14112 0.01359
 C291 C 0.21473 0.11799 0.03940
 N292 N 0.20691 0.14441 0.05130
 C293 C 0.18634 0.14690 0.07240
 C294 C 0.17226 0.12173 0.08291
 C295 C 0.18031 0.09420 0.07130
 C296 C 0.20154 0.09220 0.04970
 H297 H 0.26282 0.07651 -0.04001
 H298 H 0.28969 0.16211 -0.00802
 H299 H 0.18119 0.16852 0.08107
 H300 H 0.16991 0.07422 0.07863
 H301 H 0.22545 0.07504 -0.00290
 H302 H 0.20760 0.07064 0.04156
 C303 C 0.76487 0.63104 0.48653
 C304 C 0.74431 0.65397 0.48883
 C305 C 0.72285 0.65303 0.51023
 C306 C 0.72157 0.62928 0.52936
 C307 C 0.74232 0.60662 0.52606
 N308 N 0.76303 0.60805 0.50505
 C309 C 0.78816 0.63063 0.46424
 N310 N 0.80093 0.60443 0.45710
 C311 C 0.82251 0.60211 0.43699
 C312 C 0.83270 0.62723 0.42277
 C313 C 0.82009 0.65453 0.43000
 C314 C 0.79796 0.65636 0.45071
 H315 H 0.70733 0.67098 0.51164
 H316 H 0.74218 0.58767 0.53995
 H317 H 0.83193 0.58068 0.43243
 H318 H 0.82714 0.67447 0.41946
 H319 H 0.74428 0.67226 0.47408
 H320 H 0.78913 0.67778 0.45624
 C321 C 0.73368 0.37928 -0.01389
 C322 C 0.73596 0.40247 0.00635
 C323 C 0.75726 0.40135 0.02797
 C324 C 0.77629 0.37714 0.02976
 C325 C 0.77292 0.35415 0.00939
 N326 N 0.75200 0.35576 -0.01153
 C327 C 0.71160 0.37944 -0.03742
 N328 N 0.70262 0.35333 -0.04924
 C329 C 0.68242 0.35178 -0.07089
 C330 C 0.67014 0.37761 -0.08210
 C331 C 0.67934 0.40475 -0.07045
 C332 C 0.70007 0.40579 -0.04828
 H333 H 0.75875 0.41961 0.04312
 H334 H 0.78673 0.33483 0.01004
 H335 H 0.67623 0.33040 -0.07952
 H336 H 0.67029 0.42522 -0.07828
 H337 H 0.72127 0.42115 0.00592
 H338 H 0.70718 0.42705 -0.04018
 C339 C 0.26817 0.87838 0.51026
 C340 C 0.26756 0.90038 0.48918
 C341 C 0.24640 0.89933 0.46738
 C342 C 0.22582 0.87635 0.46622
 C343 C 0.22757 0.85447 0.48740
 N344 N 0.24836 0.85603 0.50849
 C345 C 0.28997 0.87843 0.53409
 N346 N 0.29606 0.85265 0.54762
 C347 C 0.31571 0.85089 0.56970
 C348 C 0.33052 0.87620 0.57960
 C349 C 0.32431 0.90307 0.56621
 C350 C 0.30406 0.90431 0.54361
 H351 H 0.24635 0.91660 0.45149
 H352 H 0.21248 0.83616 0.48742
 H353 H 0.31947 0.82980 0.57970
 H354 H 0.33532 0.92311 0.57302
 H355 H 0.28344 0.91804 0.48906
 H356 H 0.29933 0.92545 0.53417
   
