data_POSCAR
  _audit_creation_date              2014-09-24
  _audit_creation_method            'ToBaCCo'
  _symmetry_space_group_name_H-M    'P1'
  _symmetry_Int_Tables_number       1
  _symmetry_cell_setting            triclinic
  loop_
  _symmetry_equiv_pos_as_xyz
 x,y,z
_cell_length_a 28.8990
_cell_length_b 28.9538
_cell_length_c 28.4636
_cell_angle_alpha 91.335000
_cell_angle_beta 88.565600
_cell_angle_gamma 91.179300
loop_
  _atom_site_label
  _atom_site_type_symbol
  _atom_site_fract_x
  _atom_site_fract_y
  _atom_site_fract_z
N1 N 0.15184 0.17155 0.26257
 N2 N 0.19095 0.14981 0.26698
 C3 C 0.18523 0.11782 0.30038
 C4 C 0.14016 0.12015 0.31735
 C5 C 0.11986 0.15438 0.29288
 H6 H 0.21156 0.09442 0.31096
 H7 H 0.08442 0.16555 0.29643
 Cu8 Cu 0.24477 0.16460 0.22744
 Cu9 Cu 0.14473 0.21943 0.21716
 Cu10 Cu 0.23333 0.23395 0.13463
 N11 N 0.29038 0.16660 0.17624
 N12 N 0.28559 0.19280 0.13957
 C13 C 0.31921 0.18304 0.10735
 C14 C 0.34645 0.14934 0.12528
 C15 C 0.32715 0.13944 0.16874
 H16 H 0.32177 0.19714 0.07249
 H17 H 0.33697 0.11215 0.19161
 N18 N 0.17718 0.27181 0.13674
 N19 N 0.14371 0.26609 0.16867
 C20 C 0.10994 0.29605 0.16126
 C21 C 0.12272 0.32166 0.12298
 C22 C 0.16539 0.30576 0.10793
 H23 H 0.07807 0.29878 0.18177
 H24 H 0.18593 0.31765 0.07815
 H25 H 0.19073 0.18794 0.16932
 H26 H 0.21424 0.23825 0.20458
 N27 N -0.17506 0.82228 0.28248
 N28 N -0.21039 0.85017 0.28214
 C29 C -0.20608 0.88177 0.31745
 C30 C -0.16623 0.87257 0.34098
 C31 C -0.14733 0.83486 0.31799
 H32 H -0.22859 0.91073 0.32391
 H33 H -0.11436 0.81963 0.32477
 Cu34 Cu -0.25502 0.84545 0.23201
 Cu35 Cu -0.16364 0.77621 0.23314
 Cu36 Cu -0.24121 0.76892 0.14202
 N37 N -0.29922 0.84014 0.18160
 N38 N -0.29320 0.81100 0.14588
 C39 C -0.32523 0.81862 0.11341
 C40 C -0.35283 0.85401 0.13015
 C41 C -0.33533 0.86711 0.17314
 H42 H -0.32637 0.80187 0.07907
 H43 H -0.34593 0.89640 0.19480
 N44 N -0.18654 0.72926 0.14507
 N45 N -0.15752 0.73187 0.18023
 C46 C -0.12348 0.70148 0.17214
 C47 C -0.13148 0.67886 0.13010
 C48 C -0.17157 0.69698 0.11360
 H49 H -0.09449 0.69660 0.19468
 H50 H -0.18814 0.68773 0.08096
 H51 H -0.19638 0.81043 0.18027
 H52 H -0.23179 0.76665 0.21317
 N53 N -0.18695 0.19935 -0.30712
 N54 N -0.21972 0.16768 -0.30107
 C55 C -0.21012 0.13048 -0.32868
 C56 C -0.16943 0.13982 -0.35338
 C57 C -0.15560 0.18366 -0.33905
 H58 H -0.23017 0.09851 -0.32926
 H59 H -0.12394 0.20182 -0.34917
 Cu60 Cu -0.27017 0.17714 -0.25553
 Cu61 Cu -0.18519 0.25634 -0.26934
 Cu62 Cu -0.24376 0.24460 -0.16237
 N63 N -0.31028 0.17964 -0.19977
 N64 N -0.29955 0.20568 -0.16297
 C65 C -0.32923 0.19602 -0.12711
 C66 C -0.36032 0.16258 -0.14265
 C67 C -0.34726 0.15269 -0.18871
 H68 H -0.32621 0.20969 -0.09159
 H69 H -0.36102 0.12523 -0.21106
 N70 N -0.19561 0.29260 -0.17393
 N71 N -0.17414 0.29787 -0.21504
 C72 C -0.14183 0.33189 -0.21111
 C73 C -0.14351 0.34877 -0.16544
 C74 C -0.17776 0.32333 -0.14280
 H75 H -0.11743 0.34184 -0.23867
 H76 H -0.18762 0.32587 -0.10594
 H77 H -0.20480 0.21434 -0.21667
 H78 H -0.24945 0.25676 -0.23185
 N79 N 0.16033 0.82001 -0.28414
 N80 N 0.18977 0.85401 -0.27461
 C81 C 0.17759 0.89180 -0.29767
 C82 C 0.13865 0.88049 -0.32280
 C83 C 0.12866 0.83475 -0.31392
 H84 H 0.19574 0.92483 -0.29661
 H85 H 0.10069 0.81372 -0.32806
 Cu86 Cu 0.24074 0.84481 -0.23288
 Cu87 Cu 0.16590 0.75918 -0.25743
 Cu88 Cu 0.23575 0.75700 -0.15958
 N89 N 0.29246 0.83249 -0.19302
 N90 N 0.28990 0.79850 -0.16310
 C91 C 0.32583 0.80236 -0.13386
 C92 C 0.35246 0.84032 -0.14690
 C93 C 0.33033 0.85874 -0.18429
 H94 H 0.32999 0.78156 -0.10321
 H95 H 0.33874 0.89129 -0.20069
 N96 N 0.18872 0.70872 -0.17415
 N97 N 0.16310 0.70906 -0.21196
 C98 C 0.13168 0.67413 -0.20992
 C99 C 0.13822 0.65074 -0.16916
 C100 C 0.17443 0.67335 -0.14721
 H101 H 0.10395 0.66842 -0.23436
 H102 H 0.18735 0.66634 -0.11281
 H103 H 0.18544 0.79129 -0.19658
 H104 H 0.23278 0.76100 -0.22977
 N105 N 0.19859 1.17025 0.71144
 N106 N 0.17309 1.20733 0.71110
 C107 C 0.14309 1.20312 0.67557
 C108 C 0.15099 1.16143 0.65240
 C109 C 0.18613 1.14147 0.67606
 H110 H 0.11590 1.22709 0.66897
 H111 H 0.19910 1.10698 0.67018
 Cu112 Cu 0.17882 1.25464 0.76037
 Cu113 Cu 0.24000 1.15767 0.76222
 Cu114 Cu 0.23694 1.23333 0.85841
 N115 N 0.17269 1.29377 0.81645
 N116 N 0.19511 1.28523 0.85489
 C117 C 0.18178 1.31531 0.88923
 C118 C 0.14962 1.34414 0.87103
 C119 C 0.14437 1.32947 0.82501
 H120 H 0.19285 1.31477 0.92523
 H121 H 0.11995 1.34219 0.80043
 N122 N 0.27707 1.17882 0.85453
 N123 N 0.27861 1.15058 0.81739
 C124 C 0.30819 1.11646 0.82525
 C125 C 0.32590 1.12359 0.86925
 C126 C 0.30577 1.16329 0.88707
 H127 H 0.31580 1.08806 0.80113
 H128 H 0.31131 1.17929 0.92123
 H129 H 0.19958 1.19300 0.81174
 H130 H 0.25158 1.22472 0.78771
 N131 N 0.83218 0.83988 0.71945
 N132 N 0.86088 0.80518 0.71806
 C133 C 0.89124 0.81095 0.68160
 C134 C 0.88004 0.85102 0.65915
 C135 C 0.84268 0.86837 0.68405
 H136 H 0.92052 0.78923 0.67355
 H137 H 0.82642 0.90109 0.67868
 Cu138 Cu 0.85701 0.75881 0.76719
 Cu139 Cu 0.78859 0.85059 0.77119
 Cu140 Cu 0.77399 0.76466 0.85293
 N141 N 0.85017 0.71173 0.81521
 N142 N 0.81747 0.71407 0.84820
 C143 C 0.82285 0.67982 0.87876
 C144 C 0.86061 0.65458 0.86390
 C145 C 0.87736 0.67575 0.82376
 H146 H 0.80275 0.67546 0.91097
 H147 H 0.90865 0.66723 0.80409
 N148 N 0.73399 0.81908 0.85164
 N149 N 0.73992 0.85181 0.82037
 C150 C 0.70894 0.88512 0.82931
 C151 C 0.68260 0.87286 0.86803
 C152 C 0.69906 0.83095 0.88159
 H153 H 0.70620 0.91647 0.80974
 H154 H 0.68716 0.81122 0.91150
 H155 H 0.81842 0.81149 0.82306
 H156 H 0.77727 0.78103 0.78270
 N157 N 0.20239 0.81278 1.31211
 N158 N 0.16738 0.78401 1.30452
 C159 C 0.13216 0.79465 1.33455
 C160 C 0.14642 0.83143 1.36275
 C161 C 0.19100 0.84208 1.34769
 H162 H 0.09777 0.77923 1.33360
 H163 H 0.21207 0.87142 1.35896
 Cu164 Cu 0.16969 0.74045 1.25148
 Cu165 Cu 0.25718 0.81501 1.27054
 Cu166 Cu 0.24235 0.76057 1.16158
 N167 N 0.17481 0.69625 1.19911
 N168 N 0.20318 0.70477 1.16332
 C169 C 0.19533 0.67339 1.12859
 C170 C 0.16063 0.64345 1.14379
 C171 C 0.14820 0.65894 1.18847
 H172 H 0.21109 0.67448 1.09374
 H173 H 0.11929 0.64640 1.20978
 N174 N 0.29163 0.80714 1.17385
 N175 N 0.29800 0.82709 1.21549
 C176 C 0.33228 0.85921 1.21169
 C177 C 0.34815 0.85894 1.16561
 C178 C 0.32187 0.82572 1.14257
 H179 H 0.34306 0.88262 1.23969
 H180 H 0.32339 0.81717 1.10538
 H181 H 0.21461 0.80279 1.21552
 H182 H 0.25117 0.75318 1.23058
 N183 N 0.81647 1.16221 1.30367
 N184 N 0.84856 1.19473 1.29843
 C185 C 0.88327 1.18698 1.32807
 C186 C 0.87164 1.14793 1.35322
 C187 C 0.82933 1.13310 1.33682
 H188 H 0.91538 1.20674 1.32965
 H189 H 0.81068 1.10178 1.34632
 Cu190 Cu 0.84246 1.24116 1.25025
 Cu191 Cu 0.76352 1.15550 1.26287
 Cu192 Cu 0.75297 1.23735 1.17698
 N193 N 0.83573 1.28779 1.20244
 N194 N 0.80041 1.28609 1.17408
 C195 C 0.80550 1.31985 1.14243
 C196 C 0.84594 1.34401 1.15167
 C197 C 0.86447 1.32282 1.18969
 H198 H 0.78278 1.32495 1.11345
 H199 H 0.89750 1.33094 1.20526
 N200 N 0.70849 1.18546 1.18546
 N201 N 0.71244 1.15430 1.21823
 C202 C 0.67963 1.12106 1.21218
 C203 C 0.65394 1.13212 1.17408
 C204 C 0.67301 1.17287 1.15779
 H205 H 0.67631 1.08980 1.23214
 H206 H 0.66341 1.19046 1.12650
 H207 H 0.79370 1.18755 1.20517
 H208 H 0.75958 1.22451 1.24732
 O209 O 0.54268 0.95002 0.91412
 O210 O 0.45258 0.98220 1.10561
 O211 O 0.58816 0.97066 1.04013
 O212 O 0.43630 0.92223 0.97112
 O213 O 0.52563 0.94575 1.07345
 O214 O 0.45605 0.95393 0.90676
 O215 O 0.44165 0.93486 1.05075
 O216 O 0.59500 0.98650 0.95642
 C217 C 0.58337 0.95450 0.92777
 C218 C 0.43374 0.94570 1.09232
 C219 C 0.56740 0.94096 1.06428
 C220 C 0.43708 0.92148 0.92790
 O221 O 0.45993 1.04232 0.91330
 O222 O 0.53328 1.02205 1.11927
 O223 O 0.56212 1.07306 0.97563
 O224 O 0.41166 1.02510 1.04290
 O225 O 0.47423 1.05905 1.06899
 O226 O 0.54740 1.03955 0.90976
 O227 O 0.40557 1.01004 0.95810
 O228 O 0.55850 1.05826 1.05766
 Co229 Co 0.50143 0.99642 0.91936
 Co230 Co 0.50138 1.00266 1.06833
 Co231 Co 0.56941 1.01983 1.00665
 Co232 Co 0.42950 0.97507 1.00538
 O233 O 0.49862 0.99684 0.99699
 C234 C 0.41865 1.03941 0.92787
 C235 C 0.56330 1.05049 1.10085
 C236 C 0.56287 1.07358 0.93222
 C237 C 0.43160 1.05963 1.06223
 O238 O 0.04255 0.45910 0.08531
 O239 O 0.02211 0.53273 -0.11961
 O240 O 0.02274 0.41059 -0.04424
 O241 O 0.07275 0.56020 0.02442
 O242 O 0.05765 0.47265 -0.07007
 O243 O 0.03857 0.54659 0.08998
 O244 O 0.05850 0.55659 -0.05746
 O245 O 0.00949 0.40502 0.04068
 C246 C 0.03962 0.41804 0.07016
 C247 C 0.05137 0.56167 -0.10073
 C248 C 0.05756 0.43003 -0.06372
 C249 C 0.07288 0.56175 0.06775
 O250 O -0.05069 0.54099 0.08566
 O251 O -0.02013 0.45251 -0.10578
 O252 O -0.07882 0.43596 0.02990
 O253 O -0.02861 0.58780 -0.04100
 O254 O -0.05492 0.52605 -0.07407
 O255 O -0.04547 0.45431 0.09343
 O256 O -0.01444 0.59356 0.04307
 O257 O -0.06734 0.44167 -0.05040
 Co258 Co -0.00389 0.50021 0.08012
 Co259 Co 0.00166 0.50084 -0.06899
 Co260 Co -0.02652 0.42896 -0.00570
 Co261 Co 0.01968 0.56809 -0.00688
 O262 O -0.00412 0.49772 0.00240
 C263 C -0.04650 0.58167 0.07181
 C264 C -0.05685 0.43412 -0.09215
 C265 C -0.07805 0.43493 0.07307
 C266 C -0.05841 0.56799 -0.06566
 O267 O 1.08996 0.04905 0.45741
 O268 O 0.90057 0.01700 0.54872
 O269 O 0.96632 0.03040 0.41145
 O270 O 1.03217 0.07830 0.56630
 O271 O 0.93270 0.05441 0.47509
 O272 O 1.09607 0.04739 0.54524
 O273 O 0.95361 0.06511 0.56058
 O274 O 1.04870 0.01230 0.40438
 C275 C 1.07793 0.04333 0.41586
 C276 C 0.91269 0.05374 0.56795
 C277 C 0.94207 0.05978 0.43278
 C278 C 1.07480 0.07945 0.56509
 O279 O 1.09040 -0.04129 0.54282
 O280 O 0.88733 -0.02122 0.46721
 O281 O 1.02833 -0.07322 0.43782
 O282 O 0.96258 -0.02539 0.59033
 O283 O 0.93753 -0.05931 0.52639
 O284 O 1.09362 -0.04091 0.45434
 O285 O 1.04582 -0.00881 0.59747
 O286 O 0.94774 -0.05722 0.44083
 Co287 Co 1.08431 0.00363 0.49998
 Co288 Co 0.93786 -0.00265 0.49935
 Co289 Co 0.99851 -0.01956 0.43032
 Co290 Co 0.99888 0.02524 0.57276
 O291 O 1.00796 0.00339 0.50242
 C292 C 1.07630 -0.03764 0.58465
 C293 C 0.90535 -0.04885 0.43587
 C294 C 1.07108 -0.07461 0.43829
 C295 C 0.94422 -0.06015 0.56971
 C296 C 1.11921 0.09369 0.35067
 C297 C 1.10013 0.07063 0.38028
 C298 C 0.85630 -0.09898 0.37586
 C299 C 0.87758 -0.07576 0.40393
 C300 C 0.85724 0.10830 0.61777
 C301 C 0.88152 0.08276 0.59450
 C302 C 1.11519 -0.09041 0.64590
 C303 C 1.09658 -0.06612 0.61865
 C304 C 0.37779 1.12273 1.10144
 C305 C 0.40380 1.09589 1.08219
 C306 C 0.38407 0.86366 0.87962
 C307 C 0.40988 0.88797 0.90234
 C308 C 0.61756 0.87935 1.10533
 C309 C 0.59316 0.90532 1.08520
 C310 C 0.61137 1.13565 0.88459
 C311 C 0.58798 1.10907 0.90748
 C312 C 0.09530 0.35630 0.10278
 C313 C 0.07040 0.38476 0.08742
 C314 C -0.11180 0.38071 -0.14328
 C315 C -0.08598 0.40603 -0.12170
 C316 C 0.10717 0.61749 -0.14819
 C317 C 0.08121 0.59114 -0.12810
 C318 C -0.10252 0.64458 0.10805
 C319 C -0.07718 0.61590 0.09095
 C320 C 1.12243 0.13755 0.61870
 C321 C 1.09982 0.11322 0.59265
 C322 C 0.90618 -0.12342 0.62439
 C323 C 0.92515 -0.09690 0.59769
 C324 C 1.11771 -0.13908 0.39183
 C325 C 1.09526 -0.11130 0.41429
 C326 C 0.90009 0.12176 0.38332
 C327 C 0.92103 0.09565 0.40709
 C328 C 0.12057 0.37635 -0.10363
 C329 C 0.09345 0.40196 -0.08416
 C330 C -0.13126 0.37818 0.12280
 C331 C -0.10915 0.40529 0.09923
 C332 C -0.11544 0.62107 -0.10974
 C333 C -0.09182 0.59515 -0.08854
 C334 C 0.13363 0.61212 0.11512
 C335 C 0.10778 0.58781 0.09238
 C336 C 0.35811 1.09458 0.89158
 C337 C 0.38544 1.06948 0.90883
 C338 C 0.38008 0.89094 1.14365
 C339 C 0.40545 0.91683 1.12209
 C340 C 0.62057 1.10301 1.15050
 C341 C 0.59375 1.07875 1.12892
 C342 C 0.64726 0.90020 0.89053
 C343 C 0.61800 0.92458 0.90810
   
