data_POSCAR
  _audit_creation_date              2014-09-24
  _audit_creation_method            'ToBaCCo'
  _symmetry_space_group_name_H-M    'P1'
  _symmetry_Int_Tables_number       1
  _symmetry_cell_setting            triclinic
  loop_
  _symmetry_equiv_pos_as_xyz
 x,y,z
_cell_length_a 19.7990
_cell_length_b 19.9281
_cell_length_c 49.4513
_cell_angle_alpha 87.725500
_cell_angle_beta 89.595300
_cell_angle_gamma 120.272700
loop_
  _atom_site_label
  _atom_site_type_symbol
  _atom_site_fract_x
  _atom_site_fract_y
  _atom_site_fract_z
Si1 Si -0.00970 -0.00441 0.50248
 Si2 Si 1.02518 0.04012 0.16595
 Si3 Si -0.00095 0.96906 0.83287
 O4 O 0.60857 0.06157 -0.02983
 O5 O 0.47990 0.07967 0.02012
 O6 O 0.61621 0.08798 0.02156
 O7 O 0.48352 0.07327 -0.03216
 O8 O 0.41302 -0.05379 -0.02388
 O9 O 0.55254 -0.03975 0.02790
 O10 O 0.41735 -0.04754 0.02839
 O11 O 0.53901 -0.06608 -0.02363
 Cu12 Cu 0.55378 0.08823 -0.00574
 Cu13 Cu 0.47411 -0.06444 0.00282
 C14 C 0.59536 -0.00582 -0.03534
 C15 C 0.42640 0.01868 0.03278
 C16 C 0.60819 0.02702 0.03368
 C17 C 0.42466 0.00789 -0.03681
 O18 O 0.03452 0.43987 0.64105
 O19 O 0.03522 0.56197 0.69543
 O20 O 0.04537 0.43679 0.69348
 O21 O 0.04306 0.57468 0.64265
 O22 O -0.08598 0.51234 0.64551
 O23 O -0.08371 0.36801 0.69410
 O24 O -0.09372 0.49375 0.69792
 O25 O -0.09450 0.37754 0.64214
 Cu26 Cu 0.05232 0.50987 0.66797
 Cu27 Cu -0.10226 0.43151 0.67013
 C28 C -0.03056 0.38741 0.63237
 C29 C -0.02958 0.54858 0.70596
 C30 C -0.01835 0.37796 0.70201
 C31 C -0.02140 0.56820 0.63573
 O32 O 0.47256 0.43133 0.30680
 O33 O 0.59797 0.55451 0.36043
 O34 O 0.47315 0.41663 0.35954
 O35 O 0.60829 0.55859 0.30779
 O36 O 0.54518 0.62345 0.30943
 O37 O 0.40286 0.47433 0.35900
 O38 O 0.52773 0.61203 0.36170
 O39 O 0.40920 0.49599 0.30667
 Cu40 Cu 0.54446 0.48410 0.33361
 Cu41 Cu 0.46460 0.55740 0.33424
 C42 C 0.41934 0.44313 0.29751
 C43 C 0.58409 0.60477 0.37016
 C44 C 0.41431 0.42004 0.36781
 C45 C 0.60122 0.61614 0.30017
 C46 C -0.03364 0.17266 0.55553
 C47 C 0.04013 0.18631 0.54619
 C48 C 0.04483 0.13336 0.52965
 C49 C -0.02275 0.06652 0.52199
 C50 C -0.09595 0.05240 0.53117
 C51 C -0.10158 0.10506 0.54765
 C52 C -0.03543 0.22950 0.57417
 C53 C -0.10540 0.22139 0.58491
 C54 C -0.10362 0.27378 0.60325
 C55 C -0.03216 0.33575 0.61134
 C56 C 0.03772 0.34574 0.60011
 C57 C 0.03664 0.29335 0.58173
 C58 C 0.10912 0.25171 0.55386
 C59 C 0.10742 0.30397 0.57129
 H60 H 0.16552 0.26207 0.54658
 H61 H 0.16253 0.35304 0.57694
 H62 H 0.10186 0.14358 0.52326
 H63 H -0.14872 -0.00035 0.52635
 H64 H -0.15857 0.26477 0.61149
 H65 H 0.09331 0.39357 0.60606
 H66 H -0.15935 0.09098 0.55442
 H67 H -0.16202 0.17458 0.57967
 C68 C 0.84649 0.85486 0.22943
 C69 C 0.88215 0.83095 0.21008
 C70 C 0.93941 0.88611 0.19151
 C71 C 0.96353 0.96515 0.19279
 C72 C 0.93102 0.98874 0.21291
 C73 C 0.87365 0.93469 0.23109
 C74 C 0.78110 0.79414 0.24730
 C75 C 0.73547 0.81127 0.26462
 C76 C 0.67561 0.75286 0.28112
 C77 C 0.66028 0.67619 0.28103
 C78 C 0.70394 0.65801 0.26333
 C79 C 0.76294 0.71604 0.24608
 C80 C 0.85977 0.75223 0.20929
 C81 C 0.80277 0.69629 0.22735
 H82 H 0.88738 0.73370 0.19471
 H83 H 0.78838 0.63633 0.22620
 H84 H 0.96193 0.86679 0.17549
 H85 H 0.94792 1.04933 0.21408
 H86 H 0.64244 0.76814 0.29451
 H87 H 0.69134 0.59845 0.26277
 H88 H 0.85086 0.95665 0.24605
 H89 H 0.74454 0.86920 0.26560
 C90 C 0.19620 0.00107 -0.11131
 C91 C 0.11717 -0.05584 -0.10534
 C92 C 0.05814 -0.06053 -0.12195
 C93 C 0.07606 -0.01086 -0.14508
 C94 C 0.15450 0.04389 -0.15162
 C95 C 0.21391 0.05063 -0.13474
 C96 C 0.25740 0.00377 -0.09290
 C97 C 0.33703 0.06164 -0.09567
 C98 C 0.39140 0.06214 -0.07768
 C99 C 0.36806 0.00436 -0.05680
 C100 C 0.28918 -0.05382 -0.05399
 C101 C 0.23370 -0.05363 -0.07145
 C102 C 0.09742 -0.10964 -0.08338
 C103 C 0.15454 -0.10931 -0.06706
 H104 H 0.03684 -0.15361 -0.07900
 H105 H 0.13629 -0.15277 -0.05050
 H106 H -0.00202 -0.10542 -0.11728
 H107 H 0.17083 0.07912 -0.17032
 H108 H 0.45200 0.10807 -0.08007
 H109 H 0.27044 -0.09765 -0.03752
 H110 H 0.27337 0.09301 -0.14087
 H111 H 0.35820 0.10779 -0.11122
 C112 C -0.01147 0.81200 0.56475
 C113 C 0.05042 0.84868 0.54506
 C114 C 0.05409 0.90628 0.52663
 C115 C -0.00140 0.92998 0.52841
 C116 C -0.06047 0.89573 0.54863
 C117 C -0.06548 0.83787 0.56664
 C118 C -0.01688 0.74714 0.58276
 C119 C -0.08121 0.70118 0.60067
 C120 C -0.08326 0.64191 0.61728
 C121 C -0.02101 0.62746 0.61672
 C122 C 0.04254 0.67161 0.59850
 C123 C 0.04422 0.73009 0.58116
 C124 C 0.10780 0.82733 0.54390
 C125 C 0.10571 0.77055 0.56196
 H126 H 0.15565 0.85568 0.52904
 H127 H 0.15217 0.75702 0.56051
 H128 H 0.09808 0.92992 0.51047
 H129 H -0.10478 0.91208 0.55015
 H130 H -0.13305 0.60837 0.63107
 H131 H 0.09024 0.65973 0.59758
 H132 H -0.11234 0.81397 0.58176
 H133 H -0.13083 0.70953 0.60204
 C134 C 0.20493 0.23807 0.21895
 C135 C 0.21635 0.17702 0.21097
 C136 C 0.16293 0.12072 0.19419
 C137 C 0.09787 0.12377 0.18493
 C138 C 0.08634 0.18420 0.19248
 C139 C 0.13949 0.24115 0.20922
 C140 C 0.26163 0.29470 0.23813
 C141 C 0.25503 0.35666 0.24787
 C142 C 0.30713 0.40543 0.26671
 C143 C 0.36740 0.39403 0.27631
 C144 C 0.37578 0.33384 0.26618
 C145 C 0.32352 0.28424 0.24734
 C146 C 0.27982 0.17107 0.22030
 C147 C 0.33224 0.22350 0.23809
 H148 H 0.28851 0.12437 0.21403
 H149 H 0.37979 0.21571 0.24500
 H150 H 0.17112 0.07297 0.18890
 H151 H 0.03498 0.18603 0.18632
 H152 H 0.29938 0.45167 0.27406
 H153 H 0.42221 0.32454 0.27334
 H154 H 0.12736 0.28590 0.21477
 H155 H 0.20960 0.36797 0.24147
 C156 C 0.80699 -0.03471 -0.10987
 C157 C 0.87428 0.03552 -0.11903
 C158 C 0.93003 0.03391 -0.13606
 C159 C 0.91991 -0.03638 -0.14484
 C160 C 0.85405 -0.10628 -0.13568
 C161 C 0.79788 -0.10565 -0.11842
 C162 C 0.74961 -0.02982 -0.09118
 C163 C 0.68131 -0.09582 -0.08036
 C164 C 0.63091 -0.08791 -0.06252
 C165 C 0.64694 -0.01407 -0.05512
 C166 C 0.71409 0.05194 -0.06613
 C167 C 0.76539 0.04469 -0.08386
 C168 C 0.88617 0.10725 -0.11111
 C169 C 0.83281 0.11175 -0.09396
 H170 H 0.93775 0.16091 -0.11825
 H171 H 0.84485 0.16871 -0.08837
 H172 H 0.98200 0.08816 -0.14239
 H173 H 0.84669 -0.16142 -0.14124
 H174 H 0.57939 -0.13995 -0.05437
 H175 H 0.72733 0.10931 -0.06055
 H176 H 0.74830 -0.16107 -0.11185
 H177 H 0.66610 -0.15398 -0.08522
 C178 C 0.19916 0.02875 0.10456
 C179 C 0.16387 -0.02993 0.12562
 C180 C 0.10927 -0.02956 0.14394
 C181 C 0.08725 0.02690 0.14079
 C182 C 0.12007 0.08285 0.11933
 C183 C 0.17498 0.08384 0.10138
 C184 C 0.26054 0.02953 0.08646
 C185 C 0.30477 0.09013 0.06691
 C186 C 0.36018 0.08748 0.05010
 C187 C 0.37247 0.02417 0.05216
 C188 C 0.33043 -0.03540 0.07211
 C189 C 0.27574 -0.03244 0.08955
 C190 C 0.18352 -0.08825 0.12819
 C191 C 0.23700 -0.09039 0.11019
 H192 H 0.15627 -0.13359 0.14413
 H193 H 0.24919 -0.13749 0.11276
 H194 H 0.08652 -0.07127 0.16100
 H195 H 0.10472 0.12769 0.11673
 H196 H 0.39216 0.13430 0.03497
 H197 H 0.34065 -0.08392 0.07418
 H198 H 0.19785 0.12839 0.08526
 H199 H 0.29783 0.14027 0.06430
 C200 C 0.79557 0.82093 0.44686
 C201 C 0.85895 0.81151 0.45475
 C202 C 0.91522 0.86420 0.47179
 C203 C 0.90980 0.92651 0.48135
 C204 C 0.84794 0.93691 0.47343
 C205 C 0.79104 0.88450 0.45644
 C206 C 0.73767 0.76390 0.42805
 C207 C 0.67231 0.76755 0.41896
 C208 C 0.62187 0.71486 0.40065
 C209 C 0.63497 0.65695 0.39094
 C210 C 0.69870 0.65154 0.40042
 C211 C 0.74987 0.70429 0.41880
 C212 C 0.86677 0.75039 0.44531
 C213 C 0.81356 0.69809 0.42765
 H214 H 0.91539 0.74334 0.45144
 H215 H 0.82275 0.65232 0.42068
 H216 H 0.96420 0.85709 0.47737
 H217 H 0.84447 0.98646 0.47970
 H218 H 0.57296 0.72032 0.39379
 H219 H 0.70933 0.60693 0.39318
 H220 H 0.74488 0.89548 0.45076
 H221 H 0.65940 0.81093 0.42553
 C222 C 0.00048 0.14574 0.77062
 C223 C 0.05804 0.17224 0.79059
 C224 C 0.06173 0.11852 0.80901
 C225 C 0.01091 0.03826 0.80696
 C226 C -0.04275 0.01258 0.78607
 C227 C -0.04774 0.06526 0.76807
 C228 C -0.00712 0.20455 0.75316
 C229 C -0.06967 0.18408 0.73560
 C230 C -0.07423 0.24093 0.71967
 C231 C -0.01611 0.31931 0.72053
 C232 C 0.04553 0.34068 0.73840
 C233 C 0.04926 0.28413 0.75520
 C234 C 0.11068 0.25210 0.79219
 C235 C 0.10767 0.30669 0.77439
 H236 H 0.15546 0.27267 0.80724
 H237 H 0.15044 0.36769 0.77619
 H238 H 0.10135 0.13991 0.82560
 H239 H -0.08381 -0.04865 0.78410
 H240 H -0.12243 0.22326 0.70610
 H241 H 0.08982 0.40150 0.73953
 H242 H -0.09049 0.04168 0.75255
 H243 H -0.11611 0.12469 0.73407
 C244 C 0.83894 0.04966 0.11057
 C245 C 0.83020 -0.02156 0.12094
 C246 C 0.88628 -0.02169 0.13791
 C247 C 0.95110 0.04794 0.14528
 C248 C 0.96031 0.11876 0.13524
 C249 C 0.90467 0.11982 0.11811
 C250 C 0.77872 0.04650 0.09151
 C251 C 0.78245 0.11348 0.07936
 C252 C 0.72645 0.10705 0.06095
 C253 C 0.66506 0.03379 0.05426
 C254 C 0.65991 -0.03311 0.06670
 C255 C 0.71609 -0.02739 0.08505
 C256 C 0.76628 -0.09256 0.11405
 C257 C 0.71037 -0.09541 0.09654
 H258 H 0.75969 -0.14696 0.12215
 H259 H 0.66235 -0.15190 0.09165
 H260 H 0.87984 -0.07679 0.14506
 H261 H 1.01141 0.17312 0.13993
 H262 H 0.73181 0.15978 0.05172
 H263 H 0.61283 -0.09006 0.06174
 H264 H 0.91475 0.17585 0.11071
 H265 H 0.82851 0.17125 0.08355
 C266 C 0.18824 0.17458 0.44215
 C267 C 0.10935 0.15515 0.43976
 C268 C 0.05128 0.09714 0.45705
 C269 C 0.07016 0.05927 0.47747
 C270 C 0.14827 0.07936 0.48041
 C271 C 0.20674 0.13572 0.46272
 C272 C 0.24857 0.23794 0.42336
 C273 C 0.32788 0.25843 0.42264
 C274 C 0.38161 0.31789 0.40471
 C275 C 0.35794 0.35917 0.38739
 C276 C 0.27926 0.33931 0.38793
 C277 C 0.22439 0.27830 0.40531
 C278 C 0.08897 0.19563 0.42087
 C279 C 0.14540 0.25667 0.40431
 H280 H 0.02850 0.18093 0.41924
 H281 H 0.12676 0.28697 0.39032
 H282 H -0.00875 0.08387 0.45535
 H283 H 0.16509 0.05469 0.49702
 H284 H 0.44205 0.33187 0.40447
 H285 H 0.26024 0.36983 0.37417
 H286 H 0.26621 0.15005 0.46609
 H287 H 0.34931 0.22856 0.43543
 C288 C -0.02928 0.76118 0.78318
 C289 C 0.04489 0.82064 0.79099
 C290 C 0.05076 0.87961 0.80697
 C291 C -0.01600 0.88113 0.81554
 C292 C -0.08967 0.82219 0.80808
 C293 C -0.09648 0.76247 0.79222
 C294 C -0.03214 0.70190 0.76464
 C295 C -0.10252 0.64092 0.75518
 C296 C -0.10157 0.59013 0.73669
 C297 C -0.03055 0.59859 0.72717
 C298 C 0.03966 0.65741 0.73719
 C299 C 0.03942 0.70887 0.75571
 C300 C 0.11325 0.82266 0.78214
 C301 C 0.11059 0.76809 0.76484
 H302 H 0.16996 0.86814 0.78829
 H303 H 0.16528 0.77308 0.75817
 H304 H 0.10822 0.92610 0.81195
 H305 H -0.14179 0.82385 0.81347
 H306 H -0.15676 0.54498 0.72942
 H307 H 0.09490 0.66427 0.73017
 H308 H -0.15451 0.71927 0.78666
 H309 H -0.15880 0.63206 0.76150
   
