data_POSCAR
  _audit_creation_date              2014-09-24
  _audit_creation_method            'ToBaCCo'
  _symmetry_space_group_name_H-M    'P1'
  _symmetry_Int_Tables_number       1
  _symmetry_cell_setting            triclinic
  loop_
  _symmetry_equiv_pos_as_xyz
 x,y,z
_cell_length_a 33.9227
_cell_length_b 33.9576
_cell_length_c 66.6596
_cell_angle_alpha 87.713800
_cell_angle_beta 90.868800
_cell_angle_gamma 120.782100
loop_
  _atom_site_label
  _atom_site_type_symbol
  _atom_site_fract_x
  _atom_site_fract_y
  _atom_site_fract_z
C1 C 0.01733 0.07334 0.52932
 H2 H 0.04875 0.07249 0.52887
 C3 C 0.01468 0.10501 0.54106
 H4 H 0.04408 0.12855 0.54976
 C5 C -0.05895 0.04463 0.51802
 H6 H -0.08716 0.02165 0.50869
 C7 C -0.06302 0.07589 0.52956
 H8 H -0.09454 0.07669 0.52925
 N9 N -0.01918 0.04392 0.51816
 C10 C 0.00608 -0.06709 0.50762
 H11 H 0.00712 -0.06582 0.49139
 C12 C 0.00882 -0.10170 0.51843
 H13 H 0.01234 -0.12701 0.51052
 C14 C -0.00211 -0.03711 0.53780
 H15 H -0.00776 -0.01276 0.54526
 C16 C 0.00048 -0.07116 0.54917
 H17 H -0.00260 -0.07255 0.56537
 Zn18 Zn -0.00976 0.00554 0.50160
 N19 N 0.00057 -0.03579 0.51740
 C20 C 0.08051 0.04266 0.48529
 N21 N 0.04148 0.04476 0.48514
 C22 C 0.03849 0.07760 0.47402
 C23 C 0.07561 0.10996 0.46234
 C24 C 0.11856 0.07452 0.47380
 C25 C -0.10110 -0.06232 0.49541
 C26 C -0.13899 -0.09393 0.48453
 C27 C -0.09559 -0.05948 0.45387
 C28 C -0.05853 -0.02855 0.46533
 N29 N -0.06182 -0.03070 0.48572
 H30 H 0.08251 0.01694 0.49458
 H31 H 0.00730 0.07889 0.47446
 H32 H 0.07300 0.13620 0.45367
 H33 H 0.14973 0.07305 0.47412
 H34 H -0.10240 -0.06386 0.51164
 H35 H -0.16967 -0.11966 0.49247
 H36 H -0.09211 -0.05815 0.43767
 H37 H -0.02667 -0.00405 0.45794
 C38 C 0.00555 -0.10398 0.53938
 C39 C -0.02575 0.10645 0.54112
 C40 C -0.13603 -0.09286 0.46357
 C41 C 0.11606 0.10855 0.46229
 C42 C 1.09184 0.04209 0.13689
 H43 H 1.09094 0.07348 0.13690
 C44 C 1.12447 0.03985 0.12530
 H45 H 1.14873 0.06954 0.11627
 C46 C 1.06212 -0.03460 0.14912
 H47 H 1.03832 -0.06317 0.15873
 C48 C 1.09431 -0.03827 0.13774
 H49 H 1.09501 -0.06984 0.13846
 N50 N 1.06142 0.00516 0.14843
 C51 C 0.94868 0.02900 0.15800
 H52 H 0.94845 0.02929 0.17422
 C53 C 0.91475 0.03174 0.14699
 H54 H 0.88846 0.03451 0.15472
 C55 C 0.98177 0.02258 0.12811
 H56 H 1.00704 0.01760 0.12085
 C57 C 0.94845 0.02521 0.11654
 H58 H 0.94853 0.02280 0.10038
 Zn59 Zn 1.02132 0.01366 0.16463
 N60 N 0.98118 0.02434 0.14847
 C61 C 1.05615 0.10296 0.17999
 N62 N 1.05876 0.06423 0.18063
 C63 C 1.09074 0.06106 0.19199
 C64 C 1.12160 0.09764 0.20346
 C65 C 1.08649 0.14047 0.19126
 C66 C 0.95309 -0.07799 0.17164
 C67 C 0.92059 -0.11645 0.18283
 C68 C 0.95210 -0.07455 0.21309
 C69 C 0.98401 -0.03686 0.20134
 N70 N 0.98376 -0.03915 0.18099
 H71 H 1.03115 0.10513 0.17052
 H72 H 1.09247 0.03013 0.19195
 H73 H 1.14713 0.09488 0.21236
 H74 H 1.08458 0.17138 0.19059
 H75 H 0.95302 -0.07852 0.15542
 H76 H 0.89556 -0.14683 0.17524
 H77 H 0.95172 -0.07208 0.22923
 H78 H 1.00775 -0.00534 0.20847
 C79 C 0.91439 0.02935 0.12609
 C80 C 1.12583 -0.00061 0.12578
 C81 C 0.91978 -0.11449 0.20373
 C82 C 1.11958 0.13775 0.20305
 C83 C 0.03769 0.95531 0.86145
 H84 H 0.00546 0.92309 0.86099
 C85 C 0.07363 0.95852 0.87311
 H86 H 0.06907 0.92876 0.88175
 C87 C 0.08352 1.03309 0.85018
 H88 H 0.08744 1.06170 0.84089
 C89 C 0.12047 1.03777 0.86166
 H90 H 0.15272 1.07013 0.86133
 N91 N 0.04315 0.99226 0.85032
 C92 C -0.09685 0.96086 0.83972
 H93 H -0.09768 0.96092 0.82349
 C94 C -0.13409 0.95628 0.85047
 H95 H -0.16386 0.95241 0.84247
 C96 C -0.05585 0.96872 0.86989
 H97 H -0.02474 0.97516 0.87736
 C98 C -0.09231 0.96427 0.88122
 H99 H -0.08926 0.96672 0.89739
 Zn100 Zn -0.00667 0.98195 0.83375
 N101 N -0.05862 0.96730 0.84951
 C102 C -0.05855 0.89300 0.81724
 N103 N -0.01782 0.93347 0.81718
 C104 C 0.01857 0.94003 0.80612
 C105 C 0.01486 0.90517 0.79442
 C106 C -0.06370 0.85709 0.80573
 C107 C 0.01366 1.07235 0.82774
 C108 C 0.01768 1.11037 0.81696
 C109 C 0.00788 1.07095 0.78623
 C110 C 0.00402 1.03364 0.79757
 N111 N 0.00667 1.03489 0.81796
 H112 H -0.08668 0.88819 0.82648
 H113 H 0.05073 0.97230 0.80663
 H114 H 0.04419 0.91060 0.78582
 H115 H -0.09597 0.82474 0.80599
 H116 H 0.01459 1.07199 0.84397
 H117 H 0.02210 1.13960 0.82489
 H118 H 0.00455 1.06925 0.77005
 H119 H -0.00286 1.00312 0.79011
 C120 C -0.13154 0.95864 0.87140
 C121 C 0.11545 1.00002 0.87314
 C122 C 0.01419 1.10940 0.79604
 C123 C -0.02653 0.86326 0.79430
 C124 C 0.50928 -0.00168 0.00836
 C125 C 0.50672 -0.00497 -0.01199
 C126 C 0.46832 -0.00629 -0.02353
 C127 C 0.54219 -0.00727 -0.02380
 C128 C 0.54763 -0.00031 0.01997
 C129 C 0.47374 0.00059 0.02013
 C130 C 0.42256 -0.04038 -0.01949
 C131 C 0.38680 -0.03965 -0.02988
 C132 C 0.39624 -0.00502 -0.04460
 C133 C 0.44220 0.02823 -0.04897
 C134 C 0.47786 0.02748 -0.03858
 C135 C 0.52917 -0.04494 -0.03581
 C136 C 0.56210 -0.04868 -0.04650
 C137 C 0.60875 -0.01459 -0.04550
 C138 C 0.62159 0.02376 -0.03383
 C139 C 0.58856 0.02747 -0.02314
 C140 C 0.57476 0.03716 0.03196
 C141 C 0.61190 0.03995 0.04252
 C142 C 0.62247 0.00510 0.04141
 C143 C 0.59452 -0.03301 0.02975
 C144 C 0.55731 -0.03578 0.01918
 C145 C 0.46362 0.03541 0.01628
 C146 C 0.42854 0.03564 0.02693
 C147 C 0.40328 0.00127 0.04173
 C148 C 0.41449 -0.03273 0.04591
 C149 C 0.44949 -0.03294 0.03526
 H150 H 0.41456 -0.06714 -0.00812
 H151 H 0.35176 -0.06560 -0.02611
 H152 H 0.45060 0.05480 -0.06049
 H153 H 0.51299 0.05382 -0.04202
 H154 H 0.49348 -0.07187 -0.03665
 H155 H 0.55103 -0.07816 -0.05565
 H156 H 0.59918 0.05718 -0.01419
 H157 H 0.56754 0.06464 0.03290
 H158 H 0.63222 0.06929 0.05167
 H159 H 0.60192 -0.06029 0.02852
 H160 H 0.53629 -0.06534 0.01025
 H161 H 0.48246 0.06200 0.00486
 H162 H 0.42057 0.06216 0.02331
 H163 H 0.39627 -0.05913 0.05748
 H164 H 0.45713 -0.05983 0.03856
 H165 H 0.65726 0.05046 -0.03268
 C166 C -0.01652 0.48880 0.67833
 C167 C -0.01688 0.48969 0.65786
 C168 C -0.01651 0.45334 0.64636
 C169 C -0.01713 0.52734 0.64587
 C170 C -0.01653 0.52534 0.68982
 C171 C -0.01556 0.45152 0.69032
 C172 C 0.01897 0.44372 0.64862
 C173 C 0.01782 0.40830 0.63813
 C174 C -0.01862 0.38218 0.62507
 C175 C -0.05344 0.39276 0.62250
 C176 C -0.05227 0.42810 0.63299
 C177 C 0.01840 0.55354 0.63204
 C178 C 0.02010 0.59045 0.62124
 C179 C -0.01393 0.60172 0.62396
 C180 C -0.05028 0.57456 0.63742
 C181 C -0.05196 0.53756 0.64823
 C182 C -0.05203 0.51363 0.70359
 C183 C -0.05363 0.54760 0.71405
 C184 C -0.01953 0.59398 0.71103
 C185 C 0.01667 0.60553 0.69757
 C186 C 0.01826 0.57147 0.68712
 C187 C -0.04986 0.40538 0.68837
 C188 C -0.04705 0.37070 0.69913
 C189 C -0.01008 0.38162 0.71215
 C190 C 0.02342 0.42797 0.71447
 C191 C 0.02059 0.46254 0.70372
 H192 H 0.04725 0.46333 0.65865
 H193 H 0.04502 0.40084 0.64050
 H194 H -0.08148 0.37386 0.61226
 H195 H -0.07969 0.43536 0.63091
 H196 H 0.04536 0.54590 0.62988
 H197 H 0.04803 0.61014 0.61070
 H198 H -0.08006 0.51727 0.65861
 H199 H -0.07892 0.47815 0.70600
 H200 H -0.08146 0.53753 0.72459
 H201 H 0.04332 0.64096 0.69485
 H202 H 0.04633 0.58110 0.67677
 H203 H -0.07842 0.39625 0.67832
 H204 H -0.07327 0.33532 0.69695
 H205 H 0.05180 0.43752 0.72467
 H206 H 0.04715 0.49798 0.70555
 H207 H -0.07689 0.58250 0.63991
 C208 C 0.50480 0.51268 0.34399
 C209 C 0.50675 0.51352 0.32355
 C210 C 0.54796 0.54897 0.31221
 C211 C 0.46776 0.47898 0.31162
 C212 C 0.46833 0.47231 0.35554
 C213 C 0.53893 0.55211 0.35570
 C214 C 0.54322 0.57406 0.29610
 C215 C 0.58177 0.60726 0.28531
 C216 C 0.62580 0.61576 0.29034
 C217 C 0.63037 0.59010 0.30632
 C218 C 0.59180 0.55691 0.31709
 C219 C 0.42315 0.47065 0.31452
 C220 C 0.38662 0.43804 0.30333
 C221 C 0.39405 0.41349 0.28886
 C222 C 0.43889 0.42248 0.28576
 C223 C 0.47539 0.45502 0.29699
 C224 C 0.46002 0.42802 0.35245
 C225 C 0.42547 0.39018 0.36323
 C226 C 0.39878 0.39591 0.37744
 C227 C 0.40775 0.44040 0.38076
 C228 C 0.44231 0.47823 0.36997
 C229 C 0.56168 0.54493 0.37190
 C230 C 0.59375 0.58184 0.38297
 C231 C 0.60342 0.62664 0.37815
 C232 C 0.58004 0.63362 0.36210
 C233 C 0.54798 0.59670 0.35104
 H234 H 0.50967 0.56816 0.29196
 H235 H 0.57705 0.62593 0.27288
 H236 H 0.66383 0.59606 0.31064
 H237 H 0.59614 0.53734 0.32924
 H238 H 0.41668 0.48954 0.32541
 H239 H 0.35264 0.43247 0.30581
 H240 H 0.50955 0.46106 0.29447
 H241 H 0.48026 0.42278 0.34164
 H242 H 0.41921 0.35634 0.36023
 H243 H 0.38828 0.44601 0.39184
 H244 H 0.44845 0.51215 0.37272
 H245 H 0.55488 0.51076 0.37586
 H246 H 0.61065 0.57526 0.39545
 H247 H 0.58696 0.66773 0.35792
 H248 H 0.53018 0.60290 0.33883
 H249 H 0.44564 0.40379 0.27487
 C250 C 0.01739 0.31264 0.59527
 C251 C -0.02454 0.27174 0.59314
 C252 C -0.06442 0.26676 0.60158
 C253 C -0.06246 0.30259 0.61204
 C254 C -0.02801 0.14039 0.55249
 C255 C 0.01944 0.34851 0.60573
 C256 C -0.02662 0.23506 0.58217
 C257 C -0.02790 0.20468 0.57290
 C258 C -0.02854 0.16966 0.56193
 C259 C -0.02052 0.34394 0.61418
 H260 H 0.04846 0.31689 0.58874
 H261 H -0.09703 0.23520 0.60008
 H262 H -0.09369 0.29778 0.61862
 H263 H 0.05211 0.38009 0.60692
 C264 C 0.70919 0.72680 0.26228
 C265 C 0.74412 0.71853 0.25718
 C266 C 0.74056 0.67676 0.26298
 C267 C 0.70215 0.64332 0.27381
 C268 C 0.88381 0.84804 0.21538
 C269 C 0.67078 0.69343 0.27309
 C270 C 0.78334 0.75295 0.24588
 C271 C 0.81566 0.78231 0.23633
 C272 C 0.85281 0.81740 0.22507
 C273 C 0.66677 0.65127 0.27895
 H274 H 0.71166 0.75906 0.25791
 H275 H 0.76733 0.66995 0.25906
 H276 H 0.69980 0.61100 0.27790
 H277 H 0.64445 0.70083 0.27705
 C278 C 0.28419 -0.04177 -0.07183
 C279 C 0.28717 0.00047 -0.07579
 C280 C 0.32557 0.04084 -0.06944
 C281 C 0.36096 0.03903 -0.05925
 C282 C 0.15337 0.00287 -0.11566
 C283 C 0.31953 -0.04367 -0.06162
 C284 C 0.25100 0.00236 -0.08652
 C285 C 0.22055 0.00344 -0.09561
 C286 C 0.18456 0.00376 -0.10637
 C287 C 0.35840 -0.00325 -0.05527
 H288 H 0.25466 -0.07323 -0.07673
 H289 H 0.32818 0.07371 -0.07238
 H290 H 0.39011 0.07067 -0.05429
 H291 H 0.31679 -0.07665 -0.05898
 C292 C -0.04765 0.67751 0.59412
 C293 C -0.00515 0.71808 0.59160
 C294 C 0.03432 0.72075 0.59980
 C295 C 0.03140 0.68298 0.61038
 C296 C 0.00485 0.85870 0.55071
 C297 C -0.05065 0.63967 0.60472
 C298 C -0.00196 0.75686 0.58051
 C299 C 0.00064 0.78924 0.57116
 C300 C 0.00328 0.82690 0.56016
 C301 C -0.01110 0.64194 0.61291
 H302 H -0.07841 0.67504 0.58780
 H303 H 0.06735 0.75203 0.59800
 H304 H 0.06235 0.68604 0.61677
 H305 H -0.08376 0.60842 0.60623
 C306 C 0.27645 0.31449 0.27548
 C307 C 0.28214 0.31064 0.25504
 C308 C 0.32411 0.34083 0.24557
 C309 C 0.36040 0.37452 0.25651
 C310 C 0.15249 0.17624 0.21425
 C311 C 0.31269 0.34820 0.28645
 C312 C 0.24552 0.27477 0.24392
 C313 C 0.21544 0.24424 0.23458
 C314 C 0.18104 0.20788 0.22362
 C315 C 0.35518 0.37844 0.27711
 H316 H 0.24420 0.29111 0.28299
 H317 H 0.32890 0.33814 0.22976
 H318 H 0.39247 0.39767 0.24884
 H319 H 0.30780 0.34997 0.30233
 C320 C 0.67343 -0.06669 -0.06768
 C321 C 0.70958 -0.02855 -0.07770
 C322 C 0.71300 0.01426 -0.07710
 C323 C 0.68035 0.01892 -0.06658
 C324 C 0.83449 -0.04127 -0.11800
 C325 C 0.64074 -0.06212 -0.05717
 C326 C 0.74312 -0.03327 -0.08862
 C327 C 0.77146 -0.03671 -0.09783
 C328 C 0.80513 -0.03980 -0.10867
 C329 C 0.64376 -0.01927 -0.05653
 H330 H 0.67054 -0.09995 -0.06798
 H331 H 0.74081 0.04401 -0.08484
 H332 H 0.68333 0.05223 -0.06656
 H333 H 0.61336 -0.09202 -0.04934
 C334 C 0.33332 0.04039 0.06967
 C335 C 0.29284 -0.00139 0.07378
 C336 C 0.28829 -0.04218 0.06728
 C337 C 0.32413 -0.04128 0.05681
 C338 C 0.16048 -0.00268 0.11446
 C339 C 0.36922 0.04138 0.05917
 C340 C 0.25611 -0.00244 0.08478
 C341 C 0.22556 -0.00310 0.09407
 C342 C 0.19019 -0.00331 0.10504
 C343 C 0.36508 0.00051 0.05268
 H344 H 0.33724 0.07216 0.07467
 H345 H 0.25705 -0.07468 0.07033
 H346 H 0.31964 -0.07323 0.05175
 H347 H 0.40048 0.07400 0.05642
 C348 C 0.66252 0.73802 0.40591
 C349 C 0.70342 0.74033 0.41178
 C350 C 0.71163 0.70557 0.40667
 C351 C 0.67913 0.66862 0.39575
 C352 C 0.83050 0.87537 0.45322
 C353 C 0.62995 0.70107 0.39496
 C354 C 0.73707 0.77820 0.42308
 C355 C 0.76584 0.80944 0.43256
 C356 C 0.80031 0.84537 0.44369
 C357 C 0.63789 0.66592 0.38978
 H358 H 0.65576 0.76468 0.40983
 H359 H 0.74324 0.70709 0.41110
 H360 H 0.68653 0.64246 0.39176
 H361 H 0.59831 0.69969 0.39079
 C362 C -0.04098 0.27221 0.74230
 C363 C 0.00194 0.27596 0.74431
 C364 C 0.04081 0.31399 0.73569
 C365 C 0.03686 0.34825 0.72519
 C366 C 0.01388 0.14630 0.78479
 C367 C -0.04503 0.30643 0.73178
 C368 C 0.00611 0.24090 0.75528
 C369 C 0.00929 0.21142 0.76452
 C370 C 0.01230 0.17657 0.77542
 C371 C -0.00610 0.34493 0.72315
 H372 H -0.07129 0.24295 0.74895
 H373 H 0.07418 0.31716 0.73709
 H374 H 0.06735 0.37711 0.71846
 H375 H -0.07846 0.30314 0.73066
 C376 C 0.69742 -0.02608 0.07295
 C377 C 0.73841 0.01628 0.07357
 C378 C 0.74169 0.05481 0.06351
 C379 C 0.70408 0.05111 0.05297
 C380 C 0.87767 0.02841 0.11460
 C381 C 0.65975 -0.02987 0.06239
 C382 C 0.77697 0.02027 0.08465
 C383 C 0.80907 0.02341 0.09401
 C384 C 0.84631 0.02654 0.10507
 C385 C 0.66260 0.00875 0.05235
 H386 H 0.69448 -0.05611 0.08072
 H387 H 0.77330 0.08772 0.06383
 H388 H 0.70756 0.08130 0.04514
 H389 H 0.62816 -0.06280 0.06238
 C390 C 0.28433 0.31497 0.40281
 C391 C 0.29095 0.27955 0.41008
 C392 C 0.33276 0.28201 0.40665
 C393 C 0.36787 0.31979 0.39601
 C394 C 0.15513 0.14314 0.45098
 C395 C 0.31936 0.35276 0.39219
 C396 C 0.25480 0.24102 0.42120
 C397 C 0.22398 0.20937 0.43055
 C398 C 0.18719 0.17317 0.44154
 C399 C 0.36158 0.35566 0.38869
 H400 H 0.25206 0.31337 0.40535
 H401 H 0.33830 0.25485 0.41227
 H402 H 0.40016 0.32129 0.39375
 H403 H 0.31323 0.37947 0.38651
 C404 C 0.01553 0.70073 0.74020
 C405 C -0.02672 0.69795 0.74277
 C406 C -0.06654 0.66143 0.73485
 C407 C -0.06419 0.62771 0.72447
 C408 C -0.02977 0.82643 0.78304
 C409 C 0.01797 0.66707 0.72981
 C410 C -0.02910 0.73247 0.75363
 C411 C -0.03042 0.76164 0.76282
 C412 C -0.03080 0.79628 0.77368
 C413 C -0.02190 0.63008 0.72188
 H414 H 0.04656 0.72881 0.74631
 H415 H -0.09939 0.65901 0.73670
 H416 H -0.09538 0.60002 0.71830
 H417 H 0.05092 0.66957 0.72827
   
