data_POSCAR
  _audit_creation_date              2014-09-24
  _audit_creation_method            'ToBaCCo'
  _symmetry_space_group_name_H-M    'P1'
  _symmetry_Int_Tables_number       1
  _symmetry_cell_setting            triclinic
  loop_
  _symmetry_equiv_pos_as_xyz
 x,y,z
_cell_length_a 20.4658
_cell_length_b 20.1797
_cell_length_c 20.1786
_cell_angle_alpha 91.654900
_cell_angle_beta 89.861400
_cell_angle_gamma 90.136800
loop_
  _atom_site_label
  _atom_site_type_symbol
  _atom_site_fract_x
  _atom_site_fract_y
  _atom_site_fract_z
N1 N 0.25976 0.23662 0.27139
 N2 N 0.77786 -0.25247 0.24098
 N3 N 0.73055 0.26110 0.73641
 N4 N 0.23911 -0.25411 0.77447
 N5 N 0.73912 -0.27418 0.75429
 N6 N 0.27777 0.25923 0.75277
 N7 N 0.23063 -0.23622 0.23920
 N8 N 0.75977 0.22892 0.26358
 O9 O 0.22000 0.06520 0.45699
 O10 O 0.17527 -0.05489 0.58371
 O11 O 0.22457 0.06550 0.58810
 O12 O 0.17112 -0.05349 0.45706
 O13 O 0.27178 -0.09293 0.45146
 O14 O 0.32430 0.02401 0.58416
 O15 O 0.27543 -0.09554 0.57953
 O16 O 0.32037 0.02519 0.45423
 Cu17 Cu 0.18789 0.01054 0.52241
 Cu18 Cu 0.30812 -0.03865 0.51717
 C19 C 0.27745 0.06459 0.43301
 C20 C 0.21745 -0.09661 0.60189
 C21 C 0.28314 0.06473 0.60883
 C22 C 0.21278 -0.09351 0.43212
 O23 O 0.77176 0.04885 0.59314
 O24 O 0.82433 -0.08384 0.47620
 O25 O 0.82038 0.04608 0.47502
 O26 O 0.77543 -0.07921 0.59576
 O27 O 0.67528 -0.08341 0.55507
 O28 O 0.72002 0.04331 0.43499
 O29 O 0.72461 -0.08779 0.43469
 O30 O 0.67112 0.04324 0.55368
 Cu31 Cu 0.80812 -0.01685 0.53887
 Cu32 Cu 0.68790 -0.02210 0.48965
 C33 C 0.71277 0.06818 0.59371
 C34 C 0.78318 -0.10851 0.43547
 C35 C 0.77747 0.06730 0.43562
 C36 C 0.71746 -0.10158 0.59681
 O37 O 0.43392 0.22912 0.07095
 O38 O 0.56915 0.23136 -0.05515
 O39 O 0.55401 0.19129 0.07171
 O40 O 0.43967 0.23711 -0.05581
 O41 O 0.45852 0.34353 -0.03508
 O42 O 0.57465 0.29632 0.09730
 O43 O 0.58661 0.33588 -0.02543
 O44 O 0.45474 0.33509 0.09210
 Cu45 Cu 0.49922 0.21205 0.00476
 Cu46 Cu 0.52099 0.33743 0.03394
 C47 C 0.42148 0.28365 0.10228
 C48 C 0.60007 0.28592 -0.06186
 C49 C 0.58213 0.23474 0.10790
 C50 C 0.42834 0.29723 -0.06697
 O51 O 0.57524 0.83634 0.07000
 O52 O 0.45691 0.83235 -0.06007
 O53 O 0.44850 0.84264 0.06867
 O54 O 0.57788 0.79258 -0.05220
 O55 O 0.55674 0.68778 -0.03163
 O56 O 0.43214 0.73671 0.08793
 O57 O 0.43224 0.72762 -0.04375
 O58 O 0.55998 0.73040 0.09000
 Cu59 Cu 0.51631 0.83556 0.00473
 Cu60 Cu 0.49263 0.71076 0.02660
 C61 C 0.58913 0.78558 0.10203
 C62 C 0.42308 0.78162 -0.07413
 C63 C 0.41836 0.79701 0.09896
 C64 C 0.58966 0.73087 -0.06132
 O65 O 0.07468 0.40293 0.20396
 O66 O -0.04139 0.53535 0.15673
 O67 O 0.08670 0.52566 0.16441
 O68 O -0.04522 0.40819 0.16516
 O69 O -0.06606 0.42933 0.27114
 O70 O 0.06921 0.55538 0.26894
 O71 O -0.06026 0.55608 0.26315
 O72 O 0.05402 0.42852 0.30899
 Cu73 Cu 0.02105 0.46631 0.16284
 Cu74 Cu -0.00074 0.49549 0.28823
 C75 C 0.08214 0.39232 0.26554
 C76 C -0.07157 0.56724 0.20302
 C77 C 0.10016 0.56208 0.21438
 C78 C -0.07849 0.39802 0.21660
 O79 O 0.05671 0.53185 0.81247
 O80 O -0.06794 0.41236 0.76352
 O81 O 0.05989 0.41022 0.76987
 O82 O -0.06778 0.54404 0.77261
 O83 O -0.04308 0.56034 0.66788
 O84 O 0.07518 0.43020 0.66392
 O85 O -0.05155 0.43161 0.65758
 O86 O 0.07788 0.55240 0.70766
 Cu87 Cu -0.00742 0.47366 0.78949
 Cu88 Cu 0.01629 0.49551 0.66468
 C89 C 0.08965 0.56152 0.76938
 C90 C -0.08171 0.40133 0.70322
 C91 C 0.08905 0.39818 0.71468
 C92 C -0.07691 0.57442 0.71861
 C93 C 0.29974 0.27073 0.22443
 C94 C 0.30387 0.33893 0.22314
 C95 C 0.34838 0.35153 0.17556
 C96 C 0.36865 0.29028 0.15131
 O97 O 0.33925 0.24061 0.18092
 H98 H 0.27887 0.37509 0.25462
 H99 H 0.36551 0.39988 0.16129
 C100 C 0.72300 0.77866 0.21012
 C101 C 0.71181 0.84605 0.21435
 C102 C 0.65798 0.85574 0.17722
 C103 C 0.64025 0.79381 0.15248
 O104 O 0.67989 0.74646 0.17204
 H105 H 0.74077 0.88397 0.23948
 H106 H 0.63561 0.90292 0.16707
 C107 C 0.70559 0.28636 -0.20073
 C108 C 0.72047 0.34831 -0.17396
 C109 C 0.68541 0.35357 -0.11709
 C110 C 0.65074 0.29506 -0.11304
 O111 O 0.66269 0.25384 -0.16396
 H112 H 0.75085 0.38669 -0.19416
 H113 H 0.68311 0.39651 -0.08375
 C114 C 0.29276 0.77578 -0.18893
 C115 C 0.30793 0.84241 -0.19116
 C116 C 0.35940 0.85122 -0.15020
 C117 C 0.37206 0.78983 -0.12473
 O118 O 0.33149 0.74338 -0.14800
 H119 H 0.28350 0.88084 -0.21786
 H120 H 0.38385 0.89775 -0.13866
 C121 C 0.19873 0.26768 0.29014
 C122 C 0.17503 0.27232 0.35429
 C123 C 0.12604 0.31778 0.35260
 C124 C 0.12360 0.33789 0.28787
 O125 O 0.16732 0.30743 0.24979
 H126 H 0.19413 0.24987 0.39820
 H127 H 0.09766 0.33663 0.39434
 C128 C 0.20815 0.68552 0.79403
 C129 C 0.20865 0.66174 0.85749
 C130 C 0.16526 0.61040 0.85602
 C131 C 0.14170 0.60682 0.79196
 O132 O 0.16764 0.65221 0.75423
 H133 H 0.23425 0.68150 0.90054
 H134 H 0.15081 0.58051 0.89728
 C135 C -0.18669 0.69536 0.20634
 C136 C -0.18581 0.68494 0.13827
 C137 C -0.14225 0.63452 0.12693
 C138 C -0.12020 0.61817 0.18882
 O139 O -0.14714 0.65478 0.23687
 H140 H -0.21205 0.71201 0.10129
 H141 H -0.12776 0.61291 0.07945
 C142 C -0.21625 0.29378 0.70308
 C143 C -0.20947 0.29674 0.63499
 C144 C -0.15632 0.33645 0.62509
 C145 C -0.13476 0.35437 0.68775
 O146 O -0.17071 0.32832 0.73495
 H147 H -0.24081 0.27466 0.59726
 H148 H -0.13682 0.35196 0.57809
 C149 C 0.28646 0.18289 0.30863
 C150 C 0.35130 0.16360 0.30715
 C151 C 0.35630 0.11581 0.35319
 C152 C 0.29452 0.10971 0.37969
 O153 O 0.25196 0.14995 0.35256
 H154 H 0.39087 0.18316 0.27793
 H155 H 0.40006 0.08952 0.36686
 C156 C 0.70186 0.20363 0.70464
 C157 C 0.63561 0.19137 0.70025
 C158 C 0.63021 0.13742 0.65808
 C159 C 0.69356 0.12116 0.64068
 O160 O 0.73696 0.16126 0.66866
 H161 H 0.59617 0.22001 0.72239
 H162 H 0.58562 0.11364 0.64104
 C163 C 0.20923 -0.21737 0.72251
 C164 C 0.14288 -0.20618 0.71781
 C165 C 0.13661 -0.15989 0.67032
 C166 C 0.19952 -0.14663 0.64984
 O167 O 0.24362 -0.18154 0.68115
 H168 H 0.10428 -0.22644 0.74793
 H169 H 0.09187 -0.13707 0.65399
 C170 C 0.80091 -0.22445 0.30348
 C171 C 0.86487 -0.22595 0.32539
 C172 C 0.86641 -0.18456 0.38021
 C173 C 0.80361 -0.16064 0.38735
 O174 O 0.76390 -0.18504 0.34131
 H175 H 0.90631 -0.25053 0.30230
 H176 H 0.90886 -0.17092 0.40948
 C177 C 0.70814 0.70624 -0.18535
 C178 C 0.70864 0.64278 -0.16160
 C179 C 0.66524 0.64423 -0.11026
 C180 C 0.64169 0.70830 -0.10665
 O181 O 0.66764 0.74604 -0.15203
 H182 H 0.73424 0.59973 -0.18137
 H183 H 0.65079 0.60297 -0.08037
 C184 C 0.31320 0.29389 -0.19507
 C185 C 0.31407 0.36195 -0.18466
 C186 C 0.35763 0.37331 -0.13424
 C187 C 0.37970 0.31142 -0.11788
 O188 O 0.35277 0.26337 -0.15449
 H189 H 0.28782 0.39892 -0.21174
 H190 H 0.37212 0.42079 -0.11264
 C191 C 0.28382 0.79712 0.20652
 C192 C 0.29059 0.86521 0.20356
 C193 C 0.34374 0.87512 0.16385
 C194 C 0.36532 0.81247 0.14593
 O195 O 0.32938 0.76526 0.17199
 H196 H 0.25924 0.90293 0.22563
 H197 H 0.36322 0.92212 0.14833
 C198 C 0.69874 0.21015 0.23253
 C199 C 0.67507 0.14600 0.22787
 C200 C 0.62608 0.14769 0.18241
 C201 C 0.62361 0.21241 0.16232
 O202 O 0.66732 0.25050 0.19279
 H203 H 0.69419 0.10210 0.25031
 H204 H 0.59771 0.10594 0.16356
 C205 C -0.20719 0.68926 0.72442
 C206 C -0.19195 0.69155 0.65781
 C207 C -0.14048 0.65059 0.64902
 C208 C -0.12789 0.62506 0.71039
 O209 O -0.16851 0.64829 0.75682
 H210 H -0.21634 0.71828 0.61937
 H211 H -0.11598 0.63908 0.60250
 C212 C -0.20026 0.27590 0.22949
 C213 C -0.19616 0.27723 0.16129
 C214 C -0.15164 0.32481 0.14870
 C215 C -0.13135 0.34902 0.20996
 O216 O -0.16073 0.31938 0.25963
 H217 H -0.22117 0.24578 0.12511
 H218 H -0.13451 0.33911 0.10035
 C219 C 0.22290 0.29007 0.72163
 C220 C 0.21169 0.28580 0.65424
 C221 C 0.15786 0.32292 0.64455
 C222 C 0.14014 0.34770 0.70647
 O223 O 0.17979 0.32817 0.75383
 H224 H 0.24064 0.26065 0.61632
 H225 H 0.13547 0.33306 0.59736
 C226 C 0.20569 0.70092 0.21396
 C227 C 0.22061 0.67412 0.15202
 C228 C 0.18554 0.61726 0.14676
 C229 C 0.15084 0.61323 0.20525
 O230 O 0.16277 0.66416 0.24646
 H231 H 0.25100 0.69431 0.11364
 H232 H 0.18327 0.58390 0.10383
 C233 C 0.70924 -0.22222 0.71755
 C234 C 0.64288 -0.21754 0.70634
 C235 C 0.63661 -0.17004 0.66006
 C236 C 0.69952 -0.14954 0.64682
 O237 O 0.74362 -0.18084 0.68174
 H238 H 0.60429 -0.24768 0.72658
 H239 H 0.59187 -0.15373 0.63722
 C240 C 0.20192 -0.20445 0.29666
 C241 C 0.13567 -0.20006 0.30891
 C242 C 0.13025 -0.15789 0.36286
 C243 C 0.19359 -0.14048 0.37914
 O244 O 0.23701 -0.16846 0.33904
 H245 H 0.09624 -0.22220 0.28026
 H246 H 0.08565 -0.14085 0.38663
 C247 C 0.78648 0.19168 0.31731
 C248 C 0.85132 0.19316 0.33660
 C249 C 0.85632 0.14711 0.38439
 C250 C 0.79454 0.12062 0.39050
 O251 O 0.75198 0.14775 0.35025
 H252 H 0.89089 0.22236 0.31704
 H253 H 0.90008 0.13344 0.41068
 C254 C 0.30084 0.19674 0.72475
 C255 C 0.36480 0.17485 0.72624
 C256 C 0.36636 0.12002 0.68487
 C257 C 0.30356 0.11286 0.66096
 O258 O 0.26383 0.15889 0.68535
 H259 H 0.40623 0.19796 0.75081
 H260 H 0.40882 0.09077 0.67123
   
