data_POSCAR
  _audit_creation_date              2014-09-24
  _audit_creation_method            'ToBaCCo'
  _symmetry_space_group_name_H-M    'P1'
  _symmetry_Int_Tables_number       1
  _symmetry_cell_setting            triclinic
  loop_
  _symmetry_equiv_pos_as_xyz
 x,y,z
_cell_length_a 35.6131
_cell_length_b 35.8951
_cell_length_c 27.2469
_cell_angle_alpha 89.975800
_cell_angle_beta 90.100300
_cell_angle_gamma 120.146300
loop_
  _atom_site_label
  _atom_site_type_symbol
  _atom_site_fract_x
  _atom_site_fract_y
  _atom_site_fract_z
C1 C -0.11649 0.42929 -0.07827
 C2 C -0.11652 0.46738 -0.07876
 C3 C -0.07669 0.49838 -0.06002
 N4 N -0.05242 0.48052 -0.04776
 C5 C -0.07659 0.43832 -0.05940
 C6 C -0.06095 0.54321 -0.06115
 C7 C -0.02710 0.57216 -0.02983
 C8 C -0.00494 0.61672 -0.03390
 C9 C 0.02566 0.63242 0.00301
 C10 C 0.02163 0.59699 0.02811
 N11 N -0.01105 0.56049 0.00848
 C12 C 0.04751 0.59902 0.06840
 C13 C 0.05033 0.56330 0.08550
 C14 C 0.07267 0.56364 0.12737
 C15 C 0.07292 0.52559 0.12765
 C16 C 0.05074 0.50319 0.08594
 N17 N 0.03691 0.52629 0.06019
 C18 C 0.04842 0.46477 0.06940
 C19 C 0.02265 0.44034 0.02932
 C20 C 0.02710 0.40888 0.00492
 C21 C -0.00371 0.39311 -0.03177
 C22 C -0.02645 0.41505 -0.02831
 N23 N -0.01047 0.44338 0.00943
 C24 C -0.06069 0.40928 -0.05972
 H25 H -0.14219 0.39869 -0.09193
 H26 H -0.14222 0.47216 -0.09287
 H27 H -0.02340 0.46162 0.02311
 H28 H -0.00981 0.63593 -0.06102
 H29 H 0.04881 0.66604 0.00992
 H30 H 0.08834 0.58924 0.15413
 H31 H 0.08884 0.51610 0.15467
 H32 H -0.00832 0.36879 -0.05838
 H33 H -0.02366 0.52952 0.02254
 H34 H 0.05064 0.39890 0.01218
 C35 C 0.53983 0.43462 -0.09600
 C36 C 0.57768 0.47338 -0.09464
 C37 C 0.56949 0.50106 -0.06726
 N38 N 0.52760 0.48043 -0.05232
 C39 C 0.50941 0.43951 -0.06922
 C40 C 0.59994 0.54525 -0.05952
 C41 C 0.59188 0.57292 -0.03014
 C42 C 0.61745 0.61746 -0.02935
 C43 C 0.59956 0.63216 0.00489
 C44 C 0.56378 0.59617 0.02434
 N45 N 0.55965 0.56022 0.00319
 C46 C 0.53729 0.59717 0.06226
 C47 C 0.49756 0.56108 0.07678
 C48 C 0.47416 0.55983 0.11796
 C49 C 0.43639 0.52086 0.11709
 C50 C 0.43780 0.49962 0.07522
 N51 N 0.47517 0.52436 0.05057
 C52 C 0.40349 0.45943 0.05889
 C53 C 0.40708 0.43637 0.01887
 C54 C 0.37255 0.40037 -0.00234
 C55 C 0.38983 0.38549 -0.03707
 C56 C 0.43454 0.41308 -0.03653
 N57 N 0.44466 0.44370 -0.00192
 C58 C 0.46497 0.40728 -0.06418
 H59 H 0.53516 0.40642 -0.11563
 H60 H 0.60757 0.48046 -0.11274
 H61 H 0.47558 0.46487 0.01112
 H62 H 0.64607 0.63736 -0.05112
 H63 H 0.61173 0.66553 0.01463
 H64 H 0.48318 0.58460 0.14555
 H65 H 0.41060 0.50968 0.14393
 H66 H 0.37145 0.35698 -0.05932
 H67 H 0.53891 0.52880 0.01446
 H68 H 0.33852 0.38572 0.00705
 C69 C 0.52049 1.08440 -0.11144
 C70 C 0.55984 1.08630 -0.11021
 C71 C 0.56118 1.06709 -0.06663
 N72 N 0.52414 1.05384 -0.04095
 C73 C 0.49919 1.06451 -0.06826
 C74 C 0.59776 1.06536 -0.04962
 C75 C 0.59612 1.03870 -0.01063
 C76 C 0.63201 1.04036 0.01154
 C77 C 0.61641 1.00753 0.04553
 C78 C 0.57149 0.98699 0.04326
 N79 N 0.55944 1.00588 0.00860
 C80 C 0.54286 0.95047 0.07109
 C81 C 0.49807 0.93591 0.07600
 C82 C 0.46868 0.89859 0.10031
 C83 C 0.43000 0.89814 0.10109
 C84 C 0.43686 0.93501 0.07684
 N85 N 0.47856 0.95819 0.06181
 C86 C 0.40586 0.94842 0.07287
 C87 C 0.41152 0.98325 0.04343
 C88 C 0.38570 1.00199 0.04557
 C89 C 0.40061 1.03335 0.00989
 C90 C 0.43495 1.03268 -0.01324
 N91 N 0.44116 1.00185 0.00723
 C92 C 0.45851 1.05896 -0.05353
 H93 H 0.50899 1.09660 -0.14066
 H94 H 0.58474 1.10042 -0.13811
 H95 H 0.46139 0.99111 -0.00611
 H96 H 0.66588 1.06260 0.00369
 H97 H 0.63589 0.99958 0.06909
 H98 H 0.47468 0.87458 0.11669
 H99 H 0.40038 0.87374 0.11824
 H100 H 0.38750 1.05410 0.00168
 H101 H 0.52818 0.99418 -0.00486
 H102 H 0.35885 0.99385 0.07018
 C103 C 1.06942 0.55083 0.36901
 C104 C 1.07162 0.51396 0.37047
 C105 C 1.05133 0.49282 0.41351
 N106 N 1.03672 0.51562 0.43839
 C107 C 1.04792 0.55125 0.41125
 C108 C 1.04965 0.45467 0.43039
 C109 C 1.02097 0.42810 0.46767
 C110 C 1.02169 0.39326 0.48873
 C111 C 0.98948 0.37655 0.52354
 C112 C 0.97041 0.40207 0.52360
 N113 N 0.98910 0.43275 0.48863
 C114 C 0.93662 0.39627 0.55564
 C115 C 0.92271 0.42666 0.56254
 C116 C 0.88919 0.42043 0.59356
 C117 C 0.88711 0.45744 0.59227
 C118 C 0.91943 0.48541 0.56053
 N119 N 0.94149 0.46666 0.54284
 C120 C 0.92920 0.52823 0.55095
 C121 C 0.96282 0.55702 0.51932
 C122 C 0.97858 0.60105 0.51701
 C123 C 1.01069 0.61736 0.48207
 C124 C 1.01322 0.58279 0.46324
 N125 N 0.98361 0.54611 0.48579
 C126 C 1.04150 0.58570 0.42502
 H127 H 1.08240 0.57481 0.34019
 H128 H 1.08670 0.50390 0.34309
 H129 H 0.97522 0.51506 0.47559
 H130 H 1.04343 0.38130 0.48030
 H131 H 0.98170 0.34921 0.54686
 H132 H 0.86872 0.39243 0.61571
 H133 H 0.86477 0.46323 0.61325
 H134 H 1.02975 0.65087 0.47142
 H135 H 0.97868 0.45367 0.47744
 H136 H 0.96831 0.61974 0.53835
 C137 C 0.53768 0.42263 0.58169
 C138 C 0.57425 0.46251 0.58280
 C139 C 0.56409 0.49029 0.55859
 N140 N 0.52257 0.46857 0.54244
 C141 C 0.50639 0.42708 0.55624
 C142 C 0.59186 0.53545 0.55578
 C143 C 0.58272 0.56282 0.52727
 C144 C 0.60496 0.60741 0.53052
 C145 C 0.58774 0.62197 0.49521
 C146 C 0.55540 0.58584 0.47154
 N147 N 0.55291 0.54999 0.49090
 C148 C 0.53023 0.58682 0.43201
 C149 C 0.49184 0.55030 0.41518
 C150 C 0.46813 0.55007 0.37468
 C151 C 0.43135 0.51033 0.37347
 C152 C 0.43384 0.48739 0.41312
 N153 N 0.47075 0.51201 0.43872
 C154 C 0.40047 0.44592 0.42722
 C155 C 0.40470 0.42116 0.46489
 C156 C 0.37063 0.38373 0.48434
 C157 C 0.38821 0.36901 0.51903
 C158 C 0.43253 0.39793 0.51993
 N159 N 0.44235 0.42917 0.48621
 C160 C 0.46279 0.39387 0.54985
 H161 H 0.53449 0.39387 0.59848
 H162 H 0.60461 0.47030 0.60039
 H163 H 0.47330 0.45221 0.47507
 H164 H 0.63107 0.62739 0.55552
 H165 H 0.59786 0.65534 0.48784
 H166 H 0.47601 0.57615 0.34925
 H167 H 0.40538 0.49988 0.34686
 H168 H 0.37032 0.34019 0.54094
 H169 H 0.53516 0.51900 0.47678
 H170 H 0.33663 0.36852 0.47450
 C171 C 0.43445 -0.08707 0.38755
 C172 C 0.47377 -0.08507 0.38555
 C173 C 0.49618 -0.06397 0.42780
 N174 N 0.47185 -0.05277 0.45544
 C175 C 0.43400 -0.06699 0.43084
 C176 C 0.53749 -0.05770 0.44115
 C177 C 0.56254 -0.03046 0.48013
 C178 C 0.59812 -0.03019 0.50138
 C179 C 0.61403 0.00165 0.53653
 C180 C 0.58768 0.01984 0.53584
 N181 N 0.55672 0.00043 0.50096
 C182 C 0.59375 0.05461 0.56571
 C183 C 0.56282 0.06807 0.57029
 C184 C 0.56976 0.10446 0.59568
 C185 C 0.53107 0.10396 0.59567
 C186 C 0.50156 0.06709 0.57062
 N187 N 0.52104 0.04517 0.55516
 C188 C 0.45651 0.05194 0.56767
 C189 C 0.42722 0.01620 0.53912
 C190 C 0.38240 -0.00449 0.54326
 C191 C 0.36574 -0.03744 0.50951
 C192 C 0.40086 -0.03584 0.48549
 N193 N 0.43820 -0.00267 0.50335
 C194 C 0.39774 -0.06459 0.44804
 H195 H 0.40897 -0.10172 0.36024
 H196 H 0.48458 -0.09787 0.35635
 H197 H 0.46916 0.00851 0.48933
 H198 H 0.61127 -0.05074 0.49237
 H199 H 0.64188 0.01042 0.55986
 H200 H 0.59934 0.12844 0.61338
 H201 H 0.52503 0.12742 0.61340
 H202 H 0.33164 -0.06032 0.50375
 H203 H 0.53554 0.01038 0.48864
 H204 H 0.36365 0.00302 0.56844
 O205 O 0.15419 0.39315 0.19902
 O206 O 0.22530 0.38305 0.29052
 O207 O 0.15725 0.39274 0.29533
 O208 O 0.22550 0.38804 0.19543
 O209 O 0.26682 0.45879 0.19968
 O210 O 0.19690 0.46358 0.29429
 O211 O 0.26430 0.45411 0.29467
 O212 O 0.19664 0.46386 0.19967
 Cu213 Cu 0.18620 0.38206 0.24466
 Cu214 Cu 0.23524 0.46708 0.24719
 C215 C 0.16360 0.43020 0.18343
 C216 C 0.25676 0.41714 0.30834
 C217 C 0.16585 0.42934 0.31203
 C218 C 0.25864 0.42293 0.18166
 O219 O 0.60327 0.76605 0.20453
 O220 O 0.60591 0.83778 0.30363
 O221 O 0.60094 0.76236 0.30049
 O222 O 0.60981 0.84224 0.20862
 O223 O 0.53813 0.81015 0.20601
 O224 O 0.52950 0.73165 0.29783
 O225 O 0.53447 0.80619 0.29981
 O226 O 0.53179 0.73492 0.20238
 Cu227 Cu 0.61225 0.80510 0.25459
 Cu228 Cu 0.52633 0.76733 0.25118
 C229 C 0.56684 0.73842 0.18641
 C230 C 0.57047 0.83484 0.31755
 C231 C 0.56360 0.73372 0.31517
 C232 C 0.57524 0.83997 0.19248
 O233 O 0.23215 0.84499 0.21400
 O234 O 0.15285 0.76479 0.30018
 O235 O 0.22739 0.83584 0.30967
 O236 O 0.15781 0.77161 0.20536
 O237 O 0.19384 0.73641 0.20198
 O238 O 0.26163 0.79903 0.30518
 O239 O 0.18755 0.72839 0.29577
 O240 O 0.26652 0.80810 0.21055
 Cu241 Cu 0.18920 0.80822 0.25743
 Cu242 Cu 0.23100 0.76453 0.25310
 C243 C 0.26291 0.84017 0.19798
 C244 C 0.15626 0.73236 0.31178
 C245 C 0.25608 0.82765 0.32559
 C246 C 0.16394 0.74270 0.18638
 O247 O 0.83675 0.60643 0.69486
 O248 O 0.76986 0.61424 0.79392
 O249 O 0.84221 0.61111 0.79048
 O250 O 0.76658 0.61251 0.69837
 O251 O 0.72587 0.54175 0.70533
 O252 O 0.80486 0.53990 0.78982
 O253 O 0.73404 0.54319 0.79969
 O254 O 0.79474 0.53559 0.69570
 Cu255 Cu 0.80787 0.61835 0.74426
 Cu256 Cu 0.76094 0.53303 0.74812
 C257 C 0.82646 0.56945 0.67801
 C258 C 0.74066 0.57968 0.81366
 C259 C 0.83702 0.57506 0.80439
 C260 C 0.73301 0.57718 0.68690
 O261 O 0.39232 0.23085 0.70351
 O262 O 0.38840 0.16130 0.80596
 O263 O 0.39331 0.23621 0.79896
 O264 O 0.38819 0.15557 0.71037
 O265 O 0.45991 0.18827 0.71058
 O266 O 0.46491 0.26756 0.79881
 O267 O 0.45979 0.19326 0.80442
 O268 O 0.46392 0.26233 0.70304
 Cu269 Cu 0.38329 0.19279 0.75453
 Cu270 Cu 0.46929 0.23137 0.75408
 C271 C 0.42894 0.25842 0.68600
 C272 C 0.42357 0.16490 0.82204
 C273 C 0.43023 0.26520 0.81439
 C274 C 0.42336 0.15801 0.69624
 O275 O 0.84121 0.23849 0.80124
 O276 O 0.76528 0.15636 0.71292
 O277 O 0.84053 0.22854 0.70692
 O278 O 0.76848 0.16463 0.80872
 O279 O 0.73356 0.20068 0.80173
 O280 O 0.80385 0.26289 0.69944
 O281 O 0.72996 0.19216 0.70649
 O282 O 0.80538 0.27361 0.79263
 Cu283 Cu 0.80726 0.19317 0.75813
 Cu284 Cu 0.76435 0.23555 0.74939
 C285 C 0.83670 0.27075 0.81060
 C286 C 0.73467 0.16060 0.69485
 C287 C 0.83499 0.25735 0.68681
 C288 C 0.73915 0.17235 0.82300
 C289 C 0.09004 0.41202 0.15640
 C290 C 0.06208 0.42068 0.12921
 C291 C 0.07828 0.45220 0.09252
 C292 C 0.12303 0.47352 0.08085
 C293 C 0.15146 0.46458 0.10824
 C294 C 0.13491 0.43481 0.14769
 C295 C 0.19554 0.48560 0.09476
 N296 N 0.21000 0.51431 0.05725
 N297 N 0.18339 0.52328 0.03217
 C298 C 0.14044 0.50388 0.04263
 H299 H 0.07679 0.38906 0.18625
 H300 H 0.02785 0.40405 0.13825
 H301 H 0.21853 0.47898 0.11298
 H302 H 0.12024 0.51204 0.02071
 C303 C 0.58813 0.68719 0.15471
 C304 C 0.58087 0.65268 0.12479
 C305 C 0.55016 0.63886 0.08692
 C306 C 0.52860 0.66207 0.07672
 C307 C 0.53577 0.69703 0.10719
 C308 C 0.56453 0.70843 0.14780
 C309 C 0.51383 0.71940 0.09576
 N310 N 0.48634 0.70704 0.05686
 N311 N 0.47931 0.67389 0.02859
 C312 C 0.49945 0.65097 0.03718
 H313 H 0.61032 0.69554 0.18542
 H314 H 0.59762 0.63518 0.13280
 H315 H 0.51864 0.74696 0.11679
 H316 H 0.49284 0.62459 0.01279
 C317 C 0.29613 0.86177 0.11609
 C318 C 0.33075 0.88826 0.08556
 C319 C 0.36642 0.92585 0.10391
 C320 C 0.36617 0.93827 0.15316
 C321 C 0.33074 0.91159 0.18402
 C322 C 0.29606 0.87260 0.16543
 C323 C 0.33207 0.92411 0.23317
 N324 N 0.36659 0.96107 0.24989
 N325 N 0.39988 0.98618 0.22084
 C326 C 0.40092 0.97601 0.17311
 H327 H 0.26995 0.83182 0.10159
 H328 H 0.33083 0.87829 0.04806
 H329 H 0.30600 0.90489 0.25834
 H330 H 0.42881 0.99751 0.15120
 C331 C 0.89728 0.58217 0.64807
 C332 C 0.92200 0.57116 0.61826
 C333 C 0.90337 0.54413 0.57754
 C334 C 0.85939 0.52945 0.56554
 C335 C 0.83379 0.53921 0.59694
 C336 C 0.85280 0.56491 0.63925
 C337 C 0.78985 0.52280 0.58478
 N338 N 0.77309 0.49866 0.54369
 N339 N 0.79723 0.48972 0.51408
 C340 C 0.83976 0.50423 0.52359
 H341 H 0.91235 0.60193 0.68019
 H342 H 0.95559 0.58262 0.62792
 H343 H 0.76876 0.52924 0.60721
 H344 H 0.85789 0.49609 0.49824
 C345 C 0.41777 0.31704 0.65649
 C346 C 0.42618 0.35007 0.62359
 C347 C 0.44767 0.35384 0.57923
 C348 C 0.45888 0.32238 0.56671
 C349 C 0.45127 0.28939 0.60066
 C350 C 0.43148 0.28750 0.64635
 C351 C 0.46395 0.25941 0.58769
 N352 N 0.48284 0.26245 0.54354
 N353 N 0.48996 0.29345 0.51165
 C354 C 0.47868 0.32354 0.52172
 H355 H 0.40272 0.31604 0.69138
 H356 H 0.41753 0.37400 0.63366
 H357 H 0.45875 0.23346 0.61205
 H358 H 0.48513 0.34800 0.49451
 C359 C 0.70237 0.14151 0.61220
 C360 C 0.66814 0.11572 0.58069
 C361 C 0.63328 0.07662 0.59705
 C362 C 0.63427 0.06193 0.64503
 C363 C 0.66949 0.08782 0.67675
 C364 C 0.70309 0.12843 0.66047
 C365 C 0.66883 0.07294 0.72462
 N366 N 0.63515 0.03458 0.73943
 N367 N 0.60203 0.01029 0.70965
 C368 C 0.60035 0.02268 0.66305
 H369 H 0.72759 0.17278 0.59950
 H370 H 0.66754 0.12746 0.54423
 H371 H 0.69479 0.09142 0.75027
 H372 H 0.57259 0.00177 0.64055
 C373 C 0.45966 0.15387 0.89273
 C374 C 0.46893 0.12822 0.92254
 C375 C 0.44290 0.08323 0.92177
 C376 C 0.40465 0.06403 0.89242
 C377 C 0.39484 0.09042 0.86202
 C378 C 0.42396 0.13584 0.86075
 C379 C 0.35759 0.06976 0.83195
 N380 N 0.33250 0.02624 0.83219
 N381 N 0.34215 0.00169 0.85992
 C382 C 0.37744 0.01899 0.88961
 H383 H 0.48214 0.18829 0.89289
 H384 H 0.49797 0.14362 0.94508
 H385 H 0.34793 0.08713 0.80778
 H386 H 0.38399 -0.00280 0.91030
 C387 C 0.68124 0.59193 0.83794
 C388 C 0.64643 0.58300 0.86865
 C389 C 0.64223 0.56344 0.91440
 C390 C 0.67533 0.55556 0.93093
 C391 C 0.71027 0.56394 0.89939
 C392 C 0.71225 0.58088 0.85196
 C393 C 0.74176 0.55425 0.91611
 N394 N 0.73826 0.53742 0.96159
 N395 N 0.70536 0.52951 0.99124
 C396 C 0.67373 0.53790 0.97744
 H397 H 0.68215 0.60449 0.80151
 H398 H 0.62120 0.58897 0.85549
 H399 H 0.76924 0.56024 0.89359
 H400 H 0.64773 0.53087 1.00293
 C401 C 0.87636 0.29847 0.88936
 C402 C 0.90219 0.33243 0.92118
 C403 C 0.92172 0.37543 0.90522
 C404 C 0.91869 0.38365 0.85466
 C405 C 0.89111 0.34944 0.82304
 C406 C 0.86891 0.30663 0.84107
 C407 C 0.88724 0.35931 0.77389
 N408 N 0.91113 0.40028 0.75728
 N409 N 0.93850 0.43213 0.78648
 C410 C 0.94323 0.42525 0.83441
 H411 H 0.85999 0.26581 0.90336
 H412 H 0.90439 0.32515 0.95932
 H413 H 0.86630 0.33483 0.74810
 H414 H 0.96657 0.45224 0.85611
 C415 C 0.53693 0.84706 0.38963
 C416 C 0.52838 0.87311 0.41966
 C417 C 0.55269 0.91811 0.41586
 C418 C 0.58793 0.93717 0.38228
 C419 C 0.59636 0.91043 0.35100
 C420 C 0.56984 0.86486 0.35427
 C421 C 0.62936 0.93055 0.31558
 N422 N 0.65264 0.97411 0.31255
 N423 N 0.64486 0.99906 0.34194
 C424 C 0.61318 0.98215 0.37634
 H425 H 0.51624 0.81244 0.39260
 H426 H 0.50136 0.85794 0.44503
 H427 H 0.63683 0.91249 0.28975
 H428 H 0.60782 1.00411 0.39828
 C429 C 0.31492 0.40148 0.32873
 C430 C 0.35023 0.40869 0.35778
 C431 C 0.35753 0.42952 0.40320
 C432 C 0.32675 0.43989 0.42157
 C433 C 0.29052 0.43179 0.39241
 C434 C 0.28603 0.41463 0.34467
 C435 C 0.26004 0.44163 0.41184
 N436 N 0.26635 0.45964 0.45705
 N437 N 0.30106 0.46834 0.48402
 C438 C 0.33153 0.45918 0.46781
 H439 H 0.31190 0.38831 0.29228
 H440 H 0.37367 0.40074 0.34332
 H441 H 0.23092 0.43432 0.39177
 H442 H 0.35893 0.46667 0.49134
 C443 C 0.14013 0.68175 0.37976
 C444 C 0.11234 0.64604 0.40753
 C445 C 0.06721 0.62562 0.40120
 C446 C 0.04979 0.64279 0.36691
 C447 C 0.07831 0.67920 0.33806
 C448 C 0.12402 0.69836 0.34430
 C449 C 0.05987 0.69338 0.30207
 N450 N 0.01618 0.67302 0.29622
 N451 N -0.01043 0.63908 0.32333
 C452 C 0.00483 0.62308 0.35813
 H453 H 0.17482 0.69582 0.38505
 H454 H 0.12627 0.63334 0.43338
 H455 H 0.07937 0.71996 0.27795
 H456 H -0.01836 0.59487 0.37821
 C457 C 0.87493 0.58840 0.88442
 C458 C 0.90066 0.58122 0.91750
 C459 C 0.92180 0.55890 0.90279
 C460 C 0.92057 0.54793 0.85240
 C461 C 0.89346 0.55401 0.81940
 C462 C 0.86951 0.57321 0.83611
 C463 C 0.89154 0.54097 0.77031
 N464 N 0.91664 0.52471 0.75510
 N465 N 0.94342 0.52050 0.78571
 C466 C 0.94635 0.53160 0.83369
 H467 H 0.85711 0.60360 0.89738
 H468 H 0.90149 0.59038 0.95555
 H469 H 0.87082 0.54407 0.74374
 H470 H 0.96923 0.52816 0.85662
 C471 C 0.41747 0.32427 0.83841
 C472 C 0.42607 0.35931 0.86814
 C473 C 0.45057 0.36769 0.91137
 C474 C 0.46427 0.33847 0.92630
 C475 C 0.45586 0.30316 0.89582
 C476 C 0.43354 0.29702 0.85081
 C477 C 0.46993 0.27485 0.91165
 N478 N 0.49111 0.28179 0.95506
 N479 N 0.49906 0.31501 0.98373
 C480 C 0.48633 0.34350 0.97093
 H481 H 0.40028 0.31983 0.80410
 H482 H 0.41544 0.38130 0.85604
 H483 H 0.46376 0.24697 0.89030
 H484 H 0.49325 0.36965 0.99587
 C485 C 0.69142 0.10213 0.86286
 C486 C 0.65674 0.07598 0.89351
 C487 C 0.64006 0.09413 0.92614
 C488 C 0.66099 0.13949 0.93092
 C489 C 0.69608 0.16610 0.89961
 C490 C 0.70974 0.14703 0.86346
 C491 C 0.71653 0.21104 0.90591
 N492 N 0.70195 0.22781 0.94057
 N493 N 0.66851 0.20275 0.96944
 C494 C 0.64756 0.15920 0.96585
 H495 H 0.70217 0.08698 0.83643
 H496 H 0.64126 0.04130 0.88987
 H497 H 0.74448 0.23299 0.88443
 H498 H 0.62097 0.14039 0.99069
 C499 C 0.09392 0.40209 0.35131
 C500 C 0.06513 0.40784 0.38061
 C501 C 0.08004 0.44452 0.41027
 C502 C 0.12545 0.47338 0.41448
 C503 C 0.15483 0.46750 0.38496
 C504 C 0.13848 0.43264 0.35098
 C505 C 0.19963 0.49671 0.39113
 N506 N 0.21352 0.52926 0.42412
 N507 N 0.18586 0.53469 0.45172
 C508 C 0.14243 0.50784 0.44820
 H509 H 0.08078 0.37494 0.32633
 H510 H 0.03064 0.38518 0.37725
 H511 H 0.22409 0.49378 0.37120
 H512 H 0.12158 0.51326 0.47237
 C513 C 0.58259 0.67983 0.34355
 C514 C 0.57438 0.64406 0.37167
 C515 C 0.54284 0.62892 0.40858
 C516 C 0.52108 0.65179 0.41951
 C517 C 0.52949 0.68825 0.39109
 C518 C 0.55927 0.70121 0.35148
 C519 C 0.50792 0.71071 0.40370
 N520 N 0.47926 0.69676 0.44143
 N521 N 0.47083 0.66203 0.46752
 C522 C 0.49074 0.63908 0.45788
 H523 H 0.60560 0.68940 0.31362
 H524 H 0.59130 0.62684 0.36312
 H525 H 0.51407 0.73961 0.38459
 H526 H 0.48301 0.61140 0.48056
 C527 C 0.30054 0.89716 0.36911
 C528 C 0.33564 0.92385 0.39922
 C529 C 0.35666 0.90687 0.42725
 C530 C 0.33827 0.86145 0.42967
 C531 C 0.30198 0.83431 0.39996
 C532 C 0.28513 0.85275 0.36672
 C533 C 0.28344 0.78939 0.40503
 N534 N 0.30092 0.77316 0.43678
 N535 N 0.33541 0.79869 0.46415
 C536 C 0.35454 0.84218 0.46187
 H537 H 0.28738 0.91181 0.34501
 H538 H 0.34868 0.95837 0.39747
 H539 H 0.25450 0.76695 0.38522
 H540 H 0.38177 0.86127 0.48592
 C541 C 0.57284 0.90632 0.17979
 C542 C 0.56485 0.93324 0.15024
 C543 C 0.56059 0.92723 0.09929
 C544 C 0.56761 0.89545 0.07742
 C545 C 0.57625 0.86839 0.10754
 C546 C 0.57729 0.87307 0.15911
 C547 C 0.58223 0.83657 0.08500
 N548 N 0.57939 0.83213 0.03548
 N549 N 0.57084 0.85726 0.00718
 C550 C 0.56471 0.88866 0.02644
 H551 H 0.57318 0.90996 0.21931
 H552 H 0.55934 0.95730 0.16742
 H553 H 0.58940 0.81545 0.10632
 H554 H 0.55777 0.90806 0.00177
 C555 C 0.30172 0.45326 0.10672
 C556 C 0.33688 0.46223 0.07682
 C557 C 0.36103 0.44176 0.08455
 C558 C 0.34744 0.40922 0.12078
 C559 C 0.31114 0.39956 0.15093
 C560 C 0.28912 0.42306 0.14480
 C561 C 0.29982 0.36830 0.18786
 N562 N 0.32305 0.34808 0.19364
 N563 N 0.35706 0.35721 0.16536
 C564 C 0.37018 0.38721 0.12932
 H565 H 0.28547 0.47165 0.10158
 H566 H 0.34702 0.48726 0.04931
 H567 H 0.27289 0.35965 0.21232
 H568 H 0.39824 0.39356 0.10774
 C569 C 0.08983 0.69281 0.15596
 C570 C 0.06144 0.65705 0.12793
 C571 C 0.07729 0.64169 0.09082
 C572 C 0.12200 0.66476 0.07899
 C573 C 0.15082 0.70108 0.10735
 C574 C 0.13474 0.71379 0.14770
 C575 C 0.19505 0.72334 0.09448
 N576 N 0.20919 0.70949 0.05625
 N577 N 0.18214 0.67496 0.03004
 C578 C 0.13906 0.65210 0.04010
 H579 H 0.07695 0.70207 0.18659
 H580 H 0.02723 0.63974 0.13710
 H581 H 0.21838 0.75196 0.11394
 H582 H 0.11852 0.62451 0.01739
 C583 C 0.42157 0.12889 0.61349
 C584 C 0.42980 0.10310 0.58209
 C585 C 0.43893 0.07221 0.60108
 C586 C 0.43688 0.06515 0.65236
 C587 C 0.42933 0.09180 0.68417
 C588 C 0.42264 0.12453 0.66447
 C589 C 0.42983 0.08547 0.73499
 N590 N 0.43659 0.05394 0.75249
 N591 N 0.44315 0.02848 0.72250
 C592 C 0.44359 0.03303 0.67306
 H593 H 0.41671 0.15394 0.59799
 H594 H 0.43137 0.10879 0.54291
 H595 H 0.42479 0.10522 0.76080
 H596 H 0.44906 0.01147 0.65039
 C597 C 0.65949 0.56335 0.67028
 C598 C 0.62521 0.55337 0.63838
 C599 C 0.63127 0.55493 0.58746
 C600 C 0.67351 0.57019 0.56840
 C601 C 0.70871 0.58150 0.60104
 C602 C 0.70100 0.57632 0.65220
 C603 C 0.75012 0.59581 0.58113
 N604 N 0.75560 0.59822 0.53175
 N605 N 0.72246 0.58710 0.50107
 C606 C 0.68160 0.57298 0.51766
 H607 H 0.65319 0.55911 0.70939
 H608 H 0.59307 0.54177 0.65341
 H609 H 0.77812 0.60501 0.60430
 H610 H 0.65592 0.56411 0.49107
 C611 C 0.84890 0.29004 0.60470
 C612 C 0.87362 0.32404 0.57291
 C613 C 0.91537 0.35656 0.58626
 C614 C 0.93390 0.35292 0.63077
 C615 C 0.90942 0.31726 0.66218
 C616 C 0.86581 0.28675 0.64988
 C617 C 0.92881 0.31483 0.70622
 N618 N 0.96958 0.34632 0.71796
 N619 N 0.99222 0.38014 0.68883
 C620 C 0.97572 0.38465 0.64582
 H621 H 0.81553 0.26718 0.59501
 H622 H 0.85905 0.32661 0.53907
 H623 H 0.91194 0.28858 0.73175
 H624 H 0.99548 0.41292 0.62379
   
