data_POSCAR
  _audit_creation_date              2014-09-24
  _audit_creation_method            'ToBaCCo'
  _symmetry_space_group_name_H-M    'P1'
  _symmetry_Int_Tables_number       1
  _symmetry_cell_setting            triclinic
  loop_
  _symmetry_equiv_pos_as_xyz
 x,y,z
_cell_length_a 34.5497
_cell_length_b 26.6974
_cell_length_c 29.0609
_cell_angle_alpha 89.191200
_cell_angle_beta 89.784100
_cell_angle_gamma 90.358900
loop_
  _atom_site_label
  _atom_site_type_symbol
  _atom_site_fract_x
  _atom_site_fract_y
  _atom_site_fract_z
C1 C 0.30022 0.32002 0.21937
 H2 H 0.29897 0.32679 0.25596
 C3 C 0.32623 0.34718 0.19165
 H4 H 0.34482 0.37518 0.20689
 C5 C 0.27821 0.27461 0.15499
 H6 H 0.26074 0.24509 0.14082
 C7 C 0.30346 0.30121 0.12600
 H8 H 0.30396 0.29323 0.08956
 N9 N 0.27616 0.28536 0.20060
 C10 C 0.18253 0.27318 0.30217
 H11 H 0.18074 0.23280 0.30521
 C12 C 0.15866 0.30291 0.32916
 H13 H 0.13839 0.28534 0.35299
 C14 C 0.21167 0.34531 0.26803
 H15 H 0.23218 0.36175 0.24404
 C16 C 0.18853 0.37648 0.29470
 H17 H 0.19191 0.41675 0.29168
 Zn18 Zn 0.24175 0.25027 0.24109
 N19 N 0.20890 0.29464 0.27301
 C20 C 0.27230 0.22488 0.32910
 N21 N 0.27317 0.21484 0.28334
 C22 C 0.29802 0.18059 0.26587
 C23 C 0.32329 0.15464 0.29488
 C24 C 0.29698 0.19964 0.35933
 C25 C 0.19170 0.22008 0.16982
 C26 C 0.17074 0.18597 0.14364
 C27 C 0.18165 0.12304 0.20251
 C28 C 0.20432 0.15755 0.22624
 N29 N 0.20979 0.20469 0.20896
 H30 H 0.25285 0.25284 0.34222
 H31 H 0.29829 0.17372 0.22927
 H32 H 0.34300 0.12748 0.28064
 H33 H 0.29590 0.20761 0.39575
 H34 H 0.19469 0.25853 0.15804
 H35 H 0.15850 0.19826 0.11118
 H36 H 0.17690 0.08603 0.21728
 H37 H 0.21730 0.14679 0.25866
 C38 C 0.16173 0.35520 0.32577
 C39 C 0.32796 0.33782 0.14435
 C40 C 0.16629 0.13623 0.15933
 C41 C 0.32316 0.16457 0.34210
 C42 C 0.78790 0.82653 0.22699
 H43 H 0.78756 0.83216 0.26379
 C44 C 0.80961 0.85854 0.19841
 H45 H 0.82673 0.88793 0.21387
 C46 C 0.76816 0.77887 0.16302
 H47 H 0.75255 0.74724 0.14939
 C48 C 0.78961 0.80975 0.13322
 H49 H 0.78921 0.80200 0.09674
 N50 N 0.76720 0.78817 0.20888
 C51 C 0.68565 0.76299 0.32158
 H52 H 0.69160 0.72433 0.33047
 C53 C 0.66122 0.79093 0.34949
 H54 H 0.64965 0.77395 0.38071
 C55 C 0.69535 0.83269 0.27146
 H56 H 0.70871 0.84876 0.24093
 C57 C 0.66964 0.86128 0.29720
 H58 H 0.66361 0.89941 0.28637
 Zn59 Zn 0.73847 0.74617 0.24958
 N60 N 0.70337 0.78473 0.28446
 C61 C 0.77609 0.72144 0.33403
 N62 N 0.77466 0.71260 0.28804
 C63 C 0.79991 0.68056 0.26795
 C64 C 0.82643 0.65376 0.29469
 C65 C 0.80203 0.69540 0.36201
 C66 C 0.68221 0.72115 0.18621
 C67 C 0.66129 0.69116 0.15619
 C68 C 0.69326 0.61844 0.18828
 C69 C 0.71360 0.64989 0.21786
 N70 N 0.70865 0.70041 0.21520
 H71 H 0.75736 0.74883 0.34925
 H72 H 0.79900 0.67526 0.23113
 H73 H 0.84582 0.62756 0.27849
 H74 H 0.80215 0.70180 0.39873
 H75 H 0.67844 0.76135 0.18535
 H76 H 0.64120 0.70822 0.13222
 H77 H 0.69824 0.57843 0.18947
 H78 H 0.73378 0.63392 0.24214
 C79 C 0.65249 0.84065 0.33716
 C80 C 0.81010 0.85118 0.15049
 C81 C 0.66766 0.63941 0.15619
 C82 C 0.82751 0.66106 0.34233
 C83 C 0.80534 0.31885 0.72853
 H84 H 0.80645 0.32069 0.76567
 C85 C 0.82728 0.35230 0.70162
 H86 H 0.84554 0.37982 0.71808
 C87 C 0.78086 0.27998 0.66171
 H88 H 0.76336 0.25117 0.64623
 C89 C 0.80205 0.31299 0.63352
 H90 H 0.80033 0.30980 0.59647
 N91 N 0.78237 0.28400 0.70831
 C92 C 0.70267 0.25630 0.82189
 H93 H 0.70931 0.21774 0.83041
 C94 C 0.67807 0.28334 0.85031
 H95 H 0.66698 0.26582 0.88154
 C96 C 0.71070 0.32658 0.77202
 H97 H 0.72349 0.34317 0.74136
 C98 C 0.68476 0.35425 0.79831
 H99 H 0.67791 0.39222 0.78774
 Zn100 Zn 0.75340 0.24067 0.74767
 N101 N 0.71941 0.27866 0.78443
 C102 C 0.79344 0.21696 0.83006
 N103 N 0.78936 0.20508 0.78502
 C104 C 0.81192 0.16954 0.76566
 C105 C 0.83799 0.14206 0.79249
 C106 C 0.81939 0.19096 0.85804
 C107 C 0.69547 0.22040 0.68494
 C108 C 0.67217 0.19250 0.65565
 C109 C 0.70177 0.11701 0.68541
 C110 C 0.72453 0.14644 0.71433
 N111 N 0.72184 0.19731 0.71250
 H112 H 0.77657 0.24671 0.84465
 H113 H 0.80948 0.16221 0.72927
 H114 H 0.85558 0.11433 0.77559
 H115 H 0.81946 0.19931 0.89438
 H116 H 0.69327 0.26080 0.68494
 H117 H 0.65197 0.21143 0.63303
 H118 H 0.70477 0.07665 0.68612
 H119 H 0.74440 0.12852 0.73780
 C120 C 0.66814 0.33273 0.83820
 C121 C 0.82514 0.35012 0.65351
 C122 C 0.67601 0.14032 0.65488
 C123 C 0.84260 0.15263 0.83973
 C124 C 0.31679 0.79802 0.71596
 H125 H 0.33032 0.77528 0.74224
 C126 C 0.33949 0.83153 0.69011
 H127 H 0.37038 0.83373 0.69607
 C128 C 0.26028 0.82470 0.67694
 H129 H 0.22937 0.82261 0.67237
 C130 C 0.28189 0.85888 0.65048
 H131 H 0.26759 0.88238 0.62514
 N132 N 0.27793 0.79473 0.70872
 C133 C 0.18296 0.76293 0.80260
 H134 H 0.17766 0.72378 0.79567
 C135 C 0.15903 0.78832 0.83311
 H136 H 0.13507 0.76878 0.84966
 C137 C 0.22128 0.83604 0.79047
 H138 H 0.24599 0.85413 0.77430
 C139 C 0.19815 0.86278 0.82088
 H140 H 0.20500 0.90155 0.82800
 Zn141 Zn 0.24739 0.74960 0.74517
 N142 N 0.21362 0.78688 0.78246
 C143 C 0.27588 0.71277 0.83023
 N144 N 0.28028 0.71057 0.78374
 C145 C 0.30834 0.68187 0.76455
 C146 C 0.33329 0.65393 0.79240
 C147 C 0.30015 0.68537 0.85929
 C148 C 0.18703 0.72803 0.68345
 C149 C 0.16356 0.69847 0.65558
 C150 C 0.20136 0.62636 0.67776
 C151 C 0.22407 0.65724 0.70526
 N152 N 0.21699 0.70731 0.70715
 H153 H 0.25365 0.73592 0.84497
 H154 H 0.31153 0.68106 0.72752
 H155 H 0.35555 0.63129 0.77679
 H156 H 0.29621 0.68714 0.89623
 H157 H 0.18076 0.76737 0.68687
 H158 H 0.13987 0.71541 0.63681
 H159 H 0.20757 0.58671 0.67609
 H160 H 0.24714 0.64087 0.72514
 C161 C 0.16716 0.83849 0.84320
 C162 C 0.32192 0.86252 0.65717
 C163 C 0.17062 0.64702 0.65275
 C164 C 0.32949 0.65601 0.84034
 C165 C -0.05002 -0.04030 0.03354
 C166 C -0.02545 -0.01512 0.00234
 C167 C -0.04113 0.01652 -0.03157
 C168 C -0.08123 0.02342 -0.03410
 C169 C -0.10573 -0.00230 -0.00326
 C170 C -0.09023 -0.03396 0.03083
 C171 C 0.01676 -0.02025 0.00587
 C172 C 0.03714 -0.04735 -0.02717
 C173 C 0.07756 -0.04974 -0.02540
 C174 C 0.09760 -0.02254 0.00796
 C175 C 0.07755 0.00331 0.04242
 C176 C 0.03685 0.00390 0.04117
 H177 H -0.03791 -0.06459 0.05991
 H178 H -0.02213 0.03668 -0.05523
 H179 H 0.02156 -0.06696 -0.05383
 H180 H 0.02075 0.02427 0.06685
 H181 H -0.13678 0.00290 -0.00530
 H182 H 0.12895 -0.02203 0.00712
 C183 C -0.04372 0.47572 0.52984
 C184 C -0.02284 0.50258 0.49606
 C185 C -0.04251 0.53239 0.46386
 C186 C -0.08291 0.53640 0.46585
 C187 C -0.10372 0.50829 0.49883
 C188 C -0.08429 0.47829 0.53130
 C189 C 0.01967 0.50098 0.49510
 C190 C 0.03893 0.47551 0.46005
 C191 C 0.07953 0.47585 0.45783
 C192 C 0.10070 0.50141 0.49142
 C193 C 0.08160 0.52661 0.52686
 C194 C 0.04102 0.52649 0.52838
 H195 H -0.02844 0.45279 0.55482
 H196 H -0.02631 0.55352 0.43803
 H197 H 0.02234 0.45536 0.43460
 H198 H 0.02607 0.54684 0.55506
 H199 H -0.13504 0.51035 0.49968
 H200 H 0.13206 0.50167 0.49001
 C201 C 0.45327 -0.01181 0.53532
 C202 C 0.47438 0.01438 0.50138
 C203 C 0.45499 0.04429 0.46895
 C204 C 0.41454 0.04873 0.47093
 C205 C 0.39360 0.02156 0.50446
 C206 C 0.41281 -0.00848 0.53695
 C207 C 0.51665 0.00892 0.49938
 C208 C 0.53335 -0.02291 0.46704
 C209 C 0.57316 -0.03337 0.46844
 C210 C 0.59640 -0.00847 0.50060
 C211 C 0.58031 0.02643 0.53069
 C212 C 0.54018 0.03369 0.53108
 H213 H 0.46829 -0.03539 0.56004
 H214 H 0.47130 0.06424 0.44246
 H215 H 0.51511 -0.04045 0.44154
 H216 H 0.52737 0.05934 0.55530
 H217 H 0.36228 0.02380 0.50526
 H218 H 0.62729 -0.01525 0.50157
 C219 C 0.45918 0.46509 0.02195
 C220 C 0.48008 0.49700 -0.00774
 C221 C 0.46045 0.52923 -0.03793
 C222 C 0.41981 0.53004 -0.03801
 C223 C 0.39907 0.49692 -0.00906
 C224 C 0.41863 0.46393 0.02067
 C225 C 0.52251 0.49506 -0.00770
 C226 C 0.54170 0.46330 -0.03805
 C227 C 0.58178 0.45566 -0.03424
 C228 C 0.60268 0.48303 -0.00155
 C229 C 0.58396 0.51758 0.02673
 C230 C 0.54365 0.52237 0.02449
 H231 H 0.47452 0.44044 0.04547
 H232 H 0.47667 0.55379 -0.06103
 H233 H 0.52518 0.44371 -0.06391
 H234 H 0.52882 0.54768 0.04736
 H235 H 0.36770 0.49684 -0.00966
 H236 H 0.63371 0.47826 0.00141
 C237 C 0.14416 -0.14972 -0.07471
 C238 C 0.14418 -0.13494 -0.12179
 C239 C 0.12194 -0.09389 -0.13605
 C240 C 0.09980 -0.06742 -0.10458
 C241 C 0.09927 -0.08125 -0.05795
 C242 C 0.12085 -0.12334 -0.04275
 C243 C 0.16733 -0.18960 -0.05845
 C244 C 0.16625 -0.20443 -0.01227
 C245 C 0.14216 -0.18005 0.01853
 C246 C 0.11955 -0.13999 0.00358
 H247 H 0.18667 -0.20946 -0.08104
 H248 H 0.18405 -0.23519 -0.00037
 H249 H 0.14105 -0.19213 0.05423
 H250 H 0.10082 -0.12260 0.02850
 H251 H 0.12182 -0.08220 -0.17191
 H252 H 0.08342 -0.03534 -0.11655
 C253 C 0.11367 0.42521 0.34148
 C254 C 0.13909 0.38715 0.35726
 C255 C 0.14422 0.37971 0.40464
 C256 C 0.12500 0.40918 0.43634
 C257 C 0.10005 0.44733 0.42184
 C258 C 0.09460 0.45623 0.37401
 C259 C 0.10629 0.43272 0.29414
 C260 C 0.08219 0.47127 0.27908
 C261 C 0.06500 0.50294 0.31070
 C262 C 0.07109 0.49570 0.35772
 H263 H 0.11876 0.40877 0.26838
 H264 H 0.07697 0.47673 0.24266
 H265 H 0.04671 0.53317 0.29874
 H266 H 0.05744 0.52151 0.38098
 H267 H 0.16361 0.35092 0.41727
 H268 H 0.12942 0.40186 0.47271
 C269 C 0.59360 -0.14483 0.38916
 C270 C 0.62851 -0.12768 0.36796
 C271 C 0.64299 -0.08024 0.37916
 C272 C 0.62432 -0.05051 0.41106
 C273 C 0.59125 -0.06769 0.43466
 C274 C 0.57617 -0.11601 0.42462
 C275 C 0.57536 -0.18977 0.37571
 C276 C 0.54307 -0.20833 0.39942
 C277 C 0.52834 -0.18263 0.43684
 C278 C 0.54468 -0.13702 0.44953
 H279 H 0.58558 -0.21071 0.34655
 H280 H 0.52970 -0.24314 0.38904
 H281 H 0.50389 -0.19788 0.45590
 H282 H 0.53258 -0.11890 0.47927
 H283 H 0.66956 -0.06621 0.36368
 H284 H 0.63621 -0.01367 0.41773
 C285 C 0.60817 0.34425 -0.11090
 C286 C 0.64298 0.36303 -0.13117
 C287 C 0.65594 0.41107 -0.11959
 C288 C 0.63564 0.44009 -0.08850
 C289 C 0.60239 0.42157 -0.06614
 C290 C 0.58910 0.37239 -0.07618
 C291 C 0.59150 0.29840 -0.12464
 C292 C 0.55929 0.27840 -0.10176
 C293 C 0.54303 0.30355 -0.06491
 C294 C 0.55773 0.35001 -0.05205
 H295 H 0.60287 0.27783 -0.15341
 H296 H 0.54716 0.24292 -0.11234
 H297 H 0.51867 0.28722 -0.04648
 H298 H 0.54447 0.36774 -0.02280
 H299 H 0.68241 0.42629 -0.13435
 H300 H 0.64623 0.47755 -0.08176
 C301 C -0.11348 0.14470 -0.09380
 C302 C -0.13356 0.12468 -0.13263
 C303 C -0.13074 0.07261 -0.14017
 C304 C -0.11347 0.04075 -0.10810
 C305 C -0.09756 0.05939 -0.06774
 C306 C -0.09675 0.11162 -0.06051
 C307 C -0.10660 0.19676 -0.08918
 C308 C -0.08814 0.21566 -0.05048
 C309 C -0.07507 0.18330 -0.01612
 C310 C -0.07891 0.13171 -0.02112
 H311 H -0.11448 0.22330 -0.11593
 H312 H -0.08372 0.25564 -0.04731
 H313 H -0.06093 0.19818 0.01398
 H314 H -0.06722 0.10780 0.00573
 H315 H -0.14504 0.05503 -0.16889
 H316 H -0.11354 0.00079 -0.11422
 C317 C -0.11875 0.65356 0.40156
 C318 C -0.14626 0.63117 0.37197
 C319 C -0.15105 0.57903 0.37277
 C320 C -0.13005 0.54910 0.40313
 C321 C -0.10361 0.57031 0.43371
 C322 C -0.09783 0.62302 0.43336
 C323 C -0.11142 0.70566 0.40008
 C324 C -0.08540 0.72743 0.43054
 C325 C -0.06626 0.69792 0.46296
 C326 C -0.07236 0.64625 0.46456
 H327 H -0.12544 0.72994 0.37523
 H328 H -0.08022 0.76745 0.42914
 H329 H -0.04646 0.71514 0.48689
 H330 H -0.05711 0.62497 0.49062
 H331 H -0.17200 0.56143 0.35044
 H332 H -0.13473 0.50892 0.40308
 C333 C 0.37681 0.16166 0.40184
 C334 C 0.34937 0.13705 0.37364
 C335 C 0.34539 0.08490 0.37676
 C336 C 0.36713 0.05711 0.40803
 C337 C 0.39358 0.08053 0.43725
 C338 C 0.39859 0.13328 0.43452
 C339 C 0.38331 0.21384 0.39807
 C340 C 0.40939 0.23777 0.42707
 C341 C 0.42944 0.21037 0.46024
 C342 C 0.42416 0.15866 0.46412
 H343 H 0.36859 0.23653 0.37255
 H344 H 0.41393 0.27782 0.42391
 H345 H 0.44932 0.22927 0.48299
 H346 H 0.44016 0.13902 0.49062
 H347 H 0.32459 0.06559 0.35541
 H348 H 0.36301 0.01685 0.40980
 C349 C 0.37964 0.64854 -0.09615
 C350 C 0.35522 0.62622 -0.12936
 C351 C 0.35373 0.57398 -0.13263
 C352 C 0.37508 0.54368 -0.10295
 C353 C 0.39867 0.56462 -0.06910
 C354 C 0.40106 0.61748 -0.06526
 C355 C 0.38347 0.70109 -0.09318
 C356 C 0.40664 0.72252 -0.05947
 C357 C 0.42637 0.69223 -0.02819
 C358 C 0.42366 0.64022 -0.03086
 H359 H 0.36889 0.72604 -0.11698
 H360 H 0.40917 0.76287 -0.05749
 H361 H 0.44398 0.70912 -0.00180
 H362 H 0.43927 0.61822 -0.00560
 H363 H 0.33521 0.55645 -0.15783
 H364 H 0.37301 0.50337 -0.10623
 C365 C -0.16584 -0.06432 0.12420
 C366 C -0.16744 -0.11766 0.12069
 C367 C -0.14453 -0.14071 0.08695
 C368 C -0.11937 -0.11302 0.05902
 C369 C -0.11626 -0.06114 0.06321
 C370 C -0.13926 -0.03625 0.09610
 C371 C -0.19178 -0.03767 0.15249
 C372 C -0.18909 0.01423 0.15628
 C373 C -0.16120 0.04095 0.13139
 C374 C -0.13663 0.01618 0.10131
 H375 H -0.21503 -0.05626 0.17105
 H376 H -0.20893 0.03387 0.17849
 H377 H -0.15908 0.08121 0.13473
 H378 H -0.11575 0.03851 0.08206
 H379 H -0.14465 -0.18104 0.08329
 H380 H -0.10208 -0.13236 0.03373
 C381 C -0.15671 0.43813 0.62552
 C382 C -0.15210 0.38535 0.62398
 C383 C -0.12493 0.36513 0.59367
 C384 C -0.10263 0.39595 0.56493
 C385 C -0.10661 0.44810 0.56561
 C386 C -0.13313 0.46977 0.59688
 C387 C -0.18476 0.46024 0.65417
 C388 C -0.18810 0.51217 0.65636
 C389 C -0.16379 0.54304 0.63011
 C390 C -0.13653 0.52224 0.60063
 H391 H -0.20453 0.43781 0.67485
 H392 H -0.20956 0.52855 0.67871
 H393 H -0.16621 0.58333 0.63241
 H394 H -0.11803 0.54766 0.58118
 H395 H -0.12103 0.32494 0.59214
 H396 H -0.08254 0.37883 0.54123
 C397 C 0.34203 -0.04944 0.63251
 C398 C 0.34555 -0.10215 0.62910
 C399 C 0.37212 -0.12221 0.59805
 C400 C 0.39413 -0.09114 0.56930
 C401 C 0.39040 -0.03897 0.57081
 C402 C 0.36479 -0.01754 0.60325
 C403 C 0.31704 -0.02771 0.66507
 C404 C 0.31439 0.02419 0.66858
 C405 C 0.33680 0.05534 0.64025
 C406 C 0.36197 0.03488 0.60805
 H407 H 0.29972 -0.05051 0.68843
 H408 H 0.29512 0.04032 0.69373
 H409 H 0.33491 0.09559 0.64350
 H410 H 0.37950 0.06048 0.58754
 H411 H 0.37524 -0.16244 0.59540
 H412 H 0.41368 -0.10802 0.54482
 C413 C 0.38122 0.34582 0.08376
 C414 C 0.35382 0.36788 0.11371
 C415 C 0.34900 0.41993 0.11272
 C416 C 0.37011 0.45011 0.08225
 C417 C 0.39656 0.42928 0.05143
 C418 C 0.40196 0.37658 0.05147
 C419 C 0.38880 0.29390 0.08548
 C420 C 0.41450 0.27240 0.05449
 C421 C 0.43311 0.30201 0.02132
 C422 C 0.42696 0.35355 0.01961
 H423 H 0.37526 0.26952 0.11092
 H424 H 0.41982 0.23250 0.05605
 H425 H 0.45255 0.28497 -0.00311
 H426 H 0.44173 0.37489 -0.00710
 H427 H 0.32815 0.43734 0.13529
 H428 H 0.36577 0.49026 0.08274
 C429 C 0.15734 0.04950 0.12363
 C430 C 0.14438 0.09924 0.13130
 C431 C 0.10907 0.11443 0.11211
 C432 C 0.08750 0.08255 0.08465
 C433 C 0.09922 0.03316 0.07711
 C434 C 0.13321 0.01542 0.09925
 C435 C 0.19407 0.03289 0.13845
 C436 C 0.20473 -0.01714 0.13432
 C437 C 0.17926 -0.05150 0.11520
 C438 C 0.14382 -0.03553 0.09784
 H439 H 0.21518 0.05821 0.15274
 H440 H 0.23275 -0.02939 0.14646
 H441 H 0.18722 -0.09056 0.11316
 H442 H 0.12472 -0.06348 0.08368
 H443 H 0.09828 0.15188 0.11768
 H444 H 0.06177 0.09725 0.06827
 C445 C 0.12358 0.57486 0.64009
 C446 C 0.14656 0.61515 0.62273
 C447 C 0.14765 0.62497 0.57529
 C448 C 0.12681 0.59544 0.54495
 C449 C 0.10412 0.55519 0.56105
 C450 C 0.10263 0.54416 0.60893
 C451 C 0.12050 0.56476 0.68780
 C452 C 0.09852 0.52432 0.70428
 C453 C 0.07922 0.49328 0.67376
 C454 C 0.08119 0.50290 0.62653
 H455 H 0.13477 0.58810 0.71277
 H456 H 0.09656 0.51692 0.74094
 H457 H 0.06252 0.46166 0.68676
 H458 H 0.06600 0.47756 0.60407
 H459 H 0.16511 0.65561 0.56159
 H460 H 0.12813 0.60435 0.50848
 C461 C 0.65843 0.11688 0.57330
 C462 C 0.65351 0.11060 0.62154
 C463 C 0.62549 0.07693 0.63850
 C464 C 0.60193 0.05023 0.60860
 C465 C 0.60574 0.05634 0.56085
 C466 C 0.63386 0.09031 0.54273
 C467 C 0.68752 0.14874 0.55474
 C468 C 0.69124 0.15585 0.50732
 C469 C 0.66620 0.13152 0.47752
 C470 C 0.63772 0.09913 0.49485
 H471 H 0.70780 0.16817 0.57656
 H472 H 0.71356 0.18056 0.49363
 H473 H 0.66893 0.13766 0.44075
 H474 H 0.61872 0.08149 0.47036
 H475 H 0.62146 0.07185 0.67527
 H476 H 0.58054 0.02444 0.62282
 C477 C 0.65583 0.61366 0.07384
 C478 C 0.64838 0.60774 0.12166
 C479 C 0.62100 0.57234 0.13694
 C480 C 0.60041 0.54358 0.10569
 C481 C 0.60666 0.54929 0.05825
 C482 C 0.63429 0.58488 0.04182
 C483 C 0.68446 0.64737 0.05713
 C484 C 0.69062 0.65398 0.01000
 C485 C 0.66851 0.62734 -0.02133
 C486 C 0.64055 0.59317 -0.00577
 H487 H 0.70248 0.66865 0.08020
 H488 H 0.71254 0.68010 -0.00228
 H489 H 0.67312 0.63306 -0.05789
 H490 H 0.62385 0.57371 -0.03142
 H491 H 0.61513 0.56750 0.17339
 H492 H 0.57935 0.51655 0.11860
   
