data_POSCAR
  _audit_creation_date              2014-09-24
  _audit_creation_method            'ToBaCCo'
  _symmetry_space_group_name_H-M    'P1'
  _symmetry_Int_Tables_number       1
  _symmetry_cell_setting            triclinic
  loop_
  _symmetry_equiv_pos_as_xyz
 x,y,z
_cell_length_a 16.6482
_cell_length_b 16.7609
_cell_length_c 16.9110
_cell_angle_alpha 89.359500
_cell_angle_beta 91.635500
_cell_angle_gamma 91.462200
loop_
  _atom_site_label
  _atom_site_type_symbol
  _atom_site_fract_x
  _atom_site_fract_y
  _atom_site_fract_z
C1 C 0.52578 0.97335 -0.70190
 C2 C 0.45119 0.98811 -0.66696
 C3 C 0.44133 0.96673 -0.58743
 C4 C 0.50090 0.92770 -0.54349
 C5 C 0.57249 0.91037 -0.57946
 C6 C 0.58980 0.94021 -0.65525
 C7 C 0.49449 0.92139 -0.45641
 C8 C 0.56074 0.94379 -0.40835
 C9 C 0.55165 0.96272 -0.32899
 C10 C 0.47476 0.96029 -0.29701
 C11 C 0.40731 0.93790 -0.34506
 C12 C 0.41924 0.91229 -0.42238
 H13 H 0.53575 0.99461 -0.76156
 H14 H 0.38625 0.98084 -0.55887
 H15 H 0.61628 0.87723 -0.54522
 H16 H 0.61921 0.95277 -0.43397
 H17 H 0.46742 0.98144 -0.23749
 H18 H 0.36890 0.89171 -0.45907
 C19 C -0.69925 1.53208 -0.08360
 C20 C -0.67860 1.45708 -0.05244
 C21 C -0.60864 1.45172 -0.00482
 C22 C -0.55426 1.51738 0.00314
 C23 C -0.58159 1.59341 -0.01974
 C24 C -0.65446 1.60091 -0.06239
 C25 C -0.46778 1.50389 0.02596
 C26 C -0.41430 1.56694 0.04816
 C27 C -0.33226 1.55336 0.06178
 C28 C -0.30365 1.47514 0.05753
 C29 C -0.35578 1.41141 0.03654
 C30 C -0.43611 1.42719 0.01795
 H31 H -0.75514 1.53867 -0.11700
 H32 H -0.59394 1.39465 0.02118
 H33 H -0.54473 1.64664 -0.01059
 H34 H -0.43516 1.62681 0.05537
 H35 H -0.24066 1.46405 0.06933
 H36 H -0.47268 1.37908 -0.00655
 C37 C 0.01986 0.30074 0.49435
 C38 C 0.05339 0.34458 0.43023
 C39 C 0.08535 0.42179 0.44563
 C40 C 0.06827 0.46277 0.51480
 C41 C 0.03320 0.41893 0.57645
 C42 C 0.01062 0.33820 0.56826
 C43 C 0.06912 0.55259 0.51519
 C44 C 0.05912 0.59511 0.58616
 C45 C 0.02123 0.66912 0.58370
 C46 C 0.00533 0.70595 0.51026
 C47 C 0.02779 0.67077 0.44030
 C48 C 0.05878 0.59434 0.44256
 H49 H -0.00352 0.24048 0.48596
 H50 H 0.12074 0.45234 0.40171
 H51 H 0.01998 0.44798 0.63099
 H52 H 0.07003 0.56686 0.64313
 H53 H -0.02436 0.76283 0.50729
 H54 H 0.06513 0.56545 0.38639
 O55 O -0.21538 0.98141 -0.08543
 O56 O 0.19688 1.01210 -0.12143
 O57 O -0.02485 1.09940 -0.20627
 O58 O -0.01526 0.88886 -0.19605
 O59 O 0.00534 0.79286 -0.09926
 O60 O -0.03025 1.19912 -0.11358
 O61 O 0.08810 0.99546 -0.20789
 O62 O -0.12848 0.99606 -0.18862
 Zr63 Zr -0.01279 0.99687 -0.13521
 O64 O 0.07358 0.93604 -0.07275
 O65 O -0.08307 1.06364 -0.06460
 C66 C -0.19957 0.99161 -0.15943
 C67 C 0.16454 0.99962 -0.19080
 C68 C -0.03241 1.17289 -0.18613
 C69 C -0.00865 0.81581 -0.17197
 H70 H 0.08798 1.11167 -0.11695
 O71 O 0.06117 1.07755 -0.07715
 H72 H -0.10855 0.88138 -0.08857
 O73 O -0.07138 0.91899 -0.06029
 O74 O 0.22454 1.02746 0.08863
 O75 O -0.19036 0.98013 0.12366
 O76 O 0.09096 1.21766 -0.01848
 O77 O 0.12856 0.81004 -0.01265
 O78 O -0.08136 0.78559 0.02631
 O79 O -0.11965 1.19553 0.00602
 O80 O 0.02155 1.11212 0.20469
 O81 O 0.02996 0.90080 0.20856
 O82 O 0.00689 1.20654 0.10522
 O83 O 0.02663 0.80038 0.11596
 O84 O 0.19831 1.13336 -0.02528
 O85 O -0.20887 1.08844 0.01706
 O86 O -0.18902 0.86922 0.03323
 O87 O 0.21779 0.91702 -0.02451
 O88 O 0.13771 1.02266 0.19266
 O89 O -0.08216 0.98973 0.21194
 Zr90 Zr 0.14501 1.01700 -0.01006
 Zr91 Zr -0.13651 0.98599 0.01432
 Zr92 Zr -0.00799 1.14086 -0.00200
 Zr93 Zr 0.01681 0.86184 0.00580
 Zr94 Zr 0.02113 1.00547 0.14042
 O95 O -0.05218 0.92516 0.08049
 O96 O 0.07934 1.08411 0.06514
 C97 C 0.20889 1.03025 0.16303
 C98 C -0.15864 0.98015 0.19403
 C99 C 0.16554 1.20314 -0.02995
 C100 C 0.19801 0.84189 -0.02883
 C101 C -0.15560 0.79967 0.03953
 C102 C -0.19112 1.16446 0.01337
 C103 C 0.01789 1.18500 0.17917
 C104 C 0.02518 0.82682 0.18784
 H105 H -0.09727 1.09811 0.11399
 O106 O -0.06526 1.06696 0.07750
 H107 H 0.13269 0.90818 0.10027
 O108 O 0.09212 0.93860 0.06937
 N109 N 0.26767 1.08443 0.28685
 N110 N 0.33675 1.07446 0.33350
 C111 C 0.38717 1.02785 0.29434
 C112 C 0.35237 1.00997 0.22019
 C113 C 0.27649 1.04435 0.21956
 H114 H 0.37380 0.96816 0.17777
 H115 H 0.21634 1.11314 0.30465
 H116 H 0.34461 1.09687 0.39066
 N117 N -0.19450 0.94512 0.33160
 N118 N -0.26504 0.93040 0.37218
 C119 C -0.32872 0.94336 0.32200
 C120 C -0.29925 0.96655 0.24890
 C121 C -0.21563 0.96665 0.25757
 H122 H -0.33360 0.98096 0.19561
 H123 H -0.13637 0.93795 0.35505
 H124 H -0.26499 0.91713 0.43255
 N125 N -0.26000 1.05478 -0.27779
 N126 N -0.32729 1.05032 -0.32042
 C127 C -0.37782 0.99706 -0.28627
 C128 C -0.34163 0.96713 -0.21756
 C129 C -0.26634 1.00469 -0.21553
 H130 H -0.36348 0.91961 -0.17936
 H131 H -0.20991 1.09018 -0.29244
 H132 H -0.33665 1.08042 -0.37419
 N133 N 0.19645 0.97624 -0.33071
 N134 N 0.25979 0.95710 -0.37085
 C135 C 0.32423 0.95236 -0.32050
 C136 C 0.30047 0.97042 -0.24517
 C137 C 0.21935 0.98518 -0.25450
 H138 H 0.33636 0.97149 -0.19082
 H139 H 0.13874 0.98281 -0.35544
 H140 H 0.25796 0.94963 -0.43203
 N141 N 0.18108 1.31024 -0.12725
 N142 N 0.22044 1.38414 -0.13143
 C143 C 0.27350 1.38878 -0.06976
 C144 C 0.26970 1.31740 -0.02596
 C145 C 0.21035 1.27087 -0.06341
 H146 H 0.29934 1.30434 0.03031
 H147 H 0.13190 1.29274 -0.16334
 H148 H 0.20956 1.42637 -0.17601
 N149 N 0.23649 0.76339 -0.14089
 N150 N 0.27465 0.69144 -0.15014
 C151 C 0.31604 0.67592 -0.08240
 C152 C 0.30524 0.73701 -0.02877
 C153 C 0.25327 0.78922 -0.06704
 H154 H 0.32115 0.73606 0.03376
 H155 H 0.19239 0.78543 -0.17990
 H156 H 0.26631 0.65421 -0.19898
 N157 N -0.16397 0.67728 0.12025
 N158 N -0.20934 0.61219 0.12647
 C159 C -0.27555 0.62043 0.08007
 C160 C -0.27294 0.69583 0.04370
 C161 C -0.20016 0.72952 0.07055
 H162 H -0.31324 0.71866 -0.00201
 H163 H -0.10646 0.68349 0.14594
 H164 H -0.19296 0.56175 0.15935
 N165 N -0.33411 1.19800 0.03180
 N166 N -0.37690 1.26266 0.03883
 C167 C -0.32805 1.32793 0.03235
 C168 C -0.25035 1.30314 0.02102
 C169 C -0.25708 1.22035 0.02071
 H170 H -0.19657 1.33981 0.01373
 H171 H -0.35748 1.13969 0.03560
 H172 H -0.43837 1.26128 0.04958
 N173 N 0.04605 1.32497 0.21817
 N174 N 0.05893 1.36810 0.28736
 C175 C 0.04947 1.31814 0.35028
 C176 C 0.03012 1.24177 0.32125
 C177 C 0.02925 1.24894 0.23842
 H178 H 0.01897 1.18785 0.35539
 H179 H 0.05064 1.34865 0.16104
 H180 H 0.06790 1.42991 0.28727
 N181 N -0.08486 1.29746 -0.24764
 N182 N -0.07708 1.33822 -0.31440
 C183 C -0.02867 1.29896 -0.36285
 C184 C -0.00613 1.22857 -0.32512
 C185 C -0.04231 1.23075 -0.25174
 H186 H 0.03671 1.18601 -0.34468
 H187 H -0.11734 1.31619 -0.19957
 H188 H -0.10187 1.39411 -0.32491
 N189 N -0.09716 0.76652 -0.27750
 N190 N -0.08609 0.73221 -0.35051
 C191 C -0.01274 0.70024 -0.34889
 C192 C 0.02448 0.71278 -0.27489
 C193 C -0.02964 0.75713 -0.23300
 H194 H 0.08684 0.70268 -0.25893
 H195 H -0.14405 0.80449 -0.26559
 H196 H -0.12730 0.73444 -0.39820
 N197 N -0.07186 0.76672 0.27766
 N198 N -0.07152 0.72827 0.34599
 C199 C 0.00427 0.70759 0.36430
 C200 C 0.05485 0.73390 0.30497
 C201 C 0.00354 0.77086 0.25084
 H202 H 0.11979 0.73242 0.30471
 H203 H -0.12228 0.79382 0.25210
 H204 H -0.12192 0.71909 0.38068
   
