data_POSCAR
  _audit_creation_date              2014-09-24
  _audit_creation_method            'ToBaCCo'
  _symmetry_space_group_name_H-M    'P1'
  _symmetry_Int_Tables_number       1
  _symmetry_cell_setting            triclinic
  loop_
  _symmetry_equiv_pos_as_xyz
 x,y,z
_cell_length_a 34.9502
_cell_length_b 20.1810
_cell_length_c 13.4534
_cell_angle_alpha 90.092600
_cell_angle_beta 89.841000
_cell_angle_gamma 89.801200
loop_
  _atom_site_label
  _atom_site_type_symbol
  _atom_site_fract_x
  _atom_site_fract_y
  _atom_site_fract_z
C1 C 0.65373 0.31557 0.49751
 C2 C 0.67036 0.29854 0.58882
 C3 C 0.70643 0.26710 0.58873
 C4 C 0.72768 0.25807 0.50001
 C5 C 0.71114 0.28097 0.41072
 C6 C 0.67401 0.30743 0.40851
 C7 C 0.76706 0.22677 0.50034
 C8 C 0.78397 0.20269 0.41161
 C9 C 0.82162 0.17758 0.40964
 C10 C 0.84153 0.17133 0.49957
 C11 C 0.82434 0.18943 0.58968
 C12 C 0.78817 0.21971 0.58913
 H13 H 0.62597 0.33912 0.49557
 H14 H 0.71744 0.24994 0.65891
 H15 H 0.72693 0.27946 0.34176
 H16 H 0.76809 0.20294 0.34299
 H17 H 0.86948 0.14835 0.50059
 H18 H 0.77704 0.23708 0.65932
 C19 C 0.15834 0.82789 0.50299
 C20 C 0.17829 0.82102 0.59315
 C21 C 0.21606 0.79651 0.59080
 C22 C 0.23306 0.77319 0.50200
 C23 C 0.21196 0.78031 0.41323
 C24 C 0.17571 0.81042 0.41248
 C25 C 0.27262 0.74262 0.50217
 C26 C 0.29403 0.73585 0.41364
 C27 C 0.32994 0.70464 0.41251
 C28 C 0.34686 0.68593 0.50273
 C29 C 0.32673 0.69280 0.59294
 C30 C 0.28919 0.71843 0.59078
 H31 H 0.13024 0.85036 0.50224
 H32 H 0.23201 0.79594 0.65933
 H33 H 0.22321 0.76299 0.34312
 H34 H 0.28315 0.75403 0.34386
 H35 H 0.37472 0.66261 0.50167
 H36 H 0.27301 0.71890 0.65917
 C37 C 0.34020 0.33181 -0.49821
 C38 C 0.32351 0.31317 -0.58860
 C39 C 0.28809 0.28054 -0.58786
 C40 C 0.26725 0.27103 -0.49871
 C41 C 0.28381 0.29457 -0.40974
 C42 C 0.32052 0.32250 -0.40841
 C43 C 0.22832 0.23845 -0.49842
 C44 C 0.21183 0.21433 -0.40951
 C45 C 0.17457 0.18791 -0.40705
 C46 C 0.15472 0.18014 -0.49714
 C47 C 0.17166 0.19850 -0.58759
 C48 C 0.20727 0.23029 -0.58697
 H49 H 0.36748 0.35698 -0.49812
 H50 H 0.27734 0.26316 -0.65821
 H51 H 0.26845 0.29223 -0.34022
 H52 H 0.22773 0.21570 -0.34099
 H53 H 0.12709 0.15628 -0.49792
 H54 H 0.21807 0.24802 -0.65713
 C55 C -0.15487 0.82090 -0.50244
 C56 C -0.17458 0.81331 -0.59248
 C57 C -0.21167 0.78633 -0.59078
 C58 C -0.22821 0.76191 -0.50217
 C59 C -0.20736 0.77039 -0.41315
 C60 C -0.17177 0.80234 -0.41235
 C61 C -0.26702 0.72900 -0.50283
 C62 C -0.28800 0.71923 -0.41402
 C63 C -0.32335 0.68651 -0.41414
 C64 C -0.33977 0.66783 -0.50454
 C65 C -0.32002 0.67718 -0.59393
 C66 C -0.28337 0.70542 -0.59226
 H67 H -0.12740 0.84520 -0.50132
 H68 H -0.22742 0.78490 -0.65956
 H69 H -0.21824 0.75287 -0.34296
 H70 H -0.27743 0.73636 -0.34336
 H71 H -0.36690 0.64224 -0.50490
 H72 H -0.26792 0.70786 -0.66165
 O73 O -0.05361 0.88655 0.18285
 O74 O -0.09538 0.94170 0.08087
 C75 C -0.08793 0.90166 0.15333
 O76 O 0.05161 1.12015 0.17925
 O77 O 0.09488 1.06034 0.08643
 C78 C 0.08633 1.10446 0.15331
 O79 O -0.05582 1.10938 0.18527
 O80 O -0.09647 1.05389 0.08102
 C81 C -0.08985 1.09340 0.15479
 O82 O 0.05411 0.88242 0.17864
 O83 O 0.09610 0.94481 0.08672
 C84 C 0.08849 0.90010 0.15319
 Zr85 Zr 0.00042 0.91645 0.12594
 O86 O 0.00260 0.91180 0.28300
 O87 O -0.00007 0.81208 0.11366
 Zr88 Zr -0.00137 1.08430 0.12529
 O89 O -0.00131 1.09574 0.28155
 O90 O -0.00388 1.18823 0.10772
 O91 O -0.03446 0.99949 0.14412
 O92 O 0.03251 1.00121 0.14522
 O93 O 0.05630 0.88294 -0.17534
 O94 O 0.09698 0.94497 -0.07952
 C95 C 0.09029 0.90124 -0.14795
 O96 O -0.05352 1.11310 -0.18410
 O97 O -0.09532 1.05389 -0.08743
 C98 C -0.08784 1.09629 -0.15695
 O99 O 0.05390 1.11921 -0.17598
 O100 O 0.09583 1.05968 -0.07981
 C101 C 0.08826 1.10278 -0.14849
 O102 O -0.05113 0.88404 -0.18433
 O103 O -0.09417 0.94157 -0.08810
 C104 C -0.08580 0.89938 -0.15760
 Zr105 Zr 0.00193 0.91606 -0.12514
 O106 O 0.00641 0.91270 -0.28200
 O107 O -0.00007 0.81129 -0.11925
 Zr108 Zr 0.00019 1.08377 -0.12536
 O109 O 0.00450 1.08677 -0.28225
 O110 O -0.00396 1.18841 -0.11972
 Zr111 Zr -0.05654 0.99859 -0.00160
 Zr112 Zr 0.05713 1.00150 0.00250
 O113 O 0.03416 1.00070 -0.14211
 O114 O -0.03293 0.99902 -0.14600
 O115 O 0.03557 0.90422 0.00168
 O116 O -0.03413 1.09527 -0.00087
 O117 O -0.03202 0.90323 -0.00055
 O118 O 0.03361 1.09777 0.00126
 H119 H 0.04924 1.00148 0.20451
 H120 H -0.05202 1.13349 -0.00081
 H121 H 0.05127 1.00099 -0.20093
 H122 H -0.04901 0.86403 -0.00085
 H123 H -0.00585 1.20679 0.17574
 H124 H 0.01787 1.20470 -0.07995
 H125 H -0.01454 1.05540 -0.30910
 H126 H -0.01302 0.94346 -0.30898
 H127 H 0.02138 0.79638 -0.07679
 H128 H -0.00096 0.79508 0.18266
 H129 H -0.01586 0.94494 0.30884
 H130 H 0.00441 1.05173 0.30997
 O131 O 0.54979 0.38309 -0.18809
 O132 O 0.59355 0.43701 -0.09063
 C133 C 0.58463 0.39590 -0.16083
 O134 O 0.44714 0.62053 -0.17820
 O135 O 0.40484 0.56359 -0.07981
 C136 C 0.41268 0.60583 -0.14943
 O137 O 0.55443 0.61059 -0.18788
 O138 O 0.59574 0.54942 -0.09256
 C139 C 0.58859 0.59222 -0.16173
 O140 O 0.44249 0.38541 -0.17556
 O141 O 0.40258 0.44906 -0.07871
 C142 C 0.40871 0.40505 -0.14728
 Zr143 Zr 0.49724 0.41566 -0.12554
 O144 O 0.49539 0.40443 -0.28176
 O145 O 0.49606 0.31176 -0.10711
 Zr146 Zr 0.50056 0.58333 -0.12793
 O147 O 0.49662 0.58496 -0.28491
 O148 O 0.50591 0.68779 -0.12384
 O149 O 0.53276 0.49717 -0.14821
 O150 O 0.46578 0.50160 -0.14302
 O151 O 0.44510 0.38523 0.17834
 O152 O 0.40363 0.44919 0.08711
 C153 C 0.41087 0.40417 0.15337
 O154 O 0.55746 0.60969 0.17909
 O155 O 0.59733 0.55045 0.07632
 C156 C 0.59127 0.59138 0.14884
 O157 O 0.44990 0.62352 0.17717
 O158 O 0.40603 0.56483 0.08621
 C159 C 0.41504 0.60903 0.15223
 O160 O 0.55309 0.38503 0.18060
 O161 O 0.59512 0.43872 0.07759
 C162 C 0.58750 0.39903 0.15032
 Zr163 Zr 0.49919 0.41702 0.12509
 O164 O 0.49620 0.41456 0.28219
 O165 O 0.50090 0.31216 0.12103
 Zr166 Zr 0.50251 0.58467 0.12344
 O167 O 0.49974 0.59016 0.28037
 O168 O 0.50876 0.68889 0.11611
 Zr169 Zr 0.55665 0.49651 -0.00442
 Zr170 Zr 0.44307 0.50409 0.00202
 O171 O 0.46791 0.50310 0.14438
 O172 O 0.53495 0.49871 0.14201
 O173 O 0.46366 0.40579 0.00170
 O174 O 0.53497 0.59396 -0.00416
 O175 O 0.53135 0.40203 -0.00212
 O176 O 0.46757 0.59934 -0.00044
 H177 H 0.44851 0.50252 -0.20122
 H178 H 0.55314 0.63155 -0.00511
 H179 H 0.45129 0.50441 0.20414
 H180 H 0.54803 0.36222 -0.00256
 H181 H 0.48296 0.70575 -0.08990
 H182 H 0.48549 0.70701 0.08427
 H183 H 0.51740 0.55613 0.30672
 H184 H 0.51625 0.44449 0.30770
 H185 H 0.47864 0.29722 0.08167
 H186 H 0.49604 0.29280 -0.17506
 H187 H 0.49023 0.44874 -0.30983
 H188 H 0.51559 0.55280 -0.31106
 N189 N 0.34449 0.36874 0.16507
 N190 N 0.32069 0.34326 0.23150
 C191 C 0.34097 0.33280 0.31539
 C192 C 0.37825 0.35243 0.29769
 N193 N 0.37913 0.37447 0.20340
 H194 H 0.40201 0.35337 0.34912
 N195 N -0.15359 0.86281 0.16357
 N196 N -0.17763 0.83875 0.23056
 C197 C -0.15834 0.83440 0.31725
 C198 C -0.12126 0.85579 0.30031
 N199 N -0.11967 0.87289 0.20406
 H200 H -0.09776 0.85973 0.35215
 N201 N 0.65924 0.61538 0.16299
 N202 N 0.68378 0.63812 0.22962
 C203 C 0.66326 0.65406 0.31141
 C204 C 0.62519 0.64103 0.29220
 N205 N 0.62400 0.61701 0.19917
 H206 H 0.60086 0.64661 0.34152
 N207 N 0.15161 1.14513 0.16459
 N208 N 0.17483 1.17138 0.23145
 C209 C 0.15439 1.17940 0.31605
 C210 C 0.11758 1.15750 0.29829
 N211 N 0.11717 1.13659 0.20331
 H212 H 0.09393 1.15396 0.35010
 N213 N 0.64718 0.34288 -0.16617
 N214 N 0.67053 0.31482 -0.23170
 C215 C 0.65277 0.31659 -0.32080
 C216 C 0.61722 0.34607 -0.30682
 N217 N 0.61516 0.36186 -0.21002
 H218 H 0.59540 0.35734 -0.36117
 N219 N 0.15675 0.86569 -0.16038
 N220 N 0.18114 0.84430 -0.22892
 C221 C 0.16171 0.83992 -0.31548
 C222 C 0.12416 0.85845 -0.29674
 N223 N 0.12242 0.87383 -0.19958
 H224 H 0.10050 0.86194 -0.34819
 N225 N 0.34702 0.64560 -0.16133
 N226 N 0.32319 0.66879 -0.22945
 C227 C 0.34285 0.67257 -0.31598
 C228 C 0.38001 0.65175 -0.29758
 N229 N 0.38127 0.63564 -0.20067
 H230 H 0.40368 0.64706 -0.34916
 N231 N -0.15399 1.13328 -0.16559
 N232 N -0.17794 1.15984 -0.23054
 C233 C -0.15785 1.17063 -0.31481
 C234 C -0.12057 1.15010 -0.29895
 N235 N -0.11953 1.12700 -0.20547
 H236 H -0.09695 1.14893 -0.35112
 N237 N 0.65497 0.62720 -0.17098
 N238 N 0.67899 0.65408 -0.23552
 C239 C 0.65894 0.66605 -0.31925
 C240 C 0.62165 0.64587 -0.30360
 N241 N 0.62053 0.62183 -0.21065
 H242 H 0.59803 0.64599 -0.35548
 N243 N 0.15401 1.14155 -0.16091
 N244 N 0.17792 1.16435 -0.22927
 C245 C 0.15840 1.16797 -0.31577
 C246 C 0.12125 1.14745 -0.29713
 N247 N 0.11985 1.13170 -0.20011
 H248 H 0.09765 1.14292 -0.34855
 N249 N 0.34077 0.38122 -0.16309
 N250 N 0.31641 0.35991 -0.23121
 C251 C 0.33715 0.34480 -0.31304
 C252 C 0.37520 0.35672 -0.29224
 N253 N 0.37616 0.37920 -0.19818
 H254 H 0.39965 0.35169 -0.34128
 N255 N -0.15122 0.85938 -0.16705
 N256 N -0.17462 0.83186 -0.23232
 C257 C -0.15434 0.82214 -0.31668
 C258 C -0.11745 0.84438 -0.30047
 N259 N -0.11687 0.86732 -0.20670
 H260 H -0.09384 0.84670 -0.35256
 N261 N 0.35030 0.65293 0.16369
 N262 N 0.32717 0.67963 0.23091
 C263 C 0.34742 0.68616 0.31575
 C264 C 0.38408 0.66286 0.29771
 N265 N 0.38454 0.64266 0.20237
 H266 H 0.40750 0.65766 0.34960
 N267 N -0.15634 1.12872 0.16556
 N268 N -0.18088 1.15161 0.23261
 C269 C -0.16170 1.15703 0.31933
 C270 C -0.12418 1.13747 0.30230
 N271 N -0.12221 1.12034 0.20597
 H272 H -0.10060 1.13486 0.35410
 N273 N 0.65449 0.36808 0.16442
 N274 N 0.67843 0.34386 0.23137
 C275 C 0.65756 0.33046 0.31344
 C276 C 0.61983 0.34658 0.29401
 N277 N 0.61927 0.36986 0.20063
 H278 H 0.59540 0.34398 0.34342
 N279 N 0.15463 0.86285 0.16472
 N280 N 0.17836 0.83781 0.23157
 C281 C 0.15808 0.82870 0.31607
 C282 C 0.12081 0.84872 0.29820
 N283 N 0.11999 0.86961 0.20327
 H284 H 0.09707 0.85100 0.34993
   
