data_POSCAR
  _audit_creation_date              2014-09-24
  _audit_creation_method            'ToBaCCo'
  _symmetry_space_group_name_H-M    'P1'
  _symmetry_Int_Tables_number       1
  _symmetry_cell_setting            triclinic
  loop_
  _symmetry_equiv_pos_as_xyz
 x,y,z
_cell_length_a 46.1096
_cell_length_b 45.4853
_cell_length_c 45.5320
_cell_angle_alpha 90.237000
_cell_angle_beta 91.044100
_cell_angle_gamma 87.662200
loop_
  _atom_site_label
  _atom_site_type_symbol
  _atom_site_fract_x
  _atom_site_fract_y
  _atom_site_fract_z
C1 C 0.60608 0.64442 0.62193
 N2 N 0.60305 0.62128 0.64027
 C3 C 0.62381 0.59920 0.64205
 N4 N 0.64732 0.60020 0.62454
 C5 C 0.65039 0.62290 0.60574
 N6 N 0.62986 0.64516 0.60480
 C7 C 0.89623 0.35304 0.12603
 N8 N 0.89636 0.37434 0.14708
 C9 C 0.87591 0.39670 0.14689
 N10 N 0.85496 0.39764 0.12552
 C11 C 0.85445 0.37647 0.10441
 N12 N 0.87516 0.35435 0.10473
 C13 C 0.39812 0.14817 -0.11995
 N14 N 0.39799 0.12769 -0.14176
 C15 C 0.37757 0.10699 -0.14266
 N16 N 0.35716 0.10688 -0.12152
 C17 C 0.35706 0.12723 -0.09960
 N18 N 0.37757 0.14784 -0.09895
 C19 C 0.09954 0.85202 0.37629
 N20 N 0.11973 0.85163 0.39848
 C21 C 0.14200 0.87029 0.39837
 N22 N 0.14397 0.88955 0.37583
 C23 C 0.12388 0.89054 0.35361
 N24 N 0.10181 0.87164 0.35406
 N25 N 0.08587 0.16123 0.10834
 N26 N 0.07568 0.14889 0.13187
 C27 C 0.05222 0.16481 0.14093
 C28 C 0.04719 0.18791 0.12167
 C29 C 0.06883 0.18495 0.10118
 H30 H 0.03966 0.16003 0.16004
 H31 H 0.07252 0.19966 0.08315
 Cu32 Cu 0.09387 0.11313 0.14826
 Cu33 Cu 0.12198 0.14732 0.09056
 Cu34 Cu 0.15709 0.08583 0.12160
 N35 N 0.11368 0.07842 0.16507
 N36 N 0.13902 0.06865 0.15547
 C37 C 0.14853 0.04556 0.17193
 C38 C 0.12777 0.04032 0.19258
 C39 C 0.10592 0.06149 0.18757
 H40 H 0.16876 0.03316 0.16882
 H41 H 0.08619 0.06462 0.19988
 N42 N 0.17184 0.10625 0.08717
 N43 N 0.15878 0.13005 0.07579
 C44 C 0.17463 0.13954 0.05343
 C45 C 0.19857 0.12059 0.05032
 C46 C 0.19607 0.09967 0.07196
 H47 H 0.16909 0.15865 0.04012
 H48 H 0.21116 0.08139 0.07660
 H49 H 0.11947 0.10367 0.10252
 H50 H 0.13970 0.12793 0.12821
 N51 N 0.40839 0.83200 0.61755
 N52 N 0.42652 0.85005 0.63001
 C53 C 0.45271 0.83620 0.63328
 C54 C 0.45077 0.80778 0.62265
 C55 C 0.42228 0.80582 0.61298
 H56 H 0.47155 0.84579 0.64333
 H57 H 0.41250 0.78698 0.60288
 Cu58 Cu 0.41377 0.88921 0.64267
 Cu59 Cu 0.36835 0.84409 0.60769
 Cu60 Cu 0.35152 0.91852 0.61517
 N61 N 0.39465 0.92347 0.66077
 N62 N 0.36985 0.93457 0.65024
 C63 C 0.36081 0.95725 0.66726
 C64 C 0.38111 0.96061 0.68965
 C65 C 0.40241 0.93888 0.68477
 H66 H 0.34093 0.97028 0.66358
 H67 H 0.42164 0.93408 0.69814
 N68 N 0.32866 0.89259 0.59029
 N69 N 0.33414 0.86396 0.58846
 C70 C 0.31484 0.85239 0.56956
 C71 C 0.29653 0.87494 0.55888
 C72 C 0.30593 0.90010 0.57261
 H73 H 0.31504 0.82952 0.56293
 H74 H 0.29706 0.92231 0.56982
 H75 H 0.38140 0.88548 0.59998
 H76 H 0.36228 0.88027 0.63529
 N77 N 0.90969 0.67464 0.39023
 N78 N 0.91901 0.66448 0.36486
 C79 C 0.94069 0.68103 0.35584
 C80 C 0.94547 0.70234 0.37688
 C81 C 0.92552 0.69760 0.39849
 H82 H 0.95254 0.67760 0.33575
 H83 H 0.92241 0.71031 0.41839
 Cu84 Cu 0.90278 0.62988 0.34677
 Cu85 Cu 0.87681 0.65821 0.40983
 Cu86 Cu 0.84649 0.59741 0.37694
 N87 N 0.88619 0.59526 0.32905
 N88 N 0.86353 0.58325 0.34043
 C89 C 0.85614 0.56008 0.32382
 C90 C 0.87549 0.55716 0.30104
 C91 C 0.89433 0.57979 0.30507
 H92 H 0.83858 0.54584 0.32844
 H93 H 0.91248 0.58460 0.29145
 N94 N 0.83234 0.61492 0.41392
 N95 N 0.84338 0.63847 0.42611
 C96 C 0.82842 0.64552 0.45048
 C97 C 0.80730 0.62518 0.45398
 C98 C 0.81046 0.60608 0.43048
 H99 H 0.83276 0.66384 0.46489
 H100 H 0.79736 0.58744 0.42559
 H101 H 0.88347 0.61592 0.39398
 H102 H 0.85776 0.64076 0.37263
 N103 N 0.58917 0.32770 -0.11160
 N104 N 0.57736 0.33805 -0.13615
 C105 C 0.55410 0.32232 -0.14326
 C106 C 0.55101 0.30126 -0.12183
 C107 C 0.57360 0.30538 -0.10203
 H108 H 0.54019 0.32606 -0.16237
 H109 H 0.57866 0.29267 -0.08245
 Cu110 Cu 0.59348 0.37125 -0.15610
 Cu111 Cu 0.62442 0.34319 -0.09437
 Cu112 Cu 0.65381 0.40195 -0.13002
 N113 N 0.60950 0.40496 -0.17529
 N114 N 0.63392 0.41587 -0.16571
 C115 C 0.64109 0.43785 -0.18351
 C116 C 0.61980 0.44122 -0.20511
 C117 C 0.59998 0.42012 -0.19920
 H118 H 0.66003 0.45090 -0.18063
 H119 H 0.58042 0.41590 -0.21170
 N120 N 0.67069 0.38480 -0.09358
 N121 N 0.65996 0.36194 -0.08043
 C122 C 0.67658 0.35509 -0.05659
 C123 C 0.69851 0.37485 -0.05442
 C124 C 0.69408 0.39342 -0.07816
 H125 H 0.67270 0.33746 -0.04148
 H126 H 0.70716 0.41167 -0.08387
 H127 H 0.61779 0.38537 -0.11052
 H128 H 0.64053 0.35917 -0.13289
 C129 C -0.03961 0.28335 0.12724
 C130 C -0.05736 0.28843 0.10198
 C131 C -0.07912 0.31095 0.10202
 C132 C -0.08239 0.33002 0.12630
 C133 C -0.06351 0.32580 0.15069
 C134 C -0.04270 0.30264 0.15133
 C135 C -0.01755 0.25826 0.12680
 C136 C -0.00179 0.24871 0.15206
 C137 C 0.01881 0.22543 0.15040
 C138 C 0.02460 0.21163 0.12348
 C139 C 0.00871 0.22051 0.09832
 C140 C -0.01292 0.24306 0.09999
 C141 C -0.05269 0.27160 0.07652
 C142 C -0.03039 0.24998 0.07529
 H143 H -0.06600 0.27571 0.05699
 H144 H -0.02718 0.23807 0.05486
 H145 H -0.09283 0.31418 0.08259
 H146 H -0.06505 0.34012 0.16972
 H147 H 0.03071 0.21857 0.17010
 H148 H 0.01267 0.20927 0.07764
 H149 H -0.02886 0.30054 0.17064
 H150 H -0.00538 0.25865 0.17331
 C151 C 0.54185 0.71589 0.62023
 C152 C 0.53379 0.68693 0.62661
 C153 C 0.55490 0.66378 0.62749
 C154 C 0.58389 0.66878 0.62092
 C155 C 0.59159 0.69723 0.61334
 C156 C 0.57094 0.72055 0.61318
 C157 C 0.51890 0.74020 0.62079
 C158 C 0.52518 0.77011 0.61790
 C159 C 0.50304 0.79195 0.61873
 C160 C 0.47408 0.78454 0.62199
 C161 C 0.46757 0.75488 0.62508
 C162 C 0.48977 0.73279 0.62517
 C163 C 0.50468 0.68117 0.63158
 C164 C 0.48307 0.70351 0.63029
 H165 H 0.49843 0.65896 0.63614
 H166 H 0.46081 0.69785 0.63392
 H167 H 0.54865 0.64171 0.63275
 H168 H 0.61380 0.70159 0.60799
 H169 H 0.50856 0.81473 0.61640
 H170 H 0.44528 0.74906 0.62829
 H171 H 0.57814 0.74195 0.60720
 H172 H 0.54705 0.77714 0.61541
 C173 C 1.03216 0.79107 0.37451
 C174 C 1.04938 0.79453 0.40022
 C175 C 1.07192 0.81441 0.40059
 C176 C 1.07681 0.83224 0.37608
 C177 C 1.05841 0.82984 0.35125
 C178 C 1.03662 0.80943 0.35035
 C179 C 1.00949 0.76838 0.37439
 C180 C 0.99405 0.76042 0.34876
 C181 C 0.97340 0.73887 0.34969
 C182 C 0.96723 0.72518 0.37622
 C183 C 0.98251 0.73277 0.40185
 C184 C 1.00415 0.75361 0.40094
 C185 C 1.04365 0.77851 0.42555
 C186 C 1.02105 0.75905 0.42611
 H187 H 1.05655 0.78142 0.44541
 H188 H 1.01722 0.74752 0.44637
 H189 H 1.08525 0.81634 0.42032
 H190 H 1.06110 0.84335 0.33203
 H191 H 0.96195 0.73310 0.32963
 H192 H 0.97829 0.72165 0.42226
 H193 H 1.02331 0.80862 0.33066
 H194 H 0.99800 0.77013 0.32771
 C195 C 0.46293 0.21379 -0.11749
 C196 C 0.45397 0.20140 -0.14458
 C197 C 0.43322 0.17964 -0.14516
 C198 C 0.42030 0.17073 -0.11917
 C199 C 0.42843 0.18379 -0.09248
 C200 C 0.44959 0.20490 -0.09156
 C201 C 0.48583 0.23628 -0.11775
 C202 C 0.49824 0.24786 -0.09188
 C203 C 0.51951 0.26877 -0.09332
 C204 C 0.52865 0.27896 -0.12049
 C205 C 0.51665 0.26742 -0.14638
 C206 C 0.49581 0.24580 -0.14522
 C207 C 0.46533 0.21119 -0.17096
 C208 C 0.48540 0.23328 -0.17131
 H209 H 0.45827 0.20191 -0.19173
 H210 H 0.49323 0.24036 -0.19233
 H211 H 0.42662 0.17010 -0.16597
 H212 H 0.41864 0.17741 -0.07215
 H213 H 0.52855 0.27731 -0.07304
 H214 H 0.52411 0.27470 -0.16749
 H215 H 0.45492 0.21419 -0.07041
 H216 H 0.49211 0.24083 -0.07036
 C217 C 0.12926 -0.04707 0.28494
 C218 C 0.10382 -0.06300 0.28830
 C219 C 0.10256 -0.08432 0.31042
 C220 C 0.12572 -0.08894 0.33070
 C221 C 0.15044 -0.07208 0.32795
 C222 C 0.15234 -0.05171 0.30527
 C223 C 0.13000 -0.02510 0.26055
 C224 C 0.15535 -0.01075 0.25304
 C225 C 0.15470 0.01003 0.23051
 C226 C 0.12871 0.01738 0.21538
 C227 C 0.10353 0.00277 0.22217
 C228 C 0.10417 -0.01892 0.24404
 C229 C 0.07943 -0.05689 0.27021
 C230 C 0.07936 -0.03479 0.24908
 H231 H 0.05980 -0.06884 0.27296
 H232 H 0.05970 -0.03039 0.23615
 H233 H 0.08296 -0.09649 0.31240
 H234 H 0.16867 -0.07474 0.34319
 H235 H 0.17443 0.02091 0.22533
 H236 H 0.08356 0.00787 0.20995
 H237 H 0.17180 -0.03938 0.30441
 H238 H 0.17590 -0.01549 0.26408
 C239 C 0.61768 0.53062 -0.29556
 C240 C 0.64376 0.53431 -0.31075
 C241 C 0.64518 0.55621 -0.33223
 C242 C 0.62148 0.57606 -0.33776
 C243 C 0.59590 0.57283 -0.32189
 C244 C 0.59390 0.55029 -0.30135
 C245 C 0.61704 0.50671 -0.27302
 C246 C 0.59143 0.49901 -0.25896
 C247 C 0.59224 0.47717 -0.23742
 C248 C 0.61861 0.46298 -0.22904
 C249 C 0.64405 0.46986 -0.24342
 C250 C 0.64332 0.49101 -0.26579
 C251 C 0.66864 0.51689 -0.30366
 C252 C 0.66862 0.49622 -0.28116
 H253 H 0.68871 0.51989 -0.31510
 H254 H 0.68864 0.48388 -0.27595
 H255 H 0.66537 0.55849 -0.34369
 H256 H 0.57719 0.58768 -0.32535
 H257 H 0.57233 0.47190 -0.22672
 H258 H 0.66435 0.45832 -0.23751
 H259 H 0.57381 0.54908 -0.28972
 H260 H 0.57061 0.50944 -0.26443
 C261 C 0.37617 1.04391 0.78654
 C262 C 0.40266 1.05578 0.79603
 C263 C 0.40293 1.07664 0.81887
 C264 C 0.37725 1.08506 0.83330
 C265 C 0.35124 1.07235 0.82467
 C266 C 0.35060 1.05219 0.80150
 C267 C 0.37664 1.02259 0.76134
 C268 C 0.35118 1.01188 0.74830
 C269 C 0.35276 0.99202 0.72488
 C270 C 0.37970 0.98203 0.71411
 C271 C 0.40518 0.99276 0.72669
 C272 C 0.40382 1.01338 0.74974
 C273 C 0.42877 1.04641 0.78304
 C274 C 0.42939 1.02524 0.76078
 H275 H 0.44911 1.05526 0.79048
 H276 H 0.45019 1.01842 0.75174
 H277 H 0.42325 1.08589 0.82581
 H278 H 0.33117 1.07836 0.83559
 H279 H 0.33280 0.98409 0.71547
 H280 H 0.42606 0.98560 0.71803
 H281 H 0.32995 1.04315 0.79588
 H282 H 0.32985 1.01880 0.75560
 C283 C 0.87876 0.46500 0.21252
 C284 C 0.85182 0.45645 0.20055
 C285 C 0.85106 0.43454 0.17874
 C286 C 0.87675 0.41999 0.16956
 C287 C 0.90329 0.42762 0.18234
 C288 C 0.90438 0.44997 0.20338
 C289 C 0.87872 0.48920 0.23498
 C290 C 0.90436 0.50150 0.24586
 C291 C 0.90318 0.52383 0.26698
 C292 C 0.87650 0.53414 0.27809
 C293 C 0.85080 0.52240 0.26712
 C294 C 0.85169 0.50055 0.24523
 C295 C 0.82582 0.46932 0.21087
 C296 C 0.82574 0.49044 0.23317
 H297 H 0.80517 0.46258 0.20195
 H298 H 0.80503 0.49935 0.24076
 H299 H 0.83039 0.42829 0.16942
 H300 H 0.92338 0.41653 0.17573
 H301 H 0.92327 0.53269 0.27505
 H302 H 0.83006 0.53079 0.27514
 H303 H 0.92541 0.45485 0.21247
 H304 H 0.92550 0.49443 0.23813
 C305 C 0.29048 0.12747 -0.03448
 C306 C 0.30071 0.10070 -0.04731
 C307 C 0.32216 0.10083 -0.06882
 C308 C 0.33455 0.12719 -0.07692
 C309 C 0.32535 0.15350 -0.06322
 C310 C 0.30346 0.15375 -0.04242
 C311 C 0.26662 0.12653 -0.01261
 C312 C 0.25268 0.15210 -0.00109
 C313 C 0.23047 0.15004 0.01914
 C314 C 0.22192 0.12254 0.02874
 C315 C 0.23546 0.09694 0.01729
 C316 C 0.25721 0.09873 -0.00377
 C317 C 0.28986 0.07395 -0.03825
 C318 C 0.26902 0.07295 -0.01650
 H319 H 0.29793 0.05341 -0.04781
 H320 H 0.26162 0.05167 -0.00997
 H321 H 0.32964 0.08029 -0.07885
 H322 H 0.33477 0.17409 -0.06898
 H323 H 0.22021 0.17009 0.02763
 H324 H 0.22846 0.07559 0.02413
 H325 H 0.29724 0.17464 -0.03263
 H326 H 0.25830 0.17384 -0.00772
 C327 C 0.72040 0.62119 0.54433
 C328 C 0.70736 0.64837 0.55338
 C329 C 0.68459 0.64888 0.57351
 C330 C 0.67520 0.62264 0.58559
 C331 C 0.68922 0.59590 0.57775
 C332 C 0.71142 0.59510 0.55732
 C333 C 0.74329 0.62143 0.52139
 C334 C 0.75509 0.59552 0.50846
 C335 C 0.77586 0.59689 0.48665
 C336 C 0.78572 0.62403 0.47749
 C337 C 0.77424 0.65000 0.49025
 C338 C 0.75265 0.64892 0.51158
 C339 C 0.71725 0.67483 0.54244
 C340 C 0.73979 0.67511 0.52242
 H341 H 0.70755 0.69568 0.54962
 H342 H 0.74678 0.69617 0.51478
 H343 H 0.67429 0.66973 0.57991
 H344 H 0.68255 0.57535 0.58691
 H345 H 0.78440 0.57657 0.47707
 H346 H 0.78133 0.67109 0.48279
 H347 H 0.72127 0.57386 0.55207
 H348 H 0.74821 0.57401 0.51442
 C349 C 0.78781 0.37911 0.03684
 C350 C 0.80007 0.35185 0.04688
 C351 C 0.82218 0.35121 0.06851
 C352 C 0.83150 0.37736 0.08133
 C353 C 0.81853 0.40428 0.07222
 C354 C 0.79712 0.40524 0.05011
 C355 C 0.76497 0.37885 0.01297
 C356 C 0.75359 0.40468 -0.00069
 C357 C 0.73225 0.40325 -0.02276
 C358 C 0.72145 0.37615 -0.03144
 C359 C 0.73283 0.35028 -0.01826
 C360 C 0.75489 0.35138 0.00335
 C361 C 0.78979 0.32540 0.03574
 C362 C 0.76729 0.32517 0.01488
 H363 H 0.79896 0.30452 0.04364
 H364 H 0.75979 0.30412 0.00731
 H365 H 0.83166 0.33026 0.07590
 H366 H 0.82525 0.42474 0.08197
 H367 H 0.72385 0.42350 -0.03274
 H368 H 0.72504 0.32919 -0.02538
 H369 H 0.78790 0.42656 0.04402
 H370 H 0.76108 0.42614 0.00508
 C371 C 0.20636 0.86906 0.46838
 C372 C 0.20192 0.89415 0.45030
 C373 C 0.18111 0.89422 0.42743
 C374 C 0.16389 0.86988 0.42258
 C375 C 0.16769 0.84536 0.44104
 C376 C 0.18871 0.84484 0.46356
 C377 C 0.22944 0.86965 0.49204
 C378 C 0.23708 0.84518 0.50991
 C379 C 0.25889 0.84689 0.53152
 C380 C 0.27338 0.87307 0.53608
 C381 C 0.26603 0.89747 0.51833
 C382 C 0.24458 0.89585 0.49620
 C383 C 0.21803 0.91918 0.45528
 C384 C 0.23863 0.92014 0.47797
 H385 H 0.21449 0.93846 0.44156
 H386 H 0.25036 0.94013 0.48105
 H387 H 0.17805 0.91352 0.41364
 H388 H 0.15459 0.82633 0.43786
 H389 H 0.26421 0.82774 0.54492
 H390 H 0.27753 0.91762 0.52120
 H391 H 0.19066 0.82538 0.47702
 H392 H 0.22672 0.82447 0.50739
   
