data_POSCAR
  _audit_creation_date              2014-09-24
  _audit_creation_method            'ToBaCCo'
  _symmetry_space_group_name_H-M    'P1'
  _symmetry_Int_Tables_number       1
  _symmetry_cell_setting            triclinic
  loop_
  _symmetry_equiv_pos_as_xyz
 x,y,z
_cell_length_a 29.6790
_cell_length_b 30.7896
_cell_length_c 30.4761
_cell_angle_alpha 91.089600
_cell_angle_beta 87.614300
_cell_angle_gamma 95.975500
loop_
  _atom_site_label
  _atom_site_type_symbol
  _atom_site_fract_x
  _atom_site_fract_y
  _atom_site_fract_z
C1 C 0.28900 0.43648 0.98199
 C2 C 0.27547 0.47803 0.99184
 C3 C 0.30691 0.51111 1.00776
 C4 C 0.35138 0.50307 1.01439
 C5 C 0.36525 0.46185 1.00375
 C6 C 0.33399 0.42822 0.98775
 C7 C 0.22803 0.48731 0.98923
 C8 C 0.20555 0.50147 1.02729
 C9 C 0.16509 0.52042 1.02490
 C10 C 0.14651 0.52520 0.98367
 C11 C 0.16818 0.50956 0.94518
 C12 C 0.20841 0.48987 0.94848
 H13 H 0.26447 0.41043 0.97100
 H14 H 0.29613 0.54277 1.01692
 H15 H 0.22129 0.50045 1.05871
 H16 H 0.22614 0.47961 0.91888
 H17 H 0.39937 0.45510 1.01053
 H18 H 0.11604 0.54147 0.98146
 C19 C 0.71315 0.44976 0.00463
 C20 C 0.74150 0.48915 0.00413
 C21 C 0.72279 0.52909 0.00784
 C22 C 0.67602 0.53013 0.01061
 C23 C 0.64758 0.49077 0.01103
 C24 C 0.66587 0.45064 0.00818
 C25 C 0.79092 0.49006 -0.00052
 C26 C 0.81333 0.51005 -0.03731
 C27 C 0.85983 0.52279 -0.03731
 C28 C 0.88425 0.51567 -0.00020
 C29 C 0.86199 0.49462 0.03645
 C30 C 0.81564 0.48074 0.03558
 H31 H 0.72775 0.41896 0.00213
 H32 H 0.74470 0.55956 0.00747
 H33 H 0.79391 0.51876 -0.06461
 H34 H 0.79813 0.46683 0.06478
 H35 H 0.61111 0.49122 0.01349
 H36 H 0.91984 0.52771 0.00080
 C37 C 0.04097 0.22771 0.51488
 C38 C 0.00053 0.24717 0.51429
 C39 C -0.04110 0.22164 0.51973
 C40 C -0.04267 0.17643 0.52429
 C41 C -0.00183 0.15680 0.52503
 C42 C 0.04021 0.18274 0.52079
 C43 C 0.00158 0.29392 0.50564
 C44 C -0.00650 0.30765 0.46344
 C45 C -0.00843 0.35190 0.45519
 C46 C -0.00157 0.38276 0.48952
 C47 C 0.00592 0.36908 0.53218
 C48 C 0.00773 0.32451 0.53993
 H49 H 0.07318 0.24751 0.51037
 H50 H -0.07244 0.23674 0.51875
 H51 H -0.01332 0.28361 0.43744
 H52 H 0.01324 0.31352 0.57266
 H53 H -0.00282 0.12177 0.52846
 H54 H -0.00465 0.41692 0.48374
 C55 C 1.02912 0.82618 0.46278
 C56 C 0.99461 0.79983 0.48537
 C57 C 0.95569 0.81821 0.50165
 C58 C 0.95173 0.86275 0.49581
 C59 C 0.98689 0.88881 0.47412
 C60 C 1.02502 0.87036 0.45679
 C61 C 0.99768 0.75250 0.48846
 C62 C 0.98746 0.73066 0.52817
 C63 C 0.98754 0.68526 0.52989
 C64 C 0.99853 0.66158 0.49176
 C65 C 1.00822 0.68334 0.45175
 C66 C 1.00784 0.72852 0.45045
 H67 H 1.05876 0.81213 0.44912
 H68 H 0.92820 0.79780 0.51776
 H69 H 0.97757 0.74869 0.55729
 H70 H 1.01389 0.74480 0.41921
 H71 H 0.98345 0.92301 0.46885
 H72 H 0.99627 0.62625 0.49254
 C73 C 0.50148 0.03286 0.19258
 C74 C 0.50857 -0.00048 0.22106
 C75 C 0.51246 -0.04270 0.20463
 C76 C 0.51005 -0.05153 0.15958
 C77 C 0.50322 -0.01773 0.13081
 C78 C 0.49854 0.02453 0.14737
 C79 C 0.50841 0.00847 0.26838
 C80 C 0.46834 0.01829 0.29017
 C81 C 0.46692 0.02647 0.33531
 C82 C 0.50619 0.02427 0.35924
 C83 C 0.54677 0.01466 0.33714
 C84 C 0.54775 0.00730 0.29175
 H85 H 0.49750 0.06516 0.20596
 H86 H 0.51668 -0.06887 0.22690
 H87 H 0.43779 0.01901 0.27200
 H88 H 0.57890 -0.00026 0.27484
 H89 H 0.50035 -0.02449 0.09597
 H90 H 0.50521 0.02953 0.39448
 C91 C 0.45041 -0.01096 0.81041
 C92 C 0.45566 -0.05044 0.78832
 C93 C 0.47249 -0.08434 0.81035
 C94 C 0.48737 -0.07795 0.85305
 C95 C 0.48517 -0.03716 0.87415
 C96 C 0.46653 -0.00345 0.85255
 C97 C 0.45647 -0.05124 0.74014
 C98 C 0.49802 -0.05459 0.71754
 C99 C 0.50306 -0.04646 0.67277
 C100 C 0.46503 -0.03855 0.64922
 C101 C 0.42243 -0.03752 0.67149
 C102 C 0.41884 -0.04226 0.71710
 H103 H 0.43908 0.01597 0.79287
 H104 H 0.47820 -0.11432 0.79267
 H105 H 0.52773 -0.05977 0.73552
 H106 H 0.38677 -0.03905 0.73456
 H107 H 0.49951 -0.03114 0.90608
 H108 H 0.46868 -0.03265 0.61428
 C109 C 0.32447 0.06807 0.47456
 H110 H 0.32035 0.07976 0.50804
 C111 C 0.36755 0.07216 0.45362
 H112 H 0.39630 0.08802 0.47052
 C113 C 0.29349 0.02803 0.41374
 H114 H 0.26582 0.00793 0.39941
 C115 C 0.33557 0.03212 0.39141
 H116 H 0.33885 0.01640 0.35953
 N117 N 0.28896 0.04476 0.45511
 C118 C 0.16970 0.04583 0.54443
 H119 H 0.17013 0.01317 0.55678
 C120 C 0.13153 0.06802 0.55262
 H121 H 0.10310 0.05295 0.57227
 C122 C 0.20393 0.10308 0.49938
 H123 H 0.23094 0.11517 0.47647
 C124 C 0.16633 0.12659 0.50700
 H125 H 0.16533 0.15743 0.49079
 Zn126 Zn 0.24075 0.02141 0.49297
 N127 N 0.20423 0.06295 0.51719
 C128 C 0.27420 0.00919 0.57745
 N129 N 0.27045 -0.00689 0.53575
 C130 C 0.29754 -0.03683 0.51934
 C131 C 0.33209 -0.04972 0.54418
 C132 C 0.30805 -0.00334 0.60369
 C133 C 0.17987 -0.00039 0.42822
 C134 C 0.14286 -0.02339 0.40876
 C135 C 0.14496 -0.08031 0.46199
 C136 C 0.18314 -0.05687 0.47955
 N137 N 0.19936 -0.01744 0.46272
 H138 H 0.25341 0.03416 0.58915
 H139 H 0.29464 -0.04796 0.48559
 H140 H 0.35512 -0.07170 0.53000
 H141 H 0.31218 0.01121 0.63607
 H142 H 0.19205 0.03199 0.41695
 H143 H 0.12711 -0.00926 0.38176
 H144 H 0.13117 -0.11096 0.47642
 H145 H 0.19809 -0.06887 0.50811
 C146 C 0.12890 0.10804 0.53264
 C147 C 0.37363 0.05263 0.41229
 C148 C 0.12426 -0.06298 0.42653
 C149 C 0.33842 -0.03196 0.58622
 C150 C 0.66747 0.02899 0.56384
 H151 H 0.67772 0.05434 0.54030
 C152 C 0.62459 0.02727 0.58480
 H153 H 0.60268 0.05238 0.57893
 C154 C 0.68113 -0.03759 0.59628
 H155 H 0.70195 -0.06424 0.59822
 C156 C 0.63852 -0.04044 0.61806
 H157 H 0.62779 -0.06847 0.63826
 N158 N 0.69398 -0.00395 0.56868
 C159 C 0.81550 0.02633 0.48425
 H160 H 0.81043 -0.00214 0.46297
 C161 C 0.85674 0.05255 0.48201
 H162 H 0.88310 0.04486 0.45837
 C163 C 0.78852 0.06931 0.54312
 H164 H 0.76258 0.07447 0.56809
 C165 C 0.82912 0.09714 0.54127
 H166 H 0.83382 0.12425 0.56432
 Zn167 Zn 0.73569 -0.01185 0.52169
 N168 N 0.78279 0.03444 0.51504
 C169 C 0.70184 0.01247 0.44038
 N170 N 0.69835 -0.01733 0.47305
 C171 C 0.66107 -0.04668 0.47844
 C172 C 0.62405 -0.04510 0.45214
 C173 C 0.66574 0.01457 0.41262
 C174 C 0.80060 -0.05668 0.55666
 C175 C 0.83518 -0.08406 0.55362
 C176 C 0.79482 -0.12572 0.49687
 C177 C 0.76163 -0.09658 0.49990
 N178 N 0.76608 -0.06201 0.52845
 H179 H 0.73117 0.03637 0.43768
 H180 H 0.65874 -0.06922 0.50543
 H181 H 0.59363 -0.06716 0.45808
 H182 H 0.66801 0.03944 0.38777
 H183 H 0.80364 -0.02848 0.57847
 H184 H 0.86448 -0.07733 0.57362
 H185 H 0.79284 -0.15145 0.47209
 H186 H 0.73454 -0.09960 0.47707
 C187 C 0.86410 0.08802 0.51096
 C188 C 0.60910 -0.00852 0.61085
 C189 C 0.83322 -0.11790 0.52216
 C190 C 0.62579 -0.01367 0.41959
 C191 C 0.45302 0.15927 1.03862
 H192 H 0.43354 0.15294 1.00955
 C193 C 0.45525 0.12586 1.06847
 H194 H 0.43634 0.09434 1.06310
 C195 C 0.50558 0.20628 1.07854
 H196 H 0.52758 0.23638 1.08084
 C197 C 0.50738 0.17432 1.11009
 H198 H 0.52968 0.18045 1.13725
 N199 N 0.47987 0.19762 1.04287
 C200 C 0.46089 0.29113 0.94177
 H201 H 0.49123 0.28717 0.92180
 C202 C 0.43846 0.32832 0.93722
 H203 H 0.45109 0.35258 0.91323
 C204 C 0.41112 0.26744 1.00145
 H205 H 0.40257 0.24515 1.02823
 C206 C 0.38688 0.30379 0.99720
 H207 H 0.35926 0.30888 1.02042
 Zn208 Zn 0.49393 0.22786 0.99011
 N209 N 0.44826 0.26271 0.97474
 C210 C 0.47216 0.17058 0.91829
 N211 N 0.50310 0.18278 0.94903
 C212 C 0.53448 0.15608 0.96004
 C213 C 0.53408 0.11426 0.94160
 C214 C 0.47062 0.12888 0.89896
 C215 C 0.53952 0.30289 1.02196
 C216 C 0.57285 0.33798 1.02435
 C217 C 0.62092 0.29923 0.97485
 C218 C 0.58616 0.26486 0.97284
 N219 N 0.54631 0.26758 0.99604
 H220 H 0.44653 0.19174 0.91134
 H221 H 0.55742 0.16592 0.98592
 H222 H 0.55788 0.09253 0.95201
 H223 H 0.44468 0.11881 0.87585
 H224 H 0.50726 0.30444 1.03950
 H225 H 0.56623 0.36629 1.04427
 H226 H 0.65214 0.29758 0.95550
 H227 H 0.59045 0.23696 0.95161
 C228 C 0.40201 0.33561 0.96595
 C229 C 0.48413 0.13297 1.10365
 C230 C 0.61379 0.33669 0.99989
 C231 C 0.50104 0.09981 0.91187
 C232 C 0.46992 0.78580 -0.04391
 H233 H 0.44245 0.78510 -0.01937
 C234 C 0.47892 0.82202 -0.07135
 H235 H 0.45732 0.84828 -0.06895
 C236 C 0.53563 0.75586 -0.07273
 H237 H 0.55967 0.73202 -0.07118
 C238 C 0.54617 0.79161 -0.09989
 H239 H 0.57717 0.79399 -0.12013
 N240 N 0.49926 0.75458 -0.04391
 C241 C 0.46074 0.66852 0.06737
 H242 H 0.48526 0.68541 0.08865
 C243 C 0.44055 0.62737 0.07913
 H244 H 0.44777 0.61395 0.11036
 C245 C 0.42715 0.66211 -0.00199
 H246 H 0.42499 0.67441 -0.03477
 C247 C 0.40637 0.62023 0.00851
 H248 H 0.38668 0.60134 -0.01567
 Zn249 Zn 0.50480 0.72423 0.00863
 N250 N 0.45468 0.68479 0.02709
 C251 C 0.48829 0.77890 0.08290
 N252 N 0.51856 0.76968 0.05011
 C253 C 0.55446 0.79895 0.03853
 C254 C 0.55954 0.84029 0.05845
 C255 C 0.49294 0.81944 0.10457
 C256 C 0.53971 0.65428 -0.02920
 C257 C 0.56368 0.61792 -0.03222
 C258 C 0.61203 0.64973 0.02441
 C259 C 0.58646 0.68559 0.02690
 N260 N 0.55062 0.68663 0.00066
 H261 H 0.45864 0.75636 0.09008
 H262 H 0.57711 0.79141 0.01137
 H263 H 0.58670 0.86426 0.04730
 H264 H 0.46756 0.82706 0.12926
 H265 H 0.51069 0.65576 -0.04921
 H266 H 0.55347 0.59149 -0.05482
 H267 H 0.63951 0.64809 0.04639
 H268 H 0.59359 0.71113 0.05124
 C269 C 0.41466 0.60208 0.04906
 C270 C 0.51882 0.82585 -0.09803
 C271 C 0.59952 0.61499 -0.00475
 C272 C 0.52810 0.85109 0.09118
 C273 C 1.08109 0.47989 0.17633
 H274 H 1.05980 0.44915 0.17646
 C275 C 1.10297 0.49483 0.13682
 H276 H 1.10009 0.47456 0.10746
 C277 C 1.10476 0.54687 0.21216
 H278 H 1.10250 0.56859 0.24023
 C279 C 1.12612 0.56323 0.17335
 H280 H 1.14177 0.59660 0.17262
 N281 N 1.08056 0.50682 0.21237
 C282 C 0.96416 0.44742 0.29221
 H283 H 0.94170 0.46763 0.27710
 C284 C 0.94659 0.41912 0.32504
 H285 H 0.91052 0.41590 0.33309
 C286 C 1.03877 0.43074 0.30410
 H287 H 1.07485 0.43699 0.29700
 C288 C 1.02254 0.40314 0.33892
 H289 H 1.04600 0.38692 0.35751
 Zn290 Zn 1.02652 0.50359 0.24823
 N291 N 1.00936 0.45223 0.28146
 C292 C 0.95823 0.47477 0.18969
 N293 N 0.98293 0.51078 0.20603
 C294 C 0.98592 0.54963 0.18496
 C295 C 0.96276 0.55348 0.14647
 C296 C 0.93392 0.47740 0.15188
 C297 C 1.06003 0.54251 0.32369
 C298 C 1.05997 0.56750 0.36230
 C299 C 1.00071 0.60589 0.33393
 C300 C 1.00092 0.57920 0.29625
 N301 N 1.03019 0.54805 0.29204
 H302 H 0.95944 0.44326 0.20432
 H303 H 1.00829 0.57698 0.19667
 H304 H 0.96598 0.58424 0.12940
 H305 H 0.91496 0.44829 0.13909
 H306 H 1.08259 0.51721 0.31974
 H307 H 1.08268 0.56173 0.38799
 H308 H 0.97653 0.62986 0.33754
 H309 H 0.97638 0.58210 0.27156
 C310 C 0.97575 0.39769 0.34960
 C311 C 1.12362 0.53796 0.13478
 C312 C 1.02990 0.59927 0.36780
 C313 C 0.93668 0.51705 0.12958
 C314 C -0.04392 0.50888 0.81748
 H315 H -0.02680 0.47955 0.81476
 C316 C -0.06875 0.51780 0.85623
 H317 H -0.07181 0.49464 0.88274
 C318 C -0.05674 0.57736 0.78874
 H319 H -0.04966 0.60199 0.76397
 C320 C -0.08095 0.58771 0.82681
 H321 H -0.09373 0.61934 0.83025
 N322 N -0.03818 0.53878 0.78479
 C323 C 0.03963 0.48850 0.67333
 H324 H 0.06335 0.51753 0.67018
 C325 C 0.03755 0.45720 0.63966
 H326 H 0.06044 0.46170 0.61114
 C327 C -0.02120 0.44898 0.71309
 H328 H -0.04547 0.44711 0.74060
 C329 C -0.02350 0.41604 0.68056
 H330 H -0.04889 0.38824 0.68364
 Zn331 Zn 0.00892 0.53755 0.74087
 N332 N 0.00974 0.48461 0.70846
 C333 C 0.08754 0.51591 0.77989
 N334 N 0.06202 0.54934 0.77344
 C335 C 0.06280 0.58405 0.80185
 C336 C 0.08655 0.58402 0.84059
 C337 C 0.11218 0.51486 0.81800
 C338 C -0.04449 0.56620 0.68219
 C339 C -0.06103 0.58898 0.64865
 C340 C 0.01078 0.63374 0.64304
 C341 C 0.02578 0.61064 0.67825
 N342 N -0.00226 0.57764 0.69703
 H343 H 0.08512 0.48782 0.75797
 H344 H 0.04097 0.60942 0.79693
 H345 H 0.08426 0.61024 0.86451
 H346 H 0.12991 0.48667 0.82393
 H347 H -0.06563 0.53918 0.69695
 H348 H -0.09512 0.57995 0.63794
 H349 H 0.03283 0.66002 0.62801
 H350 H 0.05965 0.61846 0.68988
 C351 C 0.00501 0.42096 0.64270
 C352 C -0.08633 0.55835 0.86127
 C353 C -0.03342 0.62269 0.62842
 C354 C 0.10997 0.54830 0.84985
 N355 N 0.08262 0.16434 0.52012
 N356 N 0.08668 0.12694 0.53557
 N357 N 0.65792 0.57139 0.01152
 N358 N 0.62017 0.57513 -0.00541
 N359 N 0.91137 -0.11805 0.50894
 N360 N 0.87242 -0.13973 0.51088
 N361 N 0.34650 0.38467 0.98195
 N362 N 0.38602 0.37798 0.96738
 N363 N 0.91385 0.15133 0.52652
 N364 N 0.90756 0.11329 0.50942
 N365 N 0.37739 0.53167 0.03664
 N366 N 0.40069 0.55745 0.05994
 N367 N 0.05532 -0.10618 0.43262
 N368 N 0.08315 -0.08358 0.40948
 N369 N 0.63527 0.41163 1.00898
 N370 N 0.64679 0.37410 0.99815
 N371 N 0.48990 0.05855 1.11839
 N372 N 0.49267 0.09824 1.13151
 N373 N -0.03130 0.66467 0.56414
 N374 N -0.05284 0.64556 0.59471
 N375 N 0.51105 0.89288 -0.13120
 N376 N 0.53540 0.86547 -0.11976
 N377 N 0.97521 0.36276 0.41817
 N378 N 0.95591 0.37097 0.38473
 N379 N 0.51128 0.90440 0.14430
 N380 N 0.52987 0.89516 0.10744
 N381 N 0.00990 0.40047 0.56755
 N382 N -0.00029 0.38982 0.60725
 N383 N 0.46872 0.04030 0.86961
 N384 N 0.49835 0.05540 0.89639
 N385 N 1.01346 0.66014 0.41109
 N386 N 1.02770 0.62263 0.40875
 N387 N 1.14930 0.53926 0.06038
 N388 N 1.13757 0.55882 0.09395
 N389 N 0.54789 -0.04362 0.65328
 N390 N 0.56331 -0.01226 0.62854
 N391 N -0.12181 0.54744 0.93103
 N392 N -0.10682 0.57242 0.90165
 N393 N 0.42400 0.03353 0.35563
 N394 N 0.41856 0.04978 0.39391
 N395 N 0.15133 0.51443 0.90223
 N396 N 0.12766 0.54493 0.89278
 N397 N 0.58711 0.01105 0.36013
 N398 N 0.58590 -0.00979 0.39580
 N399 N 0.88439 0.49109 0.07656
 N400 N 0.91454 0.52054 0.08919
 N401 N 0.38271 -0.02992 0.64904
 N402 N 0.37760 -0.04088 0.60900
   
