data_POSCAR
  _audit_creation_date              2014-09-24
  _audit_creation_method            'ToBaCCo'
  _symmetry_space_group_name_H-M    'P1'
  _symmetry_Int_Tables_number       1
  _symmetry_cell_setting            triclinic
  loop_
  _symmetry_equiv_pos_as_xyz
 x,y,z
_cell_length_a 43.3078
_cell_length_b 57.6296
_cell_length_c 27.2379
_cell_angle_alpha 90.119200
_cell_angle_beta 90.913800
_cell_angle_gamma 90.305600
loop_
  _atom_site_label
  _atom_site_type_symbol
  _atom_site_fract_x
  _atom_site_fract_y
  _atom_site_fract_z
C1 C 0.19655 0.25289 0.15001
 C2 C 0.20797 0.23114 0.16531
 C3 C 0.22887 0.23100 0.20579
 C4 C 0.23544 0.25127 0.23339
 C5 C 0.22080 0.27207 0.21959
 C6 C 0.20195 0.27318 0.17740
 C7 C 0.25729 0.25074 0.27678
 C8 C 0.27389 0.27079 0.29100
 C9 C 0.29392 0.27072 0.33200
 C10 C 0.29886 0.24984 0.35737
 C11 C 0.28423 0.22901 0.34233
 C12 C 0.26227 0.23016 0.30355
 H13 H 0.18384 0.25445 0.11577
 H14 H 0.23953 0.21505 0.21710
 H15 H 0.22358 0.28746 0.24205
 H16 H 0.27193 0.28649 0.26954
 H17 H 0.31538 0.24985 0.38746
 H18 H 0.24832 0.21503 0.29527
 C19 C 0.80657 0.24266 0.14978
 C20 C 0.79978 0.26375 0.17310
 C21 C 0.77716 0.26394 0.20949
 C22 C 0.75974 0.24394 0.22047
 C23 C 0.76675 0.22312 0.19590
 C24 C 0.79082 0.22215 0.16195
 C25 C 0.73485 0.24500 0.25811
 C26 C 0.72649 0.22529 0.28577
 C27 C 0.70329 0.22635 0.32181
 C28 C 0.69096 0.24840 0.33238
 C29 C 0.69790 0.26800 0.30421
 C30 C 0.71925 0.26598 0.26646
 H31 H 0.82450 0.24207 0.12261
 H32 H 0.77366 0.27976 0.23003
 H33 H 0.75356 0.20750 0.20261
 H34 H 0.73771 0.20912 0.27809
 H35 H 0.67640 0.25081 0.36376
 H36 H 0.72340 0.28085 0.24329
 C37 C 0.69081 0.75269 0.65783
 C38 C 0.70348 0.73116 0.67074
 C39 C 0.72485 0.73023 0.71009
 C40 C 0.73193 0.75012 0.73858
 C41 C 0.71664 0.77103 0.72712
 C42 C 0.69655 0.77259 0.68631
 C43 C 0.75538 0.74911 0.77971
 C44 C 0.77277 0.76894 0.79320
 C45 C 0.79532 0.76834 0.83129
 C46 C 0.80137 0.74677 0.85385
 C47 C 0.78504 0.72664 0.84003
 C48 C 0.76134 0.72819 0.80456
 H49 H 0.67626 0.75398 0.62530
 H50 H 0.73568 0.71389 0.71864
 H51 H 0.71976 0.78611 0.75038
 H52 H 0.76809 0.78504 0.77455
 H53 H 0.82036 0.74512 0.87987
 H54 H 0.74774 0.71284 0.79644
 C55 C 0.31134 0.74983 0.66044
 C56 C 0.29659 0.77044 0.67367
 C57 C 0.27268 0.76952 0.70772
 C58 C 0.26524 0.74882 0.73255
 C59 C 0.28101 0.72840 0.71939
 C60 C 0.30325 0.72865 0.68227
 C61 C 0.24140 0.74893 0.77212
 C62 C 0.22478 0.72871 0.78473
 C63 C 0.20256 0.72890 0.82233
 C64 C 0.19558 0.75040 0.84436
 C65 C 0.21118 0.77079 0.83152
 C66 C 0.23495 0.76962 0.79747
 H67 H 0.32988 0.75032 0.63424
 H68 H 0.25995 0.78525 0.71450
 H69 H 0.27614 0.71217 0.73752
 H70 H 0.22986 0.71268 0.76625
 H71 H 0.17654 0.75174 0.86943
 H72 H 0.24826 0.78520 0.79097
 O73 O 1.03779 -0.02676 0.01915
 O74 O 0.97644 0.01499 0.04661
 O75 O 0.97811 -0.02845 0.01828
 O76 O 1.03671 0.01670 0.04570
 O77 O 1.03493 0.02768 -0.03183
 O78 O 0.97678 -0.01733 -0.05916
 O79 O 0.97504 0.02600 -0.03089
 O80 O 1.03659 -0.01582 -0.05841
 Cu81 Cu 1.00733 -0.00689 0.04027
 Cu82 Cu 1.00568 0.00625 -0.05280
 C83 C 1.04744 -0.02866 -0.02445
 C84 C 0.96536 0.02776 0.01276
 C85 C 0.96784 -0.03086 -0.02544
 C86 C 1.04573 0.02999 0.01152
 O87 O 0.53746 0.47348 0.50774
 O88 O 0.48146 0.51688 0.54840
 O89 O 0.47856 0.47369 0.51775
 O90 O 0.54104 0.51655 0.53703
 O91 O 0.53452 0.52875 0.46087
 O92 O 0.47247 0.48572 0.44136
 O93 O 0.47520 0.52875 0.47199
 O94 O 0.53198 0.48558 0.43129
 Cu95 Cu 0.51018 0.49404 0.53547
 Cu96 Cu 0.50292 0.50843 0.44374
 C97 C 0.54393 0.47182 0.46257
 C98 C 0.46894 0.53042 0.51729
 C99 C 0.46535 0.47201 0.47589
 C100 C 0.54823 0.53015 0.50233
 O101 O -0.03580 0.52662 0.02787
 O102 O 0.02823 0.48647 0.05356
 O103 O 0.02394 0.52918 0.02205
 O104 O -0.03147 0.48344 0.05706
 O105 O -0.03322 0.47118 -0.01975
 O106 O 0.02173 0.51679 -0.05460
 O107 O 0.02590 0.47410 -0.02314
 O108 O -0.03809 0.51435 -0.04885
 Cu109 Cu -0.00359 0.50770 0.04779
 Cu110 Cu -0.00619 0.49298 -0.04433
 C111 C -0.04767 0.52758 -0.01500
 C112 C 0.03758 0.47307 0.01990
 C113 C 0.03213 0.53089 -0.02243
 C114 C -0.04119 0.46912 0.02468
 O115 O 0.52602 1.01964 0.45945
 O116 O 0.46490 0.97701 0.48555
 O117 O 0.46561 1.02043 0.45849
 O118 O 0.52439 0.97654 0.48881
 O119 O 0.52517 0.98847 0.56586
 O120 O 0.46540 1.03156 0.53600
 O121 O 0.46530 0.98810 0.56311
 O122 O 0.52542 1.03154 0.53646
 Cu123 Cu 0.49525 0.99739 0.46523
 Cu124 Cu 0.49532 1.01112 0.55806
 C125 C 0.53604 1.03299 0.49335
 C126 C 0.45510 0.97491 0.52901
 C127 C 0.45538 1.03349 0.49214
 C128 C 0.53452 0.97480 0.53269
 C129 C 1.17260 0.16806 0.10256
 C130 C 1.15741 0.18914 0.09494
 C131 C 1.16928 0.20971 0.11470
 C132 C 1.19740 0.21017 0.14208
 C133 C 1.21315 0.18879 0.14769
 C134 C 1.20070 0.16808 0.12877
 C135 C 1.15809 0.14623 0.08503
 N136 N 1.16341 0.12582 0.10852
 N137 N 1.14815 0.10661 0.09515
 C138 C 1.12715 0.10701 0.05753
 N139 N 1.12230 0.12733 0.03358
 N140 N 1.13734 0.14654 0.04717
 C141 C 1.10852 0.08623 0.04446
 C142 C 1.09275 0.08511 -0.00096
 C143 C 1.07307 0.06650 -0.01205
 C144 C 1.06839 0.04870 0.02226
 C145 C 1.08469 0.04951 0.06728
 C146 C 1.10475 0.06802 0.07814
 H147 H 1.13541 0.18964 0.07547
 H148 H 1.15488 0.22483 0.11047
 H149 H 1.23538 0.18765 0.16595
 H150 H 1.21315 0.15204 0.13453
 H151 H 1.09529 0.09879 -0.02781
 H152 H 1.06088 0.06639 -0.04708
 H153 H 1.08166 0.03599 0.09436
 H154 H 1.11650 0.06844 0.11351
 C155 C 0.67019 0.66842 0.60016
 C156 C 0.65105 0.68779 0.60488
 C157 C 0.66200 0.70797 0.62752
 C158 C 0.69275 0.70964 0.64482
 C159 C 0.71218 0.69031 0.63898
 C160 C 0.70086 0.66979 0.61743
 C161 C 0.65735 0.64675 0.57906
 N162 N 0.66692 0.62570 0.59548
 N163 N 0.65303 0.60630 0.57972
 C164 C 0.62926 0.60722 0.54658
 N165 N 0.62020 0.62825 0.52948
 N166 N 0.63385 0.64762 0.54556
 C167 C 0.61175 0.58612 0.53220
 C168 C 0.59334 0.58604 0.48927
 C169 C 0.57376 0.56734 0.47850
 C170 C 0.57181 0.54844 0.51082
 C171 C 0.59110 0.54807 0.55281
 C172 C 0.61108 0.56666 0.56320
 H173 H 0.62714 0.68708 0.59263
 H174 H 0.64590 0.72204 0.63261
 H175 H 0.73611 0.69095 0.65096
 H176 H 0.71611 0.65506 0.61396
 H177 H 0.59352 0.60073 0.46453
 H178 H 0.55922 0.56813 0.44583
 H179 H 0.59020 0.53368 0.57825
 H180 H 0.62493 0.56627 0.59663
 C181 C -0.15342 0.32703 0.13181
 C182 C -0.18428 0.32748 0.14667
 C183 C -0.19939 0.30700 0.15993
 C184 C -0.18379 0.28561 0.15965
 C185 C -0.15265 0.28533 0.14568
 C186 C -0.13775 0.30575 0.13145
 C187 C -0.13778 0.34854 0.11591
 N188 N -0.11386 0.34758 0.08436
 N189 N -0.10001 0.36693 0.06935
 C190 C -0.10932 0.38803 0.08556
 N191 N -0.13312 0.38901 0.11738
 N192 N -0.14718 0.36965 0.13204
 C193 C -0.09359 0.40939 0.06900
 C194 C -0.09318 0.42953 0.09820
 C195 C -0.07659 0.44920 0.08357
 C196 C -0.06074 0.44922 0.03896
 C197 C -0.06207 0.42932 0.00907
 C198 C -0.07807 0.40956 0.02415
 H199 H -0.19701 0.34360 0.14687
 H200 H -0.22352 0.30790 0.16947
 H201 H -0.13960 0.26936 0.14606
 H202 H -0.11382 0.30494 0.12065
 H203 H -0.10490 0.42985 0.13302
 H204 H -0.07593 0.46430 0.10731
 H205 H -0.04992 0.42876 -0.02535
 H206 H -0.07817 0.39435 0.00072
 C207 C 0.33163 0.83596 0.62147
 C208 C 0.32860 0.81693 0.58926
 C209 C 0.31663 0.79576 0.60568
 C210 C 0.30737 0.79319 0.65461
 C211 C 0.30981 0.81238 0.68641
 C212 C 0.32172 0.83348 0.67006
 C213 C 0.34623 0.85797 0.60545
 N214 N 0.35070 0.87571 0.63774
 N215 N 0.36526 0.89504 0.62440
 C216 C 0.37598 0.89751 0.57812
 N217 N 0.37122 0.87988 0.54560
 N218 N 0.35666 0.86052 0.55898
 C219 C 0.39396 0.91842 0.56435
 C220 C 0.40476 0.92117 0.51630
 C221 C 0.42376 0.93995 0.50442
 C222 C 0.43249 0.95638 0.54034
 C223 C 0.42088 0.95406 0.58795
 C224 C 0.40178 0.93533 0.59979
 H225 H 0.33592 0.81825 0.55154
 H226 H 0.31474 0.78137 0.58015
 H227 H 0.30336 0.81090 0.72453
 H228 H 0.32372 0.84771 0.69594
 H229 H 0.39908 0.90855 0.48802
 H230 H 0.43229 0.94124 0.46736
 H231 H 0.42709 0.96644 0.61644
 H232 H 0.39382 0.93383 0.63713
 C233 C -0.18131 0.66091 -0.10672
 C234 C -0.19166 0.66338 -0.15560
 C235 C -0.20353 0.68447 -0.17225
 C236 C -0.20544 0.70363 -0.14045
 C237 C -0.19618 0.70095 -0.09110
 C238 C -0.18427 0.67981 -0.07440
 C239 C -0.16587 0.63924 -0.09058
 N240 N -0.15453 0.63702 -0.04405
 N241 N -0.13875 0.61821 -0.03068
 C242 C -0.13360 0.60082 -0.06327
 N243 N -0.14532 0.60291 -0.10958
 N244 N -0.16111 0.62169 -0.12293
 C245 C -0.11398 0.58075 -0.04959
 C246 C -0.10606 0.56406 -0.08493
 C247 C -0.08527 0.54636 -0.07329
 C248 C -0.07200 0.54487 -0.02600
 C249 C -0.08083 0.56099 0.00987
 C250 C -0.10155 0.57874 -0.00179
 H251 H -0.18978 0.64921 -0.18154
 H252 H -0.21006 0.68602 -0.21064
 H253 H -0.19773 0.71531 -0.06558
 H254 H -0.17670 0.67850 -0.03644
 H255 H -0.11525 0.56501 -0.12206
 H256 H -0.07904 0.53417 -0.10173
 H257 H -0.07109 0.56031 0.04670
 H258 H -0.10725 0.59119 0.02642
 C259 C 0.31798 1.16505 0.39951
 C260 C 0.30346 1.16592 0.35314
 C261 C 0.29096 1.18664 0.33542
 C262 C 0.29288 1.20733 0.36335
 C263 C 0.30589 1.20588 0.41117
 C264 C 0.31819 1.18509 0.42890
 C265 C 0.33458 1.14388 0.41568
 N266 N 0.34785 1.14267 0.46113
 N267 N 0.36475 1.12440 0.47429
 C268 C 0.36921 1.10657 0.44251
 N269 N 0.35564 1.10764 0.39728
 N270 N 0.33868 1.12589 0.38416
 C271 C 0.38974 1.08698 0.45599
 C272 C 0.39815 1.07044 0.42067
 C273 C 0.41912 1.05288 0.43254
 C274 C 0.43203 1.05137 0.48009
 C275 C 0.42303 1.06755 0.51573
 C276 C 0.40220 1.08518 0.50380
 H277 H 0.30269 1.15077 0.32959
 H278 H 0.28194 1.18652 0.29816
 H279 H 0.30653 1.22070 0.43557
 H280 H 0.32868 1.18494 0.46525
 H281 H 0.38903 1.07130 0.38348
 H282 H 0.42549 1.04064 0.40429
 H283 H 0.43251 1.06686 0.55273
 H284 H 0.39617 1.09756 0.53197
 C285 C 1.17668 -0.16377 -0.11620
 C286 C 1.18674 -0.16622 -0.16473
 C287 C 1.19873 -0.18724 -0.18105
 C288 C 1.20106 -0.20636 -0.14927
 C289 C 1.19193 -0.20374 -0.10030
 C290 C 1.17990 -0.18266 -0.08391
 C291 C 1.16147 -0.14206 -0.10039
 N292 N 1.15114 -0.13958 -0.05386
 N293 N 1.13577 -0.12065 -0.04069
 C294 C 1.13004 -0.10340 -0.07350
 N295 N 1.14070 -0.10578 -0.11985
 N296 N 1.15608 -0.12468 -0.13299
 C297 C 1.11107 -0.08309 -0.05992
 C298 C 1.10206 -0.06676 -0.09561
 C299 C 1.08206 -0.04870 -0.08381
 C300 C 1.07073 -0.04650 -0.03599
 C301 C 1.08059 -0.06232 0.00011
 C302 C 1.10049 -0.08043 -0.01173
 H303 H 1.18465 -0.15207 -0.19063
 H304 H 1.20516 -0.18877 -0.21918
 H305 H 1.19377 -0.21808 -0.07480
 H306 H 1.17252 -0.18135 -0.04622
 H307 H 1.10981 -0.06823 -0.13308
 H308 H 1.07499 -0.03676 -0.11243
 H309 H 1.07233 -0.06109 0.03734
 H310 H 1.10707 -0.09261 0.01674
 C311 C 0.65437 0.33262 0.34189
 C312 C 0.68467 0.33259 0.32427
 C313 C 0.69876 0.31170 0.31119
 C314 C 0.68260 0.29052 0.31476
 C315 C 0.65178 0.29086 0.33026
 C316 C 0.63798 0.31160 0.34417
 C317 C 0.64006 0.35416 0.35988
 N318 N 0.61826 0.35308 0.39504
 N319 N 0.60529 0.37230 0.41198
 C320 C 0.61339 0.39341 0.39422
 N321 N 0.63514 0.39456 0.35885
 N322 N 0.64839 0.37529 0.34223
 C323 C 0.59820 0.41450 0.41276
 C324 C 0.59458 0.43421 0.38298
 C325 C 0.57750 0.45320 0.39942
 C326 C 0.56437 0.45295 0.44629
 C327 C 0.56922 0.43363 0.47674
 C328 C 0.58570 0.41454 0.45999
 H329 H 0.69783 0.34859 0.32232
 H330 H 0.72259 0.31208 0.29979
 H331 H 0.63831 0.27501 0.33206
 H332 H 0.61441 0.31117 0.35685
 H333 H 0.60394 0.43458 0.34635
 H334 H 0.57417 0.46789 0.37523
 H335 H 0.55931 0.43287 0.51297
 H336 H 0.58835 0.39966 0.48388
 C337 C 0.84340 -0.17018 -0.12317
 C338 C 0.83927 -0.18869 -0.09050
 C339 C 0.82379 -0.20890 -0.10553
 C340 C 0.81172 -0.21126 -0.15385
 C341 C 0.81620 -0.19253 -0.18647
 C342 C 0.83177 -0.17239 -0.17134
 C343 C 0.85991 -0.14874 -0.10732
 N344 N 0.86456 -0.13111 -0.13941
 N345 N 0.87977 -0.11199 -0.12551
 C346 C 0.89093 -0.10964 -0.07888
 N347 N 0.88615 -0.12722 -0.04668
 N348 N 0.87095 -0.14636 -0.06060
 C349 C 0.90884 -0.08868 -0.06406
 C350 C 0.92038 -0.08611 -0.01577
 C351 C 0.93878 -0.06697 -0.00275
 C352 C 0.94611 -0.05001 -0.03775
 C353 C 0.93388 -0.05225 -0.08563
 C354 C 0.91543 -0.07132 -0.09860
 H355 H 0.84781 -0.18755 -0.05298
 H356 H 0.82026 -0.22218 -0.07815
 H357 H 0.80893 -0.19349 -0.22456
 H358 H 0.83484 -0.15859 -0.19775
 H359 H 0.91566 -0.09909 0.01184
 H360 H 0.94787 -0.06576 0.03445
 H361 H 0.93901 -0.03947 -0.11347
 H362 H 0.90686 -0.07265 -0.13607
 C363 C 0.34069 0.33341 0.37975
 C364 C 0.31040 0.33429 0.36066
 C365 C 0.29527 0.31399 0.34517
 C366 C 0.31026 0.29240 0.34768
 C367 C 0.34083 0.29169 0.36589
 C368 C 0.35573 0.31190 0.38216
 C369 C 0.35666 0.35474 0.39704
 N370 N 0.38081 0.35342 0.42929
 N371 N 0.39561 0.37252 0.44433
 C372 C 0.38700 0.39373 0.42755
 N373 N 0.36280 0.39507 0.39533
 N374 N 0.34782 0.37597 0.38057
 C375 C 0.40461 0.41474 0.44247
 C376 C 0.40411 0.43475 0.41309
 C377 C 0.42315 0.45373 0.42474
 C378 C 0.44263 0.45321 0.46648
 C379 C 0.44203 0.43363 0.49709
 C380 C 0.42341 0.41452 0.48500
 H381 H 0.29818 0.35061 0.35857
 H382 H 0.27161 0.31517 0.33199
 H383 H 0.35345 0.27554 0.36718
 H384 H 0.37924 0.31072 0.39603
 H385 H 0.38989 0.43542 0.38006
 H386 H 0.42309 0.46861 0.40052
 H387 H 0.45688 0.43268 0.52939
 H388 H 0.42411 0.39942 0.50856
 C389 C 0.15690 0.66718 -0.13044
 C390 C 0.16804 0.66888 -0.17844
 C391 C 0.18314 0.68901 -0.19413
 C392 C 0.18738 0.70823 -0.16232
 C393 C 0.17620 0.70618 -0.11402
 C394 C 0.16132 0.68604 -0.09843
 C395 C 0.14042 0.64605 -0.11378
 N396 N 0.13102 0.64414 -0.06661
 N397 N 0.11559 0.62546 -0.05174
 C398 C 0.10885 0.60785 -0.08339
 N399 N 0.11838 0.60968 -0.13053
 N400 N 0.13386 0.62837 -0.14541
 C401 C 0.09067 0.58745 -0.06717
 C402 C 0.08152 0.57014 -0.10088
 C403 C 0.06303 0.55155 -0.08611
 C404 C 0.05332 0.54979 -0.03724
 C405 C 0.06306 0.56678 -0.00325
 C406 C 0.08149 0.58541 -0.01804
 H407 H 0.16487 0.65470 -0.20421
 H408 H 0.19013 0.68962 -0.23203
 H409 H 0.17988 0.71976 -0.08704
 H410 H 0.15329 0.68530 -0.06101
 H411 H 0.08820 0.57111 -0.13896
 H412 H 0.05598 0.53872 -0.11321
 H413 H 0.05600 0.56594 0.03467
 H414 H 0.08819 0.59837 0.00897
 C415 C 0.66627 1.16553 0.38963
 C416 C 0.65027 1.18652 0.39026
 C417 C 0.66245 1.20626 0.36826
 C418 C 0.69177 1.20605 0.34582
 C419 C 0.70803 1.18475 0.34647
 C420 C 0.69525 1.16477 0.36753
 C421 C 0.65174 1.14453 0.41030
 N422 N 0.65733 1.12317 0.39133
 N423 N 0.64187 1.10463 0.40715
 C424 C 0.62044 1.10670 0.44282
 N425 N 0.61538 1.12800 0.46238
 N426 N 0.63060 1.14653 0.44632
 C427 C 0.60133 1.08665 0.45787
 C428 C 0.58522 1.08734 0.50222
 C429 C 0.56479 1.06951 0.51446
 C430 C 0.55969 1.05075 0.48227
 C431 C 0.57642 1.04972 0.43852
 C432 C 0.59723 1.06741 0.42662
 H433 H 0.62752 1.18752 0.40609
 H434 H 0.64755 1.22121 0.36705
 H435 H 0.73093 1.18318 0.33186
 H436 H 0.70821 1.14875 0.36697
 H437 H 0.58800 1.10188 0.52718
 H438 H 0.55226 1.07079 0.54844
 H439 H 0.57310 1.03541 0.41313
 H440 H 0.60923 1.06643 0.39211
 C441 C 0.15961 0.33689 0.12836
 C442 C 0.18894 0.33735 0.15113
 C443 C 0.20272 0.31676 0.16741
 C444 C 0.18719 0.29536 0.16193
 C445 C 0.15741 0.29516 0.14055
 C446 C 0.14396 0.31560 0.12351
 C447 C 0.14516 0.35830 0.10927
 N448 N 0.12356 0.35704 0.07270
 N449 N 0.10971 0.37609 0.05611
 C450 C 0.11673 0.39721 0.07557
 N451 N 0.13845 0.39852 0.11207
 N452 N 0.15253 0.37944 0.12841
 C453 C 0.09964 0.41799 0.05896
 C454 C 0.09705 0.43750 0.08963
 C455 C 0.07773 0.45588 0.07621
 C456 C 0.06104 0.45526 0.03152
 C457 C 0.06499 0.43632 -0.00027
 C458 C 0.08391 0.41782 0.01345
 H459 H 0.20153 0.35355 0.15524
 H460 H 0.22578 0.31756 0.18327
 H461 H 0.14433 0.27917 0.13701
 H462 H 0.12109 0.31475 0.10689
 H463 H 0.10889 0.43811 0.12494
 H464 H 0.07521 0.47029 0.10139
 H465 H 0.05243 0.43530 -0.03492
 H466 H 0.08566 0.40312 -0.01116
 C467 C 0.65248 0.83645 0.64286
 C468 C 0.63677 0.81517 0.63859
 C469 C 0.65075 0.79466 0.65408
 C470 C 0.68109 0.79482 0.67332
 C471 C 0.69661 0.81622 0.67853
 C472 C 0.68234 0.83687 0.66378
 C473 C 0.63771 0.85789 0.62460
 N474 N 0.64581 0.87904 0.64297
 N475 N 0.63180 0.89819 0.62688
 C476 C 0.60943 0.89694 0.59139
 N477 N 0.60161 0.87581 0.57277
 N478 N 0.61539 0.85669 0.58913
 C479 C 0.59286 0.91790 0.57452
 C480 C 0.57717 0.91783 0.52898
 C481 C 0.55930 0.93678 0.51453
 C482 C 0.55633 0.95607 0.54566
 C483 C 0.57273 0.95646 0.59061
 C484 C 0.59106 0.93762 0.60472
 H485 H 0.61352 0.81436 0.62341
 H486 H 0.63772 0.77863 0.65086
 H487 H 0.72008 0.81698 0.69277
 H488 H 0.69499 0.85306 0.66741
 H489 H 0.57831 0.90294 0.50476
 H490 H 0.54689 0.93595 0.47972
 H491 H 0.57094 0.97114 0.61528
 H492 H 0.60287 0.93814 0.64006
 C493 C 0.82747 0.15787 0.10724
 C494 C 0.81698 0.15960 0.15570
 C495 C 0.80393 0.18016 0.17271
 C496 C 0.80103 0.19952 0.14171
 C497 C 0.81028 0.19749 0.09266
 C498 C 0.82332 0.17690 0.07559
 C499 C 0.84425 0.13690 0.09089
 N500 N 0.85524 0.13532 0.04455
 N501 N 0.87209 0.11718 0.03099
 C502 C 0.87873 0.09986 0.06319
 N503 N 0.86744 0.10133 0.10932
 N504 N 0.85057 0.11943 0.12286
 C505 C 0.89918 0.08043 0.04920
 C506 C 0.90864 0.06396 0.08430
 C507 C 0.92962 0.04660 0.07217
 C508 C 0.94156 0.04520 0.02459
 C509 C 0.93145 0.06124 -0.01093
 C510 C 0.91055 0.07868 0.00125
 H511 H 0.81969 0.14529 0.18109
 H512 H 0.79735 0.18123 0.21084
 H513 H 0.80792 0.21199 0.06767
 H514 H 0.83091 0.17613 0.03795
 H515 H 0.90035 0.06473 0.12155
 H516 H 0.93684 0.03447 0.10037
 H517 H 0.94019 0.06064 -0.04794
 H518 H 0.90370 0.09100 -0.02676
 C519 C 0.34692 0.66573 0.63358
 C520 C 0.34240 0.66974 0.68393
 C521 C 0.32811 0.69008 0.69992
 C522 C 0.31813 0.70685 0.66591
 C523 C 0.32244 0.70274 0.61563
 C524 C 0.33662 0.68245 0.59966
 C525 C 0.36273 0.64450 0.61637
 N526 N 0.36701 0.64077 0.56769
 N527 N 0.38190 0.62207 0.55210
 C528 C 0.39318 0.60623 0.58449
 N529 N 0.38874 0.60986 0.63319
 N530 N 0.37383 0.62859 0.64880
 C531 C 0.41088 0.58591 0.56709
 C532 C 0.42351 0.56993 0.60067
 C533 C 0.44170 0.55156 0.58439
 C534 C 0.44769 0.54875 0.53416
 C535 C 0.43440 0.56436 0.50047
 C536 C 0.41621 0.58271 0.51673
 H537 H 0.35008 0.65726 0.71109
 H538 H 0.32536 0.69286 0.73893
 H539 H 0.31458 0.71519 0.58851
 H540 H 0.33961 0.67995 0.56062
 H541 H 0.41981 0.57180 0.63970
 H542 H 0.45157 0.53983 0.61132
 H543 H 0.43852 0.56267 0.46152
 H544 H 0.40677 0.59461 0.48978
   
