data_POSCAR
  _audit_creation_date              2014-09-24
  _audit_creation_method            'ToBaCCo'
  _symmetry_space_group_name_H-M    'P1'
  _symmetry_Int_Tables_number       1
  _symmetry_cell_setting            triclinic
  loop_
  _symmetry_equiv_pos_as_xyz
 x,y,z
_cell_length_a 31.8399
_cell_length_b 34.7636
_cell_length_c 31.0374
_cell_angle_alpha 89.114000
_cell_angle_beta 92.418700
_cell_angle_gamma 89.339200
loop_
  _atom_site_label
  _atom_site_type_symbol
  _atom_site_fract_x
  _atom_site_fract_y
  _atom_site_fract_z
N1 N 0.17404 0.18970 0.26249
 N2 N 0.18699 0.15773 0.24512
 C3 C 0.17800 0.12778 0.27053
 C4 C 0.15916 0.14139 0.30681
 C5 C 0.15661 0.18112 0.30022
 H6 H 0.18577 0.09825 0.26339
 H7 H 0.14091 0.20197 0.31964
 Cu8 Cu 0.21455 0.15669 0.19092
 Cu9 Cu 0.17911 0.23847 0.23165
 Cu10 Cu 0.25379 0.24363 0.15854
 N11 N 0.26190 0.16144 0.15287
 N12 N 0.28015 0.19436 0.14453
 C13 C 0.31756 0.18723 0.12751
 C14 C 0.32279 0.14750 0.12398
 C15 C 0.28648 0.13248 0.14048
 H16 H 0.34034 0.20936 0.12199
 H17 H 0.27905 0.10251 0.14533
 N18 N 0.20680 0.28059 0.15823
 N19 N 0.17790 0.27865 0.18724
 C20 C 0.14725 0.30450 0.17705
 C21 C 0.15723 0.32369 0.13949
 C22 C 0.19515 0.30750 0.12828
 H23 H 0.11859 0.30752 0.19429
 H24 H 0.21153 0.31291 0.09900
 H25 H 0.20316 0.21007 0.16474
 H26 H 0.24236 0.20522 0.21082
 N27 N -0.16901 0.79587 0.28731
 N28 N -0.20252 0.81828 0.28749
 C29 C -0.19176 0.85255 0.30392
 C30 C -0.14906 0.85172 0.31402
 C31 C -0.13577 0.81498 0.30398
 H32 H -0.21312 0.87670 0.30693
 H33 H -0.10416 0.80328 0.30766
 Cu34 Cu -0.25619 0.80191 0.26256
 Cu35 Cu -0.17123 0.74479 0.26231
 Cu36 Cu -0.24871 0.74086 0.18080
 N37 N -0.30206 0.79573 0.22035
 N38 N -0.29775 0.77438 0.18630
 C39 C -0.32822 0.78390 0.15652
 C40 C -0.35358 0.81275 0.17287
 C41 C -0.33594 0.81871 0.21405
 H42 H -0.32822 0.77404 0.12368
 H43 H -0.34430 0.84062 0.23653
 N44 N -0.20217 0.70279 0.18756
 N45 N -0.17262 0.70452 0.21862
 C46 C -0.14369 0.67675 0.21298
 C47 C -0.15612 0.65604 0.17716
 C48 C -0.19318 0.67333 0.16173
 H49 H -0.11482 0.67298 0.23228
 H50 H -0.21087 0.66622 0.13248
 H51 H -0.20575 0.77293 0.21605
 H52 H -0.23576 0.73601 0.24595
 N53 N -0.16998 0.18904 -0.28749
 N54 N -0.16963 0.15425 -0.27034
 C55 C -0.15592 0.12903 -0.29896
 C56 C -0.14727 0.14879 -0.33646
 C57 C -0.15739 0.18692 -0.32832
 H58 H -0.15276 0.09837 -0.29305
 H59 H -0.15610 0.21128 -0.35030
 Cu60 Cu -0.19063 0.14364 -0.21410
 Cu61 Cu -0.18411 0.23404 -0.25380
 Cu62 Cu -0.21635 0.21623 -0.15048
 N63 N -0.22926 0.13681 -0.16827
 N64 N -0.24099 0.16543 -0.14427
 C65 C -0.26959 0.15262 -0.11686
 C66 C -0.27533 0.11347 -0.12345
 C67 C -0.24955 0.10484 -0.15696
 H68 H -0.28451 0.17036 -0.09345
 H69 H -0.24758 0.07798 -0.17393
 N70 N -0.19864 0.26731 -0.17008
 N71 N -0.18611 0.27429 -0.20942
 C72 C -0.16968 0.30984 -0.21082
 C73 C -0.17254 0.32613 -0.17056
 C74 C -0.19085 0.29817 -0.14559
 H75 H -0.15406 0.32190 -0.23811
 H76 H -0.19478 0.29905 -0.11117
 H77 H -0.16880 0.20766 -0.19537
 H78 H -0.22567 0.20584 -0.21431
 N79 N 0.13945 0.81827 -0.23088
 N80 N 0.14178 0.84957 -0.20746
 C81 C 0.12427 0.87917 -0.23041
 C82 C 0.11052 0.86597 -0.27044
 C83 C 0.12113 0.82716 -0.26964
 H84 H 0.12430 0.90868 -0.21989
 H85 H 0.11781 0.80721 -0.29592
 Cu86 Cu 0.17654 0.85220 -0.15347
 Cu87 Cu 0.16046 0.76816 -0.20903
 Cu88 Cu 0.22197 0.76960 -0.11894
 N89 N 0.22894 0.85122 -0.11848
 N90 N 0.24878 0.81889 -0.10808
 C91 C 0.28730 0.82694 -0.09124
 C92 C 0.29168 0.86686 -0.08978
 C93 C 0.25346 0.88093 -0.10737
 H94 H 0.31114 0.80512 -0.08415
 H95 H 0.24430 0.91061 -0.11346
 N96 N 0.18628 0.72570 -0.13204
 N97 N 0.16352 0.72455 -0.16838
 C98 C 0.13835 0.69377 -0.16739
 C99 C 0.14536 0.67485 -0.12828
 C100 C 0.17589 0.69592 -0.10648
 H101 H 0.11355 0.68797 -0.19123
 H102 H 0.18677 0.69197 -0.07319
 H103 H 0.15644 0.79566 -0.15264
 H104 H 0.20366 0.80809 -0.18327
 N105 N 0.21976 1.19037 0.72144
 N106 N 0.18243 1.19679 0.73639
 C107 C 0.15338 1.17895 0.71142
 C108 C 0.17347 1.16043 0.67862
 C109 C 0.21558 1.16980 0.68519
 H110 H 0.12013 1.17883 0.71720
 H111 H 0.24162 1.16179 0.66582
 Cu112 Cu 0.17564 1.22917 0.78603
 Cu113 Cu 0.27063 1.20422 0.75453
 Cu114 Cu 0.25597 1.23791 0.85787
 N115 N 0.17519 1.26823 0.82998
 N116 N 0.20583 1.27124 0.85947
 C117 C 0.19421 1.29696 0.88911
 C118 C 0.15409 1.31039 0.87729
 C119 C 0.14359 1.29212 0.83920
 H120 H 0.21250 1.30378 0.91809
 H121 H 0.11397 1.29449 0.82090
 N122 N 0.30895 1.21323 0.84093
 N123 N 0.31470 1.20130 0.80136
 C124 C 0.35015 1.17979 0.80149
 C125 C 0.36780 1.17819 0.84296
 C126 C 0.34083 1.19980 0.86710
 H127 H 0.36010 1.16329 0.77439
 H128 H 0.34207 1.20209 0.90184
 H129 H 0.23969 1.19650 0.81131
 H130 H 0.24930 1.24749 0.79477
 N131 N 0.81402 0.83528 0.71612
 N132 N 0.83766 0.80520 0.70787
 C133 C 0.86863 0.81612 0.68224
 C134 C 0.86414 0.85512 0.67409
 C135 C 0.82923 0.86647 0.69600
 H136 H 0.89292 0.79729 0.67086
 H137 H 0.81604 0.89522 0.69729
 Cu138 Cu 0.82609 0.75476 0.73206
 Cu139 Cu 0.76473 0.83106 0.75171
 Cu140 Cu 0.76415 0.74876 0.81612
 N141 N 0.82458 0.70827 0.76757
 N142 N 0.79867 0.70541 0.79931
 C143 C 0.80673 0.67231 0.82126
 C144 C 0.83971 0.65358 0.80262
 C145 C 0.85057 0.67738 0.76882
 H146 H 0.79283 0.66436 0.85128
 H147 H 0.87738 0.67393 0.74890
 N148 N 0.72598 0.79278 0.82426
 N149 N 0.72626 0.82428 0.79989
 C150 C 0.69914 0.85018 0.81545
 C151 C 0.68136 0.83422 0.85140
 C152 C 0.69870 0.79774 0.85577
 H153 H 0.69428 0.87919 0.80299
 H154 H 0.69315 0.77714 0.88130
 H155 H 0.79851 0.79332 0.78926
 H156 H 0.75554 0.77188 0.75525
 N157 N 0.17429 0.83726 1.24305
 N158 N 0.13596 0.82719 1.23096
 C159 C 0.10864 0.84095 1.25923
 C160 C 0.13115 0.86086 1.29082
 C161 C 0.17287 0.85652 1.28017
 H162 H 0.07489 0.83780 1.25627
 H163 H 0.20016 0.86821 1.29701
 Cu164 Cu 0.12638 0.79647 1.17973
 Cu165 Cu 0.22254 0.82961 1.20675
 Cu166 Cu 0.19986 0.79296 1.10578
 N167 N 0.12916 0.75439 1.13907
 N168 N 0.15866 0.75229 1.11080
 C169 C 0.15535 0.71874 1.08981
 C170 C 0.12235 0.69842 1.10637
 C171 C 0.10577 0.72254 1.13671
 H172 H 0.17613 0.70941 1.06523
 H173 H 0.07903 0.71715 1.15621
 N174 N 0.25099 0.82191 1.11890
 N175 N 0.26100 0.83409 1.15806
 C176 C 0.29756 0.85320 1.15683
 C177 C 0.31082 0.85295 1.11492
 C178 C 0.28043 0.83315 1.09165
 H179 H 0.31229 0.86798 1.18379
 H180 H 0.27940 0.82796 1.05735
 H181 H 0.18404 0.83412 1.15302
 H182 H 0.20127 0.78447 1.17022
 N183 N 0.79126 1.19504 1.30035
 N184 N 0.81791 1.22362 1.30222
 C185 C 0.85088 1.21356 1.32878
 C186 C 0.84555 1.17591 1.34291
 C187 C 0.80678 1.16556 1.32497
 H188 H 0.87735 1.23195 1.33599
 H189 H 0.79194 1.13784 1.32784
 Cu190 Cu 0.81017 1.26880 1.26453
 Cu191 Cu 0.74069 1.19745 1.26229
 Cu192 Cu 0.76295 1.24690 1.16913
 N193 N 0.80987 1.30434 1.21552
 N194 N 0.79209 1.29514 1.17814
 C195 C 0.80040 1.32237 1.14865
 C196 C 0.82402 1.35068 1.16861
 C197 C 0.82984 1.33801 1.21108
 H198 H 0.79193 1.32054 1.11463
 H199 H 0.84905 1.35121 1.23620
 N200 N 0.71883 1.20762 1.17158
 N201 N 0.70758 1.19176 1.20809
 C202 C 0.67525 1.16811 1.19996
 C203 C 0.66588 1.16841 1.15583
 C204 C 0.69474 1.19354 1.13893
 H205 H 0.66125 1.15033 1.22425
 H206 H 0.69938 1.19981 1.10526
 H207 H 0.78459 1.21474 1.22175
 H208 H 0.74286 1.25176 1.22978
 O209 O 0.55221 0.94944 0.93020
 O210 O 0.48157 0.94796 1.06977
 O211 O 0.56903 0.93279 1.02946
 O212 O 0.42806 0.99155 0.95950
 O213 O 0.55911 0.96271 1.08579
 O214 O 0.47300 0.95399 0.92881
 O215 O 0.43143 0.98070 1.03562
 O216 O 0.57605 0.93481 0.99525
 C217 C 0.57431 0.92772 0.95439
 C218 C 0.44404 0.95026 1.05594
 C219 C 0.56535 0.93050 1.07008
 C220 C 0.43645 0.96081 0.94035
 O221 O 0.47822 1.02810 0.91404
 O222 O 0.54149 1.03471 1.08613
 O223 O 0.60344 0.99532 0.97143
 O224 O 0.47182 1.05504 1.04064
 O225 O 0.46401 1.01784 1.08993
 O226 O 0.55788 1.02425 0.92633
 O227 O 0.46520 1.06150 0.96885
 O228 O 0.58582 1.03535 1.03454
 Co229 Co 0.51516 0.98962 0.93263
 Co230 Co 0.51166 0.99121 1.07491
 Co231 Co 0.57547 0.98525 1.02073
 Co232 Co 0.45367 1.02016 1.00230
 O233 O 0.51308 0.99608 1.00362
 C234 C 0.46709 1.05937 0.92941
 C235 C 0.57151 1.05012 1.06755
 C236 C 0.59505 1.01932 0.94117
 C237 C 0.45819 1.05078 1.07620
 O238 O 0.04271 0.46030 0.05465
 O239 O 0.03227 0.52881 -0.07809
 O240 O 0.00362 0.41159 -0.03875
 O241 O 0.01289 0.56989 0.01166
 O242 O 0.04344 0.45599 -0.06519
 O243 O 0.03801 0.53017 0.06059
 O244 O 0.00850 0.56917 -0.02933
 O245 O 0.00163 0.41396 0.03681
 C246 C 0.03734 0.42529 0.04976
 C247 C 0.03135 0.56190 -0.06205
 C248 C 0.03728 0.42117 -0.05617
 C249 C 0.03714 0.56322 0.04455
 O250 O -0.04491 0.52669 0.07488
 O251 O -0.03436 0.44570 -0.09449
 O252 O -0.07789 0.44897 0.02820
 O253 O -0.05442 0.56452 -0.05349
 O254 O -0.04796 0.51584 -0.09689
 O255 O -0.03565 0.45508 0.08073
 O256 O -0.05715 0.57772 0.02960
 O257 O -0.07681 0.44475 -0.04525
 Co258 Co -0.00130 0.49239 0.06035
 Co259 Co -0.00233 0.48684 -0.07680
 Co260 Co -0.03581 0.43396 -0.00499
 Co261 Co -0.03480 0.54202 -0.00229
 O262 O -0.01413 0.48912 -0.00880
 C263 C -0.06034 0.56071 0.06741
 C264 C -0.07032 0.43816 -0.08305
 C265 C -0.07178 0.44736 0.06742
 C266 C -0.06157 0.54911 -0.08926
 O267 O 1.09544 0.03616 0.46652
 O268 O 0.92353 0.02363 0.53256
 O269 O 0.98522 0.05521 0.43087
 O270 O 1.04401 0.06686 0.55541
 O271 O 0.92888 0.03497 0.45520
 O272 O 1.09706 0.03050 0.54792
 O273 O 0.97195 0.06300 0.54021
 O274 O 1.05142 0.02439 0.41175
 C275 C 1.08254 0.04199 0.42789
 C276 C 0.93427 0.05689 0.54152
 C277 C 0.94797 0.06143 0.43698
 C278 C 1.08264 0.06228 0.55857
 O279 O 1.08115 -0.04208 0.54516
 O280 O 0.95251 -0.03935 0.44500
 O281 O 1.02633 -0.04369 0.42945
 O282 O 0.97072 -0.01025 0.57946
 O283 O 0.95459 -0.04715 0.52578
 O284 O 1.08705 -0.03809 0.46204
 O285 O 1.04622 -0.00627 0.58989
 O286 O 0.97328 -0.00678 0.38769
 Co287 Co 1.08284 -0.00283 0.50472
 Co288 Co 0.94668 -0.00572 0.49039
 Co289 Co 1.00430 0.00568 0.43525
 Co290 Co 1.00806 0.02675 0.56131
 O291 O 1.01425 0.00683 0.49978
 C292 C 1.06731 -0.03638 0.58187
 C293 C 0.94863 -0.03309 0.40404
 C294 C 1.06461 -0.05230 0.43260
 C295 C 0.95772 -0.04225 0.56572
 C296 C 1.10929 0.05794 0.35735
 C297 C 1.12853 0.08163 0.32824
 C298 C 1.14280 0.11834 0.33979
 C299 C 1.13888 0.13020 0.38328
 C300 C 1.11821 0.10596 0.41293
 C301 C 1.10419 0.06919 0.39976
 C302 C 1.11181 0.11977 0.45458
 N303 N 1.12831 0.15383 0.46686
 N304 N 1.15072 0.17499 0.44037
 C305 C 1.15691 0.16423 0.39930
 H306 H 1.09792 0.03037 0.34630
 H307 H 1.13013 0.07141 0.29557
 H308 H 1.09369 0.10418 0.47750
 H309 H 1.17706 0.18183 0.38038
 C310 C 0.88419 -0.06957 0.38902
 C311 C 0.86047 -0.09717 0.36751
 C312 C 0.87637 -0.11674 0.33260
 C313 C 0.91638 -0.10674 0.31767
 C314 C 0.94127 -0.07934 0.34042
 C315 C 0.92470 -0.06046 0.37654
 C316 C 0.98221 -0.07291 0.32662
 N317 N 0.99585 -0.09045 0.29101
 N318 N 0.97154 -0.11428 0.26830
 C319 C 0.93231 -0.12293 0.28030
 H320 H 0.87078 -0.05557 0.41619
 H321 H 0.82980 -0.10410 0.37913
 H322 H 1.00403 -0.05486 0.34381
 H323 H 0.91386 -0.14190 0.26007
 C324 C 0.87179 0.07185 0.58298
 C325 C 0.85305 0.09437 0.61362
 C326 C 0.86875 0.13080 0.62425
 C327 C 0.90133 0.14647 0.59966
 C328 C 0.91827 0.12439 0.56624
 C329 C 0.90621 0.08546 0.56107
 C330 C 0.94792 0.14166 0.53991
 N331 N 0.96225 0.17731 0.54889
 N332 N 0.94896 0.19677 0.58239
 C333 C 0.91940 0.18250 0.60825
 H334 H 0.86132 0.04253 0.57896
 H335 H 0.82760 0.08209 0.63118
 H336 H 0.95943 0.12740 0.51195
 H337 H 0.91120 0.19940 0.63543
 C338 C 1.10485 -0.05037 0.65096
 C339 C 1.11434 -0.07352 0.68702
 C340 C 1.09645 -0.11003 0.69152
 C341 C 1.06755 -0.12289 0.65882
 C342 C 1.05985 -0.10009 0.62089
 C343 C 1.07832 -0.06341 0.61749
 C344 C 1.03255 -0.11422 0.58822
 N345 N 1.01262 -0.14800 0.59422
 N346 N 1.01815 -0.16849 0.63064
 C347 C 1.04467 -0.15703 0.66318
 H348 H 1.11873 -0.02210 0.64892
 H349 H 1.13645 -0.06283 0.71131
 H350 H 1.02640 -0.09849 0.55826
 H351 H 1.04660 -0.17423 0.69244
 C352 C 0.39853 1.06572 1.12103
 C353 C 0.36424 1.08864 1.13026
 C354 C 0.35858 1.12604 1.11238
 C355 C 0.38998 1.14039 1.08502
 C356 C 0.42684 1.11800 1.07895
 C357 C 0.42938 1.07934 1.09438
 C358 C 0.45963 1.13482 1.05645
 N359 N 0.45383 1.16973 1.03704
 N360 N 0.41736 1.18864 1.03815
 C361 C 0.38509 1.17489 1.06072
 H362 H 0.39996 1.03643 1.13356
 H363 H 0.34223 1.07645 1.15210
 H364 H 0.48991 1.12077 1.05440
 H365 H 0.35561 1.19037 1.05768
 C366 C 0.36644 0.94824 0.90810
 C367 C 0.33062 0.92615 0.90254
 C368 C 0.32805 0.88883 0.92079
 C369 C 0.36309 0.87493 0.94719
 C370 C 0.40091 0.89651 0.94987
 C371 C 0.40202 0.93377 0.93079
 C372 C 0.43574 0.88088 0.97381
 N373 N 0.43203 0.84741 0.99614
 N374 N 0.39568 0.82899 0.99689
 C375 C 0.36104 0.84194 0.97397
 H376 H 0.36648 0.97703 0.89417
 H377 H 0.30529 0.93863 0.88250
 H378 H 0.46564 0.89518 0.97573
 H379 H 0.33194 0.82730 0.97885
 C380 C 0.59246 0.90362 1.13939
 C381 C 0.61128 0.87492 1.16515
 C382 C 0.61744 0.83753 1.14962
 C383 C 0.59714 0.82821 1.10925
 C384 C 0.57846 0.85799 1.08243
 C385 C 0.57845 0.89648 1.09702
 C386 C 0.55875 0.84776 1.04287
 N387 N 0.55699 0.81034 1.03147
 N388 N 0.57297 0.78239 1.05718
 C389 C 0.59236 0.78996 1.09578
 H390 H 0.59127 0.93241 1.15220
 H391 H 0.62399 0.88376 1.19617
 H392 H 0.54303 0.86868 1.02165
 H393 H 0.60196 0.76584 1.11633
 C394 C 0.62491 1.08183 0.92191
 C395 C 0.65749 1.10503 0.90885
 C396 C 0.69555 1.08893 0.89580
 C397 C 0.70158 1.04821 0.89971
 C398 C 0.66782 1.02462 0.91187
 C399 C 0.62940 1.04177 0.92333
 C400 C 0.67372 0.98441 0.91220
 N401 N 0.71196 0.96909 0.90463
 N402 N 0.74466 0.99126 0.89689
 C403 C 0.74094 1.03014 0.89468
 H404 H 0.59593 1.09535 0.93133
 H405 H 0.65174 1.13578 0.90691
 H406 H 0.64840 0.96497 0.91827
 H407 H 0.76919 1.04639 0.89053
 C408 C 0.05726 0.36431 0.08715
 C409 C 0.08609 0.34077 0.11013
 C410 C 0.12894 0.34979 0.11308
 C411 C 0.14310 0.38276 0.09059
 C412 C 0.11380 0.40596 0.06570
 C413 C 0.07024 0.39766 0.06596
 C414 C 0.12923 0.43679 0.04130
 N415 N 0.17068 0.44525 0.04405
 N416 N 0.19772 0.42502 0.06950
 C417 C 0.18536 0.39430 0.09303
 H418 H 0.02423 0.35720 0.08757
 H419 H 0.07455 0.31542 0.12633
 H420 H 0.10898 0.45389 0.01953
 H421 H 0.20869 0.37973 0.11375
 C422 C -0.08510 0.39468 -0.14411
 C423 C -0.10965 0.36739 -0.16537
 C424 C -0.15109 0.36091 -0.15398
 C425 C -0.16937 0.38520 -0.12347
 C426 C -0.14438 0.41290 -0.10137
 C427 C -0.10098 0.41628 -0.11042
 C428 C -0.16418 0.43629 -0.07129
 N429 N -0.20562 0.43214 -0.06424
 N430 N -0.22889 0.40636 -0.08521
 C431 C -0.21227 0.38291 -0.11465
 H432 H -0.05246 0.39699 -0.15224
 H433 H -0.09515 0.34946 -0.18895
 H434 H -0.14796 0.45867 -0.05402
 H435 H -0.23302 0.36329 -0.13152
 C436 C 0.09717 0.58080 -0.09709
 C437 C 0.12500 0.60800 -0.11228
 C438 C 0.11629 0.64732 -0.10915
 C439 C 0.07878 0.65971 -0.09034
 C440 C 0.05017 0.63203 -0.07513
 C441 C 0.05975 0.59213 -0.07824
 C442 C 0.01231 0.64387 -0.05729
 N443 N 0.00500 0.68332 -0.05497
 N444 N 0.03279 0.71007 -0.06918
 C445 C 0.06905 0.69902 -0.08658
 H446 H 0.10516 0.55059 -0.09985
 H447 H 0.15344 0.59828 -0.12696
 H448 H -0.00632 0.66812 -0.04913
 H449 H 0.08994 0.72115 -0.09734
 C450 C -0.06788 0.61574 0.11498
 C451 C -0.09079 0.63870 0.14205
 C452 C -0.13081 0.62773 0.15429
 C453 C -0.14693 0.59177 0.14115
 C454 C -0.12328 0.56814 0.11402
 C455 C -0.08386 0.58076 0.10028
 C456 C -0.14062 0.53321 0.10045
 N457 N -0.17866 0.52231 0.11412
 N458 N -0.20056 0.54415 0.14022
 C459 C -0.18604 0.57851 0.15417
 H460 H -0.03786 0.62586 0.10445
 H461 H -0.07808 0.66618 0.15172
 H462 H -0.12427 0.51461 0.07913
 H463 H -0.20502 0.59495 0.17555
 C464 C 1.08971 0.12192 0.60142
 C465 C 1.11139 0.14444 0.63148
 C466 C 1.15323 0.13586 0.64477
 C467 C 1.17403 0.10475 0.62492
 C468 C 1.15349 0.08535 0.59017
 C469 C 1.10963 0.09114 0.58147
 C470 C 1.17781 0.06049 0.56575
 N471 N 1.21759 0.05091 0.57939
 N472 N 1.23468 0.06478 0.61569
 C473 C 1.21412 0.09100 0.63915
 H474 H 1.05661 0.12806 0.59479
 H475 H 1.09466 0.16819 0.64536
 H476 H 1.16622 0.04979 0.53522
 H477 H 1.22892 0.09962 0.66924
 C478 C 0.90981 -0.09692 0.57764
 C479 C 0.88656 -0.12110 0.60346
 C480 C 0.89155 -0.12037 0.64831
 C481 C 0.92234 -0.09644 0.66761
 C482 C 0.94666 -0.07195 0.64147
 C483 C 0.93915 -0.07108 0.59568
 C484 C 0.97802 -0.04996 0.66253
 N485 N 0.98379 -0.05188 0.70604
 N486 N 0.96046 -0.07430 0.73029
 C487 C 0.92997 -0.09663 0.71259
 H488 H 0.90345 -0.09754 0.54310
 H489 H 0.86351 -0.13979 0.58827
 H490 H 0.99899 -0.03207 0.64536
 H491 H 0.91229 -0.11464 0.73382
 C492 C 1.06474 -0.10890 0.38378
 C493 C 1.07996 -0.12906 0.34881
 C494 C 1.11435 -0.11559 0.32627
 C495 C 1.13306 -0.08046 0.33904
 C496 C 1.12067 -0.06221 0.37724
 C497 C 1.08474 -0.07569 0.39893
 C498 C 1.14406 -0.03004 0.39104
 N499 N 1.17433 -0.01537 0.36642
 N500 N 1.18278 -0.03025 0.32857
 C501 C 1.16279 -0.06184 0.31378
 H502 H 1.03713 -0.11939 0.39924
 H503 H 1.06456 -0.15537 0.33917
 H504 H 1.13920 -0.01591 0.42082
 H505 H 1.16964 -0.07122 0.28186
 C506 C 0.88167 0.09823 0.42248
 C507 C 0.85708 0.12504 0.39880
 C508 C 0.87489 0.15046 0.36942
 C509 C 0.91935 0.14996 0.36588
 C510 C 0.94484 0.12497 0.39314
 C511 C 0.92543 0.09644 0.41892
 C512 C 0.98884 0.12931 0.39277
 N513 N 1.00588 0.15330 0.36366
 N514 N 0.98205 0.17342 0.33500
 C515 C 0.93953 0.17233 0.33485
 H516 H 0.86589 0.07775 0.44269
 H517 H 0.82341 0.12503 0.40257
 H518 H 1.01012 0.11505 0.41590
 H519 H 0.92234 0.18822 0.30970
 C520 C 0.10964 0.39904 -0.07198
 C521 C 0.13845 0.37197 -0.08643
 C522 C 0.12535 0.33527 -0.09864
 C523 C 0.08289 0.32493 -0.09372
 C524 C 0.05288 0.35310 -0.08236
 C525 C 0.06666 0.39060 -0.07031
 C526 C 0.01006 0.34259 -0.08531
 N527 N -0.00082 0.30581 -0.09372
 N528 N 0.02790 0.27870 -0.10021
 C529 C 0.06931 0.28697 -0.10044
 H530 H 0.12092 0.42721 -0.06301
 H531 H 0.17085 0.38027 -0.08976
 H532 H -0.01534 0.36287 -0.08241
 H533 H 0.09125 0.26371 -0.10564
 C534 C -0.08659 0.41171 0.13426
 C535 C -0.11157 0.38826 0.15891
 C536 C -0.15373 0.38218 0.14665
 C537 C -0.17204 0.40341 0.11107
 C538 C -0.14642 0.42686 0.08525
 C539 C -0.10265 0.42963 0.09611
 C540 C -0.16594 0.44705 0.04995
 N541 N -0.20793 0.44420 0.04171
 N542 N -0.23190 0.42273 0.06634
 C543 C -0.21549 0.40246 0.10081
 H544 H -0.05356 0.41369 0.14378
 H545 H -0.09693 0.37281 0.18626
 H546 H -0.14896 0.46619 0.02955
 H547 H -0.23678 0.38662 0.12043
 C548 C -0.06885 0.60532 -0.13796
 C549 C -0.09251 0.63045 -0.16484
 C550 C -0.13446 0.62247 -0.17646
 C551 C -0.15189 0.58713 -0.16318
 C552 C -0.12749 0.56124 -0.13637
 C553 C -0.08615 0.57116 -0.12265
 C554 C -0.14586 0.52677 -0.12312
 N555 N -0.18586 0.51862 -0.13639
 N556 N -0.20869 0.54276 -0.16185
 C557 C -0.19312 0.57673 -0.17567
 H558 H -0.03714 0.61315 -0.12796
 H559 H -0.07869 0.65741 -0.17453
 H560 H -0.12865 0.50628 -0.10259
 H561 H -0.21291 0.59510 -0.19659
 C562 C 0.08668 0.61719 0.03505
 C563 C 0.10714 0.65000 0.04988
 C564 C 0.10695 0.65988 0.09352
 C565 C 0.08844 0.63431 0.12309
 C566 C 0.06456 0.60290 0.10745
 C567 C 0.06404 0.59401 0.06287
 C568 C 0.04074 0.58244 0.13712
 N569 N 0.04475 0.58986 0.17982
 N570 N 0.07064 0.61673 0.19488
 C571 C 0.09277 0.63905 0.16804
 H572 H 0.08762 0.61048 0.00136
 H573 H 0.12181 0.66855 0.02668
 H574 H 0.01829 0.56133 0.12690
 H575 H 0.11397 0.65982 0.18219
 C576 C 0.42084 1.08263 0.86829
 C577 C 0.39622 1.11149 0.84782
 C578 C 0.39978 1.15000 0.86029
 C579 C 0.43155 1.15990 0.89132
 C580 C 0.45684 1.13054 0.91189
 C581 C 0.44984 1.09141 0.90179
 C582 C 0.48888 1.14142 0.94157
 N583 N 0.49490 1.17913 0.95015
 N584 N 0.47092 1.20666 0.93117
 C585 C 0.43945 1.19835 0.90211
 H586 H 0.41509 1.05296 0.85990
 H587 H 0.37236 1.10327 0.82391
 H588 H 0.50974 1.12036 0.95723
 H589 H 0.42159 1.22193 0.88705
 C590 C 0.37013 0.92837 1.05564
 C591 C 0.33791 0.90550 1.07016
 C592 C 0.34664 0.87400 1.09760
 C593 C 0.38892 0.86339 1.10783
 C594 C 0.42223 0.88572 1.09163
 C595 C 0.41260 0.92025 1.06727
 C596 C 0.46358 0.87174 1.09982
 N597 N 0.47084 0.83936 1.12405
 N598 N 0.43964 0.81950 1.14041
 C599 C 0.39896 0.83032 1.13301
 H600 H 0.36132 0.95344 1.03603
 H601 H 0.30566 0.91342 1.06123
 H602 H 0.49031 0.88477 1.08603
 H603 H 0.37485 0.81259 1.14631
 C604 C 0.60913 1.07674 1.12997
 C605 C 0.63176 1.10502 1.15131
 C606 C 0.63755 1.14132 1.13216
 C607 C 0.61818 1.14921 1.09064
 C608 C 0.59705 1.11934 1.06793
 C609 C 0.59255 1.08300 1.08805
 C610 C 0.57999 1.12722 1.02629
 N611 N 0.58228 1.16319 1.00914
 N612 N 0.60017 1.19172 1.03109
 C613 C 0.61780 1.18608 1.07129
 H614 H 0.60593 1.04898 1.14584
 H615 H 0.64591 1.09769 1.18271
 H616 H 0.56441 1.10523 1.00756
 H617 H 0.63002 1.21077 1.08805
 C618 C 0.58746 0.88662 0.89207
 C619 C 0.61396 0.86604 0.86610
 C620 C 0.65368 0.85378 0.88161
 C621 C 0.66642 0.86110 0.92500
 C622 C 0.63924 0.88182 0.95208
 C623 C 0.59971 0.89643 0.93460
 C624 C 0.65384 0.88783 0.99498
 N625 N 0.69248 0.87511 1.00902
 N626 N 0.71808 0.85688 0.98324
 C627 C 0.70649 0.84961 0.94177
 H628 H 0.55761 0.89665 0.87776
 H629 H 0.60365 0.86033 0.83312
 H630 H 0.63545 0.90161 1.01829
 H631 H 0.72903 0.83523 0.92237
   
