data_POSCAR
  _audit_creation_date              2014-09-24
  _audit_creation_method            'ToBaCCo'
  _symmetry_space_group_name_H-M    'P1'
  _symmetry_Int_Tables_number       1
  _symmetry_cell_setting            triclinic
  loop_
  _symmetry_equiv_pos_as_xyz
 x,y,z
_cell_length_a 35.6197
_cell_length_b 35.8757
_cell_length_c 36.2734
_cell_angle_alpha 90.046900
_cell_angle_beta 89.961500
_cell_angle_gamma 90.026300
loop_
  _atom_site_label
  _atom_site_type_symbol
  _atom_site_fract_x
  _atom_site_fract_y
  _atom_site_fract_z
C1 C 0.24161 0.38487 -0.00643
 C2 C 0.25060 0.36835 0.02751
 C3 C 0.27352 0.33657 0.02796
 C4 C 0.29206 0.32418 -0.00399
 C5 C 0.28425 0.34264 -0.03742
 C6 C 0.25790 0.37194 -0.03954
 C7 C 0.32152 0.29410 -0.00210
 C8 C 0.33226 0.27422 -0.03390
 C9 C 0.36376 0.25051 -0.03404
 C10 C 0.38128 0.24248 -0.00018
 C11 C 0.36999 0.26030 0.03243
 C12 C 0.34099 0.28678 0.03093
 H13 H 0.22366 0.40911 -0.00652
 H14 H 0.27741 0.32207 0.05372
 H15 H 0.29920 0.33435 -0.06178
 H16 H 0.31600 0.27728 -0.05874
 H17 H 0.40516 0.22400 0.00080
 H18 H 0.33403 0.30197 0.05561
 C19 C 0.75865 0.61490 -0.00358
 C20 C 0.74155 0.62584 0.02955
 C21 C 0.71629 0.65593 0.02933
 C22 C 0.70912 0.67635 -0.00307
 C23 C 0.72826 0.66586 -0.03549
 C24 C 0.75116 0.63402 -0.03653
 C25 C 0.67939 0.70613 -0.00380
 C26 C 0.65955 0.71376 -0.03648
 C27 C 0.63019 0.74008 -0.03766
 C28 C 0.61905 0.75713 -0.00438
 C29 C 0.63702 0.74851 0.02902
 C30 C 0.66849 0.72492 0.02852
 H31 H 0.77610 0.59024 -0.00395
 H32 H 0.70169 0.66285 0.05447
 H33 H 0.72490 0.68195 -0.06040
 H34 H 0.66691 0.69863 -0.06098
 H35 H 0.59497 0.77539 -0.00391
 H36 H 0.68403 0.72073 0.05370
 C37 C 0.75849 0.38322 1.00358
 C38 C 0.74127 0.37261 0.97041
 C39 C 0.71522 0.34311 0.97063
 C40 C 0.70759 0.32280 1.00303
 C41 C 0.72730 0.33263 1.03530
 C42 C 0.75063 0.36414 1.03647
 C43 C 0.67703 0.29374 1.00408
 C44 C 0.65815 0.28585 1.03732
 C45 C 0.62878 0.25962 1.03921
 C46 C 0.61630 0.24315 1.00609
 C47 C 0.63302 0.25221 0.97217
 C48 C 0.66463 0.27569 0.97183
 H49 H 0.77640 0.40756 1.00403
 H50 H 0.70046 0.33657 0.94553
 H51 H 0.72402 0.31634 1.06008
 H52 H 0.66626 0.30063 1.06179
 H53 H 0.59216 0.22495 1.00619
 H54 H 0.67914 0.28018 0.94609
 C55 C 0.24317 0.61627 1.00238
 C56 C 0.26032 0.62764 0.96945
 C57 C 0.28580 0.65747 0.97017
 C58 C 0.29320 0.67743 1.00284
 C59 C 0.27434 0.66632 1.03523
 C60 C 0.25097 0.63469 1.03568
 C61 C 0.32270 0.70754 1.00342
 C62 C 0.34255 0.71592 1.03596
 C63 C 0.37204 0.74223 1.03651
 C64 C 0.38341 0.75821 1.00274
 C65 C 0.36526 0.74889 0.96960
 C66 C 0.33345 0.72588 0.97081
 H67 H 0.22540 0.59183 1.00229
 H68 H 0.30034 0.66456 0.94510
 H69 H 0.27807 0.68182 1.06047
 H70 H 0.33511 0.70147 1.06083
 H71 H 0.40772 0.77618 1.00174
 H72 H 0.31762 0.72171 0.94580
 C73 C 0.00111 0.24646 0.38652
 C74 C 0.03489 0.26257 0.37454
 C75 C 0.03422 0.28777 0.34490
 C76 C 0.00070 0.29572 0.32584
 C77 C -0.03237 0.27757 0.33732
 C78 C -0.03288 0.25476 0.36876
 C79 C -0.00027 0.32481 0.29602
 C80 C -0.03323 0.34542 0.28916
 C81 C -0.03440 0.37389 0.26237
 C82 C -0.00081 0.38330 0.24414
 C83 C 0.03288 0.36460 0.25193
 C84 C 0.03228 0.33406 0.27605
 H85 H 0.00109 0.22902 0.41081
 H86 H 0.05990 0.30163 0.33718
 H87 H -0.05812 0.28157 0.32216
 H88 H -0.05792 0.33932 0.30510
 H89 H -0.00027 0.40672 0.22551
 H90 H 0.05759 0.31796 0.27968
 C91 C -0.00157 0.75485 0.61447
 C92 C 0.03260 0.73923 0.62580
 C93 C 0.03276 0.71380 0.65524
 C94 C -0.00038 0.70511 0.67471
 C95 C -0.03395 0.72268 0.66375
 C96 C -0.03518 0.74586 0.63257
 C97 C -0.00035 0.67582 0.70437
 C98 C -0.03280 0.65457 0.71164
 C99 C -0.03305 0.62585 0.73821
 C100 C 0.00098 0.61689 0.75585
 C101 C 0.03424 0.63627 0.74758
 C102 C 0.03267 0.66701 0.72374
 H103 H -0.00216 0.77246 0.59032
 H104 H 0.05879 0.70035 0.66246
 H105 H -0.05951 0.71803 0.67908
 H106 H -0.05784 0.66042 0.69621
 H107 H 0.00220 0.59335 0.77430
 H108 H 0.05761 0.68364 0.71984
 C109 C 0.99838 0.75466 0.38595
 C110 C 0.96449 0.73782 0.37521
 C111 C 0.96484 0.71152 0.34654
 C112 C 0.99797 0.70324 0.32701
 C113 C 1.03123 0.72170 0.33744
 C114 C 1.03247 0.74567 0.36827
 C115 C 0.99821 0.67394 0.29727
 C116 C 1.03105 0.65350 0.28939
 C117 C 1.03170 0.62527 0.26226
 C118 C 0.99763 0.61575 0.24490
 C119 C 0.96403 0.63425 0.25378
 C120 C 0.96517 0.66463 0.27812
 H121 H 0.99814 0.77326 0.40936
 H122 H 0.93913 0.69728 0.33971
 H123 H 1.05624 0.71750 0.32124
 H124 H 1.05610 0.65965 0.30473
 H125 H 0.99671 0.59251 0.22602
 H126 H 0.93991 0.68065 0.28241
 C127 C 1.00193 0.24612 0.61422
 C128 C 0.96794 0.26194 0.62611
 C129 C 0.96834 0.28730 0.65564
 C130 C 1.00171 0.29572 0.67475
 C131 C 1.03501 0.27792 0.66336
 C132 C 1.03584 0.25490 0.63200
 C133 C 1.00222 0.32498 0.70451
 C134 C 1.03490 0.34597 0.71150
 C135 C 1.03565 0.37467 0.73813
 C136 C 1.00179 0.38393 0.75609
 C137 C 0.96829 0.36478 0.74810
 C138 C 0.96945 0.33402 0.72422
 H139 H 1.00214 0.22848 0.59004
 H140 H 0.94250 0.30089 0.66328
 H141 H 1.06068 0.28228 0.67856
 H142 H 1.05974 0.33990 0.69580
 H143 H 1.00090 0.40747 0.77463
 H144 H 0.94437 0.31755 0.72059
 C145 C 0.38274 -0.00057 0.24043
 C146 C 0.36388 0.03276 0.24896
 C147 C 0.33282 0.03158 0.27260
 C148 C 0.32390 -0.00069 0.29262
 C149 C 0.34444 -0.03347 0.28499
 C150 C 0.37292 -0.03439 0.25778
 C151 C 0.29528 0.00078 0.32318
 C152 C 0.27741 -0.03180 0.33580
 C153 C 0.25458 -0.03142 0.36740
 C154 C 0.24607 0.00276 0.38427
 C155 C 0.26203 0.03605 0.37133
 C156 C 0.28732 0.03457 0.34161
 H157 H 0.40637 0.00040 0.22180
 H158 H 0.31618 0.05645 0.27608
 H159 H 0.33836 -0.05812 0.30069
 H160 H 0.28152 -0.05782 0.32142
 H161 H 0.22859 0.00325 0.40865
 H162 H 0.30117 0.05992 0.33332
 C163 C 0.61641 -0.00385 0.75855
 C164 C 0.63374 0.03033 0.75022
 C165 C 0.66466 0.03076 0.72624
 C166 C 0.67537 -0.00123 0.70656
 C167 C 0.65594 -0.03477 0.71376
 C168 C 0.62756 -0.03708 0.74086
 C169 C 0.70494 0.00069 0.67691
 C170 C 0.72358 -0.03181 0.66529
 C171 C 0.74606 -0.03208 0.63358
 C172 C 0.75452 0.00177 0.61611
 C173 C 0.73864 0.03531 0.62861
 C174 C 0.71301 0.03428 0.65818
 H175 H 0.59292 -0.00404 0.77735
 H176 H 0.67993 0.05646 0.72253
 H177 H 0.66277 -0.05904 0.69779
 H178 H 0.72009 -0.05748 0.68040
 H179 H 0.77192 0.00181 0.59167
 H180 H 0.69903 0.05969 0.66610
 C181 C 0.38310 0.99701 0.75625
 C182 C 0.37052 0.96377 0.74007
 C183 C 0.34126 0.96505 0.71421
 C184 C 0.32299 0.99871 0.70547
 C185 C 0.33501 1.03140 0.72377
 C186 C 0.36626 1.03115 0.74746
 C187 C 0.29388 1.00003 0.67528
 C188 C 0.28720 1.03329 0.65580
 C189 C 0.26151 1.03506 0.62629
 C190 C 0.24432 1.00172 0.61448
 C191 C 0.25208 0.96769 0.63201
 C192 C 0.27479 0.96766 0.66366
 H193 H 0.40729 0.99650 0.77421
 H194 H 0.33339 0.93965 0.70043
 H195 H 0.32058 1.05745 0.71941
 H196 H 0.30242 1.05787 0.66357
 H197 H 0.22667 1.00168 0.59028
 H198 H 0.27787 0.94193 0.67871
 C199 C 0.61793 1.00380 0.24227
 C200 C 0.63673 0.97030 0.25013
 C201 C 0.66745 0.97085 0.27426
 C202 C 0.67636 1.00283 0.29475
 C203 C 0.65569 1.03565 0.28790
 C204 C 0.62738 1.03712 0.26067
 C205 C 0.70524 1.00130 0.32497
 C206 C 0.72322 1.03396 0.33712
 C207 C 0.74567 1.03410 0.36886
 C208 C 0.75413 1.00017 0.38620
 C209 C 0.73839 0.96665 0.37350
 C210 C 0.71323 0.96768 0.34361
 H211 H 0.59453 1.00332 0.22340
 H212 H 0.68391 0.94586 0.27766
 H213 H 0.66158 1.05996 0.30423
 H214 H 0.71932 1.05975 0.32229
 H215 H 0.77138 1.00003 0.41072
 H216 H 0.69949 0.94223 0.33537
 O217 O 0.87792 0.82688 0.46529
 O218 O 0.82827 0.88164 0.53645
 O219 O 0.87879 0.82950 0.53700
 O220 O 0.82570 0.87953 0.46477
 O221 O 0.78176 0.83615 0.46710
 O222 O 0.83396 0.78696 0.53943
 O223 O 0.78428 0.83823 0.53873
 O224 O 0.83343 0.78407 0.46797
 Cu225 Cu 0.85718 0.85875 0.50028
 Cu226 Cu 0.80386 0.80707 0.50315
 C227 C 0.86443 0.79573 0.45517
 C228 C 0.79809 0.86875 0.55006
 C229 C 0.86497 0.79998 0.55083
 C230 C 0.79429 0.86657 0.45419
 O231 O 0.17672 0.12111 0.53382
 O232 O 0.12322 0.17540 0.46483
 O233 O 0.17534 0.12312 0.46248
 O234 O 0.12303 0.17107 0.53651
 O235 O 0.16690 0.21459 0.53828
 O236 O 0.21848 0.16735 0.46388
 O237 O 0.16690 0.21908 0.46665
 O238 O 0.21962 0.16562 0.53497
 Cu239 Cu 0.14512 0.14327 0.49911
 Cu240 Cu 0.19719 0.19615 0.50089
 C241 C 0.20746 0.13433 0.54594
 C242 C 0.13597 0.20678 0.45440
 C243 C 0.20620 0.13669 0.45118
 C244 C 0.13631 0.20090 0.55013
 O245 O 0.16811 0.88361 0.46340
 O246 O 0.11696 0.82822 0.53356
 O247 O 0.16614 0.88311 0.53568
 O248 O 0.11581 0.83246 0.46207
 O249 O 0.16153 0.79089 0.45998
 O250 O 0.21016 0.83978 0.53536
 O251 O 0.16182 0.78578 0.53140
 O252 O 0.21287 0.84099 0.46331
 Cu253 Cu 0.13731 0.86125 0.49896
 Cu254 Cu 0.19113 0.81024 0.49755
 C255 C 0.19912 0.87111 0.45113
 C256 C 0.13067 0.79720 0.54389
 C257 C 0.19657 0.86985 0.54823
 C258 C 0.13034 0.80330 0.44829
 O259 O 0.88008 0.17342 0.53657
 O260 O 0.82934 0.11946 0.46552
 O261 O 0.88097 0.17072 0.46493
 O262 O 0.82708 0.12144 0.53728
 O263 O 0.78375 0.16539 0.53511
 O264 O 0.83670 0.21380 0.46272
 O265 O 0.78596 0.16343 0.46350
 O266 O 0.83613 0.21675 0.53417
 Cu267 Cu 0.85879 0.14181 0.50164
 Cu268 Cu 0.80623 0.19419 0.49904
 C269 C 0.86703 0.20471 0.54679
 C270 C 0.79926 0.13274 0.45209
 C271 C 0.86754 0.20045 0.45123
 C272 C 0.79587 0.13480 0.54797
 O273 O 0.46292 0.87765 0.82629
 O274 O 0.53511 0.82585 0.87879
 O275 O 0.53563 0.87817 0.82754
 O276 O 0.46209 0.83019 0.88124
 O277 O 0.45990 0.78589 0.83895
 O278 O 0.53438 0.83296 0.78616
 O279 O 0.53302 0.78149 0.83656
 O280 O 0.46206 0.83248 0.78483
 Cu281 Cu 0.49918 0.85745 0.85776
 Cu282 Cu 0.49731 0.80360 0.80767
 C283 C 0.45065 0.86380 0.79632
 C284 C 0.54616 0.79457 0.86629
 C285 C 0.54706 0.86405 0.79746
 C286 C 0.44824 0.80005 0.86899
 O287 O 0.46045 0.12053 0.16779
 O288 O 0.53602 0.17299 0.12210
 O289 O 0.53338 0.12146 0.17403
 O290 O 0.46339 0.17489 0.11971
 O291 O 0.46208 0.21763 0.16361
 O292 O 0.53029 0.16451 0.21747
 O293 O 0.53432 0.21521 0.16647
 O294 O 0.45730 0.16406 0.21081
 Cu295 Cu 0.49866 0.14306 0.14154
 Cu296 Cu 0.49587 0.19444 0.19411
 C297 C 0.44575 0.13367 0.19686
 C298 C 0.54760 0.20326 0.13620
 C299 C 0.54353 0.13414 0.20525
 C300 C 0.45126 0.20567 0.13251
 O301 O 0.53689 0.11337 0.83713
 O302 O 0.46222 0.16422 0.88685
 O303 O 0.46343 0.11338 0.83527
 O304 O 0.53573 0.16503 0.88839
 O305 O 0.53583 0.20858 0.84539
 O306 O 0.46461 0.15741 0.79274
 O307 O 0.46234 0.20720 0.84323
 O308 O 0.53779 0.15783 0.79504
 Cu309 Cu 0.49956 0.13457 0.86628
 Cu310 Cu 0.50034 0.18716 0.81490
 C311 C 0.55017 0.12728 0.80770
 C312 C 0.44912 0.19397 0.87293
 C313 C 0.45149 0.12703 0.80512
 C314 C 0.54820 0.19559 0.87555
 O315 O 0.54047 0.88472 0.16534
 O316 O 0.46657 0.83089 0.11744
 O317 O 0.46732 0.88326 0.16929
 O318 O 0.53968 0.83341 0.11454
 O319 O 0.54251 0.79028 0.15791
 O320 O 0.47068 0.83932 0.21175
 O321 O 0.46963 0.78801 0.16099
 O322 O 0.54362 0.84062 0.20774
 Cu323 Cu 0.50288 0.86251 0.13730
 Cu324 Cu 0.50665 0.81024 0.18889
 C325 C 0.55499 0.87127 0.19441
 C326 C 0.45591 0.80002 0.13103
 C327 C 0.45706 0.86979 0.20012
 C328 C 0.55372 0.80357 0.12742
 O329 O 0.88433 0.53143 0.82593
 O330 O 0.82908 0.46490 0.88292
 O331 O 0.88281 0.45915 0.83334
 O332 O 0.83549 0.53718 0.87988
 O333 O 0.79171 0.53742 0.83676
 O334 O 0.83761 0.45743 0.79170
 O335 O 0.78474 0.46544 0.84038
 O336 O 0.83959 0.52943 0.78383
 Cu337 Cu 0.86242 0.49818 0.85978
 Cu338 Cu 0.80903 0.49728 0.80898
 C339 C 0.87094 0.54164 0.79499
 C340 C 0.79713 0.45427 0.87114
 C341 C 0.86833 0.44504 0.80463
 C342 C 0.80570 0.55067 0.86621
 O343 O 0.16573 0.46532 0.11414
 O344 O 0.11405 0.53347 0.17212
 O345 O 0.16392 0.53822 0.11850
 O346 O 0.11557 0.46116 0.16639
 O347 O 0.16152 0.45905 0.20725
 O348 O 0.20862 0.53696 0.16067
 O349 O 0.15974 0.53117 0.21320
 O350 O 0.21081 0.46426 0.15593
 Cu351 Cu 0.13526 0.49990 0.13852
 Cu352 Cu 0.18977 0.49783 0.18829
 C353 C 0.19692 0.45279 0.12580
 C354 C 0.12819 0.54358 0.20274
 C355 C 0.19446 0.55076 0.13164
 C356 C 0.13058 0.44685 0.19479
 O357 O 0.88207 0.46720 0.17543
 O358 O 0.82733 0.53329 0.11794
 O359 O 0.87991 0.53944 0.16839
 O360 O 0.83398 0.46111 0.12103
 O361 O 0.78964 0.46040 0.16366
 O362 O 0.83419 0.54061 0.20956
 O363 O 0.78236 0.53237 0.15989
 O364 O 0.83682 0.46856 0.21709
 Cu365 Cu 0.86039 0.50029 0.14150
 Cu366 Cu 0.80628 0.50059 0.19168
 C367 C 0.86842 0.45673 0.20618
 C368 C 0.79518 0.54370 0.12932
 C369 C 0.86494 0.55333 0.19699
 C370 C 0.80412 0.44733 0.13435
 O371 O 0.11984 0.46853 0.82491
 O372 O 0.17402 0.53661 0.88058
 O373 O 0.12087 0.54110 0.83081
 O374 O 0.17150 0.46473 0.87699
 O375 O 0.21450 0.46577 0.83306
 O376 O 0.16549 0.54376 0.78855
 O377 O 0.21784 0.53730 0.83742
 O378 O 0.16375 0.47129 0.78199
 Cu379 Cu 0.14198 0.50249 0.85759
 Cu380 Cu 0.19458 0.50465 0.80579
 C381 C 0.13282 0.45850 0.79377
 C382 C 0.20554 0.54796 0.86847
 C383 C 0.13485 0.55566 0.80204
 C384 C 0.20191 0.45270 0.86314
 N385 N 0.24630 0.40475 0.11969
 N386 N 0.25977 0.38201 0.09439
 C387 C 0.23992 0.38622 0.06297
 C388 C 0.21225 0.41304 0.06888
 C389 C 0.21752 0.42406 0.10520
 H390 H 0.19208 0.42394 0.04939
 H391 H 0.25722 0.40737 0.14629
 H392 H 0.28337 0.36527 0.09846
 N393 N 0.73804 0.58155 0.11843
 N394 N 0.72380 0.60299 0.09244
 C395 C 0.74818 0.60459 0.06400
 C396 C 0.77944 0.58296 0.07246
 C397 C 0.77179 0.56899 0.10726
 H398 H 0.80419 0.57812 0.05582
 H399 H 0.72454 0.57544 0.14328
 H400 H 0.69737 0.61542 0.09419
 N401 N 0.73976 0.41650 0.88124
 N402 N 0.72490 0.39524 0.90707
 C403 C 0.74872 0.39364 0.93593
 C404 C 0.78029 0.41508 0.92788
 C405 C 0.77337 0.42897 0.89290
 H406 H 0.80474 0.41994 0.94490
 H407 H 0.72672 0.42261 0.85617
 H408 H 0.69842 0.38297 0.90491
 N409 N 0.26251 0.58608 0.87918
 N410 N 0.27720 0.60666 0.90564
 C411 C 0.25325 0.60737 0.93449
 C412 C 0.22184 0.58608 0.92581
 C413 C 0.22894 0.57322 0.89047
 H414 H 0.19741 0.58059 0.94269
 H415 H 0.27569 0.58057 0.85402
 H416 H 0.30367 0.61902 0.90389
 N417 N 0.12719 0.26263 0.41499
 N418 N 0.10072 0.27752 0.39425
 C419 C 0.07062 0.25465 0.39407
 C420 C 0.07856 0.22367 0.41573
 C421 C 0.11468 0.22994 0.42841
 H422 H 0.06057 0.20017 0.42187
 H423 H 0.15312 0.27512 0.42030
 H424 H 0.10324 0.30348 0.38152
 N425 N 0.12399 0.74116 0.58344
 N426 N 0.09835 0.72573 0.60484
 C427 C 0.06779 0.74795 0.60567
 C428 C 0.07455 0.77904 0.58378
 C429 C 0.11044 0.77352 0.57024
 H430 H 0.05596 0.80216 0.57804
 H431 H 0.15007 0.72926 0.57757
 H432 H 0.10172 0.69987 0.61756
 N433 N 0.87241 0.73912 0.41650
 N434 N 0.89868 0.72363 0.39587
 C435 C 0.92889 0.74637 0.39490
 C436 C 0.92118 0.77789 0.41592
 C437 C 0.88513 0.77207 0.42907
 H438 H 0.93931 0.80145 0.42146
 H439 H 0.84653 0.72680 0.42242
 H440 H 0.89596 0.69734 0.38382
 N441 N 0.87541 0.26081 0.58608
 N442 N 0.90189 0.27613 0.60654
 C443 C 0.93220 0.25353 0.60671
 C444 C 0.92437 0.22230 0.58533
 C445 C 0.88808 0.22811 0.57284
 H446 H 0.94256 0.19895 0.57920
 H447 H 0.84937 0.27306 0.58076
 H448 H 0.89924 0.30220 0.61905
 N449 N 0.39363 0.12819 0.24177
 N450 N 0.37160 0.10183 0.25498
 C451 C 0.37873 0.06955 0.23703
 C452 C 0.40647 0.07609 0.21085
 C453 C 0.41522 0.11347 0.21511
 H454 H 0.42016 0.05623 0.19286
 H455 H 0.39468 0.15544 0.25188
 H456 H 0.35377 0.10585 0.27748
 N457 N 0.60039 0.12428 0.76055
 N458 N 0.62285 0.09907 0.74590
 C459 C 0.61756 0.06618 0.76326
 C460 C 0.59053 0.07108 0.79058
 C461 C 0.58030 0.10820 0.78759
 H462 H 0.57841 0.05037 0.80868
 H463 H 0.59814 0.15174 0.75126
 H464 H 0.63982 0.10426 0.72300
 N465 N 0.40932 0.87123 0.74192
 N466 N 0.38853 0.89750 0.72678
 C467 C 0.38925 0.92795 0.74868
 C468 C 0.41147 0.92044 0.77924
 C469 C 0.42364 0.88431 0.77371
 H470 H 0.41858 0.93876 0.80189
 H471 H 0.41428 0.84516 0.73005
 H472 H 0.37538 0.89458 0.70124
 N473 N 0.60693 0.87531 0.23945
 N474 N 0.62902 0.90111 0.25360
 C475 C 0.62198 0.93398 0.23680
 C476 C 0.59427 0.92842 0.21034
 C477 C 0.58538 0.89099 0.21333
 H478 H 0.58066 0.94887 0.19301
 H479 H 0.60583 0.84772 0.24858
 H480 H 0.64680 0.89626 0.27594
 N481 N 0.39442 0.23643 0.87292
 N482 N 0.36975 0.25139 0.89878
 C483 C 0.37900 0.23756 0.93229
 C484 C 0.40898 0.21280 0.92794
 C485 C 0.41783 0.21337 0.89078
 H486 H 0.42392 0.19744 0.94894
 H487 H 0.39484 0.24316 0.84491
 H488 H 0.35046 0.27231 0.89253
 N489 N 0.59258 0.74367 0.87057
 N490 N 0.61608 0.72837 0.89715
 C491 C 0.61157 0.74800 0.92875
 C492 C 0.58545 0.77641 0.92242
 C493 C 0.57445 0.77256 0.88595
 H494 H 0.57531 0.79722 0.94156
 H495 H 0.58967 0.73368 0.84366
 H496 H 0.63230 0.70468 0.89238
 N497 N 0.40940 0.74883 0.12834
 N498 N 0.38598 0.73263 0.10212
 C499 C 0.39057 0.75121 0.06994
 C500 C 0.41663 0.77986 0.07553
 C501 C 0.42753 0.77727 0.11216
 H502 H 0.42681 0.80005 0.05579
 H503 H 0.41228 0.73971 0.15552
 H504 H 0.36971 0.70910 0.10752
 N505 N 0.59488 0.25381 0.13247
 N506 N 0.61747 0.26973 0.10536
 C507 C 0.61159 0.25099 0.07342
 C508 C 0.58566 0.22257 0.08005
 C509 C 0.57606 0.22543 0.11697
 H510 H 0.57451 0.20243 0.06074
 H511 H 0.59276 0.26324 0.15964
 H512 H 0.63406 0.29318 0.11009
 N513 N 0.25899 0.12859 0.59113
 N514 N 0.27418 0.10106 0.61360
 C515 C 0.25420 0.06935 0.60839
 C516 C 0.22581 0.07650 0.58275
 C517 C 0.22987 0.11361 0.57289
 H518 H 0.20465 0.05754 0.57246
 H519 H 0.26909 0.15585 0.58908
 H520 H 0.29796 0.10536 0.62977
 N521 N 0.75128 0.12790 0.40296
 N522 N 0.73770 0.10228 0.38055
 C523 C 0.75673 0.07015 0.38570
 C524 C 0.78392 0.07590 0.41258
 C525 C 0.77925 0.11279 0.42283
 H526 H 0.80326 0.05588 0.42425
 H527 H 0.74082 0.15502 0.40513
 H528 H 0.71451 0.10661 0.36351
 N529 N 0.75073 0.87401 0.59973
 N530 N 0.73762 0.89976 0.62226
 C531 C 0.75684 0.93176 0.61684
 C532 C 0.78368 0.92578 0.58963
 C533 C 0.77858 0.88890 0.57950
 H534 H 0.80300 0.94566 0.57765
 H535 H 0.74003 0.84697 0.59773
 H536 H 0.71455 0.89561 0.63955
 N537 N 0.24802 0.87543 0.40284
 N538 N 0.26206 0.90063 0.38026
 C539 C 0.24304 0.93287 0.38462
 C540 C 0.21530 0.92762 0.41118
 C541 C 0.21971 0.89088 0.42206
 H542 H 0.19578 0.94786 0.42221
 H543 H 0.25835 0.84832 0.40550
 H544 H 0.28552 0.89596 0.36362
 N545 N 0.12784 0.41539 0.74075
 N546 N 0.10105 0.39188 0.72525
 C547 C 0.06931 0.39440 0.74565
 C548 C 0.07573 0.41940 0.77467
 C549 C 0.11248 0.43165 0.77051
 H550 H 0.05659 0.42763 0.79634
 H551 H 0.15498 0.41926 0.73053
 H552 H 0.10575 0.37683 0.70110
 N553 N 0.12451 0.58637 0.25620
 N554 N 0.09785 0.60927 0.27281
 C555 C 0.06548 0.60629 0.25350
 C556 C 0.07136 0.58165 0.22408
 C557 C 0.10841 0.57005 0.22686
 H558 H 0.05166 0.57318 0.20300
 H559 H 0.15204 0.58290 0.26545
 H560 H 0.10313 0.62435 0.29682
 N561 N 0.87328 0.41410 0.25959
 N562 N 0.90009 0.39073 0.27520
 C563 C 0.93186 0.39336 0.25486
 C564 C 0.92544 0.41825 0.22582
 C565 C 0.88872 0.43035 0.22986
 H566 H 0.94452 0.42643 0.20408
 H567 H 0.84604 0.41779 0.26963
 H568 H 0.89538 0.37558 0.29926
 N569 N 0.87534 0.58413 0.74157
 N570 N 0.90175 0.60784 0.72579
 C571 C 0.93361 0.60577 0.74599
 C572 C 0.92767 0.58084 0.77513
 C573 C 0.89106 0.56820 0.77129
 H574 H 0.94699 0.57303 0.79678
 H575 H 0.84813 0.58003 0.73164
 H576 H 0.89675 0.62271 0.70162
 N577 N 0.75920 0.60219 0.86982
 N578 N 0.74534 0.62464 0.89529
 C579 C 0.76355 0.61864 0.92742
 C580 C 0.79062 0.59136 0.92172
 C581 C 0.78662 0.58156 0.88500
 H582 H 0.80900 0.57860 0.94180
 H583 H 0.74900 0.60021 0.84290
 H584 H 0.72227 0.64201 0.89094
 N585 N 0.25160 0.40448 0.86686
 N586 N 0.26743 0.38205 0.89404
 C587 C 0.24910 0.38869 0.92614
 C588 C 0.22093 0.41494 0.91950
 C589 C 0.22360 0.42397 0.88244
 H590 H 0.20118 0.42675 0.93891
 H591 H 0.26088 0.40609 0.83959
 H592 H 0.29055 0.36492 0.88922
 N593 N 0.24185 0.60149 0.12870
 N594 N 0.25622 0.62409 0.10369
 C595 C 0.23815 0.61882 0.07137
 C596 C 0.21058 0.59181 0.07649
 C597 C 0.21419 0.58143 0.11308
 H598 H 0.19207 0.57965 0.05613
 H599 H 0.25179 0.59905 0.15568
 H600 H 0.27950 0.64110 0.10847
 N601 N 0.75823 0.39534 0.13033
 N602 N 0.74466 0.37294 0.10471
 C603 C 0.76293 0.37928 0.07265
 C604 C 0.78978 0.40676 0.07858
 C605 C 0.78554 0.41631 0.11534
 H606 H 0.80808 0.41987 0.05861
 H607 H 0.74789 0.39711 0.15723
 H608 H 0.72165 0.35541 0.10893
 N609 N 0.86967 0.75257 0.60043
 N610 N 0.89565 0.73885 0.62250
 C611 C 0.92813 0.75745 0.61691
 C612 C 0.92214 0.78459 0.59019
 C613 C 0.88487 0.78024 0.58036
 H614 H 0.94231 0.80355 0.57810
 H615 H 0.84229 0.74230 0.59849
 H616 H 0.89135 0.71578 0.63952
 N617 N 0.87212 0.24743 0.40136
 N618 N 0.89800 0.26123 0.37919
 C619 C 0.93066 0.24302 0.38492
 C620 C 0.92493 0.21608 0.41193
 C621 C 0.88754 0.22010 0.42168
 H622 H 0.94528 0.19745 0.42416
 H623 H 0.84463 0.25740 0.40316
 H624 H 0.89344 0.28407 0.36196
 N625 N 0.13123 0.24795 0.60008
 N626 N 0.10508 0.26173 0.62198
 C627 C 0.07253 0.24332 0.61607
 C628 C 0.07866 0.21624 0.58923
 C629 C 0.11614 0.22038 0.57977
 H630 H 0.05846 0.19750 0.57687
 H631 H 0.15866 0.25812 0.59840
 H632 H 0.10938 0.28471 0.63913
 N633 N 0.12839 0.75988 0.39513
 N634 N 0.10114 0.74441 0.37220
 C635 C 0.06733 0.75839 0.38227
 C636 C 0.07287 0.78365 0.41116
 C637 C 0.11109 0.78339 0.41839
 H638 H 0.05199 0.79927 0.42634
 H639 H 0.15691 0.75315 0.39458
 H640 H 0.10687 0.72330 0.35324
 N641 N 0.59299 0.86870 0.74617
 N642 N 0.61535 0.89622 0.73025
 C643 C 0.61005 0.92835 0.74922
 C644 C 0.58460 0.92137 0.77780
 C645 C 0.57478 0.88405 0.77482
 H646 H 0.57405 0.94067 0.79824
 H647 H 0.59080 0.84128 0.73672
 H648 H 0.63176 0.89154 0.70691
 N649 N 0.41191 0.87322 0.25207
 N650 N 0.38843 0.89968 0.26817
 C651 C 0.39202 0.93194 0.24914
 C652 C 0.41757 0.92609 0.22027
 C653 C 0.42917 0.88923 0.22321
 H654 H 0.42688 0.94578 0.19964
 H655 H 0.41526 0.84590 0.26143
 H656 H 0.37252 0.89433 0.29170
 N657 N 0.58770 0.12924 0.25770
 N658 N 0.61117 0.10247 0.27317
 C659 C 0.60809 0.07085 0.25300
 C660 C 0.58286 0.07740 0.22408
 C661 C 0.57095 0.11402 0.22813
 H662 H 0.57406 0.05837 0.20263
 H663 H 0.58408 0.15624 0.26787
 H664 H 0.62668 0.10716 0.29708
 N665 N 0.40296 0.12411 0.75610
 N666 N 0.37990 0.09934 0.74154
 C667 C 0.38354 0.06677 0.75981
 C668 C 0.41010 0.07144 0.78763
 C669 C 0.42181 0.10809 0.78403
 H670 H 0.42076 0.05084 0.80670
 H671 H 0.40628 0.15130 0.74635
 H672 H 0.36350 0.10447 0.71825
 N673 N 0.60434 0.75646 0.12250
 N674 N 0.62677 0.74255 0.09702
 C675 C 0.62080 0.76062 0.06490
 C676 C 0.59329 0.78763 0.07062
 C677 C 0.58355 0.78375 0.10742
 H678 H 0.58073 0.80622 0.05066
 H679 H 0.60271 0.74661 0.14955
 H680 H 0.64429 0.71969 0.10152
 N681 N 0.41110 0.26135 0.12317
 N682 N 0.38998 0.27596 0.09703
 C683 C 0.38983 0.25276 0.06769
 C684 C 0.41196 0.22189 0.07585
 C685 C 0.42487 0.22857 0.11122
 H686 H 0.41824 0.19812 0.05854
 H687 H 0.41645 0.27412 0.14852
 H688 H 0.37703 0.30193 0.09931
 N689 N 0.59698 0.24478 0.87983
 N690 N 0.61978 0.25908 0.90476
 C691 C 0.61554 0.24035 0.93677
 C692 C 0.58874 0.21250 0.93156
 C693 C 0.57764 0.21653 0.89513
 H694 H 0.57767 0.19308 0.95162
 H695 H 0.59422 0.25488 0.85296
 H696 H 0.63650 0.28251 0.90004
 N697 N 0.39767 0.75295 0.87571
 N698 N 0.37540 0.74005 0.90184
 C699 C 0.38146 0.75946 0.93324
 C700 C 0.40888 0.78623 0.92636
 C701 C 0.41843 0.78091 0.88964
 H702 H 0.42149 0.80561 0.94557
 H703 H 0.39923 0.74199 0.84907
 H704 H 0.35789 0.71698 0.89833
 N705 N 0.73906 0.87440 0.41295
 N706 N 0.72417 0.90059 0.39198
 C707 C 0.74666 0.93090 0.39260
 C708 C 0.77744 0.92329 0.41497
 C709 C 0.77142 0.88722 0.42730
 H710 H 0.80056 0.94153 0.42197
 H711 H 0.72672 0.84845 0.41786
 H712 H 0.69839 0.89779 0.37861
 N713 N 0.24441 0.87376 0.59791
 N714 N 0.25839 0.89914 0.62043
 C715 C 0.24001 0.93166 0.61536
 C716 C 0.21270 0.92630 0.58840
 C717 C 0.21669 0.88928 0.57801
 H718 H 0.19385 0.94670 0.57661
 H719 H 0.25448 0.84651 0.59564
 H720 H 0.28152 0.89441 0.63746
 N721 N 0.26109 0.12896 0.40941
 N722 N 0.27606 0.10250 0.38876
 C723 C 0.25369 0.07210 0.38988
 C724 C 0.22294 0.07994 0.41218
 C725 C 0.22882 0.11619 0.42400
 H726 H 0.19997 0.06168 0.41962
 H727 H 0.27339 0.15498 0.41407
 H728 H 0.30185 0.10520 0.37536
 N729 N 0.74043 0.12757 0.58915
 N730 N 0.72517 0.10153 0.61010
 C731 C 0.74733 0.07101 0.60954
 C732 C 0.77829 0.07833 0.58726
 C733 C 0.77271 0.11443 0.57488
 H734 H 0.80125 0.05988 0.58031
 H735 H 0.72838 0.15362 0.58419
 H736 H 0.69937 0.10460 0.62340
 N737 N 0.86831 0.60391 0.24379
 N738 N 0.89432 0.62562 0.25837
 C739 C 0.92723 0.61978 0.24070
 C740 C 0.92142 0.59338 0.21322
 C741 C 0.88389 0.58387 0.21645
 H742 H 0.94192 0.58080 0.19505
 H743 H 0.84078 0.60185 0.25352
 H744 H 0.88975 0.64229 0.28153
 N745 N 0.87223 0.39384 0.75861
 N746 N 0.89845 0.37231 0.74414
 C747 C 0.93143 0.37899 0.76136
 C748 C 0.92546 0.40578 0.78844
 C749 C 0.88773 0.41459 0.78545
 H750 H 0.94595 0.41900 0.80616
 H751 H 0.84458 0.39525 0.74915
 H752 H 0.89391 0.35517 0.72130
 N753 N 0.13039 0.60739 0.75681
 N754 N 0.10405 0.62910 0.74294
 C755 C 0.07125 0.62216 0.76039
 C756 C 0.07747 0.59500 0.78703
 C757 C 0.11514 0.58623 0.78348
 H758 H 0.05720 0.58151 0.80479
 H759 H 0.15796 0.60614 0.74706
 H760 H 0.10837 0.64654 0.72030
 N761 N 0.12815 0.39544 0.24051
 N762 N 0.10259 0.37322 0.25507
 C763 C 0.06932 0.37931 0.23823
 C764 C 0.07441 0.40640 0.21128
 C765 C 0.11189 0.41607 0.21404
 H766 H 0.05352 0.41928 0.19381
 H767 H 0.15588 0.39736 0.24966
 H768 H 0.10774 0.35605 0.27772
   
