data_POSCAR
  _audit_creation_date              2014-09-24
  _audit_creation_method            'ToBaCCo'
  _symmetry_space_group_name_H-M    'P1'
  _symmetry_Int_Tables_number       1
  _symmetry_cell_setting            triclinic
  loop_
  _symmetry_equiv_pos_as_xyz
 x,y,z
_cell_length_a 32.0069
_cell_length_b 31.6339
_cell_length_c 58.8955
_cell_angle_alpha 87.394900
_cell_angle_beta 92.803700
_cell_angle_gamma 84.885900
loop_
  _atom_site_label
  _atom_site_type_symbol
  _atom_site_fract_x
  _atom_site_fract_y
  _atom_site_fract_z
C1 C 0.00513 0.60970 0.99791
 C2 C -0.00307 0.58784 1.01841
 C3 C -0.00825 0.54401 1.01759
 C4 C -0.00171 0.52172 0.99765
 C5 C 0.00951 0.54449 0.97809
 C6 C 0.01174 0.58872 0.97765
 C7 C -0.00599 0.47471 0.99715
 C8 C -0.01443 0.45575 0.97635
 C9 C -0.01683 0.41179 0.97544
 C10 C -0.01394 0.38670 0.99576
 C11 C -0.00723 0.40471 1.01678
 C12 C -0.00179 0.44825 1.01729
 H13 H 0.00312 0.64397 0.99724
 H14 H -0.01619 0.52676 1.03266
 H15 H 0.01842 0.52751 0.96333
 H16 H -0.01962 0.47484 0.96061
 H17 H -0.01560 0.35269 0.99520
 H18 H 0.00542 0.46101 1.03356
 C19 C 0.39476 -0.01026 0.50150
 C20 C 0.41918 -0.00819 0.52169
 C21 C 0.46170 -0.00132 0.52069
 C22 C 0.47985 0.00588 0.49964
 C23 C 0.45402 0.00531 0.47951
 C24 C 0.41191 -0.00385 0.48030
 C25 C 0.52544 0.01357 0.49877
 C26 C 0.54799 0.00435 0.47937
 C27 C 0.59083 0.01107 0.47834
 C28 C 0.61148 0.02559 0.49781
 C29 C 0.59032 0.03390 0.51779
 C30 C 0.54696 0.02923 0.51758
 H31 H 0.36180 -0.01527 0.50233
 H32 H 0.48030 -0.00223 0.53656
 H33 H 0.46636 0.01171 0.46308
 H34 H 0.53284 -0.01047 0.46543
 H35 H 0.64445 0.03005 0.49747
 H36 H 0.52963 0.03938 0.53195
 C37 C 0.06494 -0.02790 0.26303
 H38 H 0.06823 -0.03089 0.24496
 C39 C 0.10056 -0.02626 0.27755
 H40 H 0.13125 -0.02788 0.27051
 C41 C 0.02067 -0.02021 0.29395
 H42 H -0.01049 -0.01690 0.30026
 C43 C 0.05536 -0.01842 0.30905
 H44 H 0.05041 -0.01488 0.32694
 N45 N 0.02600 -0.02504 0.27142
 C46 C -0.05084 -0.07599 0.21782
 H47 H -0.07444 -0.04943 0.21460
 C48 C -0.05106 -0.11103 0.20430
 H49 H -0.07451 -0.11030 0.19039
 C50 C 0.00949 -0.10728 0.23922
 H51 H 0.03283 -0.10573 0.25298
 C52 C 0.00984 -0.14352 0.22647
 H53 H 0.03350 -0.16961 0.23079
 Zn54 Zn -0.02113 -0.02377 0.25060
 N55 N -0.02009 -0.07410 0.23438
 C56 C -0.01240 0.01868 0.20787
 N57 N -0.01871 0.02414 0.23026
 C58 C -0.02051 0.06348 0.23880
 C59 C -0.01713 0.09939 0.22450
 C60 C -0.00879 0.05360 0.19301
 C61 C -0.07606 -0.05395 0.28103
 C62 C -0.11085 -0.05378 0.29438
 C63 C -0.13637 0.01474 0.27677
 C64 C -0.10090 0.01328 0.26377
 N65 N -0.07120 -0.02036 0.26649
 H66 H -0.00940 -0.01280 0.20147
 H67 H -0.02432 0.06689 0.25680
 H68 H -0.01841 0.13041 0.23162
 H69 H -0.00445 0.04849 0.17520
 H70 H -0.05215 -0.08049 0.28268
 H71 H -0.11307 -0.08015 0.30650
 H72 H -0.15955 0.04189 0.27452
 H73 H -0.09705 0.03916 0.25167
 C74 C -0.02019 -0.14546 0.20834
 C75 C 0.09598 -0.02116 0.30090
 C76 C -0.14141 -0.01888 0.29256
 C77 C -0.01113 0.09465 0.20125
 C78 C 0.01456 0.10130 0.75654
 H79 H 0.01279 0.10665 0.73823
 C80 C 0.01223 0.13586 0.77056
 H81 H 0.00912 0.16787 0.76296
 C82 C 0.02023 0.05302 0.78874
 H83 H 0.02230 0.02079 0.79583
 C84 C 0.01845 0.08653 0.80335
 H85 H 0.01931 0.07963 0.82155
 N86 N 0.01863 0.06086 0.76580
 C87 C 0.07199 -0.01920 0.71413
 H88 H 0.04815 -0.04125 0.71258
 C89 C 0.10644 -0.02267 0.70051
 H90 H 0.10804 -0.04698 0.68817
 C91 C 0.09725 0.04017 0.73162
 H92 H 0.09367 0.06435 0.74394
 C93 C 0.13277 0.03729 0.71867
 H94 H 0.15629 0.05934 0.72139
 Zn95 Zn 0.01899 0.01515 0.74610
 N96 N 0.06745 0.01250 0.72887
 C97 C -0.02718 0.02806 0.70366
 N98 N -0.03031 0.02409 0.72659
 C99 C -0.06834 0.02862 0.73600
 C100 C -0.10524 0.03642 0.72214
 C101 C -0.06314 0.03556 0.68921
 C102 C 0.05734 -0.04831 0.77599
 C103 C 0.06115 -0.08461 0.79052
 C104 C -0.00942 -0.09805 0.77833
 C105 C -0.01187 -0.06136 0.76396
 N106 N 0.02093 -0.03683 0.76350
 H107 H 0.00319 0.02579 0.69642
 H108 H -0.06996 0.02641 0.75431
 H109 H -0.13515 0.04028 0.72997
 H110 H -0.05975 0.03750 0.67101
 H111 H 0.08315 -0.02853 0.77503
 H112 H 0.09027 -0.09284 0.80052
 H113 H -0.03636 -0.11637 0.77914
 H114 H -0.04027 -0.05211 0.75360
 C115 C 0.13751 0.00590 0.70256
 C116 C 0.01431 0.12858 0.79430
 C117 C 0.02720 -0.10959 0.79218
 C118 C -0.10292 0.03992 0.69836
 C119 C -0.00714 -0.34699 0.08060
 C120 C -0.02669 -0.38475 0.07844
 C121 C -0.02611 -0.40593 0.05806
 C122 C -0.00539 -0.39036 0.03913
 C123 C 0.01428 -0.35239 0.04169
 C124 C 0.01289 -0.33098 0.06183
 C125 C -0.00771 -0.32389 0.10213
 C126 C 0.02629 -0.30115 0.10878
 C127 C 0.02453 -0.27631 0.12774
 C128 C -0.01081 -0.27429 0.14108
 C129 C -0.04399 -0.29873 0.13510
 C130 C -0.04263 -0.32288 0.11576
 C131 C -0.01377 -0.24496 0.16022
 C132 C -0.05270 -0.22443 0.16543
 C133 C -0.05499 -0.19380 0.18179
 C134 C -0.01834 -0.18190 0.19304
 C135 C 0.02042 -0.20359 0.18846
 C136 C 0.02258 -0.23503 0.17253
 H137 H -0.04233 -0.39826 0.09256
 H138 H -0.04320 -0.43380 0.05733
 H139 H 0.03252 -0.33936 0.02854
 H140 H 0.02769 -0.30158 0.06256
 H141 H 0.05427 -0.30198 0.09916
 H142 H 0.05054 -0.25765 0.13142
 H143 H -0.07137 -0.29887 0.14515
 H144 H -0.06954 -0.33973 0.11119
 H145 H -0.08147 -0.23074 0.15631
 H146 H -0.08561 -0.17889 0.18525
 H147 H 0.04949 -0.19538 0.19652
 H148 H 0.05306 -0.25088 0.16957
 C149 C -0.00572 0.32530 0.07834
 C150 C 0.02412 0.35502 0.07585
 C151 C 0.02363 0.38111 0.05597
 C152 C -0.00656 0.37779 0.03814
 C153 C -0.03650 0.34827 0.04074
 C154 C -0.03607 0.32235 0.06056
 C155 C -0.00474 0.29645 0.09901
 C156 C -0.04232 0.28648 0.10850
 C157 C -0.04175 0.25653 0.12671
 C158 C -0.00356 0.23586 0.13590
 C159 C 0.03414 0.24694 0.12694
 C160 C 0.03356 0.27693 0.10871
 C161 C -0.00337 0.20114 0.15378
 C162 C 0.02360 0.16381 0.15268
 C163 C 0.02168 0.12971 0.16838
 C164 C -0.00729 0.13205 0.18556
 C165 C -0.03345 0.16982 0.18710
 C166 C -0.03155 0.20398 0.17136
 H167 H 0.04772 0.35821 0.08932
 H168 H 0.04727 0.40335 0.05439
 H169 H -0.06044 0.34533 0.02740
 H170 H -0.05910 0.29938 0.06179
 H171 H -0.07230 0.30143 0.10161
 H172 H -0.07136 0.24848 0.13307
 H173 H 0.06410 0.23196 0.13384
 H174 H 0.06303 0.28373 0.10170
 H175 H 0.04535 0.16040 0.13923
 H176 H 0.04271 0.10130 0.16695
 H177 H -0.05624 0.17252 0.20007
 H178 H -0.05242 0.23249 0.17281
 C179 C 0.35393 -0.00926 0.58355
 C180 C 0.37951 0.02330 0.57841
 C181 C 0.40238 0.02245 0.55880
 C182 C 0.39931 -0.01050 0.54380
 C183 C 0.37451 -0.04361 0.54922
 C184 C 0.35233 -0.04323 0.56909
 C185 C 0.32656 -0.00623 0.60300
 C186 C 0.32670 -0.04004 0.61925
 C187 C 0.29917 -0.03761 0.63697
 C188 C 0.27020 -0.00170 0.63848
 C189 C 0.27053 0.03218 0.62215
 C190 C 0.29867 0.03009 0.60477
 C191 C 0.23860 -0.00017 0.65630
 C192 C 0.22370 0.03873 0.66500
 C193 C 0.19147 0.04063 0.68020
 C194 C 0.17378 0.00356 0.68754
 C195 C 0.19001 -0.03558 0.67964
 C196 C 0.22159 -0.03736 0.66406
 H197 H 0.38116 0.04975 0.58937
 H198 H 0.42105 0.04848 0.55484
 H199 H 0.37174 -0.06930 0.53785
 H200 H 0.33253 -0.06850 0.57269
 H201 H 0.34820 -0.06826 0.61823
 H202 H 0.30059 -0.06397 0.64944
 H203 H 0.24819 0.05992 0.62229
 H204 H 0.29769 0.05631 0.59220
 H205 H 0.23658 0.06798 0.65991
 H206 H 0.17971 0.07146 0.68565
 H207 H 0.17806 -0.06500 0.68527
 H208 H 0.23173 -0.06790 0.65765
 C209 C -0.33802 0.05737 0.57796
 C210 C -0.32630 0.07227 0.55662
 C211 C -0.35051 0.06598 0.53689
 C212 C -0.38748 0.04479 0.53790
 C213 C -0.40028 0.03227 0.55966
 C214 C -0.37566 0.03811 0.57933
 C215 C -0.30938 0.05911 0.59838
 C216 C -0.29969 0.02278 0.61293
 C217 C -0.26919 0.02259 0.63074
 C218 C -0.24792 0.05887 0.63454
 C219 C -0.25903 0.09582 0.62055
 C220 C -0.28923 0.09584 0.60257
 C221 C -0.21242 0.05711 0.65197
 C222 C -0.17632 0.07770 0.64751
 C223 C -0.14143 0.07319 0.66289
 C224 C -0.14148 0.04760 0.68304
 C225 C -0.17803 0.02808 0.68789
 C226 C -0.21313 0.03288 0.67256
 H227 H -0.29746 0.08742 0.55508
 H228 H -0.34013 0.07835 0.52090
 H229 H -0.42777 0.01512 0.56162
 H230 H -0.38554 0.02658 0.59563
 H231 H -0.31433 -0.00616 0.60988
 H232 H -0.26103 -0.00664 0.64088
 H233 H -0.24393 0.12459 0.62327
 H234 H -0.29651 0.12442 0.59176
 H235 H -0.17436 0.09621 0.63175
 H236 H -0.11415 0.08939 0.65882
 H237 H -0.17911 0.00797 0.70318
 H238 H -0.24063 0.01711 0.67672
 C239 C 0.03001 -0.33837 0.91689
 C240 C 0.01203 -0.37712 0.91580
 C241 C 0.00721 -0.40185 0.93565
 C242 C 0.01960 -0.38807 0.95727
 C243 C 0.03878 -0.34958 0.95801
 C244 C 0.04392 -0.32525 0.93816
 C245 C 0.03256 -0.31043 0.89618
 C246 C 0.06850 -0.28897 0.89284
 C247 C 0.06923 -0.25909 0.87470
 C248 C 0.03394 -0.24982 0.85955
 C249 C -0.00138 -0.27261 0.86232
 C250 C -0.00203 -0.30266 0.88044
 C251 C 0.03311 -0.21471 0.84185
 C252 C 0.01425 -0.21816 0.82002
 C253 C 0.01246 -0.18423 0.80378
 C254 C 0.02954 -0.14620 0.80905
 C255 C 0.04840 -0.14288 0.83086
 C256 C 0.05016 -0.17666 0.84704
 H257 H 0.00121 -0.38809 0.89957
 H258 H -0.00850 -0.43052 0.93393
 H259 H 0.05079 -0.33824 0.97389
 H260 H 0.05788 -0.29546 0.93955
 H261 H 0.09588 -0.29488 0.90447
 H262 H 0.09724 -0.24275 0.87273
 H263 H -0.02920 -0.26591 0.85108
 H264 H -0.03032 -0.31841 0.88274
 H265 H 0.00116 -0.24721 0.81545
 H266 H -0.00191 -0.18787 0.78704
 H267 H 0.06101 -0.11370 0.83564
 H268 H 0.06401 -0.17257 0.86385
 C269 C -0.01772 0.34645 0.91293
 C270 C 0.00672 0.38080 0.91571
 C271 C 0.00559 0.40317 0.93562
 C272 C -0.01985 0.39153 0.95323
 C273 C -0.04556 0.35829 0.95007
 C274 C -0.04458 0.33605 0.93010
 C275 C -0.01302 0.31965 0.89301
 C276 C -0.04817 0.30427 0.88204
 C277 C -0.04313 0.27618 0.86450
 C278 C -0.00281 0.26263 0.85773
 C279 C 0.03222 0.27893 0.86828
 C280 C 0.02717 0.30720 0.88568
 C281 C 0.00291 0.22977 0.84069
 C282 C 0.03409 0.19571 0.84466
 C283 C 0.03820 0.16332 0.82938
 C284 C 0.01142 0.16438 0.80971
 C285 C -0.01913 0.19894 0.80541
 C286 C -0.02351 0.23123 0.82084
 H287 H 0.02736 0.38982 0.90265
 H288 H 0.02597 0.42844 0.93764
 H289 H -0.06579 0.34891 0.96326
 H290 H -0.06355 0.30954 0.92852
 H291 H -0.07953 0.31359 0.88722
 H292 H -0.07067 0.26388 0.85678
 H293 H 0.06363 0.26934 0.86326
 H294 H 0.05490 0.31814 0.89396
 H295 H 0.05460 0.19351 0.85992
 H296 H 0.06224 0.13724 0.83301
 H297 H -0.04037 0.20038 0.79046
 H298 H -0.04761 0.25726 0.81729
 C299 C -0.34278 -0.00801 0.41811
 C300 C -0.38622 0.00336 0.41673
 C301 C -0.40827 0.00852 0.43650
 C302 C -0.38729 0.00323 0.45828
 C303 C -0.34365 -0.00904 0.45937
 C304 C -0.32187 -0.01466 0.43962
 C305 C -0.31878 -0.01169 0.39727
 C306 C -0.28775 -0.04552 0.39554
 C307 C -0.26279 -0.04726 0.37675
 C308 C -0.26812 -0.01505 0.35935
 C309 C -0.29987 0.01825 0.36079
 C310 C -0.32511 0.01980 0.37952
 C311 C -0.23900 -0.01517 0.34050
 C312 C -0.22141 0.02220 0.33366
 C313 C -0.19073 0.02129 0.31755
 C314 C -0.17708 -0.01700 0.30785
 C315 C -0.19601 -0.05401 0.31402
 C316 C -0.22652 -0.05313 0.33021
 H317 H -0.40313 0.00853 0.40032
 H318 H -0.44144 0.01889 0.43448
 H319 H -0.32602 -0.01566 0.47547
 H320 H -0.28834 -0.02348 0.44119
 H321 H -0.28246 -0.07040 0.40889
 H322 H -0.23832 -0.07309 0.37622
 H323 H -0.30485 0.04332 0.34754
 H324 H -0.34861 0.04639 0.38050
 H325 H -0.23006 0.05181 0.34150
 H326 H -0.17644 0.05023 0.31343
 H327 H -0.18686 -0.08384 0.30653
 H328 H -0.24004 -0.08226 0.33490
 C329 C 0.33160 -0.00994 0.41983
 C330 C 0.33156 -0.04046 0.43792
 C331 C 0.35813 -0.03877 0.45730
 C332 C 0.38538 -0.00650 0.45910
 C333 C 0.38615 0.02356 0.44084
 C334 C 0.35947 0.02190 0.42141
 C335 C 0.30131 -0.01047 0.39993
 C336 C 0.27995 0.02754 0.39053
 C337 C 0.24879 0.02677 0.37312
 C338 C 0.23824 -0.01202 0.36472
 C339 C 0.26059 -0.04992 0.37359
 C340 C 0.29177 -0.04914 0.39099
 C341 C 0.20268 -0.01316 0.34763
 C342 C 0.20494 -0.04169 0.33002
 C343 C 0.17054 -0.04401 0.31467
 C344 C 0.13310 -0.01794 0.31666
 C345 C 0.13113 0.01104 0.33406
 C346 C 0.16546 0.01337 0.34936
 H347 H 0.31013 -0.06507 0.43739
 H348 H 0.35720 -0.06268 0.47098
 H349 H 0.40660 0.04897 0.44180
 H350 H 0.36050 0.04563 0.40767
 H351 H 0.28631 0.05782 0.39716
 H352 H 0.23255 0.05655 0.36642
 H353 H 0.25303 -0.08034 0.36762
 H354 H 0.30806 -0.07892 0.39766
 H355 H 0.23331 -0.06227 0.32810
 H356 H 0.17295 -0.06684 0.30154
 H357 H 0.10298 0.03202 0.33585
 H358 H 0.16249 0.03533 0.36289
   
