data_POSCAR
  _audit_creation_date              2014-09-24
  _audit_creation_method            'ToBaCCo'
  _symmetry_space_group_name_H-M    'P1'
  _symmetry_Int_Tables_number       1
  _symmetry_cell_setting            triclinic
  loop_
  _symmetry_equiv_pos_as_xyz
 x,y,z
_cell_length_a 18.4384
_cell_length_b 19.2602
_cell_length_c 16.9181
_cell_angle_alpha 91.529200
_cell_angle_beta 91.510000
_cell_angle_gamma 89.617300
loop_
  _atom_site_label
  _atom_site_type_symbol
  _atom_site_fract_x
  _atom_site_fract_y
  _atom_site_fract_z
C1 C -0.05913 0.50300 0.26159
 C2 C 0.00835 0.52016 0.23178
 C3 C 0.02277 0.58849 0.21052
 C4 C -0.03012 0.64025 0.21713
 C5 C -0.09795 0.62248 0.25238
 C6 C -0.11079 0.55344 0.27892
 C7 C 0.06418 0.46579 0.22371
 C8 C 0.04432 0.39845 0.20228
 C9 C 0.09547 0.34732 0.18504
 C10 C 0.16928 0.36162 0.20296
 C11 C 0.19008 0.42840 0.23215
 C12 C 0.13666 0.48005 0.24076
 H13 H -0.06838 0.45101 0.28204
 H14 H 0.07383 0.60036 0.18361
 H15 H -0.01209 0.38538 0.19800
 H16 H 0.15040 0.53046 0.26653
 H17 H -0.13850 0.66253 0.26205
 H18 H 0.20962 0.32101 0.19686
 C19 C -0.06476 0.49907 0.74177
 C20 C 0.00239 0.48105 0.77727
 C21 C 0.01657 0.41146 0.79585
 C22 C -0.03855 0.36301 0.79264
 C23 C -0.10778 0.38588 0.76450
 C24 C -0.11846 0.44952 0.72531
 C25 C 0.05981 0.53322 0.79175
 C26 C 0.04510 0.60401 0.80729
 C27 C 0.10007 0.65426 0.80300
 C28 C 0.16902 0.63094 0.77366
 C29 C 0.18218 0.55802 0.75815
 C30 C 0.13068 0.51156 0.77929
 H31 H -0.07794 0.55256 0.73330
 H32 H 0.06638 0.39740 0.82709
 H33 H -0.00921 0.62016 0.82297
 H34 H 0.14326 0.45721 0.76850
 H35 H -0.15339 0.35960 0.78598
 H36 H 0.20997 0.66840 0.76008
 C37 C 0.36048 -0.07410 0.53726
 C38 C 0.33236 -0.00953 0.55931
 C39 C 0.29384 -0.00228 0.62911
 C40 C 0.25667 -0.05947 0.65804
 C41 C 0.27956 -0.12672 0.62969
 C42 C 0.33451 -0.13439 0.57046
 C43 C 0.31445 0.03902 0.49579
 C44 C 0.27559 0.01392 0.42817
 C45 C 0.24428 0.05940 0.37377
 C46 C 0.25801 0.13204 0.38509
 C47 C 0.30179 0.15709 0.45037
 C48 C 0.32613 0.11003 0.50699
 H49 H 0.39221 -0.07776 0.48422
 H50 H 0.28055 0.04966 0.65037
 H51 H 0.26293 -0.04095 0.42252
 H52 H 0.35854 0.12831 0.55771
 H53 H 0.25480 -0.17233 0.65310
 H54 H 0.23747 0.16819 0.34180
 C55 C 0.64200 -0.08371 0.47147
 C56 C 0.68201 -0.02452 0.46280
 C57 C 0.73405 -0.02120 0.40643
 C58 C 0.74658 -0.07764 0.35652
 C59 C 0.71878 -0.14201 0.37629
 C60 C 0.66854 -0.14588 0.43955
 C61 C 0.69236 0.02151 0.52872
 C62 C 0.74930 0.00535 0.58226
 C63 C 0.77472 0.05579 0.63583
 C64 C 0.73321 0.11870 0.64041
 C65 C 0.68670 0.13778 0.57866
 C66 C 0.66384 0.08801 0.52387
 H67 H 0.59782 -0.08254 0.51248
 H68 H 0.76581 0.02584 0.40195
 H69 H 0.77628 -0.04465 0.57736
 H70 H 0.62773 0.10176 0.47501
 H71 H 0.74011 -0.18697 0.34506
 H72 H 0.73862 0.15555 0.68915
 C73 C 0.46786 0.25919 1.08792
 C74 C 0.43768 0.20924 1.03682
 C75 C 0.37073 0.18118 1.05022
 C76 C 0.33158 0.20282 1.11623
 C77 C 0.36547 0.24909 1.17333
 C78 C 0.43678 0.27506 1.16010
 C79 C 0.47719 0.18896 0.96762
 C80 C 0.54072 0.15044 0.97866
 C81 C 0.59396 0.14768 0.92128
 C82 C 0.57901 0.18458 0.85040
 C83 C 0.51464 0.22630 0.84099
 C84 C 0.46268 0.22434 0.89852
 H85 H 0.51719 0.28487 1.07139
 H86 H 0.34738 0.14468 1.00674
 H87 H 0.54900 0.12441 1.03425
 H88 H 0.41597 0.25884 0.89531
 H89 H 0.33709 0.26499 1.22599
 H90 H 0.62096 0.18783 0.80696
 C91 C 0.49674 0.76299 1.12850
 C92 C 0.50088 0.78451 1.05131
 C93 C 0.56309 0.81494 1.02396
 C94 C 0.62286 0.82427 1.07448
 C95 C 0.61679 0.80718 1.15579
 C96 C 0.55627 0.76898 1.17972
 C97 C 0.44198 0.76770 0.99732
 C98 C 0.37255 0.78653 1.01742
 C99 C 0.31626 0.77759 0.96227
 C100 C 0.32734 0.74084 0.89081
 C101 C 0.39674 0.71494 0.87574
 C102 C 0.45474 0.73244 0.92670
 H103 H 0.45019 0.73296 1.14532
 H104 H 0.56505 0.83079 0.96295
 H105 H 0.36402 0.81651 1.07180
 H106 H 0.50936 0.71539 0.91313
 H107 H 0.66180 0.81483 1.19729
 H108 H 0.28359 0.73423 0.84747
 B109 B 0.98360 1.06854 0.07313
 B110 B 0.98257 1.08176 -0.02610
 B111 B 1.06192 1.04894 0.02197
 B112 B 1.03292 0.99651 0.10117
 B113 B 0.93787 0.99348 0.09404
 B114 B 0.90395 1.03903 0.00944
 B115 B 0.99185 0.92815 -0.04552
 B116 B 0.98823 0.92323 0.06002
 B117 B 0.91271 0.94971 0.00420
 B118 B 0.94338 1.00659 -0.07404
 B119 B 1.03607 1.00756 -0.07018
 B120 B 1.06603 0.95932 0.01253
 B121 B 0.60923 0.51162 0.47747
 B122 B 0.52830 0.54720 0.42842
 B123 B 0.53723 0.45859 0.42853
 B124 B 0.57871 0.43330 0.51987
 B125 B 0.59354 0.51232 0.57880
 B126 B 0.56078 0.58022 0.52132
 B127 B 0.44065 0.49619 0.55303
 B128 B 0.51914 0.45597 0.59455
 B129 B 0.50809 0.54779 0.59794
 B130 B 0.46697 0.57421 0.50788
 B131 B 0.45102 0.49803 0.44939
 B132 B 0.48323 0.42550 0.50223
 C133 C 1.00651 1.27105 0.10659
 C134 C 1.06774 1.27821 0.15693
 C135 C 1.09297 1.21908 0.19289
 C136 C 1.06546 1.15388 0.17181
 C137 C 0.99976 1.13955 0.12785
 C138 C 0.95902 1.19581 0.11043
 C139 C 0.97171 1.33941 0.05761
 C140 C 0.84513 1.31549 0.00153
 C141 C 0.81612 1.23523 0.02071
 C142 C 0.87399 1.17865 0.07401
 H143 H 1.00563 1.38558 0.05514
 H144 H 0.80662 1.34851 -0.03021
 H145 H 0.75677 1.22936 -0.00666
 H146 H 0.83901 1.20521 0.04516
 H147 H 1.14022 1.22198 0.23232
 H148 H 1.10432 1.11579 0.18528
 C149 C 0.94229 0.72054 0.10809
 C150 C 0.98190 0.70409 0.17731
 C151 C 1.02868 0.75626 0.20831
 C152 C 1.02993 0.82310 0.17404
 C153 C 0.98018 0.84436 0.11238
 C154 C 0.92419 0.79221 0.10096
 C155 C 0.89282 0.67105 0.07727
 C156 C 0.82011 0.68507 0.08909
 C157 C 0.80175 0.74890 0.12367
 C158 C 0.85312 0.80275 0.12842
 H159 H 0.90926 0.61754 0.06687
 H160 H 0.78031 0.64470 0.08005
 H161 H 0.74848 0.75654 0.14524
 H162 H 0.83609 0.85102 0.15332
 H163 H 1.06337 0.74605 0.25939
 H164 H 1.06898 0.85865 0.19896
 C165 C 0.94634 1.31966 -0.07763
 C166 C 0.96832 1.30841 -0.15334
 C167 C 1.00515 1.24694 -0.16959
 C168 C 1.00777 1.18948 -0.11916
 C169 C 0.97401 1.17791 -0.04792
 C170 C 0.94025 1.24837 -0.01417
 C171 C 0.92017 1.40332 -0.04998
 C172 C 0.88449 1.43300 0.03624
 C173 C 0.86503 1.38354 0.12000
 C174 C 0.88303 1.29573 0.12130
 H175 H 0.92572 1.44424 -0.09140
 H176 H 0.87279 1.40936 0.08303
 H177 H 0.83935 1.40182 0.18097
 H178 H 0.87110 1.26933 0.17589
 H179 H 1.03328 1.24244 -0.22475
 H180 H 1.04104 1.14894 -0.13630
 C181 C 1.03426 0.76767 -0.21518
 C182 C 1.08260 0.72447 -0.17117
 C183 C 1.08323 0.73773 -0.08965
 C184 C 1.04625 0.79463 -0.05502
 C185 C 1.00797 0.84719 -0.09641
 C186 C 0.99063 0.82150 -0.17651
 C187 C 1.02163 0.75242 -0.29616
 C188 C 0.95803 0.77469 -0.33382
 C189 C 0.90633 0.81064 -0.29054
 C190 C 0.92249 0.83324 -0.21301
 H191 H 1.05825 0.71883 -0.32877
 H192 H 0.94663 0.75982 -0.39503
 H193 H 0.85396 0.82237 -0.31757
 H194 H 0.88159 0.86170 -0.18263
 H195 H 1.10949 0.70090 -0.05066
 H196 H 1.04577 0.79352 0.00693
 C197 C 1.11568 1.04803 0.33255
 C198 C 1.18899 1.03324 0.32028
 C199 C 1.20307 0.98310 0.26133
 C200 C 1.14918 0.96310 0.20422
 C201 C 1.08007 0.99590 0.19607
 C202 C 1.06198 1.03195 0.27146
 C203 C 1.09490 1.07906 0.40554
 C204 C 1.02385 1.09961 0.41769
 C205 C 0.97414 1.09330 0.35587
 C206 C 0.99518 1.06230 0.28479
 H207 H 1.13369 1.08735 0.45355
 H208 H 1.00821 1.12379 0.47317
 H209 H 0.92022 1.11511 0.36166
 H210 H 0.96342 1.06959 0.23633
 H211 H 1.25729 0.96165 0.25634
 H212 H 1.16742 0.92679 0.16146
 C213 C 1.14358 1.01214 -0.29661
 C214 C 1.19142 0.95441 -0.28836
 C215 C 1.17518 0.91018 -0.22832
 C216 C 1.12274 0.92730 -0.17178
 C217 C 1.08479 0.99239 -0.16225
 C218 C 1.09177 1.03159 -0.23552
 C219 C 1.14242 1.04812 -0.36879
 C220 C 1.10085 1.10718 -0.37874
 C221 C 1.05050 1.12467 -0.32359
 C222 C 1.04413 1.08491 -0.25693
 H223 H 1.17191 1.03019 -0.41968
 H224 H 1.10466 1.13755 -0.43109
 H225 H 1.01355 1.16728 -0.33477
 H226 H 0.99861 1.09516 -0.22513
 H227 H 1.20578 0.86233 -0.22198
 H228 H 1.12108 0.88828 -0.12956
 C229 C 0.77572 0.99483 0.24361
 C230 C 0.79140 0.93501 0.28773
 C231 C 0.86226 0.90872 0.28736
 C232 C 0.91165 0.93393 0.23368
 C233 C 0.89213 0.98553 0.17929
 C234 C 0.83374 1.02839 0.20800
 C235 C 0.70908 1.03082 0.25065
 C236 C 0.70942 1.10297 0.25427
 C237 C 0.77482 1.13742 0.24674
 C238 C 0.83494 1.10143 0.21884
 H239 H 0.66025 1.00420 0.26674
 H240 H 0.66078 1.13125 0.26916
 H241 H 0.77984 1.19196 0.26112
 H242 H 0.88063 1.13280 0.20873
 H243 H 0.87989 0.87030 0.32947
 H244 H 0.96629 0.91663 0.23931
 C245 C 0.86481 1.10170 -0.27234
 C246 C 0.83860 1.04615 -0.31571
 C247 C 0.87687 0.98439 -0.30094
 C248 C 0.92009 0.98093 -0.23008
 C249 C 0.90879 1.02748 -0.16503
 C250 C 0.87522 1.09278 -0.19073
 C251 C 0.87003 1.16654 -0.30622
 C252 C 0.85218 1.22325 -0.26062
 C253 C 0.83842 1.21452 -0.18094
 C254 C 0.85296 1.15082 -0.14606
 H255 H 0.87282 1.17150 -0.36969
 H256 H 0.84409 1.27093 -0.29049
 H257 H 0.82434 1.25782 -0.14405
 H258 H 0.84987 1.15054 -0.08470
 H259 H 0.87636 0.94178 -0.34360
 H260 H 0.96467 0.94570 -0.22760
 C261 C 1.20991 1.20923 0.05828
 C262 C 1.25840 1.18040 0.11556
 C263 C 1.24937 1.10984 0.12993
 C264 C 1.19462 1.07055 0.09165
 C265 C 1.14011 1.09794 0.04133
 C266 C 1.16022 1.16509 0.01324
 C267 C 1.22168 1.27759 0.03297
 C268 C 1.19884 1.29691 -0.04222
 C269 C 1.17058 1.24663 -0.09427
 C270 C 1.15515 1.18056 -0.06719
 H271 H 1.25482 1.31374 0.06787
 H272 H 1.21077 1.34821 -0.06285
 H273 H 1.16325 1.25783 -0.15633
 H274 H 1.14662 1.14036 -0.11130
 H275 H 1.29056 1.08246 0.16411
 H276 H 1.20022 1.01636 0.09583
 C277 C 0.69634 1.06621 -0.11279
 C278 C 0.66215 1.11364 -0.06085
 C279 C 0.69238 1.11791 0.01594
 C280 C 0.76128 1.09101 0.03476
 C281 C 0.80832 1.05640 -0.01823
 C282 C 0.76381 1.03179 -0.08875
 C283 C 0.65843 1.04422 -0.18303
 C284 C 0.68101 0.98748 -0.22722
 C285 C 0.73950 0.94913 -0.20091
 C286 C 0.77873 0.97049 -0.13353
 H287 H 0.60767 1.06671 -0.20254
 H288 H 0.65132 0.97215 -0.28080
 H289 H 0.75649 0.90340 -0.23430
 H290 H 0.82415 0.93921 -0.12168
 H291 H 0.66586 1.14797 0.06199
 H292 H 0.77708 1.09868 0.09391
 C293 C 1.26821 0.89288 -0.05428
 C294 C 1.26021 0.82399 -0.02992
 C295 C 1.20891 0.80947 0.02474
 C296 C 1.15695 0.85803 0.04323
 C297 C 1.14923 0.92177 0.00681
 C298 C 1.21303 0.94275 -0.03654
 C299 C 1.33003 0.91235 -0.09709
 C300 C 1.33796 0.97941 -0.12293
 C301 C 1.28330 1.02725 -0.11024
 C302 C 1.22194 1.00819 -0.07013
 H303 H 1.37295 0.87601 -0.11137
 H304 H 1.38524 0.99346 -0.15544
 H305 H 1.28673 1.07852 -0.13458
 H306 H 1.17901 1.04309 -0.07360
 H307 H 1.20857 0.75971 0.05342
 H308 H 1.12048 0.84279 0.08500
 C309 C 0.72893 0.81795 -0.01654
 C310 C 0.68722 0.85053 0.04413
 C311 C 0.71391 0.90930 0.08047
 C312 C 0.78000 0.93487 0.06102
 C313 C 0.83104 0.90400 0.01051
 C314 C 0.80314 0.84033 -0.02749
 C315 C 0.70326 0.75756 -0.05774
 C316 C 0.74895 0.71769 -0.10485
 C317 C 0.82203 0.73341 -0.10591
 C318 C 0.84821 0.79212 -0.06489
 H319 H 0.64904 0.73826 -0.05169
 H320 H 0.72878 0.67135 -0.13547
 H321 H 0.85931 0.69827 -0.13536
 H322 H 0.90421 0.79494 -0.05458
 H323 H 0.68196 0.93758 0.12371
 H324 H 0.79013 0.98120 0.08945
 C325 C 0.85259 0.52155 0.41320
 C326 C 0.83453 0.53515 0.33365
 C327 C 0.76166 0.53374 0.31171
 C328 C 0.70612 0.51938 0.36454
 C329 C 0.70533 0.52877 0.44667
 C330 C 0.78446 0.54633 0.47953
 C331 C 0.94327 0.52824 0.43776
 C332 C 0.98482 0.56469 0.51799
 C333 C 0.94365 0.60304 0.60118
 C334 C 0.85111 0.60548 0.60871
 H335 H 0.98268 0.50925 0.39697
 H336 H 0.96546 0.58590 0.56394
 H337 H 0.97142 0.62951 0.65842
 H338 H 0.82932 0.62793 0.66333
 H339 H 0.74792 0.53596 0.24935
 H340 H 0.65773 0.50133 0.33987
 C341 C 0.29465 0.50983 0.26479
 C342 C 0.26357 0.44341 0.26676
 C343 C 0.29390 0.39694 0.31873
 C344 C 0.35311 0.41597 0.36625
 C345 C 0.37735 0.48498 0.38225
 C346 C 0.34008 0.53381 0.32993
 C347 C 0.27496 0.55534 0.20361
 C348 C 0.28665 0.62625 0.21358
 C349 C 0.31364 0.65157 0.28594
 C350 C 0.33712 0.60519 0.34347
 H351 H 0.24668 0.53650 0.15041
 H352 H 0.26921 0.66167 0.16812
 H353 H 0.31521 0.70698 0.29834
 H354 H 0.34715 0.62505 0.40028
 H355 H 0.27555 0.34362 0.31866
 H356 H 0.38765 0.37331 0.37172
 C357 C 0.79915 0.49601 0.60895
 C358 C 0.80893 0.47273 0.68918
 C359 C 0.75601 0.49634 0.74361
 C360 C 0.68761 0.52478 0.71903
 C361 C 0.66873 0.53470 0.63835
 C362 C 0.73127 0.55547 0.60448
 C363 C 0.87321 0.50591 0.55182
 C364 C 0.87038 0.62398 0.48555
 C365 C 0.79507 0.66818 0.50531
 C366 C 0.73403 0.63504 0.56434
 H367 H 0.91622 0.46689 0.55744
 H368 H 0.91033 0.65002 0.45023
 H369 H 0.79137 0.72212 0.48948
 H370 H 0.71756 0.67509 0.60380
 H371 H 0.76743 0.49248 0.80651
 H372 H 0.65757 0.55071 0.76469
 C373 C 0.22679 0.49596 0.63086
 C374 C 0.24079 0.52585 0.70790
 C375 C 0.31040 0.51678 0.73846
 C376 C 0.36605 0.49371 0.68910
 C377 C 0.36094 0.49250 0.60527
 C378 C 0.28591 0.49070 0.57711
 C379 C 0.15537 0.48199 0.60133
 C380 C 0.14195 0.47121 0.52066
 C381 C 0.19646 0.48477 0.46870
 C382 C 0.26608 0.49864 0.49841
 H383 H 0.10874 0.48172 0.63812
 H384 H 0.08756 0.46058 0.49830
 H385 H 0.18337 0.49083 0.40665
 H386 H 0.29696 0.53447 0.46817
 H387 H 0.32136 0.52565 0.80103
 H388 H 0.41450 0.47932 0.71837
 C389 C 0.59221 0.64831 0.21797
 C390 C 0.56107 0.71313 0.23890
 C391 C 0.50898 0.71339 0.29619
 C392 C 0.49441 0.65414 0.33798
 C393 C 0.53401 0.59243 0.33674
 C394 C 0.57680 0.58682 0.26252
 C395 C 0.63136 0.64281 0.14652
 C396 C 0.64885 0.57959 0.11211
 C397 C 0.63074 0.52033 0.14920
 C398 C 0.59707 0.52435 0.22163
 H399 H 0.64527 0.68670 0.11241
 H400 H 0.67539 0.57655 0.05579
 H401 H 0.64473 0.47026 0.12280
 H402 H 0.59317 0.47555 0.24304
 H403 H 0.47527 0.75909 0.30548
 H404 H 0.45052 0.65823 0.37367
 C405 C 0.44704 0.60424 0.82482
 C406 C 0.41232 0.66756 0.80959
 C407 C 0.41697 0.69536 0.73594
 C408 C 0.45386 0.65994 0.67713
 C409 C 0.48494 0.59313 0.68372
 C410 C 0.48896 0.57092 0.76496
 C411 C 0.44314 0.57525 0.90078
 C412 C 0.48627 0.51901 0.92106
 C413 C 0.53238 0.49058 0.86572
 C414 C 0.53144 0.51556 0.78906
 H415 H 0.40808 0.59715 0.94549
 H416 H 0.48518 0.49866 0.98005
 H417 H 0.56864 0.44902 0.88228
 H418 H 0.56563 0.49355 0.74790
 H419 H 0.39842 0.74805 0.72588
 H420 H 0.46787 0.69244 0.63151
 C421 C 0.55115 0.31791 0.24145
 C422 C 0.47694 0.32450 0.21551
 C423 C 0.44739 0.38996 0.22675
 C424 C 0.47939 0.43637 0.28152
 C425 C 0.53289 0.41591 0.33825
 C426 C 0.57971 0.36484 0.30277
 C427 C 0.59903 0.27034 0.20529
 C428 C 0.67335 0.27690 0.21806
 C429 C 0.70072 0.32000 0.27896
 C430 C 0.65356 0.36078 0.32363
 H431 H 0.58121 0.23040 0.16366
 H432 H 0.70938 0.24780 0.18016
 H433 H 0.75855 0.32194 0.29151
 H434 H 0.67515 0.39185 0.37149
 H435 H 0.40041 0.40611 0.19194
 H436 H 0.46166 0.48930 0.27843
 C437 C 0.57047 0.33111 0.78480
 C438 C 0.51134 0.28734 0.78735
 C439 C 0.45076 0.30385 0.73962
 C440 C 0.45254 0.35993 0.68734
 C441 C 0.51663 0.39845 0.67242
 C442 C 0.57889 0.37377 0.71847
 C443 C 0.62727 0.32674 0.84174
 C444 C 0.69699 0.33678 0.81798
 C445 C 0.70730 0.35326 0.74018
 C446 C 0.65082 0.38242 0.69777
 H447 H 0.61892 0.30816 0.90066
 H448 H 0.74124 0.32994 0.85881
 H449 H 0.75842 0.35098 0.71261
 H450 H 0.66690 0.40895 0.64781
 H451 H 0.40177 0.27343 0.74255
 H452 H 0.40340 0.36939 0.65532
 C453 C 0.62721 0.77997 0.55210
 C454 C 0.64653 0.79071 0.47098
 C455 C 0.64824 0.73375 0.42007
 C456 C 0.62965 0.67007 0.44384
 C457 C 0.59758 0.65706 0.51636
 C458 C 0.60124 0.71292 0.57433
 C459 C 0.64322 0.82941 0.61398
 C460 C 0.62919 0.81596 0.69257
 C461 C 0.60899 0.75047 0.71364
 C462 C 0.60018 0.69904 0.65571
 H463 H 0.67165 0.87692 0.60474
 H464 H 0.63964 0.85434 0.73869
 H465 H 0.60556 0.73806 0.77549
 H466 H 0.60074 0.64706 0.67566
 H467 H 0.66287 0.73671 0.35893
 H468 H 0.64146 0.63113 0.40105
 C469 C 0.71572 0.25706 0.52910
 C470 C 0.66885 0.21107 0.56560
 C471 C 0.60159 0.23360 0.58616
 C472 C 0.57901 0.29975 0.56883
 C473 C 0.62163 0.35287 0.53516
 C474 C 0.69457 0.32859 0.51897
 C475 C 0.78394 0.23315 0.50324
 C476 C 0.83340 0.27901 0.47348
 C477 C 0.81637 0.34910 0.47163
 C478 C 0.74854 0.37264 0.49594
 H479 H 0.79970 0.17904 0.50620
 H480 H 0.88574 0.26048 0.45413
 H481 H 0.85609 0.38516 0.45166
 H482 H 0.73810 0.42517 0.49956
 H483 H 0.56400 0.19829 0.61242
 H484 H 0.52388 0.30513 0.58098
 C485 C 0.31276 0.74366 0.52721
 C486 C 0.35842 0.80001 0.53788
 C487 C 0.42927 0.78790 0.51397
 C488 C 0.45340 0.72032 0.49407
 C489 C 0.41693 0.65655 0.51204
 C490 C 0.34219 0.67500 0.53569
 C491 C 0.23748 0.75438 0.51734
 C492 C 0.19096 0.70380 0.54091
 C493 C 0.22097 0.64845 0.58068
 C494 C 0.29691 0.63661 0.58106
 H495 H 0.21529 0.80386 0.49909
 H496 H 0.13288 0.71255 0.53934
 H497 H 0.18461 0.61915 0.61472
 H498 H 0.32178 0.60913 0.62764
 H499 H 0.46726 0.83029 0.51038
 H500 H 0.50273 0.72187 0.46458
 C501 C 0.41197 0.22550 0.42068
 C502 C 0.34185 0.22472 0.45065
 C503 C 0.32091 0.28057 0.49892
 C504 C 0.36679 0.33770 0.51482
 C505 C 0.43885 0.34400 0.48774
 C506 C 0.46095 0.28193 0.44035
 C507 C 0.43552 0.16734 0.37408
 C508 C 0.50721 0.15936 0.35404
 C509 C 0.55557 0.21054 0.37635
 C510 C 0.53115 0.27105 0.41375
 H511 H 0.39948 0.12588 0.35485
 H512 H 0.52514 0.11350 0.32151
 H513 H 0.61215 0.20534 0.36203
 H514 H 0.56995 0.30879 0.42244
 H515 H 0.26807 0.28003 0.52544
 H516 H 0.34224 0.37816 0.54724
   
