data_POSCAR
  _audit_creation_date              2014-09-24
  _audit_creation_method            'ToBaCCo'
  _symmetry_space_group_name_H-M    'P1'
  _symmetry_Int_Tables_number       1
  _symmetry_cell_setting            triclinic
  loop_
  _symmetry_equiv_pos_as_xyz
 x,y,z
_cell_length_a 33.2427
_cell_length_b 33.2843
_cell_length_c 67.1116
_cell_angle_alpha 87.970700
_cell_angle_beta 91.031000
_cell_angle_gamma 120.083200
loop_
  _atom_site_label
  _atom_site_type_symbol
  _atom_site_fract_x
  _atom_site_fract_y
  _atom_site_fract_z
C1 C 0.01709 0.07686 0.52709
 H2 H 0.04983 0.07727 0.52681
 C3 C 0.01242 0.10823 0.53869
 H4 H 0.04158 0.13281 0.54746
 C5 C -0.06052 0.04522 0.51551
 H6 H -0.08849 0.02122 0.50615
 C7 C -0.06665 0.07613 0.52692
 H8 H -0.09948 0.07564 0.52646
 N9 N -0.01912 0.04610 0.51587
 C10 C 0.01292 -0.06353 0.50598
 H11 H 0.01387 -0.06269 0.48986
 C12 C 0.01767 -0.09746 0.51687
 H13 H 0.02258 -0.12272 0.50914
 C14 C 0.00296 -0.03319 0.53578
 H15 H -0.00416 -0.00901 0.54307
 C16 C 0.00754 -0.06655 0.54722
 H17 H 0.00442 -0.06763 0.56330
 Zn18 Zn -0.00712 0.00804 0.49963
 N19 N 0.00558 -0.03237 0.51553
 C20 C 0.08483 0.04758 0.48389
 N21 N 0.04434 0.04852 0.48345
 C22 C 0.03994 0.08095 0.47223
 C23 C 0.07708 0.11405 0.46072
 C24 C 0.12294 0.08019 0.47258
 C25 C -0.09846 -0.06266 0.49320
 C26 C -0.13634 -0.09525 0.48229
 C27 C -0.09282 -0.05989 0.45196
 C28 C -0.05578 -0.02799 0.46345
 N29 N -0.05917 -0.03006 0.48369
 H30 H 0.08793 0.02221 0.49326
 H31 H 0.00760 0.08133 0.47243
 H32 H 0.07334 0.13995 0.45194
 H33 H 0.15524 0.07962 0.47312
 H34 H -0.09981 -0.06410 0.50932
 H35 H -0.16705 -0.12166 0.49009
 H36 H -0.08928 -0.05853 0.43588
 H37 H -0.02386 -0.00268 0.45620
 C38 C 0.01452 -0.09922 0.53767
 C39 C -0.02974 0.10799 0.53855
 C40 C -0.13331 -0.09416 0.46148
 C41 C 0.11899 0.11378 0.46095
 C42 C 1.09020 0.03541 0.13927
 H43 H 1.09073 0.06817 0.13936
 C44 C 1.12225 0.03111 0.12774
 H45 H 1.14751 0.06058 0.11885
 C46 C 1.05745 -0.04270 0.15118
 H47 H 1.03272 -0.07103 0.16063
 C48 C 1.08902 -0.04847 0.13986
 H49 H 1.08830 -0.08139 0.14048
 N50 N 1.05854 -0.00123 0.15061
 C51 C 0.94798 0.03020 0.15999
 H52 H 0.94766 0.03037 0.17610
 C53 C 0.91462 0.03522 0.14898
 H54 H 0.88865 0.03955 0.15661
 C55 C 0.98059 0.02182 0.13035
 H56 H 1.00540 0.01518 0.12317
 C57 C 0.94785 0.02670 0.11879
 H58 H 0.94788 0.02429 0.10273
 Zn59 Zn 1.01930 0.01002 0.16666
 N60 N 0.97996 0.02347 0.15058
 C61 C 1.05754 0.10095 0.18217
 N62 N 1.05863 0.06058 0.18271
 C63 C 1.09032 0.05561 0.19402
 C64 C 1.12239 0.09198 0.20556
 C65 C 1.08913 0.13831 0.19351
 C66 C 0.94798 -0.08154 0.17338
 C67 C 0.91465 -0.11992 0.18440
 C68 C 0.94803 -0.07807 0.21458
 C69 C 0.98073 -0.04045 0.20299
 N70 N 0.98001 -0.04277 0.18277
 H71 H 1.03278 0.10454 0.17274
 H72 H 1.09085 0.02338 0.19390
 H73 H 1.14766 0.08777 0.21444
 H74 H 1.08841 0.17051 0.19293
 H75 H 0.94759 -0.08207 0.15726
 H76 H 0.88864 -0.15027 0.17679
 H77 H 0.94813 -0.07557 0.23063
 H78 H 1.00559 -0.00895 0.21016
 C79 C 0.91431 0.03299 0.12821
 C80 C 1.12176 -0.01114 0.12809
 C81 C 0.91443 -0.11795 0.20518
 C82 C 1.12189 0.13372 0.20526
 C83 C 0.03983 0.95845 0.86092
 H84 H 0.00751 0.92567 0.86069
 C85 C 0.07695 0.96256 0.87245
 H86 H 0.07323 0.93293 0.88123
 C87 C 0.08468 1.03678 0.84928
 H88 H 0.08778 1.06527 0.83992
 C89 C 0.12278 1.04236 0.86062
 H90 H 0.15506 1.07529 0.86011
 N91 N 0.04421 0.99528 0.84970
 C92 C -0.09861 0.96342 0.83993
 H93 H -0.09998 0.96351 0.82381
 C94 C -0.13647 0.95807 0.85084
 H95 H -0.16722 0.95375 0.84308
 C96 C -0.05590 0.97149 0.86968
 H97 H -0.02397 0.97816 0.87694
 C98 C -0.09295 0.96629 0.88116
 H99 H -0.08948 0.96848 0.89724
 Zn100 Zn -0.00725 0.98421 0.83351
 N101 N -0.05930 0.97017 0.84944
 C102 C -0.06063 0.89356 0.81760
 N103 N -0.01922 0.93414 0.81727
 C104 C 0.01700 0.93964 0.80607
 C105 C 0.01235 0.90362 0.79446
 C106 C -0.06674 0.85653 0.80619
 C107 C 0.01275 1.07583 0.82715
 C108 C 0.01747 1.11450 0.81626
 C109 C 0.00735 1.07343 0.78591
 C110 C 0.00281 1.03551 0.79736
 N111 N 0.00542 1.03732 0.81761
 H112 H -0.08861 0.88956 0.82695
 H113 H 0.04973 0.97201 0.80636
 H114 H 0.04152 0.90823 0.78571
 H115 H -0.09958 0.82415 0.80663
 H116 H 0.01370 1.07596 0.84327
 H117 H 0.02235 1.14467 0.82399
 H118 H 0.00423 1.07138 0.76983
 H119 H -0.00429 1.00420 0.79007
 C120 C -0.13341 0.96001 0.87164
 C121 C 0.11884 1.00481 0.87225
 C122 C 0.01430 1.11308 0.79547
 C123 C -0.02981 0.86164 0.79458
 C124 C 0.50750 -0.00344 0.00969
 C125 C 0.50576 -0.00521 -0.01059
 C126 C 0.46912 -0.00165 -0.02222
 C127 C 0.54036 -0.01085 -0.02208
 C128 C 0.54866 0.00209 0.02109
 C129 C 0.46835 -0.00679 0.02143
 C130 C 0.44272 -0.03504 -0.03636
 C131 C 0.40811 -0.03201 -0.04729
 C132 C 0.39977 0.00462 -0.04432
 C133 C 0.42642 0.03843 -0.03048
 C134 C 0.46109 0.03547 -0.01955
 C135 C 0.54912 -0.04724 -0.01731
 C136 C 0.58162 -0.05235 -0.02822
 C137 C 0.60535 -0.02144 -0.04413
 C138 C 0.59630 0.01447 -0.04914
 C139 C 0.56385 0.01965 -0.03823
 C140 C 0.59359 0.03845 0.01627
 C141 C 0.63206 0.04356 0.02714
 C142 C 0.62599 0.01269 0.04306
 C143 C 0.58129 -0.02321 0.04811
 C144 C 0.54280 -0.02839 0.03724
 C145 C 0.47683 0.02665 0.03559
 C146 C 0.44019 0.02379 0.04664
 C147 C 0.39477 -0.01269 0.04375
 C148 C 0.38614 -0.04654 0.02988
 C149 C 0.42275 -0.04376 0.01884
 H150 H 0.44855 -0.06374 -0.03873
 H151 H 0.38773 -0.05830 -0.05800
 H152 H 0.42040 0.06703 -0.02814
 H153 H 0.48168 0.06210 -0.00902
 H154 H 0.53069 -0.07172 -0.00517
 H155 H 0.58819 -0.08039 -0.02428
 H156 H 0.55740 0.04773 -0.04223
 H157 H 0.59879 0.06292 0.00414
 H158 H 0.66647 0.07160 0.02317
 H159 H 0.57620 -0.04723 0.06043
 H160 H 0.50846 -0.05643 0.04128
 H161 H 0.51174 0.05524 0.03791
 H162 H 0.44726 0.05012 0.05737
 H163 H 0.35115 -0.07504 0.02760
 H164 H 0.41559 -0.07044 0.00829
 H165 H 0.61442 0.03853 -0.06145
 C166 C -0.01762 0.49011 0.67672
 C167 C -0.01759 0.49172 0.65640
 C168 C -0.02189 0.45258 0.64473
 C169 C -0.01276 0.53290 0.64487
 C170 C -0.02193 0.52494 0.68838
 C171 C -0.01284 0.45374 0.68825
 C172 C 0.01027 0.46108 0.62958
 C173 C 0.00660 0.42446 0.61862
 C174 C -0.02944 0.37902 0.62258
 C175 C -0.06205 0.37035 0.63746
 C176 C -0.05845 0.40696 0.64842
 C177 C 0.02423 0.57770 0.64866
 C178 C 0.02867 0.61621 0.63770
 C179 C -0.00351 0.61031 0.62271
 C180 C -0.04006 0.56573 0.61867
 C181 C -0.04457 0.52719 0.62964
 C182 C -0.05846 0.53400 0.68467
 C183 C -0.06205 0.56701 0.69562
 C184 C -0.02948 0.59097 0.71052
 C185 C 0.00652 0.58157 0.71451
 C186 C 0.01019 0.54861 0.70356
 C187 C -0.04470 0.42758 0.70345
 C188 C -0.04023 0.39354 0.71443
 C189 C -0.00367 0.38555 0.71042
 C190 C 0.02855 0.41189 0.69546
 C191 C 0.02415 0.44597 0.68449
 H192 H 0.03853 0.49600 0.62643
 H193 H 0.03198 0.43155 0.60712
 H194 H -0.09018 0.33534 0.64059
 H195 H -0.08416 0.39977 0.65976
 H196 H 0.04970 0.58277 0.66006
 H197 H 0.05721 0.65052 0.64087
 H198 H -0.07312 0.49294 0.62640
 H199 H -0.08413 0.51548 0.67330
 H200 H -0.09016 0.57388 0.69247
 H201 H 0.03188 0.59986 0.72603
 H202 H 0.03844 0.54197 0.70673
 H203 H -0.07326 0.43325 0.70668
 H204 H -0.06530 0.37342 0.72601
 H205 H 0.05710 0.40615 0.69231
 H206 H 0.04966 0.46642 0.67312
 H207 H -0.06509 0.56078 0.60707
 C208 C 0.50627 0.51157 0.34417
 C209 C 0.50795 0.51160 0.32389
 C210 C 0.54910 0.54727 0.31249
 C211 C 0.46874 0.47582 0.31214
 C212 C 0.46964 0.47130 0.35579
 C213 C 0.54094 0.55178 0.35569
 C214 C 0.54324 0.57195 0.29638
 C215 C 0.58172 0.60528 0.28550
 C216 C 0.62641 0.61405 0.29052
 C217 C 0.63248 0.58920 0.30641
 C218 C 0.59402 0.55582 0.31729
 C219 C 0.42317 0.46718 0.31476
 C220 C 0.38650 0.43336 0.30371
 C221 C 0.39506 0.40817 0.28980
 C222 C 0.44045 0.41710 0.28690
 C223 C 0.47714 0.45087 0.29795
 C224 C 0.46154 0.42613 0.35306
 C225 C 0.42684 0.38843 0.36395
 C226 C 0.40021 0.39553 0.37781
 C227 C 0.40862 0.44050 0.38084
 C228 C 0.44327 0.47823 0.36995
 C229 C 0.56445 0.54472 0.37181
 C230 C 0.59699 0.58232 0.38273
 C231 C 0.60610 0.62733 0.37776
 C232 C 0.58235 0.63457 0.36188
 C233 C 0.54977 0.59699 0.35095
 H234 H 0.50891 0.56568 0.29236
 H235 H 0.57663 0.62426 0.27320
 H236 H 0.66689 0.59555 0.31036
 H237 H 0.59922 0.53650 0.32940
 H238 H 0.41607 0.48667 0.32534
 H239 H 0.35154 0.42686 0.30601
 H240 H 0.51202 0.45719 0.29562
 H241 H 0.48211 0.42014 0.34251
 H242 H 0.42076 0.35380 0.36156
 H243 H 0.38826 0.44638 0.39156
 H244 H 0.44916 0.51277 0.37236
 H245 H 0.55795 0.51014 0.37578
 H246 H 0.61512 0.57633 0.39502
 H247 H 0.58898 0.66923 0.35797
 H248 H 0.53133 0.60309 0.33884
 H249 H 0.44745 0.39785 0.27615
 C250 C -0.03618 0.20743 0.57066
 C251 C -0.04588 0.19523 0.59299
 C252 C -0.04543 0.22965 0.60358
 C253 C -0.03533 0.27288 0.59080
 C254 C -0.07206 0.25483 0.57419
 C255 C -0.07251 0.22039 0.56359
 C256 C 0.01042 0.25322 0.56973
 C257 C 0.01087 0.28759 0.58031
 C258 C -0.03593 0.17079 0.55924
 C259 C -0.03407 0.14159 0.54982
 C260 C -0.03432 0.31020 0.60218
 C261 C -0.03253 0.34136 0.61150
 H262 H -0.05257 0.16243 0.59986
 H263 H -0.05173 0.22635 0.61953
 H264 H -0.09566 0.26790 0.57104
 H265 H -0.09648 0.20395 0.55137
 H266 H 0.04047 0.25821 0.56148
 H267 H 0.04128 0.32201 0.58112
 C268 C 0.80765 0.77760 0.23793
 C269 C 0.79815 0.79508 0.25716
 C270 C 0.76168 0.76152 0.26792
 C271 C 0.73825 0.71375 0.25840
 C272 C 0.77756 0.70300 0.25543
 C273 C 0.81408 0.73660 0.24466
 C274 C 0.76137 0.75568 0.22653
 C275 C 0.72490 0.72213 0.23729
 C276 C 0.84663 0.81402 0.22631
 C277 C 0.87797 0.84465 0.21670
 C278 C 0.69876 0.67782 0.26995
 C279 C 0.66594 0.64861 0.27937
 H280 H 0.81835 0.83068 0.26193
 H281 H 0.75063 0.76838 0.28190
 H282 H 0.77679 0.67179 0.26128
 H283 H 0.84459 0.73418 0.24127
 H284 H 0.75757 0.76561 0.21133
 H285 H 0.68987 0.70333 0.23131
 C286 C 0.22818 0.01050 -0.09589
 C287 C 0.27311 0.02880 -0.10798
 C288 C 0.30838 0.02836 -0.09748
 C289 C 0.29525 0.00966 -0.07593
 C290 C 0.25188 -0.03853 -0.07770
 C291 C 0.21665 -0.03809 -0.08819
 C292 C 0.24251 0.04023 -0.07729
 C293 C 0.27780 0.03979 -0.06679
 C294 C 0.18994 0.01033 -0.10720
 C295 C 0.15787 0.00869 -0.11655
 C296 C 0.33299 0.00874 -0.06465
 C297 C 0.36362 0.00720 -0.05538
 H298 H 0.27691 0.04109 -0.12341
 H299 H 0.34239 0.04026 -0.10392
 H300 H 0.24908 -0.07024 -0.07128
 H301 H 0.18367 -0.06943 -0.09074
 H302 H 0.22642 0.05993 -0.07279
 H303 H 0.29193 0.05911 -0.05329
 C304 C 0.01243 0.79275 0.57015
 C305 C 0.00162 0.79238 0.59232
 C306 C -0.00106 0.75557 0.60303
 C307 C 0.00733 0.72272 0.59053
 C308 C 0.05482 0.75379 0.58060
 C309 C 0.05750 0.79064 0.56987
 C310 C -0.02543 0.74542 0.56275
 C311 C -0.02810 0.70863 0.57346
 C312 C 0.01477 0.83211 0.55860
 C313 C 0.01541 0.86382 0.54907
 C314 C 0.00410 0.68292 0.60205
 C315 C 0.00086 0.64993 0.61148
 H316 H -0.00343 0.81875 0.59902
 H317 H -0.00840 0.75040 0.61891
 H318 H 0.08377 0.74743 0.58188
 H319 H 0.08874 0.81584 0.56197
 H320 H -0.04812 0.74118 0.55019
 H321 H -0.05309 0.67289 0.57008
 C322 C 0.22249 0.24067 0.23749
 C323 C 0.26035 0.22981 0.24444
 C324 C 0.29500 0.26421 0.25507
 C325 C 0.28845 0.30617 0.25774
 C326 C 0.24018 0.28602 0.26724
 C327 C 0.20548 0.25155 0.25658
 C328 C 0.24853 0.28727 0.22586
 C329 C 0.28322 0.32172 0.23651
 C330 C 0.18552 0.20331 0.22601
 C331 C 0.15600 0.17194 0.21656
 C332 C 0.32602 0.34302 0.26920
 C333 C 0.35732 0.37290 0.27859
 H334 H 0.25998 0.19785 0.24128
 H335 H 0.32429 0.26173 0.26102
 H336 H 0.23381 0.29779 0.28109
 H337 H 0.16939 0.23381 0.26130
 H338 H 0.24040 0.29275 0.21062
 H339 H 0.30481 0.35671 0.23039
 C340 C 0.76575 -0.03838 -0.09648
 C341 C 0.72337 -0.08591 -0.09120
 C342 C 0.69036 -0.08319 -0.08050
 C343 C 0.70303 -0.03320 -0.07614
 C344 C 0.71278 -0.00815 -0.09663
 C345 C 0.74574 -0.01086 -0.10732
 C346 C 0.78350 -0.01472 -0.07645
 C347 C 0.75054 -0.01200 -0.06576
 C348 C 0.80156 -0.04067 -0.10802
 C349 C 0.83173 -0.04111 -0.11755
 C350 C 0.66776 -0.02984 -0.06465
 C351 C 0.63914 -0.02633 -0.05527
 H352 H 0.71961 -0.11877 -0.09549
 H353 H 0.65832 -0.11372 -0.07562
 H354 H 0.69530 0.01009 -0.10226
 H355 H 0.75647 0.00504 -0.12211
 H356 H 0.81886 -0.00132 -0.07111
 H357 H 0.75766 0.00373 -0.05127
 C358 C 0.22235 -0.01752 0.09595
 C359 C 0.24900 0.02584 0.08234
 C360 C 0.28363 0.02605 0.07173
 C361 C 0.28827 -0.01712 0.07574
 C362 C 0.23986 -0.05851 0.07147
 C363 C 0.20517 -0.05872 0.08210
 C364 C 0.25973 -0.01944 0.10904
 C365 C 0.29439 -0.01923 0.09841
 C366 C 0.18540 -0.01710 0.10740
 C367 C 0.15587 -0.01525 0.11683
 C368 C 0.32581 -0.01644 0.06432
 C369 C 0.35708 -0.01508 0.05494
 H370 H 0.24132 0.05393 0.08114
 H371 H 0.30561 0.05431 0.06143
 H372 H 0.23342 -0.08528 0.06102
 H373 H 0.16901 -0.08567 0.08077
 H374 H 0.25902 -0.02090 0.12522
 H375 H 0.32337 -0.02050 0.10550
 C376 C 0.76705 0.80467 0.43006
 C377 C 0.72390 0.77104 0.44234
 C378 C 0.69081 0.73533 0.43165
 C379 C 0.70412 0.73675 0.40975
 C380 C 0.75107 0.73836 0.41047
 C381 C 0.78412 0.77403 0.42113
 C382 C 0.74834 0.82064 0.41226
 C383 C 0.71523 0.78491 0.40157
 C384 C 0.80297 0.84279 0.44158
 C385 C 0.83322 0.87341 0.45111
 C386 C 0.66873 0.69811 0.39828
 C387 C 0.64001 0.66600 0.38890
 H388 H 0.71969 0.77496 0.45802
 H389 H 0.65825 0.70865 0.43820
 H390 H 0.75777 0.71365 0.40322
 H391 H 0.81914 0.77987 0.42302
 H392 H 0.76002 0.85679 0.40840
 H393 H 0.69855 0.79045 0.38855
 C394 C 0.01217 0.21899 0.76297
 C395 C 0.04407 0.23686 0.74462
 C396 C 0.04140 0.27103 0.73391
 C397 C 0.00709 0.28394 0.74260
 C398 C 0.02285 0.29652 0.76425
 C399 C 0.02552 0.26237 0.77496
 C400 C -0.03665 0.20396 0.75483
 C401 C -0.03932 0.23808 0.74412
 C402 C 0.01451 0.18197 0.77452
 C403 C 0.01517 0.15092 0.78406
 C404 C 0.00387 0.32051 0.73108
 C405 C 0.00066 0.35028 0.72165
 H406 H 0.06676 0.22387 0.74043
 H407 H 0.06181 0.28731 0.72053
 H408 H 0.03122 0.32938 0.77060
 H409 H 0.03618 0.26597 0.79049
 H410 H -0.06653 0.16950 0.75725
 H411 H -0.07147 0.23285 0.73739
 C412 C 0.80742 0.03058 0.09554
 C413 C 0.76896 0.02893 0.10846
 C414 C 0.73242 0.02597 0.09773
 C415 C 0.73792 0.02493 0.07512
 C416 C 0.74630 -0.01579 0.07214
 C417 C 0.78282 -0.01282 0.08287
 C418 C 0.82106 0.07165 0.08076
 C419 C 0.78449 0.06868 0.07002
 C420 C 0.84644 0.03317 0.10713
 C421 C 0.87781 0.03390 0.11671
 C422 C 0.69839 0.02134 0.06360
 C423 C 0.66553 0.01769 0.05420
 H424 H 0.77033 0.03007 0.12462
 H425 H 0.70250 0.02456 0.10470
 H426 H 0.72542 -0.04443 0.06244
 H427 H 0.79320 -0.03893 0.08235
 H428 H 0.85629 0.10050 0.07890
 H429 H 0.78840 0.09499 0.05895
 C430 C 0.22842 0.21770 0.42919
 C431 C 0.26858 0.20923 0.42456
 C432 C 0.30392 0.24504 0.41409
 C433 C 0.29556 0.28574 0.40930
 C434 C 0.28638 0.29965 0.42955
 C435 C 0.25110 0.26390 0.44000
 C436 C 0.21335 0.22835 0.40887
 C437 C 0.24864 0.26411 0.39841
 C438 C 0.19013 0.17954 0.44047
 C439 C 0.15804 0.14904 0.44979
 C440 C 0.33334 0.32448 0.39806
 C441 C 0.36401 0.35672 0.38883
 H442 H 0.26921 0.17792 0.42909
 H443 H 0.33483 0.24441 0.40965
 H444 H 0.30591 0.33452 0.43520
 H445 H 0.24042 0.26814 0.45460
 H446 H 0.17807 0.20942 0.40317
 H447 H 0.24358 0.27581 0.38377
 C448 C -0.03623 0.75580 0.76244
 C449 C -0.02476 0.76888 0.74027
 C450 C -0.02431 0.73492 0.72968
 C451 C -0.03538 0.69121 0.74229
 C452 C -0.08246 0.67605 0.75210
 C453 C -0.08290 0.71004 0.76270
 C454 C -0.00048 0.74250 0.77001
 C455 C -0.00004 0.70857 0.75942
 C456 C -0.03599 0.79268 0.77386
 C457 C -0.03413 0.82372 0.78329
 C458 C -0.03437 0.65491 0.73091
 C459 C -0.03257 0.62554 0.72160
 H460 H -0.01767 0.80188 0.73348
 H461 H -0.01685 0.73884 0.71382
 H462 H -0.11275 0.64169 0.75082
 H463 H -0.11357 0.70482 0.77051
 H464 H 0.02247 0.75833 0.78260
 H465 H 0.02329 0.69535 0.76295
   
