data_POSCAR
  _audit_creation_date              2014-09-24
  _audit_creation_method            'ToBaCCo'
  _symmetry_space_group_name_H-M    'P1'
  _symmetry_Int_Tables_number       1
  _symmetry_cell_setting            triclinic
  loop_
  _symmetry_equiv_pos_as_xyz
 x,y,z
_cell_length_a 62.4264
_cell_length_b 62.6185
_cell_length_c 22.8175
_cell_angle_alpha 89.995800
_cell_angle_beta 90.213000
_cell_angle_gamma 119.955500
loop_
  _atom_site_label
  _atom_site_type_symbol
  _atom_site_fract_x
  _atom_site_fract_y
  _atom_site_fract_z
C1 C 0.30293 0.51099 0.55552
 C2 C 0.31349 0.51083 0.50151
 C3 C 0.30085 0.50737 0.44870
 C4 C 0.27749 0.50572 0.44841
 C5 C 0.26645 0.50632 0.50212
 C6 C 0.27902 0.50862 0.55602
 C7 C 0.26795 0.51001 0.60831
 C8 C 0.24483 0.50812 0.60820
 C9 C 0.23227 0.50636 0.55551
 C10 C 0.24299 0.50500 0.50178
 C11 C 0.26542 0.50453 0.39553
 C12 C 0.24265 0.50344 0.39512
 C13 C 0.23051 0.50265 0.44765
 C14 C 0.20707 0.50129 0.44763
 C15 C 0.19677 0.50223 0.50141
 C16 C 0.20882 0.50484 0.55508
 H17 H 0.27712 0.51295 0.65022
 H18 H 0.23704 0.50809 0.65038
 H19 H 0.27382 0.50511 0.35371
 H20 H 0.23506 0.50385 0.35280
 H21 H 0.33129 0.51168 0.50061
 H22 H 0.17872 0.50085 0.50158
 C23 C 0.49199 -0.20905 0.55237
 C24 C 0.49262 -0.19781 0.49901
 C25 C 0.49182 -0.20912 0.44559
 C26 C 0.49078 -0.23219 0.44497
 C27 C 0.49085 -0.24351 0.49869
 C28 C 0.49126 -0.23198 0.55266
 C29 C 0.49120 -0.24353 0.60543
 C30 C 0.49055 -0.26604 0.60533
 C31 C 0.49030 -0.27770 0.55246
 C32 C 0.49049 -0.26638 0.49850
 C33 C 0.48966 -0.24420 0.39212
 C34 C 0.48891 -0.26679 0.39191
 C35 C 0.49014 -0.27795 0.44445
 C36 C 0.48937 -0.30109 0.44487
 C37 C 0.48825 -0.31221 0.49910
 C38 C 0.48936 -0.30066 0.55223
 H39 H 0.49161 -0.23528 0.64740
 H40 H 0.49005 -0.27432 0.64730
 H41 H 0.48909 -0.23634 0.35030
 H42 H 0.48685 -0.27559 0.34990
 H43 H 0.49346 -0.18008 0.49903
 H44 H 0.48842 -0.32946 0.50043
 C45 C 1.20260 0.70599 0.54708
 C46 C 1.19275 0.69643 0.49144
 C47 C 1.20647 0.70581 0.44039
 C48 C 1.23054 0.72631 0.44334
 C49 C 1.24107 0.73672 0.49854
 C50 C 1.22727 0.72638 0.55081
 C51 C 1.23799 0.73779 0.60453
 C52 C 1.26169 0.75815 0.60729
 C53 C 1.27531 0.76923 0.55622
 C54 C 1.26514 0.75801 0.50115
 C55 C 1.24387 0.73720 0.39207
 C56 C 1.26716 0.75801 0.39451
 C57 C 1.27859 0.76844 0.44846
 C58 C 1.30226 0.79006 0.45124
 C59 C 1.31204 0.80033 0.50623
 C60 C 1.29913 0.79069 0.55866
 H61 H 1.22814 0.73152 0.64539
 H62 H 1.26910 0.76513 0.65039
 H63 H 1.23608 0.73012 0.34918
 H64 H 1.27568 0.76606 0.35314
 H65 H 1.17432 0.68051 0.48769
 H66 H 1.33003 0.81696 0.50796
 C67 C 0.71006 0.50698 0.44897
 C68 C 0.70073 0.50887 0.50306
 C69 C 0.70875 0.50373 0.55608
 C70 C 0.72830 0.49824 0.55482
 C71 C 0.73858 0.49710 0.50016
 C72 C 0.72903 0.50093 0.44705
 C73 C 0.73915 0.49925 0.39351
 C74 C 0.75812 0.49372 0.39190
 C75 C 0.76835 0.49053 0.44383
 C76 C 0.75878 0.49257 0.49855
 C77 C 0.73892 0.49538 0.60659
 C78 C 0.75861 0.49093 0.60493
 C79 C 0.76953 0.49036 0.55159
 C80 C 0.79020 0.48653 0.54968
 C81 C 0.79803 0.48281 0.49488
 C82 C 0.78782 0.48521 0.44244
 H83 H 0.73256 0.50229 0.35218
 H84 H 0.76486 0.49217 0.34938
 H85 H 0.73256 0.49707 0.64937
 H86 H 0.76502 0.48774 0.64630
 H87 H 0.68574 0.51293 0.50331
 H88 H 0.81394 0.48021 0.49225
 C89 C 0.49920 0.29472 0.55313
 C90 C 0.50118 0.30626 0.49897
 C91 C 0.49930 0.29447 0.44567
 C92 C 0.49658 0.27069 0.44542
 C93 C 0.49537 0.25887 0.49935
 C94 C 0.49675 0.27084 0.55341
 C95 C 0.49750 0.25933 0.60587
 C96 C 0.49516 0.23604 0.60564
 C97 C 0.49279 0.22354 0.55286
 C98 C 0.49330 0.23519 0.49914
 C99 C 0.49582 0.25878 0.39256
 C100 C 0.49362 0.23557 0.39243
 C101 C 0.49226 0.22342 0.44516
 C102 C 0.49066 0.20009 0.44543
 C103 C 0.49008 0.18886 0.49869
 C104 C 0.49090 0.20008 0.55219
 H105 H 0.50061 0.26845 0.64780
 H106 H 0.49584 0.22815 0.64735
 H107 H 0.49735 0.26747 0.35061
 H108 H 0.49339 0.22741 0.35046
 H109 H 0.50239 0.32416 0.49784
 H110 H 0.48866 0.17086 0.49850
 C111 C 0.70432 0.20735 0.44498
 C112 C 0.69215 0.19634 0.49705
 C113 C 0.70211 0.20651 0.55217
 C114 C 0.72446 0.22963 0.55460
 C115 C 0.73690 0.24115 0.50178
 C116 C 0.72692 0.22983 0.44687
 C117 C 0.73942 0.24160 0.39519
 C118 C 0.76136 0.26405 0.39719
 C119 C 0.77144 0.27582 0.45090
 C120 C 0.75916 0.26431 0.50373
 C121 C 0.73371 0.24250 0.60775
 C122 C 0.75549 0.26513 0.60964
 C123 C 0.76888 0.27610 0.55838
 C124 C 0.79127 0.29898 0.55993
 C125 C 0.80321 0.30989 0.50733
 C126 C 0.79353 0.29882 0.45317
 H127 H 0.73224 0.23367 0.35251
 H128 H 0.77027 0.27220 0.35605
 H129 H 0.72383 0.23558 0.64847
 H130 H 0.76143 0.27415 0.65178
 H131 H 0.67531 0.17858 0.49427
 H132 H 0.82039 0.32738 0.50852
 O133 O 0.97058 0.44735 0.11326
 O134 O 0.94139 0.45089 0.05949
 C135 C 0.94784 0.44087 0.10075
 O136 O 1.03664 0.55771 0.09825
 O137 O 1.06419 0.55121 0.04590
 C138 C 1.05893 0.56367 0.08290
 O139 O 0.96793 0.51977 0.11051
 O140 O 0.94018 0.48597 0.05776
 C141 C 0.94557 0.50259 0.09800
 O142 O 1.03929 0.48090 0.10147
 O143 O 1.06519 0.51493 0.04718
 C144 C 1.06118 0.49814 0.08590
 Zr145 Zr 1.00394 0.47435 0.07531
 O146 O 1.00775 0.47478 0.16755
 O147 O 1.00358 0.44055 0.06800
 Zr148 Zr 1.00211 0.52741 0.07420
 O149 O 1.00653 0.53030 0.16642
 O150 O 0.99807 0.55901 0.07313
 O151 O 0.98122 0.48954 0.08831
 O152 O 1.02460 0.51221 0.08421
 O153 O 1.03592 0.47893 -0.10231
 O154 O 1.06376 0.51363 -0.05233
 C155 C 1.05829 0.49606 -0.08996
 O156 O 0.96452 0.51688 -0.10515
 O157 O 0.93866 0.48446 -0.04648
 C158 C 0.94268 0.49968 -0.08915
 O159 O 1.03393 0.55501 -0.10555
 O160 O 1.06253 0.54995 -0.05339
 C161 C 1.05661 0.56114 -0.09252
 O162 O 0.96714 0.44698 -0.10766
 O163 O 0.93972 0.45013 -0.04670
 C164 C 0.94485 0.44070 -0.09144
 Zr165 Zr 1.00159 0.47262 -0.07079
 O166 O 1.00269 0.46917 -0.16267
 O167 O 0.99942 0.43790 -0.06231
 Zr168 Zr 0.99997 0.52596 -0.07277
 O169 O 1.00085 0.52736 -0.16547
 O170 O 0.99621 0.55772 -0.06943
 Zr171 Zr 0.96477 0.48071 0.00440
 Zr172 Zr 1.03890 0.51946 -0.00140
 O173 O 1.02195 0.51024 -0.08461
 O174 O 0.97887 0.48787 -0.08183
 O175 O 1.02524 0.48114 0.00061
 O176 O 0.97914 0.51910 0.00221
 O177 O 0.98088 0.45818 0.00396
 O178 O 1.02313 0.54242 -0.00108
 H179 H 1.03608 0.51834 0.11815
 H180 H 0.96740 0.52542 0.00260
 H181 H 1.03234 0.51549 -0.12023
 H182 H 0.96961 0.44008 0.00455
 H183 H 1.01119 0.57143 0.04778
 H184 H 1.01179 0.57139 -0.05341
 H185 H 0.98836 0.51089 -0.18019
 H186 H 1.00022 0.48226 -0.17987
 H187 H 1.01512 0.44071 -0.04459
 H188 H 1.00443 0.43541 0.10860
 H189 H 0.99717 0.48089 0.18387
 H190 H 0.99332 0.51480 0.18355
 O191 O 0.44688 0.47842 0.10681
 O192 O 0.45047 0.51011 0.04951
 C193 C 0.44023 0.49430 0.09140
 O194 O 0.55783 0.52401 0.10056
 O195 O 0.55277 0.49090 0.04676
 C196 C 0.56426 0.50795 0.08584
 O197 O 0.51846 0.55370 0.10614
 O198 O 0.48479 0.54609 0.05025
 C199 C 0.50071 0.55783 0.09158
 O200 O 0.48255 0.44451 0.10042
 O201 O 0.51722 0.45327 0.04768
 C202 C 0.50032 0.44042 0.08604
 Zr203 Zr 0.47506 0.47232 0.07226
 O204 O 0.47558 0.47011 0.16477
 O205 O 0.44166 0.43829 0.06667
 Zr206 Zr 0.52766 0.52793 0.07120
 O207 O 0.53064 0.52819 0.16364
 O208 O 0.55891 0.56377 0.06660
 O209 O 0.48947 0.51008 0.08355
 O210 O 0.51304 0.49045 0.08226
 O211 O 0.48144 0.44362 -0.10276
 O212 O 0.51677 0.45289 -0.05167
 C213 C 0.49942 0.43971 -0.08908
 O214 O 0.51690 0.55320 -0.10964
 O215 O 0.48372 0.54575 -0.05262
 C216 C 0.49932 0.55742 -0.09420
 O217 O 0.55688 0.52423 -0.10516
 O218 O 0.55266 0.49105 -0.05295
 C219 C 0.56382 0.50849 -0.09133
 O220 O 0.44539 0.47666 -0.10820
 O221 O 0.44967 0.50912 -0.05289
 C222 C 0.43881 0.49257 -0.09344
 Zr223 Zr 0.47439 0.47182 -0.07507
 O224 O 0.47517 0.47013 -0.16765
 O225 O 0.44044 0.43813 -0.07301
 Zr226 Zr 0.52666 0.52758 -0.07627
 O227 O 0.52811 0.52666 -0.16887
 O228 O 0.55778 0.56360 -0.07565
 Zr229 Zr 0.48083 0.51653 -0.00170
 Zr230 Zr 0.52117 0.48328 -0.00251
 O231 O 0.51222 0.49003 -0.08692
 O232 O 0.48842 0.50953 -0.08720
 O233 O 0.48293 0.45785 -0.00141
 O234 O 0.51910 0.54151 -0.00229
 O235 O 0.45913 0.47787 -0.00112
 O236 O 0.54338 0.52203 -0.00296
 H237 H 0.51907 0.48553 0.11709
 H238 H 0.52491 0.55941 -0.00237
 H239 H 0.51805 0.48490 -0.12162
 H240 H 0.44087 0.47015 -0.00063
 H241 H 0.57237 0.56235 0.04762
 H242 H 0.57115 0.56295 -0.05375
 H243 H 0.51180 0.52310 -0.18409
 H244 H 0.47663 0.48556 -0.18306
 H245 H 0.44220 0.42748 -0.04361
 H246 H 0.43664 0.43291 0.10763
 H247 H 0.47885 0.48618 0.18045
 H248 H 0.51409 0.52310 0.17969
 O249 O 0.52414 -0.03067 0.10860
 O250 O 0.49124 -0.05954 0.05501
 C251 C 0.50795 -0.05329 0.09561
 O252 O 0.47868 0.03458 0.10334
 O253 O 0.51147 0.06200 0.04789
 C254 C 0.49471 0.05685 0.08734
 O255 O 0.44961 -0.03379 0.11349
 O256 O 0.45496 -0.06126 0.05796
 C257 C 0.44466 -0.05598 0.10071
 O258 O 0.55793 0.03815 0.09986
 O259 O 0.54903 0.06370 0.04625
 C260 C 0.56216 0.05989 0.08448
 Zr261 Zr 0.52959 0.00281 0.07296
 O262 O 0.53282 0.00645 0.16531
 O263 O 0.56282 0.00154 0.06894
 Zr264 Zr 0.47413 0.00032 0.07489
 O265 O 0.47414 0.00386 0.16706
 O266 O 0.43811 -0.00439 0.07107
 O267 O 0.49187 -0.02014 0.08683
 O268 O 0.51185 0.02289 0.08393
 O269 O 0.55575 0.03626 -0.10509
 O270 O 0.54789 0.06277 -0.05255
 C271 C 0.56024 0.05826 -0.09131
 O272 O 0.44575 -0.03663 -0.10381
 O273 O 0.45339 -0.06231 -0.04689
 C274 C 0.44132 -0.05839 -0.08792
 O275 O 0.47631 0.03259 -0.10248
 O276 O 0.51022 0.06103 -0.05080
 C277 C 0.49270 0.05517 -0.08889
 O278 O 0.52155 -0.03262 -0.10756
 O279 O 0.48988 -0.06063 -0.05012
 C280 C 0.50577 -0.05502 -0.09228
 Zr281 Zr 0.52791 0.00139 -0.07401
 O282 O 0.52932 0.00320 -0.16663
 O283 O 0.56120 0.00016 -0.07192
 Zr284 Zr 0.47236 -0.00132 -0.07202
 O285 O 0.47161 0.00024 -0.16464
 O286 O 0.43658 -0.00554 -0.06737
 Zr287 Zr 0.48382 -0.03623 0.00249
 Zr288 Zr 0.51805 0.03750 -0.00138
 O289 O 0.50989 0.02119 -0.08514
 O290 O 0.48984 -0.02200 -0.08352
 O291 O 0.54332 0.02445 -0.00181
 O292 O 0.45921 -0.02244 0.00294
 O293 O 0.52261 -0.01943 0.00035
 O294 O 0.47927 0.02148 0.00043
 H295 H 0.51729 0.03409 0.11828
 H296 H 0.44124 -0.03442 0.00449
 H297 H 0.51461 0.03177 -0.12043
 H298 H 0.53008 -0.03016 0.00029
 H299 H 0.43948 0.01073 0.05377
 H300 H 0.43821 0.00939 -0.04831
 H301 H 0.47516 -0.01243 -0.18004
 H302 H 0.51283 -0.00924 -0.18144
 H303 H 0.57404 0.01554 -0.05324
 H304 H 0.57516 0.01650 0.04812
 H305 H 0.51731 -0.00685 0.18227
 H306 H 0.48234 -0.00483 0.18353
 C307 C 1.18315 0.51470 0.38891
 C308 C 1.16816 0.51200 0.34078
 C309 C 1.16262 0.49351 0.29880
 C310 C 1.17241 0.47780 0.30620
 C311 C 1.18774 0.48070 0.35415
 C312 C 1.19339 0.49928 0.39620
 C313 C 1.14502 0.48903 0.25023
 C314 C 1.14245 0.50718 0.22620
 C315 C 1.12241 0.50302 0.18469
 C316 C 1.12569 0.52243 0.14811
 C317 C 1.10617 0.52045 0.11376
 C318 C 1.08273 0.49911 0.11617
 C319 C 1.07962 0.47942 0.15176
 C320 C 1.09923 0.48130 0.18558
 H321 H 1.18692 0.52908 0.42055
 H322 H 1.16025 0.52391 0.33775
 H323 H 1.16791 0.46306 0.27516
 H324 H 1.19427 0.46771 0.35967
 H325 H 1.13390 0.47032 0.23427
 H326 H 1.15543 0.52611 0.23797
 H327 H 1.14326 0.53950 0.14751
 H328 H 1.10923 0.53607 0.08730
 H329 H 1.06177 0.46280 0.15495
 H330 H 1.09572 0.46625 0.21465
 C331 C 0.50979 0.69951 0.35217
 C332 C 0.51338 0.68670 0.30646
 C333 C 0.49812 0.66108 0.30087
 C334 C 0.47912 0.64850 0.34176
 C335 C 0.47574 0.66118 0.38773
 C336 C 0.49101 0.68688 0.39390
 C337 C 0.50363 0.64754 0.25562
 C338 C 0.48608 0.62622 0.23238
 C339 C 0.49136 0.61064 0.19293
 C340 C 0.47278 0.59443 0.15439
 C341 C 0.47617 0.57786 0.12022
 C342 C 0.49807 0.57675 0.12472
 C343 C 0.51681 0.59316 0.16293
 C344 C 0.51354 0.61000 0.19659
 H345 H 0.52265 0.71908 0.35677
 H346 H 0.52844 0.69674 0.27611
 H347 H 0.46745 0.62867 0.33993
 H348 H 0.46113 0.65076 0.41892
 H349 H 0.52261 0.65537 0.24137
 H350 H 0.46685 0.61976 0.24241
 H351 H 0.45543 0.59438 0.15124
 H352 H 0.46132 0.56546 0.09140
 H353 H 0.53388 0.59276 0.16753
 H354 H 0.52799 0.62178 0.22701
 C355 C 0.32264 -0.20801 0.35689
 C356 C 0.33775 -0.19393 0.31030
 C357 C 0.34665 -0.16845 0.30751
 C358 C 0.33919 -0.15756 0.35084
 C359 C 0.32450 -0.17142 0.39742
 C360 C 0.31593 -0.19684 0.40132
 C361 C 0.36346 -0.15344 0.25932
 C362 C 0.37998 -0.12948 0.26709
 C363 C 0.39519 -0.11211 0.22054
 C364 C 0.40238 -0.08728 0.22884
 C365 C 0.41770 -0.06949 0.18890
 C366 C 0.42673 -0.07590 0.13952
 C367 C 0.41938 -0.10089 0.13047
 C368 C 0.40357 -0.11895 0.17058
 H369 H 0.31698 -0.22739 0.35933
 H370 H 0.34306 -0.20282 0.27729
 H371 H 0.34450 -0.13828 0.34895
 H372 H 0.31938 -0.16226 0.43020
 H373 H 0.36194 -0.16216 0.21733
 H374 H 0.38176 -0.12140 0.31004
 H375 H 0.39616 -0.08152 0.26685
 H376 H 0.42289 -0.05052 0.19776
 H377 H 0.42614 -0.10640 0.09309
 H378 H 0.39863 -0.13795 0.16341
 C379 C 0.79780 0.46187 0.36909
 C380 C 0.81200 0.46149 0.32227
 C381 C 0.82874 0.48344 0.29380
 C382 C 0.82971 0.50559 0.31054
 C383 C 0.81543 0.50591 0.35719
 C384 C 0.79975 0.48414 0.38743
 C385 C 0.84557 0.48268 0.24903
 C386 C 0.86821 0.50196 0.23918
 C387 C 0.88708 0.50140 0.20071
 C388 C 0.91160 0.52061 0.20656
 C389 C 0.93040 0.52099 0.17303
 C390 C 0.92520 0.50218 0.13220
 C391 C 0.90059 0.48306 0.12542
 C392 C 0.88168 0.48268 0.15920
 H393 H 0.78582 0.44492 0.39219
 H394 H 0.81071 0.44418 0.30994
 H395 H 0.84176 0.52277 0.28851
 H396 H 0.81722 0.52329 0.37106
 H397 H 0.83998 0.46509 0.22840
 H398 H 0.87418 0.51874 0.26408
 H399 H 0.91635 0.53534 0.23787
 H400 H 0.94910 0.53605 0.17951
 H401 H 0.89595 0.46831 0.09432
 H402 H 0.86300 0.46780 0.15220
 C403 C 0.47723 0.29725 0.35687
 C404 C 0.47562 0.31051 0.30947
 C405 C 0.49541 0.33399 0.29582
 C406 C 0.51709 0.34377 0.33017
 C407 C 0.51867 0.33047 0.37754
 C408 C 0.49871 0.30721 0.39145
 C409 C 0.49175 0.34857 0.24971
 C410 C 0.51029 0.36842 0.22387
 C411 C 0.50625 0.38497 0.18463
 C412 C 0.52500 0.40028 0.14555
 C413 C 0.52275 0.41773 0.11187
 C414 C 0.50179 0.42044 0.11717
 C415 C 0.48284 0.40480 0.15553
 C416 C 0.48505 0.38734 0.18898
 H417 H 0.46146 0.27952 0.36769
 H418 H 0.45861 0.30267 0.28427
 H419 H 0.53247 0.36208 0.32249
 H420 H 0.53523 0.33861 0.40442
 H421 H 0.47286 0.34270 0.23726
 H422 H 0.52923 0.37303 0.23178
 H423 H 0.54162 0.39901 0.14181
 H424 H 0.53777 0.42958 0.08300
 H425 H 0.46649 0.40644 0.16097
 H426 H 0.47054 0.37651 0.21989
 C427 C 0.70395 0.18295 0.35786
 C428 C 0.69154 0.16763 0.31020
 C429 C 0.66798 0.16319 0.29359
 C430 C 0.65721 0.17477 0.32514
 C431 C 0.66962 0.19003 0.37279
 C432 C 0.69293 0.19403 0.38978
 C433 C 0.65419 0.14451 0.24760
 C434 C 0.63486 0.14310 0.21829
 C435 C 0.61847 0.12213 0.17968
 C436 C 0.60350 0.12528 0.13859
 C437 C 0.58584 0.10527 0.10593
 C438 C 0.58260 0.08157 0.11421
 C439 C 0.59802 0.07855 0.15428
 C440 C 0.61570 0.09855 0.18678
 H441 H 0.72174 0.18547 0.37116
 H442 H 0.70008 0.15868 0.28722
 H443 H 0.63876 0.17122 0.31526
 H444 H 0.66068 0.19809 0.39775
 H445 H 0.66012 0.13130 0.23838
 H446 H 0.63046 0.15767 0.22309
 H447 H 0.60508 0.14319 0.13275
 H448 H 0.57423 0.10828 0.07560
 H449 H 0.59594 0.06055 0.16195
 H450 H 0.62628 0.09511 0.21922
 C451 C 0.46803 0.17569 -0.35981
 C452 C 0.46535 0.15971 -0.31395
 C453 C 0.48419 0.15436 -0.30119
 C454 C 0.50597 0.16556 -0.33483
 C455 C 0.50854 0.18136 -0.38084
 C456 C 0.48952 0.18632 -0.39398
 C457 C 0.47982 0.13544 -0.25652
 C458 C 0.49824 0.13495 -0.22738
 C459 C 0.49464 0.11456 -0.18825
 C460 C 0.51268 0.11922 -0.14565
 C461 C 0.51146 0.10006 -0.11189
 C462 C 0.49228 0.07564 -0.12052
 C463 C 0.47386 0.07101 -0.16233
 C464 C 0.47499 0.09026 -0.19587
 H465 H 0.45302 0.17906 -0.37006
 H466 H 0.44831 0.15110 -0.28915
 H467 H 0.52056 0.16130 -0.32767
 H468 H 0.52506 0.18911 -0.40751
 H469 H 0.46084 0.12158 -0.24761
 H470 H 0.51694 0.15020 -0.23202
 H471 H 0.52807 0.13771 -0.13919
 H472 H 0.52603 0.10436 -0.08022
 H473 H 0.45893 0.05241 -0.17036
 H474 H 0.46105 0.08585 -0.22933
 C475 C 0.68645 0.48389 -0.35304
 C476 C 0.67216 0.48338 -0.30526
 C477 C 0.66745 0.50280 -0.29555
 C478 C 0.67836 0.52332 -0.33322
 C479 C 0.69219 0.52364 -0.38134
 C480 C 0.69649 0.50399 -0.39210
 C481 C 0.65088 0.50096 -0.24669
 C482 C 0.63883 0.51368 -0.24649
 C483 C 0.62181 0.51254 -0.20002
 C484 C 0.61743 0.53235 -0.19602
 C485 C 0.59952 0.53140 -0.15837
 C486 C 0.58520 0.51043 -0.12391
 C487 C 0.59024 0.49090 -0.12570
 C488 C 0.60841 0.49190 -0.16357
 H489 H 0.68864 0.46803 -0.36096
 H490 H 0.66411 0.46741 -0.27686
 H491 H 0.67641 0.53932 -0.32602
 H492 H 0.69995 0.53958 -0.40989
 H493 H 0.64811 0.48834 -0.21128
 H494 H 0.64124 0.52580 -0.28268
 H495 H 0.62752 0.54847 -0.22343
 H496 H 0.59635 0.54690 -0.15785
 H497 H 0.57941 0.47443 -0.09992
 H498 H 0.61101 0.47610 -0.16616
 C499 C 0.81076 0.30148 -0.34183
 C500 C 0.82423 0.31516 -0.29293
 C501 C 0.83077 0.34000 -0.28718
 C502 C 0.82234 0.35053 -0.32929
 C503 C 0.80865 0.33679 -0.37765
 C504 C 0.80306 0.31228 -0.38485
 C505 C 0.84773 0.35506 -0.23946
 C506 C 0.86597 0.37810 -0.24956
 C507 C 0.88569 0.39270 -0.20671
 C508 C 0.90981 0.40721 -0.22751
 C509 C 0.92901 0.42198 -0.18928
 C510 C 0.92440 0.42313 -0.12947
 C511 C 0.90015 0.40873 -0.10842
 C512 C 0.88093 0.39333 -0.14672
 H513 H 0.80697 0.28271 -0.34702
 H514 H 0.83057 0.30670 -0.26105
 H515 H 0.82673 0.36952 -0.32540
 H516 H 0.80290 0.34547 -0.41035
 H517 H 0.84705 0.34626 -0.19804
 H518 H 0.86815 0.38573 -0.29324
 H519 H 0.91383 0.40710 -0.27363
 H520 H 0.94739 0.43318 -0.20706
 H521 H 0.89607 0.40948 -0.06263
 H522 H 0.86232 0.38254 -0.12990
 C523 C 0.47092 -0.20381 -0.36015
 C524 C 0.47093 -0.18991 -0.31205
 C525 C 0.49240 -0.16787 -0.29665
 C526 C 0.51428 -0.16078 -0.32846
 C527 C 0.51417 -0.17455 -0.37670
 C528 C 0.49245 -0.19594 -0.39328
 C529 C 0.49126 -0.15245 -0.24852
 C530 C 0.50647 -0.12796 -0.24658
 C531 C 0.50602 -0.11091 -0.20201
 C532 C 0.52579 -0.08661 -0.20214
 C533 C 0.52593 -0.06892 -0.16505
 C534 C 0.50618 -0.07493 -0.12660
 C535 C 0.48667 -0.09948 -0.12463
 C536 C 0.48651 -0.11735 -0.16217
 H537 H 0.45399 -0.22034 -0.37247
 H538 H 0.45394 -0.19594 -0.28799
 H539 H 0.53153 -0.14457 -0.31665
 H540 H 0.53099 -0.16838 -0.40159
 H541 H 0.47684 -0.16144 -0.21622
 H542 H 0.52007 -0.11936 -0.28084
 H543 H 0.54113 -0.08109 -0.23199
 H544 H 0.54145 -0.05030 -0.16746
 H545 H 0.47122 -0.10470 -0.09541
 H546 H 0.47078 -0.13580 -0.16084
 C547 C 0.34186 0.53046 -0.38992
 C548 C 0.35630 0.53079 -0.34278
 C549 C 0.34612 0.51283 -0.29896
 C550 C 0.32082 0.49510 -0.30158
 C551 C 0.30618 0.49503 -0.34831
 C552 C 0.31657 0.51263 -0.39341
 C553 C 0.36268 0.51281 -0.25251
 C554 C 0.36026 0.49200 -0.22967
 C555 C 0.37936 0.49188 -0.19118
 C556 C 0.38339 0.47179 -0.19399
 C557 C 0.40248 0.47185 -0.16170
 C558 C 0.41771 0.49187 -0.12510
 C559 C 0.41294 0.51150 -0.12029
 C560 C 0.39400 0.51155 -0.15308
 H561 H 0.35050 0.54424 -0.42388
 H562 H 0.37574 0.54462 -0.34170
 H563 H 0.31241 0.48112 -0.26803
 H564 H 0.28705 0.48045 -0.35064
 H565 H 0.37901 0.53027 -0.24229
 H566 H 0.34537 0.47439 -0.24480
 H567 H 0.37221 0.45632 -0.22263
 H568 H 0.40545 0.45629 -0.16588
 H569 H 0.42413 0.52708 -0.09201
 H570 H 0.39092 0.52701 -0.14860
 C571 C 1.16239 0.68943 -0.40517
 C572 C 1.14613 0.67645 -0.35978
 C573 C 1.15372 0.66750 -0.31252
 C574 C 1.17846 0.67276 -0.31042
 C575 C 1.19492 0.68609 -0.35572
 C576 C 1.18711 0.69462 -0.40388
 C577 C 1.13499 0.65246 -0.26762
 C578 C 1.13580 0.63492 -0.23539
 C579 C 1.11538 0.61769 -0.19625
 C580 C 1.12059 0.60527 -0.15219
 C581 C 1.10169 0.58751 -0.11729
 C582 C 1.07696 0.58152 -0.12596
 C583 C 1.07176 0.59419 -0.16953
 C584 C 1.09067 0.61198 -0.20436
 H585 H 1.15561 0.69564 -0.44137
 H586 H 1.12727 0.67280 -0.36243
 H587 H 1.18518 0.66656 -0.27421
 H588 H 1.21345 0.68878 -0.35428
 H589 H 1.11917 0.65507 -0.26398
 H590 H 1.15166 0.63237 -0.23881
 H591 H 1.13937 0.60911 -0.14536
 H592 H 1.10646 0.57804 -0.08451
 H593 H 1.05293 0.58984 -0.17787
 H594 H 1.08556 0.62039 -0.23894
 C595 C 0.81260 0.50834 -0.36095
 C596 C 0.82909 0.51176 -0.31546
 C597 C 0.83807 0.49540 -0.30791
 C598 C 0.83027 0.47550 -0.34701
 C599 C 0.81399 0.47220 -0.39285
 C600 C 0.80472 0.48846 -0.40045
 C601 C 0.85705 0.50075 -0.26221
 C602 C 0.86075 0.48334 -0.23796
 C603 C 0.88119 0.48891 -0.19636
 C604 C 0.87882 0.47048 -0.15755
 C605 C 0.89846 0.47436 -0.12096
 C606 C 0.92109 0.49666 -0.12316
 C607 C 0.92335 0.51525 -0.16144
 C608 C 0.90363 0.51146 -0.19761
 H609 H 0.80707 0.52207 -0.36699
 H610 H 0.83525 0.52754 -0.28673
 H611 H 0.83738 0.46293 -0.34376
 H612 H 0.80856 0.45678 -0.42238
 H613 H 0.86806 0.51969 -0.24767
 H614 H 0.84818 0.46412 -0.24814
 H615 H 0.86182 0.45288 -0.15614
 H616 H 0.89617 0.45954 -0.09245
 H617 H 0.94056 0.53257 -0.16438
 H618 H 0.90641 0.52588 -0.22803
 C619 C 0.47986 0.29509 -0.35330
 C620 C 0.47784 0.30815 -0.30590
 C621 C 0.49450 0.33344 -0.29924
 C622 C 0.51318 0.34552 -0.34117
 C623 C 0.51505 0.33258 -0.38881
 C624 C 0.49852 0.30712 -0.39559
 C625 C 0.49059 0.34724 -0.25174
 C626 C 0.50899 0.36815 -0.22897
 C627 C 0.50496 0.38421 -0.18822
 C628 C 0.52460 0.40075 -0.15241
 C629 C 0.52245 0.41811 -0.11826
 C630 C 0.50070 0.41957 -0.11997
 C631 C 0.48081 0.40262 -0.15481
 C632 C 0.48289 0.38512 -0.18855
 H633 H 0.46601 0.27583 -0.35840
 H634 H 0.46292 0.29857 -0.27494
 H635 H 0.52583 0.36517 -0.33868
 H636 H 0.52958 0.34256 -0.42047
 H637 H 0.47195 0.33990 -0.23547
 H638 H 0.52791 0.37404 -0.24100
 H639 H 0.54186 0.40057 -0.15181
 H640 H 0.53818 0.43096 -0.09217
 H641 H 0.46381 0.40327 -0.15728
 H642 H 0.46757 0.37314 -0.21677
 C643 C 0.70277 0.18797 -0.35322
 C644 C 0.69009 0.17203 -0.30684
 C645 C 0.66428 0.16064 -0.30324
 C646 C 0.65128 0.16522 -0.34721
 C647 C 0.66384 0.18077 -0.39394
 C648 C 0.68980 0.19254 -0.39761
 C649 C 0.65105 0.14261 -0.25613
 C650 C 0.62965 0.13910 -0.23426
 C651 C 0.61425 0.11908 -0.19299
 C652 C 0.59791 0.12199 -0.15638
 C653 C 0.58110 0.10253 -0.12153
 C654 C 0.57991 0.07951 -0.12347
 C655 C 0.59665 0.07674 -0.15923
 C656 C 0.61371 0.09634 -0.19358
 H657 H 0.72261 0.19574 -0.35584
 H658 H 0.70043 0.16835 -0.27408
 H659 H 0.63130 0.15614 -0.34675
 H660 H 0.65318 0.18374 -0.42722
 H661 H 0.65921 0.13212 -0.23913
 H662 H 0.62295 0.15140 -0.24715
 H663 H 0.59783 0.13925 -0.15564
 H664 H 0.56843 0.10531 -0.09466
 H665 H 0.59619 0.05924 -0.16174
 H666 H 0.62562 0.09327 -0.22246
 C667 C 1.20685 0.52459 -0.35330
 C668 C 1.19309 0.52518 -0.30554
 C669 C 1.16859 0.50622 -0.29731
 C670 C 1.15855 0.48608 -0.33634
 C671 C 1.17198 0.48580 -0.38456
 C672 C 1.19630 0.50494 -0.39370
 C673 C 1.15386 0.50790 -0.24832
 C674 C 1.12909 0.49574 -0.24946
 C675 C 1.11321 0.49573 -0.20173
 C676 C 1.08968 0.47495 -0.19677
 C677 C 1.07250 0.47478 -0.15805
 C678 C 1.07826 0.49558 -0.12360
 C679 C 1.10228 0.51614 -0.12634
 C680 C 1.11972 0.51621 -0.16518
 H681 H 1.22538 0.53992 -0.35984
 H682 H 1.20138 0.54074 -0.27576
 H683 H 1.14038 0.47028 -0.32996
 H684 H 1.16349 0.47022 -0.41434
 H685 H 1.16361 0.51959 -0.21127
 H686 H 1.11935 0.48456 -0.28712
 H687 H 1.08430 0.45891 -0.22417
 H688 H 1.05431 0.45852 -0.15674
 H689 H 1.10721 0.53249 -0.10053
 H690 H 1.13770 0.53264 -0.16858
 C691 C 0.51329 0.69805 -0.36137
 C692 C 0.51641 0.68511 -0.31539
 C693 C 0.49751 0.66129 -0.30100
 C694 C 0.47512 0.65084 -0.33276
 C695 C 0.47206 0.66377 -0.37878
 C696 C 0.49121 0.68732 -0.39376
 C697 C 0.50270 0.64697 -0.25735
 C698 C 0.48498 0.62735 -0.22916
 C699 C 0.49015 0.61105 -0.19210
 C700 C 0.47317 0.59696 -0.14850
 C701 C 0.47649 0.58002 -0.11565
 C702 C 0.49669 0.57650 -0.12644
 C703 C 0.51380 0.59075 -0.16985
 C704 C 0.51056 0.60781 -0.20241
 H705 H 0.52843 0.71605 -0.37316
 H706 H 0.53391 0.69344 -0.29212
 H707 H 0.46040 0.63225 -0.32440
 H708 H 0.45509 0.65509 -0.40414
 H709 H 0.52193 0.65277 -0.24878
 H710 H 0.46590 0.62291 -0.23301
 H711 H 0.45716 0.59891 -0.14023
 H712 H 0.46295 0.56934 -0.08256
 H713 H 0.52949 0.58842 -0.17952
 H714 H 0.52359 0.61773 -0.23699
 C715 C 0.29816 -0.18782 -0.35185
 C716 C 0.31081 -0.17170 -0.30540
 C717 C 0.33586 -0.16374 -0.29483
 C718 C 0.34803 -0.17228 -0.33152
 C719 C 0.33553 -0.18810 -0.37814
 C720 C 0.31042 -0.19612 -0.38922
 C721 C 0.34953 -0.14468 -0.24950
 C722 C 0.36987 -0.14211 -0.22283
 C723 C 0.38604 -0.12099 -0.18445
 C724 C 0.40137 -0.12373 -0.14374
 C725 C 0.41873 -0.10360 -0.11098
 C726 C 0.42149 -0.08010 -0.11908
 C727 C 0.40583 -0.07741 -0.15918
 C728 C 0.38827 -0.09763 -0.19149
 H729 H 0.27922 -0.19255 -0.36058
 H730 H 0.30120 -0.16490 -0.27860
 H731 H 0.36754 -0.16588 -0.32619
 H732 H 0.34566 -0.19389 -0.40625
 H733 H 0.34269 -0.13234 -0.23844
 H734 H 0.37517 -0.15597 -0.22952
 H735 H 0.40022 -0.14145 -0.13799
 H736 H 0.43046 -0.10636 -0.08051
 H737 H 0.40749 -0.05957 -0.16658
 H738 H 0.37728 -0.09463 -0.22367
 C739 C 0.47091 -0.20241 0.35977
 C740 C 0.47141 -0.18817 0.31199
 C741 C 0.49353 -0.16707 0.29574
 C742 C 0.51548 -0.16132 0.32610
 C743 C 0.51493 -0.17547 0.37391
 C744 C 0.49261 -0.19583 0.39150
 C745 C 0.49298 -0.15112 0.24842
 C746 C 0.50896 -0.12679 0.24709
 C747 C 0.50848 -0.10928 0.20402
 C748 C 0.52837 -0.08501 0.20475
 C749 C 0.52844 -0.06709 0.16846
 C750 C 0.50853 -0.07296 0.13033
 C751 C 0.48881 -0.09739 0.12826
 C752 C 0.48872 -0.11540 0.16485
 H753 H 0.45354 -0.21816 0.37295
 H754 H 0.45434 -0.19314 0.28896
 H755 H 0.53309 -0.14583 0.31345
 H756 H 0.53186 -0.17033 0.39781
 H757 H 0.47819 -0.15957 0.21659
 H758 H 0.52301 -0.11873 0.28085
 H759 H 0.54386 -0.07975 0.23426
 H760 H 0.54403 -0.04851 0.17097
 H761 H 0.47314 -0.10247 0.09951
 H762 H 0.47284 -0.13373 0.16306
 C763 C 0.30129 0.48066 0.36816
 C764 C 0.31385 0.47601 0.32392
 C765 C 0.33736 0.49450 0.30597
 C766 C 0.34794 0.51792 0.33255
 C767 C 0.33545 0.52248 0.37702
 C768 C 0.31219 0.50382 0.39554
 C769 C 0.35131 0.48828 0.26363
 C770 C 0.36887 0.50516 0.22901
 C771 C 0.38496 0.50000 0.19124
 C772 C 0.39609 0.51522 0.14274
 C773 C 0.41330 0.51267 0.10920
 C774 C 0.42015 0.49508 0.12401
 C775 C 0.40859 0.47940 0.17186
 C776 C 0.39114 0.48182 0.20521
 H777 H 0.28352 0.46592 0.38275
 H778 H 0.30547 0.45777 0.30461
 H779 H 0.36635 0.53239 0.32127
 H780 H 0.34427 0.54031 0.39850
 H781 H 0.34683 0.46922 0.26094
 H782 H 0.37157 0.52364 0.22764
 H783 H 0.39173 0.52942 0.13127
 H784 H 0.42166 0.52498 0.07243
 H785 H 0.41349 0.46572 0.18455
 H786 H 0.38337 0.47016 0.24322
 C787 C 1.20152 0.67707 0.35899
 C788 C 1.18906 0.66358 0.30904
 C789 C 1.16978 0.66603 0.28420
 C790 C 1.16420 0.68340 0.30849
 C791 C 1.17652 0.69670 0.35868
 C792 C 1.19494 0.69331 0.38463
 C793 C 1.15540 0.64958 0.23481
 C794 C 1.13180 0.64320 0.22424
 C795 C 1.11526 0.62448 0.18085
 C796 C 1.09202 0.62223 0.17127
 C797 C 1.07424 0.60313 0.13713
 C798 C 1.07923 0.58571 0.11146
 C799 C 1.10289 0.58856 0.11814
 C800 C 1.12077 0.60770 0.15286
 H801 H 1.21585 0.67442 0.37853
 H802 H 1.19393 0.65059 0.29091
 H803 H 1.15029 0.68676 0.28929
 H804 H 1.17156 0.70948 0.37770
 H805 H 1.16409 0.64138 0.20965
 H806 H 1.12329 0.65113 0.25107
 H807 H 1.08725 0.63488 0.19187
 H808 H 1.05627 0.60161 0.13223
 H809 H 1.10717 0.57531 0.09900
 H810 H 1.13831 0.60851 0.15928
 C811 C 0.46812 0.17582 0.35652
 C812 C 0.46605 0.16063 0.30936
 C813 C 0.48544 0.15620 0.29598
 C814 C 0.50712 0.16754 0.33034
 C815 C 0.50910 0.18259 0.37760
 C816 C 0.48956 0.18664 0.39126
 C817 C 0.48156 0.13781 0.25024
 C818 C 0.50020 0.13747 0.22212
 C819 C 0.49682 0.11699 0.18351
 C820 C 0.51526 0.12131 0.14260
 C821 C 0.51410 0.10193 0.10975
 C822 C 0.49459 0.07767 0.11778
 C823 C 0.47580 0.07341 0.15779
 C824 C 0.47691 0.09283 0.19039
 H825 H 0.45274 0.17853 0.36713
 H826 H 0.44906 0.15188 0.28407
 H827 H 0.52213 0.16395 0.32278
 H828 H 0.52561 0.19052 0.40465
 H829 H 0.46266 0.12399 0.24015
 H830 H 0.51888 0.15266 0.22788
 H831 H 0.53089 0.13968 0.13680
 H832 H 0.52890 0.10587 0.07938
 H833 H 0.46052 0.05495 0.16511
 H834 H 0.46268 0.08860 0.22261
 C835 C 0.69995 0.53352 0.38637
 C836 C 0.68679 0.53640 0.34031
 C837 C 0.67183 0.51656 0.30297
 C838 C 0.67121 0.49393 0.31152
 C839 C 0.68440 0.49110 0.35769
 C840 C 0.69867 0.51079 0.39573
 C841 C 0.65649 0.52023 0.25832
 C842 C 0.63892 0.50221 0.22517
 C843 C 0.62177 0.50575 0.18639
 C844 C 0.60948 0.48868 0.14120
 C845 C 0.59150 0.48995 0.10710
 C846 C 0.58518 0.50825 0.11774
 C847 C 0.59781 0.52564 0.16226
 C848 C 0.61582 0.52439 0.19632
 H849 H 0.71069 0.54887 0.41566
 H850 H 0.68775 0.55404 0.33498
 H851 H 0.66035 0.47813 0.28384
 H852 H 0.68297 0.47332 0.36474
 H853 H 0.65936 0.53870 0.25437
 H854 H 0.63634 0.48384 0.22654
 H855 H 0.61348 0.47399 0.13293
 H856 H 0.58206 0.47612 0.07347
 H857 H 0.59325 0.53982 0.17215
 H858 H 0.62418 0.53742 0.23187
 C859 C 0.79886 0.32457 0.36463
 C860 C 0.81310 0.33874 0.31737
 C861 C 0.83604 0.34066 0.30524
 C862 C 0.84383 0.32701 0.33949
 C863 C 0.82966 0.31300 0.38679
 C864 C 0.80728 0.31194 0.40004
 C865 C 0.85157 0.35731 0.25760
 C866 C 0.87631 0.36810 0.25849
 C867 C 0.89317 0.38551 0.21376
 C868 C 0.91773 0.39061 0.21424
 C869 C 0.93511 0.40800 0.17638
 C870 C 0.92847 0.42100 0.13696
 C871 C 0.90372 0.41555 0.13515
 C872 C 0.88619 0.39798 0.17331
 H873 H 0.78158 0.32390 0.37445
 H874 H 0.80657 0.34883 0.29138
 H875 H 0.86085 0.32711 0.33019
 H876 H 0.83628 0.30316 0.41351
 H877 H 0.84235 0.36139 0.22284
 H878 H 0.88514 0.36432 0.29473
 H879 H 0.92363 0.38127 0.24472
 H880 H 0.95392 0.41149 0.17880
 H881 H 0.89805 0.42529 0.10540
 H882 H 0.86756 0.39491 0.17199
   
