data_POSCAR
  _audit_creation_date              2014-09-24
  _audit_creation_method            'ToBaCCo'
  _symmetry_space_group_name_H-M    'P1'
  _symmetry_Int_Tables_number       1
  _symmetry_cell_setting            triclinic
  loop_
  _symmetry_equiv_pos_as_xyz
 x,y,z
_cell_length_a 23.1700
_cell_length_b 23.2242
_cell_length_c 23.3005
_cell_angle_alpha 89.973600
_cell_angle_beta 89.961400
_cell_angle_gamma 90.039200
loop_
  _atom_site_label
  _atom_site_type_symbol
  _atom_site_fract_x
  _atom_site_fract_y
  _atom_site_fract_z
N1 N 0.11506 0.25243 0.26566
 N2 N 0.13042 0.20673 0.29512
 C3 C 0.09247 0.19849 0.33812
 C4 C 0.05125 0.24183 0.33602
 C5 C 0.06728 0.27518 0.28925
 H6 H 0.09447 0.16326 0.36830
 H7 H 0.04492 0.31274 0.27321
 Cu8 Cu 0.19834 0.16222 0.27447
 Cu9 Cu 0.15642 0.27754 0.19752
 Cu10 Cu 0.27529 0.19686 0.15682
 N11 N 0.26453 0.11690 0.25031
 N12 N 0.29394 0.13028 0.20399
 C13 C 0.33647 0.09163 0.19651
 C14 C 0.33417 0.05178 0.24090
 C15 C 0.28763 0.06936 0.27406
 H16 H 0.36665 0.09252 0.16117
 H17 H 0.27184 0.04844 0.31246
 N18 N 0.24948 0.26573 0.11476
 N19 N 0.20379 0.29599 0.12987
 C20 C 0.19646 0.33927 0.09214
 C21 C 0.23998 0.33664 0.05134
 C22 C 0.27269 0.28931 0.06728
 H23 H 0.16182 0.37027 0.09417
 H24 H 0.31045 0.27323 0.04522
 H25 H 0.18817 0.19701 0.17631
 H26 H 0.23581 0.24428 0.22066
 N27 N 0.61490 0.75213 0.76617
 N28 N 0.63049 0.70641 0.79550
 C29 C 0.59288 0.69816 0.83879
 C30 C 0.55163 0.74145 0.83698
 C31 C 0.56724 0.77481 0.79010
 H32 H 0.59516 0.66299 0.86904
 H33 H 0.54479 0.81242 0.77431
 Cu34 Cu 0.69833 0.66197 0.77439
 Cu35 Cu 0.65616 0.77762 0.69803
 Cu36 Cu 0.77522 0.69735 0.65701
 N37 N 0.76449 0.61676 0.74991
 N38 N 0.79396 0.63058 0.70374
 C39 C 0.83662 0.59214 0.69604
 C40 C 0.83434 0.55199 0.74011
 C41 C 0.78769 0.56909 0.77331
 H42 H 0.86691 0.59342 0.66080
 H43 H 0.77197 0.54786 0.81157
 N44 N 0.74938 0.76633 0.61530
 N45 N 0.70356 0.79641 0.63040
 C46 C 0.69619 0.83973 0.59272
 C47 C 0.73983 0.83730 0.55200
 C48 C 0.77262 0.79005 0.56792
 H49 H 0.66141 0.87059 0.59469
 H50 H 0.81042 0.77407 0.54586
 H51 H 0.68803 0.69732 0.67645
 H52 H 0.73553 0.74446 0.72108
 N53 N 0.38341 0.74859 0.76641
 N54 N 0.36790 0.79444 0.79557
 C55 C 0.40549 0.80266 0.83884
 C56 C 0.44661 0.75921 0.83718
 C57 C 0.43096 0.72581 0.79041
 H58 H 0.40333 0.83794 0.86895
 H59 H 0.45336 0.68814 0.77470
 Cu60 Cu 0.30023 0.83908 0.77405
 Cu61 Cu 0.34238 0.72306 0.69829
 Cu62 Cu 0.22369 0.80348 0.65661
 N63 N 0.23420 0.88444 0.74925
 N64 N 0.20487 0.87054 0.70307
 C65 C 0.16225 0.90900 0.69512
 C66 C 0.16432 0.94944 0.73911
 C67 C 0.21097 0.93221 0.77246
 H68 H 0.13218 0.90746 0.65976
 H69 H 0.22663 0.95337 0.81075
 N70 N 0.24962 0.73421 0.61523
 N71 N 0.29532 0.70411 0.63060
 C72 C 0.30290 0.66069 0.59310
 C73 C 0.25953 0.66303 0.55218
 C74 C 0.22664 0.71036 0.56782
 H75 H 0.33767 0.62983 0.59530
 H76 H 0.18901 0.72632 0.54551
 H77 H 0.31073 0.80339 0.67624
 H78 H 0.26295 0.75654 0.72096
 N79 N 0.88550 0.24804 0.26629
 N80 N 0.87049 0.29453 0.29469
 C81 C 0.90785 0.30293 0.33812
 C82 C 0.94856 0.25894 0.33746
 C83 C 0.93263 0.22500 0.29094
 H84 H 0.90583 0.33879 0.36753
 H85 H 0.95458 0.18682 0.27580
 Cu86 Cu 0.80396 0.34000 0.27174
 Cu87 Cu 0.84429 0.22218 0.19810
 Cu88 Cu 0.72492 0.30219 0.15696
 N89 N 0.73606 0.38359 0.24909
 N90 N 0.70595 0.36902 0.20362
 C91 C 0.66261 0.40681 0.19645
 C92 C 0.66511 0.44731 0.24016
 C93 C 0.71249 0.43098 0.27269
 H94 H 0.63180 0.40495 0.16174
 H95 H 0.72863 0.45273 0.31044
 N96 N 0.75099 0.23320 0.11533
 N97 N 0.79685 0.20317 0.13041
 C98 C 0.80421 0.15982 0.09273
 C99 C 0.76053 0.16220 0.05206
 C100 C 0.72774 0.20944 0.06802
 H101 H 0.83898 0.12894 0.09469
 H102 H 0.68989 0.22536 0.04603
 H103 H 0.81244 0.30179 0.17461
 H104 H 0.76548 0.25636 0.22151
 N105 N 0.88498 0.75187 0.23400
 N106 N 0.86936 0.70611 0.20475
 C107 C 0.90700 0.69781 0.16151
 C108 C 0.94831 0.74112 0.16322
 C109 C 0.93270 0.77453 0.21004
 H110 H 0.90469 0.66262 0.13131
 H111 H 0.95515 0.81219 0.22576
 Cu112 Cu 0.80140 0.66169 0.22592
 Cu113 Cu 0.84359 0.77750 0.30202
 Cu114 Cu 0.72428 0.69734 0.34300
 N115 N 0.73505 0.61655 0.25036
 N116 N 0.70551 0.63046 0.29643
 C117 C 0.66275 0.59205 0.30415
 C118 C 0.66506 0.55180 0.26020
 C119 C 0.71181 0.56885 0.22704
 H120 H 0.63238 0.59340 0.33931
 H121 H 0.72757 0.54755 0.18887
 N122 N 0.75014 0.76642 0.38458
 N123 N 0.79605 0.79644 0.36953
 C124 C 0.80346 0.83977 0.40719
 C125 C 0.75973 0.83739 0.44784
 C126 C 0.72685 0.79017 0.43190
 H127 H 0.83834 0.87057 0.40528
 H128 H 0.68901 0.77421 0.45394
 H129 H 0.81153 0.69728 0.32379
 H130 H 0.76423 0.74433 0.27889
 N131 N 0.38603 0.25214 -0.26647
 N132 N 0.37125 0.20580 -0.29523
 C133 C 0.40924 0.19750 -0.33818
 C134 C 0.45008 0.24148 -0.33686
 C135 C 0.43352 0.27524 -0.29042
 H136 H 0.40753 0.16173 -0.36772
 H137 H 0.45534 0.31333 -0.27484
 Cu138 Cu 0.30403 0.16055 -0.27339
 Cu139 Cu 0.34432 0.27763 -0.19857
 Cu140 Cu 0.22507 0.19705 -0.15797
 N141 N 0.23658 0.11615 -0.25051
 N142 N 0.20656 0.13022 -0.20480
 C143 C 0.16358 0.09198 -0.19751
 C144 C 0.16617 0.05165 -0.24139
 C145 C 0.21331 0.06861 -0.27414
 H146 H 0.13295 0.09343 -0.16258
 H147 H 0.22948 0.04715 -0.31205
 N148 N 0.25072 0.26613 -0.11620
 N149 N 0.29653 0.29635 -0.13117
 C150 C 0.30379 0.33961 -0.09341
 C151 C 0.26007 0.33699 -0.05278
 C152 C 0.22735 0.28970 -0.06883
 H153 H 0.33858 0.37051 -0.09522
 H154 H 0.18956 0.27356 -0.04683
 H155 H 0.31252 0.19761 -0.17589
 H156 H 0.26547 0.24352 -0.22213
 N157 N 0.61436 0.24711 -0.26615
 N158 N 0.62963 0.29322 -0.29508
 C159 C 0.59179 0.30181 -0.33807
 C160 C 0.55051 0.25826 -0.33667
 C161 C 0.56669 0.22441 -0.29010
 H162 H 0.59397 0.33747 -0.36775
 H163 H 0.54451 0.18651 -0.27446
 Cu164 Cu 0.69751 0.33774 -0.27386
 Cu165 Cu 0.65579 0.22144 -0.19805
 Cu166 Cu 0.77482 0.30196 -0.15712
 N167 N 0.76395 0.38291 -0.24964
 N168 N 0.79354 0.36888 -0.20367
 C169 C 0.83636 0.40719 -0.19602
 C170 C 0.83410 0.44752 -0.23991
 C171 C 0.78727 0.43062 -0.27299
 H172 H 0.86678 0.40571 -0.16094
 H173 H 0.77152 0.45199 -0.31112
 N174 N 0.74916 0.23287 -0.11546
 N175 N 0.70340 0.20262 -0.13044
 C176 C 0.69620 0.15929 -0.09265
 C177 C 0.73993 0.16195 -0.05201
 C178 C 0.77255 0.20929 -0.06813
 H179 H 0.66150 0.12829 -0.09447
 H180 H 0.81034 0.22544 -0.04620
 H181 H 0.68746 0.30163 -0.17612
 H182 H 0.73491 0.25496 -0.22123
 N183 N 0.11660 0.74846 0.23368
 N184 N 0.13207 0.79436 0.20451
 C185 C 0.09445 0.80252 0.16124
 C186 C 0.05336 0.75898 0.16294
 C187 C 0.06906 0.72559 0.20970
 H188 H 0.09658 0.83783 0.13112
 H189 H 0.04669 0.68787 0.22544
 Cu190 Cu 0.19974 0.83912 0.22602
 Cu191 Cu 0.15765 0.72298 0.30181
 Cu192 Cu 0.27634 0.80355 0.34343
 N193 N 0.26579 0.88459 0.25076
 N194 N 0.29513 0.87068 0.29693
 C195 C 0.33779 0.90917 0.30482
 C196 C 0.33573 0.94963 0.26081
 C197 C 0.28904 0.93237 0.22750
 H198 H 0.36790 0.90762 0.34015
 H199 H 0.27340 0.95351 0.18918
 N200 N 0.25043 0.73419 0.38485
 N201 N 0.20471 0.70407 0.36949
 C202 C 0.19708 0.66064 0.40704
 C203 C 0.24043 0.66300 0.44797
 C204 C 0.27337 0.71034 0.43228
 H205 H 0.16227 0.62979 0.40487
 H206 H 0.31101 0.72635 0.45460
 H207 H 0.18931 0.80334 0.32384
 H208 H 0.23708 0.75661 0.27911
 N209 N 0.50152 0.36521 0.51656
 N210 N 0.45548 0.38069 0.54561
 C211 C 0.44738 0.34349 0.58923
 C212 C 0.49113 0.30254 0.58801
 C213 C 0.52447 0.31799 0.54092
 H214 H 0.41195 0.34578 0.61928
 H215 H 0.56236 0.29574 0.52536
 Cu216 Cu 0.41048 0.44779 0.52329
 Cu217 Cu 0.52738 0.40622 0.44833
 Cu218 Cu 0.44767 0.52561 0.40738
 N219 N 0.36633 0.51510 0.49992
 N220 N 0.38084 0.54483 0.45416
 C221 C 0.34290 0.58797 0.44668
 C222 C 0.30231 0.58575 0.49045
 C223 C 0.31873 0.53868 0.52333
 H224 H 0.34469 0.61844 0.41170
 H225 H 0.29694 0.52279 0.56121
 N226 N 0.51663 0.49932 0.36559
 N227 N 0.54652 0.45342 0.38062
 C228 C 0.58993 0.44589 0.34290
 C229 C 0.58772 0.48951 0.30225
 C230 C 0.54053 0.52243 0.31824
 H231 H 0.62073 0.41107 0.34481
 H232 H 0.52473 0.56027 0.29625
 H233 H 0.49400 0.48523 0.47165
 H234 H 0.44746 0.43844 0.42575
 N235 N 0.00240 -0.13484 1.01500
 N236 N -0.04370 -0.11952 1.04402
 C237 C -0.05188 -0.15688 1.08748
 C238 C -0.00816 -0.19770 1.08604
 C239 C 0.02537 -0.18211 1.03924
 H240 H -0.08730 -0.15479 1.11756
 H241 H 0.06328 -0.20433 1.02368
 Cu242 Cu -0.08870 -0.05249 1.02182
 Cu243 Cu 0.02811 -0.09377 0.94683
 Cu244 Cu -0.05169 0.02567 0.90599
 N245 N -0.13295 0.01472 0.99870
 N246 N -0.11867 0.04462 0.95298
 C247 C -0.15684 0.08764 0.94582
 C248 C -0.19728 0.08509 0.98978
 C249 C -0.18052 0.03802 1.02240
 H250 H -0.15527 0.11829 0.91097
 H251 H -0.20206 0.02194 1.06035
 N252 N 0.01748 -0.00061 0.86417
 N253 N 0.04722 -0.04661 0.87919
 C254 C 0.09061 -0.05434 0.84153
 C255 C 0.08877 -0.01069 0.80084
 C256 C 0.04159 0.02241 0.81684
 H257 H 0.12110 -0.08941 0.84347
 H258 H 0.02592 0.06030 0.79483
 H259 H -0.00539 -0.01464 0.97011
 H260 H -0.05188 -0.06140 0.92417
 N261 N 0.99867 0.63451 1.01537
 N262 N 1.04488 0.61921 1.04421
 C263 C 1.05327 0.65670 1.08748
 C264 C 1.00959 0.69759 1.08613
 C265 C 0.97587 0.68189 1.03954
 H266 H 1.08879 0.65464 1.11740
 H267 H 0.93792 0.70410 1.02410
 Cu268 Cu 1.08971 0.55201 1.02203
 Cu269 Cu 0.97253 0.59322 0.94754
 Cu270 Cu 1.05199 0.47359 0.90677
 N271 N 1.13368 0.48459 0.99881
 N272 N 1.11904 0.45464 0.95328
 C273 C 1.15699 0.41148 0.94590
 C274 C 1.19770 0.41397 0.98949
 C275 C 1.18133 0.46116 1.02217
 H276 H 1.15509 0.38079 0.91114
 H277 H 1.20318 0.47722 1.05990
 N278 N 0.98281 0.49972 0.86528
 N279 N 0.95308 0.54574 0.88023
 C280 C 0.90962 0.55330 0.84265
 C281 C 0.91157 0.50954 0.80218
 C282 C 0.95871 0.47652 0.81812
 H283 H 0.87905 0.58832 0.84448
 H284 H 0.97441 0.43863 0.79616
 H285 H 1.00601 0.51426 0.97108
 H286 H 1.05235 0.56082 0.92464
 N287 N 0.49897 0.13543 0.51609
 N288 N 0.54501 0.11985 0.54503
 C289 C 0.55325 0.15693 0.58867
 C290 C 0.50960 0.19795 0.58759
 C291 C 0.47617 0.18268 0.54055
 H292 H 0.58860 0.15444 0.61875
 H293 H 0.43820 0.20493 0.52520
 Cu294 Cu 0.58976 0.05265 0.52276
 Cu295 Cu 0.47268 0.09416 0.44817
 Cu296 Cu 0.55227 -0.02537 0.40727
 N297 N 0.63369 -0.01474 0.49948
 N298 N 0.61916 -0.04449 0.45380
 C299 C 0.65703 -0.08770 0.44637
 C300 C 0.69755 -0.08546 0.49011
 C301 C 0.68119 -0.03836 0.52292
 H302 H 0.65519 -0.11826 0.41149
 H303 H 0.70297 -0.02248 0.56077
 N304 N 0.48323 0.00077 0.36574
 N305 N 0.45324 0.04659 0.38079
 C306 C 0.40949 0.05369 0.34342
 C307 C 0.41156 0.00982 0.30299
 C308 C 0.45914 -0.02267 0.31872
 H309 H 0.37856 0.08838 0.34545
 H310 H 0.47495 -0.06056 0.29685
 H311 H 0.50604 0.01522 0.47162
 H312 H 0.55246 0.06190 0.42539
 N313 N 0.00091 0.13530 0.48390
 N314 N -0.04543 0.11992 0.45530
 C315 C -0.05410 0.15733 0.41202
 C316 C -0.01042 0.19832 0.41298
 C317 C 0.02353 0.18271 0.45950
 H318 H -0.08981 0.15514 0.38234
 H319 H 0.06159 0.20496 0.47469
 Cu320 Cu -0.09003 0.05262 0.47751
 Cu321 Cu 0.02739 0.09390 0.55168
 Cu322 Cu -0.05235 -0.02565 0.59277
 N323 N -0.13387 -0.01486 0.50065
 N324 N -0.11935 -0.04472 0.54628
 C325 C -0.15727 -0.08795 0.55363
 C326 C -0.19780 -0.08559 0.50989
 C327 C -0.18139 -0.03842 0.47717
 H328 H -0.15547 -0.11859 0.58847
 H329 H -0.20317 -0.02244 0.43936
 N330 N 0.01682 0.00049 0.63419
 N331 N 0.04694 0.04623 0.61898
 C332 C 0.09077 0.05333 0.65627
 C333 C 0.08858 0.00958 0.69684
 C334 C 0.04089 -0.02289 0.68126
 H335 H 0.12182 0.08796 0.65412
 H336 H 0.02498 -0.06070 0.70327
 H337 H -0.00624 0.01500 0.52836
 H338 H -0.05239 0.06166 0.57476
 N339 N 0.50121 0.63482 -0.01512
 N340 N 0.45512 0.61943 -0.04411
 C341 C 0.44677 0.65692 -0.08739
 C342 C 0.49035 0.69794 -0.08590
 C343 C 0.52398 0.68230 -0.03921
 H344 H 0.41136 0.65476 -0.11742
 H345 H 0.56187 0.70459 -0.02369
 Cu346 Cu 0.41038 0.55209 -0.02221
 Cu347 Cu 0.52720 0.59343 0.05276
 Cu348 Cu 0.44766 0.47353 0.09310
 N349 N 0.36644 0.48456 0.00067
 N350 N 0.38086 0.45454 0.04623
 C351 C 0.34287 0.41132 0.05336
 C352 C 0.30240 0.41387 0.00956
 C353 C 0.31892 0.46113 -0.02297
 H354 H 0.34457 0.38058 0.08812
 H355 H 0.29722 0.47727 -0.06076
 N356 N 0.51663 0.49974 0.13491
 N357 N 0.54643 0.54581 0.12007
 C358 C 0.58982 0.55330 0.15775
 C359 C 0.58775 0.50946 0.19818
 C360 C 0.54059 0.47647 0.18212
 H361 H 0.62044 0.58832 0.15600
 H362 H 0.52483 0.43850 0.20398
 H363 H 0.49390 0.51443 0.02904
 H364 H 0.44733 0.56080 0.07534
 N365 N 0.49770 -0.13461 -0.01494
 N366 N 0.54390 -0.11934 -0.04389
 C367 C 0.55201 -0.15665 -0.08734
 C368 C 0.50815 -0.19738 -0.08598
 C369 C 0.47460 -0.18178 -0.03922
 H370 H 0.58751 -0.15464 -0.11734
 H371 H 0.43661 -0.20397 -0.02371
 Cu372 Cu 0.58913 -0.05249 -0.02157
 Cu373 Cu 0.47205 -0.09364 0.05321
 Cu374 Cu 0.55216 0.02561 0.09419
 N375 N 0.63359 0.01454 0.00168
 N376 N 0.61928 0.04446 0.04735
 C377 C 0.65749 0.08749 0.05450
 C378 C 0.69798 0.08492 0.01060
 C379 C 0.68123 0.03782 -0.02197
 H380 H 0.65587 0.11821 0.08926
 H381 H 0.70276 0.02178 -0.05991
 N382 N 0.48285 -0.00060 0.13587
 N383 N 0.45303 -0.04657 0.12084
 C384 C 0.40959 -0.05429 0.15845
 C385 C 0.41148 -0.01066 0.19909
 C386 C 0.45872 0.02244 0.18313
 H387 H 0.37899 -0.08932 0.15648
 H388 H 0.47442 0.06033 0.20511
 H389 H 0.50585 -0.01456 0.02997
 H390 H 0.55212 -0.06145 0.07600
 N391 N 0.99762 0.36561 0.48422
 N392 N 1.04358 0.38108 0.45498
 C393 C 1.05144 0.34388 0.41137
 C394 C 1.00767 0.30298 0.41292
 C395 C 0.97450 0.31839 0.46003
 H396 H 1.08667 0.34615 0.38108
 H397 H 0.93662 0.29615 0.47573
 Cu398 Cu 1.08881 0.44811 0.47717
 Cu399 Cu 0.97197 0.40663 0.55234
 Cu400 Cu 1.05186 0.52602 0.59306
 N401 N 1.13313 0.51535 0.50047
 N402 N 1.11873 0.54512 0.54621
 C403 C 1.15683 0.58817 0.55363
 C404 C 1.19741 0.58586 0.50986
 C405 C 1.18082 0.53882 0.47704
 H406 H 1.15515 0.61865 0.58859
 H407 H 1.20256 0.52286 0.43918
 N408 N 0.98282 0.49975 0.63487
 N409 N 0.95295 0.45379 0.61992
 C410 C 0.90953 0.44619 0.65760
 C411 C 0.91166 0.48984 0.69815
 C412 C 0.95887 0.52285 0.68217
 H413 H 0.87880 0.41128 0.65572
 H414 H 0.97463 0.56073 0.70412
 H415 H 1.00549 0.48569 0.52887
 H416 H 1.05202 0.43891 0.57479
 C417 C 0.37248 -0.00076 0.25118
 C418 C 0.12771 -0.00090 0.74863
 C419 C 0.62647 0.49950 0.25020
 C420 C 0.87284 0.49972 0.75013
 C421 C 0.25004 0.37539 -0.00061
 C422 C 0.75029 0.12349 0.00011
 C423 C 0.24992 0.62435 0.50011
 C424 C 0.74983 0.87592 0.49996
 C425 C -0.00166 0.25069 0.37416
 C426 C 0.00078 0.75000 0.12460
 C427 C 0.50034 0.25005 0.62688
 C428 C 0.49917 0.75031 0.87555
   
