data_POSCAR
  _audit_creation_date              2014-09-24
  _audit_creation_method            'ToBaCCo'
  _symmetry_space_group_name_H-M    'P1'
  _symmetry_Int_Tables_number       1
  _symmetry_cell_setting            triclinic
  loop_
  _symmetry_equiv_pos_as_xyz
 x,y,z
_cell_length_a 44.9815
_cell_length_b 43.5136
_cell_length_c 25.6672
_cell_angle_alpha 90.008400
_cell_angle_beta 89.960000
_cell_angle_gamma 90.186200
loop_
  _atom_site_label
  _atom_site_type_symbol
  _atom_site_fract_x
  _atom_site_fract_y
  _atom_site_fract_z
C1 C 0.70497 0.31771 0.50339
 C2 C 0.71646 0.30813 0.55176
 C3 C 0.73553 0.28242 0.55226
 C4 C 0.74134 0.26517 0.50670
 C5 C 0.72801 0.27470 0.45967
 C6 C 0.71084 0.30145 0.45748
 C7 C 0.76133 0.23753 0.50832
 C8 C 0.77636 0.22731 0.46312
 C9 C 0.79407 0.20055 0.46345
 C10 C 0.79838 0.18554 0.51149
 C11 C 0.78472 0.19585 0.55725
 C12 C 0.76557 0.22111 0.55512
 H13 H 0.68965 0.33677 0.50110
 H14 H 0.74684 0.27669 0.58802
 H15 H 0.73095 0.26171 0.42419
 H16 H 0.77351 0.23969 0.42717
 H17 H 0.81402 0.16678 0.51446
 H18 H 0.75395 0.22751 0.59033
 C19 C 0.18354 0.79489 0.50216
 C20 C 0.19336 0.78289 0.55010
 C21 C 0.21876 0.76389 0.54987
 C22 C 0.23527 0.75860 0.50383
 C23 C 0.22549 0.77258 0.45730
 C24 C 0.19923 0.78970 0.45594
 C25 C 0.26248 0.73856 0.50414
 C26 C 0.27254 0.72442 0.45790
 C27 C 0.29884 0.70736 0.45708
 C28 C 0.31430 0.70241 0.50356
 C29 C 0.30421 0.71457 0.55123
 C30 C 0.27875 0.73348 0.55046
 H31 H 0.16474 0.81029 0.50053
 H32 H 0.22485 0.75225 0.58540
 H33 H 0.23795 0.77022 0.42156
 H34 H 0.26026 0.72662 0.42195
 H35 H 0.33316 0.68705 0.50236
 H36 H 0.27245 0.74524 0.58580
 C37 C 0.29302 0.31742 -0.50535
 C38 C 0.28147 0.30635 -0.55239
 C39 C 0.26404 0.27957 -0.55206
 C40 C 0.25972 0.26237 -0.50591
 C41 C 0.27261 0.27360 -0.45936
 C42 C 0.28835 0.30154 -0.45859
 C43 C 0.24212 0.23289 -0.50671
 C44 C 0.22827 0.22139 -0.46117
 C45 C 0.21249 0.19322 -0.46128
 C46 C 0.20895 0.17791 -0.50928
 C47 C 0.22152 0.18934 -0.55527
 C48 C 0.23888 0.21605 -0.55335
 H49 H 0.30675 0.33793 -0.50530
 H50 H 0.25381 0.27257 -0.58826
 H51 H 0.27057 0.26095 -0.42334
 H52 H 0.23046 0.23395 -0.42523
 H53 H 0.19456 0.15800 -0.51203
 H54 H 0.24981 0.22331 -0.58877
 C55 C -0.21110 0.82318 -0.50317
 C56 C -0.22195 0.81244 -0.55137
 C57 C -0.23863 0.78489 -0.55160
 C58 C -0.24263 0.76718 -0.50597
 C59 C -0.22999 0.77804 -0.45916
 C60 C -0.21518 0.80636 -0.45722
 C61 C -0.25997 0.73760 -0.50712
 C62 C -0.27357 0.72598 -0.46151
 C63 C -0.28893 0.69786 -0.46188
 C64 C -0.29239 0.68204 -0.50899
 C65 C -0.28015 0.69352 -0.55528
 C66 C -0.26328 0.72070 -0.55382
 H67 H -0.19744 0.84365 -0.50116
 H68 H -0.24951 0.77796 -0.58720
 H69 H -0.23161 0.76479 -0.42369
 H70 H -0.27235 0.73852 -0.42526
 H71 H -0.30573 0.66127 -0.50989
 H72 H -0.25266 0.72824 -0.58939
 N73 N 0.03284 1.05267 -0.05525
 N74 N 0.05325 1.07330 -0.06775
 N75 N -0.03043 1.03347 -0.08998
 N76 N -0.05197 1.03833 -0.12370
 N77 N -0.02960 1.05544 -0.05492
 N78 N -0.05053 1.07599 -0.06416
 N79 N 0.03200 1.03058 -0.09010
 N80 N 0.05184 1.03556 -0.12703
 C81 C 0.06521 1.06209 -0.11232
 C82 C -0.06443 1.06485 -0.10714
 N83 N -0.03484 0.94630 -0.05223
 N84 N -0.05568 0.92584 -0.06327
 N85 N 0.02878 0.96427 -0.08830
 N86 N 0.04801 0.95643 -0.12476
 N87 N 0.02745 0.94304 -0.05198
 N88 N 0.04571 0.92023 -0.06285
 N89 N -0.03362 0.96756 -0.08845
 N90 N -0.05368 0.96229 -0.12479
 Mn91 Mn -0.00076 0.99899 -0.08964
 C92 C -0.06752 0.93639 -0.10839
 C93 C 0.05870 0.92908 -0.10806
 N94 N -0.02930 1.05668 0.05791
 N95 N -0.04837 1.07885 0.06885
 N96 N 0.03214 1.03211 0.09336
 N97 N 0.05388 1.03583 0.12718
 N98 N 0.03314 1.05352 0.05735
 N99 N 0.05562 1.07251 0.06593
 N100 N -0.03026 1.03525 0.09385
 N101 N -0.05009 1.04204 0.12980
 Mn102 Mn 0.00177 1.05496 0.00126
 C103 C -0.06145 1.06913 0.11358
 C104 C 0.06848 1.06100 0.10953
 N105 N 0.02750 0.94421 0.06026
 N106 N 0.04743 0.92280 0.07042
 N107 N -0.03370 0.96942 0.09547
 N108 N -0.05535 0.96629 0.12972
 N109 N -0.03496 0.94754 0.06033
 N110 N -0.05748 0.92880 0.06994
 N111 N 0.02876 0.96619 0.09521
 N112 N 0.04957 0.96041 0.12995
 Mn113 Mn -0.00376 0.94494 0.00416
 Mn114 Mn -0.00075 1.00074 0.09493
 Cl115 Cl -0.00086 0.99992 0.00263
 C116 C 0.06122 0.93339 0.11383
 C117 C -0.07013 0.94096 0.11323
 N118 N 0.52969 0.46652 -0.09231
 N119 N 0.55098 0.46211 -0.12676
 N120 N 0.46716 0.44638 -0.05499
 N121 N 0.44706 0.42531 -0.06689
 N122 N 0.46725 0.46847 -0.08986
 N123 N 0.44719 0.46305 -0.12618
 N124 N 0.52963 0.44454 -0.05726
 N125 N 0.55084 0.42440 -0.06725
 C126 C 0.56408 0.43583 -0.11069
 C127 C 0.43447 0.43626 -0.11108
 N128 N 0.46950 0.46698 0.09360
 N129 N 0.44828 0.46293 0.12837
 N130 N 0.53079 0.44331 0.05554
 N131 N 0.55025 0.42139 0.06566
 N132 N 0.53192 0.46474 0.09149
 N133 N 0.55225 0.45817 0.12664
 N134 N 0.46831 0.44556 0.05762
 N135 N 0.44623 0.42623 0.06717
 Mn136 Mn 0.49898 0.44456 0.00021
 C137 C 0.43380 0.43754 0.11135
 C138 C 0.56374 0.43124 0.10989
 N139 N 0.46958 0.53482 -0.08813
 N140 N 0.44991 0.54246 -0.12394
 N141 N 0.53342 0.55372 -0.05473
 N142 N 0.55380 0.57451 -0.06671
 N143 N 0.53199 0.53244 -0.09091
 N144 N 0.55145 0.53803 -0.12816
 N145 N 0.47111 0.55608 -0.05189
 N146 N 0.45255 0.57872 -0.06219
 Mn147 Mn 0.49957 0.50054 -0.09072
 C148 C 0.43915 0.56971 -0.10690
 C149 C 0.56515 0.56414 -0.11237
 N150 N 0.53447 0.53064 0.09302
 N151 N 0.55623 0.53438 0.12683
 N152 N 0.47249 0.55491 0.06030
 N153 N 0.45227 0.57593 0.07103
 N154 N 0.47199 0.53296 0.09533
 N155 N 0.45141 0.53836 0.13073
 N156 N 0.53498 0.55252 0.05784
 N157 N 0.55708 0.57187 0.06698
 Mn158 Mn 0.50196 0.49883 0.09382
 Mn159 Mn 0.50304 0.55464 0.00294
 Cl160 Cl 0.50087 0.49963 0.00152
 C161 C 0.57030 0.56007 0.10999
 C162 C 0.43911 0.56513 0.11493
 C163 C 0.31357 0.35062 0.30920
 C164 C 0.31113 0.31856 0.31098
 C165 C 0.29909 0.30417 0.35497
 C166 C 0.28957 0.32171 0.39789
 C167 C 0.29079 0.35396 0.39465
 C168 C 0.30277 0.36829 0.35062
 C169 C 0.33015 0.36526 0.26807
 C170 C 0.34545 0.37801 0.23605
 C171 C 0.36521 0.39389 0.20101
 C172 C 0.37643 0.37928 0.15652
 C173 C 0.39814 0.39385 0.12601
 C174 C 0.40898 0.42304 0.14007
 C175 C 0.39693 0.43785 0.18391
 C176 C 0.37522 0.42336 0.21412
 H177 H 0.31967 0.30464 0.27937
 H178 H 0.29874 0.27930 0.35658
 H179 H 0.28334 0.36806 0.42686
 H180 H 0.30467 0.39311 0.34977
 H181 H 0.36898 0.35638 0.14622
 H182 H 0.40706 0.38193 0.09245
 H183 H 0.40474 0.46038 0.19558
 H184 H 0.36683 0.43481 0.24860
 C185 C -0.19181 0.85758 0.31189
 C186 C -0.19994 0.82657 0.30984
 C187 C -0.21158 0.81201 0.35405
 C188 C -0.21474 0.82813 0.40165
 C189 C -0.20814 0.85994 0.40169
 C190 C -0.19673 0.87437 0.35741
 C191 C -0.17544 0.87156 0.26988
 C192 C -0.16010 0.88388 0.23745
 C193 C -0.14011 0.89929 0.20223
 C194 C -0.12881 0.88415 0.15834
 C195 C -0.10666 0.89810 0.12801
 C196 C -0.09545 0.92722 0.14167
 C197 C -0.10761 0.94260 0.18482
 C198 C -0.12976 0.92871 0.21486
 H199 H -0.19602 0.81328 0.27482
 H200 H -0.21572 0.78755 0.35152
 H201 H -0.21169 0.87399 0.43590
 H202 H -0.19078 0.89850 0.35929
 H203 H -0.13649 0.86126 0.14845
 H204 H -0.09767 0.88575 0.09497
 H205 H -0.09950 0.96509 0.19616
 H206 H -0.13819 0.94056 0.24892
 C207 C 0.69039 0.64850 0.30546
 C208 C 0.70147 0.63113 0.34697
 C209 C 0.71276 0.64578 0.39122
 C210 C 0.71299 0.67805 0.39458
 C211 C 0.70336 0.69534 0.35149
 C212 C 0.69200 0.68062 0.30727
 C213 C 0.67412 0.63342 0.26447
 C214 C 0.65897 0.62032 0.23267
 C215 C 0.63929 0.60413 0.19794
 C216 C 0.62970 0.57452 0.21113
 C217 C 0.60789 0.55984 0.18142
 C218 C 0.59532 0.57462 0.13806
 C219 C 0.60577 0.60395 0.12387
 C220 C 0.62758 0.61868 0.15384
 H221 H 0.70021 0.60627 0.34611
 H222 H 0.72031 0.63190 0.42360
 H223 H 0.70298 0.72020 0.35321
 H224 H 0.68322 0.69430 0.27558
 H225 H 0.63846 0.56312 0.24535
 H226 H 0.60036 0.53722 0.19318
 H227 H 0.59645 0.61585 0.09066
 H228 H 0.63468 0.64170 0.14351
 C229 C 0.19088 1.14633 0.30440
 C230 C 0.20166 1.12831 0.34537
 C231 C 0.21332 1.14227 0.38996
 C232 C 0.21425 1.17448 0.39421
 C233 C 0.20491 1.19240 0.35165
 C234 C 0.19317 1.17838 0.30709
 C235 C 0.17420 1.13201 0.26313
 C236 C 0.15869 1.11946 0.23121
 C237 C 0.13858 1.10377 0.19658
 C238 C 0.12860 1.07430 0.20971
 C239 C 0.10641 1.06008 0.18027
 C240 C 0.09385 1.07516 0.13719
 C241 C 0.10470 1.10433 0.12299
 C242 C 0.12689 1.11863 0.15275
 H243 H 0.19985 1.10349 0.34384
 H244 H 0.22061 1.12792 0.42194
 H245 H 0.20505 1.21725 0.35405
 H246 H 0.18462 1.19256 0.27584
 H247 H 0.13734 1.06266 0.24371
 H248 H 0.09859 1.03755 0.19201
 H249 H 0.09539 1.11645 0.09000
 H250 H 0.13430 1.14155 0.14246
 C251 C 0.68333 0.35094 -0.31146
 C252 C 0.69371 0.32073 -0.30928
 C253 C 0.70614 0.30702 -0.35358
 C254 C 0.70788 0.32319 -0.40139
 C255 C 0.69875 0.35426 -0.40170
 C256 C 0.68658 0.36785 -0.35734
 C257 C 0.66691 0.36408 -0.26880
 C258 C 0.65171 0.37608 -0.23592
 C259 C 0.63211 0.39169 -0.20040
 C260 C 0.61943 0.37632 -0.15781
 C261 C 0.59787 0.39095 -0.12719
 C262 C 0.58865 0.42096 -0.13932
 C263 C 0.60215 0.43644 -0.18121
 C264 C 0.62370 0.42190 -0.21147
 H265 H 0.69115 0.30734 -0.27396
 H266 H 0.71221 0.28304 -0.35088
 H267 H 0.70105 0.36845 -0.43607
 H268 H 0.67892 0.39140 -0.35932
 H269 H 0.62561 0.35283 -0.14913
 H270 H 0.58780 0.37851 -0.09515
 H271 H 0.59562 0.45961 -0.19135
 H272 H 0.63322 0.43396 -0.24448
 C273 C 0.15211 0.81692 -0.31309
 C274 C 0.13545 0.81254 -0.35834
 C275 C 0.14853 0.79979 -0.40257
 C276 C 0.17885 0.79126 -0.40278
 C277 C 0.19478 0.79380 -0.35542
 C278 C 0.18157 0.80684 -0.31122
 C279 C 0.13946 0.83436 -0.27096
 C280 C 0.12794 0.85037 -0.23841
 C281 C 0.11309 0.87075 -0.20277
 C282 C 0.10229 0.86001 -0.15494
 C283 C 0.08540 0.87936 -0.12302
 C284 C 0.07900 0.90958 -0.13888
 C285 C 0.09070 0.92041 -0.18622
 C286 C 0.10761 0.90110 -0.21793
 H287 H 0.11247 0.81990 -0.36002
 H288 H 0.13463 0.79672 -0.43657
 H289 H 0.21814 0.78811 -0.35316
 H290 H 0.19473 0.81023 -0.27633
 H291 H 0.10629 0.83651 -0.14293
 H292 H 0.07665 0.87041 -0.08674
 H293 H 0.08618 0.94358 -0.19938
 H294 H 0.11577 0.90962 -0.25496
 C295 C 0.34497 0.68122 -0.31117
 C296 C 0.31545 0.69115 -0.30973
 C297 C 0.30239 0.70399 -0.35420
 C298 C 0.31853 0.70646 -0.40139
 C299 C 0.34889 0.69812 -0.40074
 C300 C 0.36184 0.68558 -0.35624
 C301 C 0.35752 0.66392 -0.26882
 C302 C 0.36902 0.64799 -0.23618
 C303 C 0.38393 0.62769 -0.20055
 C304 C 0.38920 0.59725 -0.21548
 C305 C 0.40634 0.57804 -0.18404
 C306 C 0.41849 0.58906 -0.13719
 C307 C 0.41225 0.61935 -0.12147
 C308 C 0.39513 0.63860 -0.15314
 H309 H 0.30215 0.68779 -0.27499
 H310 H 0.27899 0.70956 -0.35229
 H311 H 0.36293 0.70116 -0.43460
 H312 H 0.38485 0.67834 -0.35760
 H313 H 0.38074 0.58860 -0.25220
 H314 H 0.41073 0.55482 -0.19707
 H315 H 0.42135 0.62844 -0.08557
 H316 H 0.39131 0.66216 -0.14132
 C317 C -0.18398 1.15348 -0.30254
 C318 C -0.19372 1.13527 -0.34415
 C319 C -0.20554 1.14896 -0.38873
 C320 C -0.20772 1.18112 -0.39234
 C321 C -0.19942 1.19918 -0.34924
 C322 C -0.18746 1.18542 -0.30466
 C323 C -0.16735 1.13949 -0.26097
 C324 C -0.15204 1.12687 -0.22896
 C325 C -0.13239 1.11068 -0.19435
 C326 C -0.12452 1.08041 -0.20624
 C327 C -0.10298 1.06532 -0.17680
 C328 C -0.08895 1.08029 -0.13494
 C329 C -0.09761 1.11037 -0.12201
 C330 C -0.11916 1.12555 -0.15178
 H331 H -0.19102 1.11054 -0.34305
 H332 H -0.21201 1.13450 -0.42119
 H333 H -0.20059 1.22401 -0.35119
 H334 H -0.17976 1.19976 -0.27288
 H335 H -0.13447 1.06874 -0.23924
 H336 H -0.09687 1.04211 -0.18756
 H337 H -0.08713 1.12243 -0.08997
 H338 H -0.12493 1.14907 -0.14247
 C339 C 0.67170 0.65880 -0.32442
 C340 C 0.66902 0.69035 -0.33404
 C341 C 0.68235 0.70336 -0.37819
 C342 C 0.69831 0.68484 -0.41332
 C343 C 0.70138 0.65332 -0.40261
 C344 C 0.68815 0.64042 -0.35851
 C345 C 0.65593 0.64457 -0.28198
 C346 C 0.64213 0.63130 -0.24854
 C347 C 0.62486 0.61399 -0.21152
 C348 C 0.61496 0.62737 -0.16502
 C349 C 0.59624 0.61082 -0.13150
 C350 C 0.58714 0.58083 -0.14449
 C351 C 0.59788 0.56735 -0.19053
 C352 C 0.61660 0.58383 -0.22375
 H353 H 0.65610 0.70474 -0.30812
 H354 H 0.67941 0.72764 -0.38572
 H355 H 0.71387 0.63860 -0.42862
 H356 H 0.69027 0.61596 -0.35155
 H357 H 0.62118 0.65075 -0.15525
 H358 H 0.58824 0.62175 -0.09630
 H359 H 0.59133 0.54426 -0.20146
 H360 H 0.62410 0.57326 -0.25964
 C361 C 0.17288 1.15458 -0.32555
 C362 C 0.17745 1.18633 -0.32859
 C363 C 0.19104 1.19923 -0.37266
 C364 C 0.19999 1.18054 -0.41501
 C365 C 0.19579 1.14841 -0.41021
 C366 C 0.18239 1.13572 -0.36617
 C367 C 0.15704 1.14099 -0.28255
 C368 C 0.14307 1.12807 -0.24890
 C369 C 0.12555 1.11105 -0.21178
 C370 C 0.11543 1.12480 -0.16575
 C371 C 0.09648 1.10854 -0.13220
 C372 C 0.08737 1.07846 -0.14464
 C373 C 0.09831 1.06462 -0.19021
 C374 C 0.11726 1.08082 -0.22350
 H375 H 0.16991 1.20121 -0.29745
 H376 H 0.19284 1.22399 -0.37421
 H377 H 0.20351 1.13263 -0.43982
 H378 H 0.17919 1.11105 -0.36407
 H379 H 0.12164 1.14822 -0.15637
 H380 H 0.08834 1.11976 -0.09736
 H381 H 0.09175 1.04147 -0.20075
 H382 H 0.12492 1.06997 -0.25904
 C383 C 0.32700 0.34047 -0.32048
 C384 C 0.32944 0.30885 -0.32983
 C385 C 0.31610 0.29580 -0.37395
 C386 C 0.30043 0.31436 -0.40935
 C387 C 0.29743 0.34590 -0.39873
 C388 C 0.31063 0.35883 -0.35467
 C389 C 0.34303 0.35484 -0.27845
 C390 C 0.35703 0.36829 -0.24546
 C391 C 0.37449 0.38579 -0.20893
 C392 C 0.38515 0.37239 -0.16301
 C393 C 0.40398 0.38914 -0.12998
 C394 C 0.41242 0.41936 -0.14281
 C395 C 0.40094 0.43284 -0.18827
 C396 C 0.38212 0.41615 -0.22105
 H397 H 0.34226 0.29446 -0.30381
 H398 H 0.31895 0.27149 -0.38141
 H399 H 0.28516 0.36065 -0.42499
 H400 H 0.30866 0.38333 -0.34794
 H401 H 0.37944 0.34888 -0.15332
 H402 H 0.41253 0.37818 -0.09523
 H403 H 0.40699 0.45608 -0.19911
 H404 H 0.37403 0.42674 -0.25651
 C405 C -0.17701 0.84335 -0.31727
 C406 C -0.17367 0.81207 -0.32873
 C407 C -0.18681 0.79965 -0.37351
 C408 C -0.20320 0.81850 -0.40743
 C409 C -0.20709 0.84966 -0.39472
 C410 C -0.19406 0.86197 -0.34999
 C411 C -0.16099 0.85722 -0.27481
 C412 C -0.14686 0.87026 -0.24156
 C413 C -0.12912 0.88738 -0.20501
 C414 C -0.11867 0.87378 -0.15911
 C415 C -0.09934 0.89008 -0.12633
 C416 C -0.09018 0.92003 -0.13950
 C417 C -0.10150 0.93374 -0.18487
 C418 C -0.12082 0.91751 -0.21734
 H419 H -0.16027 0.79752 -0.30390
 H420 H -0.18327 0.77564 -0.38262
 H421 H -0.21989 0.86460 -0.41986
 H422 H -0.19667 0.88623 -0.34164
 H423 H -0.12489 0.85041 -0.14929
 H424 H -0.09091 0.87897 -0.09163
 H425 H -0.09492 0.95680 -0.19591
 H426 H -0.12874 0.92824 -0.25280
 C427 C 0.33413 0.66521 0.31924
 C428 C 0.35261 0.68228 0.35222
 C429 C 0.34087 0.69663 0.39620
 C430 C 0.31043 0.69411 0.40791
 C431 C 0.29175 0.67776 0.37372
 C432 C 0.30361 0.66324 0.32967
 C433 C 0.34728 0.64802 0.27733
 C434 C 0.35992 0.63321 0.24447
 C435 C 0.37678 0.61510 0.20814
 C436 C 0.38829 0.62840 0.16268
 C437 C 0.40781 0.61174 0.13102
 C438 C 0.41617 0.58172 0.14486
 C439 C 0.40369 0.56822 0.18958
 C440 C 0.38415 0.58483 0.22101
 H441 H 0.37626 0.68388 0.34461
 H442 H 0.35567 0.70939 0.42158
 H443 H 0.26827 0.67528 0.38209
 H444 H 0.28915 0.64989 0.30457
 H445 H 0.38291 0.65190 0.15259
 H446 H 0.41710 0.62268 0.09677
 H447 H 0.40964 0.54510 0.20108
 H448 H 0.37554 0.57440 0.25628
 C449 C -0.16537 1.16464 0.32658
 C450 C -0.17301 1.14526 0.36779
 C451 C -0.18647 1.15707 0.41240
 C452 C -0.19266 1.18881 0.41717
 C453 C -0.18529 1.20803 0.37447
 C454 C -0.17164 1.19602 0.32980
 C455 C -0.15007 1.15183 0.28239
 C456 C -0.13667 1.13905 0.24799
 C457 C -0.12001 1.12146 0.21059
 C458 C -0.11520 1.09027 0.22043
 C459 C -0.09689 1.07314 0.18770
 C460 C -0.08310 1.08694 0.14447
 C461 C -0.08880 1.11805 0.13358
 C462 C -0.10711 1.13530 0.16672
 H463 H -0.16847 1.12085 0.36555
 H464 H -0.19284 1.14081 0.44229
 H465 H -0.18855 1.23261 0.37602
 H466 H -0.16554 1.21130 0.29821
 H467 H -0.12502 1.07934 0.25428
 H468 H -0.09302 1.04919 0.19694
 H469 H -0.07839 1.12924 0.10057
 H470 H -0.11062 1.15947 0.15885
 C471 C 0.67198 0.33596 0.31646
 C472 C 0.68740 0.35566 0.35005
 C473 C 0.70062 0.34418 0.39512
 C474 C 0.69862 0.31276 0.40737
 C475 C 0.68392 0.29285 0.37263
 C476 C 0.67052 0.30445 0.32747
 C477 C 0.65578 0.34897 0.27351
 C478 C 0.64166 0.36182 0.24013
 C479 C 0.62418 0.37936 0.20389
 C480 C 0.61879 0.41034 0.21474
 C481 C 0.59982 0.42735 0.18303
 C482 C 0.58595 0.41363 0.13983
 C483 C 0.59218 0.38275 0.12797
 C484 C 0.61115 0.36563 0.16006
 H485 H 0.68857 0.38009 0.34205
 H486 H 0.71212 0.35995 0.42089
 H487 H 0.68189 0.26858 0.38136
 H488 H 0.65842 0.28903 0.30195
 H489 H 0.62870 0.42119 0.24857
 H490 H 0.59555 0.45111 0.19301
 H491 H 0.58172 0.37163 0.09495
 H492 H 0.61511 0.34162 0.15141
 C493 C 0.16487 0.83162 0.31729
 C494 C 0.19534 0.83350 0.32815
 C495 C 0.20689 0.81904 0.37246
 C496 C 0.18797 0.80284 0.40648
 C497 C 0.15758 0.80039 0.39432
 C498 C 0.14615 0.81469 0.35007
 C499 C 0.15200 0.84888 0.27523
 C500 C 0.13961 0.86383 0.24229
 C501 C 0.12305 0.88221 0.20598
 C502 C 0.11667 0.91279 0.21845
 C503 C 0.09733 0.92977 0.18728
 C504 C 0.08406 0.91635 0.14322
 C505 C 0.09146 0.88601 0.12970
 C506 C 0.11078 0.86897 0.16111
 H507 H 0.20998 0.84676 0.30322
 H508 H 0.23033 0.82146 0.38118
 H509 H 0.14260 0.78775 0.41956
 H510 H 0.12253 0.81317 0.34214
 H511 H 0.12587 0.92319 0.25327
 H512 H 0.09213 0.95314 0.19852
 H513 H 0.08154 0.87512 0.09596
 H514 H 0.11538 0.84524 0.15134
   
