data_POSCAR
  _audit_creation_date              2014-09-24
  _audit_creation_method            'ToBaCCo'
  _symmetry_space_group_name_H-M    'P1'
  _symmetry_Int_Tables_number       1
  _symmetry_cell_setting            triclinic
  loop_
  _symmetry_equiv_pos_as_xyz
 x,y,z
_cell_length_a 29.1629
_cell_length_b 29.5661
_cell_length_c 13.5387
_cell_angle_alpha 90.046400
_cell_angle_beta 90.066900
_cell_angle_gamma 121.186500
loop_
  _atom_site_label
  _atom_site_type_symbol
  _atom_site_fract_x
  _atom_site_fract_y
  _atom_site_fract_z
C1 C 0.43036 0.85840 0.53554
 C2 C 0.43508 0.88853 0.61953
 C3 C 0.45702 0.94327 0.60893
 C4 C 0.48163 0.96949 0.52043
 C5 C 0.47797 0.93871 0.43818
 C6 C 0.45054 0.88329 0.44449
 C7 C 0.51414 1.02870 0.51742
 C8 C 0.52094 1.05710 0.42986
 C9 C 0.55400 1.11290 0.42707
 C10 C 0.57666 1.14047 0.51581
 C11 C 0.56893 1.11254 0.60390
 C12 C 0.54006 1.05733 0.60313
 H13 H 0.41215 0.81594 0.54062
 H14 H 0.45753 0.96605 0.67194
 H15 H 0.49711 0.95750 0.36928
 H16 H 0.50104 1.03558 0.36324
 H17 H 0.60054 1.18324 0.51696
 H18 H 0.53773 1.03686 0.67087
 C19 C 0.14232 0.57509 0.51269
 C20 C 0.11382 0.57822 0.59391
 C21 C 0.05789 0.55510 0.58577
 C22 C 0.03029 0.52656 0.50093
 C23 C 0.05932 0.52351 0.42139
 C24 C 0.11521 0.54857 0.42598
 C25 C -0.02909 0.49734 0.49719
 C26 C -0.05587 0.49920 0.41243
 C27 C -0.11199 0.46702 0.40397
 C28 C -0.14145 0.43521 0.48493
 C29 C -0.11509 0.43492 0.57161
 C30 C -0.05908 0.46507 0.57645
 H31 H 0.18552 0.59364 0.51587
 H32 H 0.03522 0.55722 0.64711
 H33 H 0.03841 0.50156 0.35556
 H34 H -0.03247 0.52411 0.35129
 H35 H -0.18476 0.41103 0.48150
 H36 H -0.03880 0.46330 0.64217
 C37 C 0.41855 0.55807 0.48392
 C38 C 0.44192 0.55437 0.57222
 C39 C 0.47481 0.53223 0.56907
 C40 C 0.48093 0.51006 0.48182
 C41 C 0.45472 0.51182 0.39627
 C42 C 0.42581 0.53757 0.39582
 C43 C 0.51409 0.48479 0.47935
 C44 C 0.53969 0.48432 0.39167
 C45 C 0.56625 0.45621 0.38541
 C46 C 0.57211 0.43244 0.47001
 C47 C 0.54916 0.43457 0.55925
 C48 C 0.51886 0.45916 0.56283
 H49 H 0.39483 0.57661 0.48300
 H50 H 0.49537 0.53175 0.63526
 H51 H 0.45715 0.49374 0.32850
 H52 H 0.53783 0.50453 0.32661
 H53 H 0.59337 0.41139 0.46599
 H54 H 0.49858 0.45756 0.63080
 O55 O 0.41305 0.65650 -0.09092
 O56 O 0.41135 0.74593 -0.09542
 C57 C 0.38710 0.77177 -0.09228
 O58 O 0.34982 0.76227 -0.03084
 O59 O 0.25408 0.67957 -0.06495
 C60 C 0.23381 0.63869 -0.11945
 O61 O 0.24511 0.60278 -0.11163
 O62 O 0.33274 0.60400 -0.15176
 C63 C 0.38262 0.62283 -0.15318
 O64 O 0.40596 0.65400 0.10280
 O65 O 0.42023 0.75029 0.09836
 C66 C 0.39293 0.75585 0.16328
 O67 O 0.34242 0.72989 0.16043
 O68 O 0.24926 0.64761 0.12329
 C69 C 0.23344 0.59897 0.13272
 O70 O 0.24863 0.57471 0.07684
 O71 O 0.33810 0.57774 0.03964
 C72 C 0.37613 0.60347 0.10172
 Cr73 Cr 0.40971 0.70037 0.00347
 Cr74 Cr 0.30017 0.70334 0.04506
 Cr75 Cr 0.29266 0.59265 -0.03513
 O76 O 0.33340 0.66515 0.00421
 O77 O 0.58142 0.33419 -0.09515
 O78 O 0.59211 0.25030 -0.10050
 C79 C 0.62087 0.22902 -0.10080
 O80 O 0.65923 0.24127 -0.04001
 O81 O 0.75015 0.32780 -0.07880
 C82 C 0.76594 0.36726 -0.13566
 O83 O 0.75132 0.40069 -0.12676
 O84 O 0.65912 0.39090 -0.16065
 C85 C 0.60862 0.36678 -0.16115
 O86 O 0.59221 0.33993 0.09787
 O87 O 0.58660 0.24659 0.09325
 C88 C 0.61686 0.24274 0.15396
 O89 O 0.66690 0.27377 0.15140
 O90 O 0.75561 0.36044 0.10966
 C91 C 0.76873 0.40847 0.11663
 O92 O 0.74972 0.42966 0.06163
 O93 O 0.65512 0.41774 0.03072
 C94 C 0.61820 0.39063 0.09374
 Cr95 Cr 0.59104 0.29436 -0.00097
 Cr96 Cr 0.70652 0.30219 0.03397
 Cr97 Cr 0.70248 0.40694 -0.04683
 O98 O 0.66746 0.33495 -0.00437
 N99 N 0.40731 0.86008 -0.12917
 N100 N 0.41911 0.89207 -0.20550
 C101 C 0.42135 0.86612 -0.28579
 C102 C 0.41123 0.81697 -0.25533
 N103 N 0.40323 0.81532 -0.15729
 H104 H 0.40985 0.78562 -0.29904
 N105 N 0.15229 0.63522 -0.17039
 N106 N 0.11815 0.61760 -0.24546
 C107 C 0.13975 0.60249 -0.31698
 C108 C 0.18849 0.61134 -0.28258
 N109 N 0.19457 0.63159 -0.19112
 H110 H 0.21522 0.60097 -0.31739
 N111 N 0.44437 0.59393 -0.18358
 N112 N 0.46144 0.57574 -0.25462
 C113 C 0.43371 0.57224 -0.33695
 C114 C 0.39793 0.58858 -0.31294
 N115 N 0.40620 0.60161 -0.21636
 H116 H 0.36935 0.59113 -0.36002
 N117 N 0.62425 0.15313 -0.15573
 N118 N 0.61263 0.12231 -0.23400
 C119 C 0.59132 0.13959 -0.30170
 C120 C 0.58921 0.18154 -0.26188
 N121 N 0.60994 0.18838 -0.17045
 H122 H 0.57399 0.20443 -0.29542
 N123 N 0.83377 0.35442 -0.21316
 N124 N 0.86622 0.37160 -0.29059
 C125 C 0.85454 0.40343 -0.34206
 C126 C 0.81440 0.40585 -0.29318
 N127 N 0.80266 0.37480 -0.21311
 H128 H 0.79700 0.42940 -0.31182
 N129 N 0.52849 0.36233 -0.21943
 N130 N 0.51104 0.37994 -0.29101
 C131 C 0.55259 0.40753 -0.35260
 C132 C 0.59660 0.40651 -0.31629
 N133 N 0.57956 0.37784 -0.23269
 H134 H 0.63682 0.42562 -0.34596
 N135 N 0.85187 0.48666 0.16767
 N136 N 0.88579 0.50289 0.24306
 C137 C 0.86279 0.46596 0.31469
 C138 C 0.81343 0.42627 0.28004
 N139 N 0.80839 0.44073 0.18834
 H140 H 0.78553 0.38898 0.31482
 N141 N 0.55511 0.15048 0.18196
 N142 N 0.53701 0.11466 0.25266
 C143 C 0.56345 0.13929 0.33615
 C144 C 0.59956 0.19226 0.31323
 N145 N 0.59277 0.19708 0.21612
 H146 H 0.62730 0.22394 0.36142
 N147 N 0.61485 0.46779 0.14027
 N148 N 0.60263 0.48727 0.21689
 C149 C 0.58581 0.45064 0.28887
 C150 C 0.58719 0.40746 0.25344
 N151 N 0.60537 0.41988 0.16036
 H152 H 0.57638 0.37103 0.29128
 N153 N 0.16369 0.51780 0.20990
 N154 N 0.13145 0.50275 0.28757
 C155 C 0.14467 0.54693 0.33922
 C156 C 0.18552 0.58967 0.29019
 N157 N 0.19612 0.56980 0.20987
 H158 H 0.20426 0.63114 0.30904
 N159 N 0.47359 0.83112 0.22675
 N160 N 0.49060 0.86625 0.29897
 C161 C 0.44810 0.85239 0.35750
 C162 C 0.40399 0.80742 0.31864
 N163 N 0.42188 0.79565 0.23666
 H164 H 0.36311 0.78660 0.34528
 N165 N 0.37011 0.52270 0.15600
 N166 N 0.38133 0.50316 0.23384
 C167 C 0.40353 0.54216 0.30169
 C168 C 0.40660 0.58677 0.26243
 N169 N 0.38550 0.57284 0.17121
 H170 H 0.42284 0.62534 0.29614
   
