data_POSCAR
  _audit_creation_date              2014-09-24
  _audit_creation_method            'ToBaCCo'
  _symmetry_space_group_name_H-M    'P1'
  _symmetry_Int_Tables_number       1
  _symmetry_cell_setting            triclinic
  loop_
  _symmetry_equiv_pos_as_xyz
 x,y,z
_cell_length_a 33.3449
_cell_length_b 34.4206
_cell_length_c 31.0650
_cell_angle_alpha 91.373400
_cell_angle_beta 89.469600
_cell_angle_gamma 92.206100
loop_
  _atom_site_label
  _atom_site_type_symbol
  _atom_site_fract_x
  _atom_site_fract_y
  _atom_site_fract_z
C1 C 0.28119 0.44908 0.99364
 C2 C 0.25318 0.44964 1.03311
 C3 C 0.22968 0.48138 1.03546
 C4 C 0.23627 0.50952 0.99800
 C5 C 0.25343 0.45209 0.95501
 C6 C 0.22973 0.48363 0.95729
 C7 C 0.30473 0.48793 0.99597
 C8 C 0.28159 0.51949 0.99843
 H9 H 0.25090 0.42634 1.05606
 H10 H 0.21745 0.53541 0.99938
 H11 H 0.25166 0.43024 0.92929
 H12 H 0.33730 0.49029 0.99733
 C13 C 0.71887 0.55228 0.00703
 C14 C 0.74561 0.54634 0.04605
 C15 C 0.76887 0.51455 0.04188
 C16 C 0.76349 0.49182 -0.00115
 C17 C 0.74785 0.55433 -0.03149
 C18 C 0.77136 0.52270 -0.03566
 C19 C 0.69530 0.51379 0.00067
 C20 C 0.71823 0.48225 -0.00352
 H21 H 0.74782 0.56673 0.07322
 H22 H 0.78222 0.46598 -0.00495
 H23 H 0.75026 0.57903 -0.05253
 H24 H 0.66270 0.51149 0.00028
 C25 C 0.05078 0.21611 0.50026
 C26 C 0.04977 0.24089 0.46309
 C27 C 0.01470 0.26391 0.46165
 C28 C -0.01305 0.25734 0.49774
 C29 C 0.04636 0.24370 0.53951
 C30 C 0.01285 0.26551 0.53823
 C31 C 0.01151 0.19191 0.49894
 C32 C -0.02195 0.21305 0.49760
 H33 H 0.07480 0.24388 0.44074
 H34 H -0.04059 0.27439 0.49656
 H35 H 0.06939 0.24824 0.56380
 H36 H 0.01016 0.16033 0.49987
 C37 C 0.95064 0.78515 0.49676
 C38 C 0.95239 0.75571 0.45899
 C39 C 0.98601 0.73406 0.45870
 C40 C 1.01496 0.74419 0.49606
 C41 C 0.95488 0.76068 0.53705
 C42 C 0.98854 0.73907 0.53668
 C43 C 0.98978 0.80927 0.49382
 C44 C 1.02335 0.78832 0.49336
 H45 H 0.92771 0.75005 0.43687
 H46 H 1.04263 0.72735 0.49561
 H47 H 0.93135 0.75749 0.56126
 H48 H 0.99096 0.84086 0.49331
 C49 C 0.50405 0.05052 0.20789
 C50 C 0.46470 0.04626 0.23361
 C51 C 0.46356 0.01531 0.26038
 C52 C 0.50203 -0.00802 0.25933
 C53 C 0.53695 0.05323 0.24203
 C54 C 0.53581 0.02257 0.26911
 C55 C 0.50870 0.01329 0.18605
 C56 C 0.50773 -0.01900 0.21422
 H57 H 0.44110 0.06710 0.23280
 H58 H 0.50125 -0.03271 0.28157
 H59 H 0.55999 0.07640 0.24359
 H60 H 0.50933 0.00969 0.15119
 C61 C 0.49636 -0.05335 0.79194
 C62 C 0.45877 -0.05134 0.76429
 C63 C 0.45963 -0.02039 0.73766
 C64 C 0.49817 0.00545 0.74060
 C65 C 0.53143 -0.05345 0.75980
 C66 C 0.53232 -0.02267 0.73291
 C67 C 0.50019 -0.01376 0.81533
 C68 C 0.50122 0.01693 0.78844
 H69 H 0.43440 -0.07321 0.76452
 H70 H 0.49894 0.03051 0.71887
 H71 H 0.55425 -0.07514 0.75927
 H72 H 0.50150 -0.01025 0.85014
 C73 C 0.31488 0.02485 0.45266
 H74 H 0.31611 0.04575 0.47923
 C75 C 0.34362 0.02694 0.41993
 H76 H 0.36700 0.04967 0.42110
 C77 C 0.28351 -0.03096 0.41930
 H78 H 0.26057 -0.05396 0.41971
 C79 C 0.31165 -0.02980 0.38571
 H80 H 0.30987 -0.05172 0.36018
 N81 N 0.28549 -0.00363 0.45168
 C82 C 0.19238 0.04498 0.53380
 H83 H 0.18931 0.02324 0.55831
 C84 C 0.16821 0.07728 0.53539
 H85 H 0.14628 0.08027 0.56107
 C86 C 0.22359 0.06702 0.46954
 H87 H 0.24465 0.06262 0.44343
 C88 C 0.19993 0.09965 0.46984
 H89 H 0.20309 0.12001 0.44393
 Zn90 Zn 0.25050 -0.00470 0.49965
 N91 N 0.21948 0.04047 0.50124
 C92 C 0.28392 0.02203 0.57981
 N93 N 0.28385 -0.00598 0.54814
 C94 C 0.31052 -0.03488 0.54793
 C95 C 0.33869 -0.03652 0.58056
 C96 C 0.31161 0.02139 0.61324
 C97 C 0.18921 -0.05307 0.46411
 C98 C 0.16182 -0.08473 0.46162
 C99 C 0.18885 -0.10855 0.52741
 C100 C 0.21593 -0.07650 0.52857
 N101 N 0.21555 -0.04949 0.49724
 H102 H 0.26319 0.04531 0.57876
 H103 H 0.31024 -0.05630 0.52186
 H104 H 0.36004 -0.05946 0.57988
 H105 H 0.31163 0.04399 0.63805
 H106 H 0.18917 -0.03097 0.43993
 H107 H 0.14037 -0.08680 0.43561
 H108 H 0.18876 -0.12916 0.55316
 H109 H 0.23652 -0.07281 0.55511
 C110 C 0.17167 0.10482 0.50291
 C111 C 0.34210 -0.00058 0.38606
 C112 C 0.16118 -0.11259 0.49382
 C113 C 0.33947 -0.00806 0.61350
 C114 C 0.68961 0.03242 0.55495
 H115 H 0.68892 0.05554 0.53202
 C116 C 0.66045 0.02970 0.58738
 H117 H 0.63739 0.05099 0.58972
 C118 C 0.71888 -0.02506 0.57830
 H119 H 0.74070 -0.04717 0.57381
 C120 C 0.69047 -0.02871 0.61130
 H121 H 0.69123 -0.05338 0.63213
 N122 N 0.71779 0.00500 0.55076
 C123 C 0.81295 0.05359 0.46865
 H124 H 0.81343 0.03083 0.44404
 C125 C 0.84026 0.08521 0.46671
 H126 H 0.86214 0.08655 0.44075
 C127 C 0.78477 0.07886 0.53333
 H128 H 0.76338 0.07597 0.55950
 C129 C 0.81186 0.11099 0.53276
 H130 H 0.81139 0.13247 0.55875
 Zn131 Zn 0.75103 0.00607 0.50129
 N132 N 0.78589 0.05095 0.50155
 C133 C 0.71862 0.03628 0.42565
 N134 N 0.71619 0.00663 0.45382
 C135 C 0.68634 -0.02139 0.45118
 C136 C 0.65724 -0.02011 0.41928
 C137 C 0.69029 0.03854 0.39318
 C138 C 0.81066 -0.04169 0.52994
 C139 C 0.83482 -0.07387 0.53041
 C140 C 0.80162 -0.09908 0.46626
 C141 C 0.77785 -0.06643 0.46712
 N142 N 0.78264 -0.03865 0.49880
 H143 H 0.74178 0.05889 0.42895
 H144 H 0.68464 -0.04418 0.47458
 H145 H 0.63318 -0.04214 0.41785
 H146 H 0.69241 0.06269 0.37156
 H147 H 0.81412 -0.01902 0.55451
 H148 H 0.85722 -0.07581 0.55521
 H149 H 0.79786 -0.12069 0.44060
 H150 H 0.75587 -0.06322 0.44226
 C151 C 0.84016 0.11410 0.49926
 C152 C 0.66045 -0.00148 0.61552
 C153 C 0.83051 -0.10289 0.49821
 C154 C 0.65897 0.01031 0.39013
 C155 C 0.48119 0.19734 1.02439
 H156 H 0.45881 0.19587 0.99934
 C157 C 0.47966 0.17026 1.05697
 H158 H 0.45602 0.14778 1.05713
 C159 C 0.54015 0.22766 1.05398
 H160 H 0.56424 0.24941 1.05208
 C161 C 0.53972 0.20110 1.08723
 H162 H 0.56333 0.20288 1.11091
 N163 N 0.51093 0.22546 1.02363
 C164 C 0.45764 0.31288 0.94584
 H165 H 0.47911 0.31529 0.91962
 C166 C 0.42421 0.33612 0.94707
 H167 H 0.41999 0.35668 0.92181
 C168 C 0.43770 0.28441 1.01179
 H169 H 0.44353 0.26502 1.03760
 C170 C 0.40390 0.30706 1.01424
 H171 H 0.38401 0.30468 1.04183
 Zn172 Zn 0.51089 0.25871 0.97640
 N173 N 0.46376 0.28767 0.97795
 C174 C 0.48139 0.22174 0.89945
 N175 N 0.51260 0.22588 0.92731
 C176 C 0.54409 0.20200 0.92505
 C177 C 0.54431 0.17142 0.89498
 C178 C 0.48033 0.19127 0.86887
 C179 C 0.55884 0.31802 1.01312
 C180 C 0.59108 0.34475 1.01691
 C181 C 0.61666 0.32131 0.94843
 C182 C 0.58405 0.29458 0.94614
 N183 N 0.55601 0.29348 0.97829
 H184 H 0.45618 0.24042 0.90262
 H185 H 0.56798 0.20547 0.94832
 H186 H 0.56857 0.15137 0.89493
 H187 H 0.45437 0.18688 0.84844
 H188 H 0.53583 0.31683 1.03789
 H189 H 0.59268 0.36457 1.04451
 H190 H 0.63821 0.32269 0.92220
 H191 H 0.58079 0.27536 0.91830
 C192 C 0.39717 0.33349 0.98180
 C193 C 0.50923 0.17200 1.08867
 C194 C 0.62010 0.34686 0.98407
 C195 C 0.51156 0.16515 0.86752
 C196 C 0.46033 0.79964 -0.02455
 H197 H 0.43716 0.80057 0.00002
 C198 C 0.46086 0.82615 -0.05773
 H199 H 0.43796 0.84757 -0.05887
 C200 C 0.51954 0.77169 -0.05204
 H201 H 0.54305 0.75129 -0.04900
 C202 C 0.52121 0.79775 -0.08579
 H203 H 0.54576 0.79680 -0.10875
 N204 N 0.48929 0.77303 -0.02238
 C205 C 0.43249 0.68568 0.05968
 H206 H 0.45310 0.68578 0.08638
 C207 C 0.39991 0.65893 0.05808
 H208 H 0.39559 0.63817 0.08352
 C209 C 0.41462 0.71047 -0.00776
 H210 H 0.42118 0.72954 -0.03419
 C211 C 0.38171 0.68428 -0.01058
 H212 H 0.36334 0.68362 -0.03913
 Zn213 Zn 0.48758 0.74152 0.02646
 N214 N 0.43958 0.71033 0.02668
 C215 C 0.46150 0.78011 0.10429
 N216 N 0.49078 0.77641 0.07381
 C217 C 0.52338 0.80128 0.07269
 C218 C 0.52723 0.83194 0.10239
 C219 C 0.46409 0.81077 0.13473
 C220 C 0.53628 0.68385 -0.00791
 C221 C 0.56980 0.66091 -0.01110
 C222 C 0.59312 0.68862 0.05679
 C223 C 0.55932 0.71135 0.05850
 N224 N 0.53206 0.70902 0.02607
 H225 H 0.43543 0.76046 0.10387
 H226 H 0.54574 0.79801 0.04753
 H227 H 0.55265 0.85236 0.10013
 H228 H 0.43998 0.81465 0.15780
 H229 H 0.51389 0.68219 -0.03294
 H230 H 0.57305 0.64117 -0.03847
 H231 H 0.61447 0.69071 0.08283
 H232 H 0.55494 0.73074 0.08583
 C233 C 0.37473 0.65753 0.02212
 C234 C 0.49175 0.82548 -0.08850
 C235 C 0.59863 0.66330 0.02149
 C236 C 0.49697 0.83736 0.13315
 C237 C 1.04583 0.46283 0.19047
 H238 H 1.02193 0.44068 0.18902
 C239 C 1.07720 0.46203 0.16047
 H240 H 1.07758 0.43905 0.13605
 C241 C 1.07386 0.52039 0.22330
 H242 H 1.07200 0.54355 0.24722
 C243 C 1.10597 0.52058 0.19392
 H244 H 1.12880 0.54372 0.19585
 N245 N 1.04474 0.49159 0.22123
 C246 C 0.96761 0.44155 0.32251
 H247 H 0.94404 0.46226 0.32457
 C248 C 0.96742 0.41037 0.35069
 H249 H 0.94354 0.40715 0.37429
 C250 C 1.02818 0.42122 0.29018
 H251 H 1.05233 0.42588 0.26728
 C252 C 1.02903 0.38966 0.31755
 H253 H 1.05366 0.37007 0.31525
 Zn254 Zn 0.99857 0.49089 0.25760
 N255 N 0.99772 0.44641 0.29298
 C256 C 0.92349 0.46260 0.22119
 N257 N 0.95400 0.49000 0.22002
 C258 C 0.95491 0.51837 0.19025
 C259 C 0.92399 0.52049 0.16061
 C260 C 0.89174 0.46375 0.19206
 C261 C 1.02735 0.54408 0.32282
 C262 C 1.02617 0.57694 0.35025
 C263 C 0.96284 0.59223 0.31906
 C264 C 0.96531 0.55937 0.29210
 N265 N 0.99737 0.53618 0.29407
 H266 H 0.92367 0.43991 0.24462
 H267 H 0.97975 0.53952 0.18975
 H268 H 0.92498 0.54342 0.13731
 H269 H 0.86748 0.44203 0.19351
 H270 H 1.05217 0.52486 0.32441
 H271 H 1.05029 0.58312 0.37279
 H272 H 0.93710 0.61018 0.31668
 H273 H 0.94123 0.55225 0.26995
 C274 C 0.99859 0.38417 0.34842
 C275 C 1.10767 0.49115 0.16200
 C276 C 0.99354 0.60135 0.34854
 C277 C 0.89187 0.49313 0.16149
 C278 C -0.04768 0.47911 0.80807
 H279 H -0.02560 0.45691 0.80854
 C280 C -0.07859 0.47918 0.83874
 H281 H -0.08027 0.45677 0.86257
 C282 C -0.07132 0.53617 0.77725
 H283 H -0.06792 0.55879 0.75384
 C284 C -0.10261 0.53739 0.80745
 H285 H -0.12341 0.56077 0.80688
 N286 N -0.04464 0.50726 0.77805
 C287 C 0.02835 0.45895 0.67344
 H288 H 0.05116 0.48198 0.67057
 C289 C 0.02929 0.42618 0.64606
 H290 H 0.05292 0.42399 0.62207
 C291 C -0.03035 0.43373 0.70803
 H292 H -0.05383 0.43691 0.73188
 C293 C -0.03047 0.40041 0.68132
 H294 H -0.05395 0.37816 0.68515
 Zn295 Zn 0.00061 0.50722 0.74056
 N296 N -0.00085 0.46193 0.70410
 C297 C 0.07280 0.47863 0.77351
 N298 N 0.04649 0.50784 0.77650
 C299 C 0.05011 0.53605 0.80786
 C300 C 0.08101 0.53542 0.83798
 C301 C 0.10412 0.47698 0.80285
 C302 C -0.02778 0.55266 0.67452
 C303 C -0.02882 0.58401 0.64683
 C304 C 0.03020 0.61226 0.68163
 C305 C 0.03031 0.58020 0.70852
 N306 N 0.00131 0.55140 0.70483
 H307 H 0.06897 0.45590 0.74918
 H308 H 0.02833 0.55852 0.81010
 H309 H 0.08309 0.55769 0.86312
 H310 H 0.12450 0.45325 0.80054
 H311 H -0.05023 0.52919 0.67191
 H312 H -0.05218 0.58469 0.62290
 H313 H 0.05337 0.63494 0.68514
 H314 H 0.05360 0.57840 0.73224
 C315 C -0.00020 0.39635 0.65011
 C316 C -0.10630 0.50876 0.83873
 C317 C 0.00027 0.61436 0.65043
 C318 C 0.10815 0.50534 0.83580
 C319 C 0.13923 0.16845 0.46754
 C320 C 0.09361 0.15891 0.46526
 C321 C 0.08655 0.18944 0.50134
 C322 C 0.13187 0.19939 0.50368
 C323 C 0.09029 0.15827 0.53572
 C324 C 0.09734 0.12765 0.49961
 C325 C 0.14269 0.13723 0.50193
 C326 C 0.13595 0.16774 0.53807
 H327 H 0.15922 0.17301 0.43921
 H328 H 0.07595 0.15543 0.43520
 H329 H 0.14570 0.22923 0.50538
 H330 H 0.06992 0.15428 0.56387
 H331 H 0.08312 0.09796 0.49788
 H332 H 0.15367 0.17108 0.56809
 C333 C 0.66605 0.63124 0.05302
 C334 C 0.65850 0.58674 0.04816
 C335 C 0.69007 0.58563 0.01169
 C336 C 0.69811 0.62980 0.01646
 C337 C 0.65742 0.59168 -0.02202
 C338 C 0.62577 0.59274 0.01447
 C339 C 0.63339 0.63693 0.01920
 C340 C 0.66497 0.63613 -0.01723
 H341 H 0.66976 0.64742 0.08413
 H342 H 0.65608 0.56615 0.07511
 H343 H 0.72825 0.64465 0.01719
 H344 H 0.65412 0.57524 -0.05305
 H345 H 0.59583 0.57748 0.01371
 H346 H 0.66726 0.65676 -0.04414
 C347 C 0.90442 -0.12663 0.49340
 C348 C 0.91125 -0.15474 0.53033
 C349 C 0.91479 -0.18830 0.49695
 C350 C 0.90791 -0.16027 0.46002
 C351 C 0.86942 -0.19779 0.50035
 C352 C 0.86559 -0.16378 0.53376
 C353 C 0.85902 -0.13571 0.49683
 C354 C 0.86219 -0.16929 0.46339
 H355 H 0.91885 -0.09719 0.49048
 H356 H 0.93162 -0.14892 0.55800
 H357 H 0.92559 -0.15902 0.42960
 H358 H 0.85541 -0.22739 0.50324
 H359 H 0.84788 -0.16493 0.56416
 H360 H 0.84203 -0.17545 0.43563
 C361 C 0.33196 0.36771 0.95119
 C362 C 0.29956 0.37128 0.98716
 C363 C 0.30948 0.41522 0.99081
 C364 C 0.34142 0.41198 0.95488
 C365 C 0.34123 0.40867 1.02526
 C366 C 0.33176 0.36438 1.02164
 C367 C 0.36374 0.36137 0.98567
 C368 C 0.37331 0.40536 0.98935
 H369 H 0.32846 0.35056 0.92065
 H370 H 0.26885 0.35767 0.98630
 H371 H 0.34514 0.43185 0.92738
 H372 H 0.34479 0.42581 1.05581
 H373 H 0.32742 0.34487 1.04935
 H374 H 0.40388 0.41932 0.99024
 C375 C 0.88197 0.17840 0.53291
 C376 C 0.92578 0.16549 0.53572
 C377 C 0.93765 0.19229 0.49836
 C378 C 0.89433 0.20578 0.49547
 C379 C 0.92851 0.15904 0.46545
 C380 C 0.91675 0.13215 0.50282
 C381 C 0.87325 0.14504 0.49990
 C382 C 0.88479 0.17200 0.46253
 H383 H 0.86275 0.18644 0.56083
 H384 H 0.94294 0.16298 0.56592
 H385 H 0.88553 0.23635 0.49241
 H386 H 0.94784 0.15118 0.43754
 H387 H 0.92607 0.10173 0.50589
 H388 H 0.86761 0.17441 0.43235
 C389 C 0.31666 0.61532 -0.02224
 C390 C 0.33324 0.57411 -0.02694
 C391 C 0.30105 0.55909 0.00495
 C392 C 0.28395 0.59983 0.00966
 C393 C 0.32948 0.56779 0.04300
 C394 C 0.36181 0.58284 0.01108
 C395 C 0.34527 0.62382 0.01585
 C396 C 0.31294 0.60906 0.04784
 H397 H 0.31101 0.63477 -0.04932
 H398 H 0.34146 0.55946 -0.05783
 H399 H 0.25164 0.60639 0.00900
 H400 H 0.33457 0.54790 0.06986
 H401 H 0.39403 0.57583 0.01167
 H402 H 0.30485 0.62378 0.07872
 C403 C 0.11885 -0.17507 0.52768
 C404 C 0.07502 -0.16201 0.53063
 C405 C 0.06359 -0.19063 0.49356
 C406 C 0.10693 -0.20424 0.49051
 C407 C 0.07304 -0.15899 0.46034
 C408 C 0.08440 -0.13028 0.49745
 C409 C 0.12793 -0.14332 0.49438
 C410 C 0.11681 -0.17208 0.45728
 H411 H 0.13769 -0.18185 0.55557
 H412 H 0.05753 -0.15806 0.56091
 H413 H 0.11579 -0.23496 0.48765
 H414 H 0.05399 -0.15250 0.43249
 H415 H 0.07506 -0.09970 0.50034
 H416 H 0.13433 -0.17592 0.42702
 C417 C 0.68369 0.39129 0.95230
 C418 C 0.66898 0.43338 0.95480
 C419 C 0.69813 0.44279 0.99202
 C420 C 0.71346 0.40123 0.98963
 C421 C 0.66573 0.43055 1.02514
 C422 C 0.63648 0.42125 0.98791
 C423 C 0.65116 0.37948 0.98558
 C424 C 0.68050 0.38859 1.02275
 H425 H 0.69111 0.37504 0.92217
 H426 H 0.66446 0.45213 0.92681
 H427 H 0.74545 0.39349 0.99039
 H428 H 0.65847 0.44691 1.05527
 H429 H 0.60465 0.42957 0.98717
 H430 H 0.68492 0.36980 1.05073
 C431 C 0.51203 0.09814 1.10975
 C432 C 0.54148 0.09384 1.14731
 C433 C 0.50556 0.08439 1.17719
 C434 C 0.47611 0.08847 1.13991
 C435 C 0.50233 0.12765 1.18974
 C436 C 0.53830 0.13747 1.15944
 C437 C 0.50881 0.14144 1.12210
 C438 C 0.47289 0.13209 1.15203
 H439 H 0.51611 0.08627 1.07652
 H440 H 0.56964 0.07766 1.14570
 H441 H 0.45054 0.06795 1.13225
 H442 H 0.49826 0.13928 1.22306
 H443 H 0.56403 0.15753 1.16785
 H444 H 0.44472 0.14823 1.15366
 C445 C 0.00392 0.64482 0.57166
 C446 C -0.03364 0.66921 0.56621
 C447 C -0.00669 0.70651 0.56740
 C448 C 0.03089 0.68250 0.57249
 C449 C -0.01174 0.71018 0.61656
 C450 C -0.03867 0.67252 0.61571
 C451 C -0.00113 0.64840 0.62090
 C452 C 0.02589 0.68576 0.62207
 H453 H 0.01038 0.61770 0.55326
 H454 H -0.05815 0.66270 0.54289
 H455 H 0.05974 0.68657 0.55478
 H456 H -0.01823 0.73738 0.63478
 H457 H -0.06735 0.66822 0.63371
 H458 H 0.05054 0.69309 0.64495
 C459 C 0.46003 0.86349 -0.15363
 C460 C 0.46378 0.90732 -0.14150
 C461 C 0.49541 0.91282 -0.17740
 C462 C 0.49169 0.86936 -0.18996
 C463 C 0.52936 0.90523 -0.14588
 C464 C 0.49772 0.89947 -0.10970
 C465 C 0.49398 0.85596 -0.12206
 C466 C 0.52567 0.86138 -0.15801
 H467 H 0.43151 0.84594 -0.15651
 H468 H 0.43836 0.92659 -0.13508
 H469 H 0.48918 0.85748 -0.22340
 H470 H 0.55785 0.92283 -0.14303
 H471 H 0.50024 0.91162 -0.07636
 H472 H 0.55131 0.84259 -0.16518
 C473 C 1.00224 0.30793 0.36586
 C474 C 1.03821 0.30336 0.39609
 C475 C 1.01021 0.29455 0.43178
 C476 C 0.97465 0.29734 0.40455
 C477 C 1.00908 0.33549 0.44619
 C478 C 1.03759 0.34698 0.40874
 C479 C 1.00094 0.35137 0.37941
 C480 C 0.97233 0.34097 0.41728
 H481 H 0.99940 0.29531 0.33277
 H482 H 1.06548 0.28731 0.38750
 H483 H 0.94926 0.27547 0.40421
 H484 H 1.01223 0.34554 0.48019
 H485 H 1.06436 0.36705 0.41158
 H486 H 0.94461 0.35555 0.42759
 C487 C 0.46966 0.88891 0.19533
 C488 C 0.50636 0.90586 0.22090
 C489 C 0.50439 0.94225 0.19725
 C490 C 0.46881 0.92852 0.17293
 C491 C 0.53238 0.92926 0.16355
 C492 C 0.53499 0.88984 0.18577
 C493 C 0.49835 0.87418 0.15970
 C494 C 0.49649 0.91340 0.13677
 H495 H 0.44329 0.87311 0.20955
 H496 H 0.51080 0.90403 0.25615
 H497 H 0.44200 0.94619 0.16872
 H498 H 0.55822 0.94735 0.15151
 H499 H 0.56302 0.87453 0.19180
 H500 H 0.49237 0.91778 0.10182
 C501 C 0.03787 0.33481 0.61814
 C502 C 0.00931 0.29826 0.61773
 C503 C 0.00746 0.29978 0.56836
 C504 C 0.03605 0.33595 0.56847
 C505 C -0.02920 0.32556 0.57127
 C506 C -0.02740 0.32448 0.62107
 C507 C 0.00127 0.36070 0.62113
 C508 C -0.00060 0.36212 0.57172
 H509 H 0.06551 0.33881 0.63765
 H510 H 0.01344 0.27164 0.63642
 H511 H 0.06221 0.34037 0.54654
 H512 H -0.05700 0.32186 0.55201
 H513 H -0.05370 0.31929 0.64260
 H514 H -0.00470 0.38867 0.55289
 C515 C 0.47435 0.11303 0.81151
 C516 C 0.50656 0.09604 0.78074
 C517 C 0.50369 0.05785 0.80548
 C518 C 0.47150 0.07425 0.83578
 C519 C 0.53717 0.07257 0.83607
 C520 C 0.54013 0.11130 0.81178
 C521 C 0.50793 0.12765 0.84222
 C522 C 0.50501 0.08921 0.86657
 H523 H 0.44841 0.12964 0.80114
 H524 H 0.50724 0.09862 0.74520
 H525 H 0.44328 0.05854 0.84548
 H526 H 0.56297 0.05550 0.84600
 H527 H 0.56837 0.12696 0.80207
 H528 H 0.50433 0.08660 0.90213
 C529 C 0.95585 0.66368 0.38253
 C530 C 0.96017 0.66336 0.43205
 C531 C 0.98957 0.69878 0.42969
 C532 C 0.98534 0.69940 0.38050
 C533 C 1.02537 0.67198 0.42538
 C534 C 0.99590 0.63612 0.42730
 C535 C 0.99161 0.63672 0.37800
 C536 C 1.02112 0.67215 0.37575
 H537 H 0.92673 0.66101 0.36554
 H538 H 0.93509 0.66003 0.45558
 H539 H 0.98106 0.72577 0.36144
 H540 H 1.05414 0.67536 0.44299
 H541 H 1.00017 0.60984 0.44652
 H542 H 1.04624 0.67555 0.35229
 C543 C 1.13393 0.49302 0.08037
 C544 C 1.17124 0.52101 0.07673
 C545 C 1.19760 0.48572 0.06926
 C546 C 1.16068 0.45776 0.07250
 C547 C 1.20483 0.48318 0.11791
 C548 C 1.17804 0.51850 0.12585
 C549 C 1.14106 0.49045 0.12909
 C550 C 1.16754 0.45522 0.12152
 H551 H 1.10448 0.49710 0.06507
 H552 H 1.17259 0.54830 0.05838
 H553 H 1.15380 0.43279 0.05016
 H554 H 1.23435 0.47909 0.13304
 H555 H 1.18563 0.54364 0.14769
 H556 H 1.16585 0.42812 0.14023
 C557 C 0.58307 -0.01457 0.63410
 C558 C 0.57879 -0.04658 0.66815
 C559 C 0.56596 -0.01577 0.70155
 C560 C 0.56978 0.01622 0.66789
 C561 C 0.60976 -0.00796 0.71520
 C562 C 0.62298 -0.03880 0.68147
 C563 C 0.62698 -0.00683 0.64768
 C564 C 0.61411 0.02407 0.68109
 H565 H 0.57238 -0.01733 0.60039
 H566 H 0.56380 -0.07567 0.66302
 H567 H 0.54783 0.03891 0.66208
 H568 H 0.62028 -0.00521 0.74897
 H569 H 0.64451 -0.06170 0.68789
 H570 H 0.62903 0.05317 0.68624
 C571 C -0.18377 0.51303 0.86203
 C572 C -0.19374 0.48434 0.89864
 C573 C -0.19653 0.51902 0.93049
 C574 C -0.18696 0.54777 0.89429
 C575 C -0.15172 0.51695 0.94099
 C576 C -0.14847 0.48223 0.90870
 C577 C -0.13888 0.51103 0.87244
 C578 C -0.14178 0.54567 0.90443
 H579 H -0.19677 0.51129 0.82924
 H580 H -0.21555 0.45918 0.89663
 H581 H -0.20267 0.57488 0.88802
 H582 H -0.13889 0.51866 0.97387
 H583 H -0.13295 0.45504 0.91508
 H584 H -0.12007 0.57089 0.90667
 C585 C 0.41846 -0.00200 0.36015
 C586 C 0.42219 -0.02768 0.31880
 C587 C 0.43081 0.00926 0.29290
 C588 C 0.42747 0.03491 0.33380
 C589 C 0.38587 0.01279 0.28389
 C590 C 0.37677 -0.02417 0.31031
 C591 C 0.37345 0.00159 0.35129
 C592 C 0.38217 0.03845 0.32521
 H593 H 0.43161 -0.00815 0.39186
 H594 H 0.43870 -0.05502 0.31597
 H595 H 0.44875 0.05920 0.34306
 H596 H 0.37285 0.01893 0.25212
 H597 H 0.35596 -0.04859 0.30028
 H598 H 0.36539 0.06563 0.32809
 C599 C 0.18529 0.50042 0.85766
 C600 C 0.19514 0.52684 0.89759
 C601 C 0.19766 0.49037 0.92492
 C602 C 0.18814 0.46392 0.88536
 C603 C 0.15278 0.49194 0.93637
 C604 C 0.14975 0.52846 0.90854
 C605 C 0.14035 0.50188 0.86896
 C606 C 0.14297 0.46552 0.89653
 H607 H 0.19850 0.50404 0.82501
 H608 H 0.21701 0.55198 0.89837
 H609 H 0.20355 0.43718 0.87515
 H610 H 0.13977 0.48831 0.96913
 H611 H 0.13408 0.55515 0.91835
 H612 H 0.12122 0.44028 0.89599
 C613 C 0.61403 -0.01902 0.32462
 C614 C 0.56939 -0.01314 0.33648
 C615 C 0.56773 0.01787 0.30181
 C616 C 0.61185 0.01198 0.28949
 C617 C 0.58011 0.05010 0.33464
 C618 C 0.58225 0.01910 0.36973
 C619 C 0.62648 0.01330 0.35743
 C620 C 0.62460 0.04427 0.32261
 H621 H 0.62839 -0.04747 0.32069
 H622 H 0.54652 -0.03675 0.34228
 H623 H 0.62359 0.00899 0.25607
 H624 H 0.56570 0.07852 0.33854
 H625 H 0.57038 0.02210 0.40309
 H626 H 0.64691 0.06817 0.31601
 C627 C 0.86413 0.49510 0.08085
 C628 C 0.82502 0.46958 0.07639
 C629 C 0.80105 0.50673 0.07362
 C630 C 0.83973 0.53224 0.07769
 C631 C 0.79501 0.50795 0.12277
 C632 C 0.81944 0.47076 0.12601
 C633 C 0.85818 0.49638 0.13007
 C634 C 0.83404 0.53346 0.12715
 H635 H 0.89284 0.48974 0.06375
 H636 H 0.82123 0.44315 0.05543
 H637 H 0.84779 0.55756 0.05744
 H638 H 0.76624 0.51333 0.13974
 H639 H 0.81075 0.44533 0.14580
 H640 H 0.83792 0.55975 0.14831
 C641 C 0.41600 -0.00665 0.63763
 C642 C 0.42226 0.02064 0.67755
 C643 C 0.42763 -0.01521 0.70519
 C644 C 0.42175 -0.04248 0.66572
 C645 C 0.38242 -0.01781 0.71538
 C646 C 0.37658 0.01806 0.68725
 C647 C 0.37072 -0.00931 0.64771
 C648 C 0.37619 -0.04508 0.67550
 H649 H 0.42955 -0.00201 0.60530
 H650 H 0.44122 0.04786 0.67839
 H651 H 0.44074 -0.06736 0.65721
 H652 H 0.36899 -0.02245 0.74777
 H653 H 0.35808 0.04309 0.69652
 H654 H 0.35690 -0.07210 0.67443
   
