data_POSCAR
  _audit_creation_date              2014-09-24
  _audit_creation_method            'ToBaCCo'
  _symmetry_space_group_name_H-M    'P1'
  _symmetry_Int_Tables_number       1
  _symmetry_cell_setting            triclinic
  loop_
  _symmetry_equiv_pos_as_xyz
 x,y,z
_cell_length_a 21.9380
_cell_length_b 21.9380
_cell_length_c 21.9380
_cell_angle_alpha 89.900700
_cell_angle_beta 89.900700
_cell_angle_gamma 89.900700
loop_
  _atom_site_label
  _atom_site_type_symbol
  _atom_site_fract_x
  _atom_site_fract_y
  _atom_site_fract_z
N1 N 0.36769 0.36769 1.36769
 N2 N 1.13838 0.63438 0.86321
 N3 N 0.63438 -0.13679 0.13838
 N4 N -0.13679 1.13838 -0.36562
 N5 N 0.63856 0.63856 0.63856
 N6 N 0.86395 0.36025 0.13791
 N7 N 0.36025 0.13791 0.86395
 N8 N 0.13791 0.86395 0.36025
 Zn9 Zn 0.03551 0.98344 -0.07481
 Zn10 Zn 0.04655 1.04655 0.04655
 Zn11 Zn -0.07481 1.03551 -0.01656
 Zn12 Zn -0.01656 0.92519 0.03551
 O13 O -0.00212 0.99788 -0.00212
 O14 O 0.10826 1.01811 -0.07808
 O15 O 0.00985 1.11755 0.06680
 O16 O -0.08842 1.04999 -0.09571
 O17 O 0.11755 1.06680 0.00985
 O18 O -0.00525 1.01313 -0.13946
 O19 O -0.07808 1.10826 0.01811
 O20 O -0.09571 0.91158 0.04999
 O21 O 0.06680 1.00985 0.11755
 O22 O -0.13946 0.99475 0.01313
 O23 O 0.01811 0.92192 0.10826
 O24 O 0.01313 0.86054 -0.00525
 O25 O 0.04999 0.90429 -0.08842
 C26 C 0.13836 1.05154 -0.04203
 C27 C -0.04203 1.13836 0.05154
 C28 C -0.05611 1.04057 -0.14280
 C29 C -0.14280 0.94389 0.04057
 C30 C 0.05154 0.95797 0.13836
 C31 C 0.04057 0.85720 -0.05611
 Zn32 Zn 0.42539 0.03757 0.51552
 Zn33 Zn 0.48436 -0.07237 0.46514
 Zn34 Zn 0.54764 0.04911 0.45351
 Zn35 Zn 0.53490 -0.01408 0.57529
 O36 O 0.49843 0.00037 0.50207
 O37 O 0.36157 -0.00313 0.48572
 O38 O 0.51912 -0.07575 0.39260
 O39 O 0.51131 0.12163 0.43496
 O40 O 0.40537 -0.08717 0.45134
 O41 O 0.42193 0.11000 0.48074
 O42 O 0.56691 0.01254 0.38135
 O43 O 0.60797 0.01985 0.57934
 O44 O 0.51392 -0.13637 0.50622
 O45 O 0.61935 0.06722 0.49067
 O46 O 0.54757 -0.09330 0.59078
 O47 O 0.49354 0.01627 0.63859
 O48 O 0.41017 0.05168 0.59424
 C49 C 0.35833 -0.05462 0.45992
 C50 C 0.55185 -0.03981 0.36140
 C51 C 0.45852 0.14144 0.44906
 C52 C 0.63924 0.05224 0.54312
 C53 C 0.53901 -0.14010 0.55808
 C54 C 0.44225 0.04277 0.64143
 Zn55 Zn 1.03757 0.51552 0.42539
 Zn56 Zn 1.04911 0.45351 0.54764
 Zn57 Zn 0.98592 0.57530 0.53490
 Zn58 Zn 0.92763 0.46514 0.48436
 O59 O 1.00037 0.50207 0.49843
 O60 O 1.11000 0.48074 0.42193
 O61 O 1.06722 0.49067 0.61935
 O62 O 1.01627 0.63859 0.49354
 O63 O 1.12163 0.43496 0.51131
 O64 O 1.05168 0.59424 0.41017
 O65 O 1.01985 0.57934 0.60797
 O66 O 0.86363 0.50622 0.51392
 O67 O 1.01254 0.38135 0.56691
 O68 O 0.90670 0.59078 0.54757
 O69 O 0.92425 0.39260 0.51912
 O70 O 0.91283 0.45134 0.40537
 O71 O 0.99687 0.48572 0.36157
 C72 C 1.14144 0.44906 0.45852
 C73 C 1.05224 0.54312 0.63924
 C74 C 1.04277 0.64143 0.44225
 C75 C 0.85990 0.55808 0.53901
 C76 C 0.96019 0.36140 0.55185
 C77 C 0.94538 0.45992 0.35833
 Zn78 Zn 0.46514 0.48436 0.92763
 Zn79 Zn 0.45351 0.54764 1.04911
 Zn80 Zn 0.51552 0.42539 1.03757
 Zn81 Zn 0.57529 0.53490 0.98592
 O82 O 0.50207 0.49843 1.00037
 O83 O 0.39260 0.51912 0.92425
 O84 O 0.43496 0.51131 1.12163
 O85 O 0.48572 0.36157 0.99687
 O86 O 0.38135 0.56691 1.01254
 O87 O 0.45134 0.40537 0.91283
 O88 O 0.48074 0.42193 1.11000
 O89 O 0.63859 0.49354 1.01627
 O90 O 0.49067 0.61935 1.06722
 O91 O 0.59424 0.41017 1.05168
 O92 O 0.57934 0.60797 1.01985
 O93 O 0.59078 0.54757 0.90670
 O94 O 0.50622 0.51392 0.86363
 C95 C 0.36140 0.55185 0.96019
 C96 C 0.44906 0.45852 1.14144
 C97 C 0.45992 0.35833 0.94538
 C98 C 0.64143 0.44225 1.04277
 C99 C 0.54312 0.63924 1.05224
 C100 C 0.55808 0.53901 0.85990
 N101 N 1.29486 0.37932 0.45165
 C102 C 1.31131 0.39107 0.39285
 N103 N 1.27182 0.42240 0.35700
 N104 N 1.21833 0.44098 0.37868
 C105 C 1.20164 0.42875 0.43702
 N106 N 1.24101 0.39777 0.47338
 N107 N 0.22804 0.56917 0.86129
 C108 C 0.19329 0.61074 0.89108
 N109 N 0.21380 0.63260 0.94545
 N110 N 0.26676 0.61348 0.96878
 C111 C 0.30130 0.57203 0.93830
 N112 N 0.28072 0.55023 0.88436
 N113 N -0.30423 0.94087 0.08822
 C114 C -0.30877 0.88455 0.11362
 N115 N -0.25894 0.84775 0.11393
 N116 N -0.20644 0.86650 0.08992
 C117 C -0.20184 0.92258 0.06416
 N118 N -0.25165 0.95955 0.06393
 N119 N 0.78721 0.13162 0.55268
 C120 C 0.80707 0.11463 0.60902
 N121 N 0.77241 0.07502 0.64164
 N122 N 0.71964 0.05480 0.61989
 C123 C 0.69927 0.07292 0.56435
 N124 N 0.73428 0.11134 0.53078
 N125 N 0.35700 0.27182 0.42240
 C126 C 0.39285 0.31131 0.39107
 N127 N 0.45165 0.29486 0.37932
 N128 N 0.47338 0.24101 0.39777
 C129 C 0.43701 0.20164 0.42875
 N130 N 0.37868 0.21833 0.44098
 N131 N 0.94545 0.21380 0.63260
 C132 C 0.89108 0.19329 0.61074
 N133 N 0.86129 0.22804 0.56917
 N134 N 0.88436 0.28072 0.55023
 C135 C 0.93830 0.30130 0.57203
 N136 N 0.96878 0.26676 0.61348
 N137 N 0.08822 0.69577 -0.05913
 C138 C 0.11362 0.69123 -0.11545
 N139 N 0.11393 0.74106 -0.15225
 N140 N 0.08992 0.79356 -0.13350
 C141 C 0.06416 0.79816 -0.07742
 N142 N 0.06393 0.74835 -0.04045
 N143 N 0.55268 0.78721 1.13162
 C144 C 0.60902 0.80707 1.11463
 N145 N 0.64164 0.77241 1.07502
 N146 N 0.61989 0.71964 1.05480
 C147 C 0.56435 0.69927 1.07292
 N148 N 0.53078 0.73428 1.11134
 N149 N 0.37932 0.45165 1.29486
 C150 C 0.39107 0.39285 1.31131
 N151 N 0.42240 0.35700 1.27182
 N152 N 0.44098 0.37868 1.21833
 C153 C 0.42875 0.43702 1.20164
 N154 N 0.39777 0.47338 1.24101
 N155 N 0.56917 -0.13871 0.22804
 C156 C 0.61074 -0.10892 0.19329
 N157 N 0.63260 -0.05455 0.21380
 N158 N 0.61348 -0.03122 0.26676
 C159 C 0.57203 -0.06170 0.30130
 N160 N 0.55023 -0.11564 0.28072
 N161 N -0.15225 1.11393 -0.25894
 C162 C -0.11545 1.11362 -0.30877
 N163 N -0.05913 1.08822 -0.30423
 N164 N -0.04045 1.06393 -0.25165
 C165 C -0.07742 1.06416 -0.20184
 N166 N -0.13350 1.08992 -0.20644
 N167 N 1.07502 0.64164 0.77241
 C168 C 1.11463 0.60902 0.80707
 N169 N 1.13162 0.55268 0.78721
 N170 N 1.11134 0.53078 0.73428
 C171 C 1.07292 0.56435 0.69927
 N172 N 1.05480 0.61989 0.71964
 N173 N 0.73739 0.65900 0.59342
 C174 C 0.69371 0.61832 0.60984
 N175 N 0.70421 0.55799 0.60100
 N176 N 0.75654 0.53902 0.57660
 C177 C 0.80054 0.57961 0.56096
 N178 N 0.79009 0.63994 0.56989
 N179 N 0.75958 0.34224 1.10684
 C180 C 0.80728 0.38109 1.11293
 N181 N 0.80052 0.43997 1.09513
 N182 N 0.74794 0.45920 1.07158
 C183 C 0.70023 0.42033 1.06548
 N184 N 0.70687 0.36161 1.08385
 N185 N 0.27945 1.14137 -0.05917
 C186 C 0.30563 1.11406 -0.10839
 N187 N 0.27755 1.06499 -0.13325
 N188 N 0.22496 1.04483 -0.11100
 C189 C 0.19842 1.07245 -0.06253
 N190 N 0.22683 1.12081 -0.03649
 N191 N 0.23852 -0.15515 0.40096
 C192 C 0.19322 -0.11500 0.38777
 N193 N 0.20164 -0.05505 0.40038
 N194 N 0.25374 -0.03600 0.42500
 C195 C 0.29935 -0.07612 0.43737
 N196 N 0.29083 -0.13601 0.42482
 N197 N 0.59342 -0.26261 0.65900
 C198 C 0.60984 -0.30629 0.61832
 N199 N 0.60100 -0.29579 0.55799
 N200 N 0.57660 -0.24346 0.53902
 C201 C 0.56096 -0.19946 0.57961
 N202 N 0.56989 -0.20991 0.63994
 N203 N 1.10684 0.75958 0.34224
 C204 C 1.11293 0.80728 0.38109
 N205 N 1.09513 0.80052 0.43997
 N206 N 1.07158 0.74794 0.45920
 C207 C 1.06548 0.70023 0.42033
 N208 N 1.08384 0.70687 0.36161
 N209 N -0.13325 1.27755 0.06499
 C210 C -0.10839 1.30563 0.11406
 N211 N -0.05917 1.27945 0.14137
 N212 N -0.03649 1.22683 0.12081
 C213 C -0.06253 1.19842 0.07245
 N214 N -0.11100 1.22496 0.04483
 N215 N 0.40096 0.23852 0.84485
 C216 C 0.38777 0.19322 0.88500
 N217 N 0.40038 0.20164 0.94495
 N218 N 0.42500 0.25374 0.96400
 C219 C 0.43737 0.29935 0.92388
 N220 N 0.42482 0.29083 0.86399
 N221 N 0.55799 0.60100 0.70421
 C222 C 0.61832 0.60984 0.69371
 N223 N 0.65900 0.59342 0.73739
 N224 N 0.63994 0.56989 0.79009
 C225 C 0.57961 0.56096 0.80054
 N226 N 0.53902 0.57660 0.75654
 N227 N 0.34224 0.10684 0.75958
 C228 C 0.38109 0.11293 0.80728
 N229 N 0.43997 0.09513 0.80052
 N230 N 0.45920 0.07158 0.74794
 C231 C 0.42033 0.06548 0.70023
 N232 N 0.36161 0.08384 0.70687
 N233 N 0.14137 0.94083 0.27945
 C234 C 0.11406 0.89161 0.30563
 N235 N 0.06499 0.86675 0.27755
 N236 N 0.04483 0.88900 0.22496
 C237 C 0.07245 0.93747 0.19842
 N238 N 0.12081 0.96351 0.22683
 N239 N 0.84485 0.40096 0.23853
 C240 C 0.88500 0.38777 0.19322
 N241 N 0.94495 0.40038 0.20164
 N242 N 0.96400 0.42500 0.25374
 C243 C 0.92388 0.43737 0.29935
 N244 N 0.86399 0.42482 0.29083
   
