data_POSCAR
  _audit_creation_date              2014-09-24
  _audit_creation_method            'ToBaCCo'
  _symmetry_space_group_name_H-M    'P1'
  _symmetry_Int_Tables_number       1
  _symmetry_cell_setting            triclinic
  loop_
  _symmetry_equiv_pos_as_xyz
 x,y,z
_cell_length_a 13.1592
_cell_length_b 13.1592
_cell_length_c 21.3312
_cell_angle_alpha 89.746000
_cell_angle_beta 89.746000
_cell_angle_gamma 91.533800
loop_
  _atom_site_label
  _atom_site_type_symbol
  _atom_site_fract_x
  _atom_site_fract_y
  _atom_site_fract_z
O1 O -0.08669 0.59468 0.94112
 O2 O -0.08198 0.39503 1.06248
 O3 O -0.08628 0.59419 1.06180
 O4 O -0.08259 0.39611 0.94058
 O5 O 0.08521 0.40321 0.94048
 O6 O 0.08151 0.60133 1.06164
 O7 O 0.08570 0.40224 1.06113
 O8 O 0.08112 0.60169 0.93986
 Cu9 Cu -0.10120 0.49398 1.00164
 Cu10 Cu 0.10018 0.50311 1.00078
 C11 C -0.00358 0.63377 0.92077
 C12 C 0.00275 0.36252 1.08141
 C13 C -0.00308 0.63342 1.08123
 C14 C 0.00200 0.36434 0.92080
 O15 O 0.40531 0.08669 0.55887
 O16 O 0.60496 0.08197 0.43752
 O17 O 0.40580 0.08628 0.43820
 O18 O 0.60389 0.08259 0.55941
 O19 O 0.59678 -0.08521 0.55952
 O20 O 0.39866 -0.08151 0.43835
 O21 O 0.59775 -0.08570 0.43886
 O22 O 0.39830 -0.08112 0.56013
 Cu23 Cu 0.50602 0.10120 0.49835
 Cu24 Cu 0.49689 -0.10019 0.49921
 C25 C 0.36622 0.00358 0.57923
 C26 C 0.63747 -0.00276 0.41859
 C27 C 0.36657 0.00307 0.41876
 C28 C 0.63565 -0.00200 0.57920
 Si29 Si -0.00020 0.00019 0.25000
 Si30 Si -0.00032 0.00032 0.75000
 C31 C -0.00395 -0.27715 0.12501
 C32 C 0.06084 -0.18711 0.09996
 C33 C 0.06262 -0.10482 0.13808
 C34 C -0.00136 -0.11833 0.19817
 C35 C -0.10788 -0.15058 0.17493
 C36 C -0.10939 -0.23313 0.13684
 C37 C 0.03828 -0.29811 0.19064
 C38 C 0.03950 -0.21520 0.22892
 H39 H 0.10403 -0.18873 0.05658
 H40 H 0.10782 -0.03740 0.12651
 H41 H -0.17694 -0.11228 0.18728
 H42 H -0.17958 -0.26399 0.11723
 H43 H 0.06422 -0.37181 0.20584
 H44 H 0.06673 -0.21899 0.27670
 C45 C 0.00386 0.27741 0.12324
 C46 C 0.10937 0.23309 0.13490
 C47 C 0.10760 0.15066 0.17352
 C48 C 0.00104 0.11863 0.19747
 C49 C -0.03974 0.21559 0.22781
 C50 C -0.03840 0.29846 0.18903
 C51 C -0.06095 0.18716 0.09909
 C52 C -0.06286 0.10502 0.13779
 H53 H 0.17986 0.26344 0.11482
 H54 H 0.17657 0.11225 0.18576
 H55 H -0.06696 0.21946 0.27572
 H56 H -0.06426 0.37218 0.20405
 H57 H -0.10410 0.18839 0.05590
 H58 H -0.10807 0.03758 0.12689
 C59 C 0.27699 0.00454 0.62357
 C60 C 0.23317 0.10998 0.63530
 C61 C 0.15071 0.10835 0.67394
 C62 C 0.11833 0.00172 0.69769
 C63 C 0.10473 -0.06196 0.63790
 C64 C 0.18691 -0.06000 0.59928
 C65 C 0.29801 -0.03806 0.68923
 C66 C 0.21515 -0.03940 0.72802
 H67 H 0.26422 0.18025 0.61536
 H68 H 0.11267 0.17742 0.68644
 H69 H 0.03745 -0.10730 0.62692
 H70 H 0.18845 -0.10306 0.55607
 H71 H 0.37171 -0.06413 0.70408
 H72 H 0.21895 -0.06684 0.77589
 C73 C -0.27576 -0.00290 0.62358
 C74 C -0.23181 -0.10834 0.63547
 C75 C -0.14999 -0.10695 0.67413
 C76 C -0.11824 -0.00054 0.69776
 C77 C -0.10389 0.06391 0.63790
 C78 C -0.18548 0.06219 0.59926
 C79 C -0.29791 0.03889 0.68919
 C80 C -0.21563 0.03999 0.72802
 H81 H -0.26232 -0.17848 0.61560
 H82 H -0.11201 -0.17608 0.68672
 H83 H -0.03659 0.10969 0.62697
 H84 H -0.18655 0.10598 0.55610
 H85 H -0.37190 0.06464 0.70397
 H86 H -0.22018 0.06692 0.77584
 C87 C -0.00455 -0.27700 0.87643
 C88 C 0.05999 -0.18691 0.90071
 C89 C 0.06196 -0.10474 0.86210
 C90 C -0.00173 -0.11833 0.80230
 C91 C 0.03940 -0.21516 0.77197
 C92 C 0.03806 -0.29801 0.81077
 C93 C -0.10999 -0.23318 0.86469
 C94 C -0.10836 -0.15072 0.82606
 H95 H 0.10305 -0.18846 0.94392
 H96 H 0.10729 -0.03745 0.87307
 H97 H 0.06684 -0.21895 0.72411
 H98 H 0.06412 -0.37172 0.79592
 H99 H -0.18026 -0.26423 0.88464
 H100 H -0.17743 -0.11268 0.81355
 C101 C 0.00290 0.27575 0.87641
 C102 C -0.03889 0.29790 0.81080
 C103 C -0.03999 0.21563 0.77198
 C104 C 0.00053 0.11823 0.80224
 C105 C 0.10694 0.14999 0.82587
 C106 C 0.10833 0.23181 0.86453
 C107 C -0.06220 0.18547 0.90073
 C108 C -0.06392 0.10388 0.86209
 H109 H -0.06465 0.37190 0.79602
 H110 H -0.06693 0.22017 0.72415
 H111 H 0.17608 0.11200 0.81327
 H112 H 0.17847 0.26231 0.88440
 H113 H -0.10599 0.18654 0.94390
 H114 H -0.10970 0.03659 0.87302
 C115 C -0.27742 -0.00386 0.37676
 C116 C -0.18716 0.06095 0.40090
 C117 C -0.10502 0.06286 0.36221
 C118 C -0.11864 -0.00104 0.30253
 C119 C -0.15067 -0.10760 0.32647
 C120 C -0.23310 -0.10938 0.36510
 C121 C -0.29847 0.03840 0.31096
 C122 C -0.21559 0.03974 0.27219
 H123 H -0.18840 0.10410 0.44409
 H124 H -0.03759 0.10807 0.37311
 H125 H -0.11226 -0.17658 0.31423
 H126 H -0.26345 -0.17987 0.38517
 H127 H -0.37218 0.06426 0.29594
 H128 H -0.21946 0.06696 0.22427
 C129 C 0.27714 0.00394 0.37498
 C130 C 0.18711 -0.06084 0.40003
 C131 C 0.10481 -0.06263 0.36192
 C132 C 0.11832 0.00136 0.30182
 C133 C 0.15058 0.10787 0.32506
 C134 C 0.23313 0.10938 0.36316
 C135 C 0.29810 -0.03828 0.30936
 C136 C 0.21520 -0.03950 0.27108
 H137 H 0.18872 -0.10404 0.44341
 H138 H 0.03740 -0.10782 0.37349
 H139 H 0.11227 0.17693 0.31271
 H140 H 0.26399 0.17957 0.38277
 H141 H 0.37180 -0.06423 0.29416
 H142 H 0.21898 -0.06674 0.22330
   
