data_POSCAR
  _audit_creation_date              2014-09-24
  _audit_creation_method            'ToBaCCo'
  _symmetry_space_group_name_H-M    'P1'
  _symmetry_Int_Tables_number       1
  _symmetry_cell_setting            triclinic
  loop_
  _symmetry_equiv_pos_as_xyz
 x,y,z
_cell_length_a 14.6809
_cell_length_b 16.1103
_cell_length_c 14.9923
_cell_angle_alpha 92.557400
_cell_angle_beta 90.577300
_cell_angle_gamma 91.441200
loop_
  _atom_site_label
  _atom_site_type_symbol
  _atom_site_fract_x
  _atom_site_fract_y
  _atom_site_fract_z
C1 C 0.43738 1.04697 -0.67415
 C2 C 0.53240 1.03941 -0.70790
 C3 C 0.61081 1.05433 -0.65448
 C4 C 0.60277 1.07881 -0.56354
 C5 C 0.51636 1.07649 -0.52212
 C6 C 0.43515 1.06262 -0.57259
 C7 C 0.35167 1.05840 -0.52819
 C8 C 0.34671 1.07196 -0.43700
 C9 C 0.42623 1.07784 -0.38488
 C10 C 0.51156 1.08136 -0.42771
 C11 C 0.68078 1.09749 -0.50979
 C12 C 0.67537 1.10084 -0.41776
 C13 C 0.59247 1.08419 -0.37617
 C14 C 0.58780 1.07228 -0.28388
 C15 C 0.50394 1.07877 -0.24137
 C16 C 0.42321 1.07791 -0.29102
 H17 H 0.28926 1.03944 -0.56168
 H18 H 0.27964 1.07305 -0.40805
 H19 H 0.74798 1.10595 -0.53690
 H20 H 0.73728 1.11399 -0.37922
 H21 H 0.53943 1.02506 -0.77883
 H22 H 0.50016 1.07315 -0.16953
 C23 C -0.42632 1.66105 -0.02382
 C24 C -0.51070 1.69901 -0.01204
 C25 C -0.59274 1.65301 0.00063
 C26 C -0.58698 1.56529 0.00459
 C27 C -0.50403 1.52537 -0.01636
 C28 C -0.42391 1.57341 -0.03220
 C29 C -0.34457 1.53249 -0.05840
 C30 C -0.34108 1.44644 -0.06129
 C31 C -0.41804 1.39719 -0.04182
 C32 C -0.50113 1.43691 -0.02078
 C33 C -0.66030 1.51648 0.03443
 C34 C -0.65565 1.43059 0.03473
 C35 C -0.58033 1.38876 -0.00065
 C36 C -0.57812 1.30052 -0.00912
 C37 C -0.49426 1.26338 -0.02710
 C38 C -0.41367 1.30964 -0.04062
 H39 H -0.28421 1.56621 -0.07838
 H40 H -0.27684 1.41964 -0.07940
 H41 H -0.72070 1.54414 0.06219
 H42 H -0.71076 1.39819 0.06655
 H43 H -0.51077 1.76573 -0.01615
 H44 H -0.49203 1.19612 -0.03347
 C45 C -0.04167 0.30504 0.42135
 C46 C -0.03985 0.26844 0.50484
 C47 C -0.01545 0.31530 0.59257
 C48 C 0.00651 0.40635 0.57891
 C49 C -0.01002 0.44327 0.49640
 C50 C -0.03609 0.39349 0.41889
 C51 C -0.06205 0.43464 0.34222
 C52 C -0.05102 0.52025 0.33699
 C53 C -0.01979 0.57041 0.41067
 C54 C -0.00147 0.53184 0.49223
 C55 C 0.04370 0.45502 0.65044
 C56 C 0.05767 0.53996 0.64419
 C57 C 0.02624 0.58118 0.56967
 C58 C 0.02722 0.66958 0.56777
 C59 C 0.01612 0.70527 0.48385
 C60 C -0.00621 0.65766 0.40490
 H61 H -0.09466 0.40164 0.28583
 H62 H -0.06908 0.54614 0.27424
 H63 H 0.06383 0.42694 0.71163
 H64 H 0.09514 0.57229 0.69804
 H65 H -0.05034 0.20185 0.50664
 H66 H 0.01942 0.77237 0.48065
 O67 O -0.23108 0.95856 -0.12325
 O68 O 0.23158 0.99623 -0.11302
 O69 O -0.01272 1.06994 -0.23863
 O70 O 0.01192 0.85352 -0.22653
 O71 O 0.01922 0.75982 -0.11443
 O72 O -0.02550 1.18388 -0.14046
 O73 O 0.12599 0.97407 -0.22670
 O74 O -0.12210 0.96344 -0.23204
 Zr75 Zr 0.00116 0.96872 -0.15758
 O76 O 0.08909 0.90837 -0.07591
 O77 O -0.08817 1.04265 -0.08765
 C78 C -0.20521 0.96702 -0.20423
 C79 C 0.20810 0.98766 -0.19601
 C80 C -0.02405 1.14815 -0.22061
 C81 C 0.01758 0.77898 -0.19855
 H82 H 0.10836 1.09513 -0.12478
 O83 O 0.07267 1.05991 -0.08488
 H84 H -0.11089 0.85180 -0.11728
 O85 O -0.07400 0.89192 -0.07933
 O86 O 0.22802 1.02458 0.12033
 O87 O -0.23484 0.96104 0.10980
 O88 O 0.10272 1.20982 -0.01406
 O89 O 0.14650 0.78375 0.01135
 O90 O -0.10697 0.75761 0.01237
 O91 O -0.14836 1.18294 -0.01794
 O92 O -0.01524 1.11565 0.22232
 O93 O 0.00850 0.89575 0.23664
 O94 O -0.01797 1.20842 0.10894
 O95 O 0.01651 0.78209 0.13678
 O96 O 0.21894 1.11734 -0.00176
 O97 O -0.24424 1.06784 -0.00782
 O98 O -0.22328 0.84998 -0.00145
 O99 O 0.24133 0.90030 0.01025
 O100 O 0.11708 1.02829 0.22779
 O101 O -0.13069 0.99035 0.22343
 Zr102 Zr 0.15411 1.00031 0.00216
 Zr103 Zr -0.15719 0.96648 -0.00437
 Zr104 Zr -0.01618 1.13156 -0.01117
 Zr105 Zr 0.01308 0.83514 0.00761
 Zr106 Zr -0.00459 0.99846 0.15549
 O107 O -0.07642 0.90616 0.08297
 O108 O 0.07027 1.07553 0.07620
 C109 C 0.20057 1.03586 0.20129
 C110 C -0.21258 0.97451 0.19223
 C111 C 0.18845 1.19143 -0.00922
 C112 C 0.22674 0.82104 0.01271
 C113 C -0.19282 0.77598 0.00627
 C114 C -0.22852 1.14684 -0.01323
 C115 C -0.01765 1.19025 0.19303
 C116 C 0.01583 0.81687 0.21750
 H117 H -0.13344 1.09125 0.10861
 O118 O -0.09070 1.05773 0.07252
 H119 H 0.12785 0.89934 0.12659
 O120 O 0.08474 0.92470 0.08538
 C121 C 0.35504 1.03370 0.25644
 C122 C 0.27001 1.05883 0.26819
 H123 H 0.39089 1.04215 0.29835
 H124 H 0.25001 1.09762 0.32482
 C125 C -0.30344 1.04072 0.30738
 C126 C -0.29007 0.97595 0.25121
 H127 H -0.24638 1.08275 0.32332
 H128 H -0.34487 0.93099 0.23586
 C129 C -0.34011 1.04355 -0.23341
 C130 C -0.27542 0.99269 -0.26565
 H131 H -0.34324 1.05595 -0.16181
 H132 H -0.27146 0.97330 -0.33547
 C133 C 0.33893 1.06616 -0.24121
 C134 C 0.28106 1.00166 -0.25844
 H135 H 0.33061 1.10580 -0.18151
 H136 H 0.28834 0.95945 -0.31604
 C137 C 0.34678 1.24484 0.00072
 C138 C 0.25804 1.25886 -0.01600
 H139 H 0.36396 1.18199 0.01641
 H140 H 0.23618 1.31680 -0.04173
 C141 C 0.32111 0.69273 0.00348
 C142 C 0.31190 0.77458 0.01997
 H143 H 0.25928 0.65626 -0.01019
 H144 H 0.37061 0.81311 0.03944
 C145 C -0.34517 0.71777 -0.03217
 C146 C -0.26321 0.70855 0.00736
 H147 H -0.35709 0.77474 -0.06589
 H148 H -0.24900 0.65365 0.04362
 C149 C -0.32615 1.26453 -0.05140
 C150 C -0.31009 1.19731 -0.00501
 H151 H -0.27498 1.28539 -0.09732
 H152 H -0.36116 1.17500 0.04039
 C153 C -0.04843 1.24798 0.34559
 C154 C -0.01864 1.25986 0.26179
 H155 H -0.07174 1.18523 0.35851
 H156 H 0.01264 1.31812 0.24398
 C157 C -0.01023 1.27393 -0.31192
 C158 C -0.03779 1.19541 -0.30158
 H159 H -0.01326 1.29408 -0.36132
 H160 H -0.06485 1.15894 -0.35862
 C161 C 0.03614 0.72605 -0.35594
 C162 C 0.01682 0.71101 -0.26941
 H163 H 0.05299 0.79004 -0.37000
 H164 H -0.00933 0.65132 -0.25018
 C165 C -0.01969 0.70086 0.31851
 C166 C 0.03245 0.76620 0.29611
 H167 H -0.07466 0.68057 0.27350
 H168 H 0.08579 0.78923 0.34183
   
