data_POSCAR
  _audit_creation_date              2014-09-24
  _audit_creation_method            'ToBaCCo'
  _symmetry_space_group_name_H-M    'P1'
  _symmetry_Int_Tables_number       1
  _symmetry_cell_setting            triclinic
  loop_
  _symmetry_equiv_pos_as_xyz
 x,y,z
_cell_length_a 49.4445
_cell_length_b 49.6443
_cell_length_c 22.1827
_cell_angle_alpha 89.954000
_cell_angle_beta 89.546500
_cell_angle_gamma 120.173600
loop_
  _atom_site_label
  _atom_site_type_symbol
  _atom_site_fract_x
  _atom_site_fract_y
  _atom_site_fract_z
C1 C 0.13097 0.43971 0.51013
 C2 C 0.14584 0.44331 0.45445
 C3 C 0.17555 0.44633 0.45165
 C4 C 0.19030 0.44423 0.50434
 C5 C 0.17418 0.43938 0.56008
 C6 C 0.14530 0.43827 0.56310
 C7 C 0.22268 0.44845 0.50149
 C8 C 0.24150 0.45690 0.55347
 C9 C 0.27139 0.46051 0.55161
 C10 C 0.28396 0.45761 0.49709
 C11 C 0.26636 0.45030 0.44445
 C12 C 0.23562 0.44485 0.44686
 H13 H 0.10859 0.43885 0.51238
 H14 H 0.18717 0.45116 0.40822
 H15 H 0.18389 0.43688 0.60175
 H16 H 0.23349 0.46106 0.59599
 H17 H 0.30745 0.46111 0.49562
 H18 H 0.22225 0.43785 0.40581
 C19 C 0.59270 -0.29223 0.49422
 C20 C 0.58875 -0.28179 0.43854
 C21 C 0.58546 -0.25541 0.43489
 C22 C 0.58681 -0.23869 0.48744
 C23 C 0.59123 -0.24959 0.54358
 C24 C 0.59303 -0.27684 0.54682
 C25 C 0.58087 -0.21187 0.48431
 C26 C 0.56819 -0.20449 0.53463
 C27 C 0.56219 -0.17987 0.53223
 C28 C 0.56743 -0.16299 0.47893
 C29 C 0.57913 -0.17030 0.42788
 C30 C 0.58651 -0.19415 0.43073
 H31 H 0.59327 -0.31382 0.49701
 H32 H 0.58025 -0.24913 0.39157
 H33 H 0.59222 -0.23780 0.58518
 H34 H 0.56230 -0.21799 0.57585
 H35 H 0.56209 -0.14432 0.47701
 H36 H 0.59640 -0.19874 0.39109
 C37 C 1.30366 0.84369 0.50994
 C38 C 1.29056 0.82724 0.45697
 C39 C 1.25876 0.80473 0.45545
 C40 C 1.23915 0.79928 0.50610
 C41 C 1.25278 0.81667 0.55905
 C42 C 1.28498 0.83818 0.56124
 C43 C 1.20504 0.77497 0.50389
 C44 C 1.18841 0.75985 0.55708
 C45 C 1.15701 0.73613 0.55484
 C46 C 1.14209 0.72634 0.49930
 C47 C 1.15821 0.74054 0.44596
 C48 C 1.18912 0.76532 0.44831
 H49 H 1.32846 0.86075 0.51142
 H50 H 1.24973 0.79139 0.41459
 H51 H 1.23873 0.81373 0.59879
 H52 H 1.19992 0.76554 0.60032
 H53 H 1.11823 0.70697 0.49734
 H54 H 1.20060 0.77638 0.40632
 C55 C 0.84972 0.59222 0.50889
 C56 C 0.83958 0.59736 0.45376
 C57 C 0.81348 0.60131 0.45185
 C58 C 0.79586 0.59819 0.50464
 C59 C 0.80626 0.59234 0.55979
 C60 C 0.83336 0.59009 0.56198
 C61 C 0.76612 0.59945 0.50162
 C62 C 0.75318 0.60533 0.55377
 C63 C 0.72403 0.60365 0.55155
 C64 C 0.70848 0.59820 0.49696
 C65 C 0.72080 0.59267 0.44502
 C66 C 0.74910 0.59270 0.44722
 H67 H 0.86994 0.58915 0.51030
 H68 H 0.80696 0.60631 0.40867
 H69 H 0.79316 0.58859 0.60120
 H70 H 0.76494 0.61031 0.59664
 H71 H 0.68563 0.59632 0.49550
 H72 H 0.75678 0.58616 0.40692
 C73 C 0.45999 0.28884 0.49998
 C74 C 0.46099 0.27627 0.44423
 C75 C 0.45926 0.24732 0.44160
 C76 C 0.45471 0.22949 0.49432
 C77 C 0.45309 0.24231 0.55024
 C78 C 0.45654 0.27213 0.55316
 C79 C 0.45227 0.19813 0.49064
 C80 C 0.46007 0.18551 0.54029
 C81 C 0.45863 0.15664 0.53576
 C82 C 0.45074 0.14066 0.48113
 C83 C 0.44358 0.15297 0.43130
 C84 C 0.44330 0.18090 0.43641
 H85 H 0.46208 0.31166 0.50190
 H86 H 0.46189 0.23921 0.39794
 H87 H 0.44912 0.22935 0.59178
 H88 H 0.46803 0.19820 0.58212
 H89 H 0.45097 0.11899 0.47682
 H90 H 0.43656 0.18911 0.39735
 C91 C 0.72562 0.13813 0.52373
 C92 C 0.73206 0.15408 0.46894
 C93 C 0.75756 0.18446 0.46375
 C94 C 0.77762 0.19895 0.51311
 C95 C 0.77109 0.18192 0.56769
 C96 C 0.74475 0.15215 0.57331
 C97 C 0.80396 0.23209 0.50888
 C98 C 0.81493 0.25075 0.56109
 C99 C 0.83925 0.28176 0.55751
 C100 C 0.85201 0.29507 0.50140
 C101 C 0.84100 0.27737 0.44893
 C102 C 0.81769 0.24589 0.45266
 H103 H 0.70499 0.11521 0.52841
 H104 H 0.76082 0.19685 0.42174
 H105 H 0.78581 0.19176 0.60666
 H106 H 0.80433 0.24166 0.60477
 H107 H 0.87021 0.31939 0.49835
 H108 H 0.81035 0.23253 0.41149
 O109 O 0.95123 0.50857 -0.11041
 O110 O 1.02660 0.54600 0.12148
 O111 O 0.93099 0.50718 0.07191
 O112 O 1.04714 0.56245 -0.06111
 O113 O 0.97546 0.54067 0.10820
 O114 O 1.00348 0.55325 -0.09876
 O115 O 1.04294 0.57153 0.04119
 O116 O 0.93572 0.51942 -0.03099
 C117 C 0.93854 0.52185 -0.08621
 C118 C 1.04015 0.57178 0.09634
 C119 C 0.94738 0.53178 0.10126
 C120 C 1.03183 0.57147 -0.09167
 O121 O 1.02599 0.51505 -0.11082
 O122 O 0.95028 0.47969 0.12282
 O123 O 0.92990 0.46153 -0.05839
 O124 O 1.04599 0.51821 0.07102
 O125 O 1.00168 0.48493 0.10986
 O126 O 0.97372 0.47050 -0.09632
 O127 O 1.04143 0.50487 -0.03112
 O128 O 0.93432 0.45344 0.04421
 Co129 Co 0.98859 0.51189 -0.09292
 Co130 Co 0.98850 0.51275 0.10454
 Co131 Co 0.93785 0.48784 0.00668
 Co132 Co 1.03925 0.53679 0.00506
 O133 O 0.98855 0.51233 0.00582
 C134 C 1.03833 0.50166 -0.08610
 C135 C 0.93751 0.45369 0.09918
 C136 C 0.94530 0.45240 -0.08898
 C137 C 1.02985 0.49405 0.10218
 O138 O 0.46483 0.43491 -0.08866
 O139 O 0.43371 0.45835 0.07332
 O140 O 0.51012 0.44359 0.04747
 O141 O 0.44092 0.50538 -0.05264
 O142 O 0.46297 0.43195 0.06140
 O143 O 0.43730 0.46590 -0.10353
 O144 O 0.44334 0.50482 0.05981
 O145 O 0.51067 0.44434 -0.06194
 C146 C 0.48419 0.42604 -0.08405
 C147 C 0.42492 0.47759 0.07740
 C148 C 0.48295 0.42403 0.06412
 C149 C 0.42672 0.48321 -0.08915
 O150 O 0.49138 0.51565 -0.13077
 O151 O 0.51285 0.48045 0.11675
 O152 O 0.54858 0.50796 -0.05793
 O153 O 0.50446 0.54475 0.05401
 O154 O 0.48472 0.50840 0.12191
 O155 O 0.51745 0.48456 -0.12913
 O156 O 0.49955 0.54906 -0.05864
 O157 O 0.54529 0.50700 0.04761
 Co158 Co 0.47862 0.47597 -0.10266
 Co159 Co 0.47477 0.47109 0.08502
 Co160 Co 0.52510 0.47637 -0.00621
 Co161 Co 0.47364 0.52212 0.00055
 O162 O 0.48768 0.48641 -0.00636
 C163 C 0.50205 0.54330 -0.11260
 C164 C 0.53965 0.50157 0.10186
 C165 C 0.54356 0.50570 -0.11240
 C166 C 0.50317 0.53643 0.10723
 O167 O 0.56505 0.00680 -0.07832
 O168 O 0.51322 -0.03762 0.11170
 O169 O 0.56725 0.04804 0.05776
 O170 O 0.48439 -0.08789 -0.05032
 O171 O 0.53175 0.01815 0.12441
 O172 O 0.52685 -0.04686 -0.07843
 O173 O 0.52381 -0.05500 0.02983
 O174 O 0.56968 0.05088 -0.05553
 C175 C 0.58144 0.03553 -0.07594
 C176 C 0.52694 -0.05030 0.08566
 C177 C 0.55967 0.03862 0.11099
 C178 C 0.50715 -0.07510 -0.08901
 O179 O 0.48317 -0.03293 -0.11842
 O180 O 0.47640 0.00858 0.07979
 O181 O 0.51559 0.04881 -0.05563
 O182 O 0.46656 -0.07961 0.05491
 O183 O 0.45733 -0.04390 0.06919
 O184 O 0.52361 0.02202 -0.12400
 O185 O 0.45632 -0.05722 -0.03998
 O186 O 0.51704 0.05194 0.05698
 Co187 Co 0.52350 -0.01237 -0.09153
 Co188 Co 0.49601 -0.01345 0.08901
 Co189 Co 0.53952 0.04447 0.00057
 Co190 Co 0.49121 -0.05423 -0.00676
 O191 O 0.51271 -0.00681 0.00030
 C192 C 0.45703 -0.04936 -0.09351
 C193 C 0.49005 0.03732 0.07855
 C194 C 0.51502 0.04123 -0.10945
 C195 C 0.44977 -0.07119 0.08020
 C196 C 1.04258 0.44618 0.21902
 C197 C 1.07525 0.46060 0.21839
 C198 C 1.09270 0.48347 0.17506
 C199 C 1.07768 0.49304 0.13446
 C200 C 1.13190 0.44538 0.40329
 C201 C 1.02750 0.45571 0.17847
 C202 C 1.09098 0.45456 0.26623
 C203 C 1.10409 0.45078 0.30812
 C204 C 1.11924 0.44752 0.35884
 C205 C 1.04500 0.47996 0.13707
 H206 H 1.02886 0.42853 0.25255
 H207 H 1.11801 0.49488 0.17436
 H208 H 1.09178 0.51172 0.10305
 H209 H 1.00231 0.44514 0.18150
 C210 C 0.55821 0.61473 0.17422
 C211 C 0.54995 0.60927 0.23514
 C212 C 0.52848 0.57912 0.25546
 C213 C 0.51414 0.55470 0.21426
 C214 C 0.58372 0.69961 0.39017
 C215 C 0.54391 0.59049 0.13311
 C216 C 0.56134 0.63511 0.27556
 C217 C 0.56970 0.65663 0.30953
 C218 C 0.57798 0.68075 0.35120
 C219 C 0.52103 0.56047 0.15246
 H220 H 0.57482 0.63797 0.15817
 H221 H 0.52198 0.57475 0.30272
 H222 H 0.49676 0.53176 0.23030
 H223 H 0.55001 0.59552 0.08581
 C224 C 0.38305 -0.09626 0.19071
 C225 C 0.37983 -0.12406 0.21322
 C226 C 0.39784 -0.13597 0.18865
 C227 C 0.41979 -0.11950 0.14298
 C228 C 0.30853 -0.16600 0.40621
 C229 C 0.40497 -0.07978 0.14543
 C230 C 0.35970 -0.13865 0.26450
 C231 C 0.34327 -0.14892 0.30867
 C232 C 0.32445 -0.15892 0.36115
 C233 C 0.42397 -0.09092 0.12199
 H234 H 0.36930 -0.08680 0.20954
 H235 H 0.39560 -0.15742 0.20597
 H236 H 0.43428 -0.12847 0.12578
 H237 H 0.40773 -0.05780 0.13011
 C238 C 0.88652 0.54568 0.17676
 C239 C 0.90530 0.57105 0.21382
 C240 C 0.93790 0.58544 0.20932
 C241 C 0.95165 0.57369 0.17000
 C242 C 0.85428 0.59554 0.39873
 C243 C 0.90024 0.53386 0.13734
 C244 C 0.89129 0.58009 0.26097
 C245 C 0.87972 0.58641 0.30272
 C246 C 0.86614 0.59220 0.35374
 C247 C 0.93294 0.54720 0.13487
 H248 H 0.86126 0.53423 0.18010
 H249 H 0.95268 0.60497 0.23797
 H250 H 0.97689 0.58457 0.16900
 H251 H 0.88523 0.51345 0.11091
 C252 C 0.44430 0.35645 0.17324
 C253 C 0.46975 0.35306 0.18934
 C254 C 0.49810 0.36959 0.15765
 C255 C 0.50160 0.39091 0.11269
 C256 C 0.46342 0.29276 0.38908
 C257 C 0.44776 0.37778 0.12833
 C258 C 0.46779 0.33528 0.24223
 C259 C 0.46646 0.32148 0.28797
 C260 C 0.46495 0.30600 0.34245
 C261 C 0.47683 0.39612 0.09923
 H262 H 0.42226 0.34380 0.19750
 H263 H 0.51797 0.36718 0.16975
 H264 H 0.52429 0.40472 0.09124
 H265 H 0.42826 0.38129 0.11913
 C266 C 0.63658 0.09040 0.18883
 C267 C 0.62864 0.08147 0.24909
 C268 C 0.59835 0.05774 0.26421
 C269 C 0.57592 0.04330 0.21924
 C270 C 0.71107 0.13955 0.41942
 C271 C 0.61426 0.07605 0.14387
 C272 C 0.65145 0.09727 0.29533
 C273 C 0.67056 0.11079 0.33389
 C274 C 0.69269 0.12655 0.37948
 C275 C 0.58357 0.05254 0.15861
 H276 H 0.65996 0.10872 0.17663
 H277 H 0.59197 0.05063 0.31079
 H278 H 0.55254 0.02522 0.23199
 H279 H 0.62096 0.08368 0.09763
 C280 C 0.49811 0.06399 -0.26175
 C281 C 0.49124 0.08716 -0.24544
 C282 C 0.49141 0.09474 -0.18471
 C283 C 0.49876 0.07950 -0.14043
 C284 C 0.46579 0.14419 -0.41647
 C285 C 0.50550 0.04869 -0.21751
 C286 C 0.48433 0.10338 -0.29104
 C287 C 0.47861 0.11684 -0.32961
 C288 C 0.47182 0.13205 -0.37573
 C289 C 0.50612 0.05645 -0.15637
 H290 H 0.49795 0.05788 -0.30868
 H291 H 0.48605 0.11258 -0.17160
 H292 H 0.49897 0.08599 -0.09376
 H293 H 0.51094 0.03100 -0.23118
 C294 C 0.58952 0.53892 -0.25731
 C295 C 0.61883 0.56101 -0.23491
 C296 C 0.62293 0.56615 -0.17291
 C297 C 0.59809 0.54862 -0.13326
 C298 C 0.70771 0.60155 -0.39735
 C299 C 0.56461 0.52128 -0.21765
 C300 C 0.64521 0.57617 -0.27525
 C301 C 0.66667 0.58686 -0.31076
 C302 C 0.69011 0.59644 -0.35550
 C303 C 0.56886 0.52557 -0.15516
 H304 H 0.58618 0.53469 -0.30532
 H305 H 0.64553 0.58307 -0.15513
 H306 H 0.60199 0.55262 -0.08531
 H307 H 0.54232 0.50386 -0.23573
 C308 C 0.88177 0.38166 -0.16857
 C309 C 0.89959 0.37376 -0.20610
 C310 C 0.93217 0.38945 -0.20044
 C311 C 0.94699 0.41393 -0.15956
 C312 C 0.85029 0.29918 -0.39150
 C313 C 0.89655 0.40614 -0.12751
 C314 C 0.88494 0.35166 -0.25407
 C315 C 0.87337 0.33428 -0.29612
 C316 C 0.86059 0.31499 -0.34703
 C317 C 0.92939 0.42314 -0.12390
 H318 H 0.85654 0.36973 -0.17265
 H319 H 0.94622 0.38358 -0.22928
 H320 H 0.97229 0.42646 -0.15766
 H321 H 0.88237 0.41269 -0.10075
 C322 C 0.49533 -0.13969 -0.19536
 C323 C 0.52364 -0.12514 -0.22769
 C324 C 0.54676 -0.09481 -0.21312
 C325 C 0.54152 -0.07882 -0.16713
 C326 C 0.55125 -0.17132 -0.41498
 C327 C 0.49004 -0.12368 -0.14905
 C328 C 0.52900 -0.14046 -0.27736
 C329 C 0.53482 -0.15167 -0.32008
 C330 C 0.54308 -0.16300 -0.37099
 C331 C 0.51302 -0.09298 -0.13503
 H332 H 0.47726 -0.16315 -0.20647
 H333 H 0.56872 -0.08334 -0.23792
 H334 H 0.55968 -0.05524 -0.15713
 H335 H 0.46786 -0.13503 -0.12507
 C336 C 0.37011 0.50137 -0.16683
 C337 C 0.35289 0.47422 -0.20060
 C338 C 0.35683 0.44857 -0.19095
 C339 C 0.37934 0.45069 -0.15072
 C340 C 0.28865 0.46599 -0.39349
 C341 C 0.39257 0.50348 -0.12609
 C342 C 0.33405 0.47357 -0.25020
 C343 C 0.31928 0.47217 -0.29418
 C344 C 0.30271 0.46941 -0.34741
 C345 C 0.39824 0.47856 -0.11954
 H346 H 0.36734 0.52142 -0.17423
 H347 H 0.34368 0.42747 -0.21693
 H348 H 0.38313 0.43109 -0.14651
 H349 H 0.40695 0.52530 -0.10302
 C350 C 1.09681 0.64472 -0.16368
 C351 C 1.08040 0.65076 -0.20769
 C352 C 1.04771 0.63308 -0.20894
 C353 C 1.03158 0.60836 -0.16840
 C354 C 1.14155 0.72103 -0.39375
 C355 C 1.08074 0.62000 -0.12313
 C356 C 1.09722 0.67236 -0.25580
 C357 C 1.11131 0.68897 -0.29797
 C358 C 1.12770 0.70685 -0.34903
 C359 C 1.04805 0.60091 -0.12646
 H360 H 1.12213 0.65819 -0.16248
 H361 H 1.03479 0.63747 -0.24301
 H362 H 1.00640 0.59415 -0.17196
 H363 H 1.09405 0.61492 -0.09118
 C364 C 0.92051 0.55490 -0.22286
 C365 C 0.89575 0.55850 -0.20227
 C366 C 0.88625 0.55228 -0.14161
 C367 C 0.90099 0.54157 -0.10226
 C368 C 0.84400 0.58429 -0.38174
 C369 C 0.93498 0.54406 -0.18407
 C370 C 0.87946 0.56674 -0.24548
 C371 C 0.86707 0.57283 -0.28567
 C372 C 0.85400 0.57923 -0.33630
 C373 C 0.92503 0.53669 -0.12372
 H374 H 0.92812 0.55967 -0.26956
 H375 H 0.86704 0.55495 -0.12519
 H376 H 0.89287 0.53601 -0.05599
 H377 H 0.95359 0.54078 -0.20179
 C378 C 0.44334 0.35338 -0.17862
 C379 C 0.46850 0.34976 -0.19661
 C380 C 0.49793 0.36839 -0.17071
 C381 C 0.50260 0.39178 -0.12974
 C382 C 0.45759 0.28543 -0.39239
 C383 C 0.44796 0.37678 -0.13796
 C384 C 0.46493 0.32981 -0.24681
 C385 C 0.46214 0.31455 -0.29113
 C386 C 0.45934 0.29820 -0.34508
 C387 C 0.47791 0.39700 -0.11480
 H388 H 0.42048 0.33921 -0.19841
 H389 H 0.51764 0.36592 -0.18451
 H390 H 0.52594 0.40703 -0.11296
 H391 H 0.42846 0.38016 -0.12728
 C392 C 0.65068 0.04973 -0.17276
 C393 C 0.66684 0.08227 -0.17737
 C394 C 0.65724 0.09953 -0.14260
 C395 C 0.63048 0.08429 -0.10613
 C396 C 0.73441 0.13751 -0.36851
 C397 C 0.62392 0.03443 -0.13625
 C398 C 0.68954 0.09750 -0.22485
 C399 C 0.70625 0.11024 -0.26780
 C400 C 0.72288 0.12503 -0.32106
 C401 C 0.61289 0.05155 -0.10436
 H402 H 0.65770 0.03613 -0.19996
 H403 H 0.66937 0.12470 -0.14632
 H404 H 0.62264 0.09812 -0.08200
 H405 H 0.61090 0.00920 -0.13580
 C406 C 1.05323 0.46415 -0.22014
 C407 C 1.07809 0.46067 -0.20052
 C408 C 1.08863 0.46845 -0.14104
 C409 C 1.07486 0.48056 -0.10207
 C410 C 1.13242 0.43893 -0.38258
 C411 C 1.03978 0.47648 -0.18180
 C412 C 1.09408 0.45195 -0.24417
 C413 C 1.10672 0.44618 -0.28484
 C414 C 1.12081 0.44132 -0.33625
 C415 C 1.05081 0.48541 -0.12280
 H416 H 1.04489 0.45833 -0.26598
 H417 H 1.10802 0.46605 -0.12543
 H418 H 1.08382 0.48733 -0.05686
 H419 H 1.02114 0.47969 -0.19891
 C420 C 0.53920 0.59087 -0.25466
 C421 C 0.54959 0.62115 -0.23381
 C422 C 0.54473 0.62588 -0.17359
 C423 C 0.52935 0.60050 -0.13439
 C424 C 0.58924 0.70788 -0.40003
 C425 C 0.52369 0.56536 -0.21546
 C426 C 0.56336 0.64712 -0.27504
 C427 C 0.57350 0.66814 -0.31121
 C428 C 0.58325 0.69097 -0.35693
 C429 C 0.51843 0.56991 -0.15492
 H430 H 0.54268 0.58696 -0.30141
 H431 H 0.55246 0.64915 -0.15709
 H432 H 0.52579 0.60489 -0.08802
 H433 H 0.51571 0.54216 -0.23256
 C434 C 0.40393 -0.06023 -0.22396
 C435 C 0.37621 -0.08691 -0.20603
 C436 C 0.37386 -0.09936 -0.14819
 C437 C 0.39964 -0.08596 -0.10956
 C438 C 0.29975 -0.14609 -0.38359
 C439 C 0.42969 -0.04697 -0.18572
 C440 C 0.35202 -0.10326 -0.24994
 C441 C 0.33361 -0.11689 -0.28969
 C442 C 0.31427 -0.13273 -0.33920
 C443 C 0.42812 -0.06021 -0.12879
 H444 H 0.40613 -0.05046 -0.26865
 H445 H 0.35260 -0.12015 -0.13393
 H446 H 0.39782 -0.09673 -0.06609
 H447 H 0.45126 -0.02707 -0.20174
 C448 C 0.56303 -0.06626 0.22058
 C449 C 0.56742 -0.09032 0.19924
 C450 C 0.56148 -0.09917 0.13863
 C451 C 0.54998 -0.08486 0.10024
 C452 C 0.58153 -0.15400 0.37241
 C453 C 0.55138 -0.05210 0.18253
 C454 C 0.57462 -0.10786 0.24160
 C455 C 0.57874 -0.12261 0.28007
 C456 C 0.58134 -0.13975 0.32844
 C457 C 0.54394 -0.06181 0.12239
 H458 H 0.56739 -0.05927 0.26740
 H459 H 0.56457 -0.11792 0.12168
 H460 H 0.54432 -0.09291 0.05422
 H461 H 0.54715 -0.03431 0.20081
 C462 C 0.35482 0.43526 0.18192
 C463 C 0.34859 0.45908 0.19632
 C464 C 0.36510 0.48787 0.16655
 C465 C 0.38871 0.49331 0.12476
 C466 C 0.28064 0.44966 0.38779
 C467 C 0.37839 0.44063 0.14012
 C468 C 0.32766 0.45508 0.24573
 C469 C 0.31150 0.45246 0.28899
 C470 C 0.29410 0.45039 0.34157
 C471 C 0.39624 0.47004 0.11239
 H472 H 0.34233 0.41294 0.20481
 H473 H 0.36063 0.50656 0.17745
 H474 H 0.40204 0.51620 0.10429
 H475 H 0.38363 0.42224 0.13175
 C476 C 1.09490 0.65454 0.14921
 C477 C 1.08510 0.65230 0.20949
 C478 C 1.05933 0.62469 0.23046
 C479 C 1.04419 0.59905 0.19255
 C480 C 1.14399 0.72702 0.38897
 C481 C 1.07945 0.62880 0.11072
 C482 C 1.10260 0.67669 0.25240
 C483 C 1.11637 0.69481 0.29246
 C484 C 1.13161 0.71340 0.34319
 C485 C 1.05443 0.60056 0.13269
 H486 H 1.11497 0.67575 0.13255
 H487 H 1.05155 0.62258 0.27693
 H488 H 1.02485 0.57771 0.21065
 H489 H 1.08784 0.63053 0.06483
 C490 C 0.43633 0.05262 0.17641
 C491 C 0.45400 0.08500 0.18252
 C492 C 0.48162 0.10207 0.14886
 C493 C 0.49246 0.08666 0.11182
 C494 C 0.44030 0.13857 0.37350
 C495 C 0.44710 0.03716 0.13935
 C496 C 0.44666 0.10001 0.23009
 C497 C 0.44246 0.11233 0.27305
 C498 C 0.44004 0.12653 0.32623
 C499 C 0.47585 0.05395 0.10834
 H500 H 0.41511 0.03915 0.20276
 H501 H 0.49564 0.12713 0.15371
 H502 H 0.51463 0.10023 0.08841
 H503 H 0.43375 0.01195 0.13757
 C504 C 0.58391 0.52271 0.24864
 C505 C 0.61431 0.54380 0.22850
 C506 C 0.61988 0.55245 0.16772
 C507 C 0.59530 0.53939 0.12681
 C508 C 0.70199 0.58366 0.39173
 C509 C 0.55926 0.50957 0.20775
 C510 C 0.63987 0.55576 0.27001
 C511 C 0.66072 0.56516 0.30598
 C512 C 0.68389 0.57546 0.35057
 C513 C 0.56485 0.51739 0.14625
 H514 H 0.57938 0.51598 0.29574
 H515 H 0.64330 0.56883 0.15177
 H516 H 0.60027 0.54597 0.07972
 H517 H 0.53602 0.49284 0.22397
 C518 C 0.92163 0.40201 0.23518
 C519 C 0.90011 0.37260 0.21308
 C520 C 0.89160 0.36923 0.15217
 C521 C 0.90427 0.39544 0.11392
 C522 C 0.85247 0.29261 0.39137
 C523 C 0.93401 0.42804 0.19748
 C524 C 0.88582 0.34690 0.25513
 C525 C 0.87467 0.32759 0.29478
 C526 C 0.86242 0.30755 0.34538
 C527 C 0.92522 0.42519 0.13667
 H528 H 0.92837 0.40497 0.28216
 H529 H 0.87483 0.34657 0.13461
 H530 H 0.89713 0.39260 0.06723
 H531 H 0.95029 0.45054 0.21630
   
