data_POSCAR
  _audit_creation_date              2014-09-24
  _audit_creation_method            'ToBaCCo'
  _symmetry_space_group_name_H-M    'P1'
  _symmetry_Int_Tables_number       1
  _symmetry_cell_setting            triclinic
  loop_
  _symmetry_equiv_pos_as_xyz
 x,y,z
_cell_length_a 35.4122
_cell_length_b 33.4846
_cell_length_c 33.2056
_cell_angle_alpha 89.421500
_cell_angle_beta 90.890500
_cell_angle_gamma 89.368900
loop_
  _atom_site_label
  _atom_site_type_symbol
  _atom_site_fract_x
  _atom_site_fract_y
  _atom_site_fract_z
N1 N 0.58783 0.69356 0.60898
 N2 N 0.57188 0.67619 0.63995
 C3 C 0.54119 0.69762 0.65028
 C4 C 0.53772 0.73006 0.62426
 C5 C 0.56766 0.72644 0.59835
 H6 H 0.52266 0.69002 0.67467
 H7 H 0.57440 0.74650 0.57384
 Cu8 Cu 0.59254 0.62725 0.66394
 Cu9 Cu 0.63392 0.67272 0.58541
 Cu10 Cu 0.67313 0.58718 0.62922
 N11 N 0.61553 0.57978 0.68863
 N12 N 0.64728 0.56457 0.67529
 C13 C 0.65737 0.53270 0.69822
 C14 C 0.63031 0.52765 0.72753
 C15 C 0.60419 0.55796 0.72043
 H16 H 0.68242 0.51468 0.69368
 H17 H 0.57903 0.56384 0.73756
 N18 N 0.69515 0.61433 0.58237
 N19 N 0.68045 0.64713 0.56589
 C20 C 0.70216 0.65866 0.53498
 C21 C 0.73183 0.63169 0.53190
 C22 C 0.72643 0.60400 0.56222
 H23 H 0.69660 0.68451 0.51598
 H24 H 0.74423 0.57831 0.56910
 H25 H 0.62622 0.61374 0.60188
 H26 H 0.65403 0.64513 0.63758
 N27 N 0.91775 0.30969 0.11312
 N28 N 0.93896 0.33262 0.13581
 C29 C 0.97081 0.31258 0.14641
 C30 C 0.96931 0.27494 0.12981
 C31 C 0.93514 0.27407 0.10885
 H32 H 0.99330 0.32438 0.16507
 H33 H 0.92412 0.24994 0.09094
 Cu34 Cu 0.92292 0.38620 0.15023
 Cu35 Cu 0.87071 0.32891 0.08821
 Cu36 Cu 0.83610 0.41912 0.12203
 N37 N 0.89890 0.43149 0.17604
 N38 N 0.86501 0.44415 0.16498
 C39 C 0.85495 0.47505 0.18821
 C40 C 0.88403 0.48214 0.21528
 C41 C 0.91159 0.45391 0.20676
 H42 H 0.82824 0.49097 0.18598
 H43 H 0.93851 0.44947 0.22204
 N44 N 0.81118 0.38882 0.07890
 N45 N 0.82392 0.35392 0.06652
 C46 C 0.80131 0.34108 0.03644
 C47 C 0.77323 0.36934 0.02941
 C48 C 0.78026 0.39920 0.05697
 H49 H 0.80548 0.31373 0.01997
 H50 H 0.76436 0.42663 0.06055
 H51 H 0.87957 0.38965 0.09261
 H52 H 0.85905 0.36380 0.13751
 N53 N 0.41222 0.19201 -0.10822
 N54 N 0.42598 0.17668 -0.14128
 C55 C 0.45621 0.19792 -0.15249
 C56 C 0.46163 0.22813 -0.12491
 C57 C 0.43332 0.22339 -0.09719
 H58 H 0.47319 0.19159 -0.17847
 H59 H 0.42843 0.24156 -0.07099
 Cu60 Cu 0.40343 0.13015 -0.16622
 Cu61 Cu 0.36795 0.17022 -0.08212
 Cu62 Cu 0.32790 0.08647 -0.12523
 N63 N 0.38124 0.08252 -0.18936
 N64 N 0.35146 0.06583 -0.17346
 C65 C 0.34175 0.03381 -0.19536
 C66 C 0.36694 0.03024 -0.22662
 C67 C 0.39164 0.06150 -0.22181
 H68 H 0.31840 0.01442 -0.18872
 H69 H 0.41536 0.06833 -0.24071
 N70 N 0.30812 0.11172 -0.07644
 N71 N 0.32309 0.14383 -0.06021
 C72 C 0.30297 0.15403 -0.02769
 C73 C 0.27424 0.12693 -0.02309
 C74 C 0.27827 0.10052 -0.05455
 H75 H 0.30877 0.17922 -0.00853
 H76 H 0.26057 0.07529 -0.06128
 H77 H 0.37610 0.11238 -0.10163
 H78 H 0.34408 0.14519 -0.13295
 N79 N 0.08053 0.80554 0.39251
 N80 N 0.06014 0.82937 0.36894
 C81 C 0.02780 0.81100 0.35871
 C82 C 0.02819 0.77344 0.37637
 C83 C 0.06212 0.77096 0.39772
 H84 H 0.00601 0.82364 0.33909
 H85 H 0.07265 0.74618 0.41592
 Cu86 Cu 0.07843 0.88123 0.35186
 Cu87 Cu 0.12901 0.82147 0.41518
 Cu88 Cu 0.16874 0.90547 0.37305
 N89 N 0.10382 0.92361 0.32293
 N90 N 0.13919 0.93259 0.33085
 C91 C 0.14955 0.96264 0.30634
 C92 C 0.11912 0.97301 0.28176
 C93 C 0.09047 0.94757 0.29304
 H94 H 0.17716 0.97613 0.30640
 H95 H 0.06218 0.94631 0.28047
 N96 N 0.19368 0.87400 0.41649
 N97 N 0.17785 0.84273 0.43356
 C98 C 0.20003 0.82971 0.46439
 C99 C 0.23151 0.85355 0.46641
 C100 C 0.22666 0.88135 0.43563
 H101 H 0.19361 0.80505 0.48432
 H102 H 0.24496 0.90608 0.42886
 H103 H 0.12488 0.88297 0.40665
 H104 H 0.14089 0.85254 0.36279
 C105 C 0.08885 0.15366 0.11905
 C106 C 0.11888 0.15576 0.09213
 C107 C 0.14683 0.12579 0.09183
 C108 C 0.14557 0.09454 0.12038
 C109 C 0.11609 0.09229 0.14805
 C110 C 0.08768 0.12202 0.14713
 H111 H 0.11987 0.18021 0.07053
 H112 H 0.16782 0.07209 0.12155
 H113 H 0.06547 0.12172 0.16912
 C114 C 0.40769 0.84423 0.62220
 C115 C 0.40516 0.87204 0.65355
 C116 C 0.37433 0.89855 0.65558
 C117 C 0.34604 0.89754 0.62541
 C118 C 0.34896 0.87108 0.59312
 C119 C 0.37993 0.84458 0.59162
 H120 H 0.42724 0.87324 0.67643
 H121 H 0.32242 0.91832 0.62593
 H122 H 0.38180 0.82325 0.56738
 C123 C 0.90759 0.65552 0.38198
 C124 C 0.87633 0.65770 0.40726
 C125 C 0.84785 0.62882 0.40521
 C126 C 0.85088 0.59794 0.37717
 C127 C 0.88162 0.59567 0.35110
 C128 C 0.90995 0.62472 0.35366
 H129 H 0.87506 0.68117 0.42942
 H130 H 0.82897 0.57563 0.37546
 H131 H 0.93316 0.62442 0.33287
 C132 C 0.59111 0.33981 -0.12293
 C133 C 0.61852 0.33972 -0.09196
 C134 C 0.64738 0.36807 -0.09147
 C135 C 0.64918 0.39629 -0.12302
 C136 C 0.62191 0.39687 -0.15426
 C137 C 0.59260 0.36906 -0.15357
 H138 H 0.61729 0.31756 -0.06800
 H139 H 0.67164 0.41791 -0.12319
 H140 H 0.57099 0.37041 -0.17699
 C141 C -0.00261 0.24539 0.13326
 C142 C -0.00709 0.20819 0.11951
 C143 C 0.02282 0.17730 0.12301
 C144 C 0.05942 0.18530 0.11785
 H145 H -0.03406 0.19889 0.10731
 H146 H 0.01396 0.14664 0.12673
 H147 H 0.02353 0.25303 0.14859
 H148 H 0.06775 0.21530 0.10958
 C149 C 0.50858 0.76185 0.62329
 C150 C 0.48453 0.76713 0.65358
 C151 C 0.45514 0.79872 0.65398
 C152 C 0.43897 0.81460 0.62062
 H153 H 0.48729 0.74876 0.68048
 H154 H 0.44462 0.80685 0.68325
 H155 H 0.50788 0.78194 0.59754
 H156 H 0.44666 0.80341 0.59135
 C157 C 0.99985 0.74496 0.37255
 C158 C 1.00369 0.70741 0.38660
 C159 C 0.97385 0.67738 0.38182
 C160 C 0.93707 0.68627 0.38507
 H161 H 1.03024 0.69710 0.39973
 H162 H 0.98277 0.64656 0.37847
 H163 H 0.97420 0.75364 0.35634
 H164 H 0.92844 0.71631 0.39295
 C165 C 0.49116 0.25882 -0.12397
 C166 C 0.51439 0.26495 -0.15486
 C167 C 0.54383 0.29585 -0.15519
 C168 C 0.56078 0.30970 -0.12182
 H169 H 0.51076 0.24809 -0.18224
 H170 H 0.55337 0.30547 -0.18450
 H171 H 0.49283 0.27746 -0.09758
 H172 H 0.55397 0.29695 -0.09276
 C173 C 0.11870 0.00466 0.25059
 C174 C 0.08773 0.01442 0.22876
 C175 C 0.08654 0.04667 0.19796
 C176 C 0.11712 0.05963 0.17858
 H177 H 0.06136 -0.00039 0.23467
 H178 H 0.05888 0.05853 0.18993
 H179 H 0.14466 0.02083 0.24652
 H180 H 0.14407 0.04481 0.18396
 C181 C 0.62864 0.49891 -0.24174
 C182 C 0.65601 0.47156 -0.23470
 C183 C 0.65477 0.44186 -0.20156
 C184 C 0.62259 0.42698 -0.18720
 H185 H 0.68159 0.47197 -0.25209
 H186 H 0.68166 0.43030 -0.19043
 H187 H 0.60434 0.49987 -0.22234
 H188 H 0.59588 0.43536 -0.20140
 C189 C 0.36849 0.99991 0.74159
 C190 C 0.34077 0.97365 0.73531
 C191 C 0.34151 0.94382 0.70283
 C192 C 0.37354 0.92814 0.68844
 H193 H 0.31538 0.97527 0.75295
 H194 H 0.31447 0.93309 0.69215
 H195 H 0.39270 1.00033 0.72209
 H196 H 0.40033 0.93592 0.70227
 C197 C 0.88377 0.51285 0.24674
 C198 C 0.91340 0.51946 0.27128
 C199 C 0.91347 0.55058 0.30259
 C200 C 0.88200 0.56388 0.32034
 H201 H 0.93948 0.50294 0.26731
 H202 H 0.94080 0.56119 0.31242
 H203 H 0.85841 0.53098 0.24889
 H204 H 0.85526 0.55007 0.31318
 C205 C 0.24556 0.12727 0.00863
 C206 C 0.22233 0.09653 0.01465
 C207 C 0.19356 0.09543 0.04635
 C208 C 0.17714 0.12810 0.06167
 H209 H 0.22539 0.06979 -0.00307
 H210 H 0.18382 0.06613 0.05514
 H211 H 0.24454 0.15300 0.02807
 H212 H 0.18402 0.15732 0.04981
 C213 C 0.76286 0.63116 0.50286
 C214 C 0.76976 0.66188 0.47796
 C215 C 0.80153 0.66208 0.44963
 C216 C 0.81564 0.62881 0.43313
 H217 H 0.75308 0.68905 0.47981
 H218 H 0.81214 0.69098 0.44073
 H219 H 0.78124 0.60511 0.50322
 H220 H 0.80221 0.60046 0.43891
 C221 C 0.74358 0.36777 -0.00219
 C222 C 0.72144 0.39933 -0.01163
 C223 C 0.69303 0.39960 -0.04467
 C224 C 0.67582 0.36678 -0.05827
 H225 H 0.72566 0.42736 0.00362
 H226 H 0.68479 0.42863 -0.05669
 H227 H 0.74134 0.34045 -0.01915
 H228 H 0.68112 0.33829 -0.04340
 C229 C 0.26170 0.85135 0.49732
 C230 C 0.29566 0.86743 0.49170
 C231 C 0.32578 0.86588 0.52285
 C232 C 0.31871 0.87086 0.56200
 H233 H 0.30249 0.88035 0.46273
 H234 H 0.35469 0.86365 0.51285
 H235 H 0.25605 0.83515 0.52496
 H236 H 0.29015 0.87759 0.57130
   
