data_POSCAR
  _audit_creation_date              2014-09-24
  _audit_creation_method            'ToBaCCo'
  _symmetry_space_group_name_H-M    'P1'
  _symmetry_Int_Tables_number       1
  _symmetry_cell_setting            triclinic
  loop_
  _symmetry_equiv_pos_as_xyz
 x,y,z
_cell_length_a 41.5201
_cell_length_b 40.7888
_cell_length_c 16.9781
_cell_angle_alpha 90.030900
_cell_angle_beta 89.671200
_cell_angle_gamma 121.436600
loop_
  _atom_site_label
  _atom_site_type_symbol
  _atom_site_fract_x
  _atom_site_fract_y
  _atom_site_fract_z
C1 C 0.47869 0.96473 0.54462
 C2 C 0.47903 0.96517 0.46115
 C3 C 0.49542 1.00033 0.42099
 C4 C 0.51305 1.03585 0.46073
 C5 C 0.51332 1.03572 0.54477
 C6 C 0.49584 1.00009 0.58458
 H7 H 0.49543 0.99983 0.64846
 H8 H 0.49560 0.99984 0.35710
 C9 C 0.03412 0.51667 0.54219
 C10 C 0.03565 0.51080 0.46124
 C11 C 0.00240 0.49371 0.41693
 C12 C -0.03290 0.48224 0.45181
 C13 C -0.03418 0.48803 0.53413
 C14 C -0.00066 0.50551 0.57790
 H15 H -0.00187 0.50944 0.64078
 H16 H 0.00448 0.49106 0.35388
 C17 C 0.48430 0.52021 0.54055
 C18 C 0.49369 0.52801 0.45950
 C19 C 0.51633 0.51609 0.42363
 C20 C 0.52923 0.49559 0.46563
 C21 C 0.51992 0.48728 0.54669
 C22 C 0.49665 0.49892 0.58202
 H23 H 0.49100 0.49454 0.64476
 H24 H 0.52194 0.52065 0.36086
 O25 O 0.38713 0.65454 -0.07369
 O26 O 0.38305 0.71554 -0.09317
 C27 C 0.36551 0.73305 -0.10099
 O28 O 0.33745 0.72603 -0.05783
 O29 O 0.27550 0.65954 -0.08046
 C30 C 0.25835 0.62391 -0.09564
 O31 O 0.26482 0.60060 -0.05949
 O32 O 0.32865 0.60491 -0.09222
 C33 C 0.36346 0.62405 -0.10947
 O34 O 0.38926 0.66457 0.08305
 O35 O 0.38842 0.72801 0.06359
 C36 C 0.36567 0.73236 0.10652
 O37 O 0.33018 0.71223 0.09820
 O38 O 0.26644 0.64764 0.07789
 C39 C 0.26224 0.61828 0.11379
 O40 O 0.28005 0.60201 0.09495
 O41 O 0.34236 0.60413 0.06223
 C42 C 0.37239 0.62880 0.09725
 Cr43 Cr 0.38486 0.68953 -0.00471
 Cr44 Cr 0.30339 0.68529 0.00909
 Cr45 Cr 0.30497 0.60509 0.00134
 O46 O 0.33108 0.65990 0.00208
 O47 O 0.61095 0.34937 -0.05256
 O48 O 0.60924 0.28553 -0.08435
 C49 C 0.62478 0.26644 -0.09964
 O50 O 0.65484 0.27291 -0.06631
 O51 O 0.71761 0.33772 -0.10048
 C52 C 0.73632 0.37371 -0.11322
 O53 O 0.73231 0.39722 -0.07153
 O54 O 0.66892 0.39606 -0.08685
 C55 C 0.63328 0.37853 -0.09396
 O56 O 0.61664 0.33905 0.10161
 O57 O 0.61209 0.27358 0.07013
 C58 C 0.63546 0.26700 0.10356
 O59 O 0.67052 0.28575 0.08757
 O60 O 0.73451 0.34892 0.05316
 C61 C 0.74262 0.37844 0.09346
 O62 O 0.72522 0.39624 0.08607
 O63 O 0.66340 0.39813 0.07062
 C64 C 0.63529 0.37512 0.11310
 Cr65 Cr 0.61433 0.31297 0.00848
 Cr66 Cr 0.69339 0.31242 -0.00630
 Cr67 Cr 0.69636 0.39481 -0.00038
 O68 O 0.66802 0.34006 0.00062
 C69 C 0.42871 0.86232 -0.31777
 C70 C 0.42205 0.89214 -0.29963
 C71 C 0.43899 0.92588 -0.34496
 C72 C 0.46180 0.93034 -0.41060
 C73 C 0.46786 0.90034 -0.42899
 C74 C 0.45161 0.86687 -0.38345
 C75 C 0.41132 0.82743 -0.26559
 C76 C 0.41841 0.79739 -0.27479
 C77 C 0.40288 0.76639 -0.22235
 C78 C 0.37945 0.76422 -0.16015
 C79 C 0.37146 0.79347 -0.15165
 C80 C 0.38765 0.82522 -0.20280
 C81 C 0.39834 0.88813 -0.23661
 C82 C 0.38119 0.85521 -0.18978
 H83 H 0.39294 0.91082 -0.22322
 H84 H 0.36315 0.85356 -0.14161
 H85 H 0.43324 0.94827 -0.33061
 H86 H 0.48647 0.90323 -0.47693
 H87 H 0.40950 0.74418 -0.23013
 H88 H 0.35382 0.79236 -0.10310
 H89 H 0.45754 0.84507 -0.40049
 H90 H 0.43647 0.79762 -0.32094
 C91 C 0.13560 0.56188 -0.32128
 C92 C 0.10145 0.52927 -0.29521
 C93 C 0.06851 0.51545 -0.33898
 C94 C 0.06907 0.53236 -0.41083
 C95 C 0.10414 0.56133 -0.44498
 C96 C 0.13671 0.57739 -0.39661
 C97 C 0.16880 0.57845 -0.26646
 C98 C 0.20208 0.61445 -0.27888
 C99 C 0.23125 0.62937 -0.22344
 C100 C 0.22834 0.60827 -0.15568
 C101 C 0.19568 0.57228 -0.14349
 C102 C 0.16561 0.55788 -0.19663
 C103 C 0.10012 0.51054 -0.22512
 C104 C 0.13181 0.52393 -0.17804
 H105 H 0.07410 0.48504 -0.20632
 H106 H 0.12932 0.50832 -0.12443
 H107 H 0.04227 0.49103 -0.31747
 H108 H 0.10335 0.58011 -0.50756
 H109 H 0.25624 0.65738 -0.23368
 H110 H 0.19291 0.55626 -0.09029
 H111 H 0.16226 0.60203 -0.41888
 H112 H 0.20557 0.63187 -0.32979
 C113 C 0.42907 0.56604 -0.32873
 C114 C 0.41835 0.52719 -0.31896
 C115 C 0.43681 0.51226 -0.36197
 C116 C 0.46479 0.53490 -0.41814
 C117 C 0.47392 0.57295 -0.43016
 C118 C 0.45646 0.58834 -0.38615
 C119 C 0.41097 0.58177 -0.27688
 C120 C 0.42349 0.62122 -0.27387
 C121 C 0.40733 0.63480 -0.22078
 C122 C 0.37773 0.60934 -0.17103
 C123 C 0.36432 0.56994 -0.17493
 C124 C 0.38144 0.55616 -0.22561
 C125 C 0.38912 0.50340 -0.26669
 C126 C 0.37050 0.51738 -0.22230
 H127 H 0.38042 0.47345 -0.26013
 H128 H 0.34806 0.49781 -0.18272
 H129 H 0.42851 0.48250 -0.35337
 H130 H 0.49608 0.59172 -0.47098
 H131 H 0.41827 0.66538 -0.21791
 H132 H 0.34208 0.55031 -0.13494
 H133 H 0.46498 0.61779 -0.39773
 H134 H 0.44656 0.64220 -0.30989
 C135 C 0.55769 0.13580 -0.31229
 C136 C 0.56524 0.10647 -0.29535
 C137 C 0.55011 0.07360 -0.34246
 C138 C 0.52831 0.06945 -0.40897
 C139 C 0.52129 0.09891 -0.42644
 C140 C 0.53569 0.13157 -0.37880
 C141 C 0.57397 0.17015 -0.25891
 C142 C 0.56637 0.19998 -0.26654
 C143 C 0.58249 0.23132 -0.21475
 C144 C 0.60692 0.23382 -0.15519
 C145 C 0.61421 0.20408 -0.14689
 C146 C 0.59772 0.17233 -0.19708
 C147 C 0.58834 0.11020 -0.23212
 C148 C 0.60462 0.14263 -0.18466
 H149 H 0.59429 0.08782 -0.21956
 H150 H 0.62262 0.14431 -0.13688
 H151 H 0.55667 0.05173 -0.32897
 H152 H 0.50369 0.09625 -0.47581
 H153 H 0.57622 0.25380 -0.22183
 H154 H 0.63235 0.20524 -0.09986
 H155 H 0.52934 0.15315 -0.39506
 H156 H 0.54790 0.19947 -0.31158
 C157 C 0.86323 0.44200 -0.33035
 C158 C 0.87124 0.41708 -0.37243
 C159 C 0.90416 0.43234 -0.41873
 C160 C 0.92991 0.47212 -0.42145
 C161 C 0.92240 0.49667 -0.37851
 C162 C 0.88935 0.48194 -0.33401
 C163 C 0.82830 0.42465 -0.28026
 C164 C 0.81689 0.44707 -0.24001
 C165 C 0.78611 0.43003 -0.18874
 C166 C 0.76562 0.39012 -0.17603
 C167 C 0.77524 0.36717 -0.21984
 C168 C 0.80626 0.38416 -0.27218
 C169 C 0.84711 0.37717 -0.36562
 C170 C 0.81569 0.36106 -0.31554
 H171 H 0.85326 0.35806 -0.39769
 H172 H 0.79860 0.33005 -0.31045
 H173 H 0.91046 0.41332 -0.45076
 H174 H 0.94227 0.52741 -0.37954
 H175 H 0.77901 0.44857 -0.15733
 H176 H 0.75930 0.33626 -0.21173
 H177 H 0.88535 0.50227 -0.30150
 H178 H 0.83153 0.47786 -0.24650
 C179 C 0.56421 0.43611 -0.30518
 C180 C 0.58747 0.46338 -0.36280
 C181 C 0.57250 0.47947 -0.41300
 C182 C 0.53457 0.46948 -0.40593
 C183 C 0.51198 0.44289 -0.34728
 C184 C 0.52638 0.42627 -0.29820
 C185 C 0.58126 0.41991 -0.25216
 C186 C 0.55989 0.39127 -0.19585
 C187 C 0.57704 0.37793 -0.14592
 C188 C 0.61604 0.39265 -0.15027
 C189 C 0.63760 0.42061 -0.20751
 C190 C 0.62040 0.43402 -0.25890
 C191 C 0.62578 0.47532 -0.36835
 C192 C 0.64198 0.46130 -0.31694
 H193 H 0.64369 0.49634 -0.41232
 H194 H 0.67186 0.47193 -0.32285
 H195 H 0.59119 0.50153 -0.45447
 H196 H 0.48258 0.43405 -0.34031
 H197 H 0.55949 0.35619 -0.10283
 H198 H 0.66764 0.43184 -0.21223
 H199 H 0.50740 0.40618 -0.25458
 H200 H 0.52986 0.37865 -0.18918
 C201 C 0.87126 0.43463 0.30197
 C202 C 0.87579 0.46094 0.36145
 C203 C 0.90704 0.47606 0.41203
 C204 C 0.93463 0.46600 0.40346
 C205 C 0.93018 0.44053 0.34274
 C206 C 0.89902 0.42492 0.29326
 C207 C 0.83767 0.41912 0.24916
 C208 C 0.82980 0.39122 0.19146
 C209 C 0.79887 0.37825 0.14225
 C210 C 0.77470 0.39259 0.14864
 C211 C 0.78180 0.41997 0.20697
 C212 C 0.81287 0.43297 0.25780
 C213 C 0.84967 0.47276 0.36865
 C214 C 0.81916 0.45945 0.31736
 H215 H 0.85318 0.49308 0.41397
 H216 H 0.80010 0.46989 0.32472
 H217 H 0.91084 0.49735 0.45514
 H218 H 0.95040 0.43161 0.33453
 H219 H 0.79419 0.35702 0.09816
 H220 H 0.76307 0.43091 0.21323
 H221 H 0.89759 0.40563 0.24813
 H222 H 0.84699 0.37881 0.18326
 C223 C 0.56964 0.13644 0.31784
 C224 C 0.53233 0.10658 0.30073
 C225 C 0.51426 0.07349 0.34776
 C226 C 0.53195 0.06977 0.41454
 C227 C 0.56883 0.09978 0.43221
 C228 C 0.58745 0.13260 0.38459
 C229 C 0.58817 0.17090 0.26433
 C230 C 0.62619 0.20105 0.27176
 C231 C 0.64193 0.23237 0.21962
 C232 C 0.61993 0.23458 0.15996
 C233 C 0.58226 0.20461 0.15201
 C234 C 0.56651 0.17279 0.20245
 C235 C 0.51286 0.11002 0.23741
 C236 C 0.52939 0.14264 0.19004
 H237 H 0.48419 0.08726 0.22475
 H238 H 0.51298 0.14407 0.14220
 H239 H 0.48555 0.05108 0.33400
 H240 H 0.58386 0.09745 0.48170
 H241 H 0.67118 0.25503 0.22640
 H242 H 0.56523 0.20555 0.10487
 H243 H 0.61567 0.15461 0.40105
 H244 H 0.64427 0.20075 0.31675
 C245 C 0.58145 0.44669 0.32860
 C246 C 0.54740 0.42253 0.37008
 C247 C 0.53104 0.43869 0.41637
 C248 C 0.54757 0.47868 0.42000
 C249 C 0.58077 0.50253 0.37758
 C250 C 0.59773 0.48685 0.33288
 C251 C 0.59767 0.42840 0.27875
 C252 C 0.63239 0.44993 0.23890
 C253 C 0.64495 0.43211 0.18809
 C254 C 0.62344 0.39224 0.17543
 C255 C 0.58988 0.37011 0.21875
 C256 C 0.57701 0.38790 0.27057
 C257 C 0.52928 0.38251 0.36298
 C258 C 0.54345 0.36559 0.31332
 H259 H 0.50316 0.36399 0.39463
 H260 H 0.52779 0.33456 0.30809
 H261 H 0.50487 0.42021 0.44797
 H262 H 0.59362 0.53344 0.37935
 H263 H 0.67138 0.45000 0.15702
 H264 H 0.57326 0.33924 0.21059
 H265 H 0.62307 0.50668 0.30091
 H266 H 0.65015 0.48064 0.24538
 C267 C 0.14074 0.54824 0.34198
 C268 C 0.13870 0.57155 0.40154
 C269 C 0.10587 0.55701 0.45018
 C270 C 0.07248 0.52264 0.42359
 C271 C 0.07507 0.49955 0.36623
 C272 C 0.10893 0.51176 0.32717
 C273 C 0.17469 0.56522 0.28921
 C274 C 0.18120 0.54299 0.23538
 C275 C 0.21049 0.56055 0.18049
 C276 C 0.23379 0.60064 0.17734
 C277 C 0.22921 0.62300 0.23411
 C278 C 0.20038 0.60533 0.29149
 C279 C 0.16741 0.61046 0.40611
 C280 C 0.19682 0.62725 0.35069
 H281 H 0.16581 0.62890 0.44987
 H282 H 0.21701 0.65787 0.35411
 H283 H 0.05053 0.47219 0.35034
 H284 H 0.21413 0.54274 0.13837
 H285 H 0.24807 0.65395 0.23366
 H286 H 0.10874 0.49340 0.28118
 H287 H 0.16384 0.51203 0.23457
 C288 C 0.42705 0.86206 0.32116
 C289 C 0.46620 0.88943 0.31427
 C290 C 0.48269 0.92298 0.35979
 C291 C 0.46090 0.92967 0.41311
 C292 C 0.42220 0.90270 0.42021
 C293 C 0.40540 0.86922 0.37497
 C294 C 0.41045 0.82699 0.26993
 C295 C 0.37173 0.79849 0.27047
 C296 C 0.35743 0.76731 0.21897
 C297 C 0.38134 0.76349 0.16596
 C298 C 0.42013 0.79110 0.16675
 C299 C 0.43473 0.82279 0.21755
 C300 C 0.48869 0.88327 0.26195
 C301 C 0.47332 0.85064 0.21478
 H302 H 0.51867 0.90415 0.25704
 H303 H 0.49190 0.84739 0.17478
 H304 H 0.51268 0.94387 0.35454
 H305 H 0.40499 0.90763 0.46095
 H306 H 0.32740 0.74639 0.21996
 H307 H 0.43896 0.78864 0.12599
 H308 H 0.37552 0.84948 0.38297
 H309 H 0.35187 0.79998 0.30920
 C310 C 0.43844 0.56949 0.31169
 C311 C 0.47832 0.59040 0.31746
 C312 C 0.49635 0.57642 0.36449
 C313 C 0.47505 0.54249 0.40808
 C314 C 0.43562 0.52218 0.40342
 C315 C 0.41745 0.53539 0.35590
 C316 C 0.42032 0.58468 0.25892
 C317 C 0.38118 0.56453 0.24453
 C318 C 0.36577 0.57927 0.19304
 C319 C 0.38878 0.61469 0.15531
 C320 C 0.42771 0.63533 0.17007
 C321 C 0.44368 0.62030 0.22032
 C322 C 0.49987 0.62528 0.27706
 C323 C 0.48290 0.64014 0.23035
 H324 H 0.53036 0.64148 0.28199
 H325 H 0.50083 0.66732 0.20053
 H326 H 0.52688 0.59229 0.36878
 H327 H 0.41882 0.49587 0.43677
 H328 H 0.33564 0.56278 0.18247
 H329 H 0.44580 0.66245 0.14010
 H330 H 0.38704 0.51861 0.35521
 H331 H 0.36202 0.53701 0.27111
   
