data_POSCAR
  _audit_creation_date              2014-09-24
  _audit_creation_method            'ToBaCCo'
  _symmetry_space_group_name_H-M    'P1'
  _symmetry_Int_Tables_number       1
  _symmetry_cell_setting            triclinic
  loop_
  _symmetry_equiv_pos_as_xyz
 x,y,z
_cell_length_a 51.9157
_cell_length_b 52.3565
_cell_length_c 52.1508
_cell_angle_alpha 89.908400
_cell_angle_beta 90.008700
_cell_angle_gamma 89.973700
loop_
  _atom_site_label
  _atom_site_type_symbol
  _atom_site_fract_x
  _atom_site_fract_y
  _atom_site_fract_z
N1 N 0.29188 0.23919 0.22071
 N2 N 0.28108 0.25893 0.20935
 C3 C 0.29500 0.26523 0.18849
 C4 C 0.31549 0.24860 0.18690
 C5 C 0.31303 0.23226 0.20749
 H6 H 0.29036 0.28037 0.17515
 H7 H 0.32537 0.21627 0.21217
 Cu8 Cu 0.24936 0.27376 0.22232
 Cu9 Cu 0.27721 0.22353 0.25129
 Cu10 Cu 0.22052 0.24975 0.27480
 N11 N 0.21765 0.28833 0.23557
 N12 N 0.20635 0.27887 0.25608
 C13 C 0.18481 0.29238 0.26098
 C14 C 0.18269 0.31119 0.24254
 C15 C 0.20369 0.30817 0.22672
 H16 H 0.17171 0.28882 0.27670
 H17 H 0.20835 0.31956 0.21006
 N18 N 0.23792 0.22030 0.29099
 N19 N 0.25951 0.21038 0.28200
 C20 C 0.26633 0.19035 0.29676
 C21 C 0.24824 0.18768 0.31585
 C22 C 0.23045 0.20679 0.31174
 H23 H 0.28296 0.17831 0.29366
 H24 H 0.21319 0.21030 0.32281
 H25 H 0.23938 0.23361 0.24394
 H26 H 0.25844 0.25574 0.26452
 N27 N 0.70851 -0.23854 0.21965
 N28 N 0.71978 -0.25771 0.20782
 C29 C 0.70589 -0.26392 0.18691
 C30 C 0.68496 -0.24779 0.18581
 C31 C 0.68710 -0.23186 0.20669
 H32 H 0.71080 -0.27871 0.17330
 H33 H 0.67434 -0.21634 0.21182
 Cu34 Cu 0.75178 -0.27227 0.22054
 Cu35 Cu 0.72287 -0.22322 0.25047
 Cu36 Cu 0.77955 -0.24932 0.27407
 N37 N 0.78322 -0.28711 0.23427
 N38 N 0.79402 -0.27810 0.25522
 C39 C 0.81532 -0.29187 0.26052
 C40 C 0.81777 -0.31036 0.24188
 C41 C 0.79724 -0.30693 0.22552
 H42 H 0.82797 -0.28871 0.27669
 H43 H 0.79286 -0.31808 0.20862
 N44 N 0.76191 -0.22015 0.29040
 N45 N 0.74028 -0.21029 0.28139
 C46 C 0.73331 -0.19041 0.29623
 C47 C 0.75134 -0.18777 0.31539
 C48 C 0.76926 -0.20675 0.31122
 H49 H 0.71663 -0.17842 0.29311
 H50 H 0.78653 -0.21022 0.32229
 H51 H 0.76090 -0.23263 0.24333
 H52 H 0.74187 -0.25566 0.26306
 N53 N 0.71009 0.24029 0.77944
 N54 N 0.72148 0.25963 0.79084
 C55 C 0.70765 0.26639 0.81160
 C56 C 0.68662 0.25045 0.81312
 C57 C 0.68864 0.23407 0.79257
 H58 H 0.71258 0.28154 0.82480
 H59 H 0.67568 0.21865 0.78772
 Cu60 Cu 0.75348 0.27370 0.77772
 Cu61 Cu 0.72421 0.22438 0.74876
 Cu62 Cu 0.78109 0.24965 0.72467
 N63 N 0.78515 0.28793 0.76399
 N64 N 0.79591 0.27848 0.74322
 C65 C 0.81759 0.29166 0.73803
 C66 C 0.82032 0.31023 0.75655
 C67 C 0.79957 0.30746 0.77273
 H68 H 0.83041 0.28795 0.72211
 H69 H 0.79540 0.31873 0.78960
 N70 N 0.76309 0.22050 0.70870
 N71 N 0.74143 0.21092 0.71792
 C72 C 0.73422 0.19096 0.70332
 C73 C 0.75212 0.18796 0.68409
 C74 C 0.77021 0.20683 0.68797
 H75 H 0.71747 0.17914 0.70664
 H76 H 0.78745 0.21003 0.67679
 H77 H 0.76233 0.23360 0.75565
 H78 H 0.74343 0.25638 0.73553
 N79 N 0.29062 -0.24093 0.77989
 N80 N 0.27946 -0.26047 0.79125
 C81 C 0.29361 -0.26745 0.81175
 C82 C 0.31460 -0.25146 0.81312
 C83 C 0.31223 -0.23481 0.79277
 H84 H 0.28889 -0.28275 0.82489
 H85 H 0.32506 -0.21927 0.78790
 Cu86 Cu 0.24731 -0.27444 0.77842
 Cu87 Cu 0.27605 -0.22474 0.74954
 Cu88 Cu 0.21865 -0.24960 0.72627
 N89 N 0.21516 -0.28823 0.76540
 N90 N 0.20397 -0.27847 0.74495
 C91 C 0.18216 -0.29152 0.74007
 C92 C 0.17975 -0.31033 0.75848
 C93 C 0.20086 -0.30782 0.77424
 H94 H 0.16911 -0.28765 0.72436
 H95 H 0.20542 -0.31942 0.79082
 N96 N 0.23656 -0.22045 0.71013
 N97 N 0.25839 -0.21102 0.71906
 C98 C 0.26550 -0.19104 0.70438
 C99 C 0.24736 -0.18791 0.68540
 C100 C 0.22923 -0.20668 0.68950
 H101 H 0.28239 -0.17934 0.70745
 H102 H 0.21183 -0.20975 0.67852
 H103 H 0.23804 -0.23406 0.75707
 H104 H 0.25651 -0.25652 0.73628
 N105 N 0.71415 -0.23097 0.78221
 N106 N 0.72199 -0.25238 0.79293
 C107 C 0.70722 -0.25724 0.81365
 C108 C 0.68936 -0.23785 0.81582
 C109 C 0.69420 -0.22150 0.79567
 H110 H 0.70927 -0.27355 0.82623
 H111 H 0.68401 -0.20403 0.79119
 Cu112 Cu 0.75080 -0.27161 0.77872
 Cu113 Cu 0.73042 -0.21685 0.75171
 Cu114 Cu 0.78154 -0.25064 0.72599
 N115 N 0.77966 -0.29039 0.76404
 N116 N 0.79145 -0.28204 0.74332
 C117 C 0.81083 -0.29805 0.73738
 C118 C 0.81106 -0.31738 0.75528
 C119 C 0.79122 -0.31208 0.77203
 H120 H 0.82404 -0.29555 0.72153
 H121 H 0.78593 -0.32292 0.78890
 N122 N 0.76879 -0.21847 0.71110
 N123 N 0.74928 -0.20557 0.72094
 C124 C 0.74555 -0.18422 0.70697
 C125 C 0.76353 -0.18383 0.68757
 C126 C 0.77799 -0.20566 0.69062
 H127 H 0.73115 -0.16980 0.71080
 H128 H 0.79421 -0.21149 0.67902
 H129 H 0.74336 -0.25123 0.73734
 H130 H 0.76620 -0.23283 0.75790
 N131 N 0.28602 0.22971 0.78144
 N132 N 0.27686 0.24993 0.79331
 C133 C 0.29129 0.25446 0.81430
 C134 C 0.31032 0.23611 0.81547
 C135 C 0.30651 0.22069 0.79445
 H136 H 0.28823 0.26988 0.82774
 H137 H 0.31774 0.20413 0.78909
 Cu138 Cu 0.24710 0.26859 0.78025
 Cu139 Cu 0.27052 0.21632 0.75033
 Cu140 Cu 0.21944 0.25012 0.72472
 N141 N 0.21933 0.28806 0.76436
 N142 N 0.20886 0.28081 0.74258
 C143 C 0.19016 0.29736 0.73602
 C144 C 0.18894 0.31590 0.75463
 C145 C 0.20756 0.30958 0.77240
 H146 H 0.17809 0.29583 0.71919
 H147 H 0.21195 0.31969 0.78993
 N148 N 0.23275 0.21860 0.70927
 N149 N 0.25231 0.20570 0.71901
 C150 C 0.25623 0.18460 0.70478
 C151 C 0.23831 0.18441 0.68531
 C152 C 0.22368 0.20607 0.68861
 H153 H 0.27058 0.17011 0.70862
 H154 H 0.20730 0.21186 0.67720
 H155 H 0.25706 0.25143 0.73802
 H156 H 0.23399 0.23078 0.75625
 N157 N 0.28709 -0.23075 0.21896
 N158 N 0.27853 -0.25174 0.20804
 C159 C 0.29291 -0.25669 0.18712
 C160 C 0.31132 -0.23783 0.18499
 C161 C 0.30718 -0.22165 0.20539
 H162 H 0.29012 -0.27261 0.17423
 H163 H 0.31778 -0.20443 0.20983
 Cu164 Cu 0.24910 -0.27023 0.22196
 Cu165 Cu 0.27120 -0.21644 0.24957
 Cu166 Cu 0.21961 -0.24962 0.27544
 N167 N 0.22037 -0.28892 0.23704
 N168 N 0.20911 -0.28075 0.25809
 C169 C 0.18958 -0.29652 0.26413
 C170 C 0.18862 -0.31551 0.24595
 C171 C 0.20829 -0.31025 0.22895
 H172 H 0.17667 -0.29407 0.28022
 H173 H 0.21305 -0.32085 0.21181
 N174 N 0.23293 -0.21776 0.29032
 N175 N 0.25257 -0.20506 0.28046
 C176 C 0.25651 -0.18378 0.29441
 C177 C 0.23854 -0.18324 0.31382
 C178 C 0.22387 -0.20490 0.31079
 H179 H 0.27103 -0.16948 0.29052
 H180 H 0.20756 -0.21056 0.32236
 H181 H 0.25765 -0.25075 0.26349
 H182 H 0.23494 -0.23140 0.24359
 N183 N 0.71252 0.23149 0.21938
 N184 N 0.72053 0.25300 0.20900
 C185 C 0.70594 0.25824 0.18827
 C186 C 0.68798 0.23903 0.18570
 C187 C 0.69259 0.22234 0.20563
 H188 H 0.70823 0.27465 0.17586
 H189 H 0.68235 0.20481 0.20971
 Cu190 Cu 0.74947 0.27179 0.22342
 Cu191 Cu 0.72872 0.21680 0.24971
 Cu192 Cu 0.78008 0.25010 0.27588
 N193 N 0.77846 0.29024 0.23822
 N194 N 0.79018 0.28164 0.25888
 C195 C 0.80995 0.29722 0.26466
 C196 C 0.81056 0.31653 0.24673
 C197 C 0.79047 0.31163 0.23013
 H198 H 0.82336 0.29430 0.28027
 H199 H 0.78550 0.32241 0.21314
 N200 N 0.76712 0.21784 0.29038
 N201 N 0.74761 0.20509 0.28037
 C202 C 0.74384 0.18359 0.29411
 C203 C 0.76181 0.18294 0.31353
 C204 C 0.77629 0.20478 0.31073
 H205 H 0.72939 0.16926 0.29012
 H206 H 0.79250 0.21046 0.32242
 H207 H 0.74190 0.25085 0.26453
 H208 H 0.76467 0.23260 0.24377
 C209 C 0.23271 0.00154 0.43209
 C210 C 0.23697 0.02392 0.44593
 C211 C 0.23737 0.02326 0.47278
 C212 C 0.23231 0.00026 0.48620
 C213 C 0.22745 -0.02204 0.47173
 C214 C 0.22827 -0.02144 0.44490
 C215 C 0.23213 -0.00050 0.51498
 C216 C 0.23727 -0.02343 0.52850
 C217 C 0.23658 -0.02405 0.55535
 C218 C 0.23196 -0.00168 0.56909
 C219 C 0.22745 0.02124 0.55619
 C220 C 0.22690 0.02178 0.52937
 H221 H 0.23298 0.00198 0.41129
 H222 H 0.24188 0.04069 0.48291
 H223 H 0.22292 -0.03996 0.48102
 H224 H 0.24206 -0.04084 0.51843
 H225 H 0.23202 -0.00207 0.58990
 H226 H 0.22232 0.03966 0.52000
 C227 C 0.76752 0.00147 0.56895
 C228 C 0.76310 0.02377 0.55498
 C229 C 0.76256 0.02299 0.52812
 C230 C 0.76763 -0.00006 0.51484
 C231 C 0.77264 -0.02228 0.52947
 C232 C 0.77196 -0.02157 0.55630
 C233 C 0.76761 -0.00095 0.48605
 C234 C 0.76260 -0.02400 0.47275
 C235 C 0.76304 -0.02475 0.44588
 C236 C 0.76734 -0.00240 0.43194
 C237 C 0.77176 0.02061 0.44461
 C238 C 0.77252 0.02129 0.47143
 H239 H 0.76736 0.00201 0.58975
 H240 H 0.75791 0.04038 0.51789
 H241 H 0.77716 -0.04024 0.52031
 H242 H 0.75805 -0.04141 0.48298
 H243 H 0.76709 -0.00289 0.41113
 H244 H 0.77702 0.03925 0.48060
 C245 C 0.43149 0.23325 -0.00119
 C246 C 0.44472 0.23727 0.02171
 C247 C 0.47168 0.23814 0.02184
 C248 C 0.48590 0.23376 -0.00087
 C249 C 0.47201 0.22906 -0.02377
 C250 C 0.44502 0.22947 -0.02396
 C251 C 0.51487 0.23445 -0.00071
 C252 C 0.52883 0.23956 -0.02344
 C253 C 0.55579 0.23994 -0.02336
 C254 C 0.56925 0.23647 -0.00047
 C255 C 0.55595 0.23205 0.02233
 C256 C 0.52900 0.23038 0.02218
 H257 H 0.41058 0.23320 -0.00131
 H258 H 0.48120 0.24255 0.03973
 H259 H 0.48183 0.22502 -0.04158
 H260 H 0.51908 0.24358 -0.04131
 H261 H 0.59013 0.23739 -0.00039
 H262 H 0.51940 0.22588 0.04001
 C263 C 0.56882 0.76733 -0.00022
 C264 C 0.55549 0.76341 0.02267
 C265 C 0.52853 0.76226 0.02266
 C266 C 0.51442 0.76618 -0.00022
 C267 C 0.52839 0.77075 -0.02310
 C268 C 0.55537 0.77066 -0.02312
 C269 C 0.48547 0.76514 -0.00029
 C270 C 0.47180 0.75945 -0.02304
 C271 C 0.44486 0.75889 -0.02327
 C272 C 0.43112 0.76275 -0.00065
 C273 C 0.44411 0.76777 0.02220
 C274 C 0.47106 0.76958 0.02235
 H275 H 0.58972 0.76763 -0.00023
 H276 H 0.51892 0.75800 0.04054
 H277 H 0.51862 0.77444 -0.04104
 H278 H 0.48178 0.75519 -0.04072
 H279 H 0.41023 0.76177 -0.00082
 H280 H 0.48045 0.77455 0.04016
 C281 C -0.00175 0.43223 0.23267
 C282 C 0.02158 0.44504 0.22972
 C283 C 0.02209 0.47178 0.22902
 C284 C -0.00069 0.48625 0.23275
 C285 C -0.02404 0.47268 0.23637
 C286 C -0.02456 0.44594 0.23566
 C287 C -0.00005 0.51508 0.23313
 C288 C -0.02281 0.52970 0.22988
 C289 C -0.02220 0.55643 0.23119
 C290 C 0.00119 0.56911 0.23432
 C291 C 0.02396 0.55524 0.23688
 C292 C 0.02334 0.52850 0.23698
 H293 H -0.00213 0.41150 0.23279
 H294 H 0.04043 0.48085 0.22554
 H295 H -0.04198 0.48246 0.24003
 H296 H -0.04119 0.52075 0.22629
 H297 H 0.00164 0.58982 0.23491
 H298 H 0.04127 0.51860 0.24036
 C299 C -0.00377 0.56847 0.76797
 C300 C 0.01997 0.55638 0.77100
 C301 C 0.02138 0.52967 0.77148
 C302 C -0.00086 0.51453 0.76740
 C303 C -0.02462 0.52733 0.76368
 C304 C -0.02607 0.55402 0.76463
 C305 C 0.00082 0.48579 0.76666
 C306 C -0.02133 0.47039 0.77025
 C307 C -0.01977 0.44372 0.76861
 C308 C 0.00398 0.43192 0.76477
 C309 C 0.02617 0.44659 0.76185
 C310 C 0.02459 0.47329 0.76210
 H311 H -0.00485 0.58917 0.76797
 H312 H 0.03997 0.52112 0.77501
 H313 H -0.04215 0.51693 0.75972
 H314 H -0.03993 0.47870 0.77434
 H315 H 0.00518 0.41125 0.76390
 H316 H 0.04204 0.48390 0.75845
 C317 C 0.33420 0.24740 0.16670
 C318 C 0.34938 0.24647 0.14926
 C319 C 0.36679 0.24533 0.12787
 C320 C 0.35728 0.23912 0.10354
 C321 C 0.37394 0.23809 0.08256
 C322 C 0.40021 0.24327 0.08577
 C323 C 0.40978 0.24951 0.11009
 C324 C 0.39306 0.25055 0.13113
 C325 C 0.41709 0.24184 0.06397
 C326 C 0.43027 0.24011 0.04504
 H327 H 0.33699 0.23509 0.10080
 H328 H 0.36636 0.23321 0.06383
 H329 H 0.43007 0.25351 0.11277
 H330 H 0.40059 0.25541 0.14988
 C331 C 0.66694 0.75331 0.16696
 C332 C 0.65128 0.75442 0.14994
 C333 C 0.63308 0.75600 0.12921
 C334 C 0.63286 0.77760 0.11335
 C335 C 0.61592 0.77888 0.09256
 C336 C 0.59913 0.75856 0.08752
 C337 C 0.59917 0.73702 0.10351
 C338 C 0.61614 0.73574 0.12434
 C339 C 0.58275 0.75956 0.06530
 C340 C 0.56982 0.76096 0.04616
 H341 H 0.64598 0.79329 0.11686
 H342 H 0.61616 0.79555 0.08023
 H343 H 0.58636 0.72115 0.09970
 H344 H 0.61628 0.71888 0.13641
 C345 C 0.66729 0.25029 -0.16722
 C346 C 0.65139 0.25017 -0.15039
 C347 C 0.63286 0.24991 -0.12990
 C348 C 0.61508 0.22988 -0.12794
 C349 C 0.59804 0.22889 -0.10720
 C350 C 0.59872 0.24792 -0.08836
 C351 C 0.61623 0.26816 -0.09053
 C352 C 0.63326 0.26916 -0.11128
 C353 C 0.58267 0.24580 -0.06598
 C354 C 0.56997 0.24347 -0.04679
 H355 H 0.61469 0.21484 -0.14218
 H356 H 0.58470 0.21306 -0.10559
 H357 H 0.61704 0.28287 -0.07597
 H358 H 0.64702 0.28466 -0.11255
 C359 C 0.33413 0.74852 -0.16742
 C360 C 0.35011 0.74843 -0.15069
 C361 C 0.36863 0.74838 -0.13020
 C362 C 0.36660 0.73038 -0.11040
 C363 C 0.38354 0.73128 -0.08960
 C364 C 0.40260 0.75017 -0.08854
 C365 C 0.40494 0.76790 -0.10856
 C366 C 0.38798 0.76700 -0.12937
 C367 C 0.41849 0.75247 -0.06609
 C368 C 0.43099 0.75501 -0.04681
 H369 H 0.35161 0.71598 -0.11080
 H370 H 0.38144 0.71763 -0.07411
 H371 H 0.41948 0.78272 -0.10780
 H372 H 0.38962 0.78108 -0.14453
 C373 C 0.16275 0.33007 0.24007
 C374 C 0.14612 0.34599 0.23774
 C375 C 0.12619 0.36492 0.23494
 C376 C 0.12104 0.38196 0.25497
 C377 C 0.10100 0.39967 0.25268
 C378 C 0.08605 0.40048 0.23031
 C379 C 0.09148 0.38372 0.21009
 C380 C 0.11153 0.36600 0.21239
 C381 C 0.06406 0.41718 0.22897
 C382 C 0.04504 0.43039 0.22874
 H383 H 0.13225 0.38130 0.27249
 H384 H 0.09684 0.41240 0.26851
 H385 H 0.07993 0.38404 0.19279
 H386 H 0.11536 0.35292 0.19676
 C387 C 0.16065 0.67206 0.76065
 C388 C 0.14383 0.65633 0.76276
 C389 C 0.12371 0.63759 0.76520
 C390 C 0.11389 0.63124 0.78943
 C391 C 0.09377 0.61359 0.79164
 C392 C 0.08345 0.60220 0.76962
 C393 C 0.09350 0.60833 0.74545
 C394 C 0.11358 0.62596 0.74325
 C395 C 0.06172 0.58525 0.77145
 C396 C 0.04298 0.57167 0.77191
 H397 H 0.12160 0.64011 0.80656
 H398 H 0.08604 0.60910 0.81041
 H399 H 0.08556 0.59976 0.72829
 H400 H 0.12103 0.63072 0.72443
 C401 C -0.16347 0.67161 0.23998
 C402 C -0.14683 0.65563 0.23821
 C403 C -0.12682 0.63669 0.23620
 C404 C -0.11659 0.62557 0.25842
 C405 C -0.09647 0.60790 0.25661
 C406 C -0.08650 0.60123 0.23257
 C407 C -0.09695 0.61209 0.21030
 C408 C -0.11710 0.62978 0.21211
 C409 C -0.06459 0.58446 0.23103
 C410 C -0.04562 0.57117 0.23057
 H411 H -0.12392 0.63080 0.27714
 H412 H -0.08842 0.59977 0.27396
 H413 H -0.08927 0.60721 0.19162
 H414 H -0.12485 0.63828 0.19480
 C415 C -0.16028 0.32751 0.75875
 C416 C -0.14304 0.34280 0.76080
 C417 C -0.12229 0.36088 0.76316
 C418 C -0.09869 0.35596 0.75117
 C419 C -0.07849 0.37346 0.75330
 C420 C -0.08176 0.39597 0.76743
 C421 C -0.10535 0.40089 0.77951
 C422 C -0.12559 0.38335 0.77738
 C423 C -0.06083 0.41390 0.76908
 C424 C -0.04255 0.42808 0.76949
 H425 H -0.09591 0.33865 0.74015
 H426 H -0.06033 0.36947 0.74386
 H427 H -0.10809 0.41824 0.79046
 H428 H -0.14378 0.38733 0.78675
 C429 C 0.24741 0.16789 0.33497
 C430 C 0.24695 0.15078 0.35047
 C431 C 0.24652 0.12970 0.36823
 C432 C 0.24908 0.10474 0.35897
 C433 C 0.24822 0.08405 0.37590
 C434 C 0.24483 0.08816 0.40221
 C435 C 0.24247 0.11313 0.41157
 C436 C 0.24334 0.13390 0.39460
 C437 C 0.24276 0.06648 0.41913
 C438 C 0.24048 0.04750 0.43208
 H439 H 0.25154 0.10127 0.33864
 H440 H 0.24994 0.06483 0.36842
 H441 H 0.23973 0.11654 0.43188
 H442 H 0.24136 0.15313 0.40196
 C443 C 0.75264 0.16804 0.66515
 C444 C 0.75293 0.15085 0.64978
 C445 C 0.75326 0.12968 0.63215
 C446 C 0.75629 0.13378 0.60574
 C447 C 0.75724 0.11296 0.58891
 C448 C 0.75510 0.08801 0.59845
 C449 C 0.75183 0.08398 0.62482
 C450 C 0.75090 0.10474 0.64160
 C451 C 0.75722 0.06632 0.58163
 C452 C 0.75954 0.04736 0.56872
 H453 H 0.75812 0.15299 0.59821
 H454 H 0.75988 0.11628 0.56857
 H455 H 0.75028 0.06478 0.63243
 H456 H 0.74855 0.10133 0.66196
 C457 C 0.24676 -0.16799 0.66642
 C458 C 0.24642 -0.15080 0.65101
 C459 C 0.24602 -0.12965 0.63335
 C460 C 0.24517 -0.10467 0.64287
 C461 C 0.24432 -0.08396 0.62597
 C462 C 0.24436 -0.08805 0.59943
 C463 C 0.24542 -0.11303 0.58984
 C464 C 0.24628 -0.13382 0.60679
 C465 C 0.24241 -0.06646 0.58240
 C466 C 0.24015 -0.04756 0.56932
 H467 H 0.24498 -0.10123 0.66334
 H468 H 0.24341 -0.06474 0.63361
 H469 H 0.24538 -0.11644 0.56936
 H470 H 0.24698 -0.15306 0.59923
 C471 C 0.75205 -0.16811 0.33460
 C472 C 0.75242 -0.15115 0.35023
 C473 C 0.75274 -0.13026 0.36818
 C474 C 0.75970 -0.13425 0.39387
 C475 C 0.76066 -0.11361 0.41092
 C476 C 0.75464 -0.08893 0.40234
 C477 C 0.74742 -0.08504 0.37673
 C478 C 0.74647 -0.10563 0.35973
 C479 C 0.75698 -0.06726 0.41918
 C480 C 0.75942 -0.04832 0.43211
 H481 H 0.76460 -0.15322 0.40062
 H482 H 0.76638 -0.11683 0.43064
 H483 H 0.74286 -0.06604 0.36983
 H484 H 0.74110 -0.10230 0.33993
 C485 C 0.66999 0.76503 -0.16471
 C486 C 0.65384 0.76741 -0.14826
 C487 C 0.63478 0.77000 -0.12836
 C488 C 0.61468 0.75225 -0.12644
 C489 C 0.59702 0.75386 -0.10624
 C490 C 0.59934 0.77326 -0.08791
 C491 C 0.61917 0.79129 -0.09009
 C492 C 0.63683 0.78968 -0.11029
 C493 C 0.58272 0.77342 -0.06582
 C494 C 0.56966 0.77270 -0.04670
 H495 H 0.61295 0.73691 -0.14025
 H496 H 0.58194 0.73966 -0.10460
 H497 H 0.62131 0.80621 -0.07588
 H498 H 0.65234 0.80347 -0.11154
 C499 C 0.32984 0.23337 -0.16517
 C500 C 0.34608 0.23113 -0.14878
 C501 C 0.36520 0.22869 -0.12891
 C502 C 0.36195 0.21064 -0.10931
 C503 C 0.37973 0.20927 -0.08919
 C504 C 0.40086 0.22590 -0.08859
 C505 C 0.40435 0.24365 -0.10843
 C506 C 0.38657 0.24503 -0.12856
 C507 C 0.41766 0.22616 -0.06662
 C508 C 0.43077 0.22716 -0.04755
 H509 H 0.34545 0.19799 -0.10932
 H510 H 0.37669 0.19565 -0.07382
 H511 H 0.42047 0.25678 -0.10805
 H512 H 0.38921 0.25912 -0.14356
 C513 C 0.33011 0.76489 0.16494
 C514 C 0.34552 0.76687 0.14774
 C515 C 0.36337 0.76874 0.12667
 C516 C 0.35496 0.76316 0.10179
 C517 C 0.37221 0.76421 0.08126
 C518 C 0.39801 0.77087 0.08545
 C519 C 0.40644 0.77665 0.11030
 C520 C 0.38913 0.77560 0.13090
 C521 C 0.41565 0.77090 0.06414
 C522 C 0.42935 0.77003 0.04547
 H523 H 0.33512 0.75777 0.09829
 H524 H 0.36550 0.75959 0.06215
 H525 H 0.42637 0.78172 0.11378
 H526 H 0.39586 0.77991 0.15007
 C527 C 0.66889 0.23671 0.16588
 C528 C 0.65317 0.23519 0.14892
 C529 C 0.63484 0.23405 0.12822
 C530 C 0.63361 0.25416 0.11053
 C531 C 0.61639 0.25304 0.08997
 C532 C 0.60027 0.23181 0.08694
 C533 C 0.60132 0.21173 0.10473
 C534 C 0.61859 0.21285 0.12535
 C535 C 0.58345 0.23059 0.06501
 C536 C 0.57030 0.23061 0.04594
 H537 H 0.64611 0.27061 0.11251
 H538 H 0.61583 0.26863 0.07629
 H539 H 0.58902 0.19517 0.10253
 H540 H 0.61943 0.19716 0.13889
 C541 C -0.17138 0.66343 0.75692
 C542 C -0.15523 0.64691 0.75798
 C543 C -0.13519 0.62794 0.75887
 C544 C -0.12508 0.62005 0.78250
 C545 C -0.10418 0.60320 0.78325
 C546 C -0.09328 0.59420 0.76040
 C547 C -0.10371 0.60171 0.73678
 C548 C -0.12464 0.61853 0.73602
 C549 C -0.07029 0.57887 0.76126
 C550 C -0.05044 0.56698 0.76245
 H551 H -0.13295 0.62736 0.80027
 H552 H -0.09613 0.59767 0.80161
 H553 H -0.09531 0.59504 0.71899
 H554 H -0.13219 0.62467 0.71766
 C555 C -0.17006 0.33598 0.24446
 C556 C -0.15313 0.35164 0.24278
 C557 C -0.13211 0.36947 0.24090
 C558 C -0.10957 0.36229 0.22805
 C559 C -0.08855 0.37891 0.22712
 C560 C -0.08991 0.40284 0.23902
 C561 C -0.11254 0.41019 0.25168
 C562 C -0.13362 0.39351 0.25263
 C563 C -0.06776 0.41935 0.23851
 C564 C -0.04846 0.43212 0.23757
 H565 H -0.10814 0.34373 0.21900
 H566 H -0.07113 0.37300 0.21732
 H567 H -0.11379 0.42863 0.26099
 H568 H -0.15094 0.39923 0.26268
 C569 C 0.17071 0.33649 0.75573
 C570 C 0.15473 0.35318 0.75603
 C571 C 0.13486 0.37232 0.75587
 C572 C 0.12924 0.38615 0.77816
 C573 C 0.10851 0.40323 0.77843
 C574 C 0.09335 0.40654 0.75644
 C575 C 0.09932 0.39312 0.73400
 C576 C 0.12005 0.37606 0.73372
 C577 C 0.07043 0.42196 0.75759
 C578 C 0.05058 0.43382 0.75914
 H579 H 0.14047 0.38328 0.79544
 H580 H 0.10390 0.41333 0.79596
 H581 H 0.08759 0.39533 0.71696
 H582 H 0.12415 0.36534 0.71644
 C583 C 0.16962 0.66462 0.24427
 C584 C 0.15307 0.64851 0.24333
 C585 C 0.13265 0.62994 0.24263
 C586 C 0.12075 0.62217 0.26546
 C587 C 0.09971 0.60550 0.26475
 C588 C 0.09049 0.59651 0.24119
 C589 C 0.10266 0.60393 0.21837
 C590 C 0.12370 0.62061 0.21909
 C591 C 0.06763 0.58100 0.24024
 C592 C 0.04799 0.56879 0.23902
 H593 H 0.12741 0.62939 0.28376
 H594 H 0.09033 0.60004 0.28249
 H595 H 0.09558 0.59724 0.20004
 H596 H 0.13264 0.62661 0.20130
 C597 C 0.76722 -0.16398 0.66894
 C598 C 0.77008 -0.14691 0.65368
 C599 C 0.77302 -0.12597 0.63605
 C600 C 0.77357 -0.10095 0.64544
 C601 C 0.77509 -0.08036 0.62846
 C602 C 0.77610 -0.08468 0.60197
 C603 C 0.77595 -0.10974 0.59254
 C604 C 0.77443 -0.13037 0.60959
 C605 C 0.77579 -0.06321 0.58473
 C606 C 0.77461 -0.04456 0.57121
 H607 H 0.77242 -0.09734 0.66587
 H608 H 0.77502 -0.06107 0.63594
 H609 H 0.77658 -0.11328 0.57210
 H610 H 0.77397 -0.14968 0.60214
 C611 C 0.23483 -0.16338 0.33239
 C612 C 0.23175 -0.14645 0.34772
 C613 C 0.22835 -0.12583 0.36558
 C614 C 0.23192 -0.12987 0.39192
 C615 C 0.22999 -0.10938 0.40902
 C616 C 0.22443 -0.08483 0.39981
 C617 C 0.22038 -0.08093 0.37354
 C618 C 0.22232 -0.10137 0.35647
 C619 C 0.22464 -0.06324 0.41683
 C620 C 0.22574 -0.04451 0.43017
 H621 H 0.23662 -0.14872 0.39914
 H622 H 0.23333 -0.11257 0.42928
 H623 H 0.21625 -0.06199 0.36621
 H624 H 0.21956 -0.09803 0.33615
 C625 C 0.76553 0.16293 0.33201
 C626 C 0.76856 0.14586 0.34725
 C627 C 0.77184 0.12505 0.36501
 C628 C 0.77594 0.10031 0.35570
 C629 C 0.77776 0.07978 0.37274
 C630 C 0.77555 0.08387 0.39918
 C631 C 0.77190 0.10868 0.40857
 C632 C 0.77008 0.12926 0.39149
 C633 C 0.77535 0.06232 0.41630
 C634 C 0.77428 0.04363 0.42975
 H635 H 0.77730 0.09684 0.33527
 H636 H 0.78040 0.06065 0.36528
 H637 H 0.77000 0.11202 0.42898
 H638 H 0.76689 0.14832 0.39889
 C639 C 0.23433 0.16454 0.66682
 C640 C 0.23109 0.14745 0.65172
 C641 C 0.22757 0.12646 0.63434
 C642 C 0.22778 0.13049 0.60776
 C643 C 0.22574 0.10970 0.59103
 C644 C 0.22346 0.08488 0.60087
 C645 C 0.22280 0.08096 0.62744
 C646 C 0.22484 0.10170 0.64412
 C647 C 0.22360 0.06316 0.58403
 C648 C 0.22474 0.04435 0.57081
 H649 H 0.22994 0.14958 0.60001
 H650 H 0.22644 0.11291 0.57051
 H651 H 0.22125 0.06183 0.63524
 H652 H 0.22474 0.09838 0.66463
   
