data_POSCAR
  _audit_creation_date              2014-09-24
  _audit_creation_method            'ToBaCCo'
  _symmetry_space_group_name_H-M    'P1'
  _symmetry_Int_Tables_number       1
  _symmetry_cell_setting            triclinic
  loop_
  _symmetry_equiv_pos_as_xyz
 x,y,z
_cell_length_a 35.0345
_cell_length_b 37.4219
_cell_length_c 46.6201
_cell_angle_alpha 90.000000
_cell_angle_beta 90.000100
_cell_angle_gamma 90.000100
loop_
  _atom_site_label
  _atom_site_type_symbol
  _atom_site_fract_x
  _atom_site_fract_y
  _atom_site_fract_z
B1 B 0.27221 0.23770 0.27903
 B2 B 0.22678 0.22791 0.27206
 B3 B 0.23927 0.26981 0.27950
 B4 B 0.28256 0.27817 0.26520
 B5 B 0.29646 0.23972 0.24814
 B6 B 0.26154 0.20828 0.25285
 B7 B 0.23101 0.26379 0.22277
 B8 B 0.27645 0.27350 0.22972
 B9 B 0.26396 0.23161 0.22226
 B10 B 0.22067 0.22327 0.23657
 B11 B 0.20679 0.26170 0.25365
 B12 B 0.24170 0.29313 0.24896
 B13 B 0.72781 0.76233 0.27903
 B14 B 0.77324 0.77212 0.27206
 B15 B 0.76075 0.73022 0.27950
 B16 B 0.71746 0.72187 0.26520
 B17 B 0.70356 0.76031 0.24813
 B18 B 0.73847 0.79175 0.25284
 B19 B 0.76901 0.73625 0.22277
 B20 B 0.72357 0.72653 0.22972
 B21 B 0.73606 0.76843 0.22226
 B22 B 0.77935 0.77676 0.23657
 B23 B 0.79323 0.73833 0.25365
 B24 B 0.75832 0.70690 0.24896
 B25 B 0.72781 0.23769 -0.27902
 B26 B 0.77325 0.22791 -0.27205
 B27 B 0.76075 0.26981 -0.27948
 B28 B 0.71746 0.27816 -0.26519
 B29 B 0.70357 0.23971 -0.24812
 B30 B 0.73848 0.20827 -0.25283
 B31 B 0.76901 0.26378 -0.22276
 B32 B 0.72357 0.27349 -0.22971
 B33 B 0.73606 0.23160 -0.22225
 B34 B 0.77936 0.22327 -0.23656
 B35 B 0.79323 0.26170 -0.25364
 B36 B 0.75831 0.29313 -0.24895
 B37 B 0.27221 0.76233 -0.27902
 B38 B 0.22678 0.77211 -0.27205
 B39 B 0.23927 0.73022 -0.27948
 B40 B 0.28256 0.72187 -0.26519
 B41 B 0.29645 0.76031 -0.24812
 B42 B 0.26154 0.79175 -0.25283
 B43 B 0.23101 0.73624 -0.22276
 B44 B 0.27645 0.72653 -0.22971
 B45 B 0.26396 0.76843 -0.22225
 B46 B 0.22066 0.77675 -0.23656
 B47 B 0.20679 0.73832 -0.25364
 B48 B 0.24171 0.70689 -0.24895
 B49 B 1.23927 1.26981 0.72051
 B50 B 1.22678 1.22791 0.72795
 B51 B 1.27221 1.23770 0.72098
 B52 B 1.28256 1.27817 0.73481
 B53 B 1.24170 1.29313 0.75105
 B54 B 1.20679 1.26170 0.74636
 B55 B 1.26396 1.23160 0.77775
 B56 B 1.27645 1.27350 0.77029
 B57 B 1.23101 1.26378 0.77724
 B58 B 1.22067 1.22327 0.76344
 B59 B 1.26154 1.20828 0.74717
 B60 B 1.29645 1.23972 0.75188
 B61 B 0.76075 0.73022 0.72052
 B62 B 0.77324 0.77212 0.72795
 B63 B 0.72781 0.76233 0.72098
 B64 B 0.71746 0.72187 0.73481
 B65 B 0.75832 0.70690 0.75105
 B66 B 0.79323 0.73834 0.74636
 B67 B 0.73606 0.76843 0.77775
 B68 B 0.72357 0.72653 0.77029
 B69 B 0.76901 0.73625 0.77724
 B70 B 0.77935 0.77676 0.76344
 B71 B 0.73848 0.79175 0.74717
 B72 B 0.70357 0.76031 0.75188
 B73 B 1.23101 0.73624 0.22277
 B74 B 1.27645 0.72653 0.22972
 B75 B 1.26396 0.76843 0.22226
 B76 B 1.22066 0.77675 0.23657
 B77 B 1.20679 0.73832 0.25365
 B78 B 1.24171 0.70689 0.24896
 B79 B 1.27221 0.76233 0.27903
 B80 B 1.22677 0.77211 0.27206
 B81 B 1.23927 0.73021 0.27950
 B82 B 1.28256 0.72187 0.26520
 B83 B 1.29645 0.76031 0.24814
 B84 B 1.26154 0.79175 0.25285
 B85 B 0.76901 1.26378 0.22277
 B86 B 0.72357 1.27349 0.22972
 B87 B 0.73606 1.23160 0.22226
 B88 B 0.77936 1.22327 0.23657
 B89 B 0.79323 1.26170 0.25365
 B90 B 0.75831 1.29313 0.24896
 B91 B 0.72781 1.23769 0.27903
 B92 B 0.77324 1.22791 0.27206
 B93 B 0.76075 1.26981 0.27950
 B94 B 0.71746 1.27816 0.26520
 B95 B 0.70357 1.23971 0.24814
 B96 B 0.73848 1.20827 0.25285
 N97 N 0.56789 1.03757 0.03102
 N98 N 0.59526 1.06048 0.03751
 N99 N 0.54134 0.96243 0.05096
 N100 N 0.55003 0.93950 0.07150
 N101 N 0.56788 0.96245 0.03102
 N102 N 0.59526 0.93955 0.03751
 N103 N 0.54135 1.03760 0.05096
 N104 N 0.55003 1.06052 0.07150
 C105 C 0.58331 1.07500 0.06250
 C106 C 0.58331 0.92502 0.06250
 N107 N 0.43213 0.96245 0.03102
 N108 N 0.40475 0.93955 0.03751
 N109 N 0.45867 1.03760 0.05096
 N110 N 0.44999 1.06053 0.07150
 N111 N 0.43213 1.03758 0.03102
 N112 N 0.40475 1.06048 0.03751
 N113 N 0.45867 0.96243 0.05096
 N114 N 0.44998 0.93950 0.07150
 Mn115 Mn 0.50001 1.00001 0.05117
 C116 C 0.41670 0.92503 0.06250
 C117 C 0.41670 1.07500 0.06250
 N118 N 0.56788 0.96245 -0.03101
 N119 N 0.59526 0.93955 -0.03750
 N120 N 0.54134 1.03760 -0.05095
 N121 N 0.55003 1.06052 -0.07149
 N122 N 0.56789 1.03757 -0.03101
 N123 N 0.59526 1.06048 -0.03750
 N124 N 0.54134 0.96243 -0.05095
 N125 N 0.55003 0.93950 -0.07149
 Mn126 Mn 0.56814 1.00001 0.00001
 C127 C 0.58331 0.92502 -0.06249
 C128 C 0.58331 1.07500 -0.06249
 N129 N 0.43213 1.03758 -0.03101
 N130 N 0.40475 1.06048 -0.03750
 N131 N 0.45867 0.96243 -0.05095
 N132 N 0.44998 0.93950 -0.07149
 N133 N 0.43213 0.96245 -0.03101
 N134 N 0.40475 0.93955 -0.03750
 N135 N 0.45867 1.03760 -0.05095
 N136 N 0.44999 1.06053 -0.07149
 Mn137 Mn 0.43188 1.00002 0.00001
 Mn138 Mn 0.50001 1.00001 -0.05115
 Cl139 Cl 0.50001 1.00001 0.00001
 C140 C 0.41670 1.07501 -0.06249
 C141 C 0.41670 0.92503 -0.06249
 N142 N 1.06778 0.53755 0.53095
 N143 N 1.09512 0.56052 0.53729
 N144 N 1.04133 0.46244 0.55095
 N145 N 1.05005 0.43942 0.57141
 N146 N 1.06778 0.46248 0.53095
 N147 N 1.09511 0.43950 0.53729
 N148 N 1.04133 0.53758 0.55095
 N149 N 1.05005 0.56060 0.57141
 C150 C 1.08325 0.57511 0.56226
 C151 C 1.08324 0.42492 0.56226
 N152 N 0.93224 0.46248 0.53095
 N153 N 0.90490 0.43950 0.53729
 N154 N 0.95869 0.53758 0.55095
 N155 N 0.94997 0.56060 0.57141
 N156 N 0.93224 0.53755 0.53095
 N157 N 0.90490 0.56053 0.53729
 N158 N 0.95868 0.46245 0.55095
 N159 N 0.94996 0.43943 0.57141
 Mn160 Mn 1.00001 0.50001 0.55119
 C161 C 0.91677 0.42492 0.56226
 C162 C 0.91677 0.57511 0.56226
 N163 N 1.06777 0.46248 0.46906
 N164 N 1.09511 0.43950 0.46272
 N165 N 1.04133 0.53758 0.44906
 N166 N 1.05005 0.56060 0.42860
 N167 N 1.06778 0.53755 0.46906
 N168 N 1.09512 0.56052 0.46272
 N169 N 1.04133 0.46244 0.44906
 N170 N 1.05005 0.43942 0.42860
 Mn171 Mn 1.06802 0.50001 0.50001
 C172 C 1.08324 0.42492 0.43776
 C173 C 1.08325 0.57511 0.43776
 N174 N 0.93224 0.53755 0.46906
 N175 N 0.90490 0.56053 0.46272
 N176 N 0.95868 0.46245 0.44906
 N177 N 0.94996 0.43943 0.42860
 N178 N 0.93224 0.46248 0.46906
 N179 N 0.90490 0.43950 0.46272
 N180 N 0.95869 0.53758 0.44906
 N181 N 0.94996 0.56060 0.42860
 Mn182 Mn 0.93199 0.50002 0.50001
 Mn183 Mn 1.00001 0.50001 0.44883
 Cl184 Cl 1.00001 0.50001 0.50001
 C185 C 0.91677 0.57511 0.43776
 C186 C 0.91677 0.42492 0.43776
 N187 N 0.95883 0.56336 -0.03011
 N188 N 0.95083 0.58894 -0.04864
 N189 N 0.93195 0.53885 0.03017
 N190 N 0.90489 0.54726 0.04878
 N191 N 0.95884 0.56336 0.03012
 N192 N 0.95084 0.58894 0.04865
 N193 N 0.93195 0.53885 -0.03016
 N194 N 0.90489 0.54726 -0.04876
 C195 C 0.91750 0.57825 -0.06038
 C196 C 0.91750 0.57825 0.06039
 N197 N 0.95883 0.43667 0.03012
 N198 N 0.95083 0.41109 0.04865
 N199 N 0.93195 0.46118 -0.03016
 N200 N 0.90488 0.45278 -0.04876
 N201 N 0.95883 0.43667 -0.03011
 N202 N 0.95083 0.41109 -0.04864
 N203 N 0.93195 0.46118 0.03017
 N204 N 0.90488 0.45278 0.04878
 Mn205 Mn 0.93160 0.50002 0.00001
 C206 C 0.91750 0.42178 0.06039
 C207 C 0.91750 0.42178 -0.06038
 N208 N 1.04119 0.56336 0.03012
 N209 N 1.04919 0.58894 0.04865
 N210 N 1.06807 0.53884 -0.03016
 N211 N 1.09513 0.54725 -0.04877
 N212 N 1.04119 0.56336 -0.03011
 N213 N 1.04919 0.58894 -0.04864
 N214 N 1.06807 0.53884 0.03017
 N215 N 1.09513 0.54725 0.04878
 Mn216 Mn 1.00001 0.56353 0.00001
 C217 C 1.08252 0.57825 0.06039
 C218 C 1.08252 0.57825 -0.06038
 N219 N 1.04118 0.43667 -0.03011
 N220 N 1.04918 0.41109 -0.04864
 N221 N 1.06807 0.46118 0.03017
 N222 N 1.09513 0.45277 0.04878
 N223 N 1.04118 0.43667 0.03012
 N224 N 1.04918 0.41109 0.04865
 N225 N 1.06807 0.46118 -0.03016
 N226 N 1.09513 0.45277 -0.04877
 Mn227 Mn 1.00001 0.43650 0.00001
 Mn228 Mn 1.06842 0.50001 0.00001
 Cl229 Cl 1.00001 0.50001 0.00001
 C230 C 1.08251 0.42178 -0.06038
 C231 C 1.08252 0.42178 0.06039
 N232 N 0.56792 1.03764 0.53104
 N233 N 0.59402 1.06212 0.53684
 N234 N 0.54117 0.96242 0.55080
 N235 N 0.54830 0.93800 0.57052
 N236 N 0.56791 0.96238 0.53104
 N237 N 0.59401 0.93790 0.53684
 N238 N 0.54117 1.03760 0.55080
 N239 N 0.54831 1.06202 0.57052
 C240 C 0.58100 1.07735 0.56129
 C241 C 0.58100 0.92267 0.56129
 N242 N 0.43210 0.96238 0.53104
 N243 N 0.40600 0.93790 0.53684
 N244 N 0.45885 1.03761 0.55080
 N245 N 0.45171 1.06203 0.57052
 N246 N 0.43210 1.03765 0.53104
 N247 N 0.40600 1.06213 0.53684
 N248 N 0.45884 0.96242 0.55080
 N249 N 0.45171 0.93801 0.57052
 Mn250 Mn 0.50001 1.00001 0.55103
 C251 C 0.41901 0.92268 0.56129
 C252 C 0.41902 1.07736 0.56129
 N253 N 0.56791 0.96238 0.46897
 N254 N 0.59401 0.93790 0.46317
 N255 N 0.54117 1.03760 0.44921
 N256 N 0.54831 1.06202 0.42949
 N257 N 0.56792 1.03764 0.46897
 N258 N 0.59402 1.06212 0.46317
 N259 N 0.54117 0.96242 0.44921
 N260 N 0.54830 0.93800 0.42949
 Mn261 Mn 0.56831 1.00001 0.50001
 C262 C 0.58100 0.92267 0.43872
 C263 C 0.58100 1.07735 0.43872
 N264 N 0.43210 1.03765 0.46897
 N265 N 0.40600 1.06213 0.46317
 N266 N 0.45884 0.96242 0.44921
 N267 N 0.45171 0.93801 0.42949
 N268 N 0.43210 0.96238 0.46897
 N269 N 0.40600 0.93790 0.46317
 N270 N 0.45885 1.03761 0.44921
 N271 N 0.45171 1.06203 0.42949
 Mn272 Mn 0.43170 1.00002 0.50001
 Mn273 Mn 0.50001 1.00001 0.44898
 Cl274 Cl 0.50001 1.00001 0.50001
 C275 C 0.41902 1.07736 0.43872
 C276 C 0.41901 0.92268 0.43872
 N277 N 1.06793 1.03750 0.53096
 N278 N 1.09461 1.06106 0.53756
 N279 N 1.04086 0.96257 0.55045
 N280 N 1.04819 0.93904 0.57070
 N281 N 1.06792 0.96252 0.53096
 N282 N 1.09460 0.93894 0.53756
 N283 N 1.04087 1.03745 0.55045
 N284 N 1.04820 1.06098 0.57071
 C285 C 1.08132 1.07585 0.56209
 C286 C 1.08130 0.92416 0.56209
 N287 N 0.93209 0.96253 0.53096
 N288 N 0.90541 0.93896 0.53756
 N289 N 0.95917 1.03746 0.55045
 N290 N 0.95184 1.06099 0.57071
 N291 N 0.93210 1.03751 0.53096
 N292 N 0.90543 1.06108 0.53756
 N293 N 0.95916 0.96257 0.55045
 N294 N 0.95182 0.93905 0.57071
 Mn295 Mn 1.00001 1.00001 0.55064
 C296 C 0.91871 0.92418 0.56209
 C297 C 0.91873 1.07586 0.56209
 N298 N 1.06792 0.96252 0.46905
 N299 N 1.09460 0.93894 0.46245
 N300 N 1.04086 1.03745 0.44956
 N301 N 1.04820 1.06098 0.42931
 N302 N 1.06793 1.03750 0.46905
 N303 N 1.09461 1.06107 0.46245
 N304 N 1.04085 0.96257 0.44956
 N305 N 1.04819 0.93904 0.42930
 Mn306 Mn 1.06840 1.00001 0.50000
 C307 C 1.08130 0.92416 0.43792
 C308 C 1.08131 1.07585 0.43792
 N309 N 0.93210 1.03751 0.46905
 N310 N 0.90542 1.06108 0.46245
 N311 N 0.95916 0.96258 0.44956
 N312 N 0.95182 0.93905 0.42931
 N313 N 0.93209 0.96253 0.46905
 N314 N 0.90541 0.93896 0.46245
 N315 N 0.95917 1.03746 0.44957
 N316 N 0.95183 1.06099 0.42931
 Mn317 Mn 0.93163 1.00002 0.50001
 Mn318 Mn 1.00001 1.00001 0.44937
 Cl319 Cl 1.00001 1.00001 0.50001
 C320 C 0.91872 1.07587 0.43792
 C321 C 0.91871 0.92418 0.43792
 N322 N 0.56793 0.53748 0.03094
 N323 N 0.59452 0.56116 0.03749
 N324 N 0.54082 0.46257 0.05040
 N325 N 0.54802 0.43894 0.07059
 N326 N 0.56791 0.46252 0.03094
 N327 N 0.59450 0.43884 0.03749
 N328 N 0.54083 0.53744 0.05040
 N329 N 0.54804 0.56108 0.07059
 C330 C 0.58110 0.57601 0.06196
 C331 C 0.58108 0.42400 0.06196
 N332 N 0.43210 0.46254 0.03094
 N333 N 0.40551 0.43887 0.03749
 N334 N 0.45921 0.53745 0.05040
 N335 N 0.45201 0.56109 0.07059
 N336 N 0.43211 0.53750 0.03094
 N337 N 0.40553 0.56118 0.03749
 N338 N 0.45920 0.46259 0.05040
 N339 N 0.45199 0.43895 0.07059
 Mn340 Mn 0.50001 0.50001 0.05060
 C341 C 0.41892 0.42402 0.06196
 C342 C 0.41895 0.57603 0.06196
 N343 N 0.56791 0.46252 -0.03093
 N344 N 0.59450 0.43884 -0.03748
 N345 N 0.54083 0.53744 -0.05039
 N346 N 0.54803 0.56108 -0.07058
 N347 N 0.56793 0.53748 -0.03093
 N348 N 0.59452 0.56116 -0.03748
 N349 N 0.54082 0.46257 -0.05039
 N350 N 0.54801 0.43894 -0.07058
 Mn351 Mn 0.56841 0.50000 0.00001
 C352 C 0.58108 0.42400 -0.06195
 C353 C 0.58110 0.57601 -0.06195
 N354 N 0.43211 0.53750 -0.03093
 N355 N 0.40553 0.56118 -0.03748
 N356 N 0.45919 0.46259 -0.05038
 N357 N 0.45199 0.43895 -0.07058
 N358 N 0.43210 0.46254 -0.03093
 N359 N 0.40551 0.43887 -0.03748
 N360 N 0.45921 0.53745 -0.05038
 N361 N 0.45201 0.56109 -0.07058
 Mn362 Mn 0.43162 0.50002 0.00001
 Mn363 Mn 0.50001 0.50001 -0.05059
 Cl364 Cl 0.50001 0.50001 0.00001
 C365 C 0.41894 0.57603 -0.06195
 C366 C 0.41892 0.42402 -0.06195
 C367 C 0.31115 1.17845 0.15196
 N368 N 0.34307 1.19216 0.13966
 N369 N 0.36298 1.17304 0.12072
 C370 C 0.35167 1.13954 0.11354
 N371 N 0.31968 1.12588 0.12576
 N372 N 0.29978 1.14500 0.14470
 C373 C 0.29213 1.19756 0.17459
 C374 C 0.27806 1.21296 0.19473
 C375 C 0.37458 1.11785 0.09473
 C376 C 0.39390 1.09881 0.07967
 C377 C 0.80877 0.67770 0.65043
 N378 N 0.79801 0.64409 0.64314
 N379 N 0.81854 0.62518 0.62445
 C380 C 0.85056 0.63921 0.61257
 N381 N 0.86125 0.67287 0.61978
 N382 N 0.84071 0.69179 0.63846
 C383 C 0.78926 0.69650 0.67293
 C384 C 0.77492 0.71169 0.69303
 C385 C 0.87409 0.61777 0.59410
 C386 C 0.89380 0.59885 0.57927
 C387 C 0.68887 0.82158 0.15195
 N388 N 0.70024 0.85503 0.14470
 N389 N 0.68033 0.87415 0.12576
 C390 C 0.64834 0.86050 0.11354
 N391 N 0.63704 0.82699 0.12072
 N392 N 0.65696 0.80787 0.13966
 C393 C 0.70789 0.80247 0.17459
 C394 C 0.72196 0.78708 0.19473
 C395 C 0.62544 0.88218 0.09473
 C396 C 0.60611 0.90122 0.07967
 C397 C 1.19125 0.32234 0.65043
 N398 N 1.20200 0.35594 0.64314
 N399 N 1.18147 0.37485 0.62446
 C400 C 1.14946 0.36082 0.61257
 N401 N 1.13878 0.32716 0.61977
 N402 N 1.15932 0.30824 0.63846
 C403 C 1.21076 0.30353 0.67292
 C404 C 1.22510 0.28834 0.69303
 C405 C 1.12592 0.38226 0.59410
 C406 C 1.10621 0.40118 0.57927
 C407 C 0.68888 1.17844 -0.15194
 N408 N 0.65697 1.19215 -0.13964
 N409 N 0.63705 1.17303 -0.12070
 C410 C 0.64835 1.13953 -0.11353
 N411 N 0.68033 1.12587 -0.12575
 N412 N 0.70024 1.14499 -0.14469
 C413 C 0.70789 1.19755 -0.17457
 C414 C 0.72196 1.21294 -0.19472
 C415 C 0.62544 1.11784 -0.09472
 C416 C 0.60612 1.09880 -0.07966
 C417 C 1.19126 0.67768 0.34958
 N418 N 1.15933 0.69178 0.36156
 N419 N 1.13879 0.67287 0.38024
 C420 C 1.14946 0.63920 0.38744
 N421 N 1.18147 0.62516 0.37555
 N422 N 1.20200 0.64407 0.35686
 C423 C 1.21077 0.69649 0.32709
 C424 C 1.22510 0.71168 0.30698
 C425 C 1.12593 0.61776 0.40591
 C426 C 1.10622 0.59884 0.42074
 C427 C 0.31114 0.82158 -0.15194
 N428 N 0.29978 0.85504 -0.14469
 N429 N 0.31968 0.87416 -0.12575
 C430 C 0.35167 0.86050 -0.11353
 N431 N 0.36296 0.82699 -0.12070
 N432 N 0.34305 0.80787 -0.13964
 C433 C 0.29212 0.80248 -0.17458
 C434 C 0.27806 0.78708 -0.19472
 C435 C 0.37457 0.88219 -0.09472
 C436 C 0.39390 0.90123 -0.07966
 C437 C 0.80876 0.32234 0.34958
 N438 N 0.84069 0.30825 0.36156
 N439 N 0.86123 0.32716 0.38024
 C440 C 0.85055 0.36082 0.38744
 N441 N 0.81854 0.37486 0.37555
 N442 N 0.79801 0.35595 0.35687
 C443 C 0.78925 0.30354 0.32709
 C444 C 0.77492 0.28834 0.30698
 C445 C 0.87409 0.38227 0.40591
 C446 C 0.89380 0.40118 0.42074
 C447 C 1.17703 0.31476 0.15428
 N448 N 1.19671 0.33977 0.13925
 N449 N 1.17879 0.36098 0.12061
 C450 C 1.14057 0.35803 0.11657
 N451 N 1.12092 0.33297 0.13155
 N452 N 1.13883 0.31177 0.15019
 C453 C 1.19573 0.29422 0.17624
 C454 C 1.21128 0.27896 0.19583
 C455 C 1.12094 0.38133 0.09693
 C456 C 1.10382 0.40035 0.08041
 C457 C 0.67430 0.80957 0.65050
 N458 N 0.63600 0.80692 0.64679
 N459 N 0.61822 0.82720 0.62744
 C460 C 0.63815 0.85082 0.61121
 N461 N 0.67648 0.85336 0.61484
 N462 N 0.69426 0.83308 0.63419
 C463 C 0.69281 0.79070 0.67347
 C464 C 0.70821 0.77672 0.69372
 C465 C 0.61847 0.87504 0.59235
 C466 C 0.60159 0.89631 0.57758
 C467 C 1.17704 0.68526 -0.15427
 N468 N 1.13884 0.68826 -0.15017
 N469 N 1.12092 0.66706 -0.13154
 C470 C 1.14057 0.64200 -0.11656
 N471 N 1.17879 0.63904 -0.12060
 N472 N 1.19671 0.66025 -0.13924
 C473 C 1.19574 0.70580 -0.17623
 C474 C 1.21128 0.72107 -0.19582
 C475 C 1.12095 0.61869 -0.09692
 C476 C 1.10382 0.59967 -0.08040
 C477 C 0.67431 1.19045 0.34952
 N478 N 0.63601 1.19310 0.35323
 N479 N 0.61823 1.17282 0.37258
 C480 C 0.63816 1.14920 0.38881
 N481 N 0.67648 1.14666 0.38517
 N482 N 0.69427 1.16694 0.36583
 C483 C 0.69282 1.20933 0.32655
 C484 C 0.70821 1.22331 0.30629
 C485 C 0.61848 1.12498 0.40766
 C486 C 0.60159 1.10371 0.42243
 C487 C 0.82299 0.68527 0.15428
 N488 N 0.86119 0.68826 0.15019
 N489 N 0.87910 0.66706 0.13156
 C490 C 0.85945 0.64200 0.11657
 N491 N 0.82123 0.63905 0.12061
 N492 N 0.80331 0.66026 0.13924
 C493 C 0.80429 0.70581 0.17624
 C494 C 0.78874 0.72107 0.19583
 C495 C 0.87907 0.61870 0.09693
 C496 C 0.89620 0.59968 0.08042
 C497 C 0.32572 1.19046 0.65049
 N498 N 0.30576 1.16695 0.63418
 N499 N 0.32354 1.14667 0.61483
 C500 C 0.36187 1.14921 0.61121
 N501 N 0.38180 1.17283 0.62744
 N502 N 0.36402 1.19311 0.64679
 C503 C 0.30721 1.20934 0.67347
 C504 C 0.29181 1.22331 0.69372
 C505 C 0.38155 1.12499 0.59235
 C506 C 0.39843 1.10372 0.57758
 C507 C 0.82298 0.31476 -0.15426
 N508 N 0.86118 0.31176 -0.15017
 N509 N 0.87909 0.33296 -0.13153
 C510 C 0.85944 0.35803 -0.11656
 N511 N 0.82122 0.36099 -0.12060
 N512 N 0.80331 0.33978 -0.13924
 C513 C 0.80428 0.29422 -0.17623
 C514 C 0.78874 0.27896 -0.19581
 C515 C 0.87907 0.38134 -0.09692
 C516 C 0.89619 0.40035 -0.08040
 C517 C 0.32571 0.80957 0.34952
 N518 N 0.30575 0.83309 0.36583
 N519 N 0.32353 0.85337 0.38518
 C520 C 0.36186 0.85082 0.38881
 N521 N 0.38179 0.82720 0.37258
 N522 N 0.36401 0.80692 0.35323
 C523 C 0.30720 0.79070 0.32655
 C524 C 0.29181 0.77672 0.30629
 C525 C 0.38154 0.87504 0.40766
 C526 C 0.39842 0.89631 0.42244
 C527 C 1.17045 1.17262 0.33658
 N528 N 1.13404 1.18025 0.34424
 N529 N 1.11786 1.16334 0.36624
 C530 C 1.13776 1.13864 0.38137
 N531 N 1.17422 1.13111 0.37375
 N532 N 1.19040 1.14801 0.35176
 C533 C 1.18803 1.19085 0.31316
 C534 C 1.20398 1.20660 0.29419
 C535 C 1.11924 1.11818 0.40317
 C536 C 1.10259 1.09962 0.42006
 C537 C 0.66823 0.67172 -0.16460
 N538 N 0.63242 0.68020 -0.15598
 N539 N 0.61684 0.66365 -0.13357
 C540 C 0.63680 0.63849 -0.11898
 N541 N 0.67266 0.63012 -0.12755
 N542 N 0.68824 0.64667 -0.14995
 C543 C 0.68525 0.68968 -0.18836
 C544 C 0.70089 0.70528 -0.20753
 C545 C 0.61869 0.61826 -0.09688
 C546 C 0.60227 0.59978 -0.07983
 C547 C 0.82959 1.17263 0.66344
 N548 N 0.86600 1.18026 0.65577
 N549 N 0.88218 1.16336 0.63377
 C550 C 0.86228 1.13865 0.61864
 N551 N 0.82583 1.13111 0.62626
 N552 N 0.80964 1.14801 0.64826
 C553 C 0.81200 1.19085 0.68686
 C554 C 0.79605 1.20661 0.70583
 C555 C 0.88081 1.11819 0.59685
 C556 C 0.89745 1.09963 0.57995
 C557 C 0.33181 0.67174 0.16461
 N558 N 0.31179 0.64672 0.14993
 N559 N 0.32738 0.63018 0.12754
 C560 C 0.36326 0.63852 0.11899
 N561 N 0.38323 0.66364 0.13362
 N562 N 0.36764 0.68019 0.15602
 C563 C 0.31478 0.68969 0.18837
 C564 C 0.29914 0.70529 0.20755
 C565 C 0.38136 0.61829 0.09689
 C566 C 0.39778 0.59980 0.07984
 C567 C 1.17044 0.82740 0.66343
 N568 N 1.19039 0.85200 0.64825
 N569 N 1.17421 0.86890 0.62625
 C570 C 1.13775 0.86137 0.61864
 N571 N 1.11784 0.83667 0.63377
 N572 N 1.13402 0.81977 0.65577
 C573 C 1.18802 0.80917 0.68686
 C574 C 1.20397 0.79342 0.70583
 C575 C 1.11922 0.88183 0.59684
 C576 C 1.10258 0.90040 0.57994
 C577 C 0.66821 0.32828 0.16461
 N578 N 0.68824 0.35329 0.14993
 N579 N 0.67265 0.36984 0.12753
 C580 C 0.63677 0.36151 0.11899
 N581 N 0.61679 0.33640 0.13362
 N582 N 0.63238 0.31984 0.15602
 C583 C 0.68524 0.31033 0.18837
 C584 C 0.70088 0.29473 0.20755
 C585 C 0.61866 0.38174 0.09689
 C586 C 0.60224 0.40022 0.07984
 C587 C 0.82957 0.82742 0.33658
 N588 N 0.80963 0.85206 0.35173
 N589 N 0.82581 0.86896 0.37373
 C590 C 0.86225 0.86140 0.38137
 N591 N 0.88214 0.83666 0.36627
 N592 N 0.86596 0.81975 0.34427
 C593 C 0.81199 0.80918 0.31316
 C594 C 0.79604 0.79343 0.29418
 C595 C 0.88078 0.88185 0.40317
 C596 C 0.89743 0.90042 0.42006
 C597 C 0.33179 0.32831 -0.16460
 N598 N 0.36759 0.31981 -0.15597
 N599 N 0.38317 0.33637 -0.13356
 C600 C 0.36322 0.36154 -0.11898
 N601 N 0.32737 0.36993 -0.12756
 N602 N 0.31179 0.35338 -0.14996
 C603 C 0.31477 0.31035 -0.18836
 C604 C 0.29913 0.29475 -0.20753
 C605 C 0.38133 0.38177 -0.09688
 C606 C 0.39775 0.40025 -0.07983
 C607 C 1.17703 0.31476 -0.15427
 N608 N 1.19670 0.33977 -0.13923
 N609 N 1.17879 0.36098 -0.12059
 C610 C 1.14056 0.35802 -0.11656
 N611 N 1.12091 0.33297 -0.13155
 N612 N 1.13883 0.31177 -0.15018
 C613 C 1.19573 0.29422 -0.17623
 C614 C 1.21128 0.27896 -0.19582
 C615 C 1.12094 0.38133 -0.09692
 C616 C 1.10382 0.40035 -0.08040
 C617 C 0.67430 0.80957 0.34952
 N618 N 0.69426 0.83308 0.36583
 N619 N 0.67648 0.85336 0.38518
 C620 C 0.63815 0.85082 0.38880
 N621 N 0.61821 0.82720 0.37257
 N622 N 0.63600 0.80692 0.35322
 C623 C 0.69281 0.79069 0.32654
 C624 C 0.70821 0.77672 0.30629
 C625 C 0.61847 0.87504 0.40766
 C626 C 0.60158 0.89631 0.42243
 C627 C 0.82299 0.68527 -0.15427
 N628 N 0.86119 0.68826 -0.15018
 N629 N 0.87910 0.66706 -0.13154
 C630 C 0.85945 0.64200 -0.11656
 N631 N 0.82123 0.63905 -0.12059
 N632 N 0.80331 0.66026 -0.13923
 C633 C 0.80429 0.70581 -0.17623
 C634 C 0.78874 0.72107 -0.19581
 C635 C 0.87907 0.61870 -0.09692
 C636 C 0.89620 0.59968 -0.08040
 C637 C 0.32572 1.19046 0.34952
 N638 N 0.30576 1.16695 0.36583
 N639 N 0.32354 1.14667 0.38518
 C640 C 0.36187 1.14921 0.38881
 N641 N 0.38180 1.17283 0.37258
 N642 N 0.36402 1.19311 0.35323
 C643 C 0.30721 1.20934 0.32655
 C644 C 0.29181 1.22332 0.30629
 C645 C 0.38155 1.12499 0.40766
 C646 C 0.39843 1.10372 0.42243
 C647 C 1.17704 0.68526 0.15428
 N648 N 1.13884 0.68826 0.15018
 N649 N 1.12093 0.66706 0.13155
 C650 C 1.14058 0.64200 0.11657
 N651 N 1.17880 0.63903 0.12061
 N652 N 1.19671 0.66024 0.13925
 C653 C 1.19574 0.70580 0.17624
 C654 C 1.21129 0.72107 0.19583
 C655 C 1.12095 0.61869 0.09693
 C656 C 1.10383 0.59967 0.08041
 C657 C 0.67431 1.19045 0.65049
 N658 N 0.69427 1.16693 0.63419
 N659 N 0.67649 1.14665 0.61484
 C660 C 0.63816 1.14920 0.61121
 N661 N 0.61823 1.17282 0.62743
 N662 N 0.63601 1.19310 0.64678
 C663 C 0.69282 1.20933 0.67347
 C664 C 0.70821 1.22330 0.69372
 C665 C 0.61848 1.12498 0.59235
 C666 C 0.60160 1.10371 0.57758
 C667 C 0.82298 0.31476 0.15428
 N668 N 0.86118 0.31177 0.15018
 N669 N 0.87909 0.33297 0.13155
 C670 C 0.85945 0.35803 0.11657
 N671 N 0.82122 0.36099 0.12061
 N672 N 0.80331 0.33978 0.13925
 C673 C 0.80428 0.29422 0.17624
 C674 C 0.78874 0.27896 0.19583
 C675 C 0.87907 0.38134 0.09693
 C676 C 0.89619 0.40035 0.08042
 C677 C 0.32571 0.80957 0.65049
 N678 N 0.30575 0.83308 0.63418
 N679 N 0.32353 0.85337 0.61483
 C680 C 0.36186 0.85082 0.61121
 N681 N 0.38179 0.82720 0.62743
 N682 N 0.36401 0.80692 0.64678
 C683 C 0.30720 0.79070 0.67347
 C684 C 0.29181 0.77672 0.69372
 C685 C 0.38154 0.87504 0.59235
 C686 C 0.39842 0.89631 0.57758
 C687 C 0.31115 1.17845 -0.15194
 N688 N 0.34306 1.19216 -0.13965
 N689 N 0.36298 1.17304 -0.12070
 C690 C 0.35167 1.13953 -0.11353
 N691 N 0.31968 1.12588 -0.12574
 N692 N 0.29978 1.14500 -0.14468
 C693 C 0.29213 1.19756 -0.17457
 C694 C 0.27806 1.21295 -0.19472
 C695 C 0.37458 1.11785 -0.09472
 C696 C 0.39390 1.09881 -0.07966
 C697 C 0.80877 0.67770 0.34958
 N698 N 0.79801 0.64409 0.35687
 N699 N 0.81854 0.62518 0.37556
 C700 C 0.85056 0.63921 0.38744
 N701 N 0.86125 0.67287 0.38024
 N702 N 0.84070 0.69178 0.36155
 C703 C 0.78925 0.69650 0.32709
 C704 C 0.77492 0.71169 0.30698
 C705 C 0.87409 0.61777 0.40591
 C706 C 0.89380 0.59885 0.42074
 C707 C 0.68888 1.17844 0.15195
 N708 N 0.65697 1.19215 0.13965
 N709 N 0.63705 1.17303 0.12071
 C710 C 0.64835 1.13953 0.11354
 N711 N 0.68033 1.12587 0.12576
 N712 N 0.70024 1.14499 0.14470
 C713 C 0.70789 1.19755 0.17459
 C714 C 0.72196 1.21295 0.19473
 C715 C 0.62544 1.11784 0.09473
 C716 C 0.60612 1.09880 0.07967
 C717 C 1.19126 0.67769 0.65043
 N718 N 1.20200 0.64407 0.64315
 N719 N 1.18147 0.62516 0.62446
 C720 C 1.14946 0.63920 0.61257
 N721 N 1.13879 0.67287 0.61977
 N722 N 1.15933 0.69178 0.63845
 C723 C 1.21077 0.69649 0.67293
 C724 C 1.22510 0.71168 0.69303
 C725 C 1.12593 0.61776 0.59410
 C726 C 1.10622 0.59884 0.57927
 C727 C 0.68887 0.82158 -0.15194
 N728 N 0.70024 0.85503 -0.14469
 N729 N 0.68033 0.87415 -0.12574
 C730 C 0.64834 0.86050 -0.11353
 N731 N 0.63704 0.82699 -0.12070
 N732 N 0.65695 0.80787 -0.13964
 C733 C 0.70789 0.80247 -0.17457
 C734 C 0.72196 0.78708 -0.19472
 C735 C 0.62543 0.88218 -0.09472
 C736 C 0.60611 0.90122 -0.07966
 C737 C 1.19125 0.32234 0.34958
 N738 N 1.20200 0.35594 0.35687
 N739 N 1.18147 0.37485 0.37555
 C740 C 1.14946 0.36082 0.38744
 N741 N 1.13877 0.32716 0.38024
 N742 N 1.15932 0.30824 0.36156
 C743 C 1.21076 0.30354 0.32709
 C744 C 1.22510 0.28834 0.30698
 C745 C 1.12592 0.38226 0.40591
 C746 C 1.10621 0.40118 0.42074
 C747 C 0.31114 0.82158 0.15196
 N748 N 0.29978 0.85504 0.14471
 N749 N 0.31968 0.87416 0.12576
 C750 C 0.35167 0.86050 0.11354
 N751 N 0.36297 0.82699 0.12071
 N752 N 0.34305 0.80787 0.13965
 C753 C 0.29213 0.80248 0.17459
 C754 C 0.27806 0.78708 0.19474
 C755 C 0.37457 0.88219 0.09473
 C756 C 0.39390 0.90123 0.07967
 C757 C 0.80876 0.32234 0.65043
 N758 N 0.84070 0.30825 0.63846
 N759 N 0.86124 0.32716 0.61977
 C760 C 0.85055 0.36082 0.61257
 N761 N 0.81854 0.37486 0.62446
 N762 N 0.79801 0.35594 0.64314
 C763 C 0.78925 0.30353 0.67293
 C764 C 0.77492 0.28834 0.69303
 C765 C 0.87409 0.38227 0.59410
 C766 C 0.89380 0.40118 0.57927
 C767 C 1.17045 1.17262 0.66343
 N768 N 1.19040 1.14800 0.64826
 N769 N 1.17422 1.13110 0.62626
 C770 C 1.13777 1.13864 0.61864
 N771 N 1.11786 1.16335 0.63376
 N772 N 1.13404 1.18025 0.65576
 C773 C 1.18803 1.19085 0.68686
 C774 C 1.20398 1.20660 0.70583
 C775 C 1.11924 1.11818 0.59684
 C776 C 1.10260 1.09961 0.57995
 C777 C 0.66823 0.67172 0.16461
 N778 N 0.63242 0.68021 0.15599
 N779 N 0.61684 0.66365 0.13358
 C780 C 0.63680 0.63849 0.11899
 N781 N 0.67266 0.63012 0.12756
 N782 N 0.68824 0.64667 0.14996
 C783 C 0.68525 0.68968 0.18837
 C784 C 0.70089 0.70528 0.20755
 C785 C 0.61869 0.61826 0.09689
 C786 C 0.60227 0.59978 0.07984
 C787 C 1.17043 0.82739 0.33658
 N788 N 1.19040 0.85196 0.35179
 N789 N 1.17422 0.86886 0.37379
 C790 C 1.13774 0.86137 0.38137
 N791 N 1.11781 0.83671 0.36621
 N792 N 1.13400 0.81980 0.34421
 C793 C 1.18802 0.80917 0.31316
 C794 C 1.20397 0.79342 0.29418
 C795 C 1.11921 0.88183 0.40317
 C796 C 1.10257 0.90039 0.42006
 C797 C 0.66821 0.32828 -0.16460
 N798 N 0.68824 0.35329 -0.14991
 N799 N 0.67265 0.36984 -0.12752
 C800 C 0.63676 0.36151 -0.11898
 N801 N 0.61678 0.33640 -0.13361
 N802 N 0.63237 0.31985 -0.15601
 C803 C 0.68524 0.31033 -0.18836
 C804 C 0.70088 0.29473 -0.20754
 C805 C 0.61866 0.38174 -0.09688
 C806 C 0.60224 0.40022 -0.07983
 C807 C 0.82958 1.17263 0.33658
 N808 N 0.86598 1.18028 0.34426
 N809 N 0.88217 1.16338 0.36626
 C810 C 0.86227 1.13865 0.38137
 N811 N 0.82583 1.13110 0.37374
 N812 N 0.80964 1.14800 0.35175
 C813 C 0.81200 1.19085 0.31316
 C814 C 0.79605 1.20661 0.29418
 C815 C 0.88080 1.11820 0.40317
 C816 C 0.89745 1.09963 0.42007
 C817 C 0.33181 0.67174 -0.16460
 N818 N 0.31179 0.64672 -0.14992
 N819 N 0.32738 0.63017 -0.12753
 C820 C 0.36325 0.63851 -0.11898
 N821 N 0.38323 0.66364 -0.13360
 N822 N 0.36764 0.68019 -0.15600
 C823 C 0.31478 0.68969 -0.18836
 C824 C 0.29914 0.70529 -0.20753
 C825 C 0.38136 0.61829 -0.09688
 C826 C 0.39778 0.59980 -0.07983
 C827 C 0.82957 0.82742 0.66343
 N828 N 0.86597 0.81975 0.65575
 N829 N 0.88215 0.83666 0.63375
 C830 C 0.86225 0.86140 0.61864
 N831 N 0.82582 0.86896 0.62628
 N832 N 0.80963 0.85206 0.64828
 C833 C 0.81199 0.80918 0.68686
 C834 C 0.79604 0.79343 0.70583
 C835 C 0.88078 0.88185 0.59685
 C836 C 0.89743 0.90041 0.57995
 C837 C 0.33179 0.32831 0.16461
 N838 N 0.36759 0.31982 0.15598
 N839 N 0.38318 0.33637 0.13358
 C840 C 0.36322 0.36154 0.11899
 N841 N 0.32737 0.36992 0.12757
 N842 N 0.31179 0.35337 0.14997
 C843 C 0.31477 0.31035 0.18837
 C844 C 0.29913 0.29475 0.20755
 C845 C 0.38133 0.38177 0.09689
 C846 C 0.39775 0.40025 0.07984
   
