data_POSCAR
  _audit_creation_date              2014-09-24
  _audit_creation_method            'ToBaCCo'
  _symmetry_space_group_name_H-M    'P1'
  _symmetry_Int_Tables_number       1
  _symmetry_cell_setting            triclinic
  loop_
  _symmetry_equiv_pos_as_xyz
 x,y,z
_cell_length_a 60.9145
_cell_length_b 60.1982
_cell_length_c 60.3623
_cell_angle_alpha 89.379900
_cell_angle_beta 88.603100
_cell_angle_gamma 90.381300
loop_
  _atom_site_label
  _atom_site_type_symbol
  _atom_site_fract_x
  _atom_site_fract_y
  _atom_site_fract_z
N1 N 0.29943 0.27134 0.24081
 N2 N 0.28889 0.28879 0.23340
 C3 C 0.29882 0.29603 0.21444
 C4 C 0.31648 0.28239 0.20985
 C5 C 0.31643 0.26695 0.22692
 H6 H 0.29332 0.30980 0.20440
 H7 H 0.32754 0.25314 0.22871
 Cu8 Cu 0.26252 0.29969 0.24846
 Cu9 Cu 0.28945 0.25462 0.26688
 Cu10 Cu 0.24132 0.27168 0.29291
 N11 N 0.23504 0.30837 0.26296
 N12 N 0.22681 0.29737 0.28021
 C13 C 0.20746 0.30641 0.28632
 C14 C 0.20337 0.32398 0.27212
 C15 C 0.22118 0.32479 0.25751
 H16 H 0.19696 0.30045 0.29984
 H17 H 0.22359 0.33621 0.24371
 N18 N 0.25837 0.24608 0.30334
 N19 N 0.27681 0.23971 0.29344
 C20 C 0.28412 0.22134 0.30372
 C21 C 0.26959 0.21587 0.32085
 C22 C 0.25348 0.23190 0.32021
 H23 H 0.29861 0.21218 0.29879
 H24 H 0.23901 0.23276 0.33090
 H25 H 0.25658 0.26229 0.26348
 H26 H 0.27276 0.28019 0.28234
 N27 N 0.69169 -0.26322 0.23830
 N28 N 0.70190 -0.28084 0.23067
 C29 C 0.69206 -0.28759 0.21213
 C30 C 0.67483 -0.27341 0.20798
 C31 C 0.67498 -0.25820 0.22497
 H32 H 0.69735 -0.30142 0.20208
 H33 H 0.66417 -0.24416 0.22710
 Cu34 Cu 0.72777 -0.29273 0.24485
 Cu35 Cu 0.70178 -0.24710 0.26390
 Cu36 Cu 0.74900 -0.26598 0.28832
 N37 N 0.75481 -0.30245 0.25848
 N38 N 0.76290 -0.29192 0.27545
 C39 C 0.78172 -0.30165 0.28133
 C40 C 0.78573 -0.31917 0.26725
 C41 C 0.76832 -0.31928 0.25293
 H42 H 0.79192 -0.29619 0.29468
 H43 H 0.76586 -0.33057 0.23938
 N44 N 0.73267 -0.24002 0.29910
 N45 N 0.71454 -0.23291 0.28990
 C46 C 0.70768 -0.21451 0.30044
 C47 C 0.72224 -0.20983 0.31697
 C48 C 0.73784 -0.22631 0.31572
 H49 H 0.69348 -0.20486 0.29611
 H50 H 0.75213 -0.22787 0.32588
 H51 H 0.73440 -0.25569 0.25932
 H52 H 0.71744 -0.27342 0.27888
 N53 N 0.70571 0.25838 0.76207
 N54 N 0.71640 0.27585 0.76917
 C55 C 0.70628 0.28330 0.78772
 C56 C 0.68834 0.26975 0.79242
 C57 C 0.68843 0.25411 0.77583
 H58 H 0.71159 0.29737 0.79724
 H59 H 0.67691 0.24053 0.77406
 Cu60 Cu 0.74274 0.28670 0.75366
 Cu61 Cu 0.71529 0.24219 0.73580
 Cu62 Cu 0.76252 0.26144 0.70816
 N63 N 0.76907 0.29756 0.73812
 N64 N 0.77686 0.28752 0.72040
 C65 C 0.79555 0.29775 0.71343
 C66 C 0.79965 0.31513 0.72760
 C67 C 0.78250 0.31460 0.74302
 H68 H 0.80560 0.29272 0.69936
 H69 H 0.78025 0.32553 0.75697
 N70 N 0.74560 0.23536 0.69846
 N71 N 0.72761 0.22812 0.70895
 C72 C 0.72016 0.20991 0.69868
 C73 C 0.73413 0.20547 0.68097
 C74 C 0.75007 0.22188 0.68126
 H75 H 0.70583 0.20032 0.70386
 H76 H 0.76403 0.22361 0.66995
 H77 H 0.74826 0.25017 0.73754
 H78 H 0.73123 0.26856 0.71991
 N79 N 0.30565 -0.26313 0.76317
 N80 N 0.29435 -0.28040 0.77076
 C81 C 0.30366 -0.28808 0.78933
 C82 C 0.32170 -0.27491 0.79355
 C83 C 0.32252 -0.25924 0.77664
 H84 H 0.29763 -0.30197 0.79929
 H85 H 0.33430 -0.24581 0.77453
 Cu86 Cu 0.26808 -0.29055 0.75612
 Cu87 Cu 0.29720 -0.24649 0.73690
 Cu88 Cu 0.25043 -0.26452 0.71051
 N89 N 0.24185 -0.30046 0.74126
 N90 N 0.23501 -0.29017 0.72340
 C91 C 0.21634 -0.29989 0.71680
 C92 C 0.21121 -0.31716 0.73134
 C93 C 0.22776 -0.31711 0.74663
 H94 H 0.20704 -0.29461 0.70267
 H95 H 0.22919 -0.32817 0.76075
 N96 N 0.26821 -0.23887 0.70000
 N97 N 0.28595 -0.23191 0.71007
 C98 C 0.29388 -0.21365 0.69941
 C99 C 0.28048 -0.20898 0.68185
 C100 C 0.26443 -0.22527 0.68267
 H101 H 0.30809 -0.20417 0.70425
 H102 H 0.25075 -0.22675 0.67168
 H103 H 0.26406 -0.25371 0.73958
 H104 H 0.28119 -0.27244 0.72193
 N105 N 0.70001 -0.26932 0.75863
 N106 N 0.71136 -0.28505 0.76827
 C107 C 0.70138 -0.29076 0.78764
 C108 C 0.68279 -0.27792 0.79024
 C109 C 0.68233 -0.26455 0.77149
 H110 H 0.70739 -0.30306 0.79915
 H111 H 0.67035 -0.25196 0.76770
 Cu112 Cu 0.73825 -0.29646 0.75480
 Cu113 Cu 0.70980 -0.25594 0.73051
 Cu114 Cu 0.76610 -0.26021 0.72205
 N115 N 0.76778 -0.30273 0.74395
 N116 N 0.77866 -0.28845 0.73115
 C117 C 0.79883 -0.29646 0.72661
 C118 C 0.80062 -0.31689 0.73713
 C119 C 0.78060 -0.32037 0.74801
 H120 H 0.81128 -0.28796 0.71656
 H121 H 0.77582 -0.33455 0.75823
 N122 N 0.74817 -0.23758 0.70725
 N123 N 0.72658 -0.23672 0.70961
 C124 C 0.71899 -0.22025 0.69670
 C125 C 0.73669 -0.21021 0.68579
 C126 C 0.75492 -0.22157 0.69284
 H127 H 0.70192 -0.21560 0.69569
 H128 H 0.77181 -0.21856 0.68765
 H129 H 0.73650 -0.27562 0.71984
 H130 H 0.73950 -0.25722 0.74427
 N131 N 0.30498 0.26178 0.75939
 N132 N 0.29484 0.27965 0.76649
 C133 C 0.30431 0.28658 0.78514
 C134 C 0.32126 0.27231 0.78992
 C135 C 0.32128 0.25677 0.77324
 H136 H 0.29909 0.30071 0.79479
 H137 H 0.33207 0.24266 0.77157
 Cu138 Cu 0.26966 0.29176 0.75138
 Cu139 Cu 0.29565 0.24585 0.73336
 Cu140 Cu 0.24979 0.26564 0.70690
 N141 N 0.24343 0.30199 0.73673
 N142 N 0.23576 0.29176 0.71938
 C143 C 0.21718 0.30177 0.71311
 C144 C 0.21298 0.31914 0.72733
 C145 C 0.22995 0.31885 0.74211
 H146 H 0.20719 0.29654 0.69952
 H147 H 0.23200 0.32981 0.75599
 N148 N 0.26622 0.23945 0.69672
 N149 N 0.28374 0.23195 0.70678
 C150 C 0.29079 0.21350 0.69646
 C151 C 0.27701 0.20919 0.67917
 C152 C 0.26165 0.22594 0.67976
 H153 H 0.30461 0.20359 0.70141
 H154 H 0.24792 0.22782 0.66889
 H155 H 0.28101 0.27242 0.71769
 H156 H 0.26296 0.25492 0.73641
 N157 N 0.29736 -0.26594 0.24132
 N158 N 0.28635 -0.28333 0.23449
 C159 C 0.29622 -0.29108 0.21591
 C160 C 0.31431 -0.27779 0.21094
 C161 C 0.31457 -0.26204 0.22740
 H162 H 0.29050 -0.30502 0.20644
 H163 H 0.32618 -0.24850 0.22886
 Cu164 Cu 0.25967 -0.29318 0.25015
 Cu165 Cu 0.28807 -0.24896 0.26718
 Cu166 Cu 0.24042 -0.26656 0.29507
 N167 N 0.23291 -0.30299 0.26565
 N168 N 0.22543 -0.29245 0.28323
 C169 C 0.20633 -0.30189 0.29020
 C170 C 0.20163 -0.31921 0.27620
 C171 C 0.21881 -0.31948 0.26085
 H172 H 0.19637 -0.29630 0.30410
 H173 H 0.22058 -0.33057 0.24695
 N174 N 0.25797 -0.24075 0.30438
 N175 N 0.27602 -0.23401 0.29367
 C176 C 0.28370 -0.21558 0.30339
 C177 C 0.26985 -0.21051 0.32102
 C178 C 0.25375 -0.22678 0.32124
 H179 H 0.29806 -0.20623 0.29784
 H180 H 0.23975 -0.22800 0.33256
 H181 H 0.27145 -0.27452 0.28346
 H182 H 0.25489 -0.25613 0.26537
 N183 N 0.69188 0.26210 0.23563
 N184 N 0.70156 0.28078 0.22932
 C185 C 0.69217 0.28834 0.21075
 C186 C 0.67574 0.27363 0.20523
 C187 C 0.67596 0.25718 0.22135
 H188 H 0.69703 0.30328 0.20176
 H189 H 0.66548 0.24262 0.22244
 Cu190 Cu 0.72590 0.29340 0.24538
 Cu191 Cu 0.70091 0.24542 0.26156
 Cu192 Cu 0.74569 0.26554 0.28940
 N193 N 0.75213 0.30317 0.26035
 N194 N 0.75972 0.29234 0.27754
 C195 C 0.77837 0.30219 0.28396
 C196 C 0.78274 0.32008 0.26999
 C197 C 0.76577 0.32027 0.25521
 H198 H 0.78837 0.29643 0.29739
 H199 H 0.76387 0.33165 0.24142
 N200 N 0.72938 0.23864 0.29890
 N201 N 0.71239 0.23084 0.28819
 C202 C 0.70531 0.21192 0.29822
 C203 C 0.71850 0.20767 0.31604
 C204 C 0.73355 0.22491 0.31602
 H205 H 0.69178 0.20177 0.29284
 H206 H 0.74679 0.22702 0.32744
 H207 H 0.71449 0.27179 0.27824
 H208 H 0.73335 0.25608 0.25924
 C209 C 0.28291 -0.01977 0.54453
 C210 C 0.28320 0.00040 0.55581
 C211 C 0.28145 0.02076 0.54463
 C212 C 0.28002 0.02113 0.52123
 C213 C 0.27980 0.00083 0.50947
 C214 C 0.28147 -0.01968 0.52113
 C215 C 0.28268 -0.03944 0.50898
 C216 C 0.28133 -0.03922 0.48602
 C217 C 0.27881 -0.01921 0.47416
 C218 C 0.27851 0.00106 0.48595
 C219 C 0.27983 0.04124 0.50916
 C220 C 0.27861 0.04146 0.48620
 C221 C 0.27753 0.02159 0.47423
 C222 C 0.27659 0.02168 0.45080
 C223 C 0.27694 0.00154 0.43946
 C224 C 0.27765 -0.01885 0.45074
 H225 H 0.28524 -0.05533 0.51696
 H226 H 0.28291 -0.05495 0.47770
 H227 H 0.28120 0.05710 0.51723
 H228 H 0.27906 0.05749 0.47795
 H229 H 0.28412 0.00021 0.57374
 H230 H 0.27607 0.00172 0.42152
 C231 C 0.71806 0.01816 0.45305
 C232 C 0.71765 -0.00202 0.44181
 C233 C 0.72016 -0.02234 0.45290
 C234 C 0.72252 -0.02267 0.47621
 C235 C 0.72249 -0.00235 0.48796
 C236 C 0.72007 0.01811 0.47638
 C237 C 0.71891 0.03787 0.48855
 C238 C 0.72114 0.03772 0.51142
 C239 C 0.72444 0.01778 0.52314
 C240 C 0.72455 -0.00251 0.51139
 C241 C 0.72425 -0.04273 0.48819
 C242 C 0.72645 -0.04286 0.51108
 C243 C 0.72647 -0.02297 0.52306
 C244 C 0.72850 -0.02296 0.54637
 C245 C 0.72884 -0.00280 0.55764
 C246 C 0.72686 0.01749 0.54641
 H247 H 0.71581 0.05370 0.48066
 H248 H 0.71983 0.05345 0.51981
 H249 H 0.72367 -0.05864 0.48012
 H250 H 0.72811 -0.05881 0.51927
 H251 H 0.71619 -0.00188 0.42393
 H252 H 0.73050 -0.00292 0.57550
 C253 C 0.54445 0.28308 0.01780
 C254 C 0.55608 0.28334 -0.00245
 C255 C 0.54534 0.28240 -0.02265
 C256 C 0.52208 0.28176 -0.02273
 C257 C 0.50999 0.28174 -0.00232
 C258 C 0.52120 0.28264 0.01800
 C259 C 0.50886 0.28413 0.03790
 C260 C 0.48605 0.28392 0.03798
 C261 C 0.47453 0.28208 0.01817
 C262 C 0.48661 0.28137 -0.00223
 C263 C 0.51056 0.28216 -0.04263
 C264 C 0.48773 0.28173 -0.04255
 C265 C 0.47538 0.28093 -0.02257
 C266 C 0.45211 0.28080 -0.02233
 C267 C 0.44050 0.28166 -0.00208
 C268 C 0.45127 0.28200 0.01811
 H269 H 0.51666 0.28609 0.05366
 H270 H 0.47762 0.28577 0.05380
 H271 H 0.51901 0.28338 -0.05855
 H272 H 0.47994 0.28262 -0.05842
 H273 H 0.57389 0.28353 -0.00248
 H274 H 0.42269 0.28148 -0.00200
 C275 C 0.45281 0.71726 -0.01888
 C276 C 0.44135 0.71590 0.00146
 C277 C 0.45215 0.71737 0.02159
 C278 C 0.47534 0.71963 0.02151
 C279 C 0.48727 0.72077 0.00102
 C280 C 0.47601 0.71929 -0.01923
 C281 C 0.48833 0.71882 -0.03921
 C282 C 0.51109 0.72067 -0.03944
 C283 C 0.52258 0.72311 -0.01969
 C284 C 0.51059 0.72279 0.00079
 C285 C 0.48701 0.71974 0.04132
 C286 C 0.50976 0.72174 0.04110
 C287 C 0.52191 0.72364 0.02107
 C288 C 0.54514 0.72517 0.02070
 C289 C 0.55664 0.72546 0.00037
 C290 C 0.54581 0.72465 -0.01976
 H291 H 0.48063 0.71634 -0.05494
 H292 H 0.51952 0.71956 -0.05534
 H293 H 0.47880 0.71767 0.05728
 H294 H 0.51768 0.72118 0.05691
 H295 H 0.42358 0.71451 0.00161
 H296 H 0.57443 0.72659 0.00021
 C297 C -0.02816 0.54716 0.27143
 C298 C -0.00827 0.55872 0.27306
 C299 C 0.01187 0.54770 0.27301
 C300 C 0.01224 0.52420 0.27194
 C301 C -0.00778 0.51216 0.27039
 C302 C -0.02806 0.52365 0.27037
 C303 C -0.04770 0.51125 0.27042
 C304 C -0.04747 0.48818 0.26971
 C305 C -0.02761 0.47644 0.26885
 C306 C -0.00754 0.48852 0.26954
 C307 C 0.03196 0.51235 0.27346
 C308 C 0.03220 0.48930 0.27254
 C309 C 0.01272 0.47701 0.27016
 C310 C 0.01281 0.45349 0.26956
 C311 C -0.00713 0.44187 0.26905
 C312 C -0.02725 0.45291 0.26848
 H313 H -0.06355 0.51913 0.27165
 H314 H -0.06318 0.47973 0.27042
 H315 H 0.04746 0.52067 0.27598
 H316 H 0.04787 0.48126 0.27439
 H317 H -0.00842 0.57672 0.27375
 H318 H -0.00697 0.42386 0.26868
 C319 C 0.02513 0.45257 0.73101
 C320 C 0.00513 0.44111 0.73022
 C321 C -0.01496 0.45223 0.73069
 C322 C -0.01518 0.47575 0.73154
 C323 C 0.00497 0.48770 0.73222
 C324 C 0.02520 0.47609 0.73173
 C325 C 0.04492 0.48836 0.73082
 C326 C 0.04487 0.51144 0.73106
 C327 C 0.02510 0.52331 0.73232
 C328 C 0.00491 0.51136 0.73260
 C329 C -0.03489 0.48769 0.73058
 C330 C -0.03495 0.51078 0.73104
 C331 C -0.01531 0.52300 0.73247
 C332 C -0.01518 0.54656 0.73261
 C333 C 0.00490 0.55800 0.73217
 C334 C 0.02493 0.54683 0.73220
 H335 H 0.06069 0.48035 0.72925
 H336 H 0.06060 0.51979 0.72968
 H337 H -0.05053 0.47940 0.72885
 H338 H -0.05064 0.51885 0.72958
 H339 H 0.00517 0.42310 0.72966
 H340 H 0.00496 0.57602 0.73229
 C341 C 0.35787 0.28341 0.15352
 N342 N 0.34155 0.29854 0.15585
 N343 N 0.32849 0.29837 0.17388
 C344 C 0.33127 0.28307 0.19024
 N345 N 0.34764 0.26801 0.18795
 N346 N 0.36071 0.26818 0.16993
 C347 C 0.37199 0.28329 0.13344
 N348 N 0.38823 0.26809 0.13109
 N349 N 0.40087 0.26781 0.11276
 C350 C 0.39770 0.28270 0.09611
 N351 N 0.38148 0.29790 0.09847
 N352 N 0.36885 0.29819 0.11680
 C353 C 0.41160 0.28241 0.07588
 N354 N 0.40817 0.29712 0.05913
 N355 N 0.42084 0.29699 0.04083
 C356 C 0.43751 0.28225 0.03866
 N357 N 0.44072 0.26731 0.05527
 N358 N 0.42805 0.26744 0.07357
 C359 C 0.63500 0.72629 0.15403
 N360 N 0.63229 0.74177 0.17005
 N361 N 0.64508 0.74177 0.18765
 C362 C 0.66103 0.72628 0.18991
 N363 N 0.66361 0.71074 0.17394
 N364 N 0.65085 0.71076 0.15634
 C365 C 0.62130 0.72643 0.13434
 N366 N 0.62481 0.71137 0.11809
 N367 N 0.61262 0.71148 0.10008
 C368 C 0.59644 0.72664 0.09764
 N369 N 0.59289 0.74172 0.11389
 N370 N 0.60512 0.74163 0.13192
 C371 C 0.58307 0.72654 0.07772
 N372 N 0.56629 0.74104 0.07529
 N373 N 0.55412 0.74063 0.05723
 C374 C 0.55823 0.72563 0.04102
 N375 N 0.57521 0.71138 0.04333
 N376 N 0.58734 0.71177 0.06137
 C377 C 0.64444 0.27411 -0.15346
 N378 N 0.66127 0.28887 -0.15610
 N379 N 0.67520 0.28752 -0.17339
 C380 C 0.67281 0.27135 -0.18866
 N381 N 0.65597 0.25660 -0.18604
 N382 N 0.64203 0.25796 -0.16875
 C383 C 0.62922 0.27555 -0.13430
 N384 N 0.61243 0.26075 -0.13149
 N385 N 0.59873 0.26202 -0.11400
 C386 C 0.60132 0.27813 -0.09869
 N387 N 0.61810 0.29293 -0.10152
 N388 N 0.63179 0.29166 -0.11900
 C389 C 0.58642 0.27946 -0.07927
 N390 N 0.58950 0.29526 -0.06376
 N391 N 0.57622 0.29634 -0.04596
 C392 C 0.55924 0.28179 -0.04308
 N393 N 0.55627 0.26585 -0.05850
 N394 N 0.56957 0.26476 -0.07632
 C395 C 0.36257 0.72084 -0.15192
 N396 N 0.34586 0.70610 -0.15430
 N397 N 0.33294 0.70736 -0.17176
 C398 C 0.33626 0.72341 -0.18748
 N399 N 0.35303 0.73810 -0.18515
 N400 N 0.36594 0.73685 -0.16769
 C401 C 0.37649 0.71979 -0.13242
 N402 N 0.39289 0.73485 -0.12983
 N403 N 0.40523 0.73420 -0.11192
 C404 C 0.40163 0.71846 -0.09594
 N405 N 0.38529 0.70334 -0.09856
 N406 N 0.37293 0.70400 -0.11647
 C407 C 0.41505 0.71798 -0.07606
 N408 N 0.41142 0.70236 -0.05997
 N409 N 0.42353 0.70204 -0.04188
 C410 C 0.43981 0.71724 -0.03929
 N411 N 0.44322 0.73304 -0.05525
 N412 N 0.43112 0.73336 -0.07333
 C413 C 0.14730 0.36371 0.27143
 N414 N 0.16405 0.36735 0.25655
 N415 N 0.18197 0.35477 0.25683
 C416 C 0.18379 0.33811 0.27201
 N417 N 0.16707 0.33451 0.28691
 N418 N 0.14915 0.34707 0.28662
 C419 C 0.12738 0.37732 0.27102
 N420 N 0.11049 0.37314 0.28557
 N421 N 0.09231 0.38530 0.28516
 C422 C 0.09035 0.40210 0.27017
 N423 N 0.10725 0.40632 0.25562
 N424 N 0.12544 0.39414 0.25602
 C425 C 0.07025 0.41545 0.26983
 N426 N 0.06825 0.43257 0.25520
 N427 N 0.05004 0.44473 0.25510
 C428 C 0.03323 0.44030 0.26972
 N429 N 0.03512 0.42296 0.28411
 N430 N 0.05332 0.41082 0.28421
 C431 C 0.15720 0.64165 0.73084
 N432 N 0.17251 0.63929 0.74663
 N433 N 0.19008 0.65259 0.74673
 C434 C 0.19299 0.66874 0.73104
 N435 N 0.17769 0.67105 0.71519
 N436 N 0.16012 0.65776 0.71510
 C437 C 0.13768 0.62720 0.73090
 N438 N 0.12207 0.62999 0.71547
 N439 N 0.10425 0.61703 0.71566
 C440 C 0.10139 0.60081 0.73128
 N441 N 0.11703 0.59798 0.74669
 N442 N 0.13484 0.61095 0.74651
 C443 C 0.08167 0.58665 0.73152
 N444 N 0.07886 0.57018 0.74689
 N445 N 0.06091 0.55739 0.74708
 C446 C 0.04519 0.56053 0.73180
 N447 N 0.04788 0.57719 0.71663
 N448 N 0.06582 0.58996 0.71643
 C449 C -0.16056 0.63992 0.26777
 N450 N -0.16296 0.65633 0.28285
 N451 N -0.18041 0.66949 0.28266
 C452 C -0.19618 0.66677 0.26740
 N453 N -0.19382 0.65031 0.25231
 N454 N -0.17632 0.63712 0.25249
 C455 C -0.14110 0.62564 0.26810
 N456 N -0.13810 0.60934 0.25296
 N457 N -0.12028 0.59659 0.25337
 C458 C -0.10486 0.59969 0.26895
 N459 N -0.10791 0.61596 0.28408
 N460 N -0.12569 0.62869 0.28366
 C461 C -0.08512 0.58585 0.26953
 N462 N -0.06991 0.58923 0.28522
 N463 N -0.05192 0.57681 0.28586
 C464 C -0.04853 0.56042 0.27092
 N465 N -0.06361 0.55722 0.25502
 N466 N -0.08162 0.56965 0.25439
 C467 C -0.14693 0.35719 0.72697
 N468 N -0.16321 0.35920 0.74255
 N469 N -0.18060 0.34566 0.74262
 C470 C -0.18238 0.32961 0.72711
 N471 N -0.16615 0.32769 0.71144
 N472 N -0.14873 0.34123 0.71138
 C473 C -0.12751 0.37178 0.72727
 N474 N -0.11094 0.36946 0.71204
 N475 N -0.09316 0.38243 0.71256
 C476 C -0.09129 0.39819 0.72834
 N477 N -0.10788 0.40055 0.74355
 N478 N -0.12566 0.38757 0.74302
 C479 C -0.07158 0.41235 0.72898
 N480 N -0.06962 0.42817 0.74470
 N481 N -0.05170 0.44097 0.74521
 C482 C -0.03517 0.43852 0.72994
 N483 N -0.03704 0.42251 0.71442
 N484 N -0.05494 0.40972 0.71390
 C485 C 0.27153 0.15912 0.36132
 N486 N 0.25515 0.17413 0.36400
 N487 N 0.25460 0.19235 0.35127
 C488 C 0.27043 0.19622 0.33545
 N489 N 0.28685 0.18127 0.33287
 N490 N 0.28739 0.16307 0.34556
 C491 C 0.27200 0.13874 0.37489
 N492 N 0.28797 0.12347 0.37132
 N493 N 0.28839 0.10482 0.38335
 C494 C 0.27288 0.10072 0.39942
 N495 N 0.25690 0.11600 0.40303
 N496 N 0.25646 0.13466 0.39096
 C497 C 0.27354 0.08014 0.41266
 N498 N 0.25873 0.07627 0.42946
 N499 N 0.25965 0.05769 0.44162
 C500 C 0.27546 0.04237 0.43747
 N501 N 0.29002 0.04610 0.42044
 N502 N 0.28913 0.06467 0.40833
 C503 C 0.73059 0.15135 0.63831
 N504 N 0.71502 0.15434 0.65444
 N505 N 0.71608 0.17169 0.66789
 C506 C 0.73275 0.18667 0.66572
 N507 N 0.74829 0.18375 0.64953
 N508 N 0.74723 0.16640 0.63605
 C509 C 0.72968 0.13186 0.62392
 N510 N 0.74500 0.12889 0.60752
 N511 N 0.74438 0.11091 0.59484
 C512 C 0.72847 0.09524 0.59817
 N513 N 0.71313 0.09826 0.61452
 N514 N 0.71371 0.11625 0.62716
 C515 C 0.72800 0.07518 0.58455
 N516 N 0.71308 0.05880 0.58908
 N517 N 0.71273 0.04048 0.57692
 C518 C 0.72718 0.03796 0.55967
 N519 N 0.74221 0.05426 0.55523
 N520 N 0.74261 0.07255 0.56746
 C521 C 0.28407 -0.15443 0.63839
 N522 N 0.29897 -0.15684 0.65461
 N523 N 0.29800 -0.17434 0.66832
 C524 C 0.28209 -0.19005 0.66632
 N525 N 0.26728 -0.18769 0.65003
 N526 N 0.26826 -0.17021 0.63631
 C527 C 0.28461 -0.13479 0.62373
 N528 N 0.26939 -0.13229 0.60785
 N529 N 0.26943 -0.11420 0.59494
 C530 C 0.28468 -0.09793 0.59746
 N531 N 0.29997 -0.10048 0.61327
 N532 N 0.29993 -0.11858 0.62618
 C533 C 0.28441 -0.07779 0.58352
 N534 N 0.29928 -0.06124 0.58637
 N535 N 0.29888 -0.04288 0.57386
 C536 C 0.28369 -0.04047 0.55793
 N537 N 0.26864 -0.05691 0.55528
 N538 N 0.26904 -0.07526 0.56780
 C539 C 0.72165 -0.15475 0.35862
 N540 N 0.73786 -0.17004 0.35987
 N541 N 0.73798 -0.18768 0.34671
 C542 C 0.72188 -0.19066 0.33183
 N543 N 0.70565 -0.17539 0.33062
 N544 N 0.70553 -0.15777 0.34378
 C545 C 0.72157 -0.13515 0.37290
 N546 N 0.70525 -0.11999 0.37157
 N547 N 0.70515 -0.10213 0.38440
 C548 C 0.72138 -0.09875 0.39903
 N549 N 0.73772 -0.11390 0.40037
 N550 N 0.73782 -0.13178 0.38753
 C551 C 0.72115 -0.07902 0.41314
 N552 N 0.73729 -0.07545 0.42784
 N553 N 0.73694 -0.05755 0.44064
 C554 C 0.72034 -0.04266 0.43933
 N555 N 0.70440 -0.04609 0.42439
 N556 N 0.70475 -0.06398 0.41161
 C557 C 0.64023 0.72292 -0.15438
 N558 N 0.63699 0.73686 -0.17182
 N559 N 0.65042 0.73650 -0.18958
 C560 C 0.66755 0.72218 -0.19053
 N561 N 0.67071 0.70821 -0.17313
 N562 N 0.65730 0.70856 -0.15539
 C563 C 0.62580 0.72343 -0.13455
 N564 N 0.62944 0.70949 -0.11723
 N565 N 0.61660 0.70996 -0.09909
 C566 C 0.59963 0.72439 -0.09755
 N567 N 0.59594 0.73835 -0.11488
 N568 N 0.60881 0.73788 -0.13306
 C569 C 0.58559 0.72472 -0.07744
 N570 N 0.56849 0.73899 -0.07556
 N571 N 0.55575 0.73901 -0.05728
 C572 C 0.55957 0.72465 -0.04030
 N573 N 0.57686 0.71063 -0.04210
 N574 N 0.58958 0.71062 -0.06034
 C575 C 0.36150 0.27440 -0.15497
 N576 N 0.36429 0.25840 -0.17045
 N577 N 0.35154 0.25775 -0.18808
 C578 C 0.33556 0.27309 -0.19085
 N579 N 0.33281 0.28909 -0.17539
 N580 N 0.34554 0.28973 -0.15778
 C581 C 0.37534 0.27516 -0.13540
 N582 N 0.37201 0.29097 -0.11985
 N583 N 0.38441 0.29174 -0.10201
 C584 C 0.40062 0.27672 -0.09905
 N585 N 0.40400 0.26089 -0.11461
 N586 N 0.39156 0.26011 -0.13246
 C587 C 0.41417 0.27770 -0.07928
 N588 N 0.43072 0.26306 -0.07622
 N589 N 0.44293 0.26409 -0.05822
 C590 C 0.43913 0.27990 -0.04272
 N591 N 0.42241 0.29433 -0.04567
 N592 N 0.41022 0.29331 -0.06365
 C593 C 0.35694 0.71869 0.15572
 N594 N 0.35952 0.73473 0.17110
 N595 N 0.34603 0.73572 0.18875
 C596 C 0.32945 0.72072 0.19169
 N597 N 0.32690 0.70462 0.17636
 N598 N 0.34041 0.70362 0.15870
 C599 C 0.37156 0.71795 0.13603
 N600 N 0.36899 0.70206 0.12050
 N601 N 0.38204 0.70170 0.10245
 C602 C 0.39811 0.71724 0.09928
 N603 N 0.40071 0.73308 0.11485
 N604 N 0.38768 0.73343 0.13289
 C605 C 0.41229 0.71711 0.07925
 N606 N 0.42809 0.73290 0.07599
 N607 N 0.44086 0.73291 0.05776
 C608 C 0.43844 0.71703 0.04219
 N609 N 0.42244 0.70141 0.04532
 N610 N 0.40965 0.70140 0.06355
 C611 C 0.63531 0.27729 0.15031
 N612 N 0.65114 0.29285 0.15338
 N613 N 0.66396 0.29173 0.17092
 C614 C 0.66144 0.27497 0.18601
 N615 N 0.64560 0.25941 0.18296
 N616 N 0.63275 0.26055 0.16543
 C617 C 0.62134 0.27843 0.13084
 N618 N 0.60517 0.26318 0.12798
 N619 N 0.59265 0.26411 0.11020
 C620 C 0.59588 0.28032 0.09462
 N621 N 0.61204 0.29558 0.09749
 N622 N 0.62453 0.29466 0.11529
 C623 C 0.58229 0.28121 0.07487
 N624 N 0.58630 0.29673 0.05877
 N625 N 0.57412 0.29743 0.04074
 C626 C 0.55735 0.28277 0.03825
 N627 N 0.55347 0.26711 0.05426
 N628 N 0.56568 0.26639 0.07227
 C629 C -0.14568 0.64219 0.73661
 N630 N -0.14531 0.66159 0.72494
 N631 N -0.16272 0.67486 0.72514
 C632 C -0.18120 0.66919 0.73697
 N633 N -0.18158 0.64976 0.74864
 N634 N -0.16413 0.63651 0.74848
 C635 C -0.12643 0.62763 0.73625
 N636 N -0.12601 0.60889 0.74896
 N637 N -0.10847 0.59575 0.74851
 C638 C -0.09075 0.60088 0.73529
 N639 N -0.09120 0.61961 0.72260
 N640 N -0.10870 0.63275 0.72309
 C641 C -0.07137 0.58650 0.73460
 N642 N -0.05440 0.59118 0.72031
 N643 N -0.03674 0.57828 0.71955
 C644 C -0.03540 0.56012 0.73297
 N645 N -0.05227 0.55561 0.74751
 N646 N -0.06999 0.56849 0.74823
 C647 C -0.16136 0.36081 0.26923
 N648 N -0.16415 0.34452 0.28479
 N649 N -0.18207 0.33171 0.28514
 C650 C -0.19786 0.33472 0.26995
 N651 N -0.19514 0.35107 0.25443
 N652 N -0.17721 0.36390 0.25408
 C653 C -0.14138 0.37460 0.26871
 N654 N -0.13835 0.39095 0.25323
 N655 N -0.12010 0.40331 0.25279
 C656 C -0.10422 0.39973 0.26781
 N657 N -0.10726 0.38338 0.28326
 N658 N -0.12549 0.37104 0.28369
 C659 C -0.08416 0.41340 0.26760
 N660 N -0.06850 0.40970 0.28281
 N661 N -0.05044 0.42226 0.28299
 C662 C -0.04741 0.43910 0.26808
 N663 N -0.06289 0.44258 0.25261
 N664 N -0.08098 0.43000 0.25243
 C665 C 0.15821 0.36066 0.72803
 N666 N 0.16062 0.34476 0.71240
 N667 N 0.17815 0.33165 0.71209
 C668 C 0.19392 0.33396 0.72741
 N669 N 0.19156 0.34991 0.74301
 N670 N 0.17402 0.36303 0.74332
 C671 C 0.13863 0.37478 0.72851
 N672 N 0.13589 0.39056 0.74424
 N673 N 0.11793 0.40311 0.74476
 C674 C 0.10208 0.40030 0.72958
 N675 N 0.10486 0.38455 0.71385
 N676 N 0.12280 0.37203 0.71333
 C677 C 0.08218 0.41395 0.73010
 N678 N 0.06635 0.41074 0.71500
 N679 N 0.04830 0.42309 0.71531
 C680 C 0.04545 0.43923 0.73063
 N681 N 0.06115 0.44223 0.74594
 N682 N 0.07922 0.42987 0.74564
 C683 C 0.14546 0.64041 0.27674
 N684 N 0.16179 0.63755 0.26136
 N685 N 0.17972 0.65033 0.26131
 C686 C 0.18201 0.66644 0.27665
 N687 N 0.16571 0.66928 0.29210
 N688 N 0.14775 0.65650 0.29214
 C689 C 0.12557 0.62649 0.27647
 N690 N 0.10895 0.62948 0.29152
 N691 N 0.09084 0.61696 0.29104
 C692 C 0.08871 0.60099 0.27549
 N693 N 0.10535 0.59798 0.26049
 N694 N 0.12344 0.61050 0.26097
 C695 C 0.06875 0.58721 0.27484
 N696 N 0.06678 0.57121 0.25933
 N697 N 0.04874 0.55861 0.25877
 C698 C 0.03207 0.56144 0.27379
 N699 N 0.03390 0.57769 0.28908
 N700 N 0.05194 0.59029 0.28965
 C701 C 0.73523 -0.15587 0.64210
 N702 N 0.75459 -0.16322 0.65001
 N703 N 0.75508 -0.18064 0.66380
 C704 C 0.73622 -0.19124 0.67030
 N705 N 0.71687 -0.18387 0.66241
 N706 N 0.71639 -0.16655 0.64850
 C707 C 0.73461 -0.13652 0.62710
 N708 N 0.71593 -0.13136 0.61644
 N709 N 0.71524 -0.11365 0.60305
 C710 C 0.73316 -0.10036 0.59996
 N711 N 0.75186 -0.10551 0.61063
 N712 N 0.75259 -0.12331 0.62390
 C713 C 0.73220 -0.08054 0.58561
 N714 N 0.74879 -0.06535 0.58522
 N715 N 0.74768 -0.04713 0.57258
 C716 C 0.73006 -0.04357 0.55968
 N717 N 0.71345 -0.05872 0.56012
 N718 N 0.71450 -0.07687 0.57286
 C719 C 0.27325 -0.15457 0.36134
 N720 N 0.28825 -0.15765 0.34468
 N721 N 0.28729 -0.17559 0.33201
 C722 C 0.27127 -0.19111 0.33551
 N723 N 0.25631 -0.18809 0.35223
 N724 N 0.25730 -0.17015 0.36493
 C725 C 0.27404 -0.13449 0.37493
 N726 N 0.25926 -0.13146 0.39182
 N727 N 0.25979 -0.11307 0.40389
 C728 C 0.27509 -0.09701 0.39948
 N729 N 0.28987 -0.10005 0.38262
 N730 N 0.28936 -0.11845 0.37057
 C731 C 0.27563 -0.07668 0.41272
 N732 N 0.29038 -0.06025 0.40773
 N733 N 0.29099 -0.04187 0.41981
 C734 C 0.27699 -0.03933 0.43744
 N735 N 0.26204 -0.05562 0.44223
 N736 N 0.26140 -0.07398 0.43012
 C737 C 0.71624 0.15244 0.35866
 N738 N 0.73143 0.16875 0.36124
 N739 N 0.73203 0.18641 0.34775
 C740 C 0.71746 0.18842 0.33120
 N741 N 0.70222 0.17215 0.32866
 N742 N 0.70162 0.15447 0.34215
 C743 C 0.71594 0.13274 0.37323
 N744 N 0.70105 0.11618 0.37046
 N745 N 0.70109 0.09813 0.38344
 C746 C 0.71603 0.09598 0.39964
 N747 N 0.73087 0.11257 0.40244
 N748 N 0.73083 0.13062 0.38948
 C749 C 0.71632 0.07595 0.41372
 N750 N 0.73157 0.07366 0.42960
 N751 N 0.73200 0.05541 0.44224
 C752 C 0.71708 0.03883 0.43961
 N753 N 0.70201 0.04101 0.42353
 N754 N 0.70159 0.05927 0.41087
 C755 C 0.27876 0.15420 0.63744
 N756 N 0.26289 0.16977 0.63540
 N757 N 0.26242 0.18740 0.64857
 C758 C 0.27781 0.19009 0.66424
 N759 N 0.29371 0.17455 0.66622
 N760 N 0.29418 0.15694 0.65306
 C761 C 0.27913 0.13453 0.62326
 N762 N 0.29498 0.11899 0.62556
 N763 N 0.29526 0.10099 0.61292
 C764 C 0.27970 0.09785 0.59753
 N765 N 0.26386 0.11341 0.59519
 N766 N 0.26357 0.13142 0.60783
 C767 C 0.28006 0.07791 0.58373
 N768 N 0.26463 0.07463 0.56822
 N769 N 0.26508 0.05653 0.55570
 C770 C 0.28107 0.04113 0.55813
 N771 N 0.29629 0.04427 0.57387
 N772 N 0.29584 0.06235 0.58638
   
