data_POSCAR
  _audit_creation_date              2014-09-24
  _audit_creation_method            'ToBaCCo'
  _symmetry_space_group_name_H-M    'P1'
  _symmetry_Int_Tables_number       1
  _symmetry_cell_setting            triclinic
  loop_
  _symmetry_equiv_pos_as_xyz
 x,y,z
_cell_length_a 48.6408
_cell_length_b 50.4533
_cell_length_c 8.9456
_cell_angle_alpha 90.011100
_cell_angle_beta 90.103000
_cell_angle_gamma 90.035200
loop_
  _atom_site_label
  _atom_site_type_symbol
  _atom_site_fract_x
  _atom_site_fract_y
  _atom_site_fract_z
C1 C 0.19387 0.22533 0.12943
 C2 C 0.18043 0.24994 0.11785
 C3 C 0.19415 0.27397 0.13869
 C4 C 0.22265 0.27399 0.16957
 C5 C 0.23715 0.24960 0.17672
 C6 C 0.22301 0.22530 0.15080
 C7 C 0.23893 0.20226 0.13271
 C8 C 0.26709 0.20228 0.15867
 C9 C 0.28103 0.22534 0.20445
 C10 C 0.26611 0.24961 0.20363
 C11 C 0.23732 0.29782 0.18488
 C12 C 0.26543 0.29783 0.21127
 C13 C 0.28020 0.27402 0.22347
 C14 C 0.30895 0.27404 0.24645
 C15 C 0.32319 0.25004 0.25075
 C16 C 0.30983 0.22542 0.23672
 H17 H 0.23037 0.18412 0.08907
 H18 H 0.27780 0.18416 0.13276
 H19 H 0.22744 0.31687 0.17265
 H20 H 0.27550 0.31690 0.21766
 H21 H 0.15840 0.25068 0.09958
 H22 H 0.34508 0.25080 0.27365
 C23 C 0.80828 0.27468 0.22757
 C24 C 0.82185 0.25004 0.22781
 C25 C 0.80761 0.22601 0.22446
 C26 C 0.77859 0.22600 0.22979
 C27 C 0.76420 0.25040 0.23996
 C28 C 0.77895 0.27483 0.24074
 C29 C 0.76389 0.29836 0.26348
 C30 C 0.73536 0.29828 0.27077
 C31 C 0.72041 0.27453 0.26558
 C32 C 0.73495 0.25029 0.25170
 C33 C 0.76360 0.20216 0.22972
 C34 C 0.73509 0.20215 0.23652
 C35 C 0.72030 0.22591 0.25026
 C36 C 0.69121 0.22601 0.26024
 C37 C 0.67723 0.25018 0.26707
 C38 C 0.69130 0.27432 0.27332
 H39 H 0.77363 0.31725 0.28162
 H40 H 0.72529 0.31726 0.28163
 H41 H 0.77367 0.18310 0.22557
 H42 H 0.72487 0.18316 0.23031
 H43 H 0.84407 0.24926 0.21906
 H44 H 0.65498 0.25015 0.27564
 C45 C 0.69169 0.72611 0.72028
 C46 C 0.67824 0.75010 0.69202
 C47 C 0.69253 0.77415 0.68611
 C48 C 0.72145 0.77424 0.70551
 C49 C 0.73531 0.75031 0.74073
 C50 C 0.72032 0.72619 0.74972
 C51 C 0.73426 0.70297 0.79147
 C52 C 0.76251 0.70301 0.81437
 C53 C 0.77805 0.72632 0.79740
 C54 C 0.76427 0.75045 0.76570
 C55 C 0.73706 0.79730 0.68370
 C56 C 0.76532 0.79741 0.70699
 C57 C 0.77933 0.77463 0.75726
 C58 C 0.80813 0.77472 0.78994
 C59 C 0.82132 0.75017 0.81138
 C60 C 0.80693 0.72622 0.81444
 H61 H 0.72347 0.68450 0.80920
 H62 H 0.77192 0.68454 0.84802
 H63 H 0.72776 0.81542 0.64373
 H64 H 0.77593 0.81544 0.67798
 H65 H 0.65621 0.75001 0.67311
 H66 H 0.84332 0.74946 0.83059
 C67 C 0.19378 0.72562 0.87907
 C68 C 0.18063 0.75011 0.90142
 C69 C 0.19379 0.77461 0.87948
 C70 C 0.22250 0.77464 0.84686
 C71 C 0.23663 0.75014 0.82750
 C72 C 0.22250 0.72564 0.84701
 C73 C 0.23815 0.70211 0.84710
 C74 C 0.26596 0.70217 0.81293
 C75 C 0.27988 0.72584 0.78186
 C76 C 0.26540 0.75015 0.79484
 C77 C 0.23815 0.79819 0.84619
 C78 C 0.26594 0.79814 0.81159
 C79 C 0.27987 0.77447 0.78111
 C80 C 0.30834 0.77434 0.74745
 C81 C 0.32205 0.75016 0.73268
 C82 C 0.30835 0.72598 0.74834
 H83 H 0.22975 0.68331 0.88114
 H84 H 0.27661 0.68339 0.81743
 H85 H 0.22977 0.81701 0.87980
 H86 H 0.27658 0.81695 0.81535
 H87 H 0.15874 0.75009 0.92358
 H88 H 0.34378 0.75016 0.70543
 O89 O 0.97261 -0.02164 -0.13643
 O90 O 1.02658 0.02875 -0.08829
 O91 O 1.02608 -0.02218 -0.13802
 O92 O 0.97315 0.02926 -0.08493
 O93 O 0.97347 0.02180 0.15840
 O94 O 1.02648 -0.02931 0.10561
 O95 O 1.02690 0.02163 0.15535
 O96 O 0.97300 -0.02910 0.10688
 Cu97 Cu 0.99956 0.00431 -0.13609
 Cu98 Cu 1.00000 -0.00453 0.15572
 C99 C 0.96373 -0.03407 -0.02296
 C100 C 1.03580 0.03391 0.04132
 C101 C 1.03520 -0.03456 -0.02472
 C102 C 0.96443 0.03437 0.04566
 O103 O 0.47276 0.47908 0.35717
 O104 O 0.52625 0.52960 0.41883
 O105 O 0.52616 0.47895 0.35910
 O106 O 0.47282 0.52970 0.41610
 O107 O 0.47251 0.52094 0.65806
 O108 O 0.52590 0.47020 0.60107
 O109 O 0.52596 0.52089 0.66083
 O110 O 0.47248 0.47031 0.59912
 Cu111 Cu 0.49954 0.50524 0.36365
 Cu112 Cu 0.49920 0.49469 0.65395
 C113 C 0.46365 0.46598 0.46770
 C114 C 0.53506 0.53398 0.55023
 C115 C 0.53495 0.46579 0.47035
 C116 C 0.46368 0.53405 0.54669
 O117 O 0.02614 0.52217 -0.14970
 O118 O -0.02692 0.47070 -0.09932
 O119 O -0.02735 0.52172 -0.14817
 O120 O 0.02653 0.47115 -0.10155
 O121 O 0.02679 0.47802 0.14233
 O122 O -0.02698 0.52876 0.09554
 O123 O -0.02661 0.47780 0.14434
 O124 O 0.02646 0.52899 0.09422
 Cu125 Cu -0.00044 0.49570 -0.14889
 Cu126 Cu -0.00006 0.50415 0.14323
 C127 C 0.03524 0.53441 -0.03578
 C128 C -0.03567 0.46540 0.03099
 C129 C -0.03622 0.53396 -0.03402
 C130 C 0.03570 0.46585 0.02798
 O131 O 0.47303 1.02933 0.57945
 O132 O 0.52682 0.97867 0.62966
 O133 O 0.52642 1.02941 0.57230
 O134 O 0.47335 0.97864 0.63681
 O135 O 0.47224 0.97013 0.39461
 O136 O 0.52525 1.02102 0.32997
 O137 O 0.52569 0.97029 0.38734
 O138 O 0.47187 1.02080 0.33728
 Cu139 Cu 0.50003 1.00487 0.62875
 Cu140 Cu 0.49866 0.99467 0.33816
 C141 C 0.46344 1.03379 0.44976
 C142 C 0.53529 0.96577 0.51690
 C143 C 0.53470 1.03402 0.44030
 C144 C 0.46385 0.96566 0.52657
 N145 N 1.16985 0.15735 0.18298
 C146 C 1.14441 0.15849 0.12149
 N147 N 1.13544 0.18170 0.06354
 N148 N 1.15151 0.20307 0.06581
 C149 C 1.17734 0.20211 0.12452
 N150 N 1.18589 0.17878 0.18515
 C151 C 1.12717 0.13543 0.11530
 C152 C 1.11213 0.11651 0.10607
 C153 C 1.09360 0.09455 0.09015
 N154 N 1.08423 0.08761 -0.04716
 N155 N 1.06609 0.06803 -0.06257
 C156 C 1.05666 0.05471 0.05886
 N157 N 1.06615 0.06162 0.19639
 N158 N 1.08432 0.08125 0.21179
 N159 N 0.66803 0.65891 0.61708
 C160 C 0.64298 0.65788 0.68298
 N161 N 0.63411 0.67902 0.76303
 N162 N 0.64985 0.70049 0.77722
 C163 C 0.67508 0.70152 0.71261
 N164 N 0.68377 0.68039 0.63126
 C165 C 0.62553 0.63522 0.66285
 C166 C 0.61047 0.61652 0.64420
 C167 C 0.59207 0.59469 0.62000
 N168 N 0.58310 0.58893 0.48015
 N169 N 0.56520 0.56933 0.45779
 C170 C 0.55566 0.55482 0.57457
 N171 N 0.56476 0.56057 0.71453
 N172 N 0.58267 0.58019 0.73687
 N173 N -0.16988 0.34141 0.12237
 C174 C -0.14274 0.34065 0.15623
 N175 N -0.13195 0.31811 0.21349
 N176 N -0.14786 0.29706 0.23740
 C177 C -0.17530 0.29769 0.20672
 N178 N -0.18575 0.32030 0.14640
 C179 C -0.12553 0.36333 0.13149
 C180 C -0.11062 0.38211 0.11203
 C181 C -0.09236 0.40411 0.09039
 N182 N -0.08306 0.41818 0.20934
 N183 N -0.06525 0.43796 0.19012
 C184 C -0.05613 0.44432 0.05129
 N185 N -0.06556 0.43025 -0.06772
 N186 N -0.08337 0.41047 -0.04846
 N187 N 0.36533 0.82252 0.76712
 C188 C 0.35626 0.84224 0.67685
 N189 N 0.33129 0.83989 0.61046
 N190 N 0.31581 0.81849 0.63423
 C191 C 0.32472 0.79880 0.72595
 N192 N 0.34987 0.80114 0.79087
 C193 C 0.37332 0.86492 0.64918
 C194 C 0.38823 0.88359 0.62660
 C195 C 0.40661 0.90534 0.60034
 N196 N 0.41645 0.91983 0.71638
 N197 N 0.43445 0.93930 0.69269
 C198 C 0.44324 0.94490 0.55216
 N199 N 0.43326 0.93041 0.43613
 N200 N 0.41526 0.91094 0.45986
 N201 N -0.14153 0.67903 -0.04109
 C202 C -0.14509 0.65789 -0.13258
 N203 N -0.16464 0.65895 -0.24063
 N204 N -0.18023 0.68050 -0.25630
 C205 C -0.17689 0.70164 -0.16385
 N206 N -0.15710 0.70056 -0.05673
 C207 C -0.12773 0.63506 -0.11758
 C208 C -0.11262 0.61629 -0.10370
 C209 C -0.09403 0.59445 -0.08565
 N210 N -0.08484 0.58084 -0.20635
 N211 N -0.06667 0.56130 -0.18981
 C212 C -0.05706 0.55475 -0.05201
 N213 N -0.06639 0.56836 0.06862
 N214 N -0.08456 0.58789 0.05206
 N215 N 0.36898 1.18185 0.27945
 C216 C 0.35701 1.15863 0.31809
 N217 N 0.32929 1.15747 0.33039
 N218 N 0.31402 1.17888 0.30344
 C219 C 0.32574 1.20221 0.26156
 N220 N 0.35367 1.20319 0.25257
 C221 C 0.37364 1.13563 0.34481
 C222 C 0.38823 1.11668 0.36561
 C223 C 0.40632 1.09460 0.38852
 N224 N 0.41487 1.07986 0.27074
 N225 N 0.43277 1.06018 0.29066
 C226 C 0.44274 1.05462 0.42904
 N227 N 0.43403 1.06935 0.54690
 N228 N 0.41613 1.08903 0.52694
 N229 N 1.13652 -0.18138 -0.03721
 C230 C 1.14370 -0.15901 -0.11094
 N231 N 1.16756 -0.15856 -0.18875
 N232 N 1.18383 -0.17982 -0.19146
 C233 C 1.17713 -0.20225 -0.11525
 N234 N 1.15280 -0.20256 -0.04008
 C235 C 1.12625 -0.13612 -0.10455
 C236 C 1.11111 -0.11730 -0.09473
 C237 C 1.09254 -0.09542 -0.07769
 N238 N 1.08296 -0.08207 -0.19866
 N239 N 1.06490 -0.06242 -0.18200
 C240 C 1.05581 -0.05553 -0.04384
 N241 N 1.06551 -0.06890 0.07689
 N242 N 1.08356 -0.08851 0.06022
 N243 N 0.63696 0.32451 0.22227
 C244 C 0.64228 0.34164 0.33543
 N245 N 0.66383 0.33684 0.42784
 N246 N 0.67968 0.31563 0.40711
 C247 C 0.67464 0.29861 0.29256
 N248 N 0.65280 0.30330 0.20152
 C249 C 0.62483 0.36417 0.35934
 C250 C 0.60984 0.38284 0.37941
 C251 C 0.59155 0.40474 0.40332
 N252 N 0.58255 0.41946 0.28630
 N253 N 0.56478 0.43919 0.30790
 C254 C 0.55542 0.44483 0.44727
 N255 N 0.56456 0.43010 0.56429
 N256 N 0.58232 0.41038 0.54266
 N257 N 0.86765 -0.18184 -0.17718
 C258 C 0.85588 -0.15825 -0.14463
 N259 N 0.82815 -0.15676 -0.13401
 N260 N 0.81269 -0.17822 -0.15641
 C261 C 0.82422 -0.20197 -0.19183
 N262 N 0.85216 -0.20324 -0.19952
 C263 C 0.87274 -0.13528 -0.12103
 C264 C 0.88757 -0.11642 -0.10212
 C265 C 0.90594 -0.09448 -0.08078
 N266 N 0.91548 -0.08845 0.05764
 N267 N 0.93362 -0.06891 0.07644
 C268 C 0.94286 -0.05481 -0.04263
 N269 N 0.93318 -0.06084 -0.18102
 N270 N 0.91504 -0.08037 -0.19978
 N271 N 0.36397 0.32406 0.21474
 C272 C 0.35657 0.34204 0.31977
 N273 N 0.33337 0.33790 0.40035
 N274 N 0.31797 0.31646 0.37598
 C275 C 0.32515 0.29855 0.26951
 N276 N 0.34858 0.30265 0.19037
 C277 C 0.37357 0.36476 0.34761
 C278 C 0.38837 0.38351 0.37007
 C279 C 0.40660 0.40540 0.39592
 N280 N 0.41564 0.41091 0.53598
 N281 N 0.43354 0.43049 0.55915
 C282 C 0.44302 0.44520 0.44297
 N283 N 0.43384 0.43969 0.30288
 N284 N 0.41594 0.42011 0.27976
 N285 N 0.16766 0.65882 -0.19173
 C286 C 0.14369 0.65918 -0.11491
 N287 N 0.13639 0.68148 -0.04094
 N288 N 0.15268 0.70269 -0.04262
 C289 C 0.17711 0.70246 -0.11679
 N290 N 0.18392 0.68009 -0.19326
 C291 C 0.12625 0.63625 -0.10977
 C292 C 0.11111 0.61739 -0.10104
 C293 C 0.09256 0.59544 -0.08526
 N294 N 0.08354 0.58831 0.05222
 N295 N 0.06551 0.56864 0.06775
 C296 C 0.05586 0.55542 -0.05372
 N297 N 0.06499 0.56254 -0.19146
 N298 N 0.08304 0.58225 -0.20697
 N299 N 0.66504 1.16116 0.38913
 C300 C 0.64215 1.15817 0.30412
 N301 N 0.63555 1.17722 0.20346
 N302 N 0.65143 1.19856 0.18773
 C303 C 0.67458 1.20149 0.27141
 N304 N 0.68092 1.18250 0.37343
 C305 C 0.62454 1.13563 0.32461
 C306 C 0.60946 1.11697 0.34360
 C307 C 0.59113 1.09511 0.36830
 N308 N 0.58271 1.08911 0.50865
 N309 N 0.56498 1.06940 0.53166
 C310 C 0.55508 1.05501 0.41506
 N311 N 0.56363 1.06100 0.27459
 N312 N 0.58137 1.08073 0.25160
 N313 N 0.16162 0.33810 0.23217
 C314 C 0.14499 0.34196 0.11230
 N315 N 0.14468 0.32370 0.00122
 N316 N 0.16060 0.30229 0.00922
 C317 C 0.17753 0.29847 0.12812
 N318 N 0.17756 0.31666 0.24021
 C319 C 0.12740 0.36473 0.10375
 C320 C 0.11216 0.38347 0.09328
 C321 C 0.09349 0.40528 0.07696
 N322 N 0.08410 0.41214 -0.06042
 N323 N 0.06594 0.43169 -0.07598
 C324 C 0.05652 0.44504 0.04537
 N325 N 0.06603 0.43819 0.18292
 N326 N 0.08421 0.41862 0.19846
 N327 N 0.66440 0.84179 0.73032
 C328 C 0.64421 0.84209 0.62562
 N329 N 0.64013 0.82030 0.53973
 N330 N 0.65580 0.79889 0.55757
 C331 C 0.67623 0.79857 0.66130
 N332 N 0.68009 0.82037 0.74818
 C333 C 0.62677 0.86482 0.60847
 C334 C 0.61163 0.88353 0.59302
 C335 C 0.59303 0.90532 0.57320
 N336 N 0.58315 0.91122 0.43537
 N337 N 0.56501 0.93073 0.41730
 C338 C 0.55611 0.94500 0.53650
 N339 N 0.56611 0.93911 0.67442
 N340 N 0.58426 0.91958 0.69247
 N341 N 0.83496 0.16288 0.07727
 C342 C 0.85652 0.15839 0.17011
 N343 N 0.86181 0.17586 0.28164
 N344 N 0.84596 0.19712 0.30026
 C345 C 0.82413 0.20154 0.20866
 N346 N 0.81910 0.18415 0.09587
 C347 C 0.87407 0.13589 0.14796
 C348 C 0.88918 0.11726 0.12935
 C349 C 0.90762 0.09542 0.10734
 N350 N 0.91660 0.08922 -0.03172
 N351 N 0.93448 0.06953 -0.05164
 C352 C 0.94397 0.05540 0.06689
 N353 N 0.93486 0.06161 0.20598
 N354 N 0.91698 0.08130 0.22586
 N355 N 0.36526 0.67784 0.77187
 C356 C 0.35625 0.65797 0.68237
 N357 N 0.33136 0.66023 0.61498
 N358 N 0.31591 0.68168 0.63711
 C359 C 0.32475 0.70152 0.72814
 N360 N 0.34983 0.69927 0.79399
 C361 C 0.37325 0.63519 0.65688
 C362 C 0.38810 0.61643 0.63630
 C363 C 0.40642 0.59456 0.61252
 N364 N 0.41581 0.58901 0.47339
 N365 N 0.43380 0.56947 0.45216
 C366 C 0.44302 0.55484 0.56940
 N367 N 0.43349 0.56038 0.70855
 N368 N 0.41551 0.57993 0.72975
   
