data_POSCAR
  _audit_creation_date              2014-09-24
  _audit_creation_method            'ToBaCCo'
  _symmetry_space_group_name_H-M    'P1'
  _symmetry_Int_Tables_number       1
  _symmetry_cell_setting            triclinic
  loop_
  _symmetry_equiv_pos_as_xyz
 x,y,z
_cell_length_a 25.0985
_cell_length_b 25.0630
_cell_length_c 25.0525
_cell_angle_alpha 89.948500
_cell_angle_beta 90.112100
_cell_angle_gamma 90.039300
loop_
  _atom_site_label
  _atom_site_type_symbol
  _atom_site_fract_x
  _atom_site_fract_y
  _atom_site_fract_z
C1 C 0.33561 1.02340 -0.47412
 C2 C 0.33581 1.02590 -0.52873
 C3 C 0.38704 1.01281 -0.54520
 N4 N 0.41760 1.00149 -0.50211
 C5 C 0.38635 1.00816 -0.45869
 C6 C 0.40306 1.00475 -0.59896
 C7 C 0.45657 0.99228 -0.61305
 C8 C 0.47295 0.97239 -0.66212
 C9 C 0.52748 0.96996 -0.66099
 C10 C 0.54375 0.99038 -0.61218
 N11 N 0.50023 1.00344 -0.58300
 C12 C 0.59778 0.99840 -0.59679
 C13 C 0.61275 1.00741 -0.54283
 C14 C 0.66203 1.02645 -0.52622
 C15 C 0.66151 1.02652 -0.47161
 C16 C 0.61148 1.00888 -0.45637
 N17 N 0.58178 0.99694 -0.49995
 C18 C 0.59530 1.00044 -0.40303
 C19 C 0.54201 0.98935 -0.38873
 C20 C 0.52566 0.97035 -0.33939
 C21 C 0.47095 0.96897 -0.34040
 C22 C 0.45524 0.98808 -0.38997
 N23 N 0.49883 1.00038 -0.41916
 C24 C 0.40178 0.99698 -0.40553
 H25 H 0.30155 1.03088 -0.44879
 H26 H 0.30131 1.03453 -0.55312
 H27 H 0.49915 1.02115 -0.45506
 H28 H 0.44890 0.96133 -0.69612
 H29 H 0.55225 0.95538 -0.69311
 H30 H 0.69509 1.03912 -0.55081
 H31 H 0.69443 1.03822 -0.44628
 H32 H 0.44566 0.95627 -0.30784
 H33 H 0.50055 1.02472 -0.54739
 H34 H 0.55028 0.95925 -0.30570
 C35 C -0.65774 1.52420 0.03931
 C36 C -0.65709 1.46964 0.03769
 C37 C -0.61076 1.45514 0.01136
 N38 N -0.58254 1.49912 -0.00239
 C39 C -0.61171 1.54142 0.01408
 C40 C -0.59619 1.40210 -0.00173
 C41 C -0.54246 1.38887 -0.01291
 C42 C -0.52559 1.34367 -0.04005
 C43 C -0.47085 1.34444 -0.03953
 C44 C -0.45574 1.39045 -0.01285
 N45 N -0.49956 1.41751 0.00300
 C46 C -0.40255 1.40495 -0.00149
 C47 C -0.38757 1.45762 0.01162
 C48 C -0.33721 1.47310 0.02828
 C49 C -0.33760 1.52777 0.03052
 C50 C -0.38842 1.54380 0.01583
 N51 N -0.41882 1.50085 0.00413
 C52 C -0.40438 1.59712 0.00746
 C53 C -0.45781 1.61162 -0.00326
 C54 C -0.47385 1.66007 -0.02468
 C55 C -0.52853 1.65930 -0.02645
 C56 C -0.54470 1.61110 -0.00445
 N57 N -0.50125 1.58204 0.00907
 C58 C -0.59833 1.59555 0.00460
 H59 H -0.68839 1.54849 0.05745
 H60 H -0.68716 1.44356 0.05438
 H61 H -0.50141 1.54646 0.03057
 H62 H -0.55009 1.31329 -0.05852
 H63 H -0.44509 1.31465 -0.05710
 H64 H -0.30329 1.44779 0.03667
 H65 H -0.30384 1.55269 0.04056
 H66 H -0.55337 1.69092 -0.04211
 H67 H -0.50023 1.45067 0.02804
 H68 H -0.44907 1.69280 -0.03786
 C69 C 0.03506 0.53577 0.34309
 C70 C 0.03769 0.48119 0.34039
 C71 C 0.01454 0.46178 0.38681
 N72 N -0.00074 0.50269 0.41837
 C73 C 0.01149 0.54782 0.39150
 C74 C 0.00451 0.40741 0.39859
 C75 C -0.00757 0.39141 0.45152
 C76 C -0.03579 0.34584 0.46537
 C77 C -0.03674 0.34378 0.52014
 C78 C -0.00894 0.38806 0.53838
 N79 N 0.00775 0.41754 0.49631
 C80 C 0.00273 0.39926 0.59262
 C81 C 0.01372 0.45213 0.60911
 C82 C 0.04079 0.46631 0.65527
 C83 C 0.03971 0.52088 0.65784
 C84 C 0.01200 0.53832 0.61318
 N85 N -0.00315 0.49623 0.58290
 C86 C -0.00077 0.59216 0.60157
 C87 C -0.01374 0.60782 0.54876
 C88 C -0.04147 0.65363 0.53447
 C89 C -0.04178 0.65572 0.47961
 C90 C -0.01499 0.61078 0.46201
 N91 N 0.00151 0.58152 0.50427
 C92 C -0.00293 0.59940 0.40833
 H93 H 0.04879 0.56345 0.31291
 H94 H 0.05442 0.45847 0.30777
 H95 H 0.02678 0.54855 0.50288
 H96 H -0.05427 0.31727 0.43877
 H97 H -0.05591 0.31320 0.54383
 H98 H 0.05980 0.44006 0.68385
 H99 H 0.05778 0.54499 0.68879
 H100 H -0.05955 0.68684 0.45547
 H101 H 0.03279 0.45073 0.49812
 H102 H -0.05945 0.68269 0.56076
 O103 O -0.13786 1.00064 -0.07178
 O104 O 0.13661 0.99418 -0.07293
 O105 O -0.00143 1.06684 -0.13981
 O106 O -0.00040 0.92272 -0.13471
 O107 O -0.00078 0.86029 -0.06716
 O108 O -0.00078 1.13418 -0.07728
 O109 O 0.07088 0.99170 -0.13736
 O110 O -0.07300 0.99937 -0.13700
 Zr111 Zr -0.00077 0.99642 -0.09380
 O112 O 0.04730 0.94914 -0.04690
 O113 O -0.04836 1.04687 -0.05000
 C114 C -0.12217 1.00098 -0.12113
 C115 C 0.12034 0.99128 -0.12212
 C116 C -0.00178 1.11675 -0.12609
 C117 C 0.00002 0.87395 -0.11713
 H118 H 0.07117 1.06725 -0.07376
 O119 O 0.04831 1.04550 -0.05011
 H120 H -0.07248 0.92746 -0.06852
 O121 O -0.04942 0.95063 -0.04643
 O122 O 0.13763 1.00161 0.07160
 O123 O -0.13690 1.00129 0.07308
 O124 O 0.07310 1.13578 -0.00332
 O125 O 0.06970 0.86183 0.00256
 O126 O -0.07417 0.86365 0.00718
 O127 O -0.07054 1.13744 -0.00709
 O128 O 0.00313 1.07665 0.13459
 O129 O -0.00192 0.93202 0.13987
 O130 O 0.00339 1.13911 0.06701
 O131 O -0.00413 0.86547 0.07650
 O132 O 0.13791 1.07069 -0.00106
 O133 O -0.13657 1.07356 -0.00355
 O134 O -0.13837 0.92942 0.00344
 O135 O 0.13599 0.92549 0.00003
 O136 O 0.07285 1.00647 0.13669
 O137 O -0.07115 1.00264 0.13747
 Zr138 Zr 0.09383 0.99856 -0.00043
 Zr139 Zr -0.09414 1.00091 0.00037
 Zr140 Zr 0.00082 1.09319 -0.00348
 Zr141 Zr -0.00157 0.90629 0.00320
 Zr142 Zr 0.00050 1.00290 0.09379
 O143 O -0.04893 0.95375 0.05024
 O144 O 0.04909 1.04908 0.04634
 C145 C 0.12205 1.00548 0.12084
 C146 C -0.12063 1.00130 0.12236
 C147 C 0.12236 1.12016 -0.00194
 C148 C 0.11931 0.87638 0.00086
 C149 C -0.12324 0.88001 0.00631
 C150 C -0.12010 1.12258 -0.00684
 C151 C 0.00432 1.12542 0.11701
 C152 C -0.00451 0.88228 0.12543
 H153 H -0.06993 1.07376 0.06877
 O154 O -0.04754 1.05002 0.04670
 H155 H 0.07016 0.93029 0.07319
 O156 O 0.04772 0.95264 0.04964
 C157 C 0.28410 1.01152 0.28260
 C158 C 0.29669 1.05757 0.31178
 C159 C 0.33670 1.05548 0.35046
 C160 C 0.36385 1.00750 0.36057
 C161 C 0.34961 0.96224 0.33063
 N162 N 0.31104 0.96548 0.29260
 C163 C 0.24225 1.01190 0.24122
 N164 N 0.24956 0.98331 0.19565
 C165 C 0.21219 0.98148 0.15631
 C166 C 0.16359 1.00839 0.16242
 C167 C 0.15496 1.03754 0.20937
 C168 C 0.19439 1.03983 0.24863
 H169 H 0.34665 1.09134 0.37248
 H170 H 0.36847 0.92411 0.33813
 H171 H 0.22002 0.95814 0.12084
 H172 H 0.11792 1.05884 0.21549
 H173 H 0.27643 1.09495 0.30421
 H174 H 0.18706 1.06214 0.28487
 C175 C -0.28087 0.99445 0.28657
 C176 C -0.27507 0.96475 0.33374
 C177 C -0.31528 0.96575 0.37198
 C178 C -0.36170 0.99613 0.36371
 C179 C -0.36638 1.02420 0.31518
 N180 N -0.32649 1.02270 0.27853
 C181 C -0.23878 0.99566 0.24528
 N182 N -0.25248 1.00516 0.19350
 C183 C -0.21577 1.00708 0.15363
 C184 C -0.16142 0.99972 0.16503
 C185 C -0.14647 0.99063 0.21831
 C186 C -0.18483 0.98862 0.25838
 H187 H -0.31050 0.94191 0.40777
 H188 H -0.40102 1.04862 0.30704
 H189 H -0.22912 1.01461 0.11322
 H190 H -0.10508 0.98492 0.22917
 H191 H -0.24033 0.94022 0.34087
 H192 H -0.17202 0.98263 0.29919
 C193 C -0.28457 1.00599 -0.28217
 C194 C -0.30171 1.05358 -0.30617
 C195 C -0.34180 1.05188 -0.34479
 C196 C -0.36371 1.00283 -0.36027
 C197 C -0.34543 0.95615 -0.33540
 N198 N -0.30716 0.95887 -0.29700
 C199 C -0.24256 1.00614 -0.24109
 N200 N -0.24892 0.97618 -0.19621
 C201 C -0.21136 0.97458 -0.15704
 C202 C -0.16360 1.00309 -0.16275
 C203 C -0.15589 1.03354 -0.20907
 C204 C -0.19561 1.03570 -0.24806
 H205 H -0.35528 1.08861 -0.36318
 H206 H -0.36162 0.91769 -0.34653
 H207 H -0.21838 0.95035 -0.12198
 H208 H -0.11950 1.05612 -0.21472
 H209 H -0.28477 1.09162 -0.29463
 H210 H -0.18934 1.05932 -0.28372
 C211 C 0.28002 0.98681 -0.28656
 C212 C 0.27989 0.95066 -0.32941
 C213 C 0.31976 0.95378 -0.36801
 C214 C 0.35950 0.99288 -0.36417
 C215 C 0.35871 1.02779 -0.32048
 N216 N 0.31964 1.02383 -0.28316
 C217 C 0.23840 0.98565 -0.24486
 N218 N 0.25064 1.00283 -0.19476
 C219 C 0.21407 1.00401 -0.15478
 C220 C 0.16124 0.98820 -0.16448
 C221 C 0.14772 0.97066 -0.21596
 C222 C 0.18610 0.96919 -0.25611
 H223 H 0.31970 0.92576 -0.40091
 H224 H 0.38904 1.05823 -0.31622
 H225 H 0.22611 1.01827 -0.11581
 H226 H 0.10744 0.95818 -0.22529
 H227 H 0.24992 0.91978 -0.33275
 H228 H 0.17444 0.95660 -0.29576
 C229 C 0.28312 1.28443 -0.00671
 C230 C 0.27414 1.33457 -0.03001
 C231 C 0.31411 1.37308 -0.02877
 C232 C 0.36364 1.36217 -0.00471
 C233 C 0.37152 1.31064 0.01651
 N234 N 0.33166 1.27383 0.01517
 C235 C 0.24106 1.24299 -0.00530
 N236 N 0.25507 1.19053 -0.00278
 C237 C 0.21825 1.15061 -0.00143
 C238 C 0.16356 1.16263 -0.00234
 C239 C 0.14846 1.21656 -0.00392
 C240 C 0.18684 1.25662 -0.00524
 H241 H 0.30658 1.41124 -0.04767
 H242 H 0.40860 1.30023 0.03604
 H243 H 0.23180 1.10966 0.00018
 H244 H 0.10687 1.22806 -0.00404
 H245 H 0.23695 1.34399 -0.04975
 H246 H 0.17388 1.29777 -0.00526
 C247 C 0.27852 0.71070 0.00029
 C248 C 0.27133 0.66131 -0.02508
 C249 C 0.31191 0.62344 -0.02349
 C250 C 0.36027 0.63429 0.00295
 C251 C 0.36591 0.68466 0.02730
 N252 N 0.32562 0.72089 0.02531
 C253 C 0.23656 0.75225 -0.00004
 N254 N 0.25079 0.80439 0.00566
 C255 C 0.21440 0.84462 0.00582
 C256 C 0.15980 0.83332 0.00044
 C257 C 0.14430 0.77973 -0.00483
 C258 C 0.18234 0.73925 -0.00498
 H259 H 0.30598 0.58608 -0.04440
 H260 H 0.40173 0.69475 0.04920
 H261 H 0.22823 0.88527 0.01045
 H262 H 0.10269 0.76889 -0.00876
 H263 H 0.23533 0.65217 -0.04704
 H264 H 0.16904 0.69831 -0.00792
 C265 C -0.28464 0.71815 0.00458
 C266 C -0.30792 0.70129 -0.04349
 C267 C -0.34643 0.66120 -0.04264
 C268 C -0.36269 0.63910 0.00605
 C269 C -0.33828 0.65681 0.05322
 N270 N -0.29994 0.69515 0.05135
 C271 C -0.24394 0.76043 0.00504
 N272 N -0.19882 0.75405 0.03463
 C273 C -0.15962 0.79158 0.03565
 C274 C -0.16545 0.83916 0.00666
 C275 C -0.21218 0.84692 -0.02308
 C276 C -0.25123 0.80740 -0.02448
 H277 H -0.36401 0.64773 -0.07979
 H278 H -0.34961 0.63999 0.09136
 H279 H -0.12425 0.78450 0.05942
 H280 H -0.21802 0.88309 -0.04601
 H281 H -0.29586 0.71844 -0.08128
 H282 H -0.28704 0.81368 -0.04784
 C283 C -0.28038 1.28655 -0.01240
 C284 C -0.27844 1.33150 -0.04593
 C285 C -0.31855 1.36985 -0.04280
 C286 C -0.36036 1.36366 -0.00632
 C287 C -0.36162 1.31767 0.02553
 N288 N -0.32217 1.28075 0.02174
 C289 C -0.23841 1.24518 -0.01315
 N290 N -0.25099 1.19453 0.00197
 C291 C -0.21426 1.15472 0.00356
 C292 C -0.16091 1.16508 -0.00977
 C293 C -0.14702 1.21715 -0.02511
 C294 C -0.18553 1.25718 -0.02692
 H295 H -0.31699 1.40447 -0.06867
 H296 H -0.39365 1.31147 0.05375
 H297 H -0.22670 1.11528 0.01603
 H298 H -0.10635 1.22704 -0.03562
 H299 H -0.24683 1.33679 -0.07474
 H300 H -0.17355 1.29723 -0.03768
 C301 C 0.00397 1.29251 0.27496
 C302 C -0.01971 1.34249 0.26632
 C303 C -0.01965 1.38033 0.30705
 C304 C 0.00389 1.36897 0.35684
 C305 C 0.02609 1.31781 0.36403
 N306 N 0.02560 1.28163 0.32362
 C307 C 0.00486 1.25078 0.23313
 N308 N 0.00859 1.19863 0.24798
 C309 C 0.00900 1.15811 0.21190
 C310 C 0.00566 1.16905 0.15695
 C311 C 0.00295 1.22265 0.14078
 C312 C 0.00266 1.26346 0.17855
 H313 H -0.03961 1.41800 0.30002
 H314 H 0.04515 1.30702 0.40130
 H315 H 0.01169 1.11748 0.22629
 H316 H 0.00087 1.23320 0.09890
 H317 H -0.03934 1.35211 0.22907
 H318 H 0.00145 1.30437 0.16484
 C319 C 0.00094 1.27466 -0.29333
 C320 C 0.02334 1.26571 -0.34383
 C321 C 0.02392 1.30675 -0.38143
 C322 C 0.00251 1.35720 -0.36920
 C323 C -0.01903 1.36438 -0.31778
 N324 N -0.01916 1.32371 -0.28188
 C325 C -0.00035 1.23280 -0.25162
 N326 N -0.00295 1.24771 -0.19943
 C327 C -0.00386 1.21166 -0.15884
 C328 C -0.00228 1.15671 -0.16975
 C329 C -0.00068 1.14050 -0.22339
 C330 C 0.00019 1.17824 -0.26428
 H331 H 0.04268 1.29942 -0.41962
 H332 H -0.03719 1.40186 -0.30649
 H333 H -0.00560 1.22610 -0.11818
 H334 H -0.00000 1.09861 -0.23391
 H335 H 0.04151 1.22797 -0.35403
 H336 H 0.00048 1.16455 -0.30520
 C337 C -0.00118 0.70664 -0.27459
 C338 C -0.02296 0.65586 -0.26548
 C339 C -0.02280 0.61812 -0.30629
 C340 C -0.00129 0.63050 -0.35666
 C341 C 0.01942 0.68224 -0.36414
 N342 N 0.01891 0.71827 -0.32364
 C343 C -0.00048 0.74840 -0.23285
 N344 N 0.00200 0.80056 -0.24791
 C345 C 0.00249 0.84117 -0.21197
 C346 C 0.00057 0.83030 -0.15698
 C347 C -0.00099 0.77671 -0.14060
 C348 C -0.00139 0.73580 -0.17824
 H349 H -0.04106 0.57966 -0.29885
 H350 H 0.03740 0.69367 -0.40169
 H351 H 0.00423 0.88180 -0.22651
 H352 H -0.00189 0.76623 -0.09867
 H353 H -0.04119 0.64549 -0.22779
 H354 H -0.00155 0.69493 -0.16437
 C355 C -0.01353 0.72081 0.28878
 C356 C -0.04530 0.67479 0.28457
 C357 C -0.04228 0.63565 0.32395
 C358 C -0.00803 0.64225 0.36763
 C359 C 0.02166 0.68953 0.37150
 N360 N 0.01833 0.72711 0.33241
 C361 C -0.01306 0.76195 0.24639
 N362 N -0.00067 0.81337 0.25899
 C363 C 0.00170 0.85267 0.22149
 C364 C -0.00791 0.84087 0.16750
 C365 C -0.02038 0.78799 0.15381
 C366 C -0.02293 0.74862 0.19289
 H367 H -0.06645 0.60000 0.32029
 H368 H 0.04817 0.69601 0.40501
 H369 H 0.01174 0.89282 0.23382
 H370 H -0.02800 0.77679 0.11276
 H371 H -0.07242 0.66902 0.25146
 H372 H -0.03122 0.70801 0.18088
   
