data_POSCAR
  _audit_creation_date              2014-09-24
  _audit_creation_method            'ToBaCCo'
  _symmetry_space_group_name_H-M    'P1'
  _symmetry_Int_Tables_number       1
  _symmetry_cell_setting            triclinic
  loop_
  _symmetry_equiv_pos_as_xyz
 x,y,z
_cell_length_a 56.2644
_cell_length_b 56.2967
_cell_length_c 16.2142
_cell_angle_alpha 89.937500
_cell_angle_beta 89.920300
_cell_angle_gamma 119.921600
loop_
  _atom_site_label
  _atom_site_type_symbol
  _atom_site_fract_x
  _atom_site_fract_y
  _atom_site_fract_z
C1 C 0.22328 0.49594 0.46142
 C2 C 0.22317 0.49410 0.54971
 C3 C 0.24355 0.49055 0.58883
 C4 C 0.26561 0.49170 0.54478
 C5 C 0.26626 0.49466 0.45778
 C6 C 0.24543 0.49684 0.41776
 H7 H 0.24555 0.49696 0.35092
 H8 H 0.24395 0.48994 0.65564
 C9 C 0.49918 -0.27486 0.45927
 C10 C 0.49696 -0.27523 0.54658
 C11 C 0.49796 -0.25293 0.58782
 C12 C 0.50192 -0.22934 0.54540
 C13 C 0.50334 -0.22927 0.45743
 C14 C 0.50252 -0.25164 0.41645
 H15 H 0.50296 -0.25152 0.34958
 H16 H 0.49799 -0.25323 0.65467
 C17 C 1.27351 0.77580 0.45537
 C18 C 1.27418 0.77392 0.54288
 C19 C 1.25241 0.75208 0.58444
 C20 C 1.22960 0.73220 0.54154
 C21 C 1.22843 0.73404 0.45488
 C22 C 1.25017 0.75592 0.41299
 H23 H 1.24926 0.75667 0.34631
 H24 H 1.25256 0.75132 0.65129
 C25 C 0.76762 0.49741 0.45613
 C26 C 0.77049 0.50169 0.54282
 C27 C 0.75026 0.50446 0.58597
 C28 C 0.72669 0.50159 0.54631
 C29 C 0.72417 0.49709 0.45962
 C30 C 0.74443 0.49480 0.41620
 H31 H 0.74314 0.49300 0.34953
 H32 H 0.75181 0.50670 0.65244
 C33 C 0.50505 0.27199 0.45833
 C34 C 0.50095 0.26974 0.54526
 C35 C 0.49964 0.24695 0.58595
 C36 C 0.50347 0.22727 0.54353
 C37 C 0.50757 0.23001 0.45671
 C38 C 0.50871 0.25244 0.41581
 H39 H 0.51027 0.25350 0.34905
 H40 H 0.49765 0.24558 0.65252
 C41 C 0.73583 0.22609 0.46032
 C42 C 0.73583 0.22661 0.54721
 C43 C 0.75765 0.24822 0.58910
 C44 C 0.77975 0.26997 0.54637
 C45 C 0.77863 0.26988 0.45816
 C46 C 0.75710 0.24770 0.41701
 H47 H 0.75650 0.24755 0.35013
 H48 H 0.75780 0.24711 0.65578
 N49 N 0.97151 0.51558 -0.14775
 N50 N 0.95065 0.50687 -0.19883
 N51 N 1.02835 0.56209 -0.09045
 N52 N 1.04903 0.58724 -0.10143
 N53 N 1.02918 0.54538 -0.14532
 N54 N 1.05060 0.55857 -0.19433
 N55 N 0.97067 0.53218 -0.09249
 N56 N 0.94913 0.53526 -0.10486
 C57 C 0.93686 0.51931 -0.17163
 C58 C 1.06273 0.58465 -0.16643
 N59 N 1.02772 0.54623 0.14525
 N60 N 1.04866 0.55966 0.19549
 N61 N 0.96999 0.53301 0.08569
 N62 N 0.94869 0.53665 0.09438
 N63 N 0.96984 0.51639 0.14285
 N64 N 0.94815 0.50783 0.19100
 N65 N 1.02758 0.56264 0.08784
 N66 N 1.04832 0.58779 0.09808
 Mn67 Mn 0.99914 0.54782 -0.00238
 C68 C 1.06128 0.58557 0.16559
 C69 C 0.93525 0.52074 0.16018
 N70 N 1.03030 0.49511 -0.14209
 N71 N 1.05198 0.50392 -0.19018
 N72 N 0.97251 0.44901 -0.08569
 N73 N 0.95206 0.42374 -0.09574
 N74 N 0.97279 0.46503 -0.14505
 N75 N 0.95286 0.45098 -0.19815
 N76 N 1.03046 0.47881 -0.08449
 N77 N 1.05235 0.47604 -0.09207
 Mn78 Mn 1.00093 0.50529 -0.14595
 C79 C 1.06556 0.49185 -0.15852
 C80 C 0.94007 0.42533 -0.16619
 N81 N 0.97115 0.46621 0.14692
 N82 N 0.94960 0.45319 0.19546
 N83 N 1.02962 0.47944 0.09267
 N84 N 1.05067 0.47563 0.10458
 N85 N 1.02872 0.49552 0.14970
 N86 N 1.04890 0.50271 0.20301
 N87 N 0.97176 0.44953 0.09159
 N88 N 0.95060 0.42458 0.10130
 Mn89 Mn 0.99938 0.50613 0.14716
 Mn90 Mn 1.00109 0.46388 0.00355
 Cl91 Cl 1.00014 0.50578 0.00062
 C92 C 0.93698 0.42722 0.16652
 C93 C 1.06244 0.49025 0.17357
 N94 N 0.52097 0.55066 0.09338
 N95 N 0.52412 0.57531 0.10485
 N96 N 0.53426 0.50535 0.14804
 N97 N 0.54766 0.49756 0.19779
 N98 N 0.55096 0.52302 0.09329
 N99 N 0.57628 0.52811 0.10511
 N100 N 0.50448 0.53347 0.14941
 N101 N 0.49586 0.54585 0.20017
 C102 C 0.50828 0.57195 0.17185
 C103 C 0.57384 0.51200 0.17029
 N104 N 0.46698 0.43735 0.08916
 N105 N 0.46316 0.41239 0.09885
 N106 N 0.45391 0.48220 0.14661
 N107 N 0.44036 0.48993 0.19606
 N108 N 0.43755 0.46544 0.08976
 N109 N 0.41231 0.46084 0.09997
 N110 N 0.48377 0.45394 0.14554
 N111 N 0.49226 0.44088 0.19418
 Mn112 Mn 0.49410 0.49371 0.14844
 C113 C 0.47913 0.41500 0.16449
 C114 C 0.41445 0.47633 0.16637
 N115 N 0.55171 0.52369 -0.08443
 N116 N 0.57693 0.52819 -0.09437
 N117 N 0.50544 0.53494 -0.14144
 N118 N 0.49711 0.54791 -0.19104
 N119 N 0.52198 0.55161 -0.08476
 N120 N 0.52581 0.57655 -0.09522
 N121 N 0.53545 0.50706 -0.14161
 N122 N 0.54910 0.49972 -0.19178
 Mn123 Mn 0.53670 0.53757 0.00439
 C124 C 0.57496 0.51307 -0.16172
 C125 C 0.51007 0.57382 -0.16158
 N126 N 0.43836 0.46661 -0.08847
 N127 N 0.41342 0.46283 -0.09985
 N128 N 0.48493 0.45548 -0.14406
 N129 N 0.49346 0.44284 -0.19425
 N130 N 0.46800 0.43839 -0.08859
 N131 N 0.46455 0.41362 -0.09962
 N132 N 0.45533 0.48349 -0.14421
 N133 N 0.44257 0.49172 -0.19461
 Mn134 Mn 0.45239 0.45164 0.00041
 Mn135 Mn 0.49531 0.49523 -0.14374
 Cl136 Cl 0.49462 0.49454 0.00242
 C137 C 0.41646 0.47870 -0.16657
 C138 C 0.48057 0.41672 -0.16591
 N139 N 0.44851 -0.02741 0.09153
 N140 N 0.42372 -0.04871 0.10295
 N141 N 0.49484 0.03100 0.14196
 N142 N 0.50327 0.05275 0.18951
 N143 N 0.47756 0.03020 0.08622
 N144 N 0.47335 0.05112 0.09524
 N145 N 0.46543 -0.02675 0.14835
 N146 N 0.45271 -0.04755 0.19964
 C147 C 0.42670 -0.06105 0.17090
 C148 C 0.48963 0.06502 0.15968
 N149 N 0.56180 0.02941 0.08666
 N150 N 0.58708 0.04993 0.09666
 N151 N 0.51610 -0.02752 0.14891
 N152 N 0.50762 -0.04861 0.19957
 N153 N 0.53246 -0.02818 0.09235
 N154 N 0.53568 -0.04964 0.10317
 N155 N 0.54541 0.03026 0.14276
 N156 N 0.55894 0.05150 0.19183
 Mn157 Mn 0.50544 0.00177 0.14648
 C158 C 0.58490 0.06358 0.16242
 C159 C 0.52011 -0.06219 0.17044
 N160 N 0.47697 0.02851 -0.09168
 N161 N 0.47375 0.04997 -0.10367
 N162 N 0.46411 -0.03025 -0.14198
 N163 N 0.45044 -0.05167 -0.19050
 N164 N 0.44772 -0.02904 -0.08648
 N165 N 0.42235 -0.04930 -0.09667
 N166 N 0.49319 0.02753 -0.14821
 N167 N 0.50152 0.04829 -0.19984
 Mn168 Mn 0.46237 0.00057 -0.00009
 C169 C 0.48920 0.06208 -0.17163
 C170 C 0.42445 -0.06329 -0.16144
 N171 N 0.53157 -0.03019 -0.08478
 N172 N 0.53575 -0.05114 -0.09381
 N173 N 0.54408 0.02729 -0.14759
 N174 N 0.55692 0.04825 -0.19842
 N175 N 0.56099 0.02751 -0.09145
 N176 N 0.58593 0.04847 -0.10330
 N177 N 0.51524 -0.03028 -0.14269
 N178 N 0.50816 -0.05102 -0.19350
 Mn179 Mn 0.54702 -0.00036 0.00069
 Mn180 Mn 0.50412 -0.00146 -0.14607
 Cl181 Cl 0.50474 0.00013 0.00023
 C182 C 0.52100 -0.06385 -0.16188
 C183 C 0.58302 0.06119 -0.17034
 C184 C 1.15665 0.49356 0.32821
 C185 C 1.15190 0.47880 0.40268
 C186 C 1.17361 0.47817 0.44292
 C187 C 1.20093 0.49442 0.41557
 C188 C 1.20544 0.50919 0.34139
 C189 C 1.18369 0.50865 0.29820
 C190 C 1.13272 0.49309 0.28606
 C191 C 1.13449 0.50407 0.20657
 C192 C 1.11151 0.50303 0.17004
 C193 C 1.08659 0.49172 0.21274
 C194 C 1.08443 0.48056 0.29133
 C195 C 1.10706 0.48042 0.32720
 C196 C 1.12569 0.46552 0.43829
 C197 C 1.10394 0.46697 0.40254
 H198 H 1.12214 0.45454 0.49609
 H199 H 1.08422 0.45694 0.43354
 H200 H 1.16908 0.46516 0.49669
 H201 H 1.22600 0.52234 0.31815
 H202 H 1.11321 0.51128 0.10852
 H203 H 1.06484 0.47111 0.32314
 H204 H 1.18862 0.52098 0.24307
 H205 H 1.15323 0.51301 0.17111
 C206 C 0.49743 0.65828 0.33140
 C207 C 0.51561 0.68554 0.30613
 C208 C 0.51557 0.70754 0.34700
 C209 C 0.49793 0.70293 0.41442
 C210 C 0.47888 0.67568 0.43555
 C211 C 0.47867 0.65375 0.39526
 C212 C 0.49906 0.63544 0.28930
 C213 C 0.48280 0.60778 0.31298
 C214 C 0.48574 0.58735 0.27397
 C215 C 0.50485 0.59384 0.21020
 C216 C 0.52089 0.62123 0.18507
 C217 C 0.51830 0.64206 0.22458
 C218 C 0.53400 0.69071 0.24108
 C219 C 0.53521 0.66943 0.20088
 H220 H 0.54784 0.71157 0.22125
 H221 H 0.54992 0.67454 0.15130
 H222 H 0.53035 0.72834 0.32883
 H223 H 0.46336 0.67115 0.48188
 H224 H 0.47304 0.56634 0.29431
 H225 H 0.53578 0.62643 0.13593
 H226 H 0.46353 0.63345 0.41502
 H227 H 0.46797 0.60145 0.36220
 C228 C 0.34015 -0.15866 0.32812
 C229 C 0.31286 -0.16758 0.30350
 C230 C 0.29085 -0.18978 0.34403
 C231 C 0.29556 -0.20310 0.41036
 C232 C 0.32281 -0.19518 0.43031
 C233 C 0.34473 -0.17330 0.39046
 C234 C 0.36299 -0.13398 0.28683
 C235 C 0.39061 -0.12262 0.31075
 C236 C 0.41108 -0.09913 0.27235
 C237 C 0.40468 -0.08634 0.20896
 C238 C 0.37730 -0.09758 0.18383
 C239 C 0.35642 -0.12111 0.22285
 C240 C 0.30772 -0.15404 0.23939
 C241 C 0.32903 -0.13145 0.19951
 H242 H 0.28685 -0.16094 0.21997
 H243 H 0.32395 -0.12164 0.15055
 H244 H 0.27003 -0.19569 0.32657
 H245 H 0.32734 -0.20653 0.47529
 H246 H 0.43206 -0.09089 0.29277
 H247 H 0.37217 -0.08772 0.13510
 H248 H 0.36505 -0.16839 0.40924
 H249 H 0.39690 -0.13123 0.35971
 C250 C 0.83761 0.50987 0.31451
 C251 C 0.81544 0.48302 0.32784
 C252 C 0.79171 0.47910 0.36877
 C253 C 0.79095 0.50144 0.40385
 C254 C 0.81317 0.52793 0.39273
 C255 C 0.83612 0.53221 0.34771
 C256 C 0.86244 0.51326 0.27001
 C257 C 0.88383 0.53895 0.24343
 C258 C 0.90714 0.54117 0.20539
 C259 C 0.90986 0.51797 0.19489
 C260 C 0.88835 0.49218 0.21843
 C261 C 0.86430 0.48957 0.25339
 C262 C 0.81776 0.46030 0.30445
 C263 C 0.84202 0.46351 0.27054
 H264 H 0.80098 0.43972 0.31566
 H265 H 0.84320 0.44532 0.25640
 H266 H 0.77459 0.45858 0.37846
 H267 H 0.81281 0.54533 0.41989
 H268 H 0.92345 0.56117 0.18628
 H269 H 0.89017 0.47411 0.20802
 H270 H 0.85288 0.55299 0.34225
 H271 H 0.88281 0.55747 0.25087
 C272 C 0.49087 0.32909 0.32081
 C273 C 0.51776 0.33322 0.32827
 C274 C 0.52209 0.31365 0.36888
 C275 C 0.50026 0.29120 0.40825
 C276 C 0.47379 0.28748 0.40289
 C277 C 0.46903 0.30602 0.35903
 C278 C 0.48705 0.35026 0.27627
 C279 C 0.46102 0.34645 0.25597
 C280 C 0.45856 0.36729 0.21720
 C281 C 0.48190 0.39249 0.19978
 C282 C 0.50793 0.39625 0.21714
 C283 C 0.51068 0.37501 0.25278
 C284 C 0.54021 0.35741 0.29864
 C285 C 0.53679 0.37817 0.26377
 H286 H 0.56083 0.36075 0.30504
 H287 H 0.55483 0.39680 0.24381
 H288 H 0.54262 0.31668 0.37436
 H289 H 0.45680 0.27023 0.43347
 H290 H 0.43834 0.36403 0.20294
 H291 H 0.52602 0.41555 0.20144
 H292 H 0.44832 0.30244 0.35797
 H293 H 0.44240 0.32749 0.26890
 C294 C 0.67402 0.15780 0.32310
 C295 C 0.66713 0.17512 0.36793
 C296 C 0.68752 0.19784 0.41048
 C297 C 0.71447 0.20276 0.41301
 C298 C 0.72129 0.18553 0.36950
 C299 C 0.70138 0.16333 0.32482
 C300 C 0.65169 0.13395 0.27754
 C301 C 0.65667 0.11675 0.22587
 C302 C 0.63500 0.09427 0.18686
 C303 C 0.60792 0.08825 0.19922
 C304 C 0.60279 0.10566 0.24852
 C305 C 0.62443 0.12863 0.28653
 C306 C 0.63990 0.16935 0.37150
 C307 C 0.61893 0.14632 0.33291
 H308 H 0.63461 0.18251 0.40625
 H309 H 0.59809 0.14242 0.33896
 H310 H 0.68241 0.21164 0.44207
 H311 H 0.74212 0.18920 0.37068
 H312 H 0.63940 0.08121 0.14838
 H313 H 0.58189 0.10141 0.25686
 H314 H 0.70772 0.15054 0.29335
 H315 H 0.67708 0.12031 0.21461
 C316 C 0.50217 0.16038 -0.32982
 C317 C 0.48367 0.16939 -0.30712
 C318 C 0.48454 0.19193 -0.34766
 C319 C 0.50347 0.20559 -0.41185
 C320 C 0.52288 0.19755 -0.42963
 C321 C 0.52220 0.17529 -0.38997
 C322 C 0.49970 0.13542 -0.28856
 C323 C 0.51593 0.12385 -0.31119
 C324 C 0.51245 0.10022 -0.27256
 C325 C 0.49282 0.08746 -0.21018
 C326 C 0.47661 0.09883 -0.18658
 C327 C 0.47969 0.12249 -0.22596
 C328 C 0.46430 0.15570 -0.24466
 C329 C 0.46253 0.13293 -0.20441
 H330 H 0.45024 0.16267 -0.22665
 H331 H 0.44717 0.12306 -0.15661
 H332 H 0.46955 0.19793 -0.33173
 H333 H 0.53944 0.20916 -0.47245
 H334 H 0.52522 0.09185 -0.29193
 H335 H 0.46123 0.08896 -0.13879
 H336 H 0.53776 0.17035 -0.40690
 H337 H 0.53115 0.13243 -0.35937
 C338 C 0.66475 0.50665 -0.31614
 C339 C 0.65765 0.48683 -0.37892
 C340 C 0.67815 0.48473 -0.42171
 C341 C 0.70611 0.50283 -0.40628
 C342 C 0.71304 0.52186 -0.34173
 C343 C 0.69273 0.52384 -0.29757
 C344 C 0.64210 0.50846 -0.27288
 C345 C 0.64682 0.52729 -0.20898
 C346 C 0.62499 0.52855 -0.17218
 C347 C 0.59801 0.51121 -0.19840
 C348 C 0.59304 0.49211 -0.26092
 C349 C 0.61474 0.49054 -0.29796
 C350 C 0.63012 0.46930 -0.39940
 C351 C 0.60913 0.47120 -0.36008
 H352 H 0.62472 0.45411 -0.44753
 H353 H 0.58817 0.45738 -0.37888
 H354 H 0.67217 0.46826 -0.46551
 H355 H 0.73430 0.53617 -0.32744
 H356 H 0.62930 0.54338 -0.12373
 H357 H 0.57219 0.47842 -0.28103
 H358 H 0.69943 0.53927 -0.25018
 H359 H 0.66716 0.54129 -0.18674
 C360 C 0.84660 0.33356 -0.31979
 C361 C 0.85098 0.32518 -0.39765
 C362 C 0.82934 0.30297 -0.43829
 C363 C 0.80224 0.29057 -0.40788
 C364 C 0.79809 0.29934 -0.33041
 C365 C 0.81988 0.32029 -0.28684
 C366 C 0.87050 0.35687 -0.27731
 C367 C 0.86936 0.36435 -0.19503
 C368 C 0.89220 0.38642 -0.15864
 C369 C 0.91629 0.40188 -0.20414
 C370 C 0.91786 0.39447 -0.28544
 C371 C 0.89548 0.37156 -0.32135
 C372 C 0.87668 0.33961 -0.43607
 C373 C 0.89820 0.36283 -0.39986
 H374 H 0.87993 0.33344 -0.49643
 H375 H 0.91744 0.37378 -0.43312
 H376 H 0.83388 0.29545 -0.49405
 H377 H 0.77773 0.29099 -0.30447
 H378 H 0.89094 0.39173 -0.09521
 H379 H 0.93684 0.40605 -0.31969
 H380 H 0.81521 0.32651 -0.22897
 H381 H 0.85122 0.35313 -0.15753
 C382 C 0.51122 -0.16058 -0.31732
 C383 C 0.52608 -0.15670 -0.39121
 C384 C 0.52421 -0.17931 -0.43322
 C385 C 0.50557 -0.20634 -0.40803
 C386 C 0.49069 -0.20995 -0.33455
 C387 C 0.49356 -0.18750 -0.28973
 C388 C 0.51427 -0.13582 -0.27337
 C389 C 0.50292 -0.13712 -0.19471
 C390 C 0.50575 -0.11347 -0.15751
 C391 C 0.51949 -0.08829 -0.19853
 C392 C 0.53143 -0.08653 -0.27562
 C393 C 0.52954 -0.10995 -0.31234
 C394 C 0.54205 -0.13036 -0.42436
 C395 C 0.54313 -0.10758 -0.38692
 H396 H 0.55315 -0.12744 -0.48163
 H397 H 0.55512 -0.08773 -0.41621
 H398 H 0.53745 -0.17563 -0.48589
 H399 H 0.47577 -0.23022 -0.31302
 H400 H 0.49670 -0.11491 -0.09737
 H401 H 0.54251 -0.06681 -0.30633
 H402 H 0.48106 -0.19169 -0.23523
 H403 H 0.49201 -0.15609 -0.16081
 C404 C 0.33098 0.49042 -0.32795
 C405 C 0.30351 0.47235 -0.30416
 C406 C 0.28189 0.47315 -0.34520
 C407 C 0.28720 0.49140 -0.41135
 C408 C 0.31462 0.51020 -0.43108
 C409 C 0.33613 0.50968 -0.39068
 C410 C 0.35343 0.48830 -0.28528
 C411 C 0.38121 0.50464 -0.30739
 C412 C 0.40136 0.50149 -0.26777
 C413 C 0.39452 0.48201 -0.20494
 C414 C 0.36696 0.46579 -0.18137
 C415 C 0.34636 0.46866 -0.22156
 C416 C 0.29783 0.45347 -0.24019
 C417 C 0.31879 0.45175 -0.19953
 H418 H 0.27682 0.43969 -0.22150
 H419 H 0.31330 0.43671 -0.15076
 H420 H 0.26089 0.45870 -0.32792
 H421 H 0.31963 0.52625 -0.47585
 H422 H 0.42248 0.51435 -0.28699
 H423 H 0.36150 0.45062 -0.13297
 H424 H 0.35659 0.52478 -0.40928
 H425 H 0.38793 0.51978 -0.35577
 C426 C 1.15935 0.67215 -0.32363
 C427 C 1.17898 0.66562 -0.35436
 C428 C 1.20261 0.68574 -0.39462
 C429 C 1.20589 0.71165 -0.41051
 C430 C 1.18620 0.71795 -0.38221
 C431 C 1.16326 0.69854 -0.33860
 C432 C 1.13473 0.65030 -0.27931
 C433 C 1.11571 0.65548 -0.23799
 C434 C 1.09266 0.63421 -0.19957
 C435 C 1.08782 0.60731 -0.20275
 C436 C 1.10696 0.60202 -0.24163
 C437 C 1.13066 0.62338 -0.27803
 C438 C 1.17443 0.63887 -0.34735
 C439 C 1.15044 0.61803 -0.31192
 H440 H 1.18927 0.63378 -0.37183
 H441 H 1.14751 0.59749 -0.30994
 H442 H 1.21802 0.68100 -0.41615
 H443 H 1.18855 0.73793 -0.39443
 H444 H 1.07823 0.63870 -0.16894
 H445 H 1.10361 0.58130 -0.24232
 H446 H 1.14852 0.70433 -0.31910
 H447 H 1.11840 0.67581 -0.23411
 C448 C 0.83836 0.50496 -0.33135
 C449 C 0.82869 0.52289 -0.30858
 C450 C 0.80590 0.52146 -0.34908
 C451 C 0.79265 0.50251 -0.41325
 C452 C 0.80145 0.48372 -0.43134
 C453 C 0.82395 0.48496 -0.39173
 C454 C 0.86344 0.50789 -0.28979
 C455 C 0.87553 0.49214 -0.31224
 C456 C 0.89917 0.49592 -0.27313
 C457 C 0.91146 0.51544 -0.21051
 C458 C 0.89962 0.53124 -0.18720
 C459 C 0.87588 0.52781 -0.22699
 C460 C 0.84193 0.54223 -0.24599
 C461 C 0.86486 0.54446 -0.20557
 H462 H 0.83447 0.55588 -0.22798
 H463 H 0.87436 0.55975 -0.15763
 H464 H 0.79931 0.53598 -0.33297
 H465 H 0.79023 0.46716 -0.47423
 H466 H 0.90791 0.48349 -0.29240
 H467 H 0.90912 0.54653 -0.13923
 H468 H 0.82943 0.46981 -0.40884
 H469 H 0.86735 0.47703 -0.36057
 C470 C 0.49221 0.32988 -0.31950
 C471 C 0.51169 0.33773 -0.38389
 C472 C 0.51498 0.31788 -0.42624
 C473 C 0.49851 0.28979 -0.40823
 C474 C 0.47986 0.28221 -0.34210
 C475 C 0.47665 0.30188 -0.29867
 C476 C 0.48902 0.35180 -0.27684
 C477 C 0.47019 0.34625 -0.21205
 C478 C 0.46766 0.36737 -0.17561
 C479 C 0.48372 0.39448 -0.20295
 C480 C 0.50275 0.40029 -0.26659
 C481 C 0.50555 0.37928 -0.30347
 C482 C 0.52774 0.36536 -0.40621
 C483 C 0.52469 0.38567 -0.36702
 H484 H 0.54270 0.37135 -0.45550
 H485 H 0.53743 0.40672 -0.38711
 H486 H 0.53112 0.32454 -0.47185
 H487 H 0.46672 0.26086 -0.32592
 H488 H 0.45288 0.36240 -0.12636
 H489 H 0.51542 0.42123 -0.28775
 H490 H 0.46159 0.29464 -0.24990
 H491 H 0.45715 0.32579 -0.18881
 C492 C 0.67030 0.15936 -0.32216
 C493 C 0.69629 0.16126 -0.32871
 C494 C 0.71772 0.18337 -0.37114
 C495 C 0.71381 0.20412 -0.40448
 C496 C 0.68888 0.20343 -0.39191
 C497 C 0.66718 0.18115 -0.35218
 C498 C 0.64737 0.13441 -0.28233
 C499 C 0.61995 0.12865 -0.28389
 C500 C 0.59917 0.10480 -0.24757
 C501 C 0.60526 0.08643 -0.20746
 C502 C 0.63243 0.09188 -0.20549
 C503 C 0.65335 0.11528 -0.24476
 C504 C 0.70075 0.14124 -0.29225
 C505 C 0.67992 0.11913 -0.24932
 H506 H 0.72075 0.14288 -0.29609
 H507 H 0.68449 0.10436 -0.22135
 H508 H 0.73739 0.18445 -0.37868
 H509 H 0.68606 0.21999 -0.41421
 H510 H 0.57824 0.10078 -0.25033
 H511 H 0.63707 0.07735 -0.17621
 H512 H 0.64829 0.18148 -0.34492
 H513 H 0.61406 0.14194 -0.31449
 C514 C 1.16335 0.50192 -0.31167
 C515 C 1.17140 0.48282 -0.28740
 C516 C 1.19228 0.48133 -0.33058
 C517 C 1.20490 0.49815 -0.39978
 C518 C 1.19829 0.51853 -0.41907
 C519 C 1.17781 0.52036 -0.37607
 C520 C 1.13923 0.50107 -0.26938
 C521 C 1.12841 0.51783 -0.29334
 C522 C 1.10482 0.51501 -0.25596
 C523 C 1.09146 0.49559 -0.19342
 C524 C 1.10247 0.47936 -0.16712
 C525 C 1.12602 0.48173 -0.20526
 C526 C 1.15794 0.46469 -0.22201
 C527 C 1.13586 0.46428 -0.18147
 H528 H 1.16427 0.45024 -0.20277
 H529 H 1.12587 0.44956 -0.13215
 H530 H 1.19718 0.46560 -0.31393
 H531 H 1.20871 0.53288 -0.46890
 H532 H 1.09684 0.52794 -0.27697
 H533 H 1.09222 0.46427 -0.11883
 H534 H 1.17337 0.53607 -0.39532
 H535 H 1.13742 0.53283 -0.34195
 C536 C 0.50032 0.66146 -0.31445
 C537 C 0.52435 0.68289 -0.35097
 C538 C 0.52302 0.70341 -0.39640
 C539 C 0.49832 0.70367 -0.40235
 C540 C 0.47514 0.68395 -0.35988
 C541 C 0.47594 0.66275 -0.31740
 C542 C 0.50208 0.63859 -0.27305
 C543 C 0.47870 0.61402 -0.24828
 C544 C 0.48140 0.59293 -0.21228
 C545 C 0.50741 0.59626 -0.19791
 C546 C 0.53081 0.62053 -0.22219
 C547 C 0.52828 0.64126 -0.26242
 C548 C 0.54955 0.68388 -0.34089
 C549 C 0.55160 0.66396 -0.29528
 H550 H 0.56805 0.70056 -0.36756
 H551 H 0.57163 0.66586 -0.28816
 H552 H 0.54118 0.71932 -0.42696
 H553 H 0.45614 0.68441 -0.36237
 H554 H 0.46315 0.57403 -0.19497
 H555 H 0.55088 0.62266 -0.21326
 H556 H 0.45743 0.64770 -0.28685
 H557 H 0.45821 0.61044 -0.25841
 C558 C 0.33465 -0.15729 -0.31894
 C559 C 0.33697 -0.18106 -0.32813
 C560 C 0.31621 -0.20421 -0.36842
 C561 C 0.29450 -0.20301 -0.40654
 C562 C 0.29263 -0.17922 -0.39969
 C563 C 0.31226 -0.15670 -0.35561
 C564 C 0.35695 -0.13319 -0.27450
 C565 C 0.35475 -0.11021 -0.25174
 C566 C 0.37653 -0.08782 -0.21293
 C567 C 0.40112 -0.08761 -0.19788
 C568 C 0.40331 -0.11064 -0.21791
 C569 C 0.38107 -0.13377 -0.25357
 C570 C 0.36062 -0.18103 -0.30096
 C571 C 0.38257 -0.15758 -0.26692
 H572 H 0.36262 -0.19906 -0.30900
 H573 H 0.40082 -0.15826 -0.24950
 H574 H 0.31778 -0.22255 -0.37494
 H575 H 0.27598 -0.17806 -0.42930
 H576 H 0.37445 -0.07030 -0.19656
 H577 H 0.42211 -0.11074 -0.20395
 H578 H 0.31009 -0.13872 -0.35336
 H579 H 0.33631 -0.10929 -0.26259
 C580 C 0.50892 -0.16132 0.31808
 C581 C 0.48796 -0.17479 0.37778
 C582 C 0.48512 -0.19799 0.41927
 C583 C 0.50383 -0.20719 0.40550
 C584 C 0.52421 -0.19420 0.34521
 C585 C 0.52671 -0.17164 0.30180
 C586 C 0.51178 -0.13614 0.27689
 C587 C 0.53139 -0.12176 0.21491
 C588 C 0.53382 -0.09795 0.18022
 C589 C 0.51690 -0.08775 0.20653
 C590 C 0.49694 -0.10214 0.26707
 C591 C 0.49412 -0.12631 0.30184
 C592 C 0.47059 -0.16448 0.39779
 C593 C 0.47377 -0.14063 0.36123
 H594 H 0.45462 -0.17471 0.44373
 H595 H 0.46008 -0.13325 0.37988
 H596 H 0.46914 -0.20816 0.46527
 H597 H 0.53887 -0.20096 0.33372
 H598 H 0.54923 -0.08733 0.13310
 H599 H 0.48349 -0.09460 0.28695
 H600 H 0.54318 -0.16218 0.25759
 H601 H 0.54506 -0.12850 0.19220
 C602 C 0.32541 0.48369 0.31961
 C603 C 0.32861 0.51015 0.32869
 C604 C 0.30814 0.51335 0.36821
 C605 C 0.28584 0.49087 0.40601
 C606 C 0.28302 0.46481 0.39902
 C607 C 0.30235 0.46112 0.35543
 C608 C 0.34755 0.48108 0.27646
 C609 C 0.34465 0.45559 0.25391
 C610 C 0.36627 0.45422 0.21624
 C611 C 0.39138 0.47809 0.20225
 C612 C 0.39431 0.50361 0.22226
 C613 C 0.37227 0.50531 0.25667
 C614 C 0.35287 0.53330 0.30256
 C615 C 0.37458 0.53098 0.26980
 H616 H 0.35554 0.55360 0.31056
 H617 H 0.39331 0.54955 0.25326
 H618 H 0.31048 0.53357 0.37494
 H619 H 0.26594 0.44732 0.42844
 H620 H 0.36362 0.43439 0.19982
 H621 H 0.41353 0.52215 0.20912
 H622 H 0.29946 0.44070 0.35316
 H623 H 0.32577 0.43659 0.26398
 C624 C 1.15824 0.67361 0.32013
 C625 C 1.17453 0.66591 0.36707
 C626 C 1.19799 0.68590 0.40766
 C627 C 1.20468 0.71341 0.40689
 C628 C 1.18860 0.72114 0.36084
 C629 C 1.16568 0.70154 0.31760
 C630 C 1.13348 0.65155 0.27692
 C631 C 1.11700 0.65705 0.22359
 C632 C 1.09381 0.63564 0.18625
 C633 C 1.08633 0.60831 0.20203
 C634 C 1.10285 0.60262 0.25362
 C635 C 1.12649 0.62393 0.28992
 C636 C 1.16700 0.63826 0.37496
 C637 C 1.14324 0.61770 0.33839
 H638 H 1.17936 0.63239 0.41153
 H639 H 1.13802 0.59656 0.34766
 H640 H 1.21097 0.68001 0.44068
 H641 H 1.19361 0.74238 0.35930
 H642 H 1.08144 0.64046 0.14604
 H643 H 1.09746 0.58152 0.26481
 H644 H 1.15380 0.70857 0.28409
 H645 H 1.12174 0.67769 0.20964
 C646 C 0.49755 0.16096 0.31585
 C647 C 0.52412 0.18348 0.32998
 C648 C 0.52727 0.20687 0.37089
 C649 C 0.50443 0.20693 0.40522
 C650 C 0.47824 0.18434 0.39349
 C651 C 0.47472 0.16172 0.34848
 C652 C 0.49496 0.13658 0.27096
 C653 C 0.46960 0.11498 0.24335
 C654 C 0.46811 0.09211 0.20486
 C655 C 0.49171 0.09003 0.19485
 C656 C 0.51719 0.11176 0.21943
 C657 C 0.51908 0.13539 0.25491
 C658 C 0.54730 0.18184 0.30726
 C659 C 0.54482 0.15795 0.27307
 H660 H 0.56767 0.19887 0.31915
 H661 H 0.56335 0.15729 0.25940
 H662 H 0.54756 0.22430 0.38092
 H663 H 0.46046 0.18416 0.42003
 H664 H 0.44835 0.07563 0.18500
 H665 H 0.53557 0.11045 0.20943
 H666 H 0.45413 0.14466 0.34247
 H667 H 0.45080 0.11552 0.25030
 C668 C 0.66332 0.50630 0.32592
 C669 C 0.66014 0.47995 0.33798
 C670 C 0.68097 0.47719 0.37658
 C671 C 0.70370 0.50013 0.41050
 C672 C 0.70646 0.52610 0.40101
 C673 C 0.68670 0.52927 0.35836
 C674 C 0.64096 0.50845 0.28284
 C675 C 0.64382 0.53367 0.25706
 C676 C 0.62210 0.53463 0.21886
 C677 C 0.59692 0.51063 0.20745
 C678 C 0.59399 0.48535 0.23096
 C679 C 0.61612 0.48403 0.26602
 C680 C 0.63566 0.45653 0.31526
 C681 C 0.61380 0.45853 0.28250
 H682 H 0.63298 0.43632 0.32566
 H683 H 0.59498 0.43983 0.26836
 H684 H 0.67871 0.45706 0.38529
 H685 H 0.72390 0.54393 0.42740
 H686 H 0.62475 0.55427 0.19981
 H687 H 0.57472 0.46669 0.21983
 H688 H 0.68960 0.54967 0.35388
 H689 H 0.66277 0.55276 0.26483
 C690 C 0.84032 0.33855 0.32103
 C691 C 0.83410 0.31154 0.30157
 C692 C 0.81314 0.28917 0.34416
 C693 C 0.79831 0.29329 0.40654
 C694 C 0.80323 0.31983 0.42210
 C695 C 0.82405 0.34225 0.38021
 C696 C 0.86435 0.36198 0.27904
 C697 C 0.87353 0.38958 0.29875
 C698 C 0.89688 0.41062 0.26114
 C699 C 0.91156 0.40477 0.20251
 C700 C 0.90228 0.37744 0.18084
 C701 C 0.87907 0.35604 0.21940
 C702 C 0.84922 0.30704 0.24115
 C703 C 0.87107 0.32881 0.20039
 H704 H 0.84428 0.28635 0.22570
 H705 H 0.88228 0.32424 0.15467
 H706 H 0.80912 0.26858 0.33140
 H707 H 0.79152 0.32327 0.46889
 H708 H 0.90357 0.43160 0.27858
 H709 H 0.91361 0.37276 0.13580
 H710 H 0.82728 0.36224 0.39601
 H711 H 0.86337 0.39541 0.34410
   
