data_POSCAR
  _audit_creation_date              2014-09-24
  _audit_creation_method            'ToBaCCo'
  _symmetry_space_group_name_H-M    'P1'
  _symmetry_Int_Tables_number       1
  _symmetry_cell_setting            triclinic
  loop_
  _symmetry_equiv_pos_as_xyz
 x,y,z
_cell_length_a 48.4888
_cell_length_b 48.8121
_cell_length_c 48.5049
_cell_angle_alpha 89.857100
_cell_angle_beta 90.300200
_cell_angle_gamma 90.084000
loop_
  _atom_site_label
  _atom_site_type_symbol
  _atom_site_fract_x
  _atom_site_fract_y
  _atom_site_fract_z
C1 C 0.17783 1.21743 0.21126
 C2 C 0.16584 1.24054 0.19879
 C3 C 0.17689 1.25210 0.17444
 C4 C 0.20082 1.23994 0.16327
 C5 C 0.21300 1.21689 0.17558
 C6 C 0.20148 1.20559 0.19967
 C7 C 0.16611 1.20577 0.23496
 C8 C 0.17757 1.18215 0.24751
 C9 C 0.20159 1.17082 0.23568
 C10 C 0.21346 1.18228 0.21199
 C11 C 0.23682 1.17031 0.20003
 C12 C 0.24838 1.18135 0.17591
 C13 C 0.23644 1.20480 0.16395
 H14 H 0.14695 1.24841 0.20750
 H15 H 0.21075 1.24873 0.14538
 H16 H 0.14849 1.21588 0.24396
 H17 H 0.21051 1.15217 0.24385
 H18 H 0.24563 1.15199 0.20916
 H19 H 0.24540 1.21363 0.14553
 C20 C 0.82352 0.78413 0.21567
 C21 C 0.83457 0.76059 0.20342
 C22 C 0.82234 0.74878 0.17970
 C23 C 0.79813 0.76109 0.16900
 C24 C 0.78682 0.78455 0.18116
 C25 C 0.79959 0.79614 0.20455
 C26 C 0.83631 0.79589 0.23882
 C27 C 0.82583 0.81996 0.25112
 C28 C 0.80157 0.83154 0.23973
 C29 C 0.78858 0.81991 0.21663
 C30 C 0.76503 0.83215 0.20506
 C31 C 0.75235 0.82097 0.18150
 C32 C 0.76330 0.79703 0.16979
 H33 H 0.85237 0.75120 0.21309
 H34 H 0.78861 0.75348 0.15030
 H35 H 0.85409 0.78560 0.24754
 H36 H 0.79334 0.85051 0.24769
 H37 H 0.75653 0.85040 0.21442
 H38 H 0.75389 0.78849 0.15139
 C39 C 0.81964 1.21154 -0.21823
 C40 C 0.83139 1.23518 -0.20664
 C41 C 0.82020 1.24698 -0.18277
 C42 C 0.79675 1.23505 -0.17072
 C43 C 0.78479 1.21142 -0.18206
 C44 C 0.79634 1.19955 -0.20585
 C45 C 0.83132 1.19939 -0.24161
 C46 C 0.82029 1.17501 -0.25297
 C47 C 0.79665 1.16355 -0.24039
 C48 C 0.78482 1.17550 -0.21701
 C49 C 0.76179 1.16347 -0.20440
 C50 C 0.75030 1.17498 -0.18052
 C51 C 0.76185 1.19909 -0.16959
 H52 H 0.84929 1.24443 -0.21622
 H53 H 0.78823 1.24374 -0.15208
 H54 H 0.84997 1.20837 -0.24982
 H55 H 0.78673 1.14563 -0.24905
 H56 H 0.75283 1.14505 -0.21311
 H57 H 0.75342 1.20788 -0.15095
 C58 C 0.17950 0.78405 -0.21245
 C59 C 0.16745 0.76069 -0.20064
 C60 C 0.17839 0.74870 -0.17634
 C61 C 0.20231 0.76066 -0.16460
 C62 C 0.21454 0.78402 -0.17622
 C63 C 0.20310 0.79579 -0.20021
 C64 C 0.16783 0.79627 -0.23599
 C65 C 0.17938 0.82014 -0.24743
 C66 C 0.20314 0.83153 -0.23527
 C67 C 0.21503 0.81956 -0.21174
 C68 C 0.23826 0.83139 -0.19916
 C69 C 0.24973 0.81985 -0.17512
 C70 C 0.23786 0.79601 -0.16394
 H71 H 0.14859 0.75298 -0.20979
 H72 H 0.21215 0.75154 -0.14673
 H73 H 0.14969 0.78719 -0.24542
 H74 H 0.21195 0.85017 -0.24367
 H75 H 0.24698 0.85002 -0.20767
 H76 H 0.24674 0.78683 -0.14556
 C77 C 0.54350 1.03726 -0.00423
 H78 H 0.54392 1.03729 0.01807
 C79 C 0.56271 1.05272 -0.01891
 H80 H 0.57764 1.06496 -0.00771
 C81 C 0.52351 1.02106 -0.04580
 H82 H 0.50861 1.00821 -0.05620
 C83 C 0.54236 1.03623 -0.06131
 H84 H 0.54172 1.03486 -0.08358
 N85 N 0.52434 1.02194 -0.01778
 C86 C 0.45831 1.00964 0.04164
 H87 H 0.45719 0.98751 0.04172
 C88 C 0.43966 1.02485 0.05717
 H89 H 0.42411 1.01422 0.06905
 C90 C 0.47916 1.05029 0.02487
 H91 H 0.49424 1.06014 0.01186
 C92 C 0.46089 1.06631 0.04005
 H93 H 0.46250 1.08841 0.03898
 Zn94 Zn 0.50050 1.00019 0.00396
 N95 N 0.47762 1.02248 0.02599
 C96 C 0.52209 0.97850 0.05420
 N97 N 0.52314 0.97752 0.02620
 C98 C 0.54179 0.96147 0.01305
 C99 C 0.56025 0.94536 0.02814
 C100 C 0.54022 0.96274 0.07010
 C101 C 0.45840 0.99249 -0.03464
 C102 C 0.43926 0.97809 -0.05058
 C103 C 0.45840 0.93577 -0.03308
 C104 C 0.47719 0.95100 -0.01746
 N105 N 0.47691 0.97885 -0.01858
 H106 H 0.50753 0.99181 0.06427
 H107 H 0.54252 0.96150 -0.00924
 H108 H 0.57528 0.93315 0.01725
 H109 H 0.53902 0.96369 0.09236
 H110 H 0.45839 1.01466 -0.03484
 H111 H 0.42482 0.98935 -0.06337
 H112 H 0.45855 0.91364 -0.03148
 H113 H 0.49157 0.94053 -0.00402
 C114 C 0.44070 1.05360 0.05638
 C115 C 0.56240 1.05223 -0.04786
 C116 C 0.43897 0.94932 -0.04980
 C117 C 0.55972 0.94597 0.05708
 C118 C -0.01466 0.54110 1.03549
 H119 H 0.00764 0.54191 1.03537
 C120 C -0.02950 0.55940 1.05171
 H121 H -0.01842 0.57438 1.06393
 C122 C -0.05608 0.52132 1.01862
 H123 H -0.06636 0.50675 1.00535
 C124 C -0.07175 0.53930 1.03450
 H125 H -0.09403 0.53800 1.03367
 N126 N -0.02805 0.52245 1.01951
 C127 C 0.03249 0.45815 1.00538
 H128 H 0.03241 0.45771 0.98308
 C129 C 0.04870 0.43958 1.02019
 H130 H 0.06094 0.42476 1.00909
 C131 C 0.01558 0.47730 1.04682
 H132 H 0.00230 0.49171 1.05713
 C133 C 0.03144 0.45907 1.06245
 H134 H 0.03060 0.46005 1.08473
 Zn135 Zn -0.00602 0.49981 0.99698
 N136 N 0.01649 0.47661 1.01880
 C137 C 0.04384 0.52260 0.97617
 N138 N 0.01582 0.52335 0.97501
 C139 C 0.00238 0.54227 0.95934
 C140 C 0.01718 0.56132 0.94381
 C141 C 0.05948 0.54128 0.96095
 C142 C -0.04400 0.45779 0.98763
 C143 C -0.05966 0.43913 0.97239
 C144 C -0.04247 0.45989 0.93059
 C145 C -0.02715 0.47819 0.94664
 N146 N -0.02825 0.47687 0.97463
 H147 H 0.05416 0.50790 0.98931
 H148 H -0.01993 0.54265 0.95911
 H149 H 0.00607 0.57607 0.93131
 H150 H 0.08175 0.54072 0.96257
 H151 H -0.04405 0.45686 1.00991
 H152 H -0.07163 0.42376 0.98315
 H153 H -0.04142 0.46132 0.90834
 H154 H -0.01406 0.49310 0.93668
 C155 C 0.04825 0.43983 1.04914
 C156 C -0.05845 0.55871 1.05130
 C157 C -0.05891 0.43993 0.94345
 C158 C 0.04614 0.56109 0.94461
 C159 C 1.04299 -0.00599 0.54204
 H160 H 1.04258 0.01617 0.54252
 C161 C 1.05879 -0.02041 0.56131
 H162 H 1.07088 -0.00916 0.57632
 C163 C 1.02739 -0.04746 0.52197
 H164 H 1.01458 -0.05793 0.50706
 C165 C 1.04290 -0.06271 0.54087
 H166 H 1.04185 -0.08486 0.54025
 N167 N 1.02775 -0.01961 0.52286
 C168 C 1.01293 0.04033 0.45768
 H169 H 0.99064 0.03968 0.45677
 C170 C 1.02751 0.05669 0.43914
 H171 H 1.01624 0.06848 0.42388
 C172 C 1.05460 0.02458 0.47789
 H173 H 1.06509 0.01166 0.49268
 C174 C 1.07002 0.04062 0.45970
 H175 H 1.09231 0.04027 0.46109
 Zn176 Zn 1.00505 0.00170 0.49935
 N177 N 1.02657 0.02479 0.47661
 C178 C 0.98195 0.05041 0.52182
 N179 N 0.98180 0.02254 0.52238
 C180 C 0.96623 0.00848 0.54087
 C181 C 0.94983 0.02245 0.55973
 C182 C 0.96583 0.06522 0.54034
 C183 C 0.99805 -0.03626 0.45700
 C184 C 0.98385 -0.05240 0.43791
 C185 C 0.94093 -0.03666 0.45734
 C186 C 0.95597 -0.02080 0.47607
 N187 N 0.98402 -0.02099 0.47565
 H188 H 0.99500 0.06122 0.50746
 H189 H 0.96680 -0.01368 0.54110
 H190 H 0.93745 0.01084 0.57415
 H191 H 0.96665 0.08739 0.53998
 H192 H 1.02035 -0.03573 0.45688
 H193 H 0.99543 -0.06459 0.42340
 H194 H 0.91862 -0.03584 0.45764
 H195 H 0.94518 -0.00797 0.49055
 C196 C 1.05647 0.05687 0.43991
 C197 C 1.05871 -0.04919 0.56103
 C198 C 0.95488 -0.05264 0.43782
 C199 C 0.94962 0.05122 0.55976
 C200 C 0.13699 0.31916 1.13470
 C201 C 0.13428 0.31539 1.16310
 C202 C 0.14759 0.29356 1.17628
 C203 C 0.16399 0.27487 1.16127
 C204 C 0.16670 0.27937 1.13255
 C205 C 0.15331 0.30121 1.11951
 C206 C 0.12247 0.34101 1.12095
 C207 C 0.11008 0.35898 1.10915
 C208 C 0.09503 0.38004 1.09475
 C209 C 0.06854 0.38729 1.10338
 C210 C 0.05345 0.40698 1.08877
 C211 C 0.06467 0.41966 1.06526
 C212 C 0.09144 0.41243 1.05693
 C213 C 0.10650 0.39274 1.07159
 H214 H 0.12183 0.32934 1.17511
 H215 H 0.14555 0.29211 1.19842
 H216 H 0.17798 0.26538 1.11958
 H217 H 0.15534 0.30380 1.09742
 H218 H 0.05941 0.37748 1.12120
 H219 H 0.03277 0.41181 1.09549
 H220 H 0.10078 0.42207 1.03914
 H221 H 0.12699 0.38729 1.06473
 C222 C -0.14127 0.68044 1.13950
 C223 C -0.16959 0.68510 1.13712
 C224 C -0.18168 0.70737 1.15051
 C225 C -0.16563 0.72560 1.16666
 C226 C -0.13701 0.72022 1.16899
 C227 C -0.12507 0.69796 1.15553
 C228 C -0.12858 0.65813 1.12498
 C229 C -0.11745 0.63982 1.11268
 C230 C -0.10357 0.61843 1.09785
 C231 C -0.11259 0.61099 1.07145
 C232 C -0.09822 0.59121 1.05648
 C233 C -0.07456 0.57867 1.06772
 C234 C -0.06593 0.58600 1.09445
 C235 C -0.08034 0.60576 1.10938
 H236 H -0.18238 0.67150 1.12489
 H237 H -0.20381 0.70952 1.14874
 H238 H -0.12327 0.73383 1.18002
 H239 H -0.10303 0.69469 1.15729
 H240 H -0.13046 0.62078 1.06227
 H241 H -0.10518 0.58628 1.03583
 H242 H -0.04802 0.57647 1.10380
 H243 H -0.07319 0.61137 1.12981
 C244 C -0.14110 0.31630 0.85605
 C245 C -0.16987 0.31506 0.85379
 C246 C -0.18250 0.29268 0.84090
 C247 C -0.16648 0.27124 0.83011
 C248 C -0.13757 0.27283 0.83228
 C249 C -0.12500 0.29521 0.84517
 C250 C -0.12804 0.33882 0.87010
 C251 C -0.11674 0.35731 0.88213
 C252 C -0.10282 0.37894 0.89676
 C253 C -0.11511 0.39094 0.91980
 C254 C -0.10103 0.41107 0.93478
 C255 C -0.07442 0.41945 0.92688
 C256 C -0.06241 0.40751 0.90346
 C257 C -0.07653 0.38738 0.88854
 H258 H -0.18253 0.33129 0.86213
 H259 H -0.20477 0.29217 0.83927
 H260 H -0.12469 0.25649 0.82455
 H261 H -0.10272 0.29590 0.84693
 H262 H -0.13547 0.38456 0.92635
 H263 H -0.11096 0.42010 0.95251
 H264 H -0.04182 0.41322 0.89708
 H265 H -0.06676 0.37812 0.87082
 C266 C 0.13744 0.68153 0.86190
 C267 C 0.15397 0.69909 0.87756
 C268 C 0.16779 0.72090 0.86499
 C269 C 0.16529 0.72578 0.83629
 C270 C 0.14876 0.70742 0.82078
 C271 C 0.13502 0.68562 0.83349
 C272 C 0.12223 0.65993 0.87520
 C273 C 0.10918 0.64226 0.88667
 C274 C 0.09325 0.62169 0.90074
 C275 C 0.10226 0.59447 0.90161
 C276 C 0.08690 0.57468 0.91574
 C277 C 0.06230 0.58190 0.92916
 C278 C 0.05339 0.60931 0.92804
 C279 C 0.06878 0.62903 0.91394
 H280 H 0.15577 0.69626 0.89966
 H281 H 0.17917 0.73461 0.87833
 H282 H 0.14688 0.70916 0.79863
 H283 H 0.12241 0.67199 0.82111
 H284 H 0.12117 0.58856 0.89143
 H285 H 0.09414 0.55371 0.91597
 H286 H 0.03480 0.61561 0.93851
 H287 H 0.06168 0.65007 0.91350
 C288 C 1.13958 0.14394 0.31660
 C289 C 1.16788 0.14104 0.31233
 C290 C 1.18049 0.15380 0.28984
 C291 C 1.16500 0.16984 0.27097
 C292 C 1.13641 0.17278 0.27598
 C293 C 1.12393 0.15993 0.29848
 C294 C 1.12639 0.12990 0.33909
 C295 C 1.11504 0.11786 0.35757
 C296 C 1.10113 0.10315 0.37918
 C297 C 1.11042 0.07719 0.38721
 C298 C 1.09617 0.06232 0.40728
 C299 C 1.07236 0.07322 0.41956
 C300 C 1.06341 0.09950 0.41161
 C301 C 1.07771 0.11435 0.39154
 H302 H 1.18025 0.12884 0.32640
 H303 H 1.20259 0.15162 0.28800
 H304 H 1.12307 0.18380 0.26191
 H305 H 1.10191 0.16210 0.30145
 H306 H 1.12844 0.06827 0.37766
 H307 H 1.10337 0.04200 0.41266
 H308 H 1.04537 0.10859 0.42092
 H309 H 1.07034 0.13444 0.38548
 C310 C 1.14079 -0.13880 0.68402
 C311 C 1.16951 -0.14148 0.68500
 C312 C 1.18211 -0.15514 0.70711
 C313 C 1.16609 -0.16627 0.72851
 C314 C 1.13721 -0.16369 0.72715
 C315 C 1.12468 -0.15004 0.70506
 C316 C 1.12779 -0.12383 0.66192
 C317 C 1.11651 -0.11099 0.64385
 C318 C 1.10259 -0.09531 0.62283
 C319 C 1.08879 -0.07122 0.62995
 C320 C 1.07472 -0.05613 0.60982
 C321 C 1.07425 -0.06496 0.58222
 C322 C 1.08829 -0.08916 0.57523
 C323 C 1.10238 -0.10423 0.59543
 H324 H 1.18218 -0.13286 0.66881
 H325 H 1.20435 -0.15705 0.70743
 H326 H 1.12434 -0.17167 0.74350
 H327 H 1.10244 -0.14794 0.70458
 H328 H 1.08871 -0.06420 0.65113
 H329 H 1.06376 -0.03785 0.61597
 H330 H 1.08855 -0.09633 0.55413
 H331 H 1.11302 -0.12285 0.58969
 C332 C 0.86753 -0.14091 0.31772
 C333 C 0.88206 -0.15765 0.29959
 C334 C 0.86836 -0.17083 0.27795
 C335 C 0.83962 -0.16748 0.27382
 C336 C 0.82527 -0.15072 0.29271
 C337 C 0.83911 -0.13762 0.31435
 C338 C 0.88200 -0.12646 0.33921
 C339 C 0.89444 -0.11409 0.35680
 C340 C 0.90966 -0.09901 0.37732
 C341 C 0.93372 -0.08503 0.36988
 C342 C 0.94847 -0.07007 0.38957
 C343 C 0.93934 -0.06887 0.41704
 C344 C 0.91514 -0.08304 0.42433
 C345 C 0.90041 -0.09802 0.40458
 H346 H 0.90416 -0.16013 0.30186
 H347 H 0.88086 -0.18244 0.26378
 H348 H 0.80315 -0.14818 0.29155
 H349 H 0.82760 -0.12484 0.32843
 H350 H 0.94100 -0.08557 0.34881
 H351 H 0.96676 -0.05906 0.38319
 H352 H 0.90775 -0.08276 0.44536
 H353 H 0.88183 -0.10880 0.41056
 C354 C 0.86002 0.13577 0.67980
 C355 C 0.84392 0.12055 0.69806
 C356 C 0.83053 0.13344 0.71990
 C357 C 0.83302 0.16204 0.72411
 C358 C 0.84913 0.17710 0.70506
 C359 C 0.86245 0.16407 0.68322
 C360 C 0.87477 0.12210 0.65816
 C361 C 0.88739 0.11020 0.64051
 C362 C 0.90276 0.09545 0.62006
 C363 C 0.91685 0.07156 0.62753
 C364 C 0.93200 0.05717 0.60791
 C365 C 0.93326 0.06647 0.58047
 C366 C 0.91901 0.09054 0.57313
 C367 C 0.90384 0.10492 0.59282
 H368 H 0.84213 0.09854 0.69575
 H369 H 0.81949 0.12045 0.73417
 H370 H 0.85098 0.19914 0.70628
 H371 H 0.87473 0.17610 0.66904
 H372 H 0.91625 0.06412 0.64859
 H373 H 0.94309 0.03898 0.61434
 H374 H 0.91936 0.09807 0.55211
 H375 H 0.89296 0.12338 0.58680
 C376 C 0.31721 1.14132 0.13772
 C377 C 0.29562 1.15165 0.12154
 C378 C 0.27338 1.16486 0.13394
 C379 C 0.27241 1.16793 0.16275
 C380 C 0.29431 1.15763 0.17885
 C381 C 0.31657 1.14441 0.16639
 C382 C 0.33968 1.12709 0.12485
 C383 C 0.35815 1.11498 0.11367
 C384 C 0.37975 1.10029 0.09989
 C385 C 0.38828 1.10854 0.07364
 C386 C 0.40840 1.09362 0.05966
 C387 C 0.42024 1.07015 0.07176
 C388 C 0.41176 1.06222 0.09832
 C389 C 0.39165 1.07720 0.11227
 H390 H 0.29585 1.14925 0.09934
 H391 H 0.25666 1.17220 0.12102
 H392 H 0.29430 1.15994 0.20105
 H393 H 0.33319 1.13650 0.17912
 H394 H 0.37910 1.12630 0.06380
 H395 H 0.41417 1.10003 0.03910
 H396 H 0.42072 1.04445 0.10831
 H397 H 0.38519 1.07063 0.13260
 C398 C 0.68338 1.13532 -0.13838
 C399 C 0.68345 1.16383 -0.14154
 C400 C 0.70504 1.17677 -0.15550
 C401 C 0.72685 1.16131 -0.16647
 C402 C 0.72645 1.13264 -0.16336
 C403 C 0.70486 1.11977 -0.14940
 C404 C 0.66172 1.12198 -0.12323
 C405 C 0.64398 1.11045 -0.11028
 C406 C 0.62331 1.09629 -0.09451
 C407 C 0.63077 1.08282 -0.07010
 C408 C 0.61095 1.06863 -0.05488
 C409 C 0.58332 1.06770 -0.06388
 C410 C 0.57600 1.08138 -0.08843
 C411 C 0.59589 1.09559 -0.10363
 H412 H 0.66691 1.17606 -0.13309
 H413 H 0.70464 1.19884 -0.15782
 H414 H 0.74313 1.12022 -0.17119
 H415 H 0.70509 1.09770 -0.14694
 H416 H 0.65197 1.08312 -0.06293
 H417 H 0.61734 1.05798 -0.03632
 H418 H 0.55486 1.08129 -0.09573
 H419 H 0.58989 1.10597 -0.12249
 C420 C 0.31740 0.86044 -0.13459
 C421 C 0.29586 0.84927 -0.11910
 C422 C 0.27406 0.83577 -0.13225
 C423 C 0.27348 0.83328 -0.16114
 C424 C 0.29537 0.84434 -0.17654
 C425 C 0.31719 0.85784 -0.16332
 C426 C 0.33922 0.87525 -0.12097
 C427 C 0.35707 0.88796 -0.10923
 C428 C 0.37785 0.90348 -0.09482
 C429 C 0.37068 0.92796 -0.08176
 C430 C 0.39059 0.94293 -0.06729
 C431 C 0.41800 0.93361 -0.06567
 C432 C 0.42504 0.90900 -0.07896
 C433 C 0.40507 0.89405 -0.09345
 H434 H 0.29575 0.85130 -0.09686
 H435 H 0.25732 0.82784 -0.11986
 H436 H 0.29565 0.84249 -0.19878
 H437 H 0.33376 0.86642 -0.17552
 H438 H 0.34964 0.93537 -0.08258
 H439 H 0.38440 0.96154 -0.05693
 H440 H 0.44601 0.90145 -0.07833
 H441 H 0.41084 0.87513 -0.10352
 C442 C 0.68314 0.86099 0.14305
 C443 C 0.70521 0.87646 0.15333
 C444 C 0.72757 0.86346 0.16605
 C445 C 0.72819 0.83475 0.16865
 C446 C 0.70581 0.81937 0.15840
 C447 C 0.68344 0.83243 0.14569
 C448 C 0.66058 0.87449 0.12927
 C449 C 0.64205 0.88618 0.11749
 C450 C 0.62042 0.90058 0.10314
 C451 C 0.61273 0.92683 0.11165
 C452 C 0.59266 0.94142 0.09695
 C453 C 0.58004 0.92993 0.07347
 C454 C 0.58764 0.90335 0.06532
 C455 C 0.60771 0.88880 0.08006
 H456 H 0.70525 0.89857 0.15127
 H457 H 0.74465 0.87584 0.17334
 H458 H 0.70556 0.79726 0.16037
 H459 H 0.66645 0.82026 0.13781
 H460 H 0.62255 0.93621 0.12939
 H461 H 0.58756 0.96197 0.10354
 H462 H 0.57807 0.89383 0.04754
 H463 H 0.61351 0.86848 0.07329
   
