data_POSCAR
  _audit_creation_date              2014-09-24
  _audit_creation_method            'ToBaCCo'
  _symmetry_space_group_name_H-M    'P1'
  _symmetry_Int_Tables_number       1
  _symmetry_cell_setting            triclinic
  loop_
  _symmetry_equiv_pos_as_xyz
 x,y,z
_cell_length_a 16.6693
_cell_length_b 16.5828
_cell_length_c 29.4953
_cell_angle_alpha 90.000000
_cell_angle_beta 90.000000
_cell_angle_gamma 119.831500
loop_
  _atom_site_label
  _atom_site_type_symbol
  _atom_site_fract_x
  _atom_site_fract_y
  _atom_site_fract_z
Zn1 Zn 0.94184 0.06202 1.01926
 Zn2 Zn 1.12108 0.05924 1.02011
 Zn3 Zn 0.93890 -0.12032 1.02080
 Zn4 Zn 0.99983 -0.00199 0.93877
 O5 O 1.00058 -0.00024 1.00003
 O6 O 1.01546 0.16079 1.05340
 O7 O 1.14561 -0.01511 1.05501
 O8 O 0.84075 -0.14375 1.05535
 O9 O 1.14720 0.15844 1.05475
 O10 O 0.84368 -0.00881 1.05385
 O11 O 1.01087 -0.14619 1.05548
 O12 O 0.94372 -0.11564 0.91576
 O13 O 1.20509 0.10177 0.97454
 O14 O 0.89702 -0.20621 0.97627
 O15 O 1.11204 0.05430 0.91513
 O16 O 0.94307 0.05383 0.91455
 O17 O 0.89905 0.10314 0.97392
 C18 C 1.09855 0.19429 1.06666
 C19 C 1.09474 -0.09882 1.06782
 C20 C 0.80754 -0.09253 1.06705
 C21 C 0.90359 -0.19573 0.93354
 C22 C 1.19264 0.09538 0.93188
 C23 C 0.90350 0.09525 0.93133
 Zn24 Zn 0.05816 0.93799 0.51926
 Zn25 Zn -0.12107 0.94077 0.52011
 Zn26 Zn 0.06110 1.12033 0.52080
 Zn27 Zn 0.00017 1.00199 0.43877
 O28 O -0.00058 1.00024 0.50003
 O29 O -0.01546 0.83922 0.55340
 O30 O -0.14561 1.01511 0.55501
 O31 O 0.15926 1.14376 0.55535
 O32 O -0.14720 0.84156 0.55475
 O33 O 0.15632 1.00881 0.55385
 O34 O -0.01087 1.14620 0.55548
 O35 O 0.05628 1.11565 0.41576
 O36 O -0.20509 0.89823 0.47454
 O37 O 0.10298 1.20621 0.47627
 O38 O -0.11204 0.94570 0.41513
 O39 O 0.05694 0.94617 0.41455
 O40 O 0.10095 0.89686 0.47392
 C41 C -0.09855 0.80571 0.56666
 C42 C -0.09474 1.09882 0.56782
 C43 C 0.19246 1.09254 0.56705
 C44 C 0.09642 1.19573 0.43354
 C45 C -0.19264 0.90462 0.43188
 C46 C 0.09650 0.90476 0.43133
 O47 O 0.46640 0.80424 0.19794
 O48 O 0.31326 0.80752 0.21277
 C49 C 0.24019 0.74994 0.19182
 O50 O 0.19814 0.66319 0.19967
 O51 O 0.19563 0.50598 0.21354
 C52 C 0.25140 0.49188 0.19005
 O53 O 0.33815 0.53577 0.19649
 O54 O 0.49558 0.68884 0.21091
 C55 C 0.51086 0.76213 0.19000
 O56 O 0.49597 0.80636 0.28766
 O57 O 0.34048 0.80371 0.30285
 C58 C 0.25441 0.76132 0.31073
 O59 O 0.19726 0.68914 0.28920
 O60 O 0.20331 0.53683 0.30352
 C61 C 0.24487 0.49118 0.30949
 O62 O 0.31465 0.50493 0.28618
 O63 O 0.46755 0.66185 0.30087
 C64 C 0.51069 0.74843 0.30908
 Cr65 Cr 0.40141 0.80022 0.25027
 Cr66 Cr 0.20377 0.60129 0.25142
 Cr67 Cr 0.40145 0.60057 0.24866
 O68 O 0.33562 0.66754 0.24993
 O69 O 0.79670 0.46317 0.80352
 O70 O 0.80275 0.31086 0.78920
 C71 C 0.74560 0.23869 0.81073
 O72 O 0.65952 0.19630 0.80286
 O73 O 0.50403 0.19364 0.78766
 C74 C 0.48932 0.25157 0.80908
 O75 O 0.53245 0.33815 0.80087
 O76 O 0.68535 0.49507 0.78618
 C77 C 0.75514 0.50883 0.80949
 O78 O 0.80438 0.49402 0.71354
 O79 O 0.80186 0.33681 0.69967
 C80 C 0.75981 0.25006 0.69182
 O81 O 0.68674 0.19248 0.71277
 O82 O 0.53360 0.19577 0.69794
 C83 C 0.48914 0.23787 0.69000
 O84 O 0.50442 0.31116 0.71091
 O85 O 0.66185 0.46423 0.69649
 C86 C 0.74860 0.50812 0.69006
 Cr87 Cr 0.79623 0.39871 0.75142
 Cr88 Cr 0.59860 0.19979 0.75027
 Cr89 Cr 0.59855 0.39944 0.74866
 O90 O 0.66438 0.33246 0.74993
 C91 C 0.13947 0.27598 0.09868
 C92 C 0.07446 0.31355 0.11117
 C93 C 0.11188 0.38583 0.14082
 C94 C 0.21116 0.41449 0.15566
 C95 C 0.20480 0.32488 0.17404
 C96 C 0.16729 0.25257 0.14435
 C97 C 0.22785 0.36144 0.08116
 C98 C 0.26538 0.43408 0.11097
 H99 H 0.00544 0.28700 0.09742
 H100 H 0.07456 0.42045 0.15189
 H101 H 0.22760 0.31874 0.20771
 H102 H 0.15806 0.18469 0.15269
 H103 H 0.25783 0.36476 0.04806
 H104 H 0.32736 0.49941 0.10332
 C105 C 0.72615 0.86921 0.09889
 C106 C 0.68442 0.93274 0.10667
 C107 C 0.61252 0.89768 0.13644
 C108 C 0.58851 0.80212 0.15594
 C109 C 0.57167 0.74032 0.11414
 C110 C 0.64365 0.77552 0.08421
 C111 C 0.75146 0.85158 0.14643
 C112 C 0.67979 0.81676 0.17621
 H113 H 0.70841 0.99916 0.08996
 H114 H 0.57606 0.93463 0.14494
 H115 H 0.50834 0.67499 0.10841
 H116 H 0.64181 0.74022 0.05290
 H117 H 0.82001 0.86504 0.15587
 H118 H 0.68722 0.80001 0.21095
 C119 C 0.13342 0.85853 0.10001
 C120 C 0.15235 0.90333 0.14718
 C121 C 0.18716 0.86655 0.17725
 C122 C 0.20047 0.78809 0.15762
 C123 C 0.10479 0.71705 0.13880
 C124 C 0.06979 0.75379 0.10876
 C125 C 0.22597 0.86747 0.08516
 C126 C 0.26116 0.83077 0.11538
 H127 H 0.13990 0.95969 0.15613
 H128 H 0.20496 0.89210 0.21173
 H129 H 0.06761 0.64398 0.14795
 H130 H 0.00326 0.71155 0.09249
 H131 H 0.26061 0.89952 0.05357
 H132 H 0.32582 0.83145 0.10961
 C133 C 0.86053 0.72403 0.59868
 C134 C 0.92554 0.68645 0.61117
 C135 C 0.88812 0.61418 0.64082
 C136 C 0.78884 0.58552 0.65566
 C137 C 0.79520 0.67512 0.67404
 C138 C 0.83271 0.74743 0.64435
 C139 C 0.77215 0.63857 0.58116
 C140 C 0.73463 0.56593 0.61097
 H141 H 0.99456 0.71301 0.59742
 H142 H 0.92544 0.57956 0.65190
 H143 H 0.77240 0.68126 0.70771
 H144 H 0.84194 0.81531 0.65269
 H145 H 0.74217 0.63524 0.54806
 H146 H 0.67265 0.50059 0.60332
 C147 C 0.27385 0.13080 0.59889
 C148 C 0.35636 0.22448 0.58421
 C149 C 0.42834 0.25968 0.61414
 C150 C 0.41150 0.19788 0.65594
 C151 C 0.32021 0.18325 0.67621
 C152 C 0.24854 0.14843 0.64643
 C153 C 0.31558 0.06726 0.60667
 C154 C 0.38748 0.10232 0.63644
 H155 H 0.35819 0.25979 0.55290
 H156 H 0.49166 0.32501 0.60841
 H157 H 0.31278 0.20000 0.71095
 H158 H 0.17999 0.13496 0.65587
 H159 H 0.29159 0.00084 0.58996
 H160 H 0.42394 0.06537 0.64494
 C161 C 0.86658 0.14147 0.60001
 C162 C 0.77403 0.13253 0.58516
 C163 C 0.73884 0.16923 0.61538
 C164 C 0.79953 0.21191 0.65762
 C165 C 0.81284 0.13346 0.67725
 C166 C 0.84765 0.09667 0.64718
 C167 C 0.93021 0.24621 0.60877
 C168 C 0.89522 0.28295 0.63880
 H169 H 0.73940 0.10048 0.55357
 H170 H 0.67418 0.16855 0.60961
 H171 H 0.79504 0.10791 0.71174
 H172 H 0.86010 0.04031 0.65613
 H173 H 0.99674 0.28846 0.59249
 H174 H 0.93239 0.35602 0.64796
 C175 C 0.27396 0.13820 0.89990
 C176 C 0.24708 0.10968 0.85003
 C177 C 0.31926 0.14869 0.82081
 C178 C 0.41249 0.21289 0.84345
 C179 C 0.39720 0.28429 0.86985
 C180 C 0.32475 0.24502 0.89941
 C181 C 0.34960 0.11331 0.90980
 C182 C 0.42230 0.15266 0.88032
 H183 H 0.17750 0.06148 0.83846
 H184 H 0.31084 0.13364 0.78476
 H185 H 0.43984 0.35905 0.86607
 H186 H 0.30559 0.28623 0.92065
 H187 H 0.34650 0.06903 0.93764
 H188 H 0.48140 0.14212 0.88306
 C189 C 0.86264 0.72202 0.90219
 C190 C 0.78182 0.71615 0.87466
 C191 C 0.74538 0.64533 0.84423
 C192 C 0.79314 0.58612 0.84389
 C193 C 0.89588 0.65630 0.83602
 C194 C 0.93230 0.72696 0.86659
 C195 C 0.82401 0.62529 0.92396
 C196 C 0.78773 0.55408 0.89330
 H197 H 0.75508 0.76350 0.87894
 H198 H 0.68765 0.63294 0.82261
 H199 H 0.93669 0.65069 0.80880
 H200 H 1.00431 0.78145 0.86554
 H201 H 0.82526 0.61361 0.96009
 H202 H 0.75787 0.48176 0.90328
 C203 C 0.86026 0.13422 0.89979
 C204 C 0.88648 0.13471 0.84968
 C205 C 0.84702 0.16878 0.82104
 C206 C 0.78466 0.19964 0.84453
 C207 C 0.71419 0.11380 0.87142
 C208 C 0.75396 0.07976 0.90038
 C209 C 0.88629 0.23538 0.90974
 C210 C 0.84642 0.26955 0.88090
 H211 H 0.93343 0.11190 0.83754
 H212 H 0.86051 0.17486 0.78485
 H213 H 0.63974 0.08290 0.86840
 H214 H 0.71348 0.01979 0.92187
 H215 H 0.93169 0.27638 0.93718
 H216 H 0.85755 0.33966 0.88378
 C217 C 0.72604 0.86181 0.39990
 C218 C 0.67525 0.75499 0.39941
 C219 C 0.60280 0.71572 0.36985
 C220 C 0.58751 0.78711 0.34345
 C221 C 0.57770 0.84735 0.38032
 C222 C 0.65040 0.88669 0.40980
 C223 C 0.75292 0.89032 0.35003
 C224 C 0.68074 0.85132 0.32081
 H225 H 0.69442 0.71378 0.42065
 H226 H 0.56016 0.64096 0.36607
 H227 H 0.51860 0.85788 0.38306
 H228 H 0.65350 0.93098 0.43764
 H229 H 0.82250 0.93852 0.33846
 H230 H 0.68916 0.86636 0.28476
 C231 C 0.13737 0.27798 0.40219
 C232 C 0.21818 0.28385 0.37466
 C233 C 0.25463 0.35467 0.34423
 C234 C 0.20686 0.41389 0.34389
 C235 C 0.10413 0.34370 0.33602
 C236 C 0.06770 0.27304 0.36659
 C237 C 0.17599 0.37472 0.42396
 C238 C 0.21227 0.44593 0.39330
 H239 H 0.24492 0.23651 0.37894
 H240 H 0.31235 0.36706 0.32261
 H241 H 0.06331 0.34932 0.30880
 H242 H -0.00430 0.21856 0.36554
 H243 H 0.17474 0.38639 0.46009
 H244 H 0.24213 0.51824 0.40328
 C245 C 0.13974 0.86578 0.39979
 C246 C 0.11352 0.86530 0.34968
 C247 C 0.15298 0.83122 0.32104
 C248 C 0.21535 0.80036 0.34453
 C249 C 0.28581 0.88621 0.37141
 C250 C 0.24604 0.92024 0.40038
 C251 C 0.11371 0.76462 0.40974
 C252 C 0.15358 0.73046 0.38089
 H253 H 0.06657 0.88811 0.33754
 H254 H 0.13949 0.82515 0.28485
 H255 H 0.36026 0.91710 0.36840
 H256 H 0.28652 0.98021 0.42187
 H257 H 0.06832 0.72362 0.43718
 H258 H 0.14245 0.66035 0.38378
   
