data_POSCAR
  _audit_creation_date              2014-09-24
  _audit_creation_method            'ToBaCCo'
  _symmetry_space_group_name_H-M    'P1'
  _symmetry_Int_Tables_number       1
  _symmetry_cell_setting            triclinic
  loop_
  _symmetry_equiv_pos_as_xyz
 x,y,z
_cell_length_a 43.6141
_cell_length_b 45.0429
_cell_length_c 42.4509
_cell_angle_alpha 88.466800
_cell_angle_beta 91.872100
_cell_angle_gamma 93.614300
loop_
  _atom_site_label
  _atom_site_type_symbol
  _atom_site_fract_x
  _atom_site_fract_y
  _atom_site_fract_z
N1 N 0.14044 0.15597 0.19731
 N2 N 0.14867 0.12961 0.18959
 C3 C 0.14438 0.11042 0.21403
 C4 C 0.13296 0.12551 0.23848
 C5 C 0.13075 0.15450 0.22720
 H6 H 0.14901 0.08710 0.21395
 H7 H 0.12178 0.17279 0.23924
 Cu8 Cu 0.16445 0.12223 0.14864
 Cu9 Cu 0.14033 0.18897 0.16662
 Cu10 Cu 0.18046 0.18028 0.09894
 N11 N 0.19316 0.12003 0.11509
 N12 N 0.20072 0.14306 0.09663
 C13 C 0.22320 0.13586 0.07770
 C14 C 0.22988 0.10668 0.08486
 C15 C 0.21023 0.09733 0.10843
 H16 H 0.23398 0.15085 0.06046
 H17 H 0.20941 0.07602 0.12086
 N18 N 0.15784 0.21587 0.10627
 N19 N 0.14272 0.21924 0.13225
 C20 C 0.12730 0.24416 0.12920
 C21 C 0.13294 0.25704 0.09983
 C22 C 0.15243 0.23859 0.08599
 H23 H 0.11180 0.25137 0.14638
 H24 H 0.16076 0.24079 0.06227
 H25 H 0.14247 0.16587 0.12493
 H26 H 0.17972 0.17466 0.14737
 N27 N -0.16504 0.80262 0.25155
 N28 N -0.18598 0.82236 0.25157
 C29 C -0.18151 0.83910 0.27725
 C30 C -0.15630 0.82935 0.29434
 C31 C -0.14657 0.80601 0.27745
 H32 H -0.19500 0.85763 0.28227
 H33 H -0.12663 0.79342 0.28278
 Cu34 Cu -0.21590 0.82610 0.21704
 Cu35 Cu -0.16241 0.77600 0.21625
 Cu36 Cu -0.19184 0.80679 0.14674
 N37 N -0.23740 0.83726 0.17826
 N38 N -0.22765 0.83000 0.15070
 C39 C -0.24524 0.84212 0.12776
 C40 C -0.26719 0.85780 0.14172
 C41 C -0.26161 0.85418 0.17391
 H42 H -0.24194 0.84013 0.10277
 H43 H -0.27346 0.86377 0.19277
 N44 N -0.16326 0.77451 0.14791
 N45 N -0.15288 0.76205 0.17434
 C46 C -0.13527 0.73978 0.16726
 C47 C -0.13468 0.73819 0.13474
 C48 C -0.15257 0.76051 0.12330
 H49 H -0.12378 0.72593 0.18453
 H50 H -0.15792 0.76572 0.09879
 H51 H -0.16999 0.81309 0.19061
 H52 H -0.20176 0.78349 0.18734
 N53 N -0.16052 0.19128 -0.26771
 N54 N -0.18201 0.16954 -0.26603
 C55 C -0.17243 0.14537 -0.27968
 C56 C -0.14342 0.15230 -0.29065
 C57 C -0.13646 0.18168 -0.28282
 H58 H -0.18514 0.12398 -0.28051
 H59 H -0.11515 0.19469 -0.28664
 Cu60 Cu -0.21877 0.17336 -0.24292
 Cu61 Cu -0.16478 0.22939 -0.24786
 Cu62 Cu -0.23058 0.23511 -0.20462
 N63 N -0.24640 0.17264 -0.20827
 N64 N -0.25108 0.19684 -0.19298
 C65 C -0.27009 0.18973 -0.16917
 C66 C -0.27719 0.15927 -0.16954
 C67 C -0.26189 0.14924 -0.19470
 H68 H -0.27720 0.20541 -0.15242
 H69 H -0.26135 0.12646 -0.20206
 N70 N -0.19922 0.26810 -0.21014
 N71 N -0.17400 0.26589 -0.22610
 C72 C -0.15607 0.29116 -0.22295
 C73 C -0.17058 0.31000 -0.20400
 C74 C -0.19797 0.29474 -0.19638
 H75 H -0.13344 0.29511 -0.23246
 H76 H -0.21505 0.30172 -0.18073
 H77 H -0.19262 0.21239 -0.21224
 H78 H -0.21180 0.22787 -0.24832
 N79 N 0.20245 0.80467 -0.25441
 N80 N 0.22647 0.82383 -0.25464
 C81 C 0.21872 0.84890 -0.27012
 C82 C 0.18815 0.84505 -0.27994
 C83 C 0.17865 0.81675 -0.26974
 H84 H 0.23385 0.86868 -0.27296
 H85 H 0.15579 0.80610 -0.27228
 Cu86 Cu 0.26499 0.81460 -0.23318
 Cu87 Cu 0.20316 0.76665 -0.23178
 Cu88 Cu 0.25694 0.76838 -0.17018
 N89 N 0.29907 0.80822 -0.20363
 N90 N 0.29580 0.78987 -0.17919
 C91 C 0.32150 0.79187 -0.16085
 C92 C 0.34187 0.81286 -0.17426
 C93 C 0.32703 0.82265 -0.20166
 H94 H 0.32436 0.78037 -0.13834
 H95 H 0.33495 0.84019 -0.21787
 N96 N 0.22030 0.74056 -0.17118
 N97 N 0.20068 0.73894 -0.19549
 C98 C 0.17733 0.71913 -0.18867
 C99 C 0.18248 0.70791 -0.15846
 C100 C 0.20995 0.72180 -0.14814
 H101 H 0.15709 0.71503 -0.20369
 H102 H 0.22080 0.71939 -0.12502
 H103 H 0.22649 0.79126 -0.19873
 H104 H 0.24972 0.76321 -0.21691
 N105 N 0.18405 1.16866 0.77837
 N106 N 0.16917 1.19196 0.76896
 C107 C 0.15804 1.18782 0.73929
 C108 C 0.16645 1.16034 0.72978
 C109 C 0.18281 1.14883 0.75517
 H110 H 0.14464 1.20345 0.72592
 H111 H 0.19294 1.12751 0.75673
 Cu112 Cu 0.16500 1.22467 0.79722
 Cu113 Cu 0.20298 1.16538 0.82040
 Cu114 Cu 0.21414 1.23203 0.85933
 N115 N 0.15831 1.25198 0.83072
 N116 N 0.17802 1.25551 0.85464
 C117 C 0.16791 1.27559 0.87418
 C118 C 0.14018 1.28484 0.86190
 C119 C 0.13480 1.26942 0.83437
 H120 H 0.17937 1.28206 0.89614
 H121 H 0.11500 1.27048 0.81844
 N122 N 0.23812 1.19732 0.86978
 N123 N 0.23233 1.17143 0.85625
 C124 C 0.25114 1.15165 0.86922
 C125 C 0.26974 1.16579 0.89197
 C126 C 0.26104 1.19478 0.89158
 H127 H 0.25201 1.12895 0.86178
 H128 H 0.27048 1.21260 0.90626
 H129 H 0.18420 1.19918 0.84463
 H130 H 0.21527 1.20940 0.81645
 N131 N 0.81829 0.84756 0.76613
 N132 N 0.83561 0.82466 0.76670
 C133 C 0.85538 0.82797 0.74281
 C134 C 0.84993 0.85433 0.72655
 C135 C 0.82630 0.86604 0.74197
 H136 H 0.87202 0.81223 0.73732
 H137 H 0.81562 0.88653 0.73586
 Cu138 Cu 0.82966 0.79231 0.79805
 Cu139 Cu 0.78644 0.85211 0.79637
 Cu140 Cu 0.77510 0.79558 0.85191
 N141 N 0.82037 0.75932 0.82794
 N142 N 0.79849 0.76058 0.84838
 C143 C 0.79773 0.73587 0.86691
 C144 C 0.82032 0.71811 0.85776
 C145 C 0.83429 0.73360 0.83287
 H146 H 0.78270 0.73160 0.88650
 H147 H 0.85373 0.72716 0.82007
 N148 N 0.74996 0.83041 0.84939
 N149 N 0.75527 0.85262 0.82898
 C150 C 0.73667 0.87446 0.83486
 C151 C 0.71848 0.86535 0.85973
 C152 C 0.72738 0.83729 0.86838
 H153 H 0.73662 0.89570 0.82237
 H154 H 0.71906 0.82361 0.88800
 H155 H 0.80594 0.82719 0.83163
 H156 H 0.77753 0.80707 0.80460
 N157 N 0.18258 0.80648 1.26472
 N158 N 0.15919 0.78762 1.25814
 C159 C 0.13684 0.79080 1.27866
 C160 C 0.14664 0.81294 1.29915
 C161 C 0.17584 0.82248 1.28968
 H162 H 0.11472 0.77849 1.27822
 H163 H 0.19069 0.84026 1.29947
 Cu164 Cu 0.15935 0.76199 1.22236
 Cu165 Cu 0.21876 0.81011 1.23865
 Cu166 Cu 0.22271 0.75843 1.17970
 N167 N 0.16453 0.72907 1.19520
 N168 N 0.18883 0.72764 1.17788
 C169 C 0.18566 0.70249 1.16110
 C170 C 0.15794 0.68758 1.16870
 C171 C 0.14533 0.70504 1.19037
 H172 H 0.20228 0.69555 1.14490
 H173 H 0.12360 0.70058 1.20170
 N174 N 0.25442 0.79142 1.18648
 N175 N 0.25323 0.81027 1.20968
 C176 C 0.27756 0.83009 1.20830
 C177 C 0.29479 0.82376 1.18298
 C178 C 0.27954 0.79905 1.16955
 H179 H 0.28199 0.84857 1.22390
 H180 H 0.28598 0.78774 1.14886
 H181 H 0.19973 0.79290 1.19689
 H182 H 0.21508 0.76559 1.22632
 N183 N 0.81561 1.17282 1.25425
 N184 N 0.82847 1.19741 1.26608
 C185 C 0.85054 1.19043 1.28745
 C186 C 0.85160 1.15975 1.28873
 C187 C 0.82926 1.14933 1.26730
 H188 H 0.86548 1.20647 1.30001
 H189 H 0.82354 1.12638 1.26144
 Cu190 Cu 0.81739 1.23603 1.24969
 Cu191 Cu 0.78278 1.17313 1.22221
 Cu192 Cu 0.75460 1.24164 1.20252
 N193 N 0.81210 1.27075 1.22238
 N194 N 0.78771 1.27313 1.20364
 C195 C 0.79107 1.29869 1.18644
 C196 C 0.81922 1.31282 1.19490
 C197 C 0.83178 1.29451 1.21777
 H198 H 0.77471 1.30584 1.16857
 H199 H 0.85413 1.29774 1.22943
 N200 N 0.73150 1.20363 1.19318
 N201 N 0.74284 1.17767 1.20017
 C202 C 0.72186 1.15580 1.19225
 C203 C 0.69616 1.16844 1.17951
 C204 C 0.70296 1.19890 1.18030
 H205 H 0.72469 1.13230 1.19628
 H206 H 0.68813 1.21628 1.17281
 H207 H 0.79024 1.21591 1.20305
 H208 H 0.76682 1.21138 1.23912
 O209 O 0.53400 0.99235 0.94894
 O210 O 0.46393 0.96952 1.06272
 O211 O 0.55940 1.00111 1.04622
 O212 O 0.47333 0.96043 0.96607
 O213 O 0.52117 0.97647 1.06846
 O214 O 0.47897 0.99722 0.93559
 O215 O 0.45918 0.94821 1.01797
 O216 O 0.55272 0.97815 0.99370
 C217 C 0.54974 0.97467 0.96487
 C218 C 0.45608 0.94710 1.04688
 C219 C 0.54945 0.98125 1.06519
 C220 C 0.47433 0.97004 0.93879
 O221 O 0.47955 1.04794 0.96425
 O222 O 0.51691 1.03517 1.06843
 O223 O 0.57746 1.03053 0.99221
 O224 O 0.43113 0.99980 1.02307
 O225 O 0.45836 1.02624 1.05837
 O226 O 0.53651 1.04898 0.96956
 O227 O 0.44237 1.01348 0.96924
 O228 O 0.53834 1.05036 1.02508
 Co229 Co 0.50661 1.01973 0.95954
 Co230 Co 0.49108 1.00214 1.05922
 Co231 Co 0.54283 1.01358 1.00856
 Co232 Co 0.45512 0.98218 0.99455
 O233 O 0.49729 1.00268 1.00786
 C234 C 0.45135 1.04060 0.96519
 C235 C 0.53222 1.05477 1.05292
 C236 C 0.56572 1.04816 0.97042
 C237 C 0.43351 1.02014 1.04335
 O238 O 0.00860 0.46823 0.05293
 O239 O 0.02409 0.53383 -0.05165
 O240 O -0.00308 0.44128 -0.03579
 O241 O 0.03017 0.53890 0.00326
 O242 O 0.02779 0.47971 -0.04767
 O243 O 0.01618 0.52468 0.04988
 O244 O 0.00479 0.57367 -0.03440
 O245 O -0.01360 0.43539 0.02019
 C246 C 0.00506 0.44215 0.04288
 C247 C 0.02116 0.56160 -0.05537
 C248 C 0.02332 0.45223 -0.04306
 C249 C 0.03618 0.53648 0.03198
 O250 O -0.04582 0.52622 0.04574
 O251 O -0.02614 0.47162 -0.07545
 O252 O -0.07025 0.45466 0.00936
 O253 O -0.04753 0.54713 -0.02800
 O254 O -0.03587 0.52515 -0.06995
 O255 O -0.05009 0.47148 0.05290
 O256 O -0.01927 0.56105 0.02191
 O257 O -0.06163 0.46426 -0.04410
 Co258 Co -0.01765 0.49805 0.04502
 Co259 Co -0.00431 0.50231 -0.05602
 Co260 Co -0.03555 0.45278 -0.01269
 Co261 Co -0.00924 0.54089 -0.01266
 O262 O -0.01820 0.49678 -0.00654
 C263 C -0.03968 0.55322 0.04090
 C264 C -0.05333 0.46382 -0.07132
 C265 C -0.07161 0.45779 0.03814
 C266 C -0.05329 0.54144 -0.05617
 O267 O 1.07249 0.03604 0.47973
 O268 O 0.97254 0.03354 0.53031
 O269 O 1.00001 0.03205 0.44189
 O270 O 1.03232 0.04372 0.54598
 O271 O 0.96137 0.02377 0.47410
 O272 O 1.07642 0.03427 0.53519
 O273 O 0.99316 0.01389 0.57140
 O274 O 1.05369 0.01246 0.44109
 C275 C 1.06665 0.03547 0.45118
 C276 C 0.97546 0.03244 0.55968
 C277 C 0.97401 0.03811 0.45119
 C278 C 1.05924 0.05240 0.54526
 O279 O 1.07049 -0.02495 0.53833
 O280 O 0.96210 -0.03614 0.48946
 O281 O 1.03202 -0.04024 0.45054
 O282 O 1.01570 -0.03634 0.55414
 O283 O 0.96903 -0.02655 0.54344
 O284 O 1.07313 -0.02609 0.47925
 O285 O 1.05371 -0.00219 0.57966
 O286 O 0.97805 -0.02146 0.44457
 Co287 Co 1.06816 0.00414 0.50712
 Co288 Co 0.97043 -0.00081 0.50874
 Co289 Co 1.01620 -0.00369 0.44999
 Co290 Co 1.02550 0.00346 0.54796
 O291 O 1.01817 0.00118 0.50175
 C292 C 1.07347 -0.01934 0.56778
 C293 C 0.96162 -0.03896 0.46065
 C294 C 1.05900 -0.04417 0.46051
 C295 C 0.98788 -0.04376 0.55586
 C296 C 1.12395 0.11253 0.26710
 C297 C 1.11313 0.12819 0.29196
 C298 C 1.10005 0.11193 0.31956
 C299 C 1.10638 0.12212 0.35021
 C300 C 1.09526 0.10555 0.37637
 C301 C 1.07714 0.07892 0.37199
 C302 C 1.06976 0.06969 0.34122
 C303 C 1.08117 0.08588 0.31533
 C304 C 1.06544 0.05962 0.39819
 C305 C 1.07696 0.05971 0.42929
 H306 H 1.11497 0.15228 0.29169
 H307 H 1.12056 0.14242 0.35389
 H308 H 1.10082 0.11367 0.39974
 H309 H 1.05552 0.04948 0.33714
 H310 H 1.07518 0.07799 0.29191
 H311 H 1.04801 0.04243 0.39186
 H312 H 1.12522 0.08864 0.26991
 H313 H 1.09393 0.07660 0.43732
 C314 C 0.85957 -0.15699 0.32209
 C315 C 0.85132 -0.12988 0.33338
 C316 C 0.87070 -0.11203 0.35593
 C317 C 0.87130 -0.08096 0.35268
 C318 C 0.89067 -0.06307 0.37201
 C319 C 0.90915 -0.07581 0.39569
 C320 C 0.90780 -0.10692 0.39992
 C321 C 0.88883 -0.12496 0.37999
 C322 C 0.93115 -0.05603 0.41358
 C323 C 0.94009 -0.06081 0.44507
 H324 H 0.83205 -0.11929 0.32223
 H325 H 0.85746 -0.07050 0.33440
 H326 H 0.89144 -0.03914 0.36830
 H327 H 0.92214 -0.11728 0.41781
 H328 H 0.88842 -0.14889 0.38336
 H329 H 0.93930 -0.03553 0.40175
 H330 H 0.87987 -0.16700 0.33172
 H331 H 0.92991 -0.07939 0.45863
 C332 C 0.87591 0.13130 0.69483
 C333 C 0.90329 0.14013 0.68037
 C334 C 0.92095 0.11852 0.66424
 C335 C 0.93525 0.12711 0.63608
 C336 C 0.94981 0.10631 0.61897
 C337 C 0.95067 0.07667 0.63009
 C338 C 0.93806 0.06855 0.65923
 C339 C 0.92306 0.08923 0.67610
 C340 C 0.96430 0.05395 0.61152
 C341 C 0.96131 0.05409 0.57879
 H342 H 0.91023 0.16357 0.67805
 H343 H 0.93429 0.14969 0.62680
 H344 H 0.96028 0.11340 0.59702
 H345 H 0.93897 0.04595 0.66846
 H346 H 0.91301 0.08227 0.69829
 H347 H 0.97510 0.03578 0.62383
 H348 H 0.86743 0.10819 0.69431
 H349 H 0.94826 0.07079 0.56656
 C350 C 1.16832 -0.13350 0.70444
 C351 C 1.17968 -0.10662 0.69109
 C352 C 1.15908 -0.08623 0.67446
 C353 C 1.16911 -0.07068 0.64729
 C354 C 1.14913 -0.05311 0.62977
 C355 C 1.11894 -0.05044 0.63952
 C356 C 1.10954 -0.06452 0.66773
 C357 C 1.12934 -0.08250 0.68496
 C358 C 1.09677 -0.03370 0.62031
 C359 C 1.09616 -0.03444 0.58754
 H360 H 1.20427 -0.10172 0.69027
 H361 H 1.19210 -0.07290 0.63908
 H362 H 1.15726 -0.04174 0.60856
 H363 H 1.08652 -0.06237 0.67589
 H364 H 1.12134 -0.09355 0.70639
 H365 H 1.07892 -0.02299 0.63207
 H366 H 1.14396 -0.13972 0.70241
 H367 H 1.11224 -0.04741 0.57579
 C368 C 0.25247 1.08984 1.07313
 C369 C 0.27504 1.10127 1.05280
 C370 C 0.30100 1.08348 1.04522
 C371 C 0.33071 1.09722 1.04418
 C372 C 0.35603 1.08020 1.04065
 C373 C 0.35189 1.04918 1.03761
 C374 C 0.32202 1.03577 1.03650
 C375 C 0.29676 1.05270 1.04053
 C376 C 0.37817 1.03047 1.03471
 C377 C 0.40679 1.03722 1.04929
 H378 H 0.27607 1.12460 1.04583
 H379 H 0.33441 1.12099 1.04724
 H380 H 0.37876 1.09132 1.04027
 H381 H 0.31828 1.01201 1.03335
 H382 H 0.27396 1.04168 1.04026
 H383 H 0.37455 1.01023 1.02150
 H384 H 0.25358 1.06719 1.08216
 H385 H 0.40995 1.05596 1.06476
 C386 C 0.36921 0.82407 0.84015
 C387 C 0.38689 0.84837 0.82794
 C388 C 0.40961 0.86578 0.84776
 C389 C 0.41399 0.89647 0.84171
 C390 C 0.43143 0.91455 0.86266
 C391 C 0.44528 0.90213 0.88997
 C392 C 0.44252 0.87116 0.89489
 C393 C 0.42502 0.85309 0.87393
 C394 C 0.45992 0.92073 0.91521
 C395 C 0.46750 0.95113 0.91156
 H396 H 0.38063 0.85782 0.80510
 H397 H 0.40246 0.90675 0.82163
 H398 H 0.43250 0.93828 0.85801
 H399 H 0.45314 0.86099 0.91556
 H400 H 0.42310 0.82936 0.87873
 H401 H 0.46304 0.91039 0.93836
 H402 H 0.37500 0.81499 0.86328
 H403 H 0.46686 0.96192 0.88852
 C404 C 0.71101 0.87451 1.12580
 C405 C 0.68953 0.89014 1.14131
 C406 C 0.66729 0.90899 1.12456
 C407 C 0.64031 0.91515 1.13961
 C408 C 0.61889 0.93309 1.12471
 C409 C 0.62416 0.94537 1.09441
 C410 C 0.65151 0.93984 1.07971
 C411 C 0.67286 0.92182 1.09455
 C412 C 0.60217 0.96450 1.07774
 C413 C 0.57086 0.96338 1.08384
 H414 H 0.68809 0.88784 1.16667
 H415 H 0.63575 0.90599 1.16296
 H416 H 0.59859 0.93763 1.13726
 H417 H 0.65632 0.94942 1.05658
 H418 H 0.69388 0.91853 1.08264
 H419 H 0.61064 0.97867 1.05848
 H420 H 0.71094 0.87498 1.10031
 H421 H 0.56133 0.94780 1.10129
 C422 C 0.70551 1.14124 0.85124
 C423 C 0.69010 1.15210 0.87636
 C424 C 0.67236 1.13183 0.89786
 C425 C 0.64522 1.14102 0.91025
 C426 C 0.62707 1.12146 0.92901
 C427 C 0.63607 1.09250 0.93599
 C428 C 0.66408 1.08395 0.92505
 C429 C 0.68202 1.10335 0.90600
 C430 C 0.61676 1.07080 0.95443
 C431 C 0.58482 1.07063 0.95325
 H432 H 0.68913 1.17585 0.87909
 H433 H 0.63766 1.16307 0.90473
 H434 H 0.60609 1.12908 0.93805
 H435 H 0.67173 1.06194 0.93063
 H436 H 0.70343 1.09603 0.89768
 H437 H 0.62780 1.05307 0.96726
 H438 H 0.70382 1.11754 0.84718
 H439 H 0.57328 1.08671 0.93849
 C440 C 0.11858 0.28263 0.08445
 C441 C 0.09847 0.29955 0.10020
 C442 C 0.08123 0.32364 0.08500
 C443 C 0.06863 0.34422 0.10430
 C444 C 0.05110 0.36661 0.09124
 C445 C 0.04572 0.36884 0.05846
 C446 C 0.05792 0.34803 0.03912
 C447 C 0.07560 0.32566 0.05219
 C448 C 0.02666 0.39188 0.04398
 C449 C 0.02363 0.41927 0.05776
 H450 H 0.09534 0.29527 0.12513
 H451 H 0.07218 0.34285 0.12967
 H452 H 0.04123 0.38163 0.10700
 H453 H 0.05374 0.34908 0.01381
 H454 H 0.08407 0.30969 0.03657
 H455 H 0.01595 0.38776 0.02099
 H456 H 0.12390 0.28785 0.06015
 H457 H 0.03655 0.42492 0.07920
 C458 C -0.15703 0.33823 -0.19153
 C459 C -0.17118 0.35378 -0.16861
 C460 C -0.15508 0.37830 -0.15091
 C461 C -0.16413 0.38338 -0.12023
 C462 C -0.14766 0.40433 -0.10159
 C463 C -0.12188 0.42077 -0.11326
 C464 C -0.11400 0.41705 -0.14475
 C465 C -0.13043 0.39599 -0.16337
 C466 C -0.10328 0.44021 -0.09131
 C467 C -0.07328 0.45134 -0.09683
 H468 H -0.19353 0.34554 -0.16067
 H469 H -0.18329 0.37032 -0.11021
 H470 H -0.15451 0.40695 -0.07756
 H471 H -0.09510 0.43002 -0.15520
 H472 H -0.12363 0.39357 -0.18740
 H473 H -0.11240 0.44331 -0.06825
 H474 H -0.13406 0.34525 -0.19864
 H475 H -0.06294 0.44862 -0.11926
 C476 C 0.16140 0.68904 -0.13911
 C477 C 0.13425 0.67552 -0.15162
 C478 C 0.11141 0.65917 -0.13179
 C479 C 0.09306 0.63559 -0.14469
 C480 C 0.07140 0.61958 -0.12638
 C481 C 0.06744 0.62725 -0.09495
 C482 C 0.08486 0.65162 -0.08246
 C483 C 0.10685 0.66736 -0.10063
 C484 C 0.04556 0.61004 -0.07475
 C485 C 0.04068 0.57936 -0.07707
 H486 H 0.12998 0.67602 -0.17689
 H487 H 0.09580 0.62930 -0.16885
 H488 H 0.05761 0.60140 -0.13691
 H489 H 0.08185 0.65812 -0.05843
 H490 H 0.11992 0.68612 -0.09038
 H491 H 0.03541 0.62124 -0.05574
 H492 H 0.16727 0.68617 -0.11429
 H493 H 0.05303 0.56759 -0.09405
 C494 C -0.11921 0.71732 0.11544
 C495 C -0.10465 0.69296 0.12845
 C496 C -0.09034 0.67100 0.10913
 C497 C -0.08713 0.64220 0.12166
 C498 C -0.07405 0.62073 0.10410
 C499 C -0.06371 0.62772 0.07357
 C500 C -0.06605 0.65678 0.06140
 C501 C -0.07931 0.67822 0.07891
 C502 C -0.04939 0.60563 0.05446
 C503 C -0.05557 0.57502 0.05843
 H504 H -0.10539 0.68867 0.15363
 H505 H -0.09496 0.63621 0.14508
 H506 H -0.07159 0.59891 0.11479
 H507 H -0.05773 0.66287 0.03820
 H508 H -0.08038 0.70047 0.06887
 H509 H -0.03409 0.61377 0.03611
 H510 H -0.12074 0.72067 0.09012
 H511 H -0.07246 0.56651 0.07504
 C512 C 1.15952 0.14521 0.69980
 C513 C 1.14141 0.15700 0.67539
 C514 C 1.13275 0.14040 0.64639
 C515 C 1.10536 0.14634 0.62980
 C516 C 1.09533 0.12948 0.60377
 C517 C 1.11267 0.10634 0.59377
 C518 C 1.14100 0.10172 0.60916
 C519 C 1.15098 0.11852 0.63517
 C520 C 1.10151 0.08552 0.56879
 C521 C 1.07045 0.08004 0.56060
 H522 H 1.13126 0.17799 0.67862
 H523 H 1.09123 0.16352 0.63754
 H524 H 1.07391 0.13452 0.59190
 H525 H 1.15509 0.08441 0.60165
 H526 H 1.17288 0.11413 0.64645
 H527 H 1.11776 0.07072 0.56003
 H528 H 1.16807 0.12335 0.69774
 H529 H 1.05334 0.09348 0.56989
 C530 C 0.86441 -0.13228 0.69821
 C531 C 0.89081 -0.14227 0.68527
 C532 C 0.90489 -0.12727 0.65721
 C533 C 0.93686 -0.12648 0.65390
 C534 C 0.95075 -0.11056 0.62873
 C535 C 0.93275 -0.09544 0.60609
 C536 C 0.90066 -0.09760 0.60869
 C537 C 0.88687 -0.11331 0.63384
 C538 C 0.94595 -0.07571 0.58066
 C539 C 0.97731 -0.06939 0.57593
 H540 H 0.90266 -0.15995 0.69726
 H541 H 0.95121 -0.13738 0.67139
 H542 H 0.97550 -0.10975 0.62768
 H543 H 0.88612 -0.08651 0.59151
 H544 H 0.86207 -0.11437 0.63495
 H545 H 0.92983 -0.06353 0.56617
 H546 H 0.85431 -0.11276 0.68797
 H547 H 0.99449 -0.08141 0.58891
 C548 C 1.12800 -0.17511 0.32360
 C549 C 1.13882 -0.15169 0.34262
 C550 C 1.11937 -0.13686 0.36468
 C551 C 1.13375 -0.11862 0.38777
 C552 C 1.11641 -0.10243 0.40755
 C553 C 1.08409 -0.10412 0.40465
 C554 C 1.06969 -0.12263 0.38178
 C555 C 1.08705 -0.13881 0.36198
 C556 C 1.06485 -0.08507 0.42279
 C557 C 1.07569 -0.06877 0.44881
 H558 H 1.16265 -0.14360 0.34123
 H559 H 1.15860 -0.11642 0.39011
 H560 H 1.12866 -0.08788 0.42414
 H561 H 1.04489 -0.12402 0.37868
 H562 H 1.07495 -0.15185 0.34395
 H563 H 1.04156 -0.08233 0.41399
 H564 H 1.10494 -0.18498 0.32608
 H565 H 1.09823 -0.07198 0.45919
 C566 C 0.87289 0.14144 0.30697
 C567 C 0.89005 0.15200 0.33304
 C568 C 0.91065 0.13282 0.35146
 C569 C 0.91316 0.13523 0.38432
 C570 C 0.93133 0.11620 0.40232
 C571 C 0.94776 0.09487 0.38756
 C572 C 0.94643 0.09351 0.35459
 C573 C 0.92781 0.11211 0.33667
 C574 C 0.96630 0.07373 0.40584
 C575 C 0.95748 0.06186 0.43509
 H576 H 0.88641 0.17387 0.34167
 H577 H 0.90046 0.15135 0.39613
 H578 H 0.93262 0.11831 0.42767
 H579 H 0.95925 0.07752 0.34272
 H580 H 0.92696 0.11036 0.31126
 H581 H 0.98561 0.06494 0.39454
 H582 H 0.87394 0.11844 0.30048
 H583 H 0.93662 0.06846 0.44534
 C584 C 0.11918 0.30499 -0.12445
 C585 C 0.12737 0.32242 -0.09845
 C586 C 0.10574 0.34214 -0.08469
 C587 C 0.11711 0.36859 -0.07056
 C588 C 0.09695 0.38810 -0.05845
 C589 C 0.06504 0.38119 -0.05990
 C590 C 0.05385 0.35405 -0.07263
 C591 C 0.07393 0.33477 -0.08507
 C592 C 0.04271 0.40163 -0.04874
 C593 C 0.04805 0.43253 -0.04904
 H594 H 0.15078 0.32301 -0.08905
 H595 H 0.14159 0.37443 -0.06945
 H596 H 0.10642 0.40840 -0.04788
 H597 H 0.02940 0.34801 -0.07354
 H598 H 0.06449 0.31405 -0.09477
 H599 H 0.01997 0.39219 -0.04325
 H600 H 0.09676 0.30656 -0.13585
 H601 H 0.06997 0.44267 -0.05618
 C602 C -0.16506 0.33991 0.18143
 C603 C -0.17694 0.35611 0.15586
 C604 C -0.15880 0.38058 0.13956
 C605 C -0.16633 0.38770 0.10799
 C606 C -0.14806 0.40869 0.09094
 C607 C -0.12173 0.42304 0.10521
 C608 C -0.11540 0.41728 0.13734
 C609 C -0.13371 0.39638 0.15439
 C610 C -0.09960 0.44298 0.08746
 C611 C -0.09817 0.44382 0.05463
 H612 H -0.19910 0.34884 0.14556
 H613 H -0.18591 0.37635 0.09617
 H614 H -0.15462 0.41319 0.06661
 H615 H -0.09567 0.42841 0.14916
 H616 H -0.12788 0.39262 0.17905
 H617 H -0.08156 0.45510 0.10089
 H618 H -0.14224 0.34579 0.19090
 H619 H -0.11521 0.43139 0.04040
 C620 C -0.17109 0.69042 -0.12586
 C621 C -0.14738 0.67371 -0.13551
 C622 C -0.13594 0.64805 -0.11692
 C623 C -0.11863 0.62767 -0.13192
 C624 C -0.10541 0.60453 -0.11474
 C625 C -0.10913 0.60135 -0.08196
 C626 C -0.12674 0.62154 -0.06704
 C627 C -0.14004 0.64461 -0.08423
 C628 C -0.09241 0.57958 -0.06216
 C629 C -0.07808 0.55560 -0.07413
 H630 H -0.13657 0.67965 -0.15759
 H631 H -0.11479 0.63001 -0.15697
 H632 H -0.09131 0.59009 -0.12713
 H633 H -0.12955 0.61996 -0.04177
 H634 H -0.15238 0.66029 -0.07151
 H635 H -0.08920 0.58409 -0.03728
 H636 H -0.18379 0.68345 -0.10520
 H637 H -0.08212 0.54944 -0.09842
 C638 C 0.14322 0.65954 0.15703
 C639 C 0.15392 0.64394 0.13211
 C640 C 0.13572 0.61807 0.11874
 C641 C 0.13710 0.61257 0.08649
 C642 C 0.11741 0.59058 0.07253
 C643 C 0.09595 0.57349 0.09075
 C644 C 0.09621 0.57768 0.12340
 C645 C 0.11589 0.59960 0.13729
 C646 C 0.07161 0.55273 0.07684
 C647 C 0.06546 0.55007 0.04452
 H648 H 0.17415 0.65276 0.12005
 H649 H 0.15257 0.62615 0.07178
 H650 H 0.11878 0.58781 0.04746
 H651 H 0.08041 0.56456 0.13817
 H652 H 0.11512 0.60231 0.16250
 H653 H 0.05571 0.54132 0.09285
 H654 H 0.12162 0.65215 0.16738
 H655 H 0.08070 0.56081 0.02758
 C656 C 0.29472 1.15317 0.91115
 C657 C 0.29573 1.12249 0.91587
 C658 C 0.32201 1.10774 0.93085
 C659 C 0.31703 1.07859 0.94277
 C660 C 0.34167 1.06237 0.95346
 C661 C 0.37197 1.07475 0.95217
 C662 C 0.37697 1.10444 0.94137
 C663 C 0.35218 1.12078 0.93080
 C664 C 0.39718 1.05515 0.96071
 C665 C 0.42861 1.06302 0.95892
 H666 H 0.27613 1.10830 0.90800
 H667 H 0.29401 1.06804 0.94309
 H668 H 0.33704 1.03966 0.96189
 H669 H 0.39984 1.11499 0.94011
 H670 H 0.35690 1.14307 0.92130
 H671 H 0.39040 1.03241 0.96758
 H672 H 0.31216 1.16820 0.92181
 H673 H 0.43688 1.08543 0.95262
 C674 C 0.32230 0.84167 1.17274
 C675 C 0.33602 0.83838 1.14386
 C676 C 0.36130 0.85903 1.13198
 C677 C 0.37811 0.85071 1.10630
 C678 C 0.40109 0.87016 1.09350
 C679 C 0.40758 0.89856 1.10607
 C680 C 0.39115 0.90664 1.13204
 C681 C 0.36816 0.88734 1.14468
 C682 C 0.43033 0.92085 1.09252
 C683 C 0.44029 0.92060 1.06158
 H684 H 0.32766 0.82019 1.12908
 H685 H 0.37336 0.82910 1.09599
 H686 H 0.41361 0.86279 1.07390
 H687 H 0.39553 0.92841 1.14210
 H688 H 0.35540 0.89529 1.16379
 H689 H 0.43684 0.94022 1.10641
 H690 H 0.33119 0.85874 1.18858
 H691 H 0.43326 0.90226 1.04651
 C692 C 0.66775 1.15162 1.16920
 C693 C 0.64308 1.16444 1.15354
 C694 C 0.61607 1.14591 1.14176
 C695 C 0.60101 1.15404 1.11343
 C696 C 0.57766 1.13513 1.10012
 C697 C 0.56882 1.10782 1.11515
 C698 C 0.58230 1.10086 1.14465
 C699 C 0.60575 1.11963 1.15781
 C700 C 0.54724 1.08532 1.10010
 C701 C 0.54486 1.08234 1.06748
 H702 H 0.64489 1.18791 1.14718
 H703 H 0.60814 1.17449 1.10096
 H704 H 0.56697 1.14175 1.07789
 H705 H 0.57556 1.08022 1.15698
 H706 H 0.61605 1.11328 1.18034
 H707 H 0.53694 1.06774 1.11498
 H708 H 0.66705 1.12772 1.17294
 H709 H 0.55674 1.09857 1.05223
 C710 C 0.69691 0.88344 0.87551
 C711 C 0.67277 0.87079 0.89308
 C712 C 0.65248 0.88930 0.91032
 C713 C 0.62071 0.88207 0.91033
 C714 C 0.60129 0.89955 0.92656
 C715 C 0.61357 0.92394 0.94382
 C716 C 0.64544 0.93056 0.94459
 C717 C 0.66471 0.91367 0.92762
 C718 C 0.59385 0.94257 0.96158
 C719 C 0.56582 0.95168 0.94932
 H720 H 0.66764 0.84695 0.89286
 H721 H 0.61090 0.86317 0.89740
 H722 H 0.57681 0.89371 0.92607
 H723 H 0.65537 0.94913 0.95796
 H724 H 0.68922 0.91932 0.92849
 H725 H 0.60343 0.95251 0.98301
 H726 H 0.69962 0.90741 0.87249
 H727 H 0.55770 0.94479 0.92609
   
