data_POSCAR
  _audit_creation_date              2014-09-24
  _audit_creation_method            'ToBaCCo'
  _symmetry_space_group_name_H-M    'P1'
  _symmetry_Int_Tables_number       1
  _symmetry_cell_setting            triclinic
  loop_
  _symmetry_equiv_pos_as_xyz
 x,y,z
_cell_length_a 57.3183
_cell_length_b 57.2781
_cell_length_c 23.2015
_cell_angle_alpha 90.076800
_cell_angle_beta 89.867100
_cell_angle_gamma 119.965500
loop_
  _atom_site_label
  _atom_site_type_symbol
  _atom_site_fract_x
  _atom_site_fract_y
  _atom_site_fract_z
C1 C 0.17134 0.46943 0.49977
 C2 C 0.18563 0.47352 0.44844
 C3 C 0.21036 0.47409 0.44876
 C4 C 0.22050 0.46915 0.50015
 C5 C 0.20521 0.46430 0.55126
 C6 C 0.18124 0.46520 0.55123
 C7 C 0.24680 0.46926 0.50060
 C8 C 0.26160 0.47376 0.55226
 C9 C 0.28579 0.47329 0.55266
 C10 C 0.29633 0.46977 0.50129
 C11 C 0.28252 0.46602 0.44961
 C12 C 0.25762 0.46503 0.44932
 H13 H 0.15252 0.46969 0.49972
 H14 H 0.22156 0.47867 0.40882
 H15 H 0.21163 0.45975 0.59141
 H16 H 0.25479 0.47790 0.59243
 H17 H 0.31542 0.47008 0.50149
 H18 H 0.24698 0.46088 0.40886
 C19 C 0.52919 -0.29876 0.50125
 C20 C 0.53302 -0.28478 0.44964
 C21 C 0.53422 -0.25973 0.44979
 C22 C 0.53011 -0.24897 0.50134
 C23 C 0.52552 -0.26393 0.55278
 C24 C 0.52578 -0.28824 0.55284
 C25 C 0.53032 -0.22260 0.50145
 C26 C 0.53520 -0.20742 0.55277
 C27 C 0.53429 -0.18343 0.55308
 C28 C 0.53001 -0.17344 0.50185
 C29 C 0.52588 -0.18763 0.45046
 C30 C 0.52534 -0.21233 0.45035
 H31 H 0.52873 -0.31795 0.50123
 H32 H 0.53844 -0.24887 0.40952
 H33 H 0.52145 -0.25710 0.59303
 H34 H 0.53975 -0.21388 0.59282
 H35 H 0.52975 -0.15462 0.50202
 H36 H 0.52074 -0.22336 0.41024
 C37 C 1.29805 0.82736 0.49403
 C38 C 1.28693 0.81333 0.44293
 C39 C 1.26259 0.78879 0.44428
 C40 C 1.24823 0.77864 0.49660
 C41 C 1.25965 0.79366 0.54756
 C42 C 1.28469 0.81740 0.54631
 C43 C 1.22173 0.75263 0.49799
 C44 C 1.21174 0.73770 0.54969
 C45 C 1.18685 0.71369 0.55074
 C46 C 1.17227 0.70352 0.49986
 C47 C 1.18201 0.71752 0.44820
 C48 C 1.20610 0.74222 0.44741
 H49 H 1.31723 0.84604 0.49326
 H50 H 1.25529 0.77779 0.40433
 H51 H 1.24937 0.78728 0.58853
 H52 H 1.22314 0.74427 0.58927
 H53 H 1.15336 0.68456 0.50028
 H54 H 1.21229 0.75300 0.40701
 C55 C 0.82728 0.53052 0.49855
 C56 C 0.81730 0.53478 0.44729
 C57 C 0.79331 0.53563 0.44755
 C58 C 0.77810 0.53073 0.49887
 C59 C 0.78836 0.52580 0.55002
 C60 C 0.81307 0.52638 0.54994
 C61 C 0.75171 0.53045 0.49890
 C62 C 0.74086 0.53450 0.55040
 C63 C 0.71579 0.53325 0.55039
 C64 C 0.70192 0.52942 0.49870
 C65 C 0.71253 0.52607 0.44725
 C66 C 0.73684 0.52587 0.44741
 H67 H 0.84609 0.53029 0.49840
 H68 H 0.78685 0.54016 0.40746
 H69 H 0.77731 0.52119 0.59014
 H70 H 0.75163 0.53870 0.59073
 H71 H 0.68273 0.52892 0.49843
 H72 H 0.74368 0.52186 0.40714
 C73 C 0.47028 0.29731 0.50003
 C74 C 0.47368 0.28665 0.44873
 C75 C 0.47403 0.26238 0.44930
 C76 C 0.46953 0.24762 0.50107
 C77 C 0.46543 0.25855 0.55232
 C78 C 0.46654 0.28355 0.55190
 C79 C 0.46925 0.22121 0.50161
 C80 C 0.47418 0.21104 0.55297
 C81 C 0.47349 0.18621 0.55328
 C82 C 0.46925 0.17190 0.50198
 C83 C 0.46502 0.18184 0.45063
 C84 C 0.46426 0.20588 0.45057
 H85 H 0.47067 0.31646 0.49951
 H86 H 0.47807 0.25547 0.40916
 H87 H 0.46127 0.24786 0.59281
 H88 H 0.47887 0.22226 0.59286
 H89 H 0.46942 0.15302 0.50183
 H90 H 0.45973 0.21227 0.41039
 C91 C 0.70378 0.17289 0.50106
 C92 C 0.71407 0.18750 0.45025
 C93 C 0.73811 0.21231 0.45131
 C94 C 0.75298 0.22223 0.50303
 C95 C 0.74245 0.20658 0.55362
 C96 C 0.71770 0.18253 0.55277
 C97 C 0.77906 0.24867 0.50439
 C98 C 0.78924 0.26299 0.55670
 C99 C 0.81382 0.28728 0.55800
 C100 C 0.82788 0.29840 0.50686
 C101 C 0.81790 0.28507 0.45461
 C102 C 0.79410 0.26008 0.45341
 H103 H 0.68479 0.15403 0.50042
 H104 H 0.74472 0.22367 0.41164
 H105 H 0.75316 0.21271 0.59406
 H106 H 0.77823 0.25570 0.59668
 H107 H 0.84660 0.31755 0.50759
 H108 H 0.78770 0.24985 0.41244
 N109 N 0.97208 0.52893 0.05728
 N110 N 0.95410 0.53639 0.06820
 N111 N 1.02850 0.54137 0.09877
 N112 N 1.04631 0.55552 0.13884
 N113 N 1.02865 0.55722 0.05771
 N114 N 1.04656 0.58263 0.06886
 N115 N 0.97194 0.51303 0.09823
 N116 N 0.95389 0.50923 0.13799
 C117 C 0.94269 0.52355 0.11817
 C118 C 1.05764 0.58107 0.11908
 N119 N 1.02879 0.47430 0.06464
 N120 N 1.04801 0.46868 0.07647
 N121 N 0.97200 0.46272 0.10251
 N122 N 0.95386 0.44953 0.14287
 N123 N 0.97215 0.44590 0.06416
 N124 N 0.95411 0.42080 0.07744
 N125 N 1.02860 0.49116 0.10284
 N126 N 1.04764 0.49750 0.14160
 Mn127 Mn 1.00025 0.50206 0.10107
 C128 C 1.05968 0.48356 0.12422
 C129 C 0.94265 0.42354 0.12606
 N130 N 1.02916 0.55556 -0.06667
 N131 N 1.04843 0.58044 -0.07815
 N132 N 0.97265 0.51038 -0.10537
 N133 N 0.95341 0.50379 -0.14374
 N134 N 0.97242 0.52718 -0.06711
 N135 N 0.95298 0.53253 -0.07846
 N136 N 1.02925 0.53864 -0.10481
 N137 N 1.04853 0.55145 -0.14319
 Mn138 Mn 1.00058 0.54248 -0.00478
 C139 C 1.06042 0.57738 -0.12562
 C140 C 0.94124 0.51756 -0.12604
 N141 N 0.97232 0.44429 -0.06021
 N142 N 0.95290 0.41921 -0.06930
 N143 N 1.02914 0.48837 -0.10074
 N144 N 1.04716 0.49211 -0.14053
 N145 N 1.02900 0.47250 -0.05976
 N146 N 1.04693 0.46497 -0.07067
 N147 N 0.97258 0.46024 -0.10113
 N148 N 0.95342 0.44658 -0.13905
 Mn149 Mn 1.00057 0.45898 0.00224
 Mn150 Mn 1.00093 0.49942 -0.10351
 Cl151 Cl 1.00058 0.50074 -0.00120
 C152 C 0.94122 0.42117 -0.11835
 C153 C 1.05832 0.47777 -0.12066
 N154 N 0.53845 0.51111 0.10187
 N155 N 0.55154 0.50508 0.14027
 N156 N 0.52670 0.55566 0.06074
 N157 N 0.53402 0.58097 0.07270
 N158 N 0.51016 0.53944 0.10038
 N159 N 0.50577 0.55324 0.14028
 N160 N 0.55500 0.52726 0.06217
 N161 N 0.57990 0.53271 0.07257
 C162 C 0.57722 0.51850 0.12112
 C163 C 0.52042 0.57899 0.12187
 N164 N 0.51086 0.53849 -0.10333
 N165 N 0.50481 0.55154 -0.14181
 N166 N 0.55554 0.52696 -0.06228
 N167 N 0.58085 0.53431 -0.07421
 N168 N 0.53936 0.51037 -0.10184
 N169 N 0.55320 0.50597 -0.14165
 N170 N 0.52697 0.55510 -0.06373
 N171 N 0.53237 0.57998 -0.07429
 Mn172 Mn 0.54132 0.54151 -0.00078
 C173 C 0.51815 0.57725 -0.12282
 C174 C 0.57892 0.52068 -0.12328
 N175 N 0.45992 0.48904 0.10047
 N176 N 0.44607 0.49350 0.14013
 N177 N 0.47230 0.44430 0.06251
 N178 N 0.46679 0.41939 0.07330
 N179 N 0.48842 0.46091 0.10208
 N180 N 0.49436 0.44785 0.14076
 N181 N 0.44376 0.47247 0.06087
 N182 N 0.41846 0.46520 0.07258
 Mn183 Mn 0.49922 0.50014 0.10169
 C184 C 0.42038 0.47885 0.12158
 C185 C 0.48094 0.42212 0.12194
 N186 N 0.48912 0.45998 -0.10164
 N187 N 0.49363 0.44617 -0.14129
 N188 N 0.44426 0.47214 -0.06355
 N189 N 0.41935 0.46659 -0.07412
 N190 N 0.46081 0.48831 -0.10323
 N191 N 0.44771 0.49423 -0.14178
 N192 N 0.47261 0.44378 -0.06193
 N193 N 0.46543 0.41848 -0.07357
 Mn194 Mn 0.50006 0.49927 -0.10300
 Mn195 Mn 0.45797 0.45791 -0.00053
 Cl196 Cl 0.49964 0.49971 -0.00065
 C197 C 0.47908 0.42045 -0.12263
 C198 C 0.42200 0.48076 -0.12276
 N199 N 0.44392 -0.02825 0.06028
 N200 N 0.41886 -0.04768 0.06946
 N201 N 0.48797 0.02859 0.10068
 N202 N 0.49171 0.04662 0.14044
 N203 N 0.47212 0.02847 0.05974
 N204 N 0.46461 0.04642 0.07063
 N205 N 0.45986 -0.02801 0.10116
 N206 N 0.44619 -0.04719 0.13915
 C207 C 0.42080 -0.05937 0.11852
 C208 C 0.47739 0.05780 0.12057
 N209 N 0.55512 0.02861 0.06645
 N210 N 0.57997 0.04790 0.07779
 N211 N 0.50995 -0.02796 0.10528
 N212 N 0.50337 -0.04721 0.14370
 N213 N 0.52674 -0.02818 0.06698
 N214 N 0.53209 -0.04763 0.07835
 N215 N 0.53820 0.02869 0.10463
 N216 N 0.55100 0.04799 0.14291
 Mn217 Mn 0.49901 0.00035 0.10344
 C218 C 0.57690 0.05990 0.12523
 C219 C 0.51712 -0.05939 0.12598
 N220 N 0.47396 0.02832 -0.06464
 N221 N 0.46840 0.04761 -0.07635
 N222 N 0.46238 -0.02850 -0.10250
 N223 N 0.44921 -0.04663 -0.14282
 N224 N 0.44556 -0.02837 -0.06410
 N225 N 0.42049 -0.04641 -0.07729
 N226 N 0.49081 0.02815 -0.10290
 N227 N 0.49721 0.04728 -0.14158
 Mn228 Mn 0.45863 0.00004 -0.00221
 C229 C 0.48331 0.05934 -0.12409
 C230 C 0.42322 -0.05786 -0.12592
 N231 N 0.52852 -0.02846 -0.05742
 N232 N 0.53595 -0.04647 -0.06832
 N233 N 0.54098 0.02803 -0.09895
 N234 N 0.55514 0.04593 -0.13898
 N235 N 0.55680 0.02815 -0.05792
 N236 N 0.58219 0.04613 -0.06904
 N237 N 0.51265 -0.02857 -0.09835
 N238 N 0.50884 -0.04663 -0.13807
 Mn239 Mn 0.54205 0.00003 0.00460
 Mn240 Mn 0.50169 -0.00023 -0.10117
 Cl241 Cl 0.50035 0.00005 0.00112
 C242 C 0.52313 -0.05786 -0.11825
 C243 C 0.58065 0.05727 -0.11922
 C244 C 1.14928 0.48009 0.30752
 N245 N 1.13167 0.45741 0.27885
 N246 N 1.11571 0.45830 0.23829
 C247 C 1.11686 0.48192 0.22515
 N248 N 1.13458 0.50464 0.25359
 N249 N 1.15053 0.50374 0.29417
 C250 C 1.16400 0.47847 0.35586
 C251 C 1.17492 0.47650 0.39846
 C252 C 1.09759 0.48237 0.18641
 C253 C 1.08063 0.48281 0.15651
 C254 C 0.53389 0.67581 0.30803
 N255 N 0.55478 0.67160 0.29734
 N256 N 0.55283 0.65433 0.25650
 C257 C 0.52994 0.64070 0.22514
 N258 N 0.50911 0.64501 0.23563
 N259 N 0.51105 0.66228 0.27647
 C260 C 0.53468 0.69173 0.35661
 C261 C 0.53442 0.70358 0.39942
 C262 C 0.52679 0.61994 0.18584
 C263 C 0.52393 0.60165 0.15527
 C264 C 0.32756 -0.15008 0.29959
 N265 N 0.32334 -0.13102 0.27507
 N266 N 0.33980 -0.11495 0.23400
 C267 C 0.36098 -0.11746 0.21612
 N268 N 0.36510 -0.13664 0.24038
 N269 N 0.34865 -0.15270 0.28147
 C270 C 0.31199 -0.16488 0.34878
 C271 C 0.29982 -0.17587 0.39214
 C272 C 0.38074 -0.09790 0.17777
 C273 C 0.39843 -0.08066 0.14880
 C274 C 0.85904 0.53716 0.30296
 N275 N 0.84948 0.51483 0.26944
 N276 N 0.86492 0.51306 0.22859
 C277 C 0.89041 0.53357 0.22002
 N278 N 0.89992 0.55597 0.25332
 N279 N 0.88449 0.55773 0.29418
 C280 C 0.84370 0.53756 0.35155
 C281 C 0.83137 0.53691 0.39428
 C282 C 0.90809 0.53040 0.18094
 C283 C 0.92354 0.52739 0.15077
 C284 C 0.47869 0.32929 0.30426
 N285 N 0.45560 0.32457 0.27802
 N286 N 0.45609 0.34119 0.23729
 C287 C 0.47969 0.36306 0.22152
 N288 N 0.50279 0.36770 0.24753
 N289 N 0.50231 0.35108 0.28827
 C290 C 0.47767 0.31331 0.35282
 C291 C 0.47624 0.30072 0.39559
 C292 C 0.47985 0.38272 0.18295
 C293 C 0.48017 0.40018 0.15342
 C294 C 0.67044 0.15054 0.30646
 N295 N 0.64798 0.15166 0.29338
 N296 N 0.63102 0.13551 0.25311
 C297 C 0.63599 0.11772 0.22472
 N298 N 0.65853 0.11670 0.23758
 N299 N 0.67549 0.13285 0.27784
 C300 C 0.68684 0.16539 0.35465
 C301 C 0.69974 0.17637 0.39721
 C302 C 0.61617 0.09822 0.18645
 C303 C 0.59869 0.08107 0.15698
 C304 C 0.48010 0.14962 -0.30620
 N305 N 0.50368 0.15066 -0.29337
 N306 N 0.50455 0.13456 -0.25305
 C307 C 0.48188 0.11690 -0.22435
 N308 N 0.45833 0.11595 -0.23696
 N309 N 0.45746 0.13206 -0.27727
 C310 C 0.47847 0.16445 -0.35433
 C311 C 0.47649 0.17545 -0.39682
 C312 C 0.48228 0.09748 -0.18589
 C313 C 0.48265 0.08041 -0.15619
 C314 C 0.67607 0.53407 -0.30845
 N315 N 0.66239 0.51117 -0.27698
 N316 N 0.64502 0.50923 -0.23638
 C317 C 0.64076 0.53011 -0.22603
 N318 N 0.65455 0.55306 -0.25727
 N319 N 0.67192 0.55501 -0.29788
 C320 C 0.69212 0.53486 -0.35682
 C321 C 0.70406 0.53462 -0.39949
 C322 C 0.61993 0.52699 -0.18695
 C323 C 0.60160 0.52415 -0.15654
 C324 C 0.85046 0.32788 -0.29884
 N325 N 0.86954 0.32366 -0.27448
 N326 N 0.88563 0.34013 -0.23351
 C327 C 0.88312 0.36133 -0.21560
 N328 N 0.86393 0.36544 -0.23971
 N329 N 0.84785 0.34898 -0.28069
 C330 C 0.83564 0.31231 -0.34794
 C331 C 0.82464 0.30014 -0.39125
 C332 C 0.90269 0.38110 -0.17738
 C333 C 0.91994 0.39879 -0.14851
 C334 C 0.53666 -0.14168 -0.30269
 N335 N 0.55725 -0.11624 -0.29396
 N336 N 0.55549 -0.10077 -0.25319
 C337 C 0.53308 -0.11025 -0.21991
 N338 N 0.51256 -0.13574 -0.22842
 N339 N 0.51432 -0.15121 -0.26919
 C340 C 0.53707 -0.15704 -0.35122
 C341 C 0.53642 -0.16938 -0.39392
 C342 C 0.52992 -0.09253 -0.18091
 C343 C 0.52693 -0.07705 -0.15080
 C344 C 0.32875 0.47843 -0.30349
 N345 N 0.35061 0.50206 -0.28796
 N346 N 0.36735 0.50258 -0.24755
 C347 C 0.36276 0.47948 -0.22144
 N348 N 0.34082 0.45586 -0.23674
 N349 N 0.32407 0.45535 -0.27714
 C350 C 0.31263 0.47737 -0.35178
 C351 C 0.29995 0.47590 -0.39436
 C352 C 0.38251 0.47966 -0.18322
 C353 C 0.40003 0.47998 -0.15397
 C354 C 1.15069 0.67089 -0.30785
 N355 N 1.13305 0.67595 -0.27908
 N356 N 1.11699 0.65902 -0.23860
 C357 C 1.11805 0.63649 -0.22566
 N358 N 1.13580 0.63151 -0.25420
 N359 N 1.15186 0.64844 -0.29469
 C360 C 1.16542 0.68725 -0.35627
 C361 C 1.17629 0.70010 -0.39903
 C362 C 1.09863 0.61667 -0.18717
 C363 C 1.08154 0.59919 -0.15753
 C364 C 0.85040 0.51979 -0.30705
 N365 N 0.84964 0.49632 -0.29437
 N366 N 0.86580 0.49559 -0.25407
 C367 C 0.88321 0.51831 -0.22526
 N368 N 0.88387 0.54175 -0.23772
 N369 N 0.86771 0.54248 -0.27800
 C370 C 0.83554 0.52131 -0.35513
 C371 C 0.82447 0.52321 -0.39749
 C372 C 0.90276 0.51813 -0.18707
 C373 C 0.91998 0.51796 -0.15769
 C374 C 0.46569 0.32324 -0.30712
 N375 N 0.44476 0.32736 -0.29637
 N376 N 0.44672 0.34473 -0.25577
 C377 C 0.46969 0.35854 -0.22474
 N378 N 0.49057 0.35431 -0.23526
 N379 N 0.48860 0.33693 -0.27586
 C380 C 0.46489 0.30724 -0.35550
 C381 C 0.46514 0.29533 -0.39814
 C382 C 0.47286 0.37941 -0.18585
 C383 C 0.47569 0.39778 -0.15564
 C384 C 0.67794 0.14037 -0.30393
 N385 N 0.66567 0.15025 -0.26969
 N386 N 0.64842 0.13488 -0.22892
 C387 C 0.64290 0.10915 -0.22118
 N388 N 0.65529 0.09933 -0.25520
 N389 N 0.67254 0.11469 -0.29597
 C390 C 0.69375 0.15572 -0.35232
 C391 C 0.70553 0.16816 -0.39477
 C392 C 0.62202 0.09163 -0.18216
 C393 C 0.60356 0.07629 -0.15197
 C394 C 1.14080 0.46319 -0.30666
 N395 N 1.11528 0.44281 -0.29766
 N396 N 1.10011 0.44474 -0.25641
 C397 C 1.10998 0.46711 -0.22294
 N398 N 1.13556 0.48742 -0.23170
 N399 N 1.15073 0.48548 -0.27294
 C400 C 1.15584 0.46268 -0.35564
 C401 C 1.16798 0.46329 -0.39864
 C402 C 1.09258 0.47054 -0.18363
 C403 C 1.07730 0.47375 -0.15334
 C404 C 0.52051 0.66988 -0.30533
 N405 N 0.54350 0.67481 -0.27833
 N406 N 0.54292 0.65825 -0.23736
 C407 C 0.51933 0.63625 -0.22211
 N408 N 0.49631 0.63141 -0.24887
 N409 N 0.49689 0.64796 -0.28985
 C410 C 0.52168 0.68576 -0.35414
 C411 C 0.52325 0.69831 -0.39705
 C412 C 0.51914 0.61662 -0.18353
 C413 C 0.51885 0.59917 -0.15409
 C414 C 0.32647 -0.14127 -0.31150
 N415 N 0.33015 -0.11647 -0.29953
 N416 N 0.34771 -0.10110 -0.25929
 C417 C 0.36216 -0.11004 -0.22989
 N418 N 0.35838 -0.13489 -0.24166
 N419 N 0.34082 -0.15026 -0.28189
 C420 C 0.31001 -0.15647 -0.35925
 C421 C 0.29761 -0.16868 -0.40133
 C422 C 0.38292 -0.09244 -0.19082
 C423 C 0.40103 -0.07702 -0.16009
 C424 C 0.51932 -0.15024 0.30739
 N425 N 0.49587 -0.15099 0.29474
 N426 N 0.49515 -0.13484 0.25436
 C427 C 0.51786 -0.11744 0.22543
 N428 N 0.54128 -0.11679 0.23786
 N429 N 0.54199 -0.13295 0.27823
 C430 C 0.52082 -0.16512 0.35552
 C431 C 0.52271 -0.17619 0.39790
 C432 C 0.51769 -0.09789 0.18714
 C433 C 0.51753 -0.08066 0.15769
 C434 C 0.32297 0.46511 0.30597
 N435 N 0.33656 0.48801 0.27451
 N436 N 0.35399 0.49004 0.23397
 C437 C 0.35838 0.46924 0.22371
 N438 N 0.34467 0.44628 0.25495
 N439 N 0.32725 0.44425 0.29549
 C440 C 0.30689 0.46424 0.35426
 C441 C 0.29489 0.46446 0.39680
 C442 C 0.37929 0.47248 0.18484
 C443 C 0.39768 0.47538 0.15463
 C444 C 1.14013 0.67808 0.30458
 N445 N 1.15016 0.66605 0.27006
 N446 N 1.13492 0.64889 0.22910
 C447 C 1.10917 0.64323 0.22145
 N448 N 1.09918 0.65538 0.25574
 N449 N 1.11442 0.67254 0.29670
 C450 C 1.15535 0.69378 0.35312
 C451 C 1.16771 0.70546 0.39567
 C452 C 1.09178 0.62241 0.18224
 C453 C 1.07655 0.60398 0.15193
 C454 C 0.46282 0.14045 0.30608
 N455 N 0.48508 0.15037 0.27225
 N456 N 0.48702 0.13515 0.23114
 C457 C 0.46675 0.10954 0.22264
 N458 N 0.44442 0.09967 0.25623
 N459 N 0.44248 0.11489 0.29734
 C460 C 0.46229 0.15556 0.35489
 C461 C 0.46289 0.16777 0.39772
 C462 C 0.47019 0.09210 0.18343
 C463 C 0.47339 0.07680 0.15321
 C464 C 0.66994 0.52079 0.30284
 N465 N 0.64811 0.49715 0.28723
 N466 N 0.63154 0.49661 0.24638
 C467 C 0.63629 0.51968 0.21990
 N468 N 0.65821 0.54330 0.23527
 N469 N 0.67478 0.54384 0.27611
 C470 C 0.68583 0.52190 0.35150
 C471 C 0.69839 0.52341 0.39429
 C472 C 0.61664 0.51951 0.18149
 C473 C 0.59917 0.51922 0.15221
 C474 C 0.85927 0.32683 0.31221
 N475 N 0.88406 0.33052 0.30028
 N476 N 0.89942 0.34806 0.25992
 C477 C 0.89049 0.36246 0.23034
 N478 N 0.86564 0.35868 0.24208
 N479 N 0.85028 0.34114 0.28243
 C480 C 0.84406 0.31039 0.36006
 C481 C 0.83184 0.29800 0.40220
 C482 C 0.90808 0.38321 0.19115
 C483 C 0.92350 0.40133 0.16032
   
