data_POSCAR
  _audit_creation_date              2014-09-24
  _audit_creation_method            'ToBaCCo'
  _symmetry_space_group_name_H-M    'P1'
  _symmetry_Int_Tables_number       1
  _symmetry_cell_setting            triclinic
  loop_
  _symmetry_equiv_pos_as_xyz
 x,y,z
_cell_length_a 56.1295
_cell_length_b 26.0791
_cell_length_c 23.8520
_cell_angle_alpha 89.842000
_cell_angle_beta 90.033500
_cell_angle_gamma 90.194900
loop_
  _atom_site_label
  _atom_site_type_symbol
  _atom_site_fract_x
  _atom_site_fract_y
  _atom_site_fract_z
C1 C 0.69939 0.27450 0.55070
 C2 C 0.68904 0.28523 0.49833
 C3 C 0.70055 0.27431 0.44795
 C4 C 0.72328 0.25132 0.44885
 C5 C 0.73431 0.23986 0.50094
 C6 C 0.72215 0.25035 0.55200
 C7 C 0.73201 0.23161 0.60221
 C8 C 0.75407 0.20772 0.60312
 C9 C 0.76748 0.20121 0.55388
 C10 C 0.75704 0.21547 0.50185
 C11 C 0.73461 0.23678 0.39899
 C12 C 0.75664 0.21279 0.39990
 C13 C 0.76870 0.20334 0.45063
 C14 C 0.79107 0.17789 0.45166
 C15 C 0.80072 0.16351 0.50364
 C16 C 0.78994 0.17618 0.55481
 H17 H 0.72238 0.23304 0.64136
 H18 H 0.76002 0.19246 0.64291
 H19 H 0.72623 0.24235 0.35860
 H20 H 0.76364 0.20006 0.36012
 H21 H 0.67194 0.30443 0.49634
 H22 H 0.81836 0.14663 0.50438
 C23 C 0.20108 0.78083 0.54994
 C24 C 0.19042 0.79299 0.49863
 C25 C 0.20165 0.78253 0.44764
 C26 C 0.22437 0.75921 0.44758
 C27 C 0.23552 0.74670 0.49931
 C28 C 0.22369 0.75696 0.55063
 C29 C 0.23425 0.74088 0.60103
 C30 C 0.25631 0.71679 0.60135
 C31 C 0.26917 0.70890 0.55142
 C32 C 0.25820 0.72246 0.49966
 C33 C 0.23583 0.74631 0.39724
 C34 C 0.25795 0.72252 0.39752
 C35 C 0.26953 0.71062 0.44814
 C36 C 0.29177 0.68550 0.44851
 C37 C 0.30224 0.67195 0.49951
 C38 C 0.29179 0.68420 0.55130
 H39 H 0.22526 0.74559 0.64079
 H40 H 0.26278 0.70308 0.64132
 H41 H 0.22765 0.75367 0.35696
 H42 H 0.26568 0.71264 0.35745
 H43 H 0.17305 0.81110 0.49836
 H44 H 0.31974 0.65444 0.49849
 C45 C 0.20053 0.23552 -0.45015
 C46 C 0.18869 0.23078 -0.50137
 C47 C 0.20078 0.23393 -0.55288
 C48 C 0.22561 0.24583 -0.55257
 C49 C 0.23771 0.25252 -0.50067
 C50 C 0.22516 0.24675 -0.44938
 C51 C 0.23744 0.25323 -0.39854
 C52 C 0.26164 0.26431 -0.39781
 C53 C 0.27444 0.27090 -0.44789
 C54 C 0.26242 0.26537 -0.49992
 C55 C 0.23846 0.25393 -0.60247
 C56 C 0.26270 0.26487 -0.60175
 C57 C 0.27505 0.27241 -0.55108
 C58 C 0.29988 0.28414 -0.54988
 C59 C 0.31144 0.28690 -0.49769
 C60 C 0.29908 0.28202 -0.44719
 H61 H 0.22844 0.24994 -0.35858
 H62 H 0.27023 0.26751 -0.35735
 H63 H 0.22997 0.25252 -0.64307
 H64 H 0.27158 0.26677 -0.64184
 H65 H 0.16994 0.22055 -0.50069
 H66 H 0.33019 0.29702 -0.49590
 C67 C -0.29877 0.72636 -0.45151
 C68 C -0.30928 0.71401 -0.50316
 C69 C -0.29682 0.71676 -0.55413
 C70 C -0.27244 0.73192 -0.55325
 C71 C -0.26169 0.74700 -0.50189
 C72 C -0.27489 0.74476 -0.45105
 C73 C -0.26420 0.76339 -0.40168
 C74 C -0.24047 0.77856 -0.40078
 C75 C -0.22668 0.77804 -0.44977
 C76 C -0.23745 0.76352 -0.50115
 C77 C -0.25797 0.72848 -0.60125
 C78 C -0.23429 0.74421 -0.60036
 C79 C -0.22387 0.76429 -0.55147
 C80 C -0.19965 0.78091 -0.55036
 C81 C -0.18918 0.79192 -0.49819
 C82 C -0.20227 0.79101 -0.44852
 H83 H -0.27406 0.76688 -0.36300
 H84 H -0.23306 0.79081 -0.36110
 H85 H -0.26451 0.71193 -0.63982
 H86 H -0.22403 0.73874 -0.63820
 H87 H -0.32769 0.70129 -0.50366
 H88 H -0.17077 0.80458 -0.49601
 O89 O -0.03067 0.91541 0.10377
 O90 O -0.05775 0.96044 0.05130
 C91 C -0.05236 0.92799 0.09057
 O92 O 0.03415 1.09974 0.09907
 O93 O 0.06057 1.05337 0.04643
 C94 C 0.05565 1.08726 0.08439
 O95 O -0.03269 1.09020 0.10669
 O96 O -0.05868 1.04399 0.05230
 C97 C -0.05406 1.07555 0.09282
 O98 O 0.03620 0.91434 0.09619
 O99 O 0.06156 0.96530 0.04517
 C100 C 0.05739 0.92961 0.08192
 Zr101 Zr 0.00230 0.94052 0.07003
 O102 O 0.00550 0.93646 0.15834
 O103 O 0.00044 0.85953 0.06570
 Zr104 Zr 0.00082 1.07067 0.07182
 O105 O 0.00389 1.07367 0.16015
 O106 O -0.00292 1.15140 0.06897
 O107 O -0.01935 1.00414 0.08297
 O108 O 0.02216 1.00667 0.08064
 O109 O 0.03476 0.91690 -0.10020
 O110 O 0.06087 0.96659 -0.04989
 C111 C 0.05616 0.93175 -0.08706
 O112 O -0.03424 1.09266 -0.10101
 O113 O -0.05940 1.04514 -0.04564
 C114 C -0.05539 1.07751 -0.08590
 O115 O 0.03272 1.10241 -0.09818
 O116 O 0.05988 1.05476 -0.04881
 C117 C 0.05442 1.08973 -0.08539
 O118 O -0.03221 0.91872 -0.10306
 O119 O -0.05848 0.96197 -0.04698
 C120 C -0.05368 0.93098 -0.08785
 Zr121 Zr 0.00127 0.94245 -0.07091
 O122 O 0.00330 0.94058 -0.15946
 O123 O -0.00065 0.86134 -0.06857
 Zr124 Zr -0.00020 1.07257 -0.06908
 O125 O 0.00160 1.07832 -0.15745
 O126 O -0.00396 1.15318 -0.06351
 Zr127 Zr -0.03424 1.00436 0.00184
 Zr128 Zr 0.03660 1.00866 -0.00086
 O129 O 0.02099 1.00888 -0.08123
 O130 O -0.02054 1.00636 -0.08041
 O131 O 0.02335 0.93286 -0.00139
 O132 O -0.02070 1.07965 0.00231
 O133 O -0.01898 0.93089 0.00022
 O134 O 0.02167 1.08282 0.00069
 H135 H 0.03290 1.00682 0.11363
 H136 H -0.03222 1.10837 0.00312
 H137 H 0.03120 1.00990 -0.11506
 H138 H -0.02976 0.90069 0.00024
 H139 H 0.01155 1.16568 0.05105
 H140 H 0.01088 1.16713 -0.04700
 H141 H -0.00890 1.05129 -0.17283
 H142 H -0.00869 0.96492 -0.17399
 H143 H 0.01414 0.84872 -0.05073
 H144 H 0.01499 0.84741 0.04655
 H145 H -0.00645 0.95998 0.17439
 H146 H -0.00652 1.04644 0.17553
 O147 O 0.46950 0.41657 0.10398
 O148 O 0.44268 0.46042 0.04960
 C149 C 0.44788 0.42900 0.09001
 O150 O 0.53449 0.60043 0.09635
 O151 O 0.56103 0.55311 0.04515
 C152 C 0.55603 0.58777 0.08218
 O153 O 0.46755 0.59066 0.10279
 O154 O 0.44180 0.54366 0.04857
 C155 C 0.44624 0.57571 0.08873
 O156 O 0.53641 0.41458 0.09758
 O157 O 0.56202 0.46480 0.04628
 C158 C 0.55767 0.42957 0.08344
 Zr159 Zr 0.50265 0.44064 0.07032
 O160 O 0.50556 0.43857 0.15876
 O161 O 0.50064 0.35955 0.06828
 Zr162 Zr 0.50124 0.57079 0.06898
 O163 O 0.50396 0.57567 0.15726
 O164 O 0.49746 0.65146 0.06401
 O165 O 0.48097 0.50454 0.08113
 O166 O 0.52252 0.50694 0.07982
 O167 O 0.53599 0.41374 -0.09851
 O168 O 0.56183 0.46450 -0.04874
 C169 C 0.55732 0.42900 -0.08526
 O170 O 0.46702 0.58987 -0.10497
 O171 O 0.44154 0.54322 -0.04951
 C172 C 0.44578 0.57513 -0.09013
 O173 O 0.53390 0.59923 -0.10075
 O174 O 0.56078 0.55249 -0.04953
 C175 C 0.55553 0.58673 -0.08706
 O176 O 0.46902 0.41489 -0.10275
 O177 O 0.44245 0.45956 -0.04880
 C178 C 0.44747 0.42737 -0.08843
 Zr179 Zr 0.50230 0.43976 -0.07071
 O180 O 0.50467 0.43656 -0.15917
 O181 O 0.50044 0.35869 -0.06681
 Zr182 Zr 0.50084 0.56989 -0.07198
 O183 O 0.50308 0.57324 -0.16045
 O184 O 0.49718 0.65064 -0.06887
 Zr185 Zr 0.46646 0.50314 -0.00040
 Zr186 Zr 0.53729 0.50728 -0.00134
 O187 O 0.52208 0.50595 -0.08208
 O188 O 0.48052 0.50350 -0.08230
 O189 O 0.52402 0.43150 -0.00038
 O190 O 0.48004 0.57837 -0.00129
 O191 O 0.48172 0.42966 0.00019
 O192 O 0.52239 0.58147 -0.00191
 H193 H 0.53314 0.50767 0.11299
 H194 H 0.46856 0.60716 -0.00138
 H195 H 0.53250 0.50633 -0.11557
 H196 H 0.47095 0.39948 0.00072
 H197 H 0.51209 0.66543 0.04651
 H198 H 0.51177 0.66473 -0.05136
 H199 H 0.49229 0.54651 -0.17533
 H200 H 0.49247 0.46003 -0.17443
 H201 H 0.51511 0.34645 -0.04817
 H202 H 0.51507 0.34698 0.04898
 H203 H 0.49343 0.46218 0.17392
 H204 H 0.49362 0.54852 0.17310
 C205 C 0.34296 0.32455 0.31096
 C206 C 0.32019 0.34564 0.31635
 C207 C 0.30562 0.33146 0.36146
 C208 C 0.31355 0.29557 0.40170
 C209 C 0.33660 0.27490 0.39561
 C210 C 0.35104 0.28897 0.35049
 C211 C 0.35881 0.34128 0.26713
 C212 C 0.37309 0.35498 0.23242
 C213 C 0.39125 0.37100 0.19352
 C214 C 0.38630 0.40703 0.15154
 C215 C 0.40457 0.42484 0.11654
 C216 C 0.42807 0.40704 0.12346
 C217 C 0.43268 0.36998 0.16503
 C218 C 0.41440 0.35215 0.19971
 H219 H 0.31394 0.37398 0.28653
 H220 H 0.28858 0.35034 0.36618
 H221 H 0.34341 0.24733 0.42562
 H222 H 0.36870 0.27268 0.34695
 H223 H 0.36845 0.42207 0.14654
 H224 H 0.40040 0.45340 0.08505
 H225 H 0.45051 0.35537 0.17151
 H226 H 0.41844 0.32435 0.23218
 C227 C -0.15648 0.81596 0.30887
 C228 C -0.18060 0.82932 0.30867
 C229 C -0.19515 0.81618 0.35419
 C230 C -0.18578 0.78938 0.40074
 C231 C -0.16147 0.77576 0.39975
 C232 C -0.14706 0.78866 0.35417
 C233 C -0.14079 0.83294 0.26486
 C234 C -0.12664 0.84748 0.23024
 C235 C -0.10864 0.86501 0.19170
 C236 C -0.11371 0.90320 0.15213
 C237 C -0.09554 0.92277 0.11797
 C238 C -0.07204 0.90462 0.12334
 C239 C -0.06730 0.86550 0.16250
 C240 C -0.08548 0.84588 0.19635
 H241 H -0.18799 0.85119 0.27416
 H242 H -0.21341 0.82947 0.35421
 H243 H -0.15355 0.75473 0.43422
 H244 H -0.12839 0.77820 0.35482
 H245 H -0.13156 0.91855 0.14845
 H246 H -0.09980 0.95293 0.08838
 H247 H -0.04946 0.85054 0.16770
 H248 H -0.08134 0.81650 0.22704
 C249 C 0.66197 0.68366 0.30142
 C250 C 0.67718 0.72631 0.30152
 C251 C 0.69139 0.73666 0.34851
 C252 C 0.69058 0.70440 0.39611
 C253 C 0.67527 0.66140 0.39490
 C254 C 0.66126 0.65106 0.34795
 C255 C 0.64597 0.67411 0.25542
 C256 C 0.63159 0.66426 0.21942
 C257 C 0.61344 0.65037 0.17956
 C258 C 0.59030 0.66918 0.18617
 C259 C 0.57176 0.65048 0.15277
 C260 C 0.57611 0.61245 0.11232
 C261 C 0.59965 0.59537 0.10434
 C262 C 0.61816 0.61407 0.13795
 H263 H 0.67764 0.75220 0.26595
 H264 H 0.70218 0.77119 0.34855
 H265 H 0.67429 0.63524 0.43020
 H266 H 0.64954 0.61796 0.34836
 H267 H 0.58641 0.69699 0.21854
 H268 H 0.55391 0.66458 0.15999
 H269 H 0.60366 0.56614 0.07363
 H270 H 0.63597 0.59892 0.13276
 C271 C 0.15937 1.19532 0.30461
 C272 C 0.15078 1.23021 0.34404
 C273 C 0.16464 1.24354 0.39040
 C274 C 0.18763 1.22289 0.39782
 C275 C 0.19606 1.18763 0.35770
 C276 C 0.18206 1.17414 0.31139
 C277 C 0.14406 1.17912 0.25952
 C278 C 0.13019 1.16567 0.22380
 C279 C 0.11238 1.14964 0.18402
 C280 C 0.08944 1.17012 0.18756
 C281 C 0.07123 1.15133 0.15339
 C282 C 0.07567 1.11151 0.11513
 C283 C 0.09904 1.09248 0.11022
 C284 C 0.11726 1.11128 0.14473
 H285 H 0.13315 1.24654 0.33946
 H286 H 0.15744 1.27061 0.42026
 H287 H 0.21305 1.16873 0.36336
 H288 H 0.18869 1.14626 0.28170
 H289 H 0.08546 1.19969 0.21792
 H290 H 0.05351 1.16702 0.15813
 H291 H 0.10308 1.06181 0.08126
 H292 H 0.13494 1.09499 0.14181
 C293 C 0.65968 0.32082 -0.30702
 C294 C 0.64855 0.29531 -0.35135
 C295 C 0.66172 0.27969 -0.39775
 C296 C 0.68651 0.28859 -0.40057
 C297 C 0.69753 0.31467 -0.35562
 C298 C 0.68421 0.33048 -0.30912
 C299 C 0.64535 0.33832 -0.26089
 C300 C 0.63194 0.35239 -0.22462
 C301 C 0.61437 0.36851 -0.18449
 C302 C 0.59216 0.34401 -0.18370
 C303 C 0.57389 0.36253 -0.14973
 C304 C 0.57756 0.40597 -0.11592
 C305 C 0.60024 0.42923 -0.11528
 C306 C 0.61851 0.41072 -0.14963
 H307 H 0.62956 0.28777 -0.35026
 H308 H 0.65252 0.25957 -0.43106
 H309 H 0.71629 0.32444 -0.35725
 H310 H 0.69295 0.35094 -0.27537
 H311 H 0.58873 0.31144 -0.21067
 H312 H 0.55671 0.34355 -0.15105
 H313 H 0.60362 0.46285 -0.08990
 H314 H 0.63559 0.43019 -0.15018
 C315 C 0.15997 0.82218 -0.30568
 C316 C 0.15155 0.78488 -0.34292
 C317 C 0.16527 0.77052 -0.38906
 C318 C 0.18765 0.79312 -0.39835
 C319 C 0.19624 0.82998 -0.36044
 C320 C 0.18245 0.84442 -0.31422
 C321 C 0.14470 0.83961 -0.26121
 C322 C 0.13083 0.85400 -0.22605
 C323 C 0.11302 0.87077 -0.18679
 C324 C 0.09050 0.84765 -0.18754
 C325 C 0.07225 0.86647 -0.15367
 C326 C 0.07624 0.90880 -0.11839
 C327 C 0.09919 0.93078 -0.11646
 C328 C 0.11744 0.91196 -0.15067
 H329 H 0.13413 0.76770 -0.33694
 H330 H 0.15829 0.74235 -0.41811
 H331 H 0.21334 0.84830 -0.36742
 H332 H 0.18906 0.87362 -0.28594
 H333 H 0.08684 0.81585 -0.21544
 H334 H 0.05487 0.84849 -0.15608
 H335 H 0.10285 0.96351 -0.08994
 H336 H 0.13478 0.93035 -0.15001
 C337 C 0.33551 0.65412 -0.30770
 C338 C 0.33212 0.61665 -0.34870
 C339 C 0.31717 0.62612 -0.39429
 C340 C 0.30502 0.67319 -0.39950
 C341 C 0.30840 0.71047 -0.35740
 C342 C 0.32350 0.70091 -0.31183
 C343 C 0.35268 0.64538 -0.26392
 C344 C 0.36786 0.63685 -0.22940
 C345 C 0.38682 0.62530 -0.19083
 C346 C 0.38289 0.59229 -0.14540
 C347 C 0.40194 0.57726 -0.11135
 C348 C 0.42522 0.59479 -0.12264
 C349 C 0.42882 0.62911 -0.16751
 C350 C 0.40975 0.64417 -0.20133
 H351 H 0.34143 0.58039 -0.34609
 H352 H 0.31501 0.59635 -0.42549
 H353 H 0.30036 0.74803 -0.36111
 H354 H 0.32634 0.73054 -0.28077
 H355 H 0.36523 0.57721 -0.13709
 H356 H 0.39851 0.55092 -0.07711
 H357 H 0.44646 0.64341 -0.17742
 H358 H 0.41300 0.66952 -0.23659
 C359 C -0.16669 1.14960 -0.30280
 C360 C -0.16966 1.11136 -0.34313
 C361 C -0.18457 1.11951 -0.38907
 C362 C -0.19709 1.16603 -0.39534
 C363 C -0.19427 1.20393 -0.35366
 C364 C -0.17920 1.19569 -0.30776
 C365 C -0.14939 1.14250 -0.25900
 C366 C -0.13406 1.13533 -0.22448
 C367 C -0.11495 1.12527 -0.18588
 C368 C -0.11854 1.09286 -0.13982
 C369 C -0.09931 1.07886 -0.10587
 C370 C -0.07615 1.09682 -0.11789
 C371 C -0.07290 1.13069 -0.16328
 C372 C -0.09217 1.14472 -0.19702
 H373 H -0.15997 1.07559 -0.33979
 H374 H -0.18634 1.08923 -0.41982
 H375 H -0.20266 1.24106 -0.35805
 H376 H -0.17673 1.22587 -0.27717
 H377 H -0.13608 1.07729 -0.13103
 H378 H -0.10249 1.05283 -0.07122
 H379 H -0.05537 1.14525 -0.17378
 H380 H -0.08917 1.16959 -0.23281
 C381 C 0.65889 0.69394 -0.30866
 C382 C 0.68280 0.67900 -0.30967
 C383 C 0.69704 0.69077 -0.35615
 C384 C 0.68760 0.71802 -0.40227
 C385 C 0.66346 0.73281 -0.40035
 C386 C 0.64934 0.72112 -0.35390
 C387 C 0.64352 0.67890 -0.26322
 C388 C 0.62961 0.66595 -0.22736
 C389 C 0.61184 0.65003 -0.18746
 C390 C 0.61699 0.61259 -0.14711
 C391 C 0.59886 0.59344 -0.11257
 C392 C 0.57532 0.61126 -0.11839
 C393 C 0.57057 0.65017 -0.15779
 C394 C 0.58871 0.66932 -0.19205
 H395 H 0.69027 0.65716 -0.27523
 H396 H 0.71515 0.67656 -0.35703
 H397 H 0.65551 0.75403 -0.43467
 H398 H 0.63080 0.73260 -0.35370
 H399 H 0.63482 0.59718 -0.14342
 H400 H 0.60314 0.56350 -0.08272
 H401 H 0.55270 0.66488 -0.16333
 H402 H 0.58452 0.69815 -0.22331
 C403 C 0.15765 1.20052 -0.30620
 C404 C 0.17738 1.17003 -0.31909
 C405 C 0.19176 1.18226 -0.36511
 C406 C 0.18661 1.22530 -0.39847
 C407 C 0.16697 1.25607 -0.38500
 C408 C 0.15259 1.24379 -0.33898
 C409 C 0.14163 1.18541 -0.26197
 C410 C 0.12759 1.17190 -0.22661
 C411 C 0.11002 1.15494 -0.18665
 C412 C 0.11534 1.11594 -0.14824
 C413 C 0.09747 1.09597 -0.11351
 C414 C 0.07401 1.11473 -0.11700
 C415 C 0.06909 1.15514 -0.15444
 C416 C 0.08699 1.17509 -0.18891
 H417 H 0.18132 1.13617 -0.29441
 H418 H 0.20659 1.15757 -0.37553
 H419 H 0.16258 1.28902 -0.41071
 H420 H 0.13724 1.26736 -0.32971
 H421 H 0.13308 1.09982 -0.14638
 H422 H 0.10187 1.06481 -0.08529
 H423 H 0.05127 1.17063 -0.15809
 H424 H 0.08267 1.20517 -0.21861
 C425 C 0.34140 0.31803 -0.30292
 C426 C 0.32158 0.34817 -0.31630
 C427 C 0.30722 0.33535 -0.36215
 C428 C 0.31251 0.29211 -0.39482
 C429 C 0.33212 0.26149 -0.38053
 C430 C 0.34645 0.27432 -0.33469
 C431 C 0.35773 0.33419 -0.25986
 C432 C 0.37221 0.34820 -0.22580
 C433 C 0.39046 0.36528 -0.18771
 C434 C 0.38570 0.40329 -0.14795
 C435 C 0.40409 0.42251 -0.11427
 C436 C 0.42752 0.40419 -0.12035
 C437 C 0.43194 0.36514 -0.15956
 C438 C 0.41355 0.34589 -0.19293
 H439 H 0.31765 0.38236 -0.29238
 H440 H 0.29241 0.35990 -0.37321
 H441 H 0.33663 0.22841 -0.40572
 H442 H 0.36187 0.25101 -0.32503
 H443 H 0.36791 0.41879 -0.14378
 H444 H 0.40007 0.45259 -0.08458
 H445 H 0.44972 0.35000 -0.16523
 H446 H 0.41745 0.31661 -0.22370
 C447 C -0.16122 0.83105 -0.30385
 C448 C -0.17807 0.86559 -0.32504
 C449 C -0.19217 0.85196 -0.37112
 C450 C -0.18947 0.80369 -0.39616
 C451 C -0.17294 0.76887 -0.37405
 C452 C -0.15892 0.78244 -0.32799
 C453 C -0.14481 0.84671 -0.26078
 C454 C -0.13009 0.85957 -0.22674
 C455 C -0.11148 0.87471 -0.18867
 C456 C -0.11594 0.90988 -0.14576
 C457 C -0.09727 0.92701 -0.11163
 C458 C -0.07386 0.90945 -0.12036
 C459 C -0.06972 0.87319 -0.16280
 C460 C -0.08841 0.85599 -0.19663
 H461 H -0.17983 0.90348 -0.30702
 H462 H -0.20466 0.87943 -0.38825
 H463 H -0.17052 0.73171 -0.39337
 H464 H -0.14580 0.75562 -0.31227
 H465 H -0.13372 0.92480 -0.13938
 H466 H -0.10109 0.95492 -0.07938
 H467 H -0.05197 0.85876 -0.17067
 H468 H -0.08475 0.82885 -0.22982
 C469 C 0.33597 0.65497 0.30620
 C470 C 0.32681 0.61434 0.33815
 C471 C 0.31168 0.62419 0.38335
 C472 C 0.30547 0.67479 0.39679
 C473 C 0.31436 0.71536 0.36398
 C474 C 0.32951 0.70546 0.31879
 C475 C 0.35342 0.64497 0.26349
 C476 C 0.36871 0.63598 0.22948
 C477 C 0.38766 0.62437 0.19103
 C478 C 0.41061 0.64320 0.20130
 C479 C 0.42957 0.62868 0.16697
 C480 C 0.42582 0.59498 0.12181
 C481 C 0.40252 0.57742 0.11086
 C482 C 0.38359 0.59190 0.14540
 H483 H 0.33188 0.57518 0.32909
 H484 H 0.30525 0.59252 0.40868
 H485 H 0.31011 0.75467 0.37444
 H486 H 0.33670 0.73721 0.29470
 H487 H 0.41397 0.66818 0.23668
 H488 H 0.44724 0.64291 0.17667
 H489 H 0.39896 0.55150 0.07645
 H490 H 0.36591 0.57690 0.13722
 C491 C -0.16364 1.15192 0.31272
 C492 C -0.16775 1.11302 0.35195
 C493 C -0.18316 1.12122 0.39687
 C494 C -0.19505 1.16844 0.40315
 C495 C -0.19084 1.20729 0.36297
 C496 C -0.17530 1.19897 0.31805
 C497 C -0.14630 1.14404 0.26927
 C498 C -0.13112 1.13599 0.23473
 C499 C -0.11232 1.12478 0.19579
 C500 C -0.08927 1.14300 0.20617
 C501 C -0.07041 1.12824 0.17167
 C502 C -0.07435 1.09488 0.12630
 C503 C -0.09774 1.07793 0.11527
 C504 C -0.11658 1.09269 0.14993
 H505 H -0.15870 1.07653 0.34838
 H506 H -0.18591 1.09032 0.42666
 H507 H -0.19867 1.24494 0.36768
 H508 H -0.17192 1.22967 0.28839
 H509 H -0.08576 1.16760 0.24180
 H510 H -0.05266 1.14202 0.18140
 H511 H -0.10144 1.05231 0.08068
 H512 H -0.13434 1.07811 0.14172
 C513 C 0.66129 0.31783 0.30114
 C514 C 0.68355 0.34025 0.31176
 C515 C 0.69677 0.32515 0.35877
 C516 C 0.68784 0.28737 0.39532
 C517 C 0.66569 0.26456 0.38389
 C518 C 0.65254 0.27964 0.33702
 C519 C 0.64645 0.33602 0.25610
 C520 C 0.63279 0.35081 0.22059
 C521 C 0.61505 0.36781 0.18115
 C522 C 0.61895 0.41113 0.14751
 C523 C 0.60057 0.43017 0.11366
 C524 C 0.57802 0.40633 0.11363
 C525 C 0.57459 0.36189 0.14625
 C526 C 0.59297 0.34283 0.17968
 H527 H 0.69042 0.37014 0.28454
 H528 H 0.71367 0.34364 0.36741
 H529 H 0.65843 0.23575 0.41190
 H530 H 0.63526 0.26234 0.32950
 H531 H 0.63592 0.43100 0.14861
 H532 H 0.60374 0.46458 0.08923
 H533 H 0.55752 0.34244 0.14697
 H534 H 0.58974 0.30938 0.20567
 C535 C 0.16158 0.82346 0.30115
 C536 C 0.18347 0.84754 0.31177
 C537 C 0.19688 0.83358 0.35890
 C538 C 0.18853 0.79526 0.39552
 C539 C 0.16672 0.77095 0.38425
 C540 C 0.15336 0.78489 0.33727
 C541 C 0.14659 0.84018 0.25569
 C542 C 0.13285 0.85378 0.21977
 C543 C 0.11505 0.86954 0.17986
 C544 C 0.11897 0.91160 0.14439
 C545 C 0.10052 0.92986 0.11027
 C546 C 0.07787 0.90655 0.11184
 C547 C 0.07444 0.86316 0.14611
 C548 C 0.09290 0.84485 0.17978
 H549 H 0.18990 0.87773 0.28437
 H550 H 0.21353 0.85317 0.36741
 H551 H 0.15992 0.74165 0.41232
 H552 H 0.13637 0.76632 0.32974
 H553 H 0.13602 0.93121 0.14433
 H554 H 0.10373 0.96333 0.08438
 H555 H 0.05728 0.84410 0.14811
 H556 H 0.08964 0.81238 0.20721
   
