data_POSCAR
  _audit_creation_date              2014-09-24
  _audit_creation_method            'ToBaCCo'
  _symmetry_space_group_name_H-M    'P1'
  _symmetry_Int_Tables_number       1
  _symmetry_cell_setting            triclinic
  loop_
  _symmetry_equiv_pos_as_xyz
 x,y,z
_cell_length_a 56.8902
_cell_length_b 56.1860
_cell_length_c 21.1914
_cell_angle_alpha 90.031700
_cell_angle_beta 90.122800
_cell_angle_gamma 120.797300
loop_
  _atom_site_label
  _atom_site_type_symbol
  _atom_site_fract_x
  _atom_site_fract_y
  _atom_site_fract_z
C1 C 0.21277 0.52655 0.44248
 C2 C 0.20248 0.52949 0.50012
 C3 C 0.21259 0.52697 0.55861
 C4 C 0.23546 0.52320 0.55955
 C5 C 0.24698 0.52114 0.50167
 C6 C 0.23546 0.52255 0.44302
 C7 C 0.24857 0.52262 0.38671
 C8 C 0.27190 0.52066 0.38741
 C9 C 0.28351 0.51901 0.44445
 C10 C 0.27107 0.51929 0.50235
 C11 C 0.24883 0.52431 0.61634
 C12 C 0.27226 0.52246 0.61696
 C13 C 0.28357 0.51940 0.56079
 C14 C 0.30852 0.51926 0.56075
 C15 C 0.32021 0.51904 0.50272
 C16 C 0.30818 0.51873 0.44515
 H17 H 0.24169 0.52544 0.34126
 H18 H 0.28132 0.52150 0.34254
 H19 H 0.24214 0.52803 0.66104
 H20 H 0.28208 0.52478 0.66211
 H21 H 0.18441 0.53136 0.49935
 H22 H 0.33889 0.51826 0.50207
 C23 C 0.52275 -0.19078 0.55502
 C24 C 0.51839 -0.18159 0.49737
 C25 C 0.52201 -0.19138 0.43974
 C26 C 0.53018 -0.21131 0.43930
 C27 C 0.53438 -0.22123 0.49741
 C28 C 0.53060 -0.21096 0.55546
 C29 C 0.53457 -0.22126 0.61227
 C30 C 0.54275 -0.24071 0.61232
 C31 C 0.54630 -0.25153 0.55558
 C32 C 0.54243 -0.24140 0.49749
 C33 C 0.53404 -0.22173 0.38255
 C34 C 0.54250 -0.24099 0.38264
 C35 C 0.54649 -0.25143 0.43951
 C36 C 0.55590 -0.27049 0.43988
 C37 C 0.56175 -0.27844 0.49791
 C38 C 0.55503 -0.27112 0.55560
 H39 H 0.53150 -0.21435 0.65748
 H40 H 0.54678 -0.24678 0.65762
 H41 H 0.53080 -0.21492 0.33734
 H42 H 0.54634 -0.24724 0.33739
 H43 H 0.51280 -0.16580 0.49728
 H44 H 0.56773 -0.29395 0.49787
 C45 C 1.16710 0.72031 0.54467
 C46 C 1.15565 0.71204 0.48417
 C47 C 1.17027 0.72509 0.42979
 C48 C 1.19719 0.74787 0.43501
 C49 C 1.20925 0.75726 0.49551
 C50 C 1.19414 0.74354 0.55078
 C51 C 1.20750 0.75168 0.60956
 C52 C 1.23469 0.77282 0.61439
 C53 C 1.24999 0.78692 0.56072
 C54 C 1.23721 0.77888 0.50035
 C55 C 1.21269 0.76060 0.38090
 C56 C 1.23998 0.78126 0.38549
 C57 C 1.25276 0.79101 0.44452
 C58 C 1.28122 0.81058 0.44931
 C59 C 1.29336 0.81740 0.50923
 C60 C 1.27841 0.80674 0.56507
 H61 H 1.19756 0.74110 0.65263
 H62 H 1.24395 0.77694 0.66074
 H63 H 1.20406 0.75403 0.33411
 H64 H 1.25111 0.78855 0.34174
 H65 H 1.13528 0.69398 0.47902
 H66 H 1.31486 0.83326 0.51267
 C67 C 0.78747 0.47414 0.55952
 C68 C 0.79873 0.47302 0.50156
 C69 C 0.78853 0.47586 0.44393
 C70 C 0.76558 0.47924 0.44316
 C71 C 0.75345 0.48013 0.50106
 C72 C 0.76440 0.47761 0.55946
 C73 C 0.75042 0.47600 0.61544
 C74 C 0.72705 0.47799 0.61472
 C75 C 0.71652 0.48182 0.55802
 C76 C 0.72953 0.48221 0.50033
 C77 C 0.75370 0.48040 0.38598
 C78 C 0.73035 0.48237 0.38525
 C79 C 0.71794 0.48328 0.44167
 C80 C 0.69346 0.48390 0.44094
 C81 C 0.68091 0.48338 0.49779
 C82 C 0.69190 0.48259 0.55656
 H83 H 0.75667 0.47197 0.66044
 H84 H 0.71673 0.47529 0.65920
 H85 H 0.76188 0.47900 0.34102
 H86 H 0.72173 0.48243 0.33975
 H87 H 0.81677 0.47108 0.50110
 H88 H 0.66251 0.48466 0.49595
 C89 C 0.45293 0.27950 0.56121
 C90 C 0.45067 0.29078 0.50436
 C91 C 0.45324 0.28057 0.44631
 C92 C 0.45701 0.25761 0.44455
 C93 C 0.45878 0.24552 0.50185
 C94 C 0.45704 0.25673 0.56043
 C95 C 0.46057 0.24568 0.61657
 C96 C 0.46571 0.22398 0.61540
 C97 C 0.46672 0.21181 0.55808
 C98 C 0.46373 0.22314 0.50053
 C99 C 0.45981 0.24697 0.38696
 C100 C 0.46473 0.22515 0.38550
 C101 C 0.46678 0.21297 0.44157
 C102 C 0.47285 0.19157 0.44033
 C103 C 0.47604 0.18089 0.49701
 C104 C 0.47284 0.19020 0.55611
 H105 H 0.45991 0.25411 0.66205
 H106 H 0.46972 0.21753 0.66014
 H107 H 0.45849 0.25564 0.34240
 H108 H 0.46745 0.21832 0.33981
 H109 H 0.44876 0.30904 0.50540
 H110 H 0.47983 0.16384 0.49465
 C111 C 0.71739 0.18740 0.43769
 C112 C 0.70300 0.17615 0.49368
 C113 C 0.71552 0.18455 0.55277
 C114 C 0.74368 0.20481 0.55658
 C115 C 0.75863 0.21679 0.50030
 C116 C 0.74543 0.20814 0.44059
 C117 C 0.76040 0.22095 0.38571
 C118 C 0.78792 0.24148 0.38913
 C119 C 0.80147 0.25007 0.44758
 C120 C 0.78673 0.23782 0.50377
 C121 C 0.75716 0.21371 0.61495
 C122 C 0.78478 0.23390 0.61821
 C123 C 0.79982 0.24703 0.56345
 C124 C 0.82788 0.26833 0.56651
 C125 C 0.84234 0.27894 0.50989
 C126 C 0.82932 0.27094 0.45122
 H127 H 0.75092 0.21543 0.33955
 H128 H 0.79855 0.25055 0.34538
 H129 H 0.74655 0.20514 0.65889
 H130 H 0.79424 0.23895 0.66439
 H131 H 0.68152 0.16016 0.49122
 H132 H 0.86342 0.29594 0.51133
 N133 N 1.02957 0.49012 -0.11376
 N134 N 1.04954 0.50182 -0.15509
 N135 N 0.97905 0.43760 -0.06097
 N136 N 0.96309 0.41049 -0.06816
 N137 N 0.97331 0.45080 -0.10369
 N138 N 0.95309 0.43321 -0.14033
 N139 N 1.03523 0.47724 -0.07004
 N140 N 1.05924 0.47958 -0.08111
 C141 C 1.06788 0.49509 -0.13447
 C142 C 0.94685 0.40822 -0.11751
 N143 N 0.97963 0.45768 0.11583
 N144 N 0.96086 0.44256 0.15790
 N145 N 1.03895 0.48130 0.06652
 N146 N 1.06258 0.48256 0.07603
 N147 N 1.03582 0.49704 0.10733
 N148 N 1.05722 0.50973 0.14485
 N149 N 0.98271 0.44184 0.07515
 N150 N 0.96616 0.41538 0.08894
 Mn151 Mn 1.00912 0.45920 0.00269
 C152 C 0.95261 0.41624 0.14070
 C153 C 1.07381 0.50067 0.12486
 N154 N 0.96141 0.49452 -0.10765
 N155 N 0.93992 0.48214 -0.14500
 N156 N 1.01540 0.54989 -0.07674
 N157 N 1.03212 0.57624 -0.09181
 N158 N 1.01746 0.53359 -0.11789
 N159 N 1.03551 0.54817 -0.16157
 N160 N 0.95893 0.51089 -0.06748
 N161 N 0.93560 0.51025 -0.07702
 Mn162 Mn 0.99537 0.49219 -0.11124
 C163 C 0.92389 0.49195 -0.12532
 C164 C 1.04460 0.57471 -0.14501
 N165 N 1.02400 0.54063 0.10327
 N166 N 1.04459 0.55790 0.13942
 N167 N 0.96275 0.51509 0.06852
 N168 N 0.93946 0.51416 0.08022
 N169 N 0.96761 0.50143 0.11179
 N170 N 0.94771 0.49055 0.15355
 N171 N 1.01901 0.55413 0.05983
 N172 N 1.03581 0.58117 0.06619
 Mn173 Mn 1.00173 0.49918 0.11013
 Mn174 Mn 0.98899 0.53287 -0.00400
 Cl175 Cl 0.99881 0.49586 -0.00059
 C176 C 1.05177 0.58304 0.11586
 C177 C 0.93030 0.49861 0.13337
 N178 N 0.51951 0.54459 -0.11238
 N179 N 0.51560 0.55997 -0.15308
 N180 N 0.55756 0.52269 -0.06978
 N181 N 0.58050 0.52283 -0.08120
 N182 N 0.53873 0.50732 -0.11147
 N183 N 0.54812 0.49639 -0.15180
 N184 N 0.53871 0.56019 -0.07154
 N185 N 0.54876 0.58672 -0.08411
 C186 C 0.53390 0.58613 -0.13479
 C187 C 0.57413 0.50608 -0.13245
 N188 N 0.54058 0.50996 0.11045
 N189 N 0.55052 0.49941 0.15051
 N190 N 0.53983 0.56184 0.06500
 N191 N 0.55034 0.58865 0.07500
 N192 N 0.52131 0.54727 0.10782
 N193 N 0.51832 0.56364 0.14732
 N194 N 0.55865 0.52440 0.06676
 N195 N 0.58161 0.52439 0.07654
 Mn196 Mn 0.54907 0.54256 -0.00240
 C197 C 0.57607 0.50852 0.12887
 C198 C 0.53643 0.58933 0.12614
 N199 N 0.48368 0.46172 -0.10823
 N200 N 0.48781 0.44586 -0.14677
 N201 N 0.44612 0.48382 -0.06632
 N202 N 0.42297 0.48348 -0.07627
 N203 N 0.46426 0.49877 -0.10943
 N204 N 0.45416 0.50915 -0.14942
 N205 N 0.46565 0.44678 -0.06489
 N206 N 0.45665 0.42012 -0.07356
 Mn207 Mn 0.50151 0.50311 -0.11093
 C208 C 0.47090 0.42002 -0.12476
 C209 C 0.42846 0.49957 -0.12826
 N210 N 0.46596 0.50144 0.11105
 N211 N 0.45601 0.51195 0.15117
 N212 N 0.46673 0.44842 0.07210
 N213 N 0.45782 0.42200 0.08389
 N214 N 0.48546 0.46437 0.11346
 N215 N 0.49021 0.44944 0.15362
 N216 N 0.44723 0.48538 0.06983
 N217 N 0.42389 0.48433 0.08122
 Mn218 Mn 0.50332 0.50581 0.11131
 Mn219 Mn 0.45605 0.46574 0.00269
 Cl220 Cl 0.50248 0.50431 0.00019
 C221 C 0.42980 0.50124 0.13189
 C222 C 0.47288 0.42311 0.13480
 N223 N 0.44019 -0.02870 0.07281
 N224 N 0.41518 -0.04912 0.08611
 N225 N 0.48714 0.03061 0.10802
 N226 N 0.49477 0.05168 0.14677
 N227 N 0.46947 0.02945 0.06637
 N228 N 0.46435 0.04961 0.07621
 N229 N 0.45778 -0.02761 0.11463
 N230 N 0.44540 -0.04735 0.15689
 C231 C 0.41889 -0.06064 0.13861
 C232 C 0.48055 0.06345 0.12625
 N233 N 0.55354 0.02944 0.06333
 N234 N 0.57920 0.04941 0.07236
 N235 N 0.50803 -0.02775 0.11280
 N236 N 0.50067 -0.04782 0.15420
 N237 N 0.52404 -0.02872 0.06965
 N238 N 0.52835 -0.04931 0.08114
 N239 N 0.53756 0.03060 0.10627
 N240 N 0.55177 0.05151 0.14514
 Mn241 Mn 0.49765 0.00150 0.11104
 C242 C 0.57767 0.06319 0.12329
 C243 C 0.51347 -0.06111 0.13396
 N244 N 0.46717 0.02653 -0.06983
 N245 N 0.46250 0.04686 -0.08178
 N246 N 0.45395 -0.03256 -0.10669
 N247 N 0.44009 -0.05382 -0.14479
 N248 N 0.43783 -0.03172 -0.06364
 N249 N 0.41236 -0.05233 -0.07192
 N250 N 0.48329 0.02569 -0.11286
 N251 N 0.49021 0.04545 -0.15482
 Mn252 Mn 0.45331 -0.00113 0.00144
 C253 C 0.47719 0.05857 -0.13492
 C254 C 0.41421 -0.06607 -0.12257
 N255 N 0.52178 -0.03163 -0.06669
 N256 N 0.52730 -0.05143 -0.07749
 N257 N 0.53378 0.02576 -0.11463
 N258 N 0.54656 0.04530 -0.15726
 N259 N 0.55118 0.02644 -0.07280
 N260 N 0.57637 0.04629 -0.08637
 N261 N 0.50430 -0.03256 -0.10862
 N262 N 0.49716 -0.05319 -0.14844
 Mn263 Mn 0.53794 -0.00113 -0.00163
 Mn264 Mn 0.49382 -0.00342 -0.11131
 Cl265 Cl 0.49568 -0.00104 -0.00012
 C266 C 0.51149 -0.06491 -0.12830
 C267 C 0.57307 0.05800 -0.13897
 C268 C 1.16474 0.52459 0.28699
 C269 C 1.17194 0.50402 0.29282
 C270 C 1.18940 0.50564 0.34200
 C271 C 1.19926 0.52717 0.38687
 C272 C 1.19242 0.54776 0.37966
 C273 C 1.17578 0.54674 0.33028
 C274 C 1.14404 0.52080 0.23806
 C275 C 1.13495 0.53969 0.23048
 C276 C 1.11301 0.53349 0.19087
 C277 C 1.09988 0.50864 0.15670
 C278 C 1.11016 0.49069 0.15948
 C279 C 1.13196 0.49644 0.20062
 C280 C 1.16051 0.48123 0.25167
 C281 C 1.14086 0.47746 0.20677
 H282 H 1.16613 0.46555 0.25569
 H283 H 1.13193 0.45898 0.17766
 H284 H 1.19361 0.48900 0.34804
 H285 H 1.19987 0.56477 0.41302
 H286 H 1.10570 0.54789 0.18846
 H287 H 1.10010 0.47146 0.13294
 H288 H 1.17116 0.56308 0.32841
 H289 H 1.14380 0.55896 0.25612
 C290 C 0.55346 0.67925 0.28786
 C291 C 0.53038 0.68146 0.30242
 C292 C 0.53222 0.70010 0.34906
 C293 C 0.55617 0.71518 0.38536
 C294 C 0.57867 0.71209 0.37230
 C295 C 0.57761 0.69491 0.32332
 C296 C 0.55035 0.65840 0.23940
 C297 C 0.57260 0.65649 0.21654
 C298 C 0.56819 0.63488 0.17617
 C299 C 0.54156 0.61461 0.15882
 C300 C 0.51947 0.61724 0.17805
 C301 C 0.52376 0.63939 0.21673
 C302 C 0.50507 0.66361 0.27378
 C303 C 0.50164 0.64245 0.23340
 H304 H 0.48731 0.66510 0.28530
 H305 H 0.48136 0.62826 0.21497
 H306 H 0.51415 0.70101 0.36096
 H307 H 0.59720 0.72303 0.40030
 H308 H 0.58547 0.63319 0.16112
 H309 H 0.49889 0.60179 0.16345
 H310 H 0.59541 0.69313 0.31595
 H311 H 0.59343 0.67129 0.22992
 C312 C 0.33710 -0.14373 0.30286
 C313 C 0.31114 -0.14604 0.30440
 C314 C 0.29206 -0.16217 0.35122
 C315 C 0.29847 -0.17618 0.39693
 C316 C 0.32403 -0.17432 0.39366
 C317 C 0.34290 -0.15866 0.34723
 C318 C 0.35780 -0.12442 0.25608
 C319 C 0.38474 -0.11934 0.25421
 C320 C 0.40408 -0.09924 0.21427
 C321 C 0.39708 -0.08400 0.17428
 C322 C 0.36998 -0.08983 0.17297
 C323 C 0.35041 -0.10961 0.21441
 C324 C 0.30478 -0.13148 0.26058
 C325 C 0.32393 -0.11378 0.21633
 H326 H 0.28483 -0.13339 0.26124
 H327 H 0.31816 -0.10259 0.18432
 H328 H 0.27288 -0.16248 0.35423
 H329 H 0.32952 -0.18512 0.42758
 H330 H 0.42484 -0.09525 0.21555
 H331 H 0.36452 -0.07797 0.14230
 H332 H 0.36207 -0.15819 0.34793
 H333 H 0.39165 -0.12998 0.28437
 C334 C 0.83893 0.47762 0.29138
 C335 C 0.83409 0.49978 0.29923
 C336 C 0.81638 0.49859 0.34697
 C337 C 0.80300 0.47530 0.38623
 C338 C 0.80633 0.45261 0.37531
 C339 C 0.82394 0.45363 0.32837
 C340 C 0.86066 0.48118 0.24599
 C341 C 0.86974 0.46214 0.24182
 C342 C 0.89186 0.46763 0.20359
 C343 C 0.90509 0.49185 0.16744
 C344 C 0.89555 0.51043 0.16888
 C345 C 0.87396 0.50566 0.20926
 C346 C 0.84756 0.52326 0.26069
 C347 C 0.86671 0.52590 0.21586
 H348 H 0.84353 0.54003 0.26585
 H349 H 0.87684 0.54465 0.18783
 H350 H 0.81389 0.51621 0.35543
 H351 H 0.79597 0.43439 0.40492
 H352 H 0.89896 0.45305 0.20310
 H353 H 0.90608 0.52943 0.14176
 H354 H 0.82594 0.43567 0.32283
 H355 H 0.86082 0.44343 0.26948
 C356 C 0.46405 0.33540 0.29375
 C357 C 0.43731 0.31461 0.31172
 C358 C 0.43367 0.29591 0.36018
 C359 C 0.45640 0.29736 0.38980
 C360 C 0.48275 0.31675 0.36928
 C361 C 0.48662 0.33553 0.32171
 C362 C 0.46715 0.35695 0.24738
 C363 C 0.49268 0.38058 0.23361
 C364 C 0.49434 0.40144 0.19502
 C365 C 0.47078 0.39906 0.16786
 C366 C 0.44533 0.37515 0.17873
 C367 C 0.44326 0.35446 0.21980
 C368 C 0.41451 0.31302 0.28210
 C369 C 0.41744 0.33222 0.23631
 H370 H 0.39404 0.29684 0.29500
 H371 H 0.39913 0.33026 0.21537
 H372 H 0.41327 0.28069 0.37597
 H373 H 0.50045 0.31790 0.39170
 H374 H 0.51415 0.41986 0.18732
 H375 H 0.42701 0.37357 0.15880
 H376 H 0.50742 0.35018 0.30832
 H377 H 0.51151 0.38396 0.25415
 C378 C 0.66596 0.14482 0.27856
 C379 C 0.65934 0.16025 0.32022
 C380 C 0.67756 0.17616 0.36847
 C381 C 0.70195 0.17616 0.37788
 C382 C 0.70892 0.16153 0.33581
 C383 C 0.69131 0.14627 0.28624
 C384 C 0.64471 0.12595 0.23164
 C385 C 0.64905 0.10968 0.18780
 C386 C 0.62757 0.09018 0.15004
 C387 C 0.60134 0.08640 0.15545
 C388 C 0.59724 0.10370 0.19582
 C389 C 0.61866 0.12348 0.23349
 C390 C 0.63387 0.15837 0.31621
 C391 C 0.61384 0.14012 0.27430
 H392 H 0.62891 0.17030 0.34790
 H393 H 0.59404 0.13856 0.27483
 H394 H 0.67200 0.18720 0.40154
 H395 H 0.72743 0.16087 0.34313
 H396 H 0.63121 0.07720 0.11860
 H397 H 0.57709 0.10124 0.19922
 H398 H 0.69733 0.13474 0.25645
 H399 H 0.66868 0.11127 0.18293
 C400 C 0.47718 0.14267 -0.29326
 C401 C 0.49789 0.15441 -0.33970
 C402 C 0.49703 0.17141 -0.38676
 C403 C 0.47557 0.17694 -0.38984
 C404 C 0.45542 0.16591 -0.34257
 C405 C 0.45627 0.14914 -0.29476
 C406 C 0.47776 0.12270 -0.24698
 C407 C 0.45791 0.10924 -0.19942
 C408 C 0.45823 0.08909 -0.16109
 C409 C 0.47824 0.08189 -0.16954
 C410 C 0.49879 0.09610 -0.21449
 C411 C 0.49874 0.11633 -0.25298
 C412 C 0.51884 0.14829 -0.34075
 C413 C 0.51918 0.12956 -0.29851
 H414 H 0.53481 0.15751 -0.37607
 H415 H 0.53542 0.12491 -0.30245
 H416 H 0.51297 0.18001 -0.42231
 H417 H 0.43802 0.16881 -0.34460
 H418 H 0.44227 0.07848 -0.12627
 H419 H 0.51461 0.09096 -0.22059
 H420 H 0.43984 0.14064 -0.26089
 H421 H 0.44173 0.11358 -0.19189
 C422 C 0.64637 0.48794 -0.29124
 C423 C 0.63337 0.46783 -0.33935
 C424 C 0.64886 0.46532 -0.38720
 C425 C 0.67747 0.48259 -0.38904
 C426 C 0.69050 0.50178 -0.33979
 C427 C 0.67520 0.50439 -0.29142
 C428 C 0.62863 0.49164 -0.24449
 C429 C 0.63914 0.51194 -0.19636
 C430 C 0.62150 0.51606 -0.15788
 C431 C 0.59310 0.50003 -0.16656
 C432 C 0.58249 0.47889 -0.21195
 C433 C 0.59987 0.47472 -0.25099
 C434 C 0.60485 0.45096 -0.34115
 C435 C 0.58846 0.45435 -0.29794
 H436 H 0.59497 0.43539 -0.37770
 H437 H 0.56645 0.44134 -0.30258
 H438 H 0.63848 0.45006 -0.42424
 H439 H 0.71243 0.51597 -0.34058
 H440 H 0.63012 0.53241 -0.12281
 H441 H 0.56052 0.46612 -0.21843
 H442 H 0.68623 0.52000 -0.25590
 H443 H 0.66084 0.52526 -0.18877
 C444 C 0.87141 0.31747 -0.27516
 C445 C 0.88304 0.30550 -0.31325
 C446 C 0.86817 0.28841 -0.36432
 C447 C 0.84121 0.28192 -0.37681
 C448 C 0.82914 0.29232 -0.33588
 C449 C 0.84396 0.30979 -0.28578
 C450 C 0.88925 0.33870 -0.22701
 C451 C 0.88124 0.35539 -0.19496
 C452 C 0.89974 0.37717 -0.15649
 C453 C 0.92624 0.38218 -0.14722
 C454 C 0.93412 0.36494 -0.17607
 C455 C 0.91615 0.34385 -0.21757
 C456 C 0.90962 0.31113 -0.30095
 C457 C 0.92559 0.32941 -0.25314
 H458 H 0.91834 0.30149 -0.32922
 H459 H 0.94616 0.33335 -0.24611
 H460 H 0.87765 0.28018 -0.39478
 H461 H 0.80871 0.28842 -0.34491
 H462 H 0.89363 0.39076 -0.13542
 H463 H 0.95498 0.36949 -0.17045
 H464 H 0.83374 0.31753 -0.25683
 H465 H 0.86133 0.35297 -0.20163
 C466 C 0.51672 -0.14533 -0.28859
 C467 C 0.49398 -0.16121 -0.32878
 C468 C 0.49554 -0.17760 -0.37661
 C469 C 0.51982 -0.17767 -0.38700
 C470 C 0.54232 -0.16205 -0.34722
 C471 C 0.54074 -0.14633 -0.29807
 C472 C 0.51483 -0.12661 -0.24094
 C473 C 0.53591 -0.11047 -0.19744
 C474 C 0.53425 -0.09131 -0.15840
 C475 C 0.51166 -0.08774 -0.16218
 C476 C 0.48984 -0.10489 -0.20236
 C477 C 0.49114 -0.12439 -0.24119
 C478 C 0.47038 -0.15948 -0.32342
 C479 C 0.46914 -0.14115 -0.28121
 H480 H 0.45297 -0.17168 -0.35411
 H481 H 0.45082 -0.13978 -0.28057
 H482 H 0.47829 -0.18928 -0.40812
 H483 H 0.56148 -0.16127 -0.35560
 H484 H 0.55118 -0.07846 -0.12712
 H485 H 0.47204 -0.10260 -0.20447
 H486 H 0.55887 -0.13423 -0.26986
 H487 H 0.55401 -0.11198 -0.19361
 C488 C 0.35436 0.51565 -0.28526
 C489 C 0.36694 0.53633 -0.33217
 C490 C 0.35124 0.53820 -0.38061
 C491 C 0.32284 0.51979 -0.38410
 C492 C 0.31012 0.50011 -0.33584
 C493 C 0.32564 0.49807 -0.28697
 C494 C 0.37247 0.51257 -0.23831
 C495 C 0.36248 0.49173 -0.19161
 C496 C 0.38058 0.48814 -0.15342
 C497 C 0.40892 0.50522 -0.16108
 C498 C 0.41896 0.52695 -0.20469
 C499 C 0.40113 0.53065 -0.24336
 C500 C 0.39530 0.55441 -0.33225
 C501 C 0.41203 0.55166 -0.28871
 H502 H 0.40482 0.57046 -0.36776
 H503 H 0.43396 0.56567 -0.29190
 H504 H 0.36132 0.55382 -0.41693
 H505 H 0.28838 0.48514 -0.33789
 H506 H 0.37242 0.47132 -0.11967
 H507 H 0.44088 0.54052 -0.21020
 H508 H 0.31492 0.48204 -0.25231
 H509 H 0.34087 0.47755 -0.18510
 C510 C 1.11992 0.66355 -0.31066
 C511 C 1.12836 0.65496 -0.36449
 C512 C 1.14410 0.67408 -0.41108
 C513 C 1.15260 0.70224 -0.40504
 C514 C 1.14503 0.71107 -0.35078
 C515 C 1.12880 0.69196 -0.30417
 C516 C 1.10156 0.64177 -0.26396
 C517 C 1.09022 0.64731 -0.21063
 C518 C 1.07209 0.62577 -0.17066
 C519 C 1.06504 0.59837 -0.18295
 C520 C 1.07688 0.59291 -0.23467
 C521 C 1.09462 0.61408 -0.27530
 C522 C 1.12098 0.62727 -0.37216
 C523 C 1.10471 0.60731 -0.32818
 H524 H 1.12778 0.62086 -0.41309
 H525 H 1.09941 0.58609 -0.33651
 H526 H 1.15017 0.66706 -0.45233
 H527 H 1.15087 0.73260 -0.34544
 H528 H 1.06322 0.63047 -0.13090
 H529 H 1.07174 0.57184 -0.24455
 H530 H 1.12322 0.69973 -0.26384
 H531 H 1.09469 0.66799 -0.19980
 C532 C 0.83378 0.47192 -0.28626
 C533 C 0.82655 0.49255 -0.28862
 C534 C 0.80941 0.49213 -0.33723
 C535 C 0.80015 0.47191 -0.38516
 C536 C 0.80697 0.45120 -0.38135
 C537 C 0.82315 0.45093 -0.33244
 C538 C 0.85422 0.47455 -0.23787
 C539 C 0.86316 0.45542 -0.23330
 C540 C 0.88494 0.46069 -0.19406
 C541 C 0.89806 0.48482 -0.15735
 C542 C 0.88787 0.50289 -0.15714
 C543 C 0.86620 0.49805 -0.19774
 C544 C 0.83775 0.51432 -0.24472
 C545 C 0.85729 0.51712 -0.20054
 H546 H 0.83213 0.53006 -0.24610
 H547 H 0.86612 0.53492 -0.16930
 H548 H 0.80514 0.50882 -0.34055
 H549 H 0.79993 0.43517 -0.41715
 H550 H 0.89209 0.44615 -0.19388
 H551 H 0.89785 0.52151 -0.12848
 H552 H 0.82786 0.43465 -0.33335
 H553 H 0.85428 0.43668 -0.26094
 C554 C 0.45895 0.33033 -0.28124
 C555 C 0.48260 0.33537 -0.31478
 C556 C 0.48050 0.31743 -0.36330
 C557 C 0.45504 0.29490 -0.38053
 C558 C 0.43165 0.28942 -0.34697
 C559 C 0.43355 0.30680 -0.29739
 C560 C 0.46182 0.35141 -0.23339
 C561 C 0.43977 0.34859 -0.19696
 C562 C 0.44300 0.37031 -0.15828
 C563 C 0.46816 0.39523 -0.15564
 C564 C 0.49061 0.39751 -0.18824
 C565 C 0.48772 0.37585 -0.22652
 C566 C 0.50799 0.35906 -0.30218
 C567 C 0.51044 0.37901 -0.25945
 H568 H 0.52608 0.36278 -0.32758
 H569 H 0.53034 0.39748 -0.25300
 H570 H 0.49848 0.32176 -0.39017
 H571 H 0.41181 0.27217 -0.36048
 H572 H 0.42549 0.36814 -0.13297
 H573 H 0.51026 0.41662 -0.18531
 H574 H 0.41483 0.30207 -0.27399
 H575 H 0.41978 0.33011 -0.19886
 C576 C 0.65836 0.13996 -0.29904
 C577 C 0.68255 0.13875 -0.30436
 C578 C 0.70194 0.15432 -0.35100
 C579 C 0.69785 0.17164 -0.39138
 C580 C 0.67479 0.17415 -0.38325
 C581 C 0.65532 0.15863 -0.33757
 C582 C 0.63665 0.12059 -0.25418
 C583 C 0.61044 0.11744 -0.25212
 C584 C 0.59012 0.09750 -0.21343
 C585 C 0.59552 0.08063 -0.17487
 C586 C 0.62176 0.08416 -0.17471
 C587 C 0.64211 0.10346 -0.21533
 C588 C 0.68685 0.12156 -0.26413
 C589 C 0.66728 0.10468 -0.21974
 H590 H 0.70555 0.12095 -0.26740
 H591 H 0.67149 0.09157 -0.19012
 H592 H 0.71973 0.15227 -0.35743
 H593 H 0.67144 0.18756 -0.41392
 H594 H 0.56993 0.09503 -0.21425
 H595 H 0.62586 0.07078 -0.14571
 H596 H 0.63786 0.16124 -0.33403
 H597 H 0.60486 0.12942 -0.28157
 C598 C 1.16152 0.52316 -0.29153
 C599 C 1.17072 0.50406 -0.29371
 C600 C 1.18924 0.50641 -0.34082
 C601 C 1.19852 0.52746 -0.38671
 C602 C 1.19033 0.54713 -0.38177
 C603 C 1.17244 0.54525 -0.33475
 C604 C 1.13936 0.51812 -0.24584
 C605 C 1.12722 0.53455 -0.24451
 C606 C 1.10467 0.52735 -0.20640
 C607 C 1.09384 0.50391 -0.16763
 C608 C 1.10663 0.48820 -0.16555
 C609 C 1.12900 0.49484 -0.20534
 C610 C 1.16041 0.48204 -0.25069
 C611 C 1.14015 0.47764 -0.20719
 H612 H 1.16764 0.46756 -0.25168
 H613 H 1.13241 0.45992 -0.17603
 H614 H 1.19468 0.49058 -0.34459
 H615 H 1.19757 0.56399 -0.41534
 H616 H 1.09528 0.53994 -0.20826
 H617 H 1.09821 0.46995 -0.13589
 H618 H 1.16690 0.56094 -0.33443
 H619 H 1.13412 0.55254 -0.27400
 C620 C 0.54695 0.67537 -0.29425
 C621 C 0.57199 0.69015 -0.32714
 C622 C 0.57490 0.70840 -0.37592
 C623 C 0.55369 0.71347 -0.39030
 C624 C 0.52961 0.70018 -0.35410
 C625 C 0.52624 0.68140 -0.30690
 C626 C 0.54338 0.65352 -0.24833
 C627 C 0.51775 0.63419 -0.22252
 C628 C 0.51498 0.61274 -0.18411
 C629 C 0.53777 0.61063 -0.16882
 C630 C 0.56352 0.63010 -0.19260
 C631 C 0.56629 0.65089 -0.23412
 C632 C 0.59386 0.68648 -0.31138
 C633 C 0.59130 0.66782 -0.26457
 H634 H 0.61328 0.69821 -0.33558
 H635 H 0.60881 0.66572 -0.25416
 H636 H 0.59381 0.71887 -0.40256
 H637 H 0.51258 0.70303 -0.36476
 H638 H 0.49487 0.59747 -0.16695
 H639 H 0.58096 0.62783 -0.18237
 H640 H 0.50716 0.67155 -0.28144
 H641 H 0.49941 0.63452 -0.23367
 C642 C 0.32792 -0.15107 -0.27642
 C643 C 0.33636 -0.16396 -0.32096
 C644 C 0.31886 -0.17974 -0.37021
 C645 C 0.29286 -0.18283 -0.37739
 C646 C 0.28384 -0.17146 -0.33093
 C647 C 0.30108 -0.15586 -0.28099
 C648 C 0.34867 -0.13145 -0.22944
 C649 C 0.34314 -0.11619 -0.18506
 C650 C 0.36415 -0.09580 -0.14759
 C651 C 0.39103 -0.09021 -0.15372
 C652 C 0.39634 -0.10648 -0.19460
 C653 C 0.37556 -0.12684 -0.23244
 C654 C 0.36277 -0.15985 -0.31844
 C655 C 0.38198 -0.14165 -0.27516
 H656 H 0.36904 -0.17006 -0.35209
 H657 H 0.40247 -0.13840 -0.27667
 H658 H 0.32595 -0.18886 -0.40493
 H659 H 0.26420 -0.17286 -0.33562
 H660 H 0.35960 -0.08357 -0.11590
 H661 H 0.41704 -0.10255 -0.19880
 H662 H 0.29346 -0.14673 -0.24817
 H663 H 0.32298 -0.11909 -0.17997
 C664 C 0.51160 -0.14690 0.28852
 C665 C 0.53658 -0.14654 0.29466
 C666 C 0.53950 -0.16253 0.34164
 C667 C 0.51762 -0.17927 0.38189
 C668 C 0.49235 -0.18115 0.37253
 C669 C 0.48926 -0.16533 0.32627
 C670 C 0.51046 -0.12673 0.24421
 C671 C 0.48801 -0.12266 0.24185
 C672 C 0.48891 -0.10179 0.20455
 C673 C 0.51189 -0.08484 0.16758
 C674 C 0.53395 -0.08937 0.16732
 C675 C 0.53371 -0.10965 0.20671
 C676 C 0.55869 -0.12953 0.25537
 C677 C 0.55710 -0.11185 0.21152
 H678 H 0.57766 -0.12957 0.25921
 H679 H 0.57491 -0.09883 0.18287
 H680 H 0.55912 -0.16094 0.34900
 H681 H 0.47523 -0.19411 0.40305
 H682 H 0.47168 -0.09860 0.20536
 H683 H 0.55195 -0.07598 0.13954
 H684 H 0.46943 -0.16734 0.32200
 H685 H 0.46997 -0.13461 0.27020
 C686 C 0.35431 0.51433 0.28979
 C687 C 0.36596 0.53750 0.33094
 C688 C 0.35003 0.53966 0.37842
 C689 C 0.32277 0.51861 0.38729
 C690 C 0.31101 0.49591 0.34603
 C691 C 0.32647 0.49387 0.29739
 C692 C 0.37269 0.51177 0.24301
 C693 C 0.36330 0.48972 0.19945
 C694 C 0.38175 0.48694 0.16113
 C695 C 0.40990 0.50594 0.16568
 C696 C 0.41927 0.52879 0.20612
 C697 C 0.40097 0.53194 0.24434
 C698 C 0.39377 0.55765 0.32683
 C699 C 0.41097 0.55478 0.28493
 H700 H 0.40261 0.57543 0.35817
 H701 H 0.43255 0.57045 0.28512
 H702 H 0.35922 0.55706 0.41089
 H703 H 0.29010 0.47925 0.35297
 H704 H 0.37407 0.46929 0.12967
 H705 H 0.44100 0.54387 0.20889
 H706 H 0.31657 0.47562 0.26800
 H707 H 0.34191 0.47418 0.19505
 C708 C 1.12957 0.67462 0.26828
 C709 C 1.12038 0.69167 0.29418
 C710 C 1.13464 0.70950 0.34485
 C711 C 1.15825 0.71091 0.36913
 C712 C 1.16842 0.69558 0.34045
 C713 C 1.15440 0.67776 0.29036
 C714 C 1.11168 0.65292 0.22111
 C715 C 1.11681 0.63214 0.20067
 C716 C 1.09777 0.61021 0.16351
 C717 C 1.07361 0.60888 0.14410
 C718 C 1.06892 0.63023 0.16068
 C719 C 1.08737 0.65177 0.20075
 C720 C 1.09655 0.69006 0.27079
 C721 C 1.08067 0.67088 0.22422
 H722 H 1.08978 0.70348 0.28965
 H723 H 1.06212 0.67009 0.20868
 H724 H 1.12685 0.72147 0.36708
 H725 H 1.18666 0.69651 0.35883
 H726 H 1.10151 0.59369 0.15147
 H727 H 1.04985 0.62878 0.14691
 H728 H 1.16297 0.66614 0.27083
 H729 H 1.13465 0.63157 0.21550
 C730 C 0.47804 0.14642 0.28259
 C731 C 0.50082 0.16180 0.32301
 C732 C 0.49964 0.17831 0.37104
 C733 C 0.47569 0.17903 0.38134
 C734 C 0.45331 0.16428 0.34076
 C735 C 0.45451 0.14839 0.29146
 C736 C 0.47930 0.12712 0.23554
 C737 C 0.45793 0.11096 0.19267
 C738 C 0.45891 0.09113 0.15462
 C739 C 0.48109 0.08693 0.15876
 C740 C 0.50321 0.10409 0.19816
 C741 C 0.50258 0.12418 0.23612
 C742 C 0.52403 0.15937 0.31787
 C743 C 0.52476 0.14071 0.27587
 H744 H 0.54149 0.17125 0.34864
 H745 H 0.54277 0.13878 0.27545
 H746 H 0.51682 0.18941 0.40306
 H747 H 0.43446 0.16418 0.34887
 H748 H 0.44174 0.07827 0.12392
 H749 H 0.52070 0.10129 0.20055
 H750 H 0.43643 0.13688 0.26274
 H751 H 0.44008 0.11290 0.18874
 C752 C 0.64944 0.49098 0.28413
 C753 C 0.63712 0.46731 0.32358
 C754 C 0.65243 0.46422 0.37130
 C755 C 0.67969 0.48486 0.38228
 C756 C 0.69214 0.50805 0.34270
 C757 C 0.67732 0.51099 0.29368
 C758 C 0.63166 0.49459 0.23735
 C759 C 0.64174 0.51716 0.19521
 C760 C 0.62379 0.52104 0.15734
 C761 C 0.59551 0.50264 0.16111
 C762 C 0.58546 0.47925 0.19980
 C763 C 0.60324 0.47497 0.23739
 C764 C 0.60921 0.44766 0.31784
 C765 C 0.59255 0.45158 0.27621
 H766 H 0.59986 0.42950 0.34788
 H767 H 0.57085 0.43632 0.27530
 H768 H 0.64271 0.44647 0.40255
 H769 H 0.71305 0.52442 0.35136
 H770 H 0.63193 0.53909 0.12715
 H771 H 0.56361 0.46464 0.20182
 H772 H 0.68768 0.52960 0.26571
 H773 H 0.66327 0.53229 0.19171
 C774 C 0.87686 0.32618 0.30159
 C775 C 0.85930 0.33131 0.33906
 C776 C 0.84292 0.31230 0.38542
 C777 C 0.84422 0.28849 0.39658
 C778 C 0.86131 0.28309 0.35965
 C779 C 0.87737 0.30163 0.31221
 C780 C 0.89512 0.34790 0.25484
 C781 C 0.91303 0.34487 0.21407
 C782 C 0.93105 0.36667 0.17481
 C783 C 0.93172 0.39194 0.17584
 C784 C 0.91313 0.39467 0.21387
 C785 C 0.89479 0.37292 0.25275
 C786 C 0.85897 0.35590 0.33201
 C787 C 0.87655 0.37639 0.29029
 H788 H 0.84546 0.35973 0.36063
 H789 H 0.87608 0.39542 0.28791
 H790 H 0.82988 0.31651 0.41485
 H791 H 0.86262 0.26481 0.36844
 H792 H 0.94513 0.36411 0.14531
 H793 H 0.91321 0.41402 0.21392
 H794 H 0.89057 0.29679 0.28571
 H795 H 0.91368 0.32603 0.21244
   
