data_POSCAR
  _audit_creation_date              2014-09-24
  _audit_creation_method            'ToBaCCo'
  _symmetry_space_group_name_H-M    'P1'
  _symmetry_Int_Tables_number       1
  _symmetry_cell_setting            triclinic
  loop_
  _symmetry_equiv_pos_as_xyz
 x,y,z
_cell_length_a 40.1134
_cell_length_b 40.1127
_cell_length_c 37.8097
_cell_angle_alpha 89.958300
_cell_angle_beta 89.963500
_cell_angle_gamma 89.758000
loop_
  _atom_site_label
  _atom_site_type_symbol
  _atom_site_fract_x
  _atom_site_fract_y
  _atom_site_fract_z
O1 O 0.02965 0.29321 -0.03301
 O2 O -0.03674 0.29212 0.03423
 O3 O 0.02818 0.29272 0.03585
 O4 O -0.03520 0.29159 -0.03462
 O5 O -0.03399 0.23646 -0.03448
 O6 O 0.02927 0.23759 0.03587
 O7 O -0.03564 0.23700 0.03436
 O8 O 0.03085 0.23808 -0.03298
 Cu9 Cu -0.00365 0.29798 0.00062
 Cu10 Cu -0.00226 0.23172 0.00071
 C11 C 0.04144 0.26586 -0.04438
 C12 C -0.04742 0.26441 0.04566
 C13 C 0.03943 0.26531 0.04773
 C14 C -0.04527 0.26381 -0.04644
 O15 O 0.53573 0.79050 0.46872
 O16 O 0.46992 0.78945 0.53667
 O17 O 0.53479 0.78876 0.53754
 O18 O 0.47080 0.79062 0.46764
 O19 O 0.47071 0.73551 0.46643
 O20 O 0.53467 0.73364 0.53629
 O21 O 0.46979 0.73433 0.53548
 O22 O 0.53566 0.73538 0.46746
 Cu23 Cu 0.50278 0.79539 0.50276
 Cu24 Cu 0.50266 0.72916 0.50127
 C25 C 0.54684 0.76313 0.45665
 C26 C 0.45884 0.76174 0.54766
 C27 C 0.54554 0.76088 0.54870
 C28 C 0.46002 0.76336 0.45517
 O29 O 1.03747 0.70722 0.03658
 O30 O 0.97146 0.70555 -0.03111
 O31 O 1.03647 0.70593 -0.03218
 O32 O 0.97253 0.70722 0.03780
 O33 O 0.97213 0.76234 0.03643
 O34 O 1.03601 0.76104 -0.03349
 O35 O 0.97102 0.76066 -0.03245
 O36 O 1.03705 0.76233 0.03524
 Cu37 Cu 1.00449 0.70092 0.00290
 Cu38 Cu 1.00398 0.76715 0.00128
 C39 C 1.04846 0.73505 0.04729
 C40 C 0.96009 0.73282 -0.04321
 C41 C 1.04713 0.73330 -0.04455
 C42 C 0.96157 0.73501 0.04895
 O43 O 0.46445 0.20751 0.46626
 O44 O 0.53056 0.20684 0.53368
 O45 O 0.46562 0.20811 0.53512
 O46 O 0.52933 0.20738 0.46481
 O47 O 0.52963 0.26252 0.46480
 O48 O 0.46604 0.26324 0.53498
 O49 O 0.53098 0.26197 0.53366
 O50 O 0.46475 0.26265 0.46612
 Cu51 Cu 0.49745 0.20190 0.49999
 Cu52 Cu 0.49789 0.26816 0.49990
 C53 C 0.45345 0.23516 0.45478
 C54 C 0.54195 0.23426 0.54504
 C55 C 0.45506 0.23584 0.54688
 C56 C 0.54021 0.23487 0.45294
 O57 O 0.70822 -0.03500 0.03289
 O58 O 0.70742 0.03131 -0.03446
 O59 O 0.70887 -0.03362 -0.03596
 O60 O 0.70780 0.02987 0.03440
 O61 O 0.76294 0.03037 0.03444
 O62 O 0.76400 -0.03301 -0.03581
 O63 O 0.76254 0.03192 -0.03442
 O64 O 0.76335 -0.03450 0.03303
 Cu65 Cu 0.70251 -0.00191 -0.00081
 Cu66 Cu 0.76877 -0.00124 -0.00070
 C67 C 0.73589 -0.04593 0.04436
 C68 C 0.73481 0.04283 -0.04581
 C69 C 0.73665 -0.04405 -0.04772
 C70 C 0.73523 0.04081 0.04630
 O71 O 0.20484 0.47033 0.53173
 O72 O 0.20656 0.53626 0.46391
 O73 O 0.20655 0.47132 0.46282
 O74 O 0.20533 0.53535 0.53268
 O75 O 0.26045 0.53483 0.53390
 O76 O 0.26167 0.47087 0.46410
 O77 O 0.26169 0.53579 0.46516
 O78 O 0.25995 0.46983 0.53299
 Cu79 Cu 0.20026 0.50333 0.49767
 Cu80 Cu 0.26650 0.50275 0.49918
 C81 C 0.23210 0.45894 0.54380
 C82 C 0.23440 0.54721 0.45315
 C83 C 0.23433 0.46031 0.45165
 C84 C 0.23272 0.54599 0.54497
 O85 O 0.28896 0.96993 -0.03757
 O86 O 0.28994 1.03595 0.03010
 O87 O 0.29018 0.97103 0.03144
 O88 O 0.28828 1.03480 -0.03872
 O89 O 0.23317 1.03465 -0.03741
 O90 O 0.23506 0.97090 0.03272
 O91 O 0.23483 1.03584 0.03143
 O92 O 0.23385 0.96976 -0.03631
 Cu93 Cu 0.29489 1.00291 -0.00382
 Cu94 Cu 0.22867 1.00274 -0.00225
 C95 C 0.26126 0.95878 -0.04848
 C96 C 0.26256 1.04706 0.04218
 C97 C 0.26292 0.96028 0.04399
 C98 C 0.26040 1.04549 -0.04991
 O99 O 0.79395 0.53015 0.53368
 O100 O 0.79249 0.46408 0.46625
 O101 O 0.79323 0.52900 0.46481
 O102 O 0.79204 0.46529 0.53510
 O103 O 0.73692 0.46669 0.53517
 O104 O 0.73810 0.53027 0.46501
 O105 O 0.73737 0.46536 0.46633
 O106 O 0.73882 0.53154 0.53387
 Cu107 Cu 0.79849 0.49700 0.49994
 Cu108 Cu 0.73224 0.49861 0.50010
 C109 C 0.76667 0.54199 0.54518
 C110 C 0.76473 0.45355 0.45491
 C111 C 0.76582 0.54039 0.45307
 C112 C 0.76425 0.45525 0.54698
 C113 C 0.23647 0.26390 0.24914
 C114 C 0.26046 0.23972 0.24885
 C115 C 0.26221 0.21423 0.22038
 C116 C 0.28609 0.23751 0.27710
 C117 C 0.23656 0.29129 0.27560
 C118 C 0.20879 0.26415 0.22309
 C119 C 0.26235 0.18022 0.22920
 C120 C 0.26310 0.15598 0.20267
 C121 C 0.26400 0.16547 0.16704
 C122 C 0.26457 0.19934 0.15806
 C123 C 0.26385 0.22362 0.18458
 C124 C 0.27685 0.23536 0.31290
 C125 C 0.30124 0.23439 0.33928
 C126 C 0.33505 0.23521 0.33012
 C127 C 0.34440 0.23656 0.29447
 C128 C 0.32004 0.23757 0.26808
 C129 C 0.26453 0.31191 0.27976
 C130 C 0.26438 0.33727 0.30513
 C131 C 0.23617 0.34246 0.32631
 C132 C 0.20803 0.32239 0.32181
 C133 C 0.20817 0.29703 0.29651
 C134 C 0.20301 0.29268 0.20240
 C135 C 0.17742 0.29306 0.17736
 C136 C 0.15717 0.26503 0.17297
 C137 C 0.16237 0.23673 0.19398
 C138 C 0.18795 0.23633 0.21907
 H139 H 0.26128 0.17247 0.25663
 H140 H 0.26275 0.12985 0.20993
 H141 H 0.26543 0.20697 0.13058
 H142 H 0.26441 0.24971 0.17724
 H143 H 0.25079 0.23466 0.32036
 H144 H 0.29374 0.23317 0.36678
 H145 H 0.32764 0.23902 0.24063
 H146 H 0.28644 0.30831 0.26343
 H147 H 0.28624 0.35276 0.30827
 H148 H 0.18605 0.32625 0.33799
 H149 H 0.18629 0.28154 0.29355
 H150 H 0.21868 0.31443 0.20528
 H151 H 0.17356 0.31510 0.16128
 H152 H 0.14674 0.21496 0.19090
 H153 H 0.19159 0.21433 0.23526
 H154 H 0.37049 0.23710 0.28709
 C155 C 0.76467 0.73728 0.25100
 C156 C 0.74045 0.76124 0.25090
 C157 C 0.73844 0.78677 0.22248
 C158 C 0.71476 0.76307 0.27916
 C159 C 0.76481 0.70975 0.27729
 C160 C 0.79225 0.73729 0.22475
 C161 C 0.73824 0.82076 0.23134
 C162 C 0.73729 0.84503 0.20482
 C163 C 0.73625 0.83559 0.16920
 C164 C 0.73572 0.80174 0.16020
 C165 C 0.73663 0.77742 0.18670
 C166 C 0.72389 0.76499 0.31500
 C167 C 0.69942 0.76571 0.34135
 C168 C 0.66562 0.76486 0.33214
 C169 C 0.65639 0.76371 0.29646
 C170 C 0.68081 0.76296 0.27010
 C171 C 0.73701 0.68886 0.28133
 C172 C 0.73734 0.66337 0.30657
 C173 C 0.76556 0.65831 0.32773
 C174 C 0.79354 0.67862 0.32335
 C175 C 0.79323 0.70413 0.29816
 C176 C 0.79813 0.70884 0.20401
 C177 C 0.82362 0.70868 0.17882
 C178 C 0.84366 0.73684 0.17428
 C179 C 0.83834 0.76510 0.19532
 C180 C 0.81286 0.76528 0.22057
 H181 H 0.73942 0.82845 0.25876
 H182 H 0.73761 0.87115 0.21209
 H183 H 0.73473 0.79416 0.13273
 H184 H 0.73612 0.75134 0.17935
 H185 H 0.74992 0.76574 0.32251
 H186 H 0.70685 0.76677 0.36887
 H187 H 0.67328 0.76168 0.24263
 H188 H 0.71510 0.69237 0.26501
 H189 H 0.71561 0.64769 0.30964
 H190 H 0.81552 0.67487 0.33953
 H191 H 0.81497 0.71983 0.29528
 H192 H 0.78265 0.68697 0.20700
 H193 H 0.82758 0.68666 0.16274
 H194 H 0.85381 0.78697 0.19213
 H195 H 0.80912 0.78723 0.23678
 H196 H 0.63031 0.76314 0.28904
 C197 C 0.73598 0.23606 0.24966
 C198 C 0.76000 0.26002 0.24958
 C199 C 0.78564 0.26177 0.22127
 C200 C 0.76186 0.28564 0.27784
 C201 C 0.70857 0.23602 0.27610
 C202 C 0.73588 0.20862 0.22333
 C203 C 0.81958 0.26162 0.23030
 C204 C 0.84398 0.26246 0.20392
 C205 C 0.83471 0.26373 0.16826
 C206 C 0.80090 0.26457 0.15907
 C207 C 0.77646 0.26377 0.18544
 C208 C 0.76394 0.27643 0.31366
 C209 C 0.76477 0.30086 0.34000
 C210 C 0.76388 0.33467 0.33078
 C211 C 0.76253 0.34397 0.29512
 C212 C 0.76166 0.31959 0.26877
 C213 C 0.68768 0.26396 0.28038
 C214 C 0.66235 0.26370 0.30580
 C215 C 0.65746 0.23543 0.32690
 C216 C 0.67777 0.20731 0.32227
 C217 C 0.70311 0.20755 0.29690
 C218 C 0.70744 0.20325 0.20251
 C219 C 0.70721 0.17793 0.17716
 C220 C 0.73529 0.15757 0.17258
 C221 C 0.76352 0.16236 0.19373
 C222 C 0.76377 0.18766 0.21913
 H223 H 0.82715 0.26029 0.25776
 H224 H 0.87007 0.26191 0.21133
 H225 H 0.79345 0.26574 0.13156
 H226 H 0.75041 0.26454 0.17796
 H227 H 0.76475 0.25038 0.32115
 H228 H 0.76600 0.29339 0.36751
 H229 H 0.76026 0.32716 0.24130
 H230 H 0.69108 0.28592 0.26412
 H231 H 0.64667 0.28554 0.30906
 H232 H 0.67414 0.18528 0.33840
 H233 H 0.71881 0.18571 0.29384
 H234 H 0.68564 0.21902 0.20552
 H235 H 0.68522 0.17438 0.16099
 H236 H 0.78533 0.14663 0.19050
 H237 H 0.78571 0.19101 0.23540
 H238 H 0.76194 0.37006 0.28769
 C239 C 0.26625 0.76669 0.24971
 C240 C 0.24225 0.74270 0.24962
 C241 C 0.21645 0.74107 0.22149
 C242 C 0.24049 0.71682 0.27768
 C243 C 0.29378 0.76647 0.27601
 C244 C 0.26613 0.79432 0.22352
 C245 C 0.18256 0.74088 0.23081
 C246 C 0.15799 0.73966 0.20467
 C247 C 0.16703 0.73836 0.16893
 C248 C 0.20079 0.73801 0.15944
 C249 C 0.22540 0.73919 0.18559
 C250 C 0.23843 0.72568 0.31359
 C251 C 0.23719 0.70099 0.33968
 C252 C 0.23768 0.66726 0.33012
 C253 C 0.23914 0.65832 0.29437
 C254 C 0.24041 0.68296 0.26828
 C255 C 0.31453 0.73839 0.28008
 C256 C 0.33958 0.73813 0.30579
 C257 C 0.34437 0.76603 0.32742
 C258 C 0.32431 0.79436 0.32290
 C259 C 0.29924 0.79464 0.29723
 C260 C 0.29432 0.79978 0.20229
 C261 C 0.29407 0.82488 0.17664
 C262 C 0.26575 0.84496 0.17214
 C263 C 0.23785 0.84018 0.19380
 C264 C 0.23807 0.81510 0.21951
 H265 H 0.17516 0.74211 0.25834
 H266 H 0.13196 0.73985 0.21232
 H267 H 0.20806 0.73683 0.13187
 H268 H 0.25140 0.73866 0.17788
 H269 H 0.23782 0.75166 0.32134
 H270 H 0.23589 0.70818 0.36726
 H271 H 0.24178 0.67565 0.24074
 H272 H 0.31114 0.71665 0.26353
 H273 H 0.35506 0.71614 0.30893
 H274 H 0.32785 0.81612 0.33942
 H275 H 0.28364 0.81659 0.29436
 H276 H 0.31624 0.78415 0.20513
 H277 H 0.31583 0.82842 0.16008
 H278 H 0.21586 0.85567 0.19067
 H279 H 0.21631 0.81168 0.23606
 H280 H 0.23943 0.63231 0.28668
 C281 C 0.75968 0.25935 0.75005
 C282 C 0.73573 0.23533 0.75014
 C283 C 0.71008 0.23350 0.72192
 C284 C 0.73401 0.20969 0.77846
 C285 C 0.78697 0.25965 0.77655
 C286 C 0.75990 0.28661 0.72345
 C287 C 0.67614 0.23393 0.73104
 C288 C 0.65172 0.23333 0.70472
 C289 C 0.66097 0.23201 0.66904
 C290 C 0.69476 0.23081 0.65978
 C291 C 0.71922 0.23137 0.68609
 C292 C 0.73195 0.21886 0.81428
 C293 C 0.73144 0.19441 0.84066
 C294 C 0.73262 0.16060 0.83148
 C295 C 0.73389 0.15134 0.79581
 C296 C 0.73444 0.17574 0.76943
 C297 C 0.80807 0.23189 0.78098
 C298 C 0.83333 0.23243 0.80644
 C299 C 0.83792 0.26081 0.82740
 C300 C 0.81739 0.28874 0.82262
 C301 C 0.79212 0.28822 0.79723
 C302 C 0.78848 0.29188 0.70278
 C303 C 0.78899 0.31720 0.67741
 C304 C 0.76102 0.33769 0.67263
 C305 C 0.73261 0.33295 0.69355
 C306 C 0.73208 0.30764 0.71899
 H307 H 0.66861 0.23537 0.75851
 H308 H 0.62565 0.23417 0.71217
 H309 H 0.70218 0.22962 0.63225
 H310 H 0.74526 0.23040 0.67856
 H311 H 0.73098 0.24490 0.82175
 H312 H 0.73027 0.20185 0.86817
 H313 H 0.73584 0.16819 0.74197
 H314 H 0.80489 0.20986 0.76482
 H315 H 0.84919 0.21074 0.80983
 H316 H 0.82079 0.31085 0.83865
 H317 H 0.77624 0.30992 0.79404
 H318 H 0.81023 0.27607 0.70599
 H319 H 0.81112 0.32071 0.66142
 H320 H 0.71089 0.34877 0.69018
 H321 H 0.71004 0.30438 0.73515
 H322 H 0.73471 0.12526 0.78841
 C323 C 0.23873 0.73921 0.75074
 C324 C 0.26268 0.76324 0.75075
 C325 C 0.29036 0.76301 0.72460
 C326 C 0.26237 0.79091 0.77690
 C327 C 0.21304 0.73733 0.77899
 C328 C 0.23695 0.71351 0.72253
 C329 C 0.31106 0.73488 0.72068
 C330 C 0.33627 0.73457 0.69513
 C331 C 0.34127 0.76248 0.67352
 C332 C 0.32124 0.79085 0.67788
 C333 C 0.29601 0.79117 0.70339
 C334 C 0.29057 0.79670 0.79797
 C335 C 0.29025 0.82200 0.82338
 C336 C 0.26183 0.84195 0.82782
 C337 C 0.23386 0.83679 0.80638
 C338 C 0.23418 0.81151 0.78091
 C339 C 0.17912 0.73703 0.76985
 C340 C 0.15468 0.73564 0.79615
 C341 C 0.16390 0.73425 0.83182
 C342 C 0.19769 0.73395 0.84110
 C343 C 0.22217 0.73531 0.81481
 C344 C 0.23498 0.72262 0.68667
 C345 C 0.23366 0.69812 0.66042
 C346 C 0.23394 0.66432 0.66976
 C347 C 0.23531 0.65512 0.70545
 C348 C 0.23668 0.67958 0.73170
 H349 H 0.30751 0.71313 0.73723
 H350 H 0.35174 0.71255 0.69211
 H351 H 0.32496 0.81262 0.66139
 H352 H 0.28044 0.81315 0.70615
 H353 H 0.31261 0.78123 0.79514
 H354 H 0.31206 0.82583 0.83974
 H355 H 0.21239 0.80787 0.76448
 H356 H 0.17160 0.73836 0.74238
 H357 H 0.12861 0.73581 0.78867
 H358 H 0.20509 0.73274 0.86863
 H359 H 0.24821 0.73485 0.82236
 H360 H 0.23451 0.74865 0.67908
 H361 H 0.23245 0.70551 0.63289
 H362 H 0.23547 0.62906 0.71298
 H363 H 0.23797 0.67206 0.75919
 H364 H 0.21180 0.85219 0.80944
 C365 C 0.25791 0.24032 0.74867
 C366 C 0.23406 0.26465 0.74889
 C367 C 0.23224 0.29043 0.72070
 C368 C 0.20857 0.26665 0.77734
 C369 C 0.25789 0.21278 0.77497
 C370 C 0.28533 0.24000 0.72224
 C371 C 0.23238 0.32434 0.72988
 C372 C 0.23152 0.34886 0.70361
 C373 C 0.23024 0.33974 0.66790
 C374 C 0.22939 0.30597 0.65857
 C375 C 0.23021 0.28142 0.68483
 C376 C 0.21796 0.26841 0.81311
 C377 C 0.19368 0.26905 0.83966
 C378 C 0.15982 0.26831 0.83070
 C379 C 0.15033 0.26738 0.79509
 C380 C 0.17457 0.26670 0.76854
 C381 C 0.22988 0.19220 0.77922
 C382 C 0.23003 0.16683 0.80460
 C383 C 0.25827 0.16158 0.82568
 C384 C 0.28646 0.18156 0.82106
 C385 C 0.28632 0.20695 0.79574
 C386 C 0.29078 0.21145 0.70151
 C387 C 0.31628 0.21087 0.67634
 C388 C 0.33677 0.23870 0.67181
 C389 C 0.33184 0.26706 0.69279
 C390 C 0.30635 0.26767 0.71802
 H391 H 0.23373 0.33179 0.75737
 H392 H 0.23211 0.37491 0.71113
 H393 H 0.22823 0.29864 0.63103
 H394 H 0.22943 0.25541 0.67723
 H395 H 0.24405 0.26901 0.82042
 H396 H 0.20130 0.26994 0.86712
 H397 H 0.16685 0.26554 0.74112
 H398 H 0.20794 0.19590 0.76300
 H399 H 0.20814 0.15140 0.80785
 H400 H 0.30846 0.17766 0.83716
 H401 H 0.30821 0.22241 0.79270
 H402 H 0.27497 0.18980 0.70454
 H403 H 0.31992 0.18877 0.66030
 H404 H 0.34766 0.28868 0.68961
 H405 H 0.30298 0.28967 0.73423
 H406 H 0.12420 0.26690 0.78787
 C407 C 0.74189 0.75853 0.75128
 C408 C 0.76625 0.73471 0.75133
 C409 C 0.76838 0.70913 0.72303
 C410 C 0.79192 0.73303 0.77963
 C411 C 0.74144 0.78607 0.77750
 C412 C 0.71447 0.75840 0.72486
 C413 C 0.76824 0.67517 0.73201
 C414 C 0.76890 0.65085 0.70558
 C415 C 0.76998 0.66024 0.66993
 C416 C 0.77097 0.69407 0.66081
 C417 C 0.77035 0.71842 0.68724
 C418 C 0.78278 0.73121 0.81548
 C419 C 0.80725 0.73045 0.84182
 C420 C 0.84106 0.73114 0.83258
 C421 C 0.85030 0.73223 0.79689
 C422 C 0.82588 0.73303 0.77055
 C423 C 0.76908 0.80714 0.78163
 C424 C 0.76837 0.83272 0.80672
 C425 C 0.73995 0.83768 0.82761
 C426 C 0.71214 0.81716 0.82315
 C427 C 0.71283 0.79157 0.79812
 C428 C 0.70866 0.78679 0.70396
 C429 C 0.68331 0.78687 0.67863
 C430 C 0.66332 0.75867 0.67411
 C431 C 0.66857 0.73047 0.69528
 C432 C 0.69391 0.73037 0.72067
 H433 H 0.76692 0.66754 0.75946
 H434 H 0.76822 0.62475 0.71292
 H435 H 0.77198 0.70160 0.63331
 H436 H 0.77109 0.74448 0.67981
 H437 H 0.75675 0.73054 0.82302
 H438 H 0.79981 0.72944 0.86935
 H439 H 0.83343 0.73422 0.74307
 H440 H 0.79114 0.80371 0.76549
 H441 H 0.78997 0.84857 0.80986
 H442 H 0.69000 0.82083 0.83913
 H443 H 0.69121 0.77572 0.79515
 H444 H 0.72410 0.80869 0.70693
 H445 H 0.67942 0.80884 0.66246
 H446 H 0.65314 0.70858 0.69212
 H447 H 0.69758 0.70847 0.73699
 H448 H 0.87638 0.73268 0.78943
 C449 C 0.26298 0.07274 0.06860
 C450 C 0.26337 0.09421 0.09090
 C451 C 0.26377 0.11921 0.11717
 C452 C 0.26398 0.14040 0.13979
 C453 C 0.76736 0.56761 0.57160
 C454 C 0.76809 0.58904 0.59391
 C455 C 0.76895 0.61398 0.62017
 C456 C 0.76956 0.63515 0.64276
 C457 C 0.73608 0.92836 0.07076
 C458 C 0.73608 0.90688 0.09306
 C459 C 0.73603 0.88187 0.11935
 C460 C 0.73604 0.86068 0.14197
 C461 C 0.23142 0.43322 0.57019
 C462 C 0.23090 0.41164 0.59239
 C463 C 0.23043 0.38646 0.61849
 C464 C 0.23021 0.36508 0.64091
 C465 C 0.92813 0.26413 0.07049
 C466 C 0.90649 0.26403 0.09264
 C467 C 0.88130 0.26400 0.11872
 C468 C 0.85995 0.26395 0.14118
 C469 C 0.43359 0.76145 0.57456
 C470 C 0.41250 0.76142 0.59728
 C471 C 0.38783 0.76161 0.62393
 C472 C 0.36669 0.76193 0.64662
 C473 C 0.07294 0.73564 0.07205
 C474 C 0.09469 0.73618 0.09404
 C475 C 0.12007 0.73685 0.11988
 C476 C 0.14159 0.73749 0.14211
 C477 C 0.56771 0.23386 0.57132
 C478 C 0.58928 0.23337 0.59349
 C479 C 0.61442 0.23274 0.61957
 C480 C 0.63574 0.23230 0.64201
 C481 C 0.73441 0.06726 0.92932
 C482 C 0.73393 0.08887 0.90715
 C483 C 0.73332 0.11404 0.88104
 C484 C 0.73290 0.13538 0.85857
 C485 C 0.23504 0.57307 0.42694
 C486 C 0.23556 0.59481 0.40494
 C487 C 0.23619 0.62021 0.37910
 C488 C 0.23681 0.64177 0.35689
 C489 C 0.26098 0.93477 0.92621
 C490 C 0.26092 0.91356 0.90362
 C491 C 0.26105 0.88874 0.87713
 C492 C 0.26132 0.86749 0.85457
 C493 C 0.76432 0.42782 0.42860
 C494 C 0.76418 0.40627 0.40642
 C495 C 0.76414 0.38116 0.38030
 C496 C 0.76409 0.35987 0.35784
 C497 C 0.06716 0.26639 0.92923
 C498 C 0.08863 0.26694 0.90693
 C499 C 0.11361 0.26761 0.88063
 C500 C 0.13477 0.26805 0.85798
 C501 C 0.57250 0.76359 0.43021
 C502 C 0.59401 0.76403 0.40794
 C503 C 0.61909 0.76451 0.38174
 C504 C 0.64039 0.76479 0.35923
 C505 C 0.93436 0.73217 0.93043
 C506 C 0.91280 0.73170 0.90822
 C507 C 0.88765 0.73128 0.88210
 C508 C 0.86632 0.73109 0.85964
 C509 C 0.42781 0.23528 0.42837
 C510 C 0.40637 0.23522 0.40607
 C511 C 0.38139 0.23508 0.37981
 C512 C 0.36019 0.23504 0.35725
 C513 C 0.73720 0.93105 0.92511
 C514 C 0.73784 0.90996 0.90245
 C515 C 0.73867 0.88506 0.87614
 C516 C 0.73933 0.86359 0.85388
 C517 C 0.23485 0.43537 0.42448
 C518 C 0.23531 0.41432 0.40174
 C519 C 0.23581 0.38952 0.37527
 C520 C 0.23609 0.36818 0.35284
 C521 C 0.25970 0.06902 0.92430
 C522 C 0.25913 0.08999 0.90145
 C523 C 0.25859 0.11467 0.87485
 C524 C 0.25831 0.13593 0.85231
 C525 C 0.76611 0.56529 0.42584
 C526 C 0.76610 0.58634 0.40309
 C527 C 0.76592 0.61115 0.37662
 C528 C 0.76573 0.63253 0.35421
 C529 C 0.07102 0.73294 0.93004
 C530 C 0.09234 0.73286 0.90757
 C531 C 0.11734 0.73305 0.88131
 C532 C 0.13863 0.73346 0.85882
 C533 C 0.56502 0.23474 0.42562
 C534 C 0.58596 0.23485 0.40275
 C535 C 0.61062 0.23510 0.37613
 C536 C 0.63185 0.23531 0.35357
 C537 C 0.93003 0.26324 0.92620
 C538 C 0.90919 0.26262 0.90329
 C539 C 0.88463 0.26184 0.87664
 C540 C 0.86346 0.26127 0.85406
 C541 C 0.43534 0.76402 0.42770
 C542 C 0.41465 0.76450 0.40458
 C543 C 0.39037 0.76502 0.37754
 C544 C 0.36952 0.76547 0.35458
 C545 C 0.26361 0.93569 0.07157
 C546 C 0.26413 0.91507 0.09477
 C547 C 0.26470 0.89087 0.12190
 C548 C 0.26518 0.87007 0.14492
 C549 C 0.76364 0.43039 0.57424
 C550 C 0.76297 0.40940 0.59704
 C551 C 0.76213 0.38467 0.62357
 C552 C 0.76151 0.36337 0.64605
 C553 C 0.73497 0.06551 0.07367
 C554 C 0.73496 0.08635 0.09660
 C555 C 0.73509 0.11090 0.12328
 C556 C 0.73522 0.13205 0.14589
 C557 C 0.23239 0.57129 0.57177
 C558 C 0.23238 0.59265 0.59417
 C559 C 0.23265 0.61770 0.62036
 C560 C 0.23311 0.63903 0.64280
 C561 C 0.93665 0.73554 0.07616
 C562 C 0.91560 0.73601 0.09891
 C563 C 0.89080 0.73649 0.12538
 C564 C 0.86944 0.73676 0.14780
 C565 C 0.43010 0.23627 0.57405
 C566 C 0.40899 0.23683 0.59673
 C567 C 0.38408 0.23757 0.62310
 C568 C 0.36263 0.23817 0.64542
 C569 C 0.06423 0.26559 0.07499
 C570 C 0.08523 0.26559 0.09776
 C571 C 0.11001 0.26542 0.12420
 C572 C 0.13138 0.26523 0.14657
 C573 C 0.57050 0.76014 0.57585
 C574 C 0.59154 0.75955 0.59859
 C575 C 0.61632 0.75899 0.62508
 C576 C 0.63763 0.75871 0.64755
   
