data_POSCAR
  _audit_creation_date              2014-09-24
  _audit_creation_method            'ToBaCCo'
  _symmetry_space_group_name_H-M    'P1'
  _symmetry_Int_Tables_number       1
  _symmetry_cell_setting            triclinic
  loop_
  _symmetry_equiv_pos_as_xyz
 x,y,z
_cell_length_a 67.6746
_cell_length_b 67.7014
_cell_length_c 35.2584
_cell_angle_alpha 89.956300
_cell_angle_beta 90.044100
_cell_angle_gamma 90.143300
loop_
  _atom_site_label
  _atom_site_type_symbol
  _atom_site_fract_x
  _atom_site_fract_y
  _atom_site_fract_z
C1 C -0.01833 0.26575 0.01966
 C2 C -0.01826 0.26552 -0.02043
 C3 C -0.00024 0.26550 -0.04006
 C4 C 0.01771 0.26564 -0.02019
 C5 C 0.01762 0.26591 0.01981
 C6 C -0.00036 0.26600 0.03945
 H7 H -0.00033 0.26611 0.07024
 H8 H -0.00019 0.26522 -0.07085
 C9 C 0.48200 0.76749 0.51966
 C10 C 0.48197 0.76740 0.47970
 C11 C 0.49993 0.76733 0.45998
 C12 C 0.51788 0.76726 0.47978
 C13 C 0.51790 0.76734 0.51974
 C14 C 0.49995 0.76750 0.53946
 H15 H 0.49995 0.76747 0.57023
 H16 H 0.49993 0.76717 0.42921
 C17 C 1.01786 0.73280 0.01976
 C18 C 1.01791 0.73269 -0.02026
 C19 C 0.99999 0.73266 -0.04017
 C20 C 0.98197 0.73285 -0.02061
 C21 C 0.98192 0.73298 0.01941
 C22 C 0.99984 0.73290 0.03933
 H23 H 0.99973 0.73309 0.07011
 H24 H 1.00010 0.73268 -0.07096
 C25 C 0.51780 0.23336 0.52114
 C26 C 0.51791 0.23374 0.48118
 C27 C 0.49999 0.23389 0.46128
 C28 C 0.48199 0.23377 0.48089
 C29 C 0.48189 0.23343 0.52086
 C30 C 0.49980 0.23318 0.54075
 H31 H 0.49975 0.23299 0.57152
 H32 H 0.50005 0.23427 0.43052
 C33 C 0.73244 -0.01840 0.02101
 C34 C 0.73283 -0.01840 -0.01901
 C35 C 0.73293 -0.00044 -0.03878
 C36 C 0.73273 0.01751 -0.01907
 C37 C 0.73232 0.01751 0.02088
 C38 C 0.73213 -0.00042 0.04069
 H39 H 0.73192 -0.00035 0.07148
 H40 H 0.73335 -0.00043 -0.06954
 C41 C 0.23267 0.48212 0.52040
 C42 C 0.23294 0.48207 0.48043
 C43 C 0.23305 0.49999 0.46057
 C44 C 0.23299 0.51797 0.48023
 C45 C 0.23276 0.51802 0.52020
 C46 C 0.23255 0.50009 0.54005
 H47 H 0.23245 0.50013 0.57082
 H48 H 0.23334 0.49996 0.42981
 C49 C 0.26588 1.01877 0.02013
 C50 C 0.26590 1.01868 -0.01998
 C51 C 0.26593 1.00065 -0.03952
 C52 C 0.26589 0.98276 -0.01958
 C53 C 0.26591 0.98284 0.02036
 C54 C 0.26593 1.00082 0.03999
 H55 H 0.26585 1.00080 0.07077
 H56 H 0.26585 1.00051 -0.07030
 C57 C 0.76852 0.51792 0.51921
 C58 C 0.76861 0.51782 0.47924
 C59 C 0.76873 0.49982 0.45968
 C60 C 0.76868 0.48193 0.47965
 C61 C 0.76861 0.48202 0.51961
 C62 C 0.76857 0.50002 0.53917
 H63 H 0.76840 0.50010 0.56993
 H64 H 0.76869 0.49974 0.42892
 O65 O 0.23244 0.25981 0.20290
 O66 O 0.28125 0.25425 0.24780
 O67 O 0.25968 0.23272 0.20249
 O68 O 0.25403 0.28130 0.24819
 O69 O 0.24001 0.26697 0.29775
 O70 O 0.24566 0.21839 0.25205
 O71 O 0.26722 0.23991 0.29736
 O72 O 0.21842 0.24548 0.25246
 Cu73 Cu 0.25826 0.25846 0.22032
 Cu74 Cu 0.24141 0.24123 0.27990
 C75 C 0.21720 0.25356 0.22009
 C76 C 0.28246 0.24620 0.28021
 C77 C 0.25359 0.21736 0.21953
 C78 C 0.24612 0.28232 0.28073
 O79 O 0.76022 0.73321 0.29793
 O80 O 0.75436 0.78188 0.25259
 O81 O 0.73300 0.76031 0.29808
 O82 O 0.78157 0.75480 0.25243
 O83 O 0.76729 0.74059 0.20300
 O84 O 0.71872 0.74609 0.24865
 O85 O 0.74008 0.76767 0.20316
 O86 O 0.74594 0.71899 0.24851
 Cu87 Cu 0.75873 0.75898 0.28025
 Cu88 Cu 0.74157 0.74189 0.22084
 C89 C 0.75405 0.71789 0.28089
 C90 C 0.74627 0.78299 0.22020
 C91 C 0.71767 0.75412 0.28108
 C92 C 0.78262 0.74681 0.21997
 O93 O 0.73309 0.23999 0.29773
 O94 O 0.78176 0.24508 0.25187
 O95 O 0.76073 0.26679 0.29751
 O96 O 0.75412 0.21827 0.25204
 O97 O 0.74001 0.23271 0.20271
 O98 O 0.74662 0.28123 0.24818
 O99 O 0.76766 0.25952 0.20254
 O100 O 0.71899 0.25442 0.24841
 Cu101 Cu 0.75885 0.24107 0.27976
 Cu102 Cu 0.74190 0.25842 0.22048
 C103 C 0.71783 0.24639 0.28086
 C104 C 0.78293 0.25314 0.21945
 C105 C 0.75476 0.28219 0.28055
 C106 C 0.74599 0.21730 0.21966
 O107 O 0.26644 0.76024 0.29718
 O108 O 0.21785 0.75439 0.25124
 O109 O 0.23924 0.73299 0.29695
 O110 O 0.24505 0.78164 0.25146
 O111 O 0.25937 0.76747 0.20217
 O112 O 0.25356 0.71882 0.24765
 O113 O 0.23217 0.74022 0.20194
 O114 O 0.28076 0.74607 0.24788
 Cu115 Cu 0.24070 0.75875 0.27918
 Cu116 Cu 0.25791 0.74172 0.21994
 C117 C 0.28180 0.75411 0.28032
 C118 C 0.21681 0.74635 0.21880
 C119 C 0.24546 0.71770 0.28001
 C120 C 0.25316 0.78277 0.21911
 O121 O 0.75482 0.21807 0.74709
 O122 O 0.76059 0.26679 0.70171
 O123 O 0.78208 0.24521 0.74691
 O124 O 0.73332 0.23959 0.70180
 O125 O 0.71926 0.25374 0.75139
 O126 O 0.76802 0.25937 0.79652
 O127 O 0.74653 0.28093 0.75131
 O128 O 0.74076 0.23224 0.79667
 Cu129 Cu 0.75912 0.24099 0.71935
 Cu130 Cu 0.74222 0.25801 0.77897
 C131 C 0.74687 0.21695 0.77960
 C132 C 0.75451 0.28208 0.71884
 C133 C 0.78327 0.25318 0.77938
 C134 C 0.71807 0.24573 0.71896
 O135 O 0.28135 0.74653 0.75148
 O136 O 0.23279 0.74024 0.79692
 O137 O 0.25431 0.71913 0.75116
 O138 O 0.25981 0.76766 0.79724
 O139 O 0.24548 0.78193 0.74799
 O140 O 0.23998 0.73341 0.70191
 O141 O 0.21845 0.75452 0.74767
 O142 O 0.26701 0.76081 0.70223
 Cu143 Cu 0.25852 0.74195 0.77918
 Cu144 Cu 0.24128 0.75911 0.71997
 C145 C 0.28237 0.75470 0.71916
 C146 C 0.21743 0.74634 0.77998
 C147 C 0.24624 0.71808 0.71874
 C148 C 0.25354 0.78298 0.78042
 O149 O 0.25319 0.28107 0.75155
 O150 O 0.25913 0.23251 0.79720
 O151 O 0.28047 0.25402 0.75146
 O152 O 0.23186 0.25955 0.79728
 O153 O 0.21756 0.24522 0.74800
 O154 O 0.26618 0.23970 0.70218
 O155 O 0.24484 0.21818 0.74791
 O156 O 0.23890 0.26675 0.70226
 Cu157 Cu 0.25760 0.25823 0.77934
 Cu158 Cu 0.24043 0.24102 0.72012
 C159 C 0.24507 0.28211 0.71917
 C160 C 0.25296 0.21715 0.78030
 C161 C 0.28152 0.24596 0.71906
 C162 C 0.21651 0.25328 0.78041
 O163 O 0.74080 0.76716 0.79635
 O164 O 0.74661 0.71869 0.75046
 O165 O 0.76807 0.74011 0.79615
 O166 O 0.71936 0.74575 0.75064
 O167 O 0.73355 0.76016 0.70134
 O168 O 0.78225 0.75453 0.74685
 O169 O 0.76080 0.73310 0.70115
 O170 O 0.75498 0.78158 0.74705
 Cu171 Cu 0.74228 0.74147 0.77838
 Cu172 Cu 0.75933 0.75880 0.71913
 C173 C 0.74693 0.78255 0.77947
 C174 C 0.75464 0.71772 0.71802
 C175 C 0.78338 0.74640 0.77921
 C176 C 0.71824 0.75388 0.71828
 C177 C 0.26550 0.03611 0.04003
 C178 C 0.26502 0.05166 0.05665
 C179 C 0.26427 0.07047 0.07554
 C180 C 0.25740 0.08709 0.05600
 C181 C 0.25657 0.10541 0.07416
 C182 C 0.26258 0.10735 0.11220
 C183 C 0.26949 0.09054 0.13159
 C184 C 0.27034 0.07223 0.11334
 C185 C 0.26150 0.12679 0.13160
 C186 C 0.25498 0.12809 0.16941
 C187 C 0.25366 0.14644 0.18743
 C188 C 0.25885 0.16371 0.16796
 C189 C 0.26545 0.16256 0.13043
 C190 C 0.26677 0.14424 0.11234
 C191 C 0.25715 0.18261 0.18631
 C192 C 0.25560 0.19847 0.20155
 H193 H 0.25259 0.08587 0.02678
 H194 H 0.25093 0.11800 0.05862
 H195 H 0.27445 0.09160 0.16072
 H196 H 0.27573 0.05946 0.12868
 H197 H 0.25057 0.11497 0.18483
 H198 H 0.24846 0.14716 0.21645
 H199 H 0.26954 0.17584 0.11511
 H200 H 0.27209 0.14371 0.08340
 C201 C 0.76798 0.53628 0.53994
 C202 C 0.76735 0.55190 0.55624
 C203 C 0.76639 0.57079 0.57475
 C204 C 0.76006 0.58738 0.55445
 C205 C 0.75892 0.60576 0.57229
 C206 C 0.76409 0.60779 0.61076
 C207 C 0.77052 0.59103 0.63089
 C208 C 0.77165 0.57265 0.61297
 C209 C 0.76262 0.62728 0.62984
 C210 C 0.77727 0.63351 0.65556
 C211 C 0.77581 0.65186 0.67352
 C212 C 0.75971 0.66419 0.66604
 C213 C 0.74506 0.65812 0.64054
 C214 C 0.74649 0.63980 0.62254
 C215 C 0.75813 0.68305 0.68455
 C216 C 0.75664 0.69888 0.69992
 H217 H 0.75598 0.58610 0.52483
 H218 H 0.75418 0.61842 0.55589
 H219 H 0.77437 0.59207 0.66063
 H220 H 0.77652 0.55988 0.62895
 H221 H 0.78998 0.62431 0.66142
 H222 H 0.78726 0.65644 0.69315
 H223 H 0.73249 0.66753 0.63465
 H224 H 0.73483 0.63531 0.60331
 C225 C 0.73271 0.96429 0.04096
 C226 C 0.73311 0.94879 0.05779
 C227 C 0.73379 0.93008 0.07712
 C228 C 0.72825 0.91281 0.05804
 C229 C 0.72937 0.89454 0.07638
 C230 C 0.73606 0.89330 0.11411
 C231 C 0.74148 0.91077 0.13311
 C232 C 0.74035 0.92903 0.11470
 C233 C 0.73760 0.87384 0.13340
 C234 C 0.75390 0.86954 0.15677
 C235 C 0.75547 0.85115 0.17457
 C236 C 0.74078 0.83683 0.16931
 C237 C 0.72447 0.84097 0.14623
 C238 C 0.72288 0.85935 0.12837
 C239 C 0.74256 0.81784 0.18735
 C240 C 0.74418 0.80192 0.20239
 H241 H 0.72321 0.91346 0.02889
 H242 H 0.72534 0.88134 0.06082
 H243 H 0.74645 0.91033 0.16230
 H244 H 0.74466 0.94232 0.12973
 H245 H 0.76560 0.88027 0.16079
 H246 H 0.76819 0.84807 0.19227
 H247 H 0.71300 0.83000 0.14203
 H248 H 0.71004 0.86230 0.11094
 C249 C 0.23283 0.46384 0.54147
 C250 C 0.23308 0.44829 0.55812
 C251 C 0.23353 0.42949 0.57713
 C252 C 0.22607 0.41268 0.55898
 C253 C 0.22696 0.39428 0.57688
 C254 C 0.23533 0.39246 0.61326
 C255 C 0.24267 0.40949 0.63138
 C256 C 0.24179 0.42788 0.61338
 C257 C 0.23662 0.37287 0.63204
 C258 C 0.23286 0.37090 0.67112
 C259 C 0.23431 0.35247 0.68881
 C260 C 0.23955 0.33578 0.66772
 C261 C 0.24326 0.33757 0.62883
 C262 C 0.24180 0.35597 0.61108
 C263 C 0.24133 0.31686 0.68601
 C264 C 0.24296 0.30100 0.70122
 H265 H 0.21961 0.41379 0.53093
 H266 H 0.22096 0.38150 0.56240
 H267 H 0.24944 0.40853 0.65916
 H268 H 0.24770 0.44079 0.62760
 H269 H 0.22861 0.38357 0.68792
 H270 H 0.23138 0.35124 0.71892
 H271 H 0.24739 0.32475 0.61227
 H272 H 0.24505 0.35705 0.58108
 C273 C 0.96434 0.26543 0.03967
 C274 C 0.94884 0.26501 0.05651
 C275 C 0.93012 0.26434 0.07583
 C276 C 0.92889 0.25685 0.11276
 C277 C 0.91062 0.25579 0.13115
 C278 C 0.89330 0.26220 0.11281
 C279 C 0.89472 0.26980 0.07573
 C280 C 0.91301 0.27085 0.05741
 C281 C 0.87382 0.26081 0.13210
 C282 C 0.85984 0.27605 0.12848
 C283 C 0.84145 0.27463 0.14639
 C284 C 0.83678 0.25796 0.16814
 C285 C 0.85059 0.24273 0.17198
 C286 C 0.86898 0.24413 0.15413
 C287 C 0.81778 0.25639 0.18630
 C288 C 0.80187 0.25497 0.20147
 H289 H 0.94205 0.25179 0.12730
 H290 H 0.91006 0.25011 0.15985
 H291 H 0.88164 0.27461 0.06065
 H292 H 0.91378 0.27661 0.02877
 H293 H 0.86320 0.28918 0.11213
 H294 H 0.83090 0.28652 0.14328
 H295 H 0.84710 0.22973 0.18864
 H296 H 0.87930 0.23203 0.15705
 C297 C 0.46369 0.76721 0.54058
 C298 C 0.44812 0.76681 0.55708
 C299 C 0.42929 0.76614 0.57585
 C300 C 0.41269 0.75909 0.55639
 C301 C 0.39435 0.75829 0.57447
 C302 C 0.39238 0.76452 0.61234
 C303 C 0.40916 0.77164 0.63164
 C304 C 0.42750 0.77245 0.61346
 C305 C 0.37294 0.76341 0.63169
 C306 C 0.37163 0.75697 0.66957
 C307 C 0.35328 0.75554 0.68752
 C308 C 0.33602 0.76055 0.66790
 C309 C 0.33717 0.76710 0.63032
 C310 C 0.35551 0.76852 0.61230
 C311 C 0.31711 0.75867 0.68614
 C312 C 0.30125 0.75694 0.70129
 H313 H 0.41395 0.75409 0.52730
 H314 H 0.38177 0.75249 0.55904
 H315 H 0.40806 0.77676 0.66064
 H316 H 0.44026 0.77799 0.62872
 H317 H 0.38476 0.75269 0.68507
 H318 H 0.35254 0.75039 0.71658
 H319 H 0.32389 0.77104 0.61491
 H320 H 0.35606 0.77377 0.58330
 C321 C 0.03517 0.73315 0.03977
 C322 C 0.05070 0.73356 0.05654
 C323 C 0.06950 0.73421 0.07564
 C324 C 0.08645 0.72730 0.05728
 C325 C 0.10483 0.72836 0.07530
 C326 C 0.10650 0.73634 0.11202
 C327 C 0.08933 0.74313 0.13033
 C328 C 0.07097 0.74208 0.11222
 C329 C 0.12608 0.73776 0.13098
 C330 C 0.12804 0.73364 0.16993
 C331 C 0.14645 0.73517 0.18777
 C332 C 0.16313 0.74084 0.16697
 C333 C 0.16135 0.74493 0.12821
 C334 C 0.14296 0.74340 0.11030
 C335 C 0.18205 0.74264 0.18540
 C336 C 0.19791 0.74427 0.20072
 H337 H 0.08547 0.72114 0.02898
 H338 H 0.11771 0.72278 0.06065
 H339 H 0.09016 0.74959 0.15837
 H340 H 0.05795 0.74756 0.12661
 H341 H 0.11538 0.72903 0.18652
 H342 H 0.14767 0.73193 0.21778
 H343 H 0.17415 0.74941 0.11185
 H344 H 0.14190 0.74693 0.08042
 C345 C 0.53607 0.23348 0.54226
 C346 C 0.55161 0.23371 0.55893
 C347 C 0.57041 0.23414 0.57790
 C348 C 0.57205 0.24221 0.61428
 C349 C 0.59046 0.24311 0.63222
 C350 C 0.60748 0.23599 0.61389
 C351 C 0.60563 0.22780 0.57739
 C352 C 0.58721 0.22688 0.55955
 C353 C 0.62710 0.23733 0.63256
 C354 C 0.64393 0.24278 0.61159
 C355 C 0.66237 0.24427 0.62924
 C356 C 0.66424 0.24032 0.66803
 C357 C 0.64761 0.23482 0.68913
 C358 C 0.62914 0.23334 0.67154
 C359 C 0.68320 0.24209 0.68618
 C360 C 0.69911 0.24369 0.70124
 H361 H 0.55914 0.24796 0.62864
 H362 H 0.59144 0.24974 0.66010
 H363 H 0.61841 0.22196 0.56276
 H364 H 0.58609 0.22057 0.53139
 H365 H 0.64279 0.24621 0.58167
 H366 H 0.67515 0.24861 0.61268
 H367 H 0.64891 0.23170 0.71917
 H368 H 0.61651 0.22888 0.68834
 C369 C 0.73336 0.03583 0.95995
 C370 C 0.73406 0.05139 0.94339
 C371 C 0.73509 0.07021 0.92451
 C372 C 0.74133 0.08693 0.94455
 C373 C 0.74253 0.10524 0.92635
 C374 C 0.73750 0.10707 0.88777
 C375 C 0.73116 0.09017 0.86790
 C376 C 0.72997 0.07187 0.88618
 C377 C 0.73901 0.12649 0.86832
 C378 C 0.72445 0.13251 0.84227
 C379 C 0.72591 0.15081 0.82406
 C380 C 0.74194 0.16332 0.83159
 C381 C 0.75651 0.15745 0.85740
 C382 C 0.75507 0.13917 0.87565
 C383 C 0.74348 0.18218 0.81296
 C384 C 0.74493 0.19803 0.79759
 H385 H 0.74530 0.08581 0.97425
 H386 H 0.74720 0.11800 0.94257
 H387 H 0.72742 0.09105 0.83808
 H388 H 0.72517 0.05900 0.87038
 H389 H 0.71179 0.12319 0.83638
 H390 H 0.71452 0.15524 0.80421
 H391 H 0.76901 0.16699 0.86335
 H392 H 0.76666 0.13485 0.89513
 C393 C 0.23349 0.53626 0.45920
 C394 C 0.23403 0.55182 0.44261
 C395 C 0.23482 0.57064 0.42374
 C396 C 0.24197 0.58722 0.44312
 C397 C 0.24279 0.60556 0.42499
 C398 C 0.23649 0.60756 0.38713
 C399 C 0.22932 0.59080 0.36789
 C400 C 0.22848 0.57247 0.38612
 C401 C 0.23755 0.62702 0.36777
 C402 C 0.24381 0.62837 0.32980
 C403 C 0.24512 0.64674 0.31180
 C404 C 0.24016 0.66398 0.33145
 C405 C 0.23381 0.66279 0.36914
 C406 C 0.23250 0.64444 0.38721
 C407 C 0.24186 0.68290 0.31314
 C408 C 0.24342 0.69878 0.29793
 H409 H 0.24699 0.58595 0.47221
 H410 H 0.24864 0.61811 0.44039
 H411 H 0.22414 0.59192 0.33891
 H412 H 0.22287 0.55973 0.37091
 H413 H 0.24804 0.61527 0.31424
 H414 H 0.25013 0.64750 0.28266
 H415 H 0.22990 0.67604 0.38460
 H416 H 0.22739 0.64387 0.41628
 C417 C 0.26548 0.96439 0.95963
 C418 C 0.26500 0.94879 0.94320
 C419 C 0.26424 0.92994 0.92443
 C420 C 0.25721 0.91334 0.94393
 C421 C 0.25636 0.89499 0.92584
 C422 C 0.26249 0.89301 0.88791
 C423 C 0.26957 0.90979 0.86856
 C424 C 0.27044 0.92813 0.88674
 C425 C 0.26137 0.87355 0.86856
 C426 C 0.25499 0.87222 0.83064
 C427 C 0.25366 0.85387 0.81263
 C428 C 0.25869 0.83662 0.83221
 C429 C 0.26514 0.83778 0.86987
 C430 C 0.26648 0.85611 0.88795
 C431 C 0.25702 0.81771 0.81383
 C432 C 0.25550 0.80186 0.79852
 H433 H 0.25230 0.91460 0.97307
 H434 H 0.25059 0.88243 0.94134
 H435 H 0.27463 0.90869 0.83952
 H436 H 0.27595 0.94088 0.87142
 H437 H 0.25071 0.88534 0.81511
 H438 H 0.24858 0.85314 0.78351
 H439 H 0.26912 0.82452 0.88528
 H440 H 0.27168 0.85666 0.91698
 C441 C 0.76831 0.46356 0.45889
 C442 C 0.76782 0.44796 0.44249
 C443 C 0.76703 0.42911 0.42379
 C444 C 0.77391 0.42710 0.38659
 C445 C 0.77298 0.40876 0.36846
 C446 C 0.76517 0.39218 0.38739
 C447 C 0.75835 0.39436 0.42485
 C448 C 0.75927 0.41271 0.44288
 C449 C 0.76394 0.37273 0.36808
 C450 C 0.76829 0.35522 0.38789
 C451 C 0.76677 0.33689 0.36987
 C452 C 0.76089 0.33581 0.33188
 C453 C 0.75664 0.35314 0.31186
 C454 C 0.75816 0.37149 0.32980
 C455 C 0.75892 0.31691 0.31362
 C456 C 0.75710 0.30106 0.29845
 H457 H 0.77999 0.43970 0.37160
 H458 H 0.77857 0.40749 0.33980
 H459 H 0.75201 0.38196 0.43999
 H460 H 0.75382 0.41413 0.47163
 H461 H 0.77302 0.35570 0.41721
 H462 H 0.77013 0.32356 0.38561
 H463 H 0.75200 0.35247 0.28247
 H464 H 0.75447 0.38468 0.31394
 C465 C 0.03509 0.26518 0.96007
 C466 C 0.05067 0.26464 0.94352
 C467 C 0.06950 0.26383 0.92464
 C468 C 0.08601 0.25645 0.94386
 C469 C 0.10435 0.25559 0.92572
 C470 C 0.10642 0.26207 0.88799
 C471 C 0.08973 0.26948 0.86891
 C472 C 0.07140 0.27036 0.88715
 C473 C 0.12589 0.26098 0.86859
 C474 C 0.12714 0.25503 0.83043
 C475 C 0.14549 0.25372 0.81238
 C476 C 0.16283 0.25837 0.83217
 C477 C 0.16173 0.26440 0.87006
 C478 C 0.14341 0.26570 0.88818
 C479 C 0.18174 0.25672 0.81375
 C480 C 0.19761 0.25522 0.79845
 H481 H 0.08470 0.25128 0.97284
 H482 H 0.11684 0.24955 0.94102
 H483 H 0.09089 0.27482 0.84004
 H484 H 0.05873 0.27616 0.87204
 H485 H 0.11397 0.25104 0.81472
 H486 H 0.14617 0.24897 0.78308
 H487 H 0.17505 0.26807 0.88564
 H488 H 0.14292 0.27058 0.91740
 C489 C 0.53618 0.76676 0.45887
 C490 C 0.55176 0.76620 0.44242
 C491 C 0.57060 0.76535 0.42373
 C492 C 0.58708 0.75814 0.44328
 C493 C 0.60544 0.75722 0.42532
 C494 C 0.60755 0.76349 0.38748
 C495 C 0.59089 0.77074 0.36807
 C496 C 0.57254 0.77167 0.38613
 C497 C 0.62702 0.76231 0.36829
 C498 C 0.62835 0.75596 0.33038
 C499 C 0.64673 0.75455 0.31254
 C500 C 0.66399 0.75948 0.33229
 C501 C 0.66282 0.76592 0.36992
 C502 C 0.64446 0.76733 0.38783
 C503 C 0.68291 0.75772 0.31410
 C504 C 0.69878 0.75613 0.29897
 H505 H 0.58571 0.75313 0.47236
 H506 H 0.61792 0.75131 0.44083
 H507 H 0.59211 0.77590 0.33909
 H508 H 0.55987 0.77733 0.37081
 H509 H 0.61523 0.75175 0.31476
 H510 H 0.64749 0.74948 0.28343
 H511 H 0.67609 0.76981 0.38543
 H512 H 0.64389 0.77250 0.41686
 C513 C 0.96468 0.73325 0.95934
 C514 C 0.94919 0.73372 0.94242
 C515 C 0.93049 0.73444 0.92301
 C516 C 0.91328 0.72820 0.94152
 C517 C 0.89501 0.72930 0.92310
 C518 C 0.89370 0.73669 0.88586
 C519 C 0.91112 0.74284 0.86744
 C520 C 0.92937 0.74172 0.88592
 C521 C 0.87425 0.73816 0.86648
 C522 C 0.86965 0.75477 0.84413
 C523 C 0.85127 0.75626 0.82623
 C524 C 0.83724 0.74119 0.83036
 C525 C 0.84168 0.72459 0.85242
 C526 C 0.86005 0.72307 0.87038
 C527 C 0.81824 0.74287 0.81222
 C528 C 0.80233 0.74441 0.79710
 H529 H 0.91397 0.72260 0.97028
 H530 H 0.88187 0.72470 0.93824
 H531 H 0.91064 0.74836 0.83862
 H532 H 0.94260 0.74658 0.87132
 H533 H 0.88014 0.76676 0.84099
 H534 H 0.84797 0.76921 0.80933
 H535 H 0.83094 0.71282 0.85575
 H536 H 0.86323 0.71000 0.88698
 C537 C 0.46373 0.23434 0.45981
 C538 C 0.44818 0.23496 0.44319
 C539 C 0.42937 0.23587 0.42433
 C540 C 0.41273 0.24239 0.44417
 C541 C 0.39440 0.24341 0.42601
 C542 C 0.39250 0.23793 0.38769
 C543 C 0.40931 0.23132 0.36802
 C544 C 0.42764 0.23031 0.38626
 C545 C 0.37307 0.23923 0.36831
 C546 C 0.36687 0.22433 0.34314
 C547 C 0.34853 0.22559 0.32502
 C548 C 0.33618 0.24175 0.33179
 C549 C 0.34222 0.25666 0.35671
 C550 C 0.36053 0.25543 0.37487
 C551 C 0.31728 0.24307 0.31330
 C552 C 0.30140 0.24439 0.29805
 H553 H 0.41391 0.24669 0.47368
 H554 H 0.38169 0.24829 0.44206
 H555 H 0.40836 0.22723 0.33840
 H556 H 0.44046 0.22528 0.37064
 H557 H 0.37609 0.21157 0.33787
 H558 H 0.34396 0.21394 0.30585
 H559 H 0.33279 0.26926 0.36206
 H560 H 0.36500 0.26727 0.39367
 C561 C 0.73349 0.96333 0.95990
 C562 C 0.73418 0.94781 0.94325
 C563 C 0.73516 0.92906 0.92425
 C564 C 0.74293 0.91265 0.94321
 C565 C 0.74394 0.89437 0.92495
 C566 C 0.73721 0.89227 0.88740
 C567 C 0.72942 0.90886 0.86858
 C568 C 0.72839 0.92713 0.88693
 C569 C 0.73845 0.87287 0.86791
 C570 C 0.74426 0.87175 0.82966
 C571 C 0.74572 0.85346 0.81152
 C572 C 0.74137 0.83606 0.83133
 C573 C 0.73547 0.83702 0.86931
 C574 C 0.73402 0.85530 0.88751
 C575 C 0.74319 0.81722 0.81285
 C576 C 0.74484 0.80140 0.79752
 H577 H 0.74828 0.91401 0.97206
 H578 H 0.75027 0.88196 0.94002
 H579 H 0.72390 0.90764 0.83984
 H580 H 0.72230 0.93973 0.87204
 H581 H 0.74801 0.88499 0.81396
 H582 H 0.75037 0.85287 0.78215
 H583 H 0.73204 0.82365 0.88488
 H584 H 0.72926 0.85569 0.91681
 C585 C 0.23348 0.46372 0.45961
 C586 C 0.23409 0.44812 0.44321
 C587 C 0.23501 0.42925 0.42457
 C588 C 0.22992 0.42750 0.38624
 C589 C 0.23100 0.40914 0.36820
 C590 C 0.23719 0.39228 0.38831
 C591 C 0.24219 0.39420 0.42689
 C592 C 0.24111 0.41256 0.44485
 C593 C 0.23859 0.37281 0.36910
 C594 C 0.25455 0.36010 0.37667
 C595 C 0.25589 0.34179 0.35859
 C596 C 0.24133 0.33591 0.33273
 C597 C 0.22540 0.34842 0.32499
 C598 C 0.22403 0.36676 0.34302
 C599 C 0.24281 0.31704 0.31417
 C600 C 0.24422 0.30120 0.29881
 H601 H 0.22523 0.44034 0.37026
 H602 H 0.22729 0.40819 0.33837
 H603 H 0.24675 0.38147 0.44328
 H604 H 0.24505 0.41375 0.47455
 H605 H 0.26613 0.36444 0.39618
 H606 H 0.26832 0.33225 0.36470
 H607 H 0.21402 0.34399 0.30508
 H608 H 0.21145 0.37610 0.33695
 C609 C 0.26563 0.03593 0.95981
 C610 C 0.26530 0.05140 0.94290
 C611 C 0.26477 0.07013 0.92367
 C612 C 0.27185 0.08709 0.94191
 C613 C 0.27088 0.10543 0.92380
 C614 C 0.26283 0.10704 0.88712
 C615 C 0.25588 0.08988 0.86892
 C616 C 0.25684 0.07155 0.88713
 C617 C 0.26147 0.12658 0.86812
 C618 C 0.26557 0.12851 0.82916
 C619 C 0.26408 0.14689 0.81128
 C620 C 0.25846 0.16356 0.83205
 C621 C 0.25439 0.16180 0.87081
 C622 C 0.25589 0.14345 0.88876
 C623 C 0.25668 0.18243 0.81359
 C624 C 0.25505 0.19827 0.79829
 H625 H 0.27806 0.08614 0.97019
 H626 H 0.27658 0.11832 0.93835
 H627 H 0.24937 0.09068 0.84090
 H628 H 0.25123 0.05852 0.87284
 H629 H 0.27013 0.11585 0.81262
 H630 H 0.26730 0.14809 0.78127
 H631 H 0.24996 0.17460 0.88712
 H632 H 0.25237 0.14240 0.91864
 C633 C 0.76821 0.53608 0.45809
 C634 C 0.76774 0.55162 0.44140
 C635 C 0.76703 0.57041 0.42239
 C636 C 0.77453 0.58728 0.44030
 C637 C 0.77337 0.60567 0.42242
 C638 C 0.76468 0.60744 0.38631
 C639 C 0.75729 0.59036 0.36842
 C640 C 0.75845 0.57198 0.38640
 C641 C 0.76312 0.62703 0.36756
 C642 C 0.76653 0.62902 0.32837
 C643 C 0.76488 0.64745 0.31074
 C644 C 0.75978 0.66412 0.33199
 C645 C 0.75640 0.66231 0.37099
 C646 C 0.75806 0.64391 0.38869
 C647 C 0.75787 0.68307 0.31380
 C648 C 0.75618 0.69895 0.29870
 H649 H 0.78124 0.58622 0.46814
 H650 H 0.77941 0.61848 0.43671
 H651 H 0.75029 0.59128 0.34086
 H652 H 0.75250 0.55903 0.37237
 H653 H 0.77068 0.61636 0.31143
 H654 H 0.76756 0.64869 0.28054
 H655 H 0.75238 0.67511 0.38770
 H656 H 0.75508 0.64282 0.41878
 C657 C 0.03622 0.73300 0.95877
 C658 C 0.05179 0.73344 0.94225
 C659 C 0.07061 0.73419 0.92346
 C660 C 0.08718 0.74132 0.94289
 C661 C 0.10551 0.74222 0.92478
 C662 C 0.10749 0.73601 0.88690
 C663 C 0.09074 0.72882 0.86762
 C664 C 0.07241 0.72791 0.88583
 C665 C 0.12691 0.73724 0.86752
 C666 C 0.12817 0.74370 0.82965
 C667 C 0.14651 0.74523 0.81168
 C668 C 0.16380 0.74031 0.83125
 C669 C 0.16270 0.73373 0.86882
 C670 C 0.14438 0.73220 0.88687
 C671 C 0.18270 0.74227 0.81300
 C672 C 0.19855 0.74406 0.79784
 H673 H 0.08591 0.74630 0.97199
 H674 H 0.11806 0.74808 0.94020
 H675 H 0.09185 0.72371 0.83861
 H676 H 0.05967 0.72232 0.87058
 H677 H 0.11502 0.74793 0.81418
 H678 H 0.14722 0.75041 0.78262
 H679 H 0.17601 0.72984 0.88420
 H680 H 0.14387 0.72694 0.91586
 C681 C 0.53629 0.23433 0.46040
 C682 C 0.55191 0.23497 0.44399
 C683 C 0.57078 0.23590 0.42525
 C684 C 0.58752 0.24209 0.44538
 C685 C 0.60587 0.24315 0.42733
 C686 C 0.60775 0.23805 0.38881
 C687 C 0.59084 0.23178 0.36885
 C688 C 0.57248 0.23073 0.38697
 C689 C 0.62723 0.23939 0.36951
 C690 C 0.63317 0.22477 0.34355
 C691 C 0.65151 0.22608 0.32545
 C692 C 0.66416 0.24199 0.33299
 C693 C 0.65839 0.25660 0.35873
 C694 C 0.64007 0.25532 0.37688
 C695 C 0.68306 0.24336 0.31439
 C696 C 0.69892 0.24466 0.29898
 H697 H 0.58638 0.24610 0.47504
 H698 H 0.61864 0.24777 0.44362
 H699 H 0.59174 0.22799 0.33907
 H700 H 0.55961 0.22597 0.37110
 H701 H 0.62374 0.21220 0.33763
 H702 H 0.65585 0.21465 0.30566
 H703 H 0.66803 0.26901 0.36470
 H704 H 0.63583 0.26695 0.39629
 C705 C 0.96447 0.26497 0.95944
 C706 C 0.94897 0.26435 0.94268
 C707 C 0.93018 0.26342 0.92372
 C708 C 0.91364 0.25620 0.94310
 C709 C 0.89533 0.25519 0.92489
 C710 C 0.89333 0.26137 0.88697
 C711 C 0.91004 0.26867 0.86776
 C712 C 0.92836 0.26968 0.88605
 C713 C 0.87390 0.26008 0.86754
 C714 C 0.86748 0.27536 0.84344
 C715 C 0.84913 0.27413 0.82533
 C716 C 0.83700 0.25762 0.83103
 C717 C 0.84327 0.24234 0.85487
 C718 C 0.86159 0.24355 0.87301
 C719 C 0.81809 0.25632 0.81254
 C720 C 0.80221 0.25501 0.79728
 H721 H 0.91489 0.25136 0.97230
 H722 H 0.88269 0.24976 0.94060
 H723 H 0.90902 0.27332 0.83844
 H724 H 0.94110 0.27526 0.87079
 H725 H 0.87652 0.28838 0.83903
 H726 H 0.84439 0.28606 0.80700
 H727 H 0.83401 0.22947 0.85937
 H728 H 0.86623 0.23143 0.89096
 C729 C 0.46363 0.76705 0.45872
 C730 C 0.44805 0.76664 0.44212
 C731 C 0.42922 0.76601 0.42314
 C732 C 0.41229 0.77289 0.44162
 C733 C 0.39389 0.77186 0.42367
 C734 C 0.39217 0.76395 0.38691
 C735 C 0.40931 0.75718 0.36848
 C736 C 0.42770 0.75819 0.38652
 C737 C 0.37258 0.76258 0.36801
 C738 C 0.37058 0.76677 0.32909
 C739 C 0.35216 0.76528 0.31129
 C740 C 0.33549 0.75957 0.33211
 C741 C 0.33731 0.75542 0.37084
 C742 C 0.35571 0.75692 0.38870
 C743 C 0.31657 0.75779 0.31371
 C744 C 0.30070 0.75618 0.29840
 H745 H 0.41330 0.77901 0.46994
 H746 H 0.38103 0.77743 0.43842
 H747 H 0.40845 0.75077 0.34041
 H748 H 0.44070 0.75274 0.37203
 H749 H 0.38323 0.77141 0.31249
 H750 H 0.35092 0.76857 0.28131
 H751 H 0.32452 0.75092 0.38721
 H752 H 0.35679 0.75333 0.41856
 C753 C 0.26562 0.96456 0.04146
 C754 C 0.26528 0.94901 0.05810
 C755 C 0.26475 0.93020 0.07706
 C756 C 0.27155 0.91330 0.05841
 C757 C 0.27060 0.89490 0.07631
 C758 C 0.26283 0.89317 0.11318
 C759 C 0.25614 0.91028 0.13178
 C760 C 0.25708 0.92867 0.11379
 C761 C 0.26150 0.87357 0.13198
 C762 C 0.26591 0.87152 0.17080
 C763 C 0.26445 0.85308 0.18851
 C764 C 0.25856 0.83649 0.16770
 C765 C 0.25419 0.83837 0.12908
 C766 C 0.25566 0.85677 0.11130
 C767 C 0.25681 0.81756 0.18600
 C768 C 0.25522 0.80168 0.20120
 H769 H 0.27755 0.91434 0.02999
 H770 H 0.27610 0.88205 0.06144
 H771 H 0.24985 0.90939 0.15995
 H772 H 0.25169 0.94166 0.12840
 H773 H 0.27069 0.88412 0.18736
 H774 H 0.26791 0.85178 0.21842
 H775 H 0.24955 0.82562 0.11274
 H776 H 0.25190 0.85792 0.08153
 C777 C 0.76820 0.46376 0.54077
 C778 C 0.76772 0.44824 0.55754
 C779 C 0.76699 0.42950 0.57673
 C780 C 0.77305 0.41236 0.55792
 C781 C 0.77190 0.39404 0.57611
 C782 C 0.76465 0.39262 0.61342
 C783 C 0.75870 0.40996 0.63216
 C784 C 0.75986 0.42827 0.61390
 C785 C 0.76311 0.37312 0.63254
 C786 C 0.74653 0.36847 0.65494
 C787 C 0.74497 0.35004 0.67260
 C788 C 0.75994 0.33601 0.66815
 C789 C 0.77651 0.34049 0.64604
 C790 C 0.77810 0.35892 0.62832
 C791 C 0.75818 0.31697 0.68608
 C792 C 0.75658 0.30104 0.70106
 H793 H 0.77853 0.41314 0.52909
 H794 H 0.77635 0.38094 0.56074
 H795 H 0.75330 0.40939 0.66103
 H796 H 0.75514 0.44145 0.62873
 H797 H 0.73462 0.37897 0.65831
 H798 H 0.73204 0.34669 0.68955
 H799 H 0.78821 0.32975 0.64247
 H800 H 0.79115 0.36213 0.61166
 C801 C 0.73244 0.03583 0.04181
 C802 C 0.73271 0.05137 0.05842
 C803 C 0.73320 0.07015 0.07744
 C804 C 0.74113 0.07167 0.11398
 C805 C 0.74210 0.09003 0.13200
 C806 C 0.73517 0.10713 0.11363
 C807 C 0.72712 0.10541 0.07696
 C808 C 0.72614 0.08703 0.05902
 C809 C 0.73659 0.12671 0.13242
 C810 C 0.74224 0.14354 0.11162
 C811 C 0.74386 0.16192 0.12941
 C812 C 0.73985 0.16373 0.16818
 C813 C 0.73413 0.14710 0.18910
 C814 C 0.73251 0.12870 0.17136
 C815 C 0.74183 0.18261 0.18651
 C816 C 0.74364 0.19844 0.20173
 H817 H 0.74673 0.05870 0.12839
 H818 H 0.74862 0.09091 0.16000
 H819 H 0.72144 0.11825 0.06227
 H820 H 0.71994 0.08601 0.03075
 H821 H 0.74573 0.14245 0.08173
 H822 H 0.74837 0.17469 0.11298
 H823 H 0.73096 0.14834 0.21911
 H824 H 0.72790 0.11606 0.18803
 C825 C 0.23307 0.53636 0.54107
 C826 C 0.23348 0.55194 0.55758
 C827 C 0.23414 0.57076 0.57647
 C828 C 0.22765 0.58775 0.55760
 C829 C 0.22872 0.60614 0.57547
 C830 C 0.23630 0.60779 0.61252
 C831 C 0.24268 0.59060 0.63132
 C832 C 0.24162 0.57222 0.61337
 C833 C 0.23774 0.62738 0.63132
 C834 C 0.23315 0.62946 0.67004
 C835 C 0.23469 0.64788 0.68776
 C836 C 0.24084 0.66443 0.66708
 C837 C 0.24539 0.66252 0.62855
 C838 C 0.24385 0.64414 0.61076
 C839 C 0.24263 0.68335 0.68540
 C840 C 0.24423 0.69920 0.70067
 H841 H 0.22179 0.58678 0.52905
 H842 H 0.22346 0.61905 0.56043
 H843 H 0.24883 0.59141 0.65963
 H844 H 0.24678 0.55917 0.62815
 H845 H 0.22817 0.61690 0.68652
 H846 H 0.23109 0.64920 0.71759
 H847 H 0.25023 0.67523 0.61229
 H848 H 0.24774 0.64297 0.58106
 C849 C 0.96361 0.73358 0.04037
 C850 C 0.94806 0.73426 0.05690
 C851 C 0.92925 0.73530 0.07569
 C852 C 0.92731 0.72899 0.11330
 C853 C 0.90900 0.73016 0.13149
 C854 C 0.89241 0.73768 0.11224
 C855 C 0.89453 0.74391 0.07437
 C856 C 0.91284 0.74273 0.05626
 C857 C 0.87301 0.73916 0.13160
 C858 C 0.86098 0.75585 0.12622
 C859 C 0.84270 0.75725 0.14437
 C860 C 0.83618 0.74200 0.16810
 C861 C 0.84803 0.72534 0.17368
 C862 C 0.86634 0.72391 0.15558
 C863 C 0.81732 0.74350 0.18662
 C864 C 0.80149 0.74492 0.20195
 H865 H 0.93995 0.72326 0.12860
 H866 H 0.90788 0.72548 0.16078
 H867 H 0.88199 0.74950 0.05864
 H868 H 0.91419 0.74762 0.02710
 H869 H 0.86583 0.76795 0.10837
 H870 H 0.83366 0.77024 0.13995
 H871 H 0.84309 0.71343 0.19193
 H872 H 0.87516 0.71078 0.15991
 C873 C 0.46351 0.23367 0.54168
 C874 C 0.44790 0.23402 0.55816
 C875 C 0.42906 0.23459 0.57704
 C876 C 0.42751 0.24250 0.61357
 C877 C 0.40911 0.24346 0.63150
 C878 C 0.39198 0.23655 0.61306
 C879 C 0.39372 0.22855 0.57638
 C880 C 0.41214 0.22758 0.55854
 C881 C 0.37237 0.23787 0.63184
 C882 C 0.35550 0.24337 0.61101
 C883 C 0.33709 0.24481 0.62876
 C884 C 0.33525 0.24075 0.66753
 C885 C 0.35192 0.23521 0.68849
 C886 C 0.37035 0.23377 0.67080
 C887 C 0.31631 0.24246 0.68582
 C888 C 0.30043 0.24399 0.70105
 H889 H 0.44050 0.24806 0.62808
 H890 H 0.40823 0.24994 0.65951
 H891 H 0.38087 0.22288 0.56162
 H892 H 0.41317 0.22139 0.53028
 H893 H 0.35660 0.24688 0.58112
 H894 H 0.32431 0.24919 0.61229
 H895 H 0.35066 0.23199 0.71850
 H896 H 0.38299 0.22926 0.68751
 C897 C 0.03586 0.26576 0.04111
 C898 C 0.05132 0.26549 0.05803
 C899 C 0.07000 0.26499 0.07745
 C900 C 0.07110 0.25812 0.11481
 C901 C 0.08935 0.25716 0.13329
 C902 C 0.10675 0.26306 0.11457
 C903 C 0.10546 0.27007 0.07706
 C904 C 0.08719 0.27102 0.05865
 C905 C 0.12620 0.26168 0.13388
 C906 C 0.14041 0.27672 0.12951
 C907 C 0.15882 0.27525 0.14732
 C908 C 0.16324 0.25876 0.16968
 C909 C 0.14918 0.24376 0.17431
 C910 C 0.13077 0.24520 0.15656
 C911 C 0.18227 0.25709 0.18757
 C912 C 0.19822 0.25556 0.20247
 H913 H 0.05786 0.25343 0.12961
 H914 H 0.08984 0.25194 0.16231
 H915 H 0.11861 0.27448 0.06173
 H916 H 0.08650 0.27631 0.02967
 H917 H 0.13724 0.28969 0.11262
 H918 H 0.16959 0.28696 0.14361
 H919 H 0.15250 0.23090 0.19145
 H920 H 0.12025 0.23327 0.16004
 C921 C 0.53625 0.76695 0.54072
 C922 C 0.55183 0.76650 0.55729
 C923 C 0.57067 0.76581 0.57620
 C924 C 0.57214 0.75817 0.61298
 C925 C 0.59054 0.75711 0.63095
 C926 C 0.60774 0.76365 0.61229
 C927 C 0.60608 0.77139 0.57537
 C928 C 0.58767 0.77247 0.55749
 C929 C 0.62735 0.76224 0.63112
 C930 C 0.64412 0.75635 0.61046
 C931 C 0.66253 0.75484 0.62824
 C932 C 0.66446 0.75920 0.66686
 C933 C 0.64789 0.76512 0.68765
 C934 C 0.62945 0.76663 0.66993
 C935 C 0.68341 0.75745 0.68517
 C936 C 0.69930 0.75588 0.70036
 H937 H 0.55910 0.75289 0.62765
 H938 H 0.59136 0.75084 0.65916
 H939 H 0.61899 0.77679 0.56044
 H940 H 0.58669 0.77845 0.52904
 H941 H 0.64295 0.75261 0.58069
 H942 H 0.67524 0.75018 0.61190
 H943 H 0.64922 0.76857 0.71754
 H944 H 0.61689 0.77143 0.68649
   
