data_POSCAR
  _audit_creation_date              2014-09-24
  _audit_creation_method            'ToBaCCo'
  _symmetry_space_group_name_H-M    'P1'
  _symmetry_Int_Tables_number       1
  _symmetry_cell_setting            triclinic
  loop_
  _symmetry_equiv_pos_as_xyz
 x,y,z
_cell_length_a 46.5771
_cell_length_b 46.5933
_cell_length_c 46.3873
_cell_angle_alpha 89.952200
_cell_angle_beta 89.958200
_cell_angle_gamma 89.994700
loop_
  _atom_site_label
  _atom_site_type_symbol
  _atom_site_fract_x
  _atom_site_fract_y
  _atom_site_fract_z
N1 N 0.14230 0.16244 0.22024
 N2 N 0.16341 0.14380 0.22150
 C3 C 0.15908 0.12620 0.24417
 C4 C 0.13370 0.13410 0.25787
 C5 C 0.12368 0.15719 0.24178
 H6 H 0.17337 0.10892 0.25012
 H7 H 0.10479 0.17001 0.24587
 Cu8 Cu 0.19456 0.14484 0.19343
 Cu9 Cu 0.14156 0.19365 0.19225
 Cu10 Cu 0.19845 0.19749 0.14404
 N11 N 0.22520 0.14583 0.16482
 N12 N 0.22721 0.16714 0.14637
 C13 C 0.25035 0.16306 0.12948
 C14 C 0.26358 0.13751 0.13742
 C15 C 0.24683 0.12722 0.16002
 H16 H 0.25640 0.17729 0.11211
 H17 H 0.25012 0.10776 0.17224
 N18 N 0.16703 0.22588 0.14493
 N19 N 0.14488 0.22378 0.16257
 C20 C 0.12653 0.24546 0.15714
 C21 C 0.13769 0.26212 0.13512
 C22 C 0.16342 0.24909 0.12795
 H23 H 0.10665 0.24910 0.16858
 H24 H 0.17808 0.25568 0.11113
 H25 H 0.16522 0.17320 0.16057
 H26 H 0.18548 0.19595 0.18668
 N27 N -0.14220 0.83817 0.22147
 N28 N -0.16282 0.85741 0.22202
 C29 C -0.15837 0.87530 0.24441
 C30 C -0.13355 0.86685 0.25852
 C31 C -0.12386 0.84324 0.24326
 H32 H -0.17208 0.89317 0.25000
 H33 H -0.10527 0.83022 0.24810
 Cu34 Cu -0.19350 0.85661 0.19352
 Cu35 Cu -0.14138 0.80695 0.19362
 Cu36 Cu -0.19726 0.80393 0.14422
 N37 N -0.22383 0.85584 0.16466
 N38 N -0.22578 0.83461 0.14615
 C39 C -0.24887 0.83879 0.12922
 C40 C -0.26214 0.86431 0.13727
 C41 C -0.24543 0.87448 0.15990
 H42 H -0.25497 0.82459 0.11188
 H43 H -0.24882 0.89379 0.17229
 N44 N -0.16609 0.77517 0.14569
 N45 N -0.14444 0.77691 0.16396
 C46 C -0.12618 0.75507 0.15896
 C47 C -0.13682 0.73867 0.13656
 C48 C -0.16222 0.75201 0.12871
 H49 H -0.10668 0.75117 0.17094
 H50 H -0.17644 0.74566 0.11146
 H51 H -0.16399 0.82769 0.16126
 H52 H -0.18521 0.80535 0.18699
 N53 N -0.14434 0.16262 -0.22186
 N54 N -0.16335 0.14181 -0.22063
 C55 C -0.15849 0.12337 -0.24245
 C56 C -0.13527 0.13323 -0.25830
 C57 C -0.12686 0.15821 -0.24455
 H58 H -0.17129 0.10455 -0.24694
 H59 H -0.10925 0.17212 -0.25052
 Cu60 Cu -0.19351 0.14181 -0.19154
 Cu61 Cu -0.14385 0.19403 -0.19419
 Cu62 Cu -0.19814 0.19516 -0.14296
 N63 N -0.22347 0.14230 -0.16224
 N64 N -0.22581 0.16375 -0.14405
 C65 C -0.24891 0.15948 -0.12713
 C66 C -0.26183 0.13372 -0.13491
 C67 C -0.24486 0.12346 -0.15733
 H68 H -0.25539 0.17392 -0.11013
 H69 H -0.24808 0.10406 -0.16962
 N70 N -0.16796 0.22483 -0.14528
 N71 N -0.14699 0.22403 -0.16442
 C72 C -0.12920 0.24632 -0.15974
 C73 C -0.13947 0.26204 -0.13663
 C74 C -0.16413 0.24780 -0.12806
 H75 H -0.11016 0.25086 -0.17227
 H76 H -0.17781 0.25334 -0.11008
 H77 H -0.16435 0.17263 -0.16085
 H78 H -0.18749 0.19354 -0.18611
 N79 N 0.14609 0.83641 -0.22395
 N80 N 0.16684 0.85552 -0.22382
 C81 C 0.16289 0.87385 -0.24597
 C82 C 0.13851 0.86558 -0.26091
 C83 C 0.12845 0.84171 -0.24628
 H84 H 0.17685 0.89167 -0.25110
 H85 H 0.10950 0.82930 -0.25131
 Cu86 Cu 0.19716 0.85440 -0.19490
 Cu87 Cu 0.14325 0.80623 -0.19509
 Cu88 Cu 0.19550 0.80485 -0.14202
 N89 N 0.22596 0.85362 -0.16445
 N90 N 0.22458 0.83485 -0.14335
 C91 C 0.24614 0.83978 -0.12471
 C92 C 0.26232 0.86278 -0.13473
 C93 C 0.24875 0.87090 -0.16016
 H94 H 0.24995 0.82706 -0.10561
 H95 H 0.25453 0.88850 -0.17417
 N96 N 0.16435 0.77629 -0.14434
 N97 N 0.14404 0.77729 -0.16413
 C98 C 0.12565 0.75541 -0.15975
 C99 C 0.13500 0.73967 -0.13629
 C100 C 0.15963 0.75349 -0.12708
 H101 H 0.10709 0.75087 -0.17296
 H102 H 0.17288 0.74752 -0.10892
 H103 H 0.16443 0.82866 -0.16302
 H104 H 0.18659 0.80394 -0.18565
 N105 N 0.16739 1.14648 0.77511
 N106 N 0.14696 1.16594 0.77567
 C107 C 0.12904 1.16141 0.75335
 C108 C 0.13891 1.13798 0.73788
 C109 C 0.16332 1.12910 0.75233
 H110 H 0.11028 1.17424 0.74862
 H111 H 0.17674 1.11091 0.74710
 Cu112 Cu 0.14588 1.19520 0.80559
 Cu113 Cu 0.19695 1.14412 0.80463
 Cu114 Cu 0.19349 1.19388 0.85998
 N115 N 0.14462 1.22339 0.83653
 N116 N 0.16298 1.22225 0.85799
 C117 C 0.15756 1.24385 0.87640
 C118 C 0.13463 1.25956 0.86592
 C119 C 0.12695 1.24595 0.84052
 H120 H 0.16990 1.24821 0.89563
 H121 H 0.10968 1.25194 0.82617
 N122 N 0.22291 1.16368 0.85805
 N123 N 0.22473 1.14519 0.83660
 C124 C 0.24759 1.12804 0.84099
 C125 C 0.26071 1.13605 0.86650
 C126 C 0.24445 1.15869 0.87672
 H127 H 0.25402 1.11074 0.82689
 H128 H 0.24834 1.17095 0.89609
 H129 H 0.17230 1.16244 0.83675
 H130 H 0.19650 1.18698 0.81609
 N131 N 0.83395 0.85554 0.77480
 N132 N 0.85500 0.83679 0.77604
 C133 C 0.87335 0.84181 0.75416
 C134 C 0.86316 0.86485 0.73829
 C135 C 0.83809 0.87299 0.75206
 H136 H 0.89248 0.82941 0.74985
 H137 H 0.82413 0.89062 0.74627
 Cu138 Cu 0.85580 0.80725 0.80569
 Cu139 Cu 0.80319 0.85649 0.80316
 Cu140 Cu 0.80464 0.80460 0.85679
 N141 N 0.85610 0.77793 0.83555
 N142 N 0.83576 0.77673 0.85517
 C143 C 0.84041 0.75393 0.87239
 C144 C 0.86507 0.74012 0.86315
 C145 C 0.87448 0.75602 0.83975
 H146 H 0.82692 0.74795 0.89040
 H147 H 0.89298 0.75156 0.82641
 N148 N 0.77493 0.83467 0.85461
 N149 N 0.77408 0.85403 0.83384
 C150 C 0.75125 0.87125 0.83805
 C151 C 0.73711 0.86244 0.86273
 C152 C 0.75276 0.83922 0.87270
 H153 H 0.74566 0.88930 0.82454
 H154 H 0.74819 0.82648 0.89163
 H155 H 0.82610 0.83765 0.83636
 H156 H 0.80429 0.81324 0.81320
 N157 N 0.16468 0.85438 1.22377
 N158 N 0.14422 0.83497 1.22320
 C159 C 0.12631 0.83943 1.24554
 C160 C 0.13592 0.86306 1.26079
 C161 C 0.16031 0.87203 1.24630
 H162 H 0.10741 0.82677 1.25012
 H163 H 0.17405 0.88987 1.25191
 Cu164 Cu 0.14256 0.80596 1.19315
 Cu165 Cu 0.19553 0.85516 1.19551
 Cu166 Cu 0.19471 0.80241 1.14295
 N167 N 0.14311 0.77606 1.16396
 N168 N 0.16386 0.77439 1.14483
 C169 C 0.15936 0.75143 1.12785
 C170 C 0.13432 0.73810 1.13668
 C171 C 0.12455 0.75435 1.15962
 H172 H 0.17305 0.74515 1.11010
 H173 H 0.10556 0.75036 1.17243
 N174 N 0.22414 0.83265 1.14464
 N175 N 0.22484 0.85237 1.16504
 C176 C 0.24769 0.86953 1.16061
 C177 C 0.26187 0.86034 1.13611
 C178 C 0.24631 0.83697 1.12650
 H179 H 0.25329 0.88778 1.17384
 H180 H 0.25101 0.82395 1.10781
 H181 H 0.17292 0.83586 1.16248
 H182 H 0.19416 0.81172 1.18657
 N183 N 0.83505 1.14563 1.22435
 N184 N 0.85433 1.16622 1.22419
 C185 C 0.87228 1.16247 1.24664
 C186 C 0.86387 1.13812 1.26154
 C187 C 0.84018 1.12798 1.24672
 H188 H 0.89042 1.17609 1.25151
 H189 H 0.82742 1.10931 1.25198
 Cu190 Cu 0.85432 1.19549 1.19430
 Cu191 Cu 0.80454 1.14334 1.19582
 Cu192 Cu 0.80391 1.19558 1.14249
 N193 N 0.85386 1.22453 1.16419
 N194 N 0.83386 1.22467 1.14422
 C195 C 0.83820 1.24711 1.12646
 C196 C 0.86235 1.26177 1.13568
 C197 C 0.87176 1.24678 1.15966
 H198 H 0.82501 1.25212 1.10796
 H199 H 0.89006 1.25193 1.17299
 N200 N 0.77546 1.16435 1.14452
 N201 N 0.77545 1.14473 1.16507
 C202 C 0.75310 1.12687 1.16093
 C203 C 0.73844 1.13554 1.13651
 C204 C 0.75327 1.15932 1.12664
 H205 H 0.74806 1.10864 1.17443
 H206 H 0.74799 1.17224 1.10803
 H207 H 0.82684 1.16361 1.16309
 H208 H 0.80338 1.18663 1.18612
 O209 O 0.45911 0.94760 0.95006
 O210 O 0.42788 0.97433 0.97732
 C211 C 0.43336 0.95488 0.95810
 O212 O 0.54043 0.94842 1.05277
 O213 O 0.57161 0.97548 1.02574
 C214 C 0.56615 0.95647 1.04541
 O215 O 0.45951 0.94615 1.05091
 O216 O 0.42815 0.97389 1.02494
 C217 C 0.43371 0.95386 1.04349
 O218 O 0.54003 0.95003 0.94744
 O219 O 0.57133 0.97512 0.97602
 C220 C 0.56580 0.95703 0.95558
 Zr221 Zr 0.49961 0.96325 0.96403
 O222 O 0.50271 0.91792 0.96386
 O223 O 0.49638 0.96364 0.91851
 Zr224 Zr 0.49988 0.96219 1.03698
 O225 O 0.50292 0.91686 1.03591
 O226 O 0.49708 0.96135 1.08251
 O227 O 0.47415 0.95712 1.00055
 O228 O 0.52464 0.95749 1.00035
 O229 O 0.54010 1.04974 0.94892
 O230 O 0.57143 1.02264 0.97568
 C231 C 0.56587 1.04168 0.95608
 O232 O 0.45946 1.05129 1.05152
 O233 O 0.42809 1.02358 1.02556
 C234 C 0.43367 1.04349 1.04421
 O235 O 0.54041 1.04828 1.05403
 O236 O 0.57149 1.02297 1.02534
 C237 C 0.56612 1.04116 1.04574
 O238 O 0.45912 1.05185 0.95143
 O239 O 0.42795 1.02373 0.97732
 C240 C 0.43340 1.04399 0.95897
 Zr241 Zr 0.49963 1.03587 0.96495
 O242 O 0.50265 1.08120 0.96577
 O243 O 0.49647 1.03650 0.91943
 Zr244 Zr 0.49984 1.03491 1.03795
 O245 O 0.50314 1.08020 1.03886
 O246 O 0.49668 1.03385 1.08347
 Zr247 Zr 0.45717 0.99906 1.00123
 Zr248 Zr 0.54225 0.99906 1.00081
 O249 O 0.52460 1.04063 1.00139
 O250 O 0.47415 1.04100 1.00161
 O251 O 0.52517 0.99962 0.95874
 O252 O 0.47501 0.99850 1.04288
 O253 O 0.47472 0.99962 0.95939
 O254 O 0.52543 0.99849 1.04301
 H255 H 0.53770 0.94070 1.00017
 H256 H 0.46201 0.99836 1.05979
 H257 H 0.53762 1.05745 1.00145
 H258 H 0.46171 0.99978 0.94250
 H259 H 0.51273 0.97356 1.09005
 H260 H 0.51324 1.02276 1.09080
 H261 H 0.48780 1.08792 1.02632
 H262 H 0.48615 1.08848 0.97704
 H263 H 0.51259 1.02499 0.91173
 H264 H 0.51208 0.97590 0.91109
 H265 H 0.48631 0.91037 0.97511
 H266 H 0.48640 0.90964 1.02466
 O267 O 0.05122 0.45957 -0.05124
 O268 O 0.02390 0.42842 -0.02450
 C269 C 0.04372 0.43385 -0.04332
 O270 O 0.04910 0.54055 0.05143
 O271 O 0.02260 0.57178 0.02401
 C272 C 0.04136 0.56629 0.04389
 O273 O 0.05199 0.45965 0.04869
 O274 O 0.02405 0.42841 0.02284
 C275 C 0.04423 0.43388 0.04125
 O276 O 0.04917 0.54059 -0.05340
 O277 O 0.02312 0.57177 -0.02551
 C278 C 0.04174 0.56635 -0.04555
 Zr279 Zr 0.03528 0.50007 -0.03750
 O280 O 0.08063 0.50304 -0.03771
 O281 O 0.03481 0.49710 -0.08303
 Zr282 Zr 0.03542 0.50010 0.03550
 O283 O 0.08075 0.50338 0.03583
 O284 O 0.03501 0.49683 0.08103
 O285 O 0.04097 0.47457 -0.00100
 O286 O 0.04056 0.52493 -0.00102
 O287 O -0.05121 0.54047 -0.05332
 O288 O -0.02462 0.57173 -0.02606
 C289 C -0.04338 0.56622 -0.04591
 O290 O -0.05338 0.45962 0.04932
 O291 O -0.02517 0.42841 0.02366
 C292 C -0.04530 0.43388 0.04214
 O293 O -0.05117 0.54049 0.05166
 O294 O -0.02480 0.57171 0.02408
 C295 C -0.04356 0.56624 0.04400
 O296 O -0.05392 0.45958 -0.05045
 O297 O -0.02593 0.42840 -0.02453
 C298 C -0.04606 0.43384 -0.04300
 Zr299 Zr -0.03744 0.50003 -0.03726
 O300 O -0.08277 0.50325 -0.03745
 O301 O -0.03707 0.49675 -0.08278
 Zr302 Zr -0.03721 0.50007 0.03578
 O303 O -0.08255 0.50312 0.03631
 O304 O -0.03645 0.49700 0.08131
 Zr305 Zr -0.00098 0.45756 -0.00083
 Zr306 Zr -0.00104 0.54259 -0.00096
 O307 O -0.04259 0.52491 -0.00078
 O308 O -0.04295 0.47450 -0.00068
 O309 O -0.00110 0.52563 -0.04307
 O310 O -0.00084 0.47520 0.04092
 O311 O -0.00110 0.47515 -0.04261
 O312 O -0.00090 0.52567 0.04121
 H313 H 0.05742 0.53789 -0.00099
 H314 H -0.00067 0.46215 0.05780
 H315 H -0.05941 0.53793 -0.00080
 H316 H -0.00118 0.46203 -0.05941
 H317 H 0.02386 0.51329 0.08852
 H318 H -0.02552 0.51365 0.08866
 H319 H -0.09011 0.48741 0.02417
 H320 H -0.09029 0.48774 -0.02497
 H321 H -0.02575 0.51309 -0.09029
 H322 H 0.02366 0.51360 -0.09042
 H323 H 0.08811 0.48691 -0.02605
 H324 H 0.08830 0.48809 0.02314
 O325 O 1.05250 -0.04998 0.54023
 O326 O 1.02605 -0.02275 0.57171
 C327 C 1.04547 -0.04187 0.56611
 O328 O 1.05246 0.05228 0.45887
 O329 O 1.02476 0.02597 0.42770
 C330 C 1.04408 0.04522 0.43308
 O331 O 1.05501 0.04969 0.54027
 O332 O 1.02631 0.02472 0.57168
 C333 C 1.04680 0.04270 0.56615
 O334 O 1.04944 -0.05249 0.45891
 O335 O 1.02458 -0.02350 0.42772
 C336 C 1.04243 -0.04415 0.43310
 Zr337 Zr 1.03657 -0.03607 0.49962
 O338 O 1.08188 -0.03723 0.49620
 O339 O 1.03532 -0.08138 0.50283
 Zr340 Zr 1.03852 0.03661 0.49965
 O341 O 1.08383 0.03534 0.49637
 O342 O 1.03959 0.08192 0.50278
 O343 O 1.04323 0.00010 0.52527
 O344 O 1.04269 0.00020 0.47465
 O345 O 0.94972 -0.04970 0.45918
 O346 O 0.97703 -0.02312 0.42786
 C347 C 0.95781 -0.04246 0.43333
 O348 O 0.95006 0.05217 0.54083
 O349 O 0.97683 0.02487 0.57197
 C350 C 0.95730 0.04393 0.56662
 O351 O 0.95260 0.05506 0.45941
 O352 O 0.97735 0.02625 0.42798
 C353 C 0.95948 0.04682 0.43353
 O354 O 0.94756 -0.04731 0.54053
 O355 O 0.97651 -0.02256 0.57179
 C356 C 0.95590 -0.04042 0.56636
 Zr357 Zr 0.96390 -0.03417 0.49986
 O358 O 0.91856 -0.03306 0.49688
 O359 O 0.96300 -0.07949 0.50297
 Zr360 Zr 0.96581 0.03854 0.50001
 O361 O 0.92048 0.03986 0.49697
 O362 O 0.96719 0.08383 0.50333
 Zr363 Zr 1.00133 0.00114 0.54245
 Zr364 Zr 1.00105 0.00133 0.45714
 O365 O 0.95953 0.00236 0.47501
 O366 O 0.95932 0.00225 0.52559
 O367 O 1.00002 -0.04066 0.47407
 O368 O 1.00234 0.04275 0.52481
 O369 O 1.00021 -0.04040 0.52472
 O370 O 1.00220 0.04324 0.47419
 H371 H 1.05944 -0.00014 0.46147
 H372 H 1.00267 0.05950 0.53796
 H373 H 0.94267 0.00273 0.46200
 H374 H 0.99994 -0.05720 0.53782
 H375 H 1.02813 0.08968 0.48661
 H376 H 0.97889 0.09104 0.48706
 H377 H 0.91272 0.02797 0.51283
 H378 H 0.91142 -0.02108 0.51295
 H379 H 0.97410 -0.08719 0.48652
 H380 H 1.02329 -0.08852 0.48680
 H381 H 1.08973 -0.02560 0.51218
 H382 H 1.09103 0.02354 0.51256
 C383 C 1.09629 0.09808 0.33322
 C384 C 1.12365 0.08938 0.32410
 C385 C 1.13588 0.10095 0.29911
 C386 C 1.12125 0.12199 0.28287
 C387 C 1.09385 0.13077 0.29241
 C388 C 1.08148 0.11878 0.31710
 C389 C 1.08289 0.08514 0.35911
 C390 C 1.05477 0.07439 0.35774
 C391 C 1.04222 0.06157 0.38185
 C392 C 1.05732 0.05968 0.40802
 C393 C 1.08526 0.07093 0.40958
 C394 C 1.09805 0.08329 0.38522
 H395 H 1.15698 0.09350 0.29293
 H396 H 1.08151 0.14662 0.28076
 H397 H 1.02059 0.05319 0.38006
 H398 H 1.09742 0.06963 0.42943
 H399 H 1.06034 0.12586 0.32376
 H400 H 1.04270 0.07545 0.33781
 H401 H 1.13537 0.07322 0.33608
 H402 H 1.11971 0.09159 0.38680
 C403 C 0.90482 -0.09604 0.33427
 C404 C 0.87556 -0.09173 0.32835
 C405 C 0.86310 -0.10359 0.30364
 C406 C 0.87957 -0.12030 0.28458
 C407 C 0.90877 -0.12483 0.29073
 C408 C 0.92128 -0.11270 0.31522
 C409 C 0.91837 -0.08273 0.35988
 C410 C 0.94481 -0.06853 0.35721
 C411 C 0.95757 -0.05559 0.38111
 C412 C 0.94430 -0.05681 0.40833
 C413 C 0.91799 -0.07133 0.41111
 C414 C 0.90503 -0.08398 0.38705
 H415 H 0.84051 -0.09988 0.29965
 H416 H 0.92211 -0.13744 0.27644
 H417 H 0.97791 -0.04469 0.37825
 H418 H 0.90723 -0.07256 0.43178
 H419 H 0.94384 -0.11651 0.31939
 H420 H 0.95543 -0.06704 0.33648
 H421 H 0.86245 -0.07879 0.34259
 H422 H 0.88472 -0.09498 0.38970
 C423 C 0.90200 0.09525 0.66575
 C424 C 0.88565 0.07856 0.68491
 C425 C 0.87335 0.09093 0.70943
 C426 C 0.87744 0.12020 0.71549
 C427 C 0.89381 0.13688 0.69629
 C428 C 0.90581 0.12457 0.67159
 C429 C 0.91560 0.08197 0.64011
 C430 C 0.91431 0.09545 0.61302
 C431 C 0.92748 0.08296 0.58898
 C432 C 0.94256 0.05697 0.59168
 C433 C 0.94378 0.04352 0.61881
 C434 C 0.93032 0.05580 0.64270
 H435 H 0.86101 0.07745 0.72385
 H436 H 0.89718 0.15953 0.70019
 H437 H 0.92620 0.09384 0.56838
 H438 H 0.95509 0.02339 0.62161
 H439 H 0.91853 0.13787 0.65730
 H440 H 0.90291 0.11554 0.61042
 H441 H 0.88225 0.05593 0.68081
 H442 H 0.93185 0.04507 0.66337
 C443 C 1.10106 -0.09479 0.66414
 C444 C 1.11878 -0.07887 0.68268
 C445 C 1.13124 -0.09181 0.70684
 C446 C 1.12587 -0.12082 0.71317
 C447 C 1.10812 -0.13671 0.69460
 C448 C 1.09600 -0.12388 0.67023
 C449 C 1.08743 -0.08101 0.63881
 C450 C 1.08779 -0.09453 0.61174
 C451 C 1.07455 -0.08165 0.58795
 C452 C 1.06031 -0.05523 0.59092
 C453 C 1.05999 -0.04174 0.61803
 C454 C 1.07358 -0.05441 0.64167
 H455 H 1.14467 -0.07896 0.72082
 H456 H 1.10373 -0.15915 0.69874
 H457 H 1.07508 -0.09258 0.56736
 H458 H 1.04929 -0.02131 0.62100
 H459 H 1.08223 -0.13655 0.65640
 H460 H 1.09851 -0.11497 0.60896
 H461 H 1.12312 -0.05644 0.67837
 H462 H 1.07280 -0.04365 0.66234
 C463 C 0.33669 1.09854 1.09908
 C464 C 0.32878 1.12661 1.09165
 C465 C 0.30466 1.13944 1.10416
 C466 C 0.28809 1.12467 1.12491
 C467 C 0.29658 1.09663 1.13264
 C468 C 0.32037 1.08367 1.11965
 C469 C 0.36161 1.08458 1.08506
 C470 C 0.35879 1.05714 1.07293
 C471 C 0.38215 1.04398 1.05942
 C472 C 0.40898 1.05779 1.05823
 C473 C 0.41185 1.08517 1.07058
 C474 C 0.38829 1.09857 1.08361
 H475 H 0.29939 1.16108 1.09762
 H476 H 0.28466 1.08421 1.14828
 H477 H 0.37929 1.02282 1.05020
 H478 H 0.43223 1.09635 1.06989
 H479 H 0.32615 1.06200 1.12581
 H480 H 0.33838 1.04602 1.07360
 H481 H 0.34099 1.13845 1.07570
 H482 H 0.39096 1.11971 1.09292
 C483 C 0.33587 0.90020 0.90401
 C484 C 0.32788 0.90779 0.87591
 C485 C 0.30350 0.89569 0.86319
 C486 C 0.28688 0.87513 0.87808
 C487 C 0.29543 0.86731 0.90619
 C488 C 0.31941 0.87996 0.91907
 C489 C 0.36099 0.91383 0.91787
 C490 C 0.35805 0.92721 0.94479
 C491 C 0.38154 0.94065 0.95771
 C492 C 0.40862 0.94041 0.94432
 C493 C 0.41162 0.92667 0.91750
 C494 C 0.38792 0.91377 0.90425
 H495 H 0.29813 0.90230 0.84151
 H496 H 0.28339 0.85188 0.91872
 H497 H 0.37849 0.95116 0.97826
 H498 H 0.43217 0.92630 0.90657
 H499 H 0.32524 0.87379 0.94082
 H500 H 0.33742 0.92767 0.95558
 H501 H 0.34023 0.92353 0.86398
 H502 H 0.39063 0.90347 0.88350
 C503 C 0.66412 0.90316 1.10009
 C504 C 0.67226 0.87529 1.09219
 C505 C 0.69663 0.86253 1.10427
 C506 C 0.71322 0.87716 1.12504
 C507 C 0.70456 0.90504 1.13315
 C508 C 0.68052 0.91794 1.12061
 C509 C 0.63881 0.91698 1.08664
 C510 C 0.64105 0.94462 1.07479
 C511 C 0.61742 0.95741 1.06139
 C512 C 0.59092 0.94303 1.06008
 C513 C 0.58854 0.91557 1.07241
 C514 C 0.61237 0.90254 1.08531
 H515 H 0.70208 0.84105 1.09739
 H516 H 0.71650 0.91738 1.14881
 H517 H 0.61983 0.97866 1.05219
 H518 H 0.56842 0.90396 1.07161
 H519 H 0.67455 0.93945 1.12712
 H520 H 0.66126 0.95610 1.07544
 H521 H 0.66001 0.86354 1.07625
 H522 H 0.61012 0.88126 1.09445
 C523 C 0.66399 1.09497 0.90157
 C524 C 0.67199 1.12289 0.90943
 C525 C 0.69653 1.13560 0.89762
 C526 C 0.71344 1.12088 0.87716
 C527 C 0.70496 1.09293 0.86911
 C528 C 0.68072 1.08009 0.88137
 C529 C 0.63858 1.08115 0.91485
 C530 C 0.64076 1.05349 0.92666
 C531 C 0.61709 1.04069 0.93997
 C532 C 0.59059 1.05509 0.94128
 C533 C 0.58825 1.08255 0.92896
 C534 C 0.61213 1.09558 0.91612
 H535 H 0.70184 1.15713 0.90446
 H536 H 0.71716 1.08053 0.85370
 H537 H 0.61949 1.01944 0.94916
 H538 H 0.56813 1.09418 0.92976
 H539 H 0.67489 1.05853 0.87491
 H540 H 0.66097 1.04200 0.92607
 H541 H 0.65951 1.13471 0.92515
 H542 H 0.60991 1.11687 0.90700
 C543 C 0.09924 0.33641 0.09559
 C544 C 0.12908 0.33228 0.09440
 C545 C 0.14161 0.30811 0.10717
 C546 C 0.12456 0.28785 0.12175
 C547 C 0.09476 0.29227 0.12327
 C548 C 0.08222 0.31619 0.11019
 C549 C 0.08570 0.36145 0.08129
 C550 C 0.06106 0.35769 0.06431
 C551 C 0.04790 0.38117 0.05108
 C552 C 0.05888 0.40905 0.05478
 C553 C 0.08367 0.41280 0.07166
 C554 C 0.09705 0.38918 0.08464
 H555 H 0.16465 0.30544 0.10581
 H556 H 0.08099 0.27699 0.13415
 H557 H 0.02893 0.37743 0.03814
 H558 H 0.09274 0.43395 0.07486
 H559 H 0.05918 0.31900 0.11163
 H560 H 0.05208 0.33650 0.06109
 H561 H 0.14265 0.34748 0.08315
 H562 H 0.11597 0.39265 0.09775
 C563 C -0.10085 0.33636 -0.09733
 C564 C -0.08433 0.31752 -0.11416
 C565 C -0.09694 0.29360 -0.12716
 C566 C -0.12631 0.28781 -0.12335
 C567 C -0.14287 0.30670 -0.10655
 C568 C -0.13030 0.33085 -0.09383
 C569 C -0.08720 0.36139 -0.08315
 C570 C -0.10006 0.38866 -0.08420
 C571 C -0.08672 0.41230 -0.07127
 C572 C -0.06049 0.40901 -0.05667
 C573 C -0.04787 0.38161 -0.05534
 C574 C -0.06100 0.35813 -0.06857
 H575 H -0.08351 0.27941 -0.13978
 H576 H -0.16558 0.30296 -0.10337
 H577 H -0.09701 0.43310 -0.07259
 H578 H -0.02763 0.37832 -0.04435
 H579 H -0.14347 0.34495 -0.08081
 H580 H -0.12019 0.39178 -0.09545
 H581 H -0.06162 0.32140 -0.11739
 H582 H -0.05077 0.33730 -0.06718
 C583 C 0.09567 0.66446 -0.09971
 C584 C 0.07899 0.68495 -0.11429
 C585 C 0.09184 0.70920 -0.12646
 C586 C 0.12154 0.71371 -0.12382
 C587 C 0.13821 0.69325 -0.10914
 C588 C 0.12543 0.66869 -0.09744
 C589 C 0.08188 0.63918 -0.08622
 C590 C 0.09264 0.61140 -0.09092
 C591 C 0.07943 0.58761 -0.07807
 C592 C 0.05553 0.59125 -0.05988
 C593 C 0.04508 0.61917 -0.05502
 C594 C 0.05793 0.64281 -0.06826
 H595 H 0.07842 0.72469 -0.13748
 H596 H 0.16118 0.69607 -0.10697
 H597 H 0.08812 0.56644 -0.08215
 H598 H 0.02697 0.62285 -0.04088
 H599 H 0.13868 0.65327 -0.08612
 H600 H 0.11107 0.60811 -0.10477
 H601 H 0.05601 0.68208 -0.11636
 H602 H 0.04946 0.66405 -0.06405
 C603 C -0.09766 0.66400 0.09855
 C604 C -0.08099 0.68412 0.11360
 C605 C -0.09377 0.70820 0.12612
 C606 C -0.12347 0.71288 0.12355
 C607 C -0.14017 0.69277 0.10844
 C608 C -0.12741 0.66844 0.09624
 C609 C -0.08387 0.63880 0.08484
 C610 C -0.09561 0.61119 0.08795
 C611 C -0.08233 0.58749 0.07507
 C612 C -0.05732 0.59103 0.05846
 C613 C -0.04577 0.61874 0.05524
 C614 C -0.05877 0.64230 0.06846
 H615 H -0.08027 0.72338 0.13740
 H616 H -0.16312 0.69569 0.10626
 H617 H -0.09185 0.56646 0.07784
 H618 H -0.02665 0.62228 0.04247
 H619 H -0.14068 0.65332 0.08456
 H620 H -0.11488 0.60794 0.10062
 H621 H -0.05804 0.68109 0.11583
 H622 H -0.04944 0.66339 0.06548
 C623 C 1.10063 0.09829 0.66353
 C624 C 1.12999 0.09471 0.66930
 C625 C 1.14243 0.10764 0.69343
 C626 C 1.12583 0.12471 0.71205
 C627 C 1.09655 0.12864 0.70598
 C628 C 1.08404 0.11542 0.68206
 C629 C 1.08719 0.08381 0.63855
 C630 C 1.06110 0.06912 0.64191
 C631 C 1.04826 0.05549 0.61846
 C632 C 1.06107 0.05653 0.59100
 C633 C 1.08721 0.07122 0.58763
 C634 C 1.10025 0.08457 0.61124
 H635 H 1.16509 0.10436 0.69739
 H636 H 1.08314 0.14150 0.71998
 H637 H 1.02809 0.04442 0.62182
 H638 H 1.09762 0.07234 0.56677
 H639 H 1.06138 0.11867 0.67794
 H640 H 1.05074 0.06797 0.66279
 H641 H 1.14318 0.08144 0.65544
 H642 H 1.12031 0.09591 0.60809
 C643 C 0.90174 -0.09554 0.66396
 C644 C 0.87224 -0.09243 0.66931
 C645 C 0.85970 -0.10531 0.69345
 C646 C 0.87636 -0.12184 0.71251
 C647 C 0.90580 -0.12528 0.70687
 C648 C 0.91839 -0.11212 0.68293
 C649 C 0.91526 -0.08119 0.63891
 C650 C 0.94114 -0.06616 0.64233
 C651 C 0.95408 -0.05266 0.61882
 C652 C 0.94158 -0.05417 0.59127
 C653 C 0.91564 -0.06920 0.58785
 C654 C 0.90251 -0.08243 0.61151
 H655 H 0.83692 -0.10244 0.69706
 H656 H 0.91927 -0.13771 0.72121
 H657 H 0.97409 -0.04132 0.62221
 H658 H 0.90546 -0.07069 0.56692
 H659 H 0.94115 -0.11504 0.67913
 H660 H 0.95125 -0.06462 0.66329
 H661 H 0.85899 -0.07960 0.65510
 H662 H 0.88262 -0.09404 0.60831
 C663 C 1.09667 -0.09856 0.33530
 C664 C 1.09215 -0.12769 0.32905
 C665 C 1.10488 -0.14017 0.30482
 C666 C 1.12270 -0.12386 0.28664
 C667 C 1.12756 -0.09484 0.29319
 C668 C 1.11451 -0.08227 0.31717
 C669 C 1.08247 -0.08502 0.36038
 C670 C 1.06839 -0.05858 0.35719
 C671 C 1.05512 -0.04556 0.38077
 C672 C 1.05596 -0.05853 0.40814
 C673 C 1.07004 -0.08502 0.41133
 C674 C 1.08300 -0.09825 0.38759
 H675 H 1.10092 -0.16264 0.30046
 H676 H 1.14102 -0.08167 0.27951
 H677 H 1.04450 -0.02512 0.37757
 H678 H 1.07096 -0.09557 0.43212
 H679 H 1.11847 -0.05981 0.32167
 H680 H 1.06746 -0.04809 0.33637
 H681 H 1.07835 -0.14063 0.34264
 H682 H 1.09387 -0.11859 0.39057
 C683 C 0.90421 0.10065 0.33595
 C684 C 0.88714 0.08385 0.31761
 C685 C 0.87379 0.09611 0.29364
 C686 C 0.87753 0.12536 0.28733
 C687 C 0.89457 0.14219 0.30572
 C688 C 0.90763 0.12999 0.32994
 C689 C 0.91877 0.08738 0.36098
 C690 C 0.91777 0.10036 0.38829
 C691 C 0.93098 0.08726 0.41198
 C692 C 0.94576 0.06117 0.40864
 C693 C 0.94708 0.04850 0.38116
 C694 C 0.93361 0.06139 0.35764
 H695 H 0.86097 0.08252 0.27980
 H696 H 0.89767 0.16484 0.30155
 H697 H 0.92966 0.09757 0.43285
 H698 H 0.95825 0.02838 0.37782
 H699 H 0.92082 0.14334 0.34369
 H700 H 0.90632 0.12035 0.39139
 H701 H 0.88400 0.06122 0.32193
 H702 H 0.93494 0.05112 0.33675
 C703 C 0.09745 0.33506 -0.09590
 C704 C 0.09377 0.32946 -0.12542
 C705 C 0.10563 0.30481 -0.13784
 C706 C 0.12169 0.28551 -0.12103
 C707 C 0.12551 0.29130 -0.09156
 C708 C 0.11342 0.31573 -0.07911
 C709 C 0.08416 0.36062 -0.08243
 C710 C 0.06939 0.35795 -0.05618
 C711 C 0.05647 0.38180 -0.04349
 C712 C 0.05826 0.40895 -0.05662
 C713 C 0.07338 0.41174 -0.08270
 C714 C 0.08604 0.38772 -0.09560
 H715 H 0.10245 0.30106 -0.16063
 H716 H 0.13755 0.27677 -0.07794
 H717 H 0.04507 0.37893 -0.02333
 H718 H 0.07503 0.43237 -0.09335
 H719 H 0.11672 0.31964 -0.05634
 H720 H 0.06743 0.33726 -0.04568
 H721 H 0.08132 0.34393 -0.13876
 H722 H 0.09753 0.39035 -0.11574
 C723 C -0.09923 0.33640 0.09703
 C724 C -0.12839 0.33028 0.09255
 C725 C -0.14089 0.30599 0.10505
 C726 C -0.12454 0.28761 0.12259
 C727 C -0.09545 0.29401 0.12737
 C728 C -0.08289 0.31807 0.11458
 C729 C -0.08566 0.36150 0.08298
 C730 C -0.05922 0.35843 0.06881
 C731 C -0.04631 0.38192 0.05540
 C732 C -0.05940 0.40911 0.05617
 C733 C -0.08582 0.41223 0.07047
 C734 C -0.09895 0.38856 0.08357
 H735 H -0.16339 0.30175 0.10113
 H736 H -0.08222 0.28017 0.14059
 H737 H -0.02592 0.37880 0.04463
 H738 H -0.09645 0.43289 0.07134
 H739 H -0.06039 0.32246 0.11851
 H740 H -0.04867 0.33773 0.06783
 H741 H -0.14137 0.34401 0.07893
 H742 H -0.11929 0.39146 0.09452
 C743 C -0.09618 0.66434 -0.10081
 C744 C -0.12545 0.67002 -0.09639
 C745 C -0.13804 0.69468 -0.10803
 C746 C -0.12167 0.71392 -0.12463
 C747 C -0.09247 0.70797 -0.12938
 C748 C -0.07981 0.68351 -0.11743
 C749 C -0.08252 0.63893 -0.08743
 C750 C -0.05654 0.64190 -0.07244
 C751 C -0.04393 0.61826 -0.05902
 C752 C -0.05674 0.59099 -0.06069
 C753 C -0.08255 0.58791 -0.07607
 C754 C -0.09546 0.61174 -0.08911
 H755 H -0.16062 0.69856 -0.10416
 H756 H -0.07924 0.72244 -0.14190
 H757 H -0.02411 0.62137 -0.04728
 H758 H -0.09300 0.56720 -0.07762
 H759 H -0.05722 0.67949 -0.12126
 H760 H -0.04629 0.66269 -0.07062
 H761 H -0.13843 0.65564 -0.08345
 H762 H -0.11545 0.60893 -0.10068
 C763 C 0.09474 0.66358 0.09942
 C764 C 0.07810 0.68394 0.11420
 C765 C 0.09102 0.70797 0.12665
 C766 C 0.12076 0.71231 0.12413
 C767 C 0.13740 0.69192 0.10933
 C768 C 0.12452 0.66765 0.09728
 C769 C 0.08094 0.63852 0.08566
 C770 C 0.09213 0.61080 0.08951
 C771 C 0.07910 0.58721 0.07626
 C772 C 0.05490 0.59101 0.05856
 C773 C 0.04389 0.61885 0.05463
 C774 C 0.05663 0.64231 0.06823
 H775 H 0.07765 0.72343 0.13774
 H776 H 0.16039 0.69461 0.10724
 H777 H 0.08817 0.56608 0.07963
 H778 H 0.02544 0.62260 0.04098
 H779 H 0.13773 0.65231 0.08580
 H780 H 0.11079 0.60738 0.10299
 H781 H 0.05509 0.68116 0.11621
 H782 H 0.04780 0.66353 0.06469
 C783 C 0.33550 1.09873 0.90587
 C784 C 0.33057 1.09549 0.87619
 C785 C 0.30622 1.10750 0.86339
 C786 C 0.28651 1.12328 0.87998
 C787 C 0.29165 1.12676 0.90962
 C788 C 0.31582 1.11449 0.92245
 C789 C 0.36078 1.08525 0.91964
 C790 C 0.35765 1.06998 0.94555
 C791 C 0.38129 1.05670 0.95833
 C792 C 0.40863 1.05867 0.94562
 C793 C 0.41185 1.07430 0.91990
 C794 C 0.38808 1.08731 0.90692
 H795 H 0.30299 1.10462 0.84047
 H796 H 0.27680 1.13861 0.92304
 H797 H 0.37814 1.04492 0.97823
 H798 H 0.43263 1.07613 0.90958
 H799 H 0.31924 1.11745 0.94535
 H800 H 0.33679 1.06788 0.95567
 H801 H 0.34532 1.08323 0.86299
 H802 H 0.39106 1.09916 0.88705
 C803 C 0.33646 0.89815 1.09703
 C804 C 0.31641 0.88324 1.08015
 C805 C 0.29237 0.87059 1.09293
 C806 C 0.28769 0.87309 1.12274
 C807 C 0.30775 0.88807 1.13960
 C808 C 0.33208 0.90026 1.12689
 C809 C 0.36149 0.91211 1.08336
 C810 C 0.38931 0.90771 1.09413
 C811 C 0.41290 0.92096 1.08102
 C812 C 0.40899 0.93926 1.05722
 C813 C 0.38101 0.94390 1.04681
 C814 C 0.35757 0.93022 1.05953
 H815 H 0.27716 0.85935 1.07938
 H816 H 0.30476 0.89016 1.16265
 H817 H 0.43412 0.91710 1.08970
 H818 H 0.37714 0.95819 1.02884
 H819 H 0.34721 0.91183 1.14026
 H820 H 0.39279 0.89377 1.11249
 H821 H 0.31944 0.88130 1.05708
 H822 H 0.33626 0.93419 1.05108
 C823 C 0.66387 1.09614 1.09892
 C824 C 0.68235 1.11301 1.08202
 C825 C 0.70640 1.12604 1.09430
 C826 C 0.71265 1.12217 1.12367
 C827 C 0.69413 1.10530 1.14058
 C828 C 0.66985 1.09257 1.12836
 C829 C 0.63876 1.08188 1.08567
 C830 C 0.61163 1.08303 1.09888
 C831 C 0.58791 1.06988 1.08596
 C832 C 0.59102 1.05499 1.05981
 C833 C 0.61829 1.05359 1.04685
 C834 C 0.64184 1.06702 1.05956
 H835 H 0.72034 1.13874 1.08065
 H836 H 0.69824 1.10211 1.16332
 H837 H 0.56719 1.07127 1.09649
 H838 H 0.62143 1.04236 1.02665
 H839 H 0.65601 1.07950 1.14179
 H840 H 0.60871 1.09450 1.11897
 H841 H 0.67808 1.11623 1.05929
 H842 H 0.66259 1.06557 1.04910
 C843 C 0.66283 0.90164 0.90132
 C844 C 0.68149 0.88472 0.91797
 C845 C 0.70539 0.87165 0.90536
 C846 C 0.71130 0.87553 0.87591
 C847 C 0.69253 0.89235 0.85924
 C848 C 0.66843 0.90514 0.87179
 C849 C 0.63792 0.91601 0.91489
 C850 C 0.61070 0.91512 0.90189
 C851 C 0.58716 0.92841 0.91505
 C852 C 0.59054 0.94317 0.94124
 C853 C 0.61791 0.94434 0.95398
 C854 C 0.64129 0.93077 0.94103
 H855 H 0.71949 0.85896 0.91883
 H856 H 0.69635 0.89553 0.83645
 H857 H 0.56637 0.92720 0.90468
 H858 H 0.62126 0.95547 0.97419
 H859 H 0.65446 0.91823 0.85855
 H860 H 0.60755 0.90375 0.88179
 H861 H 0.67749 0.88152 0.94076
 H862 H 0.66212 0.93204 0.95131
   
