data_POSCAR
  _audit_creation_date              2014-09-24
  _audit_creation_method            'ToBaCCo'
  _symmetry_space_group_name_H-M    'P1'
  _symmetry_Int_Tables_number       1
  _symmetry_cell_setting            triclinic
  loop_
  _symmetry_equiv_pos_as_xyz
 x,y,z
_cell_length_a 25.9015
_cell_length_b 25.3720
_cell_length_c 23.0188
_cell_angle_alpha 89.927100
_cell_angle_beta 90.152700
_cell_angle_gamma 99.247400
loop_
  _atom_site_label
  _atom_site_type_symbol
  _atom_site_fract_x
  _atom_site_fract_y
  _atom_site_fract_z
O1 O -0.04477 0.27649 0.06689
 O2 O 0.05170 0.29357 -0.05452
 O3 O -0.05483 0.28354 -0.04345
 O4 O 0.05142 0.29681 0.06102
 O5 O 0.06025 0.21273 0.04616
 O6 O -0.06611 0.19584 -0.03188
 O7 O 0.02712 0.20808 -0.07193
 O8 O -0.03977 0.19020 0.06774
 Cu9 Cu 0.00229 0.29682 0.00498
 Cu10 Cu -0.00077 0.19323 0.00094
 C11 C -0.05727 0.22993 0.08891
 C12 C 0.05179 0.25310 -0.08698
 C13 C -0.08202 0.23778 -0.04999
 C14 C 0.07308 0.25692 0.07280
 O15 O 0.57253 0.83852 0.44927
 O16 O 0.46543 0.84394 0.54731
 O17 O 0.55820 0.81768 0.55947
 O18 O 0.47256 0.84217 0.43397
 O19 O 0.44897 0.75495 0.42547
 O20 O 0.53118 0.73123 0.54746
 O21 O 0.43889 0.75705 0.53844
 O22 O 0.55026 0.75132 0.43831
 Cu23 Cu 0.51962 0.84387 0.49819
 Cu24 Cu 0.48953 0.74032 0.48587
 C25 C 0.58140 0.79483 0.42877
 C26 C 0.43479 0.80203 0.56105
 C27 C 0.55800 0.76926 0.57494
 C28 C 0.44531 0.80179 0.40938
 O29 O 1.03080 0.64860 0.04149
 O30 O 0.93599 0.68500 -0.06951
 O31 O 1.02454 0.65476 -0.07476
 O32 O 0.92783 0.65854 0.03653
 O33 O 0.95491 0.74434 0.05259
 O34 O 1.06140 0.73734 -0.05456
 O35 O 0.97116 0.76936 -0.05578
 O36 O 1.05476 0.73421 0.06024
 Cu37 Cu 0.97820 0.65295 -0.01607
 Cu38 Cu 1.01384 0.75415 0.00274
 C39 C 1.05903 0.68606 0.06976
 C40 C 0.93867 0.73457 -0.08161
 C41 C 1.05898 0.69481 -0.08485
 C42 C 0.92214 0.70179 0.06078
 O43 O 0.56069 0.23952 0.56895
 O44 O 0.46614 0.19421 0.45393
 O45 O 0.56449 0.23407 0.45645
 O46 O 0.46191 0.20252 0.56816
 O47 O 0.44241 0.28391 0.56020
 O48 O 0.54518 0.31553 0.44901
 O49 O 0.44613 0.27559 0.44855
 O50 O 0.54193 0.32132 0.56282
 Cu51 Cu 0.51496 0.20924 0.51261
 Cu52 Cu 0.49213 0.30740 0.50429
 C53 C 0.56722 0.28771 0.58572
 C54 C 0.44042 0.22750 0.43137
 C55 C 0.57202 0.28022 0.43349
 C56 C 0.43523 0.23802 0.58362
 O57 O 0.68562 0.02973 -0.03868
 O58 O 0.73166 -0.06921 0.05651
 O59 O 0.70088 0.02191 0.07324
 O60 O 0.72593 -0.05717 -0.05445
 O61 O 0.80689 -0.01346 -0.05964
 O62 O 0.78070 0.06752 0.06464
 O63 O 0.81250 -0.02545 0.05191
 O64 O 0.76686 0.07173 -0.04748
 Cu65 Cu 0.70284 -0.02296 0.00966
 Cu66 Cu 0.79982 0.02980 0.00233
 C67 C 0.71852 0.06700 -0.06010
 C68 C 0.77961 -0.06464 0.07027
 C69 C 0.73690 0.05868 0.09019
 C70 C 0.77071 -0.04886 -0.07838
 O71 O 0.27517 0.44576 0.54888
 O72 O 0.27831 0.54588 0.43141
 O73 O 0.28017 0.44215 0.43536
 O74 O 0.27323 0.54833 0.54530
 O75 O 0.35953 0.56311 0.54980
 O76 O 0.36641 0.45825 0.44034
 O77 O 0.36461 0.56052 0.43583
 O78 O 0.36147 0.46200 0.55369
 Cu79 Cu 0.26809 0.49400 0.48948
 Cu80 Cu 0.37153 0.51264 0.49513
 C81 C 0.31787 0.43749 0.57170
 C82 C 0.32218 0.57009 0.41360
 C83 C 0.32459 0.43208 0.41940
 C84 C 0.31551 0.57307 0.56695
 O85 O 0.23079 1.04096 0.04831
 O86 O 0.22620 0.94802 -0.07703
 O87 O 0.22561 1.05026 -0.06408
 O88 O 0.24061 0.93931 0.03383
 O89 O 0.15466 0.91646 0.03777
 O90 O 0.13977 1.03203 -0.05438
 O91 O 0.13994 0.93186 -0.07083
 O92 O 0.14546 1.01766 0.05821
 Cu93 Cu 0.23939 0.99672 -0.01507
 Cu94 Cu 0.13644 0.97298 -0.00554
 C95 C 0.18830 1.04541 0.07415
 C96 C 0.18197 0.92443 -0.09528
 C97 C 0.18027 1.05996 -0.07617
 C98 C 0.20036 0.90747 0.04975
 O99 O 0.76746 0.57318 0.56786
 O100 O 0.80789 0.48956 0.45224
 O101 O 0.76996 0.57802 0.45609
 O102 O 0.80744 0.48676 0.56702
 O103 O 0.72782 0.43976 0.56337
 O104 O 0.68972 0.53241 0.45428
 O105 O 0.72791 0.44324 0.45143
 O106 O 0.68784 0.52595 0.56733
 Cu107 Cu 0.79652 0.53632 0.51082
 Cu108 Cu 0.70020 0.48056 0.50843
 C109 C 0.72120 0.56345 0.58759
 C110 C 0.77424 0.45219 0.43210
 C111 C 0.72343 0.57114 0.43682
 C112 C 0.77354 0.44851 0.58496
 C113 C 0.23484 0.19382 0.21118
 C114 C 0.21518 0.24256 0.21611
 C115 C 0.24100 0.28286 0.25258
 C116 C 0.28554 0.27638 0.28433
 C117 C 0.30481 0.22719 0.28016
 C118 C 0.27982 0.18730 0.24254
 H119 H 0.29387 0.14941 0.23989
 H120 H 0.22693 0.32073 0.25538
 C121 C 0.77730 0.78927 0.20692
 C122 C 0.78700 0.73630 0.20292
 C123 C 0.76424 0.69839 0.24367
 C124 C 0.73194 0.71198 0.28790
 C125 C 0.72223 0.76481 0.29195
 C126 C 0.74532 0.80285 0.25159
 H127 H 0.73772 0.84354 0.25441
 H128 H 0.77153 0.65760 0.24082
 C129 C 0.79784 0.23994 0.22714
 C130 C 0.74893 0.20612 0.23341
 C131 C 0.71032 0.22305 0.26831
 C132 C 0.71861 0.27284 0.29595
 C133 C 0.76769 0.30631 0.28981
 C134 C 0.80605 0.28966 0.25464
 H135 H 0.84393 0.31467 0.25074
 H136 H 0.67249 0.19800 0.27243
 C137 C 0.21281 0.71345 0.19746
 C138 C 0.23771 0.76658 0.18664
 C139 C 0.28025 0.78926 0.22127
 C140 C 0.30202 0.75941 0.26366
 C141 C 0.28017 0.70460 0.27064
 C142 C 0.23491 0.68316 0.23919
 H143 H 0.21797 0.64170 0.24568
 H144 H 0.29813 0.83017 0.21316
 C145 C 0.70059 0.28624 0.73828
 C146 C 0.75216 0.31477 0.74306
 C147 C 0.78489 0.29997 0.78665
 C148 C 0.76827 0.25647 0.82334
 C149 C 0.71880 0.22482 0.81432
 C150 C 0.68515 0.24088 0.77273
 H151 H 0.64631 0.21811 0.76733
 H152 H 0.82346 0.32305 0.79281
 C153 C 0.28716 0.76721 0.70045
 C154 C 0.26614 0.71211 0.70036
 C155 C 0.22105 0.69444 0.73299
 C156 C 0.19715 0.72990 0.76714
 C157 C 0.21811 0.78504 0.76633
 C158 C 0.26282 0.80256 0.73356
 H159 H 0.27827 0.84486 0.73303
 H160 H 0.20593 0.65209 0.73383
 C161 C 0.26682 0.29125 0.71408
 C162 C 0.28811 0.24362 0.72261
 C163 C 0.26229 0.20456 0.76040
 C164 C 0.21489 0.21009 0.78733
 C165 C 0.19215 0.25616 0.77544
 C166 C 0.21850 0.29628 0.73951
 H167 H 0.20152 0.33200 0.73182
 H168 H 0.27836 0.16822 0.76725
 C169 C 0.72264 0.70722 0.72980
 C170 C 0.69596 0.75110 0.72216
 C171 C 0.71651 0.79986 0.74762
 C172 C 0.76286 0.80552 0.78017
 C173 C 0.78986 0.76166 0.78779
 C174 C 0.76912 0.71287 0.76219
 H175 H 0.78999 0.67928 0.76579
 H176 H 0.69576 0.83350 0.74326
 N177 N 0.15759 0.12986 0.18419
 N178 N 0.14411 0.08921 0.14819
 C179 C 0.18771 0.08214 0.11920
 C180 C 0.22863 0.11980 0.13886
 N181 N 0.20793 0.14928 0.17865
 H182 H 0.26887 0.12647 0.12430
 N183 N 0.66579 0.62309 0.70674
 N184 N 0.66384 0.58382 0.66846
 C185 C 0.70663 0.59608 0.63478
 C186 C 0.73484 0.64343 0.65324
 N187 N 0.70782 0.65926 0.69757
 H188 H 0.77118 0.66470 0.63599
 N189 N 0.84336 0.85561 0.16074
 N190 N 0.84509 0.89703 0.12509
 C191 C 0.79574 0.89688 0.10612
 C192 C 0.76397 0.85390 0.13067
 N193 N 0.79516 0.82877 0.16383
 H194 H 0.72185 0.84342 0.12731
 N195 N 0.34450 0.35560 0.69033
 N196 N 0.35954 0.39453 0.65267
 C197 C 0.31736 0.39948 0.61987
 C198 C 0.27575 0.36263 0.63880
 N199 N 0.29457 0.33555 0.68221
 H200 H 0.23632 0.35499 0.62158
 N201 N 0.85745 0.17761 0.20347
 N202 N 0.89688 0.17421 0.16787
 C203 C 0.90595 0.22038 0.13766
 C204 C 0.87072 0.25226 0.15568
 N205 N 0.84068 0.22377 0.19612
 H206 H 0.86570 0.29111 0.13922
 N207 N 0.36487 0.83290 0.68465
 N208 N 0.40400 0.84435 0.64768
 C209 C 0.39679 0.80623 0.60652
 C210 C 0.35187 0.77140 0.61873
 N211 N 0.33341 0.78888 0.66862
 H212 H 0.33432 0.73753 0.59310
 N213 N 0.15614 0.63796 0.15085
 N214 N 0.11406 0.62860 0.11686
 C215 C 0.09710 0.67572 0.10961
 C216 C 0.12937 0.71376 0.14156
 N217 N 0.16678 0.68920 0.16531
 H218 H 0.12679 0.75578 0.14511
 N219 N 0.64943 0.35088 0.69801
 N220 N 0.61359 0.35293 0.65715
 C221 C 0.60432 0.30402 0.63267
 C222 C 0.63499 0.27192 0.65970
 N223 N 0.66295 0.30270 0.69959
 H224 H 0.63737 0.23047 0.65084
 N225 N 0.65410 0.16173 0.86708
 N226 N 0.65211 0.11876 0.90044
 C227 C 0.70073 0.10617 0.90106
 C228 C 0.73213 0.14167 0.86619
 N229 N 0.70214 0.17674 0.84707
 H230 H 0.77348 0.14324 0.85791
 N231 N 0.35613 0.66518 0.30035
 N232 N 0.36869 0.62967 0.33789
 C233 C 0.32453 0.60970 0.36662
 C234 C 0.28428 0.63397 0.34533
 N235 N 0.30589 0.66899 0.30478
 H236 H 0.24381 0.62798 0.35902
 N237 N 0.14464 0.83031 0.79134
 N238 N 0.13391 0.86779 0.82737
 C239 C 0.17865 0.88666 0.85593
 C240 C 0.21729 0.85957 0.83625
 N241 N 0.19423 0.82422 0.79675
 H242 H 0.25730 0.86299 0.85139
 N243 N 0.81523 0.39689 0.30234
 N244 N 0.81999 0.43649 0.34048
 C245 C 0.78785 0.41916 0.38478
 C246 C 0.76373 0.36819 0.37317
 N247 N 0.78083 0.35586 0.32071
 H248 H 0.73666 0.34278 0.40084
 N249 N 0.09814 0.23280 0.77492
 N250 N 0.05929 0.22917 0.81266
 C251 C 0.07798 0.25700 0.86015
 C252 C 0.13001 0.27772 0.85048
 N253 N 0.14117 0.26090 0.79700
 H254 H 0.15845 0.29607 0.88196
 N255 N 0.70660 0.82859 0.36495
 N256 N 0.66954 0.83823 0.40078
 C257 C 0.63023 0.79661 0.39658
 C258 C 0.64433 0.76072 0.35705
 N259 N 0.69252 0.78225 0.33850
 H260 H 0.62050 0.72495 0.34065
 N261 N 0.87368 0.81067 0.82065
 N262 N 0.91381 0.80433 0.85405
 C263 C 0.90443 0.75406 0.87484
 C264 C 0.85670 0.72956 0.85293
 N265 N 0.83850 0.76670 0.81972
 H266 H 0.83632 0.68980 0.86224
 N267 N 0.37853 0.18069 0.29989
 N268 N 0.41431 0.17773 0.34050
 C269 C 0.40512 0.21134 0.38304
 C270 C 0.36276 0.23452 0.36782
 N271 N 0.34774 0.21537 0.31496
 H272 H 0.34482 0.26234 0.39340
 N273 N 0.81757 0.89197 0.79680
 N274 N 0.82069 0.93206 0.83415
 C275 C 0.78105 0.91894 0.87205
 C276 C 0.75368 0.86998 0.85731
 N277 N 0.77816 0.85422 0.81086
 H278 H 0.71996 0.84746 0.87869
 N279 N 0.36195 0.33982 0.31621
 N280 N 0.37352 0.38138 0.35147
 C281 C 0.32836 0.38977 0.37621
 C282 C 0.28854 0.35185 0.35476
 N283 N 0.31124 0.32094 0.31814
 H284 H 0.24735 0.34662 0.36544
 N285 N 0.13903 0.15400 0.83191
 N286 N 0.12838 0.11356 0.86867
 C287 C 0.17469 0.10135 0.88599
 C288 C 0.21406 0.13563 0.85877
 N289 N 0.19017 0.16821 0.82543
 H290 H 0.25587 0.13684 0.86306
 N291 N 0.66530 0.64281 0.32806
 N292 N 0.66179 0.60375 0.36690
 C293 C 0.70882 0.60836 0.39334
 C294 C 0.74115 0.65144 0.36980
 N295 N 0.71233 0.67231 0.32997
 H296 H 0.78217 0.66499 0.37889
 N297 N 0.12242 0.66237 0.79048
 N298 N 0.08553 0.65107 0.83021
 C299 C 0.09268 0.69132 0.86901
 C300 C 0.13571 0.72726 0.85243
 N301 N 0.15276 0.70827 0.80236
 H302 H 0.15345 0.76237 0.87596
 N303 N 0.65959 0.33558 0.32149
 N304 N 0.62058 0.33901 0.35779
 C305 C 0.61202 0.29287 0.38806
 C306 C 0.64681 0.26083 0.36889
 N307 N 0.67621 0.28918 0.32791
 H308 H 0.65107 0.22131 0.38396
 N309 N 0.78319 0.23373 0.92435
 N310 N 0.82222 0.22595 0.95882
 C311 C 0.86577 0.23437 0.92609
 C312 C 0.85286 0.24873 0.87107
 N313 N 0.80071 0.24662 0.87137
 H314 H 0.87867 0.25970 0.83459
 N315 N 0.37912 0.82827 0.27916
 N316 N 0.41721 0.84247 0.31755
 C317 C 0.40843 0.80756 0.36187
 C318 C 0.36358 0.77201 0.34959
 N319 N 0.34675 0.78532 0.29693
 H320 H 0.34548 0.73962 0.37694
 N321 N 0.21747 0.77516 0.08393
 N322 N 0.20662 0.81156 0.04658
 C323 C 0.20697 0.85696 0.07692
 C324 C 0.21906 0.84772 0.13401
 N325 N 0.22428 0.79576 0.13677
 H326 H 0.22367 0.87573 0.16980
 N327 N 0.80980 0.39821 0.71997
 N328 N 0.81850 0.43401 0.67766
 C329 C 0.78562 0.41595 0.63407
 C330 C 0.75701 0.36799 0.65064
 N331 N 0.77216 0.35866 0.70517
 H332 H 0.72754 0.34319 0.62518
 N333 N 0.70129 0.11544 0.22226
 N334 N 0.69569 0.07547 0.18457
 C335 C 0.72832 0.09142 0.14027
 C336 C 0.75360 0.14225 0.15147
 N337 N 0.73641 0.15575 0.20362
 H338 H 0.78044 0.16727 0.12319
 N339 N 0.34219 0.66928 0.68072
 N340 N 0.35667 0.63315 0.64541
 C341 C 0.31449 0.61327 0.61311
 C342 C 0.27320 0.63820 0.63028
 N343 N 0.29245 0.67342 0.67194
 H344 H 0.23392 0.63298 0.61267
 N345 N 0.79842 0.67214 0.12876
 N346 N 0.83403 0.66102 0.09183
 C347 C 0.87483 0.70115 0.09543
 C348 C 0.86311 0.73771 0.13566
 N349 N 0.81478 0.71805 0.15524
 H350 H 0.88840 0.77281 0.15154
 N351 N 0.36397 0.19819 0.71254
 N352 N 0.40248 0.19394 0.67593
 C353 C 0.39724 0.22672 0.63106
 C354 C 0.35408 0.25093 0.64112
 N355 N 0.33462 0.23278 0.69309
 H356 H 0.33807 0.27789 0.61232
 N357 N 0.14083 0.28843 0.20472
 N358 N 0.10387 0.29456 0.16694
 C359 C 0.10921 0.26220 0.12188
 C360 C 0.15082 0.23590 0.13293
 N361 N 0.16939 0.25323 0.18562
 H362 H 0.16693 0.20887 0.10443
 N363 N 0.60960 0.70544 0.69407
 N364 N 0.57232 0.70946 0.65580
 C365 C 0.58721 0.75501 0.62587
 C366 C 0.63526 0.77910 0.64720
 N367 N 0.64812 0.74623 0.68922
 H368 H 0.65976 0.81485 0.63148
   
