data_POSCAR
  _audit_creation_date              2014-09-24
  _audit_creation_method            'ToBaCCo'
  _symmetry_space_group_name_H-M    'P1'
  _symmetry_Int_Tables_number       1
  _symmetry_cell_setting            triclinic
  loop_
  _symmetry_equiv_pos_as_xyz
 x,y,z
_cell_length_a 39.3845
_cell_length_b 39.7052
_cell_length_c 39.3499
_cell_angle_alpha 89.965000
_cell_angle_beta 90.144700
_cell_angle_gamma 89.981000
loop_
  _atom_site_label
  _atom_site_type_symbol
  _atom_site_fract_x
  _atom_site_fract_y
  _atom_site_fract_z
N1 N 0.57635 0.67135 0.60902
 N2 N 0.56091 0.65560 0.63399
 C3 C 0.53464 0.67446 0.64475
 C4 C 0.53326 0.70334 0.62512
 C5 C 0.56003 0.70049 0.60261
 H6 H 0.51752 0.66749 0.66501
 H7 H 0.56749 0.71861 0.58351
 Cu8 Cu 0.57560 0.61151 0.64964
 Cu9 Cu 0.61722 0.65359 0.58778
 Cu10 Cu 0.65137 0.58193 0.62432
 N11 N 0.59767 0.57412 0.67272
 N12 N 0.62811 0.56394 0.66392
 C13 C 0.63787 0.53875 0.68463
 C14 C 0.61183 0.53222 0.70745
 C15 C 0.58664 0.55529 0.69892
 H16 H 0.66160 0.52533 0.68217
 H17 H 0.56236 0.55871 0.71119
 N18 N 0.67100 0.60368 0.58398
 N19 N 0.65847 0.63143 0.57035
 C20 C 0.67753 0.64004 0.54329
 C21 C 0.70286 0.61622 0.53948
 C22 C 0.69792 0.59356 0.56564
 H23 H 0.67283 0.66147 0.52698
 H24 H 0.71295 0.57137 0.57090
 H25 H 0.61026 0.60326 0.59905
 H26 H 0.63167 0.62982 0.63210
 N27 N 0.91456 0.32860 0.12150
 N28 N 0.92341 0.33935 0.15181
 C29 C 0.94937 0.32048 0.16342
 C30 C 0.95778 0.29690 0.13877
 C31 C 0.93506 0.30304 0.11242
 H32 H 0.96186 0.32437 0.18757
 H33 H 0.93283 0.28941 0.08876
 Cu34 Cu 0.90130 0.37813 0.17229
 Cu35 Cu 0.87612 0.34750 0.09672
 Cu36 Cu 0.83527 0.41570 0.13352
 N37 N 0.87877 0.41695 0.19225
 N38 N 0.85231 0.43085 0.17741
 C39 C 0.84125 0.45667 0.19655
 C40 C 0.86219 0.45940 0.22466
 C41 C 0.88581 0.43388 0.22108
 H42 H 0.82016 0.47291 0.19004
 H43 H 0.90643 0.42809 0.23831
 N44 N 0.82183 0.39667 0.08926
 N45 N 0.83668 0.37006 0.07575
 C46 C 0.82072 0.36221 0.04648
 C47 C 0.79500 0.38529 0.04111
 C48 C 0.79649 0.40684 0.06861
 H49 H 0.82745 0.34146 0.03003
 H50 H 0.77976 0.42786 0.07352
 H51 H 0.88051 0.39547 0.11654
 H52 H 0.85074 0.36615 0.13856
 N53 N 0.42840 0.16133 -0.10282
 N54 N 0.44267 0.14905 -0.13032
 C55 C 0.46979 0.16811 -0.13837
 C56 C 0.47287 0.19332 -0.11431
 C57 C 0.44627 0.18819 -0.09208
 H58 H 0.48648 0.16372 -0.15968
 H59 H 0.44008 0.20326 -0.07006
 Cu60 Cu 0.42500 0.10867 -0.15213
 Cu61 Cu 0.38710 0.14240 -0.08365
 Cu62 Cu 0.35529 0.07021 -0.12160
 N63 N 0.40760 0.06738 -0.17234
 N64 N 0.37974 0.05311 -0.16093
 C65 C 0.37222 0.02632 -0.18049
 C66 C 0.39695 0.02336 -0.20518
 C67 C 0.41909 0.04973 -0.19919
 H68 H 0.35045 0.01010 -0.17698
 H69 H 0.44128 0.05610 -0.21399
 N70 N 0.33417 0.09140 -0.08159
 N71 N 0.34561 0.11958 -0.06795
 C72 C 0.32495 0.12865 -0.04233
 C73 C 0.29962 0.10478 -0.03938
 C74 C 0.30629 0.08145 -0.06453
 H75 H 0.32826 0.15070 -0.02656
 H76 H 0.29145 0.05927 -0.07033
 H77 H 0.39657 0.09357 -0.09932
 H78 H 0.36930 0.11997 -0.12767
 N79 N 0.07818 0.83758 0.38052
 N80 N 0.05576 0.86016 0.37084
 C81 C 0.02475 0.84599 0.37021
 C82 C 0.02788 0.81230 0.37935
 C83 C 0.06238 0.80797 0.38555
 H84 H 0.00198 0.85901 0.36222
 H85 H 0.07516 0.78534 0.39393
 Cu86 Cu 0.06952 0.90497 0.35680
 Cu87 Cu 0.12603 0.84860 0.38667
 Cu88 Cu 0.14647 0.93292 0.37889
 N89 N 0.09026 0.94315 0.33380
 N90 N 0.12085 0.95364 0.34200
 C91 C 0.12970 0.97916 0.32135
 C92 C 0.10311 0.98506 0.29904
 C93 C 0.07841 0.96183 0.30780
 H94 H 0.15370 0.99235 0.32247
 H95 H 0.05412 0.95807 0.29549
 N96 N 0.17530 0.90080 0.40330
 N97 N 0.16841 0.86832 0.40503
 C98 C 0.19214 0.85320 0.42448
 C99 C 0.21481 0.87746 0.43574
 C100 C 0.20335 0.90733 0.42166
 H101 H 0.19167 0.82694 0.43176
 H102 H 0.21411 0.93214 0.42515
 H103 H 0.11310 0.89650 0.39994
 H104 H 0.12987 0.89085 0.35590
 C105 C 0.10036 0.15821 0.11637
 N106 N 0.10163 0.13579 0.14241
 C107 C 0.12686 0.11251 0.14408
 N108 N 0.15105 0.11194 0.11953
 C109 C 0.15011 0.13437 0.09345
 N110 N 0.12467 0.15744 0.09197
 C111 C 0.39928 0.85305 0.60829
 N112 N 0.39806 0.87320 0.63618
 C113 C 0.37393 0.89750 0.63880
 N114 N 0.35097 0.90154 0.61334
 C115 C 0.35199 0.88168 0.58527
 N116 N 0.37623 0.85744 0.58288
 C117 C 0.90499 0.65478 0.38475
 N118 N 0.90787 0.62717 0.36460
 C119 C 0.88274 0.60378 0.36366
 N120 N 0.85510 0.60771 0.38382
 C121 C 0.85218 0.63494 0.40448
 N122 N 0.87700 0.65872 0.40448
 C123 C 0.61193 0.33770 -0.13506
 N124 N 0.63583 0.33674 -0.11013
 C125 C 0.66033 0.36074 -0.10839
 N126 N 0.66089 0.38581 -0.13189
 C127 C 0.63707 0.38703 -0.15688
 N128 N 0.61262 0.36295 -0.15837
 C129 C -0.00020 0.26451 0.17120
 C130 C -0.01635 0.27237 0.14016
 C131 C -0.00588 0.25530 0.11054
 C132 C 0.02035 0.23139 0.11183
 C133 C 0.03557 0.22322 0.14332
 C134 C 0.02508 0.23989 0.17281
 C135 C 0.06129 0.19880 0.14472
 C136 C 0.07294 0.18341 0.11482
 C137 C 0.05838 0.19234 0.08350
 C138 C 0.03196 0.21580 0.08204
 H139 H -0.01720 0.26122 0.08616
 H140 H 0.03662 0.23406 0.19715
 H141 H 0.07280 0.19232 0.16892
 H142 H 0.02079 0.22193 0.05762
 H143 H -0.00755 0.27663 0.19466
 H144 H 0.06706 0.18068 0.06020
 C145 C 0.49507 0.74022 0.65941
 C146 C 0.50855 0.73118 0.62770
 C147 C 0.49804 0.74863 0.59843
 C148 C 0.47392 0.77456 0.60074
 C149 C 0.46098 0.78391 0.63287
 C150 C 0.47177 0.76663 0.66205
 C151 C 0.43713 0.81007 0.63523
 C152 C 0.42518 0.82627 0.60578
 C153 C 0.43770 0.81637 0.57392
 C154 C 0.46217 0.79100 0.57144
 H155 H 0.50799 0.74146 0.57381
 H156 H 0.46199 0.77334 0.68685
 H157 H 0.42725 0.81725 0.65988
 H158 H 0.47166 0.78404 0.54660
 H159 H 0.50296 0.72717 0.68228
 H160 H 0.42885 0.82858 0.55093
 C161 C 0.96746 0.79752 0.38084
 C162 C 1.00194 0.78791 0.38129
 C163 C 1.00988 0.75331 0.38334
 C164 C 0.98408 0.72895 0.38413
 C165 C 0.94969 0.73911 0.38441
 C166 C 0.94169 0.77343 0.38288
 C167 C 0.92391 0.71475 0.38559
 C168 C 0.93208 0.68034 0.38502
 C169 C 0.96626 0.67043 0.38396
 C170 C 0.99209 0.69453 0.38403
 H171 H 1.03605 0.74497 0.38305
 H172 H 0.91546 0.78167 0.38289
 H173 H 0.89750 0.72249 0.38590
 H174 H 1.01831 0.68625 0.38357
 H175 H 0.96009 0.82373 0.37970
 H176 H 0.97298 0.64397 0.38352
 C177 C 0.51102 0.23111 -0.08092
 C178 C 0.49899 0.21990 -0.11256
 C179 C 0.51184 0.23436 -0.14247
 C180 C 0.53626 0.26006 -0.14078
 C181 C 0.54883 0.27061 -0.10881
 C182 C 0.53603 0.25598 -0.07905
 C183 C 0.57379 0.29576 -0.10714
 C184 C 0.58562 0.31129 -0.13694
 C185 C 0.57234 0.30126 -0.16852
 C186 C 0.54815 0.27559 -0.17047
 H187 H 0.50229 0.22614 -0.16696
 H188 H 0.54523 0.26389 -0.05434
 H189 H 0.58361 0.30365 -0.08264
 H190 H 0.53864 0.26799 -0.19516
 H191 H 0.50148 0.22018 -0.05760
 H192 H 0.58119 0.31286 -0.19179
 C193 C 0.07080 0.02370 0.26057
 C194 C 0.10192 0.00980 0.27101
 C195 C 0.13188 0.01930 0.25423
 C196 C 0.13075 0.04220 0.22707
 C197 C 0.09938 0.05649 0.21712
 C198 C 0.06957 0.04711 0.23406
 C199 C 0.09832 0.07970 0.19023
 C200 C 0.12810 0.08821 0.17255
 C201 C 0.15904 0.07338 0.18226
 C202 C 0.16042 0.05080 0.20948
 H203 H 0.15594 0.00832 0.26177
 H204 H 0.04529 0.05771 0.22669
 H205 H 0.07425 0.09070 0.18272
 H206 H 0.18465 0.03997 0.21666
 H207 H 0.04744 0.01682 0.27325
 H208 H 0.18233 0.07962 0.16910
 C209 C 0.58015 0.49829 -0.25128
 C210 C 0.61095 0.50719 -0.26712
 C211 C 0.64088 0.49027 -0.25715
 C212 C 0.64006 0.46514 -0.23208
 C213 C 0.60877 0.45568 -0.21744
 C214 C 0.57902 0.47250 -0.22712
 C215 C 0.60783 0.42973 -0.19320
 C216 C 0.63799 0.41411 -0.18245
 C217 C 0.66910 0.42444 -0.19626
 C218 C 0.67011 0.44943 -0.22124
 H219 H 0.66512 0.49705 -0.26811
 H220 H 0.55483 0.46577 -0.21595
 H221 H 0.58380 0.42214 -0.18221
 H222 H 0.69438 0.45657 -0.23196
 H223 H 0.55652 0.51040 -0.25819
 H224 H 0.69259 0.41263 -0.18823
 C225 C 0.42990 0.98720 0.75468
 C226 C 0.39846 0.99847 0.76699
 C227 C 0.36839 0.98642 0.75211
 C228 C 0.36967 0.96387 0.72471
 C229 C 0.40142 0.95224 0.71277
 C230 C 0.43138 0.96394 0.72806
 C231 C 0.40266 0.92968 0.68533
 C232 C 0.37263 0.91962 0.66888
 C233 C 0.34126 0.93167 0.68067
 C234 C 0.33975 0.95326 0.70862
 H235 H 0.34403 0.99541 0.76114
 H236 H 0.45595 0.95546 0.71914
 H237 H 0.42699 0.92082 0.67608
 H238 H 0.31522 0.96205 0.71732
 H239 H 0.45336 0.99613 0.76591
 H240 H 0.31783 0.92415 0.66837
 C241 C 0.82881 0.49815 0.26170
 C242 C 0.86035 0.48496 0.25183
 C243 C 0.89014 0.49695 0.26739
 C244 C 0.88849 0.52252 0.29196
 C245 C 0.85657 0.53542 0.30192
 C246 C 0.82688 0.52290 0.28682
 C247 C 0.85489 0.56118 0.32623
 C248 C 0.88475 0.57508 0.33990
 C249 C 0.91637 0.56231 0.32967
 C250 C 0.91823 0.53596 0.30619
 H251 H 0.91462 0.48721 0.25958
 H252 H 0.80222 0.53259 0.29406
 H253 H 0.83038 0.57119 0.33362
 H254 H 0.94292 0.52648 0.29876
 H255 H 0.80555 0.48910 0.25015
 H256 H 0.93968 0.57264 0.33993
 C257 C 0.25975 0.07392 -0.00114
 C258 C 0.27150 0.10447 -0.01468
 C259 C 0.25640 0.13483 -0.00437
 C260 C 0.22976 0.13472 0.01922
 C261 C 0.21877 0.10393 0.03353
 C262 C 0.23385 0.07366 0.02309
 C263 C 0.19284 0.10395 0.05795
 C264 C 0.17704 0.13425 0.06745
 C265 C 0.18745 0.16457 0.05231
 C266 C 0.21385 0.16486 0.02868
 H267 H 0.26503 0.15846 -0.01513
 H268 H 0.22559 0.04981 0.03361
 H269 H 0.18465 0.08040 0.06923
 H270 H 0.22179 0.18865 0.01779
 H271 H 0.27113 0.05028 -0.00875
 H272 H 0.17566 0.18819 0.05935
 C273 C 0.74062 0.58308 0.50129
 C274 C 0.72912 0.61453 0.51283
 C275 C 0.74337 0.64409 0.49934
 C276 C 0.76952 0.64220 0.47519
 C277 C 0.78068 0.61038 0.46359
 C278 C 0.76591 0.58101 0.47662
 C279 C 0.80693 0.60837 0.43970
 C280 C 0.82307 0.63768 0.42795
 C281 C 0.81206 0.66921 0.43980
 C282 C 0.78524 0.67149 0.46293
 H283 H 0.73487 0.66845 0.50841
 H284 H 0.77424 0.55642 0.46808
 H285 H 0.81553 0.58387 0.43110
 H286 H 0.77715 0.69610 0.47163
 H287 H 0.72980 0.56000 0.51116
 H288 H 0.82414 0.69213 0.43106
 C289 C 0.75884 0.41739 0.00015
 C290 C 0.77064 0.38635 0.01257
 C291 C 0.75863 0.35634 -0.00202
 C292 C 0.73462 0.35730 -0.02842
 C293 C 0.72337 0.38868 -0.04121
 C294 C 0.73571 0.41857 -0.02680
 C295 C 0.69961 0.38964 -0.06783
 C296 C 0.68607 0.35964 -0.08107
 C297 C 0.69691 0.32861 -0.06777
 C298 C 0.72129 0.32742 -0.04194
 H299 H 0.76728 0.33229 0.00779
 H300 H 0.72722 0.44284 -0.03615
 H301 H 0.69103 0.41370 -0.07767
 H302 H 0.72947 0.30315 -0.03232
 H303 H 0.76789 0.44079 0.01102
 H304 H 0.68682 0.30521 -0.07768
 C305 C 0.25933 0.84206 0.46409
 C306 C 0.24264 0.87316 0.46069
 C307 C 0.25194 0.89998 0.48204
 C308 C 0.27712 0.89570 0.50690
 C309 C 0.29394 0.86439 0.51005
 C310 C 0.28499 0.83778 0.48836
 C311 C 0.31897 0.86010 0.53519
 C312 C 0.32675 0.88646 0.55779
 C313 C 0.30970 0.91740 0.55444
 C314 C 0.28532 0.92207 0.52908
 H315 H 0.23889 0.92394 0.48007
 H316 H 0.29753 0.81357 0.49044
 H317 H 0.33173 0.83602 0.53769
 H318 H 0.27261 0.94620 0.52707
 H319 H 0.25267 0.82107 0.44783
 H320 H 0.31533 0.93814 0.57140
   
