data_POSCAR
  _audit_creation_date              2014-09-24
  _audit_creation_method            'ToBaCCo'
  _symmetry_space_group_name_H-M    'P1'
  _symmetry_Int_Tables_number       1
  _symmetry_cell_setting            triclinic
  loop_
  _symmetry_equiv_pos_as_xyz
 x,y,z
_cell_length_a 38.8167
_cell_length_b 38.9300
_cell_length_c 45.6821
_cell_angle_alpha 90.251900
_cell_angle_beta 88.965300
_cell_angle_gamma 117.844700
loop_
  _atom_site_label
  _atom_site_type_symbol
  _atom_site_fract_x
  _atom_site_fract_y
  _atom_site_fract_z
C1 C 0.00127 0.51936 1.32698
 C2 C 0.03479 0.53296 1.30890
 C3 C 0.03037 0.53254 1.27846
 C4 C -0.00601 0.52380 1.26619
 C5 C -0.03858 0.51270 1.28523
 C6 C -0.03579 0.50778 1.31535
 C7 C -0.01008 0.52548 1.23369
 C8 C -0.04600 0.50231 1.22008
 C9 C -0.04944 0.50269 1.18962
 C10 C -0.01645 0.52542 1.17226
 C11 C 0.01953 0.54877 1.18524
 C12 C 0.02216 0.54972 1.21581
 H13 H 0.00413 0.51761 1.35025
 H14 H 0.05574 0.54014 1.26451
 H15 H -0.06666 0.50660 1.27668
 H16 H -0.07145 0.48297 1.23281
 H17 H -0.01910 0.52599 1.14872
 H18 H 0.04980 0.56910 1.22539
 C19 C 0.51500 0.50259 1.33660
 C20 C 0.50013 0.52510 1.32308
 C21 C 0.49341 0.52100 1.29274
 C22 C 0.49918 0.49322 1.27639
 C23 C 0.51125 0.46903 1.29113
 C24 C 0.52078 0.47438 1.32091
 C25 C 0.49444 0.49066 1.24383
 C26 C 0.51791 0.47996 1.22594
 C27 C 0.51420 0.47789 1.19543
 C28 C 0.48872 0.48935 1.18243
 C29 C 0.46602 0.50135 1.19962
 C30 C 0.46776 0.50041 1.23023
 H31 H 0.51974 0.50578 1.35992
 H32 H 0.48542 0.54053 1.28155
 H33 H 0.51432 0.44647 1.27921
 H34 H 0.53942 0.47335 1.23556
 H35 H 0.48689 0.48958 1.15882
 H36 H 0.44902 0.50836 1.24324
 C37 C 0.49743 1.00311 1.32357
 C38 C 0.47122 0.96899 1.30943
 C39 C 0.46952 0.96846 1.27881
 C40 C 0.49534 1.00089 1.26197
 C41 C 0.52170 1.03468 1.27673
 C42 C 0.52271 1.03634 1.30741
 C43 C 0.49521 0.99947 1.22918
 C44 C 0.50802 1.03379 1.21245
 C45 C 0.50945 1.03298 1.18184
 C46 C 0.49611 0.99727 1.16750
 C47 C 0.48239 0.96259 1.18356
 C48 C 0.48315 0.96398 1.21423
 H49 H 0.49632 1.00417 1.34719
 H50 H 0.44805 0.94247 1.26832
 H51 H 0.54255 1.05973 1.26449
 H52 H 0.51692 1.06153 1.22297
 H53 H 0.49818 0.99657 1.14386
 H54 H 0.47440 0.93719 1.22621
 C55 C 0.99512 0.52635 0.67525
 C56 C 0.96159 0.50602 0.69272
 C57 C 0.96422 0.50872 0.72320
 C58 C 0.99981 0.53276 0.73680
 C59 C 1.03279 0.55468 0.71869
 C60 C 1.03132 0.55048 0.68801
 C61 C 1.00276 0.53328 0.76962
 C62 C 1.03859 0.54275 0.78305
 C63 C 1.04099 0.54070 0.81351
 C64 C 1.00713 0.52792 0.83092
 C65 C 0.97113 0.51810 0.81822
 C66 C 0.96944 0.52233 0.78788
 H67 H 0.99204 0.52457 0.65176
 H68 H 0.93828 0.49089 0.73602
 H69 H 1.06017 0.57461 0.72834
 H70 H 1.06483 0.55079 0.77009
 H71 H 1.00907 0.52707 0.85449
 H72 H 0.94170 0.51634 0.77875
 C73 C 0.47924 0.47845 0.66543
 C74 C 0.50762 0.47269 0.67992
 C75 C 0.51177 0.47893 0.71005
 C76 C 0.48606 0.48803 0.72641
 C77 C 0.45763 0.49378 0.71148
 C78 C 0.45509 0.49048 0.68085
 C79 C 0.48952 0.49139 0.75889
 C80 C 0.48129 0.51805 0.77461
 C81 C 0.48536 0.52115 0.80511
 C82 C 0.50052 0.49957 0.81963
 C83 C 0.50912 0.47318 0.80437
 C84 C 0.50205 0.46810 0.77439
 H85 H 0.47651 0.47426 0.64200
 H86 H 0.53499 0.47608 0.72073
 H87 H 0.43778 0.50129 0.72345
 H88 H 0.47145 0.53619 0.76334
 H89 H 0.50515 0.50291 0.84299
 H90 H 0.50716 0.44633 0.76310
 C91 C 0.52781 -0.01376 0.67640
 C92 C 0.54844 0.02160 0.69096
 C93 C 0.54887 0.02214 0.72159
 C94 C 0.52641 -0.01198 0.73806
 C95 C 0.50565 -0.04729 0.72283
 C96 C 0.50628 -0.04864 0.69206
 C97 C 0.52303 -0.01041 0.77080
 C98 C 0.51368 -0.04352 0.78833
 C99 C 0.50600 -0.04357 0.81855
 C100 C 0.51281 -0.00835 0.83195
 C101 C 0.52453 0.02553 0.81526
 C102 C 0.52759 0.02385 0.78477
 H103 H 0.53030 -0.01372 0.65281
 H104 H 0.56626 0.04954 0.73234
 H105 H 0.48741 -0.07382 0.73470
 H106 H 0.51088 -0.06997 0.77842
 H107 H 0.50976 -0.00671 0.85543
 H108 H 0.53397 0.04969 0.77221
 O109 O 0.38662 0.65940 0.97135
 O110 O 0.38174 0.72406 0.97406
 C111 C 0.35595 0.72682 0.95907
 O112 O 0.31987 0.70741 0.96466
 O113 O 0.25859 0.64161 0.97649
 C114 C 0.25627 0.61022 0.96605
 O115 O 0.27622 0.59442 0.97515
 O116 O 0.34438 0.60020 0.98738
 C117 C 0.37179 0.62269 0.97035
 O118 O 0.39007 0.65808 1.03034
 O119 O 0.38085 0.72061 1.03286
 C120 C 0.35879 0.73636 1.03606
 O121 O 0.32768 0.72622 1.02182
 O122 O 0.26678 0.65991 1.03411
 C123 C 0.25191 0.62476 1.04226
 O124 O 0.26253 0.60092 1.03190
 O125 O 0.33207 0.61035 1.04417
 C126 C 0.36844 0.63068 1.04762
 Cr127 Cr 0.38266 0.68931 1.00222
 Cr128 Cr 0.29451 0.68279 0.99947
 Cr129 Cr 0.30473 0.60369 1.00945
 O130 O 0.32720 0.65868 1.00372
 O131 O 0.62214 0.33974 0.95463
 O132 O 0.61544 0.27020 0.96172
 C133 C 0.64258 0.26298 0.95286
 O134 O 0.67594 0.27800 0.96412
 O135 O 0.73789 0.33875 0.98231
 C136 C 0.74768 0.37125 0.96971
 O137 O 0.72944 0.39087 0.97340
 O138 O 0.66451 0.39601 0.97396
 C139 C 0.64061 0.37646 0.95432
 O140 O 0.60177 0.34095 1.01144
 O141 O 0.59840 0.27283 1.01853
 C142 C 0.61443 0.25316 1.02764
 O143 O 0.64853 0.25939 1.01976
 O144 O 0.70990 0.32046 1.03781
 C145 C 0.72736 0.35551 1.04571
 O146 O 0.72511 0.38260 1.03193
 O147 O 0.65759 0.38268 1.03209
 C148 C 0.62069 0.36607 1.03078
 Cr149 Cr 0.61161 0.30696 0.98694
 Cr150 Cr 0.69199 0.30036 1.00083
 Cr151 Cr 0.69307 0.38588 1.00264
 O152 O 0.66556 0.33089 0.99685
 O153 O 0.66400 0.36686 0.53913
 O154 O 0.73378 0.37171 0.53834
 C155 C 0.73887 0.34594 0.55155
 O156 O 0.72381 0.31106 0.54332
 O157 O 0.66467 0.24782 0.52622
 C158 C 0.62995 0.23891 0.53425
 O159 O 0.61115 0.25570 0.52471
 O160 O 0.60914 0.32156 0.51934
 C161 C 0.62710 0.34790 0.53808
 O162 O 0.66984 0.38067 0.48139
 O163 O 0.73683 0.38024 0.47989
 C164 C 0.75657 0.36233 0.47515
 O165 O 0.74929 0.33024 0.48736
 O166 O 0.68952 0.26666 0.47020
 C167 C 0.65651 0.25148 0.45838
 O168 O 0.62836 0.25701 0.46729
 O169 O 0.62871 0.32395 0.46206
 C170 C 0.64565 0.36073 0.46211
 Cr171 Cr 0.70014 0.37262 0.50947
 Cr172 Cr 0.70557 0.29010 0.50660
 Cr173 Cr 0.62156 0.29063 0.49374
 O174 O 0.67573 0.31760 0.50327
 O175 O 0.32385 0.60628 0.52447
 O176 O 0.25924 0.61101 0.51699
 C177 C 0.25264 0.63392 0.53329
 O178 O 0.27166 0.67069 0.53121
 O179 O 0.33738 0.73533 0.52598
 C180 C 0.36580 0.73748 0.54055
 O181 O 0.38340 0.71781 0.53447
 O182 O 0.38478 0.65365 0.51860
 C183 C 0.35985 0.62216 0.53027
 O184 O 0.33774 0.61373 0.46579
 O185 O 0.27467 0.62040 0.45881
 C186 C 0.25772 0.64120 0.45606
 O187 O 0.26341 0.66913 0.47297
 O188 O 0.33065 0.73151 0.46742
 C189 C 0.36741 0.74848 0.46388
 O190 O 0.38976 0.73918 0.47789
 O191 O 0.38804 0.67355 0.46228
 C192 C 0.36895 0.63880 0.45341
 Cr193 Cr 0.30002 0.61499 0.49176
 Cr194 Cr 0.30183 0.70046 0.49931
 Cr195 Cr 0.38429 0.69503 0.49827
 O196 O 0.32868 0.67006 0.49649
 C197 C 0.49257 0.55077 0.34065
 C198 C 0.46879 0.56723 0.33280
 C199 C 0.45799 0.58902 0.35432
 N200 N 0.42262 0.58798 0.35306
 N201 N 0.41137 0.60528 0.37357
 C202 C 0.43529 0.62470 0.39591
 N203 N 0.47105 0.62657 0.39677
 N204 N 0.48211 0.60884 0.37646
 C205 C 0.42222 0.64191 0.41961
 C206 C 0.38294 0.62596 0.42758
 H207 H 0.45348 0.55982 0.31232
 H208 H 0.44389 0.66456 0.43289
 H209 H 0.50287 0.55536 0.36296
 H210 H 0.36194 0.60059 0.41609
 C211 C 0.44516 0.93379 0.32648
 C212 C 0.45691 0.92512 0.35287
 C213 C 0.43276 0.89062 0.37071
 N214 N 0.44897 0.88257 0.39395
 N215 N 0.42809 0.85171 0.41075
 C216 C 0.39006 0.82769 0.40511
 N217 N 0.37358 0.83588 0.38196
 N218 N 0.39460 0.86680 0.36500
 C219 C 0.36743 0.79333 0.42380
 C220 C 0.38662 0.78144 0.44364
 H221 H 0.48603 0.94376 0.36054
 H222 H 0.33612 0.77713 0.42163
 H223 H 0.41760 0.91328 0.31730
 H224 H 0.41815 0.79697 0.44431
 C225 C 0.07219 0.54653 0.32077
 C226 C 0.08031 0.56044 0.34944
 C227 C 0.11784 0.57324 0.36369
 N228 N 0.12526 0.59585 0.38774
 N229 N 0.15755 0.60599 0.40272
 C230 C 0.18366 0.59364 0.39447
 N231 N 0.17627 0.57081 0.37037
 N232 N 0.14391 0.56084 0.35515
 C233 C 0.21831 0.60374 0.41237
 C234 C 0.22862 0.63280 0.43338
 H235 H 0.05899 0.56513 0.36199
 H236 H 0.23461 0.58765 0.40985
 H237 H 0.09622 0.54943 0.30673
 H238 H 0.21317 0.64989 0.43420
 C239 C 0.53531 0.45113 0.33408
 C240 C 0.55408 0.45964 0.36102
 C241 C 0.56860 0.43499 0.37488
 N242 N 0.59383 0.44969 0.39721
 N243 N 0.60651 0.42787 0.41101
 C244 C 0.59430 0.39032 0.40320
 N245 N 0.56888 0.37544 0.38087
 N246 N 0.55635 0.39743 0.36686
 C247 C 0.60696 0.36583 0.41975
 C248 C 0.63659 0.38259 0.44010
 H249 H 0.56102 0.48668 0.37200
 H250 H 0.59169 0.33460 0.41706
 H251 H 0.53396 0.42649 0.32203
 H252 H 0.65228 0.41398 0.44168
 C253 C 0.54754 0.07162 0.32100
 C254 C 0.55797 0.07472 0.35036
 C255 C 0.57712 0.11233 0.36524
 N256 N 0.59874 0.11639 0.38923
 N257 N 0.61350 0.14927 0.40446
 C258 C 0.60670 0.17910 0.39649
 N259 N 0.58497 0.17502 0.37254
 N260 N 0.57065 0.14231 0.35705
 C261 C 0.61934 0.21363 0.41505
 C262 C 0.65013 0.22433 0.43420
 H263 H 0.55273 0.04919 0.36292
 H264 H 0.60291 0.22972 0.41471
 H265 H 0.55997 0.09800 0.30792
 H266 H 0.66886 0.21071 0.43245
 C267 C 0.93011 0.49134 0.33301
 C268 C 0.92838 0.47501 0.36059
 C269 C 0.89311 0.45748 0.37911
 N270 N 0.89189 0.43519 0.40221
 N271 N 0.86070 0.41941 0.41985
 C272 C 0.82960 0.42557 0.41519
 N273 N 0.83084 0.44811 0.39217
 N274 N 0.86204 0.46375 0.37436
 C275 C 0.79537 0.40854 0.43492
 C276 C 0.79016 0.37950 0.45493
 H277 H 0.95279 0.47183 0.36855
 H278 H 0.77358 0.41838 0.43326
 H279 H 0.90319 0.48836 0.32403
 H280 H 0.81069 0.36792 0.45513
 C281 C 0.53818 0.46505 1.17738
 C282 C 0.52521 0.44581 1.15081
 C283 C 0.54876 0.43379 1.13193
 N284 N 0.53253 0.41211 1.10785
 N285 N 0.55337 0.40154 1.08999
 C286 C 0.59133 0.41238 1.09545
 N287 N 0.60764 0.43414 1.11954
 N288 N 0.58673 0.44463 1.13749
 C289 C 0.61476 0.40141 1.07544
 C290 C 0.59806 0.37658 1.05183
 H291 H 0.49617 0.43845 1.14359
 H292 H 0.64564 0.41307 1.07936
 H293 H 0.56573 0.46916 1.18585
 H294 H 0.56696 0.36411 1.04857
 C295 C 0.91191 0.48079 1.17633
 C296 C 0.90678 0.46055 1.15021
 C297 C 0.86950 0.44327 1.13489
 N298 N 0.86121 0.41384 1.11573
 N299 N 0.82866 0.39959 1.10030
 C300 C 0.80343 0.41458 1.10318
 N301 N 0.81181 0.44415 1.12224
 N302 N 0.84412 0.45806 1.13798
 C303 C 0.76949 0.40150 1.08413
 C304 C 0.75347 0.36521 1.07078
 H305 H 0.93083 0.45722 1.14072
 H306 H 0.75813 0.42151 1.07942
 H307 H 0.88681 0.48006 1.18767
 H308 H 0.76255 0.34407 1.07758
 C309 C 0.52814 0.06999 1.16540
 C310 C 0.51768 0.07383 1.13708
 C311 C 0.54089 0.10878 1.11938
 N312 N 0.52518 0.11641 1.09558
 N313 N 0.54647 0.14722 1.07873
 C314 C 0.58439 0.17123 1.08485
 N315 N 0.60022 0.16339 1.10849
 N316 N 0.57880 0.13281 1.12554
 C317 C 0.60834 0.20464 1.06591
 C318 C 0.59139 0.22081 1.04766
 H319 H 0.49192 0.05065 1.12756
 H320 H 0.63978 0.21744 1.06697
 H321 H 0.55115 0.09499 1.17592
 H322 H 0.56013 0.21011 1.04866
 C323 C 0.44136 0.51597 1.18552
 C324 C 0.45528 0.54032 1.16108
 C325 C 0.43228 0.55461 1.14468
 N326 N 0.45056 0.58278 1.12425
 N327 N 0.43045 0.59491 1.10775
 C328 C 0.39115 0.57918 1.11089
 N329 N 0.37275 0.55096 1.13140
 N330 N 0.39296 0.53894 1.14808
 C331 C 0.36877 0.59095 1.09119
 C332 C 0.38783 0.62185 1.07163
 H333 H 0.48503 0.54991 1.15359
 H334 H 0.33733 0.57405 1.09106
 H335 H 0.41338 0.50957 1.19533
 H336 H 0.41919 0.63919 1.07268
 C337 C 0.05488 0.57204 1.16726
 C338 C 0.06216 0.55766 1.14120
 C339 C 0.09919 0.57763 1.12478
 N340 N 0.10898 0.55734 1.10515
 N341 N 0.14258 0.57451 1.09023
 C342 C 0.16759 0.61272 1.09421
 N343 N 0.15761 0.63325 1.11359
 N344 N 0.12407 0.61595 1.12876
 C345 C 0.20440 0.63162 1.07723
 C346 C 0.21951 0.60932 1.06367
 H347 H 0.04134 0.52905 1.13382
 H348 H 0.21921 0.66295 1.07498
 H349 H 0.07749 0.59869 1.17626
 H350 H 0.20555 0.57828 1.06773
 C351 C 0.46848 0.92489 1.16848
 C352 C 0.44831 0.91754 1.14234
 C353 C 0.43520 0.88111 1.12606
 N354 N 0.41010 0.87351 1.10379
 N355 N 0.39863 0.84128 1.08808
 C356 C 0.41204 0.81551 1.09389
 N357 N 0.43735 0.82316 1.11610
 N358 N 0.44866 0.85536 1.13199
 C359 C 0.40026 0.78047 1.07590
 C360 C 0.36964 0.76891 1.05643
 H361 H 0.44094 0.93908 1.13365
 H362 H 0.41592 0.76375 1.07788
 H363 H 0.47232 0.90196 1.17885
 H364 H 0.35285 0.78465 1.05582
 C365 C 0.53385 0.46091 0.66404
 C366 C 0.52166 0.43628 0.63997
 C367 C 0.54714 0.42340 0.62467
 N368 N 0.53205 0.39553 0.60393
 N369 N 0.55467 0.38370 0.58953
 C370 C 0.59326 0.39936 0.59527
 N371 N 0.60843 0.42734 0.61599
 N372 N 0.58574 0.43909 0.63050
 C373 C 0.61858 0.38738 0.57858
 C374 C 0.60306 0.35716 0.55848
 H375 H 0.49193 0.42471 0.63267
 H376 H 0.64981 0.40345 0.58134
 H377 H 0.56246 0.46950 0.67283
 H378 H 0.57173 0.34078 0.55636
 C379 C 0.56945 0.05815 0.67408
 C380 C 0.55327 0.06474 0.64904
 C381 C 0.57344 0.09943 0.63044
 N382 N 0.55321 0.10691 0.60973
 N383 N 0.57107 0.13724 0.59175
 C384 C 0.60996 0.16106 0.59364
 N385 N 0.63027 0.15353 0.61431
 N386 N 0.61233 0.12332 0.63246
 C387 C 0.63019 0.19380 0.57318
 C388 C 0.60994 0.20703 0.55542
 H389 H 0.52412 0.04368 0.64291
 H390 H 0.66175 0.20817 0.57238
 H391 H 0.59664 0.08082 0.68227
 H392 H 0.57855 0.19448 0.55772
 C393 C 0.92310 0.48320 0.67939
 C394 C 0.91799 0.46033 0.65469
 C395 C 0.88062 0.44127 0.63953
 N396 N 0.87294 0.41084 0.62151
 N397 N 0.84018 0.39475 0.60633
 C398 C 0.81408 0.40876 0.60835
 N399 N 0.82183 0.43930 0.62628
 N400 N 0.85438 0.45510 0.64175
 C401 C 0.77977 0.39358 0.58954
 C402 C 0.76546 0.35724 0.57641
 H403 H 0.94203 0.45613 0.64630
 H404 H 0.76681 0.41222 0.58473
 H405 H 0.89798 0.48362 0.68978
 H406 H 0.77631 0.33746 0.58313
 C407 C 0.42816 0.50080 0.66497
 C408 C 0.43806 0.51738 0.63707
 C409 C 0.41464 0.53045 0.62001
 N410 N 0.43056 0.55087 0.59511
 N411 N 0.41089 0.56385 0.57901
 C412 C 0.37434 0.55682 0.58702
 N413 N 0.35796 0.53578 0.61177
 N414 N 0.37784 0.52287 0.62807
 C415 C 0.35381 0.57294 0.56929
 C416 C 0.37553 0.60385 0.55034
 H417 H 0.46601 0.52339 0.62743
 H418 H 0.32257 0.56158 0.57161
 H419 H 0.40222 0.49837 0.67609
 H420 H 0.40703 0.61637 0.55032
 C421 C 0.48583 0.91534 0.67783
 C422 C 0.47629 0.91195 0.64822
 C423 C 0.45753 0.87469 0.63279
 N424 N 0.43763 0.87223 0.60816
 N425 N 0.42194 0.83961 0.59272
 C426 C 0.42592 0.80824 0.60106
 N427 N 0.44621 0.81072 0.62560
 N428 N 0.46161 0.84337 0.64130
 C429 C 0.40947 0.77287 0.58299
 C430 C 0.37917 0.76623 0.56418
 H431 H 0.48002 0.93711 0.63588
 H432 H 0.42181 0.75304 0.58373
 H433 H 0.47534 0.88886 0.69064
 H434 H 0.36559 0.78501 0.56565
 C435 C 0.06600 0.57047 0.67123
 C436 C 0.07028 0.56186 0.64201
 C437 C 0.10730 0.58168 0.62538
 N438 N 0.11231 0.56497 0.60068
 N439 N 0.14530 0.58224 0.58501
 C440 C 0.17452 0.61709 0.59327
 N441 N 0.16943 0.63408 0.61786
 N442 N 0.13647 0.61660 0.63373
 C443 C 0.21064 0.63652 0.57541
 C444 C 0.22001 0.61588 0.55448
 H445 H 0.04701 0.53758 0.63122
 H446 H 0.22976 0.66720 0.57858
 H447 H 0.09176 0.59190 0.68206
 H448 H 0.20180 0.58475 0.55291
 C449 C 0.47328 0.54645 0.82189
 C450 C 0.45670 0.53546 0.84982
 C451 C 0.44501 0.55895 0.86864
 N452 N 0.42630 0.54342 0.89430
 N453 N 0.41574 0.56382 0.91233
 C454 C 0.42359 0.60068 0.90553
 N455 N 0.44257 0.61646 0.87986
 N456 N 0.45312 0.59592 0.86168
 C457 C 0.41124 0.62272 0.92564
 C458 C 0.38678 0.60400 0.94949
 H459 H 0.45110 0.50743 0.85846
 H460 H 0.42035 0.65312 0.92131
 H461 H 0.47534 0.57244 0.81171
 H462 H 0.37651 0.57314 0.95262
 C463 C 0.07940 0.55416 0.82706
 C464 C 0.08427 0.53705 0.85231
 C465 C 0.12006 0.55540 0.86942
 N466 N 0.12668 0.53476 0.89042
 N467 N 0.15742 0.55188 0.90767
 C468 C 0.18240 0.59039 0.90475
 N469 N 0.17578 0.61103 0.88376
 N470 N 0.14526 0.59383 0.86632
 C471 C 0.21442 0.61037 0.92523
 C472 C 0.22807 0.59041 0.94289
 H473 H 0.06061 0.51007 0.86040
 H474 H 0.22728 0.64171 0.92673
 H475 H 0.10434 0.57857 0.81712
 H476 H 0.21787 0.55960 0.93965
 C477 C 0.49132 0.92122 0.83430
 C478 C 0.47070 0.91468 0.86088
 C479 C 0.45325 0.87685 0.87592
 N480 N 0.42135 0.86656 0.89347
 N481 N 0.40570 0.83295 0.90801
 C482 C 0.42163 0.80852 0.90579
 N483 N 0.45374 0.81892 0.88840
 N484 N 0.46910 0.85234 0.87351
 C485 C 0.40639 0.77299 0.92374
 C486 C 0.36845 0.75562 0.93521
 H487 H 0.46334 0.93632 0.86966
 H488 H 0.42593 0.76128 0.92908
 H489 H 0.49240 0.89657 0.82402
 H490 H 0.34794 0.76512 0.92772
 C491 C 0.52499 0.45031 0.81950
 C492 C 0.55095 0.46585 0.84244
 C493 C 0.56607 0.44346 0.85869
 N494 N 0.59380 0.46158 0.87899
 N495 N 0.60679 0.44164 0.89493
 C496 C 0.59248 0.40277 0.89122
 N497 N 0.56483 0.38461 0.87081
 N498 N 0.55190 0.40460 0.85477
 C499 C 0.60481 0.38018 0.91015
 C500 C 0.63316 0.39818 0.93125
 H501 H 0.56101 0.49586 0.84868
 H502 H 0.58968 0.34879 0.90864
 H503 H 0.51784 0.42159 0.81140
 H504 H 0.64863 0.42961 0.93229
 C505 C 0.93501 0.50344 0.83636
 C506 C 0.92926 0.48017 0.86100
 C507 C 0.89333 0.46418 0.87902
 N508 N 0.88742 0.43702 0.89973
 N509 N 0.85529 0.42232 0.91651
 C510 C 0.82792 0.43439 0.91332
 N511 N 0.83390 0.46173 0.89271
 N512 N 0.86598 0.47631 0.87579
 C513 C 0.79255 0.41871 0.93205
 C514 C 0.78247 0.38676 0.95042
 H515 H 0.95133 0.47192 0.86678
 H516 H 0.77378 0.43228 0.93102
 H517 H 0.91144 0.50856 0.82896
 H518 H 0.80031 0.37210 0.95035
 C519 C 0.53392 0.06296 0.82954
 C520 C 0.55682 0.07460 0.85443
 C521 C 0.56855 0.11216 0.86889
 N522 N 0.59908 0.12605 0.88731
 N523 N 0.60952 0.15929 0.90150
 C524 C 0.58962 0.17983 0.89802
 N525 N 0.55890 0.16587 0.87969
 N526 N 0.54868 0.13274 0.86522
 C527 C 0.59951 0.21517 0.91534
 C528 C 0.63501 0.23416 0.92961
 H529 H 0.56834 0.05615 0.86290
 H530 H 0.57787 0.22515 0.91808
 H531 H 0.52610 0.08307 0.81887
 H532 H 0.65726 0.22534 0.92523
   
