data_POSCAR
  _audit_creation_date              2014-09-24
  _audit_creation_method            'ToBaCCo'
  _symmetry_space_group_name_H-M    'P1'
  _symmetry_Int_Tables_number       1
  _symmetry_cell_setting            triclinic
  loop_
  _symmetry_equiv_pos_as_xyz
 x,y,z
_cell_length_a 32.8590
_cell_length_b 32.8439
_cell_length_c 32.8638
_cell_angle_alpha 90.062100
_cell_angle_beta 90.070700
_cell_angle_gamma 89.924100
loop_
  _atom_site_label
  _atom_site_type_symbol
  _atom_site_fract_x
  _atom_site_fract_y
  _atom_site_fract_z
C1 C -0.05687 0.50758 0.26438
 C2 C -0.01819 0.51551 0.24818
 C3 C -0.01037 0.55307 0.22950
 C4 C -0.04142 0.58236 0.22539
 C5 C -0.08030 0.57347 0.24124
 C6 C -0.08830 0.53657 0.26152
 C7 C 0.01383 0.48394 0.25022
 C8 C 0.00624 0.44492 0.23447
 C9 C 0.03578 0.41411 0.23720
 C10 C 0.07277 0.42260 0.25692
 C11 C 0.08098 0.46163 0.27247
 C12 C 0.05156 0.49240 0.26841
 H13 H -0.06216 0.47864 0.27927
 H14 H 0.01969 0.55873 0.21723
 H15 H -0.02272 0.43877 0.21992
 H16 H 0.05729 0.52247 0.28074
 H17 H -0.10436 0.59588 0.23860
 H18 H 0.09573 0.39903 0.25939
 C19 C -0.05179 0.49052 0.73171
 C20 C -0.01439 0.48390 0.75126
 C21 C -0.00603 0.44593 0.76897
 C22 C -0.03468 0.41414 0.76699
 C23 C -0.07152 0.42105 0.74606
 C24 C -0.08039 0.45901 0.72848
 C25 C 0.01669 0.51629 0.75162
 C26 C 0.00784 0.55450 0.76860
 C27 C 0.03672 0.58612 0.76751
 C28 C 0.07443 0.57869 0.74846
 C29 C 0.08382 0.54046 0.73161
 C30 C 0.05477 0.50927 0.73367
 H31 H -0.05788 0.51981 0.71781
 H32 H 0.02291 0.44145 0.78419
 H33 H -0.02167 0.55932 0.78250
 H34 H 0.06120 0.47972 0.72043
 H35 H -0.09393 0.39699 0.74393
 H36 H 0.09697 0.60267 0.74711
 C37 C 0.26819 -0.05357 0.50780
 C38 C 0.24981 -0.01550 0.51427
 C39 C 0.23271 -0.00636 0.55228
 C40 C 0.23420 -0.03479 0.58405
 C41 C 0.25384 -0.07227 0.57757
 C42 C 0.27101 -0.08222 0.53955
 C43 C 0.24995 0.01541 0.48168
 C44 C 0.23298 0.00657 0.44348
 C45 C 0.23421 0.03541 0.41182
 C46 C 0.25343 0.07306 0.41919
 C47 C 0.27025 0.08247 0.45741
 C48 C 0.26806 0.05345 0.48863
 H49 H 0.28148 -0.06003 0.47832
 H50 H 0.21831 0.02298 0.55697
 H51 H 0.21887 -0.02287 0.43872
 H52 H 0.28123 0.05992 0.51818
 H53 H 0.25506 -0.09407 0.60225
 H54 H 0.25487 0.09558 0.39520
 C55 C 0.73556 -0.05671 0.49377
 C56 C 0.75218 -0.01811 0.48613
 C57 C 0.77152 -0.01042 0.44891
 C58 C 0.77570 -0.04150 0.41987
 C59 C 0.75945 -0.08020 0.42820
 C60 C 0.73860 -0.08815 0.46476
 C61 C 0.74984 0.01395 0.51760
 C62 C 0.76565 0.00659 0.55661
 C63 C 0.76259 0.03615 0.58754
 C64 C 0.74219 0.07289 0.57876
 C65 C 0.72674 0.08084 0.53966
 C66 C 0.73126 0.05143 0.50900
 H67 H 0.72022 -0.06194 0.52247
 H68 H 0.78431 0.01943 0.44322
 H69 H 0.78051 -0.02229 0.56250
 H70 H 0.71897 0.05696 0.47889
 H71 H 0.76227 -0.10396 0.40550
 H72 H 0.73907 0.09601 0.60208
 C73 C 0.49068 0.26750 1.05121
 C74 C 0.48410 0.24793 1.01382
 C75 C 0.44615 0.23018 1.00546
 C76 C 0.41435 0.23216 1.03409
 C77 C 0.42124 0.25312 1.07091
 C78 C 0.45916 0.27073 1.07980
 C79 C 0.51650 0.24757 0.98276
 C80 C 0.55466 0.23048 0.99159
 C81 C 0.58633 0.23164 0.96278
 C82 C 0.57900 0.25089 0.92515
 C83 C 0.54082 0.26784 0.91575
 C84 C 0.50957 0.26569 0.94473
 H85 H 0.51994 0.28142 1.05731
 H86 H 0.44169 0.21494 0.97652
 H87 H 0.55941 0.21644 1.02106
 H88 H 0.48007 0.27901 0.93831
 H89 H 0.39718 0.25524 1.09331
 H90 H 0.60301 0.25229 0.90266
 C91 C 0.50616 0.73803 1.05523
 C92 C 0.51464 0.75394 1.01655
 C93 C 0.55259 0.77195 1.00898
 C94 C 0.58177 0.77548 1.04025
 C95 C 0.57237 0.75965 1.07902
 C96 C 0.53503 0.74039 1.08660
 C97 C 0.48337 0.75201 0.98425
 C98 C 0.44441 0.76808 0.99140
 C99 C 0.41351 0.76498 0.96183
 C100 C 0.42229 0.74438 0.92523
 C101 C 0.46134 0.72870 0.91745
 C102 C 0.49196 0.73320 0.94689
 H103 H 0.47701 0.72364 1.06071
 H104 H 0.55869 0.78408 0.97895
 H105 H 0.43850 0.78307 1.02020
 H106 H 0.52199 0.72063 0.94152
 H107 H 0.59453 0.76141 1.10338
 H108 H 0.39899 0.74122 0.90210
 B109 B 1.00186 1.04100 0.02612
 B110 B 1.02721 0.99806 0.04021
 B111 B 0.97590 0.99958 0.04179
 B112 B 0.95914 1.02675 0.00126
 B113 B 1.00058 1.04227 -0.02550
 B114 B 1.04251 1.02473 -0.00135
 B115 B 0.99832 0.95887 -0.02761
 B116 B 0.97319 1.00151 -0.04171
 B117 B 1.02481 1.00045 -0.04316
 B118 B 1.04132 0.97310 -0.00249
 B119 B 1.00007 0.95741 0.02367
 B120 B 0.95778 0.97542 -0.00030
 B121 B 0.54132 0.50005 0.47135
 B122 B 0.49995 0.52808 0.45805
 B123 B 0.49812 0.47655 0.45610
 B124 B 0.52470 0.45791 0.49621
 B125 B 0.54334 0.49824 0.52283
 B126 B 0.52797 0.54145 0.49936
 B127 B 0.45980 0.50122 0.52594
 B128 B 0.50122 0.47356 0.53962
 B129 B 0.50321 0.52478 0.54151
 B130 B 0.47648 0.54339 0.50127
 B131 B 0.45786 0.50324 0.47473
 B132 B 0.47350 0.45982 0.49824
 C133 C 1.01756 1.30003 0.18227
 N134 N 0.99272 1.33187 0.17338
 N135 N 0.99806 1.36788 0.19133
 C136 C 1.02857 1.37353 0.21872
 N137 N 1.05324 1.34152 0.22769
 N138 N 1.04779 1.30547 0.20990
 C139 C 1.01280 1.26080 0.16128
 N140 N 1.03576 1.22818 0.17220
 N141 N 1.03253 1.19301 0.15220
 C142 C 1.00638 1.18924 0.12041
 N143 N 0.98331 1.22182 0.10957
 N144 N 0.98640 1.25693 0.12969
 C145 C 1.00409 1.15103 0.09725
 N146 N 0.98216 1.14898 0.06231
 N147 N 0.98133 1.11481 0.04048
 C148 C 1.00235 1.08137 0.05269
 N149 N 1.02376 1.08331 0.08798
 N150 N 1.02479 1.11752 0.10977
 C151 C 0.97843 0.69198 0.16725
 N152 N 0.94090 0.68175 0.18085
 N153 N 0.93474 0.64654 0.19975
 C154 C 0.96575 0.61978 0.20569
 N155 N 1.00345 0.63013 0.19197
 N156 N 1.00971 0.66559 0.17320
 C157 C 0.98410 0.73077 0.14587
 N158 N 1.02172 0.74520 0.13654
 N159 N 1.02590 0.78069 0.11719
 C160 C 0.99258 0.80273 0.10636
 N161 N 0.95515 0.78814 0.11565
 N162 N 0.95099 0.75296 0.13513
 C163 C 0.99590 0.84167 0.08478
 N164 N 0.96179 0.85914 0.06957
 N165 N 0.96356 0.89476 0.05063
 C166 C 0.99933 0.91475 0.04638
 N167 N 1.03372 0.89711 0.06126
 N168 N 1.03207 0.86116 0.08014
 C169 C 0.98549 1.30349 -0.17691
 N170 N 1.01270 1.33427 -0.17259
 N171 N 1.00655 1.36990 -0.19108
 C172 C 0.97281 1.37626 -0.21433
 N173 N 0.94584 1.34520 -0.21854
 N174 N 0.95208 1.30959 -0.20035
 C175 C 0.99106 1.26440 -0.15605
 N176 N 0.96571 1.23294 -0.16451
 N177 N 0.96931 1.19773 -0.14489
 C178 C 0.99825 1.19265 -0.11587
 N179 N 1.02379 1.22405 -0.10740
 N180 N 1.02032 1.25931 -0.12723
 C181 C 1.00058 1.15410 -0.09348
 N182 N 1.02551 1.14964 -0.06079
 N183 N 1.02584 1.11492 -0.03978
 C184 C 1.00128 1.08347 -0.05064
 N185 N 0.97691 1.08794 -0.08365
 N186 N 0.97642 1.12255 -0.10457
 C187 C 1.01446 0.69787 -0.17919
 N188 N 1.04854 0.69148 -0.20150
 N189 N 1.05548 0.65550 -0.21877
 C190 C 1.02856 0.62437 -0.21477
 N191 N 0.99415 0.63104 -0.19269
 N192 N 0.98733 0.66701 -0.17507
 C193 C 1.00812 0.73729 -0.15910
 N194 N 0.97932 0.74208 -0.12985
 N195 N 0.97534 0.77754 -0.11041
 C196 C 0.99984 0.80947 -0.11976
 N197 N 1.02828 0.80473 -0.14927
 N198 N 1.03244 0.76928 -0.16847
 C199 C 0.99718 0.84807 -0.09739
 N200 N 1.01919 0.88065 -0.10981
 N201 N 1.01877 0.91514 -0.08857
 C202 C 0.99661 0.91842 -0.05394
 N203 N 0.97428 0.88589 -0.04170
 N204 N 0.97448 0.85135 -0.06305
 C205 C 1.18032 1.01346 0.30035
 N206 N 1.17627 0.98628 0.33118
 N207 N 1.19410 0.99299 0.36705
 C208 C 1.21635 1.02731 0.37365
 N209 N 1.22031 1.05427 0.34254
 N210 N 1.20282 1.04744 0.30667
 C211 C 1.15995 1.00728 0.26106
 N212 N 1.16902 1.03182 0.22916
 N213 N 1.14958 1.02781 0.19385
 C214 C 1.12011 0.99930 0.18915
 N215 N 1.11106 0.97458 0.22100
 N216 N 1.13075 0.97841 0.25632
 C217 C 1.09750 0.99678 0.15070
 N218 N 1.06340 0.97372 0.14738
 N219 N 1.04189 0.97359 0.11295
 C220 C 1.05370 0.99636 0.08059
 N221 N 1.08810 1.01889 0.08391
 N222 N 1.10951 1.01923 0.11827
 C223 C 1.17744 0.98714 -0.30368
 N224 N 1.16827 1.01047 -0.33654
 N225 N 1.18678 1.00407 -0.37208
 C226 C 1.21497 0.97399 -0.37613
 N227 N 1.22419 0.95095 -0.34309
 N228 N 1.20587 0.95744 -0.30759
 C229 C 1.15617 0.99254 -0.26479
 N230 N 1.16733 0.97000 -0.23206
 N231 N 1.14730 0.97324 -0.19706
 C232 C 1.11524 0.99904 -0.19345
 N233 N 1.10410 1.02182 -0.22611
 N234 N 1.12426 1.01865 -0.26119
 C235 C 1.09256 1.00093 -0.15505
 N236 N 1.05851 1.02410 -0.15125
 N237 N 1.03753 1.02427 -0.11654
 C238 C 1.04976 1.00124 -0.08444
 N239 N 1.08400 0.97850 -0.08831
 N240 N 1.10494 0.97825 -0.12290
 C241 C 0.83609 0.97792 0.30907
 N242 N 0.82429 1.01011 0.33223
 N243 N 0.80527 1.00412 0.36758
 C244 C 0.79722 0.96577 0.38094
 N245 N 0.80914 0.93378 0.35763
 N246 N 0.82823 0.93972 0.32250
 C247 C 0.85705 0.98351 0.27006
 N248 N 0.87149 0.95048 0.24994
 N249 N 0.89026 0.95457 0.21439
 C250 C 0.89521 0.99184 0.19739
 N251 N 0.88076 1.02507 0.21742
 N252 N 0.86204 1.02097 0.25322
 C253 C 0.91588 0.99514 0.15798
 N254 N 0.91854 1.03101 0.13758
 N255 N 0.93699 1.03272 0.10143
 C256 C 0.95334 0.99865 0.08447
 N257 N 0.95089 0.96315 0.10526
 N258 N 0.93246 0.96134 0.14113
 C259 C 0.81639 1.01847 -0.30015
 N260 N 0.82092 0.99048 -0.33022
 N261 N 0.80303 0.99585 -0.36624
 C262 C 0.78015 1.02957 -0.37383
 N263 N 0.77559 1.05738 -0.34346
 N264 N 0.79323 1.05190 -0.30737
 C265 C 0.83731 1.01350 -0.26092
 N266 N 0.82906 1.03898 -0.22943
 N267 N 0.84904 1.03550 -0.19430
 C268 C 0.87820 1.00659 -0.18945
 N269 N 0.88640 0.98103 -0.22090
 N270 N 0.86623 0.98434 -0.25596
 C271 C 0.90145 1.00403 -0.15133
 N272 N 0.93515 0.98024 -0.14877
 N273 N 0.95718 0.97932 -0.11474
 C274 C 0.94640 1.00206 -0.08195
 N275 N 0.91228 1.02526 -0.08437
 N276 N 0.89034 1.02644 -0.11845
 C277 C 1.30377 1.17599 0.01396
 N278 N 1.33457 1.17159 -0.01320
 N279 N 1.37017 1.19010 -0.00707
 C280 C 1.37649 1.21345 0.02660
 N281 N 1.34541 1.21774 0.05354
 N282 N 1.30982 1.19953 0.04731
 C283 C 1.26468 1.15512 0.00839
 N284 N 1.23313 1.16381 0.03354
 N285 N 1.19792 1.14420 0.02994
 C286 C 1.19293 1.11497 0.00119
 N287 N 1.22443 1.10626 -0.02414
 N288 N 1.25968 1.12608 -0.02067
 C289 C 1.15437 1.09261 -0.00119
 N290 N 1.15010 1.05959 -0.02573
 N291 N 1.11536 1.03863 -0.02613
 C292 C 1.08369 1.04988 -0.00206
 N293 N 1.08798 1.08321 0.02196
 N294 N 1.12262 1.10407 0.02252
 C295 C 0.69794 1.17807 -0.01494
 N296 N 0.69167 1.20062 -0.04889
 N297 N 0.65573 1.21796 -0.05585
 C298 C 0.62452 1.21381 -0.02905
 N299 N 0.63107 1.19149 0.00523
 N300 N 0.66700 1.17379 0.01206
 C301 C 0.73735 1.15794 -0.00856
 N302 N 0.74199 1.12836 0.01993
 N303 N 0.77745 1.10893 0.02395
 C304 C 0.80954 1.11864 -0.00018
 N305 N 0.80494 1.14850 -0.02831
 N306 N 0.76949 1.16767 -0.03252
 C307 C 0.84817 1.09633 0.00254
 N308 N 0.88095 1.10927 -0.01885
 N309 N 0.91550 1.08810 -0.01842
 C310 C 0.91864 1.05305 0.00312
 N311 N 0.88590 1.04030 0.02482
 N312 N 0.85131 1.06156 0.02463
 C313 C 1.30104 0.81848 -0.02052
 N314 N 1.30831 0.79529 -0.05391
 N315 N 1.34448 0.77780 -0.05940
 C316 C 1.37487 0.78253 -0.03165
 N317 N 1.36724 0.80547 0.00200
 N318 N 1.33114 0.82321 0.00738
 C319 C 1.26168 0.83913 -0.01546
 N320 N 1.25661 0.86804 0.01367
 N321 N 1.22139 0.88792 0.01712
 C322 C 1.18988 0.87941 -0.00827
 N323 N 1.19484 0.85025 -0.03715
 N324 N 1.23013 0.83057 -0.04076
 C325 C 1.15156 0.90231 -0.00553
 N326 N 1.11863 0.89082 -0.02767
 N327 N 1.08434 0.91245 -0.02632
 C328 C 1.08175 0.94660 -0.00318
 N329 N 1.11460 0.95777 0.01928
 N330 N 1.14884 0.93605 0.01818
 C331 C 0.69220 0.83228 0.02131
 N332 N 0.68163 0.81855 0.05870
 N333 N 0.64618 0.80002 0.06457
 C334 C 0.61952 0.79461 0.03339
 N335 N 0.63023 0.80842 -0.00416
 N336 N 0.66591 0.82681 -0.01013
 C337 C 0.73118 0.85335 0.01588
 N338 N 0.74566 0.86286 -0.02165
 N339 N 0.78123 0.88205 -0.02570
 C340 C 0.80329 0.89258 0.00769
 N341 N 0.78866 0.88310 0.04506
 N342 N 0.75339 0.86376 0.04907
 C343 C 0.84226 0.91408 0.00439
 N344 N 0.85983 0.92926 0.03847
 N345 N 0.89542 0.94827 0.03658
 C346 C 0.91524 0.95258 0.00072
 N347 N 0.89750 0.93769 -0.03360
 N348 N 0.86160 0.91878 -0.03183
 C349 C 0.79973 0.51727 0.31524
 N350 N 0.83051 0.49018 0.32053
 N351 N 0.86644 0.49599 0.30266
 C352 C 0.87322 0.52935 0.27910
 N353 N 0.84214 0.55625 0.27382
 N354 N 0.80615 0.55028 0.29137
 C355 C 0.76058 0.51193 0.33610
 N356 N 0.72801 0.53526 0.32582
 N357 N 0.69290 0.53166 0.34573
 C358 C 0.68918 0.50483 0.37689
 N359 N 0.72172 0.48143 0.38712
 N360 N 0.75674 0.48480 0.36699
 C361 C 0.65108 0.50225 0.40007
 N362 N 0.65001 0.48257 0.43632
 N363 N 0.61590 0.48158 0.45812
 C364 C 0.58143 0.49982 0.44443
 N365 N 0.58252 0.51931 0.40804
 N366 N 0.61670 0.52064 0.38632
 C367 C 0.19134 0.48284 0.33307
 N368 N 0.17475 0.44507 0.33181
 N369 N 0.13985 0.43848 0.31237
 C370 C 0.11987 0.46948 0.29372
 N371 N 0.13635 0.50742 0.29515
 N372 N 0.17158 0.51396 0.31432
 C373 C 0.22985 0.48928 0.35484
 N374 N 0.25252 0.52342 0.34922
 N375 N 0.28795 0.52806 0.36861
 C376 C 0.30164 0.49888 0.39454
 N377 N 0.27877 0.46502 0.40026
 N378 N 0.24368 0.46023 0.38067
 C379 C 0.34074 0.50264 0.41587
 N380 N 0.34959 0.47642 0.44640
 N381 N 0.38557 0.47758 0.46480
 C382 C 0.41448 0.50460 0.45328
 N383 N 0.40542 0.53140 0.42310
 N384 N 0.36917 0.53048 0.40470
 C385 C 0.80930 0.47502 0.66583
 N386 N 0.82345 0.43722 0.67457
 N387 N 0.85839 0.43234 0.69445
 C388 C 0.88076 0.46501 0.70629
 N389 N 0.86666 0.50291 0.69736
 N390 N 0.83152 0.50784 0.67759
 C391 C 0.77051 0.47977 0.64411
 N392 N 0.75311 0.51697 0.63907
 N393 N 0.71755 0.52066 0.61978
 C394 C 0.69829 0.48729 0.60474
 N395 N 0.71582 0.45020 0.60968
 N396 N 0.75119 0.44651 0.62908
 C397 C 0.65902 0.49071 0.58367
 N398 N 0.64239 0.45750 0.56566
 N399 N 0.60660 0.46002 0.54689
 C400 C 0.58579 0.49570 0.54565
 N401 N 0.60259 0.52903 0.56346
 N402 N 0.63855 0.52662 0.58214
 C403 C 0.19653 0.52274 0.67388
 N404 N 0.18607 0.55964 0.68918
 N405 N 0.15045 0.56502 0.70760
 C406 C 0.12371 0.53378 0.71148
 N407 N 0.13427 0.49674 0.69618
 N408 N 0.17002 0.49130 0.67773
 C409 C 0.23574 0.51768 0.65306
 N410 N 0.24767 0.48102 0.63798
 N411 N 0.28320 0.47722 0.61869
 C412 C 0.30792 0.50997 0.61380
 N413 N 0.29594 0.54649 0.62895
 N414 N 0.26057 0.55026 0.64823
 C415 C 0.34678 0.50678 0.59203
 N416 N 0.36926 0.54070 0.58557
 N417 N 0.40429 0.53859 0.56550
 C418 C 0.41857 0.50257 0.55130
 N419 N 0.39591 0.46857 0.55758
 N420 N 0.36068 0.47057 0.57762
 C421 C 0.51486 0.68521 0.19999
 N422 N 0.54339 0.71473 0.19581
 N423 N 0.54936 0.73261 0.15996
 C424 C 0.52690 0.72189 0.12690
 N425 N 0.49800 0.69265 0.13129
 N426 N 0.49219 0.67457 0.16710
 C427 C 0.50986 0.66400 0.23902
 N428 N 0.48662 0.62996 0.24152
 N429 N 0.48359 0.60964 0.27646
 C430 C 0.50352 0.62274 0.31024
 N431 N 0.52647 0.65700 0.30784
 N432 N 0.52968 0.67718 0.27283
 C433 C 0.50138 0.59942 0.34829
 N434 N 0.51753 0.61440 0.38326
 N435 N 0.51652 0.59260 0.41742
 C436 C 0.49952 0.55494 0.41790
 N437 N 0.48349 0.54006 0.38285
 N438 N 0.48424 0.56188 0.34875
 C439 C 0.48292 0.66658 0.80799
 N440 N 0.44519 0.66777 0.82462
 N441 N 0.43850 0.68762 0.85928
 C442 C 0.46935 0.70679 0.87894
 N443 N 0.50727 0.70540 0.86245
 N444 N 0.51391 0.68582 0.82747
 C445 C 0.48943 0.64456 0.76964
 N446 N 0.52352 0.65017 0.74692
 N447 N 0.52815 0.63068 0.71153
 C448 C 0.49899 0.60468 0.69793
 N449 N 0.46520 0.59895 0.72087
 N450 N 0.46043 0.61862 0.75591
 C451 C 0.50268 0.58339 0.65880
 N452 N 0.47619 0.55315 0.64975
 N453 N 0.47730 0.53486 0.61371
 C454 C 0.50454 0.54620 0.58494
 N455 N 0.53161 0.57606 0.59422
 N456 N 0.53074 0.59436 0.63052
 C457 C 0.47505 0.33334 0.19016
 N458 N 0.43729 0.32449 0.17605
 N459 N 0.43245 0.30462 0.14109
 C460 C 0.46512 0.29292 0.11866
 N461 N 0.50299 0.30198 0.13273
 N462 N 0.50788 0.32173 0.16789
 C463 C 0.47976 0.35504 0.22898
 N464 N 0.51695 0.36027 0.24631
 N465 N 0.52060 0.37954 0.28188
 C466 C 0.48720 0.39439 0.30123
 N467 N 0.45012 0.38926 0.28378
 N468 N 0.44647 0.36987 0.24839
 C469 C 0.49059 0.41547 0.34050
 N470 N 0.45733 0.43327 0.35725
 N471 N 0.45983 0.45208 0.39302
 C472 C 0.49556 0.45356 0.41371
 N473 N 0.52893 0.43596 0.39680
 N474 N 0.52653 0.41724 0.36086
 C475 C 0.52334 0.32602 0.80320
 N476 N 0.49174 0.32162 0.82943
 N477 N 0.49712 0.30306 0.86513
 C478 C 0.53424 0.28816 0.87592
 N479 N 0.56565 0.29259 0.84948
 N480 N 0.56033 0.31114 0.81391
 C481 C 0.51830 0.34690 0.76401
 N482 N 0.55100 0.35237 0.73948
 N483 N 0.54720 0.37164 0.70410
 C484 C 0.51054 0.38615 0.69179
 N485 N 0.47767 0.38063 0.71622
 N486 N 0.48150 0.36136 0.75176
 C487 C 0.50725 0.40784 0.65288
 N488 N 0.47089 0.42150 0.63866
 N489 N 0.46875 0.44142 0.60337
 C490 C 0.50277 0.44831 0.58093
 N491 N 0.53896 0.43488 0.59554
 N492 N 0.54120 0.41493 0.63064
 C493 C 0.68409 0.80007 0.48311
 N494 N 0.70842 0.80645 0.45044
 N495 N 0.72619 0.84240 0.44477
 C496 C 0.72069 0.87346 0.47163
 N497 N 0.69666 0.86672 0.50464
 N498 N 0.67856 0.83084 0.51015
 C499 C 0.66308 0.76095 0.48816
 N500 N 0.63179 0.75719 0.51483
 N501 N 0.61159 0.72218 0.51799
 C502 C 0.62215 0.68956 0.49485
 N503 N 0.65370 0.69320 0.46849
 N504 N 0.67367 0.72830 0.46508
 C505 C 0.59897 0.65144 0.49727
 N506 N 0.61310 0.61693 0.47941
 N507 N 0.59145 0.58269 0.48068
 C508 C 0.55475 0.58166 0.49958
 N509 N 0.54067 0.61627 0.51727
 N510 N 0.56240 0.65044 0.51634
 C511 C 0.66562 0.19088 0.51774
 N512 N 0.68451 0.17102 0.48678
 N513 N 0.70379 0.13587 0.49354
 C514 C 0.70520 0.11957 0.53154
 N515 N 0.68637 0.13962 0.56237
 N516 N 0.66684 0.17445 0.55556
 C517 C 0.64387 0.22938 0.51109
 N518 N 0.61835 0.24359 0.54022
 N519 N 0.59885 0.27872 0.53528
 C520 C 0.60433 0.30127 0.50118
 N521 N 0.62992 0.28720 0.47190
 N522 N 0.64924 0.25172 0.47670
 C523 C 0.58314 0.34046 0.49730
 N524 N 0.59375 0.36839 0.46873
 N525 N 0.57550 0.40474 0.46767
 C526 C 0.54606 0.41441 0.49505
 N527 N 0.53508 0.38599 0.52280
 N528 N 0.55332 0.34991 0.52409
 C529 C 0.33065 0.80805 0.52413
 N530 N 0.31607 0.81921 0.56106
 N531 N 0.29656 0.85441 0.56581
 C532 C 0.29102 0.88019 0.53393
 N533 N 0.30573 0.86888 0.49689
 N534 N 0.32503 0.83345 0.49204
 C535 C 0.35255 0.76932 0.51957
 N536 N 0.36138 0.75392 0.48222
 N537 N 0.38107 0.71855 0.47861
 C538 C 0.39288 0.69756 0.51223
 N539 N 0.38417 0.71310 0.54948
 N540 N 0.36426 0.74823 0.55308
 C541 C 0.41459 0.65863 0.50881
 N542 N 0.43201 0.64174 0.54220
 N543 N 0.45125 0.60617 0.53966
 C544 C 0.45344 0.58578 0.50380
 N545 N 0.43623 0.60286 0.47031
 N546 N 0.41719 0.63865 0.47272
 C547 C 0.32740 0.19550 0.47541
 N548 N 0.32367 0.16886 0.50676
 N549 N 0.30546 0.13300 0.50121
 C550 C 0.29028 0.12243 0.46415
 N551 N 0.29406 0.14926 0.43298
 N552 N 0.31224 0.18501 0.43847
 C553 C 0.34787 0.23489 0.48064
 N554 N 0.35240 0.25999 0.44822
 N555 N 0.37133 0.29554 0.45218
 C556 C 0.38642 0.30746 0.48873
 N557 N 0.38183 0.28246 0.52132
 N558 N 0.36289 0.24675 0.51733
 C559 C 0.40786 0.34651 0.49214
 N560 N 0.42240 0.36018 0.52835
 N561 N 0.44225 0.39553 0.53055
 C562 C 0.44819 0.41854 0.49674
 N563 N 0.43381 0.40451 0.46069
 N564 N 0.41393 0.36936 0.45840
   
