data_POSCAR
  _audit_creation_date              2014-09-24
  _audit_creation_method            'ToBaCCo'
  _symmetry_space_group_name_H-M    'P1'
  _symmetry_Int_Tables_number       1
  _symmetry_cell_setting            triclinic
  loop_
  _symmetry_equiv_pos_as_xyz
 x,y,z
_cell_length_a 17.0055
_cell_length_b 16.1801
_cell_length_c 24.2514
_cell_angle_alpha 88.004700
_cell_angle_beta 92.579400
_cell_angle_gamma 87.807000
loop_
  _atom_site_label
  _atom_site_type_symbol
  _atom_site_fract_x
  _atom_site_fract_y
  _atom_site_fract_z
O1 O 0.15559 0.08834 0.03006
 O2 O -0.14231 -0.10032 0.03469
 O3 O -0.08205 0.14877 0.05956
 O4 O 0.09726 -0.16033 0.01590
 O5 O -0.11968 0.02694 0.07896
 O6 O 0.14691 -0.05677 0.05279
 O7 O -0.02534 -0.15114 0.05628
 O8 O 0.05624 0.12801 0.07338
 C9 C 0.12817 0.11634 0.07267
 C10 C -0.09712 -0.14340 0.07174
 C11 C -0.11248 0.09908 0.09277
 C12 C 0.13493 -0.13146 0.05561
 O13 O 0.13965 -0.08517 -0.05875
 O14 O -0.15750 0.11007 -0.01674
 O15 O 0.07703 0.16783 -0.03627
 O16 O -0.09857 -0.13901 -0.04878
 O17 O -0.14854 -0.01773 -0.06463
 O18 O 0.11868 0.06020 -0.07657
 O19 O 0.02435 -0.11626 -0.08477
 O20 O -0.06086 0.16214 -0.05388
 Co21 Co 0.12642 0.00142 -0.01189
 Co22 Co -0.12861 0.00447 0.00693
 Co23 Co -0.00253 0.13765 0.00943
 Co24 Co -0.00098 -0.12817 -0.01404
 O25 O -0.00142 0.00392 -0.00233
 C26 C 0.09363 -0.11011 -0.09560
 C27 C -0.13181 0.14983 -0.05613
 C28 C 0.10809 0.13635 -0.07711
 C29 C -0.13898 -0.08908 -0.07998
 O30 O 0.44265 0.37345 0.42563
 O31 O 0.52498 0.65209 0.44474
 O32 O 0.35224 0.55646 0.44724
 O33 O 0.61952 0.47607 0.42039
 O34 O 0.40206 0.66000 0.48424
 O35 O 0.58096 0.35388 0.43821
 O36 O 0.64208 0.60213 0.46660
 O37 O 0.34374 0.41107 0.46992
 C38 C 0.37070 0.38406 0.42691
 C39 C 0.59712 0.64593 0.42982
 C40 C 0.36437 0.63115 0.44450
 C41 C 0.61058 0.40475 0.40541
 O42 O 0.56164 0.33739 0.55193
 O43 O 0.47413 0.61452 0.58531
 O44 O 0.38107 0.43882 0.57632
 O45 O 0.64820 0.51666 0.56468
 O46 O 0.59717 0.63794 0.55032
 O47 O 0.42378 0.33189 0.53547
 O48 O 0.65759 0.39029 0.51463
 O49 O 0.35900 0.58454 0.55856
 Co50 Co 0.50234 0.36296 0.48918
 Co51 Co 0.50001 0.62778 0.51476
 Co52 Co 0.37293 0.49804 0.51176
 Co53 Co 0.62832 0.49647 0.49276
 O54 O 0.50090 0.49622 0.50205
 C55 C 0.63258 0.34960 0.55382
 C56 C 0.40468 0.60898 0.59574
 C57 C 0.39310 0.36289 0.57660
 C58 C 0.63796 0.58746 0.58093
 C59 C 0.18070 0.14256 0.11786
 C60 C 0.15159 0.18346 0.16285
 C61 C 0.20251 0.21667 0.20721
 C62 C 0.17154 0.27975 0.23912
 C63 C 0.21770 0.31349 0.28112
 C64 C 0.29576 0.28381 0.29253
 C65 C 0.32672 0.22070 0.26065
 C66 C 0.28055 0.18693 0.21868
 C67 C 0.34681 0.31721 0.33674
 C68 C 0.31787 0.35776 0.38191
 H69 H 0.08863 0.19620 0.16391
 H70 H 0.11164 0.30383 0.23102
 H71 H 0.19226 0.36353 0.30372
 H72 H 0.38662 0.19664 0.26874
 H73 H 0.30603 0.13688 0.19611
 H74 H 0.40979 0.30481 0.33542
 H75 H 0.24340 0.13295 0.11378
 H76 H 0.25517 0.36689 0.38628
 C77 C 0.87322 0.81235 0.13095
 C78 C 0.79840 0.82665 0.14933
 C79 C 0.77485 0.78911 0.20187
 C80 C 0.69894 0.80670 0.21946
 C81 C 0.67503 0.77206 0.26908
 C82 C 0.72696 0.71907 0.30198
 C83 C 0.80297 0.70174 0.28450
 C84 C 0.82686 0.73635 0.23487
 C85 C 0.70302 0.68049 0.35409
 C86 C 0.62740 0.69253 0.37157
 H87 H 0.75680 0.86725 0.12508
 H88 H 0.65803 0.84727 0.19475
 H89 H 0.61589 0.78676 0.28146
 H90 H 0.84384 0.66107 0.30917
 H91 H 0.88598 0.72158 0.22248
 H92 H 0.74478 0.64025 0.37847
 H93 H 0.88454 0.83508 0.10185
 H94 H 0.61569 0.66873 0.40020
 C95 C 0.81574 0.18038 0.89752
 C96 C 0.84530 0.21253 0.84899
 C97 C 0.79575 0.23119 0.79817
 C98 C 0.82288 0.28615 0.75802
 C99 C 0.77855 0.30400 0.70891
 C100 C 0.70655 0.26593 0.69867
 C101 C 0.67950 0.21085 0.73878
 C102 C 0.72382 0.19301 0.78789
 C103 C 0.65667 0.28499 0.64805
 C104 C 0.68563 0.31826 0.59963
 H105 H 0.90765 0.22388 0.84797
 H106 H 0.87818 0.31612 0.76495
 H107 H 0.80032 0.34886 0.67986
 H108 H 0.62418 0.18092 0.73187
 H109 H 0.70205 0.14818 0.81696
 H110 H 0.59439 0.27333 0.64920
 H111 H 0.75328 0.17226 0.90076
 H112 H 0.74800 0.32679 0.59617
 C113 C 0.11999 0.85801 0.85243
 C114 C 0.19883 0.84104 0.84300
 C115 C 0.22333 0.79474 0.79481
 C116 C 0.29856 0.80554 0.77526
 C117 C 0.32373 0.76184 0.73025
 C118 C 0.27438 0.70516 0.70455
 C119 C 0.19912 0.69441 0.72406
 C120 C 0.17395 0.73808 0.76909
 C121 C 0.29903 0.65868 0.65649
 C122 C 0.37790 0.64102 0.64755
 H123 H 0.24381 0.86169 0.87187
 H124 H 0.33756 0.84873 0.79441
 H125 H 0.38123 0.77397 0.71519
 H126 H 0.16014 0.65119 0.70492
 H127 H 0.11649 0.72587 0.78415
 H128 H 0.25418 0.63837 0.62738
 H129 H 0.07476 0.84239 0.82217
 H130 H 0.42290 0.65631 0.67808
 C131 C 0.13453 0.18468 0.88196
 C132 C 0.17500 0.15215 0.83767
 C133 C 0.21147 0.20233 0.79362
 C134 C 0.26438 0.16242 0.75934
 C135 C 0.30064 0.20638 0.71734
 C136 C 0.28432 0.29180 0.70817
 C137 C 0.23133 0.33171 0.74242
 C138 C 0.19509 0.28774 0.78446
 C139 C 0.32069 0.34181 0.66396
 C140 C 0.36441 0.30933 0.62145
 H141 H 0.18407 0.08552 0.83635
 H142 H 0.27831 0.09672 0.76533
 H143 H 0.34169 0.17288 0.69280
 H144 H 0.21734 0.39739 0.73637
 H145 H 0.15383 0.32108 0.80895
 H146 H 0.30976 0.40827 0.66370
 H147 H 0.12631 0.25095 0.88484
 H148 H 0.37506 0.24337 0.61890
 C149 C 0.82012 0.88541 0.86910
 C150 C 0.82788 0.80508 0.85034
 C151 C 0.78735 0.77752 0.79913
 C152 C 0.77884 0.69249 0.79242
 C153 C 0.74107 0.66372 0.74481
 C154 C 0.71180 0.71967 0.70235
 C155 C 0.72037 0.80469 0.70905
 C156 C 0.75817 0.83344 0.75663
 C157 C 0.67107 0.69229 0.65119
 C158 C 0.67867 0.61210 0.63216
 H159 H 0.86311 0.75943 0.87535
 H160 H 0.80071 0.64808 0.82449
 H161 H 0.73398 0.59787 0.74213
 H162 H 0.69851 0.84911 0.67699
 H163 H 0.76531 0.89929 0.75923
 H164 H 0.63590 0.73815 0.62630
 H165 H 0.78231 0.93145 0.84663
 H166 H 0.71640 0.56582 0.65446
 C167 C 0.16583 0.81447 0.10241
 C168 C 0.20044 0.84620 0.15020
 C169 C 0.22562 0.79533 0.20067
 C170 C 0.27479 0.83014 0.24097
 C171 C 0.29888 0.78538 0.28965
 C172 C 0.27347 0.70460 0.29954
 C173 C 0.22428 0.66980 0.25925
 C174 C 0.20019 0.71456 0.21057
 C175 C 0.29869 0.65369 0.34998
 C176 C 0.33345 0.68532 0.39775
 H177 H 0.20960 0.91211 0.15074
 H178 H 0.29523 0.89221 0.23459
 H179 H 0.33831 0.81419 0.31869
 H180 H 0.20384 0.60773 0.26563
 H181 H 0.16075 0.68575 0.18154
 H182 H 0.28945 0.58779 0.34943
 H183 H 0.15810 0.74879 0.09940
 H184 H 0.34127 0.75099 0.40078
 C185 C 0.85602 0.12257 0.13978
 C186 C 0.84963 0.20454 0.15613
 C187 C 0.80320 0.22854 0.20404
 C188 C 0.76526 0.30714 0.20336
 C189 C 0.71841 0.33051 0.24671
 C190 C 0.70960 0.27611 0.29252
 C191 C 0.74802 0.19767 0.29328
 C192 C 0.79460 0.17422 0.24982
 C193 C 0.66226 0.29900 0.34037
 C194 C 0.64374 0.38084 0.35290
 H195 H 0.87142 0.25337 0.12987
 H196 H 0.77052 0.35005 0.16854
 H197 H 0.68850 0.39073 0.24344
 H198 H 0.74282 0.15462 0.32802
 H199 H 0.82451 0.11390 0.25268
 H200 H 0.64780 0.25027 0.36955
 H201 H 0.82898 0.07526 0.16441
 H202 H 0.66264 0.43085 0.32656
   
