data_POSCAR
  _audit_creation_date              2014-09-24
  _audit_creation_method            'ToBaCCo'
  _symmetry_space_group_name_H-M    'P1'
  _symmetry_Int_Tables_number       1
  _symmetry_cell_setting            triclinic
  loop_
  _symmetry_equiv_pos_as_xyz
 x,y,z
_cell_length_a 50.0361
_cell_length_b 50.0360
_cell_length_c 40.2816
_cell_angle_alpha 89.935800
_cell_angle_beta 90.029200
_cell_angle_gamma 90.017500
loop_
  _atom_site_label
  _atom_site_type_symbol
  _atom_site_fract_x
  _atom_site_fract_y
  _atom_site_fract_z
C1 C 0.31881 -0.03567 0.25082
 C2 C 0.33334 -0.01304 0.24072
 C3 C 0.35093 -0.01486 0.21379
 C4 C 0.35434 -0.03910 0.19714
 C5 C 0.33969 -0.06156 0.20687
 C6 C 0.32188 -0.05992 0.23370
 C7 C 0.33342 0.01152 0.26071
 C8 C 0.35106 0.01327 0.28762
 C9 C 0.35469 0.03756 0.30419
 C10 C 0.34018 0.06010 0.29431
 C11 C 0.32235 0.05848 0.26751
 C12 C 0.31907 0.03422 0.25052
 H13 H 0.30577 -0.03449 0.27226
 H14 H 0.36286 0.00236 0.20678
 H15 H 0.36284 -0.00406 0.29464
 H16 H 0.30601 0.03315 0.22909
 H17 H 0.34264 -0.08041 0.19409
 H18 H 0.34319 0.07904 0.30687
 C19 C 0.18040 -0.03463 0.74848
 C20 C 0.16587 -0.01206 0.75864
 C21 C 0.14835 -0.01397 0.78565
 C22 C 0.14505 -0.03826 0.80231
 C23 C 0.15972 -0.06066 0.79248
 C24 C 0.17742 -0.05890 0.76559
 C25 C 0.16575 0.01257 0.73871
 C26 C 0.14809 0.01438 0.71181
 C27 C 0.14445 0.03872 0.69528
 C28 C 0.15898 0.06124 0.70517
 C29 C 0.17682 0.05955 0.73195
 C30 C 0.18011 0.03525 0.74890
 H31 H 0.19340 -0.03344 0.72701
 H32 H 0.13643 0.00321 0.79273
 H33 H 0.13631 -0.00294 0.70478
 H34 H 0.19319 0.03412 0.77031
 H35 H 0.15689 -0.07957 0.80520
 H36 H 0.15596 0.08021 0.69263
 C37 C 0.68190 0.46504 0.24952
 C38 C 0.66737 0.48763 0.25960
 C39 C 0.64968 0.48573 0.28644
 C40 C 0.64620 0.46142 0.30301
 C41 C 0.66087 0.43899 0.29325
 C42 C 0.67874 0.44074 0.26653
 C43 C 0.66738 0.51226 0.23968
 C44 C 0.64971 0.51418 0.21280
 C45 C 0.64621 0.53851 0.19629
 C46 C 0.66083 0.56095 0.20614
 C47 C 0.67868 0.55919 0.23290
 C48 C 0.68187 0.53488 0.24986
 H49 H 0.69501 0.46622 0.22816
 H50 H 0.63775 0.50292 0.29344
 H51 H 0.63780 0.49698 0.20573
 H52 H 0.69495 0.53369 0.27126
 H53 H 0.65790 0.42007 0.30589
 H54 H 0.65784 0.57989 0.19356
 C55 C 0.81927 0.46484 0.75141
 C56 C 0.83383 0.48737 0.74106
 C57 C 0.85134 0.48535 0.71407
 C58 C 0.85462 0.46100 0.69760
 C59 C 0.83991 0.43865 0.70762
 C60 C 0.82222 0.44051 0.73449
 C61 C 0.83396 0.51206 0.76078
 C62 C 0.85159 0.51397 0.78770
 C63 C 0.85517 0.53835 0.80409
 C64 C 0.84062 0.56082 0.79402
 C65 C 0.82282 0.55903 0.76721
 C66 C 0.81959 0.53468 0.75042
 H67 H 0.80627 0.46612 0.77287
 H68 H 0.86329 0.50249 0.70684
 H69 H 0.86337 0.49669 0.79488
 H70 H 0.80652 0.53348 0.72900
 H71 H 0.84271 0.41969 0.69505
 H72 H 0.84358 0.57982 0.80645
 C73 C 0.24271 0.39699 1.04453
 C74 C 0.25574 0.40973 1.01802
 C75 C 0.28035 0.42228 1.02333
 C76 C 0.29195 0.42231 1.05490
 C77 C 0.27917 0.40930 1.08131
 C78 C 0.25455 0.39645 1.07608
 C79 C 0.24382 0.40979 0.98464
 C80 C 0.21918 0.42231 0.97934
 C81 C 0.20767 0.42252 0.94770
 C82 C 0.22057 0.40973 0.92126
 C83 C 0.24518 0.39694 0.92650
 C84 C 0.25693 0.39727 0.95807
 H85 H 0.22386 0.38684 1.04025
 H86 H 0.29044 0.43208 1.00282
 H87 H 0.20903 0.43195 0.99988
 H88 H 0.27579 0.38714 0.96224
 H89 H 0.28862 0.40869 1.10554
 H90 H 0.21125 0.40922 0.89696
 C91 C 0.75753 0.10286 1.04462
 C92 C 0.74423 0.09023 1.01827
 C93 C 0.71962 0.07777 1.02387
 C94 C 0.70829 0.07771 1.05558
 C95 C 0.72135 0.09062 1.08184
 C96 C 0.74597 0.10338 1.07631
 C97 C 0.75586 0.09014 0.98475
 C98 C 0.78045 0.07761 0.97923
 C99 C 0.79168 0.07732 0.94746
 C100 C 0.77856 0.09005 0.92109
 C101 C 0.75400 0.10285 0.92655
 C102 C 0.74252 0.10259 0.95826
 H103 H 0.77639 0.11295 1.04012
 H104 H 0.70932 0.06804 1.00348
 H105 H 0.79078 0.06801 0.99970
 H106 H 0.72370 0.11274 0.96260
 H107 H 0.71211 0.09121 1.10618
 H108 H 0.78767 0.09050 0.89668
 C109 C 0.25737 0.60229 0.54299
 C110 C 0.24413 0.58965 0.51660
 C111 C 0.21953 0.57714 0.52215
 C112 C 0.20818 0.57704 0.55387
 C113 C 0.22121 0.58996 0.58013
 C114 C 0.24579 0.60275 0.57464
 C115 C 0.25581 0.58965 0.48311
 C116 C 0.28042 0.57716 0.47762
 C117 C 0.29179 0.57708 0.44592
 C118 C 0.27877 0.58999 0.41960
 C119 C 0.25418 0.60275 0.42503
 C120 C 0.24258 0.60228 0.45667
 H121 H 0.27620 0.61245 0.53861
 H122 H 0.20926 0.56742 0.50174
 H123 H 0.29068 0.56745 0.49806
 H124 H 0.22375 0.61242 0.46100
 H125 H 0.21201 0.59058 0.60449
 H126 H 0.28800 0.59062 0.39526
 C127 C 0.74326 0.89810 0.54272
 C128 C 0.75641 0.91072 0.51623
 C129 C 0.78103 0.92324 0.52163
 C130 C 0.79251 0.92336 0.55332
 C131 C 0.77954 0.91045 0.57969
 C132 C 0.75494 0.89766 0.57433
 C133 C 0.74462 0.91068 0.48278
 C134 C 0.71993 0.92305 0.47735
 C135 C 0.70846 0.92308 0.44570
 C136 C 0.72145 0.91025 0.41936
 C137 C 0.74612 0.89761 0.42473
 C138 C 0.75782 0.89812 0.45632
 H139 H 0.72442 0.88794 0.53846
 H140 H 0.79118 0.93294 0.50107
 H141 H 0.70969 0.93270 0.49782
 H142 H 0.77672 0.88808 0.46060
 H143 H 0.78877 0.90981 0.60406
 H144 H 0.71215 0.90958 0.39505
 C145 C -0.03281 0.23774 0.37103
 C146 C -0.00881 0.23740 0.38904
 C147 C -0.00161 0.21452 0.40710
 C148 C -0.01847 0.19214 0.40747
 C149 C -0.04236 0.19247 0.38915
 C150 C -0.04950 0.21524 0.37079
 C151 C 0.00868 0.26105 0.38908
 C152 C 0.00142 0.28391 0.40710
 C153 C 0.01824 0.30630 0.40749
 C154 C 0.04214 0.30602 0.38927
 C155 C 0.04933 0.28332 0.37096
 C156 C 0.03270 0.26078 0.37116
 H157 H -0.03832 0.25549 0.35712
 H158 H 0.01689 0.21436 0.42116
 H159 H -0.01707 0.28409 0.42111
 H160 H 0.03832 0.24312 0.35724
 H161 H -0.05543 0.17515 0.38934
 H162 H 0.05515 0.32336 0.38948
 C163 C -0.03321 0.76075 0.12897
 C164 C -0.00924 0.76092 0.11096
 C165 C -0.00192 0.78372 0.09281
 C166 C -0.01863 0.80616 0.09237
 C167 C -0.04248 0.80603 0.11067
 C168 C -0.04976 0.78336 0.12912
 C169 C 0.00816 0.73723 0.11104
 C170 C 0.00088 0.71437 0.09303
 C171 C 0.01772 0.69198 0.09263
 C172 C 0.04165 0.69229 0.11086
 C173 C 0.04884 0.71502 0.12915
 C174 C 0.03220 0.73752 0.12896
 H175 H -0.03882 0.74308 0.14297
 H176 H 0.01655 0.78381 0.07874
 H177 H -0.01764 0.71425 0.07902
 H178 H 0.03783 0.75521 0.14283
 H179 H -0.05538 0.82346 0.11036
 H180 H 0.05474 0.67501 0.11069
 C181 C 0.46669 0.26143 0.62910
 C182 C 0.49065 0.26150 0.61105
 C183 C 0.49800 0.28425 0.59282
 C184 C 0.48134 0.30674 0.59237
 C185 C 0.45750 0.30667 0.61071
 C186 C 0.45022 0.28406 0.62921
 C187 C 0.50797 0.23776 0.61117
 C188 C 0.50072 0.21499 0.59298
 C189 C 0.51746 0.19256 0.59267
 C190 C 0.54127 0.19271 0.61112
 C191 C 0.54843 0.21535 0.62958
 C192 C 0.53188 0.23792 0.62933
 H193 H 0.46100 0.24384 0.64317
 H194 H 0.51645 0.28427 0.57872
 H195 H 0.48231 0.21492 0.57877
 H196 H 0.53750 0.25554 0.64334
 H197 H 0.44461 0.32409 0.61043
 H198 H 0.55424 0.17535 0.61093
 C199 C 0.46779 0.73814 0.87124
 C200 C 0.49174 0.73782 0.88932
 C201 C 0.49889 0.71498 0.90748
 C202 C 0.48201 0.69260 0.90786
 C203 C 0.45816 0.69294 0.88946
 C204 C 0.45110 0.71566 0.87103
 C205 C 0.50923 0.76147 0.88934
 C206 C 0.50205 0.78427 0.90750
 C207 C 0.51886 0.80666 0.90785
 C208 C 0.54268 0.80644 0.88947
 C209 C 0.54980 0.78377 0.87104
 C210 C 0.53317 0.76124 0.87125
 H211 H 0.46226 0.75581 0.85723
 H212 H 0.51736 0.71484 0.92160
 H213 H 0.48361 0.78442 0.92162
 H214 H 0.53872 0.74361 0.85724
 H215 H 0.44504 0.67567 0.88960
 H216 H 0.55570 0.82377 0.88967
 C217 C -0.28611 0.56962 0.99858
 C218 C -0.26338 0.58396 1.00871
 C219 C -0.26509 0.60153 1.03566
 C220 C -0.28933 0.60510 1.05230
 C221 C -0.31189 0.59063 1.04252
 C222 C -0.31036 0.57284 1.01567
 C223 C -0.23877 0.58382 0.98881
 C224 C -0.23682 0.60141 0.96183
 C225 C -0.21244 0.60486 0.94537
 C226 C -0.19002 0.59022 0.95541
 C227 C -0.19185 0.57247 0.98227
 C228 C -0.21619 0.56937 0.99915
 H229 H -0.28500 0.55658 0.97714
 H230 H -0.24779 0.61331 1.04271
 H231 H -0.25404 0.61328 0.95470
 H232 H -0.21741 0.55637 1.02064
 H233 H -0.33073 0.59370 1.05530
 H234 H -0.17102 0.59311 0.94294
 C235 C -0.28580 0.43101 0.50017
 C236 C -0.26307 0.41669 0.49012
 C237 C -0.26475 0.39906 0.46322
 C238 C -0.28898 0.39541 0.44656
 C239 C -0.31156 0.40987 0.45626
 C240 C -0.31005 0.42772 0.48305
 C241 C -0.23850 0.41684 0.51014
 C242 C -0.23671 0.39941 0.53728
 C243 C -0.21243 0.39597 0.55391
 C244 C -0.18992 0.41045 0.54393
 C245 C -0.19156 0.42807 0.51692
 C246 C -0.21582 0.43116 0.49983
 H247 H -0.28472 0.44409 0.52158
 H248 H -0.24744 0.38728 0.45625
 H249 H -0.25395 0.38759 0.54445
 H250 H -0.21691 0.44406 0.47823
 H251 H -0.33040 0.40673 0.44347
 H252 H -0.17102 0.40751 0.55660
 C253 C 0.21523 -0.07011 -0.00049
 C254 C 0.23788 -0.08449 -0.01068
 C255 C 0.23606 -0.10206 -0.03763
 C256 C 0.21174 -0.10559 -0.05422
 C257 C 0.18925 -0.09103 -0.04433
 C258 C 0.19095 -0.07327 -0.01750
 C259 C 0.26247 -0.08449 0.00929
 C260 C 0.26425 -0.10201 0.03634
 C261 C 0.28852 -0.10546 0.05304
 C262 C 0.31101 -0.09086 0.04319
 C263 C 0.30936 -0.07315 0.01626
 C264 C 0.28513 -0.07006 -0.00087
 H265 H 0.21636 -0.05709 0.02095
 H266 H 0.25335 -0.11386 -0.04466
 H267 H 0.24695 -0.11383 0.04337
 H268 H 0.28403 -0.05706 -0.02237
 H269 H 0.17029 -0.09395 -0.05692
 H270 H 0.32994 -0.09371 0.05589
 C271 C 0.21488 1.06940 0.49939
 C272 C 0.23745 1.08395 0.50956
 C273 C 0.23549 1.10165 0.53636
 C274 C 0.21115 1.10512 0.55280
 C275 C 0.18875 1.09044 0.54295
 C276 C 0.19055 1.07257 0.51626
 C277 C 0.26211 1.08395 0.48974
 C278 C 0.26407 1.10164 0.46289
 C279 C 0.28842 1.10507 0.44637
 C280 C 0.31080 1.09032 0.45624
 C281 C 0.30896 1.07245 0.48299
 C282 C 0.28465 1.06935 0.49992
 H283 H 0.21611 1.05629 0.47805
 H284 H 0.25267 1.11360 0.54344
 H285 H 0.24686 1.11358 0.45585
 H286 H 0.28341 1.05623 0.52129
 H287 H 0.16979 1.09340 0.55547
 H288 H 0.32979 1.09317 0.44371
 C289 C 0.14763 0.49262 0.20738
 C290 C 0.16037 0.50583 0.23371
 C291 C 0.17286 0.53045 0.22811
 C292 C 0.17282 0.54184 0.19641
 C293 C 0.15979 0.52884 0.17019
 C294 C 0.14704 0.50425 0.17573
 C295 C 0.16047 0.49412 0.26721
 C296 C 0.17299 0.46952 0.27271
 C297 C 0.17312 0.45812 0.30441
 C298 C 0.16026 0.47110 0.33073
 C299 C 0.14748 0.49569 0.32530
 C300 C 0.14789 0.50733 0.29365
 H301 H 0.13749 0.47379 0.21180
 H302 H 0.18265 0.54069 0.24849
 H303 H 0.18265 0.45928 0.25225
 H304 H 0.13773 0.52615 0.28932
 H305 H 0.15907 0.53809 0.14585
 H306 H 0.15967 0.46185 0.35508
 C307 C -0.14746 1.00697 0.20611
 C308 C -0.16026 0.99394 0.23255
 C309 C -0.17276 0.96930 0.22722
 C310 C -0.17268 0.95768 0.19565
 C311 C -0.15958 0.97050 0.16930
 C312 C -0.14680 0.99514 0.17459
 C313 C -0.16035 1.00582 0.26594
 C314 C -0.17277 1.03051 0.27116
 C315 C -0.17292 1.04203 0.30281
 C316 C -0.16016 1.02905 0.32929
 C317 C -0.14749 1.00439 0.32409
 C318 C -0.14788 0.99266 0.29254
 H319 H -0.13733 1.02583 0.21042
 H320 H -0.18258 0.95925 0.24776
 H321 H -0.18234 1.04067 0.25052
 H322 H -0.13781 0.97377 0.28840
 H323 H -0.15883 0.96110 0.14505
 H324 H -0.15955 1.03831 0.35362
 C325 C 0.35311 0.50804 -0.29438
 C326 C 0.34030 0.49509 -0.26787
 C327 C 0.32765 0.47052 -0.27315
 C328 C 0.32759 0.45891 -0.30469
 C329 C 0.34067 0.47162 -0.33109
 C330 C 0.35362 0.49618 -0.32590
 C331 C 0.34030 0.50699 -0.23451
 C332 C 0.32783 0.53164 -0.22924
 C333 C 0.32765 0.54314 -0.19758
 C334 C 0.34046 0.53016 -0.17112
 C335 C 0.35320 0.50554 -0.17636
 C336 C 0.35282 0.49383 -0.20793
 H337 H 0.36335 0.52685 -0.29013
 H338 H 0.31781 0.46048 -0.25263
 H339 H 0.31820 0.54178 -0.24986
 H340 H 0.36291 0.47496 -0.21209
 H341 H 0.34126 0.46215 -0.35530
 H342 H 0.34103 0.53939 -0.14677
 C343 C 0.64656 -0.00756 -0.29383
 C344 C 0.65922 0.00561 -0.26739
 C345 C 0.67171 0.03024 -0.27284
 C346 C 0.67176 0.04171 -0.30450
 C347 C 0.65883 0.02879 -0.33084
 C348 C 0.64605 0.00416 -0.32547
 C349 C 0.65932 -0.00618 -0.23393
 C350 C 0.67191 -0.03076 -0.22850
 C351 C 0.67226 -0.04211 -0.19676
 C352 C 0.65953 -0.02911 -0.17035
 C353 C 0.64667 -0.00456 -0.17573
 C354 C 0.64686 0.00703 -0.20740
 H355 H 0.63646 -0.02642 -0.28946
 H356 H 0.68145 0.04043 -0.25239
 H357 H 0.68152 -0.04099 -0.24900
 H358 H 0.63668 0.02585 -0.21167
 H359 H 0.65824 0.03815 -0.35514
 H360 H 0.65914 -0.03831 -0.14597
 C361 C -0.01208 0.21729 0.88005
 C362 C -0.01239 0.24127 0.86199
 C363 C -0.03525 0.24846 0.84390
 C364 C -0.05762 0.23163 0.84359
 C365 C -0.05732 0.20777 0.86193
 C366 C -0.03459 0.20064 0.88030
 C367 C 0.01125 0.25875 0.86190
 C368 C 0.03401 0.25162 0.84361
 C369 C 0.05634 0.26850 0.84308
 C370 C 0.05612 0.29233 0.86141
 C371 C 0.03350 0.29939 0.87997
 C372 C 0.01102 0.28270 0.87994
 H373 H 0.00561 0.21172 0.89399
 H374 H -0.03545 0.26693 0.82978
 H375 H 0.03414 0.23318 0.82949
 H376 H -0.00658 0.28823 0.89404
 H377 H -0.07463 0.19473 0.86175
 H378 H 0.07341 0.30541 0.86106
 C379 C 0.51207 0.21753 0.12114
 C380 C 0.51242 0.24153 0.13909
 C381 C 0.53531 0.24875 0.15710
 C382 C 0.55767 0.23190 0.15745
 C383 C 0.55732 0.20802 0.13921
 C384 C 0.53457 0.20088 0.12092
 C385 C 0.48876 0.25899 0.13915
 C386 C 0.46595 0.25173 0.15730
 C387 C 0.44355 0.26851 0.15770
 C388 C 0.44377 0.29238 0.13937
 C389 C 0.46643 0.29958 0.12094
 C390 C 0.48897 0.28298 0.12112
 H391 H 0.49436 0.21194 0.10726
 H392 H 0.53554 0.26722 0.17114
 H393 H 0.46582 0.23325 0.17138
 H394 H 0.50661 0.28860 0.10711
 H395 H 0.57463 0.19498 0.13942
 H396 H 0.42642 0.30537 0.13959
 C397 C 0.01106 0.71709 0.62160
 C398 C 0.01137 0.74111 0.63951
 C399 C 0.03427 0.74839 0.65747
 C400 C 0.05666 0.73159 0.65782
 C401 C 0.05635 0.70769 0.63962
 C402 C 0.03360 0.70048 0.62137
 C403 C -0.01229 0.75857 0.63952
 C404 C -0.03514 0.75131 0.65758
 C405 C -0.05753 0.76814 0.65799
 C406 C -0.05723 0.79206 0.63971
 C407 C -0.03451 0.79924 0.62137
 C408 C -0.01200 0.78260 0.62156
 H409 H -0.00665 0.71145 0.60773
 H410 H 0.03448 0.76688 0.67147
 H411 H -0.03527 0.73278 0.67160
 H412 H 0.00567 0.78821 0.60763
 H413 H 0.07369 0.69469 0.63980
 H414 H -0.07452 0.80515 0.63987
 C415 C 0.48867 0.71721 0.37841
 C416 C 0.48848 0.74119 0.36037
 C417 C 0.46564 0.74851 0.34230
 C418 C 0.44319 0.73178 0.34198
 C419 C 0.44338 0.70791 0.36031
 C420 C 0.46608 0.70067 0.37866
 C421 C 0.51217 0.75861 0.36043
 C422 C 0.53499 0.75142 0.34229
 C423 C 0.55741 0.76819 0.34203
 C424 C 0.55720 0.79197 0.36046
 C425 C 0.53452 0.79908 0.37887
 C426 C 0.51196 0.78250 0.37858
 H427 H 0.50632 0.71156 0.39237
 H428 H 0.46552 0.76699 0.32822
 H429 H 0.53512 0.73301 0.32811
 H430 H 0.49431 0.78807 0.39257
 H431 H 0.42600 0.69496 0.36015
 H432 H 0.57455 0.80496 0.36033
 B433 B -0.02789 0.01488 1.00867
 B434 B -0.03749 0.00759 0.97007
 B435 B -0.01503 0.03160 0.97663
 B436 B 0.00491 0.02273 1.00862
 B437 B -0.00584 -0.00807 1.02161
 B438 B -0.03258 -0.01717 0.99759
 B439 B 0.01072 -0.01255 0.95741
 B440 B 0.02044 -0.00519 0.99591
 B441 B -0.00214 -0.02917 0.98944
 B442 B -0.02201 -0.02030 0.95742
 B443 B -0.01120 0.01046 0.94438
 B444 B 0.01548 0.01962 0.96836
 B445 B 0.47234 0.51525 0.50783
 B446 B 0.46278 0.50784 0.46924
 B447 B 0.48524 0.53186 0.47573
 B448 B 0.50514 0.52309 0.50780
 B449 B 0.49436 0.49234 0.52092
 B450 B 0.46765 0.48316 0.49690
 B451 B 0.51101 0.48765 0.45677
 B452 B 0.52068 0.49513 0.49526
 B453 B 0.49810 0.47113 0.48886
 B454 B 0.47827 0.47991 0.45676
 B455 B 0.48911 0.51062 0.44359
 B456 B 0.51576 0.51985 0.46757
 B457 B 0.52779 0.98424 0.50802
 B458 B 0.53725 0.99171 0.46941
 B459 B 0.51490 0.96759 0.47597
 B460 B 0.49502 0.97626 0.50806
 B461 B 0.50569 1.00704 0.52111
 B462 B 0.53232 1.01635 0.49703
 B463 B 0.48890 1.01170 0.45698
 B464 B 0.47934 1.00416 0.49550
 B465 B 0.50180 1.02826 0.48902
 B466 B 0.52161 1.01959 0.45691
 B467 B 0.51088 0.98884 0.44380
 B468 B 0.48431 0.97948 0.46785
 B469 B 0.02707 0.48464 1.00887
 B470 B 0.03674 0.49221 0.97038
 B471 B 0.01423 0.46820 0.97663
 B472 B -0.00574 0.47685 1.00863
 B473 B 0.00504 0.50752 1.02195
 B474 B 0.03183 0.51677 0.99812
 B475 B -0.01142 0.51254 0.95774
 B476 B -0.02120 0.50489 0.99614
 B477 B 0.00142 0.52889 0.98998
 B478 B 0.02133 0.52023 0.95794
 B479 B 0.01048 0.48959 0.94457
 B480 B -0.01625 0.48030 0.96837
 B481 B 0.02775 0.51524 0.49220
 B482 B 0.03727 0.50758 0.53074
 B483 B 0.01479 0.53161 0.52441
 B484 B -0.00506 0.52302 0.49222
 B485 B 0.00577 0.49238 0.47887
 B486 B 0.03247 0.48309 0.50287
 B487 B -0.01094 0.48721 0.54295
 B488 B -0.02057 0.49494 0.50451
 B489 B 0.00202 0.47094 0.51075
 B490 B 0.02181 0.47953 0.54296
 B491 B 0.01092 0.51013 0.55636
 B492 B -0.01572 0.51948 0.53240
 B493 B 0.52821 0.01542 -0.00750
 B494 B 0.53764 0.00795 0.03113
 B495 B 0.51514 0.03191 0.02454
 B496 B 0.49539 0.02315 -0.00766
 B497 B 0.50630 -0.00753 -0.02075
 B498 B 0.53295 -0.01668 0.00341
 B499 B 0.48942 -0.01245 0.04328
 B500 B 0.47989 -0.00490 0.00475
 B501 B 0.50250 -0.02884 0.01124
 B502 B 0.52218 -0.02008 0.04348
 B503 B 0.51121 0.01057 0.05663
 B504 B 0.48462 0.01977 0.03249
 B505 B 0.47204 0.48502 -0.00833
 B506 B 0.46258 0.49242 0.03028
 B507 B 0.48507 0.46846 0.02374
 B508 B 0.50486 0.47728 -0.00840
 B509 B 0.49398 0.50799 -0.02152
 B510 B 0.46731 0.51710 0.00258
 B511 B 0.51080 0.51277 0.04256
 B512 B 0.52037 0.50529 0.00405
 B513 B 0.49776 0.52923 0.01049
 B514 B 0.47804 0.52042 0.04267
 B515 B 0.48899 0.48974 0.05584
 B516 B 0.51559 0.48057 0.03178
 B517 B -0.02841 0.98457 0.49191
 B518 B -0.03790 0.99218 0.53044
 B519 B -0.01545 0.96815 0.52413
 B520 B 0.00439 0.97676 0.49195
 B521 B -0.00643 1.00742 0.47858
 B522 B -0.03309 1.01671 0.50256
 B523 B 0.01035 1.01250 0.54265
 B524 B 0.01993 1.00481 0.50421
 B525 B -0.00263 1.02883 0.51043
 B526 B -0.02240 1.02021 0.54265
 B527 B -0.01152 0.98958 0.55607
 B528 B 0.01509 0.98024 0.53212
 B529 B 0.76659 0.22170 0.24213
 B530 B 0.75897 0.21207 0.28063
 B531 B 0.78306 0.23451 0.27439
 B532 B 0.77448 0.25449 0.24230
 B533 B 0.74378 0.24379 0.22892
 B534 B 0.73444 0.21704 0.25281
 B535 B 0.73877 0.26030 0.29307
 B536 B 0.74647 0.27004 0.25467
 B537 B 0.72241 0.24748 0.26082
 B538 B 0.73099 0.22757 0.29294
 B539 B 0.76165 0.23834 0.30638
 B540 B 0.77104 0.26503 0.28253
 B541 B 0.73498 0.77793 0.74160
 B542 B 0.74249 0.78736 0.78020
 B543 B 0.71845 0.76493 0.77369
 B544 B 0.72714 0.74513 0.74154
 B545 B 0.75786 0.75595 0.72839
 B546 B 0.76710 0.78258 0.75248
 B547 B 0.76271 0.73909 0.79248
 B548 B 0.75513 0.72956 0.75397
 B549 B 0.77915 0.75211 0.76039
 B550 B 0.77046 0.77183 0.79258
 B551 B 0.73977 0.76095 0.80577
 B552 B 0.73048 0.73438 0.78172
 B553 B 0.26480 0.27853 0.75804
 B554 B 0.25737 0.28822 0.71950
 B555 B 0.28133 0.26569 0.72589
 B556 B 0.27255 0.24572 0.75789
 B557 B 0.24185 0.25653 0.77106
 B558 B 0.23271 0.28333 0.74714
 B559 B 0.23702 0.24007 0.70686
 B560 B 0.24453 0.23028 0.74531
 B561 B 0.22058 0.25292 0.73901
 B562 B 0.22936 0.27283 0.70697
 B563 B 0.26003 0.26196 0.69375
 B564 B 0.26922 0.23522 0.71763
 B565 B 0.23432 0.72244 0.25773
 B566 B 0.24187 0.71293 0.21918
 B567 B 0.21780 0.73534 0.22556
 B568 B 0.22645 0.75522 0.25766
 B569 B 0.25717 0.74448 0.27091
 B570 B 0.26645 0.71781 0.24694
 B571 B 0.26205 0.76121 0.20678
 B572 B 0.25444 0.77082 0.24523
 B573 B 0.27848 0.74829 0.23895
 B574 B 0.26982 0.72848 0.20682
 B575 B 0.23914 0.73928 0.19351
 B576 B 0.22981 0.76589 0.21744
 B577 B 0.26583 0.72227 0.74171
 B578 B 0.25835 0.71267 0.78027
 B579 B 0.28234 0.73518 0.77386
 B580 B 0.27360 0.75508 0.74176
 B581 B 0.24290 0.74425 0.72855
 B582 B 0.23372 0.71751 0.75254
 B583 B 0.23802 0.76086 0.79268
 B584 B 0.24557 0.77055 0.75421
 B585 B 0.22160 0.74793 0.76053
 B586 B 0.23035 0.72810 0.79267
 B587 B 0.26101 0.73899 0.80594
 B588 B 0.27024 0.76568 0.78198
 B589 B 0.23490 0.27771 0.24226
 B590 B 0.24237 0.28719 0.28086
 B591 B 0.21835 0.26473 0.27436
 B592 B 0.22708 0.24490 0.24226
 B593 B 0.25780 0.25572 0.22913
 B594 B 0.26701 0.28239 0.25318
 B595 B 0.26262 0.23894 0.29324
 B596 B 0.25508 0.22936 0.25475
 B597 B 0.27908 0.25193 0.26115
 B598 B 0.27034 0.27169 0.29329
 B599 B 0.23966 0.26080 0.30648
 B600 B 0.23041 0.23419 0.28247
 B601 B 0.76625 0.77835 0.25740
 B602 B 0.75870 0.78793 0.21884
 B603 B 0.78271 0.76544 0.22523
 B604 B 0.77404 0.74555 0.25735
 B605 B 0.74337 0.75635 0.27061
 B606 B 0.73412 0.78307 0.24661
 B607 B 0.73838 0.73971 0.20650
 B608 B 0.74601 0.73004 0.24495
 B609 B 0.72201 0.75263 0.23866
 B610 B 0.73068 0.77246 0.20650
 B611 B 0.76132 0.76160 0.19319
 B612 B 0.77061 0.73493 0.21715
 B613 B 0.73366 0.22182 0.75874
 B614 B 0.74117 0.21248 0.72012
 B615 B 0.71712 0.23487 0.72669
 B616 B 0.72580 0.25461 0.75891
 B617 B 0.75653 0.24380 0.77204
 B618 B 0.76578 0.21723 0.74788
 B619 B 0.76135 0.26081 0.70803
 B620 B 0.75378 0.27024 0.74655
 B621 B 0.77781 0.24774 0.74008
 B622 B 0.76912 0.22808 0.70782
 B623 B 0.73843 0.23895 0.69463
 B624 B 0.72913 0.26546 0.71877
 C625 C 0.37380 1.03943 0.32813
 C626 C 0.39138 1.03999 0.34857
 C627 C 0.41247 1.03892 0.37173
 C628 C 0.43061 1.03624 0.39109
 C629 C 0.45157 1.03078 0.41346
 C630 C 0.46880 1.02395 0.43252
 C631 C -0.12581 0.54035 0.82811
 C632 C -0.10831 0.54101 0.84865
 C633 C -0.08733 0.54001 0.87197
 C634 C -0.06929 0.53736 0.89147
 C635 C -0.04845 0.53187 0.91400
 C636 C -0.03135 0.52496 0.93319
 C637 C 0.12503 -0.04036 0.82777
 C638 C 0.10756 -0.04091 0.84830
 C639 C 0.08659 -0.03983 0.87161
 C640 C 0.06858 -0.03713 0.89111
 C641 C 0.04777 -0.03164 0.91363
 C642 C 0.03068 -0.02479 0.93283
 C643 C 0.62600 0.45934 0.32825
 C644 C 0.60838 0.45884 0.34859
 C645 C 0.58726 0.46001 0.37166
 C646 C 0.56912 0.46279 0.39097
 C647 C 0.54819 0.46838 0.41328
 C648 C 0.53102 0.47532 0.43232
 C649 C 0.62600 0.54063 0.17104
 C650 C 0.60837 0.54121 0.15070
 C651 C 0.58722 0.54017 0.12762
 C652 C 0.56905 0.53749 0.10831
 C653 C 0.54807 0.53201 0.08599
 C654 C 0.53086 0.52512 0.06696
 C655 C 0.12534 1.04064 0.67133
 C656 C 0.10778 1.04122 0.65089
 C657 C 0.08669 1.04014 0.62771
 C658 C 0.06856 1.03742 0.60835
 C659 C 0.04761 1.03188 0.58601
 C660 C 0.03041 1.02494 0.56698
 C661 C -0.12538 0.45880 0.67214
 C662 C -0.10791 0.45822 0.65161
 C663 C -0.08694 0.45932 0.62832
 C664 C -0.06890 0.46209 0.60885
 C665 C -0.04806 0.46769 0.58640
 C666 C -0.03094 0.47470 0.56731
 C667 C 0.37447 -0.04109 0.17181
 C668 C 0.39205 -0.04155 0.15141
 C669 C 0.41313 -0.04034 0.12828
 C670 C 0.43125 -0.03752 0.10895
 C671 C 0.45218 -0.03189 0.08663
 C672 C 0.46937 -0.02489 0.06762
 C673 C 0.31756 0.43488 0.05916
 C674 C 0.33920 0.44537 0.06028
 C675 C 0.36470 0.45730 0.05885
 C676 C 0.38659 0.46691 0.05546
 C677 C 0.41231 0.47717 0.04915
 C678 C 0.43437 0.48483 0.04197
 C679 C -0.18324 0.93519 0.55756
 C680 C -0.16158 0.94561 0.55909
 C681 C -0.13603 0.95745 0.55813
 C682 C -0.11408 0.96697 0.55508
 C683 C -0.08827 0.97714 0.54909
 C684 C -0.06615 0.98471 0.54207
 C685 C -0.18276 0.06476 0.94290
 C686 C -0.16113 0.05431 0.94149
 C687 C -0.13561 0.04244 0.94254
 C688 C -0.11367 0.03289 0.94562
 C689 C -0.08788 0.02270 0.95162
 C690 C -0.06576 0.01511 0.95858
 C691 C 0.31740 0.56462 0.44143
 C692 C 0.33908 0.55424 0.44011
 C693 C 0.36464 0.54246 0.44129
 C694 C 0.38660 0.53299 0.44449
 C695 C 0.41240 0.52287 0.45060
 C696 C 0.43452 0.51533 0.45766
 C697 C 0.18259 0.56453 0.55842
 C698 C 0.16092 0.55411 0.55981
 C699 C 0.13538 0.54228 0.55870
 C700 C 0.11343 0.53277 0.55555
 C701 C 0.08763 0.52261 0.54946
 C702 C 0.06552 0.51506 0.54239
 C703 C 0.68268 0.06522 0.06011
 C704 C 0.66102 0.05478 0.06136
 C705 C 0.63551 0.04291 0.05999
 C706 C 0.61360 0.03335 0.05659
 C707 C 0.58787 0.02313 0.05020
 C708 C 0.56582 0.01551 0.04292
 C709 C 0.68277 0.93544 0.44128
 C710 C 0.66105 0.94574 0.44003
 C711 C 0.63545 0.95744 0.44128
 C712 C 0.61347 0.96684 0.44453
 C713 C 0.58765 0.97687 0.45071
 C714 C 0.56552 0.98434 0.45780
 C715 C 0.18208 0.43508 0.94335
 C716 C 0.16043 0.44553 0.94203
 C717 C 0.13491 0.45740 0.94311
 C718 C 0.11297 0.46694 0.94617
 C719 C 0.08717 0.47713 0.95208
 C720 C 0.06503 0.48472 0.95896
 C721 C 0.01126 0.32945 0.42692
 C722 C 0.00605 0.34911 0.44301
 C723 C 0.00103 0.37272 0.46123
 C724 C -0.00196 0.39359 0.47575
 C725 C -0.00354 0.41897 0.49097
 C726 C -0.00279 0.44145 0.50172
 C727 C 0.51193 -0.17023 -0.07261
 C728 C 0.50673 -0.15062 -0.05643
 C729 C 0.50169 -0.12706 -0.03814
 C730 C 0.49866 -0.10622 -0.02358
 C731 C 0.49704 -0.08084 -0.00835
 C732 C 0.49775 -0.05836 0.00236
 C733 C -0.01155 -0.17075 1.07281
 C734 C -0.00626 -0.15114 1.05663
 C735 C -0.00115 -0.12756 1.03835
 C736 C 0.00190 -0.10668 1.02383
 C737 C 0.00349 -0.08125 1.00869
 C738 C 0.00273 -0.05872 0.99810
 C739 C 0.48845 0.32978 0.57275
 C740 C 0.49378 0.34935 0.55652
 C741 C 0.49894 0.37288 0.53817
 C742 C 0.50204 0.39372 0.52358
 C743 C 0.50368 0.41911 0.50835
 C744 C 0.50295 0.44161 0.49767
 C745 C 0.51051 1.16951 0.57303
 C746 C 0.50533 1.14994 0.55677
 C747 C 0.50036 1.12641 0.53839
 C748 C 0.49742 1.10559 0.52376
 C749 C 0.49595 1.08022 0.50850
 C750 C 0.49682 1.05774 0.49781
 C751 C 0.01111 0.67009 1.07418
 C752 C 0.00582 0.65050 1.05799
 C753 C 0.00068 0.62698 1.03964
 C754 C -0.00241 0.60618 1.02501
 C755 C -0.00408 0.58085 1.00969
 C756 C -0.00338 0.55839 0.99891
 C757 C 0.48851 0.67069 -0.07362
 C758 C 0.49370 0.65106 -0.05740
 C759 C 0.49871 0.62749 -0.03904
 C760 C 0.50170 0.60664 -0.02442
 C761 C 0.50328 0.58126 -0.00914
 C762 C 0.50254 0.55876 0.00161
 C763 C -0.01192 1.17020 0.42594
 C764 C -0.00671 1.15056 0.44214
 C765 C -0.00167 1.12698 0.46048
 C766 C 0.00133 1.10614 0.47513
 C767 C 0.00293 1.08078 0.49048
 C768 C 0.00218 1.05832 0.50133
 C769 C 0.78966 0.62394 0.92140
 C770 C 0.79043 0.64150 0.90094
 C771 C 0.78960 0.66259 0.87774
 C772 C 0.78710 0.68075 0.85836
 C773 C 0.78179 0.70174 0.83597
 C774 C 0.77501 0.71898 0.81689
 C775 C 0.29047 0.12415 0.42239
 C776 C 0.29113 0.14169 0.40190
 C777 C 0.29011 0.16274 0.37866
 C778 C 0.28742 0.18083 0.35923
 C779 C 0.28191 0.20174 0.33679
 C780 C 0.27499 0.21890 0.31769
 C781 C 0.70919 0.37522 0.42130
 C782 C 0.70892 0.35759 0.40096
 C783 C 0.71037 0.33647 0.37792
 C784 C 0.71338 0.31834 0.35866
 C785 C 0.71920 0.29743 0.33642
 C786 C 0.72630 0.28028 0.31745
 C787 C 0.20981 0.87539 0.92177
 C788 C 0.20925 0.85789 0.90127
 C789 C 0.21036 0.83688 0.87804
 C790 C 0.21311 0.81882 0.85862
 C791 C 0.21867 0.79796 0.83620
 C792 C 0.22562 0.78083 0.81712
 C793 C 0.29040 0.87559 0.07719
 C794 C 0.29093 0.85815 0.09782
 C795 C 0.28977 0.83721 0.12119
 C796 C 0.28699 0.81919 0.14071
 C797 C 0.28139 0.79836 0.16321
 C798 C 0.27443 0.78123 0.18234
 C799 C 0.78959 0.37591 0.57937
 C800 C 0.79008 0.35837 0.59985
 C801 C 0.78893 0.33729 0.62304
 C802 C 0.78617 0.31916 0.64239
 C803 C 0.78063 0.29819 0.66472
 C804 C 0.77371 0.28095 0.68371
 C805 C 0.20900 0.12531 0.57802
 C806 C 0.20842 0.14292 0.59836
 C807 C 0.20949 0.16402 0.62147
 C808 C 0.21219 0.18213 0.64083
 C809 C 0.21771 0.20302 0.66322
 C810 C 0.22463 0.22015 0.68233
 C811 C 0.70883 0.62519 0.07768
 C812 C 0.70855 0.64272 0.09814
 C813 C 0.70998 0.66374 0.12133
 C814 C 0.71297 0.68179 0.14071
 C815 C 0.71878 0.70263 0.16307
 C816 C 0.72588 0.71974 0.18211
 C817 C 0.18526 0.56746 0.19181
 C818 C 0.19563 0.58915 0.19039
 C819 C 0.20739 0.61473 0.19145
 C820 C 0.21685 0.63670 0.19456
 C821 C 0.22694 0.66253 0.20060
 C822 C 0.23445 0.68466 0.20761
 C823 C 0.68425 0.06733 0.69111
 C824 C 0.69467 0.08901 0.68991
 C825 C 0.70650 0.11454 0.69129
 C826 C 0.71602 0.13646 0.69469
 C827 C 0.72616 0.16222 0.70106
 C828 C 0.73371 0.18429 0.70832
 C829 C 0.81536 0.06634 0.30693
 C830 C 0.80504 0.08805 0.30846
 C831 C 0.79333 0.11365 0.30760
 C832 C 0.78392 0.13567 0.30470
 C833 C 0.77386 0.16155 0.29892
 C834 C 0.76637 0.18374 0.29209
 C835 C 0.31579 0.56737 0.80660
 C836 C 0.30533 0.58901 0.80816
 C837 C 0.29342 0.61452 0.80731
 C838 C 0.28382 0.63646 0.80442
 C839 C 0.27356 0.66226 0.79862
 C840 C 0.26591 0.68440 0.79177
 C841 C 0.31495 0.43333 0.69109
 C842 C 0.30443 0.41170 0.68997
 C843 C 0.29248 0.38622 0.69137
 C844 C 0.28286 0.36432 0.69470
 C845 C 0.27260 0.33858 0.70091
 C846 C 0.26495 0.31649 0.70799
 C847 C 0.81555 0.93338 0.19152
 C848 C 0.80518 0.91169 0.19008
 C849 C 0.79339 0.88612 0.19113
 C850 C 0.78390 0.86415 0.19423
 C851 C 0.77376 0.83833 0.20025
 C852 C 0.76619 0.81619 0.20726
 C853 C 0.68493 0.93237 0.80772
 C854 C 0.69549 0.91078 0.80910
 C855 C 0.70747 0.88531 0.80801
 C856 C 0.71710 0.86342 0.80490
 C857 C 0.72736 0.83767 0.79886
 C858 C 0.73499 0.81559 0.79183
 C859 C 0.18559 0.43249 0.30889
 C860 C 0.19598 0.41081 0.31019
 C861 C 0.20776 0.38526 0.30897
 C862 C 0.21723 0.36331 0.30574
 C863 C 0.22735 0.33752 0.29958
 C864 C 0.23489 0.31542 0.29248
 C865 C 0.07937 0.26165 0.82335
 C866 C 0.09893 0.25655 0.80702
 C867 C 0.12244 0.25163 0.78856
 C868 C 0.14324 0.24873 0.77389
 C869 C 0.16859 0.24725 0.75857
 C870 C 0.19107 0.24807 0.74784
 C871 C 0.58053 0.76130 0.32248
 C872 C 0.60017 0.75617 0.30631
 C873 C 0.62377 0.75126 0.28804
 C874 C 0.64464 0.74837 0.27349
 C875 C 0.67003 0.74691 0.25828
 C876 C 0.69252 0.74776 0.24758
 C877 C 0.58085 0.23882 0.17692
 C878 C 0.60053 0.24395 0.19305
 C879 C 0.62416 0.24889 0.21130
 C880 C 0.64504 0.25179 0.22585
 C881 C 0.67044 0.25325 0.24109
 C882 C 0.69292 0.25240 0.25183
 C883 C 0.07986 0.73859 0.67721
 C884 C 0.09956 0.74382 0.69325
 C885 C 0.12322 0.74886 0.71141
 C886 C 0.14412 0.75187 0.72587
 C887 C 0.16956 0.75347 0.74100
 C888 C 0.19208 0.75272 0.75166
 C889 C 0.92056 0.76154 0.67644
 C890 C 0.90093 0.75628 0.69260
 C891 C 0.87736 0.75120 0.71090
 C892 C 0.85652 0.74816 0.72549
 C893 C 0.83114 0.74655 0.74074
 C894 C 0.80866 0.74729 0.75149
 C895 C 0.42045 0.26150 0.17725
 C896 C 0.40085 0.25624 0.19343
 C897 C 0.37729 0.25114 0.21175
 C898 C 0.35645 0.24807 0.22633
 C899 C 0.33108 0.24642 0.24157
 C900 C 0.30859 0.24713 0.25229
 C901 C 0.42004 0.73885 0.32252
 C902 C 0.40039 0.74413 0.30642
 C903 C 0.37678 0.74925 0.28821
 C904 C 0.35590 0.75231 0.27371
 C905 C 0.33048 0.75392 0.25854
 C906 C 0.30798 0.75317 0.24785
 C907 C 0.91923 0.23856 0.82407
 C908 C 0.89960 0.24376 0.80789
 C909 C 0.87602 0.24879 0.78958
 C910 C 0.85517 0.25180 0.77499
 C911 C 0.82979 0.25337 0.75974
 C912 C 0.80731 0.25260 0.74900
 C913 C 0.63123 0.99289 0.64982
 C914 C 0.61718 0.98415 0.62805
 C915 C 0.59958 0.97615 0.60252
 C916 C 0.58372 0.97191 0.58063
 C917 C 0.56446 0.97072 0.55508
 C918 C 0.54790 0.97365 0.53367
 C919 C 0.13125 0.49230 1.14980
 C920 C 0.11698 0.48366 1.12820
 C921 C 0.09913 0.47578 1.10289
 C922 C 0.08308 0.47168 1.08117
 C923 C 0.06367 0.47070 1.05580
 C924 C 0.04706 0.47381 1.03449
 C925 C -0.13181 0.00630 1.14994
 C926 C -0.11761 0.01497 1.12828
 C927 C -0.09984 0.02293 1.10290
 C928 C -0.08386 0.02716 1.08115
 C929 C -0.06451 0.02835 1.05573
 C930 C -0.04793 0.02545 1.03437
 C931 C 0.36858 0.50724 0.64937
 C932 C 0.38275 0.51582 0.62761
 C933 C 0.40047 0.52367 0.60213
 C934 C 0.41642 0.52780 0.58030
 C935 C 0.43573 0.52889 0.55483
 C936 C 0.45229 0.52590 0.53346
 C937 C 0.36868 0.49355 -0.15014
 C938 C 0.38271 0.48483 -0.12832
 C939 C 0.40028 0.47680 -0.10276
 C940 C 0.41615 0.47255 -0.08087
 C941 C 0.43541 0.47136 -0.05532
 C942 C 0.45196 0.47432 -0.03392
 C943 C -0.13197 0.99244 0.35031
 C944 C -0.11792 0.98377 0.37213
 C945 C -0.10029 0.97586 0.39769
 C946 C -0.08438 0.97171 0.41956
 C947 C -0.06507 0.97067 0.44506
 C948 C -0.04850 0.97375 0.46640
 C949 C 0.13183 0.50763 0.35135
 C950 C 0.11765 0.51627 0.37301
 C951 C 0.09988 0.52416 0.39838
 C952 C 0.08387 0.52826 0.42011
 C953 C 0.06446 0.52925 0.44547
 C954 C 0.04783 0.52612 0.46673
 C955 C 0.63125 0.00744 -0.14950
 C956 C 0.61729 0.01613 -0.12765
 C957 C 0.59979 0.02407 -0.10202
 C958 C 0.58398 0.02822 -0.08006
 C959 C 0.56479 0.02928 -0.05447
 C960 C 0.54827 0.02621 -0.03305
 C961 C 0.66709 0.55979 0.00580
 C962 C 0.64625 0.54914 -0.00133
 C963 C 0.62088 0.53775 -0.00725
 C964 C 0.59857 0.52891 -0.00985
 C965 C 0.57195 0.51962 -0.00960
 C966 C 0.54909 0.51262 -0.00611
 C967 C 0.16683 1.05869 0.50571
 C968 C 0.14597 1.04807 0.49861
 C969 C 0.12056 1.03677 0.49272
 C970 C 0.09822 1.02803 0.49016
 C971 C 0.07156 1.01888 0.49047
 C972 C 0.04866 1.01199 0.49401
 C973 C 0.16719 -0.05950 0.99308
 C974 C 0.14635 -0.04891 1.00029
 C975 C 0.12100 -0.03757 1.00638
 C976 C 0.09870 -0.02876 1.00917
 C977 C 0.07209 -0.01948 1.00916
 C978 C 0.04920 -0.01249 1.00586
 C979 C 0.66740 0.44073 0.49289
 C980 C 0.64657 0.45138 0.50005
 C981 C 0.62123 0.46276 0.50608
 C982 C 0.59893 0.47159 0.50879
 C983 C 0.57231 0.48087 0.50868
 C984 C 0.54943 0.48786 0.50530
 C985 C -0.16774 0.44173 0.50625
 C986 C -0.14680 0.45217 0.49909
 C987 C -0.12133 0.46330 0.49314
 C988 C -0.09893 0.47190 0.49054
 C989 C -0.07223 0.48095 0.49081
 C990 C -0.04932 0.48777 0.49433
 C991 C 0.33313 -0.05930 0.00579
 C992 C 0.35401 -0.04867 -0.00122
 C993 C 0.37940 -0.03730 -0.00702
 C994 C 0.40172 -0.02848 -0.00951
 C995 C 0.42834 -0.01921 -0.00912
 C996 C 0.45120 -0.01221 -0.00551
 C997 C 0.33264 1.05848 0.49354
 C998 C 0.35345 1.04777 0.50066
 C999 C 0.37878 1.03634 0.50662
 C1000 C 0.40108 1.02750 0.50926
 C1001 C 0.42771 1.01824 0.50905
 C1002 C 0.45059 1.01131 0.50560
 C1003 C -0.16813 0.55868 0.99303
 C1004 C -0.14728 0.54813 1.00033
 C1005 C -0.12189 0.53687 1.00650
 C1006 C -0.09956 0.52816 1.00933
 C1007 C -0.07289 0.51901 1.00934
 C1008 C -0.04998 0.51211 1.00606
 C1009 C 0.03306 0.67582 0.60286
 C1010 C 0.03209 0.65506 0.58767
 C1011 C 0.03028 0.63043 0.57061
 C1012 C 0.02808 0.60902 0.55711
 C1013 C 0.02464 0.58339 0.54301
 C1014 C 0.02089 0.56097 0.53303
 C1015 C 0.53397 0.17621 0.10244
 C1016 C 0.53290 0.15544 0.08728
 C1017 C 0.53094 0.13081 0.07028
 C1018 C 0.52862 0.10939 0.05684
 C1019 C 0.52505 0.08373 0.04286
 C1020 C 0.52124 0.06130 0.03299
 C1021 C -0.03402 0.17599 0.89888
 C1022 C -0.03297 0.15523 0.91410
 C1023 C -0.03103 0.13058 0.93116
 C1024 C -0.02870 0.10915 0.94461
 C1025 C -0.02510 0.08347 0.95857
 C1026 C -0.02123 0.06101 0.96837
 C1027 C 0.46652 0.67604 0.39729
 C1028 C 0.46749 0.65531 0.41258
 C1029 C 0.46936 0.63071 0.42974
 C1030 C 0.47165 0.60931 0.44330
 C1031 C 0.47521 0.58368 0.45739
 C1032 C 0.47905 0.56125 0.46731
 C1033 C 0.53404 0.82364 0.39756
 C1034 C 0.53303 0.84433 0.41289
 C1035 C 0.53111 0.86888 0.43007
 C1036 C 0.52876 0.89024 0.44363
 C1037 C 0.52512 0.91584 0.45771
 C1038 C 0.52120 0.93824 0.46760
 C1039 C 0.03300 0.32402 0.89853
 C1040 C 0.03200 0.34477 0.91374
 C1041 C 0.03010 0.36938 0.93079
 C1042 C 0.02780 0.39078 0.94427
 C1043 C 0.02424 0.41642 0.95828
 C1044 C 0.02040 0.43883 0.96817
 C1045 C 0.46688 0.32421 0.10231
 C1046 C 0.46781 0.34496 0.08703
 C1047 C 0.46960 0.36957 0.06986
 C1048 C 0.47180 0.39097 0.05630
 C1049 C 0.47525 0.41662 0.04217
 C1050 C 0.47900 0.43906 0.03222
 C1051 C -0.03397 0.82391 0.60282
 C1052 C -0.03298 0.84468 0.58759
 C1053 C -0.03112 0.86932 0.57048
 C1054 C -0.02887 0.89073 0.55694
 C1055 C -0.02537 0.91636 0.54280
 C1056 C -0.02158 0.93878 0.53278
 C1057 C 0.24340 0.38155 0.10082
 C1058 C 0.23472 0.36742 0.12256
 C1059 C 0.22673 0.34972 0.14802
 C1060 C 0.22249 0.33377 0.16983
 C1061 C 0.22129 0.31442 0.19529
 C1062 C 0.22423 0.29782 0.21665
 C1063 C 0.74302 0.88201 0.60043
 C1064 C 0.73437 0.86784 0.62214
 C1065 C 0.72645 0.85009 0.64757
 C1066 C 0.72230 0.83409 0.66935
 C1067 C 0.72122 0.81470 0.69476
 C1068 C 0.72425 0.79806 0.71606
 C1069 C 0.25779 0.61842 0.60065
 C1070 C 0.26648 0.63259 0.62230
 C1071 C 0.27443 0.65033 0.64768
 C1072 C 0.27859 0.66632 0.66943
 C1073 C 0.27965 0.68567 0.69483
 C1074 C 0.27660 0.70225 0.71614
 C1075 C 0.75739 0.11818 0.10092
 C1076 C 0.76629 0.13225 0.12257
 C1077 C 0.77449 0.14988 0.14795
 C1078 C 0.77888 0.16579 0.16972
 C1079 C 0.78019 0.18509 0.19516
 C1080 C 0.77729 0.20167 0.21653
 C1081 C 0.74190 0.11831 0.90038
 C1082 C 0.73315 0.13232 0.87858
 C1083 C 0.72516 0.14990 0.85301
 C1084 C 0.72097 0.16578 0.83111
 C1085 C 0.71990 0.18507 0.80559
 C1086 C 0.72293 0.20166 0.78423
 C1087 C 0.24222 0.61842 0.39897
 C1088 C 0.23356 0.63260 0.37727
 C1089 C 0.22566 0.65036 0.35183
 C1090 C 0.22154 0.66635 0.33004
 C1091 C 0.22052 0.68573 0.30461
 C1092 C 0.22358 0.70234 0.28329
 C1093 C 0.75810 0.88202 0.39865
 C1094 C 0.76680 0.86791 0.37695
 C1095 C 0.77477 0.85023 0.35152
 C1096 C 0.77896 0.83430 0.32973
 C1097 C 0.78006 0.81497 0.30429
 C1098 C 0.77703 0.79840 0.28296
 C1099 C 0.25706 0.38144 0.90027
 C1100 C 0.26567 0.36743 0.87842
 C1101 C 0.27353 0.34989 0.85280
 C1102 C 0.27763 0.33408 0.83085
 C1103 C 0.27865 0.31491 0.80522
 C1104 C 0.27557 0.29846 0.78375
 C1105 C 0.80825 0.41686 0.74514
 C1106 C 0.79754 0.39606 0.75229
 C1107 C 0.78610 0.37072 0.75821
 C1108 C 0.77724 0.34842 0.76078
 C1109 C 0.76796 0.32180 0.76043
 C1110 C 0.76100 0.29894 0.75684
 C1111 C 0.30872 0.91759 0.24358
 C1112 C 0.29799 0.89678 0.25070
 C1113 C 0.28658 0.87142 0.25659
 C1114 C 0.27777 0.84910 0.25915
 C1115 C 0.26854 0.82245 0.25885
 C1116 C 0.26162 0.79957 0.25535
 C1117 C 0.19133 0.91738 0.75514
 C1118 C 0.20198 0.89652 0.74818
 C1119 C 0.21334 0.87112 0.74247
 C1120 C 0.22213 0.84879 0.74004
 C1121 C 0.23136 0.82216 0.74047
 C1122 C 0.23831 0.79929 0.74406
 C1123 C 0.69261 0.41700 0.25610
 C1124 C 0.70323 0.39613 0.24911
 C1125 C 0.71455 0.37072 0.24331
 C1126 C 0.72329 0.34838 0.24078
 C1127 C 0.73245 0.32172 0.24109
 C1128 C 0.73933 0.29882 0.24459
 C1129 C 0.69248 0.58296 0.24346
 C1130 C 0.70301 0.60386 0.25053
 C1131 C 0.71422 0.62931 0.25640
 C1132 C 0.72288 0.65169 0.25894
 C1133 C 0.73197 0.67837 0.25862
 C1134 C 0.73882 0.70128 0.25510
 C1135 C 0.19055 0.08335 0.74255
 C1136 C 0.20108 0.10423 0.74974
 C1137 C 0.21234 0.12962 0.75582
 C1138 C 0.22108 0.15195 0.75859
 C1139 C 0.23028 0.17861 0.75856
 C1140 C 0.23723 0.20151 0.75525
 C1141 C 0.30866 0.08232 0.25693
 C1142 C 0.29817 0.10323 0.24978
 C1143 C 0.28698 0.12868 0.24379
 C1144 C 0.27831 0.15104 0.24110
 C1145 C 0.26919 0.17771 0.24125
 C1146 C 0.26230 0.20061 0.24467
 C1147 C 0.80906 0.58277 0.75647
 C1148 C 0.79849 0.60361 0.74919
 C1149 C 0.78720 0.62898 0.74306
 C1150 C 0.77845 0.65131 0.74030
 C1151 C 0.76926 0.67795 0.74041
 C1152 C 0.76234 0.70084 0.74383
 C1153 C 0.92693 0.78302 0.14670
 C1154 C 0.90619 0.78223 0.16196
 C1155 C 0.88158 0.78061 0.17910
 C1156 C 0.86017 0.77854 0.19264
 C1157 C 0.83452 0.77522 0.20674
 C1158 C 0.81209 0.77153 0.21670
 C1159 C 0.42561 0.28375 0.64781
 C1160 C 0.40486 0.28290 0.66305
 C1161 C 0.38025 0.28117 0.68015
 C1162 C 0.35884 0.27900 0.69364
 C1163 C 0.33317 0.27556 0.70766
 C1164 C 0.31073 0.27180 0.71752
 C1165 C 0.42648 0.71625 0.85239
 C1166 C 0.40575 0.71731 0.83711
 C1167 C 0.38116 0.71927 0.81996
 C1168 C 0.35977 0.72161 0.80641
 C1169 C 0.33414 0.72520 0.79230
 C1170 C 0.31172 0.72905 0.78235
 C1171 C 0.92717 0.21579 0.35322
 C1172 C 0.90642 0.21678 0.33795
 C1173 C 0.88182 0.21866 0.32079
 C1174 C 0.86043 0.22093 0.30720
 C1175 C 0.83481 0.22447 0.29303
 C1176 C 0.81241 0.22830 0.28300
 C1177 C 0.07400 0.28283 0.35245
 C1178 C 0.09477 0.28190 0.33726
 C1179 C 0.11942 0.28013 0.32022
 C1180 C 0.14084 0.27796 0.30674
 C1181 C 0.16651 0.27456 0.29271
 C1182 C 0.18895 0.27083 0.28281
 C1183 C 0.57439 0.78331 0.85238
 C1184 C 0.59510 0.78236 0.83706
 C1185 C 0.61967 0.78055 0.81988
 C1186 C 0.64104 0.77832 0.80629
 C1187 C 0.66666 0.77485 0.79215
 C1188 C 0.68907 0.77106 0.78219
 C1189 C 0.57304 0.21580 0.64822
 C1190 C 0.59376 0.21680 0.66351
 C1191 C 0.61835 0.21875 0.68066
 C1192 C 0.63973 0.22111 0.69419
 C1193 C 0.66535 0.22475 0.70827
 C1194 C 0.68776 0.22866 0.71820
 C1195 C 0.07354 0.71563 0.14760
 C1196 C 0.09433 0.71677 0.16274
 C1197 C 0.11898 0.71886 0.17974
 C1198 C 0.14040 0.72133 0.19318
 C1199 C 0.16603 0.72509 0.20718
 C1200 C 0.18844 0.72906 0.21707
   
