data_POSCAR
  _audit_creation_date              2014-09-24
  _audit_creation_method            'ToBaCCo'
  _symmetry_space_group_name_H-M    'P1'
  _symmetry_Int_Tables_number       1
  _symmetry_cell_setting            triclinic
  loop_
  _symmetry_equiv_pos_as_xyz
 x,y,z
_cell_length_a 17.8562
_cell_length_b 18.0346
_cell_length_c 41.5107
_cell_angle_alpha 84.384400
_cell_angle_beta 90.000100
_cell_angle_gamma 117.153100
loop_
  _atom_site_label
  _atom_site_type_symbol
  _atom_site_fract_x
  _atom_site_fract_y
  _atom_site_fract_z
C1 C -0.09615 0.11854 0.50919
 H2 H -0.09240 0.13819 0.48351
 C3 C -0.09325 0.17249 0.53169
 H4 H -0.08828 0.23335 0.52323
 C5 C -0.10163 0.01745 0.55149
 H6 H -0.10293 -0.04216 0.55911
 C7 C -0.09951 0.06911 0.57474
 H8 H -0.09932 0.04917 0.60019
 N9 N -0.09776 0.04374 0.51939
 C10 C -0.11398 -0.17834 0.51703
 H11 H -0.17480 -0.19638 0.50690
 C12 C -0.10116 -0.23703 0.53757
 H13 H -0.15179 -0.30021 0.54251
 C14 C 0.02369 -0.07284 0.52492
 H15 H 0.07116 -0.00818 0.52058
 C16 C 0.03901 -0.12961 0.54576
 H17 H 0.09864 -0.10886 0.55725
 Zn18 Zn -0.07853 -0.01715 0.48853
 N19 N -0.05217 -0.09783 0.51127
 C20 C 0.07528 0.12692 0.47389
 N21 N 0.01320 0.06152 0.46062
 C22 C 0.01158 0.05858 0.42800
 C23 C 0.07321 0.12370 0.40739
 C24 C 0.13703 0.19434 0.45406
 C25 C -0.24491 -0.06132 0.47003
 C26 C -0.31958 -0.10783 0.45506
 C27 C -0.25112 -0.17659 0.42907
 C28 C -0.17754 -0.12862 0.44449
 N29 N -0.17602 -0.07299 0.46480
 H30 H 0.07468 0.12856 0.49986
 H31 H -0.03867 0.00721 0.41776
 H32 H 0.07072 0.12169 0.38140
 H33 H 0.18455 0.24710 0.46484
 H34 H -0.24277 -0.01764 0.48650
 H35 H -0.37486 -0.09981 0.46007
 H36 H -0.25261 -0.22251 0.41374
 H37 H -0.12243 -0.13792 0.44122
 C38 C -0.02425 -0.21218 0.55259
 C39 C -0.09276 0.14830 0.56487
 C40 C -0.32301 -0.16668 0.43474
 C41 C 0.13523 0.19319 0.42036
 C42 C 1.21906 0.00608 0.16147
 H43 H 1.24746 0.05399 0.17747
 C44 C 1.27186 -0.00973 0.14165
 H45 H 1.33942 0.02553 0.14324
 C46 C 1.09845 -0.09157 0.13753
 H47 H 1.03117 -0.12035 0.13488
 C48 C 1.14943 -0.10828 0.11677
 H49 H 1.12107 -0.15050 0.09850
 N50 N 1.13401 -0.03284 0.15859
 C51 C 0.93756 0.04249 0.15542
 H52 H 0.91833 0.03265 0.18083
 C53 C 0.88431 0.04948 0.13199
 H54 H 0.82459 0.04582 0.13957
 C55 C 1.03675 0.05482 0.11462
 H56 H 1.09552 0.05530 0.10799
 C57 C 0.98542 0.06222 0.09041
 H58 H 1.00481 0.06864 0.06515
 Zn59 Zn 1.06833 0.01056 0.17884
 N60 N 1.01109 0.04304 0.14641
 C61 C 1.15747 0.18362 0.18957
 N62 N 1.14244 0.10380 0.19989
 C63 C 1.18128 0.08714 0.22575
 C64 C 1.23527 0.15136 0.24307
 C65 C 1.21244 0.25035 0.20607
 C66 C 0.92114 -0.14045 0.19943
 C67 C 0.85040 -0.19261 0.21990
 C68 C 0.91041 -0.10058 0.26148
 C69 C 0.97902 -0.04949 0.24014
 N70 N 0.98350 -0.06976 0.20964
 H71 H 1.12632 0.19538 0.16880
 H72 H 1.16896 0.02325 0.23321
 H73 H 1.26353 0.13701 0.26430
 H74 H 1.22237 0.31340 0.19837
 H75 H 0.92408 -0.15422 0.17486
 H76 H 0.80020 -0.24725 0.21110
 H77 H 0.90677 -0.08265 0.28536
 H78 H 1.02600 0.00857 0.24764
 C79 C 0.90745 0.05734 0.09902
 C80 C 1.23719 -0.06501 0.11808
 C81 C 0.84444 -0.17172 0.25121
 C82 C 1.25094 0.23358 0.23338
 C83 C 0.07449 0.88958 0.88942
 H84 H 0.01055 0.83957 0.89247
 C85 C 0.13431 0.89037 0.91110
 H86 H 0.11666 0.84127 0.93107
 C87 C 0.17572 1.01504 0.85969
 H88 H 0.19118 1.06337 0.83961
 C89 C 0.23802 1.01745 0.88058
 H90 H 0.30143 1.06822 0.87663
 N91 N 0.09570 0.95186 0.86459
 C92 C -0.13696 0.96398 0.84414
 H93 H -0.14128 0.95719 0.81857
 C94 C -0.18541 0.99562 0.85859
 H95 H -0.22854 1.01043 0.84426
 C96 C -0.06732 0.96543 0.89288
 H97 H -0.01782 0.95920 0.90580
 C98 C -0.11457 0.99694 0.90822
 H99 H -0.10220 1.01260 0.93287
 Zn100 Zn 0.00963 0.94555 0.83678
 N101 N -0.07742 0.95180 0.86107
 C102 C -0.09067 0.82495 0.79464
 N103 N -0.02688 0.84643 0.81544
 C104 C 0.02147 0.80574 0.81767
 C105 C 0.00916 0.74382 0.79764
 C106 C -0.10467 0.76361 0.77393
 C107 C 0.05726 1.11290 0.81451
 C108 C 0.06308 1.17746 0.79147
 C109 C 0.05888 1.09254 0.74929
 C110 C 0.05284 1.02947 0.77309
 N111 N 0.04899 1.03952 0.80500
 H112 H -0.12723 0.85889 0.79251
 H113 H 0.07343 0.82466 0.83348
 H114 H 0.05085 0.71509 0.79883
 H115 H -0.15258 0.75004 0.75628
 H116 H 0.05306 1.11887 0.84004
 H117 H 0.06458 1.23350 0.79942
 H118 H 0.05726 1.08239 0.72396
 H119 H 0.04631 0.97082 0.76601
 C120 C -0.17194 1.01490 0.89056
 C121 C 0.21684 0.95451 0.90671
 C122 C 0.06080 1.16591 0.75847
 C123 C -0.05296 0.72411 0.77476
 C124 C 0.82740 0.11729 0.01043
 C125 C 0.82402 0.12379 -0.02274
 C126 C 0.73995 0.08135 -0.02936
 N127 N 0.69187 0.04786 -0.00154
 C128 C 0.74504 0.06978 0.02298
 C129 C 0.70952 0.07216 -0.06078
 C130 C 0.62385 0.04065 -0.06732
 C131 C 0.59179 0.01970 -0.09735
 C132 C 0.50803 0.00099 -0.09487
 C133 C 0.49182 0.01140 -0.06344
 N134 N 0.56268 0.03565 -0.04681
 C135 C 0.41505 0.00551 -0.05197
 C136 C 0.39606 0.00495 -0.01889
 C137 C 0.33171 0.01932 -0.00730
 C138 C 0.33420 0.01266 0.02583
 C139 C 0.39979 -0.00599 0.03338
 N140 N 0.43749 -0.01078 0.00599
 C141 C 0.42342 -0.01920 0.06510
 C142 C 0.50179 -0.01711 0.07170
 C143 C 0.52145 -0.04246 0.10168
 C144 C 0.60504 -0.02448 0.09915
 C145 C 0.63425 0.01184 0.06773
 N146 N 0.57093 0.01653 0.05118
 C147 C 0.71914 0.04452 0.05628
 H148 H 0.88437 0.14678 0.02333
 H149 H 0.87722 0.15705 -0.04001
 H150 H 0.57706 0.05010 0.02874
 H151 H 0.62576 0.01991 -0.11899
 H152 H 0.46455 -0.01620 -0.11420
 H153 H 0.28905 0.03567 -0.02117
 H154 H 0.29378 0.02326 0.04217
 H155 H 0.64071 -0.03548 0.11847
 H156 H 0.57166 0.05872 -0.02446
 H157 H 0.48009 -0.06998 0.12324
 C158 C 0.04103 0.28577 0.63697
 C159 C 0.06621 0.28923 0.66827
 C160 C 0.03173 0.33270 0.68341
 N161 N -0.01243 0.35691 0.66217
 C162 C -0.00706 0.32804 0.63386
 C163 C 0.03496 0.34461 0.71674
 C164 C 0.01567 0.40489 0.72865
 C165 C 0.00109 0.40803 0.76115
 C166 C -0.01237 0.47690 0.76293
 C167 C -0.00541 0.51395 0.73148
 N168 N 0.01271 0.47027 0.71072
 C169 C -0.01180 0.58862 0.72329
 C170 C -0.01479 0.62031 0.69103
 C171 C -0.00338 0.70063 0.68130
 C172 C -0.01498 0.70471 0.64861
 C173 C -0.03209 0.62700 0.63931
 N174 N -0.03268 0.57544 0.66537
 C175 C -0.05466 0.60174 0.60805
 C176 C -0.07308 0.52115 0.60033
 C177 C -0.11656 0.48576 0.57369
 C178 C -0.11535 0.41004 0.57323
 C179 C -0.07027 0.40218 0.59938
 N180 N -0.04444 0.47029 0.61569
 C181 C -0.04777 0.33706 0.60565
 H182 H 0.05856 0.25757 0.61844
 H183 H 0.10718 0.26429 0.67806
 H184 H -0.00078 0.48621 0.63357
 H185 H 0.00045 0.36527 0.78149
 H186 H -0.02530 0.49767 0.78491
 H187 H 0.01219 0.75157 0.69599
 H188 H -0.01257 0.75864 0.63388
 H189 H -0.14240 0.36687 0.55518
 H190 H 0.03053 0.48849 0.68628
 H191 H -0.14513 0.51232 0.55620
 C192 C 0.65588 0.79000 0.31956
 C193 C 0.62604 0.79073 0.35004
 C194 C 0.56891 0.70878 0.36063
 N195 N 0.56262 0.65819 0.33761
 C196 C 0.61536 0.70765 0.31237
 C197 C 0.52488 0.68090 0.39129
 C198 C 0.46312 0.59779 0.39981
 C199 C 0.43768 0.56058 0.43133
 C200 C 0.37394 0.48079 0.42934
 C201 C 0.36120 0.47274 0.39667
 N202 N 0.41566 0.54457 0.37887
 C203 C 0.29609 0.40301 0.38436
 C204 C 0.28636 0.39859 0.35077
 C205 C 0.21173 0.35162 0.33635
 C206 C 0.23149 0.36059 0.30382
 C207 C 0.31733 0.41271 0.29960
 N208 N 0.35073 0.43605 0.32824
 C209 C 0.36486 0.43009 0.27032
 C210 C 0.44865 0.49361 0.26563
 C211 C 0.50432 0.50053 0.24098
 C212 C 0.57925 0.56992 0.24516
 C213 C 0.56673 0.60357 0.27212
 N214 N 0.48653 0.55723 0.28418
 C215 C 0.62732 0.67853 0.28315
 H216 H 0.69977 0.84478 0.30415
 H217 H 0.64382 0.84566 0.36263
 H218 H 0.45682 0.57236 0.30207
 H219 H 0.46266 0.58813 0.45340
 H220 H 0.33916 0.43497 0.44960
 H221 H 0.14924 0.31583 0.34779
 H222 H 0.18781 0.33166 0.28540
 H223 H 0.63625 0.59346 0.22987
 H224 H 0.41439 0.56082 0.35426
 H225 H 0.49236 0.45951 0.22216
 N226 N -0.07945 0.20454 0.58877
 N227 N -0.06522 0.28016 0.58149
 N228 N 0.77092 0.78130 0.27238
 N229 N 0.70257 0.72605 0.26258
 N230 N 0.27703 -0.04469 -0.07045
 N231 N 0.35560 0.00283 -0.07563
 N232 N -0.01094 0.73204 0.57615
 N233 N -0.06667 0.65656 0.58352
 N234 N 0.29767 0.29606 0.25408
 N235 N 0.32882 0.37460 0.24587
 N236 N 0.79722 0.05756 -0.09819
 N237 N 0.76902 0.10198 -0.08787
 N238 N 0.28959 -0.06787 0.09256
 N239 N 0.36965 -0.02754 0.09242
 N240 N 0.60791 0.78549 0.42391
 N241 N 0.53803 0.73839 0.41482
 N242 N 0.05188 0.22302 0.73418
 N243 N 0.04984 0.28965 0.74059
 N244 N 0.85145 0.05597 0.07409
 N245 N 0.77855 0.04870 0.08046
 N246 N 0.19337 0.26223 0.39863
 N247 N 0.23918 0.33478 0.40719
 N248 N -0.05851 0.67158 0.75016
 N249 N -0.01192 0.63529 0.74943
   
