data_POSCAR
  _audit_creation_date              2014-09-24
  _audit_creation_method            'ToBaCCo'
  _symmetry_space_group_name_H-M    'P1'
  _symmetry_Int_Tables_number       1
  _symmetry_cell_setting            triclinic
  loop_
  _symmetry_equiv_pos_as_xyz
 x,y,z
_cell_length_a 54.0716
_cell_length_b 52.2171
_cell_length_c 29.1430
_cell_angle_alpha 90.228700
_cell_angle_beta 90.061200
_cell_angle_gamma 89.967800
loop_
  _atom_site_label
  _atom_site_type_symbol
  _atom_site_fract_x
  _atom_site_fract_y
  _atom_site_fract_z
O1 O 0.23960 0.27446 0.19074
 O2 O 0.28123 0.22466 0.23576
 O3 O 0.23936 0.22455 0.19222
 O4 O 0.28172 0.27462 0.23469
 O5 O 0.26235 0.27469 0.30126
 O6 O 0.21860 0.22659 0.25715
 O7 O 0.26083 0.22502 0.30127
 O8 O 0.22043 0.27618 0.25746
 Cu9 Cu 0.26249 0.24952 0.20674
 Cu10 Cu 0.23856 0.25066 0.28590
 C11 C 0.22291 0.28389 0.21643
 C12 C 0.27810 0.21625 0.27618
 C13 C 0.22146 0.21722 0.21717
 C14 C 0.27944 0.28301 0.27547
 O15 O 0.75937 0.22429 0.19547
 O16 O 0.71768 0.27446 0.23905
 O17 O 0.75973 0.27407 0.19487
 O18 O 0.71728 0.22512 0.23969
 O19 O 0.73771 0.22486 0.30516
 O20 O 0.77991 0.27422 0.26069
 O21 O 0.73804 0.27498 0.30475
 O22 O 0.77950 0.22439 0.26135
 Cu23 Cu 0.73655 0.24946 0.21062
 Cu24 Cu 0.76079 0.24965 0.28961
 C25 C 0.77660 0.21577 0.22088
 C26 C 0.72064 0.28317 0.27942
 C27 C 0.77714 0.28249 0.22006
 C28 C 0.72010 0.21663 0.28019
 O29 O 0.77855 0.72540 0.74394
 O30 O 0.73721 0.77560 0.69954
 O31 O 0.77950 0.77516 0.74278
 O32 O 0.73658 0.72556 0.70098
 O33 O 0.71609 0.72770 0.76642
 O34 O 0.76023 0.77582 0.80936
 O35 O 0.71809 0.77727 0.76630
 O36 O 0.75853 0.72608 0.80985
 Cu37 Cu 0.75990 0.75037 0.71513
 Cu38 Cu 0.73627 0.75178 0.79464
 C39 C 0.77561 0.71713 0.78449
 C40 C 0.72060 0.78509 0.72535
 C41 C 0.77744 0.78384 0.78344
 C42 C 0.71889 0.71836 0.72647
 O43 O 0.28035 0.77570 0.76140
 O44 O 0.23720 0.72734 0.80606
 O45 O 0.27948 0.72588 0.76310
 O46 O 0.23808 0.77710 0.80413
 O47 O 0.21847 0.77650 0.73782
 O48 O 0.25998 0.72550 0.69659
 O49 O 0.21775 0.72666 0.73951
 O50 O 0.26074 0.77525 0.69500
 Cu51 Cu 0.26074 0.75155 0.79032
 Cu52 Cu 0.23726 0.75092 0.71060
 C53 C 0.27797 0.78373 0.72053
 C54 C 0.22004 0.71875 0.78047
 C55 C 0.27690 0.71701 0.72271
 C56 C 0.22108 0.78557 0.77809
 C57 C 1.01430 -0.07143 -0.05776
 C58 C 0.98896 -0.07246 -0.05644
 C59 C 0.98087 -0.04802 -0.04528
 N60 N 1.00037 -0.03211 -0.03993
 C61 C 1.02082 -0.04639 -0.04744
 C62 C 0.95585 -0.04039 -0.04293
 C63 C 0.94827 -0.01648 -0.02485
 C64 C 0.92482 -0.00608 -0.02993
 C65 C 0.92443 0.01627 -0.00484
 C66 C 0.94770 0.01902 0.01466
 N67 N 0.96205 -0.00112 0.00251
 C68 C 0.95453 0.03869 0.04560
 C69 C 0.97924 0.04362 0.05853
 C70 C 0.98645 0.06028 0.09316
 C71 C 1.01180 0.06105 0.09227
 C72 C 1.01924 0.04519 0.05657
 N73 N 0.99929 0.03454 0.03608
 C74 C 1.04386 0.04225 0.04104
 C75 C 1.05074 0.02332 0.00855
 C76 C 1.07279 0.02309 -0.01575
 C77 C 1.07322 0.00069 -0.04073
 C78 C 1.05134 -0.01205 -0.03129
 N79 N 1.03773 0.00185 -0.00125
 C80 C 1.04518 -0.03667 -0.04801
 H81 H 1.02649 -0.08729 -0.06563
 H82 H 0.97777 -0.08925 -0.06307
 H83 H 1.02196 -0.00442 0.01570
 H84 H 0.90947 -0.01393 -0.04925
 H85 H 0.90864 0.02883 -0.00093
 H86 H 0.97471 0.07094 0.11644
 H87 H 1.02337 0.07229 0.11500
 H88 H 1.08801 -0.00556 -0.06312
 H89 H 0.97921 -0.00562 0.01638
 H90 H 1.08721 0.03745 -0.01530
 C91 C 0.48757 0.44099 0.40622
 C92 C 0.51293 0.44108 0.40674
 C93 C 0.52005 0.45762 0.44169
 N94 N 0.49988 0.46776 0.46223
 C95 C 0.48001 0.45774 0.44046
 C96 C 0.54472 0.46162 0.45625
 C97 C 0.55162 0.48121 0.48754
 C98 C 0.57459 0.48311 0.50850
 C99 C 0.57459 0.50553 0.53334
 C100 C 0.55142 0.51655 0.52779
 N101 N 0.53764 0.50170 0.49945
 C102 C 0.54416 0.54055 0.54617
 C103 C 0.51924 0.54874 0.54869
 C104 C 0.51158 0.57266 0.56399
 C105 C 0.48625 0.57239 0.56383
 C106 C 0.47917 0.54825 0.54895
 N107 N 0.49936 0.53378 0.54000
 C108 C 0.45444 0.53960 0.54626
 C109 C 0.44751 0.51587 0.52654
 C110 C 0.42436 0.50474 0.53101
 C111 C 0.42453 0.48281 0.50476
 C112 C 0.44784 0.48102 0.48517
 N113 N 0.46165 0.50137 0.49834
 C114 C 0.45520 0.46187 0.45358
 H115 H 0.47607 0.42966 0.38353
 H116 H 0.52474 0.42998 0.38425
 H117 H 0.47864 0.50659 0.48470
 H118 H 0.58996 0.46992 0.50579
 H119 H 0.59007 0.51280 0.55293
 H120 H 0.52295 0.58862 0.57482
 H121 H 0.47442 0.58815 0.57396
 H122 H 0.40909 0.46986 0.50027
 H123 H 0.52081 0.50679 0.48488
 H124 H 0.40884 0.51181 0.55077
 C125 C -0.01556 0.56994 -0.07025
 C126 C 0.00974 0.57112 -0.06874
 C127 C 0.01776 0.54881 -0.04776
 N128 N -0.00188 0.53420 -0.03622
 C129 C -0.02229 0.54701 -0.04993
 C130 C 0.04289 0.54227 -0.04071
 C131 C 0.05114 0.51961 -0.01872
 C132 C 0.07563 0.51168 -0.01756
 C133 C 0.07624 0.48901 0.00604
 C134 C 0.05208 0.48341 0.01849
 N135 N 0.03696 0.50244 0.00400
 C136 C 0.04497 0.46101 0.04250
 C137 C 0.02024 0.45303 0.04944
 C138 C 0.01352 0.43018 0.07006
 C139 C -0.01178 0.42898 0.06850
 C140 C -0.01980 0.45120 0.04721
 N141 N -0.00016 0.46577 0.03551
 C142 C -0.04493 0.45770 0.04001
 C143 C -0.05319 0.48031 0.01788
 C144 C -0.07769 0.48818 0.01652
 C145 C -0.07830 0.51086 -0.00704
 C146 C -0.05413 0.51654 -0.01926
 N147 N -0.03900 0.49753 -0.00470
 C148 C -0.04702 0.53901 -0.04307
 H149 H -0.02761 0.58455 -0.08416
 H150 H 0.02089 0.58673 -0.08154
 H151 H -0.02045 0.49550 -0.01256
 H152 H 0.09148 0.52108 -0.03262
 H153 H 0.09268 0.47779 0.01265
 H154 H 0.02556 0.41565 0.08419
 H155 H -0.02294 0.41342 0.08149
 H156 H -0.09476 0.52204 -0.01375
 H157 H 0.01844 0.50455 0.01206
 H158 H -0.09356 0.47875 0.03144
 C159 C 0.48632 1.05974 0.40530
 C160 C 0.51167 1.06049 0.40628
 C161 C 0.51910 1.04466 0.44182
 N162 N 0.49914 1.03405 0.46214
 C163 C 0.47910 1.04312 0.43972
 C164 C 0.54373 1.04171 0.45739
 C165 C 0.55063 1.02277 0.48960
 C166 C 0.57272 1.02251 0.51389
 C167 C 0.57314 1.00012 0.53858
 C168 C 0.55122 0.98742 0.52901
 N169 N 0.53761 1.00133 0.49914
 C170 C 0.54501 0.96287 0.54558
 C171 C 0.52062 0.95323 0.54500
 C172 C 0.51403 0.92827 0.55545
 C173 C 0.48869 0.92733 0.55421
 C174 C 0.48066 0.95172 0.54296
 N175 N 0.50020 0.96754 0.53747
 C176 C 0.45565 0.95943 0.54073
 C177 C 0.44807 0.98326 0.52262
 C178 C 0.42464 0.99370 0.52769
 C179 C 0.42425 1.01598 0.50269
 C180 C 0.44752 1.01864 0.48326
 N181 N 0.46185 0.99851 0.49533
 C182 C 0.45438 1.03825 0.45251
 H183 H 0.47458 1.07039 0.38210
 H184 H 0.52325 1.07168 0.38371
 H185 H 0.47901 0.99396 0.48151
 H186 H 0.58715 1.03685 0.51365
 H187 H 0.58794 0.99387 0.56092
 H188 H 0.52619 0.91243 0.56342
 H189 H 0.47747 0.91061 0.56099
 H190 H 0.40849 1.02856 0.49883
 H191 H 0.52178 0.99508 0.48214
 H192 H 0.40929 0.98595 0.54697
 C193 C 1.17008 0.16322 0.16539
 C194 C 1.16548 0.17608 0.20684
 C195 C 1.18273 0.19342 0.22457
 C196 C 1.20464 0.19893 0.20037
 C197 C 1.20908 0.18600 0.15861
 C198 C 1.19215 0.16805 0.14173
 C199 C 1.15170 0.14517 0.14656
 N200 N 1.15897 0.12350 0.12445
 N201 N 1.14229 0.10722 0.10752
 C202 C 1.11773 0.11222 0.11145
 N203 N 1.11048 0.13397 0.13328
 N204 N 1.12714 0.15005 0.15078
 C205 C 1.09922 0.09436 0.09252
 C206 C 1.07740 0.10377 0.07263
 C207 C 1.05973 0.08689 0.05494
 C208 C 1.06315 0.06029 0.05831
 C209 C 1.08499 0.05090 0.07831
 C210 C 1.10304 0.06780 0.09467
 H211 H 1.14861 0.17253 0.22579
 H212 H 1.17856 0.20293 0.25674
 H213 H 1.22573 0.18957 0.13901
 H214 H 1.19601 0.15839 0.10957
 H215 H 1.07418 0.12419 0.07024
 H216 H 1.04322 0.09458 0.03904
 H217 H 1.08801 0.03047 0.08136
 H218 H 1.11970 0.06013 0.11006
 C219 C 0.66736 0.66302 0.67462
 C220 C 0.69278 0.66003 0.66653
 C221 C 0.70959 0.67822 0.68306
 C222 C 0.70127 0.69912 0.70926
 C223 C 0.67591 0.70175 0.71830
 C224 C 0.65903 0.68407 0.70042
 C225 C 0.64953 0.64451 0.65558
 N226 N 0.62797 0.65274 0.63681
 N227 N 0.61193 0.63608 0.61901
 C228 C 0.61669 0.61056 0.61995
 N229 N 0.63816 0.60230 0.63906
 N230 N 0.65438 0.61899 0.65623
 C231 C 0.59880 0.59222 0.60055
 C232 C 0.59345 0.56930 0.62351
 C233 C 0.57561 0.55250 0.60603
 C234 C 0.56358 0.55795 0.56448
 C235 C 0.56940 0.58056 0.54099
 C236 C 0.58658 0.59777 0.55927
 H237 H 0.69956 0.64398 0.64652
 H238 H 0.72911 0.67583 0.67583
 H239 H 0.66913 0.71783 0.73826
 H240 H 0.63949 0.68666 0.70715
 H241 H 0.60256 0.56477 0.65559
 H242 H 0.57115 0.53526 0.62483
 H243 H 0.56022 0.58507 0.50896
 H244 H 0.59052 0.61531 0.54096
 C245 C -0.17138 0.33772 0.16641
 C246 C -0.17074 0.33082 0.21298
 C247 C -0.18755 0.31304 0.23044
 C248 C -0.20549 0.30184 0.20180
 C249 C -0.20636 0.30897 0.15537
 C250 C -0.18945 0.32664 0.13785
 C251 C -0.15309 0.35606 0.14766
 N252 N -0.15163 0.36037 0.10180
 N253 N -0.13492 0.37653 0.08491
 C254 C -0.11899 0.38911 0.11316
 N255 N -0.12053 0.38486 0.15903
 N256 N -0.13719 0.36867 0.17590
 C257 C -0.10021 0.40687 0.09437
 C258 C -0.08553 0.42188 0.12394
 C259 C -0.06768 0.43846 0.10626
 C260 C -0.06402 0.44019 0.05875
 C261 C -0.07863 0.42536 0.02907
 C262 C -0.09661 0.40889 0.04669
 H263 H -0.15706 0.33895 0.23597
 H264 H -0.18641 0.30799 0.26639
 H265 H -0.21994 0.30067 0.13239
 H266 H -0.19053 0.33157 0.10184
 H267 H -0.08785 0.42089 0.16078
 H268 H -0.05661 0.44991 0.12957
 H269 H -0.07604 0.42656 -0.00771
 H270 H -0.10755 0.39761 0.02294
 C271 C 0.32973 0.83885 0.66733
 C272 C 0.33130 0.83063 0.71314
 C273 C 0.31442 0.81288 0.73046
 C274 C 0.29554 0.80294 0.70242
 C275 C 0.29382 0.81130 0.65675
 C276 C 0.31073 0.82903 0.63939
 C277 C 0.34796 0.85730 0.64873
 N278 N 0.34720 0.86444 0.60397
 N279 N 0.36378 0.88075 0.58715
 C280 C 0.38184 0.89064 0.61437
 N281 N 0.38256 0.88356 0.65915
 N282 N 0.36599 0.86724 0.67595
 C283 C 0.40051 0.90855 0.59556
 C284 C 0.41883 0.91917 0.62420
 C285 C 0.43662 0.93577 0.60641
 C286 C 0.43651 0.94202 0.55966
 C287 C 0.41823 0.93163 0.53097
 C288 C 0.40037 0.91505 0.54874
 H289 H 0.34569 0.83778 0.73566
 H290 H 0.31625 0.80686 0.76582
 H291 H 0.27948 0.80403 0.63424
 H292 H 0.30893 0.83495 0.60398
 H293 H 0.41949 0.91464 0.66040
 H294 H 0.45056 0.94374 0.62906
 H295 H 0.41790 0.93626 0.49478
 H296 H 0.38656 0.90724 0.52569
 C297 C -0.17431 0.66007 -0.16321
 C298 C -0.17448 0.66628 -0.21010
 C299 C -0.19085 0.68466 -0.22707
 C300 C -0.20759 0.69711 -0.19764
 C301 C -0.20773 0.69062 -0.15089
 C302 C -0.19121 0.67237 -0.13382
 C303 C -0.15631 0.64122 -0.14505
 N304 N -0.15321 0.63815 -0.09913
 N305 N -0.13659 0.62166 -0.08288
 C306 C -0.12242 0.60746 -0.11187
 N307 N -0.12563 0.61042 -0.15777
 N308 N -0.14219 0.62697 -0.17401
 C309 C -0.10357 0.58947 -0.09391
 C310 C -0.09122 0.57248 -0.12370
 C311 C -0.07309 0.55588 -0.10698
 C312 C -0.06690 0.55605 -0.06029
 C313 C -0.07912 0.57288 -0.03037
 C314 C -0.09740 0.58937 -0.04697
 H315 H -0.16171 0.65721 -0.23371
 H316 H -0.19033 0.68917 -0.26330
 H317 H -0.22039 0.69990 -0.12732
 H318 H -0.19164 0.66798 -0.09755
 H319 H -0.09553 0.57201 -0.15998
 H320 H -0.06370 0.54302 -0.13046
 H321 H -0.07440 0.57328 0.00575
 H322 H -0.10646 0.60226 -0.02313
 C323 C 0.32803 1.15931 0.32930
 C324 C 0.31184 1.17253 0.35876
 C325 C 0.29534 1.19071 0.34142
 C326 C 0.29489 1.19630 0.29430
 C327 C 0.31096 1.18299 0.26479
 C328 C 0.32725 1.16459 0.28206
 C329 C 0.34594 1.14050 0.34783
 N330 N 0.35817 1.12415 0.31945
 N331 N 0.37463 1.10759 0.33606
 C332 C 0.37964 1.10678 0.38172
 N333 N 0.36738 1.12311 0.41009
 N334 N 0.35084 1.13957 0.39351
 C335 C 0.39840 1.08883 0.40009
 C336 C 0.40784 1.09214 0.44472
 C337 C 0.42602 1.07567 0.46167
 C338 C 0.43483 1.05541 0.43456
 C339 C 0.42531 1.05179 0.39027
 C340 C 0.40733 1.06845 0.37304
 H341 H 0.31189 1.16884 0.39530
 H342 H 0.28321 1.20068 0.36504
 H343 H 0.31099 1.18681 0.22829
 H344 H 0.33951 1.15480 0.25843
 H345 H 0.40146 1.10770 0.46636
 H346 H 0.43327 1.07869 0.49593
 H347 H 0.43200 1.03621 0.36899
 H348 H 0.40039 1.06533 0.33861
 C349 C 1.17193 -0.15715 -0.17331
 C350 C 1.19110 -0.16634 -0.14523
 C351 C 1.20744 -0.18506 -0.16134
 C352 C 1.20503 -0.19514 -0.20604
 C353 C 1.18597 -0.18567 -0.23428
 C354 C 1.16966 -0.16693 -0.21811
 C355 C 1.15412 -0.13786 -0.15570
 N356 N 1.13549 -0.12904 -0.18267
 N357 N 1.11912 -0.11222 -0.16648
 C358 C 1.12066 -0.10348 -0.12261
 N359 N 1.13938 -0.11218 -0.09571
 N360 N 1.15575 -0.12900 -0.11191
 C361 C 1.10195 -0.08542 -0.10411
 C362 C 1.10304 -0.07722 -0.05809
 C363 C 1.08479 -0.06109 -0.04013
 C364 C 1.06514 -0.05285 -0.06780
 C365 C 1.06423 -0.06050 -0.11396
 C366 C 1.08244 -0.07666 -0.13195
 H367 H 1.19343 -0.15921 -0.11056
 H368 H 1.22185 -0.19174 -0.13848
 H369 H 1.18346 -0.19282 -0.26892
 H370 H 1.15513 -0.16029 -0.24072
 H371 H 1.11780 -0.08352 -0.03569
 H372 H 1.08577 -0.05533 -0.00443
 H373 H 1.04925 -0.05417 -0.13585
 H374 H 1.08105 -0.08250 -0.16755
 C375 C 0.66957 0.33883 0.33259
 C376 C 0.66200 0.32094 0.29935
 C377 C 0.67880 0.30323 0.28140
 C378 C 0.70333 0.30265 0.29723
 C379 C 0.71092 0.32045 0.33064
 C380 C 0.69425 0.33865 0.34771
 C381 C 0.65160 0.35725 0.35179
 N382 N 0.65888 0.38089 0.36599
 N383 N 0.64249 0.39749 0.38294
 C384 C 0.61827 0.39096 0.38687
 N385 N 0.61106 0.36727 0.37295
 N386 N 0.62737 0.35080 0.35551
 C387 C 0.60001 0.40918 0.40573
 C388 C 0.57925 0.40010 0.42954
 C389 C 0.56166 0.41719 0.44677
 C390 C 0.56411 0.44362 0.43938
 C391 C 0.58489 0.45274 0.41560
 C392 C 0.60286 0.43567 0.39941
 H393 H 0.64311 0.32076 0.28697
 H394 H 0.67248 0.28962 0.25583
 H395 H 0.72976 0.32041 0.34326
 H396 H 0.70049 0.35220 0.37346
 H397 H 0.57674 0.37979 0.43521
 H398 H 0.54592 0.40978 0.46544
 H399 H 0.58710 0.47305 0.40945
 H400 H 0.61866 0.44312 0.38097
 C401 C 0.82897 -0.16166 -0.16625
 C402 C 0.80969 -0.17054 -0.13820
 C403 C 0.79258 -0.18834 -0.15488
 C404 C 0.79432 -0.19781 -0.20011
 C405 C 0.81354 -0.18870 -0.22825
 C406 C 0.83060 -0.17085 -0.21153
 C407 C 0.84740 -0.14314 -0.14821
 N408 N 0.86558 -0.13386 -0.17565
 N409 N 0.88232 -0.11748 -0.15931
 C410 C 0.88163 -0.10970 -0.11479
 N411 N 0.86343 -0.11894 -0.08737
 N412 N 0.84668 -0.13530 -0.10373
 C413 C 0.90046 -0.09171 -0.09647
 C414 C 0.90051 -0.08476 -0.04976
 C415 C 0.91847 -0.06808 -0.03242
 C416 C 0.93667 -0.05800 -0.06143
 C417 C 0.93661 -0.06471 -0.10807
 C418 C 0.91871 -0.08144 -0.12543
 H419 H 0.80783 -0.16383 -0.10318
 H420 H 0.77808 -0.19478 -0.13205
 H421 H 0.81556 -0.19541 -0.26327
 H422 H 0.84520 -0.16441 -0.23412
 H423 H 0.88676 -0.09230 -0.02646
 H424 H 0.91827 -0.06309 0.00369
 H425 H 0.95047 -0.05699 -0.13097
 H426 H 0.91921 -0.08631 -0.16156
 C427 C 0.33074 0.33895 0.32815
 C428 C 0.31470 0.32583 0.35779
 C429 C 0.29789 0.30790 0.34056
 C430 C 0.29691 0.30245 0.29334
 C431 C 0.31292 0.31556 0.26363
 C432 C 0.32956 0.33374 0.28082
 C433 C 0.34875 0.35771 0.34669
 N434 N 0.36071 0.37426 0.31851
 N435 N 0.37703 0.39097 0.33531
 C436 C 0.38217 0.39173 0.38095
 N437 N 0.37022 0.37517 0.40907
 N438 N 0.35382 0.35856 0.39232
 C439 C 0.40059 0.40999 0.39966
 C440 C 0.41009 0.40677 0.44424
 C441 C 0.42782 0.42366 0.46167
 C442 C 0.43609 0.44426 0.43514
 C443 C 0.42655 0.44776 0.39088
 C444 C 0.40903 0.43068 0.37315
 H445 H 0.31505 0.32946 0.39440
 H446 H 0.28583 0.29808 0.36437
 H447 H 0.31256 0.31182 0.22706
 H448 H 0.34171 0.34346 0.25708
 H449 H 0.40408 0.39099 0.46548
 H450 H 0.43513 0.42070 0.49586
 H451 H 0.43285 0.46358 0.37001
 H452 H 0.40202 0.43375 0.33879
 C453 C 0.16839 0.66357 -0.16625
 C454 C 0.16789 0.67041 -0.21287
 C455 C 0.18470 0.68824 -0.23019
 C456 C 0.20250 0.69954 -0.20137
 C457 C 0.20316 0.69254 -0.15487
 C458 C 0.18627 0.67481 -0.13749
 C459 C 0.15022 0.64505 -0.14767
 N460 N 0.14878 0.64063 -0.10184
 N461 N 0.13225 0.62425 -0.08509
 C462 C 0.11648 0.61153 -0.11344
 N463 N 0.11798 0.61589 -0.15928
 N464 N 0.13447 0.63232 -0.17602
 C465 C 0.09789 0.59351 -0.09477
 C466 C 0.08328 0.57849 -0.12444
 C467 C 0.06555 0.56173 -0.10685
 C468 C 0.06197 0.55983 -0.05935
 C469 C 0.07654 0.57462 -0.02958
 C470 C 0.09439 0.59127 -0.04710
 H471 H 0.15436 0.66216 -0.23600
 H472 H 0.18372 0.69319 -0.26619
 H473 H 0.21663 0.70091 -0.13173
 H474 H 0.18724 0.66995 -0.10145
 H475 H 0.08553 0.57963 -0.16128
 H476 H 0.05450 0.55031 -0.13024
 H477 H 0.07401 0.57329 0.00720
 H478 H 0.10529 0.60254 -0.02327
 C479 C 0.66934 1.16273 0.33337
 C480 C 0.69120 1.16838 0.35729
 C481 C 0.70793 1.18631 0.33995
 C482 C 0.70352 1.19835 0.29750
 C483 C 0.68184 1.19199 0.27309
 C484 C 0.66477 1.17471 0.29124
 C485 C 0.65112 1.14474 0.35255
 N486 N 0.62652 1.14935 0.34804
 N487 N 0.60998 1.13327 0.36563
 C488 C 0.61739 1.11179 0.38785
 N489 N 0.64199 1.10707 0.39211
 N490 N 0.65856 1.12336 0.37509
 C491 C 0.59899 1.09390 0.40674
 C492 C 0.60288 1.06736 0.40429
 C493 C 0.58487 1.05042 0.42041
 C494 C 0.56301 1.05977 0.44047
 C495 C 0.55955 1.08638 0.44417
 C496 C 0.57717 1.10328 0.42671
 H497 H 0.69503 1.15939 0.38997
 H498 H 0.72441 1.19055 0.35974
 H499 H 0.67769 1.20081 0.24039
 H500 H 0.64806 1.17051 0.27210
 H501 H 0.61954 1.05972 0.38883
 H502 H 0.58792 1.03000 0.41710
 H503 H 0.54303 1.09404 0.46013
 H504 H 0.57390 1.12370 0.42930
 C505 C 0.17254 0.34054 0.16361
 C506 C 0.18917 0.32788 0.13419
 C507 C 0.20579 0.30977 0.15141
 C508 C 0.20601 0.30377 0.19837
 C509 C 0.18953 0.31657 0.22784
 C510 C 0.17306 0.33481 0.21070
 C511 C 0.15446 0.35926 0.14530
 N512 N 0.14050 0.37376 0.17414
 N513 N 0.12389 0.39021 0.15778
 C514 C 0.12046 0.39282 0.11186
 N515 N 0.13446 0.37836 0.08299
 N516 N 0.15113 0.36196 0.09936
 C517 C 0.10157 0.41073 0.09375
 C518 C 0.09526 0.41055 0.04688
 C519 C 0.07696 0.42698 0.03014
 C520 C 0.06486 0.44402 0.05986
 C521 C 0.07119 0.44446 0.10647
 C522 C 0.08934 0.42792 0.12333
 H523 H 0.18933 0.33190 0.09777
 H524 H 0.21824 0.30022 0.12780
 H525 H 0.18928 0.31243 0.26422
 H526 H 0.16051 0.34416 0.23434
 H527 H 0.10423 0.39751 0.02320
 H528 H 0.07213 0.42638 -0.00593
 H529 H 0.06189 0.45748 0.12980
 H530 H 0.09375 0.42861 0.15956
 C531 C 0.67111 0.84286 0.67333
 C532 C 0.68973 0.83246 0.64519
 C533 C 0.70593 0.81386 0.66213
 C534 C 0.70389 0.80524 0.70759
 C535 C 0.68544 0.81582 0.73585
 C536 C 0.66926 0.83440 0.71894
 C537 C 0.65344 0.86204 0.65509
 N538 N 0.63522 0.87175 0.68210
 N539 N 0.61895 0.88849 0.66549
 C540 C 0.62020 0.89627 0.62114
 N541 N 0.63850 0.88668 0.59418
 N542 N 0.65477 0.86993 0.61079
 C543 C 0.60157 0.91428 0.60230
 C544 C 0.60258 0.92192 0.55609
 C545 C 0.58440 0.93802 0.53791
 C546 C 0.56490 0.94674 0.56553
 C547 C 0.56408 0.93961 0.61184
 C548 C 0.58222 0.92352 0.63007
 H549 H 0.69171 0.83853 0.60990
 H550 H 0.71995 0.80611 0.63948
 H551 H 0.68338 0.80963 0.77106
 H552 H 0.65518 0.84198 0.74161
 H553 H 0.61722 0.91524 0.53374
 H554 H 0.58531 0.94338 0.50208
 H555 H 0.54921 0.94631 0.63370
 H556 H 0.58090 0.91811 0.66581
 C557 C 0.82717 0.15909 0.16841
 C558 C 0.81090 0.17199 0.13877
 C559 C 0.79420 0.19008 0.15592
 C560 C 0.79360 0.19589 0.20302
 C561 C 0.80974 0.18289 0.23273
 C562 C 0.82625 0.16458 0.21565
 C563 C 0.84532 0.14043 0.15004
 N564 N 0.85767 0.12431 0.17849
 N565 N 0.87432 0.10787 0.16199
 C566 C 0.87940 0.10696 0.11637
 N567 N 0.86702 0.12304 0.08793
 N568 N 0.85029 0.13939 0.10440
 C569 C 0.89834 0.08913 0.09809
 C570 C 0.90780 0.09240 0.05355
 C571 C 0.92608 0.07599 0.03661
 C572 C 0.93496 0.05585 0.06363
 C573 C 0.92544 0.05228 0.10785
 C574 C 0.90737 0.06888 0.12508
 H575 H 0.81106 0.16814 0.10224
 H576 H 0.78202 0.19980 0.13215
 H577 H 0.80966 0.18689 0.26922
 H578 H 0.83857 0.15503 0.23940
 H579 H 0.90135 0.10786 0.03197
 H580 H 0.93333 0.07897 0.00242
 H581 H 0.93218 0.03677 0.12905
 H582 H 0.90041 0.06579 0.15943
 C583 C 0.32731 0.65951 0.67226
 C584 C 0.32893 0.66834 0.71782
 C585 C 0.31243 0.68682 0.73434
 C586 C 0.29390 0.69685 0.70573
 C587 C 0.29205 0.68777 0.66039
 C588 C 0.30857 0.66935 0.64384
 C589 C 0.34532 0.64057 0.65421
 N590 N 0.34486 0.63340 0.60936
 N591 N 0.36140 0.61687 0.59284
 C592 C 0.37911 0.60675 0.62047
 N593 N 0.37949 0.61381 0.66538
 N594 N 0.36297 0.63037 0.68189
 C595 C 0.39792 0.58886 0.60177
 C596 C 0.41569 0.57766 0.63076
 C597 C 0.43386 0.56142 0.61285
 C598 C 0.43466 0.55617 0.56564
 C599 C 0.41682 0.56700 0.53668
 C600 C 0.39860 0.58317 0.55454
 H601 H 0.34311 0.66119 0.74068
 H602 H 0.31433 0.69338 0.76946
 H603 H 0.27797 0.69508 0.63746
 H604 H 0.30672 0.66295 0.60862
 H605 H 0.41568 0.58155 0.66728
 H606 H 0.44746 0.55310 0.63569
 H607 H 0.41720 0.56312 0.50014
 H608 H 0.38522 0.59143 0.53122
   
