data_POSCAR
  _audit_creation_date              2014-09-24
  _audit_creation_method            'ToBaCCo'
  _symmetry_space_group_name_H-M    'P1'
  _symmetry_Int_Tables_number       1
  _symmetry_cell_setting            triclinic
  loop_
  _symmetry_equiv_pos_as_xyz
 x,y,z
_cell_length_a 35.0819
_cell_length_b 32.0264
_cell_length_c 15.8069
_cell_angle_alpha 90.358700
_cell_angle_beta 90.190800
_cell_angle_gamma 90.081700
loop_
  _atom_site_label
  _atom_site_type_symbol
  _atom_site_fract_x
  _atom_site_fract_y
  _atom_site_fract_z
C1 C 1.27930 0.20841 0.27332
 C2 C 1.24832 0.23211 0.24320
 C3 C 1.21492 0.21161 0.21778
 C4 C 1.21278 0.16810 0.22128
 C5 C 1.24348 0.14492 0.25179
 C6 C 1.27758 0.16444 0.27742
 C7 C 1.25186 0.27813 0.23644
 C8 C 1.28611 0.29506 0.20785
 C9 C 1.29368 0.33787 0.21454
 C10 C 1.26395 0.36484 0.24258
 C11 C 1.22698 0.34875 0.26059
 C12 C 1.22225 0.30497 0.26107
 H13 H 1.30437 0.22470 0.29618
 H14 H 1.19107 0.22921 0.19288
 H15 H 1.30831 0.27400 0.18645
 H16 H 1.19570 0.29151 0.28251
 H17 H 1.24047 0.11142 0.25254
 H18 H 1.26889 0.39820 0.24514
 C19 C 0.77432 -0.29816 0.30580
 C20 C 0.74378 -0.27250 0.28218
 C21 C 0.70977 -0.29082 0.25509
 C22 C 0.70486 -0.33400 0.25468
 C23 C 0.73576 -0.35989 0.27952
 C24 C 0.77186 -0.34221 0.30254
 C25 C 0.74770 -0.22633 0.28029
 C26 C 0.78171 -0.20813 0.25207
 C27 C 0.78360 -0.16524 0.23702
 C28 C 0.75150 -0.14021 0.25083
 C29 C 0.71732 -0.15751 0.27991
 C30 C 0.71610 -0.20048 0.29715
 H31 H 0.79953 -0.28311 0.32999
 H32 H 0.68651 -0.27121 0.23393
 H33 H 0.80595 -0.22752 0.23603
 H34 H 0.69025 -0.21412 0.32199
 H35 H 0.73184 -0.39334 0.27619
 H36 H 0.75293 -0.10730 0.23588
 C37 C 0.77838 0.20914 -0.22251
 C38 C 0.74768 0.22887 -0.26254
 C39 C 0.71743 0.20444 -0.29442
 C40 C 0.71690 0.16093 -0.28261
 C41 C 0.74827 0.14206 -0.24415
 C42 C 0.77875 0.16577 -0.21352
 C43 C 0.74556 0.27506 -0.26339
 C44 C 0.77817 0.29935 -0.27735
 C45 C 0.77759 0.34356 -0.27449
 C46 C 0.74147 0.36254 -0.25516
 C47 C 0.70866 0.33780 -0.23856
 C48 C 0.71129 0.29454 -0.24378
 H49 H 0.80123 0.22755 -0.19490
 H50 H 0.69409 0.21962 -0.32676
 H51 H 0.80383 0.28255 -0.29054
 H52 H 0.68640 0.27577 -0.22948
 H53 H 0.74859 0.10868 -0.23537
 H54 H 0.73844 0.39593 -0.24906
 C55 C 1.28397 -0.28550 -0.18280
 C56 C 1.25017 -0.26718 -0.21263
 C57 C 1.22003 -0.29310 -0.23918
 C58 C 1.22392 -0.33685 -0.24123
 C59 C 1.25982 -0.35417 -0.22007
 C60 C 1.29028 -0.32866 -0.19015
 C61 C 1.24838 -0.22109 -0.22496
 C62 C 1.28113 -0.19971 -0.25297
 C63 C 1.28050 -0.15651 -0.26602
 C64 C 1.24611 -0.13543 -0.25587
 C65 C 1.21287 -0.15531 -0.22957
 C66 C 1.21430 -0.19849 -0.21259
 H67 H 1.30683 -0.26537 -0.16096
 H68 H 1.19402 -0.27911 -0.26269
 H69 H 1.30686 -0.21697 -0.26662
 H70 H 1.18937 -0.21450 -0.18910
 H71 H 1.26345 -0.38756 -0.22256
 H72 H 1.24525 -0.10270 -0.26861
 C73 C 0.21744 0.28957 0.74754
 C74 C 0.23439 0.25284 0.77742
 C75 C 0.21106 0.22030 0.80661
 C76 C 0.17126 0.22112 0.79729
 C77 C 0.15475 0.25933 0.76932
 C78 C 0.17769 0.29373 0.74613
 C79 C 0.27630 0.24616 0.77304
 C80 C 0.30273 0.27866 0.78674
 C81 C 0.34261 0.27142 0.78104
 C82 C 0.35478 0.23004 0.76662
 C83 C 0.32857 0.19756 0.75467
 C84 C 0.28982 0.20606 0.75443
 H85 H 0.23503 0.31499 0.72504
 H86 H 0.22465 0.19411 0.83685
 H87 H 0.29180 0.30896 0.80445
 H88 H 0.27014 0.18082 0.74049
 H89 H 0.12428 0.26235 0.76171
 H90 H 0.38465 0.22277 0.75974
 C91 C 0.70856 0.79120 0.69384
 C92 C 0.72462 0.75362 0.72018
 C93 C 0.70098 0.72175 0.75024
 C94 C 0.66106 0.72740 0.75736
 C95 C 0.64671 0.76755 0.73939
 C96 C 0.67017 0.79960 0.70872
 C97 C 0.76643 0.75088 0.72966
 C98 C 0.78601 0.78504 0.76427
 C99 C 0.82523 0.78376 0.77834
 C100 C 0.84521 0.74679 0.75838
 C101 C 0.82582 0.71155 0.72501
 C102 C 0.78637 0.71422 0.71040
 H103 H 0.72710 0.81568 0.67065
 H104 H 0.71487 0.69421 0.77407
 H105 H 0.77024 0.81253 0.78366
 H106 H 0.77097 0.68749 0.68539
 H107 H 0.61690 0.77375 0.74438
 H108 H 0.87568 0.74606 0.76704
 C109 C 0.70007 0.27778 0.22081
 C110 C 0.72547 0.24513 0.23911
 C111 C 0.71082 0.20539 0.25705
 C112 C 0.67208 0.19728 0.25019
 C113 C 0.64693 0.22978 0.23342
 C114 C 0.66033 0.27042 0.21881
 C115 C 0.76743 0.25059 0.23621
 C116 C 0.78581 0.28560 0.27177
 C117 C 0.82584 0.28646 0.27953
 C118 C 0.84701 0.25149 0.25115
 C119 C 0.82877 0.21629 0.21608
 C120 C 0.78938 0.21742 0.20507
 H121 H 0.71162 0.30798 0.20590
 H122 H 0.72967 0.18007 0.27457
 H123 H 0.76897 0.31094 0.29761
 H124 H 0.77520 0.19065 0.17703
 H125 H 0.61667 0.22323 0.23494
 H126 H 0.87767 0.25178 0.25598
 C127 C 0.20880 0.77989 0.16521
 C128 C 0.23047 0.74716 0.19786
 C129 C 0.21216 0.71304 0.23597
 C130 C 0.17226 0.71327 0.24867
 C131 C 0.15222 0.75055 0.22705
 C132 C 0.17045 0.78436 0.18640
 C133 C 0.27205 0.75388 0.20629
 C134 C 0.28502 0.79337 0.23273
 C135 C 0.32370 0.80162 0.24027
 C136 C 0.35014 0.76997 0.22619
 C137 C 0.33798 0.72968 0.20316
 C138 C 0.29863 0.72206 0.19139
 H139 H 0.22357 0.80517 0.13390
 H140 H 0.22956 0.68817 0.26110
 H141 H 0.26498 0.81796 0.24831
 H142 H 0.28852 0.69177 0.17045
 H143 H 0.12188 0.75278 0.23735
 H144 H 0.38002 0.77655 0.23737
 O145 O 1.05313 0.07147 0.15489
 O146 O 1.09354 0.03654 0.06515
 C147 C 1.08664 0.06384 0.12392
 O148 O 0.94711 -0.08258 0.13809
 O149 O 0.90301 -0.03890 0.07789
 C150 C 0.91226 -0.07168 0.12059
 O151 O 1.05241 -0.07703 0.13987
 O152 O 1.09366 -0.03906 0.05757
 C153 C 1.08615 -0.06838 0.11289
 O154 O 0.94838 0.07406 0.16260
 O155 O 0.90369 0.03821 0.08473
 C156 C 0.91369 0.06700 0.13939
 Zr157 Zr 0.99916 0.04895 0.11586
 O158 O 1.00144 0.03748 0.24721
 O159 O 1.00200 0.11428 0.13573
 Zr160 Zr 0.99952 -0.05410 0.10311
 O161 O 0.99822 -0.05312 0.23709
 O162 O 1.00368 -0.11998 0.10335
 O163 O 1.03486 -0.00238 0.12083
 O164 O 0.96550 -0.00338 0.12879
 O165 O 0.93811 0.08033 -0.12204
 O166 O 0.89835 0.03567 -0.05164
 C167 C 0.90468 0.06809 -0.09810
 O168 O 1.04669 -0.06917 -0.16314
 O169 O 1.09038 -0.03037 -0.08816
 C170 C 1.08122 -0.05801 -0.14495
 O171 O 0.94335 -0.08079 -0.13201
 O172 O 0.90070 -0.04146 -0.05579
 C173 C 0.90945 -0.07316 -0.10410
 O174 O 1.04191 0.08352 -0.14160
 O175 O 1.08872 0.04596 -0.07436
 C176 C 1.07716 0.07708 -0.12178
 Zr177 Zr 0.99216 0.05440 -0.09943
 O178 O 0.98585 0.04973 -0.23246
 O179 O 0.98916 0.11983 -0.10972
 Zr180 Zr 0.99466 -0.04853 -0.11157
 O181 O 0.98510 -0.03818 -0.24214
 O182 O 0.99865 -0.11291 -0.14045
 Zr183 Zr 1.05398 0.00185 -0.00548
 Zr184 Zr 0.93946 -0.00082 0.00905
 O185 O 0.95865 0.00215 -0.11655
 O186 O 1.02814 0.00455 -0.12632
 O187 O 0.96255 0.05973 0.01365
 O188 O 1.02996 -0.05850 -0.00907
 O189 O 1.02761 0.06075 0.00521
 O190 O 0.96445 -0.06039 -0.00101
 H191 H 0.94867 -0.00475 0.17896
 H192 H 1.04633 -0.08353 -0.01440
 H193 H 0.93885 0.00215 -0.16147
 H194 H 1.04218 0.08720 0.00865
 H195 H 0.98879 -0.13032 0.05424
 H196 H 1.00223 -0.12750 -0.08607
 H197 H 1.01002 -0.03137 -0.26786
 H198 H 1.01158 0.04626 -0.25704
 H199 H 0.98856 0.13094 -0.05130
 H200 H 0.98746 0.12742 0.08934
 H201 H 1.00215 0.06530 0.27493
 H202 H 1.02228 -0.04021 0.25717
 O203 O 1.05775 0.57578 0.65862
 O204 O 1.09927 0.53905 0.57487
 C205 C 1.09210 0.56677 0.63269
 O206 O 0.95071 0.42278 0.65434
 O207 O 0.90747 0.46362 0.58405
 C208 C 0.91575 0.43406 0.63609
 O209 O 1.05809 0.42641 0.65521
 O210 O 1.09937 0.46392 0.57179
 C211 C 1.09199 0.43541 0.62867
 O212 O 0.95132 0.57758 0.65763
 O213 O 0.90807 0.53852 0.58179
 C214 C 0.91687 0.56848 0.63463
 Zr215 Zr 1.00346 0.55225 0.61756
 O216 O 1.00403 0.54362 0.74992
 O217 O 1.00506 0.61782 0.63351
 Zr218 Zr 1.00475 0.44809 0.61373
 O219 O 1.00320 0.44993 0.74762
 O220 O 1.00861 0.38214 0.61406
 O221 O 1.03923 0.50108 0.62944
 O222 O 0.97042 0.49944 0.63292
 O223 O 0.94227 0.57648 0.37223
 O224 O 0.90345 0.53185 0.44486
 C225 C 0.90861 0.56308 0.39472
 O226 O 1.05815 0.43038 0.35127
 O227 O 1.09937 0.47205 0.42627
 C228 C 1.09248 0.44334 0.37032
 O229 O 0.95220 0.41701 0.37488
 O230 O 0.90813 0.45631 0.44731
 C231 C 0.91772 0.42451 0.40005
 O232 O 1.04877 0.58088 0.35938
 O233 O 1.09525 0.54558 0.43299
 C234 C 1.08396 0.57495 0.38122
 Zr235 Zr 0.99818 0.55327 0.40207
 O236 O 0.99312 0.54708 0.26902
 O237 O 0.99669 0.61884 0.38919
 Zr238 Zr 1.00341 0.44954 0.39847
 O239 O 0.99578 0.45629 0.26632
 O240 O 1.00939 0.38457 0.37860
 Zr241 Zr 1.06008 0.50325 0.50432
 Zr242 Zr 0.94534 0.49884 0.51176
 O243 O 0.96645 0.49954 0.38732
 O244 O 1.03550 0.50340 0.38187
 O245 O 0.96728 0.56011 0.51279
 O246 O 1.03716 0.44234 0.50398
 O247 O 1.03301 0.56207 0.50786
 O248 O 0.97103 0.43935 0.50790
 H249 H 0.95340 0.49936 0.68283
 H250 H 1.05413 0.41770 0.50067
 H251 H 0.94742 0.49818 0.34089
 H252 H 1.04780 0.58841 0.51012
 H253 H 0.98897 0.37135 0.57446
 H254 H 1.00908 0.37160 0.43519
 H255 H 1.02068 0.46451 0.24231
 H256 H 1.01882 0.54109 0.24634
 H257 H 0.98451 0.63010 0.44079
 H258 H 0.99541 0.62993 0.58027
 H259 H 1.00414 0.57201 0.77514
 H260 H 1.02551 0.46635 0.76719
 O261 O 0.55197 0.07374 0.64576
 O262 O 0.59335 0.03626 0.56271
 C263 C 0.58588 0.06339 0.62144
 O264 O 0.44645 -0.07556 0.64117
 O265 O 0.40378 -0.03513 0.56852
 C266 C 0.41209 -0.06423 0.62179
 O267 O 0.55238 -0.06986 0.64354
 O268 O 0.59366 -0.03366 0.55908
 C269 C 0.58626 -0.06030 0.61823
 O270 O 0.44669 0.07476 0.64879
 O271 O 0.40300 0.03688 0.57156
 C272 C 0.41212 0.06418 0.62944
 Zr273 Zr 0.49868 0.05407 0.59953
 O274 O 0.50094 0.06054 0.73270
 O275 O 0.49804 0.11958 0.58432
 Zr276 Zr 0.49888 -0.05139 0.59796
 O277 O 0.49661 -0.05220 0.73180
 O278 O 0.50366 -0.11730 0.59498
 O279 O 0.53280 0.00151 0.61414
 O280 O 0.46607 0.00099 0.61665
 O281 O 0.44135 0.07902 0.35397
 O282 O 0.40093 0.03678 0.42899
 C283 C 0.40755 0.06730 0.37757
 O284 O 0.55002 -0.07139 0.33678
 O285 O 0.59212 -0.03160 0.41385
 C286 C 0.58434 -0.05984 0.35759
 O287 O 0.44356 -0.07501 0.34622
 O288 O 0.40198 -0.03695 0.42794
 C289 C 0.40967 -0.06548 0.37204
 O290 O 0.54809 0.07336 0.33524
 O291 O 0.59157 0.03762 0.41620
 C292 C 0.58267 0.06389 0.35734
 Zr293 Zr 0.49548 0.05462 0.38739
 O294 O 0.48922 0.05733 0.25435
 O295 O 0.49780 0.12041 0.39767
 Zr296 Zr 0.49667 -0.05056 0.38393
 O297 O 0.49138 -0.04716 0.25062
 O298 O 0.50046 -0.11642 0.37709
 Zr299 Zr 0.55406 0.00198 0.48975
 Zr300 Zr 0.44069 0.00099 0.49605
 O301 O 0.46251 0.00170 0.37226
 O302 O 0.52994 0.00242 0.36734
 O303 O 0.46286 0.06211 0.49613
 O304 O 0.53072 -0.05856 0.48933
 O305 O 0.53052 0.06225 0.49173
 O306 O 0.46396 -0.05963 0.49254
 H307 H 0.44982 0.00025 0.66774
 H308 H 0.54782 -0.08315 0.48824
 H309 H 0.44442 0.00189 0.32397
 H310 H 0.54776 0.08679 0.49135
 H311 H 0.48132 -0.12843 0.56380
 H312 H 0.48285 -0.12779 0.41991
 H313 H 0.51526 -0.03505 0.22836
 H314 H 0.50684 0.03646 0.22996
 H315 H 0.49711 0.13109 0.33898
 H316 H 0.50016 0.13162 0.64203
 H317 H 0.49215 0.03384 0.75684
 H318 H 0.51652 -0.03283 0.75306
 O319 O 0.56523 0.44019 0.15698
 O320 O 0.53203 0.39398 0.07312
 C321 C 0.55650 0.40269 0.13238
 O322 O 0.43093 0.55863 0.14190
 O323 O 0.46915 0.60589 0.07399
 C324 C 0.44118 0.59640 0.12381
 O325 O 0.43114 0.44528 0.14849
 O326 O 0.46244 0.39630 0.06789
 C327 C 0.43667 0.40742 0.12415
 O328 O 0.57112 0.55376 0.15586
 O329 O 0.54021 0.60316 0.07619
 C330 C 0.56564 0.59177 0.13296
 Zr331 Zr 0.54725 0.49872 0.11078
 O332 O 0.54402 0.50236 0.24450
 O333 O 0.60754 0.49658 0.11056
 Zr334 Zr 0.45304 0.50067 0.10294
 O335 O 0.45155 0.50469 0.23673
 O336 O 0.39290 0.50023 0.09193
 O337 O 0.49936 0.46130 0.12239
 O338 O 0.50049 0.53693 0.12342
 O339 O 0.57434 0.55856 -0.13612
 O340 O 0.53606 0.60575 -0.06689
 C341 C 0.56446 0.59628 -0.11602
 O342 O 0.43693 0.44236 -0.15895
 O343 O 0.46974 0.39481 -0.07874
 C344 C 0.44507 0.40446 -0.13683
 O345 O 0.43113 0.55549 -0.14756
 O346 O 0.46198 0.60377 -0.06385
 C347 C 0.43523 0.59287 -0.11841
 O348 O 0.57306 0.44544 -0.14898
 O349 O 0.54011 0.39658 -0.07165
 C350 C 0.56660 0.40754 -0.12609
 Zr351 Zr 0.55026 0.50097 -0.10255
 O352 O 0.54788 0.50569 -0.23613
 O353 O 0.61052 0.49874 -0.10336
 Zr354 Zr 0.45642 0.50001 -0.11024
 O355 O 0.46494 0.50268 -0.24236
 O356 O 0.39646 0.49657 -0.12318
 Zr357 Zr 0.50132 0.43634 -0.00142
 Zr358 Zr 0.50203 0.56379 0.00253
 O359 O 0.50328 0.53847 -0.12045
 O360 O 0.50365 0.46197 -0.12393
 O361 O 0.55668 0.53692 0.00629
 O362 O 0.44714 0.46418 -0.00497
 O363 O 0.55583 0.46373 0.00363
 O364 O 0.44722 0.53720 -0.00311
 H365 H 0.50036 0.55557 0.17372
 H366 H 0.42376 0.44686 -0.00822
 H367 H 0.50323 0.55821 -0.16853
 H368 H 0.57905 0.44632 0.00646
 H369 H 0.38261 0.50172 0.15023
 H370 H 0.38555 0.50640 -0.06897
 H371 H 0.43923 0.50161 -0.26838
 H372 H 0.53589 0.47988 -0.25855
 H373 H 0.61929 0.50999 -0.04820
 H374 H 0.61578 0.49543 0.17057
 H375 H 0.53086 0.47699 0.26474
 H376 H 0.46621 0.48088 0.25945
 C377 C 1.17936 0.12217 0.11726
 C378 C 1.17868 0.14623 0.19129
 C379 C 1.14491 0.14680 0.23905
 C380 C 1.11468 0.11958 0.21828
 C381 C 1.11812 0.09128 0.14988
 C382 C 1.14979 0.09554 0.09720
 C383 C 1.17577 0.06385 0.05882
 C384 C 1.20845 0.09351 0.07968
 H385 H 1.14281 0.16638 0.29497
 H386 H 1.08941 0.11965 0.25744
 H387 H 1.17089 0.05983 -0.01014
 H388 H 1.17668 0.03434 0.09547
 H389 H 1.22191 0.10702 0.02244
 H390 H 1.22868 0.08021 0.12633
 C391 C 1.19407 0.60519 0.66920
 C392 C 1.19053 0.63700 0.73018
 C393 C 1.15280 0.64760 0.75417
 C394 C 1.12082 0.62495 0.72349
 C395 C 1.12531 0.59096 0.66709
 C396 C 1.16251 0.58327 0.63834
 C397 C 1.18405 0.54333 0.63183
 C398 C 1.21841 0.56691 0.66670
 H399 H 1.14796 0.67298 0.79840
 H400 H 1.09267 0.63380 0.74497
 H401 H 1.18769 0.53303 0.56504
 H402 H 1.17308 0.51898 0.67535
 H403 H 1.24204 0.56964 0.62039
 H404 H 1.22694 0.55599 0.73062
 C405 C 0.68446 0.09161 0.69177
 C406 C 0.68255 0.13535 0.69877
 C407 C 0.64569 0.15310 0.69953
 C408 C 0.61354 0.12867 0.68010
 C409 C 0.61749 0.08594 0.66033
 C410 C 0.65292 0.06756 0.67405
 C411 C 0.67548 0.03469 0.62948
 C412 C 0.71042 0.06201 0.64639
 H413 H 0.64143 0.18592 0.71279
 H414 H 0.58609 0.14390 0.67472
 H415 H 0.66836 0.03083 0.56149
 H416 H 0.67598 0.00499 0.66549
 H417 H 0.72272 0.07580 0.58813
 H418 H 0.73132 0.04689 0.68935
 C419 C 0.64817 0.66623 0.15635
 C420 C 0.66665 0.64999 0.22805
 C421 C 0.64477 0.62417 0.28059
 C422 C 0.60817 0.61050 0.25471
 C423 C 0.59264 0.62146 0.17462
 C424 C 0.61238 0.65209 0.12973
 C425 C 0.62368 0.65371 0.03911
 C426 C 0.66244 0.66952 0.06799
 H427 H 0.65640 0.61338 0.34010
 H428 H 0.59369 0.58783 0.29381
 H429 H 0.60712 0.67758 0.00418
 H430 H 0.62483 0.62216 0.00962
 H431 H 0.66801 0.70243 0.04973
 H432 H 0.68603 0.64735 0.05431
 C433 C 0.85440 -0.15505 0.22945
 C434 C 0.81774 -0.14704 0.19832
 C435 C 0.81410 -0.11965 0.12965
 C436 C 0.84533 -0.09607 0.10298
 C437 C 0.88088 -0.09951 0.14432
 C438 C 0.88547 -0.13175 0.20277
 C439 C 0.90262 -0.13092 0.28931
 C440 C 0.86859 -0.15652 0.31842
 H441 H 0.78666 -0.11467 0.09980
 H442 H 0.84102 -0.07382 0.05256
 H443 H 0.90356 -0.09896 0.31717
 H444 H 0.92995 -0.14838 0.29205
 H445 H 0.84975 -0.13946 0.36326
 H446 H 0.87632 -0.18875 0.33772
 C447 C 0.84907 0.34765 0.70741
 C448 C 0.81252 0.36696 0.71256
 C449 C 0.81343 0.41131 0.70718
 C450 C 0.84745 0.43333 0.68798
 C451 C 0.88255 0.41250 0.67587
 C452 C 0.88274 0.36983 0.69206
 C453 C 0.90046 0.33570 0.64215
 C454 C 0.86402 0.31139 0.65626
 H455 H 0.78780 0.42969 0.71195
 H456 H 0.84578 0.46674 0.67830
 H457 H 0.92558 0.32213 0.67496
 H458 H 0.90515 0.34431 0.57515
 H459 H 0.86895 0.28312 0.69526
 H460 H 0.84752 0.30599 0.59696
 C461 C 0.31215 -0.09157 0.67985
 C462 C 0.31525 -0.13217 0.71225
 C463 C 0.35246 -0.14642 0.73116
 C464 C 0.38464 -0.12319 0.70634
 C465 C 0.38015 -0.08506 0.66329
 C466 C 0.34349 -0.06849 0.65732
 C467 C 0.32283 -0.04749 0.58647
 C468 C 0.28843 -0.07369 0.60992
 H469 H 0.35703 -0.17588 0.76260
 H470 H 0.41273 -0.13628 0.71630
 H471 H 0.33423 -0.05502 0.52278
 H472 H 0.31873 -0.01359 0.59904
 H473 H 0.28073 -0.09737 0.56098
 H474 H 0.26439 -0.05427 0.63327
 C475 C 0.35318 0.33314 0.13235
 C476 C 0.33136 0.35149 0.19753
 C477 C 0.35058 0.37955 0.25157
 C478 C 0.38863 0.39131 0.23534
 C479 C 0.40795 0.37828 0.16065
 C480 C 0.38998 0.34699 0.11285
 C481 C 0.38235 0.34442 0.02016
 C482 C 0.34271 0.32881 0.04109
 H483 H 0.33633 0.39251 0.30645
 H484 H 0.40139 0.41460 0.27664
 H485 H 0.39984 0.32016 -0.01078
 H486 H 0.38245 0.37549 -0.01081
 H487 H 0.33796 0.29568 0.02234
 H488 H 0.31974 0.35067 0.02164
 C489 C 0.84794 0.15826 -0.18154
 C490 C 0.81043 0.14489 -0.17020
 C491 C 0.80423 0.10856 -0.12214
 C492 C 0.83484 0.08299 -0.09958
 C493 C 0.87230 0.09430 -0.12121
 C494 C 0.87825 0.13357 -0.15724
 C495 C 0.90107 0.14552 -0.23304
 C496 C 0.86771 0.17271 -0.25953
 H497 H 0.77568 0.09846 -0.10637
 H498 H 0.82902 0.05398 -0.06722
 H499 H 0.90620 0.11876 -0.27669
 H500 H 0.92690 0.16383 -0.21555
 H501 H 0.85341 0.16178 -0.31856
 H502 H 0.87430 0.20664 -0.25705
 C503 C 0.84253 0.64901 0.31825
 C504 C 0.80496 0.63308 0.32180
 C505 C 0.80312 0.59037 0.34691
 C506 C 0.83659 0.56731 0.36914
 C507 C 0.87366 0.58517 0.36435
 C508 C 0.87451 0.62607 0.33593
 C509 C 0.90162 0.66037 0.31805
 C510 C 0.86626 0.68656 0.29692
 H511 H 0.77594 0.57484 0.35372
 H512 H 0.83324 0.53553 0.39094
 H513 H 0.91986 0.65347 0.26235
 H514 H 0.91697 0.67108 0.37588
 H515 H 0.86412 0.69494 0.22892
 H516 H 0.86265 0.71300 0.34203
 C517 C 0.34631 0.15760 0.30777
 C518 C 0.30922 0.14074 0.30593
 C519 C 0.30539 0.09896 0.33422
 C520 C 0.33742 0.07470 0.35414
 C521 C 0.37441 0.09132 0.34813
 C522 C 0.37793 0.13358 0.32829
 C523 C 0.40219 0.15396 0.26315
 C524 C 0.36775 0.18030 0.24046
 H525 H 0.27788 0.08442 0.34254
 H526 H 0.33308 0.04284 0.37472
 H527 H 0.41088 0.13208 0.21184
 H528 H 0.42579 0.17239 0.29205
 H529 H 0.35642 0.17381 0.17590
 H530 H 0.37175 0.21393 0.25598
 C531 C 0.34298 0.62314 -0.22183
 C532 C 0.32726 0.65516 -0.17332
 C533 C 0.35224 0.67169 -0.10953
 C534 C 0.38912 0.65406 -0.09393
 C535 C 0.40351 0.62113 -0.14479
 C536 C 0.37925 0.60875 -0.21113
 C537 C 0.37492 0.57669 -0.27956
 C538 C 0.33454 0.59390 -0.29316
 H539 H 0.34250 0.69619 -0.06738
 H540 H 0.40492 0.66451 -0.03928
 H541 H 0.37485 0.54423 -0.25531
 H542 H 0.39437 0.58246 -0.33360
 H543 H 0.31199 0.57079 -0.27780
 H544 H 0.33081 0.61044 -0.35424
 C545 C 1.17908 -0.08584 -0.21709
 C546 C 1.17748 -0.12981 -0.22179
 C547 C 1.14069 -0.14780 -0.22418
 C548 C 1.10820 -0.12324 -0.20752
 C549 C 1.11198 -0.08035 -0.18776
 C550 C 1.14743 -0.06196 -0.20045
 C551 C 1.16957 -0.02916 -0.15408
 C552 C 1.20473 -0.05552 -0.17164
 H553 H 1.13684 -0.18092 -0.23478
 H554 H 1.08082 -0.13863 -0.20214
 H555 H 1.16271 -0.02669 -0.08571
 H556 H 1.16967 0.00100 -0.18844
 H557 H 1.21794 -0.06895 -0.11391
 H558 H 1.22495 -0.03955 -0.21477
 C559 C 1.19549 0.41686 0.31076
 C560 C 1.19278 0.37643 0.27646
 C561 C 1.15522 0.36288 0.25600
 C562 C 1.12260 0.38579 0.28153
 C563 C 1.12615 0.42345 0.32785
 C564 C 1.16344 0.43953 0.33553
 C565 C 1.18446 0.46024 0.40668
 C566 C 1.21927 0.43477 0.38052
 H567 H 1.15067 0.33355 0.22316
 H568 H 1.09469 0.37251 0.26952
 H569 H 1.17334 0.45204 0.47016
 H570 H 1.18809 0.49428 0.39598
 H571 H 1.22764 0.41092 0.42791
 H572 H 1.24298 0.45435 0.35636
 C573 C 0.68511 -0.08797 0.30074
 C574 C 0.68260 -0.13109 0.28619
 C575 C 0.64561 -0.14767 0.27331
 C576 C 0.61301 -0.12319 0.28931
 C577 C 0.61673 -0.08164 0.31834
 C578 C 0.65324 -0.06393 0.31644
 C579 C 0.67451 -0.03548 0.37529
 C580 C 0.70945 -0.06251 0.35914
 H581 H 0.64164 -0.17996 0.25476
 H582 H 0.58523 -0.13790 0.28577
 H583 H 0.66447 -0.03668 0.44163
 H584 H 0.67730 -0.00345 0.34927
 H585 H 0.71884 -0.08034 0.41564
 H586 H 0.73245 -0.04565 0.32522
 C587 C 0.65669 0.34468 -0.13138
 C588 C 0.67105 0.35478 -0.21144
 C589 C 0.64478 0.37085 -0.27032
 C590 C 0.60750 0.38232 -0.24491
 C591 C 0.59513 0.37759 -0.16009
 C592 C 0.62010 0.35640 -0.10578
 C593 C 0.63401 0.36748 -0.01908
 C594 C 0.67356 0.35428 -0.04687
 H595 H 0.65342 0.37581 -0.33518
 H596 H 0.58950 0.39844 -0.28988
 H597 H 0.62210 0.34650 0.02938
 H598 H 0.63199 0.40137 -0.00461
 H599 H 0.68388 0.32572 -0.01442
 H600 H 0.69432 0.38053 -0.04865
 C601 C 1.10938 0.18609 -0.18230
 C602 C 1.14912 0.18423 -0.18722
 C603 C 1.16519 0.14320 -0.18015
 C604 C 1.14260 0.10770 -0.16040
 C605 C 1.10311 0.11158 -0.14860
 C606 C 1.08734 0.15123 -0.16405
 C607 C 1.06050 0.17639 -0.11115
 C608 C 1.08487 0.21419 -0.12995
 H609 H 1.19517 0.13759 -0.19006
 H610 H 1.15609 0.07754 -0.15387
 H611 H 1.06083 0.16729 -0.04336
 H612 H 1.03188 0.17899 -0.14068
 H613 H 1.10001 0.22680 -0.07337
 H614 H 1.06957 0.23780 -0.16847
 C615 C 1.11522 0.68211 0.31283
 C616 C 1.15269 0.67798 0.28341
 C617 C 1.16816 0.63667 0.28611
 C618 C 1.14712 0.60244 0.31963
 C619 C 1.11007 0.60845 0.35135
 C620 C 1.09488 0.64873 0.34533
 C621 C 1.07770 0.67477 0.41386
 C622 C 1.09999 0.71127 0.37896
 H623 H 1.19609 0.63003 0.26085
 H624 H 1.15959 0.57153 0.31966
 H625 H 1.08713 0.66520 0.47814
 H626 H 1.04644 0.67856 0.40601
 H627 H 1.12253 0.72296 0.42275
 H628 H 1.08126 0.73581 0.35196
 C629 C 0.66744 0.13288 0.33603
 C630 C 0.65763 0.15488 0.26323
 C631 C 0.62996 0.13763 0.20862
 C632 C 0.60798 0.10352 0.23492
 C633 C 0.61352 0.08658 0.31602
 C634 C 0.64564 0.09928 0.36231
 C635 C 0.64866 0.11269 0.45288
 C636 C 0.67271 0.14915 0.42390
 H637 H 0.62278 0.15299 0.14985
 H638 H 0.58413 0.09355 0.19601
 H639 H 0.66527 0.09034 0.49090
 H640 H 0.62085 0.12224 0.48038
 H641 H 0.70289 0.14724 0.44518
 H642 H 0.65884 0.17995 0.43437
 C643 C 0.59869 0.70249 -0.18670
 C644 C 0.63670 0.69489 -0.21290
 C645 C 0.64993 0.65328 -0.20353
 C646 C 0.62643 0.62171 -0.17206
 C647 C 0.58856 0.62994 -0.14896
 C648 C 0.57562 0.67089 -0.15439
 C649 C 0.54062 0.68604 -0.19732
 C650 C 0.56522 0.72015 -0.23426
 H651 H 0.67785 0.64348 -0.22373
 H652 H 0.63800 0.59048 -0.16687
 H653 H 0.51916 0.69782 -0.15145
 H654 H 0.52951 0.66364 -0.24549
 H655 H 0.55683 0.75159 -0.21081
 H656 H 0.56855 0.71756 -0.30405
 C657 C 0.83081 -0.13835 -0.19913
 C658 C 0.84392 -0.17906 -0.18258
 C659 C 0.87336 -0.18314 -0.12254
 C660 C 0.89216 -0.14754 -0.09057
 C661 C 0.88195 -0.10709 -0.11753
 C662 C 0.84940 -0.10312 -0.16759
 C663 C 0.84315 -0.07933 -0.24721
 C664 C 0.82266 -0.11776 -0.28173
 H665 H 0.88295 -0.21372 -0.10298
 H666 H 0.91661 -0.15177 -0.04940
 H667 H 0.87018 -0.07224 -0.28078
 H668 H 0.82390 -0.05219 -0.23751
 H669 H 0.83774 -0.13293 -0.33550
 H670 H 0.79163 -0.11272 -0.29175
 C671 C 0.83184 0.36340 0.31955
 C672 C 0.84539 0.32207 0.32323
 C673 C 0.87903 0.31549 0.37038
 C674 C 0.90122 0.34935 0.39850
 C675 C 0.88992 0.39084 0.38323
 C676 C 0.85348 0.39710 0.34945
 C677 C 0.84083 0.42448 0.27877
 C678 C 0.81719 0.38780 0.24622
 H679 H 0.88952 0.28427 0.38181
 H680 H 0.92840 0.34299 0.42851
 H681 H 0.86459 0.43320 0.23591
 H682 H 0.82319 0.45104 0.30157
 H683 H 0.82721 0.37523 0.18445
 H684 H 0.78597 0.39329 0.25039
 C685 C 0.33422 -0.14709 0.35538
 C686 C 0.33638 -0.15737 0.26965
 C687 C 0.35546 -0.13011 0.21491
 C688 C 0.37638 -0.09637 0.24810
 C689 C 0.37833 -0.08975 0.33615
 C690 C 0.35503 -0.11387 0.38843
 C691 C 0.36556 -0.13839 0.46539
 C692 C 0.34239 -0.17428 0.42945
 H693 H 0.35703 -0.13708 0.14787
 H694 H 0.39390 -0.07802 0.20594
 H695 H 0.35277 -0.12573 0.52386
 H696 H 0.39661 -0.14511 0.46958
 H697 H 0.31627 -0.18110 0.46656
 H698 H 0.35994 -0.20203 0.41293
 C699 C 0.40910 0.29741 -0.20019
 C700 C 0.36968 0.30449 -0.21242
 C701 C 0.35897 0.34694 -0.22166
 C702 C 0.38483 0.37951 -0.20435
 C703 C 0.42227 0.37100 -0.17679
 C704 C 0.43440 0.32958 -0.18240
 C705 C 0.45935 0.30315 -0.12838
 C706 C 0.43136 0.26770 -0.14617
 H707 H 0.33047 0.35581 -0.24025
 H708 H 0.37434 0.41129 -0.20593
 H709 H 0.46027 0.31312 -0.06102
 H710 H 0.48774 0.29799 -0.15761
 H711 H 0.41530 0.25744 -0.08944
 H712 H 0.44447 0.24201 -0.18362
 C713 C 1.16471 -0.14874 0.11013
 C714 C 1.15266 -0.17629 0.17404
 C715 C 1.12507 -0.16071 0.23074
 C716 C 1.10772 -0.12164 0.21741
 C717 C 1.11580 -0.09751 0.14469
 C718 C 1.14633 -0.11084 0.09492
 C719 C 1.14858 -0.11661 0.00165
 C720 C 1.16899 -0.15748 0.01769
 H721 H 1.11650 -0.17861 0.28537
 H722 H 1.08519 -0.11227 0.26017
 H723 H 1.16720 -0.09293 -0.02748
 H724 H 1.12005 -0.12074 -0.02795
 H725 H 1.19929 -0.15698 -0.00264
 H726 H 1.15250 -0.18531 -0.00373
 C727 C 1.16620 0.34991 0.63769
 C728 C 1.16065 0.33416 0.71932
 C729 C 1.13959 0.35895 0.77615
 C730 C 1.12096 0.39553 0.74843
 C731 C 1.12271 0.40835 0.66300
 C732 C 1.14731 0.38580 0.60969
 C733 C 1.13968 0.36644 0.52493
 C734 C 1.16058 0.32787 0.55528
 H735 H 1.13587 0.34889 0.84089
 H736 H 1.10246 0.41182 0.79228
 H737 H 1.15507 0.38223 0.47322
 H738 H 1.10883 0.36097 0.51276
 H739 H 1.18800 0.32247 0.52190
 H740 H 1.14190 0.29993 0.56055
 C741 C 0.63032 -0.14083 0.75086
 C742 C 0.65609 -0.16001 0.69549
 C743 C 0.66718 -0.13606 0.62435
 C744 C 0.64731 -0.09922 0.60318
 C745 C 0.61734 -0.08464 0.65475
 C746 C 0.61332 -0.10358 0.73347
 C747 C 0.58330 -0.10974 0.79915
 C748 C 0.60306 -0.15093 0.82024
 H749 H 0.68762 -0.14815 0.57927
 H750 H 0.65232 -0.08548 0.54202
 H751 H 0.55428 -0.11456 0.77249
 H752 H 0.58530 -0.08624 0.85102
 H753 H 0.58403 -0.17784 0.80704
 H754 H 0.61701 -0.15089 0.88347
 C755 C 0.63680 0.34449 0.23606
 C756 C 0.63203 0.30404 0.20329
 C757 C 0.59679 0.29498 0.16304
 C758 C 0.56984 0.32643 0.14791
 C759 C 0.57769 0.36804 0.17100
 C760 C 0.61014 0.37555 0.22087
 C761 C 0.63990 0.40868 0.21458
 C762 C 0.66918 0.37480 0.22959
 H763 H 0.59086 0.26421 0.13759
 H764 H 0.54465 0.31871 0.11120
 H765 H 0.63816 0.43167 0.26738
 H766 H 0.64183 0.42234 0.15028
 H767 H 0.68484 0.37859 0.29040
 H768 H 0.68727 0.36970 0.17287
 C769 C 0.87318 0.15842 0.25978
 C770 C 0.84883 0.17610 0.19947
 C771 C 0.83833 0.15007 0.13036
 C772 C 0.85588 0.11092 0.11740
 C773 C 0.88517 0.09711 0.17132
 C774 C 0.89113 0.12052 0.24574
 C775 C 0.92567 0.13355 0.29493
 C776 C 0.90598 0.17523 0.30992
 H777 H 0.81792 0.16072 0.08375
 H778 H 0.84911 0.09345 0.06096
 H779 H 0.95171 0.13690 0.25589
 H780 H 0.92932 0.11508 0.35368
 H781 H 0.92108 0.20132 0.27833
 H782 H 0.89847 0.18081 0.37730
 C783 C 0.86978 0.65223 0.76526
 C784 C 0.84563 0.67140 0.70647
 C785 C 0.83778 0.64845 0.63139
 C786 C 0.85810 0.61151 0.61164
 C787 C 0.88674 0.59660 0.66651
 C788 C 0.88966 0.61619 0.74590
 C789 C 0.92217 0.62774 0.80269
 C790 C 0.90035 0.66753 0.82385
 H791 H 0.81788 0.66051 0.58512
 H792 H 0.85396 0.59716 0.55010
 H793 H 0.94910 0.63415 0.76834
 H794 H 0.92486 0.60623 0.85729
 H795 H 0.91555 0.69568 0.80106
 H796 H 0.89067 0.66895 0.89069
 C797 C 0.32730 0.13058 0.67243
 C798 C 0.34168 0.15460 0.73970
 C799 C 0.37169 0.13789 0.78773
 C800 C 0.39169 0.10308 0.75748
 C801 C 0.38224 0.08526 0.67819
 C802 C 0.34735 0.09635 0.64192
 C803 C 0.33759 0.10649 0.55256
 C804 C 0.31549 0.14376 0.58591
 H805 H 0.38213 0.15414 0.84348
 H806 H 0.41736 0.09373 0.79056
 H807 H 0.31901 0.08214 0.52365
 H808 H 0.36303 0.11553 0.51526
 H809 H 0.28421 0.14089 0.57604
 H810 H 0.32800 0.17427 0.56729
 C811 C 0.40484 0.70348 0.17860
 C812 C 0.36630 0.69559 0.19610
 C813 C 0.35613 0.65370 0.21152
 C814 C 0.38183 0.62128 0.19396
 C815 C 0.41842 0.63004 0.16148
 C816 C 0.43035 0.67169 0.16272
 C817 C 0.45342 0.69777 0.10394
 C818 C 0.42450 0.73249 0.11923
 H819 H 0.32789 0.64555 0.23322
 H820 H 0.37182 0.58943 0.19979
 H821 H 0.45396 0.68599 0.03794
 H822 H 0.48202 0.70508 0.13076
 H823 H 0.40685 0.73967 0.06260
 H824 H 0.43703 0.76004 0.15219
   
