data_POSCAR
  _audit_creation_date              2014-09-24
  _audit_creation_method            'ToBaCCo'
  _symmetry_space_group_name_H-M    'P1'
  _symmetry_Int_Tables_number       1
  _symmetry_cell_setting            triclinic
  loop_
  _symmetry_equiv_pos_as_xyz
 x,y,z
_cell_length_a 38.6897
_cell_length_b 38.6659
_cell_length_c 38.6331
_cell_angle_alpha 90.181900
_cell_angle_beta 89.488800
_cell_angle_gamma 90.324400
loop_
  _atom_site_label
  _atom_site_type_symbol
  _atom_site_fract_x
  _atom_site_fract_y
  _atom_site_fract_z
N1 N 0.18663 1.25349 0.16480
 N2 N 0.15947 1.24999 0.18511
 C3 C 0.13718 1.27576 0.17882
 C4 C 0.15091 1.29663 0.15280
 C5 C 0.18256 1.28156 0.14479
 H6 H 0.11248 1.27839 0.19176
 H7 H 0.20089 1.28951 0.12508
 Cu8 Cu 0.15459 1.21118 0.21661
 Cu9 Cu 0.22354 1.21946 0.16320
 Cu10 Cu 0.21511 1.14944 0.21854
 N11 N 0.15711 1.17846 0.25461
 N12 N 0.18082 1.15434 0.25526
 C13 C 0.17524 1.13389 0.28287
 C14 C 0.14621 1.14569 0.30071
 C15 C 0.13564 1.17431 0.28189
 H16 H 0.19075 1.11153 0.28866
 H17 H 0.11343 1.19045 0.28685
 N18 N 0.25410 1.15494 0.18594
 N19 N 0.25768 1.18185 0.16529
 C20 C 0.28593 1.17729 0.14520
 C21 C 0.30094 1.14597 0.15359
 C22 C 0.28004 1.13267 0.17970
 H23 H 0.29435 1.19504 0.12527
 H24 H 0.28274 1.10800 0.19240
 H25 H 0.19387 1.17847 0.17859
 H26 H 0.21671 1.20227 0.21378
 N27 N 0.82163 0.74585 0.16057
 N28 N 0.84511 0.74674 0.18489
 C29 C 0.86664 0.71983 0.18055
 C30 C 0.85625 0.70105 0.15176
 C31 C 0.82745 0.71843 0.13984
 H32 H 0.88872 0.71489 0.19671
 H33 H 0.81255 0.71251 0.11703
 Cu34 Cu 0.84736 0.78461 0.21802
 Cu35 Cu 0.78745 0.78213 0.15579
 Cu36 Cu 0.77847 0.83710 0.22634
 N37 N 0.84219 0.81592 0.25711
 N38 N 0.81506 0.83590 0.26061
 C39 C 0.81896 0.85590 0.28889
 C40 C 0.85045 0.84822 0.30408
 C41 C 0.86427 0.82241 0.28307
 H42 H 0.80063 0.87538 0.29688
 H43 H 0.88891 0.80977 0.28572
 N44 N 0.74466 0.83467 0.18848
 N45 N 0.74846 0.81417 0.16137
 C46 C 0.72269 0.82008 0.13902
 C47 C 0.70168 0.84582 0.15248
 C48 C 0.71645 0.85433 0.18397
 H49 H 0.72018 0.80740 0.11421
 H50 H 0.70787 0.87406 0.20189
 H51 H 0.80849 0.82220 0.18535
 H52 H 0.78534 0.78669 0.20870
 N53 N 0.81285 1.26062 -0.16080
 N54 N 0.83029 1.26695 -0.18942
 C55 C 0.85117 1.29442 -0.18433
 C56 C 0.84667 1.30595 -0.15054
 C57 C 0.82204 1.28376 -0.13646
 H58 H 0.86885 1.30464 -0.20360
 H59 H 0.81225 1.28361 -0.11017
 Cu60 Cu 0.82612 1.23705 -0.22965
 Cu61 Cu 0.78150 1.22130 -0.15645
 Cu62 Cu 0.76115 1.17956 -0.23320
 N63 N 0.82619 1.19952 -0.26327
 N64 N 0.80048 1.17730 -0.26499
 C65 C 0.80711 1.15414 -0.29021
 C66 C 0.83910 1.16196 -0.30508
 C67 C 0.85025 1.19120 -0.28718
 H68 H 0.79004 1.13284 -0.29645
 H69 H 0.87423 1.20526 -0.29064
 N70 N 0.73381 1.17394 -0.19044
 N71 N 0.74213 1.18905 -0.16099
 C72 C 0.71972 1.17880 -0.13621
 C73 C 0.69620 1.15586 -0.15064
 C74 C 0.70601 1.15349 -0.18517
 H75 H 0.72092 1.18699 -0.10948
 H76 H 0.69428 1.13764 -0.20499
 H77 H 0.79759 1.19046 -0.19785
 H78 H 0.76768 1.22702 -0.20665
 N79 N 0.19436 0.73647 -0.17288
 N80 N 0.16636 0.74030 -0.19144
 C81 C 0.14333 0.71552 -0.18279
 C82 C 0.15766 0.69491 -0.15740
 C83 C 0.19023 0.70899 -0.15194
 H84 H 0.11766 0.71341 -0.19340
 H85 H 0.20937 0.70043 -0.13369
 Cu86 Cu 0.16236 0.77840 -0.22382
 Cu87 Cu 0.23360 0.76823 -0.17659
 Cu88 Cu 0.21493 0.84652 -0.21603
 N89 N 0.16163 0.81574 -0.25741
 N90 N 0.18222 0.84262 -0.25398
 C91 C 0.17496 0.86598 -0.27853
 C92 C 0.14818 0.85315 -0.29874
 C93 C 0.14061 0.82095 -0.28445
 H94 H 0.18783 0.89076 -0.28065
 H95 H 0.12068 0.80297 -0.29229
 N96 N 0.25553 0.83966 -0.18653
 N97 N 0.26312 0.80973 -0.17223
 C98 C 0.29184 0.81363 -0.15315
 C99 C 0.30301 0.84768 -0.15564
 C100 C 0.27932 0.86331 -0.17717
 H101 H 0.30324 0.79327 -0.13800
 H102 H 0.27880 0.89016 -0.18481
 H103 H 0.19930 0.80728 -0.18171
 H104 H 0.22308 0.79548 -0.22223
 Si105 Si 0.50179 0.99479 0.00163
 Si106 Si 0.00744 0.49859 1.00217
 Si107 Si 0.99442 0.00194 0.50516
 C108 C 0.08575 0.36345 1.12960
 C109 C 0.10234 0.37998 1.10191
 C110 C 0.13562 0.36988 1.09200
 C111 C 0.15202 0.34287 1.10923
 C112 C 0.13527 0.32525 1.13668
 C113 C 0.10201 0.33644 1.14691
 C114 C 0.08451 0.40612 1.08267
 C115 C 0.06900 0.42725 1.06611
 C116 C 0.05017 0.45110 1.04625
 C117 C 0.03354 0.47068 1.02893
 H118 H 0.05994 0.37107 1.13749
 H119 H 0.14871 0.38251 1.07056
 H120 H 0.17758 0.33571 1.10041
 H121 H 0.08799 0.32420 1.16790
 C122 C -0.07541 0.63436 1.12908
 C123 C -0.09088 0.61693 1.10143
 C124 C -0.12419 0.62599 1.09114
 C125 C -0.14172 0.65282 1.10798
 C126 C -0.12610 0.67109 1.13535
 C127 C -0.09288 0.66118 1.14598
 C128 C -0.07191 0.59097 1.08256
 C129 C -0.05559 0.56996 1.06622
 C130 C -0.03601 0.54620 1.04651
 C131 C -0.01892 0.52664 1.02918
 H132 H -0.04958 0.62763 1.13719
 H133 H -0.13642 0.61267 1.06973
 H134 H -0.16734 0.65935 1.09926
 H135 H -0.07987 0.67457 1.16678
 C136 C -0.08565 0.37435 0.87015
 C137 C -0.09639 0.38523 0.90308
 C138 C -0.12630 0.37105 0.91801
 C139 C -0.14515 0.34571 0.90034
 C140 C -0.13428 0.33410 0.86744
 C141 C -0.10447 0.34902 0.85240
 C142 C -0.07601 0.40991 0.92214
 C143 C -0.05866 0.42997 0.93855
 C144 C -0.03801 0.45274 0.95826
 C145 C -0.02009 0.47153 0.97549
 H146 H -0.06245 0.38508 0.85839
 H147 H -0.13485 0.37928 0.94350
 H148 H -0.16810 0.33519 0.91264
 H149 H -0.09514 0.34073 0.82727
 C150 C 0.09269 0.62539 0.86817
 C151 C 0.10674 0.61325 0.89904
 C152 C 0.13808 0.62687 0.91085
 C153 C 0.15504 0.65294 0.89217
 C154 C 0.14077 0.66586 0.86143
 C155 C 0.10957 0.65146 0.84946
 C156 C 0.08814 0.58801 0.91935
 C157 C 0.07193 0.56758 0.93662
 C158 C 0.05222 0.54451 0.95714
 C159 C 0.03480 0.52558 0.97492
 H160 H 0.06842 0.61503 0.85879
 H161 H 0.14912 0.61775 0.93480
 H162 H 0.17886 0.66342 0.90234
 H163 H 0.09795 0.66038 0.82578
 C164 C 1.08187 0.12862 0.37143
 C165 C 1.09480 0.09812 0.38551
 C166 C 1.12559 0.08424 0.37255
 C167 C 1.14303 0.10033 0.34509
 C168 C 1.12984 0.13063 0.32987
 C169 C 1.09921 0.14482 0.34397
 C170 C 1.07555 0.08006 0.41197
 C171 C 1.05895 0.06433 0.43333
 C172 C 1.03899 0.04523 0.45740
 C173 C 1.02152 0.02837 0.47712
 H174 H 1.05801 0.13959 0.38128
 H175 H 1.13584 0.06059 0.38327
 H176 H 1.16651 0.08841 0.33567
 H177 H 1.08801 0.16811 0.33366
 C178 C 1.12327 -0.07931 0.63731
 C179 C 1.09505 -0.09517 0.62131
 C180 C 1.08519 -0.12864 0.63089
 C181 C 1.10308 -0.14602 0.65682
 C182 C 1.13117 -0.13009 0.67384
 C183 C 1.14124 -0.09656 0.66324
 C184 C 1.07540 -0.07652 0.59608
 C185 C 1.05861 -0.06045 0.57557
 C186 C 1.03857 -0.04113 0.55229
 C187 C 1.02116 -0.02423 0.53302
 H188 H 1.13114 -0.05337 0.63007
 H189 H 1.06334 -0.14117 0.61865
 H190 H 1.09431 -0.17172 0.66359
 H191 H 1.16268 -0.08312 0.67507
 C192 C 0.91523 -0.12785 0.37133
 C193 C 0.89870 -0.10026 0.38786
 C194 C 0.86554 -0.09070 0.37768
 C195 C 0.84922 -0.10817 0.35056
 C196 C 0.86593 -0.13549 0.33289
 C197 C 0.89905 -0.14539 0.34419
 C198 C 0.91656 -0.08064 0.41398
 C199 C 0.93217 -0.06374 0.43501
 C200 C 0.95116 -0.04342 0.45864
 C201 C 0.96798 -0.02564 0.47792
 H202 H 0.94096 -0.13547 0.37900
 H203 H 0.85249 -0.06933 0.39032
 H204 H 0.82376 -0.09961 0.34331
 H205 H 0.91304 -0.16629 0.33195
 C206 C 0.86065 0.09458 0.62869
 C207 C 0.89353 0.10541 0.61793
 C208 C 0.90797 0.13549 0.63194
 C209 C 0.88986 0.15447 0.65698
 C210 C 0.85686 0.14360 0.66863
 C211 C 0.84241 0.11346 0.65373
 C212 C 0.91299 0.08504 0.59344
 C213 C 0.92971 0.06771 0.57351
 C214 C 0.94975 0.04712 0.55085
 C215 C 0.96727 0.02928 0.53213
 H216 H 0.84922 0.07127 0.61802
 H217 H 0.93346 0.14412 0.62379
 H218 H 0.90220 0.17740 0.66724
 H219 H 0.81719 0.10394 0.66144
 C220 C 0.37213 1.08161 0.13318
 C221 C 0.38460 1.09399 0.10145
 C222 C 0.37077 1.12416 0.08743
 C223 C 0.34411 1.14154 0.10473
 C224 C 0.33078 1.12888 0.13631
 C225 C 0.34546 1.09892 0.15054
 C226 C 0.41035 1.07484 0.08244
 C227 C 0.43118 1.05836 0.06601
 C228 C 0.45472 1.03859 0.04620
 C229 C 0.47408 1.02136 0.02878
 H230 H 0.38265 1.05825 0.14427
 H231 H 0.38014 1.13390 0.06280
 H232 H 0.33349 1.16435 0.09282
 H233 H 0.33625 1.08857 0.17492
 C234 C 0.62603 1.08947 -0.13089
 C235 C 0.61665 1.09857 -0.09703
 C236 C 0.63249 1.12695 -0.08106
 C237 C 0.65796 1.14590 -0.09866
 C238 C 0.66804 1.13668 -0.13255
 C239 C 0.65150 1.10840 -0.14858
 C240 C 0.59172 1.07809 -0.07816
 C241 C 0.57143 1.06070 -0.06186
 C242 C 0.54837 1.04005 -0.04224
 C243 C 0.52930 1.02218 -0.02505
 H244 H 0.61401 1.06745 -0.14346
 H245 H 0.62542 1.13423 -0.05485
 H246 H 0.66975 1.16766 -0.08556
 H247 H 0.65861 1.10035 -0.17450
 C248 C 0.37512 0.86446 -0.09150
 C249 C 0.38558 0.89790 -0.10073
 C250 C 0.36995 0.91442 -0.12863
 C251 C 0.34357 0.89784 -0.14689
 C252 C 0.33234 0.86446 -0.13744
 C253 C 0.34874 0.84779 -0.10976
 C254 C 0.41118 0.91597 -0.08068
 C255 C 0.43190 0.93176 -0.06359
 C256 C 0.45529 0.95100 -0.04323
 C257 C 0.47447 0.96803 -0.02556
 H258 H 0.38696 0.85148 -0.06984
 H259 H 0.37784 0.94032 -0.13600
 H260 H 0.33193 0.91137 -0.16825
 H261 H 0.34076 0.82223 -0.10157
 C262 C 0.63088 0.86523 0.08800
 C263 C 0.61822 0.89666 0.10069
 C264 C 0.63180 0.91078 0.13107
 C265 C 0.65840 0.89390 0.14838
 C266 C 0.67191 0.86264 0.13543
 C267 C 0.65748 0.84829 0.10525
 C268 C 0.59256 0.91528 0.08161
 C269 C 0.57181 0.93141 0.06519
 C270 C 0.54840 0.95088 0.04547
 C271 C 0.52919 0.96802 0.02824
 H272 H 0.62056 0.85406 0.06448
 H273 H 0.62228 0.93519 0.14106
 H274 H 0.66882 0.90590 0.17138
 H275 H 0.66684 0.82414 0.09466
   
