data_POSCAR
  _audit_creation_date              2014-09-24
  _audit_creation_method            'ToBaCCo'
  _symmetry_space_group_name_H-M    'P1'
  _symmetry_Int_Tables_number       1
  _symmetry_cell_setting            triclinic
  loop_
  _symmetry_equiv_pos_as_xyz
 x,y,z
_cell_length_a 13.3090
_cell_length_b 12.9866
_cell_length_c 22.1569
_cell_angle_alpha 88.719100
_cell_angle_beta 93.648200
_cell_angle_gamma 83.246400
loop_
  _atom_site_label
  _atom_site_type_symbol
  _atom_site_fract_x
  _atom_site_fract_y
  _atom_site_fract_z
O1 O 0.06923 0.59604 1.06504
 O2 O 0.09060 0.39926 0.94890
 O3 O 0.08673 0.60076 0.94803
 O4 O 0.06088 0.39741 1.06431
 O5 O -0.10444 0.41517 1.04145
 O6 O -0.07998 0.62895 0.93487
 O7 O -0.07448 0.42921 0.92586
 O8 O -0.09742 0.61534 1.04951
 Cu9 Cu 0.09358 0.49609 1.00825
 Cu10 Cu -0.10569 0.52393 0.98609
 C11 C -0.01730 0.63874 1.07766
 C12 C 0.01216 0.38140 0.91729
 C13 C 0.00681 0.65160 0.92278
 C14 C -0.02670 0.37130 1.07195
 O15 O 0.41118 -0.08659 0.44400
 O16 O 0.61849 -0.07743 0.55981
 O17 O 0.42233 -0.08223 0.56160
 O18 O 0.60646 -0.07742 0.44504
 O19 O 0.58566 0.09382 0.44374
 O20 O 0.38999 0.08863 0.55374
 O21 O 0.58690 0.09311 0.56103
 O22 O 0.39061 0.08448 0.43603
 Cu23 Cu 0.51633 -0.09817 0.50315
 Cu24 Cu 0.48524 0.10730 0.49839
 C25 C 0.36649 -0.00294 0.41949
 C26 C 0.63990 0.00898 0.57945
 C27 C 0.37340 0.00222 0.57644
 C28 C 0.63023 0.00896 0.42609
 Si29 Si -0.02274 0.00180 0.25182
 Si30 Si 0.02295 0.01357 0.74482
 C31 C 0.05969 -0.27216 0.16521
 C32 C -0.02427 -0.28414 0.12571
 C33 C -0.11456 -0.21834 0.13302
 C34 C -0.11499 -0.13509 0.17285
 C35 C -0.02602 -0.11748 0.20706
 C36 C 0.05866 -0.19187 0.20546
 C37 C 0.16777 -0.18062 0.19789
 C38 C 0.16817 -0.26779 0.15329
 H39 H -0.18278 -0.22650 0.10511
 H40 H -0.18339 -0.08138 0.17456
 H41 H 0.21657 -0.20327 0.23974
 H42 H 0.17941 -0.10478 0.17700
 H43 H 0.21723 -0.33947 0.16959
 H44 H 0.17817 -0.24192 0.10608
 C45 C -0.06138 0.19171 0.09612
 C46 C -0.03895 0.28813 0.11591
 C47 C -0.03013 0.30282 0.17863
 C48 C -0.03260 0.21862 0.21970
 C49 C -0.04138 0.11796 0.19870
 C50 C -0.06192 0.10814 0.13641
 C51 C -0.01271 0.03421 0.09327
 C52 C -0.01139 0.12572 0.05003
 H53 H -0.01696 0.37788 0.19574
 H54 H -0.02008 0.23085 0.26763
 H55 H -0.06378 -0.02163 0.07577
 H56 H 0.06437 -0.00076 0.11006
 H57 H -0.06131 0.12204 0.00815
 H58 H 0.06676 0.14408 0.04356
 C59 C 0.19215 0.00370 0.59456
 C60 C 0.29250 -0.00108 0.61782
 C61 C 0.31279 -0.01309 0.68086
 C62 C 0.23220 -0.00941 0.71951
 C63 C 0.13088 0.00302 0.69543
 C64 C 0.11303 0.00537 0.63247
 C65 C 0.04689 0.08266 0.59197
 C66 C 0.13382 0.08081 0.55076
 H67 H 0.39020 -0.02042 0.70019
 H68 H 0.24891 -0.01318 0.76802
 H69 H 0.02897 0.15851 0.61349
 H70 H -0.01978 0.04963 0.57089
 H71 H 0.16683 0.15550 0.54865
 H72 H 0.11668 0.04714 0.50617
 C73 C -0.25593 0.10093 0.65000
 C74 C -0.27409 0.01121 0.61892
 C75 C -0.19868 -0.07508 0.62501
 C76 C -0.11020 -0.07187 0.66227
 C77 C -0.09559 0.01620 0.69579
 C78 C -0.16905 0.10273 0.68875
 C79 C -0.22862 0.15706 0.73618
 C80 C -0.32222 0.15680 0.69363
 H81 H -0.20706 -0.14506 0.60042
 H82 H -0.05369 -0.13934 0.66568
 H83 H -0.20916 0.23650 0.74445
 H84 H -0.23018 0.10818 0.77786
 H85 H -0.35410 0.23556 0.67613
 H86 H -0.37877 0.10888 0.71096
 C87 C 0.10521 -0.24552 0.85966
 C88 C 0.01310 -0.26505 0.88254
 C89 C -0.07392 -0.19545 0.86479
 C90 C -0.06918 -0.11408 0.82295
 C91 C 0.02148 -0.10154 0.79600
 C92 C 0.10945 -0.16543 0.81703
 C93 C 0.18270 -0.23188 0.78178
 C94 C 0.17840 -0.31836 0.82833
 H95 H -0.14632 -0.20370 0.88296
 H96 H -0.13745 -0.06201 0.81089
 H97 H 0.25843 -0.20382 0.78262
 H98 H 0.15018 -0.24858 0.73605
 H99 H 0.25094 -0.33857 0.85603
 H100 H 0.14359 -0.38571 0.80969
 C101 C 0.00188 0.31064 0.81222
 C102 C 0.02075 0.29704 0.87458
 C103 C 0.04826 0.19438 0.89643
 C104 C 0.04958 0.11020 0.85722
 C105 C 0.02717 0.12650 0.79425
 C106 C 0.00789 0.22972 0.77379
 C107 C -0.00852 0.29960 0.71881
 C108 C -0.01640 0.39068 0.76248
 H109 H 0.06817 0.17913 0.94388
 H110 H 0.06912 0.03292 0.87679
 H111 H -0.08018 0.29249 0.69170
 H112 H 0.05998 0.29552 0.69237
 H113 H -0.09355 0.43419 0.76189
 H114 H 0.04691 0.43911 0.76044
 C115 C -0.22086 -0.08019 0.37731
 C116 C -0.28611 0.01010 0.38553
 C117 C -0.26406 0.10235 0.35713
 C118 C -0.18569 0.10032 0.31699
 C119 C -0.12723 0.00631 0.30457
 C120 C -0.14477 -0.08245 0.33739
 C121 C -0.16138 -0.18948 0.31846
 C122 C -0.24333 -0.18703 0.36323
 H123 H -0.30929 0.17542 0.36426
 H124 H -0.17346 0.17210 0.29478
 H125 H -0.09524 -0.24798 0.33106
 H126 H -0.19349 -0.19244 0.27126
 H127 H -0.22300 -0.24207 0.40244
 H128 H -0.32071 -0.18852 0.34139
 C129 C 0.22865 -0.09282 0.37037
 C130 C 0.28439 -0.00816 0.37223
 C131 C 0.25638 0.07255 0.32870
 C132 C 0.16772 0.07286 0.29012
 C133 C 0.10244 -0.00439 0.29652
 C134 C 0.13860 -0.08945 0.33505
 C135 C 0.09083 -0.14782 0.38215
 C136 C 0.19062 -0.15344 0.42016
 H137 H 0.30079 0.13700 0.32586
 H138 H 0.14918 0.13612 0.25749
 H139 H 0.07341 -0.22490 0.36670
 H140 H 0.02882 -0.09973 0.40332
 H141 H 0.23119 -0.23331 0.42530
 H142 H 0.18519 -0.11040 0.46281
   
