data_POSCAR
  _audit_creation_date              2014-09-24
  _audit_creation_method            'ToBaCCo'
  _symmetry_space_group_name_H-M    'P1'
  _symmetry_Int_Tables_number       1
  _symmetry_cell_setting            triclinic
  loop_
  _symmetry_equiv_pos_as_xyz
 x,y,z
_cell_length_a 17.7126
_cell_length_b 17.7224
_cell_length_c 46.1640
_cell_angle_alpha 89.766300
_cell_angle_beta 90.227300
_cell_angle_gamma 119.882700
loop_
  _atom_site_label
  _atom_site_type_symbol
  _atom_site_fract_x
  _atom_site_fract_y
  _atom_site_fract_z
C1 C 0.00022 0.00049 0.50019
 C2 C 1.00043 0.00019 0.16667
 C3 C -0.00033 0.99965 0.83332
 O4 O 0.60636 0.06713 -0.02893
 O5 O 0.45866 0.06773 0.02751
 O6 O 0.61109 0.07836 0.02735
 O7 O 0.46481 0.07849 -0.02882
 O8 O 0.39157 -0.06541 -0.02884
 O9 O 0.54030 -0.06555 0.02774
 O10 O 0.38786 -0.07618 0.02747
 O11 O 0.53311 -0.07677 -0.02855
 Cu12 Cu 0.54236 0.08720 -0.00075
 Cu13 Cu 0.45607 -0.08525 -0.00054
 C14 C 0.59441 -0.00561 -0.03814
 C15 C 0.39797 -0.00482 0.03692
 C16 C 0.60116 0.00707 0.03699
 C17 C 0.40335 0.00725 -0.03826
 O18 O -0.06530 0.39162 0.69561
 O19 O -0.06567 0.54016 0.63903
 O20 O -0.07601 0.38795 0.63931
 O21 O -0.07682 0.53301 0.69532
 O22 O 0.06715 0.60638 0.69569
 O23 O 0.06798 0.45887 0.63926
 O24 O 0.07832 0.61108 0.63941
 O25 O 0.07867 0.46498 0.69559
 Cu26 Cu -0.08524 0.45603 0.66731
 Cu27 Cu 0.08732 0.54247 0.66752
 C28 C 0.00743 0.40348 0.70502
 C29 C 0.00694 0.60106 0.62978
 C30 C -0.00457 0.39816 0.62985
 C31 C -0.00566 0.59435 0.70490
 O32 O 0.54284 0.60649 0.30502
 O33 O 0.39449 0.45844 0.36150
 O34 O 0.53230 0.61419 0.36125
 O35 O 0.38783 0.46777 0.30519
 O36 O 0.45882 0.39460 0.30535
 O37 O 0.60596 0.54382 0.36183
 O38 O 0.46551 0.38520 0.36050
 O39 O 0.61087 0.53031 0.30452
 Cu40 Cu 0.45727 0.54388 0.33322
 Cu41 Cu 0.54334 0.45855 0.33366
 C42 C 0.60217 0.59284 0.29526
 C43 C 0.40510 0.39612 0.37034
 C44 C 0.59373 0.60452 0.37098
 C45 C 0.39788 0.40636 0.29585
 C46 C -0.01670 0.05734 0.51874
 C47 C -0.02238 0.10799 0.53470
 C48 C -0.02199 0.16988 0.55393
 C49 C -0.01805 0.22357 0.57074
 C50 C -0.01157 0.28628 0.59088
 C51 C -0.00682 0.33858 0.60846
 C52 C 0.94431 0.92548 0.18506
 C53 C 0.89384 0.86816 0.20082
 C54 C 0.83180 0.80544 0.21979
 C55 C 0.77781 0.75476 0.23639
 C56 C 0.71467 0.69774 0.25632
 C57 C 0.66202 0.64989 0.27381
 C58 C 0.07011 0.01672 -0.14907
 C59 C 0.12742 0.02368 -0.13314
 C60 C 0.18997 0.02430 -0.11396
 C61 C 0.24053 0.02086 -0.09721
 C62 C 0.29755 0.01462 -0.07714
 C63 C 0.34562 0.00983 -0.05961
 C64 C 0.01786 0.94363 0.51870
 C65 C 0.02403 0.89286 0.53463
 C66 C 0.02408 0.83073 0.55384
 C67 C 0.02038 0.77677 0.57064
 C68 C 0.01406 0.71371 0.59077
 C69 C 0.00932 0.66107 0.60836
 C70 C 0.05646 0.07416 0.18529
 C71 C 0.10675 0.13094 0.20123
 C72 C 0.16852 0.19314 0.22038
 C73 C 0.22231 0.24357 0.23709
 C74 C 0.28528 0.30057 0.25709
 C75 C 0.33789 0.34866 0.27456
 C76 C 0.92530 -0.01819 -0.14823
 C77 C 0.86841 -0.02437 -0.13242
 C78 C 0.80632 -0.02422 -0.11339
 C79 C 0.75615 -0.02024 -0.09676
 C80 C 0.69954 -0.01351 -0.07683
 C81 C 0.65179 -0.00841 -0.05941
 C82 C 0.05709 -0.01701 0.14811
 C83 C 0.10767 -0.02283 0.13214
 C84 C 0.16953 -0.02250 0.11289
 C85 C 0.22324 -0.01854 0.09606
 C86 C 0.28598 -0.01199 0.07591
 C87 C 0.33833 -0.00717 0.05832
 C88 C 0.92544 0.94471 0.48177
 C89 C 0.86822 0.89467 0.46590
 C90 C 0.80577 0.83322 0.44674
 C91 C 0.75537 0.77970 0.42998
 C92 C 0.69863 0.71700 0.40990
 C93 C 0.65090 0.66453 0.39235
 C94 C 0.01682 0.07008 0.81571
 C95 C 0.02384 0.12741 0.79980
 C96 C 0.02451 0.19001 0.78064
 C97 C 0.02111 0.24061 0.76391
 C98 C 0.01489 0.29768 0.74387
 C99 C 0.01007 0.34577 0.72636
 C100 C 0.94377 0.01810 0.14814
 C101 C 0.89308 0.02439 0.13219
 C102 C 0.83098 0.02448 0.11296
 C103 C 0.77702 0.02076 0.09615
 C104 C 0.71392 0.01436 0.07600
 C105 C 0.66124 0.00955 0.05841
 C106 C 0.07422 0.05620 0.48152
 C107 C 0.13085 0.10609 0.46546
 C108 C 0.19273 0.16733 0.44611
 C109 C 0.24283 0.22070 0.42923
 C110 C 0.29946 0.28332 0.40908
 C111 C 0.34736 0.33584 0.39156
 C112 C -0.01822 0.92531 0.81488
 C113 C -0.02444 0.86841 0.79908
 C114 C -0.02433 0.80630 0.78007
 C115 C -0.02038 0.75610 0.76346
 C116 C -0.01365 0.69946 0.74356
 C117 C -0.00853 0.65170 0.72615
   
