data_POSCAR
  _audit_creation_date              2014-09-24
  _audit_creation_method            'ToBaCCo'
  _symmetry_space_group_name_H-M    'P1'
  _symmetry_Int_Tables_number       1
  _symmetry_cell_setting            triclinic
  loop_
  _symmetry_equiv_pos_as_xyz
 x,y,z
_cell_length_a 44.4985
_cell_length_b 44.6449
_cell_length_c 44.8653
_cell_angle_alpha 89.937600
_cell_angle_beta 89.947600
_cell_angle_gamma 90.044600
loop_
  _atom_site_label
  _atom_site_type_symbol
  _atom_site_fract_x
  _atom_site_fract_y
  _atom_site_fract_z
C1 C 0.16825 0.17066 0.20608
 C2 C 0.19412 0.15796 0.19286
 C3 C 0.20700 0.16979 0.16653
 C4 C 0.19328 0.19509 0.15353
 C5 C 0.16763 0.20816 0.16613
 C6 C 0.15538 0.19596 0.19223
 H7 H 0.20271 0.13713 0.20162
 H8 H 0.20275 0.20538 0.13383
 H9 H 0.13656 0.20740 0.20236
 C10 C -0.16560 0.83156 0.21060
 C11 C -0.19182 0.84416 0.19800
 C12 C -0.20534 0.83172 0.17257
 C13 C -0.19268 0.80614 0.15954
 C14 C -0.16672 0.79304 0.17149
 C15 C -0.15344 0.80577 0.19690
 H16 H -0.20148 0.86435 0.20715
 H17 H -0.20253 0.79695 0.13946
 H18 H -0.13439 0.79440 0.20665
 C19 C -0.16956 0.16674 -0.20909
 C20 C -0.19516 0.15357 -0.19574
 C21 C -0.20866 0.16569 -0.16988
 C22 C -0.19594 0.19185 -0.15759
 C23 C -0.17056 0.20541 -0.17032
 C24 C -0.15763 0.19282 -0.19589
 H25 H -0.20460 0.13362 -0.20547
 H26 H -0.20448 0.20097 -0.13693
 H27 H -0.13903 0.20453 -0.20619
 C28 C 0.16900 0.83239 -0.20726
 C29 C 0.15559 0.80672 -0.19513
 C30 C 0.16748 0.79302 -0.16961
 C31 C 0.19324 0.80525 -0.15622
 C32 C 0.20732 0.83117 -0.16783
 C33 C 0.19473 0.84439 -0.19360
 H34 H 0.13613 0.79701 -0.20595
 H35 H 0.20100 0.79533 -0.13563
 H36 H 0.20511 0.86376 -0.20377
 C37 C 0.17078 1.16918 0.79358
 C38 C 0.15771 1.19484 0.80623
 C39 C 0.16959 1.20769 0.83224
 C40 C 0.19497 1.19463 0.84555
 C41 C 0.20838 1.16898 0.83325
 C42 C 0.19616 1.15646 0.80722
 H43 H 0.13856 1.20518 0.79547
 H44 H 0.20420 1.20435 0.86567
 H45 H 0.20583 1.13618 0.79811
 C46 C 0.83244 0.83426 0.79016
 C47 C 0.80679 0.84655 0.80395
 C48 C 0.79392 0.83332 0.82926
 C49 C 0.80674 0.80724 0.84111
 C50 C 0.83246 0.79411 0.82819
 C51 C 0.84488 0.80794 0.80261
 H52 H 0.79557 0.86573 0.79429
 H53 H 0.79743 0.79840 0.86159
 H54 H 0.86449 0.79820 0.79239
 C55 C 0.16647 0.82942 1.20854
 C56 C 0.15319 0.80394 1.19527
 C57 C 0.16536 0.79083 1.16952
 C58 C 0.19135 0.80315 1.15680
 C59 C 0.20515 0.82837 1.16940
 C60 C 0.19270 0.84125 1.19516
 H61 H 0.13410 0.79308 1.20559
 H62 H 0.20078 0.79318 1.13688
 H63 H 0.20272 0.86166 1.20350
 C64 C 0.83273 1.16911 1.20887
 C65 C 0.80678 1.15584 1.19657
 C66 C 0.79301 1.16767 1.17106
 C67 C 0.80517 1.19327 1.15753
 C68 C 0.83107 1.20736 1.16899
 C69 C 0.84439 1.19497 1.19480
 H70 H 0.79751 1.13558 1.20607
 H71 H 0.79518 1.20093 1.13692
 H72 H 0.86256 1.20693 1.20539
 O73 O 0.45780 1.05246 1.05387
 O74 O 0.42502 1.02303 1.02752
 C75 C 0.43081 1.04422 1.04641
 O76 O 0.54243 1.04913 0.94763
 O77 O 0.57523 1.02268 0.97691
 C78 C 0.56942 1.04166 0.95580
 O79 O 0.45786 1.05177 0.95041
 O80 O 0.42499 1.02325 0.97777
 C81 C 0.43085 1.04395 0.95831
 O82 O 0.54242 1.04970 1.05659
 O83 O 0.57528 1.02233 1.02819
 C84 C 0.56943 1.04179 1.04883
 Zr85 Zr 0.50010 1.03567 1.03982
 O86 O 0.50351 1.08297 1.03898
 O87 O 0.49672 1.03635 1.08688
 Zr88 Zr 0.50016 1.03503 0.96448
 O89 O 0.50351 1.08233 0.96405
 O90 O 0.49681 1.03452 0.91741
 O91 O 0.47332 1.04119 1.00211
 O92 O 0.52621 1.04082 1.00212
 O93 O 0.54241 0.94600 1.05751
 O94 O 0.57524 0.97290 1.02855
 C95 C 0.56942 0.95377 1.04954
 O96 O 0.45794 0.94235 0.95111
 O97 O 0.42510 0.97170 0.97746
 C98 C 0.43093 0.95055 0.95855
 O99 O 0.54253 0.94523 0.94837
 O100 O 0.57532 0.97265 0.97677
 C101 C 0.56953 0.95321 0.95612
 O102 O 0.45776 0.94301 1.05462
 O103 O 0.42497 0.97147 1.02721
 C104 C 0.43076 0.95078 1.04668
 Zr105 Zr 0.50010 0.95987 1.04060
 O106 O 0.50351 0.91259 1.04109
 O107 O 0.49663 0.96041 1.08766
 Zr108 Zr 0.50022 0.95916 0.96522
 O109 O 0.50364 0.91187 0.96625
 O110 O 0.49693 0.95831 0.91817
 Zr111 Zr 0.45556 0.99739 1.00251
 Zr112 Zr 0.54472 0.99745 1.00249
 O113 O 0.52627 0.95406 1.00295
 O114 O 0.47336 0.95363 1.00294
 O115 O 0.52685 0.99784 1.04603
 O116 O 0.47417 0.99705 0.95937
 O117 O 0.47405 0.99777 1.04566
 O118 O 0.52694 0.99709 0.95896
 H119 H 0.53984 1.05838 1.00204
 H120 H 0.46059 0.99698 0.94188
 H121 H 0.54000 0.93660 1.00309
 H122 H 0.46042 0.99782 1.06314
 H123 H 0.51381 1.02253 0.90971
 H124 H 0.51304 0.97133 0.91021
 H125 H 0.48622 0.90415 0.97762
 H126 H 0.48697 0.90462 1.02870
 H127 H 0.51356 0.97251 1.09536
 H128 H 0.51309 1.02369 1.09483
 H129 H 0.48627 1.09068 1.02738
 H130 H 0.48685 1.09024 0.97633
 O131 O 0.05145 0.45792 -0.05402
 O132 O 0.02196 0.42514 -0.02763
 C133 C 0.04321 0.43099 -0.04656
 O134 O 0.04828 0.54189 0.05232
 O135 O 0.02172 0.57470 0.02318
 C136 C 0.04076 0.56882 0.04424
 O137 O 0.05094 0.45763 0.04937
 O138 O 0.02223 0.42494 0.02215
 C139 C 0.04305 0.43073 0.04151
 O140 O 0.04868 0.54229 -0.05665
 O141 O 0.02131 0.57494 -0.02806
 C142 C 0.04080 0.56919 -0.04878
 Zr143 Zr 0.03454 0.50004 -0.03997
 O144 O 0.08200 0.50341 -0.03961
 O145 O 0.03485 0.49681 -0.08705
 Zr146 Zr 0.03420 0.49985 0.03534
 O147 O 0.08167 0.50323 0.03523
 O148 O 0.03418 0.49638 0.08240
 O149 O 0.04021 0.47321 -0.00232
 O150 O 0.03987 0.52595 -0.00226
 O151 O -0.05529 0.54230 -0.05718
 O152 O -0.02821 0.57493 -0.02829
 C153 C -0.04744 0.56920 -0.04922
 O154 O -0.05878 0.45768 0.04919
 O155 O -0.02939 0.42504 0.02268
 C156 C -0.05054 0.43079 0.04171
 O157 O -0.05614 0.54194 0.05187
 O158 O -0.02924 0.57470 0.02290
 C159 C -0.04847 0.56887 0.04384
 O160 O -0.05827 0.45787 -0.05460
 O161 O -0.02919 0.42514 -0.02783
 C162 C -0.05016 0.43095 -0.04702
 Zr163 Zr -0.04143 0.50001 -0.04039
 O164 O -0.08888 0.50338 -0.04057
 O165 O -0.04110 0.49678 -0.08746
 Zr166 Zr -0.04199 0.49986 0.03499
 O167 O -0.08944 0.50319 0.03419
 O168 O -0.04266 0.49649 0.08205
 Zr169 Zr -0.00373 0.45548 -0.00247
 Zr170 Zr -0.00364 0.54438 -0.00234
 O171 O -0.04717 0.52593 -0.00270
 O172 O -0.04764 0.47318 -0.00274
 O173 O -0.00339 0.52673 -0.04593
 O174 O -0.00392 0.47395 0.04066
 O175 O -0.00343 0.47408 -0.04562
 O176 O -0.00390 0.52651 0.04115
 H177 H 0.05750 0.53953 -0.00222
 H178 H -0.00394 0.46038 0.05816
 H179 H -0.06476 0.53952 -0.00283
 H180 H -0.00334 0.46064 -0.06318
 H181 H 0.02156 0.51283 0.09020
 H182 H -0.02979 0.51271 0.08995
 H183 H -0.09718 0.48593 0.02271
 H184 H -0.09682 0.48664 -0.02843
 H185 H -0.02880 0.51354 -0.09517
 H186 H 0.02256 0.51350 -0.09489
 H187 H 0.08978 0.48652 -0.02762
 H188 H 0.08955 0.48627 0.02342
 O189 O 1.05537 -0.05238 0.45808
 O190 O 1.02874 -0.02311 0.42546
 C191 C 1.04784 -0.04423 0.43128
 O192 O 0.94816 -0.04915 0.54189
 O193 O 0.97765 -0.02265 0.57439
 C194 C 0.95638 -0.04165 0.56866
 O195 O 0.95087 -0.05187 0.45806
 O196 O 0.97782 -0.02282 0.42543
 C197 C 0.95852 -0.04379 0.43126
 O198 O 1.05803 -0.04942 0.54204
 O199 O 1.02935 -0.02194 0.57451
 C200 C 1.05017 -0.04142 0.56880
 Zr201 Zr 1.04109 -0.03557 0.50000
 O202 O 1.04027 -0.08286 0.50351
 O203 O 1.08854 -0.03627 0.49673
 Zr204 Zr 0.96518 -0.03512 0.49995
 O205 O 0.96515 -0.08243 0.50336
 O206 O 0.91773 -0.03498 0.49667
 O207 O 1.00313 -0.04123 0.47333
 O208 O 1.00309 -0.04077 0.52587
 O209 O 1.05853 0.05441 0.54173
 O210 O 1.02889 0.02799 0.57428
 C211 C 1.05021 0.04694 0.56852
 O212 O 0.95142 0.05743 0.45781
 O213 O 0.97815 0.02811 0.42532
 C214 C 0.95898 0.04920 0.43105
 O215 O 0.94854 0.05462 0.54177
 O216 O 0.97717 0.02728 0.57439
 C217 C 0.95631 0.04668 0.56857
 O218 O 1.05602 0.05693 0.45779
 O219 O 1.02906 0.02780 0.42533
 C220 C 1.04840 0.04876 0.43103
 Zr221 Zr 1.04156 0.04034 0.49980
 O222 O 1.04147 0.08765 0.50299
 O223 O 1.08903 0.04029 0.49656
 Zr224 Zr 0.96568 0.04078 0.49981
 O225 O 0.96667 0.08808 0.50311
 O226 O 0.91824 0.04168 0.49652
 Zr227 Zr 1.00342 0.00254 0.45563
 Zr228 Zr 1.00331 0.00265 0.54409
 O229 O 1.00359 0.04603 0.52570
 O230 O 1.00368 0.04637 0.47312
 O231 O 1.04722 0.00241 0.52642
 O232 O 0.95993 0.00282 0.47412
 O233 O 1.04688 0.00232 0.47414
 O234 O 0.95946 0.00287 0.52638
 H235 H 1.00307 -0.05829 0.53945
 H236 H 0.94222 0.00288 0.46075
 H237 H 1.00357 0.06356 0.53922
 H238 H 1.06461 0.00221 0.46077
 H239 H 0.90990 -0.02269 0.51328
 H240 H 0.91021 0.02843 0.51232
 H241 H 0.97804 0.09578 0.48577
 H242 H 1.02965 0.09547 0.48603
 H243 H 1.09680 0.02783 0.51308
 H244 H 1.09650 -0.02333 0.51276
 H245 H 1.02870 -0.09062 0.48635
 H246 H 0.97717 -0.09030 0.48656
 C247 C 1.12929 0.13223 0.28396
 C248 C 1.15994 0.12873 0.27827
 C249 C 1.17285 0.14144 0.25279
 C250 C 1.15529 0.15804 0.23230
 C251 C 1.12431 0.16146 0.23870
 C252 C 1.11155 0.14865 0.26418
 C253 C 1.11586 0.11849 0.30978
 C254 C 1.10435 0.10675 0.33115
 C255 C 1.09030 0.09242 0.35631
 C256 C 1.09830 0.10046 0.38538
 C257 C 1.08466 0.08636 0.40976
 C258 C 1.06281 0.06398 0.40534
 C259 C 1.05489 0.05615 0.37597
 C260 C 1.06855 0.07028 0.35168
 H261 H 1.17396 0.11620 0.29358
 H262 H 1.19685 0.13897 0.24997
 H263 H 1.10929 0.17281 0.22351
 H264 H 1.08769 0.15125 0.26824
 H265 H 1.11512 0.11760 0.38921
 H266 H 1.09128 0.09295 0.43203
 H267 H 1.03815 0.03907 0.37168
 H268 H 1.06216 0.06389 0.32927
 C269 C 0.87611 -0.12871 0.28622
 C270 C 0.89308 -0.14572 0.26628
 C271 C 0.87941 -0.15898 0.24155
 C272 C 0.84827 -0.15543 0.23610
 C273 C 0.83151 -0.13822 0.25676
 C274 C 0.84532 -0.12508 0.28147
 C275 C 0.89036 -0.11464 0.31136
 C276 C 0.90231 -0.10266 0.33230
 C277 C 0.91659 -0.08814 0.35716
 C278 C 0.90871 -0.09597 0.38635
 C279 C 0.92239 -0.08164 0.41050
 C280 C 0.94414 -0.05922 0.40574
 C281 C 0.95196 -0.05159 0.37626
 C282 C 0.93826 -0.06597 0.35218
 H283 H 0.91704 -0.14846 0.26963
 H284 H 0.89383 -0.17081 0.22615
 H285 H 0.80745 -0.13562 0.25475
 H286 H 0.83190 -0.11213 0.29695
 H287 H 0.89195 -0.11311 0.39044
 H288 H 0.91583 -0.08808 0.43285
 H289 H 0.96863 -0.03449 0.37175
 H290 H 0.94452 -0.05973 0.32967
 C291 C 0.87120 0.12778 0.71433
 C292 C 0.84051 0.12388 0.71957
 C293 C 0.82698 0.13680 0.74457
 C294 C 0.84394 0.15402 0.76505
 C295 C 0.87495 0.15790 0.75907
 C296 C 0.88834 0.14487 0.73405
 C297 C 0.88521 0.11393 0.68892
 C298 C 0.89714 0.10219 0.66782
 C299 C 0.91164 0.08805 0.64285
 C300 C 0.93352 0.06610 0.64772
 C301 C 0.94793 0.05254 0.62357
 C302 C 0.94065 0.06077 0.59413
 C303 C 0.91848 0.08277 0.58949
 C304 C 0.90410 0.09630 0.61371
 H305 H 0.82695 0.11090 0.70424
 H306 H 0.80297 0.13403 0.74693
 H307 H 0.88951 0.16980 0.77429
 H308 H 0.91222 0.14784 0.73032
 H309 H 0.93952 0.05953 0.67019
 H310 H 0.96484 0.03568 0.62801
 H311 H 0.91231 0.08964 0.56716
 H312 H 0.88718 0.11327 0.60970
 C313 C 1.13113 -0.12515 0.71537
 C314 C 1.16227 -0.12885 0.71764
 C315 C 1.17465 -0.14276 0.74272
 C316 C 1.15598 -0.15316 0.76587
 C317 C 1.12469 -0.14945 0.76330
 C318 C 1.11238 -0.13552 0.73822
 C319 C 1.11833 -0.11054 0.68975
 C320 C 1.10726 -0.09825 0.66850
 C321 C 1.09357 -0.08353 0.64340
 C322 C 1.10133 -0.09179 0.61432
 C323 C 1.08745 -0.07793 0.58998
 C324 C 1.06556 -0.05563 0.59446
 C325 C 1.05813 -0.04733 0.62384
 C326 C 1.07204 -0.06121 0.64809
 H327 H 1.17698 -0.12097 0.70003
 H328 H 1.19877 -0.14566 0.74389
 H329 H 1.10979 -0.15690 0.78091
 H330 H 1.08825 -0.13269 0.73672
 H331 H 1.11796 -0.10907 0.61045
 H332 H 1.09371 -0.08486 0.56770
 H333 H 1.04143 -0.03024 0.62815
 H334 H 1.06587 -0.05466 0.67052
 C335 C 0.28367 1.12903 1.12683
 C336 C 0.27871 1.12640 1.15746
 C337 C 0.25359 1.13980 1.17058
 C338 C 0.23273 1.15627 1.15327
 C339 C 0.23834 1.15871 1.12228
 C340 C 0.26347 1.14521 1.10931
 C341 C 0.30928 1.11486 1.11326
 C342 C 0.33057 1.10287 1.10170
 C343 C 0.35578 1.08837 1.08773
 C344 C 0.38515 1.09637 1.09552
 C345 C 0.40961 1.08213 1.08203
 C346 C 0.40498 1.05963 1.06055
 C347 C 0.37532 1.05185 1.05281
 C348 C 0.35093 1.06613 1.06633
 H349 H 0.29437 1.11408 1.17129
 H350 H 0.25139 1.13803 1.19452
 H351 H 0.22278 1.16985 1.10747
 H352 H 0.26694 1.14714 1.08547
 H353 H 0.38914 1.11358 1.11207
 H354 H 0.43210 1.08869 1.08851
 H355 H 0.37089 1.03468 1.03635
 H356 H 0.32828 1.05978 1.06011
 C357 C 0.28393 0.86897 0.87474
 C358 C 0.26496 0.88700 0.85766
 C359 C 0.23987 0.87465 0.84356
 C360 C 0.23307 0.84377 0.84625
 C361 C 0.25270 0.82592 0.86363
 C362 C 0.27779 0.83843 0.87764
 C363 C 0.30954 0.88195 0.88946
 C364 C 0.33081 0.89318 0.90178
 C365 C 0.35598 0.90701 0.91645
 C366 C 0.38537 0.89887 0.90886
 C367 C 0.40980 0.91283 0.92268
 C368 C 0.40513 0.93520 0.94429
 C369 C 0.37545 0.94304 0.95191
 C370 C 0.35109 0.92904 0.93807
 H371 H 0.26936 0.91078 0.85550
 H372 H 0.22527 0.88989 0.83171
 H373 H 0.24960 0.80199 0.86569
 H374 H 0.29251 0.82419 0.89064
 H375 H 0.38940 0.88185 0.89213
 H376 H 0.43231 0.90623 0.91628
 H377 H 0.37098 0.96011 0.96847
 H378 H 0.32843 0.93553 0.94411
 C379 C 0.71686 0.87282 1.13320
 C380 C 0.74071 0.89058 1.14322
 C381 C 0.76597 0.87724 1.15611
 C382 C 0.76770 0.84591 1.15915
 C383 C 0.74358 0.82825 1.14902
 C384 C 0.71832 0.84165 1.13615
 C385 C 0.69110 0.88663 1.11952
 C386 C 0.66973 0.89835 1.10785
 C387 C 0.64448 0.91250 1.09362
 C388 C 0.64929 0.93446 1.07186
 C389 C 0.62488 0.94800 1.05767
 C390 C 0.59524 0.93974 1.06504
 C391 C 0.59064 0.91776 1.08710
 C392 C 0.61513 0.90423 1.10127
 H393 H 0.73988 0.91472 1.14090
 H394 H 0.78436 0.89140 1.16325
 H395 H 0.74416 0.80411 1.15132
 H396 H 0.69997 0.82769 1.12847
 H397 H 0.67192 0.94105 1.06579
 H398 H 0.62930 0.96487 1.04085
 H399 H 0.56816 0.91086 1.09333
 H400 H 0.61116 0.88725 1.11809
 C401 C 0.71578 1.12398 0.87110
 C402 C 0.73602 1.10694 0.85446
 C403 C 0.76080 1.12055 0.84089
 C404 C 0.76598 1.15173 0.84370
 C405 C 0.74511 1.16853 0.86066
 C406 C 0.72035 1.15477 0.87413
 C407 C 0.69046 1.10980 0.88527
 C408 C 0.66935 1.09785 0.89724
 C409 C 0.64426 1.08354 0.91167
 C410 C 0.64922 1.06199 0.93378
 C411 C 0.62490 1.04826 0.94804
 C412 C 0.59520 1.05594 0.94038
 C413 C 0.59047 1.07756 0.91800
 C414 C 0.61485 1.09125 0.90378
 H415 H 0.73285 1.08297 0.85223
 H416 H 0.77645 1.10607 0.82943
 H417 H 0.74700 1.19258 0.86278
 H418 H 0.70465 1.16824 0.88682
 H419 H 0.67191 1.05584 0.94005
 H420 H 0.62941 1.03170 0.96512
 H421 H 0.56794 1.08401 0.91153
 H422 H 0.61076 1.10792 0.88668
 C423 C 0.12669 0.28463 0.12436
 C424 C 0.15796 0.28317 0.12730
 C425 C 0.17133 0.25840 0.14101
 C426 C 0.15353 0.23475 0.15196
 C427 C 0.12210 0.23651 0.14904
 C428 C 0.10880 0.26128 0.13531
 C429 C 0.11293 0.30995 0.10997
 C430 C 0.10122 0.33104 0.09786
 C431 C 0.08702 0.35608 0.08341
 C432 C 0.09484 0.38538 0.09131
 C433 C 0.08070 0.40971 0.07757
 C434 C 0.05849 0.40502 0.05573
 C435 C 0.05094 0.37543 0.04784
 C436 C 0.06511 0.35117 0.06161
 H437 H 0.17201 0.30117 0.11898
 H438 H 0.19554 0.25787 0.14330
 H439 H 0.10786 0.21850 0.15697
 H440 H 0.08457 0.26215 0.13309
 H441 H 0.11177 0.38942 0.10817
 H442 H 0.08708 0.43214 0.08419
 H443 H 0.03399 0.37096 0.03111
 H444 H 0.05890 0.32857 0.05533
 C445 C -0.13181 0.28363 -0.12968
 C446 C -0.11325 0.26083 -0.14055
 C447 C -0.12583 0.23548 -0.15389
 C448 C -0.15720 0.23259 -0.15654
 C449 C -0.17568 0.25569 -0.14564
 C450 C -0.16304 0.28105 -0.13230
 C451 C -0.11874 0.30946 -0.11554
 C452 C -0.10744 0.33085 -0.10357
 C453 C -0.09352 0.35606 -0.08913
 C454 C -0.07149 0.35130 -0.06742
 C455 C -0.05753 0.37564 -0.05362
 C456 C -0.06541 0.40519 -0.06137
 C457 C -0.08774 0.40974 -0.08312
 C458 C -0.10167 0.38531 -0.09690
 H459 H -0.08905 0.26255 -0.13853
 H460 H -0.11103 0.21791 -0.16171
 H461 H -0.19989 0.25426 -0.14765
 H462 H -0.17762 0.29859 -0.12401
 H463 H -0.06501 0.32875 -0.06123
 H464 H -0.04049 0.37126 -0.03696
 H465 H -0.09435 0.43215 -0.08962
 H466 H -0.11870 0.38924 -0.11370
 C467 C 0.12437 0.71587 -0.13111
 C468 C 0.10708 0.73969 -0.14192
 C469 C 0.12107 0.76471 -0.15456
 C470 C 0.15260 0.76625 -0.15653
 C471 C 0.16979 0.74215 -0.14569
 C472 C 0.15574 0.71713 -0.13307
 C473 C 0.10991 0.69037 -0.11767
 C474 C 0.09772 0.66915 -0.10620
 C475 C 0.08313 0.64402 -0.09222
 C476 C 0.06086 0.64882 -0.07072
 C477 C 0.04695 0.62450 -0.05674
 C478 C 0.05516 0.59494 -0.06407
 C479 C 0.07744 0.59036 -0.08589
 C480 C 0.09133 0.61475 -0.09983
 H481 H 0.08278 0.73900 -0.14040
 H482 H 0.10725 0.78307 -0.16233
 H483 H 0.19407 0.74254 -0.14720
 H484 H 0.16933 0.69880 -0.12480
 H485 H 0.05433 0.67139 -0.06467
 H486 H 0.02987 0.62890 -0.04010
 H487 H 0.08431 0.56795 -0.09208
 H488 H 0.10855 0.61079 -0.11645
 C489 C -0.12760 0.71559 0.12985
 C490 C -0.15881 0.71769 0.13303
 C491 C -0.17158 0.74281 0.14665
 C492 C -0.15324 0.76617 0.15728
 C493 C -0.12188 0.76378 0.15403
 C494 C -0.10917 0.73866 0.14040
 C495 C -0.11443 0.68996 0.11545
 C496 C -0.10317 0.66870 0.10324
 C497 C -0.08950 0.64358 0.08844
 C498 C -0.06788 0.64843 0.06629
 C499 C -0.05454 0.62415 0.05181
 C500 C -0.06265 0.59457 0.05929
 C501 C -0.08438 0.58993 0.08165
 C502 C -0.09771 0.61430 0.09610
 H503 H -0.17328 0.69993 0.12498
 H504 H -0.19577 0.74385 0.14914
 H505 H -0.10720 0.78156 0.16162
 H506 H -0.08499 0.73732 0.13793
 H507 H -0.06134 0.67101 0.06021
 H508 H -0.03786 0.62859 0.03476
 H509 H -0.09115 0.56751 0.08798
 H510 H -0.11442 0.61030 0.11323
 C511 C 1.13246 0.12865 0.71543
 C512 C 1.11378 0.13963 0.73801
 C513 C 1.12622 0.15291 0.76335
 C514 C 1.15759 0.15538 0.76646
 C515 C 1.17620 0.14433 0.74360
 C516 C 1.16369 0.13106 0.71825
 C517 C 1.11947 0.11462 0.68960
 C518 C 1.10817 0.10277 0.66824
 C519 C 1.09413 0.08847 0.64311
 C520 C 1.10229 0.09641 0.61402
 C521 C 1.08816 0.08282 0.58968
 C522 C 1.06564 0.06111 0.59416
 C523 C 1.05777 0.05318 0.62355
 C524 C 1.07192 0.06679 0.64780
 H525 H 1.08957 0.13777 0.73612
 H526 H 1.11132 0.16081 0.78073
 H527 H 1.20041 0.14620 0.74520
 H528 H 1.17835 0.12266 0.70088
 H529 H 1.11945 0.11320 0.61015
 H530 H 1.09478 0.08944 0.56739
 H531 H 1.04059 0.03653 0.62788
 H532 H 1.06543 0.06047 0.67023
 C533 C 0.87189 -0.12406 0.71423
 C534 C 0.87492 -0.15488 0.71855
 C535 C 0.86189 -0.16870 0.74337
 C536 C 0.84541 -0.15191 0.76457
 C537 C 0.84247 -0.12072 0.75956
 C538 C 0.85560 -0.10705 0.73472
 C539 C 0.88580 -0.10981 0.68896
 C540 C 0.89765 -0.09781 0.66793
 C541 C 0.91204 -0.08346 0.64298
 C542 C 0.90406 -0.09124 0.61384
 C543 C 0.91834 -0.07755 0.58961
 C544 C 0.94086 -0.05589 0.59425
 C545 C 0.94860 -0.04813 0.62368
 C546 C 0.93427 -0.06184 0.64784
 H547 H 0.88729 -0.16833 0.70263
 H548 H 0.86394 -0.19277 0.74501
 H549 H 0.83121 -0.10632 0.77539
 H550 H 0.85334 -0.08307 0.73171
 H551 H 0.88687 -0.10796 0.60984
 H552 H 0.91181 -0.08405 0.56729
 H553 H 0.96578 -0.03153 0.62810
 H554 H 0.94062 -0.05565 0.67032
 C555 C 1.12787 -0.12978 0.28525
 C556 C 1.10995 -0.14643 0.26585
 C557 C 1.12258 -0.15997 0.24073
 C558 C 1.15363 -0.15711 0.23434
 C559 C 1.17136 -0.14018 0.25441
 C560 C 1.15857 -0.12674 0.27953
 C561 C 1.11459 -0.11547 0.31079
 C562 C 1.10320 -0.10335 0.33196
 C563 C 1.08932 -0.08866 0.35696
 C564 C 1.09719 -0.09664 0.38610
 C565 C 1.08367 -0.08227 0.41034
 C566 C 1.06210 -0.05969 0.40571
 C567 C 1.05433 -0.05192 0.37628
 C568 C 1.06786 -0.06631 0.35212
 H569 H 1.08604 -0.14868 0.26992
 H570 H 1.10744 -0.17149 0.22580
 H571 H 1.19539 -0.13804 0.25160
 H572 H 1.17271 -0.11404 0.29457
 H573 H 1.11377 -0.11393 0.39008
 H574 H 1.09018 -0.08882 0.43266
 H575 H 1.03779 -0.03469 0.37185
 H576 H 1.06158 -0.05999 0.32964
 C577 C 0.87519 0.13146 0.28519
 C578 C 0.89186 0.14834 0.26483
 C579 C 0.87793 0.16090 0.23987
 C580 C 0.84683 0.15677 0.23460
 C581 C 0.83038 0.13970 0.25565
 C582 C 0.84445 0.12725 0.28060
 C583 C 0.88973 0.11807 0.31055
 C584 C 0.90195 0.10661 0.33164
 C585 C 0.91657 0.09263 0.35663
 C586 C 0.93834 0.07057 0.35182
 C587 C 0.95227 0.05657 0.37601
 C588 C 0.94457 0.06446 0.40543
 C589 C 0.92277 0.08683 0.41001
 C590 C 0.90887 0.10079 0.38575
 H591 H 0.91579 0.15151 0.26804
 H592 H 0.89213 0.17266 0.22415
 H593 H 0.80635 0.13667 0.25375
 H594 H 0.83126 0.11438 0.29639
 H595 H 0.94448 0.06409 0.32936
 H596 H 0.96897 0.03950 0.37162
 H597 H 0.91631 0.09346 0.43232
 H598 H 0.89203 0.11784 0.38971
 C599 C 0.12803 0.28474 -0.12781
 C600 C 0.15937 0.28290 -0.12963
 C601 C 0.17293 0.25793 -0.14277
 C602 C 0.15527 0.23448 -0.15427
 C603 C 0.12378 0.23663 -0.15246
 C604 C 0.11027 0.26159 -0.13930
 C605 C 0.11404 0.31019 -0.11389
 C606 C 0.10212 0.33134 -0.10214
 C607 C 0.08763 0.35639 -0.08801
 C608 C 0.09579 0.38570 -0.09561
 C609 C 0.08146 0.41002 -0.08208
 C610 C 0.05872 0.40531 -0.06073
 C611 C 0.05079 0.37571 -0.05317
 C612 C 0.06516 0.35146 -0.06674
 H613 H 0.17332 0.30072 -0.12086
 H614 H 0.19721 0.25709 -0.14417
 H615 H 0.10960 0.21877 -0.16075
 H616 H 0.08599 0.26275 -0.13791
 H617 H 0.11317 0.38976 -0.11206
 H618 H 0.08813 0.43247 -0.08842
 H619 H 0.03343 0.37122 -0.03683
 H620 H 0.05867 0.32886 -0.06068
 C621 C -0.13147 0.28399 0.12630
 C622 C -0.16209 0.27772 0.12348
 C623 C -0.17450 0.25264 0.13755
 C624 C -0.15648 0.23315 0.15489
 C625 C -0.12553 0.24007 0.15751
 C626 C -0.11327 0.26515 0.14335
 C627 C -0.11859 0.30957 0.11149
 C628 C -0.10747 0.33081 0.09907
 C629 C -0.09376 0.35595 0.08425
 C630 C -0.10207 0.38521 0.09176
 C631 C -0.08823 0.40961 0.07779
 C632 C -0.06582 0.40503 0.05610
 C633 C -0.05781 0.37548 0.04855
 C634 C -0.07169 0.35115 0.06255
 H635 H -0.17645 0.29233 0.11049
 H636 H -0.19850 0.24942 0.13554
 H637 H -0.11020 0.22556 0.16936
 H638 H -0.08943 0.26966 0.14545
 H639 H -0.11913 0.38917 0.10855
 H640 H -0.09495 0.43202 0.08413
 H641 H -0.04070 0.37108 0.03195
 H642 H -0.06507 0.32859 0.05658
 C643 C -0.12778 0.71657 -0.13311
 C644 C -0.15850 0.72192 -0.12971
 C645 C -0.17164 0.74731 -0.14248
 C646 C -0.15426 0.76804 -0.15908
 C647 C -0.12318 0.76202 -0.16234
 C648 C -0.11019 0.73662 -0.14947
 C649 C -0.11415 0.69080 -0.11938
 C650 C -0.10256 0.66942 -0.10766
 C651 C -0.08854 0.64419 -0.09335
 C652 C -0.09689 0.61497 -0.10099
 C653 C -0.08344 0.59050 -0.08679
 C654 C -0.06145 0.59499 -0.06470
 C655 C -0.05313 0.62451 -0.05731
 C656 C -0.06659 0.64889 -0.07155
 H657 H -0.17240 0.70640 -0.11722
 H658 H -0.19568 0.74985 -0.14008
 H659 H -0.10825 0.77746 -0.17356
 H660 H -0.08627 0.73285 -0.15196
 H661 H -0.11386 0.61109 -0.11785
 H662 H -0.09039 0.56812 -0.09303
 H663 H -0.03626 0.62883 -0.04047
 H664 H -0.05994 0.67142 -0.06547
 C665 C 0.12295 0.71447 0.12912
 C666 C 0.10549 0.73813 0.13993
 C667 C 0.11926 0.76289 0.15321
 C668 C 0.15075 0.76429 0.15582
 C669 C 0.16811 0.74033 0.14498
 C670 C 0.15427 0.71558 0.13172
 C671 C 0.10874 0.68923 0.11505
 C672 C 0.09679 0.66820 0.10310
 C673 C 0.08251 0.64324 0.08862
 C674 C 0.06091 0.64827 0.06654
 C675 C 0.04723 0.62408 0.05218
 C676 C 0.05501 0.59445 0.05973
 C677 C 0.07668 0.58965 0.08208
 C678 C 0.09033 0.61391 0.09639
 H679 H 0.08123 0.73754 0.13793
 H680 H 0.10534 0.78116 0.16101
 H681 H 0.19235 0.74060 0.14700
 H682 H 0.16800 0.69734 0.12347
 H683 H 0.05469 0.67090 0.06036
 H684 H 0.03063 0.62863 0.03514
 H685 H 0.08320 0.56718 0.08845
 H686 H 0.10704 0.60978 0.11346
 C687 C 0.28457 1.12801 0.87571
 C688 C 0.26063 1.13869 0.89291
 C689 C 0.23588 1.15208 0.87912
 C690 C 0.23476 1.15494 0.84790
 C691 C 0.25896 1.14415 0.83081
 C692 C 0.28370 1.13078 0.84465
 C693 C 0.30989 1.11401 0.88996
 C694 C 0.33100 1.10217 0.90197
 C695 C 0.35608 1.08788 0.91635
 C696 C 0.35109 1.06620 0.93835
 C697 C 0.37539 1.05202 0.95212
 C698 C 0.40510 1.05935 0.94404
 C699 C 0.40986 1.08132 0.92200
 C700 C 0.38550 1.09545 0.90825
 H701 H 0.26102 1.13654 0.91696
 H702 H 0.21742 1.15977 0.89285
 H703 H 0.25889 1.14633 0.80677
 H704 H 0.30215 1.12262 0.83113
 H705 H 0.32840 1.06018 0.94480
 H706 H 0.37086 1.03527 0.96902
 H707 H 0.43239 1.08751 0.91523
 H708 H 0.38960 1.11221 0.89125
 C709 C 0.28314 0.86760 1.12825
 C710 C 0.28168 0.86469 1.15928
 C711 C 0.25637 0.85187 1.17270
 C712 C 0.23217 0.84177 1.15520
 C713 C 0.23390 0.84474 1.12401
 C714 C 0.25921 0.85758 1.11066
 C715 C 0.30895 0.88122 1.11442
 C716 C 0.33035 0.89283 1.10265
 C717 C 0.35563 0.90700 1.08840
 C718 C 0.38497 0.89947 1.09674
 C719 C 0.40948 0.91354 1.08307
 C720 C 0.40492 0.93539 1.06087
 C721 C 0.37529 0.94264 1.05256
 C722 C 0.35086 0.92854 1.06624
 H723 H 0.30009 0.87236 1.17311
 H724 H 0.25581 0.84959 1.19673
 H725 H 0.21547 0.83759 1.10998
 H726 H 0.26004 0.85986 1.08663
 H727 H 0.38890 0.88281 1.11387
 H728 H 0.43195 0.90741 1.09002
 H729 H 0.37091 0.95930 1.03554
 H730 H 0.32824 0.93451 1.05961
 C731 C 0.71607 1.12455 1.13213
 C732 C 0.71687 1.15576 1.13487
 C733 C 0.74182 1.16979 1.14765
 C734 C 0.76631 1.15273 1.15788
 C735 C 0.76525 1.12136 1.15511
 C736 C 0.74028 1.10738 1.14231
 C737 C 0.69063 1.11015 1.11849
 C738 C 0.66944 1.09807 1.10685
 C739 C 0.64430 1.08365 1.09269
 C740 C 0.61491 1.09190 1.10014
 C741 C 0.59050 1.07819 1.08603
 C742 C 0.59520 1.05603 1.06422
 C743 C 0.62489 1.04779 1.05703
 C744 C 0.64922 1.06152 1.07119
 H745 H 0.69823 1.16926 1.12707
 H746 H 0.74190 1.19395 1.14974
 H747 H 0.78394 1.10766 1.16237
 H748 H 0.73996 1.08321 1.14017
 H749 H 0.61085 1.10901 1.11676
 H750 H 0.56799 1.08508 1.09211
 H751 H 0.62937 1.03080 1.04041
 H752 H 0.67189 1.05496 1.06526
 C753 C 0.71671 0.87327 0.87098
 C754 C 0.71831 0.84215 0.86761
 C755 C 0.74338 0.82911 0.85402
 C756 C 0.76718 0.84708 0.84360
 C757 C 0.76532 0.87835 0.84709
 C758 C 0.74026 0.89133 0.86069
 C759 C 0.69107 0.88673 0.88521
 C760 C 0.66977 0.89820 0.89725
 C761 C 0.64455 0.91208 0.91181
 C762 C 0.61520 0.90359 0.90448
 C763 C 0.59074 0.91701 0.91878
 C764 C 0.59535 0.93912 0.94066
 C765 C 0.62499 0.94756 0.94777
 C766 C 0.64938 0.93412 0.93343
 H767 H 0.70018 0.82797 0.87547
 H768 H 0.74403 0.80501 0.85136
 H769 H 0.78346 0.89273 0.83966
 H770 H 0.73930 0.91543 0.86330
 H771 H 0.61122 0.88656 0.88775
 H772 H 0.56826 0.90998 0.91275
 H773 H 0.62941 0.96452 0.96444
 H774 H 0.67202 0.94088 0.93925
   
