data_POSCAR
  _audit_creation_date              2014-09-24
  _audit_creation_method            'ToBaCCo'
  _symmetry_space_group_name_H-M    'P1'
  _symmetry_Int_Tables_number       1
  _symmetry_cell_setting            triclinic
  loop_
  _symmetry_equiv_pos_as_xyz
 x,y,z
_cell_length_a 43.9699
_cell_length_b 37.5940
_cell_length_c 33.2711
_cell_angle_alpha 90.575400
_cell_angle_beta 90.701600
_cell_angle_gamma 89.843600
loop_
  _atom_site_label
  _atom_site_type_symbol
  _atom_site_fract_x
  _atom_site_fract_y
  _atom_site_fract_z
Si1 Si 1.25698 0.25008 0.24900
 Si2 Si 0.75132 -0.24652 0.25700
 Si3 Si 0.74545 0.25292 -0.25991
 Si4 Si 1.24856 -0.24131 -0.24638
 Si5 Si 0.25554 0.23964 0.75369
 Si6 Si 0.74914 0.74801 0.74195
 Si7 Si 0.74206 0.25237 0.25843
 Si8 Si 0.24359 0.74288 0.24620
 O9 O 1.03540 0.06236 0.08502
 O10 O 1.07048 0.03436 0.04495
 C11 C 1.06314 0.05477 0.07508
 O12 O 0.95155 -0.06308 0.06485
 O13 O 0.91800 -0.02646 0.03166
 C14 C 0.92419 -0.05306 0.05500
 O15 O 1.03627 -0.06019 0.07264
 O16 O 1.07084 -0.02608 0.03938
 C17 C 1.06395 -0.05109 0.06446
 O18 O 0.95075 0.06592 0.07760
 O19 O 0.91768 0.03458 0.03693
 C20 C 0.92351 0.05731 0.06567
 Zr21 Zr 0.99361 0.04806 0.05752
 O22 O 0.98925 0.04657 0.12074
 O23 O 0.99673 0.10426 0.06014
 Zr24 Zr 0.99424 -0.04123 0.05013
 O25 O 0.98980 -0.04375 0.11337
 O26 O 0.99738 -0.09737 0.04637
 O27 O 1.02108 0.00303 0.06307
 O28 O 0.96730 0.00282 0.05994
 O29 O 0.95320 0.07409 -0.06424
 O30 O 0.91895 0.03922 -0.03124
 C31 C 0.92565 0.06455 -0.05583
 O32 O 1.03892 -0.05293 -0.07105
 O33 O 1.07208 -0.02124 -0.03063
 C34 C 1.06612 -0.04426 -0.05898
 O35 O 0.95423 -0.05749 -0.07072
 O36 O 0.91933 -0.02382 -0.03627
 C37 C 0.92650 -0.04857 -0.06202
 O38 O 1.03785 0.07402 -0.06113
 O39 O 1.07165 0.03957 -0.02531
 C40 C 1.06526 0.06520 -0.05011
 Zr41 Zr 0.99536 0.05374 -0.04339
 O42 O 0.99443 0.05600 -0.10696
 O43 O 0.99726 0.10990 -0.03879
 Zr44 Zr 0.99607 -0.03536 -0.05082
 O45 O 0.99594 -0.02540 -0.11321
 O46 O 0.99755 -0.09076 -0.06234
 Zr47 Zr 1.04063 0.00650 0.00561
 Zr48 Zr 0.94912 0.00609 0.00123
 O49 O 0.96904 0.00928 -0.05578
 O50 O 1.02336 0.00975 -0.05365
 O51 O 0.96711 0.05788 0.00638
 O52 O 1.02167 -0.04475 0.00042
 O53 O 1.02100 0.05757 0.00904
 O54 O 0.96811 -0.04546 -0.00217
 H55 H 0.95343 0.00121 0.08310
 H56 H 1.03519 -0.06586 -0.00047
 H57 H 0.95554 0.01004 -0.07984
 H58 H 1.03442 0.07858 0.01200
 H59 H 0.98180 -0.10559 0.02670
 H60 H 1.00140 -0.10239 -0.03629
 H61 H 0.99527 -0.04905 -0.12658
 H62 H 1.01167 0.04153 -0.11691
 H63 H 0.98011 0.11777 -0.02188
 H64 H 0.97824 0.11409 0.04710
 H65 H 1.00278 0.02742 0.13060
 H66 H 1.00804 -0.03260 0.12576
 O67 O 1.04288 0.55628 0.58224
 O68 O 1.07888 0.52601 0.54589
 C69 C 1.07084 0.54861 0.57348
 O70 O 0.96073 0.42758 0.56208
 O71 O 0.92771 0.46195 0.52511
 C72 C 0.93357 0.43660 0.55028
 O73 O 1.04504 0.43097 0.57209
 O74 O 1.07998 0.46550 0.54005
 C75 C 1.07281 0.44035 0.56475
 O76 O 0.95857 0.55926 0.56961
 O77 O 0.92646 0.52547 0.53024
 C78 C 0.93163 0.55058 0.55653
 Zr79 Zr 1.00167 0.53764 0.55641
 O80 O 0.99613 0.52831 0.61857
 O81 O 1.00206 0.59270 0.56980
 Zr82 Zr 1.00345 0.44871 0.54699
 O83 O 1.00168 0.43992 0.60966
 O84 O 1.00511 0.39341 0.53514
 O85 O 1.02956 0.49319 0.56211
 O86 O 0.97544 0.49236 0.55673
 O87 O 0.96368 0.56675 0.43630
 O88 O 0.92924 0.52887 0.46435
 C89 C 0.93610 0.55620 0.44282
 O90 O 1.05146 0.44173 0.42605
 O91 O 1.08307 0.47084 0.47078
 C92 C 1.07823 0.44981 0.44020
 O93 O 0.96702 0.43690 0.42085
 O94 O 0.93075 0.46719 0.45670
 C95 C 0.93899 0.44482 0.42882
 O96 O 1.04844 0.56670 0.44103
 O97 O 1.08174 0.53178 0.47704
 C98 C 1.07557 0.55794 0.45304
 Zr99 Zr 1.00581 0.54506 0.45546
 O100 O 1.00556 0.54642 0.39181
 O101 O 1.00720 0.60131 0.45807
 Zr102 Zr 1.00783 0.45616 0.44657
 O103 O 1.00745 0.46064 0.38319
 O104 O 1.01170 0.40014 0.44171
 Zr105 Zr 1.05033 0.49795 0.50556
 Zr106 Zr 0.95903 0.49603 0.49729
 O107 O 0.98048 0.50064 0.44133
 O108 O 1.03458 0.50184 0.44562
 O109 O 0.97677 0.54790 0.50416
 O110 O 1.03234 0.44642 0.49861
 O111 O 1.02979 0.54859 0.50902
 O112 O 0.97847 0.44483 0.49358
 H113 H 0.96028 0.49131 0.57847
 H114 H 1.04632 0.42571 0.49767
 H115 H 0.96780 0.50236 0.41659
 H116 H 1.04230 0.57031 0.51241
 H117 H 1.00489 0.38172 0.56169
 H118 H 0.99550 0.38974 0.45828
 H119 H 1.02386 0.47726 0.37598
 H120 H 1.02588 0.53871 0.38262
 H121 H 0.99200 0.60917 0.47799
 H122 H 1.00335 0.60508 0.54385
 H123 H 1.01537 0.51790 0.62891
 H124 H 0.98983 0.45957 0.62173
 O125 O 0.54835 -0.06306 0.56813
 O126 O 0.51888 -0.10052 0.52923
 C127 C 0.53939 -0.09445 0.55699
 O128 O 0.44273 0.04516 0.56104
 O129 O 0.47618 0.08322 0.53101
 C130 C 0.45267 0.07671 0.55321
 O131 O 0.44221 -0.05326 0.56653
 O132 O 0.46643 -0.09563 0.52818
 C133 C 0.44728 -0.08592 0.55561
 O134 O 0.56082 0.03380 0.56110
 O135 O 0.53293 0.07793 0.53073
 C136 C 0.55603 0.06680 0.55199
 Zr137 Zr 0.53572 -0.01230 0.54766
 O138 O 0.53090 -0.00674 0.61071
 O139 O 0.58276 -0.02008 0.55806
 Zr140 Zr 0.46067 -0.00510 0.54629
 O141 O 0.46515 -0.00061 0.60962
 O142 O 0.41295 -0.00425 0.55295
 O143 O 0.49604 -0.04124 0.55388
 O144 O 0.50040 0.02330 0.55514
 O145 O 0.55996 0.03547 0.43342
 O146 O 0.53247 0.07865 0.46630
 C147 C 0.55510 0.06815 0.44433
 O148 O 0.44162 -0.05125 0.42158
 O149 O 0.46602 -0.09463 0.45768
 C150 C 0.44603 -0.08421 0.43101
 O151 O 0.44638 0.04631 0.42711
 O152 O 0.47682 0.08411 0.46410
 C153 C 0.45537 0.07785 0.43763
 O154 O 0.54865 -0.06161 0.42300
 O155 O 0.51874 -0.09967 0.45883
 C156 C 0.53936 -0.09305 0.43230
 Zr157 Zr 0.53611 -0.01145 0.44587
 O158 O 0.53304 -0.00518 0.38271
 O159 O 0.58351 -0.01985 0.44109
 Zr160 Zr 0.46079 -0.00427 0.44483
 O161 O 0.46315 -0.00006 0.38149
 O162 O 0.41267 -0.00282 0.44195
 Zr163 Zr 0.49484 -0.06212 0.49457
 Zr164 Zr 0.50191 0.04548 0.49741
 O165 O 0.50069 0.02392 0.43881
 O166 O 0.49628 -0.04008 0.43654
 O167 O 0.54408 0.01839 0.49757
 O168 O 0.45286 -0.03496 0.49472
 O169 O 0.53983 -0.04314 0.49610
 O170 O 0.45657 0.02725 0.49605
 H171 H 0.50166 0.04033 0.57805
 H172 H 0.43363 -0.04863 0.49412
 H173 H 0.50223 0.04071 0.41614
 H174 H 0.55704 -0.06020 0.49594
 H175 H 0.40410 -0.00204 0.52567
 H176 H 0.40576 0.01566 0.46118
 H177 H 0.47158 -0.02264 0.37084
 H178 H 0.52455 -0.02740 0.37106
 H179 H 0.59301 -0.00983 0.46578
 H180 H 0.59228 -0.02191 0.53137
 H181 H 0.52439 -0.03001 0.62123
 H182 H 0.47009 -0.02449 0.62016
 O183 O 0.54893 0.56108 0.07407
 O184 O 0.58022 0.53147 0.03025
 C185 C 0.57558 0.55262 0.06059
 O186 O 0.46121 0.43601 0.06326
 O187 O 0.42642 0.47446 0.03541
 C188 C 0.43356 0.44695 0.05682
 O189 O 0.54599 0.43711 0.06206
 O190 O 0.57873 0.47112 0.02537
 C191 C 0.57303 0.44604 0.05067
 O192 O 0.46498 0.56995 0.07379
 O193 O 0.42796 0.53910 0.03929
 C194 C 0.43678 0.56369 0.06462
 Zr195 Zr 0.50521 0.54639 0.05332
 O196 O 0.50610 0.53649 0.11574
 O197 O 0.50944 0.60163 0.06435
 Zr198 Zr 0.50306 0.45809 0.04578
 O199 O 0.50519 0.46121 0.10918
 O200 O 0.50303 0.40190 0.04804
 O201 O 0.53202 0.50098 0.05524
 O202 O 0.47733 0.50271 0.05887
 O203 O 0.45728 0.57456 -0.06269
 O204 O 0.42437 0.54034 -0.02667
 C205 C 0.43022 0.56580 -0.05136
 O206 O 0.53937 0.44561 -0.08118
 O207 O 0.57550 0.47576 -0.04393
 C208 C 0.56739 0.45333 -0.07187
 O209 O 0.45481 0.44519 -0.07273
 O210 O 0.42328 0.47671 -0.03083
 C211 C 0.42814 0.45336 -0.05910
 O212 O 0.54144 0.57180 -0.07028
 O213 O 0.57665 0.53595 -0.03895
 C214 C 0.56918 0.56216 -0.06225
 Zr215 Zr 0.50005 0.55256 -0.04805
 O216 O 0.49470 0.55403 -0.11137
 O217 O 0.50324 0.60872 -0.04522
 Zr218 Zr 0.49834 0.46385 -0.05545
 O219 O 0.49441 0.47227 -0.11799
 O220 O 0.49921 0.40791 -0.06322
 Zr221 Zr 0.54718 0.50422 -0.00452
 Zr222 Zr 0.45594 0.50663 0.00226
 O223 O 0.47198 0.50922 -0.05700
 O224 O 0.52626 0.50797 -0.06160
 O225 O 0.47600 0.55749 0.00510
 O226 O 0.52684 0.45360 -0.00727
 O227 O 0.52894 0.55570 0.00141
 O228 O 0.47366 0.45462 -0.00355
 H229 H 0.46417 0.50208 0.08285
 H230 H 0.53970 0.43207 -0.01012
 H231 H 0.45706 0.51065 -0.07949
 H232 H 0.54261 0.57659 0.00272
 H233 H 0.50614 0.39315 0.02031
 H234 H 0.48587 0.39775 -0.04254
 H235 H 0.49338 0.44831 -0.13061
 H236 H 0.51136 0.53973 -0.12317
 H237 H 0.48809 0.61733 -0.02561
 H238 H 0.50473 0.61351 0.03867
 H239 H 0.50677 0.56015 0.12909
 H240 H 0.50416 0.43637 0.11869
 C241 C 1.21838 0.19303 0.15360
 C242 C 1.19522 0.17282 0.17182
 C243 C 1.19105 0.17743 0.21379
 C244 C 1.20980 0.20053 0.23626
 C245 C 1.23269 0.21983 0.21773
 C246 C 1.23670 0.21621 0.17631
 C247 C 1.16814 0.15909 0.23323
 C248 C 1.14847 0.13697 0.21187
 C249 C 1.15114 0.13190 0.16994
 C250 C 1.17568 0.14889 0.14986
 C251 C 1.17992 0.14124 0.10864
 C252 C 1.16011 0.11907 0.08730
 C253 C 1.13494 0.10419 0.10582
 C254 C 1.13001 0.11046 0.14740
 C255 C 1.10344 0.09604 0.16438
 C256 C 1.08252 0.07708 0.14090
 C257 C 1.08743 0.07116 0.09992
 C258 C 1.11408 0.08400 0.08267
 H259 H 1.22259 0.19209 0.12179
 H260 H 1.20654 0.20361 0.26837
 H261 H 1.25398 0.23132 0.16123
 H262 H 1.16511 0.16219 0.26538
 H263 H 1.13158 0.12374 0.22944
 H264 H 1.19864 0.15172 0.09193
 H265 H 1.16419 0.11419 0.05564
 H266 H 1.09738 0.10009 0.19534
 H267 H 1.06201 0.06744 0.15482
 H268 H 1.11774 0.07995 0.05077
 C269 C 1.17797 0.72971 0.67754
 C270 C 1.18053 0.69216 0.67446
 C271 C 1.20671 0.67596 0.69155
 C272 C 1.22772 0.69622 0.71384
 C273 C 1.22380 0.73292 0.71851
 C274 C 1.19938 0.74967 0.69931
 C275 C 1.21147 0.63947 0.68727
 C276 C 1.19060 0.61834 0.66664
 C277 C 1.16346 0.63281 0.65060
 C278 C 1.15796 0.67017 0.65559
 C279 C 1.12953 0.68403 0.64327
 C280 C 1.10724 0.66227 0.62658
 C281 C 1.11266 0.62613 0.62029
 C282 C 1.14112 0.61094 0.63103
 C283 C 1.14597 0.57451 0.62143
 C284 C 1.12315 0.55410 0.60298
 C285 C 1.09477 0.56913 0.59426
 C286 C 1.08969 0.60511 0.60296
 H287 H 1.15975 0.74443 0.66348
 H288 H 1.24665 0.68293 0.72833
 H289 H 1.19629 0.77817 0.70223
 H290 H 1.23155 0.62701 0.70019
 H291 H 1.19581 0.59035 0.66532
 H292 H 1.12329 0.71152 0.64760
 H293 H 1.08550 0.67396 0.61830
 H294 H 1.16735 0.56123 0.62680
 H295 H 1.12765 0.52644 0.59566
 H296 H 1.06800 0.61711 0.59499
 C297 C 0.66932 0.23842 0.66794
 C298 C 0.67218 0.20309 0.65334
 C299 C 0.69999 0.18503 0.66131
 C300 C 0.72250 0.20058 0.68594
 C301 C 0.71833 0.23457 0.70206
 C302 C 0.69219 0.25385 0.69179
 C303 C 0.70492 0.15109 0.64570
 C304 C 0.68264 0.13409 0.62296
 C305 C 0.65397 0.15007 0.61578
 C306 C 0.64837 0.18482 0.63188
 C307 C 0.61876 0.19925 0.62785
 C308 C 0.59517 0.17988 0.60996
 C309 C 0.60030 0.14594 0.59410
 C310 C 0.63016 0.13140 0.59509
 C311 C 0.63489 0.09820 0.57601
 C312 C 0.61058 0.07855 0.56101
 C313 C 0.58074 0.09136 0.56359
 C314 C 0.57571 0.12585 0.57836
 H315 H 0.64973 0.25479 0.66152
 H316 H 0.74295 0.18578 0.69322
 H317 H 0.68893 0.28062 0.70333
 H318 H 0.72616 0.13725 0.65155
 H319 H 0.68816 0.10749 0.61319
 H320 H 0.61267 0.22491 0.64006
 H321 H 0.57256 0.19145 0.60899
 H322 H 0.65708 0.08652 0.57223
 H323 H 0.61517 0.05266 0.54774
 H324 H 0.55272 0.13630 0.57931
 C325 C 0.68373 0.67944 0.23871
 C326 C 0.68555 0.66969 0.19759
 C327 C 0.70889 0.68530 0.17460
 C328 C 0.72862 0.71062 0.19203
 C329 C 0.72595 0.72013 0.23251
 C330 C 0.70357 0.70428 0.25563
 C331 C 0.71235 0.67571 0.13434
 C332 C 0.69297 0.65115 0.11604
 C333 C 0.66884 0.63557 0.13722
 C334 C 0.66491 0.64531 0.17858
 C335 C 0.63991 0.63120 0.19931
 C336 C 0.61905 0.60911 0.18026
 C337 C 0.62241 0.59962 0.14005
 C338 C 0.64777 0.61165 0.11810
 C339 C 0.65044 0.59967 0.07770
 C340 C 0.62775 0.57885 0.05945
 C341 C 0.60186 0.56941 0.08083
 C342 C 0.59983 0.57894 0.12139
 H343 H 0.66751 0.66826 0.25893
 H344 H 0.74602 0.72276 0.17401
 H345 H 0.70143 0.71106 0.28721
 H346 H 0.73022 0.68742 0.11667
 H347 H 0.69705 0.64567 0.08474
 H348 H 0.63506 0.63757 0.23017
 H349 H 0.59977 0.59974 0.19714
 H350 H 0.66952 0.60623 0.05922
 H351 H 0.62984 0.57144 0.02804
 H352 H 0.58007 0.57099 0.13832
 C353 C 0.81788 -0.22359 0.17541
 C354 C 0.81524 -0.18658 0.16858
 C355 C 0.79040 -0.16835 0.18633
 C356 C 0.77052 -0.18625 0.21214
 C357 C 0.77456 -0.22248 0.21973
 C358 C 0.79790 -0.24103 0.20066
 C359 C 0.78585 -0.13229 0.17870
 C360 C 0.80558 -0.11368 0.15424
 C361 C 0.83137 -0.13021 0.13725
 C362 C 0.83655 -0.16714 0.14519
 C363 C 0.86348 -0.18311 0.13087
 C364 C 0.88482 -0.16378 0.11002
 C365 C 0.88002 -0.12798 0.10167
 C366 C 0.85286 -0.11080 0.11393
 C367 C 0.84869 -0.07481 0.10259
 C368 C 0.87130 -0.05642 0.08205
 C369 C 0.89879 -0.07315 0.07248
 C370 C 0.90269 -0.10911 0.08172
 H371 H 0.83504 -0.23999 0.16166
 H372 H 0.75222 -0.17190 0.22668
 H373 H 0.80111 -0.26920 0.20590
 H374 H 0.76682 -0.11821 0.19192
 H375 H 0.80057 -0.08585 0.15038
 H376 H 0.86946 -0.21039 0.13658
 H377 H 0.90550 -0.17704 0.10055
 H378 H 0.82825 -0.06009 0.10912
 H379 H 0.86766 -0.02868 0.07483
 H380 H 0.92368 -0.12246 0.07361
 C381 C 0.82006 0.31625 0.72303
 C382 C 0.81801 0.32660 0.68229
 C383 C 0.79143 0.31705 0.66018
 C384 C 0.76915 0.29551 0.67755
 C385 C 0.77255 0.28421 0.71724
 C386 C 0.79765 0.29535 0.74003
 C387 C 0.78742 0.32870 0.62080
 C388 C 0.80927 0.34964 0.60269
 C389 C 0.83662 0.35877 0.62293
 C390 C 0.84143 0.34601 0.66291
 C391 C 0.86994 0.35186 0.68174
 C392 C 0.89285 0.36998 0.66257
 C393 C 0.88813 0.38378 0.62433
 C394 C 0.85980 0.37925 0.60417
 C395 C 0.85596 0.39567 0.56623
 C396 C 0.87966 0.41471 0.54886
 C397 C 0.90795 0.41744 0.56833
 C398 C 0.91187 0.40210 0.60617
 H399 H 0.83847 0.32414 0.74278
 H400 H 0.74938 0.28736 0.66007
 H401 H 0.80023 0.28734 0.77108
 H402 H 0.76711 0.32161 0.60377
 H403 H 0.80454 0.35721 0.57209
 H404 H 0.87578 0.34156 0.71092
 H405 H 0.91454 0.37332 0.67799
 H406 H 0.83479 0.39487 0.54958
 H407 H 0.87591 0.42699 0.51994
 H408 H 0.93346 0.40491 0.62201
 C409 C 0.31993 -0.17435 0.73339
 C410 C 0.32501 -0.17703 0.69153
 C411 C 0.30440 -0.19780 0.66807
 C412 C 0.27945 -0.21438 0.68607
 C413 C 0.27536 -0.21174 0.72757
 C414 C 0.29575 -0.19185 0.75096
 C415 C 0.30937 -0.20289 0.62710
 C416 C 0.33466 -0.18834 0.60883
 C417 C 0.35572 -0.16726 0.63075
 C418 C 0.35026 -0.16063 0.67253
 C419 C 0.36989 -0.13732 0.69384
 C420 C 0.39392 -0.12088 0.67517
 C421 C 0.39973 -0.12731 0.63475
 C422 C 0.38145 -0.15138 0.61205
 C423 C 0.38950 -0.15781 0.57140
 C424 C 0.41285 -0.13856 0.55346
 C425 C 0.42879 -0.11273 0.57558
 C426 C 0.42299 -0.10834 0.61648
 H427 H 0.33496 -0.16043 0.75386
 H428 H 0.26432 -0.23099 0.66812
 H429 H 0.29371 -0.19095 0.78339
 H430 H 0.29374 -0.21876 0.60901
 H431 H 0.33669 -0.19345 0.57706
 H432 H 0.36673 -0.13004 0.72487
 H433 H 0.40789 -0.10246 0.69253
 H434 H 0.37784 -0.17692 0.55249
 H435 H 0.41719 -0.14234 0.52170
 H436 H 0.43570 -0.08860 0.63372
 C437 C 0.32878 0.27471 0.17603
 C438 C 0.32605 0.31178 0.16958
 C439 C 0.30052 0.32956 0.18604
 C440 C 0.27981 0.31118 0.20989
 C441 C 0.28345 0.27480 0.21663
 C442 C 0.30774 0.25667 0.19919
 C443 C 0.29583 0.36563 0.17886
 C444 C 0.31590 0.38466 0.15552
 C445 C 0.34211 0.36849 0.13929
 C446 C 0.34772 0.33171 0.14746
 C447 C 0.37529 0.31636 0.13448
 C448 C 0.39666 0.33613 0.11424
 C449 C 0.39119 0.37167 0.10519
 C450 C 0.36351 0.38819 0.11641
 C451 C 0.35857 0.42382 0.10430
 C452 C 0.38095 0.44260 0.08403
 C453 C 0.40890 0.42659 0.07536
 C454 C 0.41361 0.39093 0.08536
 H455 H 0.34659 0.25870 0.16316
 H456 H 0.26092 0.32539 0.22310
 H457 H 0.31059 0.22834 0.20366
 H458 H 0.27633 0.37934 0.19136
 H459 H 0.31077 0.41248 0.15195
 H460 H 0.38165 0.28930 0.14081
 H461 H 0.41780 0.32341 0.10565
 H462 H 0.33762 0.43788 0.10975
 H463 H 0.37662 0.47002 0.07597
 H464 H 0.43491 0.37805 0.07776
 C465 C 0.81472 0.18088 -0.24028
 C466 C 0.81273 0.17237 -0.19902
 C467 C 0.78708 0.18509 -0.17775
 C468 C 0.76598 0.20801 -0.19637
 C469 C 0.76947 0.21770 -0.23652
 C470 C 0.79343 0.20325 -0.25851
 C471 C 0.78302 0.17557 -0.13777
 C472 C 0.80402 0.15394 -0.11813
 C473 C 0.83065 0.14191 -0.13738
 C474 C 0.83545 0.15213 -0.17816
 C475 C 0.86340 0.14322 -0.19618
 C476 C 0.88592 0.12504 -0.17522
 C477 C 0.88126 0.11400 -0.13594
 C478 C 0.85325 0.12120 -0.11676
 C479 C 0.84917 0.10730 -0.07774
 C480 C 0.87243 0.08842 -0.05828
 C481 C 0.90055 0.08326 -0.07668
 C482 C 0.90468 0.09587 -0.11566
 H483 H 0.83242 0.17070 -0.25935
 H484 H 0.74731 0.21889 -0.17923
 H485 H 0.79632 0.21023 -0.28975
 H486 H 0.76340 0.18507 -0.12137
 H487 H 0.79936 0.14834 -0.08712
 H488 H 0.86917 0.15125 -0.22611
 H489 H 0.90728 0.11954 -0.19003
 H490 H 0.82815 0.11004 -0.06170
 H491 H 0.86857 0.07837 -0.02843
 H492 H 0.92614 0.09112 -0.13055
 C493 C 0.82584 0.72987 0.32894
 C494 C 0.82342 0.69284 0.33592
 C495 C 0.79710 0.67521 0.32096
 C496 C 0.77533 0.69356 0.29805
 C497 C 0.77870 0.72979 0.29038
 C498 C 0.80375 0.74791 0.30648
 C499 C 0.79276 0.63918 0.32834
 C500 C 0.81406 0.61992 0.35019
 C501 C 0.84108 0.63583 0.36488
 C502 C 0.84617 0.67269 0.35683
 C503 C 0.87426 0.68785 0.36866
 C504 C 0.89670 0.66776 0.38741
 C505 C 0.89186 0.63206 0.39609
 C506 C 0.86370 0.61576 0.38612
 C507 C 0.85946 0.57997 0.39779
 C508 C 0.88277 0.56092 0.41670
 C509 C 0.91102 0.57674 0.42444
 C510 C 0.91526 0.61247 0.41452
 H511 H 0.84437 0.74576 0.34052
 H512 H 0.75597 0.67923 0.28591
 H513 H 0.80653 0.77608 0.30110
 H514 H 0.77265 0.62562 0.31693
 H515 H 0.80908 0.59212 0.35382
 H516 H 0.88012 0.71505 0.36264
 H517 H 0.91816 0.68037 0.39517
 H518 H 0.83835 0.56597 0.39320
 H519 H 0.87880 0.53346 0.42466
 H520 H 0.93684 0.62520 0.42140
 C521 C 0.30565 0.16554 0.29327
 C522 C 0.32815 0.18116 0.31833
 C523 C 0.32498 0.21752 0.32890
 C524 C 0.30243 0.23842 0.30989
 C525 C 0.28172 0.22277 0.28258
 C526 C 0.28287 0.18607 0.27582
 C527 C 0.34478 0.23257 0.35758
 C528 C 0.36741 0.21204 0.37612
 C529 C 0.37246 0.17632 0.36437
 C530 C 0.35356 0.16161 0.33316
 C531 C 0.36142 0.12846 0.31611
 C532 C 0.38578 0.10911 0.33075
 C533 C 0.40239 0.12125 0.36400
 C534 C 0.39603 0.15477 0.38185
 C535 C 0.41279 0.16434 0.41713
 C536 C 0.43371 0.14048 0.43478
 C537 C 0.43904 0.10713 0.41697
 C538 C 0.42448 0.09891 0.38040
 H539 H 0.30500 0.13736 0.28682
 H540 H 0.30168 0.26688 0.31526
 H541 H 0.26711 0.17304 0.25534
 H542 H 0.34245 0.26031 0.36623
 H543 H 0.38165 0.22523 0.39828
 H544 H 0.34974 0.11737 0.29020
 H545 H 0.39098 0.08368 0.31671
 H546 H 0.40878 0.18907 0.43294
 H547 H 0.44449 0.14739 0.46323
 H548 H 0.42881 0.07350 0.36576
 C549 C 0.31929 0.69019 -0.22562
 C550 C 0.31813 0.68228 -0.18424
 C551 C 0.29352 0.69621 -0.16174
 C552 C 0.27229 0.71933 -0.17981
 C553 C 0.27473 0.72764 -0.22048
 C554 C 0.29800 0.71258 -0.24318
 C555 C 0.29035 0.68697 -0.12151
 C556 C 0.31101 0.66404 -0.10307
 C557 C 0.33640 0.65048 -0.12391
 C558 C 0.34051 0.66086 -0.16474
 C559 C 0.36740 0.65058 -0.18451
 C560 C 0.38926 0.63015 -0.16553
 C561 C 0.38510 0.61864 -0.12643
 C562 C 0.35845 0.62783 -0.10508
 C563 C 0.35519 0.61387 -0.06589
 C564 C 0.37810 0.59291 -0.04846
 C565 C 0.40483 0.58569 -0.06943
 C566 C 0.40793 0.59823 -0.10848
 H567 H 0.33593 0.67899 -0.24559
 H568 H 0.25400 0.73066 -0.16230
 H569 H 0.29977 0.71811 -0.27497
 H570 H 0.27156 0.69738 -0.10413
 H571 H 0.30702 0.65833 -0.07191
 H572 H 0.37293 0.65904 -0.21435
 H573 H 0.40976 0.62333 -0.18173
 H574 H 0.33517 0.61837 -0.04816
 H575 H 0.37522 0.58305 -0.01827
 H576 H 0.42835 0.59194 -0.12517
 C577 C 1.17858 -0.21702 -0.16943
 C578 C 1.17961 -0.17950 -0.16510
 C579 C 1.20421 -0.16137 -0.18280
 C580 C 1.22522 -0.17991 -0.20657
 C581 C 1.22307 -0.21677 -0.21167
 C582 C 1.20003 -0.23521 -0.19241
 C583 C 1.20743 -0.12474 -0.17730
 C584 C 1.18666 -0.10548 -0.15465
 C585 C 1.16107 -0.12198 -0.13780
 C586 C 1.15699 -0.15941 -0.14425
 C587 C 1.12979 -0.17524 -0.13132
 C588 C 1.10729 -0.15529 -0.11286
 C589 C 1.11135 -0.11910 -0.10527
 C590 C 1.13869 -0.10206 -0.11622
 C591 C 1.14234 -0.06577 -0.10504
 C592 C 1.11911 -0.04705 -0.08565
 C593 C 1.09150 -0.06368 -0.07756
 C594 C 1.08796 -0.09979 -0.08695
 H595 H 1.16168 -0.23314 -0.15519
 H596 H 1.24283 -0.16532 -0.22161
 H597 H 1.19820 -0.26382 -0.19586
 H598 H 1.22626 -0.11077 -0.19067
 H599 H 1.19058 -0.07725 -0.15239
 H600 H 1.12454 -0.20287 -0.13664
 H601 H 1.08643 -0.16842 -0.10439
 H602 H 1.16303 -0.05131 -0.11023
 H603 H 1.12250 -0.01935 -0.07769
 H604 H 1.06692 -0.11307 -0.07947
 C605 C 1.18712 0.32118 0.26648
 C606 C 1.18850 0.33055 0.30778
 C607 C 1.21191 0.31500 0.33161
 C608 C 1.23225 0.29018 0.31468
 C609 C 1.23024 0.28142 0.27382
 C610 C 1.20766 0.29708 0.25002
 C611 C 1.21495 0.32439 0.37211
 C612 C 1.19530 0.34889 0.38969
 C613 C 1.17123 0.36456 0.36754
 C614 C 1.16749 0.35472 0.32607
 C615 C 1.14240 0.36867 0.30443
 C616 C 1.12145 0.39096 0.32260
 C617 C 1.12479 0.40088 0.36280
 C618 C 1.15011 0.38880 0.38573
 C619 C 1.15280 0.40121 0.42605
 C620 C 1.13026 0.42268 0.44321
 C621 C 1.10441 0.43234 0.42086
 C622 C 1.10228 0.42212 0.38042
 H623 H 1.17084 0.33234 0.24571
 H624 H 1.24972 0.27806 0.33324
 H625 H 1.20598 0.29083 0.21820
 H626 H 1.23282 0.31271 0.39048
 H627 H 1.19916 0.35434 0.42118
 H628 H 1.13760 0.36206 0.27348
 H629 H 1.10217 0.40029 0.30496
 H630 H 1.17184 0.39455 0.44525
 H631 H 1.13243 0.43045 0.47457
 H632 H 1.08254 0.43007 0.36276
 C633 C 0.70691 -0.19998 0.35262
 C634 C 0.67825 -0.19026 0.33600
 C635 C 0.67454 -0.19301 0.29366
 C636 C 0.69817 -0.20620 0.26963
 C637 C 0.72539 -0.21795 0.28709
 C638 C 0.72987 -0.21400 0.32849
 C639 C 0.64694 -0.18383 0.27555
 C640 C 0.62262 -0.17216 0.29842
 C641 C 0.62489 -0.16912 0.34070
 C642 C 0.65317 -0.17835 0.35983
 C643 C 0.65540 -0.17546 0.40213
 C644 C 0.63151 -0.16240 0.42485
 C645 C 0.60429 -0.15200 0.40657
 C646 C 0.60013 -0.15613 0.36442
 C647 C 0.57169 -0.14558 0.34772
 C648 C 0.54994 -0.12835 0.37124
 C649 C 0.55532 -0.12222 0.41215
 C650 C 0.58189 -0.13543 0.43002
 H651 H 0.71216 -0.19813 0.38424
 H652 H 0.69460 -0.20956 0.23750
 H653 H 0.75071 -0.22303 0.34270
 H654 H 0.64398 -0.18594 0.24321
 H655 H 0.60227 -0.16557 0.28178
 H656 H 0.67557 -0.18261 0.41885
 H657 H 0.63465 -0.15970 0.45711
 H658 H 0.56603 -0.14862 0.31632
 H659 H 0.52970 -0.11761 0.35688
 H660 H 0.58641 -0.12971 0.46155
 C661 C 0.67541 0.27774 -0.18392
 C662 C 0.67842 0.31483 -0.17713
 C663 C 0.70525 0.33151 -0.19062
 C664 C 0.72647 0.31238 -0.21341
 C665 C 0.72179 0.27641 -0.22232
 C666 C 0.69680 0.25897 -0.20634
 C667 C 0.71031 0.36745 -0.18245
 C668 C 0.68905 0.38758 -0.16169
 C669 C 0.66125 0.37272 -0.14939
 C670 C 0.65557 0.33594 -0.15812
 C671 C 0.62671 0.32185 -0.14934
 C672 C 0.60416 0.34282 -0.13249
 C673 C 0.60967 0.37833 -0.12263
 C674 C 0.63849 0.39367 -0.12986
 C675 C 0.64328 0.42929 -0.11692
 C676 C 0.62017 0.44875 -0.09837
 C677 C 0.59151 0.43368 -0.09291
 C678 C 0.58641 0.39850 -0.10517
 H679 H 0.65675 0.26246 -0.17257
 H680 H 0.74601 0.32597 -0.22535
 H681 H 0.69312 0.23096 -0.21260
 H682 H 0.73090 0.38027 -0.19248
 H683 H 0.69456 0.41524 -0.15726
 H684 H 0.62033 0.29488 -0.15656
 H685 H 0.58216 0.33100 -0.12694
 H686 H 0.66480 0.44260 -0.11967
 H687 H 0.62472 0.47573 -0.08832
 H688 H 0.56448 0.38635 -0.09989
 C689 C 1.22408 0.15004 -0.18691
 C690 C 1.20081 0.16340 -0.16168
 C691 C 1.19664 0.20085 -0.16021
 C692 C 1.21474 0.22348 -0.18332
 C693 C 1.23653 0.20963 -0.20949
 C694 C 1.24142 0.17286 -0.21055
 C695 C 1.17376 0.21559 -0.13666
 C696 C 1.15376 0.19407 -0.11608
 C697 C 1.15596 0.15659 -0.11786
 C698 C 1.18085 0.14103 -0.13917
 C699 C 1.18469 0.10372 -0.13744
 C700 C 1.16423 0.08224 -0.11716
 C701 C 1.13861 0.09677 -0.09873
 C702 C 1.13401 0.13418 -0.09911
 C703 C 1.10690 0.14756 -0.08210
 C704 C 1.08536 0.12485 -0.06588
 C705 C 1.09002 0.08802 -0.06520
 C706 C 1.11705 0.07409 -0.08094
 H707 H 1.22864 0.12201 -0.19030
 H708 H 1.21061 0.25193 -0.18273
 H709 H 1.25809 0.16146 -0.23062
 H710 H 1.17079 0.24421 -0.13484
 H711 H 1.13688 0.20778 -0.09853
 H712 H 1.20360 0.09026 -0.15123
 H713 H 1.16812 0.05375 -0.11683
 H714 H 1.10096 0.17537 -0.08222
 H715 H 1.06464 0.13625 -0.05395
 H716 H 1.12062 0.04557 -0.08105
 C717 C 1.22130 0.65199 0.30477
 C718 C 1.20008 0.66375 0.33370
 C719 C 1.19471 0.70091 0.33687
 C720 C 1.20907 0.72472 0.31102
 C721 C 1.22814 0.71226 0.28061
 C722 C 1.23515 0.67591 0.27892
 C723 C 1.17449 0.71418 0.36521
 C724 C 1.15784 0.69134 0.38883
 C725 C 1.16074 0.65403 0.38499
 C726 C 1.18336 0.64002 0.35861
 C727 C 1.18791 0.60279 0.35735
 C728 C 1.16963 0.57986 0.37891
 C729 C 1.14580 0.59293 0.40208
 C730 C 1.14124 0.63026 0.40588
 C731 C 1.11622 0.64223 0.42871
 C732 C 1.09596 0.61824 0.44518
 C733 C 1.10011 0.58160 0.44036
 C734 C 1.12561 0.56889 0.42002
 H735 H 1.22733 0.62443 0.30070
 H736 H 1.20442 0.75301 0.31365
 H737 H 1.25134 0.66546 0.25768
 H738 H 1.17088 0.74260 0.36849
 H739 H 1.14272 0.70396 0.40983
 H740 H 1.20535 0.59034 0.33962
 H741 H 1.17356 0.55145 0.37628
 H742 H 1.11067 0.66990 0.43291
 H743 H 1.07633 0.62845 0.46102
 H744 H 1.12864 0.54044 0.41599
 C745 C 0.66244 0.23540 0.32001
 C746 C 0.66698 0.20223 0.33897
 C747 C 0.69613 0.18614 0.33573
 C748 C 0.71874 0.20146 0.31208
 C749 C 0.71314 0.23323 0.29208
 C750 C 0.68529 0.25061 0.29713
 C751 C 0.70248 0.15454 0.35555
 C752 C 0.68043 0.13795 0.37802
 C753 C 0.65065 0.15195 0.38087
 C754 C 0.64364 0.18433 0.36054
 C755 C 0.61327 0.19683 0.36098
 C756 C 0.59034 0.17778 0.37945
 C757 C 0.59678 0.14604 0.39915
 C758 C 0.62727 0.13353 0.40159
 C759 C 0.63299 0.10240 0.42390
 C760 C 0.60922 0.08260 0.43905
 C761 C 0.57902 0.09337 0.43347
 C762 C 0.57282 0.12596 0.41520
 H763 H 0.64163 0.25040 0.32243
 H764 H 0.74061 0.18843 0.30900
 H765 H 0.68095 0.27591 0.28284
 H766 H 0.72475 0.14224 0.35337
 H767 H 0.68725 0.11321 0.39145
 H768 H 0.60614 0.22062 0.34573
 H769 H 0.56721 0.18775 0.37773
 H770 H 0.65551 0.09229 0.42988
 H771 H 0.61446 0.05808 0.45458
 H772 H 0.54942 0.13465 0.41157
 C773 C 0.72129 0.65360 -0.20464
 C774 C 0.69923 0.66529 -0.17670
 C775 C 0.69509 0.70252 -0.17197
 C776 C 0.71144 0.72649 -0.19522
 C777 C 0.73148 0.71445 -0.22456
 C778 C 0.73720 0.67792 -0.22803
 C779 C 0.67418 0.71588 -0.14461
 C780 C 0.65558 0.69317 -0.12366
 C781 C 0.65719 0.65595 -0.12927
 C782 C 0.68060 0.64162 -0.15418
 C783 C 0.68418 0.60426 -0.15602
 C784 C 0.66461 0.58167 -0.13582
 C785 C 0.64012 0.59527 -0.11417
 C786 C 0.63597 0.63267 -0.11091
 C787 C 0.60984 0.64536 -0.09098
 C788 C 0.58885 0.62200 -0.07516
 C789 C 0.59313 0.58522 -0.07800
 C790 C 0.61913 0.57180 -0.09678
 H791 H 0.72629 0.62588 -0.20985
 H792 H 0.70792 0.75473 -0.19092
 H793 H 0.75383 0.66782 -0.24883
 H794 H 0.67161 0.74433 -0.14002
 H795 H 0.64025 0.70575 -0.10287
 H796 H 0.70208 0.59158 -0.17275
 H797 H 0.66813 0.55319 -0.13826
 H798 H 0.60415 0.67316 -0.08852
 H799 H 0.56887 0.63285 -0.06064
 H800 H 0.62227 0.54327 -0.09945
 C801 C 0.81625 -0.22325 -0.17631
 C802 C 0.81634 -0.18560 -0.17557
 C803 C 0.79348 -0.16779 -0.19818
 C804 C 0.77302 -0.18717 -0.22288
 C805 C 0.77393 -0.22442 -0.22388
 C806 C 0.79537 -0.24213 -0.20002
 C807 C 0.79140 -0.13075 -0.19631
 C808 C 0.81134 -0.11092 -0.17227
 C809 C 0.83513 -0.12730 -0.15028
 C810 C 0.83834 -0.16515 -0.15327
 C811 C 0.86409 -0.18121 -0.13521
 C812 C 0.88584 -0.16116 -0.11474
 C813 C 0.88242 -0.12450 -0.11013
 C814 C 0.85656 -0.10706 -0.12663
 C815 C 0.85332 -0.07012 -0.11854
 C816 C 0.87553 -0.05131 -0.09654
 C817 C 0.90183 -0.06850 -0.08263
 C818 C 0.90497 -0.10514 -0.08925
 H819 H 0.83172 -0.23898 -0.15845
 H820 H 0.75693 -0.17313 -0.24181
 H821 H 0.79636 -0.27094 -0.20024
 H822 H 0.77398 -0.11690 -0.21344
 H823 H 0.80832 -0.08247 -0.17280
 H824 H 0.86881 -0.20926 -0.13780
 H825 H 0.90557 -0.17462 -0.10219
 H826 H 0.83367 -0.05515 -0.12826
 H827 H 0.87251 -0.02304 -0.09129
 H828 H 0.92500 -0.11872 -0.07770
 C829 C 0.77665 0.31937 0.34743
 C830 C 0.80325 0.33363 0.33023
 C831 C 0.81042 0.32275 0.29046
 C832 C 0.79150 0.29911 0.26909
 C833 C 0.76554 0.28529 0.28677
 C834 C 0.75822 0.29548 0.32596
 C835 C 0.83662 0.33515 0.27227
 C836 C 0.85673 0.35704 0.29314
 C837 C 0.85125 0.36780 0.33321
 C838 C 0.82337 0.35738 0.35137
 C839 C 0.81661 0.37107 0.38996
 C840 C 0.83700 0.39277 0.41092
 C841 C 0.86519 0.40105 0.39477
 C842 C 0.87279 0.38856 0.35575
 C843 C 0.90218 0.39629 0.34145
 C844 C 0.92305 0.41509 0.36507
 C845 C 0.91547 0.42732 0.40355
 C846 C 0.88621 0.42096 0.41791
 H847 H 0.76983 0.32538 0.37773
 H848 H 0.79726 0.29091 0.23876
 H849 H 0.73831 0.28484 0.34031
 H850 H 0.84193 0.32736 0.24167
 H851 H 0.87629 0.36550 0.27663
 H852 H 0.79547 0.36581 0.40475
 H853 H 0.83091 0.40244 0.44057
 H854 H 0.91030 0.38710 0.31277
 H855 H 0.94549 0.41978 0.35315
 H856 H 0.88023 0.43021 0.44772
 C857 C 0.28372 -0.17090 0.29881
 C858 C 0.31045 -0.18502 0.31684
 C859 C 0.31402 -0.22246 0.31680
 C860 C 0.29283 -0.24430 0.29635
 C861 C 0.26788 -0.22944 0.27571
 C862 C 0.26289 -0.19279 0.27868
 C863 C 0.33892 -0.23779 0.33659
 C864 C 0.36061 -0.21674 0.35625
 C865 C 0.35874 -0.17924 0.35582
 C866 C 0.33357 -0.16322 0.33488
 C867 C 0.33283 -0.12591 0.33129
 C868 C 0.35530 -0.10478 0.34833
 C869 C 0.37927 -0.11976 0.37010
 C870 C 0.38143 -0.15706 0.37475
 C871 C 0.40613 -0.17020 0.39835
 C872 C 0.42752 -0.14703 0.41631
 C873 C 0.42520 -0.11020 0.41093
 C874 C 0.40099 -0.09711 0.38743
 H875 H 0.27798 -0.14305 0.30007
 H876 H 0.29632 -0.27288 0.29548
 H877 H 0.24294 -0.18057 0.26538
 H878 H 0.34171 -0.26644 0.33688
 H879 H 0.37917 -0.23065 0.37061
 H880 H 0.31558 -0.11205 0.31432
 H881 H 0.35379 -0.07621 0.34449
 H882 H 0.40916 -0.19814 0.40421
 H883 H 0.44572 -0.15796 0.43466
 H884 H 0.39838 -0.06871 0.38312
 C885 C 0.31947 0.31894 -0.23016
 C886 C 0.31894 0.32798 -0.18882
 C887 C 0.29738 0.31049 -0.16456
 C888 C 0.27821 0.28393 -0.18118
 C889 C 0.27968 0.27505 -0.22211
 C890 C 0.30030 0.29300 -0.24619
 C891 C 0.29527 0.31948 -0.12388
 C892 C 0.31419 0.34522 -0.10657
 C893 C 0.33662 0.36261 -0.12917
 C894 C 0.33925 0.35344 -0.17089
 C895 C 0.36272 0.36922 -0.19314
 C896 C 0.38324 0.39254 -0.17536
 C897 C 0.38103 0.40177 -0.13492
 C898 C 0.35726 0.38794 -0.11130
 C899 C 0.35563 0.39979 -0.07071
 C900 C 0.37775 0.42260 -0.05410
 C901 C 0.40212 0.43407 -0.07728
 C902 C 0.40316 0.42420 -0.11784
 H903 H 0.33433 0.33135 -0.25126
 H904 H 0.26233 0.27025 -0.16220
 H905 H 0.30235 0.28634 -0.27775
 H906 H 0.27880 0.30640 -0.10511
 H907 H 0.31122 0.35021 -0.07492
 H908 H 0.36665 0.36334 -0.22435
 H909 H 0.40130 0.40324 -0.19352
 H910 H 0.33776 0.39171 -0.05095
 H911 H 0.37648 0.43007 -0.02262
 H912 H 0.42175 0.43350 -0.13610
 C913 C 1.16182 -0.21833 0.20754
 C914 C 1.16967 -0.18944 0.18267
 C915 C 1.20099 -0.18377 0.17552
 C916 C 1.22324 -0.20525 0.19413
 C917 C 1.21500 -0.23225 0.22068
 C918 C 1.18410 -0.23926 0.22605
 C919 C 1.20997 -0.15648 0.15019
 C920 C 1.18862 -0.13436 0.13187
 C921 C 1.15715 -0.13836 0.13849
 C922 C 1.14757 -0.16621 0.16463
 C923 C 1.11624 -0.16957 0.17244
 C924 C 1.09493 -0.14717 0.15493
 C925 C 1.10374 -0.12044 0.12886
 C926 C 1.13488 -0.11541 0.12011
 C927 C 1.14216 -0.08769 0.09318
 C928 C 1.11942 -0.06642 0.07564
 C929 C 1.08869 -0.07188 0.08433
 C930 C 1.08125 -0.09886 0.11135
 H931 H 1.13867 -0.22575 0.21327
 H932 H 1.24713 -0.20030 0.18870
 H933 H 1.17677 -0.26105 0.24450
 H934 H 1.23389 -0.15207 0.14449
 H935 H 1.19763 -0.11398 0.11291
 H936 H 1.10726 -0.18910 0.19248
 H937 H 1.07113 -0.15093 0.16189
 H938 H 1.16516 -0.08196 0.08462
 H939 H 1.12595 -0.04592 0.05482
 H940 H 1.05763 -0.10358 0.11859
 C941 C 1.17240 0.27341 0.70639
 C942 C 1.17975 0.30313 0.68251
 C943 C 1.21099 0.31086 0.67747
 C944 C 1.23351 0.29065 0.69720
 C945 C 1.22566 0.26292 0.72284
 C946 C 1.19500 0.25382 0.72613
 C947 C 1.21966 0.33909 0.65330
 C948 C 1.19803 0.36043 0.63446
 C949 C 1.16658 0.35460 0.63930
 C950 C 1.15731 0.32541 0.66373
 C951 C 1.12590 0.31989 0.66923
 C952 C 1.10428 0.34177 0.65150
 C953 C 1.11286 0.37007 0.62747
 C954 C 1.14404 0.37706 0.62082
 C955 C 1.15115 0.40630 0.59594
 C956 C 1.12822 0.42717 0.57834
 C957 C 1.09748 0.41982 0.58495
 C958 C 1.09014 0.39129 0.60989
 H959 H 1.14943 0.26452 0.71069
 H960 H 1.25713 0.29719 0.69306
 H961 H 1.18818 0.23153 0.74416
 H962 H 1.24353 0.34499 0.64913
 H963 H 1.20683 0.38167 0.61656
 H964 H 1.11708 0.29898 0.68756
 H965 H 1.08044 0.33643 0.65675
 H966 H 1.17414 0.41366 0.58913
 H967 H 1.13467 0.44894 0.55917
 H968 H 1.06649 0.38508 0.61536
 C969 C 0.67488 -0.18539 0.72548
 C970 C 0.66372 -0.19344 0.68633
 C971 C 0.68035 -0.21842 0.66304
 C972 C 0.70669 -0.23487 0.67899
 C973 C 0.71692 -0.22687 0.71809
 C974 C 0.70077 -0.20204 0.74095
 C975 C 0.67051 -0.22699 0.62409
 C976 C 0.64481 -0.21092 0.60732
 C977 C 0.62760 -0.18561 0.62904
 C978 C 0.63694 -0.17726 0.66950
 C979 C 0.61932 -0.15277 0.69178
 C980 C 0.59477 -0.13522 0.67458
 C981 C 0.58640 -0.14151 0.63468
 C982 C 0.60188 -0.16754 0.61148
 C983 C 0.59148 -0.17320 0.57129
 C984 C 0.56865 -0.15169 0.55427
 C985 C 0.55551 -0.12416 0.57675
 C986 C 0.56349 -0.12044 0.61739
 H987 H 0.66425 -0.16637 0.74521
 H988 H 0.71884 -0.25438 0.66115
 H989 H 0.70800 -0.19537 0.77127
 H990 H 0.68299 -0.24617 0.60614
 H991 H 0.63910 -0.21878 0.57695
 H992 H 0.62403 -0.14606 0.72273
 H993 H 0.58258 -0.11580 0.69260
 H994 H 0.60130 -0.19301 0.55173
 H995 H 0.56280 -0.15501 0.52275
 H996 H 0.55318 -0.09926 0.63501
 C997 C 0.67793 0.27311 0.17066
 C998 C 0.68190 0.30956 0.16177
 C999 C 0.70724 0.32728 0.17947
 C1000 C 0.72627 0.30970 0.20704
 C1001 C 0.72074 0.27434 0.21707
 C1002 C 0.69697 0.25602 0.19809
 C1003 C 0.71292 0.36278 0.17061
 C1004 C 0.69339 0.38169 0.14562
 C1005 C 0.66691 0.36593 0.12901
 C1006 C 0.66113 0.32921 0.13712
 C1007 C 0.63404 0.31378 0.12194
 C1008 C 0.61264 0.33376 0.10126
 C1009 C 0.61761 0.36962 0.09393
 C1010 C 0.64524 0.38605 0.10615
 C1011 C 0.64954 0.42219 0.09568
 C1012 C 0.62650 0.44147 0.07635
 C1013 C 0.59860 0.42543 0.06719
 C1014 C 0.59460 0.38935 0.07513
 H1015 H 0.66013 0.25702 0.15752
 H1016 H 0.74477 0.32403 0.22149
 H1017 H 0.69242 0.22855 0.20550
 H1018 H 0.73244 0.37633 0.18374
 H1019 H 0.69915 0.40918 0.14118
 H1020 H 0.62797 0.28647 0.12677
 H1021 H 0.59170 0.32104 0.09138
 H1022 H 0.67028 0.43641 0.10214
 H1023 H 0.63012 0.46930 0.06979
 H1024 H 0.57324 0.37662 0.06699
 C1025 C 0.81503 0.18410 0.24350
 C1026 C 0.81145 0.17044 0.20386
 C1027 C 0.78435 0.17921 0.18264
 C1028 C 0.76311 0.20287 0.19947
 C1029 C 0.76790 0.21746 0.23785
 C1030 C 0.79354 0.20721 0.26005
 C1031 C 0.77881 0.16492 0.14442
 C1032 C 0.79978 0.14238 0.12632
 C1033 C 0.82773 0.13398 0.14536
 C1034 C 0.83390 0.14884 0.18445
 C1035 C 0.86280 0.14290 0.20212
 C1036 C 0.88506 0.12365 0.18221
 C1037 C 0.87928 0.10868 0.14441
 C1038 C 0.85027 0.11248 0.12592
 C1039 C 0.84527 0.09473 0.08860
 C1040 C 0.86867 0.07593 0.06963
 C1041 C 0.89783 0.07449 0.08690
 C1042 C 0.90270 0.09031 0.12477
 H1043 H 0.83410 0.17742 0.26263
 H1044 H 0.74313 0.21025 0.18219
 H1045 H 0.79736 0.21773 0.29011
 H1046 H 0.75805 0.17141 0.12813
 H1047 H 0.79389 0.13306 0.09652
 H1048 H 0.86946 0.15403 0.23082
 H1049 H 0.90717 0.12062 0.19656
 H1050 H 0.82349 0.09460 0.07341
 H1051 H 0.86403 0.06304 0.04100
 H1052 H 0.92492 0.08848 0.13910
 C1053 C 0.82580 0.72438 0.67642
 C1054 C 0.81940 0.69128 0.65753
 C1055 C 0.78919 0.67833 0.65958
 C1056 C 0.76711 0.69694 0.68192
 C1057 C 0.77503 0.72761 0.70383
 C1058 C 0.80403 0.74193 0.69929
 C1059 C 0.78152 0.64625 0.64063
 C1060 C 0.80344 0.62582 0.62116
 C1061 C 0.83417 0.63664 0.61999
 C1062 C 0.84210 0.67030 0.63781
 C1063 C 0.87273 0.68138 0.63658
 C1064 C 0.89503 0.66007 0.61988
 C1065 C 0.88792 0.62689 0.60351
 C1066 C 0.85743 0.61472 0.60248
 C1067 C 0.85186 0.58087 0.58451
 C1068 C 0.87571 0.56005 0.56927
 C1069 C 0.90580 0.57207 0.57172
 C1070 C 0.91152 0.60574 0.58847
 H1071 H 0.84759 0.73724 0.67513
 H1072 H 0.74424 0.68648 0.68406
 H1073 H 0.81040 0.76654 0.71423
 H1074 H 0.75841 0.63636 0.64166
 H1075 H 0.79563 0.60119 0.60793
 H1076 H 0.88059 0.70627 0.64898
 H1077 H 0.91830 0.66958 0.62030
 H1078 H 0.82942 0.56962 0.58192
 H1079 H 0.87061 0.53427 0.55605
 H1080 H 0.93461 0.61579 0.58975
 C1081 C 0.28933 0.18202 0.65663
 C1082 C 0.32113 0.17995 0.66432
 C1083 C 0.33225 0.19534 0.70068
 C1084 C 0.31219 0.21104 0.72827
 C1085 C 0.28105 0.21364 0.71958
 C1086 C 0.26977 0.19884 0.68379
 C1087 C 0.36338 0.19546 0.70919
 C1088 C 0.38400 0.18074 0.68241
 C1089 C 0.37423 0.16434 0.64617
 C1090 C 0.34221 0.16329 0.63736
 C1091 C 0.33229 0.14476 0.60251
 C1092 C 0.35265 0.12700 0.57780
 C1093 C 0.38380 0.12766 0.58606
 C1094 C 0.39530 0.14746 0.61936
 C1095 C 0.42739 0.14851 0.62490
 C1096 C 0.44673 0.12790 0.60080
 C1097 C 0.43470 0.10609 0.57037
 C1098 C 0.40341 0.10714 0.56220
 H1099 H 0.27889 0.17179 0.62947
 H1100 H 0.32107 0.22217 0.75618
 H1101 H 0.24575 0.20068 0.67647
 H1102 H 0.37199 0.20733 0.73689
 H1103 H 0.40754 0.18170 0.69164
 H1104 H 0.30865 0.14226 0.59419
 H1105 H 0.34382 0.11208 0.55219
 H1106 H 0.43822 0.16429 0.64815
 H1107 H 0.47089 0.12733 0.60757
 H1108 H 0.39412 0.09023 0.53846
 C1109 C 0.26936 0.67200 0.16031
 C1110 C 0.30088 0.67864 0.15626
 C1111 C 0.31295 0.70907 0.17632
 C1112 C 0.29481 0.72997 0.20152
 C1113 C 0.26461 0.72075 0.20844
 C1114 C 0.25152 0.69307 0.18575
 C1115 C 0.34338 0.71809 0.17220
 C1116 C 0.36294 0.69600 0.15136
 C1117 C 0.35282 0.66358 0.13417
 C1118 C 0.32103 0.65578 0.13431
 C1119 C 0.31081 0.62504 0.11341
 C1120 C 0.33112 0.60202 0.09442
 C1121 C 0.36243 0.60798 0.09665
 C1122 C 0.37362 0.63868 0.11706
 C1123 C 0.40538 0.64259 0.12114
 C1124 C 0.42511 0.61783 0.10469
 C1125 C 0.41429 0.58803 0.08326
 C1126 C 0.38274 0.58322 0.07926
 H1127 H 0.25803 0.65013 0.14535
 H1128 H 0.30481 0.75284 0.21661
 H1129 H 0.22774 0.68642 0.18930
 H1130 H 0.35243 0.74206 0.18620
 H1131 H 0.38602 0.70524 0.14925
 H1132 H 0.28712 0.61800 0.11116
 H1133 H 0.32226 0.57874 0.07882
 H1134 H 0.41592 0.66398 0.13792
 H1135 H 0.44926 0.62251 0.10875
 H1136 H 0.37401 0.56015 0.06310
   
