data_POSCAR
  _audit_creation_date              2014-09-24
  _audit_creation_method            'ToBaCCo'
  _symmetry_space_group_name_H-M    'P1'
  _symmetry_Int_Tables_number       1
  _symmetry_cell_setting            triclinic
  loop_
  _symmetry_equiv_pos_as_xyz
 x,y,z
_cell_length_a 45.0702
_cell_length_b 25.8874
_cell_length_c 19.5763
_cell_angle_alpha 89.994800
_cell_angle_beta 89.828300
_cell_angle_gamma 89.879800
loop_
  _atom_site_label
  _atom_site_type_symbol
  _atom_site_fract_x
  _atom_site_fract_y
  _atom_site_fract_z
C1 C 0.67989 0.31613 0.49704
 C2 C 0.69177 0.29870 0.55862
 C3 C 0.71837 0.27054 0.55876
 C4 C 0.73447 0.26189 0.49739
 C5 C 0.72223 0.28145 0.43593
 C6 C 0.69481 0.30697 0.43576
 C7 C 0.76360 0.23286 0.49745
 C8 C 0.77599 0.21287 0.43612
 C9 C 0.80346 0.18738 0.43625
 C10 C 0.81820 0.17876 0.49769
 C11 C 0.80620 0.19671 0.55888
 C12 C 0.77960 0.22474 0.55883
 H13 H 0.65893 0.33687 0.49667
 H14 H 0.72597 0.25551 0.60710
 H15 H 0.73359 0.27759 0.38761
 H16 H 0.76467 0.21644 0.38783
 H17 H 0.83920 0.15810 0.49801
 H18 H 0.77202 0.24008 0.60708
 C19 C 0.17989 0.81596 0.50426
 C20 C 0.19173 0.79787 0.56554
 C21 C 0.21826 0.76960 0.56526
 C22 C 0.23439 0.76158 0.50388
 C23 C 0.22221 0.78163 0.44263
 C24 C 0.19480 0.80725 0.44281
 C25 C 0.26347 0.73258 0.50391
 C26 C 0.27562 0.71206 0.44274
 C27 C 0.30297 0.68630 0.44293
 C28 C 0.31785 0.67795 0.50420
 C29 C 0.30612 0.69657 0.56539
 C30 C 0.27963 0.72496 0.56521
 H31 H 0.15896 0.83681 0.50424
 H32 H 0.22578 0.75392 0.61331
 H33 H 0.23363 0.77801 0.39433
 H34 H 0.26423 0.71543 0.39452
 H35 H 0.33877 0.65704 0.50408
 H36 H 0.27217 0.74106 0.61318
 C37 C 0.31721 0.32151 -0.50126
 C38 C 0.30560 0.30285 -0.56228
 C39 C 0.27915 0.27464 -0.56197
 C40 C 0.26290 0.26717 -0.50060
 C41 C 0.27489 0.28776 -0.43952
 C42 C 0.30222 0.31339 -0.43990
 C43 C 0.23386 0.23829 -0.50041
 C44 C 0.22170 0.21806 -0.43912
 C45 C 0.19430 0.19251 -0.43913
 C46 C 0.17945 0.18409 -0.50056
 C47 C 0.19131 0.20241 -0.56176
 C48 C 0.21778 0.23053 -0.56163
 H49 H 0.33810 0.34229 -0.50151
 H50 H 0.27182 0.25862 -0.60994
 H51 H 0.26338 0.28456 -0.39128
 H52 H 0.23320 0.22152 -0.39102
 H53 H 0.15855 0.16333 -0.50087
 H54 H 0.22528 0.24625 -0.60974
 C55 C -0.18166 0.82195 -0.50069
 C56 C -0.19642 0.81383 -0.56221
 C57 C -0.22382 0.78828 -0.56267
 C58 C -0.23610 0.76788 -0.50158
 C59 C -0.22007 0.77541 -0.44012
 C60 C -0.19354 0.80343 -0.43972
 C61 C -0.26520 0.73911 -0.50185
 C62 C -0.28143 0.73117 -0.44060
 C63 C -0.30795 0.70316 -0.44056
 C64 C -0.31968 0.68508 -0.50183
 C65 C -0.30469 0.69361 -0.56318
 C66 C -0.27730 0.71912 -0.56320
 H67 H -0.16072 0.84262 -0.50016
 H68 H -0.23519 0.78496 -0.61093
 H69 H -0.22760 0.75958 -0.39212
 H70 H -0.27402 0.74664 -0.39239
 H71 H -0.34059 0.66437 -0.50177
 H72 H -0.26581 0.72266 -0.61142
 O73 O -0.04110 0.91435 0.12880
 O74 O -0.07382 0.95813 0.06000
 C75 C -0.06769 0.92737 0.11021
 O76 O 0.04146 1.09526 0.11824
 O77 O 0.07482 1.04590 0.05765
 C78 C 0.06820 1.08140 0.10191
 O79 O -0.04139 1.08982 0.12398
 O80 O -0.07393 1.04332 0.05825
 C81 C -0.06791 1.07572 0.10664
 O82 O 0.04181 0.90879 0.12363
 O83 O 0.07494 0.95661 0.06054
 C84 C 0.06852 0.92263 0.10687
 Zr85 Zr 0.00041 0.93551 0.08644
 O86 O 0.00044 0.92834 0.19407
 O87 O -0.00052 0.85433 0.07574
 Zr88 Zr 0.00023 1.06636 0.08399
 O89 O 0.00260 1.06926 0.19190
 O90 O -0.00331 1.14786 0.07896
 O91 O -0.02598 1.00110 0.09819
 O92 O 0.02594 1.00119 0.09852
 O93 O 0.04278 0.90456 -0.11704
 O94 O 0.07548 0.95423 -0.05570
 C95 C 0.06933 0.91863 -0.10008
 O96 O -0.04000 1.08782 -0.12899
 O97 O -0.07334 1.04262 -0.06323
 C98 C -0.06672 1.07473 -0.11173
 O99 O 0.04281 1.09135 -0.12272
 O100 O 0.07541 1.04353 -0.05847
 C101 C 0.06936 1.07748 -0.10506
 O102 O -0.03985 0.90911 -0.12527
 O103 O -0.07324 0.95619 -0.06179
 C104 C -0.06658 0.92296 -0.10897
 Zr105 Zr 0.00119 0.93353 -0.08453
 O106 O 0.00489 0.93002 -0.19225
 O107 O -0.00176 0.85200 -0.07903
 Zr108 Zr 0.00113 1.06440 -0.08743
 O109 O 0.00457 1.06633 -0.19523
 O110 O -0.00206 1.14601 -0.08398
 Zr111 Zr -0.04382 1.00002 -0.00137
 Zr112 Zr 0.04519 1.00004 0.00048
 O113 O 0.02683 0.99871 -0.09829
 O114 O -0.02513 0.99883 -0.10027
 O115 O 0.02763 0.92459 0.00178
 O116 O -0.02546 1.07470 -0.00238
 O117 O -0.02547 0.92523 0.00081
 O118 O 0.02743 1.07549 -0.00144
 H119 H 0.03891 1.00205 0.13923
 H120 H -0.03912 1.10474 -0.00296
 H121 H 0.04003 0.99796 -0.13884
 H122 H -0.03915 0.89530 0.00147
 H123 H 0.01446 1.16089 0.05476
 H124 H 0.01647 1.15935 -0.06366
 H125 H -0.00971 1.04092 -0.21341
 H126 H -0.01004 0.95397 -0.21140
 H127 H 0.01493 0.83964 -0.05058
 H128 H -0.00119 0.84026 0.12276
 H129 H 0.00652 0.96208 0.21285
 H130 H -0.01197 1.04413 0.20993
 O131 O 0.45984 0.40952 0.12340
 O132 O 0.42650 0.45576 0.05918
 C133 C 0.43310 0.42291 0.10676
 O134 O 0.54232 0.59064 0.12106
 O135 O 0.57504 0.54344 0.05574
 C136 C 0.56892 0.57704 0.10280
 O137 O 0.45930 0.58642 0.12864
 O138 O 0.42639 0.54166 0.06192
 C139 C 0.43268 0.57288 0.11139
 O140 O 0.54249 0.40505 0.11515
 O141 O 0.57507 0.45455 0.05288
 C142 C 0.56904 0.41947 0.09805
 Zr143 Zr 0.50087 0.43275 0.08098
 O144 O 0.50202 0.42221 0.18805
 O145 O 0.49999 0.35199 0.06565
 Zr146 Zr 0.50060 0.56372 0.08628
 O147 O 0.50370 0.56375 0.19417
 O148 O 0.49730 0.64534 0.08503
 O149 O 0.47452 0.49789 0.09786
 O150 O 0.52637 0.49804 0.09581
 O151 O 0.54146 0.40841 -0.12588
 O152 O 0.57461 0.45608 -0.06309
 C153 C 0.56815 0.42180 -0.10904
 O154 O 0.45876 0.59130 -0.12462
 O155 O 0.42598 0.54431 -0.05966
 C156 C 0.43219 0.57755 -0.10712
 O157 O 0.54144 0.59578 -0.11994
 O158 O 0.57466 0.54604 -0.06001
 C159 C 0.56814 0.58171 -0.10400
 O160 O 0.45817 0.41438 -0.12959
 O161 O 0.42544 0.45911 -0.06122
 C162 C 0.43157 0.42787 -0.11099
 Zr163 Zr 0.50012 0.43643 -0.09008
 O164 O 0.50302 0.43631 -0.19803
 O165 O 0.49706 0.35482 -0.08981
 Zr166 Zr 0.50012 0.56720 -0.08525
 O167 O 0.50288 0.57285 -0.19289
 O168 O 0.49667 0.64859 -0.07714
 Zr169 Zr 0.45598 0.50000 -0.00097
 Zr170 Zr 0.54484 0.50015 -0.00304
 O171 O 0.52574 0.50204 -0.10106
 O172 O 0.47378 0.50212 -0.10073
 O173 O 0.52731 0.42470 -0.00548
 O174 O 0.47423 0.57473 0.00141
 O175 O 0.47429 0.42521 -0.00407
 O176 O 0.52710 0.57558 0.00025
 H177 H 0.53951 0.49738 0.13625
 H178 H 0.46051 0.60469 0.00275
 H179 H 0.53871 0.50276 -0.14201
 H180 H 0.46061 0.39529 -0.00469
 H181 H 0.51543 0.65888 0.06283
 H182 H 0.51515 0.66140 -0.05593
 H183 H 0.48943 0.54645 -0.21198
 H184 H 0.48734 0.45960 -0.21539
 H185 H 0.51372 0.34141 -0.06214
 H186 H 0.49952 0.33638 0.11184
 H187 H 0.50518 0.45662 0.20845
 H188 H 0.48870 0.53920 0.21173
 C189 C 0.32106 0.31429 0.37509
 C190 C 0.33524 0.32679 0.32551
 C191 C 0.35324 0.34421 0.27116
 C192 C 0.36980 0.36087 0.22809
 C193 C 0.39055 0.38185 0.18170
 C194 C 0.40938 0.40046 0.14556
 C195 C -0.18312 0.82963 0.37879
 C196 C -0.16928 0.84365 0.32941
 C197 C -0.15079 0.86022 0.27543
 C198 C -0.13342 0.87466 0.23265
 C199 C -0.11156 0.89209 0.18637
 C200 C -0.09192 0.90767 0.14996
 C201 C 0.68159 0.67721 0.37407
 C202 C 0.66814 0.66345 0.32412
 C203 C 0.65035 0.64705 0.26898
 C204 C 0.63361 0.63254 0.22507
 C205 C 0.61238 0.61465 0.17773
 C206 C 0.59308 0.59828 0.14118
 C207 C 0.17628 1.19080 0.37530
 C208 C 0.16282 1.17857 0.32474
 C209 C 0.14585 1.16164 0.26861
 C210 C 0.13014 1.14529 0.22389
 C211 C 0.11021 1.12429 0.17593
 C212 C 0.09180 1.10517 0.13937
 C213 C 0.67742 0.31057 -0.38194
 C214 C 0.66378 0.32349 -0.33161
 C215 C 0.64654 0.34126 -0.27597
 C216 C 0.63063 0.35821 -0.23166
 C217 C 0.61049 0.37956 -0.18395
 C218 C 0.59191 0.39859 -0.14724
 C219 C 0.17751 0.80915 -0.37474
 C220 C 0.16416 0.82143 -0.32380
 C221 C 0.14732 0.83840 -0.26720
 C222 C 0.13169 0.85481 -0.22208
 C223 C 0.11176 0.87586 -0.17377
 C224 C 0.09324 0.89499 -0.13714
 C225 C 0.32061 0.68567 -0.37531
 C226 C 0.33455 0.67336 -0.32542
 C227 C 0.35231 0.65614 -0.27069
 C228 C 0.36871 0.63958 -0.22737
 C229 C 0.38936 0.61863 -0.18089
 C230 C 0.40824 0.60000 -0.14500
 C231 C -0.17854 1.18478 -0.37857
 C232 C -0.16446 1.17190 -0.32918
 C233 C -0.14651 1.15407 -0.27514
 C234 C -0.12998 1.13711 -0.23238
 C235 C -0.10926 1.11584 -0.18635
 C236 C -0.09044 1.09709 -0.15044
 C237 C 0.67684 0.69139 -0.37768
 C238 C 0.66322 0.67904 -0.32719
 C239 C 0.64608 0.66200 -0.27115
 C240 C 0.63027 0.64556 -0.22646
 C241 C 0.61025 0.62455 -0.17842
 C242 C 0.59179 0.60543 -0.14170
 C243 C 0.18126 1.17698 -0.37964
 C244 C 0.16798 1.16334 -0.32920
 C245 C 0.15041 1.14715 -0.27336
 C246 C 0.13384 1.13279 -0.22882
 C247 C 0.11276 1.11502 -0.18079
 C248 C 0.09352 1.09868 -0.14375
 C249 C 0.31607 0.33010 -0.37758
 C250 C 0.32993 0.34407 -0.32841
 C251 C 0.34841 0.36057 -0.27467
 C252 C 0.36579 0.37495 -0.23212
 C253 C 0.38767 0.39237 -0.18621
 C254 C 0.40733 0.40800 -0.15019
 C255 C -0.17824 0.81476 -0.37703
 C256 C -0.16413 0.82713 -0.32746
 C257 C -0.14619 0.84439 -0.27313
 C258 C -0.12968 0.86093 -0.23008
 C259 C -0.10902 0.88185 -0.18371
 C260 C -0.09025 0.90046 -0.14761
 C261 C 0.31697 0.66977 0.38047
 C262 C 0.33096 0.65598 0.33117
 C263 C 0.34958 0.63971 0.27724
 C264 C 0.36704 0.62550 0.23445
 C265 C 0.38895 0.60826 0.18812
 C266 C 0.40858 0.59272 0.15155
 C267 C -0.18315 1.17220 0.37700
 C268 C -0.16929 1.15874 0.32729
 C269 C -0.15085 1.14276 0.27281
 C270 C -0.13355 1.12870 0.22954
 C271 C -0.11177 1.11150 0.18275
 C272 C -0.09217 1.09586 0.14613
 C273 C 0.68102 0.32259 0.37273
 C274 C 0.66766 0.33552 0.32225
 C275 C 0.65005 0.35089 0.26626
 C276 C 0.63347 0.36462 0.22157
 C277 C 0.61240 0.38185 0.17339
 C278 C 0.59317 0.39801 0.13637
 C279 C 0.18095 0.82345 0.38009
 C280 C 0.16743 0.83695 0.33008
 C281 C 0.14958 0.85301 0.27481
 C282 C 0.13282 0.86728 0.23075
 C283 C 0.11163 0.88498 0.18311
 C284 C 0.09244 0.90132 0.14611
   
