data_POSCAR
  _audit_creation_date              2014-09-24
  _audit_creation_method            'ToBaCCo'
  _symmetry_space_group_name_H-M    'P1'
  _symmetry_Int_Tables_number       1
  _symmetry_cell_setting            triclinic
  loop_
  _symmetry_equiv_pos_as_xyz
 x,y,z
_cell_length_a 51.0322
_cell_length_b 29.3690
_cell_length_c 17.7129
_cell_angle_alpha 89.977100
_cell_angle_beta 89.826100
_cell_angle_gamma 90.203100
loop_
  _atom_site_label
  _atom_site_type_symbol
  _atom_site_fract_x
  _atom_site_fract_y
  _atom_site_fract_z
C1 C 0.74907 0.24793 0.46455
 C2 C 0.74921 0.24893 0.54154
 C3 C 0.72699 0.26788 0.58574
 C4 C 0.77161 0.23080 0.58540
 C5 C 0.77026 0.22523 0.42105
 C6 C 0.72790 0.26967 0.42007
 C7 C 0.73167 0.30208 0.63946
 C8 C 0.71092 0.32088 0.68044
 C9 C 0.68524 0.30540 0.66861
 C10 C 0.68051 0.27059 0.61614
 C11 C 0.70129 0.25177 0.57523
 C12 C 0.79720 0.24711 0.57309
 C13 C 0.81828 0.22809 0.61201
 C14 C 0.81395 0.19299 0.66413
 C15 C 0.78842 0.17751 0.67818
 C16 C 0.76733 0.19646 0.63924
 C17 C 0.77642 0.17924 0.43371
 C18 C 0.79723 0.15894 0.39495
 C19 C 0.81188 0.18423 0.34263
 C20 C 0.80538 0.22969 0.32833
 C21 C 0.78460 0.25004 0.36710
 C22 C 0.71401 0.24397 0.36654
 C23 C 0.69360 0.26367 0.32564
 C24 C 0.68702 0.30936 0.33738
 C25 C 0.70115 0.33546 0.38951
 C26 C 0.72159 0.31581 0.43040
 H27 H 0.75136 0.31473 0.64870
 H28 H 0.71495 0.34771 0.72087
 H29 H 0.66079 0.25806 0.60648
 H30 H 0.69735 0.22478 0.53515
 H31 H 0.80083 0.27413 0.53272
 H32 H 0.83795 0.24044 0.60097
 H33 H 0.74773 0.18363 0.64974
 H34 H 0.76530 0.15931 0.47415
 H35 H 0.80200 0.12367 0.40616
 H36 H 0.81653 0.24952 0.28778
 H37 H 0.78006 0.28544 0.35630
 H38 H 0.71868 0.20844 0.35745
 H39 H 0.68283 0.24320 0.28532
 H40 H 0.69630 0.37091 0.39876
 H41 H 0.73240 0.33644 0.47036
 H42 H 0.78486 0.15044 0.71854
 C43 C 0.24888 0.74552 0.46088
 C44 C 0.24925 0.74608 0.53787
 C45 C 0.22721 0.76496 0.58277
 C46 C 0.27172 0.72753 0.58106
 C47 C 0.26989 0.72286 0.41669
 C48 C 0.22764 0.76768 0.41712
 C49 C 0.23211 0.79897 0.63668
 C50 C 0.21149 0.81778 0.67814
 C51 C 0.18580 0.80252 0.66659
 C52 C 0.18083 0.76794 0.61408
 C53 C 0.20145 0.74905 0.57263
 C54 C 0.29734 0.74367 0.56850
 C55 C 0.31843 0.72453 0.60724
 C56 C 0.31410 0.68946 0.65945
 C57 C 0.28856 0.67408 0.67361
 C58 C 0.26746 0.69314 0.63484
 C59 C 0.27590 0.67675 0.42860
 C60 C 0.29669 0.65654 0.38969
 C61 C 0.31146 0.68206 0.33797
 C62 C 0.30507 0.72763 0.32427
 C63 C 0.28430 0.74790 0.36320
 C64 C 0.21360 0.74241 0.36334
 C65 C 0.19316 0.76250 0.32304
 C66 C 0.18669 0.80816 0.33562
 C67 C 0.20096 0.83383 0.38803
 C68 C 0.22143 0.81379 0.42833
 H69 H 0.25185 0.81147 0.64564
 H70 H 0.21554 0.84448 0.71870
 H71 H 0.16103 0.75577 0.60492
 H72 H 0.19734 0.72223 0.53238
 H73 H 0.30097 0.77073 0.52821
 H74 H 0.33811 0.73683 0.59612
 H75 H 0.24784 0.68044 0.64557
 H76 H 0.26472 0.65669 0.46872
 H77 H 0.30139 0.62118 0.40042
 H78 H 0.31632 0.74764 0.28418
 H79 H 0.27987 0.78341 0.35302
 H80 H 0.21819 0.70691 0.35356
 H81 H 0.18229 0.74235 0.28250
 H82 H 0.19620 0.86925 0.39794
 H83 H 0.23235 0.83411 0.46847
 H84 H 0.28498 0.64704 0.71403
 C85 C 0.24957 0.25145 -0.46421
 C86 C 0.24940 0.25233 -0.54120
 C87 C 0.27065 0.27507 -0.58486
 C88 C 0.22814 0.23044 -0.58546
 C89 C 0.22734 0.23243 -0.41979
 C90 C 0.27201 0.26982 -0.42047
 C91 C 0.27692 0.32110 -0.57243
 C92 C 0.29785 0.34141 -0.61103
 C93 C 0.31254 0.31607 -0.66302
 C94 C 0.30589 0.27054 -0.67715
 C95 C 0.28498 0.25021 -0.63850
 C96 C 0.21424 0.25603 -0.63889
 C97 C 0.19366 0.23626 -0.67930
 C98 C 0.18691 0.19055 -0.66717
 C99 C 0.20110 0.16454 -0.61517
 C100 C 0.22171 0.18431 -0.57479
 C101 C 0.23201 0.19841 -0.36579
 C102 C 0.21128 0.17973 -0.32426
 C103 C 0.18566 0.19513 -0.33583
 C104 C 0.18092 0.22968 -0.38863
 C105 C 0.20167 0.24841 -0.43013
 C106 C 0.29756 0.25363 -0.43259
 C107 C 0.31865 0.27269 -0.39343
 C108 C 0.31435 0.30770 -0.34126
 C109 C 0.28885 0.32310 -0.32750
 C110 C 0.26776 0.30412 -0.36668
 H111 H 0.26581 0.34105 -0.53221
 H112 H 0.30267 0.37674 -0.59982
 H113 H 0.31700 0.25056 -0.71741
 H114 H 0.28034 0.21477 -0.64910
 H115 H 0.21902 0.29156 -0.64821
 H116 H 0.18290 0.25676 -0.71950
 H117 H 0.23253 0.16377 -0.53489
 H118 H 0.25169 0.18586 -0.35666
 H119 H 0.21525 0.15309 -0.28353
 H120 H 0.16121 0.24207 -0.39797
 H121 H 0.19774 0.27525 -0.47042
 H122 H 0.30116 0.22664 -0.47291
 H123 H 0.33830 0.26040 -0.40423
 H124 H 0.28532 0.35010 -0.28711
 H125 H 0.24818 0.31685 -0.35632
 H126 H 0.19620 0.12907 -0.60547
 C127 C -0.25130 0.75414 -0.54123
 C128 C -0.25104 0.75359 -0.46423
 C129 C -0.27314 0.73445 -0.41952
 C130 C -0.22864 0.77241 -0.42076
 C131 C -0.23017 0.77690 -0.58518
 C132 C -0.27254 0.73189 -0.58520
 C133 C -0.29887 0.75013 -0.42977
 C134 C -0.31952 0.73116 -0.38820
 C135 C -0.31461 0.69668 -0.33543
 C136 C -0.28892 0.68161 -0.32389
 C137 C -0.26829 0.70053 -0.36549
 C138 C -0.23301 0.80673 -0.36707
 C139 C -0.21199 0.82593 -0.32779
 C140 C -0.18644 0.81074 -0.34134
 C141 C -0.18201 0.77576 -0.39351
 C142 C -0.20302 0.75649 -0.43277
 C143 C -0.21567 0.75190 -0.63827
 C144 C -0.19476 0.77222 -0.67685
 C145 C -0.18827 0.81788 -0.66319
 C146 C -0.20314 0.84336 -0.61185
 C147 C -0.22408 0.82305 -0.57333
 C148 C -0.27887 0.68575 -0.57403
 C149 C -0.29939 0.66563 -0.61435
 C150 C -0.31361 0.69129 -0.66681
 C151 C -0.30698 0.73701 -0.67936
 C152 C -0.28649 0.75713 -0.63901
 H153 H -0.30293 0.77689 -0.47011
 H154 H -0.33929 0.74327 -0.39751
 H155 H -0.28483 0.65501 -0.28319
 H156 H -0.24856 0.68822 -0.35647
 H157 H -0.25263 0.81926 -0.35676
 H158 H -0.21564 0.85289 -0.28740
 H159 H -0.19932 0.72948 -0.47298
 H160 H -0.22017 0.71635 -0.64839
 H161 H -0.18349 0.75214 -0.71661
 H162 H -0.19845 0.87878 -0.60103
 H163 H -0.23532 0.84308 -0.53351
 H164 H -0.26802 0.66546 -0.53385
 H165 H -0.30420 0.63016 -0.60430
 H166 H -0.31774 0.75725 -0.71990
 H167 H -0.28179 0.79265 -0.64874
 H168 H -0.16232 0.76361 -0.40416
 O169 O -0.03698 0.92227 0.13800
 O170 O -0.06534 0.96348 0.06495
 C171 C -0.06045 0.93436 0.11802
 O172 O 0.03733 1.08347 0.13156
 O173 O 0.06591 1.04001 0.06256
 C174 C 0.06086 1.07139 0.11189
 O175 O -0.03655 1.07915 0.13836
 O176 O -0.06515 1.03824 0.06515
 C177 C -0.06010 1.06720 0.11838
 O178 O 0.03683 0.91735 0.13065
 O179 O 0.06570 0.96122 0.06255
 C180 C 0.06046 0.92956 0.11144
 Zr181 Zr 0.00010 0.94293 0.09469
 O182 O 0.00254 0.94023 0.21386
 O183 O -0.00144 0.87119 0.08658
 Zr184 Zr 0.00041 1.05831 0.09526
 O185 O 0.00320 1.05881 0.21447
 O186 O -0.00240 1.13022 0.09405
 O187 O -0.02302 1.00065 0.10975
 O188 O 0.02293 1.00054 0.10888
 O189 O 0.03708 0.91712 -0.13040
 O190 O 0.06590 0.96123 -0.06308
 C191 C 0.06067 0.92925 -0.11133
 O192 O -0.03608 1.08005 -0.13814
 O193 O -0.06494 1.03876 -0.06585
 C194 C -0.05968 1.06824 -0.11830
 O195 O 0.03754 1.08412 -0.13111
 O196 O 0.06609 1.04031 -0.06302
 C197 C 0.06105 1.07205 -0.11177
 O198 O -0.03648 0.92186 -0.13840
 O199 O -0.06515 0.96329 -0.06626
 C200 C -0.06003 0.93385 -0.11880
 Zr201 Zr 0.00033 0.94330 -0.09583
 O202 O 0.00346 0.94369 -0.21505
 O203 O -0.00237 0.87138 -0.09584
 Zr204 Zr 0.00065 1.05850 -0.09562
 O205 O 0.00374 1.05856 -0.21483
 O206 O -0.00210 1.13040 -0.09511
 Zr207 Zr -0.03849 1.00088 -0.00048
 Zr208 Zr 0.03929 1.00073 -0.00030
 O209 O 0.02326 1.00084 -0.10958
 O210 O -0.02282 1.00096 -0.11069
 O211 O 0.02359 0.93432 -0.00047
 O212 O -0.02222 1.06678 -0.00016
 O213 O -0.02267 0.93487 -0.00055
 O214 O 0.02393 1.06728 -0.00011
 H215 H 0.03468 1.00039 0.15332
 H216 H -0.03412 1.09337 0.00002
 H217 H 0.03524 1.00078 -0.15371
 H218 H -0.03473 0.90835 -0.00053
 H219 H 0.01285 1.14210 0.06555
 H220 H 0.01246 1.14221 -0.06394
 H221 H -0.01090 1.03996 -0.23465
 H222 H -0.01123 0.96202 -0.23480
 H223 H 0.00966 0.86016 -0.05632
 H224 H -0.00158 0.85969 0.13918
 H225 H -0.01042 0.96205 0.23404
 H226 H -0.01113 1.03944 0.23435
 O227 O 0.46354 0.42082 0.13637
 O228 O 0.43510 0.46169 0.06310
 C229 C 0.44003 0.43268 0.11630
 O230 O 0.53741 0.58258 0.13011
 O231 O 0.56621 0.53944 0.06125
 C232 C 0.56101 0.57074 0.11062
 O233 O 0.46352 0.57766 0.13634
 O234 O 0.43510 0.53643 0.06304
 C235 C 0.44003 0.56550 0.11620
 O236 O 0.53716 0.41628 0.12994
 O237 O 0.56592 0.46051 0.06236
 C238 C 0.56073 0.42876 0.11110
 Zr239 Zr 0.50058 0.44174 0.09311
 O240 O 0.50292 0.43911 0.21231
 O241 O 0.49925 0.36999 0.08475
 Zr242 Zr 0.50058 0.55711 0.09355
 O243 O 0.50327 0.55774 0.21278
 O244 O 0.49757 0.62899 0.09213
 O245 O 0.47730 0.49925 0.10801
 O246 O 0.52326 0.49956 0.10731
 O247 O 0.53788 0.41627 -0.13187
 O248 O 0.56653 0.46063 -0.06438
 C249 C 0.56143 0.42863 -0.11273
 O250 O 0.46415 0.57830 -0.14014
 O251 O 0.43536 0.53680 -0.06795
 C252 C 0.44056 0.56627 -0.12049
 O253 O 0.53775 0.58314 -0.13241
 O254 O 0.56647 0.53960 -0.06434
 C255 C 0.56131 0.57133 -0.11302
 O256 O 0.46427 0.42017 -0.14005
 O257 O 0.43542 0.46135 -0.06808
 C258 C 0.44067 0.43193 -0.12052
 Zr259 Zr 0.50100 0.44199 -0.09734
 O260 O 0.50417 0.44225 -0.21655
 O261 O 0.49856 0.37005 -0.09705
 Zr262 Zr 0.50089 0.55719 -0.09718
 O263 O 0.50407 0.55743 -0.21637
 O264 O 0.49788 0.62907 -0.09667
 Zr265 Zr 0.46190 0.49925 -0.00230
 Zr266 Zr 0.53974 0.49988 -0.00175
 O267 O 0.52372 0.49978 -0.11105
 O268 O 0.47765 0.49941 -0.11240
 O269 O 0.52423 0.43332 -0.00186
 O270 O 0.47795 0.56531 -0.00194
 O271 O 0.47792 0.43340 -0.00222
 O272 O 0.52413 0.56626 -0.00166
 H273 H 0.53492 0.49957 0.15192
 H274 H 0.46597 0.59178 -0.00192
 H275 H 0.53571 0.49985 -0.15517
 H276 H 0.46594 0.40677 -0.00218
 H277 H 0.51286 0.64099 0.06392
 H278 H 0.51243 0.64104 -0.06563
 H279 H 0.48965 0.53839 -0.23631
 H280 H 0.48947 0.46050 -0.23640
 H281 H 0.51078 0.35899 -0.05791
 H282 H 0.49890 0.35842 0.13730
 H283 H 0.48995 0.46095 0.23237
 H284 H 0.48896 0.53830 0.23262
 C285 C 0.37413 0.37259 0.23126
 C286 C 0.39963 0.35942 0.25001
 C287 C 0.42113 0.37893 0.21279
 C288 C 0.33342 0.33542 0.30097
 C289 C 0.39161 0.42493 0.13792
 C290 C 0.37018 0.40540 0.17522
 C291 C 0.35198 0.35238 0.26925
 C292 C 0.41737 0.41189 0.15617
 H293 H 0.40289 0.33404 0.29335
 H294 H 0.44065 0.36811 0.22829
 H295 H 0.38795 0.45025 0.09479
 H296 H 0.35053 0.41587 0.16029
 C297 C -0.12651 0.87436 0.23214
 C298 C -0.10106 0.86093 0.25088
 C299 C -0.07949 0.88044 0.21399
 C300 C -0.16733 0.83719 0.30111
 C301 C -0.10887 0.92697 0.13953
 C302 C -0.13036 0.90744 0.17651
 C303 C -0.14871 0.85414 0.26973
 C304 C -0.08316 0.91365 0.15773
 H305 H -0.09787 0.83533 0.29393
 H306 H -0.06000 0.86942 0.22941
 H307 H -0.11246 0.95249 0.09668
 H308 H -0.14998 0.91810 0.16162
 C309 C 0.62608 0.63478 0.22254
 C310 C 0.60040 0.64721 0.24100
 C311 C 0.57920 0.62683 0.20406
 C312 C 0.66600 0.67202 0.29513
 C313 C 0.60937 0.58169 0.12944
 C314 C 0.63051 0.60214 0.16648
 C315 C 0.64784 0.65508 0.26181
 C316 C 0.58343 0.59362 0.14807
 H317 H 0.59674 0.67246 0.28432
 H318 H 0.55953 0.63682 0.21985
 H319 H 0.61339 0.55630 0.08666
 H320 H 0.65031 0.59226 0.15171
 C321 C 0.12626 1.13491 0.22276
 C322 C 0.10065 1.14755 0.24163
 C323 C 0.07934 1.12733 0.20504
 C324 C 0.16641 1.17164 0.29489
 C325 C 0.10926 1.08197 0.12995
 C326 C 0.13052 1.10225 0.16664
 C327 C 0.14814 1.15496 0.26174
 C328 C 0.08339 1.09409 0.14901
 H329 H 0.09715 1.17282 0.28503
 H330 H 0.05973 1.13747 0.22114
 H331 H 0.11314 1.05655 0.08711
 H332 H 0.15027 1.09221 0.15159
 C333 C 0.62619 0.36222 -0.22197
 C334 C 0.63082 0.39605 -0.16795
 C335 C 0.60979 0.41739 -0.13175
 C336 C 0.66576 0.32385 -0.29446
 C337 C 0.57940 0.37078 -0.20317
 C338 C 0.60046 0.34952 -0.23923
 C339 C 0.64777 0.34119 -0.26096
 C340 C 0.58380 0.40517 -0.14926
 H341 H 0.65068 0.40618 -0.15423
 H342 H 0.61392 0.44367 -0.09054
 H343 H 0.55969 0.36047 -0.21805
 H344 H 0.59665 0.32341 -0.28102
 C345 C 0.12514 0.86187 -0.22005
 C346 C 0.12991 0.89565 -0.16608
 C347 C 0.10897 0.91733 -0.13005
 C348 C 0.16450 0.82299 -0.29248
 C349 C 0.07840 0.87112 -0.20159
 C350 C 0.09936 0.84953 -0.23747
 C351 C 0.14662 0.84055 -0.25895
 C352 C 0.08294 0.90548 -0.14772
 H353 H 0.14981 0.90549 -0.15226
 H354 H 0.11320 0.94357 -0.08885
 H355 H 0.05865 0.86110 -0.21656
 H356 H 0.09546 0.82346 -0.27926
 C357 C 0.37575 0.62964 -0.23324
 C358 C 0.37118 0.59647 -0.17798
 C359 C 0.39225 0.57570 -0.14146
 C360 C 0.33586 0.66872 -0.30240
 C361 C 0.42257 0.62116 -0.21572
 C362 C 0.40146 0.64187 -0.25211
 C363 C 0.35405 0.65100 -0.27076
 C364 C 0.41822 0.58786 -0.15982
 H365 H 0.35134 0.58669 -0.16305
 H366 H 0.38815 0.55018 -0.09883
 H367 H 0.44227 0.63136 -0.23128
 H368 H 0.40521 0.66747 -0.29491
 C369 C -0.12441 1.13263 -0.22961
 C370 C -0.12901 1.09936 -0.17455
 C371 C -0.10797 1.07824 -0.13854
 C372 C -0.16429 1.17215 -0.29798
 C373 C -0.07760 1.12356 -0.21291
 C374 C -0.09869 1.14462 -0.24880
 C375 C -0.14609 1.15427 -0.26667
 C376 C -0.08199 1.09016 -0.15721
 H377 H -0.14886 1.08976 -0.15941
 H378 H -0.11209 1.05265 -0.09604
 H379 H -0.05789 1.13358 -0.22868
 H380 H -0.09493 1.17029 -0.29148
 C381 C 0.62585 0.63857 -0.22300
 C382 C 0.60010 0.65084 -0.24016
 C383 C 0.57911 0.62932 -0.20382
 C384 C 0.66522 0.67731 -0.29636
 C385 C 0.60963 0.58333 -0.13229
 C386 C 0.63059 0.60494 -0.16879
 C387 C 0.64733 0.65980 -0.26241
 C388 C 0.58361 0.59509 -0.14974
 H389 H 0.59622 0.67679 -0.28212
 H390 H 0.55937 0.63927 -0.21863
 H391 H 0.61382 0.55719 -0.09095
 H392 H 0.65048 0.59516 -0.15517
 C393 C 0.12586 1.13812 -0.22271
 C394 C 0.10014 1.15075 -0.23970
 C395 C 0.07908 1.12964 -0.20301
 C396 C 0.16539 1.17611 -0.29661
 C397 C 0.10943 1.08336 -0.13144
 C398 C 0.13047 1.10455 -0.16828
 C399 C 0.14743 1.15894 -0.26245
 C400 C 0.08345 1.09547 -0.14873
 H401 H 0.09636 1.17666 -0.28180
 H402 H 0.05938 1.13986 -0.21773
 H403 H 0.11353 1.05725 -0.08997
 H404 H 0.15032 1.09449 -0.15476
 C405 C 0.37595 0.36777 -0.23337
 C406 C 0.37135 0.40092 -0.17826
 C407 C 0.39239 0.42194 -0.14168
 C408 C 0.33611 0.32845 -0.30286
 C409 C 0.42275 0.37674 -0.21558
 C410 C 0.40167 0.35578 -0.25204
 C411 C 0.35429 0.34625 -0.27105
 C412 C 0.41836 0.41004 -0.15984
 H413 H 0.35151 0.41052 -0.16352
 H414 H 0.38828 0.44746 -0.09917
 H415 H 0.44246 0.36675 -0.23098
 H416 H 0.40543 0.33020 -0.29474
 C417 C -0.12492 0.87054 -0.23238
 C418 C -0.12945 0.90358 -0.17701
 C419 C -0.10837 0.92432 -0.14015
 C420 C -0.16476 0.83153 -0.30254
 C421 C -0.07810 0.87903 -0.21424
 C422 C -0.09922 0.85837 -0.25097
 C423 C -0.14661 0.84925 -0.27039
 C424 C -0.08241 0.91223 -0.15826
 H425 H -0.14928 0.91331 -0.16230
 H426 H -0.11242 0.94975 -0.09747
 H427 H -0.05842 0.86890 -0.22963
 H428 H -0.09551 0.83287 -0.29384
 C429 C 0.37412 0.62496 0.23051
 C430 C 0.39961 0.63828 0.24960
 C431 C 0.42112 0.61896 0.21260
 C432 C 0.33345 0.66178 0.29992
 C433 C 0.39161 0.57285 0.13729
 C434 C 0.37017 0.59220 0.17439
 C435 C 0.35198 0.64496 0.26830
 C436 C 0.41736 0.58605 0.15587
 H437 H 0.40286 0.66363 0.29303
 H438 H 0.44064 0.62988 0.22834
 H439 H 0.38796 0.54757 0.09407
 H440 H 0.35052 0.58162 0.15922
 C441 C -0.12572 1.12683 0.23409
 C442 C -0.10016 1.13990 0.25292
 C443 C -0.07875 1.12056 0.21543
 C444 C -0.16621 1.16380 0.30433
 C445 C -0.10849 1.07492 0.14009
 C446 C -0.12982 1.09429 0.17768
 C447 C -0.14775 1.14690 0.27237
 C448 C -0.08267 1.08786 0.15844
 H449 H -0.09677 1.16508 0.29654
 H450 H -0.05918 1.13128 0.23103
 H451 H -0.11227 1.04980 0.09669
 H452 H -0.14952 1.08391 0.16267
 C453 C 0.62572 0.36569 0.22341
 C454 C 0.60005 0.35253 0.24118
 C455 C 0.57888 0.37259 0.20406
 C456 C 0.66555 0.32924 0.29666
 C457 C 0.60907 0.41883 0.13064
 C458 C 0.63018 0.39870 0.16785
 C459 C 0.64744 0.34581 0.26299
 C460 C 0.58313 0.40619 0.14861
 H461 H 0.59639 0.32699 0.28413
 H462 H 0.55921 0.36206 0.21933
 H463 H 0.61309 0.44454 0.08827
 H464 H 0.64998 0.40914 0.15366
 C465 C 0.12539 0.86560 0.22288
 C466 C 0.09969 0.85287 0.24112
 C467 C 0.07854 0.87322 0.20430
 C468 C 0.16522 0.82846 0.29539
 C469 C 0.10880 0.91891 0.13023
 C470 C 0.12990 0.89849 0.16714
 C471 C 0.14711 0.84535 0.26209
 C472 C 0.08283 0.90669 0.14867
 H473 H 0.09598 0.82742 0.28419
 H474 H 0.05885 0.86300 0.21995
 H475 H 0.11286 0.94451 0.08771
 H476 H 0.14971 0.90860 0.15256
   
