data_POSCAR
  _audit_creation_date              2014-09-24
  _audit_creation_method            'ToBaCCo'
  _symmetry_space_group_name_H-M    'P1'
  _symmetry_Int_Tables_number       1
  _symmetry_cell_setting            triclinic
  loop_
  _symmetry_equiv_pos_as_xyz
 x,y,z
_cell_length_a 38.1794
_cell_length_b 38.2479
_cell_length_c 37.9208
_cell_angle_alpha 90.106000
_cell_angle_beta 90.010600
_cell_angle_gamma 90.074000
loop_
  _atom_site_label
  _atom_site_type_symbol
  _atom_site_fract_x
  _atom_site_fract_y
  _atom_site_fract_z
C1 C 0.16785 0.16849 0.20866
 N2 N 0.19811 0.15534 0.19526
 C3 C 0.21381 0.17009 0.16673
 N4 N 0.19896 0.19878 0.15177
 C5 C 0.16853 0.21212 0.16459
 N6 N 0.15306 0.19671 0.19284
 C7 C -0.16667 0.83312 0.21264
 N8 N -0.15382 0.80282 0.19915
 C9 C -0.16964 0.78683 0.17140
 N10 N -0.19898 0.80119 0.15724
 C11 C -0.21211 0.83172 0.17011
 N12 N -0.19556 0.84754 0.19763
 C13 C -0.16831 0.16456 -0.21101
 N14 N -0.15627 0.19543 -0.19797
 C15 C -0.17236 0.21128 -0.17032
 N16 N -0.20113 0.19613 -0.15577
 C17 C -0.21349 0.16507 -0.16821
 N18 N -0.19671 0.14944 -0.19568
 C19 C 0.17100 0.83050 -0.21225
 N20 N 0.15569 0.80176 -0.19799
 C21 C 0.16906 0.78685 -0.16844
 N22 N 0.19796 0.80102 -0.15308
 C23 C 0.21366 0.82980 -0.16705
 N24 N 0.19991 0.84432 -0.19668
 C25 C 0.16942 1.16840 0.79034
 N26 N 0.15481 1.19771 0.80441
 C27 C 0.16843 1.21296 0.83385
 N28 N 0.19718 1.19850 0.84916
 C29 C 0.21211 1.16924 0.83551
 N30 N 0.19805 1.15435 0.80621
 C31 C 0.83232 0.83443 0.78604
 N32 N 0.84760 0.80617 0.80138
 C33 C 0.83267 0.79034 0.82967
 N34 N 0.80247 0.80342 0.84319
 C35 C 0.78701 0.83184 0.82848
 N36 N 0.80190 0.84699 0.79976
 C37 C 0.16658 0.82938 1.21119
 N38 N 0.19614 0.84285 1.19650
 C39 C 0.21097 0.82757 1.16780
 N40 N 0.19597 0.79854 1.15363
 C41 C 0.16639 0.78464 1.16789
 N42 N 0.15197 0.80030 1.19664
 C43 C 0.83298 1.17093 1.21363
 N44 N 0.84506 1.20118 1.19928
 C45 C 0.82892 1.21598 1.17103
 N46 N 0.79992 1.20028 1.15741
 C47 C 0.78765 1.16986 1.17116
 N48 N 0.80446 1.15523 1.19904
 O49 O 0.45132 1.06273 1.06315
 O50 O 0.41282 1.02786 1.03268
 C51 C 0.41983 1.05286 1.05471
 O52 O 0.54940 1.05961 0.93849
 O53 O 0.58778 1.02696 0.97134
 C54 C 0.58085 1.05003 0.94733
 O55 O 0.45073 1.06223 0.94148
 O56 O 0.41242 1.02899 0.97389
 C57 C 0.41929 1.05327 0.95107
 O58 O 0.54969 1.05932 1.06637
 O59 O 0.58787 1.02731 1.03266
 C60 C 0.58112 1.05022 1.05699
 Zr61 Zr 0.50038 1.04217 1.04718
 O62 O 0.50434 1.09733 1.04902
 O63 O 0.49653 1.04037 1.10286
 Zr64 Zr 0.50009 1.04266 0.95790
 O65 O 0.50389 1.09789 0.95808
 O66 O 0.49618 1.04249 0.90220
 O67 O 0.46908 1.04930 1.00267
 O68 O 0.53059 1.04882 1.00247
 O69 O 0.54954 0.93655 1.06557
 O70 O 0.58782 0.96919 1.03249
 C71 C 0.58099 0.94597 1.05643
 O72 O 0.45061 0.93522 0.94010
 O73 O 0.41235 0.96798 0.97309
 C74 C 0.41919 0.94412 0.94972
 O75 O 0.54898 0.93831 0.93671
 O76 O 0.58749 0.96864 0.97174
 C77 C 0.58049 0.94674 0.94656
 O78 O 0.45092 0.93427 1.06346
 O79 O 0.41260 0.96775 1.03149
 C80 C 0.41943 0.94350 1.05434
 Zr81 Zr 0.50021 0.95379 1.04658
 O82 O 0.50359 0.89856 1.04637
 O83 O 0.49689 0.95411 1.10231
 Zr84 Zr 0.49991 0.95422 0.95739
 O85 O 0.50371 0.89899 0.95813
 O86 O 0.49595 0.95356 0.90173
 Zr87 Zr 0.44816 0.99825 1.00239
 Zr88 Zr 0.55216 0.99823 1.00208
 O89 O 0.53044 0.94762 1.00182
 O90 O 0.46881 0.94716 1.00202
 O91 O 0.53162 0.99795 1.05368
 O92 O 0.46958 0.99850 0.95128
 O93 O 0.46989 0.99799 1.05339
 O94 O 0.53120 0.99846 0.95063
 H95 H 0.54642 1.06937 1.00249
 H96 H 0.45361 0.99868 0.93068
 H97 H 0.54624 0.92709 1.00155
 H98 H 0.45403 0.99798 1.07407
 H99 H 0.51652 1.02942 0.89288
 H100 H 0.51394 0.96976 0.89250
 H101 H 0.48296 0.88991 0.97079
 H102 H 0.48432 0.88964 1.03140
 H103 H 0.51701 0.96777 1.11132
 H104 H 0.51755 1.02816 1.11180
 H105 H 0.48711 1.10674 1.03206
 H106 H 0.48410 1.10701 0.97218
 O107 O 0.05864 0.54878 -0.06505
 O108 O 0.02656 0.58705 -0.03148
 C109 C 0.04962 0.58019 -0.05563
 O110 O -0.06816 0.45122 -0.06302
 O111 O -0.03447 0.41258 -0.03166
 C112 C -0.05900 0.41969 -0.05417
 O113 O -0.06397 0.54974 -0.06567
 O114 O -0.03154 0.58748 -0.03171
 C115 C -0.05442 0.58102 -0.05616
 O116 O 0.06098 0.45045 -0.06263
 O117 O 0.02575 0.41224 -0.03238
 C118 C 0.05084 0.41907 -0.05437
 Zr119 Zr 0.04096 0.49960 -0.04628
 O120 O 0.03975 0.49604 -0.10200
 O121 O 0.09629 0.50309 -0.04724
 Zr122 Zr -0.04758 0.50023 -0.04656
 O123 O -0.04653 0.49660 -0.10227
 O124 O -0.10284 0.50459 -0.04750
 O125 O -0.00301 0.53119 -0.05303
 O126 O -0.00356 0.46956 -0.05309
 O127 O 0.06063 0.44954 0.05846
 O128 O 0.02623 0.41173 0.02664
 C129 C 0.05099 0.41825 0.04913
 O130 O -0.06473 0.54872 0.06236
 O131 O -0.03209 0.58700 0.02944
 C132 C -0.05531 0.58013 0.05343
 O133 O -0.06855 0.45069 0.05839
 O134 O -0.03442 0.41230 0.02707
 C135 C -0.05911 0.41927 0.04949
 O136 O 0.05846 0.54791 0.06258
 O137 O 0.02624 0.58665 0.02977
 C138 C 0.04931 0.57943 0.05378
 Zr139 Zr 0.04074 0.49899 0.04299
 O140 O 0.03915 0.49474 0.09864
 O141 O 0.09606 0.50239 0.04447
 Zr142 Zr -0.04784 0.49967 0.04265
 O143 O -0.04695 0.49546 0.09831
 O144 O -0.10311 0.50388 0.04331
 Zr145 Zr -0.00298 0.55154 -0.00131
 Zr146 Zr -0.00384 0.44772 -0.00219
 O147 O -0.00381 0.46889 0.04905
 O148 O -0.00330 0.53051 0.05002
 O149 O 0.04749 0.46814 -0.00190
 O150 O -0.05385 0.53029 -0.00173
 O151 O 0.04752 0.52952 -0.00136
 O152 O -0.05482 0.46887 -0.00222
 H153 H -0.00369 0.45374 -0.07381
 H154 H -0.07433 0.54618 -0.00172
 H155 H -0.00393 0.45275 0.06945
 H156 H 0.06829 0.54507 -0.00118
 H157 H -0.11237 0.48587 -0.03232
 H158 H -0.11250 0.48552 0.02752
 H159 H -0.03369 0.51573 0.10757
 H160 H 0.02691 0.51564 0.10783
 H161 H 0.10531 0.48436 0.02825
 H162 H 0.10545 0.48468 -0.03147
 H163 H 0.02746 0.51698 -0.11093
 H164 H -0.03303 0.51684 -0.11116
 O165 O 0.94169 0.06409 0.55039
 O166 O 0.97417 0.03049 0.58835
 C167 C 0.95050 0.05387 0.58185
 O168 O 0.94107 -0.06041 0.44992
 O169 O 0.97267 -0.02666 0.41138
 C170 C 0.94990 -0.05087 0.41827
 O171 O 0.93796 -0.05688 0.54917
 O172 O 0.97380 -0.02742 0.58766
 C173 C 0.94835 -0.04883 0.58081
 O174 O 0.94432 0.06846 0.45099
 O175 O 0.97435 0.03383 0.41195
 C176 C 0.95266 0.05887 0.41916
 Zr177 Zr 0.96032 0.04756 0.50031
 O178 O 0.90499 0.04853 0.49674
 O179 O 0.96141 0.10272 0.50489
 Zr180 Zr 0.95797 -0.04094 0.49952
 O181 O 0.90267 -0.03936 0.49573
 O182 O 0.95636 -0.09613 0.50336
 O183 O 0.95259 0.00324 0.53137
 O184 O 0.95237 0.00369 0.46938
 O185 O 1.06586 0.06442 0.44979
 O186 O 1.03281 0.03176 0.41134
 C187 C 1.05606 0.05553 0.41817
 O188 O 1.06585 -0.06091 0.54808
 O189 O 1.03397 -0.02806 0.58717
 C190 C 1.05729 -0.05160 0.57991
 O191 O 1.06163 -0.06323 0.44892
 O192 O 1.03147 -0.02764 0.41092
 C193 C 1.05308 -0.05295 0.41744
 O194 O 1.06873 0.06203 0.54900
 O195 O 1.03489 0.03053 0.58758
 C196 C 1.05942 0.05298 0.58065
 Zr197 Zr 1.04891 0.04526 0.49950
 O198 O 1.10419 0.04317 0.49558
 O199 O 1.05058 0.10046 0.50335
 Zr200 Zr 1.04653 -0.04314 0.49880
 O201 O 1.10181 -0.04372 0.49438
 O202 O 1.04570 -0.09837 0.50221
 Zr203 Zr 1.00393 0.00176 0.55186
 Zr204 Zr 1.00284 0.00260 0.44721
 O205 O 1.05376 0.00109 0.46852
 O206 O 1.05491 0.00069 0.53059
 O207 O 1.00452 0.05351 0.46854
 O208 O 1.00235 -0.04867 0.52965
 O209 O 1.00500 0.05253 0.53054
 O210 O 1.00180 -0.04863 0.46766
 H211 H 0.93180 0.00430 0.45345
 H212 H 1.00193 -0.06932 0.54538
 H213 H 1.07421 0.00061 0.45244
 H214 H 1.00544 0.07296 0.54664
 H215 H 0.97058 -0.10568 0.48380
 H216 H 1.03013 -0.10709 0.48328
 H217 H 1.11139 -0.03066 0.51476
 H218 H 1.11290 0.02962 0.51596
 H219 H 1.03650 0.10998 0.48369
 H220 H 0.97674 0.11169 0.48593
 H221 H 0.89566 0.03503 0.51689
 H222 H 0.89400 -0.02483 0.51548
 C223 C 1.12060 0.12231 0.29830
 C224 C 1.15354 0.11099 0.28667
 C225 C 1.16897 0.12592 0.25687
 C226 C 1.15209 0.15310 0.23841
 C227 C 1.11912 0.16457 0.25057
 C228 C 1.10344 0.14907 0.27994
 C229 C 1.10394 0.10585 0.32928
 C230 C 1.06971 0.09267 0.32689
 C231 C 1.05422 0.07624 0.35582
 C232 C 1.07246 0.07332 0.38788
 C233 C 1.10649 0.08707 0.39045
 C234 C 1.12225 0.10287 0.36125
 H235 H 1.19434 0.11627 0.24861
 H236 H 1.10511 0.18531 0.23725
 H237 H 1.02787 0.06603 0.35319
 H238 H 1.12113 0.08503 0.41483
 H239 H 1.07802 0.15825 0.28861
 H240 H 1.05520 0.09457 0.30242
 H241 H 1.16709 0.09018 0.30035
 H242 H 1.14864 0.11302 0.36365
 C243 C 0.88243 -0.11836 0.30015
 C244 C 0.89332 -0.15147 0.28874
 C245 C 0.87747 -0.16731 0.25958
 C246 C 0.84972 -0.15068 0.24166
 C247 C 0.83869 -0.11754 0.25363
 C248 C 0.85515 -0.10144 0.28229
 C249 C 0.89975 -0.10129 0.33042
 C250 C 0.91400 -0.06768 0.32680
 C251 C 0.93070 -0.05155 0.35526
 C252 C 0.93272 -0.06838 0.38811
 C253 C 0.91819 -0.10195 0.39177
 C254 C 0.90217 -0.11844 0.36302
 H255 H 0.88680 -0.19281 0.25144
 H256 H 0.81755 -0.10371 0.24070
 H257 H 0.94169 -0.02573 0.35166
 H258 H 0.91955 -0.11562 0.41672
 H259 H 0.84633 -0.07588 0.29082
 H260 H 0.91257 -0.05412 0.30178
 H261 H 0.91450 -0.16483 0.30210
 H262 H 0.89125 -0.14437 0.36631
 C263 C 0.88153 0.11701 0.70141
 C264 C 0.85462 0.09950 0.71933
 C265 C 0.83797 0.11521 0.74810
 C266 C 0.84840 0.14859 0.76005
 C267 C 0.87585 0.16575 0.74215
 C268 C 0.89194 0.15026 0.71298
 C269 C 0.89878 0.10066 0.67066
 C270 C 0.90212 0.11914 0.63888
 C271 C 0.91852 0.10376 0.60980
 C272 C 0.93251 0.06992 0.61227
 C273 C 0.92930 0.05150 0.64415
 C274 C 0.91227 0.06663 0.67299
 H275 H 0.81709 0.10097 0.76104
 H276 H 0.88478 0.19141 0.75030
 H277 H 0.92074 0.11854 0.58556
 H278 H 0.93966 0.02527 0.64668
 H279 H 0.91285 0.16410 0.69964
 H280 H 0.89171 0.14537 0.63649
 H281 H 0.84612 0.07384 0.71070
 H282 H 0.91009 0.05199 0.69732
 C283 C 1.12493 -0.12014 0.69728
 C284 C 1.14602 -0.10085 0.72058
 C285 C 1.16159 -0.11709 0.74957
 C286 C 1.15573 -0.15276 0.75620
 C287 C 1.13461 -0.17204 0.73282
 C288 C 1.11965 -0.15593 0.70338
 C289 C 1.10782 -0.10269 0.66714
 C290 C 1.11146 -0.11601 0.63283
 C291 C 1.09540 -0.09922 0.60438
 C292 C 1.07484 -0.06920 0.60985
 C293 C 1.07082 -0.05634 0.64438
 C294 C 1.08749 -0.07268 0.67266
 H295 H 1.17761 -0.10154 0.76721
 H296 H 1.12977 -0.19959 0.73721
 H297 H 1.09882 -0.10997 0.57816
 H298 H 1.05476 -0.03364 0.64964
 H299 H 1.10331 -0.17122 0.68579
 H300 H 1.12710 -0.13915 0.62805
 H301 H 1.15051 -0.07322 0.71622
 H302 H 1.08404 -0.06222 0.69900
 C303 C 0.30326 1.12288 1.12097
 C304 C 0.29135 1.15531 1.10868
 C305 C 0.26197 1.17112 1.12389
 C306 C 0.24426 1.15508 1.15223
 C307 C 0.25716 1.12298 1.16508
 C308 C 0.28604 1.10694 1.14935
 C309 C 0.33311 1.10521 1.10377
 C310 C 0.32969 1.07060 1.09189
 C311 C 0.35778 1.05375 1.07555
 C312 C 0.39004 1.07098 1.07147
 C313 C 0.39351 1.10557 1.08356
 C314 C 0.36514 1.12268 1.09923
 H315 H 0.25316 1.19585 1.11324
 H316 H 0.24453 1.10966 1.18682
 H317 H 0.35442 1.02704 1.06658
 H318 H 0.41805 1.11950 1.08054
 H319 H 0.29503 1.08201 1.15938
 H320 H 0.30512 1.05674 1.09496
 H321 H 0.30428 1.16799 1.08672
 H322 H 0.36831 1.14937 1.10831
 C323 C 0.30205 0.87582 0.88222
 C324 C 0.28412 0.84829 0.89862
 C325 C 0.25536 0.83259 0.88211
 C326 C 0.24333 0.84474 0.84916
 C327 C 0.26151 0.87256 0.83297
 C328 C 0.29075 0.88761 0.84917
 C329 C 0.33223 0.89265 0.89974
 C330 C 0.36458 0.89518 0.88238
 C331 C 0.39304 0.91146 0.89885
 C332 C 0.38936 0.92620 0.93263
 C333 C 0.35682 0.92388 0.94979
 C334 C 0.32863 0.90687 0.93367
 H335 H 0.24225 0.81133 0.89559
 H336 H 0.25338 0.88273 0.80762
 H337 H 0.41775 0.91303 0.88492
 H338 H 0.35326 0.93500 0.97576
 H339 H 0.30420 0.90896 0.83618
 H340 H 0.36785 0.88432 0.85619
 H341 H 0.29258 0.83878 0.92412
 H342 H 0.30379 0.90536 0.94739
 C343 C 0.69883 0.87883 1.12351
 C344 C 0.70929 0.84521 1.11319
 C345 C 0.73877 0.82964 1.12839
 C346 C 0.75800 0.84711 1.15488
 C347 C 0.74678 0.88063 1.16557
 C348 C 0.71780 0.89641 1.14976
 C349 C 0.66855 0.89591 1.10650
 C350 C 0.67235 0.92906 1.09121
 C351 C 0.64393 0.94518 1.07474
 C352 C 0.61096 0.92883 1.07399
 C353 C 0.60712 0.89576 1.08966
 C354 C 0.63579 0.87926 1.10544
 H355 H 0.74628 0.80381 1.11941
 H356 H 0.76066 0.89512 1.18579
 H357 H 0.64772 0.97056 1.06280
 H358 H 0.58209 0.88241 1.08926
 H359 H 0.71001 0.92234 1.15818
 H360 H 0.69748 0.94224 1.09158
 H361 H 0.69503 0.83129 1.09283
 H362 H 0.63234 0.85370 1.11719
 C363 C 0.69855 1.11649 0.87920
 C364 C 0.71758 1.09916 0.85284
 C365 C 0.74628 1.11534 0.83684
 C366 C 0.75711 1.14907 0.84738
 C367 C 0.73791 1.16623 0.87405
 C368 C 0.70879 1.15022 0.88949
 C369 C 0.66824 1.09928 0.89614
 C370 C 0.63600 1.11668 0.89880
 C371 C 0.60737 1.10043 0.91490
 C372 C 0.61071 1.06676 0.92926
 C373 C 0.64305 1.04941 0.92669
 C374 C 0.67145 1.06541 0.90997
 H375 H 0.76018 1.10108 0.81650
 H376 H 0.74514 1.19217 0.88297
 H377 H 0.58280 1.11443 0.91666
 H378 H 0.64629 1.02337 0.93739
 H379 H 0.69455 1.16397 0.90995
 H380 H 0.63292 1.14275 0.88814
 H381 H 0.70998 1.07317 0.84437
 H382 H 0.69614 1.05158 0.90833
 C383 C 0.11980 0.30052 0.11472
 C384 C 0.15559 0.29382 0.10959
 C385 C 0.17146 0.26499 0.12562
 C386 C 0.15193 0.24269 0.14757
 C387 C 0.11620 0.24974 0.15299
 C388 C 0.10025 0.27819 0.13650
 C389 C 0.10272 0.33059 0.09730
 C390 C 0.07102 0.32599 0.07913
 C391 C 0.05453 0.35437 0.06306
 C392 C 0.06909 0.38809 0.06537
 C393 C 0.10091 0.39264 0.08351
 C394 C 0.11770 0.36409 0.09909
 H395 H 0.19905 0.26030 0.12103
 H396 H 0.10041 0.23300 0.16964
 H397 H 0.03018 0.34992 0.04914
 H398 H 0.11290 0.41823 0.08559
 H399 H 0.07266 0.28300 0.14104
 H400 H 0.05914 0.30033 0.07713
 H401 H 0.17114 0.31060 0.09274
 H402 H 0.14207 0.36827 0.11311
 C403 C -0.12719 0.30307 -0.12295
 C404 C -0.10727 0.28179 -0.14545
 C405 C -0.12229 0.25257 -0.16158
 C406 C -0.15744 0.24368 -0.15506
 C407 C -0.17752 0.26527 -0.13285
 C408 C -0.16259 0.29492 -0.11719
 C409 C -0.11052 0.33296 -0.10471
 C410 C -0.12555 0.36641 -0.10584
 C411 C -0.10887 0.39473 -0.08946
 C412 C -0.07721 0.38989 -0.07113
 C413 C -0.06274 0.35615 -0.06939
 C414 C -0.07905 0.32808 -0.08628
 H415 H -0.10607 0.23645 -0.17845
 H416 H -0.20469 0.25913 -0.12743
 H417 H -0.12079 0.42035 -0.09108
 H418 H -0.03855 0.35145 -0.05532
 H419 H -0.17838 0.31094 -0.09981
 H420 H -0.14982 0.37072 -0.11997
 H421 H -0.07997 0.28775 -0.15045
 H422 H -0.06718 0.30241 -0.08477
 C423 C 0.11857 0.69752 -0.12204
 C424 C 0.09982 0.72008 -0.14423
 C425 C 0.11638 0.74881 -0.15972
 C426 C 0.15185 0.75590 -0.15274
 C427 C 0.17055 0.73335 -0.13039
 C428 C 0.15414 0.70421 -0.11546
 C429 C 0.10087 0.66738 -0.10537
 C430 C 0.11543 0.63376 -0.10753
 C431 C 0.09855 0.60531 -0.09181
 C432 C 0.06712 0.61008 -0.07307
 C433 C 0.05284 0.64387 -0.07068
 C434 C 0.06934 0.67215 -0.08699
 H435 H 0.10125 0.76578 -0.17671
 H436 H 0.19794 0.73808 -0.12464
 H437 H 0.11035 0.57966 -0.09395
 H438 H 0.02885 0.64847 -0.05626
 H439 H 0.16903 0.68724 -0.09825
 H440 H 0.13968 0.62950 -0.12170
 H441 H 0.07239 0.71530 -0.14978
 H442 H 0.05780 0.69792 -0.08475
 C443 C -0.12244 0.69674 0.12308
 C444 C -0.10239 0.71952 0.14395
 C445 C -0.11799 0.74825 0.16035
 C446 C -0.15385 0.75516 0.15563
 C447 C -0.17395 0.73224 0.13481
 C448 C -0.15843 0.70304 0.11898
 C449 C -0.10555 0.66687 0.10512
 C450 C -0.11903 0.63294 0.10878
 C451 C -0.10252 0.60468 0.09229
 C452 C -0.07259 0.60996 0.07130
 C453 C -0.05959 0.64412 0.06720
 C454 C -0.07566 0.67222 0.08428
 H455 H -0.10177 0.76553 0.17606
 H456 H -0.20164 0.73688 0.13078
 H457 H -0.11339 0.57875 0.09578
 H458 H -0.03696 0.64921 0.05083
 H459 H -0.17432 0.68582 0.10285
 H460 H -0.14202 0.62826 0.12483
 H461 H -0.07462 0.71500 0.14761
 H462 H -0.06505 0.69827 0.08083
 C463 C 1.12533 0.12028 0.69986
 C464 C 1.11303 0.15286 0.71142
 C465 C 1.12736 0.16870 0.74141
 C466 C 1.15496 0.15261 0.76005
 C467 C 1.16760 0.12015 0.74775
 C468 C 1.15263 0.10402 0.71827
 C469 C 1.10920 0.10288 0.66906
 C470 C 1.09532 0.06907 0.67231
 C471 C 1.07910 0.05290 0.64355
 C472 C 1.07725 0.06989 0.61079
 C473 C 1.09176 0.10351 0.60741
 C474 C 1.10723 0.12005 0.63645
 H475 H 1.11686 0.19367 0.74975
 H476 H 1.18871 0.10675 0.76116
 H477 H 1.06813 0.02705 0.64690
 H478 H 1.09047 0.11731 0.58253
 H479 H 1.16253 0.07889 0.70965
 H480 H 1.09645 0.05547 0.69732
 H481 H 1.09182 0.16572 0.69761
 H482 H 1.11788 0.14613 0.63343
 C483 C 0.88020 -0.11597 0.69858
 C484 C 0.84691 -0.10546 0.71003
 C485 C 0.83113 -0.12166 0.73899
 C486 C 0.84805 -0.14928 0.75675
 C487 C 0.88127 -0.16004 0.74463
 C488 C 0.89725 -0.14332 0.71613
 C489 C 0.89732 -0.09829 0.66852
 C490 C 0.93170 -0.08569 0.67177
 C491 C 0.94806 -0.06915 0.64339
 C492 C 0.93056 -0.06552 0.61099
 C493 C 0.89616 -0.07824 0.60772
 C494 C 0.87955 -0.09417 0.63638
 H495 H 0.80556 -0.11255 0.74724
 H496 H 0.89532 -0.18110 0.75739
 H497 H 0.97464 -0.05973 0.64663
 H498 H 0.88202 -0.07563 0.58311
 H499 H 0.92287 -0.15198 0.70754
 H500 H 0.94580 -0.08841 0.69641
 H501 H 0.83338 -0.08428 0.69691
 H502 H 0.85305 -0.10384 0.63329
 C503 C 1.11889 -0.12151 0.29911
 C504 C 1.10640 -0.15376 0.28678
 C505 C 1.12200 -0.16991 0.25768
 C506 C 1.15099 -0.15446 0.24065
 C507 C 1.16373 -0.12229 0.25365
 C508 C 1.14759 -0.10586 0.28229
 C509 C 1.10183 -0.10409 0.32936
 C510 C 1.09059 -0.06928 0.32660
 C511 C 1.07422 -0.05284 0.35509
 C512 C 1.06948 -0.07072 0.38708
 C513 C 1.08097 -0.10548 0.38990
 C514 C 1.09667 -0.12215 0.36113
 H515 H 1.11133 -0.19464 0.24875
 H516 H 1.18590 -0.10939 0.24146
 H517 H 1.06578 -0.02596 0.35228
 H518 H 1.07752 -0.11986 0.41423
 H519 H 1.15773 -0.08103 0.29158
 H520 H 1.09417 -0.05496 0.30224
 H521 H 1.08416 -0.16619 0.29934
 H522 H 1.10527 -0.14899 0.36381
 C523 C 0.88391 0.12587 0.30174
 C524 C 0.85707 0.10773 0.28431
 C525 C 0.83991 0.12276 0.25556
 C526 C 0.84985 0.15601 0.24300
 C527 C 0.87707 0.17396 0.26061
 C528 C 0.89359 0.15918 0.28992
 C529 C 0.90228 0.10954 0.33171
 C530 C 0.90305 0.12585 0.36489
 C531 C 0.91942 0.10949 0.39347
 C532 C 0.93594 0.07693 0.38906
 C533 C 0.93590 0.06125 0.35549
 C534 C 0.91885 0.07717 0.32723
 H535 H 0.81922 0.10794 0.24291
 H536 H 0.88552 0.19962 0.25204
 H537 H 0.91922 0.12233 0.41895
 H538 H 0.94860 0.03635 0.35112
 H539 H 0.91439 0.17347 0.30300
 H540 H 0.89036 0.15087 0.36878
 H541 H 0.84923 0.08197 0.29316
 H542 H 0.91876 0.06433 0.30174
 C543 C 0.12003 0.30189 -0.12058
 C544 C 0.10435 0.28459 -0.14915
 C545 C 0.12063 0.25570 -0.16468
 C546 C 0.15265 0.24289 -0.15140
 C547 C 0.16822 0.26050 -0.12265
 C548 C 0.15224 0.28987 -0.10770
 C549 C 0.10242 0.33202 -0.10378
 C550 C 0.12017 0.36388 -0.09926
 C551 C 0.10331 0.39238 -0.08353
 C552 C 0.06869 0.38920 -0.07134
 C553 C 0.05117 0.35713 -0.07552
 C554 C 0.06774 0.32893 -0.09195
 H555 H 0.10764 0.24309 -0.18669
 H556 H 0.19286 0.25176 -0.11162
 H557 H 0.11748 0.41675 -0.08049
 H558 H 0.02448 0.35396 -0.06646
 H559 H 0.16468 0.30281 -0.08555
 H560 H 0.14693 0.36680 -0.10829
 H561 H 0.07954 0.29360 -0.15957
 H562 H 0.05367 0.30450 -0.09500
 C563 C -0.12670 0.30431 0.12072
 C564 C -0.15965 0.29182 0.11032
 C565 C -0.17456 0.26288 0.12711
 C566 C -0.15707 0.24621 0.15521
 C567 C -0.12449 0.25980 0.16628
 C568 C -0.10935 0.28823 0.14893
 C569 C -0.10994 0.33356 0.10171
 C570 C -0.07599 0.32973 0.08808
 C571 C -0.05984 0.35736 0.07036
 C572 C -0.07704 0.38959 0.06663
 C573 C -0.11107 0.39338 0.08026
 C574 C -0.12754 0.36544 0.09732
 H575 H -0.19972 0.25353 0.11782
 H576 H -0.11008 0.24799 0.18777
 H577 H -0.03359 0.35374 0.06023
 H578 H -0.12497 0.41790 0.07762
 H579 H -0.08399 0.29771 0.15753
 H580 H -0.06207 0.30524 0.09101
 H581 H -0.17343 0.30391 0.08855
 H582 H -0.15373 0.36890 0.10771
 C583 C -0.11923 0.70002 -0.12353
 C584 C -0.15513 0.70637 -0.11892
 C585 C -0.17071 0.73589 -0.13387
 C586 C -0.15079 0.75924 -0.15429
 C587 C -0.11493 0.75256 -0.15928
 C588 C -0.09924 0.72340 -0.14375
 C589 C -0.10251 0.66941 -0.10677
 C590 C -0.07210 0.67370 -0.08646
 C591 C -0.05666 0.64502 -0.06990
 C592 C -0.07088 0.61130 -0.07391
 C593 C -0.10118 0.60701 -0.09457
 C594 C -0.11703 0.63587 -0.11059
 H595 H -0.19842 0.74026 -0.12971
 H596 H -0.09890 0.77012 -0.17479
 H597 H -0.03358 0.64931 -0.05393
 H598 H -0.11291 0.58144 -0.09803
 H599 H -0.07151 0.71891 -0.14776
 H600 H -0.06066 0.69939 -0.08288
 H601 H -0.17098 0.68880 -0.10322
 H602 H -0.14044 0.63198 -0.12625
 C603 C 0.11788 0.69602 0.12173
 C604 C 0.15078 0.70728 0.10986
 C605 C 0.16680 0.73660 0.12494
 C606 C 0.15055 0.75487 0.15284
 C607 C 0.11779 0.74283 0.16508
 C608 C 0.10151 0.71402 0.14939
 C609 C 0.10028 0.66598 0.10481
 C610 C 0.06643 0.66972 0.09095
 C611 C 0.04996 0.64161 0.07421
 C612 C 0.06669 0.60901 0.07179
 C613 C 0.10041 0.60515 0.08616
 C614 C 0.11723 0.63355 0.10217
 H615 H 0.19200 0.74477 0.11474
 H616 H 0.10426 0.75597 0.18641
 H617 H 0.02404 0.64531 0.06336
 H618 H 0.11401 0.58038 0.08444
 H619 H 0.07614 0.70560 0.15899
 H620 H 0.05300 0.69461 0.09257
 H621 H 0.16374 0.69377 0.08840
 H622 H 0.14334 0.63016 0.11280
 C623 C 0.30156 1.12215 0.88543
 C624 C 0.28019 1.14551 0.90422
 C625 C 0.25141 1.16122 0.88788
 C626 C 0.24311 1.15339 0.85261
 C627 C 0.26448 1.12990 0.83390
 C628 C 0.29357 1.11466 0.85007
 C629 C 0.33193 1.10530 0.90268
 C630 C 0.36470 1.10464 0.88591
 C631 C 0.39325 1.08821 0.90189
 C632 C 0.38939 1.07160 0.93469
 C633 C 0.35658 1.07231 0.95148
 C634 C 0.32819 1.08926 0.93575
 H635 H 0.23538 1.17913 0.90302
 H636 H 0.25884 1.12340 0.80668
 H637 H 0.41819 1.08801 0.88830
 H638 H 0.35289 1.05990 0.97687
 H639 H 0.30953 1.09652 0.83513
 H640 H 0.36826 1.11705 0.86050
 H641 H 0.28598 1.15183 0.93146
 H642 H 0.30310 1.08926 0.94909
 C643 C 0.30173 0.87427 1.12014
 C644 C 0.29527 0.87863 1.15630
 C645 C 0.26574 0.86345 1.17183
 C646 C 0.24262 0.84299 1.15159
 C647 C 0.24960 0.83802 1.11555
 C648 C 0.27869 0.85386 1.09988
 C649 C 0.33195 0.89173 1.10335
 C650 C 0.32680 0.91360 1.07418
 C651 C 0.35516 0.93072 1.05859
 C652 C 0.38939 0.92558 1.07127
 C653 C 0.39447 0.90348 1.10045
 C654 C 0.36595 0.88699 1.11655
 H655 H 0.26105 0.86760 1.19969
 H656 H 0.23214 0.82251 1.09929
 H657 H 0.35019 0.94801 1.03662
 H658 H 0.42044 0.89916 1.11106
 H659 H 0.28330 0.85013 1.07194
 H660 H 0.30071 0.91791 1.06386
 H661 H 0.31267 0.89443 1.17232
 H662 H 0.37042 0.87019 1.13907
 C663 C 0.69859 1.11881 1.12434
 C664 C 0.72282 1.09962 1.14429
 C665 C 0.75145 1.11632 1.15998
 C666 C 0.75677 1.15241 1.15542
 C667 C 0.73255 1.17154 1.13531
 C668 C 0.70353 1.15494 1.12020
 C669 C 0.66846 1.10107 1.10750
 C670 C 0.63439 1.11412 1.11181
 C671 C 0.60595 1.09734 1.09582
 C672 C 0.61113 1.06753 1.07467
 C673 C 0.64537 1.05478 1.07012
 C674 C 0.67369 1.07116 1.08669
 H675 H 0.76975 1.10086 1.17521
 H676 H 0.73590 1.19939 1.13144
 H677 H 0.57997 1.10799 1.09970
 H678 H 0.65036 1.03219 1.05369
 H679 H 0.68526 1.17020 1.10474
 H680 H 0.62977 1.13711 1.12786
 H681 H 0.71940 1.07175 1.14795
 H682 H 0.69981 1.06085 1.08272
 C683 C 0.69688 0.87918 0.87695
 C684 C 0.70528 0.88659 0.84171
 C685 C 0.73436 0.87096 0.82577
 C686 C 0.75523 0.84719 0.84463
 C687 C 0.74622 0.83917 0.87964
 C688 C 0.71750 0.85521 0.89571
 C689 C 0.66710 0.89685 0.89443
 C690 C 0.67148 0.91225 0.92778
 C691 C 0.64345 0.92886 0.94447
 C692 C 0.61031 0.92994 0.92836
 C693 C 0.60593 0.91450 0.89497
 C694 C 0.63416 0.89836 0.87803
 H695 H 0.74058 0.87760 0.79873
 H696 H 0.76181 0.82107 0.89494
 H697 H 0.64763 0.94043 0.97023
 H698 H 0.58074 0.91505 0.88186
 H699 H 0.71133 0.84887 0.92284
 H700 H 0.69673 0.91168 0.94080
 H701 H 0.68983 0.90512 0.82678
 H702 H 0.63015 0.88653 0.85237
   
