data_POSCAR
  _audit_creation_date              2014-09-24
  _audit_creation_method            'ToBaCCo'
  _symmetry_space_group_name_H-M    'P1'
  _symmetry_Int_Tables_number       1
  _symmetry_cell_setting            triclinic
  loop_
  _symmetry_equiv_pos_as_xyz
 x,y,z
_cell_length_a 41.0639
_cell_length_b 41.0639
_cell_length_c 41.0639
_cell_angle_alpha 90.000000
_cell_angle_beta 90.000000
_cell_angle_gamma 90.000000
loop_
  _atom_site_label
  _atom_site_type_symbol
  _atom_site_fract_x
  _atom_site_fract_y
  _atom_site_fract_z
C1 C 0.16168 1.20465 0.15781
 C2 C 0.14555 1.19285 0.18695
 C3 C 0.15589 1.16446 0.20551
 C4 C 0.18381 1.14725 0.19304
 C5 C 0.20145 1.15637 0.16375
 C6 C 0.18945 1.18497 0.14718
 H7 H 0.12465 1.20617 0.19570
 H8 H 0.19237 1.12694 0.20735
 H9 H 0.20177 1.19073 0.12481
 C10 C 0.83873 0.79432 0.16198
 C11 C 0.85066 0.80871 0.19183
 C12 C 0.83920 0.83823 0.20642
 C13 C 0.81120 0.85259 0.19122
 C14 C 0.79552 0.83956 0.16215
 C15 C 0.80988 0.80998 0.14834
 H16 H 0.86922 0.79598 0.20536
 H17 H 0.80176 0.87465 0.20206
 H18 H 0.79969 0.80040 0.12602
 C19 C 0.83736 1.20698 -0.16222
 C20 C 0.80885 1.19240 -0.14785
 C21 C 0.79286 1.16335 -0.16064
 C22 C 0.80823 1.14772 -0.18865
 C23 C 0.83836 1.15946 -0.20311
 C24 C 0.85101 1.18920 -0.18920
 H25 H 0.79793 1.20468 -0.12726
 H26 H 0.79701 1.12609 -0.19867
 H27 H 0.87270 1.19907 -0.20005
 C28 C 0.15371 0.79524 -0.16364
 C29 C 0.18232 0.80688 -0.14691
 C30 C 0.20084 0.83550 -0.15646
 C31 C 0.18936 0.85209 -0.18519
 C32 C 0.16143 0.84196 -0.20476
 C33 C 0.14448 0.81346 -0.19270
 H34 H 0.19006 0.79319 -0.12591
 H35 H 0.20216 0.87413 -0.19115
 H36 H 0.12431 0.80472 -0.20697
 C37 C 0.53725 1.05916 -0.02368
 H38 H 0.52071 1.07195 -0.00764
 C39 C 0.56390 1.07701 -0.03803
 H40 H 0.56560 1.10251 -0.03188
 C41 C 0.55582 1.01125 -0.04777
 H42 H 0.55406 0.98520 -0.05134
 C43 C 0.58287 1.02838 -0.06274
 H44 H 0.59970 1.01463 -0.07763
 N45 N 0.53284 1.02632 -0.02832
 C46 C 0.45599 1.01762 0.05971
 H47 H 0.47063 0.99935 0.07179
 C48 C 0.42822 1.03079 0.07677
 H49 H 0.42400 1.02242 0.10138
 C50 C 0.44314 1.04857 0.01388
 H51 H 0.44746 1.05528 -0.01123
 C52 C 0.41517 1.06259 0.03034
 H53 H 0.39989 1.07946 0.01707
 Zn54 Zn 0.49836 0.99807 -0.00019
 N55 N 0.46360 1.02595 0.02817
 C56 C 0.54714 0.98474 0.05501
 N57 N 0.53300 0.97037 0.02828
 C58 C 0.54763 0.94192 0.01772
 C59 C 0.57607 0.92782 0.03339
 C60 C 0.57543 0.97160 0.07108
 C61 C 0.44342 0.98389 -0.05046
 C62 C 0.41537 0.96747 -0.06426
 C63 C 0.42836 0.92114 -0.03223
 C64 C 0.45623 0.93816 -0.01927
 N65 N 0.46386 0.96961 -0.02784
 H66 H 0.53734 1.00763 0.06363
 H67 H 0.53832 0.93032 -0.00402
 H68 H 0.58662 0.90599 0.02307
 H69 H 0.58485 0.98486 0.09179
 H70 H 0.44778 1.00896 -0.05726
 H71 H 0.40005 0.98070 -0.08114
 H72 H 0.42404 0.89661 -0.02370
 H73 H 0.47088 0.92616 -0.00096
 C74 C 0.40604 1.05357 0.06255
 C75 C 0.58816 1.06238 -0.05845
 C76 C 0.40620 0.93537 -0.05499
 C77 C 0.59170 0.94271 0.06055
 C78 C -0.02606 0.54099 1.06057
 H79 H -0.00836 0.52636 1.07349
 C80 C -0.04004 0.56875 1.07687
 H81 H -0.03278 0.57321 1.10181
 C82 C -0.05483 0.55378 1.01324
 H83 H -0.06020 0.54942 0.98781
 C84 C -0.06962 0.58171 1.02890
 H85 H -0.08576 0.59705 1.01479
 N86 N -0.03290 0.53346 1.02869
 C87 C 0.00856 0.43978 1.04611
 H88 H -0.01772 0.44031 1.04785
 C89 C 0.02564 0.41227 1.06028
 H90 H 0.01151 0.39357 1.07231
 C91 C 0.05728 0.46181 1.02708
 H92 H 0.07058 0.48015 1.01363
 C93 C 0.07514 0.43488 1.04097
 H94 H 0.10129 0.43522 1.03812
 Zn95 Zn -0.00433 0.49922 1.00120
 N96 N 0.02398 0.46446 1.02915
 C97 C 0.04539 0.55488 0.98728
 N98 N 0.02336 0.53391 0.97282
 C99 C 0.01561 0.54085 0.94099
 C100 C 0.02883 0.56846 0.92375
 C101 C 0.05943 0.58271 0.97065
 C102 C -0.06009 0.45007 0.98391
 C103 C -0.07483 0.42254 0.96741
 C104 C -0.03221 0.42485 0.92839
 C105 C -0.01836 0.45210 0.94540
 N106 N -0.03215 0.46524 0.97288
 H107 H 0.05153 0.55108 1.01262
 H108 H -0.00222 0.52580 0.92877
 H109 H 0.02096 0.57217 0.89889
 H110 H 0.07581 0.59843 0.98402
 H111 H -0.07101 0.45857 1.00633
 H112 H -0.09687 0.41212 0.97742
 H113 H -0.01901 0.41588 0.90747
 H114 H 0.00449 0.46200 0.93680
 C115 C 0.05997 0.40825 1.05768
 C116 C -0.06210 0.59080 1.06143
 C117 C -0.06133 0.40877 0.93859
 C118 C 0.05103 0.59112 0.93810
 C119 C 1.05832 -0.02546 0.53881
 H120 H 1.07156 -0.01195 0.52047
 C121 C 1.07625 -0.03954 0.56556
 H122 H 1.10240 -0.03676 0.56508
 C123 C 1.00966 -0.04463 0.56089
 H124 H 0.98339 -0.04645 0.56036
 C125 C 1.02678 -0.05891 0.58825
 H126 H 1.01270 -0.07106 0.60691
 N127 N 1.02503 -0.02752 0.53629
 C128 C 1.01588 0.06083 0.46030
 H129 H 0.99761 0.07260 0.47518
 C130 C 1.02948 0.07870 0.43328
 H131 H 1.02053 0.10316 0.42983
 C132 C 1.04590 0.01497 0.44569
 H133 H 1.05213 -0.01040 0.44909
 C134 C 1.06028 0.03222 0.41836
 H135 H 1.07737 0.01931 0.40302
 Zn136 Zn 0.99650 0.00021 0.50179
 N137 N 1.02385 0.02901 0.46694
 C138 C 0.97993 0.05640 0.54843
 N139 N 0.96794 0.02770 0.53610
 C140 C 0.94134 0.01486 0.55226
 C141 C 0.92681 0.03010 0.58063
 C142 C 0.96623 0.07219 0.57655
 C143 C 0.97988 -0.05792 0.45747
 C144 C 0.96659 -0.07431 0.42949
 C145 C 0.92921 -0.03075 0.42215
 C146 C 0.94345 -0.01485 0.45021
 N147 N 0.96878 -0.02814 0.46791
 H148 H 1.00143 0.06687 0.53740
 H149 H 0.93175 -0.00833 0.54424
 H150 H 0.90666 0.01800 0.59255
 H151 H 0.97753 0.09459 0.58457
 H152 H 1.00041 -0.06881 0.46989
 H153 H 0.97720 -0.09744 0.42267
 H154 H 0.91007 -0.01836 0.40894
 H155 H 0.93473 0.00912 0.45679
 C156 C 1.05258 0.06523 0.41083
 C157 C 1.06111 -0.05635 0.59215
 C158 C 0.94092 -0.06104 0.41017
 C159 C 0.93935 0.05929 0.59446
 C160 C 0.11305 0.28293 1.12594
 C161 C 0.13408 0.29350 1.10231
 C162 C 0.16321 0.27700 1.09629
 C163 C 0.17139 0.24871 1.11462
 C164 C 0.15105 0.23508 1.13970
 C165 C 0.12092 0.25384 1.14516
 O166 O 0.08651 0.30283 1.12753
 C167 C 0.09112 0.32627 1.10446
 C168 C 0.12005 0.32138 1.08851
 C169 C 0.13007 0.34239 1.06361
 C170 C 0.11026 0.36941 1.05458
 C171 C 0.07986 0.37695 1.06989
 C172 C 0.07032 0.35391 1.09553
 H173 H 0.17978 0.28591 1.07784
 H174 H 0.19485 0.23846 1.10905
 H175 H 0.10369 0.24605 1.16344
 H176 H 0.15282 0.33802 1.05104
 H177 H 0.11893 0.38424 1.03466
 H178 H 0.04762 0.35752 1.10838
 C179 C -0.13342 0.71400 1.11427
 C180 C -0.10206 0.71199 1.12560
 C181 C -0.08924 0.73570 1.14611
 C182 C -0.10894 0.76213 1.15622
 C183 C -0.14265 0.76608 1.14741
 C184 C -0.15445 0.74114 1.12458
 O185 O -0.13991 0.68837 1.09417
 C186 C -0.11209 0.67019 1.09313
 C187 C -0.08842 0.68393 1.11222
 C188 C -0.05768 0.66959 1.11547
 C189 C -0.05056 0.64006 1.09891
 C190 C -0.07340 0.62376 1.07840
 C191 C -0.10510 0.63999 1.07546
 H192 H -0.06412 0.73424 1.15395
 H193 H -0.09640 0.78043 1.17034
 H194 H -0.17930 0.74214 1.11591
 H195 H -0.03933 0.68091 1.13063
 H196 H -0.02634 0.63011 1.10186
 H197 H -0.12382 0.62925 1.06036
 C198 C -0.13094 0.28400 0.88758
 C199 C -0.11454 0.29971 0.86310
 C200 C -0.11415 0.28743 0.83147
 C201 C -0.13045 0.25785 0.82430
 C202 C -0.14772 0.23887 0.84810
 C203 C -0.14839 0.25359 0.88067
 O204 O -0.12759 0.30055 0.91615
 C205 C -0.10884 0.32706 0.90922
 C206 C -0.10049 0.32737 0.87690
 C207 C -0.08143 0.35233 0.86379
 C208 C -0.07004 0.37785 0.88416
 C209 C -0.07671 0.37948 0.91830
 C210 C -0.09728 0.35307 0.93069
 H211 H -0.10160 0.30052 0.81235
 H212 H -0.13038 0.25079 0.79897
 H213 H -0.16096 0.24129 0.90028
 H214 H -0.07544 0.35232 0.83812
 H215 H -0.05607 0.39689 0.87256
 H216 H -0.10368 0.35247 0.95624
 C217 C 0.12229 0.71318 0.88268
 C218 C 0.09160 0.71056 0.86981
 C219 C 0.08002 0.73362 0.84752
 C220 C 0.10021 0.76013 0.83776
 C221 C 0.13288 0.76470 0.84918
 C222 C 0.14356 0.74002 0.87275
 O223 O 0.12813 0.68851 0.90406
 C224 C 0.10058 0.67006 0.90452
 C225 C 0.07764 0.68269 0.88375
 C226 C 0.04729 0.66758 0.87996
 C227 C 0.03995 0.63863 0.89765
 C228 C 0.06218 0.62359 0.91985
 C229 C 0.09338 0.64056 0.92324
 H230 H 0.05556 0.73151 0.83793
 H231 H 0.08933 0.77754 0.82138
 H232 H 0.16776 0.74136 0.88301
 H233 H 0.02939 0.67787 0.86359
 H234 H 0.01603 0.62818 0.89419
 H235 H 0.11167 0.63090 0.93955
 C236 C 1.11880 0.11531 0.28321
 C237 C 1.10641 0.14086 0.30080
 C238 C 1.10916 0.17291 0.28936
 C239 C 1.12487 0.17935 0.25904
 C240 C 1.13858 0.15443 0.23895
 C241 C 1.13534 0.12141 0.25220
 O242 O 1.11315 0.08656 0.29879
 C243 C 1.09699 0.09424 0.32672
 C244 C 1.09250 0.12727 0.32891
 C245 C 1.07678 0.14094 0.35588
 C246 C 1.06497 0.12055 0.38138
 C247 C 1.06772 0.08574 0.38115
 C248 C 1.08480 0.07278 0.35254
 H249 H 1.09938 0.19285 0.30356
 H250 H 1.12683 0.20453 0.25160
 H251 H 1.14503 0.10102 0.23864
 H252 H 1.07380 0.16708 0.35752
 H253 H 1.05393 0.13281 0.40181
 H254 H 1.08830 0.04678 0.35021
 C255 C 1.11332 -0.12533 0.71718
 C256 C 1.13505 -0.10253 0.70621
 C257 C 1.16456 -0.09740 0.72232
 C258 C 1.17240 -0.11578 0.75065
 C259 C 1.15128 -0.13996 0.76469
 C260 C 1.12080 -0.14453 0.74633
 O261 O 1.08654 -0.12618 0.69761
 C262 C 1.09170 -0.10348 0.67396
 C263 C 1.12119 -0.08847 0.67840
 C264 C 1.13179 -0.06404 0.65715
 C265 C 1.11196 -0.05452 0.63033
 C266 C 1.08102 -0.06893 0.62323
 C267 C 1.07092 -0.09410 0.64650
 H268 H 1.18168 -0.07962 0.71305
 H269 H 1.19618 -0.11104 0.76061
 H270 H 1.10296 -0.16205 0.75451
 H271 H 1.15497 -0.05218 0.66121
 H272 H 1.12111 -0.03494 0.61535
 H273 H 1.04778 -0.10625 0.64324
 C274 C 0.86847 -0.11596 0.28916
 C275 C 0.90117 -0.12272 0.28770
 C276 C 0.91443 -0.13991 0.26152
 C277 C 0.89383 -0.15106 0.23607
 C278 C 0.85931 -0.14616 0.23573
 C279 C 0.84675 -0.12738 0.26329
 O280 O 0.86140 -0.09873 0.31658
 C281 C 0.89020 -0.09478 0.33253
 C282 C 0.91512 -0.10927 0.31564
 C283 C 0.94707 -0.10879 0.32748
 C284 C 0.95408 -0.09321 0.35760
 C285 C 0.92986 -0.07741 0.37692
 C286 C 0.89695 -0.07822 0.36331
 H287 H 0.94034 -0.14462 0.26051
 H288 H 0.90547 -0.16357 0.21603
 H289 H 0.82095 -0.12231 0.26489
 H290 H 0.96643 -0.12031 0.31379
 H291 H 0.97918 -0.09312 0.36560
 H292 H 0.87717 -0.06682 0.37645
 C293 C 0.86621 0.11254 0.71643
 C294 C 0.89894 0.11914 0.71777
 C295 C 0.91240 0.13607 0.74387
 C296 C 0.89204 0.14753 0.76926
 C297 C 0.85729 0.14333 0.76987
 C298 C 0.84460 0.12397 0.74259
 O299 O 0.85910 0.09566 0.68872
 C300 C 0.88793 0.09177 0.67266
 C301 C 0.91285 0.10589 0.68978
 C302 C 0.94487 0.10534 0.67819
 C303 C 0.95202 0.09011 0.64796
 C304 C 0.92788 0.07492 0.62806
 C305 C 0.89480 0.07571 0.64154
 H306 H 0.93840 0.14034 0.74490
 H307 H 0.90447 0.15904 0.78940
 H308 H 0.81876 0.11917 0.74096
 H309 H 0.96421 0.11649 0.69219
 H310 H 0.97724 0.08988 0.64036
 H311 H 0.87504 0.06469 0.62806
 C312 C 0.28364 1.12497 0.11751
 C313 C 0.28579 1.09399 0.12980
 C314 C 0.26230 1.08221 0.15154
 C315 C 0.23586 1.10249 0.16137
 C316 C 0.23176 1.13542 0.15056
 C317 C 0.25685 1.14632 0.12751
 O318 O 0.30871 1.13098 0.09663
 C319 C 0.32693 1.10327 0.09589
 C320 C 0.31376 1.08005 0.11600
 C321 C 0.32856 1.04949 0.11941
 C322 C 0.35773 1.04222 0.10204
 C323 C 0.37334 1.06472 0.08051
 C324 C 0.35668 1.09615 0.07749
 H325 H 0.26403 1.05756 0.16069
 H326 H 0.21812 1.09156 0.17738
 H327 H 0.25588 1.17077 0.11781
 H328 H 0.31785 1.03136 0.13527
 H329 H 0.36790 1.01813 0.10520
 H330 H 0.36677 1.11466 0.06170
 C331 C 0.71614 1.11265 -0.12360
 C332 C 0.69576 1.13812 -0.11631
 C333 C 0.70488 1.17031 -0.12297
 C334 C 0.73578 1.17700 -0.13728
 C335 C 0.75873 1.15224 -0.14573
 C336 C 0.74786 1.11898 -0.13872
 O337 O 0.70237 1.08382 -0.11466
 C338 C 0.67281 1.09138 -0.10161
 C339 C 0.66784 1.12441 -0.10228
 C340 C 0.63892 1.13795 -0.09040
 C341 C 0.61423 1.11747 -0.07716
 C342 C 0.61723 1.08280 -0.07468
 C343 C 0.64782 1.06987 -0.08791
 H344 H 0.68853 1.19014 -0.11714
 H345 H 0.74166 1.20223 -0.14215
 H346 H 0.76379 1.09873 -0.14423
 H347 H 0.63517 1.16402 -0.09146
 H348 H 0.59220 1.12940 -0.06924
 H349 H 0.65227 1.04392 -0.08730
 C350 C 0.28348 0.88087 -0.12557
 C351 C 0.28546 0.86894 -0.09444
 C352 C 0.26173 0.84764 -0.08239
 C353 C 0.23519 0.83790 -0.10254
 C354 C 0.23127 0.84837 -0.13560
 C355 C 0.25663 0.87094 -0.14679
 O356 O 0.30875 0.90139 -0.13185
 C357 C 0.32693 0.90227 -0.10415
 C358 C 0.31355 0.88259 -0.08067
 C359 C 0.32828 0.87938 -0.05008
 C360 C 0.35762 0.89653 -0.04304
 C361 C 0.37341 0.91759 -0.06583
 C362 C 0.35683 0.92042 -0.09728
 H363 H 0.26335 0.83879 -0.05761
 H364 H 0.21725 0.82228 -0.09138
 H365 H 0.25582 0.88035 -0.17136
 H366 H 0.31740 0.86387 -0.03176
 H367 H 0.36779 0.89358 -0.01892
 H368 H 0.36708 0.93588 -0.11598
 C369 C 0.71211 0.86905 0.11702
 C370 C 0.71559 0.90212 0.12034
 C371 C 0.74327 0.91543 0.13508
 C372 C 0.76815 0.89460 0.14725
 C373 C 0.76662 0.85982 0.14568
 C374 C 0.73747 0.84712 0.12941
 O375 O 0.68344 0.86188 0.10190
 C376 C 0.66875 0.89101 0.09571
 C377 C 0.68768 0.91623 0.10674
 C378 C 0.67750 0.94859 0.10333
 C379 C 0.64700 0.95573 0.08843
 C380 C 0.62541 0.93126 0.07628
 C381 C 0.63741 0.89783 0.08002
 H382 H 0.74581 0.94158 0.13720
 H383 H 0.78926 0.90622 0.15789
 H384 H 0.73429 0.82108 0.12704
 H385 H 0.69278 0.96822 0.11202
 H386 H 0.64055 0.98114 0.08597
 H387 H 0.62265 0.87776 0.07147
   
