data_POSCAR
  _audit_creation_date              2014-09-24
  _audit_creation_method            'ToBaCCo'
  _symmetry_space_group_name_H-M    'P1'
  _symmetry_Int_Tables_number       1
  _symmetry_cell_setting            triclinic
  loop_
  _symmetry_equiv_pos_as_xyz
 x,y,z
_cell_length_a 28.3384
_cell_length_b 28.3340
_cell_length_c 52.1429
_cell_angle_alpha 90.001200
_cell_angle_beta 89.960600
_cell_angle_gamma 120.509100
loop_
  _atom_site_label
  _atom_site_type_symbol
  _atom_site_fract_x
  _atom_site_fract_y
  _atom_site_fract_z
Zn1 Zn 0.96741 0.03552 1.01065
 Zn2 Zn 1.07253 0.03474 1.01119
 Zn3 Zn 0.96549 -0.07116 1.01142
 Zn4 Zn 1.00229 -0.00120 0.96460
 O5 O 1.00190 -0.00055 0.99952
 O6 O 1.01088 0.09412 1.02998
 O7 O 1.08675 -0.00813 1.03103
 O8 O 0.90731 -0.08562 1.03076
 O9 O 1.08871 0.09372 1.03017
 O10 O 0.90851 -0.00696 1.02998
 O11 O 1.00786 -0.08656 1.03105
 O12 O 0.96738 -0.06876 0.95162
 O13 O 1.12230 0.05842 0.98584
 O14 O 0.94006 -0.12125 0.98615
 O15 O 1.06971 0.03104 0.95138
 O16 O 0.97018 0.03309 0.95085
 O17 O 0.94376 0.06026 0.98486
 C18 C 1.06045 0.11486 1.03696
 C19 C 1.05746 -0.05768 1.03810
 C20 C 0.88707 -0.05639 1.03732
 C21 C 0.94309 -0.11584 0.96192
 C22 C 1.11680 0.05452 0.96164
 C23 C 0.94707 0.05714 0.96069
 Zn24 Zn 0.03781 0.96524 0.51101
 Zn25 Zn -0.06876 0.96337 0.51115
 Zn26 Zn 0.03702 1.07048 0.51119
 Zn27 Zn 0.00190 0.99997 0.46463
 O28 O 0.00200 0.99976 0.49955
 O29 O -0.00494 0.90648 0.53042
 O30 O -0.08460 1.00580 0.53044
 O31 O 0.09569 1.08672 0.53043
 O32 O -0.08350 0.90546 0.53069
 O33 O 0.09615 1.00890 0.53043
 O34 O -0.00628 1.08479 0.53075
 O35 O 0.03435 1.06734 0.45137
 O36 O -0.11841 0.93762 0.48573
 O37 O 0.06115 1.12015 0.48578
 O38 O -0.06542 0.96493 0.45137
 O39 O 0.03641 0.96781 0.45120
 O40 O 0.06289 0.94134 0.48542
 C41 C -0.05448 0.88523 0.53756
 C42 C -0.05603 1.05540 0.53753
 C43 C 0.11676 1.05849 0.53736
 C44 C 0.05764 1.11450 0.46157
 C45 C -0.11264 0.94054 0.46153
 C46 C 0.06019 0.94462 0.46123
 O47 O 0.25235 0.58913 0.27861
 O48 O 0.25063 0.67907 0.27058
 C49 C 0.28424 0.72082 0.28352
 O50 O 0.33532 0.74678 0.27915
 O51 O 0.42804 0.75015 0.27165
 C52 C 0.43570 0.71642 0.28444
 O53 O 0.41032 0.66551 0.27973
 O54 O 0.32028 0.57272 0.27147
 C55 C 0.27785 0.56429 0.28373
 O56 O 0.25166 0.57242 0.22766
 O57 O 0.25434 0.66472 0.21964
 C58 C 0.27988 0.71579 0.21526
 O59 O 0.32159 0.74965 0.22812
 O60 O 0.41195 0.74814 0.22064
 C61 C 0.43740 0.72294 0.21613
 O62 O 0.42898 0.68094 0.22878
 O63 O 0.33668 0.59014 0.22052
 C64 C 0.28593 0.56454 0.21544
 Cr65 Cr 0.25531 0.62787 0.24913
 Cr66 Cr 0.37269 0.74562 0.24988
 Cr67 Cr 0.37254 0.62884 0.25010
 O68 O 0.33351 0.66742 0.24967
 O69 O 0.75281 0.42532 0.77157
 O70 O 0.74968 0.33257 0.77852
 C71 C 0.72374 0.28148 0.78287
 O72 O 0.68165 0.24793 0.77012
 O73 O 0.59195 0.24971 0.77883
 C74 C 0.56711 0.27511 0.78416
 O75 O 0.57531 0.31755 0.77201
 O76 O 0.66829 0.40748 0.78016
 C77 C 0.71928 0.43281 0.78465
 O78 O 0.74982 0.40971 0.72045
 O79 O 0.75138 0.31916 0.72738
 C80 C 0.71714 0.27743 0.71462
 O81 O 0.66621 0.25192 0.71932
 O82 O 0.57416 0.24926 0.72799
 C83 C 0.56619 0.28361 0.71593
 O84 O 0.59192 0.33436 0.72106
 O85 O 0.68279 0.42660 0.72924
 C86 C 0.72454 0.43520 0.71632
 Cr87 Cr 0.74786 0.37015 0.74948
 Cr88 Cr 0.63004 0.25277 0.74908
 Cr89 Cr 0.63109 0.36998 0.75058
 O90 O 0.66965 0.33096 0.74968
 C91 C 0.13328 0.25697 0.08600
 C92 C 0.07755 0.23131 0.07937
 C93 C 0.05403 0.18555 0.06325
 C94 C 0.08566 0.16427 0.05346
 C95 C 0.14149 0.19022 0.05989
 C96 C 0.16503 0.23607 0.07593
 C97 C 0.15790 0.30466 0.10373
 C98 C 0.19597 0.30979 0.12243
 C99 C 0.21814 0.35383 0.13954
 C100 C 0.20263 0.39365 0.13843
 C101 C 0.16495 0.38885 0.11962
 C102 C 0.14291 0.34491 0.10243
 C103 C 0.22464 0.43919 0.15728
 C104 C 0.18992 0.45493 0.16882
 C105 C 0.20998 0.49608 0.18743
 C106 C 0.26532 0.52264 0.19487
 C107 C 0.30029 0.50761 0.18294
 C108 C 0.28013 0.46624 0.16441
 H109 H 0.05175 0.24587 0.08708
 H110 H 0.01086 0.16643 0.05875
 H111 H 0.16710 0.17508 0.05256
 H112 H 0.20826 0.25538 0.08033
 H113 H 0.20769 0.27904 0.12425
 H114 H 0.24643 0.35596 0.15409
 H115 H 0.15281 0.41933 0.11809
 H116 H 0.11442 0.34267 0.08799
 H117 H 0.14686 0.43444 0.16391
 H118 H 0.18190 0.50666 0.19619
 H119 H 0.34315 0.52728 0.18815
 H120 H 0.30798 0.45541 0.15562
 C121 C 0.74553 0.87549 0.08676
 C122 C 0.77070 0.84512 0.08055
 C123 C 0.81627 0.86698 0.06431
 C124 C 0.83787 0.91982 0.05397
 C125 C 0.81245 0.95002 0.06001
 C126 C 0.76677 0.92808 0.07617
 C127 C 0.69796 0.85279 0.10458
 C128 C 0.69325 0.88663 0.12287
 C129 C 0.64929 0.86513 0.14004
 C130 C 0.60912 0.80925 0.13940
 C131 C 0.61352 0.77546 0.12099
 C132 C 0.65738 0.79700 0.10374
 C133 C 0.56357 0.78615 0.15828
 C134 C 0.54733 0.73578 0.17029
 C135 C 0.50599 0.71500 0.18884
 C136 C 0.47974 0.74401 0.19573
 C137 C 0.49534 0.79395 0.18335
 C138 C 0.53690 0.81484 0.16489
 H139 H 0.75588 0.80482 0.08866
 H140 H 0.83499 0.84269 0.06013
 H141 H 0.82785 0.99073 0.05226
 H142 H 0.74785 0.95221 0.08024
 H143 H 0.72425 0.92956 0.12434
 H144 H 0.64745 0.89200 0.15427
 H145 H 0.58277 0.73239 0.11981
 H146 H 0.65929 0.77002 0.08961
 H147 H 0.56752 0.71303 0.16579
 H148 H 0.49498 0.67640 0.19795
 H149 H 0.47592 0.81730 0.18814
 H150 H 0.54812 0.85345 0.15573
 C151 C 0.12711 0.87217 0.08785
 C152 C 0.15750 0.92768 0.08083
 C153 C 0.13505 0.95030 0.06453
 C154 C 0.08157 0.91795 0.05496
 C155 C 0.05129 0.86230 0.06185
 C156 C 0.07388 0.83963 0.07807
 C157 C 0.15060 0.84862 0.10566
 C158 C 0.14345 0.79644 0.10124
 C159 C 0.16551 0.77438 0.11815
 C160 C 0.19502 0.80395 0.13990
 C161 C 0.20198 0.85607 0.14431
 C162 C 0.18014 0.87817 0.12737
 C163 C 0.21796 0.78049 0.15817
 C164 C 0.26931 0.81414 0.16962
 C165 C 0.28976 0.79289 0.18778
 C166 C 0.25949 0.73736 0.19486
 C167 C 0.20876 0.70333 0.18293
 C168 C 0.18819 0.72468 0.16482
 H169 H 0.19887 0.95359 0.08781
 H170 H 0.15955 0.99326 0.05956
 H171 H 0.00999 0.83624 0.05481
 H172 H 0.04930 0.79686 0.08336
 H173 H 0.12144 0.77301 0.08449
 H174 H 0.16005 0.73446 0.11402
 H175 H 0.22350 0.87946 0.16115
 H176 H 0.18551 0.91806 0.13152
 H177 H 0.29377 0.85704 0.16456
 H178 H 0.32920 0.82016 0.19642
 H179 H 0.18432 0.66041 0.18798
 H180 H 0.14825 0.69778 0.15656
 C181 C 0.87595 0.74482 0.58766
 C182 C 0.84568 0.76963 0.58072
 C183 C 0.86802 0.81478 0.56424
 C184 C 0.92128 0.83631 0.55441
 C185 C 0.95137 0.81114 0.56117
 C186 C 0.92889 0.76580 0.57757
 C187 C 0.85272 0.69788 0.60577
 C188 C 0.85947 0.65268 0.60150
 C189 C 0.83778 0.60873 0.61872
 C190 C 0.80904 0.60913 0.64064
 C191 C 0.80247 0.65448 0.64489
 C192 C 0.82394 0.69825 0.62765
 C193 C 0.78642 0.56286 0.65919
 C194 C 0.73543 0.54489 0.67097
 C195 C 0.71510 0.50302 0.68923
 C196 C 0.74513 0.47787 0.69609
 C197 C 0.79559 0.49498 0.68391
 C198 C 0.81604 0.53707 0.66571
 H199 H 0.80452 0.75392 0.58794
 H200 H 0.84367 0.83307 0.55937
 H201 H 0.99250 0.82670 0.55394
 H202 H 0.95338 0.74787 0.58278
 H203 H 0.88090 0.65099 0.58464
 H204 H 0.84290 0.57411 0.61469
 H205 H 0.78155 0.65664 0.66184
 H206 H 0.81891 0.73293 0.63168
 H207 H 0.71109 0.56314 0.66603
 H208 H 0.67587 0.49055 0.69805
 H209 H 0.81985 0.47659 0.68879
 H210 H 0.85572 0.55033 0.65722
 C211 C 0.25846 0.13147 0.58663
 C212 C 0.23297 0.07576 0.57994
 C213 C 0.18732 0.05220 0.56378
 C214 C 0.16597 0.08375 0.55398
 C215 C 0.19171 0.13955 0.56050
 C216 C 0.23746 0.16314 0.57659
 C217 C 0.30613 0.15614 0.60436
 C218 C 0.31114 0.19406 0.62313
 C219 C 0.35513 0.21620 0.64025
 C220 C 0.39503 0.20078 0.63909
 C221 C 0.39036 0.16328 0.62019
 C222 C 0.34647 0.14129 0.60299
 C223 C 0.44049 0.22267 0.65796
 C224 C 0.45628 0.18788 0.66936
 C225 C 0.49749 0.20782 0.68793
 C226 C 0.52405 0.26311 0.69547
 C227 C 0.50892 0.29814 0.68370
 C228 C 0.46748 0.27809 0.66522
 H229 H 0.24761 0.05002 0.58763
 H230 H 0.16837 0.00906 0.55922
 H231 H 0.17650 0.16510 0.55317
 H232 H 0.25662 0.20634 0.58105
 H233 H 0.28033 0.20568 0.62499
 H234 H 0.35718 0.24435 0.65486
 H235 H 0.42091 0.15124 0.61860
 H236 H 0.34434 0.11292 0.58849
 H237 H 0.43583 0.14485 0.66437
 H238 H 0.50814 0.17969 0.69656
 H239 H 0.52859 0.34097 0.68900
 H240 H 0.45661 0.30599 0.65653
 C241 C 0.87121 0.12409 0.58634
 C242 C 0.92723 0.15445 0.58014
 C243 C 0.95077 0.13235 0.56417
 C244 C 0.91887 0.07926 0.55409
 C245 C 0.86279 0.04901 0.56015
 C246 C 0.83923 0.07120 0.57604
 C247 C 0.84647 0.14711 0.60381
 C248 C 0.80733 0.11365 0.62218
 C249 C 0.78495 0.13546 0.63902
 C250 C 0.80134 0.19127 0.63797
 C251 C 0.84013 0.22469 0.61950
 C252 C 0.86236 0.20283 0.60257
 C253 C 0.77910 0.21470 0.65657
 C254 C 0.81390 0.26523 0.66845
 C255 C 0.79361 0.28602 0.68697
 C256 C 0.73796 0.25685 0.69395
 C257 C 0.70290 0.20689 0.68160
 C258 C 0.72329 0.18599 0.66318
 H259 H 0.95320 0.19498 0.58805
 H260 H 0.99412 0.15668 0.55996
 H261 H 0.83698 0.00813 0.55258
 H262 H 0.79581 0.04705 0.58010
 H263 H 0.79488 0.07080 0.62395
 H264 H 0.75580 0.10889 0.65332
 H265 H 0.85299 0.26769 0.61803
 H266 H 0.89171 0.22951 0.58837
 H267 H 0.85719 0.28802 0.66394
 H268 H 0.82175 0.32465 0.69606
 H269 H 0.65981 0.18342 0.68646
 H270 H 0.69538 0.14727 0.65410
 C271 C 0.25911 0.12027 0.91292
 C272 C 0.20631 0.08827 0.90263
 C273 C 0.16025 0.06722 0.91845
 C274 C 0.16591 0.07738 0.94499
 C275 C 0.21876 0.10931 0.95532
 C276 C 0.26490 0.13076 0.93942
 C277 C 0.30774 0.14288 0.89591
 C278 C 0.35024 0.19758 0.89838
 C279 C 0.39465 0.21956 0.88143
 C280 C 0.39765 0.18712 0.86183
 C281 C 0.35574 0.13208 0.85975
 C282 C 0.31119 0.11025 0.87656
 C283 C 0.44323 0.21092 0.84301
 C284 C 0.46818 0.18136 0.83506
 C285 C 0.50914 0.20263 0.81632
 C286 C 0.52575 0.25377 0.80498
 C287 C 0.50138 0.28371 0.81328
 C288 C 0.46069 0.26257 0.83213
 H289 H 0.20059 0.08015 0.88223
 H290 H 0.12016 0.04280 0.90986
 H291 H 0.22449 0.11788 0.97568
 H292 H 0.30516 0.15498 0.94787
 H293 H 0.34844 0.22374 0.91301
 H294 H 0.42662 0.26198 0.88360
 H295 H 0.35671 0.10626 0.84470
 H296 H 0.27929 0.06780 0.87439
 H297 H 0.45591 0.14170 0.84333
 H298 H 0.52714 0.17856 0.81043
 H299 H 0.51331 0.32329 0.80501
 H300 H 0.44180 0.28601 0.83770
 C301 C 0.87384 0.74214 0.91290
 C302 C 0.87090 0.73601 0.93971
 C303 C 0.89301 0.78201 0.95572
 C304 C 0.91842 0.83506 0.94523
 C305 C 0.92071 0.84101 0.91841
 C306 C 0.89867 0.79516 0.90247
 C307 C 0.85157 0.69372 0.89570
 C308 C 0.88019 0.69527 0.87340
 C309 C 0.85863 0.65075 0.85663
 C310 C 0.80796 0.60347 0.86176
 C311 C 0.77963 0.60152 0.88426
 C312 C 0.80127 0.64615 0.90109
 C313 C 0.78439 0.55717 0.84327
 C314 C 0.72828 0.52962 0.83726
 C315 C 0.70686 0.48847 0.81861
 C316 C 0.74111 0.47403 0.80552
 C317 C 0.79695 0.50065 0.81202
 C318 C 0.81829 0.54165 0.83068
 H319 H 0.85241 0.69569 0.94831
 H320 H 0.89062 0.77603 0.97630
 H321 H 0.93967 0.88122 0.90967
 H322 H 0.90069 0.80123 0.88190
 H323 H 0.91939 0.73102 0.86889
 H324 H 0.88118 0.65386 0.83932
 H325 H 0.74075 0.56545 0.88887
 H326 H 0.77809 0.64388 0.91803
 H327 H 0.70119 0.54101 0.84642
 H328 H 0.66366 0.46882 0.81408
 H329 H 0.82442 0.49023 0.80249
 H330 H 0.86150 0.56141 0.83520
 C331 C 0.87732 0.12654 0.91053
 C332 C 0.90540 0.10163 0.90051
 C333 C 0.92816 0.07941 0.91682
 C334 C 0.92350 0.08162 0.94357
 C335 C 0.89586 0.10700 0.95365
 C336 C 0.87304 0.12925 0.93729
 C337 C 0.85238 0.14915 0.89300
 C338 C 0.85560 0.19934 0.89835
 C339 C 0.83327 0.22106 0.88139
 C340 C 0.80709 0.19295 0.85877
 C341 C 0.80343 0.14253 0.85359
 C342 C 0.82573 0.12087 0.87050
 C343 C 0.78444 0.21633 0.84033
 C344 C 0.73456 0.18219 0.82778
 C345 C 0.71456 0.20350 0.80943
 C346 C 0.74391 0.25954 0.80320
 C347 C 0.79321 0.29395 0.81617
 C348 C 0.81327 0.27256 0.83451
 H349 H 0.91024 0.09972 0.88000
 H350 H 0.94943 0.06046 0.90840
 H351 H 0.89149 0.10931 0.97417
 H352 H 0.85119 0.14773 0.94557
 H353 H 0.87625 0.22229 0.91542
 H354 H 0.83628 0.25974 0.88604
 H355 H 0.78412 0.12016 0.83619
 H356 H 0.82194 0.08178 0.86600
 H357 H 0.71091 0.13887 0.83216
 H358 H 0.67621 0.17588 0.79999
 H359 H 0.81687 0.33730 0.81183
 H360 H 0.85210 0.29983 0.84365
 C361 C 0.74588 0.87036 0.41219
 C362 C 0.73948 0.86743 0.43899
 C363 C 0.78532 0.88985 0.45509
 C364 C 0.83847 0.91557 0.44471
 C365 C 0.84471 0.91784 0.41791
 C366 C 0.79900 0.89549 0.40187
 C367 C 0.69760 0.84787 0.39492
 C368 C 0.69911 0.87649 0.37264
 C369 C 0.65457 0.85491 0.35589
 C370 C 0.60731 0.80421 0.36103
 C371 C 0.60547 0.77580 0.38347
 C372 C 0.65012 0.79746 0.40027
 C373 C 0.56085 0.78083 0.34265
 C374 C 0.53316 0.72476 0.33652
 C375 C 0.49176 0.70354 0.31801
 C376 C 0.47719 0.73796 0.30518
 C377 C 0.50395 0.79375 0.31181
 C378 C 0.54521 0.81489 0.33034
 H379 H 0.69907 0.84874 0.44750
 H380 H 0.77912 0.88747 0.47565
 H381 H 0.88502 0.93705 0.40925
 H382 H 0.80528 0.89754 0.38132
 H383 H 0.73479 0.91575 0.36815
 H384 H 0.65759 0.87752 0.33862
 H385 H 0.56944 0.73689 0.38807
 H386 H 0.64789 0.77428 0.41720
 H387 H 0.54463 0.69756 0.34549
 H388 H 0.47199 0.66037 0.31336
 H389 H 0.49344 0.82135 0.30250
 H390 H 0.56507 0.85806 0.33497
 C391 C 0.12386 0.25640 0.41258
 C392 C 0.09183 0.20352 0.40238
 C393 C 0.07066 0.15760 0.41829
 C394 C 0.08072 0.16349 0.44483
 C395 C 0.11273 0.21643 0.45508
 C396 C 0.13431 0.26243 0.43908
 C397 C 0.14645 0.30487 0.39547
 C398 C 0.20118 0.34736 0.39783
 C399 C 0.22307 0.39164 0.38081
 C400 C 0.19051 0.39453 0.36125
 C401 C 0.13547 0.35260 0.35927
 C402 C 0.11373 0.30818 0.37614
 C403 C 0.21413 0.44007 0.34242
 C404 C 0.18448 0.46500 0.33461
 C405 C 0.20558 0.50601 0.31590
 C406 C 0.25664 0.52271 0.30445
 C407 C 0.28666 0.49833 0.31259
 C408 C 0.26570 0.45759 0.33142
 H409 H 0.08373 0.19761 0.38199
 H410 H 0.04619 0.11743 0.40977
 H411 H 0.12123 0.22233 0.47544
 H412 H 0.15858 0.30277 0.44746
 H413 H 0.22740 0.34566 0.41245
 H414 H 0.26550 0.42362 0.38290
 H415 H 0.10956 0.35348 0.34425
 H416 H 0.07126 0.27628 0.37405
 H417 H 0.14489 0.45270 0.34297
 H418 H 0.18144 0.52402 0.31014
 H419 H 0.32619 0.51033 0.30423
 H420 H 0.28920 0.43872 0.33689
 C421 C 0.12963 0.87416 0.41149
 C422 C 0.10505 0.90241 0.40132
 C423 C 0.08288 0.92543 0.41750
 C424 C 0.08478 0.92088 0.44427
 C425 C 0.10988 0.89312 0.45450
 C426 C 0.13212 0.87003 0.43827
 C427 C 0.15210 0.84886 0.39408
 C428 C 0.20219 0.85196 0.39948
 C429 C 0.22387 0.82948 0.38256
 C430 C 0.19580 0.80328 0.35993
 C431 C 0.14542 0.79968 0.35473
 C432 C 0.12382 0.82212 0.37160
 C433 C 0.21921 0.78069 0.34147
 C434 C 0.18510 0.73088 0.32885
 C435 C 0.20639 0.71111 0.31037
 C436 C 0.26239 0.74061 0.30407
 C437 C 0.29680 0.78978 0.31714
 C438 C 0.27543 0.80961 0.33562
 H439 H 0.10335 0.90715 0.38080
 H440 H 0.06415 0.94680 0.40896
 H441 H 0.11197 0.88884 0.47504
 H442 H 0.15036 0.84808 0.44666
 H443 H 0.22512 0.87266 0.41655
 H444 H 0.26251 0.83245 0.38722
 H445 H 0.12309 0.78036 0.33733
 H446 H 0.08479 0.81841 0.36706
 H447 H 0.14180 0.70715 0.33325
 H448 H 0.17878 0.67284 0.30085
 H449 H 0.34012 0.81354 0.31276
 H450 H 0.30268 0.84840 0.34481
   
