data_POSCAR
  _audit_creation_date              2014-09-24
  _audit_creation_method            'ToBaCCo'
  _symmetry_space_group_name_H-M    'P1'
  _symmetry_Int_Tables_number       1
  _symmetry_cell_setting            triclinic
  loop_
  _symmetry_equiv_pos_as_xyz
 x,y,z
_cell_length_a 55.8515
_cell_length_b 56.4714
_cell_length_c 55.8151
_cell_angle_alpha 89.913300
_cell_angle_beta 89.895700
_cell_angle_gamma 89.976400
loop_
  _atom_site_label
  _atom_site_type_symbol
  _atom_site_fract_x
  _atom_site_fract_y
  _atom_site_fract_z
N1 N 0.14680 0.16511 0.21215
 N2 N 0.16176 0.14724 0.21004
 C3 C 0.15700 0.13122 0.22735
 C4 C 0.13836 0.13980 0.24124
 C5 C 0.13231 0.16131 0.23106
 H6 H 0.16695 0.11505 0.23030
 H7 H 0.11852 0.17339 0.23709
 Cu8 Cu 0.18779 0.14815 0.18674
 Cu9 Cu 0.14739 0.19212 0.19043
 Cu10 Cu 0.19458 0.19512 0.15011
 N11 N 0.21362 0.14962 0.16327
 N12 N 0.21710 0.16874 0.15024
 C13 C 0.23702 0.16593 0.13692
 C14 C 0.24638 0.14373 0.14166
 C15 C 0.23105 0.13381 0.15841
 H16 H 0.24393 0.17885 0.12437
 H17 H 0.23280 0.11659 0.16673
 N18 N 0.16964 0.21977 0.15246
 N19 N 0.15108 0.21801 0.16704
 C20 C 0.13596 0.23611 0.16272
 C21 C 0.14561 0.25002 0.14479
 C22 C 0.16699 0.23928 0.13876
 H23 H 0.11900 0.23886 0.17168
 H24 H 0.17911 0.24472 0.12466
 H25 H 0.16536 0.17608 0.16220
 H26 H 0.18402 0.19119 0.18533
 N27 N -0.14931 0.83357 0.21529
 N28 N -0.16546 0.85050 0.21431
 C29 C -0.16177 0.86568 0.23254
 C30 C -0.14253 0.85758 0.24575
 C31 C -0.13509 0.83716 0.23439
 H32 H -0.17238 0.88129 0.23616
 H33 H -0.12018 0.82599 0.23943
 Cu34 Cu -0.19012 0.85059 0.18971
 Cu35 Cu -0.14735 0.80873 0.19122
 Cu36 Cu -0.19095 0.80855 0.14703
 N37 N -0.21511 0.84965 0.16547
 N38 N -0.21476 0.83381 0.14822
 C39 C -0.23328 0.83782 0.13332
 C40 C -0.24614 0.85694 0.14197
 C41 C -0.23418 0.86396 0.16243
 H42 H -0.23730 0.82739 0.11759
 H43 H -0.23883 0.87865 0.17396
 N44 N -0.16534 0.78451 0.14895
 N45 N -0.14833 0.78506 0.16534
 C46 C -0.13313 0.76693 0.16151
 C47 C -0.14118 0.75417 0.14207
 C48 C -0.16166 0.76569 0.13456
 H49 H -0.11754 0.76299 0.17227
 H50 H -0.17283 0.76083 0.11955
 H51 H -0.16399 0.82717 0.16386
 H52 H -0.18354 0.80839 0.18328
 N53 N -0.14562 0.16419 -0.21144
 N54 N -0.16004 0.14595 -0.20891
 C55 C -0.15495 0.12982 -0.22595
 C56 C -0.13660 0.13862 -0.24002
 C57 C -0.13110 0.16044 -0.23034
 H58 H -0.16451 0.11340 -0.22866
 H59 H -0.11777 0.17279 -0.23681
 Cu60 Cu -0.18592 0.14651 -0.18551
 Cu61 Cu -0.14715 0.19165 -0.19043
 Cu62 Cu -0.19430 0.19391 -0.14993
 N63 N -0.21166 0.14749 -0.16199
 N64 N -0.21584 0.16670 -0.14935
 C65 C -0.23573 0.16343 -0.13606
 C66 C -0.24428 0.14085 -0.14043
 C67 C -0.22853 0.13120 -0.15689
 H68 H -0.24321 0.17634 -0.12386
 H69 H -0.22969 0.11383 -0.16495
 N70 N -0.17023 0.21937 -0.15303
 N71 N -0.15172 0.21793 -0.16772
 C72 C -0.13724 0.23662 -0.16400
 C73 C -0.14721 0.25059 -0.14635
 C74 C -0.16816 0.23926 -0.13983
 H75 H -0.12045 0.23972 -0.17316
 H76 H -0.18035 0.24458 -0.12576
 H77 H -0.16448 0.17566 -0.16167
 H78 H -0.18375 0.18966 -0.18506
 N79 N 0.15141 0.83290 -0.21531
 N80 N 0.16471 0.85177 -0.21165
 C81 C 0.16011 0.86784 -0.22892
 C82 C 0.14326 0.85840 -0.24426
 C83 C 0.13815 0.83621 -0.23516
 H84 H 0.16867 0.88494 -0.23055
 H85 H 0.12545 0.82360 -0.24226
 Cu86 Cu 0.18808 0.85263 -0.18583
 Cu87 Cu 0.15114 0.80609 -0.19324
 Cu88 Cu 0.19155 0.80799 -0.14619
 N89 N 0.21129 0.85301 -0.15983
 N90 N 0.21333 0.83487 -0.14517
 C91 C 0.23215 0.83838 -0.13056
 C92 C 0.24232 0.86000 -0.13623
 C93 C 0.22855 0.86891 -0.15476
 H94 H 0.23810 0.82608 -0.11694
 H95 H 0.23152 0.88527 -0.16442
 N96 N 0.16810 0.78228 -0.15024
 N97 N 0.15343 0.78096 -0.16872
 C98 C 0.13971 0.76145 -0.16634
 C99 C 0.14585 0.75025 -0.14520
 C100 C 0.16383 0.76390 -0.13544
 H101 H 0.12559 0.75628 -0.17847
 H102 H 0.17288 0.76077 -0.11862
 H103 H 0.16334 0.82452 -0.16379
 H104 H 0.18633 0.80956 -0.18284
 N105 N 0.16522 1.14901 0.78670
 N106 N 0.14903 1.16591 0.78599
 C107 C 0.13463 1.16233 0.76698
 C108 C 0.14205 1.14193 0.75552
 C109 C 0.16141 1.13388 0.76851
 H110 H 0.11970 1.17348 0.76199
 H111 H 0.17214 1.11838 0.76474
 Cu112 Cu 0.14801 1.19049 0.81039
 Cu113 Cu 0.19067 1.14838 0.81038
 Cu114 Cu 0.19073 1.19305 0.85282
 N115 N 0.14852 1.21558 0.83427
 N116 N 0.16574 1.21689 0.85025
 C117 C 0.16237 1.23624 0.86390
 C118 C 0.14178 1.24744 0.85626
 C119 C 0.13336 1.23387 0.83750
 H120 H 0.17378 1.24156 0.87857
 H121 H 0.11753 1.23727 0.82692
 N122 N 0.21450 1.16731 0.85242
 N123 N 0.21494 1.15076 0.83575
 C124 C 0.23386 1.13647 0.83962
 C125 C 0.24559 1.14422 0.85985
 C126 C 0.23286 1.16370 0.86762
 H127 H 0.23865 1.12136 0.82874
 H128 H 0.23696 1.17462 0.88298
 H129 H 0.17190 1.16574 0.83709
 H130 H 0.19072 1.18446 0.81684
 N131 N 0.82994 0.84473 0.78003
 N132 N 0.84867 0.83078 0.78217
 C133 C 0.86389 0.83500 0.76392
 C134 C 0.85400 0.85231 0.74951
 C135 C 0.83242 0.85803 0.76014
 H136 H 0.88110 0.82653 0.76151
 H137 H 0.82011 0.87174 0.75453
 Cu138 Cu 0.85165 0.80907 0.80899
 Cu139 Cu 0.80557 0.84710 0.80488
 Cu140 Cu 0.81342 0.81201 0.85544
 N141 N 0.85418 0.78758 0.83604
 N142 N 0.84003 0.78973 0.85476
 C143 C 0.84550 0.77280 0.87086
 C144 C 0.86379 0.75917 0.86152
 C145 C 0.86889 0.76897 0.83942
 H146 H 0.83611 0.76987 0.88757
 H147 H 0.88206 0.76276 0.82667
 N148 N 0.78725 0.83518 0.85217
 N149 N 0.78332 0.84727 0.83229
 C150 C 0.76318 0.86015 0.83498
 C151 C 0.75423 0.85610 0.85767
 C152 C 0.76990 0.84028 0.86813
 H153 H 0.75579 0.87198 0.82166
 H154 H 0.76844 0.83276 0.88590
 H155 H 0.82802 0.83699 0.83242
 H156 H 0.80931 0.81319 0.81873
 N157 N 0.16442 0.84919 1.21336
 N158 N 0.14851 0.83205 1.21405
 C159 C 0.13397 0.83538 1.23304
 C160 C 0.14101 0.85585 1.24454
 C161 C 0.16030 0.86423 1.23158
 H162 H 0.11916 0.82403 1.23798
 H163 H 0.17073 0.87992 1.23534
 Cu164 Cu 0.14801 0.80753 1.18966
 Cu165 Cu 0.18979 0.85028 1.18949
 Cu166 Cu 0.18973 0.80632 1.14615
 N167 N 0.14793 0.78323 1.16505
 N168 N 0.16478 0.78237 1.14859
 C169 C 0.16115 0.76333 1.13457
 C170 C 0.14077 0.75191 1.14252
 C171 C 0.13275 0.76500 1.16179
 H172 H 0.17229 0.75833 1.11953
 H173 H 0.11722 0.76126 1.17276
 N174 N 0.21345 0.83213 1.14685
 N175 N 0.21394 0.84834 1.16387
 C176 C 0.23284 0.86270 1.16018
 C177 C 0.24450 0.85537 1.13971
 C178 C 0.23175 0.83606 1.13159
 H179 H 0.23766 0.87757 1.17135
 H180 H 0.23582 0.82547 1.11598
 H181 H 0.17086 0.83310 1.16285
 H182 H 0.19047 0.81436 1.18222
 N183 N 0.84045 1.14680 1.20971
 N184 N 0.85395 1.16569 1.21223
 C185 C 0.86846 1.16263 1.23124
 C186 C 0.86389 1.14057 1.24093
 C187 C 0.84613 1.13093 1.22680
 H188 H 0.88115 1.17553 1.23780
 H189 H 0.83726 1.11411 1.22947
 Cu190 Cu 0.85082 1.19256 1.19071
 Cu191 Cu 0.81435 1.14547 1.18669
 Cu192 Cu 0.80577 1.19513 1.15090
 N193 N 0.84782 1.21870 1.16829
 N194 N 0.82943 1.22030 1.15370
 C195 C 0.83175 1.23994 1.14020
 C196 C 0.85289 1.25099 1.14646
 C197 C 0.86268 1.23706 1.16428
 H198 H 0.81966 1.24515 1.12602
 H199 H 0.87955 1.23992 1.17330
 N200 N 0.78435 1.16743 1.15038
 N201 N 0.78862 1.14793 1.16275
 C202 C 0.77178 1.13171 1.15743
 C203 C 0.75609 1.14159 1.14119
 C204 C 0.76449 1.16422 1.13711
 H205 H 0.77062 1.11419 1.16518
 H206 H 0.75686 1.17720 1.12508
 H207 H 0.82888 1.16873 1.16179
 H208 H 0.80895 1.18162 1.18531
 O209 O 0.46562 0.95550 0.96072
 O210 O 0.43999 0.98021 0.98098
 C211 C 0.44432 0.96291 0.96638
 O212 O 0.53338 0.95994 1.04582
 O213 O 0.55970 0.97941 1.02105
 C214 C 0.55488 0.96506 1.03853
 O215 O 0.46594 0.95835 1.04355
 O216 O 0.44003 0.98038 1.02062
 C217 C 0.44458 0.96442 1.03668
 O218 O 0.53302 0.95735 0.95729
 O219 O 0.55952 0.97869 0.98005
 C220 C 0.55457 0.96323 0.96368
 Zr221 Zr 0.49957 0.96910 0.97099
 O222 O 0.50149 0.93169 0.97223
 O223 O 0.49651 0.96816 0.93320
 Zr224 Zr 0.49979 0.97069 1.03157
 O225 O 0.50051 0.93331 1.02995
 O226 O 0.49753 0.97020 1.06941
 O227 O 0.47830 0.96568 1.00154
 O228 O 0.52043 0.96526 1.00132
 O229 O 0.53432 1.03997 0.95584
 O230 O 0.56021 1.01791 0.97872
 C231 C 0.55568 1.03329 0.96207
 O232 O 0.46712 1.04505 1.04072
 O233 O 0.44067 1.02135 1.02044
 C234 C 0.44557 1.03835 1.03518
 O235 O 0.53459 1.04202 1.04246
 O236 O 0.56036 1.01883 1.02057
 C237 C 0.55591 1.03491 1.03650
 O238 O 0.46688 1.04232 0.95753
 O239 O 0.44052 1.02118 0.98085
 C240 C 0.44540 1.03690 0.96463
 Zr241 Zr 0.50046 1.02902 0.96923
 O242 O 0.50335 1.06638 0.96796
 O243 O 0.49797 1.02750 0.93142
 Zr244 Zr 0.50063 1.03066 1.02989
 O245 O 0.50377 1.06800 1.02925
 O246 O 0.49805 1.03109 1.06775
 Zr247 Zr 0.46466 1.00044 1.00062
 Zr248 Zr 0.53563 0.99932 1.00028
 O249 O 0.52137 1.03382 0.99936
 O250 O 0.47932 1.03480 0.99953
 O251 O 0.52134 0.99863 0.96534
 O252 O 0.47948 1.00107 1.03523
 O253 O 0.47923 0.99926 0.96585
 O254 O 0.52154 1.00050 1.03532
 H255 H 0.53111 0.95125 1.00163
 H256 H 0.46867 1.00153 1.04931
 H257 H 0.53240 1.04754 0.99896
 H258 H 0.46827 0.99906 0.95191
 H259 H 0.50846 0.98263 1.07536
 H260 H 0.51231 1.02288 1.07418
 H261 H 0.49117 1.07411 1.01845
 H262 H 0.49009 1.07297 0.97764
 H263 H 0.51205 1.01862 0.92547
 H264 H 0.50951 0.97808 0.92656
 H265 H 0.49027 0.92637 0.98488
 H266 H 0.50047 0.92772 1.04679
 O267 O 0.04278 0.46681 -0.04245
 O268 O 0.01868 0.44078 -0.02195
 C269 C 0.03570 0.44555 -0.03699
 O270 O 0.04160 0.53197 0.04295
 O271 O 0.01923 0.55849 0.02120
 C272 C 0.03500 0.55335 0.03738
 O273 O 0.04337 0.46541 0.03927
 O274 O 0.01892 0.44009 0.01844
 C275 C 0.03622 0.44436 0.03327
 O276 O 0.04044 0.53347 -0.04463
 O277 O 0.01986 0.55914 -0.02025
 C278 C 0.03479 0.55463 -0.03746
 Zr279 Zr 0.02888 0.50015 -0.03144
 O280 O 0.06670 0.50154 -0.03279
 O281 O 0.02696 0.50180 -0.06936
 Zr282 Zr 0.02971 0.49897 0.02906
 O283 O 0.06746 0.49985 0.02648
 O284 O 0.03088 0.49588 0.06684
 O285 O 0.03361 0.47839 -0.00160
 O286 O 0.03389 0.52014 -0.00085
 O287 O -0.04222 0.53445 -0.04391
 O288 O -0.02101 0.55953 -0.01952
 C289 C -0.03619 0.55543 -0.03653
 O290 O -0.04511 0.46635 0.04055
 O291 O -0.02184 0.44055 0.01890
 C292 C -0.03859 0.44517 0.03429
 O293 O -0.04233 0.53290 0.04377
 O294 O -0.01964 0.55890 0.02167
 C295 C -0.03541 0.55414 0.03802
 O296 O -0.04592 0.46776 -0.04215
 O297 O -0.02236 0.44126 -0.02172
 C298 C -0.03935 0.44636 -0.03663
 Zr299 Zr -0.03168 0.50074 -0.03061
 O300 O -0.06943 0.50412 -0.02995
 O301 O -0.03199 0.49902 -0.06847
 Zr302 Zr -0.03095 0.49963 0.03002
 O303 O -0.06871 0.50260 0.03128
 O304 O -0.02966 0.49633 0.06780
 Zr305 Zr -0.00146 0.46468 -0.00133
 Zr306 Zr -0.00062 0.53499 -0.00000
 O307 O -0.03544 0.52076 0.00012
 O308 O -0.03627 0.47913 -0.00060
 O309 O -0.00122 0.52165 -0.03520
 O310 O -0.00079 0.47871 0.03358
 O311 O -0.00164 0.47987 -0.03577
 O312 O -0.00034 0.52022 0.03467
 H313 H 0.04806 0.53069 -0.00081
 H314 H -0.00070 0.46778 0.04748
 H315 H -0.04939 0.53160 0.00046
 H316 H -0.00195 0.46921 -0.04983
 H317 H 0.02016 0.50819 0.07345
 H318 H -0.02102 0.51029 0.07408
 H319 H -0.07531 0.49067 0.02016
 H320 H -0.07585 0.49065 -0.02058
 H321 H -0.01910 0.50959 -0.07430
 H322 H 0.02381 0.48575 -0.07569
 H323 H 0.07267 0.49243 -0.01887
 H324 H 0.07352 0.49947 0.04315
 O325 O 1.04409 -0.04192 0.53338
 O326 O 1.02212 -0.01934 0.55963
 C327 C 1.03824 -0.03516 0.55486
 O328 O 1.04254 0.04354 0.46566
 O329 O 1.02118 0.02014 0.43978
 C330 C 1.03652 0.03673 0.44427
 O331 O 1.04521 0.04144 0.53304
 O332 O 1.02273 0.01944 0.55944
 C333 C 1.03916 0.03492 0.55456
 O334 O 1.04122 -0.04436 0.46596
 O335 O 1.02057 -0.02042 0.43990
 C336 C 1.03535 -0.03749 0.44453
 Zr337 Zr 1.03080 -0.03034 0.49968
 O338 O 1.06861 -0.03048 0.49698
 O339 O 1.03053 -0.06772 0.50248
 Zr340 Zr 1.03212 0.02951 0.49947
 O341 O 1.06964 0.02487 0.49842
 O342 O 1.03634 0.06673 0.49957
 O343 O 1.03622 -0.00044 0.52090
 O344 O 1.03570 -0.00050 0.47865
 O345 O 0.95863 -0.04237 0.46647
 O346 O 0.98004 -0.01940 0.44010
 C347 C 0.96455 -0.03579 0.44495
 O348 O 0.95876 0.04270 0.53393
 O349 O 0.98083 0.01988 0.55986
 C350 C 0.96474 0.03578 0.55533
 O351 O 0.96054 0.04475 0.46628
 O352 O 0.98126 0.02097 0.44012
 C353 C 0.96633 0.03788 0.44482
 O354 O 0.95625 -0.03946 0.53383
 O355 O 0.98068 -0.01936 0.55983
 C356 C 0.96333 -0.03387 0.55523
 Zr357 Zr 0.97021 -0.02903 0.50009
 O358 O 0.93241 -0.02846 0.49745
 O359 O 0.96965 -0.06640 0.50322
 Zr360 Zr 0.97154 0.03100 0.50001
 O361 O 0.93371 0.03158 0.49770
 O362 O 0.97244 0.06841 0.50221
 Zr363 Zr 1.00134 0.00029 0.53533
 Zr364 Zr 1.00091 0.00019 0.46427
 O365 O 0.96635 0.00106 0.47936
 O366 O 0.96630 0.00109 0.52138
 O367 O 1.00027 -0.03438 0.47855
 O368 O 1.00202 0.03457 0.52056
 O369 O 1.00053 -0.03400 0.52067
 O370 O 1.00178 0.03480 0.47844
 H371 H 1.04959 -0.00075 0.46758
 H372 H 1.00221 0.04836 0.53150
 H373 H 0.95223 0.00137 0.46864
 H374 H 1.00031 -0.04784 0.53160
 H375 H 1.02113 0.07359 0.50534
 H376 H 0.98308 0.07414 0.48925
 H377 H 0.92736 0.02272 0.51162
 H378 H 0.92638 -0.01776 0.51011
 H379 H 0.97873 -0.07293 0.48951
 H380 H 1.01947 -0.07376 0.49010
 H381 H 1.07480 -0.01980 0.50958
 H382 H 1.07656 0.04101 0.49785
 C383 C 1.10966 0.10979 0.30196
 N384 N 1.10327 0.13198 0.29512
 N385 N 1.11239 0.14159 0.27529
 C386 C 1.12848 0.12950 0.26171
 N387 N 1.13495 0.10734 0.26865
 N388 N 1.12557 0.09759 0.28830
 C389 C 1.09940 0.09909 0.32366
 N390 N 1.09861 0.07520 0.32620
 N391 N 1.08892 0.06545 0.34569
 C392 C 1.08002 0.07923 0.36352
 N393 N 1.08101 0.10314 0.36110
 N394 N 1.09039 0.11289 0.34144
 C395 C 1.06897 0.06834 0.38473
 N396 N 1.06731 0.08031 0.40578
 N397 N 1.05718 0.07026 0.42492
 C398 C 1.04804 0.04802 0.42354
 N399 N 1.04961 0.03615 0.40247
 N400 N 1.06002 0.04606 0.38347
 C401 C 0.88774 -0.11116 0.30642
 N402 N 0.89152 -0.13442 0.30158
 N403 N 0.88193 -0.14436 0.28220
 C404 C 0.86798 -0.13148 0.26714
 N405 N 0.86405 -0.10827 0.27207
 N406 N 0.87389 -0.09825 0.29128
 C407 C 0.89872 -0.10005 0.32746
 N408 N 0.90162 -0.07620 0.32837
 N409 N 0.91197 -0.06609 0.34724
 C410 C 0.91951 -0.07942 0.36603
 N411 N 0.91644 -0.10326 0.36522
 N412 N 0.90636 -0.11340 0.34620
 C413 C 0.93110 -0.06819 0.38667
 N414 N 0.93209 -0.07935 0.40823
 N415 N 0.94258 -0.06899 0.42692
 C416 C 0.95273 -0.04726 0.42461
 N417 N 0.95185 -0.03620 0.40302
 N418 N 0.94110 -0.04641 0.38444
 C419 C 0.89195 0.10801 0.69801
 N420 N 0.89467 0.13151 0.70230
 N421 N 0.88580 0.14121 0.72218
 C422 C 0.87367 0.12781 0.73836
 N423 N 0.87085 0.10433 0.73402
 N424 N 0.87997 0.09458 0.71428
 C425 C 0.90192 0.09725 0.67623
 N426 N 0.90544 0.07350 0.67502
 N427 N 0.91485 0.06374 0.65544
 C428 C 0.92078 0.07731 0.63623
 N429 N 0.91707 0.10104 0.63735
 N430 N 0.90792 0.11086 0.65705
 C431 C 0.93166 0.06648 0.61492
 N432 N 0.93181 0.07795 0.59351
 N433 N 0.94203 0.06809 0.57434
 C434 C 0.95270 0.04654 0.57602
 N435 N 0.95257 0.03514 0.59744
 N436 N 0.94211 0.04485 0.61649
 C437 C 1.11408 -0.10977 0.69469
 N438 N 1.11258 -0.13356 0.69794
 N439 N 1.12177 -0.14369 0.71744
 C440 C 1.13303 -0.13043 0.73427
 N441 N 1.13468 -0.10667 0.73095
 N442 N 1.12524 -0.09650 0.71158
 C443 C 1.10357 -0.09853 0.67341
 N444 N 1.09888 -0.07494 0.67320
 N445 N 1.08892 -0.06480 0.65410
 C446 C 1.08355 -0.07781 0.63439
 N447 N 1.08841 -0.10137 0.63452
 N448 N 1.09813 -0.11157 0.65374
 C449 C 1.07221 -0.06662 0.61352
 N450 N 1.07236 -0.07744 0.59180
 N451 N 1.06181 -0.06731 0.57297
 C452 C 1.05049 -0.04615 0.57529
 N453 N 1.05029 -0.03540 0.59703
 N454 N 1.06108 -0.04538 0.61576
 C455 C 0.30648 1.11364 1.11192
 N456 N 0.29185 1.10077 1.12637
 N457 N 0.27248 1.11058 1.13619
 C458 C 0.26682 1.13355 1.13165
 N459 N 0.28142 1.14637 1.11708
 N460 N 0.30096 1.13664 1.10751
 C461 C 0.32768 1.10271 1.10091
 N462 N 0.34614 1.11624 1.09287
 N463 N 0.36527 1.10624 1.08274
 C464 C 0.36647 1.08237 1.08001
 N465 N 0.34797 1.06888 1.08796
 N466 N 0.32900 1.07885 1.09837
 C467 C 0.38717 1.07122 1.06831
 N468 N 0.38505 1.04932 1.05859
 N469 N 0.40366 1.03906 1.04787
 C470 C 0.42518 1.05017 1.04672
 N471 N 0.42739 1.07204 1.05656
 N472 N 0.40865 1.08246 1.06702
 C473 C 0.30256 0.88973 0.89328
 N474 N 0.28900 0.90212 0.87746
 N475 N 0.26951 0.89246 0.86783
 C476 C 0.26264 0.87018 0.87393
 N477 N 0.27612 0.85788 0.88992
 N478 N 0.29580 0.86742 0.89930
 C479 C 0.32408 0.90038 0.90381
 N480 N 0.34178 0.88656 0.91292
 N481 N 0.36129 0.89630 0.92248
 C482 C 0.36363 0.92020 0.92356
 N483 N 0.34587 0.93400 0.91457
 N484 N 0.32653 0.92427 0.90471
 C485 C 0.38475 0.93108 0.93463
 N486 N 0.38352 0.95348 0.94328
 N487 N 0.40250 0.96345 0.95352
 C488 C 0.42354 0.95152 0.95523
 N489 N 0.42487 0.92915 0.94643
 N490 N 0.40574 0.91904 0.93646
 C491 C 0.69362 0.88718 1.11280
 N492 N 0.70574 0.87003 1.10083
 N493 N 0.72512 0.86003 1.11040
 C494 C 0.73333 0.86708 1.13214
 N495 N 0.72124 0.88433 1.14406
 N496 N 0.70166 0.89408 1.13464
 C497 C 0.67246 0.89840 1.10209
 N498 N 0.65565 0.90899 1.11606
 N499 N 0.63655 0.91929 1.10623
 C500 C 0.63378 0.91968 1.08207
 N501 N 0.65067 0.90920 1.06812
 N502 N 0.66957 0.89860 1.07796
 C503 C 0.61317 0.93156 1.07104
 N504 N 0.61469 0.93975 1.04823
 N505 N 0.59615 0.95063 1.03807
 C506 C 0.57527 0.95344 1.05022
 N507 N 0.57364 0.94512 1.07301
 N508 N 0.59235 0.93453 1.08331
 C509 C 0.69601 1.10912 0.88832
 N510 N 0.71143 1.09659 0.87444
 N511 N 0.73071 1.10693 0.86501
 C512 C 0.73548 1.13011 0.86939
 N513 N 0.72012 1.14259 0.88344
 N514 N 0.70066 1.13233 0.89260
 C515 C 0.67475 1.09768 0.89864
 N516 N 0.65557 1.11077 0.90563
 N517 N 0.63629 1.10034 0.91497
 C518 C 0.63561 1.07648 0.91794
 N519 N 0.65483 1.06341 0.91107
 N520 N 0.67398 1.07381 0.90143
 C521 C 0.61465 1.06502 0.92883
 N522 N 0.61670 1.04343 0.93934
 N523 N 0.59787 1.03328 0.94983
 C524 C 0.57621 1.04420 0.94987
 N525 N 0.57408 1.06569 0.93915
 N526 N 0.59300 1.07599 0.92894
 C527 C 0.11389 0.30859 0.11162
 N528 N 0.10051 0.29318 0.12467
 N529 N 0.11069 0.27470 0.13547
 C530 C 0.13458 0.27079 0.13339
 N531 N 0.14797 0.28614 0.12026
 N532 N 0.13783 0.30479 0.10969
 C533 C 0.10257 0.32886 0.09962
 N534 N 0.11579 0.34779 0.09251
 N535 N 0.10540 0.36621 0.08177
 C536 C 0.08147 0.36622 0.07748
 N537 N 0.06830 0.34722 0.08445
 N538 N 0.07863 0.32894 0.09545
 C539 C 0.06995 0.38647 0.06563
 N540 N 0.04804 0.38407 0.05542
 N541 N 0.03744 0.40246 0.04485
 C542 C 0.04824 0.42399 0.04436
 N543 N 0.07012 0.42641 0.05464
 N544 N 0.08085 0.40795 0.06496
 C545 C -0.11663 0.31061 -0.11497
 N546 N -0.10308 0.29534 -0.12796
 N547 N -0.11293 0.27641 -0.13818
 C548 C -0.13665 0.27189 -0.13556
 N549 N -0.15023 0.28711 -0.12250
 N550 N -0.14042 0.30622 -0.11250
 C551 C -0.10552 0.33123 -0.10344
 N552 N -0.11892 0.35002 -0.09630
 N553 N -0.10864 0.36865 -0.08585
 C554 C -0.08465 0.36900 -0.08192
 N555 N -0.07131 0.35015 -0.08895
 N556 N -0.08153 0.33168 -0.09965
 C557 C -0.07318 0.38923 -0.07004
 N558 N -0.05129 0.38666 -0.05987
 N559 N -0.04069 0.40486 -0.04909
 C560 C -0.05144 0.42640 -0.04833
 N561 N -0.07330 0.42906 -0.05863
 N562 N -0.08405 0.41074 -0.06917
 C563 C 0.11328 0.69097 -0.11415
 N564 N 0.12637 0.70615 -0.10066
 N565 N 0.13695 0.72487 -0.11064
 C566 C 0.13459 0.72925 -0.13444
 N567 N 0.12139 0.71414 -0.14794
 N568 N 0.11105 0.69524 -0.13800
 C569 C 0.10151 0.67047 -0.10298
 N570 N 0.09434 0.65173 -0.11639
 N571 N 0.08378 0.63312 -0.10612
 C572 C 0.07974 0.63273 -0.08212
 N573 N 0.08678 0.65154 -0.06876
 N574 N 0.09760 0.67000 -0.07898
 C575 C 0.06792 0.61240 -0.07071
 N576 N 0.05775 0.61467 -0.04873
 N577 N 0.04703 0.59629 -0.03827
 C578 C 0.04635 0.57488 -0.04927
 N579 N 0.05663 0.57255 -0.07121
 N580 N 0.06710 0.59103 -0.08181
 C581 C -0.10991 0.69336 0.11287
 N582 N -0.09687 0.70835 0.12665
 N583 N -0.10689 0.72765 0.13604
 C584 C -0.13022 0.73283 0.13172
 N585 N -0.14324 0.71793 0.11782
 N586 N -0.13329 0.69846 0.10867
 C587 C -0.09879 0.67213 0.10252
 N588 N -0.11242 0.65362 0.09515
 N589 N -0.10226 0.63440 0.08571
 C590 C -0.07812 0.63313 0.08304
 N591 N -0.06452 0.65169 0.09031
 N592 N -0.07465 0.67076 0.10003
 C593 C -0.06689 0.61233 0.07194
 N594 N -0.04479 0.61407 0.06193
 N595 N -0.03477 0.59546 0.05125
 C596 C -0.04631 0.57432 0.05050
 N597 N -0.06831 0.57248 0.06073
 N598 N -0.07848 0.59121 0.07114
 C599 C 1.11284 0.11050 0.69448
 N600 N 1.12649 0.09770 0.70987
 N601 N 1.13588 0.10778 0.72924
 C602 C 1.13169 0.13095 0.73411
 N603 N 1.11791 0.14375 0.71882
 N604 N 1.10876 0.13373 0.69926
 C605 C 1.10252 0.09929 0.67319
 N606 N 1.09538 0.11252 0.65418
 N607 N 1.08602 0.10222 0.63487
 C608 C 1.08322 0.07835 0.63404
 N609 N 1.09026 0.06515 0.65311
 N610 N 1.09990 0.07542 0.67227
 C611 C 1.07229 0.06697 0.61315
 N612 N 1.06219 0.04522 0.61526
 N613 N 1.05173 0.03501 0.59652
 C614 C 1.05131 0.04602 0.57490
 N615 N 1.06162 0.06769 0.57270
 N616 N 1.07181 0.07805 0.59154
 C617 C 0.88581 -0.11408 0.69085
 N618 N 0.89925 -0.12681 0.70649
 N619 N 0.88904 -0.13781 0.72499
 C620 C 0.86506 -0.13626 0.72865
 N621 N 0.85162 -0.12347 0.71306
 N622 N 0.86180 -0.11270 0.69439
 C623 C 0.89712 -0.10181 0.67063
 N624 N 0.88394 -0.09476 0.65149
 N625 N 0.89429 -0.08369 0.63310
 C626 C 0.91813 -0.07901 0.63334
 N627 N 0.93127 -0.08593 0.65255
 N628 N 0.92098 -0.09725 0.67081
 C629 C 0.92959 -0.06686 0.61314
 N630 N 0.95136 -0.05656 0.61582
 N631 N 0.96195 -0.04575 0.59741
 C632 C 0.95125 -0.04509 0.57561
 N633 N 0.92950 -0.05545 0.57290
 N634 N 0.91878 -0.06602 0.59138
 C635 C 1.11020 -0.11344 0.30522
 N636 N 1.12414 -0.10041 0.29025
 N637 N 1.13411 -0.11027 0.27101
 C638 C 1.13022 -0.13343 0.26588
 N639 N 1.11617 -0.14644 0.28077
 N640 N 1.10644 -0.13665 0.30019
 C641 C 1.09917 -0.10245 0.32629
 N642 N 1.09132 -0.11588 0.34491
 N643 N 1.08131 -0.10577 0.36403
 C644 C 1.07854 -0.08191 0.36503
 N645 N 1.08627 -0.06852 0.34635
 N646 N 1.09655 -0.07859 0.32740
 C647 C 1.06720 -0.07065 0.38578
 N648 N 1.05775 -0.04861 0.38374
 N649 N 1.04743 -0.03821 0.40248
 C650 C 1.04646 -0.04933 0.42402
 N651 N 1.05602 -0.07135 0.42614
 N652 N 1.06608 -0.08189 0.40728
 C653 C 0.89324 0.11098 0.30294
 N654 N 0.88171 0.09718 0.28675
 N655 N 0.87234 0.10663 0.26701
 C656 C 0.87444 0.13017 0.26258
 N657 N 0.88610 0.14396 0.27868
 N658 N 0.89524 0.13455 0.29858
 C659 C 0.90358 0.10045 0.32461
 N660 N 0.90954 0.11412 0.34370
 N661 N 0.91901 0.10441 0.36330
 C662 C 0.92308 0.08073 0.36438
 N663 N 0.91718 0.06711 0.34527
 N664 N 0.90747 0.07676 0.32581
 C665 C 0.93418 0.06989 0.38552
 N666 N 0.94444 0.04820 0.38375
 N667 N 0.95475 0.03820 0.40270
 C668 C 0.95496 0.04937 0.42420
 N669 N 0.94456 0.07104 0.42607
 N670 N 0.93446 0.08119 0.40700
 C671 C 0.11091 0.30831 -0.11448
 N672 N 0.09766 0.29328 -0.12801
 N673 N 0.10757 0.27402 -0.13760
 C674 C 0.13100 0.26895 -0.13371
 N675 N 0.14423 0.28394 -0.12011
 N676 N 0.13439 0.30335 -0.11078
 C677 C 0.09987 0.32927 -0.10358
 N678 N 0.11355 0.34763 -0.09594
 N679 N 0.10348 0.36651 -0.08575
 C680 C 0.07940 0.36754 -0.08258
 N681 N 0.06574 0.34914 -0.09016
 N682 N 0.07578 0.33041 -0.10060
 C683 C 0.06823 0.38795 -0.07079
 N684 N 0.04613 0.38588 -0.06089
 N685 N 0.03592 0.40424 -0.04998
 C686 C 0.04731 0.42543 -0.04881
 N687 N 0.06937 0.42758 -0.05884
 N688 N 0.07973 0.40910 -0.06951
 C689 C -0.11586 0.30985 0.11351
 N690 N -0.10237 0.29451 0.12648
 N691 N -0.11242 0.27594 0.13725
 C692 C -0.13627 0.27188 0.13519
 N693 N -0.14977 0.28717 0.12214
 N694 N -0.13976 0.30592 0.11161
 C695 C -0.10465 0.33014 0.10151
 N696 N -0.11793 0.34910 0.09460
 N697 N -0.10761 0.36754 0.08381
 C698 C -0.08372 0.36751 0.07927
 N699 N -0.07049 0.34849 0.08604
 N700 N -0.08075 0.33020 0.09710
 C701 C -0.07227 0.38768 0.06730
 N702 N -0.05057 0.38509 0.05664
 N703 N -0.04000 0.40338 0.04589
 C704 C -0.05061 0.42500 0.04566
 N705 N -0.07228 0.42765 0.05641
 N706 N -0.08299 0.40927 0.06691
 C707 C -0.10714 0.69771 -0.10860
 N708 N -0.11902 0.71354 -0.09467
 N709 N -0.12828 0.73314 -0.10420
 C710 C -0.12571 0.73776 -0.12793
 N711 N -0.11367 0.72203 -0.14183
 N712 N -0.10465 0.70228 -0.13235
 C713 C -0.09711 0.67608 -0.09807
 N714 N -0.09112 0.65736 -0.11210
 N715 N -0.08200 0.63773 -0.10245
 C716 C -0.07833 0.63626 -0.07845
 N717 N -0.08424 0.65502 -0.06446
 N718 N -0.09360 0.67452 -0.07407
 C719 C -0.06766 0.61503 -0.06773
 N720 N -0.05761 0.61621 -0.04567
 N721 N -0.04756 0.59716 -0.03587
 C722 C -0.04744 0.57615 -0.04763
 N723 N -0.05767 0.57486 -0.06965
 N724 N -0.06748 0.59403 -0.07959
 C725 C 0.10960 0.69087 0.11419
 N726 N 0.09655 0.70596 0.12791
 N727 N 0.10656 0.72532 0.13710
 C728 C 0.12987 0.73045 0.13261
 N729 N 0.14290 0.71544 0.11878
 N730 N 0.13297 0.69592 0.10985
 C731 C 0.09847 0.66974 0.10387
 N732 N 0.11208 0.65122 0.09643
 N733 N 0.10190 0.63216 0.08676
 C734 C 0.07779 0.63110 0.08392
 N735 N 0.06421 0.64965 0.09129
 N736 N 0.07435 0.66856 0.10125
 C737 C 0.06658 0.61062 0.07239
 N738 N 0.04466 0.61275 0.06220
 N739 N 0.03464 0.59442 0.05110
 C740 C 0.04603 0.57322 0.05007
 N741 N 0.06787 0.57098 0.06047
 N742 N 0.07804 0.58943 0.07131
 C743 C 0.30665 1.11459 0.89088
 N744 N 0.30135 1.11042 0.86754
 N745 N 0.28182 1.11981 0.85768
 C746 C 0.26709 1.13393 0.87073
 N747 N 0.27249 1.13825 0.89401
 N748 N 0.29185 1.12861 0.90396
 C749 C 0.32782 1.10380 0.90188
 N750 N 0.32914 1.10114 0.92601
 N751 N 0.34811 1.09084 0.93600
 C752 C 0.36659 1.08312 0.92224
 N753 N 0.36538 1.08595 0.89812
 N754 N 0.34625 1.09598 0.88810
 C755 C 0.38725 1.07145 0.93328
 N756 N 0.40855 1.07015 0.92158
 N757 N 0.42724 1.05938 0.93165
 C758 C 0.42515 1.04925 0.95363
 N759 N 0.40383 1.05045 0.96526
 N760 N 0.38526 1.06150 0.95533
 C761 C 0.30546 0.88584 1.10915
 N762 N 0.29063 0.87219 1.09576
 N763 N 0.27131 0.86226 1.10555
 C764 C 0.26598 0.86591 1.12899
 N765 N 0.28074 0.87964 1.14234
 N766 N 0.30023 0.88932 1.13263
 C767 C 0.32658 0.89695 1.09835
 N768 N 0.34504 0.90434 1.11226
 N769 N 0.36413 0.91466 1.10244
 C770 C 0.36528 0.91824 1.07842
 N771 N 0.34678 0.91094 1.06453
 N772 N 0.32783 0.90034 1.07431
 C773 C 0.38598 0.93011 1.06763
 N774 N 0.38405 0.94065 1.04586
 N775 N 0.40273 0.95173 1.03612
 C776 C 0.42409 0.95239 1.04766
 N777 N 0.42609 0.94171 1.06936
 N778 N 0.40730 0.93090 1.07926
 C779 C 0.69560 1.10970 1.11141
 N780 N 0.71289 1.09636 1.12191
 N781 N 0.73211 1.10655 1.13150
 C782 C 0.73487 1.13042 1.13068
 N783 N 0.71766 1.14375 1.12007
 N784 N 0.69830 1.13358 1.11071
 C785 C 0.67447 1.09845 1.10084
 N786 N 0.65456 1.11135 1.09589
 N787 N 0.63540 1.10110 1.08621
 C788 C 0.63558 1.07765 1.08089
 N789 N 0.65552 1.06478 1.08576
 N790 N 0.67457 1.07497 1.09569
 C791 C 0.61474 1.06645 1.06971
 N792 N 0.61701 1.04528 1.05846
 N793 N 0.59823 1.03526 1.04787
 C794 C 0.57645 1.04592 1.04838
 N795 N 0.57413 1.06701 1.05980
 N796 N 0.59298 1.07716 1.07016
 C797 C 0.69323 0.88613 0.88862
 N798 N 0.71021 0.87577 0.90249
 N799 N 0.72955 0.86602 0.89260
 C800 C 0.73274 0.86654 0.86850
 N801 N 0.71581 0.87698 0.85461
 N802 N 0.69633 0.88650 0.86449
 C803 C 0.67211 0.89710 0.89962
 N804 N 0.65239 0.90214 0.88636
 N805 N 0.63332 0.91227 0.89643
 C806 C 0.63343 0.91797 0.92005
 N807 N 0.65318 0.91299 0.93327
 N808 N 0.67212 0.90262 0.92327
 C809 C 0.61278 0.92965 0.93118
 N810 N 0.61534 0.94105 0.95239
 N811 N 0.59676 0.95184 0.96259
 C812 C 0.57487 0.95142 0.95209
 N813 N 0.57223 0.93991 0.93092
 N814 N 0.59091 0.92932 0.92056
   
