data_POSCAR
  _audit_creation_date              2014-09-24
  _audit_creation_method            'ToBaCCo'
  _symmetry_space_group_name_H-M    'P1'
  _symmetry_Int_Tables_number       1
  _symmetry_cell_setting            triclinic
  loop_
  _symmetry_equiv_pos_as_xyz
 x,y,z
_cell_length_a 41.2869
_cell_length_b 43.1824
_cell_length_c 39.9052
_cell_angle_alpha 89.745700
_cell_angle_beta 89.965500
_cell_angle_gamma 90.189600
loop_
  _atom_site_label
  _atom_site_type_symbol
  _atom_site_fract_x
  _atom_site_fract_y
  _atom_site_fract_z
Si1 Si 1.24964 0.25044 0.25205
 Si2 Si 0.74757 -0.24775 0.25137
 Si3 Si 0.74860 0.24862 -0.24996
 Si4 Si 1.24983 -0.25125 -0.24997
 Si5 Si 0.25125 0.25176 0.74795
 Si6 Si 0.75006 0.75135 0.74832
 Si7 Si 0.75041 0.24804 0.25020
 Si8 Si 0.25256 0.74922 0.25001
 N9 N 0.96874 0.05424 0.03649
 N10 N 0.94767 0.07619 0.04343
 N11 N 1.03666 0.03243 0.05965
 N12 N 1.05831 0.03900 0.08294
 N13 N 1.03673 0.05382 0.03615
 N14 N 1.05844 0.07540 0.04277
 N15 N 0.96864 0.03289 0.06003
 N16 N 0.94749 0.03987 0.08367
 C17 C 0.93428 0.06678 0.07273
 C18 C 1.07200 0.06571 0.07182
 N19 N 1.03573 -0.05576 0.03627
 N20 N 1.05630 -0.07815 0.04344
 N21 N 0.96799 -0.03407 0.05996
 N22 N 0.94639 -0.04072 0.08335
 N23 N 0.96772 -0.05525 0.03646
 N24 N 0.94594 -0.07679 0.04317
 N25 N 1.03603 -0.03460 0.05981
 N26 N 1.05681 -0.04217 0.08364
 Mn27 Mn 1.00233 -0.00083 0.06019
 C28 C 1.06963 -0.06922 0.07284
 C29 C 0.93254 -0.06728 0.07231
 N30 N 1.03642 0.05423 -0.03598
 N31 N 1.05772 0.07614 -0.04307
 N32 N 0.96810 0.03344 -0.05921
 N33 N 0.94691 0.04070 -0.08275
 N34 N 0.96842 0.05462 -0.03569
 N35 N 0.94745 0.07674 -0.04257
 N36 N 1.03614 0.03308 -0.05951
 N37 N 1.05723 0.04013 -0.08328
 Mn38 Mn 1.00258 0.05444 0.00025
 C39 C 1.07083 0.06688 -0.07244
 C40 C 0.93389 0.06760 -0.07179
 N41 N 0.96748 -0.05497 -0.03569
 N42 N 0.94628 -0.07692 -0.04269
 N43 N 1.03556 -0.03386 -0.05943
 N44 N 1.05709 -0.04050 -0.08279
 N45 N 1.03547 -0.05525 -0.03593
 N46 N 1.05692 -0.07691 -0.04262
 N47 N 0.96755 -0.03359 -0.05920
 N48 N 0.94641 -0.04055 -0.08286
 Mn49 Mn 1.00160 -0.05553 0.00027
 Mn50 Mn 1.00183 -0.00024 -0.05966
 Cl51 Cl 1.00208 -0.00054 0.00026
 C52 C 0.93299 -0.06746 -0.07197
 C53 C 1.07050 -0.06727 -0.07174
 N54 N 1.05582 0.53352 0.53496
 N55 N 1.07793 0.55478 0.54150
 N56 N 1.03348 0.46819 0.55817
 N57 N 1.03978 0.44690 0.58108
 N58 N 1.05601 0.46845 0.53493
 N59 N 1.07822 0.44734 0.54143
 N60 N 1.03333 0.53325 0.55824
 N61 N 1.03958 0.55431 0.58124
 C62 C 1.06733 0.56779 0.57029
 C63 C 1.06762 0.43385 0.57014
 N64 N 0.94115 0.46776 0.53487
 N65 N 0.91890 0.44656 0.54146
 N66 N 0.96347 0.53288 0.55821
 N67 N 0.95722 0.55404 0.58107
 N68 N 0.94102 0.53288 0.53492
 N69 N 0.91890 0.55405 0.54134
 N70 N 0.96359 0.46778 0.55817
 N71 N 0.95719 0.44659 0.58121
 Mn72 Mn 0.99847 0.50052 0.55852
 C73 C 0.92938 0.43330 0.57030
 C74 C 0.92947 0.56728 0.57007
 N75 N 1.05615 0.46884 0.46267
 N76 N 1.07826 0.44766 0.45635
 N77 N 1.03365 0.53394 0.43931
 N78 N 1.04030 0.55489 0.41606
 N79 N 1.05608 0.53395 0.46263
 N80 N 1.07853 0.55491 0.45585
 N81 N 1.03374 0.46884 0.43935
 N82 N 1.04001 0.44765 0.41653
 Mn83 Mn 1.05632 0.50120 0.49881
 C84 C 1.06773 0.43441 0.42763
 C85 C 1.06821 0.56806 0.42688
 N86 N 0.94122 0.53322 0.46263
 N87 N 0.91911 0.55444 0.45625
 N88 N 0.96388 0.46842 0.43927
 N89 N 0.95779 0.44719 0.41639
 N90 N 0.94137 0.46815 0.46253
 N91 N 0.91939 0.44672 0.45609
 N92 N 0.96374 0.53348 0.43937
 N93 N 0.95753 0.55487 0.41656
 Mn94 Mn 0.94087 0.50050 0.49873
 Mn95 Mn 0.99874 0.50118 0.43900
 Cl96 Cl 0.99860 0.50085 0.49876
 C97 C 0.92976 0.56797 0.42758
 C98 C 0.93009 0.43362 0.42736
 N99 N 0.55437 0.03313 0.53666
 N100 N 0.57610 0.05479 0.54301
 N101 N 0.53275 -0.03241 0.55989
 N102 N 0.53882 -0.05414 0.58236
 N103 N 0.55527 -0.03195 0.53666
 N104 N 0.57726 -0.05336 0.54268
 N105 N 0.53187 0.03268 0.55991
 N106 N 0.53771 0.05403 0.58273
 C107 C 0.56525 0.06786 0.57167
 C108 C 0.56656 -0.06720 0.57115
 N109 N 0.44071 -0.03386 0.53604
 N110 N 0.41943 -0.05612 0.54170
 N111 N 0.46203 0.03150 0.55948
 N112 N 0.45590 0.05328 0.58168
 N113 N 0.43971 0.03116 0.53608
 N114 N 0.41780 0.05269 0.54170
 N115 N 0.46298 -0.03355 0.55950
 N116 N 0.45744 -0.05561 0.58179
 Mn117 Mn 0.49739 -0.00044 0.56007
 C118 C 0.43030 -0.06966 0.57020
 C119 C 0.42833 0.06647 0.57011
 N120 N 0.55553 -0.03165 0.46454
 N121 N 0.57746 -0.05313 0.45884
 N122 N 0.53233 0.03309 0.44105
 N123 N 0.53828 0.05471 0.41836
 N124 N 0.55463 0.03338 0.46449
 N125 N 0.57631 0.05520 0.45839
 N126 N 0.53321 -0.03194 0.44113
 N127 N 0.53936 -0.05363 0.41885
 Mn128 Mn 0.55528 0.00074 0.50058
 C129 C 0.56693 -0.06682 0.43038
 C130 C 0.56565 0.06852 0.42967
 N131 N 0.44004 0.03144 0.46401
 N132 N 0.41837 0.05322 0.45841
 N133 N 0.46341 -0.03315 0.44067
 N134 N 0.45765 -0.05457 0.41790
 N135 N 0.44089 -0.03363 0.46390
 N136 N 0.41923 -0.05538 0.45757
 N137 N 0.46256 0.03194 0.44079
 N138 N 0.45681 0.05409 0.41871
 Mn139 Mn 0.44000 -0.00124 0.50002
 Mn140 Mn 0.49788 -0.00001 0.44054
 Cl141 Cl 0.49765 -0.00024 0.50030
 C142 C 0.42925 0.06730 0.43017
 C143 C 0.43014 -0.06847 0.42893
 N144 N 0.55866 0.53213 0.03632
 N145 N 0.58101 0.55328 0.04238
 N146 N 0.53584 0.46723 0.06022
 N147 N 0.54225 0.44611 0.08329
 N148 N 0.55811 0.46710 0.03671
 N149 N 0.58021 0.44588 0.04314
 N150 N 0.53637 0.53229 0.05979
 N151 N 0.54298 0.55356 0.08246
 C152 C 0.57076 0.56667 0.07109
 C153 C 0.56986 0.43274 0.07212
 N154 N 0.44345 0.46772 0.03741
 N155 N 0.42115 0.44658 0.04389
 N156 N 0.46642 0.53271 0.06039
 N157 N 0.46002 0.55366 0.08348
 N158 N 0.44392 0.53278 0.03715
 N159 N 0.42169 0.55378 0.04378
 N160 N 0.46592 0.46760 0.06066
 N161 N 0.45946 0.44637 0.08365
 Mn162 Mn 0.50115 0.49996 0.06061
 C163 C 0.43160 0.43323 0.07265
 C164 C 0.43218 0.56688 0.07260
 N165 N 0.55780 0.46702 -0.03555
 N166 N 0.57997 0.44595 -0.04217
 N167 N 0.53579 0.53220 -0.05909
 N168 N 0.54225 0.55328 -0.08223
 N169 N 0.55835 0.53210 -0.03592
 N170 N 0.58073 0.55311 -0.04266
 N171 N 0.53527 0.46710 -0.05875
 N172 N 0.54155 0.44610 -0.08179
 Mn173 Mn 0.55853 0.49958 0.00040
 C174 C 0.56936 0.43283 -0.07094
 C175 C 0.57022 0.56638 -0.07148
 N176 N 0.44367 0.53266 -0.03505
 N177 N 0.42155 0.55384 -0.04143
 N178 N 0.46536 0.46747 -0.05821
 N179 N 0.45863 0.44633 -0.08099
 N180 N 0.44306 0.46764 -0.03474
 N181 N 0.42060 0.44663 -0.04092
 N182 N 0.46590 0.53253 -0.05859
 N183 N 0.45943 0.55363 -0.08166
 Mn184 Mn 0.44324 0.50021 0.00119
 Mn185 Mn 0.50057 0.49982 -0.05900
 Cl186 Cl 0.50088 0.49990 0.00080
 C187 C 0.43184 0.56697 -0.07042
 C188 C 0.43078 0.43329 -0.06969
 C189 C 1.19055 0.18112 0.18621
 C190 C 1.22425 0.17865 0.18834
 C191 C 1.24187 0.19954 0.20787
 C192 C 1.22595 0.22299 0.22564
 C193 C 1.19217 0.22564 0.22296
 C194 C 1.17456 0.20474 0.20343
 C195 C 1.17235 0.15971 0.16610
 C196 C 1.15669 0.14211 0.14922
 C197 C 1.13734 0.12173 0.12898
 C198 C 1.12809 0.13098 0.09675
 C199 C 1.10751 0.11226 0.07777
 C200 C 1.09588 0.08406 0.09086
 C201 C 1.10594 0.07452 0.12292
 C202 C 1.12653 0.09332 0.14191
 H203 H 1.23691 0.16062 0.17487
 H204 H 1.26788 0.19731 0.20887
 H205 H 1.17927 0.24392 0.23562
 H206 H 1.14849 0.20706 0.20168
 H207 H 1.13629 0.15294 0.08654
 H208 H 1.10020 0.12018 0.05313
 H209 H 1.09734 0.05292 0.13361
 H210 H 1.13353 0.08598 0.16686
 C211 C 1.18045 0.68848 0.68442
 C212 C 1.21362 0.68205 0.68547
 C213 C 1.23425 0.70004 0.70522
 C214 C 1.22192 0.72454 0.72429
 C215 C 1.18864 0.73110 0.72286
 C216 C 1.16799 0.71307 0.70310
 C217 C 1.15935 0.66976 0.66415
 C218 C 1.14216 0.65360 0.64715
 C219 C 1.12229 0.63365 0.62693
 C220 C 1.13346 0.62380 0.59563
 C221 C 1.11517 0.60290 0.57679
 C222 C 1.08549 0.59155 0.58910
 C223 C 1.07408 0.60208 0.62022
 C224 C 1.09243 0.62300 0.63904
 H225 H 1.22356 0.66318 0.67096
 H226 H 1.25980 0.69485 0.70524
 H227 H 1.17851 0.75029 0.73657
 H228 H 1.14238 0.71839 0.70229
 H229 H 1.15657 0.63187 0.58605
 H230 H 1.12453 0.59520 0.55289
 H231 H 1.05130 0.59373 0.63030
 H232 H 1.08359 0.63044 0.66327
 C233 C 0.67760 0.18971 0.68509
 C234 C 0.67709 0.22209 0.68317
 C235 C 0.69837 0.23961 0.70277
 C236 C 0.72052 0.22489 0.72416
 C237 C 0.72053 0.19246 0.72641
 C238 C 0.69926 0.17497 0.70686
 C239 C 0.65628 0.17139 0.66460
 C240 C 0.63902 0.15529 0.64758
 C241 C 0.61920 0.13517 0.62746
 C242 C 0.63030 0.12540 0.59611
 C243 C 0.61230 0.10405 0.57755
 C244 C 0.58298 0.09214 0.59018
 C245 C 0.57159 0.10263 0.62133
 C246 C 0.58965 0.12399 0.63988
 H247 H 0.66035 0.23376 0.66651
 H248 H 0.69771 0.26465 0.70108
 H249 H 0.73676 0.18050 0.74325
 H250 H 0.69973 0.14994 0.70870
 H251 H 0.65318 0.13383 0.58630
 H252 H 0.62165 0.09641 0.55362
 H253 H 0.54908 0.09386 0.63166
 H254 H 0.58088 0.13133 0.66417
 C255 C 0.68297 0.68997 0.18290
 C256 C 0.71640 0.68498 0.18461
 C257 C 0.73574 0.70366 0.20503
 C258 C 0.72179 0.72733 0.22413
 C259 C 0.68830 0.73257 0.22180
 C260 C 0.66899 0.71389 0.20140
 C261 C 0.66297 0.67034 0.16249
 C262 C 0.64622 0.65361 0.14571
 C263 C 0.62640 0.63315 0.12607
 C264 C 0.63745 0.62261 0.09501
 C265 C 0.61896 0.60145 0.07671
 C266 C 0.58923 0.59056 0.08935
 C267 C 0.57799 0.60174 0.12026
 C268 C 0.59651 0.62290 0.13852
 H269 H 0.72751 0.66662 0.17023
 H270 H 0.76149 0.69951 0.20574
 H271 H 0.67693 0.75119 0.23539
 H272 H 0.64316 0.71810 0.20007
 H273 H 0.66057 0.63039 0.08517
 H274 H 0.62820 0.59324 0.05296
 H275 H 0.55516 0.59375 0.13058
 H276 H 0.58776 0.63092 0.16257
 C277 C 0.81058 -0.18111 0.18615
 C278 C 0.78586 -0.19847 0.17118
 C279 C 0.76711 -0.21878 0.19053
 C280 C 0.77299 -0.22184 0.22499
 C281 C 0.79792 -0.20459 0.23986
 C282 C 0.81665 -0.18428 0.22050
 C283 C 0.82985 -0.16022 0.16624
 C284 C 0.84624 -0.14297 0.14950
 C285 C 0.86629 -0.12291 0.12942
 C286 C 0.87570 -0.13217 0.09732
 C287 C 0.89665 -0.11362 0.07838
 C288 C 0.90848 -0.08557 0.09138
 C289 C 0.89834 -0.07606 0.12334
 C290 C 0.87737 -0.09469 0.14228
 H291 H 0.78101 -0.19622 0.14460
 H292 H 0.74789 -0.23173 0.17857
 H293 H 0.80270 -0.20666 0.26645
 H294 H 0.83577 -0.17101 0.23232
 H295 H 0.86726 -0.15398 0.08714
 H296 H 0.90403 -0.12151 0.05382
 H297 H 0.90710 -0.05457 0.13396
 H298 H 0.87023 -0.08733 0.16713
 C299 C 0.81806 0.30881 0.68382
 C300 C 0.79537 0.28927 0.66856
 C301 C 0.77470 0.27094 0.68818
 C302 C 0.77636 0.27218 0.72327
 C303 C 0.79964 0.29125 0.73845
 C304 C 0.82029 0.30960 0.71883
 C305 C 0.83848 0.32857 0.66361
 C306 C 0.85520 0.34552 0.64674
 C307 C 0.87469 0.36628 0.62674
 C308 C 0.86333 0.37671 0.59563
 C309 C 0.88145 0.39807 0.57691
 C310 C 0.91117 0.40932 0.58912
 C311 C 0.92270 0.39830 0.62010
 C312 C 0.90454 0.37694 0.63879
 H313 H 0.79351 0.28835 0.64150
 H314 H 0.75750 0.25595 0.67580
 H315 H 0.80154 0.29222 0.76550
 H316 H 0.83780 0.32456 0.73095
 H317 H 0.84026 0.36866 0.58606
 H318 H 0.87197 0.40613 0.55314
 H319 H 0.94550 0.40654 0.63013
 H320 H 0.91356 0.36907 0.66284
 C321 C 0.32014 -0.19537 0.68127
 C322 C 0.29362 -0.21080 0.66714
 C323 C 0.27252 -0.22784 0.68755
 C324 C 0.27784 -0.22946 0.72221
 C325 C 0.30459 -0.21420 0.73621
 C326 C 0.32566 -0.19719 0.71581
 C327 C 0.34088 -0.17653 0.66064
 C328 C 0.35786 -0.15999 0.64373
 C329 C 0.37747 -0.13930 0.62403
 C330 C 0.36638 -0.12899 0.59281
 C331 C 0.38408 -0.10688 0.57482
 C332 C 0.41304 -0.09478 0.58794
 C333 C 0.42448 -0.10587 0.61890
 C334 C 0.40672 -0.12799 0.63687
 H335 H 0.28905 -0.20935 0.64044
 H336 H 0.25193 -0.23929 0.67625
 H337 H 0.30898 -0.21521 0.76295
 H338 H 0.34601 -0.18519 0.72701
 H339 H 0.34371 -0.13754 0.58272
 H340 H 0.37475 -0.09877 0.55100
 H341 H 0.44673 -0.09696 0.62956
 H342 H 0.41543 -0.13577 0.66108
 C343 C 0.31740 0.31146 0.18548
 C344 C 0.32076 0.31141 0.22038
 C345 C 0.30018 0.29322 0.24016
 C346 C 0.27608 0.27500 0.22520
 C347 C 0.27273 0.27511 0.19023
 C348 C 0.29333 0.29332 0.17044
 C349 C 0.33828 0.33056 0.16522
 C350 C 0.35556 0.34694 0.14841
 C351 C 0.37571 0.36708 0.12854
 C352 C 0.40541 0.37759 0.14111
 C353 C 0.42408 0.39862 0.12256
 C354 C 0.41316 0.40940 0.09127
 C355 C 0.38364 0.39820 0.07853
 C356 C 0.36503 0.37719 0.09709
 H357 H 0.33923 0.32543 0.23227
 H358 H 0.30310 0.29334 0.26714
 H359 H 0.25423 0.26132 0.17818
 H360 H 0.29045 0.29331 0.14345
 H361 H 0.41386 0.36993 0.16546
 H362 H 0.44673 0.40686 0.13296
 H363 H 0.37465 0.40608 0.05448
 H364 H 0.34206 0.36921 0.08716
 C365 C 0.81353 0.18324 -0.18527
 C366 C 0.79231 0.20379 -0.16948
 C367 C 0.77308 0.22378 -0.18861
 C368 C 0.77477 0.22321 -0.22372
 C369 C 0.79658 0.20307 -0.23940
 C370 C 0.81578 0.18308 -0.22028
 C371 C 0.83303 0.16240 -0.16556
 C372 C 0.84946 0.14509 -0.14899
 C373 C 0.86938 0.12480 -0.12907
 C374 C 0.87924 0.13392 -0.09704
 C375 C 0.89967 0.11494 -0.07812
 C376 C 0.91056 0.08656 -0.09102
 C377 C 0.90007 0.07726 -0.12295
 C378 C 0.87962 0.09632 -0.14188
 H379 H 0.79056 0.20431 -0.14240
 H380 H 0.75696 0.23950 -0.17586
 H381 H 0.79844 0.20254 -0.26647
 H382 H 0.83225 0.16743 -0.23278
 H383 H 0.87146 0.15590 -0.08686
 H384 H 0.90733 0.12271 -0.05359
 H385 H 0.90810 0.05554 -0.13352
 H386 H 0.87214 0.08902 -0.16664
 C387 C 0.81793 0.69180 0.31571
 C388 C 0.79248 0.70754 0.33122
 C389 C 0.77148 0.72580 0.31216
 C390 C 0.77546 0.72819 0.27730
 C391 C 0.80155 0.71299 0.26202
 C392 C 0.82258 0.69473 0.28110
 C393 C 0.83882 0.67225 0.33531
 C394 C 0.85578 0.65549 0.35189
 C395 C 0.87535 0.63494 0.37174
 C396 C 0.86402 0.62443 0.40285
 C397 C 0.88210 0.60311 0.42142
 C398 C 0.91173 0.59202 0.40902
 C399 C 0.92327 0.60316 0.37806
 C400 C 0.90513 0.62448 0.35951
 H401 H 0.78881 0.70563 0.35803
 H402 H 0.75230 0.73789 0.32492
 H403 H 0.80597 0.71549 0.23542
 H404 H 0.84241 0.68289 0.26887
 H405 H 0.84098 0.63236 0.41252
 H406 H 0.87264 0.59494 0.44520
 H407 H 0.94601 0.59501 0.36792
 H408 H 0.91409 0.63244 0.33544
 C409 C 0.31936 0.19374 0.32070
 C410 C 0.29265 0.20865 0.33484
 C411 C 0.27180 0.22598 0.31459
 C412 C 0.27728 0.22817 0.27994
 C413 C 0.30466 0.21388 0.26612
 C414 C 0.32550 0.19661 0.28636
 C415 C 0.33989 0.17464 0.34111
 C416 C 0.35672 0.15790 0.35780
 C417 C 0.37622 0.13700 0.37720
 C418 C 0.36482 0.12587 0.40801
 C419 C 0.38254 0.10368 0.42571
 C420 C 0.41181 0.09235 0.41269
 C421 C 0.42350 0.10422 0.38213
 C422 C 0.40574 0.12641 0.36445
 H423 H 0.28780 0.20670 0.36146
 H424 H 0.25150 0.23737 0.32620
 H425 H 0.31018 0.21625 0.23973
 H426 H 0.34627 0.18536 0.27520
 H427 H 0.34194 0.13386 0.41802
 H428 H 0.37300 0.09497 0.44923
 H429 H 0.44600 0.09591 0.37155
 H430 H 0.41469 0.13483 0.34055
 C431 C 0.31729 0.68749 -0.18335
 C432 C 0.32121 0.68826 -0.21815
 C433 C 0.30071 0.70643 -0.23788
 C434 C 0.27588 0.72377 -0.22306
 C435 C 0.27241 0.72327 -0.18806
 C436 C 0.29290 0.70507 -0.16832
 C437 C 0.33823 0.66857 -0.16312
 C438 C 0.35557 0.65237 -0.14632
 C439 C 0.37581 0.63248 -0.12643
 C440 C 0.40531 0.62186 -0.13923
 C441 C 0.42406 0.60106 -0.12064
 C442 C 0.41340 0.59064 -0.08907
 C443 C 0.38409 0.60197 -0.07610
 C444 C 0.36541 0.62275 -0.09471
 H445 H 0.34022 0.67499 -0.23002
 H446 H 0.30482 0.70740 -0.26463
 H447 H 0.25417 0.73697 -0.17574
 H448 H 0.28981 0.70479 -0.14136
 H449 H 0.41355 0.62924 -0.16379
 H450 H 0.44653 0.59271 -0.13122
 H451 H 0.37531 0.59435 -0.05184
 H452 H 0.34260 0.63082 -0.08460
 C453 C 1.18998 -0.18189 -0.18541
 C454 C 1.21306 -0.17070 -0.20816
 C455 C 1.23101 -0.19136 -0.22754
 C456 C 1.22614 -0.22342 -0.22420
 C457 C 1.20274 -0.23448 -0.20157
 C458 C 1.18480 -0.21381 -0.18221
 C459 C 1.17138 -0.16067 -0.16558
 C460 C 1.15545 -0.14324 -0.14887
 C461 C 1.13586 -0.12306 -0.12878
 C462 C 1.12527 -0.09463 -0.14167
 C463 C 1.10462 -0.07595 -0.12275
 C464 C 1.09429 -0.08561 -0.09078
 C465 C 1.10566 -0.11385 -0.07775
 C466 C 1.12629 -0.13245 -0.09667
 H467 H 1.21712 -0.14602 -0.21098
 H468 H 1.24852 -0.18212 -0.24511
 H469 H 1.19832 -0.25911 -0.19897
 H470 H 1.16686 -0.22272 -0.16481
 H471 H 1.13252 -0.08717 -0.16653
 H472 H 1.09622 -0.05431 -0.13339
 H473 H 1.09813 -0.12185 -0.05319
 H474 H 1.13433 -0.15442 -0.08647
 C475 C 1.17987 0.31214 0.31514
 C476 C 1.20230 0.32596 0.29337
 C477 C 1.22306 0.30760 0.27429
 C478 C 1.22170 0.27521 0.27695
 C479 C 1.19881 0.26146 0.29843
 C480 C 1.17805 0.27984 0.31752
 C481 C 1.15906 0.33121 0.33522
 C482 C 1.14207 0.34765 0.35202
 C483 C 1.12236 0.36791 0.37193
 C484 C 1.13358 0.37816 0.40307
 C485 C 1.11541 0.39931 0.42160
 C486 C 1.08582 0.41050 0.40912
 C487 C 1.07438 0.39959 0.37815
 C488 C 1.09260 0.37844 0.35964
 H489 H 1.20382 0.35095 0.29124
 H490 H 1.24010 0.31884 0.25761
 H491 H 1.19706 0.23649 0.30047
 H492 H 1.16069 0.26888 0.33418
 H493 H 1.15661 0.37020 0.41277
 H494 H 1.12479 0.40730 0.44539
 H495 H 1.05166 0.40781 0.36795
 H496 H 1.08373 0.37069 0.33554
 C497 C 0.67959 -0.18868 0.31900
 C498 C 0.70192 -0.17399 0.29782
 C499 C 0.72242 -0.19155 0.27764
 C500 C 0.72086 -0.22400 0.27861
 C501 C 0.69823 -0.23861 0.29972
 C502 C 0.67772 -0.22103 0.31991
 C503 C 0.65859 -0.17039 0.33960
 C504 C 0.64137 -0.15437 0.35655
 C505 C 0.62140 -0.13434 0.37633
 C506 C 0.63251 -0.12374 0.40735
 C507 C 0.61431 -0.10232 0.42543
 C508 C 0.58485 -0.09122 0.41257
 C509 C 0.57344 -0.10260 0.38180
 C510 C 0.59169 -0.12402 0.36375
 H511 H 0.70342 -0.14895 0.29685
 H512 H 0.73923 -0.17963 0.26127
 H513 H 0.69636 -0.26363 0.30043
 H514 H 0.66040 -0.23262 0.33611
 H515 H 0.65554 -0.13153 0.41723
 H516 H 0.62363 -0.09397 0.44910
 H517 H 0.55080 -0.09446 0.37135
 H518 H 0.58295 -0.13204 0.33970
 C519 C 0.68152 0.31093 -0.18455
 C520 C 0.70435 0.32463 -0.20599
 C521 C 0.72458 0.30615 -0.22558
 C522 C 0.72235 0.27376 -0.22372
 C523 C 0.69915 0.26012 -0.20254
 C524 C 0.67891 0.27861 -0.18292
 C525 C 0.66091 0.33011 -0.16426
 C526 C 0.64399 0.34660 -0.14738
 C527 C 0.62429 0.36686 -0.12736
 C528 C 0.63545 0.37695 -0.09613
 C529 C 0.61721 0.39793 -0.07741
 C530 C 0.58757 0.40914 -0.08975
 C531 C 0.57620 0.39844 -0.12085
 C532 C 0.59450 0.37745 -0.13955
 H533 H 0.70646 0.34960 -0.20761
 H534 H 0.74172 0.31730 -0.24222
 H535 H 0.69676 0.23516 -0.20113
 H536 H 0.66126 0.26773 -0.16654
 H537 H 0.65848 0.36895 -0.08647
 H538 H 0.62657 0.40574 -0.05354
 H539 H 0.55346 0.40668 -0.13097
 H540 H 0.58563 0.36984 -0.16371
 C541 C 1.18939 0.18291 -0.18805
 C542 C 1.18240 0.21463 -0.18787
 C543 C 1.20094 0.23519 -0.20717
 C544 C 1.22661 0.22418 -0.22675
 C545 C 1.23346 0.19237 -0.22697
 C546 C 1.21492 0.17183 -0.20768
 C547 C 1.17045 0.16178 -0.16802
 C548 C 1.15443 0.14429 -0.15113
 C549 C 1.13494 0.12389 -0.13078
 C550 C 1.12582 0.13295 -0.09851
 C551 C 1.10558 0.11398 -0.07921
 C552 C 1.09415 0.08568 -0.09199
 C553 C 1.10397 0.07641 -0.12415
 C554 C 1.12423 0.09546 -0.14345
 H555 H 1.16269 0.22346 -0.17278
 H556 H 1.19533 0.25967 -0.20675
 H557 H 1.25321 0.18332 -0.24176
 H558 H 1.22055 0.14734 -0.20799
 H559 H 1.13397 0.15490 -0.08846
 H560 H 1.09845 0.12171 -0.05452
 H561 H 1.09551 0.05475 -0.13462
 H562 H 1.13115 0.08823 -0.16841
 C563 C 1.18222 0.68937 0.31190
 C564 C 1.20354 0.67534 0.28936
 C565 C 1.22482 0.69337 0.27014
 C566 C 1.22536 0.72578 0.27353
 C567 C 1.20319 0.73979 0.29548
 C568 C 1.18192 0.72168 0.31472
 C569 C 1.16108 0.67047 0.33235
 C570 C 1.14389 0.65410 0.34942
 C571 C 1.12394 0.63390 0.36971
 C572 C 1.09400 0.62343 0.35770
 C573 C 1.07549 0.60249 0.37663
 C574 C 1.08675 0.59169 0.40780
 C575 C 1.11657 0.60276 0.41996
 C576 C 1.13503 0.62370 0.40101
 H577 H 1.20379 0.65038 0.28669
 H578 H 1.24065 0.68171 0.25275
 H579 H 1.20260 0.76474 0.29814
 H580 H 1.16540 0.73286 0.33191
 H581 H 1.08517 0.63109 0.33349
 H582 H 1.05263 0.59438 0.36661
 H583 H 1.12587 0.59487 0.44388
 H584 H 1.15818 0.63157 0.41056
 C585 C 0.67903 0.19007 0.31615
 C586 C 0.70054 0.17504 0.29459
 C587 C 0.72197 0.19224 0.27476
 C588 C 0.72225 0.22467 0.27654
 C589 C 0.70026 0.23970 0.29775
 C590 C 0.67882 0.22246 0.31762
 C591 C 0.65749 0.17205 0.33684
 C592 C 0.64002 0.15613 0.35398
 C593 C 0.61995 0.13615 0.37415
 C594 C 0.59044 0.12515 0.36162
 C595 C 0.57223 0.10372 0.38012
 C596 C 0.58344 0.09300 0.41133
 C597 C 0.61269 0.10478 0.42412
 C598 C 0.63084 0.12620 0.40559
 H599 H 0.70076 0.14999 0.29312
 H600 H 0.73807 0.18006 0.25807
 H601 H 0.69984 0.26474 0.29905
 H602 H 0.66218 0.23434 0.33412
 H603 H 0.58185 0.13263 0.33725
 H604 H 0.54977 0.09505 0.36968
 H605 H 0.62189 0.09696 0.44810
 H606 H 0.65370 0.13449 0.41547
 C607 C 0.68281 0.68863 -0.18600
 C608 C 0.70569 0.67506 -0.20724
 C609 C 0.72595 0.69366 -0.22697
 C610 C 0.72367 0.72603 -0.22543
 C611 C 0.70039 0.73953 -0.20450
 C612 C 0.68013 0.72092 -0.18475
 C613 C 0.66221 0.66935 -0.16554
 C614 C 0.64527 0.65281 -0.14849
 C615 C 0.62550 0.63249 -0.12831
 C616 C 0.59554 0.62210 -0.14029
 C617 C 0.57714 0.60106 -0.12145
 C618 C 0.58858 0.59012 -0.09041
 C619 C 0.61841 0.60114 -0.07826
 C620 C 0.63675 0.62217 -0.09713
 H621 H 0.70783 0.65010 -0.20857
 H622 H 0.74316 0.68262 -0.24343
 H623 H 0.69799 0.76447 -0.20335
 H624 H 0.66243 0.73169 -0.16853
 H625 H 0.58661 0.62990 -0.16441
 H626 H 0.55425 0.59297 -0.13142
 H627 H 0.62781 0.59313 -0.05444
 H628 H 0.65993 0.63004 -0.08763
 C629 C 0.81430 -0.18307 -0.18678
 C630 C 0.81684 -0.18271 -0.22177
 C631 C 0.79791 -0.20282 -0.24097
 C632 C 0.77607 -0.22325 -0.22538
 C633 C 0.77415 -0.22406 -0.19028
 C634 C 0.79311 -0.20396 -0.17108
 C635 C 0.83344 -0.16210 -0.16698
 C636 C 0.84954 -0.14471 -0.15024
 C637 C 0.86907 -0.12440 -0.13003
 C638 C 0.87965 -0.09584 -0.14280
 C639 C 0.89985 -0.07682 -0.12359
 C640 C 0.90974 -0.08625 -0.09143
 C641 C 0.89845 -0.11467 -0.07856
 C642 C 0.87827 -0.13361 -0.09777
 H643 H 0.83331 -0.16679 -0.23419
 H644 H 0.79995 -0.20212 -0.26803
 H645 H 0.75803 -0.24002 -0.17760
 H646 H 0.79116 -0.20464 -0.14401
 H647 H 0.87266 -0.08848 -0.16775
 H648 H 0.90819 -0.05506 -0.13413
 H649 H 0.90565 -0.12253 -0.05386
 H650 H 0.87021 -0.15565 -0.08763
 C651 C 0.82026 0.30811 0.31529
 C652 C 0.82240 0.30882 0.28027
 C653 C 0.80165 0.29047 0.26097
 C654 C 0.77838 0.27150 0.27650
 C655 C 0.77684 0.27030 0.31162
 C656 C 0.79760 0.28863 0.33091
 C657 C 0.84062 0.32797 0.33517
 C658 C 0.85721 0.34503 0.35182
 C659 C 0.87645 0.36596 0.37162
 C660 C 0.90614 0.37699 0.35944
 C661 C 0.92399 0.39857 0.37791
 C662 C 0.91226 0.40943 0.40879
 C663 C 0.88271 0.39780 0.42114
 C664 C 0.86491 0.37622 0.40263
 H665 H 0.83987 0.32375 0.26790
 H666 H 0.80346 0.29139 0.23391
 H667 H 0.75965 0.25537 0.32426
 H668 H 0.79582 0.28778 0.35799
 H669 H 0.91528 0.36924 0.33544
 H670 H 0.94668 0.40711 0.36779
 H671 H 0.87310 0.40573 0.44484
 H672 H 0.84194 0.36788 0.41229
 C673 C 0.32140 -0.19453 0.31649
 C674 C 0.29872 -0.21447 0.33136
 C675 C 0.27790 -0.23216 0.31140
 C676 C 0.27926 -0.22974 0.27626
 C677 C 0.30286 -0.21045 0.26156
 C678 C 0.32363 -0.19281 0.28154
 C679 C 0.34162 -0.17504 0.33697
 C680 C 0.35813 -0.15808 0.35384
 C681 C 0.37729 -0.13708 0.37366
 C682 C 0.36575 -0.12688 0.40469
 C683 C 0.38332 -0.10502 0.42305
 C684 C 0.41265 -0.09302 0.41053
 C685 C 0.42442 -0.10385 0.37967
 C686 C 0.40680 -0.12571 0.36133
 H687 H 0.29694 -0.21616 0.35839
 H688 H 0.26085 -0.24747 0.32369
 H689 H 0.30486 -0.20853 0.23455
 H690 H 0.34116 -0.17755 0.26973
 H691 H 0.34291 -0.13546 0.41445
 H692 H 0.37367 -0.09714 0.44676
 H693 H 0.44694 -0.09503 0.36942
 H694 H 0.41593 -0.13337 0.33731
 C695 C 0.31717 0.31229 -0.18312
 C696 C 0.31951 0.31470 -0.21802
 C697 C 0.29957 0.29666 -0.23844
 C698 C 0.27696 0.27614 -0.22418
 C699 C 0.27488 0.27360 -0.18917
 C700 C 0.29484 0.29169 -0.16873
 C701 C 0.33751 0.33120 -0.16223
 C702 C 0.35451 0.34747 -0.14514
 C703 C 0.37459 0.36751 -0.12522
 C704 C 0.40454 0.37768 -0.13761
 C705 C 0.42325 0.39858 -0.11916
 C706 C 0.41214 0.40959 -0.08813
 C707 C 0.38235 0.39876 -0.07554
 C708 C 0.36368 0.37786 -0.09402
 H709 H 0.33675 0.33051 -0.22944
 H710 H 0.30188 0.29860 -0.26541
 H711 H 0.25801 0.25767 -0.17751
 H712 H 0.29289 0.28959 -0.14174
 H713 H 0.41318 0.36984 -0.16176
 H714 H 0.44610 0.40652 -0.12945
 H715 H 0.37321 0.40684 -0.05170
 H716 H 0.34052 0.37017 -0.08423
 C717 C 1.18869 -0.18540 0.18773
 C718 C 1.21054 -0.17319 0.21102
 C719 C 1.22998 -0.19292 0.23019
 C720 C 1.22813 -0.22522 0.22603
 C721 C 1.20552 -0.23734 0.20321
 C722 C 1.18609 -0.21754 0.18402
 C723 C 1.16898 -0.16489 0.16777
 C724 C 1.15254 -0.14767 0.15104
 C725 C 1.13277 -0.12730 0.13097
 C726 C 1.12285 -0.09861 0.14358
 C727 C 1.10282 -0.07932 0.12442
 C728 C 1.09243 -0.08855 0.09242
 C729 C 1.10294 -0.11716 0.07975
 C730 C 1.12294 -0.13638 0.09892
 H731 H 1.21251 -0.14837 0.21441
 H732 H 1.24616 -0.18261 0.24829
 H733 H 1.20306 -0.26214 0.19995
 H734 H 1.16908 -0.22731 0.16627
 H735 H 1.13032 -0.09131 0.16834
 H736 H 1.09509 -0.05744 0.13483
 H737 H 1.09535 -0.12489 0.05519
 H738 H 1.13048 -0.15848 0.08886
 C739 C 1.18036 0.31249 0.68441
 C740 C 1.17613 0.28035 0.68619
 C741 C 1.19720 0.26235 0.70555
 C742 C 1.22288 0.27626 0.72302
 C743 C 1.22643 0.30859 0.72183
 C744 C 1.20539 0.32656 0.70249
 C745 C 1.15929 0.33117 0.66396
 C746 C 1.14218 0.34739 0.64687
 C747 C 1.12240 0.36749 0.62662
 C748 C 1.09243 0.37773 0.63858
 C749 C 1.07418 0.39881 0.61982
 C750 C 1.08577 0.40996 0.58888
 C751 C 1.11558 0.39906 0.57671
 C752 C 1.13378 0.37798 0.59551
 H753 H 1.15663 0.26922 0.67261
 H754 H 1.19324 0.23760 0.70703
 H755 H 1.24537 0.32015 0.73562
 H756 H 1.20872 0.35145 0.70154
 H757 H 1.08342 0.36982 0.66266
 H758 H 1.05130 0.40680 0.62980
 H759 H 1.12509 0.40723 0.55297
 H760 H 1.15698 0.37026 0.58604
 C761 C 0.67930 -0.18984 0.68304
 C762 C 0.67878 -0.22221 0.68119
 C763 C 0.70001 -0.23971 0.70088
 C764 C 0.72211 -0.22496 0.72228
 C765 C 0.72213 -0.19255 0.72445
 C766 C 0.70091 -0.17509 0.70481
 C767 C 0.65798 -0.17154 0.66256
 C768 C 0.64068 -0.15539 0.64564
 C769 C 0.62079 -0.13513 0.62576
 C770 C 0.59105 -0.12477 0.63821
 C771 C 0.57292 -0.10319 0.62002
 C772 C 0.58443 -0.09168 0.58921
 C773 C 0.61394 -0.10278 0.57651
 C774 C 0.63202 -0.12436 0.59473
 H775 H 0.66206 -0.23388 0.66454
 H776 H 0.69935 -0.26474 0.69928
 H777 H 0.73830 -0.18058 0.74131
 H778 H 0.70136 -0.15006 0.70659
 H779 H 0.58220 -0.13289 0.66227
 H780 H 0.55026 -0.09505 0.63038
 H781 H 0.62336 -0.09435 0.55283
 H782 H 0.65505 -0.13216 0.58492
 C783 C 0.68302 0.31037 0.18480
 C784 C 0.68035 0.27807 0.18351
 C785 C 0.70076 0.25957 0.20305
 C786 C 0.72416 0.27319 0.22383
 C787 C 0.72649 0.30557 0.22533
 C788 C 0.70609 0.32406 0.20580
 C789 C 0.66217 0.32956 0.16468
 C790 C 0.64505 0.34607 0.14793
 C791 C 0.62513 0.36638 0.12807
 C792 C 0.59558 0.37709 0.14068
 C793 C 0.57714 0.39820 0.12214
 C794 C 0.58813 0.40889 0.09078
 C795 C 0.61751 0.39753 0.07801
 C796 C 0.63590 0.37643 0.09658
 H797 H 0.66251 0.26721 0.16746
 H798 H 0.69830 0.23461 0.20195
 H799 H 0.74380 0.31671 0.24167
 H800 H 0.70823 0.34904 0.20715
 H801 H 0.58705 0.36950 0.16506
 H802 H 0.55461 0.40656 0.13258
 H803 H 0.62657 0.40533 0.05393
 H804 H 0.65874 0.36832 0.08659
 C805 C 0.81452 0.18202 0.18609
 C806 C 0.81692 0.18196 0.22108
 C807 C 0.79797 0.20215 0.24004
 C808 C 0.77625 0.22238 0.22419
 C809 C 0.77441 0.22285 0.18909
 C810 C 0.79339 0.20266 0.17013
 C811 C 0.83381 0.16106 0.16655
 C812 C 0.85009 0.14370 0.15005
 C813 C 0.86986 0.12347 0.13011
 C814 C 0.88038 0.09504 0.14309
 C815 C 0.90079 0.07611 0.12413
 C816 C 0.91094 0.08550 0.09201
 C817 C 0.89974 0.11381 0.07895
 C818 C 0.87935 0.13265 0.09790
 H819 H 0.83334 0.16624 0.23370
 H820 H 0.79994 0.20171 0.26710
 H821 H 0.75836 0.23863 0.17622
 H822 H 0.79155 0.20310 0.14305
 H823 H 0.87318 0.08771 0.16801
 H824 H 0.90906 0.05445 0.13481
 H825 H 0.90712 0.12163 0.05427
 H826 H 0.87135 0.15459 0.08760
 C827 C 0.81944 0.69178 0.68254
 C828 C 0.82162 0.69082 0.71755
 C829 C 0.80102 0.70903 0.73705
 C830 C 0.77785 0.72810 0.72174
 C831 C 0.77627 0.72954 0.68664
 C832 C 0.79688 0.71135 0.66714
 C833 C 0.83969 0.67209 0.66246
 C834 C 0.85624 0.65517 0.64570
 C835 C 0.87552 0.63441 0.62585
 C836 C 0.90531 0.62377 0.63793
 C837 C 0.92323 0.60236 0.61944
 C838 C 0.91150 0.59129 0.58864
 C839 C 0.88184 0.60253 0.57639
 C840 C 0.86396 0.62394 0.59492
 H841 H 0.83902 0.67583 0.72976
 H842 H 0.80285 0.70792 0.76411
 H843 H 0.75916 0.74455 0.67416
 H844 H 0.79508 0.71239 0.64007
 H845 H 0.91447 0.63168 0.66186
 H846 H 0.94601 0.59412 0.62949
 H847 H 0.87222 0.59443 0.55275
 H848 H 0.84091 0.63199 0.58534
 C849 C 0.31841 0.19331 0.67862
 C850 C 0.28556 0.19661 0.67085
 C851 C 0.26557 0.21453 0.69127
 C852 C 0.27829 0.22947 0.71953
 C853 C 0.31127 0.22602 0.72720
 C854 C 0.33125 0.20810 0.70678
 C855 C 0.33859 0.17364 0.65857
 C856 C 0.35524 0.15659 0.64215
 C857 C 0.37467 0.13551 0.62301
 C858 C 0.36338 0.12446 0.59223
 C859 C 0.38124 0.10244 0.57461
 C860 C 0.41057 0.09118 0.58766
 C861 C 0.42209 0.10288 0.61824
 C862 C 0.40418 0.12491 0.63583
 H863 H 0.27531 0.18500 0.64929
 H864 H 0.24020 0.21628 0.68508
 H865 H 0.32160 0.23652 0.74932
 H866 H 0.35657 0.20539 0.71325
 H867 H 0.34052 0.13247 0.58214
 H868 H 0.37181 0.09385 0.55108
 H869 H 0.44461 0.09463 0.62885
 H870 H 0.41308 0.13328 0.65968
 C871 C 0.31979 0.68982 0.18517
 C872 C 0.29889 0.71104 0.16981
 C873 C 0.27832 0.72937 0.18928
 C874 C 0.27814 0.72640 0.22439
 C875 C 0.29977 0.70555 0.23962
 C876 C 0.32029 0.68726 0.22013
 C877 C 0.34034 0.67031 0.16510
 C878 C 0.35725 0.65357 0.14844
 C879 C 0.37697 0.63306 0.12866
 C880 C 0.36600 0.62293 0.09737
 C881 C 0.38431 0.60186 0.07882
 C882 C 0.41385 0.59057 0.09137
 C883 C 0.42501 0.60127 0.12255
 C884 C 0.40664 0.62236 0.14108
 H885 H 0.29846 0.71340 0.14278
 H886 H 0.26285 0.74581 0.17662
 H887 H 0.30060 0.70316 0.26665
 H888 H 0.33645 0.67103 0.23234
 H889 H 0.34308 0.63101 0.08750
 H890 H 0.37510 0.59406 0.05489
 H891 H 0.44766 0.59299 0.13284
 H892 H 0.41538 0.62999 0.16528
   
