data_POSCAR
  _audit_creation_date              2014-09-24
  _audit_creation_method            'ToBaCCo'
  _symmetry_space_group_name_H-M    'P1'
  _symmetry_Int_Tables_number       1
  _symmetry_cell_setting            triclinic
  loop_
  _symmetry_equiv_pos_as_xyz
 x,y,z
_cell_length_a 17.4274
_cell_length_b 17.2759
_cell_length_c 17.3011
_cell_angle_alpha 90.468000
_cell_angle_beta 88.921100
_cell_angle_gamma 90.758900
loop_
  _atom_site_label
  _atom_site_type_symbol
  _atom_site_fract_x
  _atom_site_fract_y
  _atom_site_fract_z
N1 N 0.23567 0.24884 0.23049
 N2 N -0.24396 0.76749 0.23239
 N3 N -0.24792 0.24090 -0.23770
 N4 N 0.23634 0.77622 -0.23252
 N5 N 0.25389 1.23366 0.76825
 N6 N 0.77934 0.76379 0.76234
 N7 N 0.21316 0.76009 1.23808
 N8 N 0.76607 1.22378 1.24668
 O9 O 0.57737 0.91440 0.88207
 O10 O 0.41221 0.91857 1.13286
 O11 O 0.61973 0.89570 1.03451
 O12 O 0.37623 0.89454 0.97557
 O13 O 0.56084 0.92235 1.14388
 O14 O 0.43325 0.92278 0.86825
 O15 O 0.30742 0.96430 1.07545
 O16 O 0.68581 0.96412 0.93138
 C17 C 0.65134 0.91723 0.88337
 C18 C 0.33863 0.91905 1.12566
 C19 C 0.60749 0.88213 1.10483
 C20 C 0.38742 0.88130 0.90564
 O21 O 0.44289 1.07684 0.87311
 O22 O 0.55916 1.07649 1.14423
 O23 O 0.62682 1.09722 0.97186
 O24 O 0.36936 1.09675 1.03591
 O25 O 0.41667 1.07245 1.14569
 O26 O 0.58050 1.06629 0.86446
 O27 O 0.33777 1.02627 0.91961
 O28 O 0.66027 1.02809 1.08707
 Co29 Co 0.50694 0.99529 0.88359
 Co30 Co 0.48838 0.99755 1.12958
 Co31 Co 0.61334 0.99579 0.99903
 Co32 Co 0.38166 0.99572 1.00855
 O33 O 0.49733 1.00128 1.00558
 C34 C 0.37105 1.07526 0.87748
 C35 C 0.63095 1.07452 1.13497
 C36 C 0.62016 1.11102 0.90269
 C37 C 0.37591 1.11378 1.10503
 O38 O 0.04211 0.42517 0.14735
 O39 O 0.09883 0.56683 -0.12804
 O40 O 0.04642 0.32615 -0.07541
 O41 O 0.08881 0.61644 0.04608
 O42 O 0.10193 0.42563 -0.12976
 O43 O 0.03968 0.56728 0.14743
 O44 O 0.03826 0.66240 -0.07426
 O45 O 0.09096 0.37497 0.04608
 C46 C 0.09408 0.38649 0.11587
 C47 C 0.08986 0.63764 -0.11864
 C48 C 0.09902 0.35463 -0.11712
 C49 C 0.09081 0.60874 0.11641
 O50 O -0.10416 0.56616 0.09549
 O51 O -0.04852 0.41653 -0.15748
 O52 O -0.04025 0.30537 0.06689
 O53 O -0.09689 0.61608 -0.04601
 O54 O -0.05194 0.56712 -0.15558
 O55 O -0.10174 0.41504 0.09535
 O56 O -0.04461 0.67859 0.06818
 O57 O -0.09233 0.36330 -0.04953
 Co58 Co -0.02850 0.49327 0.11010
 Co59 Co 0.02307 0.49385 -0.13223
 Co60 Co -0.00195 0.37821 0.00305
 Co61 Co -0.00498 0.60724 0.00450
 O62 O 0.00471 0.49309 -0.01140
 C63 C -0.09699 0.63959 0.10743
 C64 C -0.09533 0.37179 -0.12186
 C65 C -0.09300 0.34207 0.10723
 C66 C -0.09932 0.60988 -0.11854
 O67 O 1.14084 0.09245 0.43242
 O68 O 0.84537 0.03600 0.58575
 O69 O 0.95473 0.10038 0.38459
 O70 O 1.06552 0.12756 0.61688
 O71 O 0.85271 0.06302 0.44405
 O72 O 1.16494 0.07181 0.57212
 O73 O 0.93454 0.11553 0.60661
 O74 O 1.07410 0.04351 0.33894
 C75 C 1.12193 0.09286 0.36334
 C76 C 0.86643 0.09940 0.61335
 C77 C 0.88565 0.10911 0.39870
 C78 C 1.13560 0.12395 0.61119
 O79 O 1.15004 -0.07319 0.55997
 O80 O 0.89410 -0.08509 0.41839
 O81 O 1.02796 -0.09646 0.38661
 O82 O 0.93889 -0.03678 0.65679
 O83 O 0.90241 -0.10360 0.55713
 O84 O 1.14205 -0.05962 0.41393
 O85 O 1.08067 -0.02454 0.65740
 O86 O 0.93220 -0.02641 0.31168
 Co87 Co 1.13563 0.00820 0.49454
 Co88 Co 0.88618 -0.01837 0.50160
 Co89 Co 0.99049 0.00298 0.39254
 Co90 Co 1.00438 0.04240 0.62445
 O91 O 1.00949 0.01235 0.50697
 C92 C 1.13067 -0.07162 0.63061
 C93 C 0.88349 -0.07394 0.34666
 C94 C 1.09809 -0.10722 0.38285
 C95 C 0.91011 -0.09765 0.62807
 C96 C 1.19313 0.19587 0.27430
 C97 C 1.15844 0.14853 0.31294
 C98 C 0.79826 -0.17573 0.27073
 C99 C 0.83644 -0.12752 0.30400
 C100 C 0.78662 0.19062 0.70873
 C101 C 0.81904 0.14755 0.66323
 C102 C 1.20019 -0.16934 0.72245
 C103 C 1.16781 -0.12392 0.68185
 C104 C 0.28611 1.21023 1.18110
 C105 C 0.32878 1.17095 1.14212
 C106 C 0.28945 0.80713 0.81803
 C107 C 0.33498 0.83568 0.86164
 C108 C 0.70180 0.79980 1.18551
 C109 C 0.65653 0.83215 1.14579
 C110 C 0.70622 1.20207 0.81601
 C111 C 0.66692 1.16539 0.86090
 C112 C 0.18956 0.30076 0.19295
 C113 C 0.14768 0.34363 0.15958
 C114 C -0.19541 0.28825 -0.20019
 C115 C -0.15035 0.32795 -0.16508
 C116 C 0.18415 0.72994 -0.19346
 C117 C 0.13989 0.68921 -0.15863
 C118 C -0.19578 0.71959 0.19034
 C119 C -0.15203 0.68070 0.15293
 C120 C 1.21803 0.20150 0.71041
 C121 C 1.18191 0.16936 0.66104
 C122 C 0.83003 -0.19351 0.71638
 C123 C 0.87067 -0.15242 0.67669
 C124 C 1.16857 -0.20351 0.28805
 C125 C 1.13146 -0.16454 0.33285
 C126 C 0.80495 0.19095 0.30182
 C127 C 0.84155 0.15806 0.35012
 C128 C 0.20459 0.27148 -0.18805
 C129 C 0.15664 0.30729 -0.15235
 C130 C -0.18869 0.26341 0.19917
 C131 C -0.14596 0.29965 0.15645
 C132 C -0.18374 0.70783 -0.19534
 C133 C -0.14849 0.66035 -0.16002
 C134 C 0.17593 0.70747 0.19719
 C135 C 0.13958 0.65958 0.16097
 C136 C 0.29238 1.18188 0.80621
 C137 C 0.32791 1.13303 0.83916
 C138 C 0.25437 0.81049 1.19722
 C139 C 0.29232 0.85966 1.16346
 C140 C 0.72109 1.17400 1.21018
 C141 C 0.67972 1.12830 1.17650
 C142 C 0.73387 0.81351 0.80643
 C143 C 0.69550 0.85994 0.84209
   
