data_POSCAR
  _audit_creation_date              2014-09-24
  _audit_creation_method            'ToBaCCo'
  _symmetry_space_group_name_H-M    'P1'
  _symmetry_Int_Tables_number       1
  _symmetry_cell_setting            triclinic
  loop_
  _symmetry_equiv_pos_as_xyz
 x,y,z
_cell_length_a 35.4616
_cell_length_b 35.6185
_cell_length_c 35.4264
_cell_angle_alpha 90.109100
_cell_angle_beta 89.924300
_cell_angle_gamma 90.056700
loop_
  _atom_site_label
  _atom_site_type_symbol
  _atom_site_fract_x
  _atom_site_fract_y
  _atom_site_fract_z
N1 N 0.13538 0.16460 0.23784
 N2 N 0.15981 0.13684 0.23620
 C3 C 0.15289 0.11286 0.26481
 C4 C 0.12282 0.12663 0.28545
 C5 C 0.11235 0.15942 0.26763
 H6 H 0.16867 0.08754 0.27053
 H7 H 0.08942 0.17787 0.27546
 Cu8 Cu 0.19888 0.13612 0.19740
 Cu9 Cu 0.13430 0.20483 0.20054
 Cu10 Cu 0.20331 0.20288 0.13093
 N11 N 0.23817 0.13541 0.15881
 N12 N 0.24006 0.16223 0.13337
 C13 C 0.27007 0.15620 0.11086
 C14 C 0.28785 0.12389 0.12279
 C15 C 0.26688 0.11121 0.15313
 H16 H 0.27817 0.17381 0.08735
 H17 H 0.27240 0.08648 0.16987
 N18 N 0.16366 0.24168 0.13327
 N19 N 0.13781 0.24280 0.16015
 C20 C 0.11478 0.27220 0.15383
 C21 C 0.12658 0.29012 0.12145
 C22 C 0.15756 0.27020 0.10908
 H23 H 0.09066 0.27968 0.17095
 H24 H 0.17412 0.27591 0.08411
 H25 H 0.15930 0.17505 0.15717
 H26 H 0.19106 0.20347 0.18789
 N27 N -0.13835 0.83601 0.24388
 N28 N -0.16271 0.86379 0.24215
 C29 C -0.15550 0.88817 0.27040
 C30 C -0.12535 0.87463 0.29088
 C31 C -0.11514 0.84156 0.27339
 H32 H -0.17077 0.91391 0.27569
 H33 H -0.09196 0.82342 0.28101
 Cu34 Cu -0.20124 0.86517 0.20297
 Cu35 Cu -0.13661 0.79608 0.20636
 Cu36 Cu -0.20266 0.79973 0.13447
 N37 N -0.23942 0.86576 0.16340
 N38 N -0.23925 0.84037 0.13639
 C39 C -0.26799 0.84707 0.11259
 C40 C -0.28727 0.87821 0.12547
 C41 C -0.26854 0.88944 0.15776
 H42 H -0.27457 0.83033 0.08798
 H43 H -0.27560 0.91310 0.17558
 N44 N -0.16357 0.76061 0.13753
 N45 N -0.13920 0.75848 0.16559
 C46 C -0.11659 0.72861 0.15989
 C47 C -0.12713 0.71148 0.12662
 C48 C -0.15690 0.73235 0.11311
 H49 H -0.09354 0.72035 0.17799
 H50 H -0.17238 0.72732 0.08733
 H51 H -0.15995 0.82722 0.16319
 H52 H -0.19301 0.79806 0.19192
 N53 N -0.13982 0.16240 -0.23998
 N54 N -0.16040 0.13202 -0.23528
 C55 C -0.15287 0.10758 -0.26334
 C56 C -0.12624 0.12360 -0.28678
 C57 C -0.11859 0.15835 -0.27128
 H58 H -0.16549 0.08008 -0.26627
 H59 H -0.09823 0.17860 -0.28143
 Cu60 Cu -0.19484 0.12679 -0.19289
 Cu61 Cu -0.13955 0.20328 -0.20335
 Cu62 Cu -0.20231 0.19586 -0.12876
 N63 N -0.23815 0.13040 -0.15929
 N64 N -0.24136 0.15793 -0.13472
 C65 C -0.27291 0.15286 -0.11417
 C66 C -0.29023 0.12035 -0.12652
 C67 C -0.26753 0.10674 -0.15517
 H68 H -0.28183 0.17064 -0.09104
 H69 H -0.27153 0.08115 -0.17114
 N70 N -0.16680 0.23801 -0.13407
 N71 N -0.14334 0.24127 -0.16287
 C72 C -0.12193 0.27214 -0.15774
 C73 C -0.13244 0.28887 -0.12421
 C74 C -0.16097 0.26670 -0.10994
 H75 H -0.09942 0.28117 -0.17624
 H76 H -0.17573 0.27070 -0.08352
 H77 H -0.15666 0.17251 -0.15773
 H78 H -0.19489 0.19474 -0.18613
 N79 N 0.13835 0.83957 -0.24052
 N80 N 0.16626 0.86392 -0.24028
 C81 C 0.16184 0.88787 -0.26940
 C82 C 0.12938 0.87797 -0.28852
 C83 C 0.11517 0.84730 -0.26951
 H84 H 0.18035 0.91111 -0.27595
 H85 H 0.08986 0.83176 -0.27633
 Cu86 Cu 0.20460 0.86248 -0.20090
 Cu87 Cu 0.13424 0.79920 -0.20377
 Cu88 Cu 0.20360 0.79449 -0.13508
 N89 N 0.24259 0.86040 -0.16123
 N90 N 0.24221 0.83348 -0.13584
 C91 C 0.27088 0.83879 -0.11151
 C92 C 0.29009 0.87079 -0.12221
 C93 C 0.27150 0.88387 -0.15378
 H94 H 0.27689 0.82107 -0.08750
 H95 H 0.27839 0.90880 -0.16978
 N96 N 0.16205 0.75778 -0.13886
 N97 N 0.13506 0.76023 -0.16438
 C98 C 0.11010 0.73223 -0.15877
 C99 C 0.12214 0.71117 -0.12849
 C100 C 0.15510 0.72795 -0.11654
 H101 H 0.08503 0.72742 -0.17543
 H102 H 0.17229 0.71933 -0.09291
 H103 H 0.16227 0.82644 -0.16044
 H104 H 0.19122 0.79589 -0.19204
 N105 N 0.17013 1.14199 0.75640
 N106 N 0.14274 1.16684 0.75718
 C107 C 0.11925 1.16021 0.72807
 C108 C 0.13301 1.12995 0.70803
 C109 C 0.16524 1.11900 0.72663
 H110 H 0.09377 1.17576 0.72212
 H111 H 0.18301 1.09528 0.71979
 Cu112 Cu 0.14007 1.20482 0.79657
 Cu113 Cu 0.20795 1.13889 0.79580
 Cu114 Cu 0.20025 1.20203 0.86994
 N115 N 0.13705 1.24078 0.83780
 N116 N 0.16000 1.23888 0.86686
 C117 C 0.15176 1.26672 0.89123
 C118 C 0.12236 1.28721 0.87644
 C119 C 0.11358 1.27012 0.84260
 H120 H 0.16647 1.27219 0.91739
 H121 H 0.09183 1.27851 0.82302
 N122 N 0.23932 1.16293 0.86756
 N123 N 0.24318 1.13995 0.83852
 C124 C 0.27297 1.11739 0.84461
 C125 C 0.28821 1.12647 0.87914
 C126 C 0.26639 1.15534 0.89305
 H127 H 0.28254 1.09547 0.82577
 H128 H 0.27013 1.16977 0.91966
 H129 H 0.17383 1.16146 0.83745
 H130 H 0.20616 1.19465 0.81245
 N131 N 0.84312 0.86898 0.76296
 N132 N 0.86698 0.84080 0.76090
 C133 C 0.89078 0.84672 0.73184
 C134 C 0.88127 0.88039 0.71518
 C135 C 0.85111 0.89388 0.73559
 H136 H 0.91314 0.82794 0.72322
 H137 H 0.83552 0.91938 0.73018
 Cu138 Cu 0.86432 0.79911 0.79620
 Cu139 Cu 0.80167 0.86996 0.79878
 Cu140 Cu 0.79450 0.79506 0.86064
 N141 N 0.86194 0.75926 0.83360
 N142 N 0.83391 0.75720 0.85785
 C143 C 0.83911 0.72729 0.88039
 C144 C 0.87221 0.70992 0.86980
 C145 C 0.88615 0.73088 0.84019
 H146 H 0.82083 0.71941 0.90351
 H147 H 0.91213 0.72595 0.82497
 N148 N 0.75778 0.83646 0.85926
 N149 N 0.76146 0.86572 0.83673
 C150 C 0.73347 0.89022 0.84394
 C151 C 0.71114 0.87551 0.87210
 C152 C 0.72712 0.84146 0.88120
 H153 H 0.72955 0.91682 0.82985
 H154 H 0.71756 0.82232 0.90285
 H155 H 0.82790 0.83777 0.83978
 H156 H 0.79743 0.81240 0.80506
 N157 N 0.16241 0.86011 1.24058
 N158 N 0.14043 0.83063 1.24455
 C159 C 0.11687 0.83653 1.27385
 C160 C 0.12457 0.87161 1.28863
 C161 C 0.15352 0.88581 1.26694
 H162 H 0.09564 0.81697 1.28355
 H163 H 0.16735 0.91266 1.27037
 Cu164 Cu 0.14418 0.78768 1.21078
 Cu165 Cu 0.20199 0.86251 1.20284
 Cu166 Cu 0.20206 0.79305 1.13504
 N167 N 0.13950 0.75369 1.16802
 N168 N 0.16157 0.75643 1.13828
 C169 C 0.15168 0.73012 1.11287
 C170 C 0.12208 0.70976 1.12761
 C171 C 0.11497 0.72529 1.16263
 H172 H 0.16521 0.72576 1.08585
 H173 H 0.09351 0.71670 1.18256
 N174 N 0.24052 0.83281 1.13701
 N175 N 0.23993 0.85981 1.16257
 C176 C 0.26897 0.88330 1.15623
 C177 C 0.28874 0.87029 1.12539
 C178 C 0.27017 0.83826 1.11384
 H179 H 0.27534 0.90802 1.17278
 H180 H 0.27747 0.82066 1.09003
 H181 H 0.17009 0.83118 1.16508
 H182 H 0.20775 0.80547 1.19183
 N183 N 0.83611 1.13935 1.24274
 N184 N 0.86099 1.16675 1.24300
 C185 C 0.88480 1.16161 1.27216
 C186 C 0.87423 1.12924 1.29071
 C187 C 0.84331 1.11580 1.27144
 H188 H 0.90868 1.17931 1.27882
 H189 H 0.82762 1.09048 1.27749
 Cu190 Cu 0.86129 1.20465 1.20354
 Cu191 Cu 0.79707 1.13523 1.20461
 Cu192 Cu 0.79810 1.20112 1.13281
 N193 N 0.86077 1.24206 1.16364
 N194 N 0.83679 1.23974 1.13543
 C195 C 0.84339 1.26796 1.11111
 C196 C 0.87282 1.28912 1.12499
 C197 C 0.88329 1.27206 1.15829
 H198 H 0.82789 1.27291 1.08533
 H199 H 0.90595 1.28058 1.17681
 N200 N 0.76101 1.16007 1.13549
 N201 N 0.75998 1.13567 1.16349
 C202 C 0.73062 1.11226 1.15829
 C203 C 0.71262 1.12237 1.12545
 C204 C 0.73251 1.15257 1.11155
 H205 H 0.72295 1.08941 1.17682
 H206 H 0.72624 1.16813 1.08615
 H207 H 0.82786 1.16101 1.16235
 H208 H 0.79522 1.19155 1.19020
 O209 O 0.55269 0.93250 0.93240
 O210 O 0.59381 0.96772 0.96785
 C211 C 0.58637 0.94300 0.94214
 O212 O 0.44566 1.06587 0.93586
 O213 O 0.40500 1.03008 0.97131
 C214 C 0.41212 1.05585 0.94663
 O215 O 0.55195 1.06358 0.93157
 O216 O 0.59351 1.02932 0.96725
 C217 C 0.58579 1.05353 0.94121
 O218 O 0.44657 0.92866 0.93656
 O219 O 0.40540 0.96547 0.97032
 C220 C 0.41284 0.93899 0.94638
 Zr221 Zr 0.49966 0.95034 0.95371
 O222 O 0.49513 0.95036 0.89413
 O223 O 0.50415 0.89107 0.95386
 Zr224 Zr 0.49905 1.04543 0.95325
 O225 O 0.49450 1.04483 0.89367
 O226 O 0.50273 1.10475 0.95303
 O227 O 0.53284 0.99807 0.94577
 O228 O 0.46662 0.99761 0.94689
 O229 O 0.44762 0.92907 1.06698
 O230 O 0.40602 0.96516 1.03320
 C231 C 0.41379 0.93912 1.05733
 O232 O 0.55282 1.06397 1.06963
 O233 O 0.59393 1.03089 1.03206
 C234 C 0.58649 1.05470 1.05864
 O235 O 0.44654 1.06671 1.06716
 O236 O 0.40541 1.02946 1.03388
 C237 C 0.41281 1.05592 1.05784
 O238 O 0.55397 0.93420 1.07042
 O239 O 0.59445 0.96833 1.03325
 C240 C 0.58753 0.94430 1.05968
 Zr241 Zr 0.50048 0.95097 1.04927
 O242 O 0.49635 0.95152 1.10890
 O243 O 0.50549 0.89175 1.04966
 Zr244 Zr 0.49970 1.04608 1.04875
 O245 O 0.49595 1.04681 1.10839
 O246 O 0.50353 1.10540 1.04788
 Zr247 Zr 0.55562 0.99862 1.00071
 Zr248 Zr 0.44383 0.99779 1.00177
 O249 O 0.46750 0.99826 1.05623
 O250 O 0.53372 0.99887 1.05608
 O251 O 0.46654 0.94308 1.00182
 O252 O 0.53203 1.05283 1.00067
 O253 O 0.53282 0.94406 1.00124
 O254 O 0.46573 1.05284 1.00128
 H255 H 0.44934 0.99742 0.92493
 H256 H 0.54897 1.07496 1.00034
 H257 H 0.45057 0.99812 1.07850
 H258 H 0.55012 0.92223 1.00130
 H259 H 0.48174 1.11445 0.96865
 H260 H 0.48171 1.11489 1.03339
 H261 H 0.51666 1.03103 1.11820
 H262 H 0.51745 0.96691 1.11860
 H263 H 0.48490 0.88155 1.03388
 H264 H 0.48327 0.88119 0.96949
 H265 H 0.51647 0.96522 0.88410
 H266 H 0.51568 1.02968 0.88376
 O267 O 0.06219 0.55291 -0.07112
 O268 O 0.02748 0.59399 -0.03513
 C269 C 0.05197 0.58652 -0.06117
 O270 O -0.07256 0.44702 -0.06651
 O271 O -0.03569 0.40626 -0.03261
 C272 C -0.06222 0.41351 -0.05656
 O273 O -0.06951 0.55271 -0.06980
 O274 O -0.03442 0.59406 -0.03444
 C275 C -0.05923 0.58636 -0.06010
 O276 O 0.06460 0.44703 -0.06804
 O277 O 0.02916 0.40628 -0.03238
 C278 C 0.05469 0.41355 -0.05744
 Zr279 Zr 0.04399 0.50008 -0.04999
 O280 O 0.04286 0.49593 -0.10960
 O281 O 0.10357 0.50380 -0.05075
 Zr282 Zr -0.05132 0.49998 -0.04888
 O283 O -0.05155 0.49572 -0.10850
 O284 O -0.11088 0.50385 -0.04828
 O285 O -0.00372 0.53347 -0.05689
 O286 O -0.00375 0.46741 -0.05610
 O287 O 0.06614 0.44774 0.06364
 O288 O 0.02970 0.40660 0.02951
 C289 C 0.05603 0.41411 0.05362
 O290 O -0.06774 0.55369 0.06810
 O291 O -0.03461 0.59440 0.03034
 C292 C -0.05832 0.58719 0.05714
 O293 O -0.07090 0.44793 0.06570
 O294 O -0.03580 0.40672 0.03022
 C295 C -0.06110 0.41432 0.05542
 O296 O 0.06234 0.55336 0.06708
 O297 O 0.02915 0.59431 0.02977
 C298 C 0.05287 0.58689 0.05646
 Zr299 Zr 0.04509 0.50054 0.04553
 O300 O 0.04683 0.49660 0.10511
 O301 O 0.10462 0.50492 0.04363
 Zr302 Zr -0.05044 0.50064 0.04676
 O303 O -0.05026 0.49703 0.10640
 O304 O -0.11000 0.50466 0.04667
 Zr305 Zr -0.00316 0.55602 -0.00180
 Zr306 Zr -0.00331 0.44465 -0.00131
 O307 O -0.00263 0.46813 0.05323
 O308 O -0.00256 0.53408 0.05344
 O309 O 0.05183 0.46687 -0.00218
 O310 O -0.05776 0.53281 -0.00113
 O311 O 0.05144 0.53288 -0.00238
 O312 O -0.05837 0.46687 -0.00081
 H313 H -0.00396 0.45031 -0.07820
 H314 H -0.07988 0.54980 -0.00099
 H315 H -0.00232 0.45128 0.07545
 H316 H 0.07355 0.54992 -0.00263
 H317 H -0.12048 0.48317 -0.03233
 H318 H -0.11988 0.48274 0.03262
 H319 H -0.03440 0.51778 0.11603
 H320 H 0.02970 0.51603 0.11530
 H321 H 0.11426 0.48276 0.02980
 H322 H 0.11340 0.48305 -0.03509
 H323 H 0.02826 0.51755 -0.11921
 H324 H -0.03648 0.51689 -0.11847
 O325 O 1.06686 -0.06682 0.44617
 O326 O 1.03330 -0.02988 0.40514
 C327 C 1.05694 -0.05651 0.41249
 O328 O 0.93557 -0.06201 0.55461
 O329 O 0.97193 -0.02668 0.59489
 C330 C 0.94619 -0.05153 0.58806
 O331 O 0.93655 -0.06590 0.44839
 O332 O 0.96962 -0.02970 0.40617
 C333 C 0.94556 -0.05579 0.41436
 O334 O 1.07256 -0.06172 0.55252
 O335 O 1.03635 -0.02753 0.59389
 C336 C 1.06246 -0.05175 0.58635
 Zr337 Zr 1.05066 -0.04457 0.49940
 O338 O 1.05102 -0.10378 0.50438
 O339 O 1.11012 -0.04425 0.49388
 Zr340 Zr 0.95519 -0.04413 0.50097
 O341 O 0.95423 -0.10338 0.50543
 O342 O 0.89556 -0.04293 0.49813
 O343 O 1.00234 -0.05213 0.46662
 O344 O 1.00343 -0.05083 0.53288
 O345 O 1.07340 0.06858 0.55077
 O346 O 1.03684 0.03594 0.59305
 C347 C 1.06329 0.05959 0.58478
 O348 O 0.93751 0.07174 0.44719
 O349 O 0.96979 0.03392 0.40570
 C350 C 0.94626 0.06060 0.41339
 O351 O 0.93525 0.06899 0.55367
 O352 O 0.97183 0.03475 0.59448
 C353 C 0.94555 0.05888 0.58733
 O354 O 1.06792 0.07109 0.44468
 O355 O 1.03296 0.03443 0.40443
 C356 C 1.05745 0.06052 0.41120
 Zr357 Zr 1.05098 0.05055 0.49835
 O358 O 1.05086 0.10988 0.50215
 O359 O 1.11044 0.05053 0.49298
 Zr360 Zr 0.95568 0.05090 0.50019
 O361 O 0.95612 0.11021 0.50411
 O362 O 0.89608 0.05112 0.49690
 Zr363 Zr 1.00223 0.00246 0.44370
 Zr364 Zr 1.00408 0.00380 0.55569
 O365 O 1.00390 0.05793 0.53199
 O366 O 1.00279 0.05762 0.46551
 O367 O 1.05881 0.00337 0.53238
 O368 O 0.94802 0.00305 0.46803
 O369 O 1.05720 0.00257 0.46605
 O370 O 0.94862 0.00373 0.53430
 H371 H 1.00367 -0.07278 0.55002
 H372 H 0.92555 0.00296 0.45143
 H373 H 1.00412 0.08008 0.54895
 H374 H 1.07902 0.00232 0.44854
 H375 H 0.88635 -0.02897 0.52047
 H376 H 0.88649 0.03553 0.51790
 H377 H 0.97133 0.11980 0.48278
 H378 H 1.03574 0.11953 0.48083
 H379 H 1.12060 0.03462 0.51342
 H380 H 1.12042 -0.02968 0.51532
 H381 H 1.03430 -0.11390 0.48449
 H382 H 0.97008 -0.11353 0.48481
 C383 C 1.05295 0.09522 0.34440
 C384 C 1.07870 0.13036 0.34499
 C385 C 1.10607 0.11029 0.31791
 C386 C 1.08053 0.07541 0.31686
 C387 C 1.12835 0.09418 0.35137
 C388 C 1.10077 0.11396 0.37891
 C389 C 1.07520 0.07909 0.37787
 C390 C 1.10252 0.05905 0.35077
 H391 H 1.02175 0.09543 0.34197
 H392 H 1.06888 0.15983 0.34256
 H393 H 1.07232 0.05966 0.29108
 H394 H 1.15954 0.09385 0.35392
 H395 H 1.10897 0.12971 0.40470
 H396 H 1.11209 0.02951 0.35353
 C397 C 0.89818 -0.05540 0.35590
 C398 C 0.91886 -0.07243 0.32141
 C399 C 0.89338 -0.10728 0.32403
 C400 C 0.87243 -0.09049 0.35813
 C401 C 0.92179 -0.12678 0.35029
 C402 C 0.94748 -0.09170 0.34806
 C403 C 0.92652 -0.07492 0.38214
 C404 C 0.90103 -0.10975 0.38480
 H405 H 0.88874 -0.02579 0.35857
 H406 H 0.92600 -0.05723 0.29502
 H407 H 0.84135 -0.09012 0.36189
 H408 H 0.93145 -0.15631 0.34782
 H409 H 0.97857 -0.09195 0.34435
 H410 H 0.89387 -0.12497 0.41118
 C411 C 0.93170 0.11686 0.63373
 C412 C 0.88847 0.12075 0.63877
 C413 C 0.89224 0.10626 0.67946
 C414 C 0.93521 0.10259 0.67485
 C415 C 0.88655 0.06553 0.66607
 C416 C 0.88303 0.07977 0.62495
 C417 C 0.92599 0.07619 0.62037
 C418 C 0.92974 0.06171 0.66110
 H419 H 0.95052 0.13777 0.62010
 H420 H 0.87127 0.14522 0.62996
 H421 H 0.95656 0.11209 0.69570
 H422 H 0.86789 0.04439 0.67954
 H423 H 0.86176 0.07021 0.60405
 H424 H 0.94680 0.03719 0.67010
 C425 C 1.06804 -0.06505 0.66027
 C426 C 1.07097 -0.10798 0.66595
 C427 C 1.11236 -0.10304 0.67797
 C428 C 1.10960 -0.06029 0.67262
 C429 C 1.12566 -0.10807 0.63693
 C430 C 1.08401 -0.11281 0.62454
 C431 C 1.08126 -0.07010 0.61916
 C432 C 1.12262 -0.06505 0.63108
 H433 H 1.04423 -0.04715 0.66976
 H434 H 1.04960 -0.12563 0.68044
 H435 H 1.12025 -0.03883 0.69272
 H436 H 1.14956 -0.12598 0.62769
 H437 H 1.07331 -0.13423 0.60443
 H438 H 1.14362 -0.04714 0.61638
 C439 C 0.38148 1.10833 1.10346
 C440 C 0.34900 1.12717 1.08125
 C441 C 0.32029 1.10690 1.10668
 C442 C 0.35231 1.08834 1.12916
 C443 C 0.31874 1.07340 1.07931
 C444 C 0.34787 1.09343 1.05368
 C445 C 0.37992 1.07484 1.07605
 C446 C 0.35121 1.05459 1.10148
 H447 H 0.40756 1.12255 1.11327
 H448 H 0.34803 1.15718 1.07293
 H449 H 0.35382 1.08636 1.16039
 H450 H 0.29268 1.05915 1.06947
 H451 H 0.34652 1.09547 1.02248
 H452 H 0.35252 1.02453 1.10962
 C453 C 0.38070 0.88043 0.91028
 C454 C 0.34277 0.87144 0.93012
 C455 C 0.32164 0.88746 0.89582
 C456 C 0.35911 0.89617 0.87577
 C457 C 0.32105 0.92679 0.91379
 C458 C 0.34265 0.91104 0.94830
 C459 C 0.38014 0.91976 0.92824
 C460 C 0.35896 0.93574 0.89401
 H461 H 0.40555 0.86152 0.90905
 H462 H 0.33602 0.84491 0.94510
 H463 H 0.36558 0.88990 0.84574
 H464 H 0.29625 0.94576 0.91505
 H465 H 0.33625 0.91740 0.97833
 H466 H 0.36597 0.96241 0.87939
 C467 C 0.63762 0.93793 1.11651
 C468 C 0.64109 0.89584 1.12704
 C469 C 0.68052 0.89506 1.10895
 C470 C 0.67758 0.93687 1.09872
 C471 C 0.66364 0.88367 1.07059
 C472 C 0.62378 0.88469 1.08841
 C473 C 0.62077 0.92650 1.07821
 C474 C 0.66030 0.92569 1.06020
 H475 H 0.62656 0.96049 1.13515
 H476 H 0.63353 0.88338 1.15473
 H477 H 0.70004 0.95819 1.10305
 H478 H 0.67432 0.86138 1.05143
 H479 H 0.60130 0.86342 1.08404
 H480 H 0.66800 0.93807 1.03249
 C481 C 0.65860 1.05512 0.92219
 C482 C 0.66233 1.06378 0.87954
 C483 C 0.67757 1.10300 0.88958
 C484 C 0.67422 1.09448 0.93199
 C485 C 0.63751 1.11946 0.88904
 C486 C 0.62175 1.07994 0.87930
 C487 C 0.61846 1.07150 0.92172
 C488 C 0.63372 1.11067 0.93170
 H489 H 0.66715 1.02851 0.93596
 H490 H 0.67417 1.04436 0.85805
 H491 H 0.69606 1.10054 0.95360
 H492 H 0.62917 1.14614 0.87523
 H493 H 0.59979 1.07380 0.85785
 H494 H 0.62162 1.12974 0.95338
 C495 C 0.07720 0.34202 0.05398
 C496 C 0.11952 0.33978 0.06445
 C497 C 0.10852 0.32329 0.10305
 C498 C 0.06645 0.32516 0.09275
 C499 C 0.10680 0.36281 0.12052
 C500 C 0.11757 0.37974 0.08169
 C501 C 0.07550 0.38157 0.07146
 C502 C 0.06449 0.36509 0.11000
 H503 H 0.06484 0.33372 0.02642
 H504 H 0.14222 0.32919 0.04565
 H505 H 0.04554 0.30242 0.09742
 H506 H 0.11916 0.37100 0.14811
 H507 H 0.13841 0.40254 0.07697
 H508 H 0.04160 0.37581 0.12850
 C509 C -0.12388 0.37842 -0.08363
 C510 C -0.11380 0.36202 -0.12294
 C511 C -0.11456 0.32233 -0.10596
 C512 C -0.12487 0.33828 -0.06689
 C513 C -0.07228 0.32477 -0.09661
 C514 C -0.07128 0.36487 -0.11337
 C515 C -0.08161 0.38081 -0.07437
 C516 C -0.08236 0.34109 -0.05737
 H517 H -0.14489 0.40086 -0.07811
 H518 H -0.12690 0.37027 -0.15013
 H519 H -0.14701 0.32721 -0.04772
 H520 H -0.05118 0.30239 -0.10207
 H521 H -0.04895 0.37612 -0.13222
 H522 H -0.06931 0.33275 -0.03018
 C523 C 0.11003 0.63336 -0.07015
 C524 C 0.11869 0.63755 -0.11279
 C525 C 0.10310 0.67780 -0.11141
 C526 C 0.09467 0.67402 -0.06899
 C527 C 0.06333 0.66360 -0.12134
 C528 C 0.07865 0.62289 -0.12248
 C529 C 0.07032 0.61916 -0.08008
 C530 C 0.05474 0.65945 -0.07869
 H531 H 0.12901 0.62057 -0.04888
 H532 H 0.14523 0.62889 -0.12698
 H533 H 0.10140 0.69531 -0.04708
 H534 H 0.04406 0.67625 -0.14244
 H535 H 0.07186 0.60149 -0.14426
 H536 H 0.02819 0.66822 -0.06456
 C537 C -0.11931 0.62431 0.08161
 C538 C -0.11214 0.63765 0.12266
 C539 C -0.10901 0.67825 0.10831
 C540 C -0.11639 0.66531 0.06753
 C541 C -0.06623 0.67386 0.10271
 C542 C -0.06911 0.63278 0.11679
 C543 C -0.07655 0.61990 0.07605
 C544 C -0.07340 0.66056 0.06175
 H545 H -0.14093 0.60355 0.07275
 H546 H -0.12831 0.62859 0.14790
 H547 H -0.13587 0.67883 0.04718
 H548 H -0.04458 0.69461 0.11155
 H549 H -0.04940 0.61906 0.13678
 H550 H -0.05726 0.66981 0.03655
 C551 C 1.09895 0.05744 0.65110
 C552 C 1.13459 0.08247 0.64890
 C553 C 1.11519 0.11126 0.67486
 C554 C 1.07980 0.08646 0.67748
 C555 C 1.09895 0.13210 0.64060
 C556 C 1.11809 0.10311 0.61419
 C557 C 1.08270 0.07831 0.61686
 C558 C 1.06330 0.10703 0.64282
 H559 H 1.09869 0.02652 0.65496
 H560 H 1.16410 0.07248 0.65164
 H561 H 1.06424 0.07983 0.70384
 H562 H 1.09911 0.16302 0.63669
 H563 H 1.13366 0.10974 0.58783
 H564 H 1.03373 0.11684 0.63992
 C565 C 0.90287 -0.10482 0.62009
 C566 C 0.92546 -0.12168 0.65339
 C567 C 0.89860 -0.10199 0.68117
 C568 C 0.87579 -0.08537 0.64830
 C569 C 0.92412 -0.06711 0.68229
 C570 C 0.95121 -0.08659 0.65410
 C571 C 0.92841 -0.06996 0.62125
 C572 C 0.90160 -0.05025 0.64901
 H573 H 0.89427 -0.12015 0.59418
 H574 H 0.93525 -0.15119 0.65543
 H575 H 0.84456 -0.08507 0.64630
 H576 H 0.93276 -0.05182 0.70821
 H577 H 0.98244 -0.08694 0.65602
 H578 H 0.89199 -0.02070 0.64669
 C579 C 1.07057 -0.06310 0.33853
 C580 C 1.11350 -0.06870 0.33324
 C581 C 1.10613 -0.10968 0.32153
 C582 C 1.06341 -0.10428 0.32645
 C583 C 1.10994 -0.12272 0.36269
 C584 C 1.11711 -0.08150 0.37476
 C585 C 1.07443 -0.07611 0.37973
 C586 C 1.06696 -0.11704 0.36811
 H587 H 1.05425 -0.03835 0.32883
 H588 H 1.13263 -0.04865 0.31880
 H589 H 1.04153 -0.11384 0.30621
 H590 H 1.12633 -0.14748 0.37222
 H591 H 1.13901 -0.07193 0.39498
 H592 H 1.04754 -0.13663 0.38283
 C593 C 0.92803 0.06401 0.34033
 C594 C 0.88512 0.07127 0.33753
 C595 C 0.89345 0.11126 0.32343
 C596 C 0.93614 0.10418 0.32585
 C597 C 0.89283 0.12648 0.36404
 C598 C 0.88471 0.08624 0.37853
 C599 C 0.92737 0.07921 0.38099
 C600 C 0.93578 0.11915 0.36696
 H601 H 0.94263 0.03809 0.33084
 H602 H 0.86425 0.05147 0.32529
 H603 H 0.95708 0.11173 0.30381
 H604 H 0.87809 0.15236 0.37339
 H605 H 0.86378 0.07864 0.40056
 H606 H 0.95691 0.13852 0.37945
 C607 C 0.10198 0.35523 -0.05581
 C608 C 0.08029 0.32048 -0.07057
 C609 C 0.10445 0.32115 -0.10660
 C610 C 0.12643 0.35550 -0.09208
 C611 C 0.07572 0.34670 -0.12640
 C612 C 0.05133 0.34643 -0.09016
 C613 C 0.07330 0.38077 -0.07562
 C614 C 0.09747 0.38150 -0.11164
 H615 H 0.11266 0.35925 -0.02664
 H616 H 0.07337 0.29506 -0.05383
 H617 H 0.15754 0.35881 -0.09305
 H618 H 0.06492 0.34299 -0.15556
 H619 H 0.02020 0.34312 -0.08916
 H620 H 0.10438 0.40694 -0.12834
 C621 C -0.10790 0.35539 0.05536
 C622 C -0.08581 0.32134 0.07095
 C623 C -0.10984 0.32283 0.10706
 C624 C -0.13221 0.35646 0.09173
 C625 C -0.08126 0.34928 0.12604
 C626 C -0.05702 0.34820 0.08972
 C627 C -0.07938 0.38183 0.07437
 C628 C -0.10341 0.38336 0.11047
 H629 H -0.11866 0.35834 0.02610
 H630 H -0.07872 0.29551 0.05488
 H631 H -0.16335 0.35945 0.09276
 H632 H -0.07033 0.34656 0.15525
 H633 H -0.02587 0.34520 0.08864
 H634 H -0.11050 0.40922 0.12652
 C635 C -0.09547 0.65183 -0.05801
 C636 C -0.07552 0.67925 -0.08542
 C637 C -0.10971 0.67677 -0.11195
 C638 C -0.12986 0.64974 -0.08476
 C639 C -0.09182 0.64361 -0.13327
 C640 C -0.05738 0.64567 -0.10645
 C641 C -0.07758 0.61867 -0.07931
 C642 C -0.11175 0.61617 -0.10586
 H643 H -0.09680 0.65483 -0.02683
 H644 H -0.06079 0.70553 -0.07721
 H645 H -0.15984 0.65158 -0.07591
 H646 H -0.09049 0.64062 -0.16444
 H647 H -0.02737 0.64357 -0.11516
 H648 H -0.12650 0.58991 -0.11413
 C649 C 0.09545 0.61670 0.11157
 C650 C 0.12436 0.64342 0.09288
 C651 C 0.10288 0.67713 0.10945
 C652 C 0.07414 0.65082 0.12838
 C653 C 0.07826 0.67974 0.07386
 C654 C 0.09950 0.64564 0.05706
 C655 C 0.07085 0.61930 0.07597
 C656 C 0.04929 0.65296 0.09252
 H657 H 0.10239 0.59047 0.12693
 H658 H 0.15545 0.63987 0.09322
 H659 H 0.06378 0.65322 0.15785
 H660 H 0.07135 0.70602 0.05858
 H661 H 0.10968 0.64314 0.02750
 H662 H 0.01819 0.65642 0.09206
 C663 C 0.36775 1.07006 0.88758
 C664 C 0.32622 1.06538 0.90028
 C665 C 0.32108 1.10815 0.89762
 C666 C 0.36217 1.11305 0.88468
 C667 C 0.33262 1.11300 0.93916
 C668 C 0.33816 1.06998 0.94200
 C669 C 0.37929 1.07493 0.92907
 C670 C 0.37416 1.11766 0.92649
 H671 H 0.38256 1.05213 0.86663
 H672 H 0.30615 1.04404 0.88935
 H673 H 0.37162 1.13100 0.86089
 H674 H 0.31790 1.13074 0.96033
 H675 H 0.32854 1.05199 0.96570
 H676 H 0.39430 1.13889 0.93749
 C677 C 0.37811 0.91109 1.11787
 C678 C 0.33759 0.92716 1.11789
 C679 C 0.32239 0.88803 1.10750
 C680 C 0.36249 0.87167 1.10769
 C681 C 0.32553 0.89700 1.06519
 C682 C 0.34106 0.93631 1.07539
 C683 C 0.38123 0.92002 1.07558
 C684 C 0.36612 0.88094 1.06511
 H685 H 0.40012 0.91707 1.13931
 H686 H 0.32573 0.94629 1.13962
 H687 H 0.37088 0.84487 1.12121
 H688 H 0.30354 0.89103 1.04372
 H689 H 0.33244 0.96311 1.06198
 H690 H 0.37825 0.86223 1.04315
 C691 C 0.65367 1.05131 1.09194
 C692 C 0.67976 1.08026 1.07242
 C693 C 0.67872 1.10441 1.10839
 C694 C 0.65304 1.07567 1.12815
 C695 C 0.64425 1.12606 1.09374
 C696 C 0.64489 1.10164 1.05752
 C697 C 0.61922 1.07296 1.07728
 C698 C 0.61812 1.09712 1.11324
 H699 H 0.65707 1.02035 1.09092
 H700 H 0.70546 1.07352 1.05583
 H701 H 0.65662 1.06503 1.15735
 H702 H 0.64082 1.15702 1.09464
 H703 H 0.64111 1.11206 1.02825
 H704 H 0.59242 1.10386 1.12983
 C705 C 0.62547 0.92350 0.88016
 C706 C 0.66708 0.93516 0.88639
 C707 C 0.67775 0.89349 0.89025
 C708 C 0.63659 0.88157 0.88378
 C709 C 0.67136 0.89508 0.93315
 C710 C 0.66032 0.93689 0.92951
 C711 C 0.61911 0.92502 0.92303
 C712 C 0.62975 0.88341 0.92693
 H713 H 0.60620 0.93539 0.85862
 H714 H 0.68264 0.95651 0.86971
 H715 H 0.62725 0.85858 0.86475
 H716 H 0.69055 0.88328 0.95481
 H717 H 0.66994 0.95966 0.94865
 H718 H 0.61401 0.86237 0.94385
   
