data_POSCAR
  _audit_creation_date              2014-09-24
  _audit_creation_method            'ToBaCCo'
  _symmetry_space_group_name_H-M    'P1'
  _symmetry_Int_Tables_number       1
  _symmetry_cell_setting            triclinic
  loop_
  _symmetry_equiv_pos_as_xyz
 x,y,z
_cell_length_a 36.0663
_cell_length_b 36.5365
_cell_length_c 36.3980
_cell_angle_alpha 90.090000
_cell_angle_beta 90.016500
_cell_angle_gamma 91.759600
loop_
  _atom_site_label
  _atom_site_type_symbol
  _atom_site_fract_x
  _atom_site_fract_y
  _atom_site_fract_z
C1 C -0.09266 0.30330 0.00029
 C2 C -0.07351 0.30450 0.03407
 C3 C -0.03450 0.30281 0.03319
 C4 C -0.01506 0.29590 0.00036
 C5 C -0.03562 0.29261 -0.03242
 C6 C -0.07418 0.29762 -0.03325
 C7 C 0.02638 0.29146 0.00044
 C8 C 0.04776 0.29568 -0.03201
 C9 C 0.08611 0.28988 -0.03211
 C10 C 0.10401 0.28287 0.00120
 C11 C 0.08363 0.27915 0.03378
 C12 C 0.04503 0.28205 0.03301
 H13 H -0.12263 0.30277 0.00021
 H14 H -0.01928 0.30796 0.05828
 H15 H -0.02145 0.28719 -0.05775
 H16 H 0.03524 0.30361 -0.05762
 H17 H 0.13363 0.27871 0.00166
 H18 H 0.03002 0.27697 0.05826
 C19 C 0.39454 0.80549 0.49693
 C20 C 0.41248 0.80183 0.53074
 C21 C 0.45138 0.80174 0.53182
 C22 C 0.47291 0.80736 0.49974
 C23 C 0.45379 0.81245 0.46623
 C24 C 0.41489 0.81001 0.46443
 C25 C 0.51474 0.80638 0.50102
 C26 C 0.53562 0.80076 0.46875
 C27 C 0.57447 0.79965 0.46965
 C28 C 0.59292 0.80202 0.50347
 C29 C 0.57295 0.80580 0.53620
 C30 C 0.53434 0.80953 0.53462
 H31 H 0.36455 0.80289 0.49579
 H32 H 0.46425 0.79685 0.55800
 H33 H 0.46857 0.81813 0.44102
 H34 H 0.52224 0.79685 0.44248
 H35 H 0.62271 0.79899 0.50440
 H36 H 0.52021 0.81474 0.56012
 C37 C 1.09102 0.67125 0.00045
 C38 C 1.07222 0.66786 0.03418
 C39 C 1.03312 0.66664 0.03374
 C40 C 1.01288 0.67161 0.00092
 C41 C 1.03303 0.67772 -0.03184
 C42 C 1.07200 0.67649 -0.03279
 C43 C 0.97101 0.67120 0.00083
 C44 C 0.95044 0.66529 -0.03196
 C45 C 0.91160 0.66723 -0.03241
 C46 C 0.89272 0.67229 0.00067
 C47 C 0.91211 0.67721 0.03368
 C48 C 0.95102 0.67774 0.03345
 H49 H 1.12093 0.67427 0.00051
 H50 H 1.01879 0.66058 0.05912
 H51 H 1.01841 0.68258 -0.05706
 H52 H 0.96401 0.65921 -0.05759
 H53 H 0.86281 0.67441 0.00051
 H54 H 0.96523 0.68361 0.05897
 C55 C 0.60454 0.17195 0.49802
 C56 C 0.58595 0.17544 0.53144
 C57 C 0.54708 0.17257 0.53217
 C58 C 0.52637 0.16408 0.50006
 C59 C 0.54623 0.16002 0.46677
 C60 C 0.58495 0.16517 0.46546
 C61 C 0.48451 0.16095 0.50115
 C62 C 0.46318 0.16368 0.46870
 C63 C 0.42424 0.16155 0.46960
 C64 C 0.40612 0.15841 0.50348
 C65 C 0.42629 0.15680 0.53623
 C66 C 0.46518 0.15664 0.53480
 H67 H 0.63436 0.17652 0.49709
 H68 H 0.53360 0.17740 0.55809
 H69 H 0.53227 0.15299 0.44139
 H70 H 0.47626 0.16798 0.44237
 H71 H 0.37614 0.15935 0.50449
 H72 H 0.47974 0.15337 0.56042
 C73 C 0.70652 -0.08549 -0.00111
 C74 C 0.70737 -0.06489 0.03175
 C75 C 0.70230 -0.02675 0.02937
 C76 C 0.69372 -0.00974 -0.00427
 C77 C 0.69202 -0.03159 -0.03613
 C78 C 0.70036 -0.06875 -0.03512
 C79 C 0.68767 0.03078 -0.00636
 C80 C 0.69464 0.05035 -0.03925
 C81 C 0.68876 0.08828 -0.04191
 C82 C 0.67806 0.10692 -0.00992
 C83 C 0.67278 0.08857 0.02348
 C84 C 0.67601 0.05047 0.02468
 H85 H 0.71355 -0.11409 -0.00076
 H86 H 0.70401 -0.01044 0.05404
 H87 H 0.68453 -0.02003 -0.06231
 H88 H 0.70405 0.03590 -0.06314
 H89 H 0.67707 0.13650 -0.00992
 H90 H 0.66979 0.03668 0.05029
 C91 C 0.21257 0.39461 0.50497
 C92 C 0.21405 0.41437 0.53805
 C93 C 0.20708 0.45198 0.53772
 C94 C 0.19656 0.46983 0.50512
 C95 C 0.19398 0.44889 0.47259
 C96 C 0.20367 0.41198 0.47192
 C97 C 0.19049 0.51036 0.50460
 C98 C 0.19550 0.53081 0.47197
 C99 C 0.19153 0.56890 0.47156
 C100 C 0.18444 0.58716 0.50455
 C101 C 0.18026 0.56780 0.53759
 C102 C 0.18168 0.52942 0.53706
 H103 H 0.22025 0.36617 0.50474
 H104 H 0.21040 0.46707 0.56311
 H105 H 0.18495 0.46105 0.44721
 H106 H 0.20310 0.51756 0.44667
 H107 H 0.18429 0.61680 0.50473
 H108 H 0.17642 0.51478 0.56238
 C109 C 0.33099 1.08566 0.00054
 C110 C 0.32107 1.06795 0.03357
 C111 C 0.31349 1.02996 0.03281
 C112 C 0.31909 1.00907 0.00081
 C113 C 0.32934 1.02780 -0.03163
 C114 C 0.33245 1.06635 -0.03300
 C115 C 0.31390 0.96800 0.00118
 C116 C 0.30629 0.94810 -0.03153
 C117 C 0.30412 0.90943 -0.03187
 C118 C 0.30672 0.89101 0.00192
 C119 C 0.31195 0.91011 0.03490
 C120 C 0.31673 0.94824 0.03430
 H121 H 0.33547 1.11490 0.00089
 H122 H 0.30246 1.01690 0.05719
 H123 H 0.33579 1.01246 -0.05602
 H124 H 0.30323 0.96261 -0.05705
 H125 H 0.30190 0.86164 0.00325
 H126 H 0.32292 0.96201 0.05998
 C127 C 0.81231 0.60265 0.49376
 C128 C 0.80859 0.58302 0.52661
 C129 C 0.81137 0.54480 0.52597
 C130 C 0.82002 0.52597 0.49327
 C131 C 0.82486 0.54675 0.46083
 C132 C 0.81956 0.58471 0.46058
 C133 C 0.82243 0.48489 0.49286
 C134 C 0.81685 0.46453 0.46010
 C135 C 0.81833 0.42615 0.46001
 C136 C 0.82307 0.40768 0.49329
 C137 C 0.82743 0.42696 0.52633
 C138 C 0.82878 0.46537 0.52564
 H139 H 0.80755 0.63179 0.49383
 H140 H 0.80632 0.53010 0.55125
 H141 H 0.83246 0.53376 0.43536
 H142 H 0.81102 0.47803 0.43446
 H143 H 0.82150 0.37802 0.49362
 H144 H 0.83447 0.47958 0.55116
 O145 O 0.26316 0.19087 0.22222
 O146 O 0.22411 0.24617 0.29648
 O147 O 0.20970 0.23605 0.22599
 O148 O 0.28077 0.20436 0.29064
 O149 O 0.31790 0.25023 0.27341
 O150 O 0.24601 0.28373 0.21213
 O151 O 0.26166 0.29254 0.28148
 O152 O 0.29790 0.23854 0.20457
 Cu153 Cu 0.24071 0.21477 0.26059
 Cu154 Cu 0.28474 0.27087 0.24160
 C155 C 0.28591 0.20579 0.19983
 C156 C 0.23668 0.27851 0.30222
 C157 C 0.21628 0.26492 0.20725
 C158 C 0.31152 0.22216 0.29315
 O159 O 0.70789 0.76275 0.28124
 O160 O 0.77619 0.73169 0.21401
 O161 O 0.76181 0.71760 0.28208
 O162 O 0.72200 0.77576 0.21108
 O163 O 0.76027 0.82130 0.22692
 O164 O 0.80002 0.76288 0.29892
 O165 O 0.81467 0.77697 0.23026
 O166 O 0.74608 0.80827 0.29727
 Cu167 Cu 0.73785 0.74263 0.24555
 Cu168 Cu 0.78385 0.79712 0.26505
 C169 C 0.71578 0.79017 0.30162
 C170 C 0.80701 0.74910 0.21045
 C171 C 0.78767 0.73011 0.30265
 C172 C 0.73529 0.80789 0.20573
 O173 O 0.72688 0.31518 0.26219
 O174 O 0.69938 0.24072 0.19791
 O175 O 0.67971 0.25983 0.26377
 O176 O 0.74563 0.29658 0.19493
 O177 O 0.78935 0.26221 0.21750
 O178 O 0.72333 0.22548 0.28659
 O179 O 0.74307 0.20660 0.22098
 O180 O 0.77066 0.28063 0.28435
 Cu181 Cu 0.70863 0.28168 0.22744
 Cu182 Cu 0.76105 0.24046 0.25468
 C183 C 0.75329 0.31032 0.28465
 C184 C 0.71666 0.21090 0.19849
 C185 C 0.69016 0.23630 0.28692
 C186 C 0.77854 0.28518 0.19389
 O187 O 0.16749 0.75619 0.23610
 O188 O 0.23472 0.79588 0.30232
 O189 O 0.21726 0.80975 0.23436
 O190 O 0.18661 0.74195 0.30379
 O191 O 0.22891 0.70429 0.28404
 O192 O 0.25941 0.77183 0.21487
 O193 O 0.27701 0.75815 0.28265
 O194 O 0.20971 0.71853 0.21621
 Cu195 Cu 0.19719 0.77971 0.27095
 Cu196 Cu 0.24787 0.73437 0.24734
 C197 C 0.17710 0.73073 0.21463
 C198 C 0.26720 0.78349 0.30421
 C199 C 0.24373 0.80239 0.21279
 C200 C 0.20311 0.71181 0.30629
 O201 O 0.77886 0.29097 0.70945
 O202 O 0.74112 0.22310 0.77535
 O203 O 0.72589 0.24097 0.70800
 O204 O 0.79332 0.27254 0.77734
 O205 O 0.75359 0.31245 0.79791
 O206 O 0.68628 0.28157 0.72733
 O207 O 0.70106 0.26323 0.79482
 O208 O 0.73956 0.33133 0.72987
 Cu209 Cu 0.76382 0.25299 0.74032
 Cu210 Cu 0.71618 0.30134 0.76431
 C211 C 0.76544 0.32269 0.70816
 C212 C 0.71503 0.23179 0.79681
 C213 C 0.69459 0.25578 0.70568
 C214 C 0.78456 0.29697 0.80033
 O215 O 0.27175 0.76062 0.71419
 O216 O 0.20411 0.72828 0.78274
 O217 O 0.21939 0.71073 0.71555
 O218 O 0.25557 0.77874 0.78169
 O219 O 0.21572 0.81877 0.76174
 O220 O 0.17951 0.75041 0.69494
 O221 O 0.16380 0.76787 0.76277
 O222 O 0.23206 0.80063 0.69388
 Cu223 Cu 0.24178 0.74071 0.75053
 Cu224 Cu 0.19380 0.78851 0.72626
 C225 C 0.26336 0.78567 0.69184
 C226 C 0.17258 0.74264 0.78484
 C227 C 0.19351 0.71893 0.69367
 C228 C 0.24139 0.81008 0.78370
 O229 O 0.27802 0.29916 0.73108
 O230 O 0.31769 0.24147 0.80358
 O231 O 0.33135 0.25314 0.73432
 O232 O 0.26464 0.28774 0.80164
 O233 O 0.22499 0.24294 0.78694
 O234 O 0.29162 0.20856 0.71911
 O235 O 0.27841 0.19658 0.78811
 O236 O 0.23834 0.25430 0.71676
 Cu237 Cu 0.30171 0.27504 0.76912
 Cu238 Cu 0.25421 0.22126 0.75134
 C239 C 0.25196 0.28621 0.71091
 C240 C 0.30479 0.20902 0.80809
 C241 C 0.32289 0.22507 0.71506
 C242 C 0.23375 0.27076 0.80648
 O243 O 0.74504 0.79747 0.70720
 O244 O 0.81198 0.75945 0.77156
 O245 O 0.79480 0.74843 0.70277
 O246 O 0.75915 0.80607 0.77745
 O247 O 0.71873 0.76205 0.79228
 O248 O 0.75412 0.70470 0.71784
 O249 O 0.77164 0.71553 0.78686
 O250 O 0.70409 0.75382 0.72173
 Cu251 Cu 0.78174 0.78229 0.73842
 Cu252 Cu 0.73303 0.72974 0.75626
 C253 C 0.71355 0.78170 0.70256
 C254 C 0.80345 0.73121 0.79037
 C255 C 0.78006 0.71683 0.69720
 C256 C 0.73318 0.79365 0.79802
 C257 C 0.32356 0.07268 0.10291
 C258 C 0.31730 0.08924 0.06857
 C259 C 0.30764 0.12637 0.06803
 C260 C 0.30487 0.14648 0.10070
 C261 C 0.30965 0.12900 0.13489
 C262 C 0.31914 0.09213 0.13567
 C263 C 0.30440 0.14864 0.16761
 C264 C 0.29596 0.18588 0.16635
 C265 C 0.29315 0.20345 0.13227
 C266 C 0.29705 0.18381 0.09967
 H267 H 0.30154 0.13985 0.04239
 H268 H 0.32349 0.07839 0.16161
 H269 H 0.30658 0.13505 0.19395
 H270 H 0.29361 0.19773 0.07369
 H271 H 0.33214 0.04462 0.10469
 H272 H 0.28618 0.23206 0.13087
 C273 C 0.77304 0.58877 0.58555
 C274 C 0.80043 0.60253 0.56135
 C275 C 0.81967 0.63547 0.57012
 C276 C 0.81127 0.65473 0.60229
 C277 C 0.78333 0.64088 0.62615
 C278 C 0.76458 0.60775 0.61766
 C279 C 0.77409 0.66072 0.65770
 C280 C 0.79219 0.69449 0.66567
 C281 C 0.82046 0.70762 0.64210
 C282 C 0.82997 0.68788 0.61074
 H283 H 0.84115 0.64611 0.55186
 H284 H 0.74303 0.59677 0.63562
 H285 H 0.75221 0.65023 0.67556
 H286 H 0.85154 0.69885 0.59281
 H287 H 0.75755 0.56369 0.57921
 H288 H 0.83485 0.73351 0.64755
 C289 C 0.73251 0.93675 0.09500
 C290 C 0.71383 0.91795 0.06612
 C291 C 0.70145 0.88143 0.07245
 C292 C 0.70767 0.86425 0.10628
 C293 C 0.72736 0.88317 0.13434
 C294 C 0.73945 0.91947 0.12846
 C295 C 0.73519 0.86526 0.16751
 C296 C 0.72318 0.82867 0.17310
 C297 C 0.70222 0.81071 0.14547
 C298 C 0.69467 0.82825 0.11238
 H299 H 0.68572 0.86653 0.05159
 H300 H 0.75468 0.93444 0.14963
 H301 H 0.75127 0.87951 0.18857
 H302 H 0.67921 0.81339 0.09130
 H303 H 0.74364 0.96434 0.09143
 H304 H 0.69269 0.78252 0.14887
 C305 C 0.25089 0.41188 0.59650
 C306 C 0.22418 0.39593 0.57279
 C307 C 0.20712 0.36218 0.58232
 C308 C 0.21679 0.34440 0.61495
 C309 C 0.24410 0.36037 0.63835
 C310 C 0.26084 0.39423 0.62895
 C311 C 0.25466 0.34192 0.67039
 C312 C 0.23834 0.30758 0.67930
 C313 C 0.21052 0.29250 0.65621
 C314 C 0.19986 0.31071 0.62439
 H315 H 0.18619 0.34988 0.56438
 H316 H 0.28183 0.40691 0.64651
 H317 H 0.27616 0.35392 0.68784
 H318 H 0.17875 0.29815 0.60687
 H319 H 0.26459 0.43775 0.58959
 H320 H 0.19745 0.26613 0.66230
 C321 C 0.92147 0.28772 0.09962
 C322 C 0.90676 0.30452 0.06802
 C323 C 0.87069 0.31855 0.07059
 C324 C 0.84913 0.31341 0.10239
 C325 C 0.86365 0.29455 0.13271
 C326 C 0.90016 0.28274 0.13139
 C327 C 0.84103 0.28675 0.16332
 C328 C 0.80388 0.29748 0.16397
 C329 C 0.79032 0.31782 0.13434
 C330 C 0.81272 0.32574 0.10388
 H331 H 0.85904 0.33352 0.04791
 H332 H 0.91185 0.26838 0.15449
 H333 H 0.85201 0.27132 0.18606
 H334 H 0.80118 0.34053 0.08100
 H335 H 0.94855 0.27579 0.09936
 H336 H 0.76191 0.32659 0.13409
 C337 C 0.39939 0.76967 0.59044
 C338 C 0.39022 0.79656 0.56470
 C339 C 0.35893 0.81777 0.57091
 C340 C 0.33650 0.81156 0.60188
 C341 C 0.34563 0.78402 0.62722
 C342 C 0.37734 0.76351 0.62148
 C343 C 0.32239 0.77675 0.65736
 C344 C 0.28973 0.79628 0.66231
 C345 C 0.28138 0.82422 0.63740
 C346 C 0.30465 0.83189 0.60752
 H347 H 0.35187 0.83888 0.55144
 H348 H 0.38469 0.74223 0.64062
 H349 H 0.32919 0.75508 0.67629
 H350 H 0.29731 0.85320 0.58840
 H351 H 0.42309 0.75270 0.58607
 H352 H 0.25646 0.83971 0.64058
 C353 C 0.12895 0.65566 0.06938
 C354 C 0.09259 0.66893 0.06765
 C355 C 0.07865 0.68684 0.09899
 C356 C 0.10171 0.69468 0.12936
 C357 C 0.13862 0.68286 0.12952
 C358 C 0.15150 0.66231 0.09997
 C359 C 0.16259 0.69314 0.15842
 C360 C 0.15050 0.71609 0.18677
 C361 C 0.11335 0.72677 0.18694
 C362 C 0.08912 0.71595 0.15867
 H363 H 0.05112 0.69790 0.09863
 H364 H 0.17954 0.65246 0.09991
 H365 H 0.19113 0.68468 0.15786
 H366 H 0.06089 0.72526 0.15911
 H367 H 0.14029 0.64009 0.04692
 H368 H 0.10318 0.74420 0.20857
 C369 C 0.63983 0.16425 0.57252
 C370 C 0.60761 0.18363 0.56519
 C371 C 0.59752 0.21196 0.58903
 C372 C 0.62019 0.22171 0.61907
 C373 C 0.65303 0.20258 0.62555
 C374 C 0.66229 0.17355 0.60248
 C375 C 0.67660 0.21330 0.65444
 C376 C 0.66810 0.24318 0.67696
 C377 C 0.63495 0.26153 0.67088
 C378 C 0.61117 0.25086 0.64218
 H379 H 0.57290 0.22729 0.58338
 H380 H 0.68727 0.15849 0.60719
 H381 H 0.70196 0.19875 0.65889
 H382 H 0.58608 0.26580 0.63770
 H383 H 0.64784 0.14205 0.55472
 H384 H 0.62770 0.28458 0.68789
 C385 C 0.72133 0.09670 0.89871
 C386 C 0.69490 0.10785 0.92479
 C387 C 0.67522 0.13988 0.91729
 C388 C 0.68293 0.16100 0.88597
 C389 C 0.71049 0.15015 0.86108
 C390 C 0.72905 0.11765 0.86737
 C391 C 0.71975 0.17252 0.83092
 C392 C 0.70199 0.20586 0.82556
 C393 C 0.67357 0.21562 0.84979
 C394 C 0.66405 0.19334 0.87964
 H395 H 0.65333 0.14840 0.93549
 H396 H 0.75032 0.10891 0.84855
 H397 H 0.74166 0.16457 0.81243
 H398 H 0.64261 0.20194 0.89833
 H399 H 0.73798 0.07301 0.90322
 H400 H 0.65930 0.24103 0.84627
 C401 C 0.22572 0.58260 0.41279
 C402 C 0.19663 0.59016 0.43708
 C403 C 0.17299 0.61897 0.42892
 C404 C 0.17890 0.64058 0.39752
 C405 C 0.20860 0.63309 0.37363
 C406 C 0.23159 0.60380 0.38130
 C407 C 0.21542 0.65558 0.34303
 C408 C 0.19331 0.68592 0.33624
 C409 C 0.16335 0.69261 0.35976
 C410 C 0.15610 0.67005 0.39003
 H411 H 0.15019 0.62478 0.44722
 H412 H 0.25455 0.59773 0.36332
 H413 H 0.23871 0.65013 0.32522
 H414 H 0.13314 0.67611 0.40801
 H415 H 0.24461 0.56089 0.41864
 H416 H 0.14584 0.71572 0.35514
 C417 C 0.31315 0.85367 0.93176
 C418 C 0.29886 0.88913 0.93508
 C419 C 0.27878 0.90306 0.90502
 C420 C 0.27156 0.88139 0.87368
 C421 C 0.28546 0.84576 0.87161
 C422 C 0.30671 0.83245 0.90046
 C423 C 0.27698 0.82344 0.84124
 C424 C 0.25381 0.83573 0.81309
 C425 C 0.24059 0.87150 0.81495
 C426 C 0.24960 0.89423 0.84486
 H427 H 0.26650 0.92968 0.90666
 H428 H 0.31796 0.80531 0.89909
 H429 H 0.28727 0.79587 0.84036
 H430 H 0.23863 0.92149 0.84588
 H431 H 0.33032 0.84231 0.95302
 H432 H 0.22271 0.88169 0.79362
 C433 C 0.83712 0.37535 0.41872
 C434 C 0.81370 0.40463 0.42561
 C435 C 0.78486 0.41158 0.40076
 C436 C 0.77848 0.38843 0.37034
 C437 C 0.80157 0.35839 0.36450
 C438 C 0.83120 0.35252 0.38842
 C439 C 0.79400 0.33397 0.33555
 C440 C 0.76332 0.33870 0.31237
 C441 C 0.74120 0.36931 0.31762
 C442 C 0.74874 0.39399 0.34632
 H443 H 0.76647 0.43393 0.40596
 H444 H 0.84929 0.32975 0.38419
 H445 H 0.81146 0.31062 0.33178
 H446 H 0.73080 0.41692 0.35026
 H447 H 0.85981 0.36981 0.43720
 H448 H 0.71743 0.37365 0.30015
 C449 C 0.09240 0.26711 0.90336
 C450 C 0.10699 0.28803 0.93274
 C451 C 0.14270 0.30430 0.92938
 C452 C 0.16407 0.29854 0.89770
 C453 C 0.14967 0.27613 0.86904
 C454 C 0.11354 0.26115 0.87185
 C455 C 0.17203 0.26817 0.83859
 C456 C 0.20863 0.28246 0.83627
 C457 C 0.22203 0.30603 0.86420
 C458 C 0.20002 0.31389 0.89466
 H459 H 0.15409 0.32076 0.95172
 H460 H 0.10196 0.24404 0.85010
 H461 H 0.16123 0.25016 0.81716
 H462 H 0.21146 0.33132 0.91623
 H463 H 0.06512 0.25403 0.90541
 H464 H 0.25009 0.31741 0.86318
 C465 C 0.58485 0.76735 0.40990
 C466 C 0.59573 0.79468 0.43524
 C467 C 0.62707 0.81722 0.42767
 C468 C 0.64756 0.81228 0.39535
 C469 C 0.63677 0.78427 0.37036
 C470 C 0.60522 0.76213 0.37777
 C471 C 0.65819 0.77828 0.33885
 C472 C 0.69052 0.79974 0.33203
 C473 C 0.70029 0.82828 0.35651
 C474 C 0.67900 0.83451 0.38784
 H475 H 0.63539 0.83861 0.44692
 H476 H 0.59654 0.74053 0.35894
 H477 H 0.65028 0.75616 0.32029
 H478 H 0.68756 0.85624 0.40659
 H479 H 0.56093 0.74953 0.41531
 H480 H 0.72504 0.84521 0.35201
 C481 C 0.85599 0.64971 0.92908
 C482 C 0.89064 0.66813 0.93247
 C483 C 0.90293 0.69150 0.90404
 C484 C 0.87983 0.69847 0.87396
 C485 C 0.84432 0.68111 0.87165
 C486 C 0.83313 0.65596 0.89883
 C487 C 0.82001 0.69049 0.84320
 C488 C 0.83048 0.71758 0.81745
 C489 C 0.86644 0.73356 0.81930
 C490 C 0.89091 0.72399 0.84715
 H491 H 0.92938 0.70622 0.90657
 H492 H 0.80612 0.64219 0.89744
 H493 H 0.79241 0.67790 0.84213
 H494 H 0.91808 0.73745 0.84840
 H495 H 0.84608 0.63135 0.95051
 H496 H 0.87542 0.75425 0.79969
 C497 C 0.36992 0.14273 0.43022
 C498 C 0.40205 0.16490 0.43549
 C499 C 0.41164 0.19157 0.40907
 C500 C 0.38864 0.19704 0.37860
 C501 C 0.35577 0.17539 0.37425
 C502 C 0.34702 0.14787 0.39986
 C503 C 0.33152 0.18248 0.34515
 C504 C 0.33941 0.21134 0.32059
 C505 C 0.37287 0.23181 0.32441
 C506 C 0.39730 0.22467 0.35310
 H507 H 0.43607 0.20916 0.41302
 H508 H 0.32206 0.13085 0.39685
 H509 H 0.30586 0.16644 0.34254
 H510 H 0.42246 0.24142 0.35591
 H511 H 0.36227 0.12165 0.44994
 H512 H 0.37973 0.25412 0.30583
 C513 C 0.72745 0.92772 0.90182
 C514 C 0.70628 0.91105 0.93000
 C515 C 0.69283 0.87481 0.92526
 C516 C 0.70100 0.85533 0.89305
 C517 C 0.72307 0.87218 0.86536
 C518 C 0.73579 0.90850 0.86987
 C519 C 0.73272 0.85225 0.83396
 C520 C 0.72051 0.81559 0.82966
 C521 C 0.69765 0.79943 0.85685
 C522 C 0.68806 0.81907 0.88827
 H523 H 0.67628 0.86178 0.94669
 H524 H 0.75271 0.92187 0.84894
 H525 H 0.75020 0.86515 0.81317
 H526 H 0.67098 0.80571 0.90908
 H527 H 0.73857 0.95542 0.90499
 H528 H 0.68787 0.77122 0.85429
 C529 C 0.22701 0.41100 0.40730
 C530 C 0.20826 0.39288 0.43623
 C531 C 0.19636 0.35615 0.43150
 C532 C 0.20397 0.33754 0.39864
 C533 C 0.22382 0.35583 0.37025
 C534 C 0.23471 0.39268 0.37466
 C535 C 0.23333 0.33675 0.33830
 C536 C 0.22330 0.29949 0.33419
 C537 C 0.20241 0.28188 0.36201
 C538 C 0.19289 0.30071 0.39397
 H539 H 0.18164 0.34200 0.45350
 H540 H 0.24990 0.40714 0.35318
 H541 H 0.24925 0.35074 0.31700
 H542 H 0.17751 0.28626 0.41532
 H543 H 0.23691 0.43912 0.41042
 H544 H 0.19432 0.25319 0.35958
 C545 C 0.31631 0.06901 0.90129
 C546 C 0.33320 0.08522 0.93272
 C547 C 0.34667 0.12193 0.92973
 C548 C 0.33995 0.14268 0.89810
 C549 C 0.32055 0.12651 0.86828
 C550 C 0.31010 0.08940 0.86963
 C551 C 0.31059 0.14803 0.83820
 C552 C 0.31959 0.18572 0.83754
 C553 C 0.34072 0.20121 0.86641
 C554 C 0.35086 0.17985 0.89643
 H555 H 0.36201 0.13492 0.95199
 H556 H 0.29546 0.07649 0.84680
 H557 H 0.29475 0.13561 0.81586
 H558 H 0.36607 0.19271 0.91891
 H559 H 0.30482 0.04133 0.90167
 H560 H 0.34821 0.23014 0.86647
 C561 C 0.79792 0.58957 0.39550
 C562 C 0.81750 0.60513 0.42539
 C563 C 0.83129 0.64151 0.42271
 C564 C 0.82359 0.66271 0.39163
 C565 C 0.80242 0.64716 0.36257
 C566 C 0.79058 0.61033 0.36434
 C567 C 0.79215 0.66902 0.33288
 C568 C 0.80242 0.70645 0.33186
 C569 C 0.82482 0.72132 0.36011
 C570 C 0.83535 0.69962 0.38975
 H571 H 0.84686 0.65369 0.44534
 H572 H 0.77442 0.59796 0.34223
 H573 H 0.77516 0.65708 0.31111
 H574 H 0.85176 0.71197 0.41169
 H575 H 0.78660 0.56181 0.39694
 H576 H 0.83322 0.75003 0.35993
 C577 C 0.12668 0.66541 0.92893
 C578 C 0.09214 0.68194 0.93404
 C579 C 0.07905 0.70480 0.90582
 C580 C 0.10073 0.71237 0.87454
 C581 C 0.13557 0.69625 0.87068
 C582 C 0.14796 0.67235 0.89765
 C583 C 0.15807 0.70511 0.84047
 C584 C 0.14669 0.73062 0.81424
 C585 C 0.11161 0.74598 0.81779
 C586 C 0.08874 0.73679 0.84762
 H587 H 0.05330 0.71893 0.90898
 H588 H 0.17445 0.65941 0.89484
 H589 H 0.18506 0.69303 0.83816
 H590 H 0.06206 0.74944 0.85006
 H591 H 0.13722 0.64630 0.94878
 H592 H 0.10213 0.76564 0.79792
 C593 C 0.63951 0.15113 0.42580
 C594 C 0.60507 0.16764 0.42999
 C595 C 0.59248 0.19093 0.40226
 C596 C 0.61517 0.19973 0.37202
 C597 C 0.65052 0.18431 0.36895
 C598 C 0.66195 0.15920 0.39542
 C599 C 0.67443 0.19538 0.34036
 C600 C 0.66370 0.22207 0.31498
 C601 C 0.62795 0.23622 0.31757
 C602 C 0.60389 0.22510 0.34577
 H603 H 0.56616 0.20415 0.40550
 H604 H 0.68883 0.14691 0.39339
 H605 H 0.70180 0.18404 0.33860
 H606 H 0.57686 0.23712 0.34763
 H607 H 0.64962 0.13295 0.44678
 H608 H 0.61883 0.25661 0.29829
 C609 C 0.91741 0.27384 0.90364
 C610 C 0.90574 0.29589 0.93316
 C611 C 0.87330 0.31615 0.92840
 C612 C 0.85285 0.31386 0.89565
 C613 C 0.86463 0.29099 0.86695
 C614 C 0.89708 0.27143 0.87107
 C615 C 0.84320 0.28717 0.83499
 C616 C 0.80976 0.30563 0.83141
 C617 C 0.79898 0.32947 0.85955
 C618 C 0.82040 0.33362 0.89136
 H619 H 0.86422 0.33456 0.94972
 H620 H 0.90637 0.25356 0.84936
 H621 H 0.85194 0.26874 0.81352
 H622 H 0.81106 0.35153 0.91300
 H623 H 0.94117 0.25666 0.90600
 H624 H 0.77336 0.34402 0.85752
 C625 C 0.40878 0.78617 0.40008
 C626 C 0.39533 0.80828 0.42848
 C627 C 0.36104 0.82504 0.42386
 C628 C 0.33934 0.81780 0.39252
 C629 C 0.35236 0.79407 0.36501
 C630 C 0.38756 0.77923 0.36858
 C631 C 0.32934 0.78430 0.33523
 C632 C 0.29323 0.79761 0.33278
 C633 C 0.28125 0.82251 0.35946
 C634 C 0.30412 0.83257 0.38900
 H635 H 0.35059 0.84254 0.44535
 H636 H 0.39805 0.76109 0.34770
 H637 H 0.33907 0.76525 0.31478
 H638 H 0.29377 0.85098 0.40972
 H639 H 0.43492 0.77265 0.40305
 H640 H 0.25367 0.83335 0.35818
 C641 C 0.32830 0.85733 0.07483
 C642 C 0.30917 0.88989 0.07005
 C643 C 0.28374 0.90062 0.09695
 C644 C 0.27575 0.87788 0.12716
 C645 C 0.29421 0.84453 0.13102
 C646 C 0.32111 0.83496 0.10523
 C647 C 0.28447 0.82061 0.15977
 C648 C 0.25601 0.82920 0.18448
 C649 C 0.23856 0.86291 0.18099
 C650 C 0.24843 0.88710 0.15266
 H651 H 0.26854 0.92549 0.09316
 H652 H 0.33563 0.80957 0.10785
 H653 H 0.29830 0.79480 0.16216
 H654 H 0.23404 0.91257 0.15016
 H655 H 0.34806 0.84870 0.05440
 H656 H 0.21673 0.87034 0.19976
 C657 C 0.84461 0.37355 0.56563
 C658 C 0.82641 0.40682 0.56175
 C659 C 0.80359 0.41878 0.59041
 C660 C 0.79710 0.39676 0.62141
 C661 C 0.81420 0.36259 0.62427
 C662 C 0.83869 0.35171 0.59670
 C663 C 0.80523 0.33921 0.65374
 C664 C 0.77885 0.34927 0.68010
 C665 C 0.76322 0.38399 0.67774
 C666 C 0.77235 0.40756 0.64874
 H667 H 0.78901 0.44413 0.58757
 H668 H 0.85227 0.32573 0.59854
 H669 H 0.81760 0.31259 0.65523
 H670 H 0.75912 0.43374 0.64707
 H671 H 0.86266 0.36398 0.54412
 H672 H 0.74302 0.39258 0.69774
 C673 C 0.64698 0.14118 0.05875
 C674 C 0.66913 0.11018 0.05776
 C675 C 0.69217 0.10291 0.08785
 C676 C 0.69528 0.12769 0.11719
 C677 C 0.67438 0.15980 0.11703
 C678 C 0.64942 0.16568 0.08824
 C679 C 0.68012 0.18624 0.14466
 C680 C 0.70700 0.18126 0.17208
 C681 C 0.72642 0.14845 0.17276
 C682 C 0.72053 0.12188 0.14566
 H683 H 0.70975 0.07936 0.08719
 H684 H 0.63294 0.18998 0.08777
 H685 H 0.66483 0.21131 0.14387
 H686 H 0.73664 0.09734 0.14629
 H687 H 0.62879 0.14714 0.03599
 H688 H 0.74702 0.14370 0.19373
 C689 C 0.20056 0.57679 0.60283
 C690 C 0.17900 0.58814 0.57296
 C691 C 0.16010 0.62118 0.57573
 C692 C 0.16493 0.64383 0.60666
 C693 C 0.18815 0.63287 0.63564
 C694 C 0.20491 0.59884 0.63395
 C695 C 0.19572 0.65682 0.66498
 C696 C 0.18093 0.69199 0.66555
 C697 C 0.15647 0.70200 0.63747
 C698 C 0.14843 0.67806 0.60833
 H699 H 0.14293 0.63001 0.55316
 H700 H 0.22271 0.58998 0.65600
 H701 H 0.21441 0.64859 0.68657
 H702 H 0.13038 0.68685 0.58645
 H703 H 0.21579 0.55174 0.60137
 H704 H 0.14454 0.72884 0.63733
 C705 C 0.85947 0.66165 0.07600
 C706 C 0.89127 0.68339 0.06807
 C707 C 0.90185 0.71201 0.09208
 C708 C 0.88006 0.71972 0.12290
 C709 C 0.84758 0.69826 0.13001
 C710 C 0.83787 0.66894 0.10676
 C711 C 0.82469 0.70714 0.15957
 C712 C 0.83344 0.73756 0.18197
 C713 C 0.86638 0.75809 0.17536
 C714 C 0.88954 0.74919 0.14612
 H715 H 0.92611 0.72917 0.08599
 H716 H 0.81316 0.65210 0.11193
 H717 H 0.79944 0.69099 0.16438
 H718 H 0.91440 0.76587 0.14116
 H719 H 0.85112 0.63916 0.05810
 H720 H 0.87383 0.78161 0.19225
 C721 C 0.37315 0.13948 0.57789
 C722 C 0.40652 0.15946 0.57185
 C723 C 0.41864 0.18544 0.59810
 C724 C 0.39661 0.19304 0.62879
 C725 C 0.36240 0.17380 0.63385
 C726 C 0.35140 0.14641 0.60874
 C727 C 0.33908 0.18331 0.66302
 C728 C 0.34921 0.21229 0.68688
 C729 C 0.38388 0.23037 0.68225
 C730 C 0.40741 0.22075 0.65358
 H731 H 0.44407 0.20136 0.59346
 H732 H 0.32536 0.13124 0.61228
 H733 H 0.31249 0.16905 0.66626
 H734 H 0.43360 0.23570 0.65018
 H735 H 0.36343 0.11916 0.55813
 H736 H 0.39253 0.25261 0.70032
 C737 C 0.09241 0.24242 0.09099
 C738 C 0.10282 0.27244 0.06885
 C739 C 0.13153 0.29653 0.08036
 C740 C 0.15021 0.29044 0.11343
 C741 C 0.14042 0.25955 0.13513
 C742 C 0.11122 0.23588 0.12382
 C743 C 0.16069 0.25234 0.16714
 C744 C 0.19077 0.27553 0.17754
 C745 C 0.19905 0.30702 0.15652
 C746 C 0.17899 0.31439 0.12479
 H747 H 0.13923 0.32002 0.06352
 H748 H 0.10322 0.21215 0.14013
 H749 H 0.15401 0.22795 0.18302
 H750 H 0.18660 0.33835 0.10863
 H751 H 0.07017 0.22368 0.08249
 H752 H 0.22199 0.32542 0.16387
 C753 C 0.57711 0.77850 0.59904
 C754 C 0.59201 0.80235 0.57217
 C755 C 0.62643 0.82026 0.57871
 C756 C 0.64640 0.81330 0.61098
 C757 C 0.63187 0.78806 0.63708
 C758 C 0.59686 0.77138 0.63116
 C759 C 0.65313 0.77897 0.66796
 C760 C 0.68882 0.79479 0.67309
 C761 C 0.70217 0.82114 0.64778
 C762 C 0.68122 0.83026 0.61704
 H763 H 0.63800 0.83893 0.55831
 H764 H 0.58518 0.75208 0.65089
 H765 H 0.64238 0.75875 0.68727
 H766 H 0.69270 0.84986 0.59748
 H767 H 0.55079 0.76414 0.59449
 H768 H 0.72951 0.83384 0.65099
   
