data_POSCAR
  _audit_creation_date              2014-09-24
  _audit_creation_method            'ToBaCCo'
  _symmetry_space_group_name_H-M    'P1'
  _symmetry_Int_Tables_number       1
  _symmetry_cell_setting            triclinic
  loop_
  _symmetry_equiv_pos_as_xyz
 x,y,z
_cell_length_a 43.0351
_cell_length_b 46.1393
_cell_length_c 31.1175
_cell_angle_alpha 88.708600
_cell_angle_beta 87.660200
_cell_angle_gamma 90.541300
loop_
  _atom_site_label
  _atom_site_type_symbol
  _atom_site_fract_x
  _atom_site_fract_y
  _atom_site_fract_z
C1 C 1.27600 0.21008 0.31427
 C2 C 1.25278 0.22742 0.29621
 C3 C 1.22636 0.21418 0.27996
 C4 C 1.22196 0.18419 0.28390
 C5 C 1.24400 0.16739 0.30452
 C6 C 1.27127 0.17988 0.32004
 C7 C 1.25345 0.25931 0.30035
 C8 C 1.27912 0.27615 0.28500
 C9 C 1.28059 0.30610 0.29327
 C10 C 1.25579 0.31870 0.31699
 C11 C 1.22932 0.30242 0.32987
 C12 C 1.22823 0.27281 0.32162
 H13 H 1.29599 0.22046 0.32768
 H14 H 1.20864 0.22737 0.26562
 H15 H 1.29827 0.26574 0.26795
 H16 H 1.20811 0.26010 0.33305
 H17 H 1.24036 0.14411 0.30683
 H18 H 1.25593 0.34175 0.32306
 C19 C 0.76662 -0.27859 0.24410
 C20 C 0.74878 -0.26109 0.21715
 C21 C 0.72471 -0.27348 0.19451
 C22 C 0.71717 -0.30283 0.20031
 C23 C 0.73327 -0.31967 0.22981
 C24 C 0.75842 -0.30803 0.25165
 C25 C 0.75290 -0.22938 0.21490
 C26 C 0.77811 -0.21659 0.19137
 C27 C 0.77913 -0.18646 0.18430
 C28 C 0.75526 -0.16917 0.20147
 C29 C 0.73031 -0.18168 0.22594
 C30 C 0.72930 -0.21186 0.23245
 H31 H 0.78515 -0.26877 0.26152
 H32 H 0.71144 -0.26009 0.17297
 H33 H 0.79600 -0.23007 0.17693
 H34 H 0.70961 -0.22191 0.25003
 H35 H 0.72734 -0.34250 0.23360
 H36 H 0.75625 -0.14590 0.19583
 C37 C 0.76691 0.21649 -0.19315
 C38 C 0.74262 0.22683 -0.21776
 C39 C 0.72560 0.20763 -0.24215
 C40 C 0.73344 0.17822 -0.24318
 C41 C 0.75832 0.16816 -0.21939
 C42 C 0.77487 0.18715 -0.19401
 C43 C 0.73788 0.25816 -0.22250
 C44 C 0.75580 0.27380 -0.25377
 C45 C 0.75370 0.30417 -0.25739
 C46 C 0.73213 0.31835 -0.23004
 C47 C 0.71305 0.30257 -0.20003
 C48 C 0.71644 0.27247 -0.19571
 H49 H 0.78034 0.23144 -0.17472
 H50 H 0.70721 0.21580 -0.26176
 H51 H 0.77271 0.26225 -0.27346
 H52 H 0.70223 0.26022 -0.17203
 H53 H 0.76459 0.14547 -0.22021
 H54 H 0.72929 0.34162 -0.23290
 C55 C 1.24988 -0.29133 -0.23455
 C56 C 1.22878 -0.27679 -0.26057
 C57 C 1.20067 -0.29029 -0.26999
 C58 C 1.19336 -0.31798 -0.25373
 C59 C 1.21370 -0.33197 -0.22643
 C60 C 1.24206 -0.31881 -0.21587
 C61 C 1.23420 -0.24657 -0.27560
 C62 C 1.26039 -0.23836 -0.30162
 C63 C 1.26289 -0.20994 -0.31866
 C64 C 1.23978 -0.18967 -0.30852
 C65 C 1.21431 -0.19742 -0.28117
 C66 C 1.21150 -0.22598 -0.26534
 H67 H 1.27109 -0.28024 -0.22648
 H68 H 1.18475 -0.27944 -0.29102
 H69 H 1.27811 -0.25410 -0.30964
 H70 H 1.19149 -0.23228 -0.24481
 H71 H 1.20784 -0.35382 -0.21515
 H72 H 1.24236 -0.16752 -0.32061
 C73 C 0.23293 0.29117 0.68763
 C74 C 0.24722 0.26683 0.70552
 C75 C 0.22883 0.24339 0.72156
 C76 C 0.19613 0.24365 0.71925
 C77 C 0.18245 0.26812 0.70014
 C78 C 0.20050 0.29193 0.68470
 C79 C 0.28153 0.26497 0.70506
 C80 C 0.29944 0.28612 0.72459
 C81 C 0.33231 0.28457 0.72397
 C82 C 0.34659 0.26122 0.70212
 C83 C 0.32875 0.24005 0.68216
 C84 C 0.29627 0.24205 0.68421
 H85 H 0.24713 0.30926 0.67528
 H86 H 0.24045 0.22451 0.73421
 H87 H 0.28738 0.30414 0.73912
 H88 H 0.28229 0.22568 0.66938
 H89 H 0.15745 0.26925 0.69817
 H90 H 0.37157 0.25873 0.70143
 C91 C 0.73805 0.76994 0.75440
 C92 C 0.75252 0.75045 0.78179
 C93 C 0.73487 0.72950 0.80511
 C94 C 0.70221 0.72785 0.80224
 C95 C 0.68802 0.74767 0.77364
 C96 C 0.70568 0.76876 0.74899
 C97 C 0.78662 0.75142 0.78465
 C98 C 0.80110 0.77437 0.80498
 C99 C 0.83370 0.77582 0.80667
 C100 C 0.85165 0.75421 0.78661
 C101 C 0.83732 0.73127 0.76555
 C102 C 0.80470 0.72988 0.76540
 H103 H 0.75250 0.78647 0.73817
 H104 H 0.74725 0.71394 0.82432
 H105 H 0.78690 0.79120 0.81920
 H106 H 0.79321 0.71215 0.74994
 H107 H 0.66319 0.74665 0.77048
 H108 H 0.87678 0.75530 0.78725
 C109 C 0.71459 0.26933 0.20185
 C110 C 0.72920 0.24668 0.22356
 C111 C 0.71123 0.22411 0.24300
 C112 C 0.67864 0.22412 0.24113
 C113 C 0.66434 0.24683 0.21858
 C114 C 0.68217 0.26939 0.19844
 C115 C 0.76346 0.24566 0.22284
 C116 C 0.78086 0.26871 0.23857
 C117 C 0.81352 0.26863 0.23491
 C118 C 0.82852 0.24536 0.21473
 C119 C 0.81134 0.22231 0.19848
 C120 C 0.77878 0.22245 0.20330
 H121 H 0.72868 0.28663 0.18681
 H122 H 0.72275 0.20634 0.25896
 H123 H 0.76890 0.28687 0.25299
 H124 H 0.76522 0.20482 0.19090
 H125 H 0.63931 0.24677 0.21633
 H126 H 0.85366 0.24539 0.21117
 C127 C 0.21042 0.78018 0.25880
 C128 C 0.22831 0.75777 0.27518
 C129 C 0.21387 0.73358 0.29534
 C130 C 0.18120 0.73129 0.29939
 C131 C 0.16343 0.75423 0.28275
 C132 C 0.17765 0.77872 0.26189
 C133 C 0.26238 0.75890 0.26944
 C134 C 0.27992 0.77742 0.29406
 C135 C 0.31261 0.77747 0.29038
 C136 C 0.32746 0.75920 0.26028
 C137 C 0.30982 0.74094 0.23465
 C138 C 0.27729 0.74080 0.23994
 H139 H 0.22242 0.79893 0.24436
 H140 H 0.22846 0.71604 0.30594
 H141 H 0.26796 0.79159 0.31643
 H142 H 0.26341 0.72622 0.22153
 H143 H 0.13836 0.75282 0.28554
 H144 H 0.35261 0.75895 0.25711
 N145 N 1.08268 0.03854 0.03808
 N146 N 1.10134 0.06073 0.04408
 N147 N 1.06185 -0.02454 0.06369
 N148 N 1.06741 -0.04655 0.09008
 N149 N 1.08380 -0.02214 0.03331
 N150 N 1.10485 -0.04236 0.03804
 N151 N 1.06116 0.03626 0.06910
 N152 N 1.06490 0.05672 0.09758
 C153 C 1.09001 0.07189 0.08123
 C154 C 1.09429 -0.05757 0.07336
 N155 N 0.97418 -0.02446 0.03454
 N156 N 0.95316 -0.04526 0.04044
 N157 N 0.99421 0.03481 0.06988
 N158 N 0.98839 0.05406 0.09978
 N159 N 0.97341 0.03621 0.04021
 N160 N 0.95281 0.05642 0.04919
 N161 N 0.99477 -0.02585 0.06450
 N162 N 0.98818 -0.04766 0.09171
 Mn163 Mn 1.02797 0.00511 0.06736
 C164 C 0.96228 -0.05977 0.07596
 C165 C 0.96255 0.06746 0.08637
 N166 N 1.08559 -0.01739 -0.05836
 N167 N 1.10365 -0.04004 -0.06292
 N168 N 1.06478 0.04478 -0.08387
 N169 N 1.07232 0.06622 -0.11147
 N170 N 1.08509 0.04316 -0.05361
 N171 N 1.10677 0.06328 -0.05954
 N172 N 1.06542 -0.01608 -0.08885
 N173 N 1.06954 -0.03776 -0.11549
 Mn174 Mn 1.08452 0.01056 -0.01016
 C175 C 1.09355 -0.05241 -0.09875
 C176 C 1.09851 0.07772 -0.09544
 N177 N 0.97551 0.04141 -0.05238
 N178 N 0.95335 0.06029 -0.05924
 N179 N 0.99835 -0.01736 -0.08820
 N180 N 0.99504 -0.03785 -0.11666
 N181 N 0.97625 -0.01940 -0.05789
 N182 N 0.95735 -0.04134 -0.06488
 N183 N 0.99729 0.04332 -0.08320
 N184 N 0.99023 0.06337 -0.11209
 Mn185 Mn 0.97451 0.00846 -0.00889
 Mn186 Mn 1.03147 0.01375 -0.08663
 Cl187 Cl 1.02956 0.00951 -0.00961
 C188 C 0.96300 0.07412 -0.09625
 C189 C 0.96934 -0.05268 -0.10169
 N190 N 1.03431 0.52969 0.52045
 N191 N 1.05984 0.54455 0.52697
 N192 N 1.01023 0.47218 0.56406
 N193 N 1.01653 0.45451 0.59654
 N194 N 1.03097 0.46949 0.53234
 N195 N 1.05184 0.45005 0.54223
 N196 N 1.01394 0.53267 0.55265
 N197 N 1.02547 0.54970 0.58191
 C198 C 1.05392 0.55739 0.56484
 C199 C 1.04247 0.44065 0.58213
 N200 N 0.92169 0.47310 0.54035
 N201 N 0.89875 0.45582 0.55460
 N202 N 0.94657 0.53533 0.55694
 N203 N 0.94240 0.55792 0.58173
 N204 N 0.92464 0.53381 0.52890
 N205 N 0.90506 0.55545 0.53375
 N206 N 0.94303 0.47512 0.56918
 N207 N 0.93483 0.45969 0.60413
 Mn208 Mn 0.97840 0.50387 0.56112
 C209 C 0.90750 0.44734 0.59413
 C210 C 0.91652 0.57043 0.56666
 N211 N 1.02967 0.46292 0.44151
 N212 N 1.05018 0.44218 0.43737
 N213 N 1.01130 0.52230 0.40093
 N214 N 1.01533 0.54362 0.37208
 N215 N 1.03289 0.52326 0.42941
 N216 N 1.05227 0.54503 0.42075
 N217 N 1.00890 0.46136 0.41193
 N218 N 1.01515 0.43933 0.38635
 Mn219 Mn 1.03203 0.49632 0.48080
 C220 C 1.04090 0.42736 0.40325
 C221 C 1.04121 0.55748 0.38481
 N222 N 0.92333 0.52710 0.43711
 N223 N 0.90440 0.54865 0.42902
 N224 N 0.94138 0.46389 0.41692
 N225 N 0.93428 0.44176 0.39285
 N226 N 0.92051 0.46661 0.44854
 N227 N 0.89876 0.44638 0.44692
 N228 N 0.94449 0.52473 0.40580
 N229 N 0.94074 0.54500 0.37575
 Mn230 Mn 0.92223 0.50013 0.48873
 Mn231 Mn 0.97648 0.49299 0.40823
 Cl232 Cl 0.97724 0.49831 0.48476
 C233 C 0.91557 0.55972 0.39080
 C234 C 0.90771 0.43091 0.41217
 N235 N 0.56547 0.01796 0.56884
 N236 N 0.58612 0.03756 0.57931
 N237 N 0.54021 -0.04359 0.59189
 N238 N 0.54221 -0.06566 0.61912
 N239 N 0.56397 -0.04287 0.56408
 N240 N 0.58304 -0.06455 0.57209
 N241 N 0.54176 0.01719 0.59675
 N242 N 0.54560 0.03642 0.62696
 C243 C 0.57335 0.04905 0.61545
 C244 C 0.56889 -0.07873 0.60646
 N245 N 0.45509 -0.04139 0.55502
 N246 N 0.43510 -0.06328 0.55748
 N247 N 0.47521 0.01793 0.59178
 N248 N 0.47137 0.03945 0.61855
 N249 N 0.45555 0.01976 0.56073
 N250 N 0.43786 0.04287 0.56549
 N251 N 0.47414 -0.04283 0.58680
 N252 N 0.46766 -0.06575 0.61183
 Mn253 Mn 0.50777 -0.01277 0.59221
 C254 C 0.44330 -0.07838 0.59302
 C255 C 0.44791 0.05483 0.60198
 N256 N 0.57018 -0.03735 0.47129
 N257 N 0.59018 -0.05839 0.46483
 N258 N 0.55221 0.02595 0.44540
 N259 N 0.55986 0.04816 0.41956
 N260 N 0.57184 0.02351 0.47651
 N261 N 0.59327 0.04422 0.47272
 N262 N 0.55173 -0.03467 0.43883
 N263 N 0.55913 -0.05370 0.40899
 Mn264 Mn 0.56823 -0.00976 0.52013
 C265 C 0.58300 -0.06849 0.42600
 C266 C 0.58542 0.05952 0.43712
 N267 N 0.46160 0.02446 0.46881
 N268 N 0.44037 0.04409 0.46177
 N269 N 0.48473 -0.03396 0.43389
 N270 N 0.48152 -0.05289 0.40318
 N271 N 0.46144 -0.03616 0.46245
 N272 N 0.44178 -0.05675 0.45189
 N273 N 0.48482 0.02695 0.44019
 N274 N 0.47970 0.04863 0.41266
 Mn275 Mn 0.45809 -0.00843 0.51176
 Mn276 Mn 0.51843 -0.00381 0.43902
 Cl277 Cl 0.51316 -0.00868 0.51568
 C278 C 0.45186 0.05926 0.42702
 C279 C 0.45471 -0.06709 0.41488
 N280 N 0.53787 0.52952 0.04987
 N281 N 0.55946 0.54904 0.05756
 N282 N 0.51288 0.46789 0.07738
 N283 N 0.51649 0.44596 0.10443
 N284 N 0.53499 0.46847 0.04704
 N285 N 0.55432 0.44670 0.05274
 N286 N 0.51658 0.52837 0.08130
 N287 N 0.52316 0.54690 0.11133
 C288 C 0.54979 0.55985 0.09592
 C289 C 0.54227 0.43275 0.08865
 N290 N 0.42473 0.47259 0.05308
 N291 N 0.40417 0.45126 0.05849
 N292 N 0.45027 0.53096 0.08539
 N293 N 0.44846 0.55130 0.11422
 N294 N 0.42856 0.53398 0.05729
 N295 N 0.41126 0.55685 0.06649
 N296 N 0.44615 0.47052 0.08178
 N297 N 0.44041 0.44812 0.10815
 Mn298 Mn 0.48145 0.49935 0.08176
 C299 C 0.41429 0.43621 0.09298
 C300 C 0.42412 0.56738 0.10230
 N301 N 0.53484 0.47237 -0.04536
 N302 N 0.55489 0.45184 -0.05475
 N303 N 0.51629 0.53488 -0.07160
 N304 N 0.52200 0.55659 -0.09917
 N305 N 0.53795 0.53337 -0.04312
 N306 N 0.55905 0.55411 -0.05073
 N307 N 0.51354 0.47409 -0.07434
 N308 N 0.51890 0.45494 -0.10468
 Mn309 Mn 0.53680 0.50098 0.00206
 C310 C 0.54458 0.44097 -0.09160
 C311 C 0.54867 0.56853 -0.08578
 N312 N 0.42814 0.53730 -0.03586
 N313 N 0.40757 0.55776 -0.04223
 N314 N 0.44606 0.47638 -0.07006
 N315 N 0.43974 0.45638 -0.09831
 N316 N 0.42436 0.47665 -0.03913
 N317 N 0.40277 0.45690 -0.04551
 N318 N 0.44940 0.53744 -0.06739
 N319 N 0.44396 0.55831 -0.09583
 Mn320 Mn 0.42606 0.50524 0.00891
 Mn321 Mn 0.48132 0.50564 -0.07136
 Cl322 Cl 0.48141 0.50281 0.00524
 C323 C 0.41793 0.57099 -0.07942
 C324 C 0.41266 0.44430 -0.08245
 C325 C 1.18849 0.17354 0.22256
 C326 C 1.16557 0.15658 0.20409
 C327 C 1.14758 0.13664 0.23013
 C328 C 1.15248 0.13443 0.27435
 C329 C 1.17606 0.15069 0.29216
 C330 C 1.19452 0.16996 0.26630
 C331 C 1.12612 0.11826 0.21128
 C332 C 1.12350 0.11859 0.16649
 C333 C 1.14130 0.13874 0.14055
 C334 C 1.16164 0.15806 0.15962
 C335 C 1.13967 0.13827 0.09571
 C336 C 1.12197 0.11702 0.07661
 C337 C 1.10488 0.09645 0.10200
 C338 C 1.10480 0.09795 0.14699
 H339 H 1.20296 0.18819 0.20248
 H340 H 1.13893 0.11931 0.29480
 H341 H 1.18039 0.14780 0.32603
 H342 H 1.11266 0.10271 0.23119
 H343 H 1.17559 0.17319 0.13962
 H344 H 1.15309 0.15356 0.07537
 H345 H 1.12213 0.11625 0.04182
 H346 H 1.09190 0.08190 0.16666
 C347 C 1.17137 0.64290 0.70383
 C348 C 1.14649 0.62967 0.68417
 C349 C 1.11579 0.63935 0.69263
 C350 C 1.11072 0.66250 0.72052
 C351 C 1.13593 0.67630 0.73884
 C352 C 1.16629 0.66647 0.73055
 C353 C 1.09094 0.62623 0.67217
 C354 C 1.09668 0.60438 0.64222
 C355 C 1.12762 0.59538 0.63332
 C356 C 1.15214 0.60763 0.65493
 C357 C 1.13376 0.57456 0.60229
 C358 C 1.10958 0.56284 0.57984
 C359 C 1.07870 0.57114 0.58868
 C360 C 1.07221 0.59173 0.62027
 H361 H 1.19496 0.63575 0.69688
 H362 H 1.08744 0.67039 0.72723
 H363 H 1.13184 0.69474 0.75918
 H364 H 1.06737 0.63352 0.67869
 H365 H 1.17578 0.60055 0.64810
 H366 H 1.15733 0.56754 0.59505
 H367 H 1.11508 0.54677 0.55592
 H368 H 1.04841 0.59827 0.62700
 C369 C 0.68399 0.15562 0.73388
 C370 C 0.66801 0.13599 0.70874
 C371 C 0.68480 0.11935 0.67818
 C372 C 0.71722 0.12229 0.67374
 C373 C 0.73297 0.14138 0.69955
 C374 C 0.71651 0.15819 0.72962
 C375 C 0.66901 0.09979 0.65289
 C376 C 0.63674 0.09606 0.65846
 C377 C 0.61993 0.11223 0.68951
 C378 C 0.63563 0.13239 0.71411
 C379 C 0.58775 0.10766 0.69574
 C380 C 0.57246 0.08706 0.67169
 C381 C 0.58902 0.07115 0.64056
 C382 C 0.62112 0.07596 0.63388
 H383 H 0.67130 0.16843 0.75740
 H384 H 0.73042 0.10964 0.65057
 H385 H 0.75805 0.14327 0.69578
 H386 H 0.68190 0.08714 0.62935
 H387 H 0.62277 0.14492 0.73782
 H388 H 0.57450 0.11977 0.71949
 H389 H 0.54766 0.08367 0.67724
 H390 H 0.63412 0.06357 0.61017
 C391 C 0.66894 0.66729 0.19541
 C392 C 0.64801 0.65165 0.17127
 C393 C 0.65153 0.65205 0.12585
 C394 C 0.67501 0.66924 0.10534
 C395 C 0.69556 0.68501 0.12967
 C396 C 0.69310 0.68357 0.17478
 C397 C 0.63202 0.63475 0.10180
 C398 C 0.60896 0.61722 0.12263
 C399 C 0.60454 0.61794 0.16791
 C400 C 0.62415 0.63508 0.19193
 C401 C 0.58094 0.60102 0.18855
 C402 C 0.56248 0.58285 0.16475
 C403 C 0.56760 0.58099 0.12005
 C404 C 0.59059 0.59854 0.09902
 H405 H 0.66688 0.66639 0.23027
 H406 H 0.67790 0.67000 0.07057
 H407 H 0.71417 0.69744 0.11335
 H408 H 0.63516 0.63453 0.06704
 H409 H 0.62120 0.63510 0.22673
 H410 H 0.57707 0.60150 0.22315
 H411 H 0.54481 0.56955 0.18156
 H412 H 0.59438 0.59744 0.06443
 C413 C 0.83327 -0.16730 0.17261
 C414 C 0.85530 -0.15063 0.14806
 C415 C 0.84783 -0.14004 0.10672
 C416 C 0.81884 -0.14674 0.09031
 C417 C 0.79689 -0.16275 0.11530
 C418 C 0.80384 -0.17279 0.15661
 C419 C 0.86890 -0.12199 0.08309
 C420 C 0.89697 -0.11363 0.10071
 C421 C 0.90482 -0.12458 0.14161
 C422 C 0.88409 -0.14335 0.16483
 C423 C 0.93283 -0.11577 0.15914
 C424 C 0.95219 -0.09534 0.13719
 C425 C 0.94395 -0.08363 0.09724
 C426 C 0.91670 -0.09350 0.07870
 H427 H 0.83838 -0.17485 0.20479
 H428 H 0.81278 -0.13879 0.05873
 H429 H 0.77415 -0.16680 0.10285
 H430 H 0.86294 -0.11356 0.05169
 H431 H 0.88985 -0.15142 0.19650
 H432 H 0.93933 -0.12403 0.19035
 H433 H 0.97317 -0.08815 0.15199
 H434 H 0.91020 -0.08473 0.04776
 C435 C 0.78639 0.34678 0.72426
 C436 C 0.80777 0.36151 0.69618
 C437 C 0.81470 0.35049 0.65491
 C438 C 0.80129 0.32420 0.64324
 C439 C 0.78148 0.30877 0.67231
 C440 C 0.77340 0.31996 0.71302
 C441 C 0.83534 0.36563 0.62629
 C442 C 0.85036 0.39088 0.63924
 C443 C 0.84484 0.40096 0.68145
 C444 C 0.82303 0.38661 0.70929
 C445 C 0.86137 0.42516 0.69518
 C446 C 0.88283 0.43952 0.66712
 C447 C 0.88731 0.43042 0.62465
 C448 C 0.87107 0.40611 0.61078
 H449 H 0.78149 0.35535 0.75596
 H450 H 0.80650 0.31533 0.61184
 H451 H 0.77156 0.28852 0.66213
 H452 H 0.84014 0.35749 0.59429
 H453 H 0.81836 0.39468 0.74136
 H454 H 0.85768 0.43299 0.72754
 H455 H 0.89513 0.45838 0.67810
 H456 H 0.87479 0.39898 0.57802
 C457 C 0.31812 -0.19406 0.67285
 C458 C 0.34105 -0.17744 0.65003
 C459 C 0.33589 -0.16785 0.60738
 C460 C 0.30856 -0.17613 0.58770
 C461 C 0.28549 -0.19185 0.61113
 C462 C 0.28983 -0.20023 0.65404
 C463 C 0.35710 -0.14868 0.58611
 C464 C 0.38275 -0.13808 0.60748
 C465 C 0.38860 -0.14850 0.64945
 C466 C 0.36797 -0.16851 0.67020
 C467 C 0.41419 -0.13766 0.67074
 C468 C 0.43278 -0.11556 0.65163
 C469 C 0.42615 -0.10406 0.61088
 C470 C 0.40170 -0.11609 0.58839
 H471 H 0.32114 -0.20012 0.70629
 H472 H 0.30427 -0.16904 0.55506
 H473 H 0.26357 -0.19626 0.59651
 H474 H 0.35270 -0.14077 0.55384
 H475 H 0.37199 -0.17589 0.70283
 H476 H 0.41918 -0.14555 0.70277
 H477 H 0.45172 -0.10680 0.66938
 H478 H 0.39660 -0.10753 0.55674
 C479 C 0.31707 0.32090 0.23403
 C480 C 0.33770 0.34183 0.21520
 C481 C 0.34916 0.36433 0.24051
 C482 C 0.33931 0.36595 0.28379
 C483 C 0.31708 0.34643 0.30134
 C484 C 0.30544 0.32376 0.27676
 C485 C 0.36911 0.38569 0.22175
 C486 C 0.37598 0.38610 0.17733
 C487 C 0.36363 0.36425 0.15158
 C488 C 0.34545 0.34170 0.17090
 C489 C 0.36870 0.36599 0.10674
 C490 C 0.38515 0.38952 0.08758
 C491 C 0.39786 0.41096 0.11307
 C492 C 0.39378 0.40884 0.15796
 H493 H 0.30784 0.30410 0.21417
 H494 H 0.34781 0.38309 0.30362
 H495 H 0.30924 0.34889 0.33458
 H496 H 0.37798 0.40282 0.24134
 H497 H 0.33609 0.32489 0.15116
 H498 H 0.35920 0.34961 0.08644
 H499 H 0.38814 0.39092 0.05286
 H500 H 0.40318 0.42567 0.17761
 C501 C 0.82735 0.16518 -0.19093
 C502 C 0.85128 0.15275 -0.16764
 C503 C 0.84839 0.15096 -0.12219
 C504 C 0.82234 0.16287 -0.10080
 C505 C 0.79885 0.17559 -0.12427
 C506 C 0.80094 0.17623 -0.16934
 C507 C 0.87117 0.13670 -0.09896
 C508 C 0.89680 0.12425 -0.12060
 C509 C 0.90047 0.12730 -0.16585
 C510 C 0.87766 0.14153 -0.18911
 C511 C 0.92648 0.11530 -0.18719
 C512 C 0.94787 0.09921 -0.16417
 C513 C 0.94342 0.09473 -0.11956
 C514 C 0.91828 0.10795 -0.09781
 H515 H 0.82898 0.16594 -0.22581
 H516 H 0.81988 0.16190 -0.06600
 H517 H 0.77855 0.18413 -0.10734
 H518 H 0.86857 0.13468 -0.06420
 H519 H 0.88007 0.14325 -0.22391
 H520 H 0.92982 0.11766 -0.22180
 H521 H 0.96713 0.08923 -0.18153
 H522 H 0.91489 0.10481 -0.06329
 C523 C 0.80734 0.67477 0.28121
 C524 C 0.82315 0.65388 0.30555
 C525 C 0.80590 0.63380 0.33226
 C526 C 0.77342 0.63433 0.33345
 C527 C 0.75797 0.65370 0.30710
 C528 C 0.77455 0.67410 0.28042
 C529 C 0.82125 0.61273 0.35625
 C530 C 0.85360 0.61020 0.35201
 C531 C 0.87101 0.62945 0.32423
 C532 C 0.85575 0.65173 0.30204
 C533 C 0.90325 0.62554 0.31842
 C534 C 0.91791 0.60259 0.33954
 C535 C 0.90070 0.58383 0.36777
 C536 C 0.86863 0.58800 0.37420
 H537 H 0.82058 0.68985 0.26026
 H538 H 0.75989 0.61907 0.35374
 H539 H 0.73277 0.65306 0.30829
 H540 H 0.80789 0.59756 0.37695
 H541 H 0.86908 0.66664 0.28091
 H542 H 0.91702 0.63993 0.29705
 H543 H 0.94272 0.59974 0.33431
 H544 H 0.85515 0.57333 0.39555
 C545 C 0.32473 0.16555 0.33781
 C546 C 0.34461 0.14553 0.35768
 C547 C 0.33156 0.12350 0.38540
 C548 C 0.29936 0.12127 0.39218
 C549 C 0.27990 0.13996 0.37066
 C550 C 0.29202 0.16226 0.34290
 C551 C 0.35071 0.10342 0.40530
 C552 C 0.38281 0.10399 0.39653
 C553 C 0.39628 0.12523 0.36799
 C554 C 0.37711 0.14632 0.34929
 C555 C 0.42854 0.12451 0.35839
 C556 C 0.44703 0.10291 0.37682
 C557 C 0.43358 0.08214 0.40578
 C558 C 0.40146 0.08304 0.41546
 H559 H 0.33461 0.18226 0.31619
 H560 H 0.28911 0.10455 0.41347
 H561 H 0.25506 0.13734 0.37682
 H562 H 0.34047 0.08677 0.42679
 H563 H 0.38733 0.16279 0.32753
 H564 H 0.43940 0.14047 0.33641
 H565 H 0.47176 0.10265 0.36892
 H566 H 0.39067 0.06696 0.43737
 C567 C 0.29447 0.66876 -0.19229
 C568 C 0.31353 0.65201 -0.16590
 C569 C 0.29980 0.63463 -0.13211
 C570 C 0.26752 0.63397 -0.12543
 C571 C 0.24873 0.64947 -0.15289
 C572 C 0.26173 0.66689 -0.18705
 C573 C 0.31840 0.61735 -0.10631
 C574 C 0.35048 0.61597 -0.11511
 C575 C 0.36441 0.63287 -0.14925
 C576 C 0.34592 0.65134 -0.17386
 C577 C 0.39641 0.63023 -0.15895
 C578 C 0.41412 0.61038 -0.13590
 C579 C 0.40028 0.59349 -0.10209
 C580 C 0.36858 0.59692 -0.09130
 H581 H 0.30514 0.68146 -0.21874
 H582 H 0.25668 0.62087 -0.09952
 H583 H 0.22382 0.64830 -0.14647
 H584 H 0.30772 0.60406 -0.08043
 H585 H 0.35655 0.66429 -0.20012
 H586 H 0.40753 0.64293 -0.18506
 H587 H 0.43857 0.60807 -0.14468
 H588 H 0.35761 0.58376 -0.06553
 C589 C 1.18359 -0.17387 -0.22260
 C590 C 1.16389 -0.15213 -0.20744
 C591 C 1.15160 -0.13177 -0.23667
 C592 C 1.15925 -0.13373 -0.28078
 C593 C 1.17944 -0.15525 -0.29557
 C594 C 1.19180 -0.17539 -0.26655
 C595 C 1.13270 -0.10936 -0.22114
 C596 C 1.12695 -0.10656 -0.17669
 C597 C 1.13940 -0.12703 -0.14765
 C598 C 1.15725 -0.14995 -0.16327
 C599 C 1.13482 -0.12366 -0.10327
 C600 C 1.11917 -0.09958 -0.08763
 C601 C 1.10704 -0.07899 -0.11608
 C602 C 1.11016 -0.08292 -0.16060
 H603 H 1.19350 -0.18903 -0.19994
 H604 H 1.15010 -0.11832 -0.30369
 H605 H 1.18542 -0.15620 -0.32966
 H606 H 1.12342 -0.09359 -0.24345
 H607 H 1.16691 -0.16549 -0.14092
 H608 H 1.14423 -0.13913 -0.08065
 H609 H 1.11682 -0.09684 -0.05316
 H610 H 1.10108 -0.06681 -0.18254
 C611 C 1.17523 0.32195 0.33111
 C612 C 1.15148 0.33834 0.35097
 C613 C 1.15545 0.34869 0.39289
 C614 C 1.18273 0.34242 0.41428
 C615 C 1.20644 0.32682 0.39386
 C616 C 1.20296 0.31667 0.35223
 C617 C 1.13261 0.36601 0.41232
 C618 C 1.10630 0.37403 0.38995
 C619 C 1.10195 0.36365 0.34825
 C620 C 1.12442 0.34546 0.32919
 C621 C 1.07569 0.37249 0.32601
 C622 C 1.05478 0.39242 0.34422
 C623 C 1.05968 0.40348 0.38507
 C624 C 1.08500 0.39338 0.40815
 H625 H 1.17276 0.31433 0.29871
 H626 H 1.18608 0.35026 0.44634
 H627 H 1.22776 0.32292 0.41033
 H628 H 1.13588 0.37416 0.44428
 H629 H 1.12137 0.33768 0.29699
 H630 H 1.07188 0.36471 0.29405
 H631 H 1.03542 0.39984 0.32587
 H632 H 1.08896 0.40153 0.43990
 C633 C 0.69464 -0.16704 0.28711
 C634 C 0.67180 -0.14882 0.30492
 C635 C 0.65869 -0.12691 0.27900
 C636 C 0.66869 -0.12367 0.23568
 C637 C 0.69185 -0.14155 0.21843
 C638 C 0.70511 -0.16329 0.24398
 C639 C 0.63639 -0.10821 0.29704
 C640 C 0.62777 -0.11054 0.34100
 C641 C 0.64106 -0.13240 0.36687
 C642 C 0.66254 -0.15168 0.34853
 C643 C 0.63345 -0.13405 0.41106
 C644 C 0.61383 -0.11359 0.42983
 C645 C 0.60071 -0.09165 0.40461
 C646 C 0.60708 -0.09063 0.35997
 H647 H 0.70498 -0.18357 0.30714
 H648 H 0.65893 -0.10702 0.21531
 H649 H 0.69936 -0.13849 0.18498
 H650 H 0.62646 -0.09133 0.27718
 H651 H 0.67276 -0.16833 0.36849
 H652 H 0.64345 -0.15061 0.43135
 H653 H 0.60917 -0.11467 0.46431
 H654 H 0.59735 -0.07345 0.34052
 C655 C 0.66599 0.33345 -0.19394
 C656 C 0.64422 0.34919 -0.16944
 C657 C 0.64620 0.34959 -0.12418
 C658 C 0.66910 0.33327 -0.10415
 C659 C 0.69038 0.31728 -0.12880
 C660 C 0.68930 0.31773 -0.17378
 C661 C 0.62565 0.36668 -0.09979
 C662 C 0.60307 0.38325 -0.12005
 C663 C 0.60019 0.38187 -0.16506
 C664 C 0.62085 0.36488 -0.18951
 C665 C 0.57711 0.39806 -0.18495
 C666 C 0.55790 0.41636 -0.16072
 C667 C 0.56169 0.41892 -0.11638
 C668 C 0.58386 0.40180 -0.09610
 H669 H 0.66501 0.33350 -0.22872
 H670 H 0.67079 0.33317 -0.06949
 H671 H 0.70823 0.30517 -0.11292
 H672 H 0.62759 0.36749 -0.06519
 H673 H 0.61909 0.36428 -0.22415
 H674 H 0.57439 0.39707 -0.21935
 H675 H 0.54091 0.42936 -0.17693
 H676 H 0.58668 0.40344 -0.06176
 C677 C 1.18662 0.20370 -0.22803
 C678 C 1.16734 0.18167 -0.20967
 C679 C 1.13864 0.17515 -0.22788
 C680 C 1.12965 0.19095 -0.26413
 C681 C 1.14860 0.21331 -0.28172
 C682 C 1.17740 0.22023 -0.26394
 C683 C 1.11929 0.15318 -0.20932
 C684 C 1.12808 0.13802 -0.17221
 C685 C 1.15666 0.14496 -0.15374
 C686 C 1.17615 0.16651 -0.17272
 C687 C 1.16533 0.13029 -0.11638
 C688 C 1.14602 0.10881 -0.09748
 C689 C 1.11773 0.10136 -0.11569
 C690 C 1.10879 0.11612 -0.15311
 H691 H 1.20796 0.20892 -0.21249
 H692 H 1.10784 0.18613 -0.27879
 H693 H 1.14092 0.22444 -0.31029
 H694 H 1.09732 0.14810 -0.22345
 H695 H 1.19808 0.17166 -0.15849
 H696 H 1.18707 0.13541 -0.10174
 H697 H 1.15348 0.09781 -0.06863
 H698 H 1.08699 0.11058 -0.16731
 C699 C 1.13765 0.69608 0.30518
 C700 C 1.12389 0.67072 0.32333
 C701 C 1.13895 0.65535 0.35612
 C702 C 1.16752 0.66539 0.37000
 C703 C 1.18133 0.69034 0.35139
 C704 C 1.16673 0.70621 0.31866
 C705 C 1.12536 0.63006 0.37439
 C706 C 1.09703 0.61970 0.35991
 C707 C 1.08202 0.63475 0.32672
 C708 C 1.09550 0.66029 0.30873
 C709 C 1.05380 0.62394 0.31219
 C710 C 1.04052 0.59854 0.33060
 C711 C 1.05523 0.58371 0.36388
 C712 C 1.08353 0.59441 0.37823
 H713 H 1.12626 0.70687 0.27898
 H714 H 1.17925 0.65393 0.39533
 H715 H 1.20302 0.69766 0.36405
 H716 H 1.13690 0.61836 0.39972
 H717 H 1.08397 0.67195 0.28336
 H718 H 1.04198 0.63516 0.28672
 H719 H 1.01863 0.59068 0.31915
 H720 H 1.09514 0.58306 0.40381
 C721 C 0.66690 0.18859 0.30239
 C722 C 0.64906 0.16580 0.32173
 C723 C 0.62351 0.15438 0.30022
 C724 C 0.61629 0.16588 0.25981
 C725 C 0.63420 0.18845 0.24075
 C726 C 0.65965 0.20010 0.26174
 C727 C 0.60567 0.13157 0.31929
 C728 C 0.61314 0.11985 0.35953
 C729 C 0.63868 0.13122 0.38109
 C730 C 0.65642 0.15419 0.36213
 C731 C 0.64618 0.11925 0.42116
 C732 C 0.62873 0.09607 0.43952
 C733 C 0.60338 0.08456 0.41829
 C734 C 0.59560 0.09673 0.37836
 H735 H 0.68624 0.19757 0.31916
 H736 H 0.59688 0.15730 0.24280
 H737 H 0.62838 0.19652 0.20918
 H738 H 0.58609 0.12283 0.30271
 H739 H 0.67603 0.16289 0.37867
 H740 H 0.66567 0.12768 0.43816
 H741 H 0.63514 0.08710 0.47034
 H742 H 0.57612 0.08798 0.36162
 C743 C 0.65590 0.69545 -0.18658
 C744 C 0.63954 0.67346 -0.16272
 C745 C 0.65157 0.66233 -0.12423
 C746 C 0.67942 0.67366 -0.10985
 C747 C 0.69562 0.69537 -0.13365
 C748 C 0.68459 0.70654 -0.17290
 C749 C 0.63575 0.63988 -0.10088
 C750 C 0.60803 0.62821 -0.11567
 C751 C 0.59578 0.63956 -0.15398
 C752 C 0.61155 0.66208 -0.17720
 C753 C 0.56804 0.62802 -0.16870
 C754 C 0.55274 0.60523 -0.14608
 C755 C 0.56484 0.59341 -0.10829
 C756 C 0.59248 0.60519 -0.09305
 H757 H 0.64680 0.70255 -0.21691
 H758 H 0.68877 0.66572 -0.08004
 H759 H 0.71644 0.70391 -0.12006
 H760 H 0.64520 0.63131 -0.07146
 H761 H 0.60217 0.67057 -0.20671
 H762 H 0.55825 0.63649 -0.19790
 H763 H 0.53148 0.59666 -0.15851
 H764 H 0.60199 0.59634 -0.06389
 C765 C 0.87578 -0.18621 -0.18851
 C766 C 0.88957 -0.16303 -0.16744
 C767 C 0.87624 -0.15360 -0.12793
 C768 C 0.84956 -0.16761 -0.11006
 C769 C 0.83597 -0.19057 -0.13125
 C770 C 0.84879 -0.20006 -0.17072
 C771 C 0.88967 -0.13024 -0.10702
 C772 C 0.91621 -0.11605 -0.12518
 C773 C 0.92967 -0.12556 -0.16455
 C774 C 0.91629 -0.14900 -0.18540
 C775 C 0.95623 -0.11134 -0.18252
 C776 C 0.96920 -0.08776 -0.16192
 C777 C 0.95586 -0.07797 -0.12299
 C778 C 0.92940 -0.09236 -0.10468
 H779 H 0.88571 -0.19308 -0.21915
 H780 H 0.83912 -0.16076 -0.07972
 H781 H 0.81549 -0.20112 -0.11651
 H782 H 0.87935 -0.12299 -0.07679
 H783 H 0.92657 -0.15621 -0.21568
 H784 H 0.96690 -0.11835 -0.21262
 H785 H 0.98962 -0.07709 -0.17662
 H786 H 0.91896 -0.08505 -0.07458
 C787 C 0.82452 0.30462 0.29181
 C788 C 0.84262 0.32707 0.30796
 C789 C 0.86855 0.33818 0.28325
 C790 C 0.87585 0.32673 0.24279
 C791 C 0.85779 0.30435 0.22703
 C792 C 0.83207 0.29298 0.25138
 C793 C 0.88678 0.36051 0.29934
 C794 C 0.87939 0.37196 0.33982
 C795 C 0.85341 0.36089 0.36450
 C796 C 0.83525 0.33849 0.34847
 C797 C 0.84594 0.37255 0.40478
 C798 C 0.86381 0.39514 0.42032
 C799 C 0.88960 0.40636 0.39604
 C800 C 0.89741 0.39450 0.35588
 H801 H 0.80492 0.29582 0.31104
 H802 H 0.89555 0.33506 0.22333
 H803 H 0.86382 0.29605 0.19554
 H804 H 0.90666 0.36901 0.28034
 H805 H 0.81535 0.33001 0.36745
 H806 H 0.82613 0.36433 0.42413
 H807 H 0.85736 0.40390 0.45140
 H808 H 0.91720 0.40307 0.33683
 C809 C 0.35702 -0.18793 0.30240
 C810 C 0.37247 -0.16843 0.32859
 C811 C 0.36157 -0.16467 0.37160
 C812 C 0.33603 -0.18102 0.38805
 C813 C 0.32083 -0.20030 0.36189
 C814 C 0.33072 -0.20362 0.31861
 C815 C 0.37606 -0.14438 0.39734
 C816 C 0.40137 -0.12771 0.38068
 C817 C 0.41280 -0.13196 0.33803
 C818 C 0.39828 -0.15224 0.31226
 C819 C 0.43841 -0.11559 0.32170
 C820 C 0.45227 -0.09489 0.34707
 C821 C 0.44064 -0.08997 0.38911
 C822 C 0.41527 -0.10665 0.40586
 H823 H 0.36482 -0.19015 0.26909
 H824 H 0.32757 -0.17866 0.42106
 H825 H 0.30111 -0.21258 0.37555
 H826 H 0.36740 -0.14132 0.43014
 H827 H 0.40684 -0.15519 0.27939
 H828 H 0.44759 -0.11863 0.28919
 H829 H 0.47183 -0.08237 0.33346
 H830 H 0.40627 -0.10318 0.43837
 C831 C 0.33793 0.32095 -0.21952
 C832 C 0.35551 0.34210 -0.19921
 C833 C 0.38603 0.34886 -0.21483
 C834 C 0.39862 0.33396 -0.25007
 C835 C 0.38116 0.31270 -0.26988
 C836 C 0.35033 0.30587 -0.25536
 C837 C 0.40346 0.37036 -0.19497
 C838 C 0.39080 0.38497 -0.15929
 C839 C 0.36044 0.37772 -0.14319
 C840 C 0.34299 0.35646 -0.16329
 C841 C 0.34793 0.39191 -0.10720
 C842 C 0.36516 0.41325 -0.08744
 C843 C 0.39518 0.42105 -0.10340
 C844 C 0.40794 0.40672 -0.13939
 H845 H 0.31499 0.31560 -0.20593
 H846 H 0.42198 0.33890 -0.26260
 H847 H 0.39168 0.30266 -0.29789
 H848 H 0.42682 0.37567 -0.20723
 H849 H 0.31963 0.35113 -0.15100
 H850 H 0.32475 0.38655 -0.09436
 H851 H 0.35479 0.42390 -0.05979
 H852 H 0.43114 0.41243 -0.15184
 C853 C 1.17072 -0.18368 0.20614
 C854 C 1.15285 -0.16218 0.18692
 C855 C 1.12338 -0.15525 0.20525
 C856 C 1.11210 -0.17036 0.24226
 C857 C 1.12981 -0.19215 0.26092
 C858 C 1.15956 -0.19910 0.24339
 C859 C 1.10569 -0.13342 0.18622
 C860 C 1.11707 -0.11869 0.14879
 C861 C 1.14635 -0.12613 0.13007
 C862 C 1.16406 -0.14773 0.14930
 C863 C 1.15761 -0.11173 0.09247
 C864 C 1.14027 -0.08981 0.07382
 C865 C 1.11142 -0.08181 0.09250
 C866 C 1.09977 -0.09652 0.12984
 H867 H 1.19275 -0.18922 0.19051
 H868 H 1.08958 -0.16528 0.25690
 H869 H 1.12050 -0.20262 0.29019
 H870 H 1.08316 -0.12791 0.20049
 H871 H 1.18660 -0.15323 0.13502
 H872 H 1.17993 -0.11727 0.07765
 H873 H 1.14970 -0.07884 0.04496
 H874 H 1.07747 -0.09055 0.14434
 C875 C 1.15704 0.32760 0.68205
 C876 C 1.14051 0.34902 0.66029
 C877 C 1.15251 0.36041 0.62037
 C878 C 1.18110 0.35061 0.60338
 C879 C 1.19723 0.32902 0.62504
 C880 C 1.18512 0.31697 0.66414
 C881 C 1.13549 0.38098 0.59769
 C882 C 1.10654 0.39018 0.61429
 C883 C 1.09469 0.37917 0.65450
 C884 C 1.11183 0.35870 0.67735
 C885 C 1.06575 0.38865 0.67090
 C886 C 1.04861 0.40873 0.64752
 C887 C 1.06012 0.41948 0.60736
 C888 C 1.08915 0.41012 0.59104
 H889 H 1.14777 0.31879 0.71257
 H890 H 1.19063 0.35915 0.57284
 H891 H 1.21866 0.32101 0.61044
 H892 H 1.14457 0.38954 0.56688
 H893 H 1.10266 0.35001 0.70803
 H894 H 1.05633 0.38048 0.70170
 H895 H 1.02631 0.41572 0.66070
 H896 H 1.09834 0.41839 0.56015
 C897 C 0.66048 -0.20256 0.72595
 C898 C 0.64768 -0.18156 0.69850
 C899 C 0.66591 -0.16934 0.66380
 C900 C 0.69638 -0.17879 0.65648
 C901 C 0.70905 -0.19948 0.68390
 C902 C 0.69170 -0.21145 0.71980
 C903 C 0.65362 -0.14755 0.63733
 C904 C 0.62332 -0.13753 0.64545
 C905 C 0.60490 -0.15011 0.67982
 C906 C 0.61710 -0.17207 0.70593
 C907 C 0.57468 -0.14015 0.68809
 C908 C 0.56306 -0.11743 0.66341
 C909 C 0.58129 -0.10420 0.62977
 C910 C 0.61133 -0.11470 0.62043
 H911 H 0.64641 -0.21044 0.75345
 H912 H 0.71057 -0.17004 0.62958
 H913 H 0.73241 -0.20654 0.67580
 H914 H 0.66784 -0.13805 0.61098
 H915 H 0.60297 -0.18141 0.73250
 H916 H 0.56018 -0.14961 0.71413
 H917 H 0.53976 -0.10994 0.67115
 H918 H 0.62558 -0.10470 0.59456
 C919 C 0.63876 0.30450 0.18760
 C920 C 0.62474 0.32668 0.16390
 C921 C 0.63931 0.33740 0.12510
 C922 C 0.66747 0.32541 0.11040
 C923 C 0.68121 0.30323 0.13408
 C924 C 0.66715 0.29267 0.17305
 C925 C 0.62560 0.36000 0.10182
 C926 C 0.59751 0.37206 0.11693
 C927 C 0.58281 0.36098 0.15548
 C928 C 0.59649 0.33842 0.17865
 C929 C 0.55474 0.37284 0.17056
 C930 C 0.54154 0.39580 0.14817
 C931 C 0.55611 0.40742 0.11026
 C932 C 0.58401 0.39523 0.09448
 H933 H 0.62782 0.29683 0.21778
 H934 H 0.67889 0.33318 0.08061
 H935 H 0.70277 0.29414 0.12162
 H936 H 0.63690 0.36835 0.07222
 H937 H 0.58525 0.33014 0.20834
 H938 H 0.54313 0.36455 0.19992
 H939 H 0.51998 0.40470 0.16097
 H940 H 0.59538 0.40399 0.06522
 C941 C 0.85520 0.18726 0.18958
 C942 C 0.87102 0.16586 0.16635
 C943 C 0.85872 0.15563 0.12798
 C944 C 0.83079 0.16695 0.11359
 C945 C 0.81528 0.18836 0.13680
 C946 C 0.82735 0.19879 0.17489
 C947 C 0.87457 0.13437 0.10452
 C948 C 0.90258 0.12319 0.11896
 C949 C 0.91486 0.13340 0.15736
 C950 C 0.89900 0.15465 0.18082
 C951 C 0.94283 0.12213 0.17170
 C952 C 0.95842 0.10082 0.14839
 C953 C 0.94635 0.09046 0.11031
 C954 C 0.91845 0.10185 0.09566
 H955 H 0.86452 0.19489 0.21918
 H956 H 0.82109 0.15943 0.08419
 H957 H 0.79412 0.19720 0.12442
 H958 H 0.86514 0.12656 0.07507
 H959 H 0.90844 0.16248 0.21025
 H960 H 0.95259 0.12972 0.20102
 H961 H 0.97992 0.09237 0.16026
 H962 H 0.90895 0.09398 0.06631
 C963 C 0.84724 0.69862 0.70322
 C964 C 0.86391 0.67652 0.68273
 C965 C 0.89018 0.66461 0.70214
 C966 C 0.89947 0.67526 0.74154
 C967 C 0.88258 0.69716 0.76191
 C968 C 0.85614 0.70887 0.74320
 C969 C 0.90646 0.64202 0.68213
 C970 C 0.89653 0.63098 0.64324
 C971 C 0.87035 0.64308 0.62375
 C972 C 0.85436 0.66589 0.64346
 C973 C 0.86029 0.63186 0.58515
 C974 C 0.87561 0.60848 0.56637
 C975 C 0.90141 0.59606 0.58565
 C976 C 0.91201 0.60767 0.62387
 H977 H 0.82725 0.70783 0.68804
 H978 H 0.91954 0.66639 0.75690
 H979 H 0.88979 0.70448 0.79282
 H980 H 0.92652 0.63276 0.69713
 H981 H 0.83418 0.67503 0.62860
 H982 H 0.84032 0.64091 0.56976
 H983 H 0.86709 0.59998 0.53686
 H984 H 0.93188 0.59821 0.63904
 C985 C 0.36723 0.19938 0.67869
 C986 C 0.37940 0.17464 0.65877
 C987 C 0.36812 0.16598 0.61891
 C988 C 0.34519 0.18246 0.59937
 C989 C 0.33303 0.20686 0.61954
 C990 C 0.34362 0.21540 0.65956
 C991 C 0.37960 0.14082 0.59951
 C992 C 0.40213 0.12405 0.61958
 C993 C 0.41360 0.13291 0.65925
 C994 C 0.40224 0.15812 0.67851
 C995 C 0.43616 0.11627 0.67924
 C996 C 0.44716 0.09101 0.66036
 C997 C 0.43580 0.08177 0.62116
 C998 C 0.41328 0.09848 0.60080
 H999 H 0.37535 0.20558 0.70973
 H1000 H 0.33636 0.17627 0.56874
 H1001 H 0.31513 0.21905 0.60391
 H1002 H 0.37078 0.13415 0.56907
 H1003 H 0.41096 0.16472 0.70906
 H1004 H 0.44526 0.12275 0.70957
 H1005 H 0.46458 0.07861 0.67667
 H1006 H 0.40447 0.09164 0.57046
 C1007 C 0.34952 0.70325 0.21623
 C1008 C 0.36075 0.68130 0.18935
 C1009 C 0.34745 0.67699 0.14911
 C1010 C 0.32368 0.69533 0.13597
 C1011 C 0.31240 0.71691 0.16310
 C1012 C 0.32476 0.72072 0.20380
 C1013 C 0.35759 0.65406 0.12320
 C1014 C 0.38073 0.63521 0.13722
 C1015 C 0.39436 0.64003 0.17713
 C1016 C 0.38440 0.66301 0.20277
 C1017 C 0.41756 0.62153 0.19121
 C1018 C 0.42699 0.59823 0.16641
 C1019 C 0.41341 0.59274 0.12699
 C1020 C 0.39029 0.61145 0.11234
 H1021 H 0.35900 0.70579 0.24770
 H1022 H 0.31332 0.69255 0.10516
 H1023 H 0.29352 0.73034 0.15261
 H1024 H 0.34714 0.65060 0.09258
 H1025 H 0.39469 0.66633 0.23356
 H1026 H 0.42831 0.62496 0.22160
 H1027 H 0.44490 0.58427 0.17851
 H1028 H 0.37981 0.60754 0.08189
   
