data_POSCAR
  _audit_creation_date              2014-09-24
  _audit_creation_method            'ToBaCCo'
  _symmetry_space_group_name_H-M    'P1'
  _symmetry_Int_Tables_number       1
  _symmetry_cell_setting            triclinic
  loop_
  _symmetry_equiv_pos_as_xyz
 x,y,z
_cell_length_a 39.8044
_cell_length_b 39.5976
_cell_length_c 40.0836
_cell_angle_alpha 85.977900
_cell_angle_beta 92.542700
_cell_angle_gamma 88.386300
loop_
  _atom_site_label
  _atom_site_type_symbol
  _atom_site_fract_x
  _atom_site_fract_y
  _atom_site_fract_z
C1 C 0.26314 0.24962 0.22440
 C2 C 0.24332 0.27963 0.22418
 C3 C 0.21813 0.28300 0.24723
 C4 C 0.21221 0.25561 0.27024
 C5 C 0.23156 0.22539 0.27077
 C6 C 0.25672 0.22247 0.24742
 H7 H 0.24703 0.30043 0.20586
 H8 H 0.19227 0.25743 0.28759
 H9 H 0.27128 0.19906 0.24676
 C10 C 0.71113 -0.23699 0.23533
 C11 C 0.73834 -0.26088 0.23985
 C12 C 0.76134 -0.26065 0.26776
 C13 C 0.75650 -0.23632 0.29113
 C14 C 0.73025 -0.21185 0.28654
 C15 C 0.70760 -0.21264 0.25896
 H16 H 0.74151 -0.27955 0.22195
 H17 H 0.77342 -0.23640 0.31307
 H18 H 0.68716 -0.19380 0.25581
 C19 C 0.69609 0.23977 0.77878
 C20 C 0.69659 0.21355 0.75701
 C21 C 0.72101 0.21184 0.73302
 C22 C 0.74545 0.23676 0.73101
 C23 C 0.74573 0.26319 0.75281
 C24 C 0.72057 0.26471 0.77625
 H25 H 0.67775 0.19431 0.75870
 H26 H 0.76298 0.23662 0.71122
 H27 H 0.72114 0.28462 0.79340
 C28 C 0.25400 -0.28271 0.77910
 C29 C 0.23136 -0.30919 0.77868
 C30 C 0.20394 -0.30840 0.75522
 C31 C 0.19945 -0.28007 0.73186
 C32 C 0.22218 -0.25358 0.73146
 C33 C 0.24927 -0.25495 0.75536
 H34 H 0.23529 -0.33073 0.79685
 H35 H 0.17848 -0.27806 0.71373
 H36 H 0.26668 -0.23457 0.75539
 C37 C 0.72414 -0.27367 0.76601
 C38 C 0.74869 -0.29921 0.76275
 C39 C 0.77185 -0.29633 0.73711
 C40 C 0.76973 -0.26731 0.71466
 C41 C 0.74543 -0.24144 0.71776
 C42 C 0.72247 -0.24505 0.74316
 H43 H 0.74883 -0.32139 0.78004
 H44 H 0.78675 -0.26521 0.69433
 H45 H 0.70301 -0.22564 0.74457
 C46 C 0.29847 0.24252 0.75974
 C47 C 0.30235 0.22079 0.73396
 C48 C 0.27704 0.21880 0.70870
 C49 C 0.24772 0.23962 0.70900
 C50 C 0.24338 0.26126 0.73495
 C51 C 0.26868 0.26221 0.76027
 H52 H 0.32499 0.20491 0.73388
 H53 H 0.22822 0.23864 0.68953
 H54 H 0.26464 0.27796 0.78083
 C55 C 0.30471 -0.24465 0.22625
 C56 C 0.27688 -0.26579 0.22401
 C57 C 0.25260 -0.26668 0.24835
 C58 C 0.25596 -0.24571 0.27515
 C59 C 0.28320 -0.22399 0.27760
 C60 C 0.30739 -0.22385 0.25321
 H61 H 0.27327 -0.28141 0.20320
 H62 H 0.23743 -0.24613 0.29396
 H63 H 0.32846 -0.20720 0.25525
 C64 C 0.73413 0.28479 0.23128
 C65 C 0.73769 0.25957 0.25764
 C66 C 0.76836 0.25463 0.27644
 C67 C 0.79502 0.27592 0.26900
 C68 C 0.79127 0.30222 0.24353
 C69 C 0.76103 0.30588 0.22419
 H70 H 0.71688 0.24319 0.26231
 H71 H 0.81877 0.27181 0.28315
 H72 H 0.75799 0.32595 0.20436
 O73 O 0.27990 0.01675 0.46958
 O74 O 0.27902 -0.04613 0.54058
 O75 O 0.27731 -0.04875 0.47552
 O76 O 0.27597 0.02000 0.53392
 O77 O 0.22042 0.02059 0.53041
 O78 O 0.22173 -0.04670 0.47259
 O79 O 0.22346 -0.04558 0.53752
 O80 O 0.22433 0.01915 0.46577
 Cu81 Cu 0.28357 -0.01474 0.50535
 Cu82 Cu 0.21695 -0.01298 0.50128
 C83 C 0.25261 0.02872 0.45551
 C84 C 0.25146 -0.05680 0.55114
 C85 C 0.24942 -0.05915 0.46402
 C86 C 0.24764 0.03198 0.54190
 O87 O 0.73872 0.03683 0.53735
 O88 O 0.73916 -0.02283 0.47042
 O89 O 0.74501 -0.02850 0.53543
 O90 O 0.73063 0.04262 0.47217
 O91 O 0.78550 0.04784 0.46882
 O92 O 0.79997 -0.02374 0.53242
 O93 O 0.79408 -0.01749 0.46757
 O94 O 0.79363 0.04172 0.53387
 Cu95 Cu 0.73284 0.00659 0.50412
 Cu96 Cu 0.79879 0.01268 0.50033
 C97 C 0.76630 0.04926 0.54705
 C98 C 0.76692 -0.03045 0.45784
 C99 C 0.77482 -0.03834 0.54467
 C100 C 0.75551 0.05733 0.45967
 O101 O 0.46289 0.31505 0.04373
 O102 O 0.52586 0.31539 -0.02042
 O103 O 0.46076 0.31739 -0.02165
 O104 O 0.52854 0.31089 0.04463
 O105 O 0.52827 0.25511 0.04449
 O106 O 0.45980 0.26156 -0.02009
 O107 O 0.52449 0.25962 -0.02024
 O108 O 0.46199 0.25922 0.04548
 Cu109 Cu 0.49448 0.32026 0.01168
 Cu110 Cu 0.49338 0.25322 0.01285
 C111 C 0.45162 0.28729 0.05550
 C112 C 0.53568 0.28774 -0.03153
 C113 C 0.44926 0.29046 -0.03258
 C114 C 0.54046 0.28177 0.05514
 O115 O 0.53948 0.70843 0.01725
 O116 O 0.47013 0.71905 -0.04715
 O117 O 0.53576 0.72010 -0.04761
 O118 O 0.47407 0.70747 0.01753
 O119 O 0.47226 0.76253 0.02345
 O120 O 0.53365 0.77518 -0.04188
 O121 O 0.46816 0.77412 -0.04139
 O122 O 0.53728 0.76350 0.02304
 Cu123 Cu 0.50511 0.70824 -0.01566
 Cu124 Cu 0.50265 0.77437 -0.00871
 C125 C 0.55001 0.73415 0.03128
 C126 C 0.45719 0.74838 -0.05505
 C127 C 0.54528 0.74978 -0.05576
 C128 C 0.46278 0.73286 0.03166
 O129 O 0.04226 0.49743 0.30795
 O130 O -0.02722 0.56157 0.29293
 O131 O -0.02249 0.49605 0.30182
 O132 O 0.03815 0.56366 0.30306
 O133 O 0.04354 0.56216 0.24858
 O134 O -0.01841 0.49409 0.24718
 O135 O -0.02201 0.55988 0.23844
 O136 O 0.04664 0.49617 0.25332
 Cu137 Cu 0.00730 0.53009 0.30688
 Cu138 Cu 0.01293 0.52812 0.24139
 C139 C 0.05588 0.48552 0.28299
 C140 C -0.03670 0.57119 0.26295
 C141 C -0.03069 0.48339 0.27459
 C142 C 0.05149 0.57423 0.27635
 O143 O 0.01035 0.50075 0.69705
 O144 O -0.05062 0.43283 0.70711
 O145 O -0.05226 0.49787 0.71158
 O146 O 0.01285 0.43524 0.69185
 O147 O 0.02874 0.42857 0.74544
 O148 O -0.03820 0.48872 0.76545
 O149 O -0.03365 0.42339 0.76028
 O150 O 0.02475 0.49359 0.75099
 Cu151 Cu -0.02139 0.46731 0.69645
 Cu152 Cu -0.00306 0.45779 0.76093
 C153 C 0.02757 0.50906 0.72244
 C154 C -0.05238 0.41651 0.73539
 C155 C -0.05636 0.50386 0.74187
 C156 C 0.03210 0.42144 0.71535
 C157 C 0.29018 0.24557 0.20051
 C158 C 0.30704 0.27292 0.18597
 C159 C 0.33404 0.26896 0.16244
 N160 N 0.34975 0.29677 0.15012
 N161 N 0.37405 0.29400 0.12860
 C162 C 0.38363 0.26327 0.11854
 N163 N 0.36794 0.23538 0.13089
 N164 N 0.34359 0.23815 0.15246
 C165 C 0.41024 0.26018 0.09433
 C166 C 0.42612 0.28863 0.08087
 H167 H 0.30100 0.29835 0.19250
 H168 H 0.41699 0.23531 0.08660
 H169 H 0.29820 0.22011 0.19552
 H170 H 0.41907 0.31340 0.08864
 C171 C 0.68742 0.76417 0.20801
 C172 C 0.68530 0.74069 0.18348
 C173 C 0.65972 0.74473 0.15560
 N174 N 0.65483 0.71928 0.13507
 N175 N 0.63163 0.72264 0.10992
 C176 C 0.61258 0.75167 0.10428
 N177 N 0.61765 0.77718 0.12463
 N178 N 0.64073 0.77377 0.14983
 C179 C 0.58667 0.75597 0.07684
 C180 C 0.57712 0.72958 0.05754
 H181 H 0.70157 0.71833 0.18469
 H182 H 0.57396 0.78054 0.07243
 H183 H 0.66874 0.78477 0.20607
 H184 H 0.58898 0.70467 0.06251
 C185 C 0.67066 0.23925 -0.19525
 C186 C 0.66150 0.26736 -0.17814
 C187 C 0.63753 0.26528 -0.15119
 N188 N 0.62886 0.29358 -0.13598
 N189 N 0.60754 0.29212 -0.11127
 C190 C 0.59414 0.26225 -0.10076
 N191 N 0.60283 0.23393 -0.11595
 N192 N 0.62414 0.23540 -0.14070
 C193 C 0.57049 0.26030 -0.07352
 C194 C 0.56014 0.28896 -0.05795
 H195 H 0.67174 0.29183 -0.18463
 H196 H 0.56069 0.23585 -0.06588
 H197 H 0.65824 0.21564 -0.18970
 H198 H 0.56969 0.31344 -0.06588
 C199 C 0.28302 0.71423 -0.19619
 C200 C 0.30110 0.74170 -0.18591
 C201 C 0.33029 0.73734 -0.16190
 N202 N 0.34567 0.76493 -0.15096
 N203 N 0.37218 0.76141 -0.12934
 C204 C 0.38436 0.73012 -0.11793
 N205 N 0.36905 0.70254 -0.12895
 N206 N 0.34251 0.70606 -0.15052
 C207 C 0.41350 0.72569 -0.09390
 C208 C 0.42896 0.75301 -0.08010
 H209 H 0.29346 0.76726 -0.19493
 H210 H 0.42258 0.70012 -0.08638
 H211 H 0.28982 0.68918 -0.18487
 H212 H 0.41957 0.77857 -0.08714
 C213 C 0.19773 0.31499 0.24572
 C214 C 0.18141 0.32663 0.27305
 C215 C 0.16059 0.35813 0.27030
 N216 N 0.14621 0.36928 0.29776
 N217 N 0.12661 0.39729 0.29539
 C218 C 0.12069 0.41517 0.26542
 N219 N 0.13515 0.40407 0.23802
 N220 N 0.15475 0.37612 0.24040
 C221 C 0.09790 0.44521 0.26172
 C222 C 0.08205 0.45842 0.28853
 H223 H 0.18414 0.31268 0.29725
 H224 H 0.09248 0.45656 0.23661
 H225 H 0.19662 0.33065 0.22239
 H226 H 0.08783 0.44778 0.31384
 C227 C 0.18226 0.66401 0.75631
 C228 C 0.15601 0.65916 0.73286
 C229 C 0.13438 0.62961 0.73601
 N230 N 0.11206 0.62363 0.71069
 N231 N 0.09222 0.59709 0.71321
 C232 C 0.09391 0.57560 0.74122
 N233 N 0.11613 0.58166 0.76659
 N234 N 0.13604 0.60812 0.76403
 C235 C 0.07184 0.54647 0.74468
 C236 C 0.05066 0.53726 0.71842
 H237 H 0.15135 0.67635 0.71093
 H238 H 0.07234 0.53189 0.76860
 H239 H 0.18673 0.64449 0.77650
 H240 H 0.05080 0.55121 0.69419
 C241 C -0.21089 0.71645 0.27358
 C242 C -0.19951 0.69361 0.25114
 C243 C -0.16934 0.67157 0.25915
 N244 N -0.15535 0.65453 0.23477
 N245 N -0.12784 0.63485 0.24154
 C246 C -0.11334 0.63136 0.27298
 N247 N -0.12749 0.64818 0.29742
 N248 N -0.15491 0.66799 0.29062
 C249 C -0.08313 0.60940 0.28084
 C250 C -0.06545 0.59514 0.25581
 H251 H -0.21132 0.69269 0.22646
 H252 H -0.07471 0.60434 0.30682
 H253 H -0.19618 0.71747 0.29690
 H254 H -0.07338 0.60110 0.22981
 C255 C -0.23013 0.28849 0.75133
 C256 C -0.19927 0.28500 0.73638
 C257 C -0.17562 0.31276 0.73400
 N258 N -0.14201 0.30577 0.73525
 N259 N -0.12030 0.33069 0.73229
 C260 C -0.13147 0.36345 0.72738
 N261 N -0.16511 0.37042 0.72568
 N262 N -0.18682 0.34553 0.72918
 C263 C -0.10772 0.39096 0.72313
 C264 C -0.07611 0.38903 0.73954
 H265 H -0.19075 0.26071 0.72859
 H266 H -0.11592 0.41395 0.70842
 H267 H -0.23469 0.31127 0.76419
 H268 H -0.06955 0.36797 0.75759
 C269 C 0.22452 0.19735 0.29573
 C270 C 0.24862 0.17256 0.30739
 C271 C 0.24229 0.14613 0.33383
 N272 N 0.26800 0.12505 0.34612
 N273 N 0.26323 0.10140 0.37056
 C274 C 0.23253 0.09780 0.38366
 N275 N 0.20666 0.11870 0.37117
 N276 N 0.21146 0.14248 0.34672
 C277 C 0.22758 0.07212 0.41135
 C278 C 0.25497 0.05378 0.42701
 H279 H 0.27377 0.17332 0.29825
 H280 H 0.20252 0.06838 0.42012
 H281 H 0.20025 0.19756 0.30696
 H282 H 0.28000 0.05859 0.41859
 C283 C 0.71933 0.18476 0.70933
 C284 C 0.74710 0.17377 0.69249
 C285 C 0.74465 0.14915 0.66676
 N286 N 0.77266 0.13997 0.65115
 N287 N 0.77095 0.11847 0.62710
 C288 C 0.74113 0.10534 0.61768
 N289 N 0.71307 0.11443 0.63335
 N290 N 0.71478 0.13598 0.65744
 C291 C 0.73901 0.08186 0.59081
 C292 C 0.76733 0.07268 0.57388
 H293 H 0.77169 0.18352 0.69804
 H294 H 0.71480 0.07174 0.58420
 H295 H 0.69547 0.17281 0.70535
 H296 H 0.79148 0.08284 0.58064
 C297 C 0.21667 -0.22476 0.70585
 C298 C 0.24253 -0.20438 0.69468
 C299 C 0.23727 -0.17673 0.66830
 N300 N 0.26406 -0.15920 0.65780
 N301 N 0.26020 -0.13439 0.63366
 C302 C 0.22936 -0.12605 0.61903
 N303 N 0.20246 -0.14348 0.62962
 N304 N 0.20633 -0.16838 0.65382
 C305 C 0.22527 -0.09902 0.59174
 C306 C 0.25313 -0.08254 0.57944
 H307 H 0.26806 -0.20946 0.70448
 H308 H 0.20037 -0.09269 0.58069
 H309 H 0.19174 -0.22068 0.69402
 H310 H 0.27793 -0.08949 0.59043
 C311 C 0.72583 -0.18533 0.31037
 C312 C 0.75300 -0.17219 0.32782
 C313 C 0.74911 -0.14552 0.35119
 N314 N 0.77691 -0.13181 0.36476
 N315 N 0.77413 -0.10786 0.38626
 C316 C 0.74342 -0.09673 0.39509
 N317 N 0.71555 -0.11048 0.38157
 N318 N 0.71833 -0.13442 0.35996
 C319 C 0.74028 -0.07069 0.41935
 C320 C 0.76847 -0.05487 0.43199
 H321 H 0.77836 -0.18090 0.32351
 H322 H 0.71555 -0.06417 0.42764
 H323 H 0.70084 -0.17439 0.31261
 H324 H 0.79305 -0.06107 0.42311
 C325 C 0.69971 0.72159 -0.20736
 C326 C 0.68230 0.74838 -0.19432
 C327 C 0.65737 0.74292 -0.16863
 N328 N 0.64225 0.76992 -0.15577
 N329 N 0.61938 0.76546 -0.13272
 C330 C 0.61072 0.73379 -0.12175
 N331 N 0.62581 0.70678 -0.13464
 N332 N 0.64872 0.71125 -0.15766
 C333 C 0.58547 0.72841 -0.09638
 C334 C 0.57013 0.75522 -0.08147
 H335 H 0.68729 0.77427 -0.20258
 H336 H 0.57906 0.70262 -0.08906
 H337 H 0.69611 0.69603 -0.19689
 H338 H 0.57682 0.78101 -0.08845
 C339 C 0.32478 0.24265 -0.21300
 C340 C 0.32937 0.27028 -0.19366
 C341 C 0.35254 0.26878 -0.16399
 N342 N 0.35711 0.29691 -0.14705
 N343 N 0.37723 0.29575 -0.11950
 C344 C 0.39335 0.26632 -0.10781
 N345 N 0.38874 0.23819 -0.12473
 N346 N 0.36869 0.23937 -0.15231
 C347 C 0.41576 0.26444 -0.07759
 C348 C 0.42410 0.29287 -0.06067
 H349 H 0.31539 0.29384 -0.20013
 H350 H 0.42710 0.23995 -0.06919
 H351 H 0.34110 0.22032 -0.20813
 H352 H 0.41365 0.31761 -0.06946
 C353 C 0.32956 0.75717 0.20229
 C354 C 0.33256 0.73543 0.17644
 C355 C 0.35804 0.74004 0.15118
 N356 N 0.36334 0.71569 0.12965
 N357 N 0.38596 0.71968 0.10630
 C358 C 0.40398 0.74828 0.10351
 N359 N 0.39857 0.77270 0.12493
 N360 N 0.37605 0.76865 0.14838
 C361 C 0.42868 0.75331 0.07759
 C362 C 0.43832 0.72752 0.05775
 H363 H 0.31690 0.71375 0.17468
 H364 H 0.43993 0.77786 0.07440
 H365 H 0.34822 0.77644 0.20435
 H366 H 0.42819 0.70254 0.06180
 C367 C 0.70194 0.28923 0.21167
 C368 C 0.70090 0.29305 0.17688
 C369 C 0.66895 0.29588 0.15711
 N370 N 0.66677 0.28311 0.12661
 N371 N 0.63788 0.28535 0.10843
 C372 C 0.61027 0.30090 0.11987
 N373 N 0.61257 0.31421 0.15014
 N374 N 0.64136 0.31149 0.16859
 C375 C 0.57860 0.30377 0.09955
 C376 C 0.56969 0.27843 0.07884
 H377 H 0.72406 0.29125 0.16380
 H378 H 0.56181 0.32548 0.10148
 H379 H 0.67872 0.28640 0.22457
 H380 H 0.58481 0.25515 0.07995
 C381 C -0.20349 0.67845 0.73235
 C382 C -0.19576 0.64997 0.75432
 C383 C -0.17047 0.62415 0.74669
 N384 N -0.15921 0.60024 0.77081
 N385 N -0.13638 0.57667 0.76420
 C386 C -0.12414 0.57604 0.73314
 N387 N -0.13560 0.59977 0.70897
 N388 N -0.15829 0.62343 0.71562
 C389 C -0.09896 0.55028 0.72532
 C390 C -0.08229 0.52871 0.75003
 H391 H -0.20717 0.64656 0.77821
 H392 H -0.09260 0.54904 0.69942
 H393 H -0.18880 0.68165 0.71027
 H394 H -0.08748 0.53086 0.77611
 C395 C -0.18183 0.32656 0.23710
 C396 C -0.15954 0.33556 0.26256
 C397 C -0.13517 0.36244 0.25782
 N398 N -0.11796 0.37290 0.28493
 N399 N -0.09638 0.39782 0.28163
 C400 C -0.09107 0.41322 0.25107
 N401 N -0.10803 0.40254 0.22381
 N402 N -0.12978 0.37763 0.22713
 C403 C -0.06762 0.44123 0.24764
 C404 C -0.05446 0.45576 0.27586
 H405 H -0.16139 0.32421 0.28774
 H406 H -0.06121 0.45091 0.22286
 H407 H -0.18162 0.34008 0.21265
 H408 H -0.06207 0.44664 0.30042
 C409 C 0.21233 0.28207 0.73790
 C410 C 0.18966 0.29260 0.71138
 C411 C 0.16043 0.31497 0.71672
 N412 N 0.14041 0.32814 0.69040
 N413 N 0.11449 0.34907 0.69523
 C414 C 0.10768 0.35750 0.72658
 N415 N 0.12754 0.34415 0.75282
 N416 N 0.15339 0.32332 0.74799
 C417 C 0.07984 0.38103 0.73285
 C418 C 0.05869 0.39703 0.70755
 H419 H 0.19401 0.28580 0.68623
 H420 H 0.07631 0.38636 0.75863
 H421 H 0.20803 0.29108 0.76232
 H422 H 0.06185 0.39185 0.68168
 C423 C 0.22369 0.71083 0.24413
 C424 C 0.20265 0.70079 0.26972
 C425 C 0.17457 0.67803 0.26448
 N426 N 0.15537 0.66869 0.29046
 N427 N 0.13013 0.64778 0.28641
 C428 C 0.12307 0.63540 0.25621
 N429 N 0.14220 0.64483 0.23015
 N430 N 0.16747 0.66578 0.23420
 C431 C 0.09579 0.61147 0.25183
 C432 C 0.07670 0.60046 0.27856
 H433 H 0.20707 0.70881 0.29470
 H434 H 0.09146 0.60153 0.22757
 H435 H 0.21945 0.70081 0.21988
 H436 H 0.08137 0.61036 0.30280
 C437 C 0.74236 -0.21102 0.69407
 C438 C 0.76928 -0.19800 0.67663
 C439 C 0.76521 -0.16782 0.65307
 N440 N 0.79242 -0.15458 0.63834
 N441 N 0.78898 -0.12742 0.61671
 C442 C 0.75817 -0.11258 0.60902
 N443 N 0.73099 -0.12586 0.62372
 N444 N 0.73443 -0.15294 0.64536
 C445 C 0.75361 -0.08298 0.58486
 C446 C 0.78043 -0.06714 0.56970
 H447 H 0.79419 -0.20958 0.68078
 H448 H 0.72814 -0.07347 0.57873
 H449 H 0.71825 -0.19747 0.69141
 H450 H 0.80601 -0.07611 0.57611
 C451 C 0.28760 -0.20143 0.30542
 C452 C 0.26118 -0.19060 0.32421
 C453 C 0.26581 -0.16726 0.35093
 N454 N 0.23868 -0.15665 0.36708
 N455 N 0.24205 -0.13510 0.39094
 C456 C 0.27269 -0.12332 0.39966
 N457 N 0.29993 -0.13407 0.38364
 N458 N 0.29656 -0.15566 0.35970
 C459 C 0.27626 -0.09868 0.42543
 C460 C 0.24812 -0.08570 0.44025
 H461 H 0.23581 -0.19823 0.31860
 H462 H 0.30104 -0.08981 0.43193
 H463 H 0.31237 -0.19163 0.31018
 H464 H 0.22342 -0.09437 0.43311
 C465 C 0.77410 0.22704 0.30324
 C466 C 0.74840 0.20986 0.31906
 C467 C 0.75549 0.18224 0.34517
 N468 N 0.72967 0.16644 0.36002
 N469 N 0.73565 0.14123 0.38351
 C470 C 0.76769 0.13087 0.39304
 N471 N 0.79352 0.14669 0.37821
 N472 N 0.78754 0.17189 0.35470
 C473 C 0.77468 0.10293 0.41880
 C474 C 0.74894 0.08561 0.43428
 H475 H 0.72233 0.21687 0.31280
 H476 H 0.80068 0.09571 0.42554
 H477 H 0.79992 0.22055 0.31147
 H478 H 0.72295 0.09281 0.42745
 C479 C 0.28201 0.19434 0.68285
 C480 C 0.25544 0.18009 0.66545
 C481 C 0.26060 0.15332 0.64234
 N482 N 0.23350 0.13915 0.62792
 N483 N 0.23745 0.11436 0.60754
 C484 C 0.26867 0.10272 0.60075
 N485 N 0.29584 0.11699 0.61506
 N486 N 0.29189 0.14182 0.63551
 C487 C 0.27303 0.07499 0.57844
 C488 C 0.24527 0.05947 0.56453
 H489 H 0.22973 0.18727 0.67005
 H490 H 0.29824 0.06667 0.57302
 H491 H 0.30743 0.18521 0.67933
 H492 H 0.22020 0.06798 0.57024
   
