data_POSCAR
  _audit_creation_date              2014-09-24
  _audit_creation_method            'ToBaCCo'
  _symmetry_space_group_name_H-M    'P1'
  _symmetry_Int_Tables_number       1
  _symmetry_cell_setting            triclinic
  loop_
  _symmetry_equiv_pos_as_xyz
 x,y,z
_cell_length_a 60.1965
_cell_length_b 61.3498
_cell_length_c 58.5665
_cell_angle_alpha 92.090800
_cell_angle_beta 89.968500
_cell_angle_gamma 93.362800
loop_
  _atom_site_label
  _atom_site_type_symbol
  _atom_site_fract_x
  _atom_site_fract_y
  _atom_site_fract_z
C1 C 0.26317 0.45511 0.99587
 C2 C 0.24668 0.45431 1.01587
 C3 C 0.23524 0.47272 1.01914
 C4 C 0.24094 0.49017 1.00136
 C5 C 0.24862 0.45981 0.97532
 C6 C 0.23716 0.47826 0.97788
 C7 C 0.27772 0.47610 1.00034
 C8 C 0.26627 0.49443 1.00327
 H9 H 0.24367 0.44001 1.02597
 H10 H 0.23191 0.50529 1.00383
 H11 H 0.24641 0.44866 0.96065
 H12 H 0.29573 0.47634 1.00074
 C13 C 0.73667 0.54440 0.00345
 C14 C 0.75234 0.54145 0.02361
 C15 C 0.76380 0.52293 0.02204
 C16 C 0.75893 0.50921 -0.00021
 C17 C 0.75206 0.54363 -0.01745
 C18 C 0.76355 0.52514 -0.01970
 C19 C 0.72211 0.52314 0.00158
 C20 C 0.73356 0.50473 -0.00031
 H21 H 0.75478 0.55349 0.03748
 H22 H 0.76796 0.49401 -0.00161
 H23 H 0.75485 0.55720 -0.02857
 H24 H 0.70409 0.52286 0.00123
 C25 C 0.04179 0.23288 0.50150
 C26 C 0.04018 0.24702 0.48224
 C27 C 0.02008 0.25860 0.48143
 C28 C 0.00549 0.25386 0.50098
 C29 C 0.03904 0.24827 0.52253
 C30 C 0.02000 0.25924 0.52238
 C31 C 0.02047 0.21805 0.50068
 C32 C 0.00143 0.22885 0.50041
 H33 H 0.05431 0.25031 0.47125
 H34 H -0.01040 0.26192 0.50154
 H35 H 0.05193 0.25198 0.53517
 H36 H 0.02056 0.20041 0.50097
 C37 C 0.95835 0.76737 0.50023
 C38 C 0.95954 0.75029 0.48054
 C39 C 0.97873 0.73955 0.47986
 C40 C 0.99498 0.74666 0.49951
 C41 C 0.96199 0.75423 0.52161
 C42 C 0.98129 0.74356 0.52162
 C43 C 0.97950 0.78215 0.49805
 C44 C 0.99865 0.77151 0.49758
 H45 H 0.94585 0.74624 0.46888
 H46 H 1.01080 0.73834 0.49877
 H47 H 0.94939 0.75209 0.53462
 H48 H 0.97922 0.79976 0.49735
 C49 C 0.50503 0.04562 0.22822
 C50 C 0.48436 0.04319 0.24360
 C51 C 0.48330 0.02484 0.25617
 C52 C 0.50367 0.01090 0.25254
 C53 C 0.52448 0.04506 0.24506
 C54 C 0.52408 0.02681 0.25765
 C55 C 0.50525 0.02528 0.21486
 C56 C 0.50439 0.00598 0.22794
 H57 H 0.47241 0.05561 0.24551
 H58 H 0.50370 -0.00361 0.26312
 H59 H 0.53695 0.05838 0.24750
 H60 H 0.50392 0.02493 0.19642
 C61 C 0.49566 -0.04624 0.77064
 C62 C 0.47602 -0.04579 0.75402
 C63 C 0.47617 -0.02766 0.74125
 C64 C 0.49659 -0.01171 0.74587
 C65 C 0.51618 -0.04376 0.75511
 C66 C 0.51697 -0.02556 0.74236
 C67 C 0.49549 -0.02461 0.78450
 C68 C 0.49600 -0.00654 0.77170
 H69 H 0.46347 -0.05910 0.75208
 H70 H 0.49677 0.00316 0.73570
 H71 H 0.52824 -0.05605 0.75308
 H72 H 0.49572 -0.02379 0.80301
 C73 C 0.28634 0.00917 0.46972
 H74 H 0.28755 0.02131 0.48361
 C75 C 0.30143 0.01035 0.45168
 H76 H 0.31436 0.02340 0.45189
 C77 C 0.26841 -0.02299 0.45312
 H78 H 0.25569 -0.03611 0.45390
 C79 C 0.28322 -0.02247 0.43473
 H80 H 0.28148 -0.03504 0.42128
 N81 N 0.27008 -0.00715 0.47001
 C82 C 0.21874 0.01989 0.51331
 H83 H 0.21690 0.00757 0.52604
 C84 C 0.20549 0.03784 0.51436
 H85 H 0.19334 0.03914 0.52791
 C86 C 0.23630 0.03266 0.47972
 H87 H 0.24808 0.03045 0.46605
 C88 C 0.22338 0.05083 0.48010
 H89 H 0.22574 0.06266 0.46692
 Zn90 Zn 0.25092 -0.00732 0.49562
 N91 N 0.23394 0.01774 0.49631
 C92 C 0.26924 0.00859 0.53838
 N93 N 0.26927 -0.00753 0.52181
 C94 C 0.28341 -0.02395 0.52276
 C95 C 0.29804 -0.02484 0.54112
 C96 C 0.28365 0.00837 0.55706
 C97 C 0.21579 -0.03411 0.47690
 C98 C 0.19994 -0.05167 0.47559
 C99 C 0.21493 -0.06488 0.51040
 C100 C 0.23050 -0.04707 0.51104
 N101 N 0.23074 -0.03220 0.49435
 H102 H 0.25824 0.02178 0.53708
 H103 H 0.28339 -0.03631 0.50910
 H104 H 0.30936 -0.03791 0.54139
 H105 H 0.28327 0.02121 0.57021
 H106 H 0.21615 -0.02189 0.46403
 H107 H 0.18833 -0.05300 0.46143
 H108 H 0.21475 -0.07630 0.52407
 H109 H 0.24210 -0.04498 0.52512
 C110 C 0.20772 0.05363 0.49760
 C111 C 0.29995 -0.00557 0.43382
 C112 C 0.19932 -0.06732 0.49254
 C113 C 0.29830 -0.00853 0.55859
 C114 C 0.71677 0.02308 0.53226
 H115 H 0.71664 0.03596 0.52013
 C116 C 0.70161 0.02264 0.55032
 H117 H 0.68977 0.03523 0.55191
 C118 C 0.73166 -0.00959 0.54413
 H119 H 0.74306 -0.02237 0.54142
 C120 C 0.71679 -0.01066 0.56241
 H121 H 0.71730 -0.02407 0.57388
 N122 N 0.73143 0.00715 0.52953
 C123 C 0.78515 0.03491 0.48765
 H124 H 0.78538 0.02244 0.47412
 C125 C 0.80044 0.05290 0.48751
 H126 H 0.81256 0.05405 0.47387
 C127 C 0.76948 0.04805 0.52225
 H128 H 0.75754 0.04599 0.53588
 C129 C 0.78452 0.06631 0.52282
 H130 H 0.78374 0.07832 0.53675
 Zn131 Zn 0.75002 0.00786 0.50347
 N132 N 0.76992 0.03293 0.50470
 C133 C 0.73292 0.02479 0.46287
 N134 N 0.73110 0.00822 0.47770
 C135 C 0.71478 -0.00799 0.47531
 C136 C 0.69962 -0.00811 0.45726
 C137 C 0.71811 0.02531 0.44459
 C138 C 0.78257 -0.01890 0.51868
 C139 C 0.79575 -0.03688 0.51860
 C140 C 0.77772 -0.05034 0.48360
 C141 C 0.76486 -0.03210 0.48436
 N142 N 0.76728 -0.01699 0.50190
 H143 H 0.74567 0.03779 0.46532
 H144 H 0.71343 -0.02072 0.48762
 H145 H 0.68654 -0.02098 0.45588
 H146 H 0.71995 0.03854 0.43287
 H147 H 0.78443 -0.00644 0.53221
 H148 H 0.80789 -0.03804 0.53207
 H149 H 0.77526 -0.06239 0.46973
 H150 H 0.75296 -0.03009 0.47093
 C151 C 0.80022 0.06895 0.50523
 C152 C 0.70139 0.00551 0.56560
 C153 C 0.79334 -0.05297 0.50095
 C154 C 0.70113 0.00874 0.44165
 C155 C 0.49688 0.22195 1.00361
 H156 H 0.48411 0.21981 0.99059
 C157 C 0.49637 0.20835 1.02220
 H158 H 0.48322 0.19562 1.02328
 C159 C 0.52989 0.24080 1.01753
 H160 H 0.54307 0.25329 1.01554
 C161 C 0.53005 0.22754 1.03640
 H162 H 0.54318 0.23027 1.04899
 N163 N 0.51328 0.23800 1.00178
 C164 C 0.48397 0.28644 0.96018
 H165 H 0.49604 0.28785 0.94654
 C166 C 0.46552 0.29924 0.96044
 H167 H 0.46358 0.31062 0.94698
 C168 C 0.47232 0.27038 0.99470
 H169 H 0.47514 0.25937 1.00822
 C170 C 0.45368 0.28287 0.99566
 H171 H 0.44213 0.28094 1.00971
 Zn172 Zn 0.51248 0.25561 0.97595
 N173 N 0.48689 0.27218 0.97702
 C174 C 0.49467 0.23576 0.93470
 N175 N 0.51183 0.23647 0.94986
 C176 C 0.52830 0.22228 0.94782
 C177 C 0.52792 0.20654 0.92999
 C178 C 0.49363 0.22027 0.91660
 C179 C 0.53957 0.29092 0.99281
 C180 C 0.55780 0.30605 0.99382
 C181 C 0.57167 0.28954 0.95896
 C182 C 0.55317 0.27466 0.95865
 N183 N 0.53774 0.27545 0.97560
 H184 H 0.48149 0.24685 0.93687
 H185 H 0.54150 0.22292 0.96039
 H186 H 0.54087 0.19503 0.92905
 H187 H 0.47982 0.21992 0.90473
 H188 H 0.52684 0.29142 1.00584
 H189 H 0.55887 0.31831 1.00762
 H190 H 0.58397 0.28847 0.94554
 H191 H 0.55119 0.26252 0.94487
 C192 C 0.45007 0.29754 0.97837
 C193 C 0.51305 0.21113 1.03899
 C194 C 0.57422 0.30541 0.97681
 C195 C 0.51030 0.20525 0.91419
 C196 C 0.47041 0.77421 -0.00605
 H197 H 0.45793 0.77520 0.00718
 C198 C 0.46973 0.78756 -0.02479
 H199 H 0.45642 0.79859 -0.02603
 C200 C 0.50300 0.75865 -0.02031
 H201 H 0.51625 0.74776 -0.01824
 C202 C 0.50295 0.77171 -0.03934
 H203 H 0.51622 0.77068 -0.05176
 N204 N 0.48680 0.76004 -0.00420
 C205 C 0.45948 0.71129 0.04214
 H206 H 0.47204 0.71240 0.05539
 C207 C 0.44144 0.69600 0.04342
 H208 H 0.44007 0.68558 0.05795
 C209 C 0.44621 0.72342 0.00698
 H210 H 0.44841 0.73374 -0.00749
 C211 C 0.42793 0.70837 0.00757
 H212 H 0.41626 0.70729 -0.00654
 Zn213 Zn 0.48722 0.74379 0.02262
 N214 N 0.46150 0.72465 0.02415
 C215 C 0.47261 0.76458 0.06398
 N216 N 0.48851 0.76437 0.04747
 C217 C 0.50545 0.78001 0.04719
 C218 C 0.50694 0.79671 0.06400
 C219 C 0.47346 0.78103 0.08117
 C220 C 0.51338 0.71053 0.00615
 C221 C 0.53158 0.69744 0.00504
 C222 C 0.54697 0.71717 0.03839
 C223 C 0.52846 0.72989 0.03886
 N224 N 0.51231 0.72659 0.02266
 H225 H 0.45897 0.75232 0.06358
 H226 H 0.51769 0.77960 0.03367
 H227 H 0.52065 0.80893 0.06350
 H228 H 0.46042 0.78125 0.09389
 H229 H 0.50017 0.70810 -0.00636
 H230 H 0.53236 0.68509 -0.00857
 H231 H 0.55962 0.71998 0.05148
 H232 H 0.52704 0.74233 0.05222
 C233 C 0.42543 0.69430 0.02590
 C234 C 0.48621 0.78648 -0.04171
 C235 C 0.54876 0.70077 0.02124
 C236 C 0.49070 0.79750 0.08118
 C237 C 1.02453 0.47290 0.22042
 H238 H 1.01116 0.46033 0.21939
 C239 C 1.04243 0.47207 0.20534
 H240 H 1.04263 0.45882 0.19263
 C241 C 1.03988 0.50593 0.23771
 H242 H 1.03865 0.51926 0.25011
 C243 C 1.05810 0.50576 0.22290
 H244 H 1.07097 0.51883 0.22437
 N245 N 1.02364 0.48955 0.23630
 C246 C 0.97957 0.46305 0.28900
 H247 H 0.96693 0.47490 0.28947
 C248 C 0.97847 0.44593 0.30412
 H249 H 0.96471 0.44452 0.31599
 C250 C 1.01299 0.45074 0.27306
 H251 H 1.02673 0.45295 0.26136
 C252 C 1.01253 0.43338 0.28785
 H253 H 1.02599 0.42241 0.28729
 Zn254 Zn 0.99798 0.48960 0.25498
 N255 N 0.99659 0.46509 0.27380
 C256 C 0.95645 0.47314 0.23542
 N257 N 0.97322 0.48899 0.23503
 C258 C 0.97338 0.50499 0.21957
 C259 C 0.95592 0.50588 0.20408
 C260 C 0.93862 0.47337 0.22013
 C261 C 1.01478 0.51793 0.29048
 C262 C 1.01523 0.53596 0.30581
 C263 C 0.98181 0.54741 0.28813
 C264 C 0.98202 0.52921 0.27315
 N265 N 0.99843 0.51498 0.27446
 H266 H 0.95685 0.46030 0.24752
 H267 H 0.98714 0.51715 0.21938
 H268 H 0.95647 0.51871 0.19184
 H269 H 0.92523 0.46085 0.22089
 H270 H 1.02739 0.50613 0.29145
 H271 H 1.02821 0.53786 0.31863
 H272 H 0.96871 0.55864 0.28663
 H273 H 0.96886 0.52638 0.26069
 C274 C 0.99516 0.43084 0.30373
 C275 C 1.05953 0.48865 0.20644
 C276 C 0.99852 0.55095 0.30480
 C277 C 0.93815 0.49001 0.20430
 C278 C -0.02538 0.49425 0.78026
 H279 H -0.01326 0.48194 0.78080
 C280 C -0.04317 0.49382 0.79559
 H281 H -0.04454 0.48114 0.80798
 C282 C -0.03765 0.52627 0.76404
 H283 H -0.03526 0.53910 0.75198
 C284 C -0.05566 0.52648 0.77907
 H285 H -0.06723 0.53928 0.77806
 N286 N -0.02302 0.51023 0.76481
 C287 C 0.01766 0.48361 0.71006
 H288 H 0.03069 0.49649 0.70937
 C289 C 0.01790 0.46556 0.69487
 H290 H 0.03112 0.46475 0.68239
 C291 C -0.01575 0.46947 0.72681
 H292 H -0.02895 0.47116 0.73912
 C293 C -0.01618 0.45114 0.71191
 H294 H -0.02957 0.43867 0.71322
 Zn295 Zn 0.00230 0.51029 0.74560
 N296 N 0.00118 0.48511 0.72582
 C297 C 0.04181 0.49424 0.76346
 N298 N 0.02760 0.51068 0.76488
 C299 C 0.03024 0.52702 0.78115
 C300 C 0.04779 0.52729 0.79679
 C301 C 0.05956 0.49387 0.77873
 C302 C -0.01297 0.53577 0.71113
 C303 C -0.01294 0.55304 0.69628
 C304 C 0.02104 0.56818 0.71403
 C305 C 0.02037 0.55057 0.72856
 N306 N 0.00343 0.53490 0.72697
 H307 H 0.03920 0.48114 0.75076
 H308 H 0.01845 0.53966 0.78220
 H309 H 0.04932 0.54019 0.80991
 H310 H 0.07071 0.48068 0.77724
 H311 H -0.02610 0.52295 0.71006
 H312 H -0.02633 0.55356 0.68402
 H313 H 0.03479 0.58036 0.71535
 H314 H 0.03354 0.54933 0.74088
 C315 C 0.00087 0.44895 0.69574
 C316 C -0.05858 0.51013 0.79517
 C317 C 0.00425 0.56955 0.69758
 C318 C 0.06264 0.51045 0.79581
 C319 C 0.08980 0.19927 0.52114
 C320 C 0.09608 0.18921 0.50052
 C321 C 0.08558 0.19410 0.48021
 C322 C 0.06868 0.20878 0.48054
 C323 C 0.06218 0.21918 0.50117
 C324 C 0.07289 0.21397 0.52153
 C325 C 0.11219 0.17277 0.50039
 C326 C 0.12521 0.15856 0.50025
 C327 C 0.13998 0.14151 0.50000
 C328 C 0.15225 0.12667 0.49969
 C329 C 0.16657 0.10866 0.49918
 C330 C 0.17133 0.09803 0.47836
 C331 C 0.18477 0.08019 0.47783
 C332 C 0.19362 0.07272 0.49816
 C333 C 0.18879 0.08357 0.51900
 C334 C 0.17535 0.10142 0.51949
 H335 H 0.09751 0.19526 0.53704
 H336 H 0.09002 0.18611 0.46419
 H337 H 0.06022 0.21153 0.46468
 H338 H 0.06775 0.22044 0.53797
 H339 H 0.16451 0.10341 0.46255
 H340 H 0.18790 0.07201 0.46155
 H341 H 0.19557 0.07839 0.53490
 H342 H 0.17177 0.10953 0.53570
 C343 C 0.69965 0.59075 -0.01141
 C344 C 0.69079 0.59622 0.00997
 C345 C 0.69765 0.58573 0.02932
 C346 C 0.71309 0.56963 0.02728
 C347 C 0.72231 0.56400 0.00587
 C348 C 0.71510 0.57465 -0.01351
 C349 C 0.67345 0.61137 0.01182
 C350 C 0.65846 0.62353 0.01330
 C351 C 0.64047 0.63724 0.01494
 C352 C 0.62479 0.64857 0.01625
 C353 C 0.60576 0.66170 0.01769
 C354 C 0.60846 0.68406 0.02330
 C355 C 0.58993 0.69677 0.02456
 C356 C 0.56843 0.68725 0.02019
 C357 C 0.56591 0.66473 0.01463
 C358 C 0.58445 0.65207 0.01340
 H359 H 0.69408 0.59843 -0.02659
 H360 H 0.69055 0.58951 0.04590
 H361 H 0.71720 0.56107 0.04240
 H362 H 0.72062 0.57004 -0.03048
 H363 H 0.62489 0.69169 0.02661
 H364 H 0.59245 0.71410 0.02860
 H365 H 0.54957 0.65687 0.01148
 H366 H 0.58217 0.63475 0.00912
 C367 C 0.91174 -0.19816 0.47964
 C368 C 0.90385 -0.18937 0.50024
 C369 C 0.91281 -0.19544 0.52092
 C370 C 0.92978 -0.21004 0.52103
 C371 C 0.93783 -0.21920 0.50041
 C372 C 0.92871 -0.21276 0.47969
 C373 C 0.88775 -0.17292 0.50010
 C374 C 0.87476 -0.15869 0.50002
 C375 C 0.86006 -0.14160 0.49998
 C376 C 0.84786 -0.12669 0.50001
 C377 C 0.83368 -0.10859 0.50014
 C378 C 0.82482 -0.10073 0.52073
 C379 C 0.81162 -0.08272 0.52098
 C380 C 0.80710 -0.07231 0.50062
 C381 C 0.81596 -0.08044 0.47998
 C382 C 0.82918 -0.09845 0.47977
 H383 H 0.90526 -0.19321 0.46349
 H384 H 0.90716 -0.18837 0.53696
 H385 H 0.93711 -0.21343 0.53728
 H386 H 0.93520 -0.21839 0.46342
 H387 H 0.82820 -0.10846 0.53660
 H388 H 0.80480 -0.07705 0.53709
 H389 H 0.81303 -0.07263 0.46406
 H390 H 0.83606 -0.10432 0.46375
 C391 C 0.30183 0.41380 0.96905
 C392 C 0.30896 0.40330 0.98828
 C393 C 0.30044 0.40880 1.00980
 C394 C 0.28503 0.42492 1.01214
 C395 C 0.27750 0.43554 0.99289
 C396 C 0.28642 0.42992 0.97133
 C397 C 0.32620 0.38806 0.98618
 C398 C 0.34108 0.37578 0.98461
 C399 C 0.35891 0.36186 0.98303
 C400 C 0.37442 0.35031 0.98194
 C401 C 0.39321 0.33684 0.98097
 C402 C 0.40494 0.33321 1.00096
 C403 C 0.42342 0.32045 1.00011
 C404 C 0.43044 0.31112 0.97921
 C405 C 0.41853 0.31487 0.95919
 C406 C 0.40003 0.32764 0.96009
 H407 H 0.30869 0.41001 0.95236
 H408 H 0.30621 0.40111 1.02488
 H409 H 0.27969 0.42955 1.02918
 H410 H 0.28220 0.43849 0.95627
 H411 H 0.39988 0.34036 1.01720
 H412 H 0.43241 0.31814 1.01576
 H413 H 0.42336 0.30770 0.94290
 H414 H 0.39106 0.33035 0.94451
 C415 C 0.95513 0.18571 0.48773
 C416 C 0.93781 0.19343 0.50111
 C417 C 0.94094 0.21333 0.51352
 C418 C 0.96150 0.22524 0.51287
 C419 C 0.97914 0.21725 0.49992
 C420 C 0.97564 0.19751 0.48712
 C421 C 0.91733 0.18023 0.50270
 C422 C 0.90080 0.16825 0.50378
 C423 C 0.88212 0.15328 0.50472
 C424 C 0.86673 0.13983 0.50525
 C425 C 0.84897 0.12307 0.50556
 C426 C 0.84308 0.11312 0.52600
 C427 C 0.82694 0.09576 0.52599
 C428 C 0.81654 0.08808 0.50549
 C429 C 0.82231 0.09846 0.48510
 C430 C 0.83842 0.11582 0.48516
 H431 H 0.95289 0.17035 0.47803
 H432 H 0.92766 0.21941 0.52402
 H433 H 0.96381 0.24026 0.52310
 H434 H 0.98881 0.19112 0.47671
 H435 H 0.85126 0.11849 0.54186
 H436 H 0.82306 0.08795 0.54191
 H437 H 0.81439 0.09312 0.46910
 H438 H 0.84289 0.12337 0.46922
 C439 C 0.28139 0.55524 0.00146
 C440 C 0.30078 0.55706 0.01479
 C441 C 0.30822 0.53863 0.02513
 C442 C 0.29669 0.51837 0.02177
 C443 C 0.27753 0.51624 0.00797
 C444 C 0.26975 0.53492 -0.00187
 C445 C 0.31393 0.57738 0.01700
 C446 C 0.32598 0.59374 0.01887
 C447 C 0.34115 0.61212 0.02101
 C448 C 0.35489 0.62719 0.02274
 C449 C 0.37211 0.64446 0.02462
 C450 C 0.39322 0.63989 0.03250
 C451 C 0.41043 0.65619 0.03329
 C452 C 0.40678 0.67734 0.02618
 C453 C 0.38540 0.68188 0.01859
 C454 C 0.36818 0.66552 0.01781
 H455 H 0.27555 0.56939 -0.00672
 H456 H 0.32318 0.53984 0.03549
 H457 H 0.30286 0.50434 0.02989
 H458 H 0.25515 0.53370 -0.01273
 H459 H 0.39648 0.62360 0.03768
 H460 H 0.42675 0.65206 0.03888
 H461 H 0.38199 0.69806 0.01324
 H462 H 0.35190 0.66923 0.01167
 C463 C 0.04375 -0.18666 0.48055
 C464 C 0.06186 -0.19271 0.49333
 C465 C 0.05964 -0.21116 0.50674
 C466 C 0.03919 -0.22326 0.50769
 C467 C 0.02077 -0.21685 0.49539
 C468 C 0.02337 -0.19863 0.48154
 C469 C 0.08218 -0.17911 0.49341
 C470 C 0.09850 -0.16675 0.49328
 C471 C 0.11681 -0.15131 0.49294
 C472 C 0.13182 -0.13742 0.49257
 C473 C 0.14902 -0.12012 0.49206
 C474 C 0.17088 -0.12383 0.49831
 C475 C 0.18732 -0.10673 0.49829
 C476 C 0.18208 -0.08569 0.49201
 C477 C 0.16008 -0.08221 0.48561
 C478 C 0.14370 -0.09930 0.48564
 H479 H 0.04528 -0.17244 0.47010
 H480 H 0.07353 -0.21593 0.51679
 H481 H 0.03760 -0.23711 0.51864
 H482 H 0.00958 -0.19354 0.47156
 H483 H 0.17518 -0.13989 0.50328
 H484 H 0.20415 -0.10999 0.50306
 H485 H 0.15542 -0.06616 0.48103
 H486 H 0.12681 -0.09622 0.48087
 C487 C 0.71910 0.44596 0.98022
 C488 C 0.69912 0.44165 0.99195
 C489 C 0.69100 0.45762 1.00686
 C490 C 0.70247 0.47796 1.00972
 C491 C 0.72228 0.48265 0.99765
 C492 C 0.73069 0.46635 0.98312
 C493 C 0.68624 0.42133 0.98823
 C494 C 0.67442 0.40489 0.98556
 C495 C 0.65954 0.38632 0.98297
 C496 C 0.64608 0.37101 0.98123
 C497 C 0.62923 0.35339 0.97974
 C498 C 0.62178 0.34333 0.99962
 C499 C 0.60417 0.32745 0.99860
 C500 C 0.59371 0.32142 0.97765
 C501 C 0.60163 0.33128 0.95766
 C502 C 0.61924 0.34721 0.95873
 H503 H 0.72550 0.43372 0.96857
 H504 H 0.67559 0.45446 1.01607
 H505 H 0.69579 0.49005 1.02133
 H506 H 0.74579 0.46960 0.97346
 H507 H 0.62935 0.34803 1.01599
 H508 H 0.59867 0.31992 1.01423
 H509 H 0.59377 0.32716 0.94132
 H510 H 0.62475 0.35503 0.94325
 C511 C 0.48765 0.09029 1.18871
 C512 C 0.50825 0.09835 1.18059
 C513 C 0.52779 0.08985 1.18838
 C514 C 0.52674 0.07329 1.20417
 C515 C 0.50612 0.06522 1.21285
 C516 C 0.48654 0.07373 1.20451
 C517 C 0.50927 0.11440 1.16326
 C518 C 0.51004 0.12748 1.14839
 C519 C 0.51085 0.14242 1.13061
 C520 C 0.51142 0.15489 1.11517
 C521 C 0.51195 0.16946 1.09646
 C522 C 0.53215 0.17534 1.08584
 C523 C 0.53256 0.18900 1.06724
 C524 C 0.51273 0.19693 1.05898
 C525 C 0.49254 0.19103 1.06988
 C526 C 0.49217 0.17739 1.08849
 H527 H 0.47238 0.09642 1.18239
 H528 H 0.54382 0.09564 1.18183
 H529 H 0.54210 0.06641 1.20909
 H530 H 0.47027 0.06719 1.20951
 H531 H 0.54754 0.16920 1.09181
 H532 H 0.54832 0.19302 1.05904
 H533 H 0.47705 0.19711 1.06413
 H534 H 0.47645 0.17295 1.09659
 C535 C -0.01716 0.71833 0.58009
 C536 C -0.00356 0.70094 0.57582
 C537 C 0.00626 0.69828 0.55434
 C538 C 0.00195 0.71250 0.53697
 C539 C -0.01251 0.72951 0.54067
 C540 C -0.02150 0.73258 0.56274
 C541 C -0.00064 0.68515 0.59300
 C542 C 0.00130 0.67146 0.60701
 C543 C 0.00300 0.65493 0.62297
 C544 C 0.00401 0.64043 0.63623
 C545 C 0.00469 0.62269 0.65161
 C546 C -0.00127 0.60136 0.64370
 C547 C -0.00126 0.58408 0.65860
 C548 C 0.00471 0.58790 0.68169
 C549 C 0.01089 0.60939 0.68945
 C550 C 0.01084 0.62668 0.67450
 H551 H -0.02472 0.72068 0.59672
 H552 H 0.01690 0.68491 0.55085
 H553 H 0.00960 0.70961 0.52063
 H554 H -0.03201 0.74590 0.56673
 H555 H -0.00602 0.59808 0.62600
 H556 H -0.00576 0.56770 0.65200
 H557 H 0.01534 0.61289 0.70717
 H558 H 0.01541 0.64314 0.68083
 C559 C 0.51249 0.90775 -0.19116
 C560 C 0.49199 0.90107 -0.18170
 C561 C 0.47276 0.91109 -0.18800
 C562 C 0.47402 0.92772 -0.20370
 C563 C 0.49449 0.93438 -0.21375
 C564 C 0.51380 0.92439 -0.20688
 C565 C 0.49086 0.88481 -0.16460
 C566 C 0.48996 0.87153 -0.14991
 C567 C 0.48895 0.85640 -0.13233
 C568 C 0.48815 0.84382 -0.11699
 C569 C 0.48726 0.82923 -0.09829
 C570 C 0.49241 0.80741 -0.10175
 C571 C 0.49195 0.79342 -0.08340
 C572 C 0.48630 0.80113 -0.06134
 C573 C 0.48106 0.82307 -0.05809
 C574 C 0.48154 0.83701 -0.07644
 H575 H 0.52756 0.90043 -0.18600
 H576 H 0.45686 0.90634 -0.18044
 H577 H 0.45898 0.93568 -0.20765
 H578 H 0.53010 0.92974 -0.21293
 H579 H 0.49684 0.80122 -0.11861
 H580 H 0.49583 0.77656 -0.08649
 H581 H 0.47699 0.82959 -0.04127
 H582 H 0.47763 0.85390 -0.07356
 C583 C 0.99418 0.30243 0.44873
 C584 C 1.00795 0.30355 0.42959
 C585 C 1.02520 0.28943 0.42719
 C586 C 1.02896 0.27449 0.44403
 C587 C 1.01560 0.27337 0.46395
 C588 C 0.99782 0.28751 0.46563
 C589 C 1.00468 0.31948 0.41263
 C590 C 1.00225 0.33301 0.39855
 C591 C 0.99977 0.34905 0.38220
 C592 C 0.99799 0.36290 0.36833
 C593 C 0.99630 0.37963 0.35190
 C594 C 1.00204 0.37551 0.32906
 C595 C 1.00134 0.39204 0.31330
 C596 C 0.99490 0.41297 0.32020
 C597 C 0.98886 0.41685 0.34315
 C598 C 0.98958 0.40029 0.35888
 H599 H 0.98069 0.31329 0.45074
 H600 H 1.03585 0.28997 0.41228
 H601 H 1.04220 0.26368 0.44083
 H602 H 0.98672 0.28788 0.48002
 H603 H 1.00724 0.35957 0.32347
 H604 H 1.00582 0.38846 0.29571
 H605 H 0.98413 0.43284 0.34907
 H606 H 0.98521 0.40370 0.37654
 C607 C 0.50929 0.96041 0.18440
 C608 C 0.50040 0.94253 0.19613
 C609 C 0.49324 0.94544 0.21868
 C610 C 0.49477 0.96625 0.22941
 C611 C 0.50342 0.98463 0.21766
 C612 C 0.51080 0.98119 0.19497
 C613 C 0.49824 0.92144 0.18453
 C614 C 0.49664 0.90431 0.17373
 C615 C 0.49503 0.88497 0.15991
 C616 C 0.49392 0.86908 0.14716
 C617 C 0.49295 0.85091 0.13088
 C618 C 0.48698 0.82971 0.13762
 C619 C 0.48617 0.81226 0.12149
 C620 C 0.49140 0.81585 0.09845
 C621 C 0.49727 0.83726 0.09189
 C622 C 0.49805 0.85462 0.10799
 H623 H 0.51504 0.95831 0.16697
 H624 H 0.48614 0.93170 0.22786
 H625 H 0.48809 0.96777 0.24648
 H626 H 0.51836 0.99433 0.18530
 H627 H 0.48302 0.82666 0.15531
 H628 H 0.48177 0.79594 0.12708
 H629 H 0.50099 0.84063 0.07424
 H630 H 0.50258 0.87098 0.10256
 C631 C 0.01764 0.29022 0.57953
 C632 C 0.00783 0.30928 0.57336
 C633 C 0.00126 0.31162 0.55071
 C634 C 0.00480 0.29514 0.53421
 C635 C 0.01502 0.27612 0.54014
 C636 C 0.02121 0.27374 0.56304
 C637 C 0.00540 0.32682 0.59002
 C638 C 0.00382 0.34172 0.60381
 C639 C 0.00248 0.35939 0.61980
 C640 C 0.00175 0.37463 0.63331
 C641 C 0.00135 0.39300 0.64930
 C642 C -0.01872 0.40246 0.65458
 C643 C -0.01894 0.42058 0.66978
 C644 C 0.00095 0.42950 0.67986
 C645 C 0.02100 0.41978 0.67453
 C646 C 0.02118 0.40167 0.65936
 H647 H 0.02280 0.28823 0.59701
 H648 H -0.00621 0.32637 0.54570
 H649 H 0.00023 0.29768 0.51672
 H650 H 0.02889 0.25916 0.56819
 H651 H -0.03416 0.39593 0.64683
 H652 H -0.03459 0.42784 0.67333
 H653 H 0.03653 0.42606 0.68224
 H654 H 0.03680 0.39446 0.65543
 C655 C 0.51046 0.05398 0.78232
 C656 C 0.49884 0.05810 0.80259
 C657 C 0.48581 0.04126 0.81235
 C658 C 0.48463 0.02031 0.80213
 C659 C 0.49651 0.01590 0.78196
 C660 C 0.50927 0.03299 0.77202
 C661 C 0.50076 0.07931 0.81397
 C662 C 0.50223 0.09669 0.82430
 C663 C 0.50378 0.11654 0.83729
 C664 C 0.50493 0.13307 0.84909
 C665 C 0.50611 0.15226 0.86402
 C666 C 0.48686 0.15901 0.87491
 C667 C 0.48814 0.17658 0.89082
 C668 C 0.50875 0.18763 0.89609
 C669 C 0.52795 0.18102 0.88467
 C670 C 0.52662 0.16343 0.86876
 H671 H 0.52069 0.06688 0.77468
 H672 H 0.47673 0.04428 0.82802
 H673 H 0.47440 0.00757 0.81000
 H674 H 0.51882 0.03002 0.75667
 H675 H 0.47092 0.15037 0.87151
 H676 H 0.47312 0.18103 0.89954
 H677 H 0.54401 0.18936 0.88817
 H678 H 0.54164 0.15831 0.86046
 C679 C 0.99881 0.68814 0.45037
 C680 C 0.98992 0.68946 0.42845
 C681 C 0.97792 0.70745 0.42309
 C682 C 0.97456 0.72389 0.43969
 C683 C 0.98310 0.72253 0.46195
 C684 C 0.99548 0.70458 0.46698
 C685 C 0.99244 0.67198 0.41174
 C686 C 0.99419 0.65711 0.39794
 C687 C 0.99579 0.63947 0.38197
 C688 C 0.99675 0.62425 0.36846
 C689 C 0.99735 0.60592 0.35245
 C690 C 1.01760 0.59971 0.34325
 C691 C 1.01804 0.58181 0.32778
 C692 C 0.99820 0.56992 0.32129
 C693 C 0.97795 0.57629 0.33069
 C694 C 0.97755 0.59416 0.34615
 H695 H 1.00806 0.67425 0.45475
 H696 H 0.97099 0.70867 0.40615
 H697 H 0.96531 0.73768 0.43505
 H698 H 1.00210 0.70281 0.48384
 H699 H 1.03302 0.60871 0.34800
 H700 H 1.03385 0.57745 0.32066
 H701 H 0.96244 0.56728 0.32634
 H702 H 0.96180 0.59875 0.35324
 C703 C 1.20737 0.46764 0.07716
 C704 C 1.18921 0.48059 0.07479
 C705 C 1.18627 0.49129 0.05443
 C706 C 1.20129 0.48888 0.03641
 C707 C 1.21942 0.47563 0.03841
 C708 C 1.22239 0.46520 0.05916
 C709 C 1.17336 0.48256 0.09305
 C710 C 1.15987 0.48399 0.10818
 C711 C 1.14383 0.48540 0.12568
 C712 C 1.12989 0.48635 0.14041
 C713 C 1.11294 0.48716 0.15772
 C714 C 1.10387 0.50700 0.16396
 C715 C 1.08674 0.50758 0.18008
 C716 C 1.07842 0.48827 0.19013
 C717 C 1.08788 0.46846 0.18397
 C718 C 1.10501 0.46793 0.16787
 H719 H 1.20988 0.45936 0.09290
 H720 H 1.17226 0.50136 0.05239
 H721 H 1.19834 0.49714 0.02089
 H722 H 1.23644 0.45532 0.06165
 H723 H 1.10981 0.52197 0.15613
 H724 H 1.07962 0.52303 0.18425
 H725 H 1.08205 0.45338 0.19162
 H726 H 1.11193 0.45248 0.16319
 C727 C 0.55008 -0.00358 0.69197
 C728 C 0.57124 -0.01068 0.69647
 C729 C 0.57487 -0.02200 0.71629
 C730 C 0.55734 -0.02655 0.73135
 C731 C 0.53580 -0.01994 0.72674
 C732 C 0.53252 -0.00810 0.70703
 C733 C 0.58900 -0.00704 0.68036
 C734 C 0.60374 -0.00444 0.66662
 C735 C 0.62082 -0.00192 0.65025
 C736 C 0.63524 -0.00020 0.63604
 C737 C 0.65223 0.00132 0.61878
 C738 C 0.65808 -0.01756 0.60665
 C739 C 0.67419 -0.01621 0.58951
 C740 C 0.68470 0.00408 0.58424
 C741 C 0.67879 0.02297 0.59662
 C742 C 0.66265 0.02158 0.61379
 H743 H 0.54707 0.00519 0.67666
 H744 H 0.59123 -0.02749 0.72001
 H745 H 0.56072 -0.03517 0.74665
 H746 H 0.51636 -0.00271 0.70283
 H747 H 0.65004 -0.03331 0.61031
 H748 H 0.67810 -0.03099 0.58006
 H749 H 0.68674 0.03879 0.59313
 H750 H 0.65826 0.03629 0.62310
 C751 C -0.20890 0.52781 0.92191
 C752 C -0.19030 0.51561 0.92506
 C753 C -0.18721 0.50582 0.94592
 C754 C -0.20240 0.50854 0.96372
 C755 C -0.22085 0.52126 0.96101
 C756 C -0.22409 0.53056 0.93970
 C757 C -0.17401 0.51378 0.90718
 C758 C -0.16012 0.51262 0.89242
 C759 C -0.14359 0.51165 0.87536
 C760 C -0.12927 0.51112 0.86098
 C761 C -0.11192 0.51084 0.84406
 C762 C -0.10599 0.49104 0.83383
 C763 C -0.08876 0.49079 0.81780
 C764 C -0.07723 0.51037 0.81178
 C765 C -0.08344 0.53019 0.82206
 C766 C -0.10065 0.53040 0.83809
 H767 H -0.21154 0.53537 0.90578
 H768 H -0.17286 0.49633 0.94855
 H769 H -0.19925 0.50109 0.97967
 H770 H -0.23840 0.53996 0.93667
 H771 H -0.11462 0.47580 0.83830
 H772 H -0.08456 0.47530 0.80999
 H773 H -0.07469 0.54551 0.81807
 H774 H -0.10503 0.54581 0.84597
 C775 C 0.44943 0.00185 0.30563
 C776 C 0.42854 0.00974 0.30147
 C777 C 0.42530 0.02190 0.28215
 C778 C 0.44298 0.02651 0.26727
 C779 C 0.46428 0.01915 0.27157
 C780 C 0.46713 0.00643 0.29076
 C781 C 0.41068 0.00605 0.31747
 C782 C 0.39590 0.00341 0.33116
 C783 C 0.37883 0.00086 0.34752
 C784 C 0.36446 -0.00084 0.36179
 C785 C 0.34758 -0.00229 0.37916
 C786 C 0.33831 0.01673 0.38772
 C787 C 0.32261 0.01561 0.40527
 C788 C 0.31596 -0.00457 0.41454
 C789 C 0.32513 -0.02367 0.40560
 C790 C 0.34087 -0.02251 0.38804
 H791 H 0.45212 -0.00760 0.32055
 H792 H 0.40916 0.02800 0.27868
 H793 H 0.43985 0.03577 0.25235
 H794 H 0.48303 0.00034 0.29474
 H795 H 0.34336 0.03246 0.38095
 H796 H 0.31563 0.03055 0.41156
 H797 H 0.32053 -0.03941 0.41256
 H798 H 0.34802 -0.03732 0.38160
 C799 C 0.18826 0.50219 0.94857
 C800 C 0.19229 0.49661 0.92563
 C801 C 0.21153 0.48603 0.91965
 C802 C 0.22638 0.48057 0.93657
 C803 C 0.22214 0.48548 0.95981
 C804 C 0.20311 0.49675 0.96552
 C805 C 0.17616 0.50066 0.90838
 C806 C 0.16240 0.50338 0.89396
 C807 C 0.14604 0.50581 0.87713
 C808 C 0.13186 0.50726 0.86282
 C809 C 0.11471 0.50823 0.84582
 C810 C 0.10274 0.48904 0.83842
 C811 C 0.08590 0.48977 0.82211
 C812 C 0.08077 0.50975 0.81293
 C813 C 0.09291 0.52899 0.82046
 C814 C 0.10979 0.52821 0.83679
 H815 H 0.17339 0.51035 0.95341
 H816 H 0.21488 0.48170 0.90194
 H817 H 0.24113 0.47242 0.93141
 H818 H 0.19922 0.50083 0.98305
 H819 H 0.10634 0.47350 0.84537
 H820 H 0.07664 0.47473 0.81698
 H821 H 0.08951 0.54458 0.81355
 H822 H 0.11897 0.54317 0.84238
 C823 C 0.55340 0.00917 0.31074
 C824 C 0.57533 0.01690 0.30672
 C825 C 0.58063 0.02736 0.28643
 C826 C 0.56401 0.03033 0.27037
 C827 C 0.54182 0.02292 0.27440
 C828 C 0.53677 0.01212 0.29468
 C829 C 0.59225 0.01471 0.32370
 C830 C 0.60634 0.01323 0.33808
 C831 C 0.62273 0.01189 0.35509
 C832 C 0.63664 0.01106 0.36978
 C833 C 0.65311 0.01044 0.38751
 C834 C 0.66049 0.02975 0.39932
 C835 C 0.67620 0.02922 0.41681
 C836 C 0.68476 0.00933 0.42275
 C837 C 0.67730 -0.01000 0.41071
 C838 C 0.66158 -0.00943 0.39319
 H839 H 0.54910 0.00112 0.32644
 H840 H 0.59756 0.03336 0.28311
 H841 H 0.56858 0.03836 0.25475
 H842 H 0.51996 0.00643 0.29850
 H843 H 0.65397 0.04520 0.39511
 H844 H 0.68135 0.04432 0.42597
 H845 H 0.68376 -0.02552 0.41470
 H846 H 0.65600 -0.02447 0.38413
 C847 C 0.81254 0.49970 0.05232
 C848 C 0.80872 0.50630 0.07503
 C849 C 0.78990 0.51773 0.08054
 C850 C 0.77515 0.52285 0.06338
 C851 C 0.77907 0.51671 0.04037
 C852 C 0.79779 0.50480 0.03513
 C853 C 0.82453 0.50211 0.09254
 C854 C 0.83800 0.49914 0.10716
 C855 C 0.85403 0.49631 0.12421
 C856 C 0.86798 0.49449 0.13868
 C857 C 0.88493 0.49306 0.15579
 C858 C 0.89384 0.51213 0.16698
 C859 C 0.91091 0.51108 0.18297
 C860 C 0.91937 0.49089 0.18799
 C861 C 0.91008 0.47174 0.17693
 C862 C 0.89299 0.47284 0.16089
 H863 H 0.82709 0.49089 0.04784
 H864 H 0.78672 0.52286 0.09808
 H865 H 0.76064 0.53156 0.06820
 H866 H 0.80144 0.49983 0.01778
 H867 H 0.88770 0.52786 0.16321
 H868 H 0.91747 0.52607 0.19145
 H869 H 0.91639 0.45600 0.18027
 H870 H 0.88626 0.45798 0.15226
 C871 C 0.44556 -0.00913 0.68932
 C872 C 0.42386 -0.01750 0.69341
 C873 C 0.41912 -0.02870 0.71336
 C874 C 0.43606 -0.03179 0.72903
 C875 C 0.45806 -0.02377 0.72491
 C876 C 0.46251 -0.01218 0.70498
 C877 C 0.40663 -0.01514 0.67681
 C878 C 0.39232 -0.01351 0.66271
 C879 C 0.37572 -0.01197 0.64594
 C880 C 0.36169 -0.01097 0.63140
 C881 C 0.34517 -0.01016 0.61376
 C882 C 0.33382 -0.02945 0.60563
 C883 C 0.31837 -0.02888 0.58790
 C884 C 0.31408 -0.00899 0.57802
 C885 C 0.32537 0.01036 0.58651
 C886 C 0.34084 0.00975 0.60424
 H887 H 0.44943 -0.00046 0.67389
 H888 H 0.40236 -0.03519 0.71674
 H889 H 0.43185 -0.04035 0.74442
 H890 H 0.47912 -0.00588 0.70113
 H891 H 0.33703 -0.04495 0.61290
 H892 H 0.30973 -0.04401 0.58195
 H893 H 0.32263 0.02588 0.57907
 H894 H 0.34961 0.02477 0.61034
   
