data_POSCAR
  _audit_creation_date              2014-09-24
  _audit_creation_method            'ToBaCCo'
  _symmetry_space_group_name_H-M    'P1'
  _symmetry_Int_Tables_number       1
  _symmetry_cell_setting            triclinic
  loop_
  _symmetry_equiv_pos_as_xyz
 x,y,z
_cell_length_a 23.7652
_cell_length_b 23.1500
_cell_length_c 23.2795
_cell_angle_alpha 89.135400
_cell_angle_beta 89.883100
_cell_angle_gamma 89.870700
loop_
  _atom_site_label
  _atom_site_type_symbol
  _atom_site_fract_x
  _atom_site_fract_y
  _atom_site_fract_z
C1 C 0.16885 0.16333 0.24164
 C2 C 0.20761 0.13403 0.20692
 C3 C 0.24394 0.16592 0.17112
 C4 C 0.24354 0.22581 0.17164
 C5 C 0.20101 0.25463 0.19984
 C6 C 0.16511 0.22372 0.23741
 H7 H 0.20663 0.08730 0.20462
 H8 H 0.26923 0.24957 0.14077
 H9 H 0.13068 0.24578 0.25849
 C10 C -0.18244 0.81809 0.23089
 C11 C -0.23381 0.84366 0.21539
 C12 C -0.26948 0.81506 0.17683
 C13 C -0.25382 0.76215 0.15424
 C14 C -0.20284 0.73719 0.16915
 C15 C -0.16743 0.76479 0.20834
 H16 H -0.24470 0.88603 0.23119
 H17 H -0.28056 0.74141 0.12305
 H18 H -0.12668 0.74653 0.21908
 C19 C -0.16671 0.15279 -0.24814
 C20 C -0.13736 0.20434 -0.23876
 C21 C -0.15315 0.24055 -0.19368
 C22 C -0.19900 0.22373 -0.15776
 C23 C -0.22832 0.17186 -0.16729
 C24 C -0.21228 0.13734 -0.21305
 H25 H -0.10096 0.21511 -0.26489
 H26 H -0.21022 0.24934 -0.12088
 H27 H -0.23265 0.09592 -0.21880
 C28 C 0.18693 0.84159 -0.24733
 C29 C 0.22869 0.86845 -0.21525
 C30 C 0.24568 0.84577 -0.16190
 C31 C 0.22071 0.79403 -0.14062
 C32 C 0.17901 0.76549 -0.17335
 C33 C 0.16276 0.78986 -0.22637
 H34 H 0.24609 0.90908 -0.23069
 H35 H 0.23235 0.77729 -0.09860
 H36 H 0.13014 0.76877 -0.25072
 C37 C 0.17407 1.16739 0.73507
 C38 C 0.22429 1.14642 0.75812
 C39 C 0.25042 1.17346 0.80402
 C40 C 0.22489 1.22328 0.82804
 C41 C 0.17351 1.24525 0.80504
 C42 C 0.14889 1.21689 0.75842
 H43 H 0.24346 1.10829 0.73992
 H44 H 0.24455 1.24445 0.86392
 H45 H 0.10982 1.23336 0.74070
 C46 C 0.83476 0.83566 0.76422
 C47 C 0.85822 0.78973 0.79511
 C48 C 0.83452 0.77064 0.84673
 C49 C 0.78406 0.79668 0.86657
 C50 C 0.75840 0.84202 0.83379
 C51 C 0.78471 0.86119 0.78296
 H52 H 0.89846 0.77222 0.78158
 H53 H 0.76636 0.78344 0.90758
 H54 H 0.76747 0.89791 0.75946
 C55 C 0.17213 0.82495 1.23987
 C56 C 0.22307 0.84691 1.21906
 C57 C 0.25611 0.81415 1.18138
 C58 C 0.23906 0.75924 1.16629
 C59 C 0.18812 0.73737 1.18602
 C60 C 0.15439 0.76999 1.22340
 H61 H 0.23527 0.89049 1.22984
 H62 H 0.26383 0.73485 1.13587
 H63 H 0.11360 0.75417 1.23720
 C64 C 0.84165 1.15173 1.21427
 C65 C 0.78389 1.15287 1.20247
 C66 C 0.76297 1.18802 1.15745
 C67 C 0.79950 1.22268 1.12608
 C68 C 0.85685 1.22092 1.13719
 C69 C 0.87848 1.18591 1.18142
 H70 H 0.75612 1.12384 1.22590
 H71 H 0.78353 1.24869 1.09052
 H72 H 0.92348 1.18365 1.18873
 N73 N 0.55019 1.08646 1.11495
 N74 N 0.58882 1.09100 1.15480
 N75 N 0.43843 1.12850 1.06010
 N76 N 0.38796 1.14903 1.04750
 N77 N 0.43476 1.09146 1.10340
 N78 N 0.38264 1.08750 1.12218
 N79 N 0.55763 1.12426 1.07326
 N80 N 0.60272 1.15582 1.08342
 C81 C 0.62069 1.13458 1.13494
 C82 C 0.35454 1.12407 1.08750
 N83 N 0.44975 1.08483 0.90128
 N84 N 0.40613 1.09291 0.86624
 N85 N 0.56869 1.11980 0.94927
 N86 N 0.61679 1.14803 0.95090
 N87 N 0.57061 1.07844 0.91103
 N88 N 0.62102 1.07778 0.88625
 N89 N 0.45186 1.12694 0.93847
 N90 N 0.41115 1.16474 0.92953
 Mn91 Mn 0.50452 1.12549 1.00538
 C92 C 0.38302 1.14342 0.88467
 C93 C 0.64858 1.12307 0.91006
 N94 N 0.43026 0.96939 1.11037
 N95 N 0.38930 0.96312 1.14793
 N96 N 0.54873 0.92254 1.08360
 N97 N 0.59006 0.88673 1.09645
 N98 N 0.54656 0.96465 1.12071
 N99 N 0.58638 0.95917 1.15974
 N100 N 0.43154 0.92647 1.07423
 N101 N 0.39127 0.88907 1.08658
 Mn102 Mn 0.49051 1.02813 1.11245
 C103 C 0.36542 0.91347 1.13215
 C104 C 0.61260 0.91035 1.14400
 N105 N 0.56396 0.95162 0.91738
 N106 N 0.60907 0.93853 0.88622
 N107 N 0.44057 0.91910 0.95076
 N108 N 0.39177 0.89190 0.94997
 N109 N 0.44337 0.95794 0.90892
 N110 N 0.39561 0.95800 0.87945
 N111 N 0.55867 0.91449 0.96042
 N112 N 0.59941 0.87559 0.95986
 Mn113 Mn 0.50692 1.01814 0.90835
 Mn114 Mn 0.49496 0.92007 1.01709
 Cl115 Cl 0.49943 1.02287 1.01022
 C116 C 0.63049 0.89088 0.91357
 C117 C 0.36470 0.91472 0.90401
 N118 N 0.05335 0.42763 0.10942
 N119 N 0.05994 0.38974 0.15132
 N120 N 0.09620 0.55027 0.08184
 N121 N 0.12975 0.59265 0.09700
 N122 N 0.05310 0.54658 0.11709
 N123 N 0.05556 0.58613 0.15700
 N124 N 0.09760 0.42980 0.07566
 N125 N 0.13641 0.39307 0.09462
 C126 C 0.11137 0.36877 0.14162
 C127 C 0.10351 0.61401 0.14391
 N128 N 0.07474 0.56430 -0.08585
 N129 N 0.08740 0.61057 -0.11786
 N130 N 0.10925 0.43854 -0.04936
 N131 N 0.14559 0.39570 -0.05491
 N132 N 0.07417 0.44077 -0.09325
 N133 N 0.08614 0.39875 -0.12977
 N134 N 0.10927 0.56025 -0.04177
 N135 N 0.14585 0.60322 -0.04251
 Mn136 Mn 0.10375 0.49468 0.01635
 C137 C 0.13191 0.63427 -0.09000
 C138 C 0.13096 0.37124 -0.10498
 N139 N -0.06455 0.54645 0.10692
 N140 N -0.07368 0.58444 0.14707
 N141 N -0.09917 0.42954 0.05327
 N142 N -0.11433 0.37692 0.03862
 N143 N -0.06444 0.42671 0.09724
 N144 N -0.05640 0.37264 0.11372
 N145 N -0.10082 0.55161 0.06503
 N146 N -0.13666 0.59392 0.07555
 Mn147 Mn -0.00593 0.48699 0.10755
 C148 C -0.11857 0.61324 0.12702
 C149 C -0.08841 0.34264 0.07756
 N150 N -0.05044 0.44276 -0.10408
 N151 N -0.05786 0.39901 -0.14012
 N152 N -0.09126 0.56343 -0.05799
 N153 N -0.12006 0.61212 -0.05588
 N154 N -0.04890 0.56759 -0.09447
 N155 N -0.04775 0.62072 -0.11678
 N156 N -0.09280 0.44465 -0.06781
 N157 N -0.13000 0.40443 -0.07821
 Mn158 Mn 0.01244 0.50374 -0.09585
 Mn159 Mn -0.09639 0.49764 -0.00174
 Cl160 Cl 0.00387 0.49580 0.00590
 C161 C -0.10834 0.37620 -0.12278
 C162 C -0.09396 0.64708 -0.09413
 N163 N 0.89125 -0.08556 0.42613
 N164 N 0.86509 -0.08776 0.37618
 N165 N 0.93203 -0.12140 0.54828
 N166 N 0.93811 -0.14365 0.60043
 N167 N 0.88872 -0.08593 0.54700
 N168 N 0.86429 -0.08462 0.59797
 N169 N 0.93516 -0.12008 0.42645
 N170 N 0.94028 -0.14569 0.37644
 C171 C 0.89538 -0.12649 0.34631
 C172 C 0.89457 -0.12192 0.63050
 N173 N 1.08673 -0.06653 0.55371
 N174 N 1.12114 -0.07346 0.59812
 N175 N 1.05590 -0.10819 0.43027
 N176 N 1.05966 -0.13457 0.38049
 N177 N 1.09133 -0.06469 0.43201
 N178 N 1.11943 -0.06045 0.38314
 N179 N 1.05195 -0.11044 0.55066
 N180 N 1.06147 -0.14828 0.59234
 Mn181 Mn 0.99361 -0.11558 0.48873
 C182 C 1.10436 -0.12479 0.62146
 C183 C 1.10064 -0.10541 0.35233
 N184 N 0.87652 0.03844 0.54487
 N185 N 0.85093 0.03309 0.59491
 N186 N 0.91478 0.08159 0.42330
 N187 N 0.91606 0.10592 0.37148
 N188 N 0.87952 0.03788 0.42407
 N189 N 0.85645 0.03178 0.37311
 N190 N 0.91147 0.08239 0.54541
 N191 N 0.91048 0.10722 0.59624
 Mn192 Mn 0.88346 -0.02376 0.48562
 C193 C 0.87115 0.07699 0.62595
 C194 C 0.87819 0.07528 0.34126
 N195 N 1.07940 0.05927 0.43047
 N196 N 1.10925 0.06288 0.38250
 N197 N 1.03160 0.09534 0.54828
 N198 N 1.03512 0.13482 0.58846
 N199 N 1.07419 0.05905 0.55164
 N200 N 1.10804 0.07301 0.59421
 N201 N 1.03572 0.09417 0.42748
 N202 N 1.03481 0.12179 0.37748
 Mn203 Mn 1.08368 -0.00317 0.49235
 Mn204 Mn 0.97317 0.08904 0.48600
 Cl205 Cl 0.98367 -0.01332 0.48827
 C206 C 1.08175 0.10326 0.35066
 C207 C 1.08265 0.12005 0.61674
 N208 N 1.12873 0.13474 0.26796
 N209 N 1.08867 0.10904 0.29002
 N210 N 0.85506 -0.15382 0.26025
 N211 N 0.89336 -0.12920 0.28540
 N212 N 0.85284 0.11432 0.71659
 N213 N 0.86993 0.07442 0.68697
 N214 N 1.16723 -0.13049 0.70083
 N215 N 1.12685 -0.15151 0.67221
 N216 N 0.26988 1.14233 1.12834
 N217 N 0.29519 1.12586 1.08570
 N218 N 0.27800 0.87801 0.87041
 N219 N 0.30448 0.91251 0.90003
 N220 N 0.68054 0.84048 1.15488
 N221 N 0.66109 0.88819 1.17186
 N222 N 0.73716 1.15046 0.87179
 N223 N 0.70869 1.12839 0.91075
 N224 N 0.18420 0.30816 0.17436
 N225 N 0.13266 0.32168 0.17426
 N226 N -0.12015 0.29157 -0.18224
 N227 N -0.13573 0.32504 -0.14245
 N228 N 0.15037 0.71344 -0.15413
 N229 N 0.16163 0.68601 -0.10763
 N230 N -0.18527 0.68654 0.14029
 N231 N -0.14036 0.66152 0.15578
 N232 N 1.15006 0.13701 0.68787
 N233 N 1.10424 0.15201 0.66382
 N234 N 0.86552 -0.13925 0.72472
 N235 N 0.89823 -0.11558 0.69095
 N236 N 1.13816 -0.14099 0.26775
 N237 N 1.10629 -0.10691 0.29153
 N238 N 0.86148 0.11240 0.24949
 N239 N 0.87905 0.07276 0.28027
 N240 N 0.14475 0.29542 -0.17251
 N241 N 0.16023 0.32164 -0.12745
 N242 N -0.11038 0.25120 0.10408
 N243 N -0.08292 0.28221 0.07165
 N244 N -0.13427 0.73668 -0.12056
 N245 N -0.10016 0.70856 -0.09143
 N246 N 0.16897 0.68536 0.16118
 N247 N 0.12177 0.66334 0.17370
 N248 N 0.30219 1.14800 0.82464
 N249 N 0.33197 1.16985 0.86398
 N250 N 0.30387 0.83793 1.15292
 N251 N 0.31937 0.88915 1.16224
 N252 N 0.70710 1.18229 1.13653
 N253 N 0.67356 1.14656 1.15966
 N254 N 0.70823 0.87237 0.85172
 N255 N 0.68025 0.85952 0.89682
   
