data_POSCAR
  _audit_creation_date              2014-09-24
  _audit_creation_method            'ToBaCCo'
  _symmetry_space_group_name_H-M    'P1'
  _symmetry_Int_Tables_number       1
  _symmetry_cell_setting            triclinic
  loop_
  _symmetry_equiv_pos_as_xyz
 x,y,z
_cell_length_a 41.6503
_cell_length_b 42.0647
_cell_length_c 16.3918
_cell_angle_alpha 90.152200
_cell_angle_beta 89.568200
_cell_angle_gamma 119.502400
loop_
  _atom_site_label
  _atom_site_type_symbol
  _atom_site_fract_x
  _atom_site_fract_y
  _atom_site_fract_z
C1 C 0.15819 0.50329 0.52171
 C2 C 0.16142 0.48877 0.44674
 C3 C 0.18047 0.46892 0.44469
 C4 C 0.19813 0.46542 0.51467
 C5 C 0.19321 0.47955 0.58934
 C6 C 0.17290 0.49798 0.59363
 C7 C 0.22196 0.44776 0.50943
 C8 C 0.23219 0.43609 0.58058
 C9 C 0.25814 0.42415 0.57739
 C10 C 0.27171 0.42044 0.50194
 C11 C 0.26093 0.43016 0.42994
 C12 C 0.23716 0.44488 0.43395
 H13 H 0.14262 0.51767 0.52479
 H14 H 0.18004 0.45496 0.38893
 H15 H 0.20608 0.47785 0.64477
 H16 H 0.22139 0.43718 0.63990
 H17 H 0.29250 0.41204 0.49952
 H18 H 0.23185 0.45496 0.37802
 C19 C 0.48799 -0.34494 0.51180
 C20 C 0.50032 -0.32706 0.43642
 C21 C 0.52230 -0.28876 0.43568
 C22 C 0.52919 -0.26788 0.50784
 C23 C 0.51680 -0.28711 0.58269
 C24 C 0.49666 -0.32547 0.58545
 C25 C 0.54791 -0.22658 0.50457
 C26 C 0.56036 -0.20526 0.57649
 C27 C 0.57388 -0.16745 0.57490
 C28 C 0.57796 -0.14986 0.50034
 C29 C 0.56713 -0.16975 0.42784
 C30 C 0.55115 -0.20790 0.43026
 H31 H 0.47407 -0.37454 0.51349
 H32 H 0.53286 -0.27559 0.37764
 H33 H 0.52105 -0.27298 0.63990
 H34 H 0.55888 -0.21732 0.63529
 H35 H 0.58750 -0.12077 0.49916
 H36 H 0.54047 -0.22234 0.37372
 C37 C 1.34117 0.85254 0.49555
 C38 C 1.32458 0.83780 0.42042
 C39 C 1.28750 0.81005 0.42030
 C40 C 1.26556 0.80049 0.49195
 C41 C 1.28300 0.81702 0.56627
 C42 C 1.32093 0.84203 0.56811
 C43 C 1.22484 0.77390 0.48827
 C44 C 1.20490 0.75483 0.55876
 C45 C 1.16677 0.72990 0.55570
 C46 C 1.14899 0.72308 0.47994
 C47 C 1.16829 0.74014 0.40887
 C48 C 1.20567 0.76628 0.41340
 H49 H 1.36992 0.87365 0.49789
 H50 H 1.27631 0.79581 0.36367
 H51 H 1.26762 0.81117 0.62284
 H52 H 1.21921 0.75728 0.61515
 H53 H 1.11991 0.70313 0.47530
 H54 H 1.21929 0.77991 0.35747
 C55 C 0.84968 0.57194 0.49830
 C56 C 0.83407 0.57463 0.42545
 C57 C 0.79978 0.57336 0.42689
 C58 C 0.77867 0.56514 0.49989
 C59 C 0.79495 0.56169 0.57249
 C60 C 0.83043 0.56583 0.57181
 C61 C 0.73866 0.55565 0.49872
 C62 C 0.71895 0.55251 0.57207
 C63 C 0.68019 0.53530 0.57269
 C64 C 0.66137 0.52584 0.49831
 C65 C 0.68048 0.53205 0.42457
 C66 C 0.71862 0.54591 0.42482
 H67 H 0.87601 0.57255 0.49724
 H68 H 0.78945 0.57691 0.36949
 H69 H 0.77996 0.55384 0.62958
 H70 H 0.73296 0.56101 0.62982
 H71 H 0.63160 0.51393 0.49765
 H72 H 0.73157 0.54732 0.36673
 C73 C 0.44867 0.29207 0.49606
 C74 C 0.44645 0.27376 0.42366
 C75 C 0.44830 0.24153 0.42576
 C76 C 0.45703 0.22958 0.49872
 C77 C 0.46021 0.24933 0.57122
 C78 C 0.45454 0.27972 0.57106
 C79 C 0.46508 0.19837 0.49773
 C80 C 0.46515 0.18015 0.57046
 C81 C 0.47477 0.15233 0.56935
 C82 C 0.48125 0.14080 0.49371
 C83 C 0.48014 0.15738 0.42137
 C84 C 0.47334 0.18666 0.42341
 H85 H 0.44585 0.31635 0.49353
 H86 H 0.44406 0.22705 0.36893
 H87 H 0.46899 0.24268 0.62738
 H88 H 0.45672 0.18648 0.62792
 H89 H 0.48814 0.11907 0.49059
 H90 H 0.47473 0.19978 0.36603
 C91 C 0.72450 0.15013 0.49245
 C92 C 0.73604 0.17110 0.42149
 C93 C 0.76342 0.20793 0.42543
 C94 C 0.78051 0.22427 0.50038
 C95 C 0.76842 0.20193 0.57115
 C96 C 0.73993 0.16554 0.56755
 C97 C 0.80879 0.26452 0.50538
 C98 C 0.81993 0.28279 0.58164
 C99 C 0.84588 0.32025 0.58648
 C100 C 0.85852 0.34036 0.51401
 C101 C 0.84745 0.32355 0.43824
 C102 C 0.82415 0.28572 0.43383
 H103 H 0.70169 0.12235 0.48993
 H104 H 0.76943 0.22344 0.36972
 H105 H 0.77995 0.21216 0.63040
 H106 H 0.80794 0.26894 0.63830
 H107 H 0.87792 0.36945 0.51613
 H108 H 0.81803 0.27379 0.37378
 N109 N 0.96164 0.57062 0.08241
 N110 N 0.93689 0.58072 0.09983
 N111 N 1.04007 0.58944 0.13522
 N112 N 1.06468 0.60972 0.19013
 N113 N 1.03886 0.60995 0.07625
 N114 N 1.06238 0.64482 0.09023
 N115 N 0.96245 0.54943 0.14019
 N116 N 0.93804 0.54414 0.19771
 C117 C 0.92200 0.56334 0.17121
 C118 C 1.07861 0.64407 0.16097
 N119 N 1.04327 0.49889 0.09427
 N120 N 1.06644 0.48797 0.11907
 N121 N 0.96516 0.48225 0.15083
 N122 N 0.94053 0.46511 0.20886
 N123 N 0.96592 0.45872 0.09910
 N124 N 0.94179 0.42495 0.12070
 N125 N 1.04252 0.52234 0.14633
 N126 N 1.06506 0.52793 0.20734
 Mn127 Mn 1.00249 0.53587 0.14372
 C128 C 1.08052 0.50715 0.18865
 C129 C 0.92559 0.42941 0.18847
 N130 N 1.03684 0.60415 -0.10059
 N131 N 1.06209 0.63737 -0.12406
 N132 N 0.95902 0.54028 -0.14432
 N133 N 0.93262 0.53051 -0.19843
 N134 N 0.95920 0.56460 -0.09373
 N135 N 0.93286 0.57216 -0.11263
 N136 N 1.03643 0.57968 -0.15087
 N137 N 1.06154 0.59524 -0.20824
 Mn138 Mn 0.99919 0.58779 -0.00906
 C139 C 1.07781 0.63124 -0.19097
 C140 C 0.91600 0.54998 -0.17715
 N141 N 0.96388 0.45324 -0.07639
 N142 N 0.93967 0.41846 -0.08949
 N143 N 1.03909 0.51375 -0.14087
 N144 N 1.06675 0.52448 -0.19264
 N145 N 1.04181 0.49416 -0.08205
 N146 N 1.07163 0.49089 -0.09275
 N147 N 0.96175 0.47372 -0.13381
 N148 N 0.93619 0.45362 -0.18692
 Mn149 Mn 1.00381 0.47587 0.00872
 Mn150 Mn 0.99894 0.52678 -0.14293
 Cl151 Cl 1.00109 0.53159 0.00038
 C152 C 0.92220 0.41909 -0.15856
 C153 C 1.08713 0.51050 -0.16184
 N154 N 0.43723 0.39682 0.08442
 N155 N 0.42956 0.36308 0.10135
 N156 N 0.41394 0.45225 0.14625
 N157 N 0.39435 0.45727 0.20302
 N158 N 0.39241 0.42936 0.09047
 N159 N 0.35736 0.41798 0.10831
 N160 N 0.45887 0.41962 0.14020
 N161 N 0.46695 0.40213 0.19581
 C162 C 0.44905 0.36710 0.16997
 C163 C 0.35917 0.43585 0.17869
 N164 N 0.49981 0.54765 0.09481
 N165 N 0.50541 0.58043 0.11527
 N166 N 0.52321 0.49064 0.14242
 N167 N 0.54261 0.48388 0.19548
 N168 N 0.54486 0.51517 0.08886
 N169 N 0.57987 0.52600 0.10497
 N170 N 0.47851 0.52325 0.14897
 N171 N 0.46893 0.53864 0.20718
 Mn172 Mn 0.46865 0.47146 0.14502
 C173 C 0.48524 0.57415 0.18477
 C174 C 0.57784 0.50551 0.17086
 N175 N 0.39230 0.43125 -0.08596
 N176 N 0.35716 0.41736 -0.10533
 N177 N 0.45926 0.42412 -0.14533
 N178 N 0.47167 0.40979 -0.19979
 N179 N 0.43785 0.39946 -0.09197
 N180 N 0.43481 0.36739 -0.11003
 N181 N 0.41352 0.45574 -0.14001
 N182 N 0.39347 0.45943 -0.19705
 Mn183 Mn 0.41457 0.41381 -0.00079
 C184 C 0.35847 0.43563 -0.17427
 C185 C 0.45660 0.37436 -0.17729
 N186 N 0.54478 0.51773 -0.08840
 N187 N 0.57972 0.52829 -0.10612
 N188 N 0.47768 0.52685 -0.13737
 N189 N 0.46686 0.54303 -0.19023
 N190 N 0.49936 0.55012 -0.08235
 N191 N 0.50393 0.58308 -0.09704
 N192 N 0.52298 0.49501 -0.14397
 N193 N 0.54218 0.48934 -0.20040
 Mn194 Mn 0.52270 0.53321 0.00327
 Mn195 Mn 0.46833 0.47546 -0.14212
 Cl196 Cl 0.46857 0.47354 0.00142
 C197 C 0.57745 0.50966 -0.17571
 C198 C 0.48272 0.57791 -0.16386
 N199 N 0.45660 -0.04063 0.08615
 N200 N 0.42289 -0.06756 0.10073
 N201 N 0.51558 0.03722 0.14051
 N202 N 0.52185 0.06287 0.19453
 N203 N 0.49260 0.03599 0.08470
 N204 N 0.48218 0.06042 0.09972
 N205 N 0.47939 -0.03986 0.14176
 N206 N 0.46191 -0.06647 0.19482
 C207 C 0.42657 -0.08394 0.16832
 C208 C 0.50140 0.07752 0.16730
 N209 N 0.60885 0.04005 0.08819
 N210 N 0.64251 0.06676 0.10481
 N211 N 0.54920 -0.03735 0.14416
 N212 N 0.54305 -0.06167 0.20137
 N213 N 0.57254 -0.03692 0.08930
 N214 N 0.58307 -0.06095 0.10826
 N215 N 0.58518 0.03929 0.14254
 N216 N 0.60176 0.06540 0.19677
 Mn217 Mn 0.53230 -0.00018 0.14293
 C218 C 0.63737 0.08275 0.17201
 C219 C 0.56419 -0.07630 0.17826
 N220 N 0.49318 0.03566 -0.09010
 N221 N 0.48065 0.05801 -0.10964
 N222 N 0.47969 -0.04047 -0.14544
 N223 N 0.46107 -0.06234 -0.20624
 N224 N 0.45688 -0.04094 -0.08904
 N225 N 0.42232 -0.06309 -0.10999
 N226 N 0.51616 0.03626 -0.14621
 N227 N 0.51969 0.05891 -0.20554
 Mn228 Mn 0.47455 -0.00251 -0.00194
 C229 C 0.49819 0.07296 -0.18076
 C230 C 0.42535 -0.07652 -0.18283
 N231 N 0.57346 -0.03717 -0.08780
 N232 N 0.58562 -0.06000 -0.10653
 N233 N 0.58675 0.03846 -0.14496
 N234 N 0.60514 0.06138 -0.20462
 N235 N 0.60958 0.03918 -0.08899
 N236 N 0.64408 0.06238 -0.10976
 N237 N 0.55036 -0.03825 -0.14350
 N238 N 0.54596 -0.06203 -0.20091
 Mn239 Mn 0.59150 0.00130 0.00022
 Mn240 Mn 0.53329 -0.00101 -0.14564
 Cl241 Cl 0.53299 -0.00061 -0.00138
 C242 C 0.56777 -0.07558 -0.17669
 C243 C 0.64071 0.07646 -0.18123
 C244 C 1.08706 0.48997 0.32688
 C245 C 1.10671 0.48582 0.38964
 C246 C 1.14275 0.49171 0.37757
 C247 C 1.15853 0.50121 0.29740
 C248 C 1.13759 0.50432 0.23254
 C249 C 1.10204 0.49948 0.24853
 C250 C 1.15376 0.51419 0.15456
 N251 N 1.18897 0.52152 0.14258
 N252 N 1.20921 0.52020 0.20353
 C253 C 1.19548 0.51085 0.28039
 H254 H 1.05970 0.48583 0.33993
 H255 H 1.09309 0.47741 0.44852
 H256 H 1.13895 0.51663 0.10326
 H257 H 1.21410 0.51218 0.32733
 C258 C 0.51825 0.63571 0.24682
 C259 C 0.52203 0.66013 0.30870
 C260 C 0.49292 0.65213 0.36382
 C261 C 0.45774 0.62126 0.34766
 C262 C 0.45400 0.59649 0.28464
 C263 C 0.48521 0.60281 0.23728
 C264 C 0.41872 0.56659 0.26965
 N265 N 0.38929 0.56214 0.31435
 N266 N 0.39259 0.58577 0.37226
 C267 C 0.42560 0.61529 0.38976
 H268 H 0.54223 0.64136 0.21013
 H269 H 0.54908 0.68360 0.31791
 H270 H 0.41393 0.54738 0.22109
 H271 H 0.42618 0.63439 0.43467
 C272 C 0.40630 -0.12582 0.28519
 C273 C 0.38180 -0.14370 0.34841
 C274 C 0.34570 -0.14917 0.34777
 C275 C 0.33332 -0.13924 0.27601
 C276 C 0.35805 -0.12304 0.20875
 C277 C 0.39589 -0.11290 0.21746
 C278 C 0.34403 -0.11667 0.13646
 N279 N 0.30910 -0.12233 0.13452
 N280 N 0.28724 -0.13379 0.19994
 C281 C 0.29823 -0.14194 0.27064
 H282 H 0.43446 -0.12026 0.29197
 H283 H 0.39176 -0.15237 0.39999
 H284 H 0.35974 -0.10840 0.08054
 H285 H 0.27949 -0.14963 0.32177
 C286 C 0.90683 0.60076 0.26259
 C287 C 0.88554 0.60339 0.32563
 C288 C 0.85161 0.57325 0.34761
 C289 C 0.83794 0.54040 0.30212
 C290 C 0.85969 0.53781 0.23829
 C291 C 0.89487 0.56782 0.22070
 C292 C 0.84580 0.50481 0.19493
 N293 N 0.81233 0.47628 0.21480
 N294 N 0.79212 0.47840 0.27568
 C295 C 0.80385 0.50930 0.32038
 H296 H 0.93393 0.62380 0.25030
 H297 H 0.89650 0.62848 0.36042
 H298 H 0.86114 0.50158 0.14509
 H299 H 0.78633 0.50914 0.36945
 C300 C 0.41475 0.31724 0.26774
 C301 C 0.41421 0.29459 0.33024
 C302 C 0.44518 0.29074 0.34562
 C303 C 0.47650 0.30831 0.29345
 C304 C 0.47694 0.33134 0.22996
 C305 C 0.44637 0.33680 0.21949
 C306 C 0.50843 0.34889 0.17979
 N307 N 0.53762 0.34368 0.19286
 N308 N 0.53758 0.32260 0.25336
 C309 C 0.50823 0.30502 0.30448
 H310 H 0.39127 0.32146 0.26064
 H311 H 0.39023 0.28160 0.36996
 H312 H 0.50995 0.36645 0.13004
 H313 H 0.51009 0.28863 0.35282
 C314 C 0.69821 0.10939 0.23930
 C315 C 0.72193 0.13049 0.30152
 C316 C 0.71518 0.15519 0.34569
 C317 C 0.68535 0.16043 0.32354
 C318 C 0.66137 0.13915 0.26015
 C319 C 0.66690 0.11216 0.22059
 C320 C 0.63216 0.14530 0.23933
 N321 N 0.62685 0.17017 0.28126
 N322 N 0.64880 0.18946 0.34218
 C323 C 0.67782 0.18544 0.36483
 H324 H 0.70281 0.08884 0.21001
 H325 H 0.74454 0.12609 0.31837
 H326 H 0.61379 0.13097 0.18950
 H327 H 0.69472 0.20189 0.41471
 C328 C 0.46608 0.07672 -0.30107
 C329 C 0.46013 0.09612 -0.36161
 C330 C 0.47683 0.13452 -0.35923
 C331 C 0.49832 0.15323 -0.28940
 C332 C 0.50349 0.13286 -0.22651
 C333 C 0.48837 0.09468 -0.23466
 C334 C 0.52526 0.15159 -0.15904
 N335 N 0.54172 0.18849 -0.15558
 N336 N 0.53826 0.20783 -0.21556
 C337 C 0.51765 0.19164 -0.28253
 H338 H 0.45404 0.04739 -0.30747
 H339 H 0.44287 0.08082 -0.41243
 H340 H 0.52952 0.13723 -0.10932
 H341 H 0.51751 0.20926 -0.32989
 C342 C 0.64027 0.54771 -0.23522
 C343 C 0.66575 0.55405 -0.29791
 C344 C 0.65978 0.52628 -0.35376
 C345 C 0.63087 0.49015 -0.33782
 C346 C 0.60579 0.48356 -0.27273
 C347 C 0.60896 0.51320 -0.22530
 C348 C 0.57848 0.44722 -0.25657
 N349 N 0.57638 0.41962 -0.30325
 N350 N 0.59989 0.42578 -0.36448
 C351 C 0.62713 0.45995 -0.38300
 H352 H 0.64358 0.57055 -0.19843
 H353 H 0.68813 0.58165 -0.30752
 H354 H 0.55949 0.44026 -0.20578
 H355 H 0.64626 0.46305 -0.43129
 C356 C 0.87486 0.39479 -0.26405
 C357 C 0.85724 0.37140 -0.32839
 C358 C 0.85824 0.33876 -0.33825
 C359 C 0.87493 0.32820 -0.27594
 C360 C 0.89242 0.35208 -0.20851
 C361 C 0.89477 0.38706 -0.20650
 C362 C 0.90809 0.34043 -0.14782
 N363 N 0.90808 0.30838 -0.15608
 N364 N 0.89380 0.28721 -0.22115
 C365 C 0.87765 0.29614 -0.28153
 H366 H 0.87484 0.42053 -0.26257
 H367 H 0.84370 0.37969 -0.37305
 H368 H 0.91967 0.35566 -0.09287
 H369 H 0.86775 0.27818 -0.33347
 C370 C 0.54299 -0.13516 -0.24383
 C371 C 0.54470 -0.15791 -0.30338
 C372 C 0.57709 -0.14711 -0.34884
 C373 C 0.60928 -0.11405 -0.32887
 C374 C 0.60764 -0.09093 -0.26769
 C375 C 0.57378 -0.10129 -0.22685
 C376 C 0.63965 -0.05742 -0.25249
 N377 N 0.67123 -0.04839 -0.29435
 N378 N 0.67288 -0.07041 -0.35073
 C379 C 0.64300 -0.10288 -0.36952
 H380 H 0.51686 -0.14326 -0.21356
 H381 H 0.51970 -0.18292 -0.31829
 H382 H 0.63997 -0.03833 -0.20787
 H383 H 0.64586 -0.11978 -0.41565
 C384 C 0.32175 0.45801 -0.24429
 C385 C 0.29692 0.45507 -0.30400
 C386 C 0.27663 0.42243 -0.34733
 C387 C 0.27941 0.39134 -0.32552
 C388 C 0.30458 0.39423 -0.26418
 C389 C 0.32656 0.42827 -0.22505
 C390 C 0.30800 0.36327 -0.24720
 N391 N 0.28681 0.33151 -0.28741
 N392 N 0.26270 0.32868 -0.34382
 C393 C 0.25831 0.35751 -0.36435
 H394 H 0.33862 0.48426 -0.21545
 H395 H 0.29544 0.47925 -0.32041
 H396 H 0.32724 0.36387 -0.20262
 H397 H 0.23828 0.35372 -0.41046
 C398 C 1.10426 0.64677 -0.32851
 C399 C 1.12505 0.67037 -0.39010
 C400 C 1.14721 0.70798 -0.37631
 C401 C 1.14877 0.72145 -0.29549
 C402 C 1.12798 0.69673 -0.23125
 C403 C 1.10435 0.65915 -0.24903
 C404 C 1.13184 0.71073 -0.15171
 N405 N 1.15271 0.74712 -0.13838
 N406 N 1.16996 0.77048 -0.19906
 C407 C 1.16846 0.75900 -0.27698
 H408 H 1.08728 0.61827 -0.34463
 H409 H 1.12411 0.65860 -0.44957
 H410 H 1.11910 0.69333 -0.09960
 H411 H 1.18219 0.77951 -0.32354
 C412 C 0.89125 0.58558 -0.24561
 C413 C 0.87092 0.58957 -0.30799
 C414 C 0.84618 0.55938 -0.35385
 C415 C 0.83992 0.52413 -0.33325
 C416 C 0.86034 0.51998 -0.26946
 C417 C 0.88755 0.55132 -0.22816
 C418 C 0.85285 0.48443 -0.24949
 N419 N 0.82746 0.45540 -0.29244
 N420 N 0.80898 0.45946 -0.35374
 C421 C 0.81435 0.49280 -0.37568
 H422 H 0.91182 0.60982 -0.21472
 H423 H 0.87589 0.61667 -0.32335
 H424 H 0.86638 0.47931 -0.19931
 H425 H 0.79840 0.49446 -0.42562
 C426 C 0.48116 0.36101 -0.30120
 C427 C 0.48012 0.33830 -0.36329
 C428 C 0.45804 0.30024 -0.35765
 C429 C 0.43901 0.28496 -0.28263
 C430 C 0.44125 0.30857 -0.21726
 C431 C 0.46029 0.34711 -0.22952
 C432 C 0.42384 0.29246 -0.14284
 N433 N 0.40329 0.25565 -0.13630
 N434 N 0.39884 0.23378 -0.19905
 C435 C 0.41561 0.24710 -0.27194
 H436 H 0.49739 0.39014 -0.31192
 H437 H 0.49638 0.35094 -0.41773
 H438 H 0.42696 0.30832 -0.08887
 H439 H 0.40990 0.22780 -0.32064
 C440 C 0.67683 0.13554 -0.25070
 C441 C 0.70167 0.15755 -0.31065
 C442 C 0.72158 0.14504 -0.35717
 C443 C 0.71828 0.11068 -0.33888
 C444 C 0.69323 0.08836 -0.27730
 C445 C 0.67176 0.10073 -0.23454
 C446 C 0.68948 0.05371 -0.26322
 N447 N 0.71011 0.04276 -0.30682
 N448 N 0.73400 0.06396 -0.36380
 C449 C 0.73875 0.09750 -0.38141
 H450 H 0.66033 0.14515 -0.21894
 H451 H 0.70353 0.18358 -0.32455
 H452 H 0.67039 0.03521 -0.21817
 H453 H 0.75859 0.11366 -0.42811
 C454 C 1.12503 0.48320 -0.20886
 C455 C 1.14707 0.48039 -0.27003
 C456 C 1.16339 0.50750 -0.33074
 C457 C 1.16337 0.54098 -0.31927
 C458 C 1.14189 0.54418 -0.25585
 C459 C 1.11984 0.51363 -0.20539
 C460 C 1.14307 0.57798 -0.24529
 N461 N 1.16421 0.60639 -0.29550
 N462 N 1.18445 0.60339 -0.35510
 C463 C 1.18492 0.57180 -0.36841
 H464 H 1.10914 0.45991 -0.16944
 H465 H 1.14723 0.45480 -0.27573
 H466 H 1.12827 0.58244 -0.19618
 H467 H 1.20267 0.57119 -0.41620
 C468 C 0.51308 0.64111 -0.21937
 C469 C 0.51637 0.66519 -0.28166
 C470 C 0.48814 0.65533 -0.33943
 C471 C 0.45364 0.62342 -0.32446
 C472 C 0.45009 0.59937 -0.26019
 C473 C 0.48114 0.60701 -0.21166
 C474 C 0.41527 0.56849 -0.24609
 N475 N 0.38620 0.56231 -0.29338
 N476 N 0.38942 0.58506 -0.35318
 C477 C 0.42197 0.61548 -0.36984
 H478 H 0.53686 0.64787 -0.18173
 H479 H 0.54282 0.68970 -0.28990
 H480 H 0.41052 0.54983 -0.19636
 H481 H 0.42259 0.63373 -0.41685
 C482 C 0.39356 -0.12999 -0.27242
 C483 C 0.36739 -0.15062 -0.33076
 C484 C 0.34084 -0.14144 -0.35532
 C485 C 0.33958 -0.11182 -0.31732
 C486 C 0.36632 -0.09062 -0.25777
 C487 C 0.39391 -0.09966 -0.23629
 C488 C 0.36562 -0.05985 -0.22574
 N489 N 0.33945 -0.05174 -0.25017
 N490 N 0.31419 -0.07191 -0.30520
 C491 C 0.31350 -0.10150 -0.33997
 H492 H 0.41453 -0.13710 -0.25722
 H493 H 0.36912 -0.17279 -0.36043
 H494 H 0.38574 -0.04172 -0.18258
 H495 H 0.29265 -0.11656 -0.38510
 C496 C 0.53479 -0.13321 0.25791
 C497 C 0.53528 -0.15636 0.31788
 C498 C 0.56862 -0.15027 0.35141
 C499 C 0.60228 -0.12191 0.31942
 C500 C 0.60190 -0.09827 0.25812
 C501 C 0.56761 -0.10356 0.22875
 C502 C 0.63594 -0.06912 0.23179
 N503 N 0.66790 -0.06490 0.26285
 N504 N 0.66820 -0.08757 0.31896
 C505 C 0.63652 -0.11586 0.34840
 H506 H 0.50837 -0.13752 0.23665
 H507 H 0.50929 -0.17773 0.34209
 H508 H 0.63772 -0.04951 0.18722
 H509 H 0.63837 -0.13345 0.39394
 C510 C 0.32808 0.46334 0.25524
 C511 C 0.30399 0.46217 0.31603
 C512 C 0.27876 0.42897 0.35229
 C513 C 0.27571 0.39603 0.32185
 C514 C 0.30023 0.39715 0.25979
 C515 C 0.32741 0.43138 0.22819
 C516 C 0.29773 0.36396 0.23491
 N517 N 0.27170 0.33200 0.26821
 N518 N 0.24824 0.33096 0.32517
 C519 C 0.24939 0.36184 0.35323
 H520 H 0.34875 0.48969 0.23195
 H521 H 0.30685 0.48763 0.33890
 H522 H 0.31607 0.36289 0.18957
 H523 H 0.22965 0.35942 0.39952
 C524 C 1.13910 0.67971 0.22592
 C525 C 1.16163 0.70407 0.28536
 C526 C 1.15010 0.72526 0.32960
 C527 C 1.11692 0.72449 0.30763
 C528 C 1.09409 0.69996 0.24651
 C529 C 1.10480 0.67641 0.20780
 C530 C 1.06035 0.69854 0.22971
 N531 N 1.05079 0.72086 0.27018
 N532 N 1.07248 0.74420 0.32676
 C533 C 1.10514 0.74669 0.34705
 H534 H 1.14751 0.66168 0.19736
 H535 H 1.18671 0.70396 0.30198
 H536 H 1.04148 0.68002 0.18491
 H537 H 1.12176 0.76610 0.39342
 C538 C 0.46145 0.08644 0.26326
 C539 C 0.45649 0.10595 0.32579
 C540 C 0.48393 0.14169 0.34372
 C541 C 0.51577 0.15912 0.29340
 C542 C 0.52070 0.13916 0.22943
 C543 C 0.49401 0.10216 0.21721
 C544 C 0.55244 0.15684 0.18020
 N545 N 0.57756 0.19231 0.19459
 N546 N 0.57333 0.21090 0.25572
 C547 C 0.54350 0.19543 0.30614
 H548 H 0.44080 0.05807 0.25432
 H549 H 0.43192 0.09235 0.36364
 H550 H 0.55725 0.14288 0.13006
 H551 H 0.54164 0.21174 0.35504
 C552 C 0.63817 0.54543 0.23548
 C553 C 0.66295 0.55193 0.29863
 C554 C 0.65971 0.52314 0.34729
 C555 C 0.63345 0.48683 0.32691
 C556 C 0.60838 0.48015 0.26260
 C557 C 0.60950 0.50998 0.21980
 C558 C 0.58277 0.44363 0.24375
 N559 N 0.58214 0.41604 0.28762
 N560 N 0.60549 0.42239 0.34855
 C561 C 0.63118 0.45682 0.36955
 H562 H 0.63960 0.56856 0.20327
 H563 H 0.68314 0.57986 0.31332
 H564 H 0.56376 0.43668 0.19361
 H565 H 0.64993 0.46042 0.41848
 C566 C 0.90453 0.36885 0.25141
 C567 C 0.88556 0.34297 0.31209
 C568 C 0.86076 0.34660 0.36406
 C569 C 0.85252 0.37506 0.35010
 C570 C 0.87171 0.40133 0.28831
 C571 C 0.89931 0.39912 0.24140
 C572 C 0.86229 0.42879 0.27540
 N573 N 0.83610 0.43011 0.32263
 N574 N 0.81841 0.40568 0.38126
 C575 C 0.82559 0.37815 0.39640
 H576 H 0.92519 0.36642 0.21564
 H577 H 0.89198 0.32124 0.32181
 H578 H 0.87476 0.44874 0.22720
 H579 H 0.80984 0.35866 0.44370
   
