data_POSCAR
  _audit_creation_date              2014-09-24
  _audit_creation_method            'ToBaCCo'
  _symmetry_space_group_name_H-M    'P1'
  _symmetry_Int_Tables_number       1
  _symmetry_cell_setting            triclinic
  loop_
  _symmetry_equiv_pos_as_xyz
 x,y,z
_cell_length_a 30.9663
_cell_length_b 31.4178
_cell_length_c 29.5065
_cell_angle_alpha 87.527400
_cell_angle_beta 90.224500
_cell_angle_gamma 90.931800
loop_
  _atom_site_label
  _atom_site_type_symbol
  _atom_site_fract_x
  _atom_site_fract_y
  _atom_site_fract_z
Si1 Si 1.24265 0.24284 0.26720
 Si2 Si 0.73960 -0.24682 0.24666
 Si3 Si 0.74215 0.25542 -0.24323
 Si4 Si 1.23308 -0.25091 -0.25304
 Si5 Si 0.26185 0.25064 0.73629
 Si6 Si 0.76618 0.74065 0.75524
 Si7 Si 0.75669 0.24801 0.24116
 Si8 Si 0.25995 0.75539 0.25328
 N9 N 1.08122 0.04714 0.04824
 N10 N 1.11011 0.07703 0.05630
 N11 N 1.05128 -0.04517 0.07930
 N12 N 1.05862 -0.07607 0.10993
 N13 N 1.08268 -0.04214 0.04955
 N14 N 1.11251 -0.07072 0.05942
 N15 N 1.05176 0.04454 0.08014
 N16 N 1.06021 0.07269 0.11121
 C17 C 1.09652 0.09304 0.09541
 C18 C 1.09677 -0.09199 0.09690
 N19 N 0.92805 -0.04503 0.04538
 N20 N 0.89757 -0.07408 0.05397
 N21 N 0.95863 0.04267 0.07791
 N22 N 0.95032 0.06909 0.11001
 N23 N 0.92844 0.04423 0.04646
 N24 N 0.89851 0.07185 0.05687
 N25 N 0.95807 -0.04674 0.07699
 N26 N 0.94902 -0.07745 0.10760
 Mn27 Mn 1.00489 -0.00127 0.07903
 C28 C 0.91139 -0.09444 0.09254
 C29 C 0.91305 0.08748 0.09649
 N30 N 1.08394 -0.03834 -0.04743
 N31 N 1.11307 -0.06763 -0.05315
 N32 N 1.05328 0.05148 -0.08066
 N33 N 1.06109 0.08189 -0.11180
 N34 N 1.08345 0.05093 -0.04931
 N35 N 1.11312 0.08074 -0.05879
 N36 N 1.05507 -0.03815 -0.08008
 N37 N 1.06417 -0.06737 -0.10939
 Mn38 Mn 1.08316 0.00450 0.00028
 C39 C 1.10031 -0.08571 -0.09174
 C40 C 1.09825 0.10018 -0.09762
 N41 N 0.93015 0.04837 -0.05239
 N42 N 0.89988 0.07616 -0.06350
 N43 N 0.96175 -0.03979 -0.08257
 N44 N 0.95489 -0.06725 -0.11435
 N45 N 0.93014 -0.04137 -0.05294
 N46 N 0.90086 -0.07039 -0.06402
 N47 N 0.96065 0.04938 -0.08327
 N48 N 0.95190 0.07783 -0.11606
 Mn49 Mn 0.92866 0.00164 -0.00339
 Mn50 Mn 1.00770 0.00566 -0.08201
 Cl51 Cl 1.00598 0.00266 -0.00151
 C52 C 0.91419 0.09473 -0.10308
 C53 C 0.91710 -0.08652 -0.10232
 N54 N 1.07534 0.54795 0.53281
 N55 N 1.10455 0.57834 0.53760
 N56 N 1.05088 0.45801 0.57091
 N57 N 1.06482 0.43255 0.60446
 N58 N 1.07816 0.45884 0.53686
 N59 N 1.11139 0.43427 0.54654
 N60 N 1.04742 0.54725 0.56618
 N61 N 1.05713 0.57698 0.59488
 C62 C 1.09255 0.59644 0.57621
 C63 C 1.10201 0.41722 0.58821
 N64 N 0.92662 0.45137 0.54797
 N65 N 0.89759 0.42250 0.56167
 N66 N 0.95412 0.54277 0.57321
 N67 N 0.94606 0.57228 0.60260
 N68 N 0.92270 0.54063 0.54335
 N69 N 0.89287 0.56876 0.55110
 N70 N 0.95829 0.45345 0.57752
 N71 N 0.95174 0.42595 0.61195
 Mn72 Mn 1.00272 0.50049 0.57244
 C73 C 0.91401 0.40645 0.60130
 C74 C 0.90784 0.58854 0.58793
 N75 N 1.07135 0.45935 0.43912
 N76 N 1.10022 0.43061 0.42986
 N77 N 1.03746 0.54880 0.40710
 N78 N 1.04364 0.57964 0.37560
 N79 N 1.06945 0.54843 0.43643
 N80 N 1.09818 0.57850 0.42581
 N81 N 1.03963 0.45903 0.40953
 N82 N 1.04574 0.42981 0.37959
 Mn83 Mn 1.07390 0.50347 0.48627
 C84 C 1.08354 0.41219 0.39284
 C85 C 1.08146 0.59815 0.38836
 N86 N 0.91578 0.54020 0.44652
 N87 N 0.88159 0.56326 0.43646
 N88 N 0.94723 0.45408 0.41594
 N89 N 0.93730 0.42503 0.38637
 N90 N 0.92049 0.45135 0.45040
 N91 N 0.89176 0.42053 0.44528
 N92 N 0.94409 0.54338 0.41345
 N93 N 0.92997 0.56892 0.38015
 Mn94 Mn 0.92111 0.49574 0.49713
 Mn95 Mn 0.99211 0.50150 0.41096
 Cl96 Cl 0.99742 0.50028 0.49170
 C97 C 0.89146 0.58167 0.39557
 C98 C 0.90286 0.40403 0.40546
 N99 N 0.58522 0.03575 0.56160
 N100 N 0.61200 0.06705 0.57218
 N101 N 0.55571 -0.05803 0.58298
 N102 N 0.56407 -0.09029 0.61154
 N103 N 0.58647 -0.05299 0.55256
 N104 N 0.61706 -0.08136 0.56038
 N105 N 0.55459 0.03087 0.59220
 N106 N 0.55933 0.05889 0.62391
 C107 C 0.59521 0.08128 0.61110
 C108 C 0.60218 -0.10486 0.59689
 N109 N 0.43228 -0.05687 0.55263
 N110 N 0.40163 -0.08584 0.56066
 N111 N 0.46163 0.02804 0.59296
 N112 N 0.45387 0.05337 0.62645
 N113 N 0.43156 0.03175 0.56164
 N114 N 0.40275 0.05997 0.57274
 N115 N 0.46300 -0.06053 0.58329
 N116 N 0.45425 -0.09231 0.61266
 Mn117 Mn 0.50882 -0.01497 0.58823
 C118 C 0.41616 -0.10819 0.59776
 C119 C 0.41721 0.07337 0.61319
 N120 N 0.58511 -0.04021 0.45389
 N121 N 0.61516 -0.06586 0.43946
 N122 N 0.55327 0.05232 0.43358
 N123 N 0.56087 0.08421 0.40411
 N124 N 0.58503 0.04850 0.46304
 N125 N 0.61567 0.07740 0.45351
 N126 N 0.55422 -0.03590 0.42341
 N127 N 0.56243 -0.05804 0.38770
 Mn128 Mn 0.58608 -0.00228 0.50782
 C129 C 0.60015 -0.07699 0.39820
 C130 C 0.59954 0.09998 0.41715
 N131 N 0.43050 0.04449 0.46448
 N132 N 0.40008 0.07303 0.45728
 N133 N 0.46131 -0.03858 0.42384
 N134 N 0.45199 -0.06119 0.38836
 N135 N 0.43137 -0.04410 0.45502
 N136 N 0.40093 -0.07079 0.44151
 N137 N 0.46120 0.04983 0.43421
 N138 N 0.45294 0.08225 0.40598
 Mn139 Mn 0.43100 -0.00624 0.50849
 Mn140 Mn 0.50752 0.00693 0.42860
 Cl141 Cl 0.50843 -0.00425 0.50829
 C142 C 0.41502 0.09677 0.42103
 C143 C 0.41456 -0.08161 0.39999
 N144 N 0.43639 0.42382 0.04836
 N145 N 0.42515 0.39301 0.07812
 N146 N 0.40819 0.46133 -0.04595
 N147 N 0.37630 0.45493 -0.07488
 N148 N 0.43613 0.43041 -0.04704
 N149 N 0.42449 0.40270 -0.07731
 N150 N 0.40899 0.45520 0.04923
 N151 N 0.37889 0.44702 0.07997
 C152 C 0.38950 0.40829 0.09801
 C153 C 0.38740 0.41865 -0.09481
 N154 N 0.44678 0.58160 -0.04003
 N155 N 0.43782 0.61630 -0.06490
 N156 N 0.41505 0.54599 0.05241
 N157 N 0.38219 0.55797 0.07678
 N158 N 0.44744 0.57337 0.05501
 N159 N 0.43708 0.60461 0.08146
 N160 N 0.41522 0.55333 -0.04250
 N161 N 0.38411 0.56812 -0.06923
 Mn162 Mn 0.41169 0.50390 0.00310
 C163 C 0.39897 0.60718 -0.08355
 C164 C 0.39656 0.59401 0.09551
 N165 N 0.52826 0.42437 -0.04775
 N166 N 0.53650 0.39227 -0.07352
 N167 N 0.56247 0.44572 0.04705
 N168 N 0.59372 0.43130 0.07386
 N169 N 0.52993 0.41828 0.04705
 N170 N 0.53854 0.38443 0.07341
 N171 N 0.56075 0.45190 -0.04836
 N172 N 0.59195 0.43865 -0.07474
 Mn173 Mn 0.48261 0.42403 0.00033
 C174 C 0.57589 0.40174 -0.09088
 C175 C 0.57809 0.39329 0.09059
 N176 N 0.54122 0.56789 0.05360
 N177 N 0.55530 0.59704 0.08131
 N178 N 0.56724 0.54524 -0.04476
 N179 N 0.59846 0.55718 -0.07335
 N180 N 0.53931 0.57606 -0.04149
 N181 N 0.55056 0.60925 -0.06782
 N182 N 0.56991 0.53775 0.05027
 N183 N 0.60420 0.54604 0.07541
 Mn184 Mn 0.49379 0.57483 0.00698
 Mn185 Mn 0.56544 0.49516 0.00085
 Cl186 Cl 0.48850 0.49952 0.00282
 C187 C 0.59430 0.58266 0.09533
 C188 C 0.58712 0.59704 -0.08802
 C189 C 1.16959 0.18752 0.25924
 C190 C 1.20320 0.20939 0.23590
 C191 C 1.20615 0.20663 0.18875
 C192 C 1.17716 0.18074 0.16539
 C193 C 1.14414 0.15779 0.18930
 C194 C 1.14033 0.16185 0.23621
 C195 C 1.11615 0.13060 0.16603
 C196 C 1.12157 0.12547 0.11938
 C197 C 1.15383 0.14925 0.09583
 C198 C 1.18121 0.17684 0.11855
 H199 H 1.23104 0.22422 0.17002
 H200 H 1.11493 0.14500 0.25510
 H201 H 1.09145 0.11224 0.18446
 H202 H 1.20619 0.19434 0.09966
 H203 H 1.16530 0.19075 0.29521
 H204 H 1.15842 0.14596 0.05978
 C205 C 1.15703 0.70070 0.73518
 C206 C 1.19461 0.71709 0.71411
 C207 C 1.20309 0.70861 0.66890
 C208 C 1.17425 0.68344 0.64474
 C209 C 1.13654 0.66659 0.66623
 C210 C 1.12802 0.67569 0.71133
 C211 C 1.10874 0.63980 0.64276
 C212 C 1.11858 0.62896 0.59843
 C213 C 1.15537 0.64679 0.57683
 C214 C 1.18297 0.67399 0.59979
 H215 H 1.23244 0.72068 0.65277
 H216 H 1.09935 0.66295 0.72832
 H217 H 1.08040 0.62611 0.65963
 H218 H 1.21161 0.68681 0.58279
 H219 H 1.15035 0.70693 0.77026
 H220 H 1.16338 0.63891 0.54253
 C221 C 0.74001 0.19357 0.69061
 C222 C 0.71442 0.21598 0.72039
 C223 C 0.66960 0.20862 0.72102
 C224 C 0.65081 0.17814 0.69300
 C225 C 0.67704 0.15595 0.66303
 C226 C 0.72155 0.16412 0.66199
 C227 C 0.65850 0.12548 0.63508
 C228 C 0.61421 0.11571 0.63776
 C229 C 0.58836 0.13765 0.66778
 C230 C 0.60637 0.16895 0.69476
 H231 H 0.64940 0.22613 0.74320
 H232 H 0.74219 0.14751 0.63927
 H233 H 0.67874 0.10838 0.61238
 H234 H 0.58569 0.18544 0.71753
 H235 H 0.77449 0.19929 0.68877
 H236 H 0.55408 0.13060 0.67035
 C237 C 0.65513 0.72319 0.22354
 C238 C 0.69968 0.71853 0.21739
 C239 C 0.71438 0.68723 0.18888
 C240 C 0.68487 0.66030 0.16724
 C241 C 0.64000 0.66591 0.17270
 C242 C 0.62551 0.69744 0.20098
 C243 C 0.61046 0.64003 0.14967
 C244 C 0.62518 0.60786 0.12216
 C245 C 0.66982 0.60155 0.11831
 C246 C 0.69941 0.62779 0.14027
 H247 H 0.74879 0.68344 0.18418
 H248 H 0.59126 0.70202 0.20587
 H249 H 0.57608 0.64495 0.15308
 H250 H 0.73367 0.62279 0.13599
 H251 H 0.64299 0.74679 0.24559
 H252 H 0.68192 0.57710 0.09715
 C253 C 0.74867 -0.18603 0.17246
 C254 C 0.77032 -0.21428 0.20246
 C255 C 0.81547 -0.21693 0.19959
 C256 C 0.83911 -0.18849 0.17108
 C257 C 0.81721 -0.15882 0.14238
 C258 C 0.77188 -0.15861 0.14247
 C259 C 0.84108 -0.12933 0.11502
 C260 C 0.88646 -0.12807 0.11763
 C261 C 0.90784 -0.15782 0.14612
 C262 C 0.88440 -0.18827 0.17208
 H263 H 0.83278 -0.24032 0.22000
 H264 H 0.75445 -0.13652 0.12022
 H265 H 0.82438 -0.10619 0.09332
 H266 H 0.90165 -0.21078 0.19401
 H267 H 0.71381 -0.18491 0.17224
 H268 H 0.94277 -0.15740 0.14838
 C269 C 0.75732 0.30165 0.67446
 C270 C 0.77578 0.28780 0.71585
 C271 C 0.81843 0.29957 0.72613
 C272 C 0.84291 0.32433 0.69467
 C273 C 0.82420 0.33776 0.65275
 C274 C 0.78141 0.32623 0.64296
 C275 C 0.84822 0.36331 0.62172
 C276 C 0.89054 0.37623 0.63222
 C277 C 0.90917 0.36224 0.67362
 C278 C 0.88556 0.33639 0.70459
 H279 H 0.83235 0.29015 0.75869
 H280 H 0.76648 0.33652 0.61115
 H281 H 0.83351 0.37405 0.58993
 H282 H 0.90044 0.32633 0.73650
 H283 H 0.72414 0.29342 0.66644
 H284 H 0.94179 0.37184 0.68238
 C285 C 0.24932 -0.19287 0.67307
 C286 C 0.26848 -0.21942 0.70661
 C287 C 0.31365 -0.22157 0.70908
 C288 C 0.33944 -0.19575 0.67972
 C289 C 0.31971 -0.16870 0.64645
 C290 C 0.27465 -0.16794 0.64301
 C291 C 0.34525 -0.14193 0.61802
 C292 C 0.39025 -0.14058 0.62349
 C293 C 0.40977 -0.16783 0.65622
 C294 C 0.38458 -0.19563 0.68378
 H295 H 0.32893 -0.24264 0.73396
 H296 H 0.25899 -0.14755 0.61759
 H297 H 0.32992 -0.12069 0.59312
 H298 H 0.40030 -0.21611 0.70908
 H299 H 0.21463 -0.19151 0.66966
 H300 H 0.44448 -0.16722 0.66088
 C301 C 0.30843 0.25059 0.20025
 C302 C 0.27967 0.27271 0.22694
 C303 C 0.27915 0.31733 0.22328
 C304 C 0.30727 0.33978 0.19339
 C305 C 0.33667 0.31734 0.16709
 C306 C 0.33695 0.27270 0.17077
 C307 C 0.36470 0.33991 0.13704
 C308 C 0.36283 0.38451 0.13214
 C309 C 0.33347 0.40644 0.15839
 C310 C 0.30617 0.38432 0.18902
 H311 H 0.25676 0.33472 0.24332
 H312 H 0.35902 0.25491 0.15072
 H313 H 0.38695 0.32273 0.11654
 H314 H 0.28382 0.40201 0.20886
 H315 H 0.30904 0.21611 0.20255
 H316 H 0.33153 0.44083 0.15511
 C317 C 0.76504 0.21698 -0.15711
 C318 C 0.77693 0.22401 -0.20267
 C319 C 0.81442 0.20517 -0.21853
 C320 C 0.83989 0.17958 -0.18940
 C321 C 0.82730 0.17177 -0.14377
 C322 C 0.78993 0.19092 -0.12787
 C323 C 0.85201 0.14455 -0.11519
 C324 C 0.88935 0.12555 -0.13169
 C325 C 0.90212 0.13473 -0.17675
 C326 C 0.87753 0.16130 -0.20539
 H327 H 0.82395 0.21037 -0.25361
 H328 H 0.77978 0.18546 -0.09298
 H329 H 0.84200 0.13788 -0.08041
 H330 H 0.88775 0.16721 -0.24022
 H331 H 0.73615 0.23095 -0.14418
 H332 H 0.93072 0.12057 -0.19028
 C333 C 0.81297 0.74112 0.30249
 C334 C 0.77847 0.72055 0.28091
 C335 C 0.77259 0.67643 0.28754
 C336 C 0.80183 0.65282 0.31440
 C337 C 0.83762 0.67365 0.33433
 C338 C 0.84277 0.71782 0.32834
 C339 C 0.86730 0.65001 0.36046
 C340 C 0.86084 0.60618 0.36793
 C341 C 0.82495 0.58567 0.34909
 C342 C 0.79574 0.60880 0.32206
 H343 H 0.74509 0.66052 0.27266
 H344 H 0.86954 0.73438 0.34399
 H345 H 0.89498 0.66565 0.37556
 H346 H 0.76840 0.59236 0.30735
 H347 H 0.81699 0.77543 0.29902
 H348 H 0.81987 0.55168 0.35493
 C349 C 0.25301 0.18475 0.34267
 C350 C 0.27422 0.20955 0.30865
 C351 C 0.31945 0.21062 0.30753
 C352 C 0.34327 0.18511 0.33817
 C353 C 0.32164 0.15886 0.37125
 C354 C 0.27649 0.15941 0.37367
 C355 C 0.34549 0.13178 0.40050
 C356 C 0.39050 0.12989 0.39605
 C357 C 0.41177 0.15707 0.36404
 C358 C 0.38838 0.18474 0.33555
 H359 H 0.33644 0.23108 0.28298
 H360 H 0.25935 0.13999 0.39919
 H361 H 0.32888 0.11074 0.42502
 H362 H 0.40545 0.20486 0.31057
 H363 H 0.21832 0.18504 0.34575
 H364 H 0.44653 0.15619 0.36030
 C365 C 0.25393 0.66774 -0.21405
 C366 C 0.26370 0.71158 -0.21445
 C367 C 0.29775 0.72623 -0.18739
 C368 C 0.32295 0.69714 -0.16170
 C369 C 0.31265 0.65311 -0.16158
 C370 C 0.27783 0.63884 -0.18750
 C371 C 0.33760 0.62394 -0.13598
 C372 C 0.37348 0.63799 -0.11125
 C373 C 0.38402 0.68171 -0.11210
 C374 C 0.35873 0.71110 -0.13679
 H375 H 0.30546 0.76002 -0.18749
 H376 H 0.26957 0.60521 -0.18793
 H377 H 0.32937 0.59025 -0.13572
 H378 H 0.36732 0.74467 -0.13664
 H379 H 0.22809 0.65530 -0.23457
 H380 H 0.41144 0.69327 -0.09306
 C381 C 1.16466 -0.19357 -0.24685
 C382 C 1.19881 -0.21326 -0.22308
 C383 C 1.20530 -0.20539 -0.17720
 C384 C 1.17835 -0.17717 -0.15547
 C385 C 1.14426 -0.15713 -0.17989
 C386 C 1.13760 -0.16575 -0.22549
 C387 C 1.11774 -0.12840 -0.15851
 C388 C 1.12537 -0.11876 -0.11323
 C389 C 1.15895 -0.13915 -0.08903
 C390 C 1.18509 -0.16828 -0.10989
 H391 H 1.23123 -0.22087 -0.15851
 H392 H 1.11150 -0.15097 -0.24466
 H393 H 1.09204 -0.11267 -0.17746
 H394 H 1.21093 -0.18335 -0.09058
 H395 H 1.15815 -0.20028 -0.28187
 H396 H 1.16533 -0.13225 -0.05396
 C397 C 1.23470 0.30075 0.33658
 C398 C 1.21334 0.28112 0.30092
 C399 C 1.17035 0.29089 0.29081
 C400 C 1.14844 0.31992 0.31664
 C401 C 1.16995 0.33938 0.35294
 C402 C 1.21309 0.32960 0.36263
 C403 C 1.14819 0.36875 0.37846
 C404 C 1.10541 0.37940 0.36778
 C405 C 1.08420 0.35977 0.33187
 C406 C 1.10551 0.33012 0.30656
 H407 H 1.15405 0.27642 0.26267
 H408 H 1.23012 0.34439 0.39014
 H409 H 1.16483 0.38393 0.40600
 H410 H 1.08857 0.31548 0.27889
 H411 H 1.26811 0.29373 0.34434
 H412 H 1.05116 0.36754 0.32315
 C413 C 0.72051 -0.21772 0.33467
 C414 C 0.71269 -0.21197 0.28780
 C415 C 0.68410 -0.18029 0.27254
 C416 C 0.66398 -0.15438 0.30353
 C417 C 0.67313 -0.15965 0.35045
 C418 C 0.70141 -0.19149 0.36560
 C419 C 0.65315 -0.13360 0.38146
 C420 C 0.62312 -0.10328 0.36616
 C421 C 0.61388 -0.09862 0.31952
 C422 C 0.63442 -0.12363 0.28844
 H423 H 0.67672 -0.17626 0.23681
 H424 H 0.70832 -0.19653 0.40145
 H425 H 0.66004 -0.13767 0.41743
 H426 H 0.62684 -0.11921 0.25268
 H427 H 0.74106 -0.24270 0.34804
 H428 H 0.59087 -0.07532 0.30696
 C429 C 0.71982 0.33781 -0.21576
 C430 C 0.70804 0.29434 -0.21342
 C431 C 0.67224 0.28105 -0.18712
 C432 C 0.64799 0.31100 -0.16427
 C433 C 0.66056 0.35457 -0.16646
 C434 C 0.69652 0.36755 -0.19241
 C435 C 0.63714 0.38435 -0.14249
 C436 C 0.60058 0.37126 -0.11724
 C437 C 0.58780 0.32802 -0.11623
 C438 C 0.61146 0.29815 -0.13910
 H439 H 0.66347 0.24755 -0.18407
 H440 H 0.70673 0.40073 -0.19458
 H441 H 0.64715 0.41761 -0.14371
 H442 H 0.60113 0.26500 -0.13711
 H443 H 0.74766 0.34912 -0.23500
 H444 H 0.55982 0.31701 -0.09690
 C445 C 1.25543 0.19587 -0.18454
 C446 C 1.23232 0.21873 -0.21831
 C447 C 1.18703 0.21751 -0.21718
 C448 C 1.16508 0.19110 -0.18514
 C449 C 1.18860 0.16669 -0.15243
 C450 C 1.23381 0.16999 -0.15188
 C451 C 1.16652 0.13864 -0.12177
 C452 C 1.12140 0.13387 -0.12460
 C453 C 1.09837 0.15908 -0.15653
 C454 C 1.11994 0.18778 -0.18622
 H455 H 1.16851 0.23643 -0.24139
 H456 H 1.25245 0.15208 -0.12669
 H457 H 1.18452 0.11910 -0.09739
 H458 H 1.10142 0.20637 -0.21097
 H459 H 1.29025 0.19801 -0.18316
 H460 H 1.06356 0.15601 -0.15909
 C461 C 1.23950 0.67359 0.28618
 C462 C 1.22665 0.71641 0.28292
 C463 C 1.18755 0.72734 0.30348
 C464 C 1.15983 0.69550 0.32260
 C465 C 1.17305 0.65264 0.32458
 C466 C 1.21315 0.64217 0.30697
 C467 C 1.14627 0.62091 0.34478
 C468 C 1.10577 0.63109 0.36189
 C469 C 1.09196 0.67339 0.35871
 C470 C 1.11901 0.70553 0.33953
 H471 H 1.17815 0.76042 0.30372
 H472 H 1.22399 0.60952 0.30878
 H473 H 1.15709 0.58824 0.34774
 H474 H 1.10814 0.73817 0.33813
 H475 H 1.27012 0.66379 0.27300
 H476 H 1.06106 0.68173 0.37261
 C477 C 0.75230 0.18171 0.30900
 C478 C 0.72850 0.21259 0.28442
 C479 C 0.68458 0.21726 0.29411
 C480 C 0.66423 0.19029 0.32702
 C481 C 0.68839 0.15900 0.35145
 C482 C 0.73252 0.15523 0.34236
 C483 C 0.66773 0.13124 0.38350
 C484 C 0.62295 0.13342 0.39006
 C485 C 0.59939 0.16491 0.36602
 C486 C 0.61991 0.19349 0.33525
 H487 H 0.66613 0.24165 0.27620
 H488 H 0.75162 0.13152 0.36067
 H489 H 0.68594 0.10654 0.40138
 H490 H 0.60086 0.21722 0.31689
 H491 H 0.78641 0.17816 0.30264
 H492 H 0.56478 0.16691 0.37050
 C493 C 0.73987 0.65754 -0.21170
 C494 C 0.72993 0.70106 -0.21387
 C495 C 0.69291 0.71465 -0.19186
 C496 C 0.66616 0.68527 -0.16774
 C497 C 0.67688 0.64163 -0.16481
 C498 C 0.71373 0.62810 -0.18718
 C499 C 0.65079 0.61247 -0.13927
 C500 C 0.61387 0.62647 -0.11711
 C501 C 0.60303 0.66978 -0.12137
 C502 C 0.62900 0.69891 -0.14621
 H503 H 0.68495 0.74815 -0.19342
 H504 H 0.72244 0.59481 -0.18559
 H505 H 0.65934 0.57914 -0.13640
 H506 H 0.62017 0.73217 -0.14831
 H507 H 0.76812 0.64606 -0.22843
 H508 H 0.57476 0.68146 -0.10469
 C509 C 0.77741 -0.21764 -0.16100
 C510 C 0.79437 -0.22426 -0.20415
 C511 C 0.83283 -0.20329 -0.21745
 C512 C 0.85394 -0.17555 -0.18834
 C513 C 0.83622 -0.16819 -0.14531
 C514 C 0.79803 -0.18968 -0.13188
 C515 C 0.85690 -0.13934 -0.11673
 C516 C 0.89526 -0.11818 -0.13069
 C517 C 0.91288 -0.12659 -0.17321
 C518 C 0.89239 -0.15482 -0.20178
 H519 H 0.84643 -0.20856 -0.25048
 H520 H 0.78401 -0.18476 -0.09897
 H521 H 0.84313 -0.13328 -0.08396
 H522 H 0.90652 -0.16023 -0.23454
 H523 H 0.74803 -0.23359 -0.14965
 H524 H 0.94241 -0.11082 -0.18485
 C525 C 0.83371 0.29765 0.24833
 C526 C 0.79843 0.27899 0.27182
 C527 C 0.79297 0.28637 0.31791
 C528 C 0.82197 0.31297 0.34030
 C529 C 0.85710 0.33236 0.31635
 C530 C 0.86302 0.32400 0.27048
 C531 C 0.88474 0.36085 0.33828
 C532 C 0.87717 0.37063 0.38357
 C533 C 0.84289 0.35022 0.40732
 C534 C 0.81561 0.32154 0.38594
 H535 H 0.76541 0.27264 0.33608
 H536 H 0.88966 0.33861 0.25152
 H537 H 0.91108 0.37647 0.31967
 H538 H 0.78895 0.30682 0.40480
 H539 H 0.83800 0.29260 0.21257
 H540 H 0.83658 0.35706 0.44232
 C541 C 0.27524 -0.21199 0.33847
 C542 C 0.28632 -0.21080 0.29221
 C543 C 0.31994 -0.18314 0.27711
 C544 C 0.34287 -0.15811 0.30752
 C545 C 0.33137 -0.15935 0.35383
 C546 C 0.29726 -0.18623 0.36887
 C547 C 0.35460 -0.13416 0.38421
 C548 C 0.38975 -0.10855 0.36882
 C549 C 0.40110 -0.10817 0.32274
 C550 C 0.37773 -0.13243 0.29234
 H551 H 0.33003 -0.18240 0.24209
 H552 H 0.28802 -0.18784 0.40429
 H553 H 0.34571 -0.13488 0.41974
 H554 H 0.38713 -0.13130 0.25696
 H555 H 0.24982 -0.23290 0.35167
 H556 H 0.42790 -0.08865 0.30996
 C557 C 0.34284 0.28745 -0.23860
 C558 C 0.29785 0.28822 -0.23362
 C559 C 0.27955 0.31680 -0.20422
 C560 C 0.30598 0.34417 -0.17950
 C561 C 0.35139 0.34182 -0.18311
 C562 C 0.36947 0.31370 -0.21312
 C563 C 0.37789 0.36713 -0.15613
 C564 C 0.35960 0.39553 -0.12644
 C565 C 0.31453 0.39924 -0.12475
 C566 C 0.28787 0.37343 -0.15075
 H567 H 0.24475 0.31761 -0.20053
 H568 H 0.40420 0.31188 -0.21675
 H569 H 0.41271 0.36444 -0.15783
 H570 H 0.25314 0.37593 -0.14791
 H571 H 0.35766 0.26631 -0.26167
 H572 H 0.29986 0.42087 -0.10195
 C573 C 1.25406 -0.18463 0.18221
 C574 C 1.23107 -0.21260 0.21221
 C575 C 1.18574 -0.21456 0.20836
 C576 C 1.16372 -0.18598 0.17895
 C577 C 1.18727 -0.15677 0.15052
 C578 C 1.23247 -0.15707 0.15169
 C579 C 1.16521 -0.12735 0.12204
 C580 C 1.11990 -0.12573 0.12303
 C581 C 1.09677 -0.15508 0.15119
 C582 C 1.11844 -0.18538 0.17840
 H583 H 1.16694 -0.23777 0.22796
 H584 H 1.25117 -0.13549 0.12954
 H585 H 1.18331 -0.10460 0.10061
 H586 H 1.09982 -0.20754 0.19999
 H587 H 1.28891 -0.18410 0.18166
 H588 H 1.06182 -0.15444 0.15230
 C589 C 1.19024 0.25907 0.67605
 C590 C 1.22272 0.28100 0.69936
 C591 C 1.22527 0.32558 0.69470
 C592 C 1.19479 0.34819 0.66835
 C593 C 1.16145 0.32588 0.64597
 C594 C 1.15970 0.28127 0.64978
 C595 C 1.13065 0.34860 0.62004
 C596 C 1.13318 0.39316 0.61608
 C597 C 1.16646 0.41508 0.63796
 C598 C 1.19702 0.39278 0.66408
 H599 H 1.25081 0.34287 0.71142
 H600 H 1.13467 0.26359 0.63259
 H601 H 1.10503 0.33179 0.60274
 H602 H 1.22237 0.41038 0.68087
 H603 H 1.18825 0.22460 0.67867
 H604 H 1.16871 0.44953 0.63482
 C605 C 0.75976 -0.19287 0.68754
 C606 C 0.73660 -0.22410 0.71324
 C607 C 0.69177 -0.22796 0.70706
 C608 C 0.66995 -0.19935 0.67745
 C609 C 0.69346 -0.16752 0.65219
 C610 C 0.73848 -0.16500 0.65705
 C611 C 0.67142 -0.13807 0.62361
 C612 C 0.62607 -0.13907 0.62148
 C613 C 0.60311 -0.17102 0.64645
 C614 C 0.62484 -0.20127 0.67366
 H615 H 0.67360 -0.25266 0.72553
 H616 H 0.75714 -0.14094 0.63795
 H617 H 0.68932 -0.11316 0.60491
 H618 H 0.60627 -0.22537 0.69279
 H619 H 0.79444 -0.18987 0.69108
 H620 H 0.56814 -0.17229 0.64526
 C621 C 0.73156 0.33058 0.20888
 C622 C 0.72033 0.28705 0.21110
 C623 C 0.68199 0.27346 0.19022
 C624 C 0.65528 0.30307 0.16717
 C625 C 0.66756 0.34665 0.16426
 C626 C 0.70562 0.36006 0.18545
 C627 C 0.64183 0.37609 0.13989
 C628 C 0.60356 0.36271 0.11876
 C629 C 0.59088 0.31955 0.12295
 C630 C 0.61663 0.28993 0.14673
 H631 H 0.67293 0.23996 0.19202
 H632 H 0.71541 0.39336 0.18382
 H633 H 0.65176 0.40935 0.13711
 H634 H 0.60651 0.25673 0.14880
 H635 H 0.76066 0.34220 0.22478
 H636 H 0.56152 0.30846 0.10690
 C637 C 0.76621 0.20470 0.15838
 C638 C 0.78447 0.21382 0.20055
 C639 C 0.82457 0.19676 0.21271
 C640 C 0.84648 0.17094 0.18319
 C641 C 0.82789 0.16131 0.14091
 C642 C 0.78767 0.17850 0.12881
 C643 C 0.84975 0.13450 0.11185
 C644 C 0.88997 0.11753 0.12478
 C645 C 0.90824 0.12820 0.16660
 C646 C 0.88672 0.15449 0.19552
 H647 H 0.83895 0.20369 0.24517
 H648 H 0.77283 0.17167 0.09656
 H649 H 0.83539 0.12657 0.07968
 H650 H 0.90148 0.16175 0.22771
 H651 H 0.73532 0.21753 0.14823
 H652 H 0.93918 0.11574 0.17745
 C653 C 0.84326 0.69372 0.74655
 C654 C 0.80713 0.71078 0.72392
 C655 C 0.80025 0.70268 0.67815
 C656 C 0.82871 0.67696 0.65519
 C657 C 0.86484 0.65926 0.67819
 C658 C 0.87210 0.66832 0.72379
 C659 C 0.89208 0.63173 0.65560
 C660 C 0.88295 0.62114 0.61071
 C661 C 0.84755 0.63983 0.58803
 C662 C 0.82083 0.66762 0.60994
 H663 H 0.77204 0.71521 0.66069
 H664 H 0.89948 0.65502 0.74209
 H665 H 0.91920 0.61733 0.67344
 H666 H 0.79339 0.68103 0.59180
 H667 H 0.84868 0.69937 0.78208
 H668 H 0.84003 0.63239 0.55335
 C669 C 0.28600 0.21321 0.65375
 C670 C 0.29351 0.21433 0.70066
 C671 C 0.32519 0.18793 0.72049
 C672 C 0.34865 0.16036 0.69401
 C673 C 0.33978 0.15854 0.64711
 C674 C 0.30855 0.18527 0.62729
 C675 C 0.36237 0.13015 0.62083
 C676 C 0.39437 0.10410 0.64064
 C677 C 0.40377 0.10695 0.68704
 C678 C 0.38090 0.13462 0.71358
 H679 H 0.33226 0.18926 0.75629
 H680 H 0.30171 0.18473 0.59128
 H681 H 0.35519 0.12848 0.58495
 H682 H 0.38836 0.13580 0.74942
 H683 H 0.26276 0.23387 0.63710
 H684 H 0.42831 0.08717 0.70301
 C685 C 0.34215 0.72561 0.23433
 C686 C 0.29821 0.72705 0.22216
 C687 C 0.28327 0.70247 0.18651
 C688 C 0.31149 0.67627 0.16384
 C689 C 0.35584 0.67584 0.17547
 C690 C 0.37086 0.70091 0.21058
 C691 C 0.38406 0.64950 0.15256
 C692 C 0.36793 0.62241 0.11964
 C693 C 0.32366 0.62258 0.10905
 C694 C 0.29579 0.64966 0.13048
 H695 H 0.24926 0.70247 0.17748
 H696 H 0.40456 0.70046 0.22056
 H697 H 0.41814 0.64922 0.16110
 H698 H 0.26185 0.64938 0.12136
 H699 H 0.35457 0.74252 0.26283
 H700 H 0.31063 0.60215 0.08351
   
