data_POSCAR
  _audit_creation_date              2014-09-24
  _audit_creation_method            'ToBaCCo'
  _symmetry_space_group_name_H-M    'P1'
  _symmetry_Int_Tables_number       1
  _symmetry_cell_setting            triclinic
  loop_
  _symmetry_equiv_pos_as_xyz
 x,y,z
_cell_length_a 53.3447
_cell_length_b 53.3837
_cell_length_c 15.7305
_cell_angle_alpha 90.085800
_cell_angle_beta 90.001000
_cell_angle_gamma 119.881500
loop_
  _atom_site_label
  _atom_site_type_symbol
  _atom_site_fract_x
  _atom_site_fract_y
  _atom_site_fract_z
C1 C 0.21868 0.48395 0.45735
 C2 C 0.21889 0.48403 0.54723
 C3 C 0.24181 0.48407 0.59113
 C4 C 0.26453 0.48400 0.54664
 C5 C 0.26431 0.48396 0.45694
 C6 C 0.24146 0.48395 0.41301
 H7 H 0.24142 0.48386 0.34400
 H8 H 0.24191 0.48407 0.66018
 C9 C 0.51593 -0.26495 0.45544
 C10 C 0.51583 -0.26474 0.54515
 C11 C 0.51582 -0.24187 0.58900
 C12 C 0.51593 -0.21910 0.54445
 C13 C 0.51600 -0.21933 0.45474
 C14 C 0.51598 -0.24222 0.41091
 H15 H 0.51609 -0.24224 0.34190
 H16 H 0.51581 -0.24181 0.65800
 C17 C 1.26519 0.78146 0.45215
 C18 C 1.26497 0.78125 0.54188
 C19 C 1.24216 0.75841 0.58559
 C20 C 1.21949 0.73573 0.54093
 C21 C 1.21970 0.73592 0.45136
 C22 C 1.24251 0.75872 0.40752
 H23 H 1.24251 0.75875 0.33852
 H24 H 1.24202 0.75832 0.65455
 C25 C 0.78071 0.51596 0.45905
 C26 C 0.78068 0.51576 0.54876
 C27 C 0.75785 0.51565 0.59325
 C28 C 0.73505 0.51577 0.54925
 C29 C 0.73510 0.51594 0.45954
 C30 C 0.75790 0.51601 0.41516
 H31 H 0.75793 0.51620 0.34619
 H32 H 0.75786 0.51556 0.66229
 C33 C 0.48377 0.26471 0.45965
 C34 C 0.48388 0.26481 0.54937
 C35 C 0.48395 0.24207 0.59367
 C36 C 0.48389 0.21921 0.54949
 C37 C 0.48382 0.21917 0.45977
 C38 C 0.48378 0.24191 0.41558
 H39 H 0.48367 0.24181 0.34661
 H40 H 0.48397 0.24212 0.66272
 C41 C 0.73598 0.21947 0.45631
 C42 C 0.73599 0.21950 0.54588
 C43 C 0.75872 0.24224 0.59030
 C44 C 0.78153 0.26498 0.54625
 C45 C 0.78149 0.26496 0.45651
 C46 C 0.75872 0.24221 0.41223
 H47 H 0.75873 0.24217 0.34326
 H48 H 0.75866 0.24213 0.65930
 N49 N 1.03091 0.47108 0.09063
 N50 N 1.05224 0.46570 0.10366
 N51 N 0.97005 0.45814 0.14966
 N52 N 0.94873 0.44395 0.20404
 N53 N 0.97004 0.44063 0.09091
 N54 N 0.94871 0.41401 0.10362
 N55 N 1.03088 0.48859 0.14934
 N56 N 1.05218 0.49562 0.20394
 C57 C 1.06530 0.48126 0.17428
 C58 C 0.93566 0.41657 0.17414
 N59 N 0.96965 0.52924 0.08975
 N60 N 0.94824 0.53453 0.10237
 N61 N 1.03059 0.54241 0.14839
 N62 N 1.05210 0.55679 0.20215
 N63 N 1.03047 0.55967 0.08920
 N64 N 1.05190 0.58631 0.10097
 N65 N 0.96981 0.51198 0.14891
 N66 N 0.94853 0.50503 0.20341
 Mn67 Mn 1.00034 0.50029 0.15002
 C68 C 0.93530 0.51918 0.17322
 C69 C 1.06513 0.58402 0.17139
 N70 N 0.96980 0.44025 -0.09231
 N71 N 0.94844 0.41358 -0.10446
 N72 N 1.03048 0.48798 -0.15182
 N73 N 1.05195 0.49515 -0.20572
 N74 N 1.03062 0.47072 -0.09259
 N75 N 1.05219 0.46566 -0.10450
 N76 N 0.96968 0.45753 -0.15149
 N77 N 0.94826 0.44311 -0.20556
 Mn78 Mn 1.00034 0.45538 -0.00086
 C79 C 0.93524 0.41583 -0.17507
 C80 C 1.06523 0.48111 -0.17504
 N81 N 1.03036 0.55941 -0.09401
 N82 N 1.05163 0.58605 -0.10702
 N83 N 0.96950 0.51141 -0.15225
 N84 N 0.94800 0.50415 -0.20621
 N85 N 0.96950 0.52891 -0.09346
 N86 N 0.94799 0.53405 -0.10573
 N87 N 1.03035 0.54189 -0.15275
 N88 N 1.05161 0.55611 -0.20737
 Mn89 Mn 0.99999 0.54460 -0.00213
 Mn90 Mn 1.00000 0.49970 -0.15304
 Cl91 Cl 1.00017 0.49999 -0.00150
 C92 C 1.06467 0.58354 -0.17769
 C93 C 0.93482 0.51837 -0.17602
 N94 N 0.54176 0.51165 0.15130
 N95 N 0.55600 0.50457 0.20578
 N96 N 0.52877 0.55951 0.09218
 N97 N 0.53412 0.58620 0.10503
 N98 N 0.51130 0.54211 0.15093
 N99 N 0.50428 0.55645 0.20538
 N100 N 0.55923 0.52903 0.09253
 N101 N 0.58588 0.53427 0.10534
 C102 C 0.58339 0.51878 0.17593
 C103 C 0.51859 0.58382 0.17559
 N104 N 0.51162 0.54200 -0.15022
 N105 N 0.50444 0.55627 -0.20424
 N106 N 0.55943 0.52896 -0.09068
 N107 N 0.58610 0.53416 -0.10276
 N108 N 0.54208 0.51157 -0.14986
 N109 N 0.55646 0.50446 -0.20386
 N110 N 0.52895 0.55939 -0.09103
 N111 N 0.53406 0.58599 -0.10307
 Mn112 Mn 0.54439 0.54451 0.00073
 C113 C 0.51855 0.58356 -0.17365
 C114 C 0.58378 0.51864 -0.17333
 N115 N 0.45745 0.48820 0.15010
 N116 N 0.44311 0.49534 0.20408
 N117 N 0.47054 0.44035 0.09148
 N118 N 0.46525 0.41370 0.10409
 N119 N 0.48788 0.45777 0.15062
 N120 N 0.49488 0.44347 0.20511
 N121 N 0.44010 0.47081 0.09095
 N122 N 0.41344 0.46561 0.10299
 Mn123 Mn 0.49959 0.49993 0.15168
 C124 C 0.41581 0.48115 0.17350
 C125 C 0.48068 0.41612 0.17493
 N126 N 0.48814 0.45772 -0.15055
 N127 N 0.49535 0.44342 -0.20452
 N128 N 0.44018 0.47079 -0.09226
 N129 N 0.41352 0.46556 -0.10508
 N130 N 0.45765 0.48818 -0.15105
 N131 N 0.44337 0.49525 -0.20551
 N132 N 0.47068 0.44034 -0.09174
 N133 N 0.46552 0.41371 -0.10401
 Mn134 Mn 0.49988 0.49987 -0.15139
 Mn135 Mn 0.45508 0.45528 -0.00039
 Cl136 Cl 0.49974 0.49990 0.00015
 C137 C 0.48113 0.41610 -0.17432
 C138 C 0.41597 0.48105 -0.17570
 N139 N 0.44049 -0.03036 0.09122
 N140 N 0.41381 -0.05165 0.10386
 N141 N 0.48838 0.03036 0.15064
 N142 N 0.49548 0.05167 0.20522
 N143 N 0.47094 0.03047 0.09189
 N144 N 0.46567 0.05185 0.10481
 N145 N 0.45795 -0.03043 0.14997
 N146 N 0.44366 -0.05176 0.20421
 C147 C 0.41626 -0.06479 0.17430
 C148 C 0.48122 0.06484 0.17544
 N149 N 0.55973 0.03031 0.09072
 N150 N 0.58640 0.05165 0.10325
 N151 N 0.51194 -0.03045 0.14909
 N152 N 0.50482 -0.05190 0.20289
 N153 N 0.52930 -0.03047 0.08991
 N154 N 0.53451 -0.05193 0.10175
 N155 N 0.54235 0.03029 0.14989
 N156 N 0.55667 0.05161 0.20432
 Mn157 Mn 0.50016 -0.00006 0.15085
 C158 C 0.58401 0.06470 0.17408
 C159 C 0.51900 -0.06505 0.17218
 N160 N 0.47088 0.03068 -0.09132
 N161 N 0.46564 0.05212 -0.10330
 N162 N 0.45786 -0.03008 -0.15119
 N163 N 0.44357 -0.05147 -0.20536
 N164 N 0.44049 -0.03010 -0.09199
 N165 N 0.41386 -0.05151 -0.10420
 N166 N 0.48825 0.03067 -0.15051
 N167 N 0.49532 0.05210 -0.20440
 Mn168 Mn 0.45540 0.00017 -0.00006
 C169 C 0.48111 0.06526 -0.17380
 C170 C 0.41628 -0.06458 -0.17488
 N171 N 0.52919 -0.03042 -0.09330
 N172 N 0.53446 -0.05183 -0.10629
 N173 N 0.54217 0.03048 -0.15126
 N174 N 0.55643 0.05189 -0.20522
 N175 N 0.55962 0.03040 -0.09249
 N176 N 0.58626 0.05175 -0.10478
 N177 N 0.51175 -0.03032 -0.15207
 N178 N 0.50467 -0.05163 -0.20669
 Mn179 Mn 0.54476 -0.00005 -0.00129
 Mn180 Mn 0.50001 0.00019 -0.15222
 Cl181 Cl 0.50008 0.00006 -0.00068
 C182 C 0.51893 -0.06483 -0.17699
 C183 C 0.58380 0.06492 -0.17505
 C184 C 1.19658 0.48371 0.41226
 C185 C 1.17691 0.48344 0.37349
 C186 C 1.15366 0.48305 0.32920
 C187 C 1.13365 0.48268 0.29227
 C188 C 1.11002 0.48220 0.25002
 C189 C 1.08969 0.48178 0.21490
 C190 C 0.51614 0.71309 0.41093
 C191 C 0.51639 0.69360 0.37264
 C192 C 0.51676 0.67063 0.32892
 C193 C 0.51712 0.65091 0.29245
 C194 C 0.51760 0.62767 0.25070
 C195 C 0.51804 0.60773 0.21592
 C196 C 0.28710 -0.19642 0.40777
 C197 C 0.30656 -0.17670 0.36970
 C198 C 0.32952 -0.15338 0.32630
 C199 C 0.34923 -0.13331 0.29015
 C200 C 0.37245 -0.10960 0.24878
 C201 C 0.39238 -0.08923 0.21432
 C202 C 0.80399 0.51631 0.41095
 C203 C 0.82363 0.51666 0.37195
 C204 C 0.84686 0.51715 0.32749
 C205 C 0.86687 0.51760 0.29052
 C206 C 0.89052 0.51816 0.24839
 C207 C 0.91087 0.51863 0.21347
 C208 C 0.48348 0.28767 0.41175
 C209 C 0.48316 0.30698 0.37294
 C210 C 0.48271 0.32975 0.32871
 C211 C 0.48228 0.34933 0.29192
 C212 C 0.48174 0.37242 0.24996
 C213 C 0.48126 0.39228 0.21514
 C214 C 0.71293 0.19620 0.40881
 C215 C 0.69353 0.17654 0.37036
 C216 C 0.67064 0.15327 0.32659
 C217 C 0.65097 0.13322 0.29019
 C218 C 0.62779 0.10953 0.24865
 C219 C 0.60788 0.08915 0.21410
 C220 C 0.48373 0.19719 -0.40571
 C221 C 0.48350 0.17751 -0.36745
 C222 C 0.48315 0.15419 -0.32409
 C223 C 0.48277 0.13408 -0.28815
 C224 C 0.48225 0.11029 -0.24721
 C225 C 0.48176 0.08982 -0.21320
 C226 C 0.71317 0.51592 -0.40579
 C227 C 0.69371 0.51614 -0.36742
 C228 C 0.67072 0.51650 -0.32396
 C229 C 0.65096 0.51688 -0.28795
 C230 C 0.62768 0.51742 -0.24693
 C231 C 0.60770 0.51795 -0.21285
 C232 C 0.80356 0.28679 -0.40879
 C233 C 0.82323 0.30618 -0.37030
 C234 C 0.84652 0.32907 -0.32658
 C235 C 0.86660 0.34875 -0.29031
 C236 C 0.89032 0.37196 -0.24899
 C237 C 0.91074 0.39191 -0.21471
 C238 C 0.51615 -0.19692 -0.41110
 C239 C 0.51641 -0.17714 -0.37300
 C240 C 0.51680 -0.15373 -0.32959
 C241 C 0.51720 -0.13359 -0.29341
 C242 C 0.51774 -0.10980 -0.25194
 C243 C 0.51826 -0.08935 -0.21732
 C244 C 0.28650 0.48381 -0.40889
 C245 C 0.30604 0.48356 -0.37083
 C246 C 0.32908 0.48319 -0.32755
 C247 C 0.34886 0.48279 -0.29153
 C248 C 0.37214 0.48226 -0.25027
 C249 C 0.39210 0.48173 -0.21584
 C250 C 1.19612 0.71257 -0.41218
 C251 C 1.17641 0.69309 -0.37414
 C252 C 1.15311 0.67013 -0.33068
 C253 C 1.13306 0.65044 -0.29441
 C254 C 1.10939 0.62724 -0.25281
 C255 C 1.08906 0.60735 -0.21809
 C256 C 0.80271 0.51582 -0.40671
 C257 C 0.82239 0.51595 -0.36871
 C258 C 0.84572 0.51621 -0.32571
 C259 C 0.86586 0.51653 -0.29006
 C260 C 0.88968 0.51703 -0.24941
 C261 C 0.91020 0.51758 -0.21552
 C262 C 0.48375 0.28671 -0.40591
 C263 C 0.48358 0.30621 -0.36772
 C264 C 0.48328 0.32922 -0.32449
 C265 C 0.48293 0.34901 -0.28865
 C266 C 0.48242 0.37229 -0.24783
 C267 C 0.48188 0.39226 -0.21384
 C268 C 0.71291 0.19631 -0.40695
 C269 C 0.69346 0.17670 -0.36884
 C270 C 0.67050 0.15348 -0.32558
 C271 C 0.65077 0.13345 -0.28966
 C272 C 0.62754 0.10978 -0.24871
 C273 C 0.60762 0.08939 -0.21463
 C274 C 1.19701 0.48390 -0.40729
 C275 C 1.17745 0.48372 -0.36858
 C276 C 1.15423 0.48340 -0.32496
 C277 C 1.13414 0.48303 -0.28894
 C278 C 1.11036 0.48247 -0.24812
 C279 C 1.08985 0.48190 -0.21427
 C280 C 0.51593 0.71231 -0.40673
 C281 C 0.51609 0.69296 -0.36802
 C282 C 0.51638 0.67010 -0.32429
 C283 C 0.51673 0.65042 -0.28813
 C284 C 0.51725 0.62725 -0.24710
 C285 C 0.51779 0.60735 -0.21306
 C286 C 0.28784 -0.19569 -0.40983
 C287 C 0.30712 -0.17618 -0.37087
 C288 C 0.32988 -0.15305 -0.32676
 C289 C 0.34949 -0.13307 -0.29025
 C290 C 0.37261 -0.10943 -0.24883
 C291 C 0.39248 -0.08905 -0.21451
 C292 C 0.51625 -0.19624 0.40654
 C293 C 0.51652 -0.17672 0.36761
 C294 C 0.51691 -0.15358 0.32350
 C295 C 0.51731 -0.13359 0.28701
 C296 C 0.51784 -0.10994 0.24567
 C297 C 0.51835 -0.08954 0.21150
 C298 C 0.28723 0.48376 0.40880
 C299 C 0.30653 0.48352 0.36985
 C300 C 0.32931 0.48317 0.32564
 C301 C 0.34893 0.48280 0.28901
 C302 C 0.37206 0.48229 0.24746
 C303 C 0.39196 0.48180 0.21308
 C304 C 1.19661 0.71296 0.40357
 C305 C 1.17705 0.69359 0.36501
 C306 C 1.15386 0.67072 0.32141
 C307 C 1.13383 0.65103 0.28534
 C308 C 1.11012 0.62782 0.24443
 C309 C 1.08967 0.60788 0.21054
 C310 C 0.48364 0.19596 0.41196
 C311 C 0.48343 0.17637 0.37322
 C312 C 0.48311 0.15319 0.32913
 C313 C 0.48278 0.13320 0.29245
 C314 C 0.48231 0.10959 0.25060
 C315 C 0.48184 0.08925 0.21579
 C316 C 0.71207 0.51618 0.41189
 C317 C 0.69270 0.51643 0.37327
 C318 C 0.66985 0.51680 0.32928
 C319 C 0.65021 0.51717 0.29266
 C320 C 0.62706 0.51766 0.25090
 C321 C 0.60719 0.51815 0.21616
 C322 C 0.80465 0.28795 0.40884
 C323 C 0.82421 0.30731 0.37032
 C324 C 0.84736 0.33017 0.32656
 C325 C 0.86733 0.34981 0.29019
 C326 C 0.89094 0.37295 0.24872
 C327 C 0.91127 0.39281 0.21421
   
