data_POSCAR
  _audit_creation_date              2014-09-24
  _audit_creation_method            'ToBaCCo'
  _symmetry_space_group_name_H-M    'P1'
  _symmetry_Int_Tables_number       1
  _symmetry_cell_setting            triclinic
  loop_
  _symmetry_equiv_pos_as_xyz
 x,y,z
_cell_length_a 32.5607
_cell_length_b 33.1168
_cell_length_c 34.6149
_cell_angle_alpha 88.034900
_cell_angle_beta 90.307100
_cell_angle_gamma 88.198500
loop_
  _atom_site_label
  _atom_site_type_symbol
  _atom_site_fract_x
  _atom_site_fract_y
  _atom_site_fract_z
C1 C 0.17131 1.22883 0.18739
 C2 C 0.20437 1.21463 0.16489
 C3 C 0.22851 1.18062 0.17664
 C4 C 0.22054 1.16076 0.21207
 C5 C 0.18796 1.17385 0.23584
 C6 C 0.16400 1.20823 0.22305
 H7 H 0.21150 1.22980 0.13766
 H8 H 0.23909 1.13407 0.21949
 H9 H 0.13990 1.21895 0.24158
 C10 C 0.83144 0.77751 0.19032
 C11 C 0.79903 0.79890 0.17032
 C12 C 0.78672 0.83820 0.18006
 C13 C 0.80581 0.85605 0.21122
 C14 C 0.83770 0.83571 0.23196
 C15 C 0.84992 0.79644 0.22184
 H16 H 0.78415 0.78587 0.14583
 H17 H 0.79528 0.88574 0.21979
 H18 H 0.87431 0.78166 0.23868
 C19 C 0.82399 1.23713 -0.20349
 C20 C 0.84284 1.22060 -0.23640
 C21 C 0.82725 1.18668 -0.25422
 C22 C 0.79306 1.16802 -0.23791
 C23 C 0.77468 1.18253 -0.20433
 C24 C 0.78959 1.21743 -0.18793
 H25 H 0.87116 1.23223 -0.24713
 H26 H 0.78083 1.14182 -0.25127
 H27 H 0.77485 1.22837 -0.16216
 C28 C 0.17659 0.76034 -0.15272
 C29 C 0.16045 0.77538 -0.18853
 C30 C 0.17612 0.80978 -0.20746
 C31 C 0.20935 0.82905 -0.19100
 C32 C 0.22565 0.81536 -0.15519
 C33 C 0.20972 0.78084 -0.13667
 H34 H 0.13536 0.76038 -0.20209
 H35 H 0.22111 0.85602 -0.20507
 H36 H 0.22355 0.77093 -0.10954
 C37 C 0.53779 1.08763 -0.03685
 H38 H 0.51951 1.10053 -0.01413
 C39 C 0.56436 1.11209 -0.05812
 H40 H 0.56588 1.14352 -0.05104
 C41 C 0.56021 1.03019 -0.07076
 H42 H 0.55903 0.99801 -0.07487
 C43 C 0.58683 1.05349 -0.09292
 H44 H 0.60560 1.03878 -0.11435
 N45 N 0.53623 1.04748 -0.04351
 C46 C 0.47318 1.03119 0.06126
 H47 H 0.49417 1.00754 0.07216
 C48 C 0.44633 1.05020 0.08675
 H49 H 0.44733 1.04050 0.11688
 C50 C 0.44414 1.06930 0.00822
 H51 H 0.44298 1.07592 -0.02260
 C52 C 0.41690 1.08926 0.03268
 H53 H 0.39515 1.11158 0.02033
 Zn54 Zn 0.50475 1.01220 -0.01240
 N55 N 0.47172 1.04106 0.02281
 C56 C 0.56949 0.99489 0.03855
 N57 N 0.54263 0.97712 0.01481
 C58 C 0.54443 0.93653 0.00990
 C59 C 0.57359 0.91200 0.03013
 C60 C 0.59886 0.97159 0.05947
 C61 C 0.46415 0.99010 -0.08160
 C62 C 0.43544 0.96916 -0.10269
 C63 C 0.41644 0.93368 -0.04365
 C64 C 0.44526 0.95542 -0.02375
 N65 N 0.46867 0.98270 -0.04289
 H66 H 0.56785 1.02734 0.04136
 H67 H 0.52372 0.92313 -0.01012
 H68 H 0.57481 0.87999 0.02497
 H69 H 0.61949 0.98658 0.07855
 H70 H 0.48202 1.01295 -0.09607
 H71 H 0.43174 0.97655 -0.13319
 H72 H 0.39835 0.91199 -0.02766
 H73 H 0.44889 0.95074 0.00718
 C74 C 0.41759 1.07979 0.07260
 C75 C 0.58956 1.09508 -0.08669
 C76 C 0.41110 0.94030 -0.08373
 C77 C 0.60118 0.92944 0.05571
 C78 C -0.06171 0.52923 1.07455
 H79 H -0.03934 0.50926 1.08919
 C80 C -0.08375 0.55799 1.09548
 H81 H -0.07851 0.55948 1.12631
 C82 C -0.09377 0.55343 1.01628
 H83 H -0.09637 0.55230 0.98517
 C84 C -0.11649 0.58245 1.03601
 H85 H -0.13619 0.60362 1.01949
 N86 N -0.06682 0.52782 1.03561
 C87 C 0.04610 0.46500 1.02938
 H88 H 0.05796 0.48720 1.00916
 C89 C 0.07334 0.43766 1.04851
 H90 H 0.10594 0.44026 1.04355
 C91 C -0.01068 0.43433 1.05962
 H92 H -0.04360 0.43277 1.06308
 C93 C 0.01549 0.40632 1.07934
 H94 H 0.00237 0.38332 1.09808
 Zn95 Zn -0.03237 0.49554 1.00468
 N96 N 0.00492 0.46271 1.03499
 C97 C 0.01941 0.55926 0.99080
 N98 N -0.00331 0.53193 0.97245
 C99 C -0.00614 0.53231 0.93321
 C100 C 0.01512 0.56064 0.91083
 C101 C 0.04128 0.58788 0.96963
 C102 C -0.10458 0.45720 0.97937
 C103 C -0.12594 0.42900 0.95855
 C104 C -0.06194 0.40801 0.92919
 C105 C -0.04181 0.43616 0.95084
 N106 N -0.06327 0.46030 0.97504
 H107 H 0.02054 0.55871 1.02206
 H108 H -0.02508 0.51094 0.91915
 H109 H 0.01301 0.55992 0.87966
 H110 H 0.05915 0.60935 0.98491
 H111 H -0.12093 0.47609 0.99938
 H112 H -0.15883 0.42713 0.96215
 H113 H -0.04422 0.38899 0.91016
 H114 H -0.00885 0.43871 0.94859
 C115 C 0.05808 0.40717 1.07323
 C116 C -0.11126 0.58543 1.07614
 C117 C -0.10449 0.40386 0.93314
 C118 C 0.03919 0.58902 0.92909
 C119 C 1.09698 -0.03606 0.54231
 H120 H 1.11062 -0.01274 0.52442
 C121 C 1.12045 -0.05627 0.57142
 H122 H 1.15197 -0.04789 0.57527
 C123 C 1.03818 -0.07207 0.56094
 H124 H 1.00574 -0.07715 0.55735
 C125 C 1.06045 -0.09322 0.58998
 H126 H 1.04475 -0.11501 0.60812
 N127 N 1.05655 -0.04404 0.53794
 C128 C 1.04032 0.06427 0.47191
 H129 H 1.01728 0.07614 0.49113
 C130 C 1.05805 0.09025 0.44459
 H131 H 1.04934 0.12204 0.44438
 C132 C 1.07846 0.00840 0.44822
 H133 H 1.08542 -0.02379 0.44926
 C134 C 1.09683 0.03327 0.42031
 H135 H 1.11806 0.01988 0.40007
 Zn136 Zn 1.02121 -0.01272 0.50463
 N137 N 1.05043 0.02409 0.47299
 C138 C 1.00009 0.04221 0.56098
 N139 N 0.98406 0.01502 0.53700
 C140 C 0.94360 0.00596 0.53843
 C141 C 0.91748 0.02489 0.56466
 C142 C 0.97494 0.06245 0.58697
 C143 C 1.00055 -0.08593 0.46848
 C144 C 0.98049 -0.10821 0.44085
 C145 C 0.94458 -0.04683 0.41836
 C146 C 0.96533 -0.02582 0.44624
 N147 N 0.99255 -0.04551 0.47068
 H148 H 1.03258 0.04803 0.55994
 H149 H 0.93171 -0.01659 0.51991
 H150 H 0.88538 0.01733 0.56560
 H151 H 0.98821 0.08404 0.60585
 H152 H 1.02330 -0.10077 0.48736
 H153 H 0.98834 -0.14004 0.43892
 H154 H 0.92308 -0.03036 0.39922
 H155 H 0.96013 0.00647 0.44821
 C156 C 1.08586 0.07465 0.41753
 C157 C 1.10206 -0.08507 0.59617
 C158 C 0.95204 -0.08861 0.41520
 C159 C 0.93321 0.05353 0.58931
 C160 C 0.13449 0.31340 1.12386
 C161 C 0.09822 0.32605 1.14186
 N162 N 0.08672 0.30712 1.17521
 C163 C 0.10972 0.27591 1.19145
 C164 C 0.14638 0.26236 1.17329
 N165 N 0.15732 0.28214 1.13979
 N166 N 0.14593 0.33191 1.09025
 C167 C 0.12256 0.36260 1.07370
 C168 C 0.08576 0.37542 1.09150
 N169 N 0.07461 0.35651 1.12529
 H170 H 0.09817 0.26186 1.21754
 H171 H 0.13214 0.37583 1.04636
 C172 C -0.16204 0.68741 1.13167
 C173 C -0.12609 0.66775 1.14566
 N174 N -0.10561 0.68330 1.17562
 C175 C -0.11900 0.71808 1.19194
 C176 C -0.15462 0.73919 1.17718
 N177 N -0.17516 0.72237 1.14750
 N178 N -0.18259 0.67202 1.10162
 C179 C -0.16813 0.63827 1.08423
 C180 C -0.13094 0.61926 1.09707
 N181 N -0.11125 0.63436 1.12805
 H182 H -0.10071 0.72900 1.21515
 H183 H -0.18540 0.62679 1.06043
 C184 C -0.16013 0.31238 0.87018
 C185 C -0.12757 0.33411 0.85472
 N186 N -0.11273 0.32507 0.81950
 C187 C -0.12827 0.29461 0.79919
 C188 C -0.16014 0.27108 0.81508
 N189 N -0.17543 0.28157 0.85020
 N190 N -0.17522 0.32174 0.90537
 C191 C -0.15888 0.35174 0.92593
 C192 C -0.12550 0.37310 0.91080
 N193 N -0.11088 0.36362 0.87534
 H194 H -0.11570 0.28991 0.77091
 H195 H -0.17099 0.35784 0.95425
 C196 C 0.10373 0.68026 0.86826
 C197 C 0.11796 0.66423 0.90391
 N198 N 0.15224 0.67888 0.91989
 C199 C 0.17282 0.70936 0.90219
 C200 C 0.15823 0.72677 0.86647
 N201 N 0.12398 0.71089 0.85064
 N202 N 0.06928 0.66570 0.85228
 C203 C 0.04826 0.63582 0.87057
 C204 C 0.06216 0.61989 0.90676
 N205 N 0.09690 0.63470 0.92236
 H206 H 0.19995 0.71919 0.91656
 H207 H 0.02040 0.62564 0.85742
 C208 C 1.12902 0.14397 0.32158
 C209 C 1.15202 0.11072 0.33673
 N210 N 1.18767 0.09957 0.31945
 C211 C 1.20113 0.11971 0.28723
 C212 C 1.17749 0.15277 0.27083
 N213 N 1.14216 0.16389 0.28935
 N214 N 1.09317 0.15510 0.33854
 C215 C 1.07908 0.13423 0.36999
 C216 C 1.10181 0.10033 0.38524
 N217 N 1.13792 0.08957 0.36798
 H218 H 1.23002 0.10955 0.27538
 H219 H 1.04973 0.14333 0.38186
 C220 C 1.16193 -0.13936 0.69543
 C221 C 1.11915 -0.13936 0.69104
 N222 N 1.09584 -0.15611 0.71927
 C223 C 1.11340 -0.17304 0.75186
 C224 C 1.15639 -0.17313 0.75664
 N225 N 1.17962 -0.15599 0.72816
 N226 N 1.18503 -0.12263 0.66690
 C227 C 1.16723 -0.10550 0.63433
 C228 C 1.12406 -0.10473 0.63008
 N229 N 1.10143 -0.12207 0.65882
 H230 H 1.09381 -0.18542 0.77415
 H231 H 1.18682 -0.09306 0.61215
 C232 C 0.89245 -0.14833 0.32481
 C233 C 0.89835 -0.10658 0.32260
 N234 N 0.88488 -0.08451 0.29109
 C235 C 0.86542 -0.10225 0.26164
 C236 C 0.85894 -0.14414 0.26371
 N237 N 0.87302 -0.16620 0.29536
 N238 N 0.90596 -0.17021 0.35653
 C239 C 0.92523 -0.15224 0.38611
 C240 C 0.93140 -0.11025 0.38395
 N241 N 0.91753 -0.08869 0.35201
 H242 H 0.85573 -0.08383 0.23663
 H243 H 0.93485 -0.17055 0.41118
 C244 C 0.86276 0.11043 0.67546
 C245 C 0.89024 0.13237 0.65261
 N246 N 0.89512 0.17212 0.65887
 C247 C 0.87445 0.19084 0.68757
 C248 C 0.84816 0.16856 0.71195
 N249 N 0.84271 0.12885 0.70463
 N250 N 0.85728 0.07081 0.66870
 C251 C 0.87845 0.05201 0.64029
 C252 C 0.90698 0.07363 0.61806
 N253 N 0.91200 0.11346 0.62481
 H254 H 0.87863 0.22276 0.69094
 H255 H 0.87405 0.02021 0.63602
 C256 C 0.32714 1.13281 0.14493
 C257 C 0.32157 1.13233 0.10477
 N258 N 0.28630 1.14812 0.08865
 C259 C 0.25620 1.16438 0.11091
 C260 C 0.26141 1.16469 0.15133
 N261 N 0.29696 1.14869 0.16728
 N262 N 0.36257 1.11723 0.16093
 C263 C 0.39255 1.10066 0.13866
 C264 C 0.38677 1.09915 0.09830
 N265 N 0.35127 1.11550 0.08256
 H266 H 0.22810 1.17601 0.09721
 H267 H 0.42056 1.08923 0.15253
 C268 C 0.68014 1.16103 -0.14800
 C269 C 0.68071 1.11870 -0.14690
 N270 N 0.71115 1.09798 -0.16497
 C271 C 0.74122 1.11771 -0.18417
 C272 C 0.74110 1.16028 -0.18523
 N273 N 0.71040 1.18088 -0.16687
 N274 N 0.64944 1.18156 -0.13002
 C275 C 0.61947 1.16167 -0.11059
 C276 C 0.62035 1.11899 -0.10863
 N277 N 0.65113 1.09887 -0.12728
 H278 H 0.76553 1.10021 -0.19754
 H279 H 0.59531 1.17929 -0.09727
 C280 C 0.31858 0.87609 -0.14059
 C281 C 0.31808 0.88072 -0.10050
 N282 N 0.28765 0.86441 -0.07910
 C283 C 0.25770 0.84332 -0.09594
 C284 C 0.25808 0.83819 -0.13617
 N285 N 0.28854 0.85511 -0.15758
 N286 N 0.34934 0.89229 -0.16177
 C287 C 0.37956 0.91307 -0.14470
 C288 C 0.37904 0.91809 -0.10438
 N289 N 0.34807 0.90148 -0.08352
 H290 H 0.23350 0.83125 -0.07808
 H291 H 0.40391 0.92475 -0.16252
 C292 C 0.69276 0.86184 0.12053
 C293 C 0.69561 0.90359 0.11358
 N294 N 0.72789 0.92320 0.12804
 C295 C 0.75748 0.90297 0.14947
 C296 C 0.75476 0.86105 0.15687
 N297 N 0.72240 0.84147 0.14185
 N298 N 0.66015 0.84248 0.10623
 C299 C 0.63026 0.86296 0.08519
 C300 C 0.63306 0.90498 0.07789
 N301 N 0.66594 0.92397 0.09257
 H302 H 0.78316 0.91945 0.16005
 H303 H 0.60439 0.84650 0.07512
   
