data_POSCAR
  _audit_creation_date              2014-09-24
  _audit_creation_method            'ToBaCCo'
  _symmetry_space_group_name_H-M    'P1'
  _symmetry_Int_Tables_number       1
  _symmetry_cell_setting            triclinic
  loop_
  _symmetry_equiv_pos_as_xyz
 x,y,z
_cell_length_a 22.0338
_cell_length_b 22.3015
_cell_length_c 22.0638
_cell_angle_alpha 89.761800
_cell_angle_beta 89.854000
_cell_angle_gamma 90.182200
loop_
  _atom_site_label
  _atom_site_type_symbol
  _atom_site_fract_x
  _atom_site_fract_y
  _atom_site_fract_z
N1 N 0.56474 0.12589 0.00097
 N2 N 0.60751 0.16586 0.01309
 N3 N 0.43761 0.11032 -0.05674
 N4 N 0.39062 0.13452 -0.08435
 N5 N 0.43699 0.12292 0.00133
 N6 N 0.38958 0.15596 0.01496
 N7 N 0.56530 0.11213 -0.05686
 N8 N 0.60832 0.14259 -0.08557
 C9 C 0.63465 0.17563 -0.04132
 C10 C 0.36119 0.16267 -0.03893
 N11 N 0.43648 -0.05594 -0.11109
 N12 N 0.39249 -0.08404 -0.14031
 N13 N 0.56485 0.00138 -0.12469
 N14 N 0.61258 0.01492 -0.15811
 N15 N 0.56401 -0.05600 -0.11147
 N16 N 0.61415 -0.08414 -0.13691
 N17 N 0.43697 0.00130 -0.12530
 N18 N 0.39319 0.01367 -0.16431
 Mn19 Mn 0.50134 0.05665 -0.09155
 C20 C 0.36554 -0.04001 -0.17308
 C21 C 0.64214 -0.03788 -0.16529
 N22 N 0.43726 0.05531 0.11343
 N23 N 0.39329 0.08254 0.14348
 N24 N 0.56640 0.00012 0.12460
 N25 N 0.61509 -0.01300 0.15638
 N26 N 0.56489 0.05754 0.11159
 N27 N 0.61560 0.08613 0.13560
 N28 N 0.43859 -0.00194 0.12753
 N29 N 0.39546 -0.01518 0.16727
 Mn30 Mn 0.50084 0.09103 0.05717
 C31 C 0.36729 0.03795 0.17664
 C32 C 0.64458 0.04006 0.16290
 N33 N 0.56608 -0.12415 -0.00109
 N34 N 0.60923 -0.16318 -0.01416
 N35 N 0.43949 -0.11088 0.05889
 N36 N 0.39304 -0.13601 0.08714
 N37 N 0.43845 -0.12337 0.00082
 N38 N 0.39137 -0.15721 -0.01222
 N39 N 0.56721 -0.11054 0.05675
 N40 N 0.61103 -0.14021 0.08456
 Mn41 Mn 0.50113 -0.09044 -0.05602
 Mn42 Mn 0.50307 -0.05616 0.09260
 Cl43 Cl 0.50161 0.00029 0.00056
 C44 C 0.63722 -0.17257 0.03969
 C45 C 0.36356 -0.16458 0.04201
 N46 N 0.13674 0.44127 0.04027
 N47 N 0.16508 0.39816 0.06971
 N48 N 0.14076 0.55484 -0.03976
 N49 N 0.17092 0.59747 -0.06851
 N50 N 0.13922 0.56524 0.01855
 N51 N 0.16816 0.61526 0.03147
 N52 N 0.13637 0.43084 -0.01804
 N53 N 0.16451 0.38033 -0.03030
 C54 C 0.18202 0.36061 0.02500
 C55 C 0.18764 0.63464 -0.02339
 N56 N -0.00740 0.54883 -0.13135
 N57 N -0.02267 0.59635 -0.16445
 N58 N 0.04684 0.41927 -0.10987
 N59 N 0.06929 0.37408 -0.14061
 N60 N -0.01241 0.42211 -0.11548
 N61 N -0.03166 0.37861 -0.15158
 N62 N 0.05178 0.54219 -0.13144
 N63 N 0.07905 0.58646 -0.16649
 Mn64 Mn 0.09414 0.48650 -0.07491
 C65 C 0.03124 0.61860 -0.18572
 C66 C 0.02019 0.34868 -0.16592
 N67 N 0.04798 0.58092 0.10829
 N68 N 0.07180 0.62491 0.13989
 N69 N -0.01328 0.45450 0.12894
 N70 N -0.03228 0.41368 0.16866
 N71 N 0.04621 0.45780 0.12966
 N72 N 0.06930 0.42070 0.16976
 N73 N -0.01151 0.58070 0.11241
 N74 N -0.02956 0.62473 0.14835
 Mn75 Mn 0.09277 0.51159 0.07432
 C76 C 0.02329 0.65230 0.16414
 C77 C 0.02033 0.39318 0.19344
 N78 N -0.10753 0.43682 -0.02365
 N79 N -0.14561 0.39326 -0.03873
 N80 N -0.10490 0.56961 0.01896
 N81 N -0.14274 0.61325 0.03373
 N82 N -0.10370 0.56230 -0.04027
 N83 N -0.14070 0.60068 -0.06693
 N84 N -0.10726 0.44425 0.03560
 N85 N -0.14508 0.40613 0.06196
 Mn86 Mn -0.05852 0.49264 -0.07845
 Mn87 Mn -0.06001 0.51216 0.07461
 Cl88 Cl 0.01645 0.50073 -0.00111
 C89 C -0.16841 0.37428 0.01533
 C90 C -0.16433 0.63260 -0.02045
 N91 N 0.01329 0.10972 0.41762
 N92 N 0.03347 0.14409 0.37265
 N93 N -0.05047 0.12882 0.53859
 N94 N -0.07557 0.16724 0.57599
 N95 N 0.00878 0.12818 0.54468
 N96 N 0.02552 0.16638 0.58750
 N97 N -0.04604 0.10499 0.41463
 N98 N -0.06766 0.13436 0.36768
 C99 C -0.01789 0.15802 0.34150
 C100 C -0.02814 0.19026 0.60631
 N101 N -0.14154 -0.01691 0.56591
 N102 N -0.17022 -0.02770 0.61725
 N103 N -0.13792 0.01632 0.42885
 N104 N -0.16514 0.02776 0.37704
 N105 N -0.13956 -0.04112 0.44108
 N106 N -0.16780 -0.07078 0.39793
 N107 N -0.14167 0.04052 0.55346
 N108 N -0.17040 0.07077 0.59587
 Mn109 Mn -0.09425 0.07282 0.48355
 C110 C -0.18802 0.02754 0.63511
 C111 C -0.18351 -0.02714 0.35850
 N112 N 0.10262 0.03646 0.56145
 N113 N 0.14061 0.06294 0.59915
 N114 N 0.10478 -0.04060 0.44408
 N115 N 0.14287 -0.06745 0.40667
 N116 N 0.10606 0.01787 0.43524
 N117 N 0.14493 0.03194 0.39154
 N118 N 0.10263 -0.02203 0.57041
 N119 N 0.14071 -0.03642 0.61449
 Mn120 Mn 0.05842 0.07371 0.48991
 C121 C 0.16363 0.01721 0.63239
 C122 C 0.16726 -0.02183 0.37380
 N123 N -0.05118 -0.13077 0.46015
 N124 N -0.07529 -0.16867 0.42160
 N125 N 0.00683 -0.11318 0.58389
 N126 N 0.02347 -0.15144 0.62698
 N127 N -0.05255 -0.10754 0.58412
 N128 N -0.07751 -0.14044 0.62708
 N129 N 0.00832 -0.13108 0.45669
 N130 N 0.02626 -0.16938 0.41447
 Mn131 Mn -0.09644 -0.07417 0.51315
 Mn132 Mn 0.05640 -0.07739 0.51369
 Cl133 Cl -0.01832 -0.00130 0.50018
 C134 C -0.02697 -0.19234 0.39330
 C135 C -0.03003 -0.16715 0.65392
 C136 C -0.31519 0.21887 -0.05257
 C137 C -0.28954 0.25136 -0.00840
 C138 C -0.24081 0.29599 -0.02109
 C139 C -0.21540 0.32728 0.02408
 H140 H -0.30510 0.24551 0.03791
 H141 H -0.22630 0.30378 -0.06744
 H142 H -0.29945 0.22445 -0.09882
 H143 H -0.23029 0.31887 0.07021
 C144 C 0.31032 0.79747 0.05125
 C145 C 0.28432 0.77072 0.00418
 C146 C 0.23966 0.72324 0.01327
 C147 C 0.22395 0.68849 -0.03299
 H148 H 0.30001 0.78014 -0.04155
 H149 H 0.22342 0.71355 0.05874
 H150 H 0.29519 0.78812 0.09712
 H151 H 0.24076 0.69781 -0.07830
 C152 C 0.30737 0.19952 -0.04787
 C153 C 0.28082 0.22607 -0.00095
 C154 C 0.23533 0.27245 -0.01058
 C155 C 0.21812 0.30693 0.03536
 H156 H 0.29658 0.21741 0.04480
 H157 H 0.21987 0.28184 -0.05627
 H158 H 0.29205 0.20817 -0.09372
 H159 H 0.23407 0.29792 0.08094
 C160 C -0.31197 0.78510 0.04977
 C161 C -0.28616 0.75372 0.00484
 C162 C -0.23705 0.70969 0.01657
 C163 C -0.21122 0.67936 -0.02907
 H164 H -0.30196 0.75992 -0.04125
 H165 H -0.22271 0.70137 0.06279
 H166 H -0.29590 0.77920 0.09577
 H167 H -0.22583 0.68816 -0.07511
 C168 C 0.03065 -0.29904 0.20816
 C169 C -0.00907 -0.28896 0.25236
 C170 C 0.00521 -0.24618 0.30122
 C171 C -0.03480 -0.23710 0.34538
 H172 H -0.05108 -0.31441 0.25409
 H173 H 0.04771 -0.22151 0.30060
 H174 H 0.07362 -0.27521 0.20809
 H175 H -0.07807 -0.26037 0.34405
 C176 C 0.02656 0.29910 0.79092
 C177 C -0.01244 0.28914 0.74617
 C178 C 0.00202 0.24519 0.69840
 C179 C -0.03709 0.23545 0.65371
 H180 H -0.05362 0.31547 0.74313
 H181 H 0.04422 0.22035 0.70008
 H182 H 0.06867 0.27410 0.79221
 H183 H -0.08011 0.25893 0.65380
 C184 C 0.02668 0.34794 0.24134
 C185 C -0.00567 0.29755 0.24301
 C186 C 0.00918 0.25054 0.28781
 C187 C -0.02292 0.20001 0.29045
 H188 H -0.04162 0.29031 0.21034
 H189 H 0.04445 0.25866 0.32104
 H190 H 0.06472 0.35312 0.27198
 H191 H -0.06044 0.19361 0.25942
 C192 C 0.03931 -0.33293 0.77921
 C193 C -0.00680 -0.29564 0.75895
 C194 C 0.00704 -0.24730 0.72066
 C195 C -0.03872 -0.21080 0.69848
 H196 H -0.05345 -0.30455 0.77212
 H197 H 0.05351 -0.23950 0.70622
 H198 H 0.08557 -0.32202 0.76604
 H199 H -0.08496 -0.21910 0.71342
 C200 C 0.31408 -0.05065 0.78505
 C201 C 0.28747 -0.00659 0.75327
 C202 C 0.23754 -0.01879 0.70980
 C203 C 0.21132 0.02604 0.67881
 H204 H 0.30318 0.03918 0.75873
 H205 H 0.22296 -0.06463 0.70238
 H206 H 0.29814 -0.09636 0.77986
 H207 H 0.22634 0.07167 0.68666
 C208 C -0.30496 0.04707 0.19504
 C209 C -0.27865 -0.00089 0.22551
 C210 C -0.23515 0.00903 0.26936
 C211 C -0.21658 -0.03776 0.30651
 H212 H -0.29585 -0.04608 0.21907
 H213 H -0.21971 0.05444 0.27801
 H214 H -0.28634 0.09185 0.20024
 H215 H -0.23129 -0.08327 0.29728
 C216 C 0.31619 0.04752 0.21941
 C217 C 0.29054 0.00295 0.25168
 C218 C 0.24086 0.01436 0.29582
 C219 C 0.21506 -0.03069 0.32727
 H220 H 0.30677 -0.04253 0.24607
 H221 H 0.22591 0.06002 0.30319
 H222 H 0.29967 0.09290 0.22481
 H223 H 0.23019 -0.07620 0.31948
 C224 C -0.30830 -0.04470 0.80108
 C225 C -0.28292 0.00305 0.76923
 C226 C -0.24011 -0.00734 0.72471
 C227 C -0.22144 0.03893 0.68679
 H228 H -0.30009 0.04820 0.77540
 H229 H -0.22482 -0.05282 0.71657
 H230 H -0.28968 -0.08938 0.79588
 H231 H -0.23565 0.08460 0.69560
   
