data_POSCAR
  _audit_creation_date              2014-09-24
  _audit_creation_method            'ToBaCCo'
  _symmetry_space_group_name_H-M    'P1'
  _symmetry_Int_Tables_number       1
  _symmetry_cell_setting            triclinic
  loop_
  _symmetry_equiv_pos_as_xyz
 x,y,z
_cell_length_a 44.0535
_cell_length_b 44.0821
_cell_length_c 44.0006
_cell_angle_alpha 89.903600
_cell_angle_beta 89.939500
_cell_angle_gamma 90.005900
loop_
  _atom_site_label
  _atom_site_type_symbol
  _atom_site_fract_x
  _atom_site_fract_y
  _atom_site_fract_z
C1 C 0.20312 0.52335 1.03752
 H2 H 0.20236 0.54083 1.02024
 C3 C 0.18258 0.52400 1.06169
 H4 H 0.16600 0.54211 1.06309
 C5 C 0.22509 0.47792 1.05631
 H6 H 0.24126 0.45968 1.05380
 C7 C 0.20494 0.47768 1.08086
 H8 H 0.20589 0.45937 1.09731
 N9 N 0.22393 0.50065 1.03535
 C10 C 0.29586 0.53736 0.97790
 H11 H 0.29664 0.52012 0.96044
 C12 C 0.31636 0.56150 0.97717
 H13 H 0.33295 0.56296 0.95904
 C14 C 0.27386 0.55609 1.02339
 H15 H 0.25769 0.55358 1.04169
 C16 C 0.29398 0.58060 1.02352
 H17 H 0.29308 0.59704 1.04177
 Zn18 Zn 0.24951 0.50065 1.00077
 N19 N 0.27505 0.53518 1.00068
 C20 C 0.22520 0.52330 0.94518
 N21 N 0.22399 0.50062 0.96619
 C22 C 0.20321 0.47788 0.96405
 C23 C 0.18278 0.47714 0.93983
 C24 C 0.20515 0.52343 0.92059
 C25 C 0.29589 0.46398 1.02355
 C26 C 0.31642 0.43986 1.02423
 C27 C 0.29407 0.42077 0.97790
 C28 C 0.27392 0.44526 0.97809
 N29 N 0.27508 0.46616 1.00082
 H30 H 0.24133 0.54157 0.94767
 H31 H 0.20241 0.46044 0.98136
 H32 H 0.16622 0.45903 0.93838
 H33 H 0.20607 0.54165 0.90406
 H34 H 0.29665 0.48120 1.04103
 H35 H 0.33301 0.43840 1.04232
 H36 H 0.29318 0.40435 0.95964
 H37 H 0.25777 0.44777 0.95982
 C38 C 0.31544 0.58327 1.00021
 C39 C 0.18346 0.50091 1.08354
 C40 C 0.31552 0.41810 1.00116
 C41 C 0.18374 0.50015 0.91794
 C42 C 0.79625 0.52328 -0.03606
 H43 H 0.79706 0.54060 -0.01869
 C44 C 0.81675 0.52412 -0.06027
 H45 H 0.83337 0.54219 -0.06165
 C46 C 0.77421 0.47803 -0.05507
 H47 H 0.75804 0.45977 -0.05264
 C48 C 0.79432 0.47801 -0.07965
 H49 H 0.79340 0.45988 -0.09622
 N50 N 0.77542 0.50057 -0.03398
 C51 C 0.70357 0.53677 0.02375
 H52 H 0.70277 0.51937 0.04110
 C53 C 0.68305 0.56089 0.02462
 H54 H 0.66643 0.56217 0.04274
 C55 C 0.72559 0.55595 -0.02160
 H56 H 0.74177 0.55362 -0.03990
 C57 C 0.70546 0.58045 -0.02159
 H58 H 0.70637 0.59706 -0.03974
 Zn59 Zn 0.74990 0.50027 0.00064
 N60 N 0.72439 0.53482 0.00098
 C61 C 0.77436 0.52235 0.05631
 N62 N 0.77549 0.49987 0.03516
 C63 C 0.79628 0.47712 0.03707
 C64 C 0.81685 0.47619 0.06118
 C65 C 0.79454 0.52228 0.08080
 C66 C 0.70351 0.46386 -0.02239
 C67 C 0.68299 0.43975 -0.02325
 C68 C 0.70529 0.42019 0.02296
 C69 C 0.72544 0.44468 0.02296
 N70 N 0.72430 0.46580 0.00038
 H71 H 0.75820 0.54062 0.05402
 H72 H 0.79702 0.45985 0.01965
 H73 H 0.83344 0.45810 0.06243
 H74 H 0.79369 0.54035 0.09743
 H75 H 0.70277 0.48126 -0.03975
 H76 H 0.66641 0.43846 -0.04138
 H77 H 0.70615 0.40358 0.04111
 H78 H 0.74159 0.44700 0.04125
 C79 C 0.68398 0.58288 0.00170
 C80 C 0.81580 0.50124 -0.08222
 C81 C 0.68386 0.41776 -0.00034
 C82 C 0.81600 0.49901 0.08319
 C83 C -0.02261 0.29674 0.46322
 H84 H -0.04000 0.29738 0.48059
 C85 C -0.02342 0.31740 0.43914
 H86 H -0.04157 0.33394 0.43792
 C87 C 0.02277 0.27493 0.44409
 H88 H 0.04104 0.25878 0.44642
 C89 C 0.02284 0.29520 0.41963
 H90 H 0.04106 0.29435 0.40308
 N91 N 0.00014 0.27596 0.46517
 C92 C -0.03612 0.20355 0.52228
 H93 H -0.01875 0.20265 0.53962
 C94 C -0.06025 0.18303 0.52302
 H95 H -0.06156 0.16629 0.54103
 C96 C -0.05523 0.22590 0.47710
 H97 H -0.05288 0.24222 0.45892
 C98 C -0.07973 0.20576 0.47698
 H99 H -0.09632 0.20681 0.45885
 Zn100 Zn 0.00035 0.25015 0.49959
 N101 N -0.03414 0.22455 0.49966
 C102 C -0.02212 0.27392 0.55544
 N103 N 0.00048 0.27538 0.53435
 C104 C 0.02319 0.29618 0.53659
 C105 C 0.02399 0.31637 0.56099
 C106 C -0.02218 0.29372 0.58021
 C107 C 0.03701 0.20402 0.47636
 C108 C 0.06115 0.18352 0.47548
 C109 C 0.08043 0.20557 0.52187
 C110 C 0.05591 0.22568 0.52189
 N111 N 0.03491 0.22466 0.49923
 H112 H -0.04037 0.25778 0.55289
 H113 H 0.04057 0.29718 0.51922
 H114 H 0.04207 0.33296 0.56251
 H115 H -0.04034 0.29260 0.59679
 H116 H 0.01970 0.20335 0.45895
 H117 H 0.06254 0.16705 0.45729
 H118 H 0.09693 0.20633 0.54009
 H119 H 0.05347 0.24170 0.54027
 C120 C -0.08221 0.18412 0.50013
 C121 C -0.00045 0.31666 0.41717
 C122 C 0.08301 0.18428 0.49848
 C123 C 0.00107 0.31514 0.58296
 C124 C 0.97662 0.70331 0.53550
 H125 H 0.95937 0.70276 0.51803
 C126 C 0.97569 0.68244 0.55938
 H127 H 0.95763 0.66579 0.56040
 C128 C 1.02185 0.72500 0.55504
 H129 H 1.04014 0.74117 0.55291
 C130 C 1.02178 0.70450 0.57930
 H131 H 1.03988 0.70511 0.59594
 N132 N 0.99938 0.72412 0.53383
 C133 C 0.96355 0.79643 0.47643
 H134 H 0.98106 0.79733 0.45920
 C135 C 0.93942 0.81694 0.47554
 H136 H 0.93825 0.83367 0.45752
 C137 C 0.94409 0.77410 0.52152
 H138 H 0.94631 0.75781 0.53973
 C139 C 0.91958 0.79423 0.52148
 H140 H 0.90285 0.79319 0.53952
 Zn141 Zn 0.99989 0.74992 0.49943
 N142 N 0.96537 0.77546 0.49909
 C143 C 0.97796 0.72591 0.44350
 N144 N 1.00038 0.72461 0.46474
 C145 C 1.02309 0.70377 0.46283
 C146 C 1.02402 0.68331 0.43867
 C147 C 0.97804 0.70583 0.41895
 C148 C 1.03636 0.79603 0.52294
 C149 C 1.06049 0.81652 0.52398
 C150 C 1.08011 0.79458 0.47765
 C151 C 1.05559 0.77445 0.47747
 N152 N 1.03443 0.77543 0.50002
 H153 H 0.95971 0.74210 0.44579
 H154 H 1.04031 0.70290 0.48032
 H155 H 1.04206 0.66665 0.43744
 H156 H 0.95999 0.70679 0.40227
 H157 H 1.01893 0.79665 0.54026
 H158 H 1.06176 0.83296 0.54222
 H159 H 1.09674 0.79385 0.45951
 H160 H 1.05328 0.75846 0.45905
 C161 C 0.91729 0.81585 0.49831
 C162 C 0.99853 0.68299 0.58141
 C163 C 1.08252 0.81582 0.50110
 C164 C 1.00124 0.68431 0.41658
 C165 C 0.46346 -0.02364 0.29590
 H166 H 0.48088 -0.04092 0.29670
 C167 C 0.43932 -0.02454 0.31646
 H168 H 0.43804 -0.04262 0.33313
 C169 C 0.44424 0.02156 0.27379
 H170 H 0.44656 0.03981 0.25756
 C171 C 0.41972 0.02151 0.29397
 H172 H 0.40308 0.03958 0.29304
 N173 N 0.46540 -0.00092 0.27501
 C174 C 0.52299 -0.03704 0.20297
 H175 H 0.54032 -0.01967 0.20215
 C176 C 0.52386 -0.06117 0.18247
 H177 H 0.54201 -0.06243 0.16586
 C178 C 0.47770 -0.05614 0.22506
 H179 H 0.45942 -0.05377 0.24126
 C180 C 0.47769 -0.08065 0.20496
 H181 H 0.45952 -0.09720 0.20598
 Zn182 Zn 0.49993 -0.00056 0.24938
 N183 N 0.50025 -0.03505 0.22382
 C184 C 0.55561 -0.02274 0.27372
 N185 N 0.53447 -0.00024 0.27491
 C186 C 0.53646 0.02249 0.29571
 C187 C 0.56064 0.02340 0.31617
 C188 C 0.58017 -0.02269 0.29381
 C189 C 0.47686 0.03602 0.20297
 C190 C 0.47594 0.06023 0.18250
 C191 C 0.52203 0.07973 0.20493
 C192 C 0.52209 0.05514 0.22501
 N193 N 0.49959 0.03400 0.22379
 H194 H 0.55326 -0.04100 0.25757
 H195 H 0.51905 0.03978 0.29650
 H196 H 0.56196 0.04149 0.33275
 H197 H 0.59679 -0.04078 0.29289
 H198 H 0.45956 0.01861 0.20217
 H199 H 0.45784 0.06158 0.16591
 H200 H 0.54011 0.09637 0.20587
 H201 H 0.54036 0.05277 0.24117
 C202 C 0.50096 -0.08315 0.18344
 C203 C 0.41729 -0.00173 0.31551
 C204 C 0.49876 0.08225 0.18347
 C205 C 0.58264 0.00057 0.31524
 C206 C 0.53680 -0.02261 0.70377
 H207 H 0.51944 -0.03995 0.70305
 C208 C 0.56095 -0.02347 0.68322
 H209 H 0.56230 -0.04158 0.66665
 C210 C 0.55587 0.02269 0.72565
 H211 H 0.55349 0.04096 0.74179
 C212 C 0.58040 0.02269 0.70548
 H213 H 0.59698 0.04082 0.70633
 N214 N 0.53478 0.00013 0.72455
 C215 C 0.47729 -0.03618 0.79671
 H216 H 0.45991 -0.01885 0.79748
 C217 C 0.47647 -0.06033 0.81725
 H218 H 0.45836 -0.06172 0.83388
 C219 C 0.52263 -0.05515 0.77467
 H220 H 0.54090 -0.05273 0.75848
 C221 C 0.52267 -0.07967 0.79484
 H222 H 0.54083 -0.09621 0.79393
 Zn223 Zn 0.50025 0.00038 0.75017
 N224 N 0.50003 -0.03411 0.77585
 C225 C 0.44461 -0.02196 0.72593
 N226 N 0.46571 0.00058 0.72462
 C227 C 0.46370 0.02326 0.70370
 C228 C 0.43953 0.02408 0.68322
 C229 C 0.42006 -0.02199 0.70584
 C230 C 0.52318 0.03708 0.79643
 C231 C 0.52396 0.06127 0.81685
 C232 C 0.47774 0.08052 0.79440
 C233 C 0.47782 0.05595 0.77437
 N234 N 0.50045 0.03494 0.77563
 H235 H 0.44698 -0.04019 0.74219
 H236 H 0.48108 0.04058 0.70283
 H237 H 0.43819 0.04214 0.66655
 H238 H 0.40346 -0.04010 0.70685
 H239 H 0.54057 0.01977 0.79727
 H240 H 0.54205 0.06271 0.83344
 H241 H 0.45956 0.09703 0.79344
 H242 H 0.45956 0.05348 0.75822
 C243 C 0.49940 -0.08224 0.81633
 C244 C 0.58291 -0.00059 0.68406
 C245 C 0.50100 0.08315 0.81585
 C246 C 0.41756 0.00122 0.68428
 C247 C 0.25000 -0.00015 0.50020
 C248 C 0.75019 0.00019 0.49935
 C249 C 0.49952 0.25061 0.99978
 C250 C 0.49989 0.75033 0.00091
 C251 C 1.00057 0.49939 0.25024
 C252 C 0.00004 0.49906 0.75005
 C253 C 0.10735 0.16252 0.49860
 C254 C 0.12732 0.14382 0.49872
 C255 C 0.15060 0.12093 0.49887
 C256 C 0.16240 0.11037 0.52649
 C257 C 0.18381 0.08695 0.52671
 C258 C 0.19351 0.07399 0.49931
 C259 C 0.18202 0.08483 0.47167
 C260 C 0.16061 0.10826 0.47145
 C261 C 0.21409 0.04866 0.49963
 C262 C 0.23069 0.02691 0.49989
 H263 H 0.15472 0.11993 0.54783
 H264 H 0.19243 0.07863 0.54822
 H265 H 0.18925 0.07487 0.45037
 H266 H 0.15154 0.11616 0.44997
 C267 C 0.66223 0.60724 0.00159
 C268 C 0.64356 0.62723 0.00150
 C269 C 0.62071 0.65056 0.00141
 C270 C 0.60846 0.66091 0.02890
 C271 C 0.58510 0.68239 0.02879
 C272 C 0.57390 0.69362 0.00118
 C273 C 0.58643 0.68358 -0.02630
 C274 C 0.60980 0.66209 -0.02618
 C275 C 0.54862 0.71428 0.00103
 C276 C 0.52691 0.73094 0.00095
 H277 H 0.61665 0.65205 0.05037
 H278 H 0.57547 0.68989 0.05016
 H279 H 0.57783 0.69199 -0.04778
 H280 H 0.61902 0.65415 -0.04757
 C281 C 0.89293 -0.16240 0.49841
 C282 C 0.87296 -0.14371 0.49848
 C283 C 0.84967 -0.12083 0.49857
 C284 C 0.83800 -0.11010 0.52616
 C285 C 0.81657 -0.08668 0.52630
 C286 C 0.80674 -0.07391 0.49885
 C287 C 0.81810 -0.08492 0.47124
 C288 C 0.83952 -0.10834 0.47110
 C289 C 0.78614 -0.04859 0.49905
 C290 C 0.76953 -0.02685 0.49920
 H291 H 0.84578 -0.11951 0.54754
 H292 H 0.80805 -0.07823 0.54779
 H293 H 0.81077 -0.07510 0.44988
 H294 H 0.84850 -0.11637 0.44963
 C295 C 0.33725 0.39374 1.00088
 C296 C 0.35590 0.37373 1.00066
 C297 C 0.37872 0.35039 1.00045
 C298 C 0.39028 0.33915 1.02790
 C299 C 0.41362 0.31764 1.02771
 C300 C 0.42549 0.30728 1.00006
 C301 C 0.41365 0.31821 0.97260
 C302 C 0.39031 0.33971 0.97279
 C303 C 0.45076 0.28662 0.99988
 C304 C 0.47248 0.26997 0.99979
 H305 H 0.38157 0.34734 1.04941
 H306 H 0.42271 0.30946 1.04907
 H307 H 0.42278 0.31046 0.95109
 H308 H 0.38163 0.34834 0.95143
 C309 C 0.89339 0.16242 0.49994
 C310 C 0.87336 0.14378 0.49982
 C311 C 0.85000 0.12097 0.49973
 C312 C 0.83897 0.10964 0.47213
 C313 C 0.81746 0.08630 0.47204
 C314 C 0.80689 0.07420 0.49955
 C315 C 0.81760 0.08582 0.52715
 C316 C 0.83911 0.10916 0.52724
 C317 C 0.78623 0.04893 0.49946
 C318 C 0.76957 0.02721 0.49940
 H319 H 0.84733 0.11852 0.45072
 H320 H 0.80945 0.07737 0.45057
 H321 H 0.80969 0.07653 0.54855
 H322 H 0.84757 0.11767 0.54871
 C323 C 0.33718 0.60764 0.00044
 C324 C 0.35586 0.62762 0.00058
 C325 C 0.37875 0.65091 0.00070
 C326 C 0.39047 0.66192 -0.02681
 C327 C 0.41389 0.68334 -0.02671
 C328 C 0.42569 0.69385 0.00090
 C329 C 0.41368 0.68316 0.02841
 C330 C 0.39026 0.66174 0.02831
 C331 C 0.45103 0.71444 0.00098
 C332 C 0.47280 0.73103 0.00098
 H333 H 0.38183 0.65361 -0.04828
 H334 H 0.42311 0.69134 -0.04810
 H335 H 0.42274 0.69102 0.04988
 H336 H 0.38145 0.65329 0.04971
 C337 C 0.10688 -0.16244 0.50116
 C338 C 0.12688 -0.14378 0.50119
 C339 C 0.15022 -0.12094 0.50122
 C340 C 0.16285 -0.11095 0.47373
 C341 C 0.18434 -0.08759 0.47363
 C342 C 0.19329 -0.07413 0.50102
 C343 C 0.18097 -0.08441 0.52854
 C344 C 0.15948 -0.10776 0.52864
 C345 C 0.21395 -0.04886 0.50077
 C346 C 0.23061 -0.02715 0.50053
 H347 H 0.15576 -0.12090 0.45238
 H348 H 0.19361 -0.07972 0.45221
 H349 H 0.18762 -0.07405 0.54984
 H350 H 0.14977 -0.11523 0.55002
 C351 C 0.66211 0.39341 0.99976
 C352 C 0.64342 0.37343 0.99980
 C353 C 0.62055 0.35013 0.99982
 C354 C 0.60917 0.33891 1.02738
 C355 C 0.58576 0.31747 1.02740
 C356 C 0.57365 0.30715 0.99986
 C357 C 0.58533 0.31805 0.97229
 C358 C 0.60873 0.33949 0.97227
 C359 C 0.54833 0.28655 0.99989
 C360 C 0.52658 0.26994 0.99986
 H361 H 0.61806 0.34708 1.04881
 H362 H 0.57679 0.30931 1.04885
 H363 H 0.57602 0.31033 0.95087
 H364 H 0.61728 0.34810 0.95083
 C365 C 0.49880 0.10674 1.16182
 C366 C 0.49885 0.12687 1.14323
 C367 C 0.49891 0.15035 1.12048
 C368 C 0.47145 0.16070 1.10822
 C369 C 0.47156 0.18232 1.08492
 C370 C 0.49913 0.19369 1.07380
 C371 C 0.52657 0.18367 1.08637
 C372 C 0.52646 0.16205 1.10967
 C373 C 0.49930 0.21444 1.04854
 C374 C 0.49942 0.23117 1.02682
 H375 H 0.45002 0.15172 1.11633
 H376 H 0.45022 0.18980 1.07525
 H377 H 0.54802 0.19220 1.07783
 H378 H 0.54783 0.15412 1.11891
 C379 C -0.00130 0.66067 0.60531
 C380 C -0.00121 0.64138 0.62476
 C381 C -0.00118 0.61764 0.64725
 C382 C -0.00621 0.58760 0.63828
 C383 C -0.00599 0.56430 0.65984
 C384 C -0.00075 0.57091 0.69051
 C385 C 0.00423 0.60097 0.69956
 C386 C 0.00402 0.62432 0.67794
 C387 C -0.00035 0.54664 0.71240
 C388 C -0.00011 0.52556 0.72991
 H389 H -0.01024 0.58218 0.61461
 H390 H -0.00985 0.54114 0.65260
 H391 H 0.00833 0.60631 0.72322
 H392 H 0.00795 0.64748 0.68512
 C393 C 0.49953 0.89335 -0.16192
 C394 C 0.49962 0.87331 -0.14324
 C395 C 0.49970 0.84994 -0.12037
 C396 C 0.47221 0.83907 -0.10857
 C397 C 0.47228 0.81758 -0.08514
 C398 C 0.49983 0.80686 -0.07343
 C399 C 0.52732 0.81740 -0.08553
 C400 C 0.52725 0.83889 -0.10895
 C401 C 0.49990 0.78624 -0.04805
 C402 C 0.49992 0.76963 -0.02624
 H403 H 0.45077 0.84754 -0.11714
 H404 H 0.45090 0.80969 -0.07585
 H405 H 0.54876 0.80938 -0.07653
 H406 H 0.54864 0.84723 -0.11783
 C407 C 0.99971 0.33733 0.39413
 C408 C 0.99986 0.35602 0.37409
 C409 C 1.00003 0.37886 0.35068
 C410 C 1.02763 0.39027 0.33969
 C411 C 1.02779 0.41359 0.31809
 C412 C 1.00035 0.42558 0.30739
 C413 C 0.97275 0.41390 0.31808
 C414 C 0.97259 0.39058 0.33968
 C415 C 1.00050 0.45079 0.28658
 C416 C 1.00057 0.47244 0.26978
 H417 H 1.04898 0.38145 0.34813
 H418 H 1.04926 0.42256 0.31009
 H419 H 0.95140 0.42311 0.31007
 H420 H 0.95111 0.38201 0.34811
 C421 C 0.50084 0.89377 0.16289
 C422 C 0.50071 0.87371 0.14430
 C423 C 0.50053 0.85031 0.12153
 C424 C 0.52797 0.83911 0.10997
 C425 C 0.52780 0.81756 0.08667
 C426 C 0.50019 0.80712 0.07485
 C427 C 0.47275 0.81800 0.08671
 C428 C 0.47292 0.83955 0.11001
 C429 C 0.50004 0.78641 0.04962
 C430 C 0.49994 0.76973 0.02792
 H431 H 0.54944 0.84737 0.11863
 H432 H 0.54914 0.80941 0.07756
 H433 H 0.45128 0.81020 0.07763
 H434 H 0.45158 0.84815 0.11870
 C435 C 0.00091 0.33653 0.60762
 C436 C 0.00078 0.35493 0.62786
 C437 C 0.00065 0.37753 0.65142
 C438 C -0.02694 0.38889 0.66245
 C439 C -0.02708 0.41218 0.68399
 C440 C 0.00038 0.42420 0.69460
 C441 C 0.02797 0.41251 0.68393
 C442 C 0.02810 0.38921 0.66239
 C443 C 0.00024 0.44964 0.71502
 C444 C 0.00013 0.47161 0.73133
 H445 H -0.04830 0.38011 0.65402
 H446 H -0.04854 0.42119 0.69195
 H447 H 0.04933 0.42176 0.69184
 H448 H 0.04956 0.38069 0.65391
 C449 C 0.50079 0.10758 0.83749
 C450 C 0.50062 0.12763 0.85609
 C451 C 0.50042 0.15102 0.87886
 C452 C 0.47280 0.16224 0.88995
 C453 C 0.47259 0.18375 0.91329
 C454 C 0.49999 0.19413 0.92561
 C455 C 0.52762 0.18324 0.91421
 C456 C 0.52784 0.16173 0.89088
 C457 C 0.49975 0.21475 0.95091
 C458 C 0.49961 0.23135 0.97267
 H459 H 0.45147 0.15402 0.88091
 H460 H 0.45109 0.19190 0.92205
 H461 H 0.54894 0.19100 0.92368
 H462 H 0.54932 0.15312 0.88255
 C463 C 1.00114 0.66254 0.39225
 C464 C 1.00105 0.64381 0.37232
 C465 C 1.00097 0.62086 0.34911
 C466 C 0.97340 0.60960 0.33797
 C467 C 0.97329 0.58609 0.31666
 C468 C 1.00076 0.57375 0.30640
 C469 C 1.02833 0.58530 0.31721
 C470 C 1.02844 0.60881 0.33852
 C471 C 1.00064 0.54833 0.28594
 C472 C 1.00058 0.52651 0.26944
 H473 H 0.95203 0.61866 0.34610
 H474 H 0.95184 0.57722 0.30856
 H475 H 1.04969 0.57582 0.30954
 H476 H 1.04988 0.61725 0.34708
 C477 C 1.16287 0.50059 0.10666
 C478 C 1.14423 0.50033 0.12674
 C479 C 1.12141 0.50006 0.15016
 C480 C 1.10991 0.52744 0.16147
 C481 C 1.08656 0.52721 0.18303
 C482 C 1.07462 0.49960 0.19338
 C483 C 1.08640 0.47221 0.18239
 C484 C 1.10976 0.47244 0.16082
 C485 C 1.04933 0.49941 0.21410
 C486 C 1.02761 0.49934 0.23081
 H487 H 1.11866 0.54893 0.15330
 H488 H 1.07750 0.54852 0.19127
 H489 H 1.07723 0.45073 0.19012
 H490 H 1.11840 0.45113 0.15214
 C491 C 0.60730 -0.00049 0.66228
 C492 C 0.62731 -0.00043 0.64357
 C493 C 0.65063 -0.00040 0.62065
 C494 C 0.66237 0.02712 0.60981
 C495 C 0.68382 0.02721 0.58636
 C496 C 0.69364 -0.00022 0.57366
 C497 C 0.68223 -0.02776 0.58479
 C498 C 0.66077 -0.02784 0.60824
 C499 C 0.71425 -0.00007 0.54828
 C500 C 0.73087 0.00005 0.52648
 H501 H 0.65459 0.04848 0.61916
 H502 H 0.69239 0.04863 0.57781
 H503 H 0.68955 -0.04909 0.57503
 H504 H 0.65176 -0.04924 0.61637
 C505 C -0.16247 0.50108 0.89335
 C506 C -0.14380 0.50093 0.87331
 C507 C -0.12094 0.50074 0.84992
 C508 C -0.11086 0.47318 0.83773
 C509 C -0.08747 0.47288 0.81621
 C510 C -0.07407 0.50016 0.80680
 C511 C -0.08443 0.52775 0.81868
 C512 C -0.10782 0.52805 0.84019
 C513 C -0.04876 0.49975 0.78613
 C514 C -0.02701 0.49942 0.76945
 H515 H -0.12076 0.45193 0.84519
 H516 H -0.07952 0.45141 0.80729
 H517 H -0.07413 0.54896 0.81167
 H518 H -0.11536 0.54948 0.84957
 C519 C 0.39292 -0.00165 0.33731
 C520 C 0.37292 -0.00156 0.35603
 C521 C 0.34959 -0.00142 0.37894
 C522 C 0.33956 -0.02880 0.39168
 C523 C 0.31810 -0.02859 0.41513
 C524 C 0.30659 -0.00101 0.42593
 C525 C 0.31631 0.02635 0.41290
 C526 C 0.33776 0.02614 0.38945
 C527 C 0.28598 -0.00071 0.45131
 C528 C 0.26936 -0.00046 0.47310
 H529 H 0.34865 -0.05024 0.38381
 H530 H 0.31085 -0.04987 0.42515
 H531 H 0.30766 0.04781 0.42118
 H532 H 0.34546 0.04744 0.37984
 C533 C 0.16212 0.50034 0.89346
 C534 C 0.14355 0.50044 0.87336
 C535 C 0.12080 0.50046 0.84991
 C536 C 0.10772 0.52785 0.84040
 C537 C 0.08440 0.52773 0.81884
 C538 C 0.07409 0.50023 0.80671
 C539 C 0.08748 0.47289 0.81589
 C540 C 0.11079 0.47300 0.83745
 C541 C 0.04882 0.49995 0.78603
 C542 C 0.02709 0.49961 0.76938
 H543 H 0.11520 0.54920 0.84998
 H544 H 0.07410 0.54899 0.81202
 H545 H 0.07956 0.45149 0.80677
 H546 H 0.12066 0.45169 0.84474
 C547 C 0.60706 0.00052 0.33693
 C548 C 0.62709 0.00052 0.35558
 C549 C 0.65043 0.00056 0.37843
 C550 C 0.66044 0.02803 0.39086
 C551 C 0.68192 0.02801 0.41425
 C552 C 0.69349 0.00052 0.42528
 C553 C 0.68379 -0.02694 0.41257
 C554 C 0.66231 -0.02692 0.38918
 C555 C 0.71414 0.00042 0.45058
 C556 C 0.73080 0.00033 0.47231
 H557 H 0.65132 0.04940 0.38281
 H558 H 0.68915 0.04936 0.42403
 H559 H 0.69247 -0.04834 0.42104
 H560 H 0.65463 -0.04830 0.37982
 C561 C 0.83780 0.49905 0.10752
 C562 C 0.85653 0.49906 0.12748
 C563 C 0.87946 0.49903 0.15075
 C564 C 0.89199 0.47157 0.16076
 C565 C 0.91542 0.47160 0.18218
 C566 C 0.92642 0.49910 0.19368
 C567 C 0.91362 0.52655 0.18398
 C568 C 0.89018 0.52652 0.16256
 C569 C 0.95176 0.49921 0.21428
 C570 C 0.97351 0.49930 0.23090
 H571 H 0.88396 0.45020 0.15168
 H572 H 0.92527 0.45026 0.18940
 H573 H 0.92207 0.54795 0.19261
 H574 H 0.88075 0.54789 0.15488
 C575 C 0.39314 0.00108 0.66259
 C576 C 0.37310 0.00097 0.64396
 C577 C 0.34973 0.00086 0.62114
 C578 C 0.33804 -0.02670 0.61047
 C579 C 0.31654 -0.02686 0.58710
 C580 C 0.30664 0.00053 0.57432
 C581 C 0.31800 0.02810 0.58528
 C582 C 0.33950 0.02827 0.60865
 C583 C 0.28599 0.00029 0.54901
 C584 C 0.26935 0.00009 0.52726
 H585 H 0.34588 -0.04803 0.61988
 H586 H 0.30801 -0.04832 0.57869
 H587 H 0.31061 0.04941 0.57545
 H588 H 0.34848 0.04970 0.61664
   
