data_POSCAR
  _audit_creation_date              2014-09-24
  _audit_creation_method            'ToBaCCo'
  _symmetry_space_group_name_H-M    'P1'
  _symmetry_Int_Tables_number       1
  _symmetry_cell_setting            triclinic
  loop_
  _symmetry_equiv_pos_as_xyz
 x,y,z
_cell_length_a 43.3297
_cell_length_b 45.4369
_cell_length_c 43.3089
_cell_angle_alpha 90.901300
_cell_angle_beta 93.257100
_cell_angle_gamma 91.253600
loop_
  _atom_site_label
  _atom_site_type_symbol
  _atom_site_fract_x
  _atom_site_fract_y
  _atom_site_fract_z
C1 C 0.26425 0.46663 1.02770
 C2 C 0.24001 0.47173 1.05173
 C3 C 0.22385 0.49684 1.04756
 C4 C 0.23353 0.51473 1.01968
 C5 C 0.24634 0.46815 0.99623
 C6 C 0.23049 0.49332 0.99192
 C7 C 0.28444 0.49507 1.03015
 C8 C 0.26862 0.52050 1.02543
 H9 H 0.23761 0.45807 1.07174
 H10 H 0.21920 0.53424 1.01571
 H11 H 0.24744 0.45131 0.97837
 H12 H 0.30881 0.49486 1.03687
 C13 C 0.71773 0.52905 -0.03736
 C14 C 0.74321 0.52986 -0.01096
 C15 C 0.76390 0.50729 -0.01242
 C16 C 0.75676 0.48648 -0.04093
 C17 C 0.73528 0.52876 -0.06693
 C18 C 0.75543 0.50659 -0.06906
 C19 C 0.70328 0.49818 -0.03540
 C20 C 0.72325 0.47586 -0.03777
 H21 H 0.74316 0.54533 0.00816
 H22 H 0.77245 0.46810 -0.04446
 H23 H 0.73211 0.54517 -0.08466
 H24 H 0.67923 0.49453 -0.03062
 C25 C 0.04140 0.23147 0.48617
 C26 C 0.03857 0.24342 0.45541
 C27 C 0.01159 0.26027 0.44915
 C28 C -0.00838 0.26143 0.47519
 C29 C 0.03832 0.25789 0.50849
 C30 C 0.01232 0.27408 0.50288
 C31 C 0.01143 0.21365 0.48969
 C32 C -0.01481 0.22898 0.48370
 H33 H 0.05719 0.24228 0.43979
 H34 H -0.03004 0.27300 0.46955
 H35 H 0.05384 0.26135 0.52866
 H36 H 0.01108 0.19156 0.49870
 C37 C 0.96425 0.77341 0.50465
 C38 C 0.96339 0.74914 0.47932
 C39 C 0.98922 0.73264 0.47972
 C40 C 1.01427 0.74270 0.50438
 C41 C 0.97185 0.75728 0.53495
 C42 C 0.99801 0.74130 0.53485
 C43 C 0.99372 0.79150 0.49876
 C44 C 1.02019 0.77575 0.49883
 H45 H 0.94327 0.74379 0.46416
 H46 H 1.03491 0.72884 0.50390
 H47 H 0.95723 0.75785 0.55442
 H48 H 0.99336 0.81484 0.49487
 C49 C 0.52065 0.03031 0.23047
 C50 C 0.48722 0.02650 0.24074
 C51 C 0.48273 0.00185 0.25756
 C52 C 0.51193 -0.01626 0.26322
 C53 C 0.54041 0.03012 0.26109
 C54 C 0.53585 0.00578 0.27828
 C55 C 0.52717 0.00282 0.21481
 C56 C 0.52244 -0.02315 0.23252
 H57 H 0.46907 0.04211 0.23655
 H58 H 0.50758 -0.03525 0.27808
 H59 H 0.55487 0.04864 0.26946
 H60 H 0.53632 0.00254 0.19209
 C61 C 0.48705 -0.03116 0.77912
 C62 C 0.46761 -0.02730 0.74873
 C63 C 0.47604 -0.00348 0.73193
 C64 C 0.50377 0.01427 0.74746
 C65 C 0.52036 -0.03220 0.76890
 C66 C 0.52925 -0.00843 0.75264
 C67 C 0.48514 -0.00173 0.79632
 C68 C 0.49397 0.02215 0.78018
 H69 H 0.44866 -0.04212 0.74150
 H70 H 0.51185 0.03347 0.73448
 H71 H 0.53509 -0.05093 0.77247
 H72 H 0.47657 -0.00016 0.81928
 C73 C 0.30273 0.01158 0.43842
 H74 H 0.30951 0.02644 0.45746
 C75 C 0.32163 0.00907 0.41353
 H76 H 0.34288 0.02208 0.41382
 C77 C 0.26821 -0.02512 0.41640
 H78 H 0.24780 -0.03890 0.41773
 C79 C 0.28627 -0.02812 0.39090
 H80 H 0.27902 -0.04381 0.37271
 N81 N 0.27666 -0.00549 0.43957
 C82 C 0.20105 0.02985 0.48530
 H83 H 0.19130 0.00901 0.49209
 C84 C 0.18377 0.05528 0.48765
 H85 H 0.16075 0.05367 0.49609
 C86 C 0.24349 0.05759 0.46804
 H87 H 0.26694 0.05845 0.46087
 C88 C 0.22708 0.08357 0.47019
 H89 H 0.23795 0.10420 0.46409
 Zn90 Zn 0.25468 -0.00285 0.47619
 N91 N 0.23041 0.03142 0.47574
 C92 C 0.28350 0.02338 0.53021
 N93 N 0.28443 0.00030 0.50992
 C94 C 0.30751 -0.01951 0.51221
 C95 C 0.33118 -0.01625 0.53540
 C96 C 0.30682 0.02763 0.55348
 C97 C 0.20483 -0.04182 0.45892
 C98 C 0.18576 -0.06684 0.46068
 C99 C 0.21560 -0.08061 0.50678
 C100 C 0.23423 -0.05542 0.50401
 N101 N 0.22883 -0.03680 0.48012
 H102 H 0.26491 0.03880 0.52813
 H103 H 0.30783 -0.03751 0.49558
 H104 H 0.34974 -0.03184 0.53657
 H105 H 0.30584 0.04624 0.56930
 H106 H 0.20057 -0.02637 0.44049
 H107 H 0.16729 -0.07070 0.44310
 H108 H 0.22013 -0.09491 0.52619
 H109 H 0.25293 -0.05077 0.52106
 C110 C 0.19690 0.08265 0.48038
 C111 C 0.31367 -0.01121 0.38942
 C112 C 0.19111 -0.08676 0.48478
 C113 C 0.33123 0.00786 0.55607
 C114 C 0.71692 0.03275 0.57764
 H115 H 0.71395 0.05001 0.56087
 C116 C 0.69932 0.03254 0.60366
 H117 H 0.68328 0.05008 0.60708
 C118 C 0.74069 -0.01163 0.59283
 H119 H 0.75593 -0.02938 0.58800
 C120 C 0.72357 -0.01267 0.61918
 H121 H 0.72607 -0.03124 0.63442
 N122 N 0.73701 0.01082 0.57264
 C123 C 0.79665 0.04626 0.50314
 H124 H 0.79388 0.02895 0.48570
 C125 C 0.81533 0.07097 0.49809
 H126 H 0.82671 0.07260 0.47655
 C127 C 0.78463 0.06526 0.55217
 H128 H 0.77289 0.06282 0.57335
 C129 C 0.80301 0.09039 0.54804
 H130 H 0.80535 0.10700 0.56627
 Zn131 Zn 0.75552 0.01037 0.53405
 N132 N 0.78143 0.04403 0.52965
 C133 C 0.71873 0.03127 0.48240
 N134 N 0.72225 0.00994 0.50391
 C135 C 0.70108 -0.01241 0.50559
 C136 C 0.67563 -0.01455 0.48446
 C137 C 0.69343 0.03011 0.46090
 C138 C 0.80347 -0.02920 0.54955
 C139 C 0.82022 -0.05504 0.54703
 C140 C 0.78766 -0.06896 0.50184
 C141 C 0.77160 -0.04295 0.50521
 N142 N 0.77919 -0.02399 0.52920
 H143 H 0.73535 0.04931 0.48200
 H144 H 0.70427 -0.02884 0.52324
 H145 H 0.65962 -0.03306 0.48572
 H146 H 0.69084 0.04742 0.44412
 H147 H 0.80941 -0.01353 0.56813
 H148 H 0.83890 -0.05923 0.56395
 H149 H 0.78117 -0.08369 0.48255
 H150 H 0.75308 -0.03802 0.48851
 C151 C 0.81851 0.09358 0.52061
 C152 C 0.70222 0.00939 0.62464
 C153 C 0.81204 -0.07553 0.52315
 C154 C 0.67154 0.00686 0.46165
 C155 C 0.48829 0.20452 1.03987
 H156 H 0.47029 0.19964 1.02207
 C157 C 0.49415 0.18460 1.06358
 H158 H 0.48068 0.16426 1.06367
 C159 C 0.52874 0.23636 1.06026
 H160 H 0.54219 0.25655 1.05876
 C161 C 0.53530 0.21714 1.08445
 H162 H 0.55369 0.22289 1.10159
 N163 N 0.50588 0.22954 1.03836
 C164 C 0.45506 0.29658 0.98641
 H165 H 0.46834 0.29914 0.96618
 C166 C 0.42915 0.31383 0.99006
 H167 H 0.42237 0.32922 0.97222
 C168 C 0.44784 0.27347 1.03418
 H169 H 0.45533 0.25794 1.05153
 C170 C 0.42181 0.29023 1.03874
 H171 H 0.40972 0.28749 1.05974
 Zn172 Zn 0.49959 0.25375 1.00364
 N173 N 0.46388 0.27680 1.00831
 C174 C 0.47238 0.23240 0.94523
 N175 N 0.49479 0.22867 0.96807
 C176 C 0.51498 0.20627 0.96655
 C177 C 0.51382 0.18715 0.94105
 C178 C 0.47035 0.21368 0.91920
 C179 C 0.53353 0.30807 1.00154
 C180 C 0.55983 0.32581 0.99826
 C181 C 0.58978 0.28196 0.99344
 C182 C 0.56290 0.26508 0.99664
 N183 N 0.53537 0.27823 1.00024
 H184 H 0.45601 0.24980 0.94703
 H185 H 0.53186 0.20292 0.98539
 H186 H 0.53058 0.16988 0.94019
 H187 H 0.45227 0.21686 0.90134
 H188 H 0.51175 0.31825 1.00526
 H189 H 0.55792 0.34952 0.99946
 H190 H 0.61133 0.27103 0.99012
 H191 H 0.56419 0.24142 0.99642
 C192 C 0.41210 0.31075 1.01651
 C193 C 0.51827 0.19059 1.08603
 C194 C 0.58838 0.31273 0.99394
 C195 C 0.49136 0.19074 0.91685
 C196 C 0.46464 0.79878 -0.01485
 H197 H 0.44994 0.79653 0.00438
 C198 C 0.45818 0.81986 -0.03731
 H199 H 0.43850 0.83387 -0.03517
 C200 C 0.50861 0.78375 -0.04053
 H201 H 0.52872 0.77023 -0.04139
 C202 C 0.50313 0.80460 -0.06337
 H203 H 0.51860 0.80615 -0.08208
 N204 N 0.48884 0.78049 -0.01745
 C205 C 0.46102 0.70351 0.03460
 H206 H 0.48219 0.70030 0.04848
 C207 C 0.43602 0.68386 0.03674
 H208 H 0.43791 0.66576 0.05265
 C209 C 0.43299 0.73081 -0.00333
 H210 H 0.43213 0.74847 -0.01969
 C211 C 0.40734 0.71190 -0.00167
 H212 H 0.38685 0.71549 -0.01651
 Zn213 Zn 0.49496 0.75084 0.01265
 N214 N 0.45901 0.72662 0.01504
 C215 C 0.48807 0.76673 0.07570
 N216 N 0.50535 0.77021 0.05070
 C217 C 0.52944 0.78990 0.05112
 C218 C 0.53637 0.80786 0.07712
 C219 C 0.49451 0.78394 0.10239
 C220 C 0.52402 0.71372 -0.02709
 C221 C 0.54467 0.69280 -0.03628
 C222 C 0.56918 0.69452 0.01524
 C223 C 0.54881 0.71662 0.02304
 N224 N 0.52660 0.72545 0.00195
 H225 H 0.46864 0.75138 0.07467
 H226 H 0.54258 0.79234 0.03077
 H227 H 0.55509 0.82402 0.07684
 H228 H 0.48000 0.78164 0.12180
 H229 H 0.50561 0.72054 -0.04315
 H230 H 0.54254 0.68494 -0.06001
 H231 H 0.58551 0.68674 0.03290
 H232 H 0.54979 0.72567 0.04633
 C233 C 0.40869 0.68808 0.01857
 C234 C 0.47732 0.82264 -0.06224
 C235 C 0.56700 0.68191 -0.01475
 C236 C 0.51850 0.80522 0.10298
 C237 C 1.01337 0.49086 0.20105
 H238 H 0.99579 0.47392 0.19601
 C239 C 1.03770 0.49435 0.18151
 H240 H 1.03842 0.48018 0.16125
 C241 C 1.03290 0.53057 0.23303
 H242 H 1.03079 0.54492 0.25286
 C243 C 1.05771 0.53472 0.21422
 H244 H 1.07476 0.55191 0.22033
 N245 N 1.01151 0.50870 0.22635
 C246 C 0.95800 0.45668 0.28944
 H247 H 0.93852 0.47066 0.29276
 C248 C 0.96005 0.42973 0.30454
 H249 H 0.94174 0.42294 0.31906
 C250 C 1.00540 0.44867 0.26635
 H251 H 1.02342 0.45633 0.25203
 C252 C 1.00850 0.42176 0.28115
 H253 H 1.02905 0.40920 0.27797
 Zn254 Zn 0.97720 0.50257 0.25101
 N255 N 0.98026 0.46539 0.27039
 C256 C 0.92340 0.47891 0.21916
 N257 N 0.94144 0.50363 0.22370
 C258 C 0.93751 0.52738 0.20521
 C259 C 0.91597 0.52612 0.17983
 C260 C 0.90164 0.47675 0.19421
 C261 C 1.00144 0.52994 0.30436
 C262 C 1.00376 0.54926 0.32967
 C263 C 0.95619 0.57133 0.31096
 C264 C 0.95486 0.55154 0.28572
 N265 N 0.97738 0.53140 0.28297
 H266 H 0.92718 0.46003 0.23356
 H267 H 0.95259 0.54656 0.20893
 H268 H 0.91451 0.54445 0.16418
 H269 H 0.88846 0.45639 0.19021
 H270 H 1.01890 0.51358 0.30167
 H271 H 1.02347 0.54787 0.34606
 H272 H 0.93784 0.58688 0.31319
 H273 H 0.93570 0.55201 0.26863
 C274 C 0.98554 0.41176 0.30038
 C275 C 1.06034 0.51653 0.18798
 C276 C 0.98080 0.57013 0.33352
 C277 C 0.89862 0.50007 0.17343
 C278 C -0.03396 0.47841 0.77934
 H279 H -0.01664 0.46207 0.78419
 C280 C -0.06143 0.47769 0.79473
 H281 H -0.06529 0.46055 0.81126
 C282 C -0.05008 0.52045 0.75157
 H283 H -0.04546 0.53729 0.73503
 C284 C -0.07793 0.52042 0.76623
 H285 H -0.09449 0.53735 0.76082
 N286 N -0.02899 0.49935 0.75794
 C287 C 0.03149 0.46257 0.69070
 H288 H 0.05136 0.47744 0.69289
 C289 C 0.02901 0.44144 0.66674
 H290 H 0.04716 0.44009 0.65063
 C291 C -0.01746 0.44777 0.70757
 H292 H -0.03601 0.45076 0.72285
 C293 C -0.02086 0.42645 0.68407
 H294 H -0.04173 0.41284 0.68210
 Zn295 Zn 0.00859 0.49854 0.73772
 N296 N 0.00816 0.46566 0.71018
 C297 C 0.06383 0.47742 0.76932
 N298 N 0.04089 0.49744 0.76887
 C299 C 0.03998 0.51869 0.79121
 C300 C 0.06366 0.52161 0.81420
 C301 C 0.08794 0.47931 0.79230
 C302 C -0.00583 0.53624 0.68817
 C303 C -0.00283 0.56100 0.66971
 C304 C 0.03956 0.57841 0.70429
 C305 C 0.03593 0.55326 0.72188
 N306 N 0.01327 0.53292 0.71385
 H307 H 0.06379 0.46042 0.75157
 H308 H 0.02119 0.53400 0.79054
 H309 H 0.06293 0.53915 0.83135
 H310 H 0.10658 0.46383 0.79208
 H311 H -0.02333 0.51950 0.68195
 H312 H -0.01793 0.56293 0.64910
 H313 H 0.05735 0.59453 0.71162
 H314 H 0.05140 0.55011 0.74189
 C315 C 0.00214 0.42360 0.66274
 C316 C -0.08397 0.49871 0.78794
 C317 C 0.02015 0.58254 0.67770
 C318 C 0.08829 0.50210 0.81461
 C319 C 0.09843 0.16873 0.48257
 C320 C 0.12513 0.18210 0.49501
 C321 C 0.12639 0.21125 0.50533
 C322 C 0.09895 0.22719 0.50290
 C323 C 0.07072 0.21371 0.49082
 C324 C 0.07100 0.18410 0.47986
 O325 O 0.10216 0.14106 0.47359
 C326 C 0.13191 0.13681 0.48056
 C327 C 0.14708 0.16126 0.49362
 C328 C 0.17847 0.16165 0.50237
 C329 C 0.19479 0.13573 0.49764
 C330 C 0.17958 0.11012 0.48441
 C331 C 0.14762 0.11086 0.47571
 H332 H 0.14782 0.22151 0.51451
 H333 H 0.10007 0.25017 0.50979
 H334 H 0.05056 0.17336 0.46898
 H335 H 0.18995 0.18113 0.51261
 H336 H 0.21913 0.13547 0.50481
 H337 H 0.13537 0.09186 0.46526
 C338 C 0.66561 0.59506 -0.02279
 C339 C 0.64230 0.58852 -0.04486
 C340 C 0.64292 0.56495 -0.06535
 C341 C 0.66843 0.54688 -0.06277
 C342 C 0.69245 0.55178 -0.03927
 C343 C 0.69123 0.57675 -0.01921
 O344 O 0.66013 0.61913 -0.00619
 C345 C 0.63269 0.62752 -0.01799
 C346 C 0.62086 0.60920 -0.04143
 C347 C 0.59198 0.61254 -0.05615
 C348 C 0.57444 0.63603 -0.04660
 C349 C 0.58626 0.65651 -0.02340
 C350 C 0.61597 0.65184 -0.00870
 H351 H 0.62440 0.56062 -0.08278
 H352 H 0.66919 0.52838 -0.07878
 H353 H 0.70916 0.58178 -0.00145
 H354 H 0.58294 0.59716 -0.07394
 H355 H 0.55135 0.63771 -0.05716
 H356 H 0.62596 0.66664 0.00913
 C357 C 0.90853 -0.16354 0.51701
 C358 C 0.88053 -0.17741 0.50971
 C359 C 0.87789 -0.20708 0.50147
 C360 C 0.90527 -0.22294 0.50013
 C361 C 0.93475 -0.20892 0.50624
 C362 C 0.93595 -0.17889 0.51605
 O363 O 0.90612 -0.13521 0.52421
 C364 C 0.87589 -0.13105 0.52127
 C365 C 0.85917 -0.15619 0.51252
 C366 C 0.82718 -0.15665 0.50766
 C367 C 0.81186 -0.13006 0.51166
 C368 C 0.82860 -0.10366 0.52031
 C369 C 0.86114 -0.10439 0.52544
 H370 H 0.85554 -0.21768 0.49632
 H371 H 0.90333 -0.24620 0.49450
 H372 H 0.95742 -0.16752 0.52306
 H373 H 0.81449 -0.17670 0.50082
 H374 H 0.78692 -0.13008 0.50809
 H375 H 0.87469 -0.08466 0.53165
 C376 C 0.32685 0.40904 1.02120
 C377 C 0.31257 0.38476 1.03304
 C378 C 0.28287 0.38540 1.04354
 C379 C 0.26738 0.41222 1.04203
 C380 C 0.28188 0.43803 1.03076
 C381 C 0.31189 0.43588 1.01944
 O382 O 0.35492 0.40373 1.01197
 C383 C 0.35847 0.37545 1.01817
 C384 C 0.33322 0.36278 1.03104
 C385 C 0.33204 0.33333 1.03925
 C386 C 0.35803 0.31632 1.03417
 C387 C 0.38453 0.32890 1.02111
 C388 C 0.38452 0.35897 1.01291
 H389 H 0.27184 0.36585 1.05223
 H390 H 0.24388 0.41259 1.04917
 H391 H 0.32326 0.45436 1.00904
 H392 H 0.31186 0.32377 1.04921
 H393 H 0.35735 0.29329 1.04017
 H394 H 0.40439 0.36942 1.00323
 C395 C 0.92028 0.17268 0.48930
 C396 C 0.89792 0.18958 0.50156
 C397 C 0.90196 0.21973 0.50701
 C398 C 0.93038 0.23283 0.50003
 C399 C 0.95407 0.21575 0.48792
 C400 C 0.94850 0.18526 0.48200
 O401 O 0.91250 0.14429 0.48699
 C402 C 0.88461 0.14318 0.49812
 C403 C 0.87458 0.17026 0.50739
 C404 C 0.84646 0.17386 0.52080
 C405 C 0.82802 0.14853 0.52487
 C406 C 0.83792 0.12027 0.51560
 C407 C 0.86666 0.11777 0.50186
 H408 H 0.88418 0.23258 0.51701
 H409 H 0.93425 0.25595 0.50529
 H410 H 0.96590 0.17149 0.47263
 H411 H 0.83908 0.19535 0.52810
 H412 H 0.80597 0.15095 0.53509
 H413 H 0.87522 0.09657 0.49503
 C414 C 0.32931 0.58244 0.02369
 C415 C 0.31105 0.60667 0.02508
 C416 C 0.27924 0.60455 0.02679
 C417 C 0.26562 0.57630 0.02712
 C418 C 0.28371 0.55054 0.02569
 C419 C 0.31626 0.55407 0.02377
 O420 O 0.35911 0.58932 0.02198
 C421 C 0.35956 0.61856 0.02230
 C422 C 0.33071 0.63026 0.02405
 C423 C 0.32575 0.66039 0.02411
 C424 C 0.35162 0.67926 0.02227
 C425 C 0.38171 0.66779 0.02062
 C426 C 0.38565 0.63692 0.02074
 H427 H 0.26533 0.62400 0.02781
 H428 H 0.24094 0.57519 0.02855
 H429 H 0.33126 0.53554 0.02180
 H430 H 0.30278 0.66905 0.02542
 H431 H 0.34830 0.70282 0.02245
 H432 H 0.40826 0.62751 0.01914
 C433 C 0.08414 -0.16804 0.48477
 C434 C 0.10985 -0.18311 0.49471
 C435 C 0.10820 -0.21189 0.50486
 C436 C 0.07882 -0.22551 0.50531
 C437 C 0.05156 -0.21038 0.49568
 C438 C 0.05480 -0.18125 0.48453
 O439 O 0.09048 -0.14046 0.47718
 C440 C 0.12089 -0.13808 0.48251
 C441 C 0.13392 -0.16357 0.49317
 C442 C 0.16536 -0.16566 0.50095
 C443 C 0.18409 -0.14039 0.49773
 C444 C 0.17116 -0.11361 0.48715
 C445 C 0.13900 -0.11269 0.47929
 H446 H 0.12876 -0.22329 0.51282
 H447 H 0.07784 -0.24754 0.51402
 H448 H 0.03529 -0.16867 0.47619
 H449 H 0.17511 -0.18596 0.50933
 H450 H 0.20866 -0.14178 0.50337
 H451 H 0.12816 -0.09262 0.47169
 C452 C 0.67093 0.40882 0.96059
 C453 C 0.68817 0.38997 0.97871
 C454 C 0.71831 0.39690 0.98982
 C455 C 0.73070 0.42472 0.98272
 C456 C 0.71281 0.44483 0.96498
 C457 C 0.68290 0.43617 0.95293
 O458 O 0.64210 0.39938 0.95427
 C459 C 0.64091 0.37403 0.96887
 C460 C 0.66846 0.36710 0.98413
 C461 C 0.67157 0.34230 1.00240
 C462 C 0.64521 0.32410 1.00510
 C463 C 0.61646 0.33115 0.98987
 C464 C 0.61456 0.35637 0.97125
 H465 H 0.73132 0.38197 1.00450
 H466 H 0.75337 0.43113 0.99252
 H467 H 0.66858 0.45096 0.93934
 H468 H 0.69329 0.33747 1.01465
 H469 H 0.64698 0.30505 1.01974
 H470 H 0.59304 0.36237 0.95930
 C471 C 0.51236 0.09587 1.17590
 C472 C 0.54293 0.10339 1.17296
 C473 C 0.56695 0.08845 1.18780
 C474 C 0.55913 0.06489 1.20660
 C475 C 0.52768 0.05687 1.21071
 C476 C 0.50402 0.07256 1.19452
 O477 O 0.49311 0.11218 1.15890
 C478 C 0.51197 0.13042 1.14496
 C479 C 0.54269 0.12597 1.15278
 C480 C 0.56639 0.14212 1.14024
 C481 C 0.55808 0.16368 1.11865
 C482 C 0.52651 0.16868 1.11003
 C483 C 0.50317 0.15178 1.12364
 H484 H 0.59088 0.09442 1.18467
 H485 H 0.57765 0.05263 1.21777
 H486 H 0.47984 0.06660 1.19534
 H487 H 0.59042 0.13801 1.14653
 H488 H 0.57631 0.17590 1.10809
 H489 H 0.47889 0.15504 1.11776
 C490 C -0.00125 0.68243 0.59541
 C491 C 0.03002 0.68091 0.60253
 C492 C 0.05158 0.69956 0.58986
 C493 C 0.04052 0.72027 0.56852
 C494 C 0.00850 0.72191 0.56023
 C495 C -0.01276 0.70299 0.57432
 O496 O -0.01765 0.66198 0.60924
 C497 C 0.00375 0.64721 0.62534
 C498 C 0.03327 0.65791 0.62197
 C499 C 0.05926 0.64510 0.63580
 C500 C 0.05467 0.62030 0.65399
 C501 C 0.02442 0.60884 0.65821
 C502 C -0.00139 0.62267 0.64352
 H503 H 0.07608 0.69791 0.59578
 H504 H 0.05694 0.73483 0.55824
 H505 H -0.03728 0.70332 0.56796
 H506 H 0.08230 0.65366 0.63238
 H507 H 0.07480 0.60974 0.66431
 H508 H -0.02479 0.61470 0.64624
 C509 C 0.48943 0.90977 -0.15911
 C510 C 0.45870 0.90181 -0.15859
 C511 C 0.43607 0.91408 -0.17812
 C512 C 0.44555 0.93535 -0.19903
 C513 C 0.47733 0.94355 -0.20060
 C514 C 0.49934 0.93077 -0.17961
 O515 O 0.50722 0.89622 -0.13812
 C516 C 0.48729 0.87927 -0.12403
 C517 C 0.45726 0.88190 -0.13556
 C518 C 0.43267 0.86640 -0.12371
 C519 C 0.43941 0.84720 -0.09923
 C520 C 0.47031 0.84387 -0.08719
 C521 C 0.49450 0.86037 -0.09981
 H522 H 0.41190 0.90797 -0.17685
 H523 H 0.42789 0.94594 -0.21326
 H524 H 0.52346 0.93755 -0.17839
 H525 H 0.40920 0.86885 -0.13308
 H526 H 0.42066 0.83451 -0.09009
 H527 H 0.51825 0.85868 -0.09092
 C528 C 0.98974 0.31935 0.39374
 C529 C 1.00234 0.30866 0.36752
 C530 C 1.01721 0.28196 0.36653
 C531 C 1.01964 0.26574 0.39379
 C532 C 1.00687 0.27605 0.42147
 C533 C 0.99103 0.30315 0.42096
 O534 O 0.97880 0.34628 0.39038
 C535 C 0.98453 0.35262 0.36136
 C536 C 0.99869 0.33020 0.34634
 C537 C 1.00779 0.33245 0.31621
 C538 C 1.00242 0.35903 0.30100
 C539 C 0.98865 0.38299 0.31616
 C540 C 0.97919 0.37940 0.34675
 H541 H 1.02725 0.27418 0.34567
 H542 H 1.03116 0.24488 0.39297
 H543 H 0.98199 0.31263 0.44157
 H544 H 1.01894 0.31448 0.30490
 H545 H 1.00922 0.36095 0.27744
 H546 H 0.96914 0.39725 0.35931
 C547 C 0.52807 0.91356 0.17731
 C548 C 0.52903 0.89037 0.19725
 C549 C 0.52930 0.89426 0.22909
 C550 C 0.52807 0.92316 0.24085
 C551 C 0.52605 0.94782 0.22077
 C552 C 0.52668 0.94241 0.18836
 O553 O 0.52702 0.90523 0.14778
 C554 C 0.52726 0.87610 0.14912
 C555 C 0.52837 0.86581 0.17884
 C556 C 0.52709 0.83592 0.18539
 C557 C 0.52435 0.81591 0.16024
 C558 C 0.52326 0.82611 0.12941
 C559 C 0.52502 0.85667 0.12389
 H560 H 0.53034 0.87567 0.24441
 H561 H 0.52939 0.92574 0.26569
 H562 H 0.52439 0.95968 0.17160
 H563 H 0.52757 0.82831 0.20896
 H564 H 0.52290 0.79255 0.16470
 H565 H 0.52348 0.86510 0.10062
 C566 C 0.01656 0.33503 0.56475
 C567 C -0.01309 0.34506 0.56213
 C568 C -0.03509 0.33393 0.54027
 C569 C -0.02639 0.31118 0.52055
 C570 C 0.00396 0.29963 0.52292
 C571 C 0.02584 0.31253 0.54524
 O572 O 0.03376 0.34825 0.58753
 C573 C 0.01441 0.36698 0.59957
 C574 C -0.01454 0.36586 0.58481
 C575 C -0.03863 0.38303 0.59395
 C576 C -0.03272 0.40205 0.61950
 C577 C -0.00311 0.40355 0.63545
 C578 C 0.02088 0.38586 0.62503
 H579 H -0.05834 0.34224 0.53865
 H580 H -0.04390 0.30271 0.50397
 H581 H 0.04946 0.30546 0.54781
 H582 H -0.06124 0.38173 0.58195
 H583 H -0.05119 0.41578 0.62673
 H584 H 0.04362 0.38630 0.63680
 C585 C 0.49667 0.08545 0.83805
 C586 C 0.49008 0.10875 0.81913
 C587 C 0.48559 0.10549 0.78719
 C588 C 0.48758 0.07701 0.77439
 C589 C 0.49386 0.05250 0.79350
 C590 C 0.49895 0.05713 0.82584
 O591 O 0.49979 0.09296 0.86777
 C592 C 0.49501 0.12166 0.86767
 C593 C 0.48896 0.13251 0.83854
 C594 C 0.48301 0.16206 0.83338
 C595 C 0.48354 0.18115 0.85930
 C596 C 0.48990 0.17043 0.88960
 C597 C 0.49552 0.14012 0.89363
 H598 H 0.48033 0.12411 0.77269
 H599 H 0.48336 0.07415 0.74978
 H600 H 0.50441 0.03924 0.84127
 H601 H 0.47830 0.17015 0.81026
 H602 H 0.47953 0.20431 0.85570
 H603 H 0.49993 0.13102 0.91637
 C604 C 0.98090 0.67318 0.41727
 C605 C 0.99163 0.64947 0.43370
 C606 C 1.00216 0.65155 0.46456
 C607 C 1.00156 0.67922 0.47920
 C608 C 0.99038 0.70409 0.46298
 C609 C 0.97973 0.70095 0.43154
 O610 O 0.97271 0.66641 0.38791
 C611 C 0.97835 0.63780 0.38588
 C612 C 0.98978 0.62644 0.41334
 C613 C 0.99744 0.59711 0.41659
 C614 C 0.99358 0.57871 0.39033
 C615 C 0.98258 0.58985 0.36134
 C616 C 0.97445 0.61988 0.35931
 H617 H 1.01056 0.63255 0.47694
 H618 H 1.00925 0.68109 0.50339
 H619 H 0.97118 0.71957 0.41859
 H620 H 1.00620 0.58869 0.43854
 H621 H 0.99923 0.55573 0.39264
 H622 H 0.96624 0.62920 0.33759
 C623 C 1.15953 0.49762 0.10337
 C624 C 1.15741 0.52739 0.10877
 C625 C 1.17637 0.54807 0.09545
 C626 C 1.19830 0.53767 0.07559
 C627 C 1.20082 0.50711 0.06919
 C628 C 1.18115 0.48679 0.08357
 O629 O 1.13932 0.48174 0.11843
 C630 C 1.12412 0.50197 0.13359
 C631 C 1.13430 0.53023 0.12843
 C632 C 1.12145 0.55479 0.14174
 C633 C 1.09710 0.55004 0.16123
 C634 C 1.08619 0.52107 0.16723
 C635 C 1.10006 0.49671 0.15304
 H636 H 1.17446 0.57138 0.10028
 H637 H 1.21362 0.55350 0.06570
 H638 H 1.18229 0.46334 0.07912
 H639 H 1.12971 0.57684 0.13711
 H640 H 1.08648 0.56902 0.17125
 H641 H 1.09261 0.47431 0.15724
 C642 C 0.59388 0.00636 0.69959
 C643 C 0.61894 -0.00255 0.71775
 C644 C 0.61635 -0.01293 0.74753
 C645 C 0.58671 -0.01438 0.75898
 C646 C 0.56044 -0.00544 0.74066
 C647 C 0.56422 0.00540 0.71064
 O648 O 0.60116 0.01425 0.67149
 C649 C 0.63144 0.01025 0.67194
 C650 C 0.64348 0.00006 0.69971
 C651 C 0.67452 -0.00658 0.70482
 C652 C 0.69389 -0.00279 0.68020
 C653 C 0.68200 0.00736 0.65113
 C654 C 0.65027 0.01421 0.64719
 H655 H 0.63636 -0.02004 0.76131
 H656 H 0.58419 -0.02250 0.78209
 H657 H 0.54457 0.01186 0.69592
 H658 H 0.68343 -0.01471 0.72685
 H659 H 0.71811 -0.00789 0.68374
 H660 H 0.64024 0.02138 0.62519
 C661 C -0.17812 0.49484 0.87974
 C662 C -0.19261 0.49921 0.85113
 C663 C -0.22397 0.50471 0.84698
 C664 C -0.24103 0.50623 0.87346
 C665 C -0.22660 0.50227 0.90332
 C666 C -0.19477 0.49592 0.90643
 O667 O -0.14784 0.49141 0.87863
 C668 C -0.14317 0.49374 0.84870
 C669 C -0.16984 0.49851 0.83092
 C670 C -0.17015 0.50294 0.79922
 C671 C -0.14175 0.50258 0.78525
 C672 C -0.11380 0.49791 0.80305
 C673 C -0.11466 0.49313 0.83524
 H674 H -0.23477 0.50830 0.82425
 H675 H -0.26545 0.51083 0.87076
 H676 H -0.18310 0.49330 0.92897
 H677 H -0.19144 0.50688 0.78579
 H678 H -0.14151 0.50595 0.76057
 H679 H -0.09369 0.49000 0.84952
 C680 C 0.41029 0.00508 0.30166
 C681 C 0.40157 -0.02424 0.30111
 C682 C 0.41735 -0.04563 0.28546
 C683 C 0.44347 -0.03649 0.27015
 C684 C 0.45319 -0.00646 0.27074
 C685 C 0.43601 0.01470 0.28628
 O686 O 0.39344 0.02147 0.31960
 C687 C 0.37375 0.00206 0.33068
 C688 C 0.37771 -0.02619 0.32003
 C689 C 0.36084 -0.05019 0.33012
 C690 C 0.33919 -0.04491 0.35233
 C691 C 0.33479 -0.01598 0.36402
 C692 C 0.35218 0.00786 0.35256
 H693 H 0.41030 -0.06862 0.28571
 H694 H 0.45645 -0.05285 0.25827
 H695 H 0.44341 0.03762 0.28781
 H696 H 0.36481 -0.07230 0.32182
 H697 H 0.32676 -0.06357 0.36121
 H698 H 0.34953 0.03020 0.36089
 C699 C 0.17876 0.48783 0.91858
 C700 C 0.18055 0.51646 0.90888
 C701 C 0.19865 0.53810 0.92462
 C702 C 0.21543 0.52998 0.95164
 C703 C 0.21378 0.50069 0.96242
 C704 C 0.19546 0.47920 0.94536
 O705 O 0.15903 0.47110 0.90100
 C706 C 0.14812 0.48963 0.87982
 C707 C 0.16061 0.51764 0.88367
 C708 C 0.15143 0.54094 0.86516
 C709 C 0.12812 0.53525 0.84195
 C710 C 0.11454 0.50666 0.83765
 C711 C 0.12508 0.48338 0.85657
 H712 H 0.19950 0.56053 0.91660
 H713 H 0.22971 0.54655 0.96416
 H714 H 0.19340 0.45680 0.95327
 H715 H 0.16141 0.56284 0.86886
 H716 H 0.12032 0.55318 0.82752
 H717 H 0.11474 0.46150 0.85411
 C718 C 0.59383 0.00859 0.34659
 C719 C 0.57605 -0.00204 0.36944
 C720 C 0.54529 -0.01095 0.36392
 C721 C 0.53232 -0.00866 0.33362
 C722 C 0.55014 0.00254 0.30976
 C723 C 0.58137 0.01126 0.31643
 O724 O 0.62260 0.01559 0.35656
 C725 C 0.62298 0.00935 0.38639
 C726 C 0.59507 -0.00141 0.39548
 C727 C 0.59036 -0.00921 0.42579
 C728 C 0.61552 -0.00598 0.44754
 C729 C 0.64477 0.00467 0.43867
 C730 C 0.64832 0.01256 0.40754
 H731 H 0.53174 -0.01924 0.38227
 H732 H 0.50825 -0.01496 0.32896
 H733 H 0.59557 0.01969 0.29863
 H734 H 0.56811 -0.01743 0.43246
 H735 H 0.61211 -0.01162 0.47132
 H736 H 0.67030 0.02038 0.39979
 C737 C 0.81690 0.51318 0.06148
 C738 C 0.83127 0.48664 0.06011
 C739 C 0.82596 0.46671 0.03584
 C740 C 0.80456 0.47411 0.01201
 C741 C 0.78839 0.50112 0.01257
 C742 C 0.79535 0.52113 0.03787
 O743 O 0.82532 0.52873 0.08702
 C744 C 0.84533 0.51140 0.10200
 C745 C 0.84960 0.48537 0.08640
 C746 C 0.86891 0.46361 0.09778
 C747 C 0.88458 0.46881 0.12655
 C748 C 0.88080 0.49544 0.14340
 C749 C 0.86098 0.51720 0.13075
 H750 H 0.83771 0.44594 0.03536
 H751 H 0.80082 0.45795 -0.00625
 H752 H 0.78438 0.54215 0.03962
 H753 H 0.87181 0.44331 0.08497
 H754 H 0.90009 0.45221 0.13551
 H755 H 0.85762 0.53770 0.14305
 C756 C 0.42307 -0.00696 0.65879
 C757 C 0.42430 0.02191 0.64995
 C758 C 0.44293 0.04310 0.66566
 C759 C 0.46061 0.03432 0.69192
 C760 C 0.45927 0.00480 0.70231
 C761 C 0.44057 -0.01621 0.68473
 O762 O 0.40311 -0.02344 0.64128
 C763 C 0.39136 -0.00446 0.62104
 C764 C 0.40355 0.02360 0.62537
 C765 C 0.39360 0.04719 0.60766
 C766 C 0.36998 0.04167 0.58465
 C767 C 0.35688 0.01293 0.57977
 C768 C 0.36804 -0.01052 0.59810
 H769 H 0.44344 0.06576 0.65831
 H770 H 0.47454 0.05099 0.70430
 H771 H 0.43915 -0.03911 0.69101
 H772 H 0.40338 0.06913 0.61166
 H773 H 0.36188 0.05976 0.57061
 H774 H 0.35819 -0.03256 0.59524
   
