data_POSCAR
  _audit_creation_date              2014-09-24
  _audit_creation_method            'ToBaCCo'
  _symmetry_space_group_name_H-M    'P1'
  _symmetry_Int_Tables_number       1
  _symmetry_cell_setting            triclinic
  loop_
  _symmetry_equiv_pos_as_xyz
 x,y,z
_cell_length_a 27.2160
_cell_length_b 27.2291
_cell_length_c 27.2417
_cell_angle_alpha 90.014600
_cell_angle_beta 90.044800
_cell_angle_gamma 89.971000
loop_
  _atom_site_label
  _atom_site_type_symbol
  _atom_site_fract_x
  _atom_site_fract_y
  _atom_site_fract_z
C1 C 0.27388 0.33754 0.02425
 C2 C 0.27388 0.33768 -0.02753
 C3 C 0.30510 0.30568 -0.05311
 C4 C 0.33688 0.27413 -0.02763
 C5 C 0.33673 0.27396 0.02416
 C6 C 0.30496 0.30537 0.04967
 H7 H 0.30547 0.30580 0.08949
 H8 H 0.30568 0.30634 -0.09297
 C9 C 0.72538 0.66359 0.02470
 C10 C 0.72544 0.66401 -0.02700
 C11 C 0.69400 0.69595 -0.05234
 C12 C 0.66189 0.72694 -0.02663
 C13 C 0.66190 0.72653 0.02516
 C14 C 0.69394 0.69515 0.05042
 H15 H 0.69337 0.69426 0.09023
 H16 H 0.69359 0.69559 -0.09218
 C17 C 0.72622 0.33782 0.97374
 C18 C 0.72639 0.33781 1.02554
 C19 C 0.69512 0.30587 1.05109
 C20 C 0.66313 0.27464 1.02561
 C21 C 0.66293 0.27473 0.97390
 C22 C 0.69476 0.30599 0.94833
 H23 H 0.69403 0.30657 0.90851
 H24 H 0.69461 0.30627 1.09094
 C25 C 0.27323 0.66367 0.97659
 C26 C 0.27311 0.66358 1.02837
 C27 C 0.30430 0.69554 1.05403
 C28 C 0.33620 0.72697 1.02864
 C29 C 0.33620 0.72705 0.97686
 C30 C 0.30443 0.69572 0.95126
 H31 H 0.30505 0.69522 0.91143
 H32 H 0.30480 0.69492 1.09390
 C33 C 0.02649 0.27295 0.33598
 C34 C -0.02526 0.27246 0.33541
 C35 C -0.05082 0.30347 0.30326
 C36 C -0.02532 0.33557 0.27226
 C37 C 0.02644 0.33605 0.27278
 C38 C 0.05201 0.30444 0.30434
 H39 H 0.09185 0.30541 0.30533
 H40 H -0.09068 0.30369 0.30347
 C41 C 0.02539 0.72630 0.66312
 C42 C -0.02644 0.72611 0.66279
 C43 C -0.05204 0.69471 0.69455
 C44 C -0.02655 0.66290 0.72602
 C45 C 0.02528 0.66316 0.72635
 C46 C 0.05083 0.69513 0.69520
 H47 H 0.09069 0.69472 0.69490
 H48 H -0.09194 0.69403 0.69375
 C49 C 0.97512 0.72501 0.33659
 C50 C 1.02687 0.72515 0.33649
 C51 C 1.05245 0.69398 0.30455
 C52 C 1.02696 0.66207 0.27319
 C53 C 0.97511 0.66204 0.27319
 C54 C 0.94960 0.69379 0.30464
 H55 H 0.90974 0.69319 0.30525
 H56 H 1.09234 0.69363 0.30517
 C57 C 0.97508 0.27338 0.66193
 C58 C 1.02693 0.27330 0.66210
 C59 C 1.05238 0.30462 0.69409
 C60 C 1.02675 0.33656 0.72522
 C61 C 0.97500 0.33669 0.72497
 C62 C 0.94952 0.30481 0.69365
 H63 H 0.90967 0.30546 0.69296
 H64 H 1.09226 0.30520 0.69383
 C65 C 0.33706 0.02434 0.27450
 C66 C 0.33718 -0.02747 0.27466
 C67 C 0.30543 -0.05296 0.30618
 C68 C 0.27421 -0.02737 0.33816
 C69 C 0.27422 0.02444 0.33802
 C70 C 0.30531 0.04987 0.30591
 H71 H 0.30579 0.08971 0.30636
 H72 H 0.30601 -0.09284 0.30679
 C73 C 0.66283 0.02593 0.72638
 C74 C 0.66314 -0.02580 0.72689
 C75 C 0.69517 -0.05151 0.69592
 C76 C 0.72635 -0.02617 0.66384
 C77 C 0.72607 0.02556 0.66335
 C78 C 0.69462 0.05128 0.69491
 H79 H 0.69384 0.09111 0.69393
 H80 H 0.69480 -0.09135 0.69574
 C81 C 0.33647 0.97619 0.72735
 C82 C 0.33655 1.02800 0.72716
 C83 C 0.30469 1.05346 0.69565
 C84 C 0.27345 1.02785 0.66370
 C85 C 0.27352 0.97604 0.66386
 C86 C 0.30467 0.95064 0.69599
 H87 H 0.30522 0.91080 0.69556
 H88 H 0.30525 1.09334 0.69499
 C89 C 0.66330 0.97396 0.27438
 C90 C 0.66352 1.02568 0.27423
 C91 C 0.69553 1.05121 0.30540
 C92 C 0.72683 1.02567 0.33735
 C93 C 0.72668 0.97386 0.33741
 C94 C 0.69520 0.94840 0.30563
 H95 H 0.69448 0.90856 0.30628
 H96 H 0.69498 1.09107 0.30575
 O97 O 0.91551 0.84562 0.45303
 O98 O 0.84773 0.91348 0.54856
 O99 O 0.91547 0.84552 0.54858
 O100 O 0.84774 0.91350 0.45308
 O101 O 0.79028 0.85608 0.45305
 O102 O 0.85786 0.78826 0.54838
 O103 O 0.79027 0.85608 0.54837
 O104 O 0.85791 0.78835 0.45299
 Cu105 Cu 0.88745 0.88533 0.50083
 Cu106 Cu 0.81830 0.81640 0.50070
 C107 C 0.89819 0.80543 0.43702
 C108 C 0.80741 0.89632 0.56438
 C109 C 0.89814 0.80529 0.56444
 C110 C 0.80745 0.89633 0.43714
 O111 O 0.15377 0.08569 0.54935
 O112 O 0.08593 0.15296 0.45328
 O113 O 0.15359 0.08501 0.45383
 O114 O 0.08566 0.15334 0.54884
 O115 O 0.14314 0.21072 0.54853
 O116 O 0.21097 0.14251 0.45366
 O117 O 0.14345 0.21031 0.45314
 O118 O 0.21110 0.14322 0.54902
 Cu119 Cu 0.11392 0.11344 0.50137
 Cu120 Cu 0.18294 0.18248 0.50109
 C121 C 0.19404 0.10303 0.56520
 C122 C 0.10322 0.19310 0.43713
 C123 C 0.19385 0.10218 0.43785
 C124 C 0.10286 0.19369 0.56454
 O125 O 0.15422 0.91462 0.45185
 O126 O 0.08589 0.84715 0.54729
 O127 O 0.15343 0.91523 0.54740
 O128 O 0.08633 0.84682 0.45179
 O129 O 0.14397 0.78954 0.45254
 O130 O 0.21096 0.85784 0.54800
 O131 O 0.14356 0.78990 0.54788
 O132 O 0.21171 0.85719 0.45262
 Cu133 Cu 0.11415 0.88677 0.49951
 Cu134 Cu 0.18335 0.81786 0.50032
 C135 C 0.19464 0.89735 0.43630
 C136 C 0.10314 0.80700 0.56351
 C137 C 0.19363 0.89814 0.56368
 C138 C 0.10373 0.80649 0.43623
 O139 O 0.84659 0.08396 0.45132
 O140 O 0.91473 0.15198 0.54656
 O141 O 0.84678 0.08435 0.54686
 O142 O 0.91464 0.15152 0.45108
 O143 O 0.85724 0.20905 0.45098
 O144 O 0.78953 0.14203 0.54659
 O145 O 0.85733 0.20950 0.54628
 O146 O 0.78935 0.14164 0.45122
 Cu147 Cu 0.88649 0.11210 0.49897
 Cu148 Cu 0.81757 0.18135 0.49874
 C149 C 0.80635 0.10128 0.43535
 C150 C 0.89759 0.19236 0.56230
 C151 C 0.80660 0.10181 0.56275
 C152 C 0.89747 0.19178 0.43508
 O153 O 0.45214 0.91549 0.84861
 O154 O 0.54775 0.84698 0.91591
 O155 O 0.54771 0.91496 0.84837
 O156 O 0.45214 0.84774 0.91651
 O157 O 0.45157 0.79041 0.85898
 O158 O 0.54698 0.85749 0.79097
 O159 O 0.54701 0.78968 0.85836
 O160 O 0.45159 0.85800 0.79125
 Cu161 Cu 0.49998 0.88710 0.88818
 Cu162 Cu 0.49920 0.81811 0.81911
 C163 C 0.43595 0.89839 0.80839
 C164 C 0.56338 0.80666 0.89852
 C165 C 0.56330 0.89763 0.80805
 C166 C 0.43592 0.80759 0.89932
 O167 O 0.54763 0.15310 0.08528
 O168 O 0.45218 0.08490 0.15290
 O169 O 0.45205 0.15260 0.08488
 O170 O 0.54776 0.08525 0.15297
 O171 O 0.54733 0.14280 0.21028
 O172 O 0.45178 0.21003 0.14232
 O173 O 0.45191 0.14248 0.21018
 O174 O 0.54718 0.21050 0.14274
 Cu175 Cu 0.49992 0.11314 0.11320
 Cu176 Cu 0.49949 0.18224 0.18216
 C177 C 0.56335 0.19344 0.10254
 C178 C 0.43617 0.10209 0.19314
 C179 C 0.43600 0.19286 0.10200
 C180 C 0.56353 0.10259 0.19324
 O181 O 0.54636 0.08613 0.84669
 O182 O 0.45082 0.15432 0.91424
 O183 O 0.45072 0.08637 0.84657
 O184 O 0.54645 0.15405 0.91435
 O185 O 0.54652 0.21130 0.85677
 O186 O 0.45095 0.14377 0.78914
 O187 O 0.45105 0.21157 0.85667
 O188 O 0.54643 0.14352 0.78926
 Cu189 Cu 0.49857 0.11441 0.88628
 Cu190 Cu 0.49875 0.18331 0.81717
 C191 C 0.56237 0.10327 0.80646
 C192 C 0.43499 0.19459 0.89692
 C193 C 0.43485 0.10359 0.80629
 C194 C 0.56248 0.19422 0.89705
 O195 O 0.45023 0.84658 0.08684
 O196 O 0.54624 0.91443 0.15414
 O197 O 0.54584 0.84684 0.08615
 O198 O 0.45061 0.91435 0.15468
 O199 O 0.45122 0.85675 0.21190
 O200 O 0.54630 0.78935 0.14349
 O201 O 0.54669 0.85680 0.21134
 O202 O 0.45086 0.78912 0.14420
 Cu203 Cu 0.49817 0.88638 0.11465
 Cu204 Cu 0.49882 0.81721 0.18350
 C205 C 0.43453 0.80626 0.10410
 C206 C 0.56252 0.89710 0.19422
 C207 C 0.56198 0.80658 0.10320
 C208 C 0.43501 0.89701 0.19498
 O209 O 0.91510 0.54877 0.84532
 O210 O 0.84732 0.45332 0.91327
 O211 O 0.91513 0.45315 0.84548
 O212 O 0.84715 0.54884 0.91299
 O213 O 0.78978 0.54858 0.85545
 O214 O 0.85760 0.45305 0.78810
 O215 O 0.78994 0.45322 0.85574
 O216 O 0.85758 0.54851 0.78792
 Cu217 Cu 0.88701 0.50104 0.88506
 Cu218 Cu 0.81796 0.50083 0.81600
 C219 C 0.89784 0.56459 0.80503
 C220 C 0.80704 0.43737 0.89606
 C221 C 0.89788 0.43710 0.80528
 C222 C 0.80683 0.56465 0.89570
 O223 O 0.08552 0.54869 0.15327
 O224 O 0.15337 0.45362 0.08486
 O225 O 0.08581 0.45312 0.15279
 O226 O 0.15359 0.54919 0.08577
 O227 O 0.21096 0.54868 0.14331
 O228 O 0.14338 0.45281 0.21013
 O229 O 0.21080 0.45327 0.14235
 O230 O 0.14305 0.54821 0.21066
 Cu231 Cu 0.11375 0.50121 0.11335
 Cu232 Cu 0.18284 0.50071 0.18240
 C233 C 0.10276 0.56432 0.19363
 C234 C 0.19363 0.43754 0.10201
 C235 C 0.10313 0.43690 0.19289
 C236 C 0.19385 0.56497 0.10318
 O237 O 0.91447 0.45138 0.15123
 O238 O 0.84656 0.54725 0.08385
 O239 O 0.91453 0.54692 0.15161
 O240 O 0.84630 0.45165 0.08371
 O241 O 0.78910 0.45173 0.14133
 O242 O 0.85715 0.54681 0.20906
 O243 O 0.78934 0.54715 0.14146
 O244 O 0.85711 0.45145 0.20870
 Cu245 Cu 0.88625 0.49931 0.11176
 Cu246 Cu 0.81740 0.49929 0.18092
 C247 C 0.89733 0.43543 0.19148
 C248 C 0.80636 0.56320 0.10122
 C249 C 0.89743 0.56274 0.19195
 C250 C 0.80606 0.43577 0.10102
 O251 O 0.15319 0.54731 0.91552
 O252 O 0.08610 0.45184 0.84694
 O253 O 0.15402 0.45173 0.91468
 O254 O 0.08569 0.54736 0.84735
 O255 O 0.14338 0.54795 0.79020
 O256 O 0.21150 0.45251 0.85734
 O257 O 0.14373 0.45260 0.78974
 O258 O 0.21072 0.54793 0.85823
 Cu259 Cu 0.11393 0.49949 0.88693
 Cu260 Cu 0.18314 0.50032 0.81812
 C261 C 0.19340 0.56358 0.89852
 C262 C 0.10351 0.43630 0.80663
 C263 C 0.19441 0.43614 0.89741
 C264 C 0.10295 0.56359 0.80725
 C265 C 0.24449 0.37194 0.05200
 C266 C 0.22081 0.40149 0.07491
 C267 C 0.75510 0.62910 0.05193
 C268 C 0.77902 0.59944 0.07449
 C269 C 0.75583 0.37202 0.94600
 C270 C 0.77970 0.40141 0.92310
 C271 C 0.24392 0.62927 0.94875
 C272 C 0.22036 0.59970 0.92573
 C273 C 0.05387 0.24369 0.37075
 C274 C 0.07646 0.22009 0.40065
 C275 C 0.05315 0.75593 0.62894
 C276 C 0.07605 0.77977 0.59952
 C277 C 0.94768 0.75446 0.37110
 C278 C 0.92501 0.77821 0.40079
 C279 C 0.94745 0.24369 0.62768
 C280 C 0.92462 0.21975 0.59826
 C281 C 0.37107 0.05203 0.24460
 C282 C 0.40033 0.07494 0.22055
 C283 C 0.62828 0.05350 0.75569
 C284 C 0.59859 0.07629 0.77935
 C285 C 0.37063 0.94853 0.75718
 C286 C 0.40000 0.92561 0.78112
 C287 C 0.62868 0.94658 0.24496
 C288 C 0.59889 0.92393 0.22128
 C289 C 0.36939 0.24604 0.94641
 C290 C 0.39890 0.22204 0.92373
 C291 C 0.62923 0.75508 0.94761
 C292 C 0.59959 0.77914 0.92512
 C293 C 0.36873 0.75498 0.05467
 C294 C 0.39831 0.77891 0.07735
 C295 C 0.62888 0.24490 0.05306
 C296 C 0.59940 0.22090 0.07573
 C297 C 0.24541 0.05372 0.63104
 C298 C 0.22144 0.07631 0.60142
 C299 C 0.75495 0.05163 0.36984
 C300 C 0.77894 0.07436 0.39932
 C301 C 0.75609 0.94618 0.62975
 C302 C 0.78004 0.92333 0.60036
 C303 C 0.24616 0.94673 0.37073
 C304 C 0.22215 0.92411 0.40025
 C305 C 0.05415 0.37082 0.75499
 C306 C 0.07679 0.40029 0.77904
 C307 C 0.05300 0.62965 0.24510
 C308 C 0.07580 0.60024 0.22111
 C309 C 0.94715 0.36980 0.24255
 C310 C 0.92433 0.39931 0.21868
 C311 C 0.94745 0.63028 0.75390
 C312 C 0.92471 0.60071 0.77774
 C313 C 0.75529 0.62998 0.94538
 C314 C 0.77934 0.60062 0.92260
 C315 C 0.24586 0.37033 0.94660
 C316 C 0.22187 0.39995 0.92406
 C317 C 0.24511 0.63092 0.05414
 C318 C 0.22118 0.60125 0.07662
 C319 C 0.75455 0.37028 0.05146
 C320 C 0.77860 0.39975 0.07414
 C321 C 0.94764 0.75407 0.63016
 C322 C 0.92497 0.77796 0.60057
 C323 C 0.94724 0.24277 0.36957
 C324 C 0.92446 0.21893 0.39902
 C325 C 0.05301 0.24519 0.62975
 C326 C 0.07585 0.22118 0.60040
 C327 C 0.05431 0.75490 0.37075
 C328 C 0.07698 0.77893 0.40021
 C329 C 0.62888 0.94691 0.75666
 C330 C 0.59938 0.92433 0.78064
 C331 C 0.36960 0.94653 0.24655
 C332 C 0.39903 0.92382 0.22252
 C333 C 0.62920 0.05314 0.24457
 C334 C 0.59966 0.07582 0.22063
 C335 C 0.36910 0.05402 0.75513
 C336 C 0.39868 0.07674 0.77901
 C337 C 0.62754 0.75583 0.05303
 C338 C 0.59802 0.77947 0.07603
 C339 C 0.37079 0.24412 0.05186
 C340 C 0.40009 0.22016 0.07483
 C341 C 0.62841 0.24521 0.94653
 C342 C 0.59872 0.22143 0.92388
 C343 C 0.37044 0.75667 0.94927
 C344 C 0.39990 0.78046 0.92641
 C345 C 0.75629 0.94616 0.37165
 C346 C 0.78015 0.92332 0.40111
 C347 C 0.24419 0.94824 0.62945
 C348 C 0.22061 0.92528 0.59985
 C349 C 0.24480 0.05220 0.37235
 C350 C 0.22107 0.07511 0.40185
 C351 C 0.75557 0.05276 0.62878
 C352 C 0.77936 0.07523 0.59904
 C353 C 0.94743 0.62793 0.24339
 C354 C 0.92454 0.59861 0.21938
 C355 C 0.94751 0.37118 0.75441
 C356 C 0.92479 0.40086 0.77814
 C357 C 0.05297 0.62901 0.75610
 C358 C 0.07584 0.59960 0.78001
 C359 C 0.05378 0.37069 0.24347
 C360 C 0.07637 0.40050 0.21986
   
