data_POSCAR
  _audit_creation_date              2014-09-24
  _audit_creation_method            'ToBaCCo'
  _symmetry_space_group_name_H-M    'P1'
  _symmetry_Int_Tables_number       1
  _symmetry_cell_setting            triclinic
  loop_
  _symmetry_equiv_pos_as_xyz
 x,y,z
_cell_length_a 27.0892
_cell_length_b 27.0091
_cell_length_c 62.1955
_cell_angle_alpha 87.612200
_cell_angle_beta 90.110000
_cell_angle_gamma 119.874000
loop_
  _atom_site_label
  _atom_site_type_symbol
  _atom_site_fract_x
  _atom_site_fract_y
  _atom_site_fract_z
C1 C -0.01739 0.08241 0.52807
 H2 H 0.02090 0.07954 0.52665
 C3 C -0.01778 0.12348 0.54072
 H4 H 0.02014 0.15132 0.54937
 C5 C -0.11310 0.04923 0.51829
 H6 H -0.14956 0.02099 0.50909
 C7 C -0.11538 0.08995 0.53086
 H8 H -0.15397 0.09255 0.53133
 N9 N -0.06445 0.04638 0.51718
 C10 C -0.02978 -0.09114 0.50526
 H11 H -0.02739 -0.08897 0.48786
 C12 C -0.02705 -0.13510 0.51687
 H13 H -0.02218 -0.16643 0.50823
 C14 C -0.04316 -0.05515 0.53751
 H15 H -0.05128 -0.02510 0.54549
 C16 C -0.04055 -0.09826 0.54973
 H17 H -0.04480 -0.09959 0.56708
 Zn18 Zn -0.05283 -0.00135 0.49903
 N19 N -0.03804 -0.05250 0.51568
 C20 C 0.05830 0.04805 0.47843
 N21 N 0.00890 0.04908 0.48069
 C22 C 0.00106 0.08971 0.47023
 C23 C 0.04358 0.13146 0.45674
 C24 C 0.10215 0.08909 0.46487
 C25 C -0.16696 -0.08512 0.49177
 C26 C -0.21053 -0.12703 0.47986
 C27 C -0.14905 -0.08927 0.44829
 C28 C -0.10735 -0.04778 0.46073
 N29 N -0.11636 -0.04712 0.48214
 H30 H 0.06382 0.01573 0.48714
 H31 H -0.03842 0.08987 0.47260
 H32 H 0.03654 0.16401 0.44901
 H33 H 0.14096 0.08734 0.46298
 H34 H -0.17248 -0.08481 0.50898
 H35 H -0.24844 -0.15810 0.48870
 H36 H -0.13957 -0.08668 0.43127
 H37 H -0.06663 -0.01773 0.45334
 C38 C -0.03327 -0.13953 0.53942
 C39 C -0.06696 0.12815 0.54208
 C40 C -0.20161 -0.13165 0.45773
 C41 C 0.09497 0.13154 0.45379
 C42 C 1.11435 0.02140 0.13978
 H43 H 1.11277 0.06066 0.13945
 C44 C 1.15597 0.01840 0.12775
 H45 H 1.18571 0.05538 0.11789
 C46 C 1.07665 -0.07451 0.15300
 H47 H 1.04613 -0.11017 0.16315
 C48 C 1.11772 -0.07946 0.14111
 H49 H 1.11844 -0.11921 0.14217
 N50 N 1.07568 -0.02459 0.15200
 C51 C 0.93744 0.01237 0.15816
 H52 H 0.93701 0.01761 0.17530
 C53 C 0.89515 0.01274 0.14536
 H54 H 0.86246 0.01872 0.15276
 C55 C 0.97808 -0.00629 0.12802
 H56 H 1.00920 -0.01569 0.12143
 C57 C 0.93654 -0.00648 0.11468
 H58 H 0.93722 -0.01439 0.09779
 Zn59 Zn 1.02489 -0.01117 0.16813
 N60 N 0.97740 0.00233 0.14939
 C61 C 1.07150 0.10287 0.18258
 N62 N 1.07119 0.05239 0.18457
 C63 C 1.10772 0.04576 0.19777
 C64 C 1.14628 0.09072 0.20985
 C65 C 1.10972 0.14926 0.19435
 C66 C 0.93835 -0.12411 0.17736
 C67 C 0.89436 -0.16850 0.18975
 C68 C 0.92801 -0.11005 0.22068
 C69 C 0.97140 -0.06694 0.20775
 N70 N 0.97539 -0.07437 0.18646
 H71 H 1.04294 0.10753 0.17160
 H72 H 1.10688 0.00527 0.19883
 H73 H 1.17420 0.08396 0.22053
 H74 H 1.11013 0.18947 0.19232
 H75 H 0.94147 -0.12829 0.16027
 H76 H 0.86403 -0.20698 0.18207
 H77 H 0.92494 -0.10294 0.23751
 H78 H 1.00010 -0.02659 0.21458
 C79 C 0.89364 0.00191 0.12341
 C80 C 1.15829 -0.03239 0.12836
 C81 C 0.88808 -0.16119 0.21161
 C82 C 1.14799 0.14354 0.20815
 C83 C 0.08952 0.97711 0.86213
 H84 H 0.04984 0.93708 0.86163
 C85 C 0.13398 0.98032 0.87438
 H86 H 0.12773 0.94265 0.88359
 C87 C 0.14499 1.07482 0.85075
 H88 H 0.14904 1.11115 0.84124
 C89 C 0.19082 1.07998 0.86287
 H90 H 0.23016 1.12056 0.86261
 N91 N 0.09564 1.02385 0.85068
 C92 C -0.07994 0.98437 0.84322
 H93 H -0.08515 0.98026 0.82601
 C94 C -0.12300 0.98316 0.85600
 H95 H -0.16066 0.97820 0.84808
 C96 C -0.02139 1.00187 0.87346
 H97 H 0.01881 1.01072 0.88019
 C98 C -0.06280 1.00168 0.88677
 H99 H -0.05404 1.00737 0.90373
 Zn100 Zn 0.03260 1.01054 0.83382
 N101 N -0.03007 0.99435 0.85204
 C102 C -0.03201 0.90010 0.81583
 N103 N 0.01897 0.94922 0.81654
 C104 C 0.06543 0.95614 0.80552
 C105 C 0.06178 0.91304 0.79293
 C106 C -0.03767 0.85575 0.80329
 C107 C 0.04872 1.12036 0.82592
 C108 C 0.04920 1.16504 0.81357
 C109 C 0.04834 1.11727 0.78146
 C110 C 0.04693 1.07312 0.79440
 N111 N 0.04674 1.07521 0.81621
 H112 H -0.06814 0.89509 0.82502
 H113 H 0.10571 0.99527 0.80672
 H114 H 0.09973 0.91930 0.78465
 H115 H -0.07872 0.81722 0.80265
 H116 H 0.04746 1.12042 0.84331
 H117 H 0.04944 1.20009 0.82151
 H118 H 0.04688 1.11415 0.76414
 H119 H 0.04377 1.03629 0.78696
 C120 C -0.11428 0.99391 0.87813
 C121 C 0.18567 1.03210 0.87477
 C122 C 0.04832 1.16337 0.79105
 C123 C 0.00973 0.86196 0.79163
 O124 O 0.60286 0.05156 -0.01852
 O125 O 0.49843 0.03643 0.02317
 O126 O 0.59683 0.04087 0.02311
 O127 O 0.50874 0.05646 -0.01836
 O128 O 0.46060 -0.03697 -0.02138
 O129 O 0.55217 -0.05234 0.01946
 O130 O 0.45336 -0.05701 0.02015
 O131 O 0.55442 -0.04164 -0.02225
 Cu132 Cu 0.55624 0.05562 0.00265
 Cu133 Cu 0.50041 -0.05628 -0.00131
 C134 C 0.59647 0.00716 -0.02740
 C135 C 0.45795 -0.01323 0.02878
 C136 C 0.59053 -0.00794 0.02817
 C137 C 0.46926 0.01273 -0.02683
 O138 O 0.03450 0.57379 0.68423
 O139 O 0.01838 0.47034 0.64350
 O140 O 0.02504 0.56991 0.64264
 O141 O 0.04160 0.48072 0.68417
 O142 O -0.05125 0.43128 0.69011
 O143 O -0.06775 0.52541 0.64876
 O144 O -0.07455 0.42541 0.64931
 O145 O -0.05822 0.52431 0.69055
 Cu146 Cu 0.03900 0.52833 0.66308
 Cu147 Cu -0.07209 0.47203 0.67030
 C148 C -0.00973 0.56620 0.69439
 C149 C -0.03141 0.43007 0.63949
 C150 C -0.02345 0.56373 0.63854
 C151 C -0.00130 0.44024 0.69403
 O152 O 0.45861 0.42969 0.31484
 O153 O 0.54648 0.52578 0.35719
 O154 O 0.45018 0.42928 0.35644
 O155 O 0.55950 0.52026 0.31605
 O156 O 0.51995 0.57416 0.31155
 O157 O 0.40550 0.47790 0.35049
 O158 O 0.50103 0.57417 0.35276
 O159 O 0.41938 0.48355 0.30916
 Cu160 Cu 0.50799 0.47126 0.33664
 Cu161 Cu 0.45747 0.53274 0.33049
 C162 C 0.42365 0.44036 0.30483
 C163 C 0.53806 0.56620 0.36229
 C164 C 0.40844 0.43687 0.36006
 C165 C 0.55914 0.56303 0.30703
 C166 C -0.06240 0.25712 0.58121
 C167 C -0.11193 0.20304 0.58123
 C168 C -0.11405 0.16133 0.56811
 C169 C -0.06694 0.17302 0.55509
 C170 C -0.01859 0.22776 0.55534
 N171 N -0.01746 0.26760 0.56827
 C172 C -0.05628 0.30226 0.59554
 N173 N -0.00298 0.34419 0.60045
 C174 C 0.00626 0.38613 0.61399
 C175 C -0.03992 0.38726 0.62363
 C176 C -0.09520 0.34530 0.61836
 C177 C -0.10357 0.30306 0.60431
 H178 H -0.15179 0.11940 0.56869
 H179 H 0.01844 0.23892 0.54532
 H180 H 0.04958 0.41783 0.61749
 H181 H -0.13218 0.34486 0.62519
 H182 H -0.14807 0.19201 0.59172
 H183 H -0.14665 0.27189 0.60036
 C184 C 0.74485 0.71353 0.24947
 C185 C 0.77248 0.69567 0.23522
 C186 C 0.81921 0.73639 0.22285
 C187 C 0.83857 0.79481 0.22463
 C188 C 0.80917 0.81079 0.23880
 N189 N 0.76371 0.77039 0.25062
 C190 C 0.69592 0.67254 0.26338
 N191 N 0.65821 0.68804 0.27048
 C192 C 0.61352 0.65350 0.28396
 C193 C 0.60541 0.60015 0.29142
 C194 C 0.64382 0.58338 0.28429
 C195 C 0.68893 0.61926 0.27031
 H196 H 0.84055 0.72225 0.21206
 H197 H 0.82186 0.85532 0.24030
 H198 H 0.58514 0.66826 0.28915
 H199 H 0.63942 0.54272 0.28970
 H200 H 0.75796 0.65086 0.23337
 H201 H 0.71877 0.60591 0.26560
 C202 C 0.31798 0.03653 -0.08610
 C203 C 0.30918 0.08371 -0.08699
 C204 C 0.26705 0.08303 -0.10017
 C205 C 0.23339 0.03548 -0.11236
 C206 C 0.24425 -0.01028 -0.11128
 N207 N 0.28527 -0.00876 -0.09829
 C208 C 0.35936 0.03278 -0.07147
 N209 N 0.35187 -0.01980 -0.06573
 C210 C 0.38679 -0.02729 -0.05190
 C211 C 0.43258 0.02003 -0.04283
 C212 C 0.44192 0.07476 -0.04890
 C213 C 0.40568 0.08136 -0.06322
 H214 H 0.25948 0.11881 -0.10024
 H215 H 0.21992 -0.04746 -0.12066
 H216 H 0.37818 -0.07024 -0.04779
 H217 H 0.47708 0.11257 -0.04249
 H218 H 0.33286 0.11993 -0.07713
 H219 H 0.41442 0.12406 -0.06779
 C220 C -0.03173 0.72497 0.57726
 C221 C 0.00435 0.74872 0.55898
 C222 C 0.00363 0.79256 0.54657
 C223 C -0.03324 0.81264 0.55212
 C224 C -0.07004 0.78637 0.57007
 N225 N -0.06827 0.74399 0.58202
 C226 C -0.02991 0.68115 0.59186
 N227 N -0.07616 0.64598 0.60466
 C228 C -0.07611 0.60690 0.61924
 C229 C -0.02694 0.60251 0.62184
 C230 C 0.02097 0.63820 0.60873
 C231 C 0.01973 0.67740 0.59383
 H232 H 0.03269 0.81144 0.53287
 H233 H -0.10025 0.79944 0.57461
 H234 H -0.11388 0.58041 0.62910
 H235 H 0.05999 0.63657 0.61020
 H236 H 0.03287 0.73379 0.55420
 H237 H 0.05810 0.70565 0.58458
 C238 C 0.26723 0.27985 0.24599
 C239 C 0.21285 0.27294 0.24265
 C240 C 0.17427 0.22916 0.23004
 C241 C 0.18947 0.19201 0.22078
 C242 C 0.24446 0.20075 0.22437
 N243 N 0.28117 0.24348 0.23680
 C244 C 0.30882 0.32365 0.26009
 N245 N 0.34859 0.31433 0.26998
 C246 C 0.38672 0.35152 0.28382
 C247 C 0.38603 0.40158 0.28847
 C248 C 0.34653 0.41283 0.27792
 C249 C 0.30810 0.37422 0.26372
 H250 H 0.13202 0.22336 0.22809
 H251 H 0.25839 0.17372 0.21731
 H252 H 0.41668 0.34132 0.29147
 H253 H 0.34475 0.45117 0.28082
 H254 H 0.19928 0.29965 0.25021
 H255 H 0.27846 0.38421 0.25570
 C256 C 0.76592 0.01081 -0.08382
 C257 C 0.82337 0.03897 -0.07830
 C258 C 0.86267 0.03296 -0.09070
 C259 C 0.84550 -0.00084 -0.10893
 C260 C 0.78710 -0.02812 -0.11384
 N261 N 0.74952 -0.02226 -0.10122
 C262 C 0.72235 0.01345 -0.07042
 N263 N 0.66905 -0.03289 -0.06885
 C264 C 0.62778 -0.03497 -0.05582
 C265 C 0.63915 0.01154 -0.04331
 C266 C 0.69311 0.06064 -0.04531
 C267 C 0.73483 0.06174 -0.05881
 H268 H 0.90684 0.05693 -0.08628
 H269 H 0.77044 -0.05611 -0.12712
 H270 H 0.58649 -0.07344 -0.05496
 H271 H 0.70358 0.09753 -0.03603
 H272 H 0.83792 0.06463 -0.06429
 H273 H 0.77632 0.09989 -0.06005
 C274 C 0.28579 -0.03683 0.08919
 C275 C 0.23089 -0.08509 0.09095
 C276 C 0.18966 -0.08436 0.10419
 C277 C 0.20269 -0.03570 0.11556
 C278 C 0.25828 0.01115 0.11366
 N279 N 0.29759 0.00954 0.10063
 C280 C 0.33045 -0.03312 0.07436
 N281 N 0.37415 0.01954 0.06804
 C282 C 0.41585 0.02700 0.05394
 C283 C 0.41497 -0.02043 0.04515
 C284 C 0.37111 -0.07520 0.05183
 C285 C 0.32903 -0.08176 0.06645
 H286 H 0.14707 -0.12105 0.10491
 H287 H 0.27046 0.04926 0.12239
 H288 H 0.44904 0.07000 0.04936
 H289 H 0.36905 -0.11308 0.04566
 H290 H 0.21885 -0.12230 0.08171
 H291 H 0.29627 -0.12450 0.07147
 C292 C 0.68027 0.73295 0.42183
 C293 C 0.66175 0.74707 0.44039
 C294 C 0.70090 0.79188 0.45251
 C295 C 0.75909 0.82414 0.44611
 C296 C 0.77512 0.80744 0.42721
 N297 N 0.73622 0.76302 0.41602
 C298 C 0.64079 0.68673 0.40816
 N299 N 0.66003 0.65637 0.39750
 C300 C 0.62719 0.61584 0.38353
 C301 C 0.57214 0.60539 0.37909
 C302 C 0.55134 0.63594 0.39000
 C303 C 0.58530 0.67625 0.40467
 H304 H 0.68409 0.80235 0.46624
 H305 H 0.81891 0.82704 0.42171
 H306 H 0.64489 0.59347 0.37531
 H307 H 0.50908 0.62919 0.38697
 H308 H 0.61748 0.72356 0.44560
 H309 H 0.56909 0.70050 0.41248
 C310 C 0.03369 0.28785 0.75109
 C311 C 0.07364 0.27144 0.74565
 C312 C 0.07897 0.23146 0.75884
 C313 C 0.04494 0.20798 0.77753
 C314 C 0.00568 0.22565 0.78249
 N315 N 0.00070 0.26423 0.76923
 C316 C 0.02590 0.32907 0.73718
 N317 N -0.02685 0.32328 0.73527
 C318 C -0.03679 0.35864 0.72197
 C319 C 0.00803 0.40296 0.70966
 C320 C 0.06291 0.41046 0.71195
 C321 C 0.07197 0.37381 0.72562
 H322 H 0.10960 0.21876 0.75444
 H323 H -0.02197 0.20775 0.79660
 H324 H -0.07965 0.35165 0.72084
 H325 H 0.09897 0.44429 0.70295
 H326 H 0.09958 0.28818 0.73108
 H327 H 0.11472 0.38069 0.72715
 C328 C 0.75586 -0.01415 0.08472
 C329 C 0.77606 -0.05260 0.08261
 C330 C 0.82096 -0.04724 0.09521
 C331 C 0.84603 -0.00372 0.10991
 C332 C 0.82454 0.03373 0.11158
 N333 N 0.78100 0.02794 0.09901
 C334 C 0.71031 -0.01584 0.07102
 N335 N 0.70823 0.03313 0.06749
 C336 C 0.66946 0.03607 0.05443
 C337 C 0.62952 -0.01233 0.04384
 C338 C 0.62962 -0.06381 0.04774
 C339 C 0.66980 -0.06581 0.06133
 H340 H 0.83584 -0.07744 0.09355
 H341 H 0.84296 0.06819 0.12256
 H342 H 0.67062 0.07657 0.05206
 H343 H 0.59932 -0.10226 0.04003
 H344 H 0.75856 -0.08566 0.07105
 H345 H 0.66880 -0.10607 0.06417
 C346 C 0.22617 0.26547 0.41387
 C347 C 0.16911 0.24152 0.40790
 C348 C 0.12664 0.19709 0.42065
 C349 C 0.14055 0.17640 0.43944
 C350 C 0.19832 0.20067 0.44456
 N351 N 0.23906 0.24385 0.43181
 C352 C 0.27275 0.31216 0.40070
 N353 N 0.32474 0.31596 0.40037
 C354 C 0.36894 0.35634 0.38802
 C355 C 0.36219 0.39625 0.37500
 C356 C 0.30954 0.39437 0.37565
 C357 C 0.26474 0.35241 0.38845
 H358 H 0.08289 0.17867 0.41567
 H359 H 0.21110 0.18637 0.45893
 H360 H 0.40904 0.35663 0.38817
 H361 H 0.30259 0.42447 0.36593
 H362 H 0.15731 0.25605 0.39334
 H363 H 0.22447 0.35173 0.38874
 C364 C 0.00024 0.72907 0.75344
 C365 C -0.03054 0.71466 0.77305
 C366 C -0.02784 0.75784 0.78543
 C367 C 0.00554 0.81541 0.77842
 C368 C 0.03607 0.82793 0.75881
 N369 N 0.03277 0.78515 0.74703
 C370 C -0.00209 0.68506 0.73940
 N371 N 0.04262 0.69863 0.72574
 C372 C 0.04220 0.66101 0.71173
 C373 C -0.00587 0.60645 0.71061
 C374 C -0.05226 0.59162 0.72461
 C375 C -0.05054 0.63057 0.73899
 H376 H -0.05097 0.74619 0.80067
 H377 H 0.06199 0.87163 0.75265
 H378 H 0.07870 0.67430 0.70112
 H379 H -0.09035 0.55007 0.72425
 H380 H -0.05564 0.67070 0.77902
 H381 H -0.08761 0.61858 0.74910
   
