data_POSCAR
  _audit_creation_date              2014-09-24
  _audit_creation_method            'ToBaCCo'
  _symmetry_space_group_name_H-M    'P1'
  _symmetry_Int_Tables_number       1
  _symmetry_cell_setting            triclinic
  loop_
  _symmetry_equiv_pos_as_xyz
 x,y,z
_cell_length_a 33.4376
_cell_length_b 34.1793
_cell_length_c 32.5514
_cell_angle_alpha 89.485300
_cell_angle_beta 88.519700
_cell_angle_gamma 92.676900
loop_
  _atom_site_label
  _atom_site_type_symbol
  _atom_site_fract_x
  _atom_site_fract_y
  _atom_site_fract_z
C1 C 0.18351 0.53258 1.03628
 H2 H 0.18318 0.55704 1.01497
 C3 C 0.15274 0.52691 1.06591
 H4 H 0.13001 0.54833 1.06746
 C5 C 0.21451 0.47593 1.05936
 H6 H 0.23768 0.45519 1.05584
 C7 C 0.18467 0.46933 1.08971
 H8 H 0.18595 0.44333 1.10873
 N9 N 0.21356 0.50726 1.03349
 C10 C 0.31012 0.57139 0.96460
 H11 H 0.31363 0.55223 0.93861
 C12 C 0.33677 0.60367 0.96926
 H13 H 0.36107 0.60890 0.94702
 C14 C 0.27668 0.58539 1.02750
 H15 H 0.25415 0.57738 1.05084
 C16 C 0.30277 0.61788 1.03341
 H17 H 0.30006 0.63484 1.06121
 Zn18 Zn 0.25116 0.51455 0.98909
 N19 N 0.28109 0.56266 0.99372
 C20 C 0.22040 0.54307 0.91347
 N21 N 0.22087 0.51289 0.94098
 C22 C 0.19642 0.48032 0.93726
 C23 C 0.16973 0.47726 0.90522
 C24 C 0.19415 0.54114 0.88065
 C25 C 0.31082 0.46998 1.02232
 C26 C 0.33830 0.44054 1.02408
 C27 C 0.32052 0.42148 0.95539
 C28 C 0.29271 0.45080 0.95527
 N29 N 0.28812 0.47407 0.98863
 H30 H 0.23950 0.56906 0.91755
 H31 H 0.19714 0.45701 0.95989
 H32 H 0.15029 0.45115 0.90309
 H33 H 0.19331 0.56578 0.85961
 H34 H 0.30722 0.48942 1.04806
 H35 H 0.35587 0.43746 1.05131
 H36 H 0.32373 0.40305 0.92873
 H37 H 0.27508 0.45511 0.92839
 C38 C 0.33341 0.62704 1.00424
 C39 C 0.15259 0.49464 1.09332
 C40 C 0.34344 0.41591 0.99029
 C41 C 0.16796 0.50809 0.87663
 C42 C 0.81774 0.52935 -0.03604
 H43 H 0.81698 0.55039 -0.01143
 C44 C 0.84835 0.53223 -0.06591
 H45 H 0.87108 0.55574 -0.06415
 C46 C 0.78991 0.47204 -0.06681
 H47 H 0.76751 0.44821 -0.06654
 C48 C 0.82006 0.47378 -0.09734
 H49 H 0.81991 0.45170 -0.12096
 N50 N 0.78934 0.49963 -0.03700
 C51 C 0.68941 0.53997 0.03721
 H52 H 0.68557 0.51639 0.05957
 C53 C 0.66377 0.57109 0.03834
 H54 H 0.64001 0.57089 0.06155
 C55 C 0.72418 0.56766 -0.02118
 H56 H 0.74737 0.56601 -0.04471
 C57 C 0.69936 0.59937 -0.02110
 H58 H 0.70437 0.62216 -0.04422
 Zn59 Zn 0.75251 0.49579 0.00779
 N60 N 0.71918 0.53905 0.00806
 C61 C 0.78038 0.52156 0.08583
 N62 N 0.78384 0.49504 0.05515
 C63 C 0.81308 0.46873 0.05501
 C64 C 0.84014 0.46803 0.08679
 C65 C 0.80676 0.52167 0.11849
 C66 C 0.69306 0.44735 -0.02646
 C67 C 0.66736 0.41434 -0.03043
 C68 C 0.69673 0.38602 0.02931
 C69 C 0.72176 0.41972 0.03225
 N70 N 0.71967 0.44941 0.00439
 H71 H 0.75768 0.54298 0.08474
 H72 H 0.81590 0.44885 0.02953
 H73 H 0.86404 0.44786 0.08526
 H74 H 0.80380 0.54277 0.14288
 H75 H 0.69164 0.47165 -0.04782
 H76 H 0.64580 0.41393 -0.05466
 H77 H 0.69901 0.36260 0.05162
 H78 H 0.74270 0.42214 0.05692
 C79 C 0.66878 0.60158 0.00910
 C80 C 0.85003 0.50399 -0.09688
 C81 C 0.66899 0.38297 -0.00236
 C82 C 0.83685 0.49445 0.11921
 C83 C -0.02765 0.31002 0.48626
 H84 H -0.04919 0.31086 0.51158
 C85 C -0.02696 0.33879 0.45558
 H86 H -0.04774 0.36181 0.45920
 C87 C 0.02675 0.27961 0.45405
 H88 H 0.04801 0.25681 0.45375
 C89 C 0.02818 0.30742 0.42233
 H90 H 0.04995 0.30410 0.39765
 N91 N -0.00156 0.28081 0.48462
 C92 C -0.06080 0.18183 0.54988
 H93 H -0.03999 0.17752 0.57424
 C94 C -0.09311 0.15508 0.54491
 H95 H -0.09669 0.12986 0.56520
 C96 C -0.07896 0.21789 0.49120
 H97 H -0.07261 0.24164 0.46955
 C98 C -0.11162 0.19182 0.48511
 H99 H -0.13041 0.19576 0.45892
 Zn100 Zn -0.00615 0.24307 0.52748
 N101 N -0.05417 0.21226 0.52299
 C102 C -0.03710 0.26906 0.60420
 N103 N -0.00540 0.27082 0.57712
 C104 C 0.02674 0.29586 0.58251
 C105 C 0.02760 0.32111 0.61584
 C106 C -0.03755 0.29395 0.63799
 C107 C 0.03898 0.18612 0.49038
 C108 C 0.06876 0.15908 0.48668
 C109 C 0.09155 0.17771 0.55393
 C110 C 0.06166 0.20487 0.55608
 N111 N 0.03628 0.20866 0.52444
 H112 H -0.06269 0.24948 0.59883
 H113 H 0.05112 0.29712 0.55995
 H114 H 0.05273 0.34199 0.61845
 H115 H -0.06342 0.29302 0.65875
 H116 H 0.01773 0.18905 0.46617
 H117 H 0.07035 0.14120 0.45944
 H118 H 0.11152 0.17495 0.57935
 H119 H 0.05837 0.22236 0.58332
 C120 C -0.11871 0.15988 0.51201
 C121 C 0.00066 0.33758 0.42203
 C122 C 0.09528 0.15443 0.51887
 C123 C -0.00518 0.32088 0.64370
 C124 C 0.97831 0.68315 0.51170
 H125 H 0.96143 0.67945 0.48398
 C126 C 0.97466 0.65484 0.54280
 H127 H 0.95454 0.62944 0.53904
 C128 C 1.02567 0.72050 0.54988
 H129 H 1.04605 0.74579 0.55217
 C130 C 1.02264 0.69306 0.58196
 H131 H 1.04092 0.69743 0.60865
 N132 N 1.00360 0.71511 0.51568
 C133 C 0.96411 0.81158 0.44112
 H134 H 0.98990 0.81763 0.42091
 C135 C 0.93250 0.83699 0.44170
 H136 H 0.93448 0.86265 0.42200
 C137 C 0.93196 0.77240 0.49372
 H138 H 0.93213 0.74772 0.51463
 C139 C 0.89972 0.79683 0.49513
 H140 H 0.87507 0.79008 0.51664
 Zn141 Zn 1.00956 0.75021 0.47063
 N142 N 0.96351 0.78028 0.46726
 C143 C 0.99502 0.72364 0.38905
 N144 N 1.01700 0.71957 0.42327
 C145 C 1.04273 0.69020 0.42684
 C146 C 1.04656 0.66287 0.39570
 C147 C 0.99830 0.69711 0.35677
 C148 C 1.04921 0.81446 0.50531
 C149 C 1.08142 0.83959 0.51527
 C150 C 1.12422 0.80255 0.47085
 C151 C 1.09099 0.77828 0.46139
 N152 N 1.05452 0.78439 0.47903
 H153 H 0.97426 0.74685 0.38713
 H154 H 1.05914 0.68711 0.45481
 H155 H 1.06585 0.63879 0.40048
 H156 H 0.98040 0.70063 0.32987
 H157 H 1.01988 0.81864 0.51889
 H158 H 1.07610 0.86370 0.53571
 H159 H 1.15319 0.79680 0.45717
 H160 H 1.09458 0.75421 0.44056
 C161 C 0.89999 0.83006 0.46945
 C162 C 0.99709 0.65957 0.57844
 C163 C 1.11977 0.83352 0.49846
 C164 C 1.02392 0.66578 0.36009
 C165 C 0.45044 -0.02679 0.31129
 H166 H 0.47421 -0.04720 0.31123
 C167 C 0.41837 -0.03169 0.33941
 H168 H 0.41750 -0.05625 0.36070
 C169 C 0.42306 0.03013 0.28357
 H170 H 0.42543 0.05461 0.26230
 C171 C 0.39037 0.02632 0.31118
 H172 H 0.36796 0.04816 0.31087
 N173 N 0.45207 0.00354 0.28392
 C174 C 0.52993 -0.03556 0.18514
 H175 H 0.55185 -0.01123 0.18399
 C176 C 0.53361 -0.06663 0.15808
 H177 H 0.55819 -0.06474 0.13584
 C178 C 0.47026 -0.06492 0.21440
 H179 H 0.44542 -0.06396 0.23619
 C180 C 0.47251 -0.09655 0.18764
 H181 H 0.44966 -0.11994 0.19049
 Zn182 Zn 0.49760 0.00813 0.24825
 N183 N 0.49916 -0.03561 0.21315
 C184 C 0.56970 -0.01860 0.27985
 N185 N 0.54333 0.01049 0.28165
 C186 C 0.54742 0.03988 0.30936
 C187 C 0.57942 0.04108 0.33624
 C188 C 0.60210 -0.01849 0.30600
 C189 C 0.46545 0.05230 0.18659
 C190 C 0.46348 0.08194 0.15712
 C191 C 0.52439 0.11202 0.18320
 C192 C 0.52512 0.08173 0.21239
 N193 N 0.49588 0.05266 0.21347
 H194 H 0.56523 -0.04253 0.25879
 H195 H 0.52555 0.06221 0.31080
 H196 H 0.58234 0.06482 0.35791
 H197 H 0.62220 -0.04238 0.30443
 H198 H 0.44307 0.02837 0.18756
 H199 H 0.43934 0.08053 0.13557
 H200 H 0.54786 0.13493 0.18285
 H201 H 0.54951 0.08104 0.23348
 C202 C 0.50496 -0.09835 0.15917
 C203 C 0.38772 -0.00495 0.33962
 C204 C 0.49339 0.11220 0.15481
 C205 C 0.60741 0.01167 0.33466
 C206 C 0.54652 -0.03063 0.69271
 H207 H 0.52175 -0.05217 0.69402
 C208 C 0.57643 -0.03310 0.66240
 H209 H 0.57419 -0.05651 0.64035
 C210 C 0.57770 0.02743 0.71857
 H211 H 0.57755 0.05132 0.74010
 C212 C 0.60838 0.02610 0.68851
 H213 H 0.63219 0.04870 0.68763
 N214 N 0.54769 -0.00089 0.72015
 C215 C 0.47032 -0.04866 0.82082
 H216 H 0.44696 -0.02781 0.82207
 C217 C 0.46985 -0.07965 0.84929
 H218 H 0.44563 -0.08267 0.87196
 C219 C 0.53053 -0.06953 0.79007
 H220 H 0.55477 -0.06504 0.76774
 C221 C 0.53115 -0.10090 0.81772
 H222 H 0.55598 -0.12010 0.81606
 Zn223 Zn 0.50237 0.00022 0.75622
 N224 N 0.50044 -0.04411 0.79203
 C225 C 0.42676 -0.02712 0.72393
 N226 N 0.45804 -0.00025 0.72137
 C227 C 0.46067 0.02747 0.69113
 C228 C 0.43089 0.02941 0.66224
 C229 C 0.39605 -0.02618 0.69553
 C230 C 0.53164 0.05243 0.81696
 C231 C 0.53097 0.08510 0.84262
 C232 C 0.47128 0.10458 0.80933
 C233 C 0.47290 0.07152 0.78467
 N234 N 0.50288 0.04630 0.78861
 H235 H 0.42565 -0.04938 0.74777
 H236 H 0.48631 0.04799 0.68935
 H237 H 0.43421 0.05136 0.63805
 H238 H 0.37125 -0.04743 0.69856
 H239 H 0.55476 0.03156 0.82008
 H240 H 0.55366 0.08881 0.86554
 H241 H 0.44732 0.12433 0.80507
 H242 H 0.44973 0.06590 0.76273
 C243 C 0.50083 -0.10611 0.84824
 C244 C 0.60795 -0.00458 0.65999
 C245 C 0.50038 0.11179 0.83906
 C246 C 0.39782 0.00253 0.66418
 C247 C 0.21670 0.03695 0.50882
 C248 C 0.24913 0.04149 0.54109
 C249 C 0.27493 0.01175 0.54163
 C250 C 0.26602 -0.01985 0.50934
 C251 C 0.24015 0.03222 0.46794
 C252 C 0.26618 0.00269 0.46829
 C253 C 0.19662 -0.00357 0.51735
 C254 C 0.22225 -0.03310 0.51757
 H255 H 0.25067 0.06583 0.56212
 H256 H 0.28643 -0.04451 0.50950
 H257 H 0.23796 0.05136 0.44172
 H258 H 0.16442 -0.00875 0.52010
 C259 C 0.78004 -0.04997 0.48604
 C260 C 0.75222 -0.05036 0.52438
 C261 C 0.72972 -0.01822 0.52836
 C262 C 0.73733 0.01167 0.49289
 C263 C 0.75165 -0.04438 0.45040
 C264 C 0.72965 -0.01192 0.45357
 C265 C 0.80479 -0.01136 0.48804
 C266 C 0.78268 0.02078 0.49161
 H267 H 0.74989 -0.07467 0.54568
 H268 H 0.71978 0.03832 0.49476
 H269 H 0.74809 -0.06509 0.42571
 H270 H 0.83723 -0.00963 0.48599
 C271 C 0.45776 0.29116 0.99509
 C272 C 0.45650 0.26334 0.95832
 C273 C 0.48616 0.23722 0.95750
 C274 C 0.51414 0.24083 0.99422
 C275 C 0.45677 0.26363 1.03278
 C276 C 0.48595 0.23708 1.03236
 C277 C 0.50033 0.30978 0.99380
 C278 C 0.52957 0.28365 0.99339
 H279 H 0.43442 0.26482 0.93466
 H280 H 0.53830 0.21968 0.99377
 H281 H 0.43502 0.26487 1.05745
 H282 H 0.50679 0.34116 0.99380
 C283 C 0.55005 0.72164 0.00883
 C284 C 0.54555 0.74611 -0.03051
 C285 C 0.51348 0.76940 -0.02959
 C286 C 0.48818 0.76531 0.01054
 C287 C 0.55069 0.75221 0.04305
 C288 C 0.51836 0.77509 0.04430
 C289 C 0.51009 0.69871 0.01500
 C290 C 0.47776 0.72128 0.01581
 H291 H 0.56864 0.74893 -0.05438
 H292 H 0.46136 0.78298 0.01082
 H293 H 0.57501 0.75558 0.06424
 H294 H 0.50765 0.66704 0.01740
 C295 C 1.00248 0.45171 0.28829
 C296 C 0.96249 0.45457 0.26674
 C297 C 0.96195 0.48325 0.23750
 C298 C 1.00219 0.50686 0.23245
 C299 C 1.03294 0.44689 0.25277
 C300 C 1.03326 0.47587 0.22364
 C301 C 1.01199 0.49275 0.30470
 C302 C 1.01175 0.52145 0.27563
 H303 H 0.93687 0.43505 0.27404
 H304 H 1.00264 0.53097 0.20949
 H305 H 1.05150 0.42195 0.24997
 H306 H 1.01799 0.49860 0.33667
 C307 C -0.00037 0.53711 0.70485
 C308 C -0.03301 0.54056 0.73850
 C309 C -0.03183 0.51346 0.76929
 C310 C 0.00213 0.48513 0.76354
 C311 C 0.03912 0.53872 0.72798
 C312 C 0.04053 0.51160 0.75888
 C313 C -0.00557 0.49449 0.69048
 C314 C -0.00425 0.46762 0.72120
 H315 H -0.05566 0.56192 0.73678
 H316 H 0.00321 0.46233 0.78783
 H317 H 0.06306 0.56035 0.72103
 H318 H -0.00960 0.48578 0.65908
 C319 C 0.14598 0.11749 0.47917
 C320 C 0.12551 0.12427 0.51623
 C321 C 0.13352 0.10045 0.55024
 C322 C 0.16340 0.07295 0.54755
 C323 C 0.18626 0.06853 0.51089
 C324 C 0.17574 0.09041 0.47639
 C325 C 0.20118 0.11744 0.44897
 C326 C 0.16838 0.14649 0.45186
 H327 H 0.11703 0.10332 0.57903
 H328 H 0.16901 0.05526 0.57439
 H329 H 0.20499 0.10578 0.41741
 H330 H 0.22941 0.12782 0.46356
 H331 H 0.15310 0.15082 0.42235
 H332 H 0.17749 0.17387 0.46805
 C333 C 0.63357 0.65543 -0.02629
 C334 C 0.64256 0.63558 0.00993
 C335 C 0.62561 0.64918 0.04697
 C336 C 0.59703 0.67812 0.04663
 C337 C 0.58527 0.69515 0.00937
 C338 C 0.60565 0.68429 -0.02664
 C339 C 0.58953 0.67062 -0.06672
 C340 C 0.62016 0.63920 -0.06632
 H341 H 0.63303 0.63642 0.07618
 H342 H 0.58265 0.68572 0.07546
 H343 H 0.59540 0.69258 -0.09180
 H344 H 0.55805 0.65870 -0.06382
 H345 H 0.64364 0.64331 -0.09097
 H346 H 0.60650 0.60899 -0.06325
 C347 C 0.85234 -0.12207 0.44026
 C348 C 0.86760 -0.14184 0.47362
 C349 C 0.85104 -0.13244 0.51264
 C350 C 0.82179 -0.10388 0.51683
 C351 C 0.80684 -0.08453 0.48201
 C352 C 0.82338 -0.09546 0.44419
 C353 C 0.82602 -0.08425 0.39981
 C354 C 0.85841 -0.11454 0.39532
 H355 H 0.86200 -0.14566 0.54025
 H356 H 0.81241 -0.09607 0.54758
 H357 H 0.83771 -0.05353 0.39494
 H358 H 0.79829 -0.09256 0.38327
 H359 H 0.88839 -0.10083 0.38726
 H360 H 0.84916 -0.14036 0.37671
 C361 C 0.37648 0.36198 1.02692
 C362 C 0.37306 0.38505 0.99162
 C363 C 0.39930 0.37847 0.95815
 C364 C 0.42592 0.34778 0.95944
 C365 C 0.42672 0.32238 0.99393
 C366 C 0.40244 0.33131 1.02820
 C367 C 0.37186 0.30605 1.05186
 C368 C 0.34412 0.33982 1.05068
 H369 H 0.39896 0.39675 0.93083
 H370 H 0.44571 0.34355 0.93315
 H371 H 0.38136 0.29940 1.08355
 H372 H 0.36094 0.28017 1.03416
 H373 H 0.33848 0.35284 1.08134
 H374 H 0.31696 0.33362 1.03237
 C375 C 0.81691 0.12070 0.52791
 C376 C 0.85065 0.12920 0.50241
 C377 C 0.85568 0.10606 0.46725
 C378 C 0.83146 0.07180 0.46200
 C379 C 0.80121 0.06068 0.49134
 C380 C 0.79225 0.08749 0.52205
 C381 C 0.78490 0.08152 0.56715
 C382 C 0.81190 0.11790 0.57357
 H383 H 0.88047 0.11254 0.44581
 H384 H 0.83817 0.05265 0.43665
 H385 H 0.79746 0.05411 0.57884
 H386 H 0.75327 0.08580 0.57653
 H387 H 0.83982 0.11131 0.58943
 H388 H 0.79560 0.14282 0.58641
 C389 C 0.37172 0.69151 -0.00970
 C390 C 0.36510 0.65691 0.01346
 C391 C 0.39181 0.64985 0.04516
 C392 C 0.42748 0.67304 0.04839
 C393 C 0.43657 0.70419 0.02049
 C394 C 0.40643 0.71498 -0.00575
 C395 C 0.40829 0.72544 -0.05037
 C396 C 0.37019 0.69978 -0.05475
 H397 H 0.38702 0.62428 0.06489
 H398 H 0.44927 0.66474 0.07052
 H399 H 0.43483 0.71386 -0.06663
 H400 H 0.40383 0.75709 -0.05574
 H401 H 0.37484 0.67368 -0.07404
 H402 H 0.34383 0.71673 -0.06264
 C403 C 0.18564 -0.13065 0.48034
 C404 C 0.15451 -0.14006 0.50901
 C405 C 0.15574 -0.12048 0.54707
 C406 C 0.18173 -0.08743 0.55212
 C407 C 0.20766 -0.07420 0.51971
 C408 C 0.21185 -0.09845 0.48570
 C409 C 0.21299 -0.08837 0.44095
 C410 C 0.18430 -0.12354 0.43505
 H411 H 0.13430 -0.12831 0.57158
 H412 H 0.17873 -0.07007 0.57961
 H413 H 0.24312 -0.09194 0.42662
 H414 H 0.19957 -0.05991 0.43425
 H415 H 0.19791 -0.14733 0.41719
 H416 H 0.15420 -0.11550 0.42499
 C417 C 0.62562 0.32844 1.03049
 C418 C 0.64075 0.34819 0.99499
 C419 C 0.62514 0.33577 0.95704
 C420 C 0.59078 0.31036 0.95600
 C421 C 0.57202 0.29641 0.99277
 C422 C 0.59195 0.30315 1.02939
 C423 C 0.57645 0.31632 1.07012
 C424 C 0.61325 0.34408 1.07138
 H425 H 0.63724 0.34816 0.92837
 H426 H 0.57667 0.30487 0.92689
 H427 H 0.57629 0.29261 1.09373
 H428 H 0.54797 0.33167 1.06804
 H429 H 0.63417 0.33641 1.09586
 H430 H 0.60611 0.37551 1.06990
 C431 C 0.45576 0.15472 1.10754
 C432 C 0.49231 0.14289 1.12220
 C433 C 0.52752 0.16026 1.10360
 C434 C 0.52551 0.19090 1.07445
 C435 C 0.48832 0.20537 1.06356
 C436 C 0.45371 0.18536 1.07957
 C437 C 0.41699 0.19974 1.10074
 C438 C 0.41904 0.16568 1.13073
 H439 H 0.55665 0.15072 1.11197
 H440 H 0.55318 0.20423 1.06177
 H441 H 0.39036 0.19750 1.08100
 H442 H 0.42224 0.22848 1.11589
 H443 H 0.39399 0.14343 1.12775
 H444 H 0.42528 0.17488 1.16271
 C445 C -0.00871 0.58941 0.60062
 C446 C -0.00549 0.62899 0.61100
 C447 C -0.00401 0.63829 0.65302
 C448 C -0.00240 0.60850 0.68299
 C449 C -0.00238 0.56863 0.67183
 C450 C -0.00711 0.55990 0.63009
 C451 C 0.01805 0.53606 0.60194
 C452 C 0.01574 0.56825 0.56992
 H453 H -0.00301 0.66853 0.66269
 H454 H -0.00022 0.61665 0.71496
 H455 H 0.00227 0.50838 0.59245
 H456 H 0.04877 0.53270 0.61338
 H457 H -0.00188 0.55920 0.54282
 H458 H 0.04514 0.58363 0.56259
 C459 C 0.52244 0.82776 -0.12920
 C460 C 0.50326 0.86235 -0.12015
 C461 C 0.49012 0.86739 -0.07901
 C462 C 0.49308 0.83722 -0.04951
 C463 C 0.50921 0.80117 -0.06035
 C464 C 0.52534 0.79813 -0.10020
 C465 C 0.51839 0.76678 -0.13114
 C466 C 0.51518 0.79924 -0.16297
 H467 H 0.47759 0.89458 -0.06944
 H468 H 0.48285 0.84240 -0.01833
 H469 H 0.48980 0.74944 -0.12527
 H470 H 0.54518 0.74917 -0.13609
 H471 H 0.48472 0.80077 -0.17565
 H472 H 0.54011 0.80024 -0.18627
 C473 C 1.03181 0.36781 0.35903
 C474 C 1.00023 0.36468 0.38857
 C475 C 0.96750 0.38873 0.38188
 C476 C 0.96841 0.41636 0.34965
 C477 C 1.00128 0.42038 0.32173
 C478 C 1.03228 0.39475 0.32663
 C479 C 1.07607 0.40429 0.33004
 C480 C 1.07572 0.37511 0.36535
 H481 H 0.94071 0.38686 0.40112
 H482 H 0.94344 0.43522 0.34711
 H483 H 1.08272 0.43505 0.33950
 H484 H 1.09356 0.39470 0.30274
 H485 H 1.08215 0.38885 0.39546
 H486 H 1.09324 0.34908 0.35813
 C487 C 0.47603 0.84319 0.12454
 C488 C 0.50886 0.86888 0.13309
 C489 C 0.54617 0.85972 0.11479
 C490 C 0.54901 0.82932 0.08625
 C491 C 0.51476 0.80704 0.07446
 C492 C 0.47873 0.81368 0.09552
 C493 C 0.43790 0.82039 0.08010
 C494 C 0.43468 0.85209 0.11217
 H495 H 0.57365 0.87569 0.12224
 H496 H 0.57803 0.82431 0.07227
 H497 H 0.41674 0.79478 0.08596
 H498 H 0.43825 0.83264 0.04837
 H499 H 0.41187 0.84445 0.13674
 H500 H 0.43305 0.88201 0.09878
 C501 C -0.04302 0.36997 0.68391
 C502 C -0.00727 0.35131 0.67571
 C503 C 0.02761 0.36682 0.69446
 C504 C 0.02766 0.40367 0.71355
 C505 C -0.00705 0.42538 0.71385
 C506 C -0.04285 0.40639 0.70223
 C507 C -0.07623 0.41965 0.67673
 C508 C -0.07629 0.37977 0.65638
 H509 H 0.05563 0.35239 0.69104
 H510 H 0.05565 0.41685 0.72398
 H511 H -0.06722 0.44404 0.65521
 H512 H -0.10382 0.42412 0.69555
 H513 H -0.06673 0.38121 0.62340
 H514 H -0.10404 0.36147 0.66328
 C515 C 0.46135 0.16324 0.87508
 C516 C 0.49815 0.14673 0.86607
 C517 C 0.53254 0.16526 0.88304
 C518 C 0.52901 0.19573 0.91175
 C519 C 0.49105 0.20860 0.92399
 C520 C 0.45793 0.19335 0.90306
 C521 C 0.41853 0.17707 0.91964
 C522 C 0.42224 0.14403 0.88904
 H523 H 0.56212 0.15565 0.87517
 H524 H 0.55592 0.20838 0.92506
 H525 H 0.39374 0.19652 0.91288
 H526 H 0.41986 0.16725 0.95223
 H527 H 0.39948 0.14447 0.86478
 H528 H 0.42573 0.11497 0.90382
 C529 C 0.99121 0.62418 0.30551
 C530 C 1.02514 0.63488 0.32815
 C531 C 1.05904 0.61205 0.32250
 C532 C 1.05589 0.57603 0.30194
 C533 C 1.01925 0.56290 0.28548
 C534 C 0.98845 0.58906 0.28437
 C535 C 0.94503 0.58248 0.29518
 C536 C 0.94795 0.62081 0.31845
 H537 H 1.08703 0.62017 0.33681
 H538 H 1.08097 0.55708 0.30185
 H539 H 0.93879 0.55641 0.31543
 H540 H 0.92606 0.58382 0.26771
 H541 H 0.94348 0.61700 0.35225
 H542 H 0.93048 0.64412 0.30443
 C543 C 1.12616 0.46245 0.15708
 C544 C 1.12113 0.48711 0.12296
 C545 C 1.08278 0.50284 0.11951
 C546 C 1.05333 0.49769 0.15116
 C547 C 1.06127 0.47700 0.18745
 C548 C 1.09724 0.45775 0.18832
 C549 C 1.12762 0.45715 0.22105
 C550 C 1.15937 0.46243 0.18707
 H551 H 1.07500 0.51931 0.09261
 H552 H 1.02485 0.51086 0.14738
 H553 H 1.12792 0.42815 0.23673
 H554 H 1.12622 0.48270 0.24187
 H555 H 1.17799 0.43650 0.18363
 H556 H 1.17650 0.49107 0.18811
 C557 C 0.65533 -0.04228 0.61610
 C558 C 0.63967 -0.00682 0.62749
 C559 C 0.65527 0.02656 0.60526
 C560 C 0.68448 0.02314 0.57307
 C561 C 0.69972 -0.01369 0.56250
 C562 C 0.68403 -0.04550 0.58603
 C563 C 0.68477 -0.08890 0.59147
 C564 C 0.65251 -0.08503 0.62545
 H565 H 0.64430 0.05518 0.61198
 H566 H 0.69484 0.04951 0.55686
 H567 H 0.71360 -0.09841 0.60351
 H568 H 0.67381 -0.10491 0.56407
 H569 H 0.66299 -0.09183 0.65673
 H570 H 0.62318 -0.09914 0.61747
 C571 C -0.09989 0.54202 0.85800
 C572 C -0.11673 0.50595 0.87204
 C573 C -0.10080 0.47185 0.85536
 C574 C -0.07271 0.47440 0.82236
 C575 C -0.06022 0.51104 0.80492
 C576 C -0.07293 0.54460 0.82492
 C577 C -0.09077 0.58102 0.80916
 C578 C -0.11968 0.57838 0.84594
 H579 H -0.11095 0.44316 0.86680
 H580 H -0.06259 0.44753 0.80917
 H581 H -0.10648 0.57672 0.77976
 H582 H -0.06941 0.60689 0.80996
 H583 H -0.15144 0.57272 0.83751
 H584 H -0.11448 0.60233 0.86833
 C585 C 0.35964 -0.02424 0.40957
 C586 C 0.35390 -0.00926 0.37008
 C587 C 0.31506 0.00235 0.36110
 C588 C 0.28532 0.00412 0.39246
 C589 C 0.29382 -0.00561 0.43347
 C590 C 0.33041 -0.02247 0.44041
 C591 C 0.36069 -0.01365 0.47241
 C592 C 0.39268 -0.01560 0.43859
 H593 H 0.30814 0.01181 0.33038
 H594 H 0.25648 0.01488 0.38482
 H595 H 0.36189 -0.03772 0.49546
 H596 H 0.35825 0.01612 0.48551
 H597 H 0.41215 -0.04082 0.44222
 H598 H 0.40884 0.01303 0.43200
 C599 C 0.09983 0.48782 0.85246
 C600 C 0.13759 0.50594 0.84419
 C601 C 0.14508 0.52161 0.80431
 C602 C 0.11411 0.52249 0.77567
 C603 C 0.07489 0.50801 0.78644
 C604 C 0.06938 0.48889 0.82450
 C605 C 0.03838 0.49410 0.85770
 C606 C 0.07183 0.49280 0.88827
 H607 H 0.17444 0.53415 0.79563
 H608 H 0.12077 0.53553 0.74572
 H609 H 0.01671 0.46851 0.86071
 H610 H 0.02462 0.52305 0.85593
 H611 H 0.06947 0.46639 0.90853
 H612 H 0.07755 0.52100 0.90437
 C613 C 0.63802 0.02580 0.40330
 C614 C 0.64162 0.01204 0.36298
 C615 C 0.67883 -0.00269 0.35082
 C616 C 0.70847 -0.00880 0.37985
 C617 C 0.70170 -0.00012 0.42168
 C618 C 0.66740 0.02000 0.43188
 C619 C 0.63724 0.01266 0.46600
 C620 C 0.60507 0.01893 0.43473
 H621 H 0.68440 -0.01132 0.31936
 H622 H 0.73585 -0.02193 0.36978
 H623 H 0.63897 0.03590 0.48964
 H624 H 0.63705 -0.01783 0.47826
 H625 H 0.58827 0.04573 0.44047
 H626 H 0.58617 -0.00795 0.42874
 C627 C 0.86736 0.46127 0.17894
 C628 C 0.86500 0.49408 0.15335
 C629 C 0.89022 0.52709 0.16185
 C630 C 0.92083 0.52457 0.19077
 C631 C 0.92637 0.48911 0.21212
 C632 C 0.89682 0.45905 0.20774
 C633 C 0.89952 0.41588 0.20240
 C634 C 0.86702 0.41831 0.17077
 H635 H 0.88800 0.55393 0.14428
 H636 H 0.94088 0.54988 0.19493
 H637 H 0.88931 0.39903 0.23041
 H638 H 0.92896 0.40789 0.18906
 H639 H 0.83829 0.40307 0.18080
 H640 H 0.87805 0.41086 0.13952
 C641 C 0.35131 -0.02868 0.61254
 C642 C 0.36647 0.00472 0.63277
 C643 C 0.35492 0.04144 0.61807
 C644 C 0.32631 0.04403 0.58739
 C645 C 0.30838 0.00994 0.57039
 C646 C 0.32340 -0.02598 0.58184
 C647 C 0.30150 -0.06321 0.59469
 C648 C 0.33139 -0.06600 0.62880
 H649 H 0.36691 0.06831 0.63134
 H650 H 0.31760 0.07277 0.57791
 H651 H 0.30432 -0.08647 0.57128
 H652 H 0.27041 -0.05866 0.60599
 H653 H 0.35091 -0.09128 0.62543
 H654 H 0.31705 -0.06289 0.65971
   
