data_POSCAR
  _audit_creation_date              2014-09-24
  _audit_creation_method            'ToBaCCo'
  _symmetry_space_group_name_H-M    'P1'
  _symmetry_Int_Tables_number       1
  _symmetry_cell_setting            triclinic
  loop_
  _symmetry_equiv_pos_as_xyz
 x,y,z
_cell_length_a 31.8901
_cell_length_b 30.4942
_cell_length_c 60.4930
_cell_angle_alpha 83.102200
_cell_angle_beta 90.979000
_cell_angle_gamma 119.599500
loop_
  _atom_site_label
  _atom_site_type_symbol
  _atom_site_fract_x
  _atom_site_fract_y
  _atom_site_fract_z
C1 C 0.01367 0.09414 0.50883
 H2 H 0.04511 0.11566 0.49762
 C3 C 0.00276 0.11913 0.52370
 H4 H 0.02680 0.15942 0.52399
 C5 C -0.05469 0.01556 0.52257
 H6 H -0.07657 -0.02499 0.52217
 C7 C -0.06713 0.03908 0.53761
 H8 H -0.09917 0.01636 0.54850
 N9 N -0.01403 0.04294 0.50907
 C10 C 0.03479 -0.06595 0.50168
 H11 H 0.03640 -0.06545 0.48380
 C12 C 0.04527 -0.09889 0.51573
 H13 H 0.05527 -0.12346 0.50854
 C14 C 0.02016 -0.03422 0.53280
 H15 H 0.01078 -0.00881 0.53950
 C16 C 0.03042 -0.06626 0.54738
 H17 H 0.02755 -0.06577 0.56514
 Zn18 Zn 0.00391 0.00672 0.49148
 N19 N 0.02143 -0.03532 0.51042
 C20 C 0.10013 0.08459 0.48045
 N21 N 0.05740 0.05330 0.47177
 C22 C 0.05143 0.05778 0.44945
 C23 C 0.08706 0.09826 0.43530
 C24 C 0.13709 0.12544 0.46680
 C25 C -0.06968 -0.08390 0.47584
 C26 C -0.10651 -0.11097 0.46184
 C27 C -0.10410 -0.03256 0.44717
 C28 C -0.06803 -0.00741 0.46172
 N29 N -0.05003 -0.03275 0.47492
 H30 H 0.10432 0.07972 0.49821
 H31 H 0.01825 0.03145 0.44260
 H32 H 0.08065 0.10301 0.41776
 H33 H 0.16968 0.15206 0.47412
 H34 H -0.05599 -0.10379 0.48697
 H35 H -0.11832 -0.15094 0.46233
 H36 H -0.11728 -0.01035 0.43730
 H37 H -0.05308 0.03301 0.46198
 C38 C 0.04275 -0.09954 0.53895
 C39 C -0.03748 0.09136 0.53875
 C40 C -0.12340 -0.08528 0.44629
 C41 C 0.12969 0.13368 0.44411
 C42 C 1.11537 0.12423 0.11561
 H43 H 1.10606 0.15407 0.11344
 C44 C 1.15247 0.12792 0.10229
 H45 H 1.17051 0.16015 0.08947
 C46 C 1.10353 0.04676 0.13543
 H47 H 1.08538 0.01617 0.14889
 C48 C 1.14103 0.04933 0.12264
 H49 H 1.15123 0.02035 0.12643
 N50 N 1.09198 0.08434 0.13187
 C51 C 0.97312 0.10816 0.14856
 H52 H 0.97857 0.11050 0.16618
 C53 C 0.93583 0.11382 0.13886
 H54 H 0.91254 0.12038 0.14916
 C55 C 0.99590 0.09468 0.11401
 H56 H 1.01883 0.08622 0.10452
 C57 C 0.95865 0.09966 0.10364
 H58 H 0.95382 0.09603 0.08606
 Zn59 Zn 1.04971 0.08930 0.15157
 N60 N 1.00254 0.09933 0.13607
 C61 C 1.08907 0.19035 0.16193
 N62 N 1.08921 0.14572 0.16671
 C63 C 1.12042 0.14138 0.18118
 C64 C 1.15157 0.18217 0.19234
 C65 C 1.12058 0.23260 0.17225
 C66 C 0.98754 -0.01502 0.16341
 C67 C 0.95730 -0.05945 0.17752
 C68 C 0.98528 -0.01185 0.20892
 C69 C 1.01471 0.03166 0.19422
 N70 N 1.01546 0.02934 0.17193
 H71 H 1.06544 0.19369 0.14966
 H72 H 1.12074 0.10586 0.18423
 H73 H 1.17452 0.17675 0.20442
 H74 H 1.12064 0.26801 0.16761
 H75 H 0.98799 -0.01556 0.14557
 H76 H 0.93510 -0.09437 0.17045
 H77 H 0.98423 -0.00887 0.22653
 H78 H 1.03538 0.06757 0.20064
 C79 C 0.92817 0.10951 0.11612
 C80 C 1.16677 0.09095 0.10609
 C81 C 0.95570 -0.05808 0.20060
 C82 C 1.15224 0.22888 0.18790
 C83 C -0.01293 0.85042 0.88227
 H84 H -0.04839 0.81770 0.88155
 C85 C 0.02065 0.84652 0.89621
 H86 H 0.01094 0.81059 0.90619
 C87 C 0.04268 0.93710 0.87015
 H88 H 0.05119 0.97224 0.85989
 C89 C 0.07770 0.93468 0.88366
 H90 H 0.11272 0.96833 0.88400
 N91 N -0.00205 0.89561 0.87017
 C92 C -0.14268 0.88545 0.86349
 H93 H -0.14250 0.89390 0.84559
 C94 C -0.18089 0.87926 0.87694
 H95 H -0.21040 0.88151 0.86885
 C96 C -0.10405 0.87195 0.89517
 H97 H -0.07321 0.87120 0.90239
 C98 C -0.14187 0.86443 0.90923
 H99 H -0.13840 0.85857 0.92700
 Zn100 Zn -0.05230 0.89693 0.85347
 N101 N -0.10517 0.88196 0.87274
 C102 C -0.11465 0.80535 0.83555
 N103 N -0.07033 0.84777 0.83370
 C104 C -0.03590 0.85480 0.81855
 C105 C -0.04552 0.81855 0.80429
 C106 C -0.12564 0.76772 0.82180
 C107 C -0.01586 1.00215 0.84936
 C108 C -0.00359 1.05041 0.83866
 C109 C -0.02727 1.01482 0.80396
 C110 C -0.03839 0.96737 0.81526
 N111 N -0.03231 0.96197 0.83755
 H112 H -0.14108 0.80001 0.84809
 H113 H -0.00075 0.88865 0.81765
 H114 H -0.01774 0.82553 0.79211
 H115 H -0.16062 0.73356 0.82402
 H116 H -0.01279 0.99650 0.86719
 H117 H 0.00924 1.08198 0.84832
 H118 H -0.03240 1.01855 0.78623
 H119 H -0.05303 0.93471 0.80629
 C120 C -0.18111 0.86867 0.90032
 C121 C 0.06635 0.88921 0.89726
 C122 C -0.00957 1.05703 0.81570
 C123 C -0.09074 0.77391 0.80593
 C124 C 0.50416 0.00017 0.01075
 C125 C 0.48899 -0.03306 -0.00454
 C126 C 0.44069 -0.05110 -0.01363
 C127 C 0.52012 -0.05107 -0.01325
 C128 C 0.55183 0.01893 0.02077
 C129 C 0.47220 0.01765 0.01897
 C130 C 0.40065 -0.09537 -0.00340
 C131 C 0.35436 -0.10945 -0.01062
 C132 C 0.34716 -0.07880 -0.02789
 C133 C 0.38779 -0.03479 -0.03829
 C134 C 0.43413 -0.02134 -0.03133
 C135 C 0.50581 -0.10297 -0.00988
 C136 C 0.53611 -0.11989 -0.01707
 C137 C 0.58100 -0.08527 -0.02802
 C138 C 0.59469 -0.03345 -0.03194
 C139 C 0.56452 -0.01648 -0.02457
 C140 C 0.58370 0.07139 0.01953
 C141 C 0.62755 0.08981 0.02996
 C142 C 0.64028 0.05611 0.04204
 C143 C 0.60858 0.00345 0.04299
 C144 C 0.56466 -0.01496 0.03251
 C145 C 0.47056 0.05929 0.00730
 C146 C 0.44063 0.07589 0.01526
 C147 C 0.41172 0.05094 0.03499
 C148 C 0.41303 0.00872 0.04644
 C149 C 0.44322 -0.00764 0.03853
 H150 H 0.40512 -0.11838 0.01050
 H151 H 0.32419 -0.14410 -0.00249
 H152 H 0.38381 -0.00968 -0.05132
 H153 H 0.46478 0.01335 -0.03917
 H154 H 0.47173 -0.13028 -0.00121
 H155 H 0.52449 -0.16009 -0.01406
 H156 H 0.57597 0.02369 -0.02745
 H157 H 0.57459 0.09819 0.01050
 H158 H 0.65150 0.13052 0.02860
 H159 H 0.61702 -0.02346 0.05242
 H160 H 0.54017 -0.05559 0.03398
 H161 H 0.49259 0.07895 -0.00791
 H162 H 0.43992 0.10814 0.00597
 H163 H 0.39155 -0.01088 0.06179
 H164 H 0.44414 -0.03995 0.04765
 H165 H 0.62924 -0.00594 -0.04020
 C166 C -0.03572 0.44645 0.68364
 C167 C -0.02950 0.45257 0.66106
 C168 C -0.03565 0.40990 0.64924
 C169 C -0.01322 0.50310 0.64805
 C170 C -0.04724 0.48018 0.69508
 C171 C -0.02848 0.40742 0.69762
 C172 C -0.00119 0.41683 0.63304
 C173 C -0.00624 0.37542 0.62307
 C174 C -0.04599 0.32653 0.62908
 C175 C -0.08132 0.32027 0.64463
 C176 C -0.07628 0.36148 0.65454
 C177 C 0.03049 0.54466 0.65283
 C178 C 0.04526 0.59320 0.64182
 C179 C 0.01605 0.60160 0.62612
 C180 C -0.02711 0.55934 0.62082
 C181 C -0.04127 0.51037 0.63150
 C182 C -0.08204 0.49248 0.68673
 C183 C -0.09473 0.52205 0.69787
 C184 C -0.07385 0.53908 0.71799
 C185 C -0.03911 0.52660 0.72641
 C186 C -0.02591 0.49756 0.71506
 C187 C -0.06307 0.37305 0.71426
 C188 C -0.05427 0.33863 0.72818
 C189 C -0.01031 0.33895 0.72595
 C190 C 0.02402 0.37313 0.70920
 C191 C 0.01495 0.40689 0.69512
 H192 H 0.03033 0.45387 0.62862
 H193 H 0.02167 0.38134 0.61120
 H194 H -0.11291 0.28337 0.64920
 H195 H -0.10395 0.35549 0.66658
 H196 H 0.05304 0.53946 0.66527
 H197 H 0.07950 0.62423 0.64581
 H198 H -0.07505 0.47854 0.62757
 H199 H -0.10013 0.47844 0.67173
 H200 H -0.12104 0.53147 0.69067
 H201 H -0.02283 0.53831 0.74203
 H202 H 0.00071 0.48829 0.72200
 H203 H -0.09664 0.37316 0.71651
 H204 H -0.08112 0.31279 0.74109
 H205 H 0.05802 0.37385 0.70708
 H206 H 0.04235 0.43356 0.68257
 H207 H -0.05082 0.56417 0.60901
 C208 C 0.52988 0.54767 0.33040
 C209 C 0.53370 0.54984 0.30786
 C210 C 0.58099 0.58450 0.29582
 C211 C 0.49097 0.52150 0.29453
 C212 C 0.48707 0.50691 0.34398
 C213 C 0.56620 0.59034 0.34162
 C214 C 0.58754 0.62646 0.28085
 C215 C 0.63377 0.66266 0.27192
 C216 C 0.67403 0.65712 0.27770
 C217 C 0.66666 0.61352 0.29181
 C218 C 0.62064 0.57769 0.30083
 C219 C 0.44738 0.52056 0.29889
 C220 C 0.40736 0.49459 0.28637
 C221 C 0.41023 0.47042 0.26853
 C222 C 0.45434 0.47253 0.26377
 C223 C 0.49424 0.49777 0.27665
 C224 C 0.47108 0.45552 0.34228
 C225 C 0.42856 0.41727 0.35373
 C226 C 0.40115 0.42996 0.36679
 C227 C 0.41796 0.48121 0.36905
 C228 C 0.46090 0.51936 0.35796
 C229 C 0.59931 0.58478 0.35551
 C230 C 0.63555 0.62683 0.36456
 C231 C 0.63861 0.67480 0.36010
 C232 C 0.60397 0.67931 0.34679
 C233 C 0.56847 0.63766 0.33752
 H234 H 0.55729 0.63236 0.27693
 H235 H 0.63824 0.69598 0.26126
 H236 H 0.69663 0.60746 0.29619
 H237 H 0.61605 0.54522 0.31222
 H238 H 0.44426 0.54026 0.31195
 H239 H 0.37403 0.49331 0.29086
 H240 H 0.52771 0.49878 0.27266
 H241 H 0.49105 0.44517 0.33172
 H242 H 0.41607 0.37796 0.35170
 H243 H 0.39739 0.49171 0.37914
 H244 H 0.47256 0.55871 0.35952
 H245 H 0.59797 0.54839 0.35874
 H246 H 0.66183 0.62205 0.37456
 H247 H 0.60420 0.71511 0.34350
 H248 H 0.54277 0.64230 0.32697
 H249 H 0.45831 0.45530 0.24990
 C250 C -0.04256 0.19005 0.56947
 C251 C -0.05818 0.16337 0.59041
 C252 C -0.06899 0.11311 0.59542
 C253 C -0.06300 0.08947 0.57817
 C254 C -0.04663 0.11613 0.55635
 C255 C -0.03669 0.16720 0.55202
 O256 O -0.03326 0.23781 0.56837
 C257 C -0.04312 0.24135 0.58910
 C258 C -0.05855 0.19682 0.60322
 C259 C -0.07014 0.19218 0.62573
 C260 C -0.06582 0.23517 0.63403
 C261 C -0.05013 0.28168 0.61983
 C262 C -0.03849 0.28465 0.59700
 H263 H -0.08080 0.09306 0.61210
 H264 H -0.06979 0.05086 0.58204
 H265 H -0.02439 0.18872 0.53562
 H266 H -0.08182 0.15683 0.63655
 H267 H -0.07405 0.23240 0.65160
 H268 H -0.02662 0.31940 0.58570
 C269 C 0.84174 0.82468 0.22539
 C270 C 0.85679 0.81498 0.24591
 C271 C 0.90380 0.84396 0.25235
 C272 C 0.93649 0.88499 0.23710
 C273 C 0.92176 0.89627 0.21589
 C274 C 0.87367 0.86512 0.20994
 O275 O 0.79519 0.79358 0.22283
 C276 C 0.78052 0.76364 0.24218
 C277 C 0.81683 0.77515 0.25687
 C278 C 0.80911 0.74963 0.27833
 C279 C 0.76206 0.71062 0.28492
 C280 C 0.72380 0.69770 0.27007
 C281 C 0.73348 0.72482 0.24834
 H282 H 0.91476 0.83569 0.26863
 H283 H 0.97321 0.90815 0.24184
 H284 H 0.86098 0.87321 0.19410
 H285 H 0.83812 0.75983 0.28970
 H286 H 0.75532 0.69130 0.30178
 H287 H 0.70533 0.71606 0.23657
 C288 C 0.18153 -0.09648 -0.07812
 C289 C 0.16557 -0.11716 -0.05638
 C290 C 0.11793 -0.13684 -0.04886
 C291 C 0.08543 -0.13505 -0.06439
 C292 C 0.10112 -0.11333 -0.08686
 C293 C 0.14998 -0.09372 -0.09377
 O294 O 0.22819 -0.08002 -0.08181
 C295 C 0.24199 -0.09029 -0.06195
 C296 C 0.20511 -0.11280 -0.04581
 C297 C 0.21189 -0.12545 -0.02372
 C298 C 0.25866 -0.11432 -0.01801
 C299 C 0.29752 -0.09151 -0.03438
 C300 C 0.28858 -0.07965 -0.05674
 H301 H 0.10621 -0.15290 -0.03167
 H302 H 0.04823 -0.14976 -0.05884
 H303 H 0.16289 -0.07716 -0.11082
 H304 H 0.18241 -0.14252 -0.01124
 H305 H 0.26461 -0.12250 -0.00071
 H306 H 0.31691 -0.06271 -0.06978
 C307 C 0.03711 0.77955 0.56686
 C308 C 0.05944 0.79567 0.58625
 C309 C 0.07951 0.84567 0.59060
 C310 C 0.07560 0.88036 0.57446
 C311 C 0.05140 0.86455 0.55454
 C312 C 0.03269 0.81342 0.55057
 O313 O 0.01910 0.73000 0.56640
 C314 C 0.03010 0.71455 0.58600
 C315 C 0.05461 0.75327 0.59877
 C316 C 0.06738 0.74531 0.62030
 C317 C 0.05449 0.69537 0.62907
 C318 C 0.02980 0.65441 0.61620
 C319 C 0.01760 0.66459 0.59423
 H320 H 0.09688 0.85740 0.60601
 H321 H 0.09084 0.91941 0.57765
 H322 H 0.01329 0.79981 0.53578
 H323 H 0.08571 0.77629 0.63021
 H324 H 0.06285 0.68872 0.64612
 H325 H -0.00113 0.63471 0.58383
 C326 C 0.26080 0.32079 0.21745
 C327 C 0.24757 0.35602 0.22103
 C328 C 0.20398 0.35203 0.21446
 C329 C 0.17276 0.31001 0.20373
 C330 C 0.18577 0.27330 0.19940
 C331 C 0.23087 0.27936 0.20639
 O332 O 0.30294 0.33055 0.22573
 C333 C 0.31668 0.37303 0.23468
 C334 C 0.28426 0.39039 0.23210
 C335 C 0.29156 0.43430 0.24014
 C336 C 0.33373 0.46110 0.25153
 C337 C 0.36728 0.44325 0.25511
 C338 C 0.35848 0.39859 0.24626
 H339 H 0.19397 0.37982 0.21781
 H340 H 0.13813 0.30585 0.19922
 H341 H 0.24281 0.25298 0.20325
 H342 H 0.26575 0.44753 0.23771
 H343 H 0.34010 0.49584 0.25750
 H344 H 0.38262 0.38322 0.24881
 C345 C 0.72126 -0.11276 -0.07711
 C346 C 0.71117 -0.14156 -0.05662
 C347 C 0.73436 -0.16873 -0.04955
 C348 C 0.76978 -0.16570 -0.06409
 C349 C 0.78147 -0.13597 -0.08551
 C350 C 0.75574 -0.10976 -0.09200
 O351 O 0.69658 -0.08817 -0.08028
 C352 C 0.67022 -0.10191 -0.06137
 C353 C 0.67760 -0.13477 -0.04636
 C354 C 0.65421 -0.15335 -0.02536
 C355 C 0.62192 -0.13733 -0.01960
 C356 C 0.61401 -0.10301 -0.03470
 C357 C 0.63859 -0.08518 -0.05592
 H358 H 0.72576 -0.19122 -0.03331
 H359 H 0.78692 -0.18788 -0.05867
 H360 H 0.76395 -0.08510 -0.10762
 H361 H 0.66084 -0.17894 -0.01377
 H362 H 0.60385 -0.15079 -0.00320
 H363 H 0.63321 -0.05913 -0.06783
 C364 C 0.25450 0.06378 0.07701
 C365 C 0.29281 0.11224 0.07198
 C366 C 0.29232 0.15491 0.07747
 C367 C 0.25063 0.14739 0.08860
 C368 C 0.21015 0.09779 0.09387
 C369 C 0.21242 0.05539 0.08791
 O370 O 0.26290 0.02839 0.07078
 C371 C 0.30748 0.05518 0.06166
 C372 C 0.32730 0.10667 0.06191
 C373 C 0.37375 0.14177 0.05339
 C374 C 0.40100 0.12301 0.04430
 C375 C 0.38163 0.06998 0.04398
 C376 C 0.33402 0.03566 0.05279
 H377 H 0.32320 0.19263 0.07359
 H378 H 0.25045 0.18027 0.09350
 H379 H 0.18239 0.01707 0.09156
 H380 H 0.38861 0.18211 0.05388
 H381 H 0.43755 0.14970 0.03793
 H382 H 0.31812 -0.00496 0.05269
 C383 C 0.78264 0.81288 0.41695
 C384 C 0.78185 0.84107 0.39768
 C385 C 0.81028 0.89347 0.39384
 C386 C 0.84126 0.91804 0.41046
 C387 C 0.84430 0.89025 0.43072
 C388 C 0.81362 0.83623 0.43365
 O389 O 0.75178 0.76345 0.41748
 C390 C 0.73144 0.76050 0.39796
 C391 C 0.74886 0.80696 0.38518
 C392 C 0.73319 0.81277 0.36405
 C393 C 0.69770 0.76890 0.35581
 C394 C 0.67792 0.72037 0.36885
 C395 C 0.69560 0.71635 0.39023
 H396 H 0.80906 0.91482 0.37843
 H397 H 0.86476 0.95857 0.40647
 H398 H 0.81171 0.81240 0.44877
 H399 H 0.74793 0.84974 0.35419
 H400 H 0.68590 0.77289 0.33918
 H401 H 0.68131 0.68024 0.40076
 C402 C -0.01977 0.16061 0.77925
 C403 C 0.02339 0.20252 0.78280
 C404 C 0.05712 0.19956 0.79687
 C405 C 0.04585 0.15141 0.80773
 C406 C 0.00178 0.10753 0.80416
 C407 C -0.03140 0.11236 0.78965
 O408 O -0.04701 0.17169 0.76546
 C409 C -0.02040 0.22168 0.76011
 C410 C 0.02312 0.24236 0.77018
 C411 C 0.05693 0.29391 0.76659
 C412 C 0.04548 0.32539 0.75196
 C413 C 0.00069 0.30505 0.74147
 C414 C -0.03281 0.25240 0.74574
 H415 H 0.09081 0.23310 0.79943
 H416 H 0.07163 0.14815 0.81872
 H417 H -0.06553 0.07962 0.78680
 H418 H 0.09099 0.30930 0.77465
 H419 H 0.07127 0.36569 0.74891
 H420 H -0.06703 0.23582 0.73780
 C421 C 0.81859 0.08375 0.08282
 C422 C 0.80987 0.12105 0.08837
 C423 C 0.83889 0.15633 0.10231
 C424 C 0.87829 0.15275 0.11105
 C425 C 0.88793 0.11435 0.10575
 C426 C 0.85775 0.07967 0.09122
 O427 O 0.78589 0.05321 0.06980
 C428 C 0.75586 0.07164 0.06709
 C429 C 0.76898 0.11318 0.07808
 C430 C 0.74213 0.13782 0.07787
 C431 C 0.70003 0.11890 0.06583
 C432 C 0.68554 0.07603 0.05430
 C433 C 0.71413 0.05218 0.05500
 H434 H 0.83121 0.18526 0.10649
 H435 H 0.90127 0.17983 0.12197
 H436 H 0.86365 0.04948 0.08713
 H437 H 0.75295 0.17016 0.08684
 H438 H 0.67824 0.13708 0.06588
 H439 H 0.70433 0.01959 0.04634
 C440 C 0.24350 0.24533 0.41575
 C441 C 0.22459 0.27345 0.40486
 C442 C 0.17562 0.25774 0.40581
 C443 C 0.14479 0.21113 0.41855
 C444 C 0.16333 0.18163 0.43020
 C445 C 0.21350 0.19913 0.42885
 O446 O 0.29102 0.26697 0.41232
 C447 C 0.30227 0.30970 0.39907
 C448 C 0.26291 0.31557 0.39417
 C449 C 0.26640 0.35786 0.38090
 C450 C 0.31240 0.39567 0.37226
 C451 C 0.35350 0.39025 0.37678
 C452 C 0.34831 0.34652 0.39035
 H453 H 0.16164 0.28052 0.39705
 H454 H 0.10651 0.19836 0.41969
 H455 H 0.22851 0.17728 0.43756
 H456 H 0.23486 0.36161 0.37734
 H457 H 0.31600 0.42882 0.36173
 H458 H 0.37919 0.34163 0.39409
 C459 C -0.07436 0.68604 0.77215
 C460 C -0.12028 0.65785 0.76510
 C461 C -0.15800 0.66578 0.77054
 C462 C -0.14797 0.70428 0.78383
 C463 C -0.10091 0.73369 0.79157
 C464 C -0.06371 0.72404 0.78555
 O465 O -0.04355 0.67283 0.76503
 C466 C -0.07063 0.63537 0.75323
 C467 C -0.11788 0.62457 0.75280
 C468 C -0.15251 0.58627 0.74163
 C469 C -0.13779 0.55809 0.73038
 C470 C -0.08897 0.56888 0.73026
 C471 C -0.05507 0.60825 0.74198
 H472 H -0.19380 0.64336 0.76465
 H473 H -0.17679 0.71147 0.78785
 H474 H -0.02759 0.74487 0.79136
 H475 H -0.18962 0.57809 0.74170
 H476 H -0.16467 0.52746 0.72202
 H477 H -0.01749 0.61808 0.74213
   
