data_POSCAR
  _audit_creation_date              2014-09-24
  _audit_creation_method            'ToBaCCo'
  _symmetry_space_group_name_H-M    'P1'
  _symmetry_Int_Tables_number       1
  _symmetry_cell_setting            triclinic
  loop_
  _symmetry_equiv_pos_as_xyz
 x,y,z
_cell_length_a 57.2639
_cell_length_b 57.3610
_cell_length_c 57.3226
_cell_angle_alpha 90.015200
_cell_angle_beta 89.938000
_cell_angle_gamma 90.002200
loop_
  _atom_site_label
  _atom_site_type_symbol
  _atom_site_fract_x
  _atom_site_fract_y
  _atom_site_fract_z
C1 C 0.21363 0.51771 1.02896
 H2 H 0.21307 0.53124 1.01582
 C3 C 0.19789 0.51816 1.04757
 H4 H 0.18522 0.53214 1.04883
 C5 C 0.23047 0.48265 1.04305
 H6 H 0.24287 0.46862 1.04099
 C7 C 0.21502 0.48240 1.06194
 H8 H 0.21575 0.46827 1.07446
 N9 N 0.22960 0.50024 1.02713
 C10 C 0.28511 0.52852 0.98339
 H11 H 0.28571 0.51532 0.96991
 C12 C 0.30104 0.54694 0.98305
 H13 H 0.31391 0.54803 0.96924
 C14 C 0.26808 0.54288 1.01830
 H15 H 0.25556 0.54097 1.03227
 C16 C 0.28371 0.56159 1.01862
 H17 H 0.28303 0.57416 1.03271
 Zn18 Zn 0.24932 0.50037 1.00063
 N19 N 0.26899 0.52688 1.00077
 C20 C 0.23070 0.51801 0.95809
 N21 N 0.22977 0.50044 0.97404
 C22 C 0.21385 0.48293 0.97216
 C23 C 0.19823 0.48244 0.95347
 C24 C 0.21537 0.51820 0.93915
 C25 C 0.28507 0.47233 1.01802
 C26 C 0.30101 0.45392 1.01847
 C27 C 0.28387 0.43913 0.98291
 C28 C 0.26824 0.45784 0.98311
 N29 N 0.26905 0.47390 1.00058
 H30 H 0.24306 0.53207 0.96019
 H31 H 0.21322 0.46942 0.98531
 H32 H 0.18558 0.46847 0.95213
 H33 H 0.21610 0.53229 0.92659
 H34 H 0.28559 0.48557 1.03145
 H35 H 0.31381 0.45290 1.03233
 H36 H 0.28327 0.42649 0.96887
 H37 H 0.25578 0.45968 0.96910
 C38 C 0.30036 0.56358 1.00086
 C39 C 0.19858 0.50032 1.06420
 C40 C 0.30042 0.43721 1.00073
 C41 C 0.19900 0.50025 0.93685
 C42 C 0.78582 0.51735 -0.02804
 H43 H 0.78644 0.53085 -0.01488
 C44 C 0.80151 0.51779 -0.04670
 H45 H 0.81422 0.53172 -0.04800
 C46 C 0.76890 0.48233 -0.04218
 H47 H 0.75649 0.46831 -0.04011
 C48 C 0.78431 0.48211 -0.06110
 H49 H 0.78358 0.46802 -0.07367
 N50 N 0.76984 0.49989 -0.02621
 C51 C 0.71446 0.52814 0.01773
 H52 H 0.71387 0.51492 0.03117
 C53 C 0.69855 0.54657 0.01814
 H54 H 0.68568 0.54763 0.03197
 C55 C 0.73145 0.54257 -0.01717
 H56 H 0.74394 0.54069 -0.03116
 C57 C 0.71583 0.56130 -0.01741
 H58 H 0.71650 0.57390 -0.03146
 Zn59 Zn 0.75018 0.50000 0.00035
 N60 N 0.73055 0.52653 0.00031
 C61 C 0.76894 0.51755 0.04286
 N62 N 0.76981 0.50000 0.02688
 C63 C 0.78571 0.48247 0.02868
 C64 C 0.80138 0.48194 0.04731
 C65 C 0.78433 0.51769 0.06176
 C66 C 0.71434 0.47204 -0.01700
 C67 C 0.69836 0.45366 -0.01743
 C68 C 0.71556 0.43881 0.01806
 C69 C 0.73123 0.45748 0.01785
 N70 N 0.73042 0.47356 0.00039
 H71 H 0.75659 0.53163 0.04082
 H72 H 0.78628 0.46898 0.01550
 H73 H 0.81403 0.46795 0.04859
 H74 H 0.78365 0.53177 0.07435
 H75 H 0.71382 0.48529 -0.03042
 H76 H 0.68552 0.45267 -0.03126
 H77 H 0.71617 0.42617 0.03209
 H78 H 0.74373 0.45929 0.03183
 C79 C 0.69921 0.56326 0.00038
 C80 C 0.80075 0.49999 -0.06334
 C81 C 0.69895 0.43694 0.00029
 C82 C 0.80069 0.49973 0.06397
 C83 C -0.01773 0.28601 0.47133
 H84 H -0.03095 0.28666 0.48482
 C85 C -0.01857 0.30169 0.45272
 H86 H -0.03254 0.31441 0.45183
 C87 C 0.01695 0.26902 0.45634
 H88 H 0.03100 0.25658 0.45804
 C89 C 0.01680 0.28440 0.43743
 H90 H 0.03064 0.28358 0.42454
 N91 N -0.00025 0.27001 0.47273
 C92 C -0.02753 0.21472 0.51725
 H93 H -0.01399 0.21414 0.53038
 C94 C -0.04597 0.19882 0.51805
 H95 H -0.04671 0.18597 0.53188
 C96 C -0.04277 0.23169 0.48273
 H97 H -0.04121 0.24418 0.46873
 C98 C -0.06152 0.21609 0.48289
 H99 H -0.07445 0.21675 0.46913
 Zn100 Zn 0.00023 0.25043 0.49929
 N101 N -0.02632 0.23080 0.49984
 C102 C -0.01641 0.26910 0.54226
 N103 N 0.00074 0.27007 0.52582
 C104 C 0.01824 0.28607 0.52716
 C105 C 0.01912 0.30175 0.54576
 C106 C -0.01618 0.28449 0.56116
 C107 C 0.02793 0.21465 0.48138
 C108 C 0.04636 0.19873 0.48059
 C109 C 0.06194 0.21605 0.51572
 C110 C 0.04320 0.23167 0.51587
 N111 N 0.02674 0.23075 0.49877
 H112 H -0.03047 0.25666 0.54060
 H113 H 0.03141 0.28670 0.51363
 H114 H 0.03306 0.31449 0.54666
 H115 H -0.02994 0.28373 0.57412
 H116 H 0.01438 0.21405 0.46825
 H117 H 0.04709 0.18586 0.46677
 H118 H 0.07488 0.21674 0.52947
 H119 H 0.04165 0.24419 0.52985
 C120 C -0.06306 0.19947 0.50068
 C121 C -0.00112 0.30090 0.43564
 C122 C 0.06347 0.19941 0.49795
 C123 C 0.00174 0.30096 0.56288
 C124 C 0.98187 0.71428 0.52787
 H125 H 0.96871 0.71361 0.51436
 C126 C 0.98099 0.69861 0.54648
 H127 H 0.96706 0.68586 0.54741
 C128 C 1.01650 0.73128 0.54291
 H129 H 1.03055 0.74372 0.54122
 C130 C 1.01627 0.71591 0.56181
 H131 H 1.03003 0.71669 0.57475
 N132 N 0.99936 0.73028 0.52649
 C133 C 0.97223 0.78552 0.48187
 H134 H 0.98579 0.78605 0.46873
 C135 C 0.95383 0.80145 0.48106
 H136 H 0.95312 0.81428 0.46721
 C137 C 0.95693 0.76865 0.51644
 H138 H 0.95846 0.75618 0.53047
 C139 C 0.93821 0.78428 0.51627
 H140 H 0.92526 0.78367 0.53006
 Zn141 Zn 0.99992 0.74981 0.49990
 N142 N 0.97340 0.76948 0.49932
 C143 C 0.98333 0.73105 0.45698
 N144 N 1.00046 0.73012 0.47341
 C145 C 1.01794 0.71410 0.47211
 C146 C 1.01883 0.69835 0.45356
 C147 C 0.98356 0.71559 0.43814
 C148 C 1.02767 0.78559 0.51774
 C149 C 1.04608 0.80151 0.51845
 C150 C 1.06163 0.78415 0.48329
 C151 C 1.04291 0.76853 0.48322
 N152 N 1.02646 0.76946 0.50036
 H153 H 0.96928 0.74351 0.45861
 H154 H 1.03110 0.71350 0.48563
 H155 H 1.03276 0.68559 0.45270
 H156 H 0.96981 0.71632 0.42519
 H157 H 1.01412 0.78620 0.53090
 H158 H 1.04682 0.81441 0.53224
 H159 H 1.07455 0.78347 0.46949
 H160 H 1.04135 0.75600 0.46925
 C161 C 0.93671 0.80086 0.49845
 C162 C 0.99837 0.69942 0.56357
 C163 C 1.06317 0.80082 0.50103
 C164 C 1.00146 0.69909 0.43646
 C165 C 0.47208 -0.01836 0.28480
 H166 H 0.48541 -0.03171 0.28535
 C167 C 0.45346 -0.01904 0.30054
 H168 H 0.45235 -0.03301 0.31321
 C169 C 0.45752 0.01655 0.26806
 H170 H 0.45940 0.03064 0.25571
 C171 C 0.43863 0.01653 0.28350
 H172 H 0.42590 0.03049 0.28286
 N173 N 0.47369 -0.00083 0.26889
 C174 C 0.51820 -0.02844 0.21362
 H175 H 0.53145 -0.01501 0.21306
 C176 C 0.51908 -0.04701 0.19790
 H177 H 0.53311 -0.04793 0.18522
 C178 C 0.48340 -0.04333 0.23045
 H179 H 0.46929 -0.04159 0.24284
 C180 C 0.48359 -0.06220 0.21502
 H181 H 0.46972 -0.07504 0.21576
 Zn182 Zn 0.50027 -0.00051 0.24923
 N183 N 0.50065 -0.02702 0.22957
 C184 C 0.54303 -0.01753 0.26799
 N185 N 0.52682 -0.00018 0.26885
 C186 C 0.52839 0.01735 0.28477
 C187 C 0.54699 0.01808 0.30048
 C188 C 0.56191 -0.01747 0.28341
 C189 C 0.48236 0.02742 0.21367
 C190 C 0.48147 0.04602 0.19800
 C191 C 0.51691 0.06123 0.21509
 C192 C 0.51714 0.04233 0.23047
 N193 N 0.49991 0.02600 0.22960
 H194 H 0.54118 -0.03163 0.25564
 H195 H 0.51503 0.03068 0.28534
 H196 H 0.54807 0.03206 0.31315
 H197 H 0.57467 -0.03140 0.28275
 H198 H 0.46912 0.01398 0.21311
 H199 H 0.46746 0.04700 0.18535
 H200 H 0.53073 0.07411 0.21579
 H201 H 0.53125 0.04060 0.24284
 C202 C 0.50159 -0.06403 0.19859
 C203 C 0.43662 -0.00141 0.29989
 C204 C 0.49892 0.06305 0.19872
 C205 C 0.56387 0.00049 0.29980
 C206 C 0.52812 -0.01789 0.71469
 H207 H 0.51482 -0.03127 0.71414
 C208 C 0.54675 -0.01854 0.69897
 H209 H 0.54790 -0.03251 0.68630
 C210 C 0.54261 0.01706 0.73144
 H211 H 0.54069 0.03116 0.74379
 C212 C 0.56151 0.01708 0.71601
 H213 H 0.57421 0.03106 0.71666
 N214 N 0.52647 -0.00035 0.73061
 C215 C 0.48200 -0.02803 0.78586
 H216 H 0.46872 -0.01462 0.78641
 C217 C 0.48115 -0.04659 0.80157
 H218 H 0.46715 -0.04758 0.81425
 C219 C 0.51684 -0.04286 0.76905
 H220 H 0.53095 -0.04111 0.75666
 C221 C 0.51666 -0.06172 0.78448
 H222 H 0.53052 -0.07456 0.78380
 Zn223 Zn 0.49988 -0.00008 0.75025
 N224 N 0.49956 -0.02658 0.76991
 C225 C 0.45718 -0.01723 0.73147
 N226 N 0.47334 0.00016 0.73061
 C227 C 0.47172 0.01769 0.71470
 C228 C 0.45310 0.01836 0.69900
 C229 C 0.43829 -0.01723 0.71606
 C230 C 0.51770 0.02793 0.78582
 C231 C 0.51852 0.04654 0.80149
 C232 C 0.48304 0.06162 0.78438
 C233 C 0.48289 0.04272 0.76899
 N234 N 0.50017 0.02644 0.76988
 H235 H 0.45907 -0.03132 0.74381
 H236 H 0.48504 0.03106 0.71413
 H237 H 0.45198 0.03233 0.68634
 H238 H 0.42557 -0.03120 0.71672
 H239 H 0.53098 0.01452 0.78639
 H240 H 0.53251 0.04756 0.81416
 H241 H 0.46919 0.07446 0.78368
 H242 H 0.46879 0.04094 0.75662
 C243 C 0.49866 -0.06356 0.80088
 C244 C 0.56356 -0.00087 0.69962
 C245 C 0.50102 0.06350 0.80077
 C246 C 0.43627 0.00072 0.69968
 C247 C 0.28599 0.01728 0.47150
 H248 H 0.28660 0.03080 0.48464
 C249 C 0.30170 0.01768 0.45286
 H250 H 0.31443 0.03160 0.45156
 C251 C 0.26905 -0.01773 0.45739
 H252 H 0.25662 -0.03174 0.45944
 C253 C 0.28448 -0.01800 0.43849
 H254 H 0.28375 -0.03210 0.42593
 N255 N 0.26998 -0.00016 0.47333
 C256 C 0.21455 0.02826 0.51710
 H257 H 0.21393 0.01508 0.53058
 C258 C 0.19866 0.04672 0.51743
 H259 H 0.18579 0.04784 0.53125
 C260 C 0.23159 0.04255 0.48217
 H261 H 0.24410 0.04059 0.46820
 C262 C 0.21601 0.06129 0.48185
 H263 H 0.21670 0.07384 0.46775
 Zn264 Zn 0.25027 0.00002 0.49984
 N265 N 0.23065 0.02656 0.49971
 C266 C 0.26894 0.01765 0.54237
 N267 N 0.26983 0.00007 0.52642
 C268 C 0.28573 -0.01747 0.52829
 C269 C 0.30137 -0.01796 0.54695
 C270 C 0.28430 0.01783 0.56129
 C271 C 0.21446 -0.02795 0.48245
 C272 C 0.19850 -0.04634 0.48198
 C273 C 0.21562 -0.06117 0.51753
 C274 C 0.23128 -0.04248 0.51735
 N275 N 0.23049 -0.02641 0.49988
 H276 H 0.25660 0.03172 0.54028
 H277 H 0.28632 -0.03099 0.51514
 H278 H 0.31401 -0.03195 0.54828
 H279 H 0.28360 0.03193 0.57385
 H280 H 0.21396 -0.01470 0.46902
 H281 H 0.18569 -0.04735 0.46812
 H282 H 0.21621 -0.07381 0.53156
 H283 H 0.24374 -0.04065 0.53135
 C284 C 0.19937 0.06334 0.49961
 C285 C 0.30095 -0.00014 0.43624
 C286 C 0.19907 -0.06306 0.49971
 C287 C 0.30065 -0.00013 0.56357
 C288 C 0.71427 0.01769 0.52808
 H289 H 0.71367 0.03120 0.51492
 C290 C 0.69859 0.01815 0.54673
 H291 H 0.68589 0.03210 0.54805
 C292 C 0.73114 -0.01735 0.54217
 H293 H 0.74354 -0.03139 0.54010
 C294 C 0.71574 -0.01757 0.56109
 H295 H 0.71645 -0.03166 0.57365
 N296 N 0.73023 0.00021 0.52622
 C297 C 0.78564 0.02836 0.48226
 H298 H 0.78621 0.01511 0.46884
 C299 C 0.80157 0.04678 0.48182
 H300 H 0.81442 0.04780 0.46798
 C301 C 0.76867 0.04286 0.51714
 H302 H 0.75618 0.04101 0.53114
 C303 C 0.78430 0.06158 0.51735
 H304 H 0.78364 0.07421 0.53139
 Zn305 Zn 0.74987 0.00029 0.49966
 N306 N 0.76955 0.02679 0.49968
 C307 C 0.73114 0.01786 0.45715
 N308 N 0.73024 0.00032 0.47313
 C309 C 0.71431 -0.01719 0.47133
 C310 C 0.69865 -0.01771 0.45268
 C311 C 0.71576 0.01801 0.43824
 C312 C 0.78567 -0.02775 0.51697
 C313 C 0.80160 -0.04617 0.51738
 C314 C 0.78435 -0.06098 0.48189
 C315 C 0.76872 -0.04226 0.48212
 N316 N 0.76959 -0.02619 0.49958
 H317 H 0.74351 0.03192 0.45919
 H318 H 0.71371 -0.03067 0.48450
 H319 H 0.68598 -0.03168 0.45140
 H320 H 0.71647 0.03208 0.42565
 H321 H 0.78624 -0.01450 0.53039
 H322 H 0.81445 -0.04719 0.53120
 H323 H 0.78369 -0.07362 0.46786
 H324 H 0.75623 -0.04042 0.46815
 C325 C 0.80092 0.06349 0.49956
 C326 C 0.69932 0.00034 0.56336
 C327 C 0.80095 -0.06289 0.49966
 C328 C 0.69938 0.00007 0.43602
 C329 C 0.48160 0.21437 1.02783
 H330 H 0.46841 0.21374 1.01434
 C331 C 0.48077 0.19862 1.04638
 H332 H 0.46686 0.18584 1.04727
 C333 C 0.51623 0.23136 1.04288
 H334 H 0.53027 0.24382 1.04122
 C335 C 0.51606 0.21590 1.06172
 H336 H 0.52984 0.21664 1.07463
 N337 N 0.49906 0.23040 1.02649
 C338 C 0.47172 0.28580 0.98219
 H339 H 0.48522 0.28640 0.96899
 C340 C 0.45329 0.30172 0.98152
 H341 H 0.45251 0.31460 0.96772
 C342 C 0.45659 0.26878 1.01677
 H343 H 0.45820 0.25627 1.03074
 C344 C 0.43786 0.28440 1.01675
 H345 H 0.42499 0.28373 1.03059
 Zn346 Zn 0.49954 0.25007 1.00000
 N347 N 0.47299 0.26970 0.99957
 C348 C 0.48293 0.23148 0.95700
 N349 N 0.50008 0.23051 0.97341
 C350 C 0.51758 0.21452 0.97203
 C351 C 0.51847 0.19883 0.95342
 C352 C 0.48316 0.21609 0.93810
 C353 C 0.52725 0.28580 1.01798
 C354 C 0.54568 0.30171 1.01878
 C355 C 0.56124 0.28452 0.98354
 C356 C 0.54251 0.26891 0.98339
 N357 N 0.52605 0.26976 1.00053
 H358 H 0.46887 0.24391 0.95870
 H359 H 0.53075 0.21388 0.98553
 H360 H 0.53241 0.18610 0.95250
 H361 H 0.46940 0.21685 0.92517
 H362 H 0.51371 0.28634 1.03114
 H363 H 0.54641 0.31453 1.03264
 H364 H 0.57417 0.28389 0.96975
 H365 H 0.54095 0.25644 0.96936
 C366 C 0.43626 0.30105 0.99900
 C367 C 0.49818 0.19938 1.06343
 C368 C 0.56278 0.30110 1.00137
 C369 C 0.50108 0.19962 0.93634
 C370 C 0.48192 0.78583 -0.02751
 H371 H 0.46878 0.78652 -0.01395
 C372 C 0.48102 0.80150 -0.04612
 H373 H 0.46712 0.81428 -0.04698
 C374 C 0.51648 0.76876 -0.04270
 H375 H 0.53051 0.75629 -0.04107
 C376 C 0.51624 0.78413 -0.06160
 H377 H 0.52997 0.78333 -0.07459
 N378 N 0.49937 0.76979 -0.02621
 C379 C 0.47222 0.71455 0.01846
 H380 H 0.48582 0.71396 0.03154
 C381 C 0.45377 0.69867 0.01935
 H382 H 0.45306 0.68584 0.03320
 C383 C 0.45687 0.73150 -0.01602
 H384 H 0.45840 0.74398 -0.03004
 C385 C 0.43810 0.71593 -0.01577
 H386 H 0.42511 0.71660 -0.02947
 Zn387 Zn 0.49994 0.75023 0.00036
 N388 N 0.47339 0.73060 0.00102
 C389 C 0.48344 0.76896 0.04337
 N390 N 0.50054 0.76990 0.02686
 C391 C 0.51802 0.78592 0.02811
 C392 C 0.51895 0.80167 0.04666
 C393 C 0.48372 0.78441 0.06222
 C394 C 0.52762 0.71443 -0.01758
 C395 C 0.54604 0.69851 -0.01839
 C396 C 0.56169 0.71589 0.01669
 C397 C 0.54296 0.73151 0.01685
 N398 N 0.52646 0.73056 -0.00021
 H399 H 0.46940 0.75650 0.04179
 H400 H 0.53115 0.78654 0.01454
 H401 H 0.53288 0.81442 0.04748
 H402 H 0.46999 0.78366 0.07523
 H403 H 0.51404 0.71381 -0.03068
 H404 H 0.54673 0.68561 -0.03218
 H405 H 0.57466 0.71659 0.03041
 H406 H 0.54144 0.74405 0.03081
 C407 C 0.43660 0.69934 0.00205
 C408 C 0.49837 0.80066 -0.06328
 C409 C 0.56318 0.69922 -0.00106
 C410 C 0.50162 0.80091 0.06384
 C411 C 1.02846 0.48169 0.21470
 H412 H 1.01519 0.46828 0.21415
 C413 C 1.04706 0.48110 0.19894
 H414 H 1.04822 0.46715 0.18625
 C415 C 1.04288 0.51665 0.23147
 H416 H 1.04095 0.53073 0.24384
 C417 C 1.06176 0.51673 0.21600
 H418 H 1.07442 0.53075 0.21665
 N419 N 1.02679 0.49920 0.23064
 C420 C 0.98242 0.47129 0.28586
 H421 H 0.96910 0.48466 0.28646
 C422 C 0.98164 0.45268 0.30152
 H423 H 0.96763 0.45161 0.31420
 C424 C 1.01732 0.45662 0.26901
 H425 H 1.03143 0.45845 0.25664
 C426 C 1.01720 0.43772 0.28439
 H427 H 1.03110 0.42492 0.28367
 Zn428 Zn 1.00023 0.49938 0.25032
 N429 N 0.99998 0.47284 0.26992
 C430 C 0.95752 0.48222 0.23155
 N431 N 0.97365 0.49964 0.23072
 C432 C 0.97199 0.51721 0.21486
 C433 C 0.95335 0.51790 0.19919
 C434 C 0.93861 0.48225 0.21617
 C435 C 1.01806 0.52735 0.28592
 C436 C 1.01887 0.54593 0.30163
 C437 C 0.98334 0.56099 0.28461
 C438 C 0.98319 0.54212 0.26919
 N439 N 1.00050 0.52586 0.27001
 H440 H 0.95944 0.46811 0.24386
 H441 H 0.98529 0.53059 0.21431
 H442 H 0.95220 0.53191 0.18657
 H443 H 0.92590 0.46827 0.21682
 H444 H 1.03136 0.51396 0.28645
 H445 H 1.03288 0.54695 0.31428
 H446 H 0.96947 0.57381 0.28395
 H447 H 0.96908 0.54034 0.25684
 C448 C 0.99920 0.43577 0.30078
 C449 C 1.06383 0.49881 0.19959
 C450 C 1.00134 0.56287 0.30097
 C451 C 0.93654 0.50024 0.19984
 C452 C -0.02803 0.48204 0.78529
 H453 H -0.01469 0.46870 0.78584
 C454 C -0.04666 0.48133 0.80101
 H455 H -0.04777 0.46735 0.81367
 C456 C -0.04260 0.51696 0.76857
 H457 H -0.04072 0.53106 0.75624
 C458 C -0.06151 0.51691 0.78400
 H459 H -0.07424 0.53087 0.78336
 N460 N -0.02642 0.49959 0.76940
 C461 C 0.01813 0.47204 0.71414
 H462 H 0.03139 0.48547 0.71360
 C463 C 0.01900 0.45349 0.69839
 H464 H 0.03300 0.45255 0.68570
 C465 C -0.01669 0.45713 0.73093
 H466 H -0.03080 0.45884 0.74331
 C467 C -0.01648 0.43829 0.71546
 H468 H -0.03032 0.42542 0.71612
 Zn469 Zn 0.00017 0.49993 0.74976
 N470 N 0.00057 0.47344 0.73008
 C471 C 0.04291 0.48291 0.76856
 N472 N 0.02671 0.50026 0.76941
 C473 C 0.02826 0.51779 0.78533
 C474 C 0.04685 0.51851 0.80105
 C475 C 0.06178 0.48296 0.78400
 C476 C -0.01773 0.52787 0.71420
 C477 C -0.01861 0.54647 0.69853
 C478 C 0.01681 0.56169 0.71564
 C479 C 0.01703 0.54279 0.73103
 N480 N -0.00020 0.52645 0.73014
 H481 H 0.04107 0.46882 0.75620
 H482 H 0.01491 0.53112 0.78589
 H483 H 0.04792 0.53248 0.81373
 H484 H 0.07453 0.46902 0.78334
 H485 H -0.03097 0.51442 0.71363
 H486 H -0.03260 0.54743 0.68586
 H487 H 0.03062 0.57458 0.71635
 H488 H 0.03112 0.54107 0.74341
 C489 C 0.00152 0.43650 0.69905
 C490 C -0.06351 0.49895 0.80037
 C491 C -0.00117 0.56350 0.69925
 C492 C 0.06373 0.50091 0.80039
 C493 C 0.15024 0.11520 0.49831
 C494 C 0.15632 0.13871 0.50278
 C495 C 0.13879 0.15627 0.50257
 C496 C 0.11529 0.15021 0.49788
 C497 C 0.10923 0.12671 0.49330
 C498 C 0.12675 0.10916 0.49353
 C499 C 0.12024 0.08579 0.48895
 C500 C 0.09710 0.07993 0.48426
 C501 C 0.07998 0.09709 0.48403
 C502 C 0.08586 0.12024 0.48848
 C503 C 0.14528 0.17963 0.50712
 C504 C 0.16844 0.18550 0.51174
 C505 C 0.18558 0.16834 0.51194
 C506 C 0.17969 0.14518 0.50752
 C507 C 0.09729 0.16804 0.49791
 C508 C 0.08204 0.18253 0.49793
 C509 C 0.16804 0.09718 0.49877
 C510 C 0.18251 0.08192 0.49916
 H511 H 0.13293 0.07181 0.48893
 H512 H 0.09244 0.06197 0.48080
 H513 H 0.06202 0.09245 0.48038
 H514 H 0.07191 0.13295 0.48809
 H515 H 0.13257 0.19359 0.50715
 H516 H 0.17311 0.20346 0.51518
 H517 H 0.20354 0.17299 0.51553
 H518 H 0.19363 0.13245 0.50786
 C519 C 0.61496 0.64997 -0.00096
 C520 C 0.60858 0.62617 -0.00252
 C521 C 0.62613 0.60864 -0.00233
 C522 C 0.64996 0.61501 -0.00060
 C523 C 0.65634 0.63881 0.00091
 C524 C 0.63879 0.65635 0.00074
 C525 C 0.64558 0.68001 0.00230
 C526 C 0.66906 0.68619 0.00399
 C527 C 0.68622 0.66906 0.00414
 C528 C 0.68003 0.64561 0.00263
 C529 C 0.61931 0.58496 -0.00386
 C530 C 0.59584 0.57878 -0.00554
 C531 C 0.57869 0.59591 -0.00574
 C532 C 0.58488 0.61936 -0.00426
 C533 C 0.66781 0.59703 -0.00028
 C534 C 0.68232 0.58181 0.00001
 C535 C 0.59697 0.66781 -0.00103
 C536 C 0.58173 0.68232 -0.00105
 H537 H 0.63286 0.69397 0.00225
 H538 H 0.67396 0.70438 0.00517
 H539 H 0.70443 0.67395 0.00545
 H540 H 0.69400 0.63290 0.00281
 H541 H 0.63200 0.57099 -0.00378
 H542 H 0.59094 0.56059 -0.00670
 H543 H 0.56048 0.59102 -0.00705
 H544 H 0.57089 0.63204 -0.00449
 C545 C 0.85012 -0.11474 0.49881
 C546 C 0.84365 -0.13854 0.49985
 C547 C 0.86116 -0.15612 0.49971
 C548 C 0.88503 -0.14979 0.49851
 C549 C 0.89150 -0.12598 0.49743
 C550 C 0.87400 -0.10841 0.49759
 C551 C 0.88090 -0.08473 0.49654
 C552 C 0.90442 -0.07859 0.49536
 C553 C 0.92153 -0.09576 0.49519
 C554 C 0.91525 -0.11921 0.49620
 C555 C 0.85427 -0.17979 0.50080
 C556 C 0.83076 -0.18593 0.50199
 C557 C 0.81364 -0.16875 0.50212
 C558 C 0.81991 -0.14529 0.50106
 C559 C 0.90298 -0.16767 0.49846
 C560 C 0.91818 -0.18221 0.49845
 C561 C 0.83231 -0.09672 0.49908
 C562 C 0.81782 -0.08147 0.49932
 H563 H 0.86825 -0.07072 0.49663
 H564 H 0.90938 -0.06039 0.49457
 H565 H 0.93977 -0.09091 0.49426
 H566 H 0.92920 -0.13193 0.49602
 H567 H 0.86696 -0.19377 0.50075
 H568 H 0.82579 -0.20412 0.50282
 H569 H 0.79539 -0.17361 0.50304
 H570 H 0.80597 -0.13256 0.50120
 C571 C 0.38456 0.35038 0.99964
 C572 C 0.39090 0.37405 1.00271
 C573 C 0.37338 0.39160 1.00294
 C574 C 0.34962 0.38540 1.00008
 C575 C 0.34327 0.36173 0.99705
 C576 C 0.36080 0.34417 0.99684
 C577 C 0.35403 0.32063 0.99380
 C578 C 0.33061 0.31462 0.99104
 C579 C 0.31349 0.33179 0.99124
 C580 C 0.31964 0.35511 0.99420
 C581 C 0.38016 0.41514 1.00605
 C582 C 0.40357 0.42116 1.00884
 C583 C 0.42069 0.40400 1.00860
 C584 C 0.41454 0.38069 1.00558
 C585 C 0.33179 0.40340 1.00026
 C586 C 0.31730 0.41865 1.00044
 C587 C 0.40252 0.33251 0.99936
 C588 C 0.41774 0.31798 0.99917
 H589 H 0.36673 0.30666 0.99353
 H590 H 0.32574 0.29653 0.98874
 H591 H 0.29532 0.32702 0.98909
 H592 H 0.30570 0.36784 0.99424
 H593 H 0.36749 0.42912 1.00637
 H594 H 0.40843 0.43924 1.01120
 H595 H 0.43885 0.40876 1.01078
 H596 H 0.42851 0.36798 1.00552
 C597 C 0.85017 0.11526 0.50039
 C598 C 0.87401 0.10889 0.50198
 C599 C 0.89155 0.12642 0.50212
 C600 C 0.88516 0.15023 0.50065
 C601 C 0.86132 0.15660 0.49908
 C602 C 0.84377 0.13906 0.49896
 C603 C 0.82007 0.14584 0.49737
 C604 C 0.81387 0.16929 0.49593
 C605 C 0.83102 0.18644 0.49603
 C606 C 0.85451 0.18026 0.49759
 C607 C 0.91526 0.11962 0.50373
 C608 C 0.92147 0.09618 0.50514
 C609 C 0.90433 0.07903 0.50499
 C610 C 0.88085 0.08521 0.50344
 C611 C 0.90314 0.16807 0.50067
 C612 C 0.91838 0.18258 0.50068
 C613 C 0.83232 0.09727 0.50013
 C614 C 0.81781 0.08204 0.49988
 H615 H 0.80610 0.13313 0.49724
 H616 H 0.79565 0.17418 0.49473
 H617 H 0.82612 0.20463 0.49490
 H618 H 0.86722 0.19422 0.49760
 H619 H 0.92925 0.13231 0.50391
 H620 H 0.93969 0.09129 0.50634
 H621 H 0.90924 0.06084 0.50609
 H622 H 0.86816 0.07123 0.50340
 C623 C 0.38465 0.65027 0.00238
 C624 C 0.36116 0.65637 -0.00230
 C625 C 0.34358 0.63886 -0.00245
 C626 C 0.34961 0.61535 0.00208
 C627 C 0.37309 0.60926 0.00686
 C628 C 0.39065 0.62677 0.00702
 C629 C 0.41401 0.62025 0.01182
 C630 C 0.41984 0.59710 0.01632
 C631 C 0.40267 0.57999 0.01615
 C632 C 0.37954 0.58589 0.01149
 C633 C 0.32023 0.64537 -0.00719
 C634 C 0.31440 0.66853 -0.01168
 C635 C 0.33158 0.68564 -0.01155
 C636 C 0.35472 0.67974 -0.00692
 C637 C 0.33176 0.59736 0.00166
 C638 C 0.31725 0.58213 0.00130
 C639 C 0.40270 0.66805 0.00227
 C640 C 0.41798 0.68251 0.00217
 H641 H 0.42799 0.63293 0.01217
 H642 H 0.43779 0.59243 0.01996
 H643 H 0.40729 0.56203 0.01965
 H644 H 0.36682 0.57194 0.01156
 H645 H 0.30625 0.63267 -0.00748
 H646 H 0.29645 0.67321 -0.01528
 H647 H 0.32696 0.70360 -0.01504
 H648 H 0.36747 0.69366 -0.00701
 C649 C 0.14983 -0.11484 0.50030
 C650 C 0.12602 -0.10857 0.49809
 C651 C 0.10850 -0.12612 0.49826
 C652 C 0.11488 -0.14985 0.50062
 C653 C 0.13870 -0.15613 0.50280
 C654 C 0.15622 -0.13857 0.50265
 C655 C 0.17990 -0.14527 0.50487
 C656 C 0.18610 -0.16865 0.50716
 C657 C 0.16897 -0.18581 0.50730
 C658 C 0.14551 -0.17973 0.50515
 C659 C 0.08481 -0.11940 0.49605
 C660 C 0.07861 -0.09603 0.49372
 C661 C 0.09574 -0.07887 0.49354
 C662 C 0.11920 -0.08496 0.49570
 C663 C 0.09692 -0.16772 0.50080
 C664 C 0.08170 -0.18225 0.50093
 C665 C 0.16767 -0.09685 0.50014
 C666 C 0.18217 -0.08161 0.49997
 H667 H 0.19385 -0.13254 0.50485
 H668 H 0.20430 -0.17347 0.50883
 H669 H 0.17387 -0.20395 0.50908
 H670 H 0.13281 -0.19370 0.50535
 H671 H 0.07084 -0.13210 0.49609
 H672 H 0.06041 -0.09121 0.49204
 H673 H 0.09084 -0.06074 0.49173
 H674 H 0.13187 -0.07097 0.49546
 C675 C 0.61459 0.35031 1.00133
 C676 C 0.63845 0.34389 1.00034
 C677 C 0.65602 0.36141 1.00022
 C678 C 0.64962 0.38524 1.00107
 C679 C 0.62576 0.39166 1.00207
 C680 C 0.60820 0.37415 1.00221
 C681 C 0.58447 0.38100 1.00322
 C682 C 0.57826 0.40447 1.00404
 C683 C 0.59542 0.42159 1.00389
 C684 C 0.61893 0.41537 1.00292
 C685 C 0.67975 0.35458 0.99922
 C686 C 0.68595 0.33110 0.99835
 C687 C 0.66877 0.31397 0.99846
 C688 C 0.64527 0.32019 0.99944
 C689 C 0.66750 0.40320 1.00083
 C690 C 0.68203 0.41841 1.00060
 C691 C 0.59659 0.33248 1.00137
 C692 C 0.58134 0.31798 1.00138
 H693 H 0.57046 0.36833 1.00338
 H694 H 0.56002 0.40940 1.00479
 H695 H 0.59051 0.43981 1.00452
 H696 H 0.63163 0.42933 1.00284
 H697 H 0.69373 0.36727 0.99911
 H698 H 0.70418 0.32617 0.99759
 H699 H 0.67368 0.29576 0.99777
 H700 H 0.63253 0.30625 0.99948
 C701 C 0.49761 0.15123 1.11617
 C702 C 0.47836 0.13588 1.11833
 C703 C 0.47847 0.11828 1.13578
 C704 C 0.49784 0.11613 1.15097
 C705 C 0.51692 0.13171 1.14906
 C706 C 0.51681 0.14932 1.13160
 C707 C 0.53613 0.16463 1.12996
 C708 C 0.55501 0.16261 1.14513
 C709 C 0.55512 0.14540 1.16220
 C710 C 0.53635 0.13008 1.16422
 C711 C 0.45907 0.10308 1.13753
 C712 C 0.44010 0.10521 1.12248
 C713 C 0.43999 0.12242 1.10541
 C714 C 0.45885 0.13762 1.10328
 C715 C 0.49830 0.09760 1.16822
 C716 C 0.49863 0.08198 1.18227
 C717 C 0.49785 0.16863 1.09777
 C718 C 0.49802 0.18280 1.08225
 H719 H 0.53683 0.17831 1.11698
 H720 H 0.56964 0.17447 1.14364
 H721 H 0.56984 0.14391 1.17394
 H722 H 0.53722 0.11699 1.17778
 H723 H 0.45833 0.08943 1.15053
 H724 H 0.42541 0.09345 1.12407
 H725 H 0.42521 0.12401 1.09376
 H726 H 0.45794 0.15074 1.08974
 C727 C -0.00220 0.61647 0.65139
 C728 C 0.01668 0.63232 0.64974
 C729 C 0.01661 0.64987 0.63222
 C730 C -0.00235 0.65145 0.61647
 C731 C -0.02141 0.63583 0.61835
 C732 C -0.02133 0.61829 0.63586
 C733 C -0.04053 0.60280 0.63733
 C734 C -0.05927 0.60460 0.62195
 C735 C -0.05934 0.62175 0.60483
 C736 C -0.04068 0.63723 0.60296
 C737 C 0.03572 0.66545 0.63085
 C738 C 0.05438 0.66376 0.64634
 C739 C 0.05446 0.64661 0.66347
 C740 C 0.03587 0.63102 0.66523
 C741 C -0.00206 0.66879 0.59802
 C742 C -0.00184 0.68291 0.58245
 C743 C -0.00175 0.59799 0.66869
 C744 C -0.00144 0.58240 0.68278
 H745 H -0.04129 0.58918 0.65037
 H746 H -0.07381 0.59262 0.62333
 H747 H -0.07394 0.62308 0.59292
 H748 H -0.04155 0.65029 0.58937
 H749 H 0.03645 0.67910 0.61784
 H750 H 0.06886 0.67583 0.64505
 H751 H 0.06899 0.64536 0.67546
 H752 H 0.03671 0.61799 0.67885
 C753 C 0.49761 0.84857 -0.11623
 C754 C 0.51671 0.85035 -0.13184
 C755 C 0.51677 0.86788 -0.14937
 C756 C 0.49773 0.88352 -0.15118
 C757 C 0.47846 0.88150 -0.13581
 C758 C 0.47840 0.86397 -0.11828
 C759 C 0.45898 0.86236 -0.10305
 C760 C 0.44016 0.87761 -0.10509
 C761 C 0.44022 0.89475 -0.12223
 C762 C 0.45910 0.89676 -0.13745
 C763 C 0.53609 0.86939 -0.16471
 C764 C 0.55483 0.85400 -0.16280
 C765 C 0.55477 0.83686 -0.14566
 C766 C 0.53598 0.83498 -0.13031
 C767 C 0.49814 0.90199 -0.16850
 C768 C 0.49842 0.91757 -0.18261
 C769 C 0.49792 0.83126 -0.09775
 C770 C 0.49814 0.81715 -0.08217
 H771 H 0.45812 0.84930 -0.08946
 H772 H 0.42545 0.87612 -0.09331
 H773 H 0.42555 0.90656 -0.12374
 H774 H 0.45832 0.91036 -0.15050
 H775 H 0.53692 0.88242 -0.17833
 H776 H 0.56946 0.85539 -0.17468
 H777 H 0.56936 0.82495 -0.14425
 H778 H 0.53672 0.82134 -0.11728
 C779 C 0.99849 0.38272 0.34859
 C780 C 0.97806 0.37869 0.36194
 C781 C 0.97801 0.36118 0.37948
 C782 C 0.99838 0.34781 0.38358
 C783 C 1.01868 0.35158 0.36997
 C784 C 1.01874 0.36909 0.35242
 C785 C 1.03927 0.37261 0.33911
 C786 C 1.05918 0.35921 0.34301
 C787 C 1.05913 0.34209 0.36017
 C788 C 1.03916 0.33824 0.37356
 C789 C 0.95742 0.35755 0.39268
 C790 C 0.93744 0.37082 0.38864
 C791 C 0.93749 0.38793 0.37149
 C792 C 0.95752 0.39191 0.35824
 C793 C 0.99859 0.33057 0.40212
 C794 C 0.99874 0.31650 0.41775
 C795 C 0.99881 0.40123 0.33131
 C796 C 0.99903 0.41685 0.31724
 H797 H 1.04014 0.38570 0.32554
 H798 H 1.07473 0.36212 0.33267
 H799 H 1.07464 0.33173 0.36314
 H800 H 1.03996 0.32471 0.38668
 H801 H 0.95651 0.34442 0.40621
 H802 H 0.92184 0.36780 0.39889
 H803 H 0.92193 0.39819 0.36842
 H804 H 0.95669 0.40540 0.34507
 C805 C 0.50249 0.84899 0.11665
 C806 C 0.52162 0.86452 0.11852
 C807 C 0.52161 0.88207 0.13603
 C808 C 0.50246 0.88401 0.15156
 C809 C 0.48349 0.86825 0.14993
 C810 C 0.48351 0.85070 0.13242
 C811 C 0.46431 0.83522 0.13105
 C812 C 0.44563 0.83702 0.14656
 C813 C 0.44562 0.85419 0.16368
 C814 C 0.46429 0.86968 0.16542
 C815 C 0.54089 0.89745 0.13749
 C816 C 0.55965 0.89553 0.12211
 C817 C 0.55966 0.87837 0.10499
 C818 C 0.54092 0.86299 0.10313
 C819 C 0.50208 0.90250 0.16886
 C820 C 0.50182 0.91810 0.18296
 C821 C 0.50214 0.83163 0.09822
 C822 C 0.50188 0.81747 0.08267
 H823 H 0.46353 0.82156 0.11804
 H824 H 0.43109 0.82503 0.14528
 H825 H 0.43108 0.85551 0.17568
 H826 H 0.46350 0.88272 0.17905
 H827 H 0.54171 0.91107 0.15053
 H828 H 0.57426 0.90743 0.12349
 H829 H 0.57428 0.87695 0.09308
 H830 H 0.54174 0.84992 0.08954
 C831 C 0.00244 0.38369 0.65095
 C832 C -0.01660 0.36805 0.64912
 C833 C -0.01656 0.35056 0.63154
 C834 C 0.00253 0.34881 0.61591
 C835 C 0.02174 0.36422 0.61799
 C836 C 0.02169 0.38171 0.63556
 C837 C 0.04105 0.39698 0.63722
 C838 C 0.05991 0.39501 0.62197
 C839 C 0.05996 0.37790 0.60479
 C840 C 0.04114 0.36264 0.60274
 C841 C -0.03582 0.33518 0.62999
 C842 C -0.05460 0.33703 0.64536
 C843 C -0.05465 0.35414 0.66254
 C844 C -0.03592 0.36953 0.66448
 C845 C 0.00221 0.33153 0.59740
 C846 C 0.00198 0.31745 0.58179
 C847 C 0.00204 0.40212 0.66833
 C848 C 0.00176 0.41766 0.68249
 H849 H 0.04184 0.41055 0.65031
 H850 H 0.07458 0.40682 0.62350
 H851 H 0.07466 0.37644 0.59299
 H852 H 0.04200 0.34962 0.58911
 H853 H -0.03657 0.32158 0.61693
 H854 H -0.06920 0.32512 0.64393
 H855 H -0.06928 0.35550 0.67444
 H856 H -0.03674 0.38253 0.67814
 C857 C 0.50188 0.15159 0.88348
 C858 C 0.48280 0.14974 0.86790
 C859 C 0.48278 0.13216 0.85040
 C860 C 0.50184 0.11654 0.84860
 C861 C 0.52109 0.11862 0.86395
 C862 C 0.52111 0.13619 0.88144
 C863 C 0.54050 0.13786 0.89665
 C864 C 0.55933 0.12261 0.89464
 C865 C 0.55932 0.10543 0.87754
 C866 C 0.54046 0.10337 0.86232
 C867 C 0.46347 0.13059 0.83509
 C868 C 0.44471 0.14595 0.83700
 C869 C 0.44472 0.16313 0.85410
 C870 C 0.46350 0.16508 0.86943
 C871 C 0.50147 0.09804 0.83132
 C872 C 0.50122 0.08242 0.81724
 C873 C 0.50154 0.16895 0.90191
 C874 C 0.50130 0.18309 0.91747
 H875 H 0.54133 0.15095 0.91022
 H876 H 0.57402 0.12414 0.90641
 H877 H 0.57399 0.09363 0.87604
 H878 H 0.54128 0.08974 0.84930
 H879 H 0.46267 0.11752 0.82149
 H880 H 0.43008 0.14450 0.82514
 H881 H 0.43011 0.17502 0.85551
 H882 H 0.46273 0.17874 0.88243
 C883 C 1.00219 0.61587 0.34884
 C884 C 1.02142 0.61794 0.36421
 C885 C 1.02146 0.63553 0.38168
 C886 C 1.00225 0.65095 0.38369
 C887 C 0.98318 0.64911 0.36810
 C888 C 0.98314 0.63152 0.35062
 C889 C 0.96384 0.62996 0.33530
 C890 C 0.94510 0.64535 0.33718
 C891 C 0.94514 0.66256 0.35426
 C892 C 0.96391 0.66450 0.36959
 C893 C 1.04085 0.63718 0.39689
 C894 C 1.05966 0.62191 0.39490
 C895 C 1.05963 0.60471 0.37782
 C896 C 1.04078 0.60266 0.36261
 C897 C 1.00193 0.66834 0.40210
 C898 C 1.00169 0.68251 0.41763
 C899 C 1.00181 0.59737 0.33156
 C900 C 1.00155 0.58177 0.31746
 H901 H 0.96302 0.61688 0.32172
 H902 H 0.93048 0.64392 0.32531
 H903 H 0.93054 0.67447 0.35564
 H904 H 0.96315 0.67818 0.38258
 H905 H 1.04170 0.65029 0.41045
 H906 H 1.07435 0.62343 0.40668
 H907 H 1.07429 0.59288 0.37634
 H908 H 1.04157 0.58901 0.34960
 C909 C 1.11682 0.49934 0.15155
 C910 C 1.12491 0.52083 0.14246
 C911 C 1.14239 0.52104 0.12483
 C912 C 1.15170 0.49976 0.11643
 C913 C 1.14391 0.47829 0.12581
 C914 C 1.12641 0.47808 0.14342
 C915 C 1.11881 0.45640 0.15244
 C916 C 1.12825 0.43552 0.14433
 C917 C 1.14537 0.43573 0.12712
 C918 C 1.15317 0.45682 0.11790
 C919 C 1.15011 0.54273 0.11592
 C920 C 1.14084 0.56362 0.12420
 C921 C 1.12376 0.56341 0.14144
 C922 C 1.11581 0.54232 0.15053
 C923 C 1.16891 0.49995 0.09780
 C924 C 1.18296 0.50012 0.08212
 C925 C 1.09829 0.49910 0.16887
 C926 C 1.08269 0.49893 0.18301
 H927 H 1.10555 0.45534 0.16587
 H928 H 1.12225 0.41910 0.15143
 H929 H 1.15265 0.41947 0.12088
 H930 H 1.16654 0.45609 0.10456
 H931 H 1.16338 0.54379 0.10251
 H932 H 1.14695 0.58005 0.11720
 H933 H 1.11662 0.57969 0.14782
 H934 H 1.10252 0.54306 0.16394
 C935 C 0.65157 -0.00022 0.61660
 C936 C 0.64309 0.02108 0.62579
 C937 C 0.62558 0.02091 0.64339
 C938 C 0.61663 -0.00057 0.65167
 C939 C 0.62538 -0.02187 0.64275
 C940 C 0.64291 -0.02170 0.62517
 C941 C 0.65133 -0.04321 0.61647
 C942 C 0.64268 -0.06430 0.62490
 C943 C 0.62553 -0.06448 0.64207
 C944 C 0.61691 -0.04356 0.65096
 C945 C 0.61733 0.04242 0.65225
 C946 C 0.62612 0.06351 0.64397
 C947 C 0.64323 0.06368 0.62675
 C948 C 0.65168 0.04277 0.61770
 C949 C 0.59807 -0.00073 0.66896
 C950 C 0.58245 -0.00082 0.68307
 C951 C 0.66879 -0.00002 0.59798
 C952 C 0.68284 0.00014 0.58231
 H953 H 0.66468 -0.04398 0.60312
 H954 H 0.64932 -0.08060 0.61806
 H955 H 0.61886 -0.08091 0.64856
 H956 H 0.60359 -0.04459 0.66433
 H957 H 0.60405 0.04319 0.66568
 H958 H 0.61962 0.07981 0.65095
 H959 H 0.65000 0.08011 0.62037
 H960 H 0.66501 0.04380 0.60434
 C961 C -0.11658 0.49915 0.84833
 C962 C -0.12561 0.52061 0.85657
 C963 C -0.14311 0.52076 0.87417
 C964 C -0.15151 0.49945 0.88340
 C965 C -0.14278 0.47798 0.87487
 C966 C -0.12525 0.47783 0.85729
 C967 C -0.11670 0.45616 0.84912
 C968 C -0.12524 0.43523 0.85805
 C969 C -0.14238 0.43538 0.87523
 C970 C -0.15111 0.45646 0.88361
 C971 C -0.15178 0.54243 0.88223
 C972 C -0.14340 0.56336 0.87313
 C973 C -0.12630 0.56321 0.85592
 C974 C -0.11743 0.54213 0.84767
 C975 C -0.16872 0.49963 0.90203
 C976 C -0.18278 0.49979 0.91770
 C977 C -0.09802 0.49902 0.83104
 C978 C -0.08240 0.49896 0.81692
 H979 H -0.10337 0.45515 0.83576
 H980 H -0.11851 0.41881 0.85160
 H981 H -0.14896 0.41907 0.88210
 H982 H -0.16446 0.45567 0.89697
 H983 H -0.16511 0.54345 0.89558
 H984 H -0.15023 0.57978 0.87948
 H985 H -0.11985 0.57951 0.84891
 H986 H -0.10415 0.54292 0.83424
 C987 C 0.34869 -0.00076 0.38300
 C988 C 0.35722 0.02054 0.37386
 C989 C 0.37472 0.02036 0.35625
 C990 C 0.38360 -0.00112 0.34790
 C991 C 0.37480 -0.02242 0.35676
 C992 C 0.35728 -0.02224 0.37436
 C993 C 0.34882 -0.04376 0.38301
 C994 C 0.35741 -0.06485 0.37452
 C995 C 0.37454 -0.06503 0.35733
 C996 C 0.38321 -0.04411 0.34849
 C997 C 0.38303 0.04187 0.34745
 C998 C 0.37431 0.06296 0.35581
 C999 C 0.35721 0.06314 0.37303
 C1000 C 0.34871 0.04223 0.38203
 C1001 C 0.40214 -0.00129 0.33059
 C1002 C 0.41775 -0.00138 0.31646
 C1003 C 0.33148 -0.00056 0.40162
 C1004 C 0.31743 -0.00038 0.41730
 H1005 H 0.33547 -0.04452 0.39637
 H1006 H 0.35073 -0.08115 0.38132
 H1007 H 0.38116 -0.08146 0.35079
 H1008 H 0.39651 -0.04515 0.33511
 H1009 H 0.39630 0.04263 0.33402
 H1010 H 0.38085 0.07926 0.34887
 H1011 H 0.35049 0.07957 0.37947
 H1012 H 0.33539 0.04326 0.39540
 C1013 C 0.11667 0.50081 0.84837
 C1014 C 0.12544 0.52216 0.85716
 C1015 C 0.14291 0.52206 0.87477
 C1016 C 0.15148 0.50062 0.88350
 C1017 C 0.14300 0.47928 0.87443
 C1018 C 0.12555 0.47938 0.85680
 C1019 C 0.11729 0.45782 0.84806
 C1020 C 0.12601 0.43677 0.85650
 C1021 C 0.14305 0.43667 0.87374
 C1022 C 0.15151 0.45763 0.88267
 C1023 C 0.15134 0.54362 0.88334
 C1024 C 0.14277 0.56467 0.87476
 C1025 C 0.12568 0.56477 0.85755
 C1026 C 0.11705 0.54381 0.84879
 C1027 C 0.16862 0.50051 0.90215
 C1028 C 0.18260 0.50040 0.91786
 C1029 C 0.09817 0.50090 0.83107
 C1030 C 0.08258 0.50093 0.81694
 H1031 H 0.10406 0.45699 0.83462
 H1032 H 0.11950 0.42044 0.84961
 H1033 H 0.14977 0.42027 0.88023
 H1034 H 0.16479 0.45666 0.89605
 H1035 H 0.16465 0.54444 0.89670
 H1036 H 0.14942 0.58100 0.88150
 H1037 H 0.11908 0.58117 0.85095
 H1038 H 0.10378 0.54478 0.83540
 C1039 C 0.65175 0.00034 0.38277
 C1040 C 0.64308 0.02176 0.37409
 C1041 C 0.62558 0.02183 0.35652
 C1042 C 0.61688 0.00046 0.34771
 C1043 C 0.62584 -0.02096 0.35609
 C1044 C 0.64332 -0.02102 0.37368
 C1045 C 0.65192 -0.04265 0.38188
 C1046 C 0.64351 -0.06362 0.37294
 C1047 C 0.62643 -0.06356 0.35573
 C1048 C 0.61763 -0.04253 0.34734
 C1049 C 0.61709 0.04346 0.34821
 C1050 C 0.62566 0.06443 0.35700
 C1051 C 0.64278 0.06437 0.37417
 C1052 C 0.65145 0.04333 0.38269
 C1053 C 0.59835 0.00051 0.33043
 C1054 C 0.58275 0.00052 0.31633
 C1055 C 0.66893 0.00026 0.40139
 C1056 C 0.68295 0.00018 0.41706
 H1057 H 0.66523 -0.04360 0.39523
 H1058 H 0.65029 -0.08001 0.37940
 H1059 H 0.61996 -0.07990 0.34884
 H1060 H 0.60437 -0.04338 0.33393
 H1061 H 0.60379 0.04441 0.33485
 H1062 H 0.61898 0.08082 0.35044
 H1063 H 0.64939 0.08071 0.38093
 H1064 H 0.66478 0.04418 0.39603
 C1065 C 0.88341 0.50016 0.15208
 C1066 C 0.87459 0.52152 0.14337
 C1067 C 0.85705 0.52144 0.12585
 C1068 C 0.84843 0.50001 0.11712
 C1069 C 0.85697 0.47866 0.12610
 C1070 C 0.87450 0.47873 0.14364
 C1071 C 0.88282 0.45717 0.15228
 C1072 C 0.87408 0.43612 0.14384
 C1073 C 0.85695 0.43605 0.12667
 C1074 C 0.84843 0.45702 0.11784
 C1075 C 0.84857 0.54301 0.11735
 C1076 C 0.85719 0.56405 0.12593
 C1077 C 0.87436 0.56412 0.14305
 C1078 C 0.88303 0.54316 0.15173
 C1079 C 0.83121 0.49993 0.09854
 C1080 C 0.81715 0.49984 0.08290
 C1081 C 0.90198 0.50023 0.16930
 C1082 C 0.91763 0.50025 0.18336
 H1083 H 0.89611 0.45632 0.16566
 H1084 H 0.88063 0.41979 0.15065
 H1085 H 0.85022 0.41966 0.12017
 H1086 H 0.83509 0.45606 0.10452
 H1087 H 0.83520 0.54385 0.10405
 H1088 H 0.85050 0.58038 0.11924
 H1089 H 0.88099 0.58052 0.14965
 H1090 H 0.89636 0.54411 0.16506
 C1091 C 0.34831 0.00028 0.61680
 C1092 C 0.35685 0.02174 0.62554
 C1093 C 0.37437 0.02186 0.64310
 C1094 C 0.38322 0.00053 0.65182
 C1095 C 0.37439 -0.02092 0.64336
 C1096 C 0.35689 -0.02105 0.62579
 C1097 C 0.34842 -0.04271 0.61752
 C1098 C 0.35698 -0.06365 0.62638
 C1099 C 0.37408 -0.06353 0.64357
 C1100 C 0.38275 -0.04247 0.65203
 C1101 C 0.38272 0.04352 0.65148
 C1102 C 0.37401 0.06447 0.64278
 C1103 C 0.35687 0.06435 0.62563
 C1104 C 0.34833 0.04328 0.61704
 C1105 C 0.40177 0.00064 0.66908
 C1106 C 0.41739 0.00070 0.68316
 C1107 C 0.33112 0.00015 0.59819
 C1108 C 0.31709 0.00003 0.58252
 H1109 H 0.33510 -0.04370 0.60418
 H1110 H 0.35030 -0.08006 0.61987
 H1111 H 0.38066 -0.07985 0.65040
 H1112 H 0.39602 -0.04327 0.66542
 H1113 H 0.39603 0.04451 0.66484
 H1114 H 0.38059 0.08088 0.64940
 H1115 H 0.35015 0.08066 0.61894
 H1116 H 0.33498 0.04409 0.60371
   
