data_POSCAR
  _audit_creation_date              2014-09-24
  _audit_creation_method            'ToBaCCo'
  _symmetry_space_group_name_H-M    'P1'
  _symmetry_Int_Tables_number       1
  _symmetry_cell_setting            triclinic
  loop_
  _symmetry_equiv_pos_as_xyz
 x,y,z
_cell_length_a 38.9567
_cell_length_b 39.0927
_cell_length_c 38.9865
_cell_angle_alpha 98.108200
_cell_angle_beta 71.668300
_cell_angle_gamma 81.132000
loop_
  _atom_site_label
  _atom_site_type_symbol
  _atom_site_fract_x
  _atom_site_fract_y
  _atom_site_fract_z
C1 C 0.52222 0.48611 -0.00559
 C2 C 0.49444 0.51151 -0.00615
 C3 C 0.45912 0.50342 -0.00851
 C4 C 0.49768 0.54897 -0.00466
 C5 C 0.55729 0.49437 -0.00292
 C6 C 0.51910 0.44862 -0.00742
 C7 C 0.44780 0.51167 -0.03752
 C8 C 0.41399 0.50589 -0.03960
 C9 C 0.38964 0.49201 -0.01221
 C10 C 0.40203 0.48339 0.01678
 C11 C 0.43606 0.48917 0.01858
 C12 C 0.52528 0.55880 -0.03213
 C13 C 0.52594 0.59454 -0.03180
 C14 C 0.49885 0.62101 -0.00413
 C15 C 0.47173 0.61090 0.02368
 C16 C 0.47106 0.57528 0.02328
 C17 C 0.55797 0.51560 0.02895
 C18 C 0.59166 0.52141 0.03174
 C19 C 0.62505 0.50640 0.00252
 C20 C 0.62412 0.48553 -0.02947
 C21 C 0.59057 0.47929 -0.03200
 C22 C 0.52290 0.43184 0.02107
 C23 C 0.52036 0.39650 0.01981
 C24 C 0.51431 0.37712 -0.01019
 C25 C 0.51087 0.39390 -0.03893
 C26 C 0.51329 0.42936 -0.03758
 H27 H 0.46548 0.52237 -0.05897
 H28 H 0.40834 0.51123 -0.06392
 H29 H 0.38501 0.47413 0.03974
 H30 H 0.44400 0.48332 0.04171
 H31 H 0.54564 0.53888 -0.05434
 H32 H 0.54691 0.60149 -0.05384
 H33 H 0.44952 0.56817 0.04467
 H34 H 0.53252 0.52713 0.05179
 H35 H 0.59168 0.53768 0.05663
 H36 H 0.64948 0.47335 -0.05219
 H37 H 0.59052 0.46263 -0.05666
 H38 H 0.52767 0.44622 0.04442
 H39 H 0.52376 0.38413 0.04203
 H40 H 0.50606 0.37965 -0.06231
 H41 H 0.51081 0.44176 -0.06009
 H42 H 0.45088 0.63058 0.04574
 C43 C -0.00663 0.51459 0.52199
 C44 C -0.00787 0.48963 0.49464
 C45 C -0.00648 0.45215 0.49793
 C46 C -0.01056 0.49824 0.45959
 C47 C -0.00810 0.55204 0.51858
 C48 C -0.00350 0.50584 0.55679
 C49 C 0.02122 0.42573 0.47117
 C50 C 0.02151 0.39013 0.47191
 C51 C -0.00618 0.38014 0.49926
 C52 C -0.03359 0.40670 0.52652
 C53 C -0.03381 0.44243 0.52578
 C54 C 0.01775 0.51041 0.43536
 C55 C 0.01582 0.51604 0.40128
 C56 C -0.01447 0.50959 0.39088
 C57 C -0.04309 0.49814 0.41574
 C58 C -0.04098 0.49225 0.44956
 C59 C -0.03844 0.57207 0.51321
 C60 C -0.03956 0.60754 0.51074
 C61 C -0.01039 0.62357 0.51369
 C62 C 0.01984 0.60342 0.51921
 C63 C 0.02086 0.56806 0.52180
 C64 C -0.03230 0.52099 0.59019
 C65 C -0.02930 0.51427 0.62348
 C66 C 0.00290 0.49283 0.62399
 C67 C 0.03184 0.47775 0.59048
 C68 C 0.02857 0.48404 0.55705
 H69 H 0.04252 0.43274 0.44945
 H70 H 0.04339 0.37036 0.45094
 H71 H -0.05553 0.39986 0.54769
 H72 H -0.05583 0.46245 0.54629
 H73 H 0.04170 0.51469 0.44247
 H74 H 0.03858 0.52438 0.38263
 H75 H -0.06309 0.48289 0.46799
 H76 H -0.06132 0.56028 0.51120
 H77 H -0.06312 0.62239 0.50633
 H78 H 0.04240 0.61519 0.52222
 H79 H 0.04437 0.55308 0.52623
 H80 H -0.05710 0.53808 0.59044
 H81 H -0.05181 0.52650 0.64896
 H82 H 0.05688 0.46105 0.59019
 H83 H 0.05120 0.47245 0.53149
 H84 H -0.06716 0.49360 0.40902
 C85 C 0.51125 0.00184 0.48258
 C86 C 0.48247 -0.00173 0.51148
 C87 C 0.48541 -0.00321 0.54827
 C88 C 0.44632 -0.00454 0.50775
 C89 C 0.50741 0.00445 0.44640
 C90 C 0.54802 0.00355 0.48543
 C91 C 0.47682 -0.03196 0.56444
 C92 C 0.47861 -0.03366 0.59934
 C93 C 0.48880 -0.00636 0.61942
 C94 C 0.49750 0.02252 0.60264
 C95 C 0.49558 0.02412 0.56767
 C96 C 0.44289 -0.03365 0.48446
 C97 C 0.40823 -0.03671 0.48253
 C98 C 0.37664 -0.01054 0.50362
 C99 C 0.38031 0.01868 0.52666
 C100 C 0.41483 0.02148 0.52892
 C101 C 0.48377 0.03347 0.44258
 C102 C 0.48182 0.03640 0.40788
 C103 C 0.50323 0.01018 0.37663
 C104 C 0.52659 -0.01897 0.38069
 C105 C 0.52888 -0.02164 0.41525
 C106 C 0.56366 0.03245 0.47661
 C107 C 0.59847 0.03442 0.47848
 C108 C 0.61899 0.00726 0.48897
 C109 C 0.60276 -0.02180 0.49783
 C110 C 0.56787 -0.02367 0.49584
 H111 H 0.46913 -0.05346 0.54974
 H112 H 0.47319 -0.05726 0.60965
 H113 H 0.50412 0.04497 0.61690
 H114 H 0.50148 0.04699 0.55596
 H115 H 0.46695 -0.05416 0.46825
 H116 H 0.40608 -0.05940 0.46448
 H117 H 0.41705 0.04396 0.54721
 H118 H 0.46732 0.05402 0.46637
 H119 H 0.46352 0.05904 0.40543
 H120 H 0.54369 -0.03929 0.35695
 H121 H 0.54744 -0.04405 0.41776
 H122 H 0.54859 0.05385 0.46873
 H123 H 0.60835 0.05813 0.47291
 H124 H 0.61740 -0.04416 0.50466
 H125 H 0.55656 -0.04664 0.50193
 H126 H 0.35630 0.03896 0.54351
 O127 O 0.47610 0.00188 -0.04464
 O128 O 0.46949 0.00690 0.05202
 O129 O 0.46986 0.05253 0.00907
 O130 O 0.47690 -0.04378 -0.00215
 O131 O 0.53760 -0.05191 -0.01828
 O132 O 0.53068 0.04412 -0.00860
 O133 O 0.53017 -0.00031 0.03550
 O134 O 0.53692 -0.00700 -0.06181
 Cu135 Cu 0.46700 0.00520 0.00529
 Cu136 Cu 0.53994 -0.00463 -0.01494
 C137 C 0.50751 -0.00327 -0.06978
 C138 C 0.49865 0.00409 0.06035
 C139 C 0.49916 0.06477 0.00165
 C140 C 0.50845 -0.06433 -0.01190
 O141 O -0.05011 0.52897 1.01566
 O142 O 0.04816 0.52792 1.00056
 O143 O 0.00754 0.52731 0.95865
 O144 O -0.00896 0.52844 1.05746
 O145 O 0.00380 0.47014 1.04553
 O146 O 0.01887 0.46902 0.94741
 O147 O 0.06067 0.46962 0.98856
 O148 O -0.03823 0.47068 1.00499
 Cu149 Cu -0.00210 0.53398 1.00925
 Cu150 Cu 0.01249 0.46404 0.99542
 C151 C -0.06102 0.50005 1.01276
 C152 C 0.07123 0.49870 0.99224
 C153 C 0.01565 0.49792 0.93620
 C154 C -0.00487 0.49936 1.06829
 O155 O 0.00896 -0.05135 0.47017
 O156 O -0.00286 0.04507 0.47742
 O157 O 0.05175 -0.00604 0.46978
 O158 O -0.04516 -0.00028 0.47665
 O159 O -0.06220 0.00791 0.53729
 O160 O 0.03537 0.00049 0.53027
 O161 O -0.01884 0.05250 0.53793
 O162 O -0.00855 -0.04364 0.53080
 Cu163 Cu 0.00487 -0.00390 0.46743
 Cu164 Cu -0.01518 0.00510 0.54016
 C165 C 0.00172 -0.06395 0.49935
 C166 C -0.01265 0.06528 0.50890
 C167 C 0.06019 -0.00370 0.49880
 C168 C -0.07027 0.00464 0.50801
 C169 C -0.31274 0.52089 0.97621
 C170 C -0.27815 0.52425 0.97813
 C171 C -0.26882 0.51771 1.00890
 C172 C -0.29537 0.50914 1.03852
 C173 C -0.33022 0.50632 1.03684
 C174 C -0.33902 0.51167 1.00544
 C175 C -0.23143 0.52045 1.00930
 C176 C -0.21332 0.50034 1.02597
 C177 C -0.17477 0.50120 1.02373
 C178 C -0.15147 0.47021 1.02419
 C179 C -0.11458 0.46981 1.02086
 C180 C -0.10044 0.50065 1.01774
 C181 C -0.12414 0.53198 1.01848
 C182 C -0.16088 0.53225 1.02136
 H183 H -0.31900 0.52551 0.95188
 H184 H -0.25831 0.53125 0.95515
 H185 H -0.28938 0.50484 1.06305
 H186 H -0.35002 0.49915 1.05972
 H187 H -0.21732 0.53750 0.99277
 H188 H -0.22592 0.48059 1.03921
 H189 H -0.16164 0.44604 1.02635
 H190 H -0.09710 0.44532 1.02063
 H191 H -0.11416 0.55623 1.01631
 H192 H -0.17840 0.55685 1.02199
 C193 C 0.33543 0.46560 1.00716
 C194 C 0.30040 0.46216 1.00652
 C195 C 0.28380 0.48072 0.98567
 C196 C 0.30362 0.50193 0.96428
 C197 C 0.33859 0.50551 0.96480
 C198 C 0.35558 0.48771 0.98655
 C199 C 0.24614 0.47705 0.98655
 C200 C 0.22290 0.50197 0.97952
 C201 C 0.18450 0.49980 0.98204
 C202 C 0.15908 0.53128 0.98700
 C203 C 0.12251 0.53083 0.98992
 C204 C 0.11048 0.49876 0.98757
 C205 C 0.13609 0.46708 0.98173
 C206 C 0.17275 0.46755 0.97893
 H207 H 0.34676 0.44939 1.02288
 H208 H 0.28607 0.44495 1.02266
 H209 H 0.29234 0.51595 0.94692
 H210 H 0.35078 0.52401 0.94927
 H211 H 0.23668 0.45416 0.99562
 H212 H 0.23128 0.52632 0.97390
 H213 H 0.16743 0.55645 0.98912
 H214 H 0.10358 0.55572 0.99425
 H215 H 0.12776 0.44192 0.97957
 H216 H 0.19174 0.44261 0.97395
 C217 C -0.04453 -0.31318 0.53077
 C218 C -0.04524 -0.27733 0.53075
 C219 C -0.01335 -0.26613 0.51157
 C220 C 0.01946 -0.29161 0.49242
 C221 C 0.02020 -0.32744 0.49258
 C222 C -0.01172 -0.33859 0.51194
 C223 C -0.01488 -0.22771 0.51396
 C224 C 0.00854 -0.21414 0.48895
 C225 C 0.00692 -0.17565 0.49228
 C226 C 0.01947 -0.16208 0.46018
 C227 C 0.01806 -0.12584 0.46238
 C228 C 0.00454 -0.10249 0.49684
 C229 C -0.00710 -0.11624 0.52902
 C230 C -0.00590 -0.15240 0.52680
 H231 H -0.06942 -0.32092 0.54638
 H232 H -0.07076 -0.25823 0.54602
 H233 H 0.04489 -0.28403 0.47813
 H234 H 0.04584 -0.34647 0.47767
 H235 H -0.03712 -0.20999 0.53664
 H236 H 0.02847 -0.23144 0.46426
 H237 H 0.02990 -0.17952 0.43330
 H238 H 0.02742 -0.11611 0.43709
 H239 H -0.01741 -0.09901 0.55601
 H240 H -0.01457 -0.16205 0.55219
 C241 C 0.00177 0.31869 0.46467
 C242 C 0.00181 0.28285 0.46352
 C243 C -0.00719 0.26954 0.49608
 C244 C -0.01599 0.29298 0.53004
 C245 C -0.01594 0.32894 0.53117
 C246 C -0.00691 0.34215 0.49846
 C247 C -0.00561 0.23103 0.49294
 C248 C -0.02325 0.21620 0.52057
 C249 C -0.02106 0.17752 0.51674
 C250 C -0.02778 0.16298 0.54854
 C251 C -0.02535 0.12660 0.54609
 C252 C -0.01640 0.10396 0.51173
 C253 C -0.01059 0.11860 0.47999
 C254 C -0.01305 0.15496 0.48243
 H255 H 0.00827 0.32809 0.43901
 H256 H 0.00876 0.26543 0.43701
 H257 H -0.02199 0.28371 0.55570
 H258 H -0.02217 0.34626 0.55757
 H259 H 0.01075 0.21443 0.46634
 H260 H -0.03937 0.23260 0.54734
 H261 H -0.03441 0.17977 0.57533
 H262 H -0.03018 0.11620 0.57112
 H263 H -0.00411 0.10195 0.45316
 H264 H -0.00914 0.16516 0.45741
 C265 C 0.46790 -0.02732 -0.32210
 C266 C 0.46842 -0.02840 -0.28665
 C267 C 0.49091 -0.01035 -0.27243
 C268 C 0.51271 0.00933 -0.29436
 C269 C 0.51219 0.01056 -0.32987
 C270 C 0.48977 -0.00778 -0.34461
 C271 C 0.48927 -0.01139 -0.23411
 C272 C 0.51579 -0.00434 -0.22077
 C273 C 0.51303 -0.00481 -0.18204
 C274 C 0.54557 -0.01039 -0.17342
 C275 C 0.54393 -0.01032 -0.13705
 C276 C 0.50962 -0.00439 -0.10849
 C277 C 0.47705 0.00149 -0.11709
 C278 C 0.47869 0.00147 -0.15336
 H279 H 0.44882 -0.04067 -0.33079
 H280 H 0.45082 -0.04326 -0.27009
 H281 H 0.52981 0.02434 -0.28413
 H282 H 0.53045 0.02516 -0.34590
 H283 H 0.46567 -0.01967 -0.21672
 H284 H 0.54113 0.00058 -0.23895
 H285 H 0.57235 -0.01491 -0.19492
 H286 H 0.56952 -0.01472 -0.13129
 H287 H 0.45015 0.00659 -0.09568
 H288 H 0.45292 0.00721 -0.15855
 C289 C 0.50508 0.04526 0.32731
 C290 C 0.50594 0.04769 0.29163
 C291 C 0.50292 0.01863 0.26798
 C292 C 0.49951 -0.01314 0.28048
 C293 C 0.49915 -0.01570 0.31595
 C294 C 0.50200 0.01344 0.33966
 C295 C 0.50525 0.02158 0.22994
 C296 C 0.48765 0.00364 0.21151
 C297 C 0.49063 0.00560 0.17311
 C298 C 0.46078 0.00068 0.16158
 C299 C 0.46314 0.00095 0.12514
 C300 C 0.49578 0.00539 0.09925
 C301 C 0.52580 0.01010 0.11072
 C302 C 0.52323 0.01035 0.14735
 H303 H 0.50780 0.06795 0.34493
 H304 H 0.50896 0.07230 0.28245
 H305 H 0.49812 -0.03633 0.26260
 H306 H 0.49675 -0.04051 0.32487
 H307 H 0.52069 0.04011 0.21744
 H308 H 0.46912 -0.01202 0.22543
 H309 H 0.43553 -0.00336 0.18087
 H310 H 0.43964 -0.00303 0.11706
 H311 H 0.55135 0.01344 0.09134
 H312 H 0.54710 0.01327 0.15515
 C313 C 0.46402 -0.31709 0.00441
 C314 C 0.46284 -0.28123 0.00443
 C315 C 0.49551 -0.26830 -0.00505
 C316 C 0.52961 -0.29212 -0.01425
 C317 C 0.53078 -0.32808 -0.01419
 C318 C 0.49797 -0.34094 -0.00473
 C319 C 0.49237 -0.22977 -0.00360
 C320 C 0.51995 -0.21516 -0.02160
 C321 C 0.51613 -0.17648 -0.01958
 C322 C 0.54809 -0.16235 -0.02680
 C323 C 0.54568 -0.12600 -0.02459
 C324 C 0.51121 -0.10297 -0.01539
 C325 C 0.47930 -0.11719 -0.00907
 C326 C 0.48170 -0.15352 -0.01130
 H327 H 0.43828 -0.32620 0.01126
 H328 H 0.43622 -0.26351 0.01171
 H329 H 0.55537 -0.28315 -0.02062
 H330 H 0.55730 -0.34571 -0.02077
 H331 H 0.46579 -0.21297 0.01297
 H332 H 0.54669 -0.23176 -0.03794
 H333 H 0.57498 -0.17945 -0.03364
 H334 H 0.57084 -0.11593 -0.02981
 H335 H 0.45237 -0.10023 -0.00237
 H336 H 0.45654 -0.16339 -0.00698
 C337 C 0.53089 0.31425 -0.04457
 C338 C 0.53074 0.27841 -0.04543
 C339 C 0.51179 0.26692 -0.01359
 C340 C 0.49300 0.29209 0.01931
 C341 C 0.49330 0.32791 0.02019
 C342 C 0.51243 0.33935 -0.01167
 C343 C 0.51406 0.22848 -0.01528
 C344 C 0.48907 0.21495 0.00818
 C345 C 0.49232 0.17643 0.00652
 C346 C 0.46011 0.16323 0.01933
 C347 C 0.46223 0.12699 0.01799
 C348 C 0.49674 0.10328 0.00429
 C349 C 0.52904 0.11664 -0.00765
 C350 C 0.52689 0.15280 -0.00653
 H351 H 0.54630 0.32221 -0.06942
 H352 H 0.54573 0.25954 -0.07102
 H353 H 0.47892 0.28425 0.04468
 H354 H 0.47868 0.34669 0.04591
 H355 H 0.53664 0.21076 -0.03763
 H356 H 0.46445 0.23234 0.02825
 H357 H 0.43318 0.18096 0.02993
 H358 H 0.43684 0.11756 0.02758
 H359 H 0.55607 0.09912 -0.01811
 H360 H 0.55238 0.16215 -0.01542
 C361 C -0.32298 0.02873 0.46818
 C362 C -0.28763 0.03009 0.46885
 C363 C -0.27319 0.01213 0.49154
 C364 C -0.29478 -0.00773 0.51340
 C365 C -0.33020 -0.00923 0.51275
 C366 C -0.34516 0.00899 0.49010
 C367 C -0.23493 0.01338 0.49000
 C368 C -0.22147 0.00623 0.51652
 C369 C -0.18272 0.00667 0.51372
 C370 C -0.17407 0.01203 0.54614
 C371 C -0.13764 0.01183 0.54444
 C372 C -0.10907 0.00598 0.51019
 C373 C -0.11770 0.00036 0.47774
 C374 C -0.15402 0.00049 0.47943
 H375 H -0.33184 0.04201 0.44894
 H376 H -0.27130 0.04507 0.45120
 H377 H -0.28436 -0.02269 0.53066
 H378 H -0.34600 -0.02395 0.53107
 H379 H -0.21767 0.02181 0.46641
 H380 H -0.23957 0.00117 0.54183
 H381 H -0.19560 0.01647 0.57287
 H382 H -0.13185 0.01604 0.56994
 H383 H -0.09626 -0.00469 0.45089
 H384 H -0.15921 -0.00510 0.45376
 C385 C 0.32775 -0.04571 0.50566
 C386 C 0.29211 -0.04819 0.50642
 C387 C 0.26818 -0.01916 0.50304
 C388 C 0.28033 0.01264 0.49937
 C389 C 0.31575 0.01524 0.49909
 C390 C 0.33975 -0.01387 0.50231
 C391 C 0.23019 -0.02213 0.50529
 C392 C 0.21164 -0.00417 0.48749
 C393 C 0.17321 -0.00597 0.49052
 C394 C 0.16158 -0.00085 0.46072
 C395 C 0.12505 -0.00088 0.46316
 C396 C 0.09919 -0.00530 0.49583
 C397 C 0.11076 -0.01025 0.52579
 C398 C 0.14747 -0.01072 0.52315
 H399 H 0.34561 -0.06838 0.50866
 H400 H 0.28319 -0.07282 0.50965
 H401 H 0.26221 0.03581 0.49771
 H402 H 0.32440 0.04007 0.49648
 H403 H 0.21782 -0.04064 0.52090
 H404 H 0.22547 0.01146 0.46882
 H405 H 0.18085 0.00320 0.43546
 H406 H 0.11690 0.00327 0.43970
 H407 H 0.09140 -0.01358 0.55135
 H408 H 0.15533 -0.01379 0.54699
 C409 C -0.00250 0.54080 1.33727
 C410 C -0.00304 0.54372 1.30206
 C411 C -0.01657 0.51933 1.28247
 C412 C -0.03061 0.49248 1.29942
 C413 C -0.02985 0.48945 1.33444
 C414 C -0.01568 0.51346 1.35380
 C415 C -0.01595 0.52295 1.24482
 C416 C -0.01686 0.49608 1.21974
 C417 C -0.01475 0.49838 1.18144
 C418 C -0.00605 0.46673 1.15552
 C419 C -0.00332 0.46712 1.11902
 C420 C -0.00941 0.49927 1.10747
 C421 C -0.01886 0.53105 1.13349
 C422 C -0.02165 0.53067 1.17014
 H423 H 0.00799 0.56013 1.35165
 H424 H 0.00749 0.56494 1.28992
 H425 H -0.04254 0.47384 1.28606
 H426 H -0.03995 0.46787 1.34613
 H427 H -0.01250 0.54807 1.23720
 H428 H -0.01712 0.47025 1.22660
 H429 H -0.00091 0.44147 1.16343
 H430 H 0.00393 0.44212 1.09976
 H431 H -0.02398 0.55626 1.12552
 H432 H -0.02954 0.55568 1.18936
 C433 C -0.02269 0.47801 0.68620
 C434 C -0.02030 0.47433 0.72056
 C435 C 0.01078 0.48044 0.72935
 C436 C 0.04026 0.48885 0.70249
 C437 C 0.03810 0.49198 0.66787
 C438 C 0.00637 0.48710 0.65962
 C439 C 0.01163 0.47755 0.76656
 C440 C 0.02841 0.49755 0.78419
 C441 C 0.02643 0.49669 0.82263
 C442 C 0.02666 0.52769 0.84553
 C443 C 0.02342 0.52811 0.88236
 C444 C 0.02063 0.49728 0.89683
 C445 C 0.02167 0.46593 0.87351
 C446 C 0.02445 0.46563 0.83682
 H447 H -0.04728 0.47376 0.68035
 H448 H -0.04317 0.46747 0.74066
 H449 H 0.06502 0.49282 0.70809
 H450 H 0.06085 0.49905 0.64783
 H451 H -0.00473 0.46057 0.78097
 H452 H 0.04144 0.51725 0.77129
 H453 H 0.02852 0.55185 0.83511
 H454 H 0.02296 0.55261 0.89955
 H455 H 0.01977 0.44169 0.88375
 H456 H 0.02528 0.44103 0.81961
   
