data_POSCAR
  _audit_creation_date              2014-09-24
  _audit_creation_method            'ToBaCCo'
  _symmetry_space_group_name_H-M    'P1'
  _symmetry_Int_Tables_number       1
  _symmetry_cell_setting            triclinic
  loop_
  _symmetry_equiv_pos_as_xyz
 x,y,z
_cell_length_a 26.9559
_cell_length_b 26.8400
_cell_length_c 43.8140
_cell_angle_alpha 91.914000
_cell_angle_beta 78.886500
_cell_angle_gamma 82.044800
loop_
  _atom_site_label
  _atom_site_type_symbol
  _atom_site_fract_x
  _atom_site_fract_y
  _atom_site_fract_z
C1 C -0.03676 0.35718 0.98613
 C2 C -0.01164 0.34923 1.01025
 C3 C 0.00851 0.39295 1.01539
 N4 N -0.00375 0.42744 0.99524
 C5 C -0.03144 0.40554 0.97736
 C6 C 0.03873 0.39956 1.03795
 C7 C 0.04938 0.44743 1.04748
 C8 C 0.08574 0.45453 1.06506
 C9 C 0.08396 0.50554 1.06985
 C10 C 0.04732 0.52888 1.05449
 N11 N 0.02584 0.49294 1.04137
 C12 C 0.03227 0.58203 1.05492
 C13 C 0.00022 0.60507 1.03548
 C14 C -0.01651 0.65654 1.03570
 C15 C -0.04123 0.66372 1.01132
 C16 C -0.03835 0.61675 0.99657
 N17 N -0.01287 0.58106 1.01123
 C18 C -0.05557 0.60835 0.96862
 C19 C -0.05397 0.56014 0.95422
 C20 C -0.06120 0.55148 0.92409
 C21 C -0.05938 0.50035 0.91935
 C22 C -0.05119 0.47922 0.94672
 N23 N -0.04814 0.51591 0.96789
 C24 C -0.04992 0.42759 0.95215
 H25 H -0.05691 0.33046 0.97632
 H26 H -0.00895 0.31522 1.02280
 H27 H -0.04811 0.51155 0.99135
 H28 H 0.11101 0.42594 1.07371
 H29 H 0.10688 0.52302 1.08357
 H30 H -0.01030 0.68648 1.05099
 H31 H -0.05802 0.69971 1.00466
 H32 H -0.06398 0.48099 0.89823
 H33 H -0.00626 0.49891 1.03142
 H34 H -0.06746 0.57915 0.90729
 C35 C 0.37733 -0.05010 0.46804
 C36 C 0.36392 -0.05779 0.49919
 C37 C 0.39871 -0.03759 0.51360
 N38 N 0.43231 -0.01718 0.49252
 C39 C 0.41951 -0.02496 0.46460
 C40 C 0.39725 -0.03522 0.54592
 C41 C 0.43697 -0.02051 0.55933
 C42 C 0.43224 -0.00670 0.59062
 C43 C 0.48001 0.00036 0.59486
 C44 C 0.51294 -0.01028 0.56613
 N45 N 0.48619 -0.02236 0.54449
 C46 C 0.56676 -0.01121 0.56084
 C47 C 0.59529 -0.00569 0.53061
 C48 C 0.64822 -0.01474 0.52164
 C49 C 0.65992 -0.00256 0.49122
 C50 C 0.61384 0.01184 0.48221
 N51 N 0.57438 0.01017 0.50626
 C52 C 0.60900 0.02827 0.45255
 C53 C 0.56340 0.03044 0.44101
 C54 C 0.55547 0.05206 0.41372
 C55 C 0.50892 0.04147 0.40896
 C56 C 0.48971 0.01382 0.43354
 N57 N 0.52318 0.00724 0.45293
 C58 C 0.44398 -0.00738 0.43640
 H59 H 0.35799 -0.06145 0.45006
 H60 H 0.33216 -0.07602 0.50999
 H61 H 0.52173 -0.01694 0.47100
 H62 H 0.39799 -0.00258 0.60862
 H63 H 0.48950 0.01154 0.61674
 H64 H 0.67580 -0.02921 0.53530
 H65 H 0.69796 -0.00510 0.47712
 H66 H 0.49151 0.05231 0.38942
 H67 H 0.50174 -0.03721 0.52188
 H68 H 0.58110 0.07228 0.39840
 C69 C 0.18383 0.00163 0.24344
 H70 H 0.18924 0.00064 0.21830
 C71 C 0.22607 -0.00120 0.25774
 H72 H 0.26388 -0.00370 0.24335
 C73 C 0.12762 0.00699 0.29257
 H74 H 0.08923 0.01020 0.30609
 C75 C 0.16880 0.00383 0.30783
 H76 H 0.16141 0.00370 0.33300
 N77 N 0.13586 0.00484 0.26091
 C78 C 0.04398 -0.06714 0.20589
 H79 H 0.01224 -0.03733 0.20669
 C80 C 0.04586 -0.11268 0.18902
 H81 H 0.01563 -0.11726 0.17657
 C82 C 0.12302 -0.09611 0.22005
 H83 H 0.15301 -0.08960 0.23219
 C84 C 0.12629 -0.14232 0.20363
 H85 H 0.15880 -0.17101 0.20350
 Zn86 Zn 0.08103 0.00555 0.23956
 N87 N 0.08302 -0.05913 0.22013
 C88 C 0.08991 0.03967 0.17862
 N89 N 0.08836 0.05386 0.20891
 C90 C 0.09355 0.10178 0.21747
 C91 C 0.09947 0.13785 0.19522
 C92 C 0.09534 0.07444 0.15575
 C93 C 0.00336 -0.01336 0.28813
 C94 C -0.04310 -0.00386 0.30941
 C95 C -0.06008 0.07706 0.28796
 C96 C -0.01339 0.06590 0.26697
 N97 N 0.01755 0.02158 0.26771
 H98 H 0.08690 0.00134 0.17197
 H99 H 0.09314 0.11193 0.24163
 H100 H 0.10390 0.17567 0.20246
 H101 H 0.09489 0.06236 0.13200
 H102 H 0.02843 -0.04856 0.28796
 H103 H -0.05329 -0.03174 0.32588
 H104 H -0.08427 0.11250 0.28703
 H105 H -0.00202 0.09273 0.25015
 C106 C 0.08799 -0.15067 0.18720
 C107 C 0.21895 -0.00089 0.29039
 C108 C -0.07535 0.04200 0.30961
 C109 C 0.10032 0.12434 0.16383
 C110 C -0.11447 0.10545 0.77461
 H111 H -0.13642 0.10153 0.75669
 C112 C -0.11945 0.15179 0.79127
 H113 H -0.14496 0.18346 0.78570
 C114 C -0.05397 0.06902 0.80324
 H115 H -0.02890 0.03630 0.80789
 C116 C -0.05805 0.11445 0.82059
 H117 H -0.03630 0.11607 0.83886
 N118 N -0.08220 0.06530 0.78092
 C119 C -0.00439 -0.05576 0.71236
 H120 H -0.03311 -0.08050 0.71379
 C121 C 0.04203 -0.06822 0.69130
 H122 H 0.04872 -0.10261 0.67653
 C123 C 0.02110 0.01972 0.72937
 H124 H 0.01280 0.05400 0.74423
 C125 C 0.06798 0.00883 0.70851
 H126 H 0.09566 0.03462 0.70784
 Zn127 Zn -0.07716 0.00175 0.75990
 N128 N -0.01375 -0.01276 0.73118
 C129 C -0.12228 0.00224 0.70648
 N130 N -0.13173 0.00155 0.73812
 C131 C -0.17962 -0.00062 0.75448
 C132 C -0.21968 -0.00465 0.73901
 C133 C -0.16138 -0.00137 0.69006
 C134 C -0.04925 -0.09132 0.78667
 C135 C -0.05454 -0.12710 0.80906
 C136 C -0.12558 -0.07060 0.83955
 C137 C -0.11890 -0.03591 0.81662
 N138 N -0.08195 -0.04712 0.79044
 H139 H -0.08428 0.00506 0.69385
 H140 H -0.18680 -0.00013 0.77956
 H141 H -0.25735 -0.00709 0.75245
 H142 H -0.15281 -0.00222 0.66485
 H143 H -0.01921 -0.09932 0.76626
 H144 H -0.02903 -0.16260 0.80517
 H145 H -0.15528 -0.06088 0.86016
 H146 H -0.14309 0.00027 0.81985
 C147 C 0.07906 -0.03586 0.68932
 C148 C -0.09131 0.15665 0.81482
 C149 C -0.09353 -0.11719 0.83576
 C150 C -0.21061 -0.00582 0.70636
 C151 C 0.04414 -0.32049 0.11427
 C152 C 0.09581 -0.31886 0.10676
 C153 C 0.12849 -0.34992 0.08309
 C154 C 0.10696 -0.38377 0.06630
 C155 C 0.05366 -0.38621 0.07351
 C156 C 0.02200 -0.35423 0.09813
 O157 O 0.01949 -0.28604 0.13646
 C158 C 0.05639 -0.26205 0.14304
 C159 C 0.10381 -0.28078 0.12559
 C160 C 0.14750 -0.25999 0.12786
 C161 C 0.14203 -0.21792 0.14877
 C162 C 0.09341 -0.19739 0.16689
 C163 C 0.05008 -0.22035 0.16405
 H164 H 0.16891 -0.34737 0.07727
 H165 H 0.13150 -0.40718 0.04712
 H166 H -0.01883 -0.35486 0.10399
 H167 H 0.18432 -0.27499 0.11358
 H168 H 0.17548 -0.20042 0.15006
 H169 H 0.01244 -0.20583 0.17745
 C170 C 0.06933 0.30505 0.09429
 C171 C 0.09891 0.26721 0.07415
 C172 C 0.11082 0.27126 0.04212
 C173 C 0.09104 0.31600 0.03031
 C174 C 0.06063 0.35600 0.05055
 C175 C 0.05048 0.35054 0.08316
 O176 O 0.05905 0.29188 0.12354
 C177 C 0.08281 0.24478 0.12180
 C178 C 0.10813 0.22812 0.09213
 C179 C 0.13393 0.17945 0.08474
 C180 C 0.13292 0.14625 0.10881
 C181 C 0.10552 0.16173 0.13952
 C182 C 0.08089 0.21223 0.14608
 H183 H 0.13339 0.24057 0.02669
 H184 H 0.09931 0.31962 0.00535
 H185 H 0.02631 0.37971 0.09912
 H186 H 0.15357 0.16723 0.06119
 H187 H 0.15300 0.10825 0.10336
 H188 H 0.05885 0.22522 0.16899
 C189 C 0.26805 -0.02546 0.59920
 C190 C 0.26881 -0.07436 0.60783
 C191 C 0.30991 -0.11211 0.59681
 C192 C 0.35200 -0.09880 0.57616
 C193 C 0.35187 -0.04872 0.56696
 C194 C 0.30928 -0.01156 0.57850
 O195 O 0.22589 0.00485 0.61287
 C196 C 0.19943 -0.02555 0.63050
 C197 C 0.22389 -0.07442 0.62819
 C198 C 0.20310 -0.11236 0.64484
 C199 C 0.15516 -0.09936 0.66472
 C200 C 0.12921 -0.04909 0.66771
 C201 C 0.15190 -0.01175 0.65022
 H202 H 0.30979 -0.15023 0.60409
 H203 H 0.38480 -0.12720 0.56741
 H204 H 0.30878 0.02700 0.57190
 H205 H 0.22316 -0.15052 0.64273
 H206 H 0.13870 -0.12825 0.67821
 H207 H 0.13300 0.02683 0.65177
 C208 C -0.34524 0.00306 0.61584
 C209 C -0.35837 -0.03288 0.63627
 C210 C -0.39591 -0.06228 0.63333
 C211 C -0.42073 -0.05457 0.60816
 C212 C -0.40806 -0.01769 0.58644
 C213 C -0.36984 0.01185 0.59088
 O214 O -0.30771 0.02614 0.62238
 C215 C -0.29685 0.00415 0.64747
 C216 C -0.32692 -0.03208 0.65700
 C217 C -0.32168 -0.06013 0.68259
 C218 C -0.28372 -0.05062 0.69895
 C219 C -0.25177 -0.01377 0.68944
 C220 C -0.25870 0.01406 0.66330
 H221 H -0.40525 -0.09070 0.64956
 H222 H -0.44891 -0.07844 0.60511
 H223 H -0.35985 0.04131 0.57557
 H224 H -0.34563 -0.08864 0.68954
 H225 H -0.27845 -0.07275 0.71860
 H226 H -0.23513 0.04254 0.65553
 C227 C -0.05944 -0.28068 0.91811
 C228 C -0.11137 -0.26753 0.92080
 C229 C -0.14690 -0.29271 0.93913
 C230 C -0.12806 -0.33325 0.95519
 C231 C -0.07476 -0.34734 0.95269
 C232 C -0.03995 -0.32057 0.93403
 O233 O -0.03222 -0.25292 0.89884
 C234 C -0.06769 -0.22158 0.88913
 C235 C -0.11672 -0.22883 0.90191
 C236 C -0.15958 -0.20063 0.89448
 C237 C -0.15156 -0.16356 0.87294
 C238 C -0.10129 -0.15548 0.85923
 C239 C -0.05883 -0.18501 0.86766
 H240 H -0.18755 -0.28196 0.94069
 H241 H -0.15471 -0.35401 0.96932
 H242 H 0.00092 -0.33123 0.93159
 H243 H -0.19781 -0.20725 0.90468
 H244 H -0.18450 -0.14192 0.86644
 H245 H -0.02001 -0.17968 0.85786
 C246 C -0.05384 0.32301 0.89322
 C247 C -0.10475 0.33079 0.89152
 C248 C -0.13934 0.37014 0.90832
 C249 C -0.12070 0.40249 0.92784
 C250 C -0.06848 0.39477 0.93017
 C251 C -0.03454 0.35472 0.91237
 O252 O -0.02770 0.28267 0.87616
 C253 C -0.06286 0.26443 0.86348
 C254 C -0.11062 0.29243 0.87208
 C255 C -0.15327 0.27896 0.86224
 C256 C -0.14644 0.23466 0.84296
 C257 C -0.09752 0.20484 0.83387
 C258 C -0.05513 0.22057 0.84419
 H259 H -0.17930 0.37534 0.90679
 H260 H -0.14687 0.43299 0.94154
 H261 H 0.00541 0.34799 0.91394
 H262 H -0.19063 0.30126 0.86959
 H263 H -0.17958 0.22296 0.83587
 H264 H -0.01719 0.19915 0.83762
 C265 C -0.26977 0.02459 0.39239
 C266 C -0.25939 0.07283 0.39671
 C267 C -0.29067 0.10826 0.41855
 C268 C -0.33431 0.09324 0.43673
 C269 C -0.34569 0.04382 0.43253
 C270 C -0.31316 0.00907 0.40999
 O271 O -0.23454 -0.00359 0.37103
 C272 C -0.20121 0.02751 0.36164
 C273 C -0.21469 0.07477 0.37652
 C274 C -0.18493 0.11303 0.37036
 C275 C -0.13934 0.10206 0.34801
 C276 C -0.12431 0.05341 0.33251
 C277 C -0.15600 0.01573 0.33949
 H278 H -0.28153 0.14587 0.42171
 H279 H -0.35915 0.11977 0.45415
 H280 H -0.32107 -0.02901 0.40670
 H281 H -0.19623 0.14989 0.38244
 H282 H -0.11528 0.13114 0.34323
 H283 H -0.14587 -0.02162 0.32794
 C284 C 0.35116 0.00833 0.38159
 C285 C 0.37759 -0.02347 0.35672
 C286 C 0.42595 -0.04999 0.35615
 C287 C 0.44776 -0.04373 0.38239
 C288 C 0.42099 -0.01157 0.40841
 C289 C 0.37217 0.01517 0.40787
 O290 O 0.30527 0.02898 0.37778
 C291 C 0.30258 0.00966 0.34995
 C292 C 0.34581 -0.02262 0.33609
 C293 C 0.35047 -0.04813 0.30732
 C294 C 0.30878 -0.04023 0.29228
 C295 C 0.26352 -0.00713 0.30607
 C296 C 0.26084 0.01837 0.33534
 H297 H 0.44589 -0.07501 0.33639
 H298 H 0.48510 -0.06439 0.38276
 H299 H 0.35101 0.03979 0.42754
 H300 H 0.38466 -0.07383 0.29703
 H301 H 0.31139 -0.06097 0.27028
 H302 H 0.22723 0.04411 0.34654
   
