data_POSCAR
  _audit_creation_date              2014-09-24
  _audit_creation_method            'ToBaCCo'
  _symmetry_space_group_name_H-M    'P1'
  _symmetry_Int_Tables_number       1
  _symmetry_cell_setting            triclinic
  loop_
  _symmetry_equiv_pos_as_xyz
 x,y,z
_cell_length_a 42.0526
_cell_length_b 42.0337
_cell_length_c 42.1192
_cell_angle_alpha 90.024700
_cell_angle_beta 90.005800
_cell_angle_gamma 90.007900
loop_
  _atom_site_label
  _atom_site_type_symbol
  _atom_site_fract_x
  _atom_site_fract_y
  _atom_site_fract_z
O1 O 0.34795 0.39263 0.02929
 O2 O 0.39178 0.34927 -0.03286
 O3 O 0.34766 0.39298 -0.03258
 O4 O 0.39179 0.34878 0.02902
 O5 O 0.35464 0.31155 0.02877
 O6 O 0.31063 0.35563 -0.03268
 O7 O 0.35464 0.31201 -0.03298
 O8 O 0.31089 0.35529 0.02907
 Cu9 Cu 0.37355 0.37468 -0.00179
 Cu10 Cu 0.32897 0.32987 -0.00200
 C11 C 0.32200 0.38126 0.03964
 C12 C 0.38063 0.32326 -0.04332
 C13 C 0.32162 0.38178 -0.04295
 C14 C 0.38063 0.32268 0.03928
 O15 O 0.60859 0.65156 -0.03094
 O16 O 0.65272 0.60819 0.03088
 O17 O 0.60886 0.65204 0.03079
 O18 O 0.65270 0.60774 -0.03087
 O19 O 0.68977 0.64504 -0.03121
 O20 O 0.64602 0.68928 0.03036
 O21 O 0.68982 0.64550 0.03046
 O22 O 0.64574 0.68881 -0.03129
 Cu23 Cu 0.62697 0.62611 -0.00004
 Cu24 Cu 0.67158 0.67091 -0.00049
 C25 C 0.61961 0.67763 -0.04137
 C26 C 0.67877 0.61950 0.04102
 C27 C 0.62002 0.67821 0.04090
 C28 C 0.67876 0.61882 -0.04130
 O29 O 0.65310 0.39119 0.96986
 O30 O 0.60950 0.34789 1.03208
 O31 O 0.65377 0.39150 1.03170
 O32 O 0.60926 0.34735 0.97041
 O33 O 0.64632 0.31002 0.97045
 O34 O 0.69075 0.35411 1.03167
 O35 O 0.64653 0.31053 1.03206
 O36 O 0.69012 0.35382 0.96988
 Cu37 Cu 0.62769 0.37329 1.00105
 Cu38 Cu 0.67219 0.32839 1.00105
 C39 C 0.67898 0.37982 0.95939
 C40 C 0.62052 0.32177 1.04236
 C41 C 0.67986 0.38031 1.04194
 C42 C 0.62023 0.32114 0.96020
 O43 O 0.39029 0.65286 1.03179
 O44 O 0.34607 0.60898 0.97029
 O45 O 0.39005 0.65273 0.96995
 O46 O 0.34645 0.60881 1.03196
 O47 O 0.30928 0.64601 1.03217
 O48 O 0.35286 0.68991 0.97020
 O49 O 0.30891 0.64621 0.97055
 O50 O 0.35308 0.69003 1.03199
 Cu51 Cu 0.37199 0.62711 1.00100
 Cu52 Cu 0.32731 0.67182 1.00128
 C53 C 0.37920 0.67893 1.04216
 C54 C 0.31994 0.62013 0.96018
 C55 C 0.37882 0.67876 0.95963
 C56 C 0.32037 0.61986 1.04235
 O57 O -0.03139 0.38997 0.34647
 O58 O 0.03038 0.34713 0.39122
 O59 O 0.03045 0.39051 0.34680
 O60 O -0.03143 0.34660 0.39074
 O61 O -0.03082 0.30901 0.35399
 O62 O 0.03099 0.35286 0.31012
 O63 O 0.03093 0.30951 0.35450
 O64 O -0.03080 0.35233 0.30976
 Cu65 Cu -0.00053 0.37236 0.37251
 Cu66 Cu 0.00016 0.32714 0.32839
 C67 C -0.04142 0.37844 0.32050
 C68 C 0.04091 0.32097 0.38051
 C69 C 0.04101 0.37918 0.32094
 C70 C -0.04147 0.32030 0.37983
 O71 O 0.02948 0.65284 0.60844
 O72 O -0.03253 0.60928 0.65224
 O73 O -0.03232 0.65312 0.60839
 O74 O 0.02946 0.60915 0.65249
 O75 O 0.02945 0.64655 0.68943
 O76 O -0.03224 0.69043 0.64542
 O77 O -0.03246 0.64666 0.68920
 O78 O 0.02949 0.69018 0.64545
 Cu79 Cu -0.00148 0.62730 0.62668
 Cu80 Cu -0.00143 0.67219 0.67113
 C81 C 0.03979 0.67896 0.61946
 C82 C -0.04292 0.62062 0.67814
 C83 C -0.04258 0.67930 0.61939
 C84 C 0.03983 0.62043 0.67846
 O85 O 0.97025 0.65127 0.39227
 O86 O 1.03249 0.60735 0.34905
 O87 O 1.03219 0.65147 0.39259
 O88 O 0.97057 0.60720 0.34853
 O89 O 0.97079 0.64431 0.31132
 O90 O 1.03226 0.68847 0.35528
 O91 O 1.03257 0.64446 0.31184
 O92 O 0.97046 0.68828 0.35496
 Cu93 Cu 1.00134 0.62558 0.37438
 Cu94 Cu 1.00151 0.67011 0.32960
 C95 C 0.95996 0.67726 0.38094
 C96 C 1.04297 0.61850 0.32310
 C97 C 1.04259 0.67748 0.38137
 C98 C 0.96039 0.61825 0.32240
 O99 O 0.96915 0.34665 0.60896
 O100 O 1.03055 0.39091 0.65300
 O101 O 1.03110 0.34686 0.60935
 O102 O 0.96879 0.39085 0.65261
 O103 O 0.96864 0.35381 0.68988
 O104 O 1.03089 0.30986 0.64666
 O105 O 1.03034 0.35385 0.69027
 O106 O 0.96900 0.30964 0.64627
 Cu107 Cu 0.99989 0.37253 0.62719
 Cu108 Cu 0.99968 0.32803 0.67200
 C109 C 0.95882 0.32060 0.62013
 C110 C 1.04065 0.37993 0.67917
 C111 C 1.04148 0.32089 0.62069
 C112 C 0.95840 0.37989 0.67869
 O113 O 0.34628 -0.03028 0.39106
 O114 O 0.39011 0.03098 0.34646
 O115 O 0.34675 0.03164 0.39075
 O116 O 0.38982 -0.03086 0.34686
 O117 O 0.35229 -0.03086 0.31009
 O118 O 0.30925 0.03158 0.35394
 O119 O 0.35256 0.03092 0.30968
 O120 O 0.30878 -0.03028 0.35424
 Cu121 Cu 0.37202 0.00036 0.37251
 Cu122 Cu 0.32692 0.00033 0.32830
 C123 C 0.32005 -0.04050 0.38023
 C124 C 0.37880 0.04117 0.32046
 C125 C 0.32066 0.04208 0.37979
 C126 C 0.37843 -0.04125 0.32096
 O127 O 0.65353 -0.03160 0.60927
 O128 O 0.60986 0.03051 0.65292
 O129 O 0.65381 0.03025 0.60920
 O130 O 0.60960 -0.03150 0.65303
 O131 O 0.64679 -0.03155 0.69014
 O132 O 0.69095 0.03013 0.64638
 O133 O 0.64706 0.03038 0.69004
 O134 O 0.69067 -0.03166 0.64644
 Cu135 Cu 0.62792 -0.00058 0.62737
 Cu136 Cu 0.67259 -0.00069 0.67202
 C137 C 0.67956 -0.04197 0.62041
 C138 C 0.62110 0.04090 0.67888
 C139 C 0.67992 0.04049 0.62032
 C140 C 0.62074 -0.04192 0.67902
 O141 O 0.39169 0.96902 0.65273
 O142 O 0.34742 1.03038 0.60871
 O143 O 0.39162 1.03082 0.65230
 O144 O 0.34776 0.96846 0.60901
 O145 O 0.31075 0.96862 0.64631
 O146 O 0.35458 1.03092 0.68957
 O147 O 0.31042 1.03047 0.64603
 O148 O 0.35462 0.96919 0.68998
 Cu149 Cu 0.37335 0.99968 0.62690
 Cu150 Cu 0.32884 0.99984 0.67171
 C151 C 0.38069 0.95889 0.67888
 C152 C 0.32136 1.04066 0.61988
 C153 C 0.38063 1.04120 0.67837
 C154 C 0.32180 0.95808 0.62033
 O155 O 0.65172 1.03203 0.39252
 O156 O 0.60754 0.97034 0.34864
 O157 O 0.65169 0.97010 0.39224
 O158 O 0.60750 1.03231 0.34898
 O159 O 0.64451 1.03242 0.31168
 O160 O 0.68861 0.97034 0.35485
 O161 O 0.64456 0.97059 0.31135
 O162 O 0.68862 1.03213 0.35512
 Cu163 Cu 0.62587 1.00118 0.37437
 Cu164 Cu 0.67028 1.00139 0.32948
 C165 C 0.67772 1.04237 0.38126
 C166 C 0.61859 0.96014 0.32252
 C167 C 0.67769 0.95983 0.38089
 C168 C 0.61852 1.04278 0.32296
 C169 C 0.82941 0.78777 0.48214
 C170 C 0.82839 0.78664 0.51572
 C171 C 0.80688 0.80624 0.53204
 C172 C 0.78727 0.82776 0.51575
 C173 C 0.78832 0.82892 0.48217
 C174 C 0.80935 0.80885 0.46585
 H175 H 0.80994 0.80946 0.44012
 H176 H 0.80663 0.80596 0.55779
 C177 C 0.17120 0.21366 0.48533
 C178 C 0.17162 0.21312 0.51894
 C179 C 0.19251 0.19235 0.53459
 C180 C 0.21258 0.17183 0.51757
 C181 C 0.21230 0.17255 0.48397
 C182 C 0.19177 0.19366 0.46834
 H183 H 0.19127 0.19400 0.44260
 H184 H 0.19266 0.19165 0.56032
 C185 C 0.17125 0.78648 0.51626
 C186 C 0.17182 0.78669 0.48266
 C187 C 0.19268 0.80738 0.46688
 C188 C 0.21267 0.82808 0.48377
 C189 C 0.21241 0.82755 0.51737
 C190 C 0.19182 0.80659 0.53314
 H191 H 0.19127 0.80644 0.55889
 H192 H 0.19286 0.80788 0.44114
 C193 C 0.82888 0.21229 0.51553
 C194 C 0.82984 0.21121 0.48194
 C195 C 0.80961 0.19023 0.46574
 C196 C 0.78861 0.17019 0.48214
 C197 C 0.78776 0.17115 0.51573
 C198 C 0.80747 0.19264 0.53194
 H199 H 0.80736 0.19288 0.55768
 H200 H 0.81004 0.18967 0.44000
 C201 C 0.48354 0.82811 0.78746
 C202 C 0.51719 0.82739 0.78770
 C203 C 0.53286 0.80630 0.80822
 C204 C 0.51583 0.78633 0.82879
 C205 C 0.48217 0.78693 0.82842
 C206 C 0.46650 0.80767 0.80754
 H207 H 0.44072 0.80840 0.80743
 H208 H 0.55864 0.80593 0.80869
 C209 C 0.48212 0.17220 0.21248
 C210 C 0.51578 0.17287 0.21283
 C211 C 0.53186 0.19388 0.19257
 C212 C 0.51526 0.21388 0.17169
 C213 C 0.48160 0.21346 0.17155
 C214 C 0.46549 0.19275 0.19214
 H215 H 0.43972 0.19211 0.19183
 H216 H 0.55765 0.19416 0.19252
 C217 C 0.51847 0.17227 0.78710
 C218 C 0.48481 0.17202 0.78639
 C219 C 0.46791 0.19284 0.80619
 C220 C 0.48369 0.21333 0.82725
 C221 C 0.51734 0.21329 0.82827
 C222 C 0.53426 0.19306 0.80789
 H223 H 0.56004 0.19297 0.80871
 H224 H 0.44213 0.19258 0.80571
 C225 C 0.51705 0.82975 0.21194
 C226 C 0.48342 0.82851 0.21297
 C227 C 0.46727 0.80685 0.19340
 C228 C 0.48376 0.78729 0.17199
 C229 C 0.51739 0.78857 0.17092
 C230 C 0.53355 0.80975 0.19097
 H231 H 0.55932 0.81050 0.19043
 H232 H 0.44148 0.80644 0.19361
 C233 C 0.78676 0.48276 0.82820
 C234 C 0.78627 0.51643 0.82880
 C235 C 0.80614 0.53340 0.80811
 C236 C 0.82702 0.51765 0.78739
 C237 C 0.82772 0.48398 0.78701
 C238 C 0.80731 0.46701 0.80716
 H239 H 0.80792 0.44122 0.80698
 H240 H 0.80587 0.55919 0.80864
 C241 C 0.21337 0.48220 0.17178
 C242 C 0.21376 0.51588 0.17162
 C243 C 0.19387 0.53253 0.19254
 C244 C 0.17300 0.51647 0.21301
 C245 C 0.17228 0.48280 0.21286
 C246 C 0.19278 0.46613 0.19254
 H247 H 0.19220 0.44034 0.19236
 H248 H 0.19410 0.55833 0.19238
 C249 C 0.78895 0.51688 0.17043
 C250 C 0.78769 0.48323 0.17122
 C251 C 0.80721 0.46668 0.19259
 C252 C 0.82877 0.48283 0.21229
 C253 C 0.83006 0.51648 0.21146
 C254 C 0.81006 0.53301 0.19057
 H255 H 0.81076 0.55880 0.19016
 H256 H 0.80684 0.44089 0.19269
 C257 C 0.21173 0.51705 0.82918
 C258 C 0.21183 0.48337 0.82852
 C259 C 0.19135 0.46744 0.80758
 C260 C 0.17056 0.48421 0.78762
 C261 C 0.17073 0.51790 0.78800
 C262 C 0.19149 0.53384 0.80868
 H263 H 0.19141 0.55963 0.80930
 H264 H 0.19108 0.44164 0.80731
 C265 C 0.27080 0.42907 0.10646
 C266 C 0.23792 0.42408 0.10777
 C267 C 0.21937 0.44101 0.12947
 C268 C 0.30465 0.39819 0.06354
 C269 C 0.26662 0.46768 0.14902
 C270 C 0.28516 0.45075 0.12725
 C271 C 0.28953 0.41231 0.08332
 C272 C 0.23351 0.46322 0.15000
 H273 H 0.22658 0.40737 0.09178
 H274 H 0.19388 0.43730 0.12979
 H275 H 0.27800 0.48447 0.16489
 H276 H 0.31060 0.45473 0.12646
 C277 C 0.73088 0.57068 0.10630
 C278 C 0.71669 0.54913 0.12731
 C279 C 0.73549 0.53185 0.14855
 C280 C 0.69643 0.60234 0.06450
 C281 C 0.78267 0.55783 0.12794
 C282 C 0.76386 0.57511 0.10677
 C283 C 0.71183 0.58790 0.08380
 C284 C 0.76867 0.53582 0.14877
 H285 H 0.69117 0.54559 0.12715
 H286 H 0.72422 0.51526 0.16469
 H287 H 0.80820 0.56118 0.12771
 H288 H 0.77505 0.59170 0.09057
 C289 C 0.72983 0.42835 0.89286
 C290 C 0.76273 0.42363 0.89143
 C291 C 0.78112 0.44101 0.86997
 C292 C 0.69627 0.39685 0.93553
 C293 C 0.73366 0.46762 0.85089
 C294 C 0.71527 0.45023 0.87244
 C295 C 0.71127 0.41120 0.91583
 C296 C 0.76679 0.46341 0.84979
 H297 H 0.77422 0.40679 0.90716
 H298 H 0.80664 0.43749 0.86954
 H299 H 0.72213 0.48454 0.83530
 H300 H 0.68981 0.45402 0.87334
 C301 C 0.26811 0.57005 0.89550
 C302 C 0.27124 0.57561 0.86288
 C303 C 0.25279 0.55838 0.84125
 C304 C 0.30219 0.60267 0.93696
 C305 C 0.22795 0.53010 0.88488
 C306 C 0.24642 0.54730 0.90645
 C307 C 0.28684 0.58786 0.91785
 C308 C 0.23120 0.53533 0.85210
 H309 H 0.28789 0.59324 0.85418
 H310 H 0.25553 0.56280 0.81607
 H311 H 0.21107 0.51278 0.89371
 H312 H 0.24370 0.54294 0.93166
 C313 C 0.10530 0.27023 0.43203
 C314 C 0.13803 0.27355 0.42698
 C315 C 0.15951 0.25519 0.44445
 C316 C 0.06408 0.30365 0.39847
 C317 C 0.11554 0.23012 0.47205
 C318 C 0.09410 0.24851 0.45460
 C319 C 0.08309 0.28863 0.41372
 C320 C 0.14842 0.23347 0.46723
 H321 H 0.14692 0.29022 0.40949
 H322 H 0.18479 0.25799 0.44034
 H323 H 0.10651 0.21312 0.48913
 H324 H 0.06880 0.24564 0.45856
 C325 C 0.10476 0.73020 0.56915
 C326 C 0.09382 0.75194 0.54649
 C327 C 0.11545 0.77032 0.52928
 C328 C 0.06315 0.69648 0.60194
 C329 C 0.15912 0.74525 0.55734
 C330 C 0.13744 0.72689 0.57458
 C331 C 0.08234 0.71165 0.58706
 C332 C 0.14828 0.76693 0.53440
 H333 H 0.06857 0.75480 0.54224
 H334 H 0.10661 0.78728 0.51206
 H335 H 0.18435 0.74241 0.56168
 H336 H 0.14613 0.71020 0.59214
 C337 C 0.89417 0.72943 0.42921
 C338 C 0.87295 0.71533 0.45061
 C339 C 0.85149 0.73421 0.46759
 C340 C 0.93633 0.69488 0.39801
 C341 C 0.87228 0.78129 0.44158
 C342 C 0.89367 0.76240 0.42462
 C343 C 0.91687 0.71030 0.41228
 C344 C 0.85125 0.76739 0.46345
 H345 H 0.87312 0.68983 0.45429
 H346 H 0.83520 0.72301 0.48406
 H347 H 0.87251 0.80682 0.43809
 H348 H 0.91001 0.77353 0.40812
 C349 C 0.89440 0.26878 0.56956
 C350 C 0.86161 0.27235 0.57414
 C351 C 0.84022 0.25390 0.55658
 C352 C 0.93560 0.30286 0.60259
 C353 C 0.88442 0.22817 0.52996
 C354 C 0.90574 0.24663 0.54748
 C355 C 0.91656 0.28754 0.58764
 C356 C 0.85148 0.23186 0.53416
 H357 H 0.85260 0.28936 0.59125
 H358 H 0.81491 0.25697 0.56024
 H359 H 0.89358 0.21092 0.51319
 H360 H 0.93107 0.24356 0.54388
 C361 C 0.42884 0.10580 0.26851
 C362 C 0.42324 0.13850 0.27156
 C363 C 0.44054 0.16014 0.25321
 C364 C 0.39623 0.06435 0.30261
 C365 C 0.46896 0.11640 0.22861
 C366 C 0.45169 0.09481 0.24698
 C367 C 0.41102 0.08344 0.28723
 C368 C 0.46371 0.14925 0.23180
 H369 H 0.40555 0.14724 0.28809
 H370 H 0.43611 0.18538 0.25590
 H371 H 0.48637 0.10752 0.21186
 H372 H 0.45608 0.06954 0.24433
 C373 C 0.57254 0.10739 0.72995
 C374 C 0.55083 0.12809 0.71551
 C375 C 0.53357 0.14970 0.73397
 C376 C 0.60398 0.06472 0.69621
 C377 C 0.55994 0.13013 0.78129
 C378 C 0.57720 0.10860 0.76283
 C379 C 0.58963 0.08440 0.71129
 C380 C 0.53772 0.15059 0.76707
 H381 H 0.54709 0.12737 0.69007
 H382 H 0.51679 0.16552 0.72252
 H383 H 0.56342 0.13039 0.80677
 H384 H 0.59391 0.09266 0.77423
 C385 C 0.43099 0.89436 0.73063
 C386 C 0.45353 0.90543 0.75246
 C387 C 0.47063 0.88388 0.77104
 C388 C 0.39829 0.93573 0.69656
 C389 C 0.44268 0.84006 0.74601
 C390 C 0.42556 0.86166 0.72745
 C391 C 0.41317 0.91668 0.71189
 C392 C 0.46550 0.85102 0.76777
 H393 H 0.45778 0.93070 0.75522
 H394 H 0.48777 0.89279 0.78805
 H395 H 0.43834 0.81481 0.74326
 H396 H 0.40808 0.85288 0.71070
 C397 C 0.56976 0.89471 0.27035
 C398 C 0.57443 0.89423 0.23745
 C399 C 0.55750 0.87282 0.21854
 C400 C 0.60123 0.93667 0.30494
 C401 C 0.53134 0.85198 0.26544
 C402 C 0.54828 0.87347 0.28434
 C403 C 0.58680 0.91732 0.28951
 C404 C 0.53559 0.85173 0.23233
 H405 H 0.59098 0.91058 0.22639
 H406 H 0.56108 0.87305 0.19307
 H407 H 0.51484 0.83565 0.27657
 H408 H 0.54455 0.87360 0.30979
 C409 C 0.42947 0.27168 0.89088
 C410 C 0.42419 0.23883 0.88957
 C411 C 0.44150 0.21999 0.86843
 C412 C 0.39790 0.30590 0.93302
 C413 C 0.46918 0.26688 0.84944
 C414 C 0.45186 0.28572 0.87065
 C415 C 0.41233 0.29066 0.91354
 C416 C 0.46440 0.23380 0.84847
 H417 H 0.40694 0.22774 0.90514
 H418 H 0.43752 0.19453 0.86811
 H419 H 0.48650 0.27802 0.83399
 H420 H 0.45609 0.31113 0.87146
 C421 C 0.56880 0.72919 0.89440
 C422 C 0.57383 0.72591 0.86171
 C423 C 0.55653 0.74453 0.84032
 C424 C 0.60190 0.69519 0.93548
 C425 C 0.52917 0.76977 0.88431
 C426 C 0.54644 0.75114 0.90565
 C427 C 0.58686 0.71045 0.91652
 C428 C 0.53393 0.76645 0.85147
 H429 H 0.59116 0.70906 0.85278
 H430 H 0.56059 0.74174 0.81508
 H431 H 0.51221 0.78691 0.89338
 H432 H 0.54250 0.75397 0.93092
 C433 C 0.42983 0.73059 0.10660
 C434 C 0.42533 0.72695 0.13934
 C435 C 0.44285 0.74547 0.16069
 C436 C 0.39679 0.69655 0.06541
 C437 C 0.46928 0.77140 0.11656
 C438 C 0.45181 0.75287 0.09527
 C439 C 0.41175 0.71183 0.08447
 C440 C 0.46516 0.76764 0.14945
 H441 H 0.40830 0.70984 0.14834
 H442 H 0.43925 0.74234 0.18596
 H443 H 0.48597 0.78875 0.10741
 H444 H 0.45534 0.75601 0.06999
 C445 C 0.56943 0.27036 0.10649
 C446 C 0.54710 0.24848 0.09507
 C447 C 0.52945 0.23005 0.11629
 C448 C 0.60286 0.30421 0.06555
 C449 C 0.55641 0.25536 0.16050
 C450 C 0.57409 0.27376 0.13923
 C451 C 0.58773 0.28899 0.08449
 C452 C 0.53381 0.23353 0.14917
 H453 H 0.54343 0.24556 0.06977
 H454 H 0.51250 0.21297 0.10709
 H455 H 0.56017 0.25826 0.18577
 H456 H 0.59139 0.29058 0.14829
 C457 C 0.26942 0.10536 0.56991
 C458 C 0.24755 0.09439 0.54737
 C459 C 0.22896 0.11601 0.53036
 C460 C 0.30359 0.06386 0.60240
 C461 C 0.25405 0.15972 0.55840
 C462 C 0.27261 0.13805 0.57544
 C463 C 0.28821 0.08297 0.58762
 C464 C 0.23225 0.14885 0.53557
 H465 H 0.24477 0.06913 0.54305
 H466 H 0.21193 0.10715 0.51321
 H467 H 0.25682 0.18496 0.56281
 H468 H 0.28939 0.14677 0.59291
 C469 C 0.72952 0.10604 0.42921
 C470 C 0.76244 0.10640 0.42436
 C471 C 0.78157 0.12754 0.44137
 C472 C 0.69455 0.06444 0.39767
 C473 C 0.73485 0.14835 0.46797
 C474 C 0.71572 0.12713 0.45095
 C475 C 0.71013 0.08365 0.41212
 C476 C 0.76798 0.14848 0.46354
 H477 H 0.77334 0.09015 0.40761
 H478 H 0.80706 0.12722 0.43765
 H479 H 0.72387 0.16457 0.48467
 H480 H 0.69026 0.12709 0.45483
 C481 C 0.73105 0.89330 0.56997
 C482 C 0.75329 0.90464 0.54801
 C483 C 0.77168 0.88330 0.53045
 C484 C 0.69713 0.93464 0.60295
 C485 C 0.74570 0.83909 0.55682
 C486 C 0.72732 0.86049 0.57442
 C487 C 0.71236 0.91550 0.58805
 C488 C 0.76782 0.85035 0.53450
 H489 H 0.75648 0.92997 0.54452
 H490 H 0.78899 0.89246 0.51376
 H491 H 0.74251 0.81376 0.56035
 H492 H 0.71024 0.85149 0.59144
 C493 C 0.26885 0.89469 0.43085
 C494 C 0.24711 0.90561 0.45354
 C495 C 0.22877 0.88394 0.47077
 C496 C 0.30250 0.93628 0.39793
 C497 C 0.25387 0.84028 0.44268
 C498 C 0.27219 0.86200 0.42542
 C499 C 0.28735 0.91713 0.41290
 C500 C 0.23219 0.85109 0.46563
 H501 H 0.24422 0.93087 0.45780
 H502 H 0.21181 0.89276 0.48800
 H503 H 0.25674 0.81505 0.43832
 H504 H 0.28887 0.85332 0.40784
 C505 C 0.10486 0.43072 0.73093
 C506 C 0.09358 0.45318 0.75274
 C507 C 0.11496 0.47058 0.77126
 C508 C 0.06375 0.39761 0.69689
 C509 C 0.15903 0.44312 0.74620
 C510 C 0.13761 0.42569 0.72771
 C511 C 0.08271 0.41264 0.71221
 C512 C 0.14786 0.46586 0.76795
 H513 H 0.06828 0.45713 0.75553
 H514 H 0.10587 0.48765 0.78826
 H515 H 0.18432 0.43909 0.74342
 H516 H 0.14656 0.40829 0.71096
 C517 C 0.10900 0.56998 0.27155
 C518 C 0.11013 0.57533 0.23878
 C519 C 0.13138 0.55824 0.21988
 C520 C 0.06671 0.60127 0.30582
 C521 C 0.15086 0.53066 0.26655
 C522 C 0.12952 0.54776 0.28546
 C523 C 0.08626 0.58694 0.29059
 C524 C 0.15165 0.53551 0.23355
 H525 H 0.09433 0.59246 0.22780
 H526 H 0.13157 0.56225 0.19447
 H527 H 0.16653 0.51346 0.27757
 H528 H 0.12885 0.54349 0.31081
 C529 C 0.89405 0.42826 0.26833
 C530 C 0.86124 0.42387 0.27202
 C531 C 0.83991 0.44154 0.25365
 C532 C 0.93525 0.39557 0.30260
 C533 C 0.88420 0.46784 0.22774
 C534 C 0.90547 0.45021 0.24611
 C535 C 0.91616 0.41029 0.28716
 C536 C 0.85126 0.46388 0.23160
 H537 H 0.85219 0.40687 0.28910
 H538 H 0.81459 0.43809 0.25684
 H539 H 0.89341 0.48456 0.21048
 H540 H 0.93080 0.45366 0.24297
 C541 C 0.89101 0.57198 0.72959
 C542 C 0.88988 0.57690 0.76243
 C543 C 0.86863 0.55956 0.78110
 C544 C 0.93335 0.60349 0.69556
 C545 C 0.84914 0.53259 0.73405
 C546 C 0.87048 0.54994 0.71538
 C547 C 0.91380 0.58912 0.71075
 C548 C 0.84836 0.53699 0.76712
 H549 H 0.90569 0.59387 0.77365
 H550 H 0.86845 0.56323 0.80656
 H551 H 0.83347 0.51553 0.72279
 H552 H 0.87115 0.54600 0.68997
 C553 C 0.72949 0.56922 0.89524
 C554 C 0.72631 0.57466 0.86259
 C555 C 0.74481 0.55747 0.84096
 C556 C 0.69549 0.60208 0.93674
 C557 C 0.76985 0.52941 0.88458
 C558 C 0.75131 0.54657 0.90617
 C559 C 0.71078 0.58714 0.91763
 C560 C 0.76657 0.53454 0.85178
 H561 H 0.70958 0.59220 0.85387
 H562 H 0.74203 0.56185 0.81577
 H563 H 0.78685 0.51222 0.89345
 H564 H 0.75412 0.54229 0.93138
 C565 C 0.27042 0.42970 0.89269
 C566 C 0.28433 0.45208 0.87234
 C567 C 0.26544 0.46920 0.85098
 C568 C 0.30492 0.39820 0.93482
 C569 C 0.21869 0.44139 0.87005
 C570 C 0.23760 0.42428 0.89133
 C571 C 0.28953 0.41263 0.91540
 C572 C 0.23238 0.46427 0.84994
 H573 H 0.30971 0.45643 0.87312
 H574 H 0.27652 0.48647 0.83544
 H575 H 0.19327 0.43727 0.86971
 H576 H 0.22656 0.40705 0.90696
 C577 C 0.26994 0.56980 0.10563
 C578 C 0.27324 0.57488 0.13833
 C579 C 0.25495 0.55730 0.15983
 C580 C 0.30369 0.60311 0.06432
 C581 C 0.22992 0.52957 0.11597
 C582 C 0.24824 0.54711 0.09452
 C583 C 0.28850 0.58802 0.08338
 C584 C 0.23330 0.53435 0.14882
 H585 H 0.28990 0.59243 0.14720
 H586 H 0.25781 0.56142 0.18506
 H587 H 0.21299 0.51237 0.10696
 H588 H 0.24536 0.54310 0.06927
 C589 C 0.73094 0.42965 0.10533
 C590 C 0.75311 0.45185 0.09420
 C591 C 0.77165 0.46918 0.11563
 C592 C 0.69672 0.39689 0.06392
 C593 C 0.74600 0.44216 0.15955
 C594 C 0.72747 0.42479 0.13805
 C595 C 0.71210 0.41173 0.08304
 C596 C 0.76805 0.46471 0.14850
 H597 H 0.75615 0.45569 0.06895
 H598 H 0.78890 0.48603 0.10659
 H599 H 0.74297 0.43827 0.18478
 H600 H 0.71046 0.40760 0.14693
 C601 C 0.89404 0.73010 0.56975
 C602 C 0.86124 0.72660 0.57440
 C603 C 0.83982 0.74507 0.55688
 C604 C 0.93539 0.69603 0.60274
 C605 C 0.88397 0.77071 0.53016
 C606 C 0.90533 0.75223 0.54763
 C607 C 0.91627 0.71132 0.58781
 C608 C 0.85102 0.76708 0.53441
 H609 H 0.85225 0.70962 0.59154
 H610 H 0.81452 0.74202 0.56061
 H611 H 0.89313 0.78793 0.51336
 H612 H 0.93065 0.75528 0.54396
 C613 C 0.89451 0.26923 0.42828
 C614 C 0.89375 0.23625 0.42373
 C615 C 0.87246 0.21749 0.44099
 C616 C 0.93636 0.30362 0.39630
 C617 C 0.85231 0.26467 0.46728
 C618 C 0.87367 0.28343 0.45001
 C619 C 0.91705 0.28826 0.41091
 C620 C 0.85176 0.23149 0.46313
 H621 H 0.90978 0.22501 0.40701
 H622 H 0.87248 0.19196 0.43746
 H623 H 0.83628 0.27600 0.48394
 H624 H 0.87401 0.30894 0.45367
 C625 C 0.10678 0.27048 0.57314
 C626 C 0.10823 0.23756 0.57797
 C627 C 0.12975 0.21906 0.56069
 C628 C 0.06405 0.30434 0.60457
 C629 C 0.14887 0.26640 0.53395
 C630 C 0.12728 0.28490 0.55123
 C631 C 0.08375 0.28920 0.59025
 C632 C 0.14999 0.23325 0.53825
 H633 H 0.09248 0.22615 0.59483
 H634 H 0.13015 0.19355 0.56432
 H635 H 0.16450 0.27786 0.51702
 H636 H 0.12640 0.31035 0.54734
 C637 C 0.10735 0.72846 0.42899
 C638 C 0.10866 0.76133 0.42380
 C639 C 0.13007 0.78013 0.44089
 C640 C 0.06494 0.69414 0.39766
 C641 C 0.14938 0.73317 0.46816
 C642 C 0.12789 0.71438 0.45106
 C643 C 0.08449 0.70946 0.41200
 C644 C 0.15035 0.76627 0.46349
 H645 H 0.09287 0.77248 0.40679
 H646 H 0.13035 0.80559 0.43699
 H647 H 0.16505 0.72197 0.48523
 H648 H 0.12714 0.68896 0.45522
 C649 C 0.57161 0.89196 0.73030
 C650 C 0.57659 0.89045 0.76313
 C651 C 0.55923 0.86902 0.78164
 C652 C 0.60340 0.93440 0.69644
 C653 C 0.53208 0.85011 0.73449
 C654 C 0.54946 0.87161 0.71598
 C655 C 0.58888 0.91484 0.71158
 C656 C 0.53656 0.84893 0.76755
 H657 H 0.59365 0.90608 0.77446
 H658 H 0.56299 0.86857 0.80708
 H659 H 0.51497 0.83459 0.72311
 H660 H 0.54545 0.87253 0.69059
 C661 C 0.42878 0.89397 0.26916
 C662 C 0.42429 0.86114 0.27269
 C663 C 0.44200 0.83977 0.25432
 C664 C 0.39578 0.93529 0.30325
 C665 C 0.46859 0.88405 0.22873
 C666 C 0.45093 0.90534 0.24710
 C667 C 0.41066 0.91615 0.28793
 C668 C 0.46451 0.85107 0.23240
 H669 H 0.40715 0.85207 0.28962
 H670 H 0.43841 0.81444 0.25740
 H671 H 0.48541 0.89327 0.21158
 H672 H 0.45449 0.93069 0.24405
 C673 C 0.56943 0.10860 0.27130
 C674 C 0.57491 0.11003 0.23855
 C675 C 0.55775 0.13130 0.21969
 C676 C 0.60110 0.06644 0.30559
 C677 C 0.52974 0.15020 0.26633
 C678 C 0.54692 0.12884 0.28519
 C679 C 0.58659 0.08590 0.29034
 C680 C 0.53477 0.15133 0.23335
 H681 H 0.59225 0.09447 0.22754
 H682 H 0.56194 0.13172 0.19432
 H683 H 0.51238 0.16567 0.27739
 H684 H 0.54251 0.12798 0.31052
 C685 C 0.43149 0.10593 0.72970
 C686 C 0.42639 0.13869 0.72645
 C687 C 0.44380 0.16022 0.74489
 C688 C 0.39831 0.06453 0.69591
 C689 C 0.47143 0.11627 0.76993
 C690 C 0.45405 0.09479 0.75148
 C691 C 0.41336 0.08364 0.71110
 C692 C 0.46661 0.14918 0.76662
 H693 H 0.40893 0.14757 0.70975
 H694 H 0.43966 0.18550 0.74209
 H695 H 0.48852 0.10724 0.78693
 H696 H 0.45808 0.06949 0.75431
 C697 C 0.57097 0.73047 0.10624
 C698 C 0.54941 0.71629 0.12726
 C699 C 0.53221 0.73508 0.14865
 C700 C 0.60272 0.69594 0.06435
 C701 C 0.55826 0.78226 0.12820
 C702 C 0.57545 0.76347 0.10688
 C703 C 0.58822 0.71139 0.08366
 C704 C 0.53626 0.76828 0.14905
 H705 H 0.54580 0.69077 0.12702
 H706 H 0.51566 0.72376 0.16478
 H707 H 0.56171 0.80780 0.12808
 H708 H 0.59206 0.77470 0.09072
 C709 C 0.42877 0.27111 0.10588
 C710 C 0.42375 0.23821 0.10721
 C711 C 0.44056 0.21961 0.12899
 C712 C 0.39778 0.30518 0.06303
 C713 C 0.46723 0.26681 0.14862
 C714 C 0.45041 0.28541 0.12676
 C715 C 0.41198 0.28995 0.08274
 C716 C 0.46272 0.23368 0.14963
 H717 H 0.40706 0.22689 0.09118
 H718 H 0.43678 0.19412 0.12930
 H719 H 0.48395 0.27819 0.16455
 H720 H 0.45443 0.31085 0.12601
 C721 C 0.56995 0.26960 0.89522
 C722 C 0.54689 0.24809 0.90591
 C723 C 0.52980 0.22970 0.88415
 C724 C 0.60261 0.30347 0.93696
 C725 C 0.55877 0.25422 0.84083
 C726 C 0.57589 0.27259 0.86264
 C727 C 0.58775 0.28821 0.91776
 C728 C 0.53542 0.23280 0.85141
 H729 H 0.54222 0.24545 0.93107
 H730 H 0.51226 0.21295 0.89283
 H731 H 0.56353 0.25686 0.81570
 H732 H 0.59375 0.28908 0.85411
 C733 C 0.42770 0.72990 0.89326
 C734 C 0.42304 0.76284 0.89181
 C735 C 0.44043 0.78124 0.87032
 C736 C 0.39599 0.69619 0.93586
 C737 C 0.46697 0.73375 0.85123
 C738 C 0.44958 0.71536 0.87280
 C739 C 0.41044 0.71128 0.91622
 C740 C 0.46281 0.76692 0.85010
 H741 H 0.40621 0.77436 0.90754
 H742 H 0.43691 0.80676 0.86990
 H743 H 0.48385 0.72219 0.83561
 H744 H 0.45334 0.68988 0.87367
 C745 C 0.73002 0.89402 0.42930
 C746 C 0.71595 0.87292 0.45085
 C747 C 0.73479 0.85138 0.46780
 C748 C 0.69542 0.93622 0.39799
 C749 C 0.78183 0.87185 0.44153
 C750 C 0.76297 0.89332 0.42459
 C751 C 0.71089 0.91677 0.41230
 C752 C 0.76795 0.85091 0.46353
 H753 H 0.69047 0.87321 0.45464
 H754 H 0.72356 0.83519 0.48435
 H755 H 0.80733 0.87194 0.43792
 H756 H 0.77412 0.90954 0.40799
 C757 C 0.27020 0.89194 0.57160
 C758 C 0.23732 0.89055 0.57662
 C759 C 0.21867 0.86922 0.55929
 C760 C 0.30429 0.93431 0.60322
 C761 C 0.26577 0.85019 0.53207
 C762 C 0.28442 0.87160 0.54941
 C763 C 0.28906 0.91475 0.58881
 C764 C 0.23267 0.84911 0.53660
 H765 H 0.22606 0.90620 0.59370
 H766 H 0.19320 0.86884 0.56309
 H767 H 0.27708 0.83465 0.51494
 H768 H 0.30985 0.87244 0.54537
 C769 C 0.26967 0.10821 0.42921
 C770 C 0.23678 0.10974 0.42434
 C771 C 0.21827 0.13104 0.44186
 C772 C 0.30341 0.06586 0.39716
 C773 C 0.26555 0.14978 0.46898
 C774 C 0.28406 0.12839 0.45145
 C775 C 0.28836 0.08541 0.41178
 C776 C 0.23244 0.15100 0.46459
 H777 H 0.22539 0.09421 0.40723
 H778 H 0.19279 0.13153 0.43816
 H779 H 0.27699 0.16520 0.48613
 H780 H 0.30950 0.12744 0.45538
 C781 C 0.73164 0.10529 0.56994
 C782 C 0.72822 0.13809 0.57478
 C783 C 0.74656 0.15958 0.55721
 C784 C 0.69764 0.06385 0.60285
 C785 C 0.77193 0.11550 0.53007
 C786 C 0.75358 0.09408 0.54759
 C787 C 0.71293 0.08300 0.58798
 C788 C 0.76836 0.14845 0.53451
 H789 H 0.71138 0.14703 0.59209
 H790 H 0.74356 0.18488 0.56107
 H791 H 0.78899 0.10640 0.51309
 H792 H 0.75657 0.06876 0.54377
 C793 C 0.89512 0.56918 0.27000
 C794 C 0.89448 0.57400 0.23712
 C795 C 0.87307 0.55707 0.21818
 C796 C 0.93699 0.60081 0.30470
 C797 C 0.85254 0.53055 0.26500
 C798 C 0.87402 0.54750 0.28392
 C799 C 0.91770 0.58631 0.28921
 C800 C 0.85211 0.53498 0.23191
 H801 H 0.91070 0.59070 0.22608
 H802 H 0.87318 0.56080 0.19274
 H803 H 0.83632 0.51392 0.27611
 H804 H 0.87425 0.54363 0.30935
 C805 C 0.89378 0.43082 0.73012
 C806 C 0.90490 0.45374 0.75156
 C807 C 0.88343 0.47107 0.77008
 C808 C 0.93512 0.39762 0.69625
 C809 C 0.83955 0.44268 0.74577
 C810 C 0.86106 0.42532 0.72727
 C811 C 0.91605 0.41269 0.71147
 C812 C 0.85056 0.46584 0.76717
 H813 H 0.93017 0.45807 0.75409
 H814 H 0.89245 0.48843 0.78681
 H815 H 0.81430 0.43821 0.74328
 H816 H 0.85219 0.40757 0.71084
 C817 C 0.10590 0.57165 0.73020
 C818 C 0.10716 0.57664 0.76304
 C819 C 0.12864 0.55948 0.78170
 C820 C 0.06349 0.60318 0.69602
 C821 C 0.14806 0.53250 0.73468
 C822 C 0.12652 0.54966 0.71603
 C823 C 0.08303 0.58878 0.71130
 C824 C 0.14903 0.53700 0.76774
 H825 H 0.09133 0.59357 0.77428
 H826 H 0.12892 0.56327 0.80714
 H827 H 0.16381 0.51554 0.72338
 H828 H 0.12580 0.54565 0.69063
 C829 C 0.10586 0.42953 0.26921
 C830 C 0.09490 0.45254 0.24782
 C831 C 0.11648 0.46981 0.22940
 C832 C 0.06432 0.39673 0.30323
 C833 C 0.16019 0.44112 0.25364
 C834 C 0.13855 0.42381 0.27204
 C835 C 0.08347 0.41161 0.28792
 C836 C 0.14933 0.46444 0.23235
 H837 H 0.06965 0.45704 0.24530
 H838 H 0.10758 0.48731 0.21275
 H839 H 0.18541 0.43655 0.25617
 H840 H 0.14731 0.40600 0.28844
   
