data_POSCAR
  _audit_creation_date              2014-09-24
  _audit_creation_method            'ToBaCCo'
  _symmetry_space_group_name_H-M    'P1'
  _symmetry_Int_Tables_number       1
  _symmetry_cell_setting            triclinic
  loop_
  _symmetry_equiv_pos_as_xyz
 x,y,z
_cell_length_a 38.9654
_cell_length_b 39.3455
_cell_length_c 39.2083
_cell_angle_alpha 94.186600
_cell_angle_beta 93.806000
_cell_angle_gamma 92.105300
loop_
  _atom_site_label
  _atom_site_type_symbol
  _atom_site_fract_x
  _atom_site_fract_y
  _atom_site_fract_z
C1 C 0.60504 0.64841 0.61137
 C2 C 0.60590 0.62546 0.63710
 C3 C 0.63297 0.60286 0.64081
 C4 C 0.65892 0.60339 0.61730
 C5 C 0.65825 0.62629 0.59146
 C6 C 0.63127 0.64873 0.58864
 H7 H 0.58559 0.62591 0.65471
 H8 H 0.67951 0.58573 0.61823
 H9 H 0.63080 0.66659 0.56885
 C10 C 0.90011 0.33117 0.10863
 C11 C 0.87514 0.33224 0.08090
 C12 C 0.84837 0.35514 0.08236
 C13 C 0.84659 0.37752 0.11158
 C14 C 0.87091 0.37688 0.13943
 C15 C 0.89732 0.35368 0.13798
 H16 H 0.87563 0.31486 0.05831
 H17 H 0.82626 0.39556 0.11265
 H18 H 0.91607 0.35379 0.15969
 C19 C 0.38818 0.16373 -0.12205
 C20 C 0.36187 0.16769 -0.09952
 C21 C 0.33578 0.14214 -0.09904
 C22 C 0.33530 0.11338 -0.12250
 C23 C 0.36078 0.10976 -0.14604
 C24 C 0.38760 0.13465 -0.14508
 H25 H 0.36275 0.18979 -0.08123
 H26 H 0.31521 0.09365 -0.12217
 H27 H 0.40754 0.13193 -0.16298
 C28 C 0.09113 0.85427 0.37252
 C29 C 0.09035 0.88016 0.34936
 C30 C 0.11471 0.90761 0.35309
 C31 C 0.14042 0.90919 0.37993
 C32 C 0.14151 0.88408 0.40350
 C33 C 0.11679 0.85700 0.39985
 H34 H 0.07050 0.87982 0.32871
 H35 H 0.15963 0.93002 0.38241
 H36 H 0.11820 0.83763 0.41813
 N37 N 0.09079 0.17556 0.12288
 N38 N 0.08119 0.16439 0.15174
 C39 C 0.05493 0.18278 0.16251
 C40 C 0.04745 0.20628 0.13883
 C41 C 0.07053 0.20088 0.11394
 H42 H 0.04157 0.17881 0.18529
 H43 H 0.07258 0.21461 0.09120
 Cu44 Cu 0.10275 0.12561 0.17110
 Cu45 Cu 0.12947 0.15721 0.09953
 Cu46 Cu 0.16991 0.08988 0.13535
 N47 N 0.12518 0.08734 0.19059
 N48 N 0.15226 0.07438 0.17709
 C49 C 0.16315 0.04871 0.19537
 C50 C 0.14147 0.04512 0.22150
 C51 C 0.11755 0.06989 0.21764
 H52 H 0.18449 0.03305 0.18939
 H53 H 0.09621 0.07468 0.23336
 N54 N 0.18396 0.10908 0.09317
 N55 N 0.16913 0.13520 0.07988
 C56 C 0.18508 0.14272 0.05173
 C57 C 0.21071 0.11989 0.04682
 C58 C 0.20929 0.09894 0.07352
 H59 H 0.17832 0.16297 0.03563
 H60 H 0.22585 0.07816 0.07849
 H61 H 0.12440 0.10863 0.11572
 H62 H 0.15444 0.13951 0.14236
 N63 N 0.42282 0.81621 0.61607
 N64 N 0.43839 0.83368 0.64293
 C65 C 0.46587 0.81684 0.65414
 C66 C 0.46786 0.78747 0.63287
 C67 C 0.44027 0.78795 0.60887
 H68 H 0.48352 0.82566 0.67569
 H69 H 0.43324 0.76891 0.58802
 Cu70 Cu 0.42264 0.87756 0.65985
 Cu71 Cu 0.38049 0.83097 0.59341
 Cu72 Cu 0.34568 0.90341 0.63037
 N73 N 0.40052 0.91525 0.68295
 N74 N 0.37006 0.92479 0.67183
 C75 C 0.36076 0.95110 0.69263
 C76 C 0.38696 0.95867 0.71788
 C77 C 0.41182 0.93538 0.71099
 H78 H 0.33701 0.96425 0.68929
 H79 H 0.43615 0.93306 0.72538
 N80 N 0.32498 0.87818 0.58832
 N81 N 0.33783 0.85019 0.57460
 C82 C 0.31770 0.83868 0.54656
 C83 C 0.29116 0.86071 0.54231
 C84 C 0.29667 0.88551 0.56910
 H85 H 0.32239 0.81636 0.53004
 H86 H 0.28103 0.90721 0.57418
 H87 H 0.38704 0.88266 0.60698
 H88 H 0.36558 0.85617 0.63777
 N89 N 0.92325 0.66307 0.39939
 N90 N 0.93246 0.65406 0.36847
 C91 C 0.95799 0.67557 0.36073
 C92 C 0.96552 0.69886 0.38856
 C93 C 0.94308 0.69019 0.41269
 H94 H 0.97041 0.67421 0.33684
 H95 H 0.94060 0.70336 0.43754
 Cu96 Cu 0.91091 0.61469 0.34150
 Cu97 Cu 0.88423 0.64089 0.41855
 Cu98 Cu 0.85105 0.56574 0.37550
 N99 N 0.89752 0.56900 0.32185
 N100 N 0.87326 0.55046 0.33434
 C101 C 0.86792 0.52098 0.31468
 C102 C 0.89046 0.52086 0.28889
 C103 C 0.90892 0.55170 0.29423
 H104 H 0.84924 0.50098 0.31890
 H105 H 0.92853 0.56122 0.27869
 N106 N 0.83240 0.58573 0.41765
 N107 N 0.84463 0.61480 0.43361
 C108 C 0.82536 0.62289 0.46005
 C109 C 0.80017 0.59747 0.46110
 C110 C 0.80538 0.57424 0.43392
 H111 H 0.82913 0.64571 0.47720
 H112 H 0.78991 0.55132 0.42593
 H113 H 0.89465 0.59380 0.39512
 H114 H 0.85961 0.61777 0.37380
 N115 N 0.56852 0.34528 -0.12345
 N116 N 0.54789 0.36529 -0.13984
 C117 C 0.51555 0.35163 -0.14173
 C118 C 0.51617 0.32119 -0.12612
 C119 C 0.55021 0.31786 -0.11503
 H120 H 0.49359 0.36206 -0.15502
 H121 H 0.56094 0.29692 -0.10205
 Cu122 Cu 0.56679 0.40422 -0.16127
 Cu123 Cu 0.61781 0.35601 -0.11509
 Cu124 Cu 0.64184 0.43967 -0.12817
 N125 N 0.58680 0.44431 -0.17983
 N126 N 0.61738 0.45687 -0.16795
 C127 C 0.62703 0.48217 -0.18703
 C128 C 0.60096 0.48581 -0.21197
 C129 C 0.57575 0.46146 -0.20667
 H130 H 0.65128 0.49669 -0.18315
 H131 H 0.55195 0.45571 -0.22216
 N132 N 0.66921 0.41140 -0.09825
 N133 N 0.66096 0.37909 -0.09456
 C134 C 0.68428 0.36696 -0.07214
 C135 C 0.70810 0.39299 -0.06095
 C136 C 0.69784 0.42076 -0.07819
 H137 H 0.68300 0.34161 -0.06320
 H138 H 0.70992 0.44607 -0.07596
 H139 H 0.60563 0.40564 -0.11016
 H140 H 0.62762 0.39285 -0.14967
 C141 C -0.03135 0.27723 0.13885
 C142 C -0.02035 0.26256 0.10803
 N143 N -0.03569 0.27071 0.07785
 C144 C -0.06179 0.29271 0.07695
 C145 C -0.07295 0.30799 0.10788
 N146 N -0.05686 0.29977 0.13802
 N147 N -0.01673 0.26828 0.16913
 C148 C 0.00847 0.24526 0.16993
 C149 C 0.02001 0.23098 0.13905
 N150 N 0.00530 0.24014 0.10877
 H151 H -0.07242 0.29898 0.05216
 H152 H 0.01973 0.23860 0.19440
 C153 C 0.54419 0.71410 0.63779
 C154 C 0.52642 0.71961 0.60648
 N155 N 0.53461 0.70187 0.57733
 C156 C 0.55986 0.67889 0.57806
 C157 C 0.57745 0.67304 0.60944
 N158 N 0.56899 0.69080 0.63861
 N159 N 0.53675 0.73251 0.66679
 C160 C 0.51235 0.75631 0.66594
 C161 C 0.49422 0.76169 0.63471
 N162 N 0.50166 0.74301 0.60569
 H163 H 0.56588 0.66503 0.55448
 H164 H 0.50693 0.77059 0.68947
 C165 C 1.03824 0.78177 0.39565
 C166 C 1.02018 0.77113 0.36438
 N167 N 1.02556 0.78820 0.33628
 C168 C 1.04808 0.81561 0.33795
 C169 C 1.06688 0.82632 0.36926
 N170 N 1.06133 0.80858 0.39720
 N171 N 1.03205 0.76544 0.42409
 C172 C 1.00854 0.73886 0.42262
 C173 C 0.99091 0.72767 0.39114
 N174 N 0.99729 0.74410 0.36269
 H175 H 1.05205 0.82766 0.31456
 H176 H 1.00406 0.72627 0.44565
 C177 C 0.43480 0.24770 -0.12273
 C178 C 0.46923 0.23825 -0.12133
 N179 N 0.47655 0.20490 -0.12005
 C180 C 0.45095 0.18047 -0.12025
 C181 C 0.41643 0.18980 -0.12139
 N182 N 0.40921 0.22335 -0.12242
 N183 N 0.42752 0.28097 -0.12506
 C184 C 0.45314 0.30525 -0.12617
 C185 C 0.48766 0.29589 -0.12447
 N186 N 0.49479 0.26252 -0.12193
 H187 H 0.45745 0.15403 -0.11923
 H188 H 0.44660 0.33156 -0.12807
 C189 C 0.14366 -0.03021 0.29307
 C190 C 0.11276 -0.01512 0.28341
 N191 N 0.08308 -0.02558 0.29646
 C192 C 0.08287 -0.05053 0.31871
 C193 C 0.11384 -0.06550 0.32870
 N194 N 0.14356 -0.05476 0.31566
 N195 N 0.17319 -0.02040 0.27937
 C196 C 0.17324 0.00378 0.25631
 C197 C 0.14241 0.01921 0.24678
 N198 N 0.11287 0.00940 0.26076
 H199 H 0.05889 -0.05827 0.32888
 H200 H 0.19717 0.01110 0.24582
 C201 C 0.60228 0.55210 -0.29187
 C202 C 0.63258 0.53779 -0.27942
 N203 N 0.66253 0.54476 -0.29373
 C204 C 0.66366 0.56535 -0.32007
 C205 C 0.63334 0.58046 -0.33250
 N206 N 0.60349 0.57330 -0.31757
 N207 N 0.57206 0.54428 -0.27834
 C208 C 0.57081 0.52275 -0.25280
 C209 C 0.60128 0.50897 -0.23973
 N210 N 0.63153 0.51694 -0.25338
 H211 H 0.68838 0.57078 -0.32984
 H212 H 0.54640 0.51689 -0.24245
 C213 C 0.38937 1.03912 0.79576
 C214 C 0.35817 1.02690 0.77847
 N215 N 0.32838 1.04128 0.78662
 C216 C 0.32835 1.06746 0.81125
 C217 C 0.35963 1.08019 0.82830
 N218 N 0.38944 1.06561 0.81997
 N219 N 0.41911 1.02447 0.78787
 C220 C 0.41911 0.99817 0.76335
 C221 C 0.38797 0.98623 0.74552
 N222 N 0.35821 1.00101 0.75363
 H223 H 0.30425 1.07876 0.81682
 H224 H 0.44328 0.98723 0.75745
 C225 C 0.89683 0.44508 0.20763
 C226 C 0.86622 0.44898 0.22421
 N227 N 0.83791 0.42906 0.21314
 C228 C 0.83876 0.40549 0.18609
 C229 C 0.86943 0.40136 0.16956
 N230 N 0.89784 0.42123 0.18093
 N231 N 0.92480 0.46577 0.21797
 C232 C 0.92352 0.49033 0.24407
 C233 C 0.89298 0.49417 0.26091
 N234 N 0.86507 0.47317 0.25060
 H235 H 0.81580 0.39003 0.17760
 H236 H 0.94620 0.50648 0.25174
 C237 C 0.27974 0.11588 -0.03195
 C238 C 0.26401 0.14634 -0.02251
 N239 N 0.27181 0.17497 -0.03828
 C240 C 0.29476 0.17453 -0.06301
 C241 C 0.31037 0.14395 -0.07269
 N242 N 0.30226 0.11533 -0.05687
 N243 N 0.27268 0.08743 -0.01569
 C244 C 0.25062 0.08804 0.00975
 C245 C 0.23457 0.11842 0.01919
 N246 N 0.24159 0.14688 0.00262
 H247 H 0.30046 0.19767 -0.07523
 H248 H 0.24543 0.06491 0.02217
 C249 C 0.72125 0.59621 0.53006
 C250 C 0.73773 0.62699 0.52303
 N251 N 0.72782 0.65687 0.53809
 C252 C 0.70212 0.65739 0.55992
 C253 C 0.68583 0.62659 0.56741
 N254 N 0.69597 0.59666 0.55230
 N255 N 0.73061 0.56643 0.51430
 C256 C 0.75573 0.56601 0.49179
 C257 C 0.77263 0.59675 0.48506
 N258 N 0.76317 0.62653 0.50101
 H259 H 0.69484 0.68155 0.57174
 H260 H 0.76273 0.54189 0.47969
 C261 C 0.78712 0.38896 0.01783
 C262 C 0.77203 0.35894 0.00081
 N263 N 0.78255 0.32823 0.01014
 C264 C 0.80745 0.32617 0.03584
 C265 C 0.82226 0.35622 0.05335
 N266 N 0.81157 0.38693 0.04381
 N267 N 0.77690 0.41967 0.00828
 C268 C 0.75209 0.42178 -0.01745
 C269 C 0.73639 0.39176 -0.03419
 N270 N 0.74687 0.36099 -0.02455
 H271 H 0.81500 0.30134 0.04305
 H272 H 0.74429 0.44666 -0.02416
 C273 C 0.21102 0.85684 0.46373
 C274 C 0.22067 0.88747 0.48316
 N275 N 0.20443 0.91639 0.47631
 C276 C 0.17898 0.91611 0.45080
 C277 C 0.16902 0.88540 0.43143
 N278 N 0.18531 0.85643 0.43857
 N279 N 0.22777 0.82808 0.47010
 C280 C 0.25381 0.82855 0.49505
 C281 C 0.26331 0.85912 0.51483
 N282 N 0.24632 0.88786 0.50837
 H283 H 0.16635 0.93950 0.44598
 H284 H 0.26658 0.80520 0.49963
   
