data_POSCAR
  _audit_creation_date              2014-09-24
  _audit_creation_method            'ToBaCCo'
  _symmetry_space_group_name_H-M    'P1'
  _symmetry_Int_Tables_number       1
  _symmetry_cell_setting            triclinic
  loop_
  _symmetry_equiv_pos_as_xyz
 x,y,z
_cell_length_a 46.9378
_cell_length_b 46.9283
_cell_length_c 26.9260
_cell_angle_alpha 89.964500
_cell_angle_beta 90.038700
_cell_angle_gamma 119.957400
loop_
  _atom_site_label
  _atom_site_type_symbol
  _atom_site_fract_x
  _atom_site_fract_y
  _atom_site_fract_z
C1 C 0.43423 0.90131 0.47433
 C2 C 0.43351 0.90124 0.52525
 C3 C 0.46027 0.93070 0.54067
 N4 N 0.47687 0.94902 0.50086
 C5 C 0.46102 0.93102 0.46036
 C6 C 0.47005 0.94001 0.59059
 C7 C 0.49267 0.97320 0.60307
 C8 C 0.51222 0.98319 0.64532
 C9 C 0.52895 1.01694 0.64532
 C10 C 0.51926 1.02680 0.60305
 N11 N 0.49759 0.99997 0.57690
 C12 C 0.52958 1.05994 0.59052
 C13 C 0.52918 1.06922 0.54055
 C14 C 0.53180 1.09865 0.52497
 C15 C 0.53263 1.09858 0.47406
 C16 C 0.52985 1.06889 0.46024
 N17 N 0.52766 1.05092 0.50082
 C18 C 0.53119 1.05947 0.41098
 C19 C 0.52122 1.02669 0.39790
 C20 C 0.52792 1.01685 0.35295
 C21 C 0.51097 0.98301 0.35296
 C22 C 0.49445 0.97321 0.39792
 N23 N 0.50099 0.99996 0.42521
 C24 C 0.47162 0.94046 0.41103
 H25 H 0.41689 0.88185 0.45034
 H26 H 0.41525 0.88173 0.54819
 H27 H 0.48900 0.99997 0.45771
 H28 H 0.51434 0.96774 0.67322
 H29 H 0.54644 1.03247 0.67320
 H30 H 0.53288 1.11813 0.54779
 H31 H 0.53475 1.11801 0.44996
 H32 H 0.51036 0.96741 0.32289
 H33 H 0.48432 0.99992 0.54580
 H34 H 0.54292 1.03241 0.32288
 C35 C -0.09836 0.46912 0.47434
 C36 C -0.09837 0.46905 0.52520
 C37 C -0.06961 0.46999 0.53998
 N38 N -0.05180 0.47104 0.49977
 C39 C -0.06960 0.47008 0.45955
 C40 C -0.06039 0.46921 0.58990
 C41 C -0.02713 0.48026 0.60259
 C42 C -0.01659 0.47231 0.64594
 C43 C 0.01717 0.49030 0.64594
 C44 C 0.02637 0.50827 0.60224
 N45 N -0.00073 0.50181 0.57574
 C46 C 0.05903 0.53153 0.58931
 C47 C 0.06851 0.54194 0.53997
 C48 C 0.09901 0.56732 0.52532
 C49 C 0.09902 0.56720 0.47432
 C50 C 0.06853 0.54176 0.45977
 N51 N 0.04994 0.52638 0.49990
 C52 C 0.05906 0.53116 0.41050
 C53 C 0.02636 0.50799 0.39755
 C54 C 0.01710 0.48998 0.35390
 C55 C -0.01666 0.47218 0.35380
 C56 C -0.02714 0.48025 0.39706
 N57 N -0.00070 0.50172 0.42394
 C58 C -0.06036 0.46938 0.40963
 H59 H -0.11713 0.46909 0.45095
 H60 H -0.11715 0.46896 0.54861
 H61 H -0.00123 0.51421 0.45558
 H62 H -0.03164 0.45549 0.67484
 H63 H 0.03315 0.49018 0.67486
 H64 H 0.11925 0.58388 0.54886
 H65 H 0.11928 0.58365 0.45071
 H66 H -0.03177 0.45540 0.32490
 H67 H -0.00131 0.51424 0.54402
 H68 H 0.03304 0.48973 0.32506
 C69 C 0.56487 0.46387 0.47596
 C70 C 0.56473 0.46373 0.52690
 C71 C 0.54077 0.47109 0.54169
 N72 N 0.52605 0.47518 0.50134
 C73 C 0.54079 0.47091 0.46121
 C74 C 0.52986 0.46986 0.59111
 C75 C 0.50642 0.47938 0.60387
 C76 C 0.48953 0.47242 0.64865
 C77 C 0.47208 0.48871 0.64832
 C78 C 0.47937 0.50611 0.60407
 N79 N 0.50001 0.49998 0.57693
 C80 C 0.46832 0.52835 0.59096
 C81 C 0.46849 0.53797 0.54093
 C82 C 0.46486 0.56426 0.52566
 C83 C 0.46493 0.56409 0.47477
 C84 C 0.46919 0.53813 0.46057
 N85 N 0.47138 0.52216 0.50096
 C86 C 0.46939 0.52854 0.41101
 C87 C 0.48075 0.50687 0.39757
 C88 C 0.47530 0.49126 0.35199
 C89 C 0.49290 0.47504 0.35210
 C90 C 0.50861 0.48121 0.39775
 N91 N 0.50101 0.50059 0.42529
 C92 C 0.53097 0.47074 0.41159
 H93 H 0.58041 0.45861 0.45253
 H94 H 0.57989 0.45782 0.55008
 H95 H 0.51212 0.51215 0.45846
 H96 H 0.48999 0.45770 0.67917
 H97 H 0.45620 0.48816 0.67788
 H98 H 0.46271 0.58197 0.54869
 H99 H 0.46253 0.58136 0.45094
 H100 H 0.49427 0.46065 0.32176
 H101 H 0.51225 0.51247 0.54487
 H102 H 0.46054 0.49187 0.32155
 O103 O 0.38240 0.65854 -0.04133
 O104 O 0.38114 0.71273 -0.05732
 C105 C 0.36601 0.72821 -0.06632
 O106 O 0.34127 0.72402 -0.04114
 O107 O 0.28714 0.66865 -0.05730
 C108 C 0.27169 0.63807 -0.06642
 O109 O 0.27587 0.61747 -0.04130
 O110 O 0.33125 0.61865 -0.05735
 C111 C 0.36182 0.63378 -0.06646
 O112 O 0.38098 0.66805 0.05735
 O113 O 0.38272 0.72371 0.04138
 C114 C 0.36229 0.72809 0.06659
 O115 O 0.33171 0.71289 0.05750
 O116 O 0.27607 0.65906 0.04133
 C117 C 0.27166 0.63421 0.06647
 O118 O 0.28689 0.61884 0.05739
 O119 O 0.34077 0.61705 0.04133
 C120 C 0.36562 0.63747 0.06647
 Cr121 Cr 0.38004 0.68988 0.00002
 Cr122 Cr 0.30992 0.69026 0.00009
 Cr123 Cr 0.30959 0.61977 0.00002
 O124 O 0.33318 0.66663 0.00004
 O125 O 0.61723 0.34113 -0.04155
 O126 O 0.61870 0.28705 -0.05745
 C127 C 0.63393 0.27169 -0.06653
 O128 O 0.65878 0.27601 -0.04145
 O129 O 0.71276 0.33149 -0.05777
 C130 C 0.72805 0.36206 -0.06699
 O131 O 0.72382 0.38261 -0.04185
 O132 O 0.66828 0.38112 -0.05782
 C133 C 0.63769 0.36586 -0.06684
 O134 O 0.61891 0.33172 0.05716
 O135 O 0.61738 0.27616 0.04125
 C136 C 0.63792 0.27189 0.06637
 O137 O 0.66848 0.28719 0.05717
 O138 O 0.72396 0.34116 0.04088
 C139 C 0.72824 0.36596 0.06601
 O140 O 0.71293 0.38124 0.05685
 O141 O 0.65891 0.38277 0.04087
 C142 C 0.63420 0.36231 0.06618
 Cr143 Cr 0.61982 0.30990 -0.00016
 Cr144 Cr 0.69011 0.30985 -0.00030
 Cr145 Cr 0.69010 0.38017 -0.00048
 O146 O 0.66668 0.33330 -0.00032
 C147 C 0.43459 0.86796 -0.29525
 C148 C 0.44443 0.86137 -0.34076
 C149 C 0.45608 0.88501 -0.37847
 C150 C 0.45803 0.91575 -0.37136
 C151 C 0.44812 0.92201 -0.32508
 C152 C 0.43647 0.89830 -0.28749
 C153 C 0.42268 0.84364 -0.25641
 C154 C 0.41272 0.82336 -0.22374
 C155 C 0.40084 0.79927 -0.18458
 C156 C 0.41686 0.78158 -0.17404
 C157 C 0.40551 0.75839 -0.13568
 C158 C 0.37795 0.75260 -0.10727
 C159 C 0.36196 0.77047 -0.11834
 C160 C 0.37336 0.79364 -0.15671
 H161 H 0.44333 0.83804 -0.34701
 H162 H 0.46444 0.87954 -0.41275
 H163 H 0.44867 0.94503 -0.31831
 H164 H 0.42882 0.90363 -0.25240
 H165 H 0.43816 0.78575 -0.19540
 H166 H 0.41838 0.74507 -0.12825
 H167 H 0.34067 0.76663 -0.09731
 H168 H 0.36078 0.80721 -0.16457
 C169 C 0.13209 0.56801 -0.29552
 C170 C 0.10550 0.57364 -0.29324
 C171 C 0.08178 0.56183 -0.33082
 C172 C 0.08447 0.54431 -0.37108
 C173 C 0.11114 0.53865 -0.37312
 C174 C 0.13486 0.55049 -0.33552
 C175 C 0.15641 0.58009 -0.25670
 C176 C 0.17669 0.59020 -0.22403
 C177 C 0.20077 0.60225 -0.18486
 C178 C 0.21836 0.63590 -0.17404
 C179 C 0.24151 0.64760 -0.13564
 C180 C 0.24735 0.62575 -0.10744
 C181 C 0.22960 0.59196 -0.11879
 C182 C 0.20647 0.58033 -0.15722
 H183 H 0.10310 0.58713 -0.26243
 H184 H 0.06133 0.56636 -0.32864
 H185 H 0.11345 0.52496 -0.40371
 H186 H 0.15530 0.54593 -0.33757
 H187 H 0.21413 0.65308 -0.19522
 H188 H 0.25474 0.67375 -0.12798
 H189 H 0.23349 0.57445 -0.09794
 H190 H 0.19298 0.55423 -0.16530
 C191 C 0.43235 0.56479 -0.29557
 C192 C 0.41482 0.55304 -0.33996
 C193 C 0.42665 0.54110 -0.37747
 C194 C 0.45631 0.54071 -0.37121
 C195 C 0.47368 0.55266 -0.32618
 C196 C 0.46179 0.56460 -0.28879
 C197 C 0.42006 0.57687 -0.25683
 C198 C 0.40984 0.58693 -0.22418
 C199 C 0.39774 0.59889 -0.18499
 C200 C 0.36408 0.58291 -0.17433
 C201 C 0.35234 0.59428 -0.13589
 C202 C 0.37418 0.62184 -0.10751
 C203 C 0.40798 0.63780 -0.11871
 C204 C 0.41964 0.62637 -0.15717
 H205 H 0.39188 0.55289 -0.34546
 H206 H 0.41212 0.53137 -0.41092
 H207 H 0.49687 0.55339 -0.32028
 H208 H 0.47562 0.57375 -0.25461
 H209 H 0.34691 0.56160 -0.19565
 H210 H 0.32619 0.58143 -0.12836
 H211 H 0.42547 0.65909 -0.09771
 H212 H 0.44575 0.63891 -0.16511
 C213 C 0.56510 0.13191 -0.29527
 C214 C 0.53682 0.10142 -0.28766
 C215 C 0.52513 0.07773 -0.32526
 C216 C 0.54148 0.08416 -0.37140
 C217 C 0.57010 0.11503 -0.37834
 C218 C 0.58172 0.13864 -0.34063
 C219 C 0.57712 0.15621 -0.25643
 C220 C 0.58715 0.17649 -0.22378
 C221 C 0.59905 0.20059 -0.18466
 C222 C 0.58290 0.21811 -0.17394
 C223 C 0.59426 0.24131 -0.13562
 C224 C 0.62199 0.24728 -0.10743
 C225 C 0.63812 0.22960 -0.11868
 C226 C 0.62670 0.20642 -0.15702
 H227 H 0.52371 0.09597 -0.25268
 H228 H 0.50279 0.05459 -0.31862
 H229 H 0.58408 0.12063 -0.41248
 H230 H 0.60382 0.16209 -0.34675
 H231 H 0.56146 0.21378 -0.19512
 H232 H 0.58127 0.25448 -0.12804
 H233 H 0.65955 0.23359 -0.09783
 H234 H 0.63940 0.19299 -0.16503
 C235 C 0.86709 0.43298 -0.29670
 C236 C 0.89742 0.46139 -0.28870
 C237 C 0.92127 0.47338 -0.32603
 C238 C 0.91524 0.45714 -0.37223
 C239 C 0.88442 0.42857 -0.37973
 C240 C 0.86063 0.41663 -0.34227
 C241 C 0.84272 0.42056 -0.25797
 C242 C 0.82247 0.41026 -0.22528
 C243 C 0.79850 0.39810 -0.18598
 C244 C 0.79285 0.41995 -0.15814
 C245 C 0.76988 0.40826 -0.11952
 C246 C 0.75224 0.37445 -0.10818
 C247 C 0.75803 0.35266 -0.13658
 C248 C 0.78102 0.36444 -0.17518
 H249 H 0.90261 0.47435 -0.25362
 H250 H 0.94422 0.49587 -0.31911
 H251 H 0.87901 0.41487 -0.41414
 H252 H 0.83727 0.39450 -0.34876
 H253 H 0.80627 0.44606 -0.16618
 H254 H 0.76603 0.42571 -0.09852
 H255 H 0.74487 0.32651 -0.12894
 H256 H 0.78522 0.34731 -0.19650
 C257 C 0.56642 0.43381 -0.29669
 C258 C 0.53352 0.41534 -0.31154
 C259 C 0.52136 0.42716 -0.34879
 C260 C 0.54198 0.45773 -0.37144
 C261 C 0.57511 0.47593 -0.35670
 C262 C 0.58722 0.46406 -0.31945
 C263 C 0.57878 0.42184 -0.25783
 C264 C 0.58909 0.41192 -0.22506
 C265 C 0.60133 0.40017 -0.18573
 C266 C 0.57957 0.37266 -0.15783
 C267 C 0.59137 0.36143 -0.11923
 C268 C 0.62518 0.37762 -0.10798
 C269 C 0.64687 0.40521 -0.13643
 C270 C 0.63499 0.41638 -0.17501
 H271 H 0.51726 0.39183 -0.29432
 H272 H 0.49591 0.41239 -0.36019
 H273 H 0.59148 0.49951 -0.37369
 H274 H 0.61273 0.47852 -0.30827
 H275 H 0.55345 0.35993 -0.16582
 H276 H 0.57398 0.34011 -0.09818
 H277 H 0.67303 0.41824 -0.12886
 H278 H 0.65206 0.43771 -0.19638
 C279 C 0.86733 0.43414 0.29584
 C280 C 0.86066 0.41757 0.34127
 C281 C 0.88439 0.42916 0.37885
 C282 C 0.91534 0.45761 0.37163
 C283 C 0.92160 0.47405 0.32556
 C284 C 0.89780 0.46240 0.28811
 C285 C 0.84300 0.42211 0.25702
 C286 C 0.82278 0.41215 0.22427
 C287 C 0.79882 0.40037 0.18492
 C288 C 0.79310 0.37282 0.15715
 C289 C 0.77011 0.36156 0.11853
 C290 C 0.75251 0.37778 0.10712
 C291 C 0.75838 0.40541 0.13543
 C292 C 0.78139 0.41661 0.17403
 H293 H 0.83718 0.39554 0.34755
 H294 H 0.87882 0.41530 0.41313
 H295 H 0.94467 0.49645 0.31884
 H296 H 0.90316 0.47553 0.25314
 H297 H 0.80647 0.36007 0.16527
 H298 H 0.76618 0.34020 0.09760
 H299 H 0.74527 0.41846 0.12774
 H300 H 0.78565 0.43798 0.19529
 C301 C 0.56737 0.13276 0.29612
 C302 C 0.53524 0.10606 0.29368
 C303 C 0.52342 0.08227 0.33115
 C304 C 0.54365 0.08495 0.37142
 C305 C 0.57582 0.11183 0.37377
 C306 C 0.58761 0.13562 0.33627
 C307 C 0.57960 0.15704 0.25724
 C308 C 0.58981 0.17726 0.22449
 C309 C 0.60193 0.20125 0.18519
 C310 C 0.58007 0.20693 0.15737
 C311 C 0.59175 0.22996 0.11881
 C312 C 0.62554 0.24764 0.10750
 C313 C 0.64734 0.24181 0.13587
 C314 C 0.63558 0.21876 0.17441
 H315 H 0.51937 0.10362 0.26278
 H316 H 0.49851 0.06175 0.32885
 H317 H 0.59178 0.11422 0.40448
 H318 H 0.61252 0.15616 0.33849
 H319 H 0.55396 0.19349 0.16541
 H320 H 0.57429 0.23384 0.09782
 H321 H 0.67348 0.25499 0.12825
 H322 H 0.65272 0.21454 0.19573
 C323 C 0.56715 0.43375 0.29671
 C324 C 0.54728 0.41278 0.33458
 C325 C 0.53561 0.42482 0.37217
 C326 C 0.54379 0.45798 0.37223
 C327 C 0.56375 0.47891 0.33422
 C328 C 0.57539 0.46684 0.29664
 C329 C 0.57885 0.42129 0.25768
 C330 C 0.58861 0.41093 0.22479
 C331 C 0.60020 0.39868 0.18531
 C332 C 0.58397 0.36501 0.17464
 C333 C 0.59502 0.35313 0.13596
 C334 C 0.62251 0.37483 0.10736
 C335 C 0.63872 0.40865 0.11855
 C336 C 0.62760 0.42045 0.15724
 H337 H 0.54071 0.38712 0.33492
 H338 H 0.52007 0.40833 0.40108
 H339 H 0.57022 0.50453 0.33371
 H340 H 0.59071 0.48326 0.26748
 H341 H 0.56272 0.34794 0.19615
 H342 H 0.58199 0.32696 0.12845
 H343 H 0.65997 0.42604 0.09739
 H344 H 0.64034 0.44657 0.16519
 C345 C 0.13220 0.56668 0.29555
 C346 C 0.10578 0.57256 0.29289
 C347 C 0.08204 0.56109 0.33041
 C348 C 0.08455 0.54365 0.37099
 C349 C 0.11107 0.53777 0.37344
 C350 C 0.13481 0.54927 0.33590
 C351 C 0.15651 0.57838 0.25675
 C352 C 0.17677 0.58818 0.22408
 C353 C 0.20080 0.59988 0.18487
 C354 C 0.20667 0.62748 0.15705
 C355 C 0.22977 0.63871 0.11863
 C356 C 0.24734 0.62244 0.10746
 C357 C 0.24132 0.59475 0.13583
 C358 C 0.21819 0.58358 0.17424
 H359 H 0.10352 0.58597 0.26180
 H360 H 0.06172 0.56579 0.32792
 H361 H 0.11324 0.52415 0.40429
 H362 H 0.15511 0.54453 0.33825
 H363 H 0.19334 0.64028 0.16499
 H364 H 0.23381 0.66010 0.09764
 H365 H 0.25440 0.58166 0.12831
 H366 H 0.21383 0.56218 0.19556
 C367 C 0.43377 0.86725 0.29614
 C368 C 0.45126 0.86423 0.33601
 C369 C 0.46354 0.88801 0.37351
 C370 C 0.45840 0.91503 0.37144
 C371 C 0.44077 0.91787 0.33142
 C372 C 0.42853 0.89410 0.29395
 C373 C 0.42137 0.84295 0.25731
 C374 C 0.41103 0.82272 0.22460
 C375 C 0.39875 0.79873 0.18533
 C376 C 0.42046 0.79282 0.15759
 C377 C 0.40863 0.76979 0.11905
 C378 C 0.37483 0.75234 0.10769
 C379 C 0.35318 0.75839 0.13599
 C380 C 0.36510 0.78144 0.17451
 H381 H 0.45549 0.84358 0.33803
 H382 H 0.47717 0.88550 0.40402
 H383 H 0.43651 0.93850 0.32933
 H384 H 0.41503 0.89666 0.26327
 H385 H 0.44657 0.80607 0.16567
 H386 H 0.42597 0.76572 0.09812
 H387 H 0.32704 0.74540 0.12833
 H388 H 0.34808 0.78584 0.19576
 C389 C 0.43373 0.56610 0.29595
 C390 C 0.41281 0.54727 0.33459
 C391 C 0.42441 0.53509 0.37213
 C392 C 0.45707 0.54165 0.37134
 C393 C 0.47796 0.56063 0.33256
 C394 C 0.46632 0.57278 0.29504
 C395 C 0.42174 0.57844 0.25708
 C396 C 0.41178 0.58874 0.22435
 C397 C 0.40001 0.60101 0.18510
 C398 C 0.37235 0.57928 0.15742
 C399 C 0.36109 0.59112 0.11891
 C400 C 0.37739 0.62492 0.10753
 C401 C 0.40512 0.64657 0.13576
 C402 C 0.41633 0.63466 0.17424
 H403 H 0.38754 0.54194 0.33561
 H404 H 0.40795 0.52041 0.40168
 H405 H 0.50323 0.56600 0.33147
 H406 H 0.48271 0.58733 0.26532
 H407 H 0.35954 0.55318 0.16552
 H408 H 0.33966 0.57377 0.09802
 H409 H 0.41824 0.67272 0.12808
 H410 H 0.43777 0.65169 0.19544
   
