data_POSCAR
  _audit_creation_date              2014-09-24
  _audit_creation_method            'ToBaCCo'
  _symmetry_space_group_name_H-M    'P1'
  _symmetry_Int_Tables_number       1
  _symmetry_cell_setting            triclinic
  loop_
  _symmetry_equiv_pos_as_xyz
 x,y,z
_cell_length_a 53.8166
_cell_length_b 53.8967
_cell_length_c 53.5222
_cell_angle_alpha 90.060000
_cell_angle_beta 89.722200
_cell_angle_gamma 90.086800
loop_
  _atom_site_label
  _atom_site_type_symbol
  _atom_site_fract_x
  _atom_site_fract_y
  _atom_site_fract_z
C1 C 0.20677 1.22901 0.18727
 C2 C 0.22553 1.21097 0.18676
 C3 C 0.22580 1.19242 0.20457
 C4 C 0.20728 1.19161 0.22308
 C5 C 0.18889 1.20936 0.22358
 C6 C 0.18860 1.22819 0.20549
 C7 C 0.20108 1.24834 0.17158
 N8 N 0.17969 1.25950 0.17965
 C9 C 0.17215 1.24703 0.20059
 C10 C 0.17286 1.20328 0.24270
 N11 N 0.18090 1.18206 0.25403
 C12 C 0.20214 1.17500 0.24188
 C13 C 0.24517 1.17680 0.19873
 N14 N 0.25669 1.18536 0.17777
 C15 C 0.24475 1.20632 0.17037
 H16 H 0.21167 1.25306 0.15507
 H17 H 0.15577 1.25080 0.21167
 H18 H 0.15614 1.21346 0.24712
 H19 H 0.21334 1.15890 0.24594
 H20 H 0.24987 1.15989 0.20851
 H21 H 0.24947 1.21730 0.15411
 C22 C 0.78795 0.77334 0.19280
 C23 C 0.76944 0.79163 0.19256
 C24 C 0.76910 0.80982 0.21077
 C25 C 0.78730 0.81000 0.22944
 C26 C 0.80538 0.79192 0.22975
 C27 C 0.80571 0.77344 0.21126
 C28 C 0.79368 0.75429 0.17668
 N29 N 0.81468 0.74259 0.18474
 C30 C 0.82195 0.75443 0.20609
 C31 C 0.82128 0.79751 0.24899
 N32 N 0.81354 0.81881 0.26045
 C33 C 0.79256 0.82638 0.24840
 C34 C 0.75003 0.82579 0.20514
 N35 N 0.73875 0.81783 0.18388
 C36 C 0.75061 0.79689 0.17611
 H37 H 0.78306 0.74974 0.16023
 H38 H 0.83837 0.75047 0.21691
 H39 H 0.83796 0.78721 0.25320
 H40 H 0.78164 0.84265 0.25273
 H41 H 0.74493 0.84212 0.21575
 H42 H 0.74650 0.78665 0.15922
 C43 C 0.79586 1.22476 -0.18725
 C44 C 0.77763 1.20612 -0.18708
 C45 C 0.77858 1.18720 -0.20448
 C46 C 0.79768 1.18671 -0.22241
 C47 C 0.81555 1.20503 -0.22257
 C48 C 0.81466 1.22419 -0.20482
 C49 C 0.80046 1.24456 -0.17172
 N50 N 0.82180 1.25623 -0.17923
 C51 C 0.83037 1.24364 -0.19971
 C52 C 0.83218 1.19935 -0.24128
 N53 N 0.82495 1.17788 -0.25279
 C54 C 0.80367 1.17019 -0.24106
 C55 C 0.75942 1.17114 -0.19913
 N56 N 0.74669 1.17981 -0.17889
 C57 C 0.75780 1.20131 -0.17150
 H58 H 0.78915 1.24927 -0.15569
 H59 H 0.84706 1.24763 -0.21023
 H60 H 0.84830 1.21043 -0.24585
 H61 H 0.79327 1.15351 -0.24504
 H62 H 0.75568 1.15395 -0.20886
 H63 H 0.75208 1.21271 -0.15586
 C64 C 0.20756 0.77204 -0.19179
 C65 C 0.22595 0.79052 -0.19155
 C66 C 0.22590 0.80892 -0.20950
 C67 C 0.20753 0.80906 -0.22799
 C68 C 0.18949 0.79089 -0.22822
 C69 C 0.18953 0.77220 -0.20999
 C70 C 0.20212 0.75282 -0.17581
 N71 N 0.18103 0.74108 -0.18368
 C72 C 0.17343 0.75304 -0.20481
 C73 C 0.17350 0.79637 -0.24740
 N74 N 0.18128 0.81757 -0.25907
 C75 C 0.20227 0.82527 -0.24705
 C76 C 0.24488 0.82506 -0.20388
 N77 N 0.25654 0.81695 -0.18292
 C78 C 0.24501 0.79575 -0.17532
 H79 H 0.21295 0.74823 -0.15953
 H80 H 0.15684 0.74911 -0.21539
 H81 H 0.15739 0.78538 -0.25212
 H82 H 0.21284 0.84188 -0.25097
 H83 H 0.24920 0.84198 -0.21387
 H84 H 0.24991 0.78492 -0.15908
 C85 C 0.53842 1.03149 -0.00879
 H86 H 0.53975 1.03027 0.01134
 C87 C 0.55554 1.04575 -0.02219
 H88 H 0.57018 1.05519 -0.01214
 C89 C 0.51837 1.01945 -0.04620
 H90 H 0.50416 1.00884 -0.05556
 C91 C 0.53492 1.03375 -0.06032
 H92 H 0.53275 1.03438 -0.08041
 N93 N 0.52026 1.01875 -0.02088
 C94 C 0.46153 1.00748 0.03420
 H95 H 0.46076 0.98742 0.03447
 C96 C 0.44471 1.02124 0.04846
 H97 H 0.43125 1.01159 0.06001
 C98 C 0.47997 1.04431 0.01854
 H99 H 0.49338 1.05320 0.00641
 C100 C 0.46347 1.05881 0.03249
 H101 H 0.46436 1.07882 0.03091
 Zn102 Zn 0.49899 0.99894 -0.00088
 N103 N 0.47869 1.01913 0.01962
 C104 C 0.51958 0.98011 0.04413
 N105 N 0.51958 0.97839 0.01877
 C106 C 0.53549 0.96297 0.00655
 C107 C 0.55203 0.94818 0.01989
 C108 C 0.53597 0.96578 0.05821
 C109 C 0.46097 0.99186 -0.03560
 C110 C 0.44391 0.97873 -0.05007
 C111 C 0.46033 0.94054 -0.03334
 C112 C 0.47721 0.95442 -0.01933
 N113 N 0.47738 0.97961 -0.02086
 H114 H 0.50729 0.99298 0.05347
 H115 H 0.53534 0.96224 -0.01365
 H116 H 0.56425 0.93577 0.00975
 H117 H 0.53607 0.96788 0.07833
 H118 H 0.46115 1.01193 -0.03608
 H119 H 0.43137 0.98889 -0.06204
 H120 H 0.46020 0.92055 -0.03145
 H121 H 0.48979 0.94502 -0.00687
 C122 C 0.44537 1.04728 0.04754
 C123 C 0.55395 1.04708 -0.04836
 C124 C 0.44336 0.95268 -0.04902
 C125 C 0.55256 0.94957 0.04610
 C126 C -0.00984 0.54054 1.03595
 H127 H 0.01025 0.54119 1.03561
 C128 C -0.02314 0.55740 1.05058
 H129 H -0.01309 0.57077 1.06178
 C130 C -0.04723 0.52227 1.02160
 H131 H -0.05656 0.50890 1.00987
 C132 C -0.06128 0.53880 1.03598
 H133 H -0.08136 0.53795 1.03514
 N134 N -0.02198 0.52336 1.02194
 C135 C 0.03203 0.46443 1.00918
 H136 H 0.03186 0.46361 0.98899
 C137 C 0.04645 0.44768 1.02270
 H138 H 0.05724 0.43390 1.01272
 C139 C 0.01718 0.48275 1.04664
 H140 H 0.00544 0.49615 1.05593
 C141 C 0.03131 0.46634 1.06089
 H142 H 0.03066 0.46768 1.08107
 Zn143 Zn -0.00229 0.50247 1.00149
 N144 N 0.01789 0.48159 1.02126
 C145 C 0.04272 0.52225 0.98138
 N146 N 0.01747 0.52340 0.98112
 C147 C 0.00539 0.54061 0.96718
 C148 C 0.01873 0.55739 0.95248
 C149 C 0.05681 0.53868 0.96692
 C150 C -0.03664 0.46436 0.99354
 C151 C -0.05089 0.44750 0.97988
 C152 C -0.03565 0.46636 0.94184
 C153 C -0.02168 0.48285 0.95623
 N154 N -0.02248 0.48162 0.98161
 H155 H 0.05200 0.50887 0.99307
 H156 H -0.01470 0.54132 0.96758
 H157 H 0.00872 0.57075 0.94130
 H158 H 0.07689 0.53775 0.96766
 H159 H -0.03656 0.46349 1.01373
 H160 H -0.06164 0.43359 0.98975
 H161 H -0.03487 0.46774 0.92167
 H162 H -0.00994 0.49634 0.94706
 C163 C 0.04614 0.44844 1.04893
 C164 C -0.04923 0.55676 1.05064
 C165 C -0.05041 0.44828 0.95365
 C166 C 0.04481 0.55662 0.95228
 C167 C 1.03630 -0.00970 0.53598
 H168 H 1.03611 0.01034 0.53716
 C169 C 1.05085 -0.02343 0.55244
 H170 H 1.06174 -0.01378 0.56637
 C171 C 1.02138 -0.04655 0.51702
 H172 H 1.00960 -0.05549 0.50344
 C173 C 1.03564 -0.06101 0.53316
 H174 H 1.03501 -0.08102 0.53149
 N175 N 1.02206 -0.02137 0.51864
 C176 C 1.00958 0.03311 0.45991
 H177 H 0.98949 0.03300 0.45928
 C178 C 1.02309 0.04752 0.44295
 H179 H 1.01321 0.05837 0.42920
 C180 C 1.04677 0.01813 0.47795
 H181 H 1.05595 0.00635 0.49133
 C182 C 1.06101 0.03226 0.46134
 H183 H 1.08107 0.03156 0.46251
 Zn184 Zn 1.00178 -0.00125 0.49823
 N185 N 1.02153 0.01890 0.47703
 C186 C 0.98285 0.04372 0.51871
 N187 N 0.98215 0.01852 0.51986
 C188 C 0.96847 0.00660 0.53759
 C189 C 0.95452 0.02009 0.55495
 C190 C 0.96918 0.05794 0.53571
 C191 C 0.99307 -0.03438 0.45918
 C192 C 0.97923 -0.04844 0.44231
 C193 C 0.94175 -0.03501 0.46333
 C194 C 0.95631 -0.02105 0.47971
 N195 N 0.98150 -0.02109 0.47743
 H196 H 0.99422 0.05288 0.50482
 H197 H 0.96865 -0.01346 0.53840
 H198 H 0.94411 0.01023 0.56918
 H199 H 0.96981 0.07798 0.53438
 H200 H 1.01312 -0.03384 0.45763
 H201 H 0.98877 -0.05896 0.42795
 H202 H 0.92171 -0.03450 0.46517
 H203 H 0.94741 -0.00993 0.49395
 C204 C 1.04918 0.04716 0.44348
 C205 C 1.05059 -0.04946 0.55121
 C206 C 0.95321 -0.04881 0.44424
 C207 C 0.95483 0.04613 0.55421
 C208 C 0.14188 0.31818 1.14402
 C209 C 0.13168 0.30665 1.16519
 C210 C 0.14428 0.28745 1.17719
 C211 C 0.16761 0.27899 1.16835
 C212 C 0.17787 0.29111 1.14724
 C213 C 0.16520 0.31034 1.13532
 C214 C 0.12802 0.33799 1.13080
 C215 C 0.14042 0.35904 1.12150
 C216 C 0.12736 0.37746 1.10871
 C217 C 0.10162 0.37522 1.10493
 C218 C 0.08923 0.35420 1.11432
 C219 C 0.10227 0.33582 1.12710
 C220 C 0.08774 0.39454 1.09100
 C221 C 0.06390 0.40186 1.09886
 C222 C 0.05053 0.41951 1.08537
 C223 C 0.06070 0.43026 1.06368
 C224 C 0.08465 0.42313 1.05596
 C225 C 0.09803 0.40549 1.06947
 H226 H 0.11387 0.31255 1.17258
 H227 H 0.13521 0.27927 1.19320
 H228 H 0.19572 0.28604 1.13956
 H229 H 0.17349 0.31876 1.11892
 H230 H 0.16019 0.36141 1.12436
 H231 H 0.13737 0.39360 1.10202
 H232 H 0.06950 0.35171 1.11133
 H233 H 0.09227 0.31962 1.13366
 H234 H 0.05557 0.39398 1.11552
 H235 H 0.03202 0.42439 1.09167
 H236 H 0.09310 0.43126 1.03949
 H237 H 0.11626 0.40007 1.06279
 C238 C -0.14725 0.68428 1.14834
 C239 C -0.16786 0.69554 1.13715
 C240 C -0.18069 0.71462 1.14929
 C241 C -0.17327 0.72318 1.17312
 C242 C -0.15277 0.71130 1.18439
 C243 C -0.14001 0.69223 1.17217
 C244 C -0.13301 0.66474 1.13493
 C245 C -0.10691 0.66453 1.13571
 C246 C -0.09341 0.64667 1.12249
 C247 C -0.10568 0.62858 1.10817
 C248 C -0.13179 0.62859 1.10763
 C249 C -0.14531 0.64649 1.12083
 C250 C -0.09125 0.61008 1.09354
 C251 C -0.09900 0.58519 1.09225
 C252 C -0.08538 0.56786 1.07837
 C253 C -0.06373 0.57506 1.06547
 C254 C -0.05604 0.59996 1.06672
 C255 C -0.06964 0.61725 1.08058
 H256 H -0.17372 0.69004 1.11862
 H257 H -0.19601 0.72283 1.13936
 H258 H -0.14639 0.71632 1.20280
 H259 H -0.12447 0.68356 1.18152
 H260 H -0.09687 0.67849 1.14618
 H261 H -0.07332 0.64698 1.12353
 H262 H -0.14178 0.61503 1.09660
 H263 H -0.16540 0.64601 1.12007
 H264 H -0.11539 0.57902 1.10229
 H265 H -0.09160 0.54875 1.07803
 H266 H -0.03972 0.60619 1.05661
 H267 H -0.06344 0.63638 1.08082
 C268 C -0.14266 0.31607 0.85712
 C269 C -0.16584 0.30746 0.86548
 C270 C -0.17781 0.28789 0.85329
 C271 C -0.16693 0.27618 0.83223
 C272 C -0.14382 0.28550 0.82367
 C273 C -0.13193 0.30503 0.83595
 C274 C -0.12944 0.33614 0.87071
 C275 C -0.10369 0.33459 0.87466
 C276 C -0.09120 0.35324 0.88769
 C277 C -0.10413 0.37391 0.89707
 C278 C -0.12989 0.37549 0.89309
 C279 C -0.14241 0.35680 0.88006
 C280 C -0.09077 0.39357 0.91113
 C281 C -0.10142 0.40431 0.93259
 C282 C -0.08846 0.42223 0.94624
 C283 C -0.06458 0.42986 0.93872
 C284 C -0.05407 0.41933 0.91708
 C285 C -0.06702 0.40142 0.90345
 H286 H -0.17454 0.31552 0.88187
 H287 H -0.19554 0.28213 0.86079
 H288 H -0.13437 0.27779 0.80765
 H289 H -0.11424 0.31156 0.82878
 H290 H -0.09326 0.31869 0.86809
 H291 H -0.07144 0.35123 0.89084
 H292 H -0.14032 0.39135 0.89978
 H293 H -0.16220 0.35867 0.87703
 H294 H -0.11959 0.39850 0.93912
 H295 H -0.09717 0.43018 0.96268
 H296 H -0.03561 0.42458 0.91094
 H297 H -0.05843 0.39373 0.88683
 C298 C 0.14313 0.68284 0.85304
 C299 C 0.16392 0.69406 0.86401
 C300 C 0.17673 0.71308 0.85174
 C301 C 0.16909 0.72163 0.82800
 C302 C 0.14845 0.70973 0.81691
 C303 C 0.13571 0.69071 0.82926
 C304 C 0.12884 0.66345 0.86666
 C305 C 0.10273 0.66339 0.86612
 C306 C 0.08920 0.64571 0.87957
 C307 C 0.10144 0.62766 0.89388
 C308 C 0.12756 0.62751 0.89417
 C309 C 0.14111 0.64523 0.88073
 C310 C 0.08698 0.60937 0.90877
 C311 C 0.09451 0.58444 0.91013
 C312 C 0.08086 0.56731 0.92423
 C313 C 0.05937 0.57473 0.93726
 C314 C 0.05191 0.59967 0.93594
 C315 C 0.06554 0.61678 0.92186
 H316 H 0.16993 0.68860 0.88249
 H317 H 0.19217 0.72129 0.86151
 H318 H 0.14192 0.71471 0.79857
 H319 H 0.12004 0.68205 0.82008
 H320 H 0.09272 0.67733 0.85567
 H321 H 0.06910 0.64613 0.87872
 H322 H 0.13753 0.61398 0.90519
 H323 H 0.16121 0.64463 0.88132
 H324 H 0.11076 0.57810 0.89998
 H325 H 0.08690 0.54816 0.92462
 H326 H 0.03572 0.60607 0.94614
 H327 H 0.05952 0.63593 0.92157
 C328 C 1.14468 0.14364 0.31256
 C329 C 1.16577 0.13358 0.30091
 C330 C 1.17795 0.14637 0.28174
 C331 C 1.16936 0.16974 0.27344
 C332 C 1.14829 0.17983 0.28564
 C333 C 1.13620 0.16698 0.30484
 C334 C 1.13133 0.12965 0.33241
 C335 C 1.12206 0.14186 0.35372
 C336 C 1.10919 0.12868 0.37218
 C337 C 1.10528 0.10300 0.36975
 C338 C 1.11462 0.09079 0.34848
 C339 C 1.12750 0.10396 0.33004
 C340 C 1.09128 0.08899 0.38914
 C341 C 1.09892 0.06512 0.39632
 C342 C 1.08541 0.05167 0.41409
 C343 C 1.06392 0.06177 0.42511
 C344 C 1.05640 0.08573 0.41811
 C345 C 1.06993 0.09919 0.40034
 H346 H 1.17297 0.11574 0.30671
 H347 H 1.19386 0.13739 0.27342
 H348 H 1.14084 0.19772 0.28070
 H349 H 1.11986 0.17516 0.31337
 H350 H 1.12503 0.16158 0.35624
 H351 H 1.10254 0.13855 0.38852
 H352 H 1.11154 0.07111 0.34583
 H353 H 1.13405 0.09409 0.31365
 H354 H 1.11544 0.05686 0.38825
 H355 H 1.09154 0.03316 0.41886
 H356 H 1.04008 0.09413 0.42645
 H357 H 1.06342 0.11743 0.39504
 C358 C 1.14549 -0.14549 0.68162
 C359 C 1.16889 -0.13764 0.68991
 C360 C 1.18088 -0.14998 0.70936
 C361 C 1.16980 -0.17067 0.72128
 C362 C 1.14637 -0.17863 0.71244
 C363 C 1.13446 -0.16621 0.69298
 C364 C 1.13243 -0.13182 0.66150
 C365 C 1.11912 -0.14465 0.64300
 C366 C 1.10640 -0.13170 0.62441
 C367 C 1.10671 -0.10562 0.62391
 C368 C 1.12017 -0.09281 0.64231
 C369 C 1.13287 -0.10575 0.66089
 C370 C 1.09273 -0.09177 0.60457
 C371 C 1.10290 -0.07037 0.59353
 C372 C 1.08937 -0.05684 0.57600
 C373 C 1.06536 -0.06439 0.56909
 C374 C 1.05532 -0.08600 0.57986
 C375 C 1.06885 -0.09953 0.59740
 H376 H 1.17811 -0.12199 0.68118
 H377 H 1.19897 -0.14316 0.71460
 H378 H 1.13660 -0.19409 0.72069
 H379 H 1.11626 -0.17254 0.68721
 H380 H 1.11873 -0.16474 0.64275
 H381 H 1.09650 -0.14210 0.61028
 H382 H 1.12042 -0.07272 0.64269
 H383 H 1.14260 -0.09531 0.67511
 H384 H 1.12141 -0.06416 0.59836
 H385 H 1.09778 -0.04051 0.56773
 H386 H 1.03673 -0.09209 0.57521
 H387 H 1.06036 -0.11573 0.60583
 C388 C 0.85116 -0.14324 0.31797
 C389 C 0.85752 -0.16772 0.31185
 C390 C 0.84490 -0.18043 0.29299
 C391 C 0.82534 -0.16906 0.27970
 C392 C 0.81868 -0.14460 0.28656
 C393 C 0.83149 -0.13191 0.30528
 C394 C 0.86543 -0.12933 0.33707
 C395 C 0.87277 -0.10470 0.33257
 C396 C 0.88684 -0.09175 0.35016
 C397 C 0.89373 -0.10309 0.37271
 C398 C 0.88614 -0.12762 0.37736
 C399 C 0.87222 -0.14065 0.35966
 C400 C 0.90904 -0.08941 0.39114
 C401 C 0.90328 -0.09033 0.41676
 C402 C 0.91760 -0.07715 0.43402
 C403 C 0.93809 -0.06299 0.42603
 C404 C 0.94394 -0.06224 0.40043
 C405 C 0.92953 -0.07524 0.38317
 H406 H 0.87269 -0.17691 0.32131
 H407 H 0.85056 -0.19928 0.28923
 H408 H 0.80409 -0.13464 0.27713
 H409 H 0.82601 -0.11310 0.30982
 H410 H 0.86800 -0.09559 0.31522
 H411 H 0.89223 -0.07279 0.34619
 H412 H 0.89134 -0.13686 0.39451
 H413 H 0.86666 -0.15955 0.36368
 H414 H 0.88749 -0.10096 0.42339
 H415 H 0.91278 -0.07819 0.45366
 H416 H 0.95948 -0.05129 0.39371
 H417 H 0.93453 -0.07439 0.36356
 C418 C 0.86227 0.14112 0.68828
 C419 C 0.83908 0.13266 0.69677
 C420 C 0.82664 0.14486 0.71618
 C421 C 0.83701 0.16603 0.72782
 C422 C 0.86031 0.17450 0.71887
 C423 C 0.87269 0.16221 0.69949
 C424 C 0.87570 0.12782 0.66800
 C425 C 0.90148 0.12405 0.66947
 C426 C 0.91410 0.11126 0.65058
 C427 C 0.90124 0.10196 0.62977
 C428 C 0.87547 0.10582 0.62825
 C429 C 0.86283 0.11860 0.64716
 C430 C 0.91466 0.08805 0.60990
 C431 C 0.90409 0.06672 0.59915
 C432 C 0.91700 0.05326 0.58093
 C433 C 0.94077 0.06084 0.57302
 C434 C 0.95122 0.08232 0.58357
 C435 C 0.93832 0.09576 0.60181
 H436 H 0.83065 0.11630 0.68863
 H437 H 0.80881 0.13744 0.72169
 H438 H 0.86951 0.19043 0.72680
 H439 H 0.89043 0.16936 0.69314
 H440 H 0.91184 0.13057 0.68548
 H441 H 0.93388 0.10822 0.65251
 H442 H 0.86510 0.09921 0.61228
 H443 H 0.84303 0.12154 0.64532
 H444 H 0.88600 0.06016 0.60516
 H445 H 0.90833 0.03695 0.57297
 H446 H 0.96960 0.08850 0.57808
 H447 H 0.94685 0.11227 0.60952
 C448 C 0.31566 1.14833 0.13930
 C449 C 0.31292 1.14594 0.16531
 C450 C 0.29383 1.15834 0.17795
 C451 C 0.27703 1.17343 0.16488
 C452 C 0.28006 1.17615 0.13892
 C453 C 0.29914 1.16375 0.12629
 C454 C 0.33521 1.13425 0.12569
 C455 C 0.32995 1.12303 0.10259
 C456 C 0.34805 1.10923 0.09002
 C457 C 0.37187 1.10627 0.10025
 C458 C 0.37724 1.11768 0.12323
 C459 C 0.35910 1.13149 0.13583
 C460 C 0.39087 1.09108 0.08709
 C461 C 0.41583 1.09875 0.08605
 C462 C 0.43357 1.08451 0.07335
 C463 C 0.42674 1.06226 0.06148
 C464 C 0.40180 1.05454 0.06266
 C465 C 0.38409 1.06876 0.07532
 H466 H 0.32520 1.13403 0.17585
 H467 H 0.29222 1.15609 0.19797
 H468 H 0.26735 1.18740 0.12822
 H469 H 0.30094 1.16621 0.10628
 H470 H 0.31165 1.12456 0.09441
 H471 H 0.34342 1.10094 0.07220
 H472 H 0.39535 1.11558 0.13170
 H473 H 0.36381 1.14011 0.15347
 H474 H 0.42159 1.11596 0.09475
 H475 H 0.45267 1.09084 0.07295
 H476 H 0.39586 1.03767 0.05345
 H477 H 0.36508 1.06218 0.07605
 C478 C 0.68603 1.14292 -0.14274
 C479 C 0.69957 1.16128 -0.13012
 C480 C 0.71933 1.17344 -0.14195
 C481 C 0.72582 1.16774 -0.16683
 C482 C 0.71180 1.14966 -0.17955
 C483 C 0.69227 1.13728 -0.16758
 C484 C 0.66580 1.12929 -0.12983
 C485 C 0.66462 1.10331 -0.13115
 C486 C 0.64602 1.09032 -0.11838
 C487 C 0.62795 1.10304 -0.10425
 C488 C 0.62901 1.12913 -0.10328
 C489 C 0.64783 1.14209 -0.11579
 C490 C 0.60840 1.08913 -0.09030
 C491 C 0.60002 1.09746 -0.06682
 C492 C 0.58212 1.08408 -0.05345
 C493 C 0.57232 1.06184 -0.06305
 C494 C 0.58058 1.05359 -0.08660
 C495 C 0.59826 1.06713 -0.10011
 H496 H 0.69527 1.16577 -0.11085
 H497 H 0.72978 1.18690 -0.13131
 H498 H 0.71577 1.14506 -0.19882
 H499 H 0.68188 1.12339 -0.17781
 H500 H 0.67847 1.09300 -0.14159
 H501 H 0.64615 1.07025 -0.11917
 H502 H 0.61516 1.13959 -0.09301
 H503 H 0.64820 1.16215 -0.11473
 H504 H 0.60760 1.11412 -0.05850
 H505 H 0.57594 1.09124 -0.03557
 H506 H 0.57373 1.03641 -0.09448
 H507 H 0.60394 1.06033 -0.11829
 C508 C 0.31520 0.85504 -0.14535
 C509 C 0.31132 0.85861 -0.17102
 C510 C 0.29239 0.84586 -0.18339
 C511 C 0.27673 0.82938 -0.17033
 C512 C 0.28083 0.82568 -0.14466
 C513 C 0.29989 0.83829 -0.13234
 C514 C 0.33477 0.86914 -0.13204
 C515 C 0.35023 0.85730 -0.11467
 C516 C 0.36829 0.87077 -0.10173
 C517 C 0.37107 0.89639 -0.10572
 C518 C 0.35569 0.90820 -0.12318
 C519 C 0.33780 0.89469 -0.13629
 C520 C 0.38968 0.91084 -0.09144
 C521 C 0.38331 0.93386 -0.08093
 C522 C 0.40068 0.94739 -0.06717
 C523 C 0.42492 0.93830 -0.06379
 C524 C 0.43130 0.91529 -0.07446
 C525 C 0.41384 0.90167 -0.08805
 H526 H 0.32308 0.87117 -0.18156
 H527 H 0.29014 0.84884 -0.20323
 H528 H 0.26896 0.81349 -0.13386
 H529 H 0.30227 0.83543 -0.11247
 H530 H 0.34840 0.83759 -0.11118
 H531 H 0.37978 0.86125 -0.08825
 H532 H 0.35758 0.92788 -0.12677
 H533 H 0.32599 0.90433 -0.14941
 H534 H 0.36470 0.94119 -0.08294
 H535 H 0.39496 0.96477 -0.05881
 H536 H 0.44990 0.90793 -0.07258
 H537 H 0.41932 0.88411 -0.09621
 C538 C 0.67996 0.85422 0.14509
 C539 C 0.69518 0.86750 0.16163
 C540 C 0.71431 0.85559 0.17444
 C541 C 0.71858 0.83003 0.17114
 C542 C 0.70305 0.81671 0.15483
 C543 C 0.68404 0.82868 0.14188
 C544 C 0.66028 0.86711 0.13082
 C545 C 0.65720 0.86239 0.10520
 C546 C 0.63931 0.87521 0.09151
 C547 C 0.62397 0.89287 0.10319
 C548 C 0.62676 0.89730 0.12890
 C549 C 0.64482 0.88463 0.14255
 C550 C 0.60551 0.90702 0.08848
 C551 C 0.58140 0.91098 0.09780
 C552 C 0.56415 0.92458 0.08399
 C553 C 0.57070 0.93469 0.06064
 C554 C 0.59488 0.93070 0.05139
 C555 C 0.61204 0.91695 0.06511
 H556 H 0.69268 0.88728 0.16419
 H557 H 0.72609 0.86658 0.18646
 H558 H 0.70545 0.79696 0.15215
 H559 H 0.67236 0.81793 0.12949
 H560 H 0.66900 0.84914 0.09564
 H561 H 0.63741 0.87129 0.07176
 H562 H 0.61532 0.91094 0.13833
 H563 H 0.64666 0.88849 0.16232
 H564 H 0.57579 0.90328 0.11564
 H565 H 0.54558 0.92694 0.09150
 H566 H 0.60075 0.93862 0.03375
 H567 H 0.63063 0.91452 0.05766
   
