data_POSCAR
  _audit_creation_date              2014-09-24
  _audit_creation_method            'ToBaCCo'
  _symmetry_space_group_name_H-M    'P1'
  _symmetry_Int_Tables_number       1
  _symmetry_cell_setting            triclinic
  loop_
  _symmetry_equiv_pos_as_xyz
 x,y,z
_cell_length_a 29.3312
_cell_length_b 29.8598
_cell_length_c 7.8690
_cell_angle_alpha 89.946100
_cell_angle_beta 89.755400
_cell_angle_gamma 89.886000
loop_
  _atom_site_label
  _atom_site_type_symbol
  _atom_site_fract_x
  _atom_site_fract_y
  _atom_site_fract_z
O1 O 0.22981 0.29655 -0.01030
 O2 O 0.30427 0.20154 0.10056
 O3 O 0.21913 0.21067 0.00975
 O4 O 0.31397 0.28908 0.08507
 O5 O 0.29458 0.29512 0.35537
 O6 O 0.20079 0.21665 0.27931
 O7 O 0.28586 0.20813 0.37177
 O8 O 0.21145 0.30261 0.26150
 Cu9 Cu 0.26938 0.24847 0.02007
 Cu10 Cu 0.24607 0.25584 0.34351
 C11 C 0.20823 0.31598 0.10911
 C12 C 0.30762 0.18852 0.25335
 C13 C 0.19248 0.20125 0.13271
 C14 C 0.31929 0.30683 0.23025
 O15 O 0.81620 0.28755 0.41613
 O16 O 0.72097 0.20877 0.47600
 O17 O 0.80608 0.20024 0.38613
 O18 O 0.73152 0.29414 0.51093
 O19 O 0.71391 0.30307 0.24007
 O20 O 0.78836 0.20942 0.11592
 O21 O 0.70335 0.21744 0.20736
 O22 O 0.79750 0.29628 0.14681
 Cu23 Cu 0.77122 0.24644 0.47347
 Cu24 Cu 0.74889 0.25724 0.15107
 C25 C 0.82190 0.30668 0.27346
 C26 C 0.69479 0.20042 0.35143
 C27 C 0.80944 0.18835 0.23196
 C28 C 0.71009 0.31469 0.39440
 O29 O 0.72364 0.80004 0.62175
 O30 O 0.79720 0.70427 0.72492
 O31 O 0.71405 0.71360 0.62136
 O32 O 0.80790 0.79090 0.71332
 O33 O 0.78794 0.79304 0.98295
 O34 O 0.69397 0.71517 0.89138
 O35 O 0.77755 0.70759 0.99476
 O36 O 0.70279 0.80278 0.89114
 Cu37 Cu 0.76298 0.75188 0.64419
 Cu38 Cu 0.73786 0.75525 0.96624
 C39 C 0.70084 0.81811 0.74088
 C40 C 0.80020 0.68934 0.87579
 C41 C 0.68790 0.70101 0.74115
 C42 C 0.81493 0.80447 0.86377
 O43 O 0.21616 0.71387 0.87071
 O44 O 0.30887 0.79172 0.76604
 O45 O 0.22613 0.80058 0.86944
 O46 O 0.29940 0.70471 0.76246
 O47 O 0.28043 0.71055 0.49388
 O48 O 0.20038 0.80084 0.60757
 O49 O 0.28343 0.79786 0.50286
 O50 O 0.19560 0.71380 0.60138
 Cu51 Cu 0.26514 0.75212 0.84349
 Cu52 Cu 0.23747 0.75564 0.52475
 C53 C 0.18998 0.70049 0.75324
 C54 C 0.31079 0.80932 0.61951
 C55 C 0.20107 0.81785 0.75557
 C56 C 0.30302 0.69123 0.60998
 O57 O 1.05751 -0.04373 0.06463
 O58 O 0.96299 0.03084 0.18922
 O59 O 0.96968 -0.05289 0.10752
 O60 O 1.05052 0.03907 0.16086
 O61 O 1.04043 0.05825 -0.10729
 O62 O 0.96347 -0.03851 -0.16439
 O63 O 0.95288 0.04620 -0.08234
 O64 O 1.05018 -0.02450 -0.20474
 Cu65 Cu 1.01120 -0.00889 0.15645
 Cu66 Cu 1.00053 0.01239 -0.16607
 C67 C 1.07058 -0.04629 -0.08904
 C68 C 0.94159 0.05126 0.07216
 C69 C 0.95355 -0.06276 -0.03620
 C70 C 1.05833 0.06521 0.03707
 O71 O 0.47462 0.46759 0.27313
 O72 O 0.55127 0.55632 0.42096
 O73 O 0.56153 0.47247 0.34537
 O74 O 0.46452 0.55117 0.36725
 O75 O 0.45232 0.53133 0.63366
 O76 O 0.54822 0.45224 0.61056
 O77 O 0.53918 0.53678 0.68800
 O78 O 0.46062 0.44895 0.53863
 Cu79 Cu 0.51426 0.51368 0.32504
 Cu80 Cu 0.49897 0.48992 0.64359
 C81 C 0.45321 0.44388 0.38068
 C82 C 0.55803 0.56209 0.57840
 C83 C 0.57195 0.44958 0.47584
 C84 C 0.44186 0.55472 0.50473
 O85 O 0.03994 0.53870 -0.18558
 O86 O -0.03882 0.45097 -0.03471
 O87 O -0.04754 0.53226 -0.14323
 O88 O 0.04875 0.45460 -0.10578
 O89 O 0.05982 0.47572 0.15922
 O90 O -0.03846 0.55272 0.12420
 O91 O -0.02669 0.47070 0.23033
 O92 O 0.04972 0.55954 0.08109
 Cu93 Cu -0.00036 0.49169 -0.14314
 Cu94 Cu 0.01217 0.51687 0.17500
 C95 C 0.05803 0.56432 -0.07601
 C96 C -0.04694 0.44623 0.12335
 C97 C -0.05975 0.55548 -0.01610
 C98 C 0.07140 0.45243 0.03084
 O99 O 0.45525 1.05214 0.56484
 O100 O 0.54686 0.97564 0.69367
 O101 O 0.54264 1.05893 0.59109
 O102 O 0.45822 0.96987 0.65903
 O103 O 0.46774 0.94818 0.39251
 O104 O 0.55038 1.03847 0.32290
 O105 O 0.55609 0.95605 0.42498
 O106 O 0.46272 1.03120 0.29723
 Cu107 Cu 0.50018 1.01616 0.65429
 Cu108 Cu 0.51029 0.99097 0.33308
 C109 C 0.44284 1.05445 0.41085
 C110 C 0.56753 0.95325 0.57989
 C111 C 0.55983 1.06472 0.44438
 C112 C 0.44804 0.94453 0.53551
 C113 C 1.11747 0.16830 0.22526
 C114 C 1.15466 0.17260 0.10716
 C115 C 1.15454 0.14558 -0.03945
 C116 C 1.12227 0.11208 -0.06173
 C117 C 1.08879 0.10405 0.06124
 C118 C 1.08509 0.13303 0.20345
 C119 C 1.10969 0.19943 0.35869
 C120 C 1.07396 0.19384 0.47397
 C121 C 1.04375 0.15853 0.45581
 C122 C 1.04850 0.12898 0.32037
 H123 H 1.12916 0.22972 0.37291
 H124 H 1.06902 0.21780 0.57562
 H125 H 1.01556 0.15486 0.54402
 H126 H 1.02230 0.10391 0.30654
 H127 H 1.18110 0.14857 -0.13491
 H128 H 1.12473 0.09091 -0.17324
 C129 C 0.60872 0.66657 0.79025
 C130 C 0.65170 0.66773 0.70517
 C131 C 0.66158 0.63521 0.58218
 C132 C 0.63083 0.60145 0.54506
 C133 C 0.58916 0.59829 0.63118
 C134 C 0.57749 0.63108 0.75457
 C135 C 0.59502 0.70070 0.90416
 C136 C 0.55275 0.69902 0.98559
 C137 C 0.52285 0.66402 0.95328
 C138 C 0.53472 0.63061 0.83780
 H139 H 0.61583 0.72973 0.92844
 H140 H 0.54289 0.72539 1.07268
 H141 H 0.48991 0.66316 1.01587
 H142 H 0.50967 0.60504 0.81304
 H143 H 0.69389 0.63550 0.51494
 H144 H 0.63997 0.57718 0.44849
 C145 C -0.13946 0.37903 0.36610
 C146 C -0.14337 0.34212 0.25303
 C147 C -0.11597 0.34042 0.10768
 C148 C -0.08482 0.37405 0.07219
 C149 C -0.07989 0.41121 0.17957
 C150 C -0.10753 0.41402 0.32952
 C151 C -0.16806 0.38308 0.51069
 C152 C -0.16472 0.41966 0.61925
 C153 C -0.13379 0.45355 0.58466
 C154 C -0.10599 0.45124 0.44094
 H155 H -0.19395 0.35873 0.54099
 H156 H -0.18674 0.42202 0.72972
 H157 H -0.13178 0.48224 0.66838
 H158 H -0.08427 0.47960 0.41996
 H159 H -0.11887 0.31270 0.01955
 H160 H -0.06437 0.37092 -0.04222
 C161 C 0.33114 0.89068 0.58469
 C162 C 0.34416 0.84495 0.58824
 C163 C 0.39018 0.83314 0.57440
 C164 C 0.42350 0.86594 0.55597
 C165 C 0.41163 0.91134 0.55596
 C166 C 0.36526 0.92424 0.57009
 C167 C 0.28499 0.90385 0.59755
 C168 C 0.27278 0.94900 0.59653
 C169 C 0.30615 0.98184 0.58160
 C170 C 0.35196 0.96974 0.56825
 H171 H 0.25802 0.87949 0.60735
 H172 H 0.23723 0.95850 0.60660
 H173 H 0.29651 1.01685 0.58008
 H174 H 0.37671 0.99631 0.55664
 H175 H 0.40036 0.79824 0.57835
 H176 H 0.45890 0.85590 0.54431
 C177 C -0.17129 0.62151 0.04994
 C178 C -0.16759 0.65185 -0.08973
 C179 C -0.13085 0.64712 -0.20317
 C180 C -0.09733 0.61513 -0.17791
 C181 C -0.09818 0.58717 -0.03571
 C182 C -0.13575 0.58946 0.07832
 C183 C -0.20996 0.62067 0.15806
 C184 C -0.21272 0.59058 0.29338
 C185 C -0.17773 0.56012 0.32238
 C186 C -0.13983 0.55916 0.21524
 H187 H -0.23925 0.64180 0.13759
 H188 H -0.24259 0.59036 0.37463
 H189 H -0.18041 0.53650 0.42637
 H190 H -0.11439 0.53382 0.23836
 H191 H -0.12731 0.66906 -0.31220
 H192 H -0.06979 0.61295 -0.26935
 C193 C 0.33735 1.10935 0.20892
 C194 C 0.33867 1.15123 0.29407
 C195 C 0.37174 1.15891 0.41764
 C196 C 0.40473 1.12690 0.45259
 C197 C 0.40562 1.08582 0.36645
 C198 C 0.37087 1.07605 0.24652
 C199 C 0.30249 1.09923 0.09173
 C200 C 0.30066 1.05744 0.01314
 C201 C 0.33287 1.02475 0.05146
 C202 C 0.36745 1.03366 0.16769
 H203 H 0.27583 1.12303 0.06229
 H204 H 0.27368 1.05013 -0.07610
 H205 H 0.33074 0.99211 -0.00778
 H206 H 0.39051 1.00656 0.19709
 H207 H 0.37299 1.19069 0.48396
 H208 H 0.43054 1.13480 0.54602
 C209 C 1.18230 -0.11332 -0.07433
 C210 C 1.17352 -0.14440 -0.20876
 C211 C 1.13526 -0.13712 -0.31267
 C212 C 1.10352 -0.10402 -0.27525
 C213 C 1.10880 -0.07643 -0.13367
 C214 C 1.14923 -0.07949 -0.03579
 C215 C 1.22424 -0.11255 0.01482
 C216 C 1.23216 -0.08151 0.14344
 C217 C 1.19932 -0.04968 0.18382
 C218 C 1.15854 -0.04815 0.09415
 H219 H 1.25251 -0.13405 -0.01753
 H220 H 1.26448 -0.08150 0.20944
 H221 H 1.20603 -0.02520 0.28194
 H222 H 1.13528 -0.02115 0.12410
 H223 H 1.12809 -0.15889 -0.41939
 H224 H 1.07334 -0.10137 -0.35367
 C225 C 0.68740 0.39592 0.36895
 C226 C 0.67978 0.35247 0.43558
 C227 C 0.64005 0.34365 0.52821
 C228 C 0.60629 0.37621 0.54489
 C229 C 0.61140 0.41858 0.47009
 C230 C 0.65325 0.42955 0.38848
 C231 C 0.72869 0.40685 0.28587
 C232 C 0.73671 0.45019 0.22717
 C233 C 0.70384 0.48335 0.24961
 C234 C 0.66253 0.47332 0.32941
 H235 H 0.75540 0.38227 0.26844
 H236 H 0.76877 0.45821 0.16563
 H237 H 0.71047 0.51710 0.20583
 H238 H 0.63865 0.50044 0.34762
 H239 H 0.63405 0.31056 0.58032
 H240 H 0.57498 0.36751 0.61053
 C241 C 0.87650 -0.16601 0.05249
 C242 C 0.85232 -0.16709 -0.10460
 C243 C 0.86658 -0.13873 -0.23681
 C244 C 0.89979 -0.10646 -0.21157
 C245 C 0.92199 -0.10190 -0.05499
 C246 C 0.91228 -0.13390 0.07647
 C247 C 0.86876 -0.19853 0.18092
 C248 C 0.89333 -0.19832 0.33153
 C249 C 0.92794 -0.16754 0.35490
 C250 C 0.93823 -0.13658 0.22813
 H251 H 0.84535 -0.22595 0.16527
 H252 H 0.88658 -0.22330 0.42824
 H253 H 0.94808 -0.16863 0.46992
 H254 H 0.96827 -0.11706 0.25064
 H255 H 0.84987 -0.13944 -0.35949
 H256 H 0.90723 -0.08398 -0.31620
 C257 C 0.35800 0.37977 0.14394
 C258 C 0.35394 0.34220 0.25419
 C259 C 0.38190 0.33924 0.39700
 C260 C 0.41400 0.37208 0.43161
 C261 C 0.41949 0.40953 0.32542
 C262 C 0.39114 0.41367 0.17878
 C263 C 0.32840 0.38548 0.00385
 C264 C 0.33211 0.42250 -0.10279
 C265 C 0.36451 0.45513 -0.07071
 C266 C 0.39324 0.45124 0.06908
 H267 H 0.30143 0.36215 -0.02399
 H268 H 0.30932 0.42614 -0.20985
 H269 H 0.36700 0.48406 -0.15334
 H270 H 0.41635 0.47852 0.08829
 H271 H 0.37888 0.31104 0.48309
 H272 H 0.43485 0.36807 0.54399
 C273 C 0.10942 0.66950 -0.27902
 C274 C 0.15372 0.66776 -0.20648
 C275 C 0.16450 0.63321 -0.09301
 C276 C 0.13307 0.60000 -0.05427
 C277 C 0.08995 0.59976 -0.12933
 C278 C 0.07761 0.63465 -0.24253
 C279 C 0.09513 0.70601 -0.38036
 C280 C 0.05136 0.70726 -0.44883
 C281 C 0.02086 0.67264 -0.41681
 C282 C 0.03365 0.63674 -0.31417
 H283 H 0.11680 0.73456 -0.40376
 H284 H 0.04090 0.73554 -0.52560
 H285 H -0.01317 0.67394 -0.46934
 H286 H 0.00864 0.61110 -0.28956
 H287 H 0.19788 0.63157 -0.03503
 H288 H 0.14272 0.57389 0.03431
 C289 C 0.62054 1.16706 0.25412
 C290 C 0.65732 1.17111 0.37298
 C291 C 0.65721 1.14322 0.51734
 C292 C 0.62499 1.10972 0.53828
 C293 C 0.59148 1.10239 0.41613
 C294 C 0.58813 1.13167 0.27455
 C295 C 0.61304 1.19852 0.12162
 C296 C 0.57766 1.19318 0.00590
 C297 C 0.54744 1.15780 0.02275
 C298 C 0.55185 1.12792 0.15736
 H299 H 0.63242 1.22890 0.10832
 H300 H 0.57296 1.21740 -0.09507
 H301 H 0.51951 1.15432 -0.06574
 H302 H 0.52563 1.10281 0.17008
 H303 H 0.68357 1.14577 0.61291
 H304 H 0.62723 1.08824 0.64912
 C305 C 0.18466 0.39650 0.15282
 C306 C 0.17835 0.35439 0.07335
 C307 C 0.14040 0.34737 -0.02961
 C308 C 0.10698 0.38019 -0.04517
 C309 C 0.11068 0.42124 0.04054
 C310 C 0.15094 0.43058 0.13410
 C311 C 0.22437 0.40572 0.24748
 C312 C 0.23118 0.44777 0.31953
 C313 C 0.19887 0.48144 0.29796
 C314 C 0.15925 0.47319 0.20573
 H315 H 0.25084 0.38089 0.26397
 H316 H 0.26197 0.45444 0.39051
 H317 H 0.20472 0.51429 0.35163
 H318 H 0.13611 0.50092 0.18823
 H319 H 0.13539 0.31532 -0.09128
 H320 H 0.07699 0.37266 -0.11980
 C321 C 0.68183 0.89149 0.59018
 C322 C 0.67029 0.85638 0.70467
 C323 C 0.62769 0.85697 0.78618
 C324 C 0.59554 0.88972 0.74864
 C325 C 0.60483 0.92275 0.62758
 C326 C 0.64855 0.92472 0.55014
 C327 C 0.72600 0.89536 0.51899
 C328 C 0.73662 0.93019 0.40753
 C329 C 0.70394 0.96223 0.36691
 C330 C 0.66039 0.95986 0.43801
 H331 H 0.75317 0.87248 0.55156
 H332 H 0.77059 0.93265 0.35401
 H333 H 0.71259 0.98949 0.28195
 H334 H 0.63656 0.98630 0.40711
 H335 H 0.61852 0.83088 0.87584
 H336 H 0.56239 0.88819 0.80975
 C337 C 0.83720 0.10844 0.27430
 C338 C 0.83922 0.15018 0.18775
 C339 C 0.87184 0.15668 0.06028
 C340 C 0.90401 0.12380 0.02421
 C341 C 0.90453 0.08314 0.11360
 C342 C 0.87012 0.07453 0.23672
 C343 C 0.80218 0.09901 0.39287
 C344 C 0.79984 0.05746 0.47341
 C345 C 0.83185 0.02440 0.43657
 C346 C 0.86651 0.03255 0.31876
 H347 H 0.77567 0.12309 0.42152
 H348 H 0.77264 0.05066 0.56319
 H349 H 0.82948 -0.00798 0.49793
 H350 H 0.88950 0.00525 0.29032
 H351 H 0.87349 0.18819 -0.00798
 H352 H 0.92967 0.13077 -0.07167
 C353 C 0.33559 0.62787 0.41839
 C354 C 0.33530 0.65369 0.57147
 C355 C 0.36795 0.64397 0.69650
 C356 C 0.40107 0.61148 0.67198
 C357 C 0.40402 0.58759 0.51982
 C358 C 0.37089 0.59528 0.39151
 C359 C 0.30121 0.63213 0.29336
 C360 C 0.30289 0.60731 0.14361
 C361 C 0.33769 0.57660 0.11651
 C362 C 0.37089 0.57004 0.23981
 H363 H 0.27174 0.65319 0.30920
 H364 H 0.27656 0.61142 0.04895
 H365 H 0.33843 0.55706 0.00076
 H366 H 0.39586 0.54443 0.21540
 H367 H 0.36858 0.66220 0.81545
 H368 H 0.42549 0.60575 0.77263
   
