data_POSCAR
  _audit_creation_date              2014-09-24
  _audit_creation_method            'ToBaCCo'
  _symmetry_space_group_name_H-M    'P1'
  _symmetry_Int_Tables_number       1
  _symmetry_cell_setting            triclinic
  loop_
  _symmetry_equiv_pos_as_xyz
 x,y,z
_cell_length_a 50.1912
_cell_length_b 50.2573
_cell_length_c 36.9773
_cell_angle_alpha 89.957900
_cell_angle_beta 89.983500
_cell_angle_gamma 89.916600
loop_
  _atom_site_label
  _atom_site_type_symbol
  _atom_site_fract_x
  _atom_site_fract_y
  _atom_site_fract_z
O1 O 0.02347 0.29238 -0.03462
 O2 O -0.02918 0.29125 0.03521
 O3 O 0.02317 0.29243 0.03591
 O4 O -0.02877 0.29130 -0.03479
 O5 O -0.02749 0.24735 -0.03482
 O6 O 0.02413 0.24848 0.03557
 O7 O -0.02742 0.24734 0.03597
 O8 O 0.02414 0.24842 -0.03451
 Cu9 Cu -0.00290 0.29628 0.00044
 Cu10 Cu -0.00162 0.24351 0.00055
 C11 C 0.03277 0.27050 -0.04635
 C12 C -0.03726 0.26904 0.04747
 C13 C 0.03257 0.27056 0.04758
 C14 C -0.03698 0.26909 -0.04672
 O15 O 0.47264 0.79233 0.53560
 O16 O 0.52478 0.79269 0.46510
 O17 O 0.47249 0.79237 0.46551
 O18 O 0.52494 0.79258 0.53558
 O19 O 0.52505 0.74862 0.53534
 O20 O 0.47326 0.74842 0.46514
 O21 O 0.52491 0.74873 0.46525
 O22 O 0.47340 0.74837 0.53589
 Cu23 Cu 0.49870 0.79694 0.50045
 Cu24 Cu 0.49912 0.74414 0.50041
 C25 C 0.46416 0.77024 0.54765
 C26 C 0.53378 0.77069 0.45334
 C27 C 0.46397 0.77030 0.45348
 C28 C 0.53399 0.77055 0.54722
 O29 O 1.02592 0.70824 0.03572
 O30 O 0.97368 0.70814 -0.03464
 O31 O 1.02599 0.70814 -0.03472
 O32 O 0.97359 0.70829 0.03547
 O33 O 0.97401 0.75225 0.03561
 O34 O 1.02572 0.75208 -0.03473
 O35 O 0.97410 0.75210 -0.03513
 O36 O 1.02566 0.75218 0.03538
 Cu37 Cu 0.99981 0.70377 0.00048
 Cu38 Cu 0.99980 0.75654 0.00027
 C39 C 1.03480 0.73031 0.04737
 C40 C 0.96503 0.73016 -0.04679
 C41 C 1.03488 0.73017 -0.04653
 C42 C 0.96490 0.73035 0.04740
 O43 O 0.52391 0.20678 0.53524
 O44 O 0.47174 0.20735 0.46484
 O45 O 0.52403 0.20689 0.46473
 O46 O 0.47164 0.20731 0.53492
 O47 O 0.47247 0.25126 0.53529
 O48 O 0.52419 0.25085 0.46499
 O49 O 0.47256 0.25131 0.46456
 O50 O 0.52409 0.25074 0.53508
 Cu51 Cu 0.49782 0.20264 0.49993
 Cu52 Cu 0.49830 0.25543 0.49998
 C53 C 0.53293 0.22875 0.54700
 C54 C 0.46329 0.22948 0.45280
 C55 C 0.53307 0.22888 0.45307
 C56 C 0.46317 0.22942 0.54698
 O57 O 0.70144 -0.02621 0.03441
 O58 O 0.70158 0.02543 -0.03725
 O59 O 0.70171 -0.02666 -0.03633
 O60 O 0.70107 0.02604 0.03363
 O61 O 0.74510 0.02612 0.03329
 O62 O 0.74573 -0.02644 -0.03515
 O63 O 0.74557 0.02559 -0.03586
 O64 O 0.74547 -0.02598 0.03398
 Cu65 Cu 0.69697 -0.00034 -0.00138
 Cu66 Cu 0.74984 -0.00015 -0.00086
 C67 C 0.72361 -0.03526 0.04565
 C68 C 0.72376 0.03463 -0.04820
 C69 C 0.72397 -0.03581 -0.04701
 C70 C 0.72313 0.03537 0.04469
 O71 O 0.20171 0.47476 0.53588
 O72 O 0.20165 0.52692 0.46501
 O73 O 0.20172 0.47472 0.46510
 O74 O 0.20173 0.52696 0.53580
 O75 O 0.24576 0.52686 0.53493
 O76 O 0.24574 0.47472 0.46585
 O77 O 0.24568 0.52682 0.46576
 O78 O 0.24574 0.47477 0.53502
 Cu79 Cu 0.19723 0.50085 0.50045
 Cu80 Cu 0.25010 0.50079 0.50038
 C81 C 0.22389 0.46556 0.54683
 C82 C 0.22381 0.53608 0.45400
 C83 C 0.22388 0.46551 0.45411
 C84 C 0.22390 0.53612 0.54673
 O85 O 0.29465 1.02787 0.03532
 O86 O 0.29511 0.97532 -0.03459
 O87 O 0.29468 1.02765 -0.03487
 O88 O 0.29509 0.97553 0.03570
 O89 O 0.25107 0.97556 0.03557
 O90 O 0.25069 1.02700 -0.03482
 O91 O 0.25109 0.97532 -0.03446
 O92 O 0.25066 1.02724 0.03523
 Cu93 Cu 0.29934 1.00161 0.00039
 Cu94 Cu 0.24650 1.00125 0.00038
 C95 C 0.27248 1.03671 0.04685
 C96 C 0.27308 0.96623 -0.04611
 C97 C 0.27252 1.03641 -0.04653
 C98 C 0.27305 0.96653 0.04733
 O99 O 0.79628 0.47310 0.46439
 O100 O 0.79647 0.52519 0.53485
 O101 O 0.79625 0.47290 0.53464
 O102 O 0.79638 0.52541 0.46458
 O103 O 0.75236 0.52528 0.46475
 O104 O 0.75223 0.47341 0.53456
 O105 O 0.75244 0.52507 0.53479
 O106 O 0.75226 0.47360 0.46455
 Cu107 Cu 0.80081 0.49913 0.49960
 Cu108 Cu 0.74794 0.49936 0.49966
 C109 C 0.77415 0.46433 0.45281
 C110 C 0.77439 0.53413 0.54651
 C111 C 0.77411 0.46408 0.54620
 C112 C 0.77428 0.53442 0.45305
 C113 C 0.20740 0.23054 0.15426
 C114 C 0.22708 0.21165 0.15312
 C115 C 0.24064 0.21326 0.18569
 N116 N 0.22995 0.23256 0.20667
 C117 C 0.20954 0.24306 0.18753
 C118 C 0.26115 0.19579 0.19672
 C119 C 0.27809 0.20139 0.22627
 C120 C 0.29512 0.18325 0.24254
 C121 C 0.30919 0.19695 0.26842
 C122 C 0.30011 0.22306 0.26766
 N123 N 0.28134 0.22559 0.24163
 C124 C 0.31053 0.24425 0.28847
 C125 C 0.29745 0.26911 0.29170
 C126 C 0.30829 0.29177 0.30718
 C127 C 0.28840 0.31042 0.30831
 C128 C 0.26577 0.29847 0.29433
 N129 N 0.27140 0.27327 0.28397
 C130 C 0.23991 0.30984 0.29445
 C131 C 0.21876 0.29920 0.27371
 C132 C 0.19198 0.30529 0.27816
 C133 C 0.17831 0.29198 0.25147
 C134 C 0.19708 0.27793 0.23167
 N135 N 0.22166 0.28248 0.24530
 C136 C 0.19148 0.26221 0.20099
 H137 H 0.19309 0.23451 0.13304
 H138 H 0.23094 0.19825 0.13082
 H139 H 0.23960 0.27661 0.23361
 H140 H 0.29742 0.16234 0.23630
 H141 H 0.32459 0.18851 0.28535
 H142 H 0.32829 0.29478 0.31713
 H143 H 0.29046 0.33045 0.31863
 H144 H 0.15697 0.29240 0.24736
 H145 H 0.27335 0.24340 0.23220
 H146 H 0.18305 0.31784 0.29861
 C147 C 0.80885 0.79158 0.19231
 C148 C 0.78881 0.81008 0.19131
 C149 C 0.76630 0.79794 0.20540
 N150 N 0.77215 0.77277 0.21571
 C151 C 0.79821 0.76882 0.20784
 C152 C 0.74037 0.80914 0.20543
 C153 C 0.71934 0.79835 0.22630
 C154 C 0.69251 0.80435 0.22204
 C155 C 0.67899 0.79095 0.24882
 C156 C 0.69787 0.77693 0.26846
 N157 N 0.72239 0.78159 0.25466
 C158 C 0.69242 0.76114 0.29917
 C159 C 0.71054 0.74192 0.31236
 C160 C 0.70847 0.72917 0.34550
 C161 C 0.72824 0.71035 0.34640
 C162 C 0.74178 0.71227 0.31383
 N163 N 0.73099 0.73164 0.29308
 C164 C 0.76243 0.69501 0.30266
 C165 C 0.77935 0.70082 0.27314
 C166 C 0.79657 0.68286 0.25690
 C167 C 0.81056 0.69673 0.23107
 C168 C 0.80125 0.72275 0.23182
 N169 N 0.78241 0.72508 0.25782
 C170 C 0.81150 0.74406 0.21102
 H171 H 0.82880 0.79474 0.18226
 H172 H 0.79070 0.83013 0.18098
 H173 H 0.77425 0.74279 0.26726
 H174 H 0.68346 0.81690 0.20168
 H175 H 0.65766 0.79129 0.25308
 H176 H 0.69418 0.73293 0.36680
 H177 H 0.73217 0.69680 0.36853
 H178 H 0.82606 0.68845 0.21417
 H179 H 0.74039 0.77577 0.26622
 H180 H 0.79907 0.66197 0.26316
 C181 C 0.78738 0.18963 0.18958
 C182 C 0.80757 0.20789 0.19074
 C183 C 0.79718 0.23064 0.20666
 N184 N 0.77110 0.22691 0.21459
 C185 C 0.76502 0.20189 0.20396
 C186 C 0.81070 0.25523 0.21018
 C187 C 0.80058 0.27649 0.23127
 C188 C 0.81007 0.30243 0.23087
 C189 C 0.79610 0.31623 0.25680
 C190 C 0.77876 0.29831 0.27279
 N191 N 0.78170 0.27414 0.25720
 C192 C 0.76185 0.30408 0.30234
 C193 C 0.74116 0.28691 0.31346
 C194 C 0.72768 0.28878 0.34607
 C195 C 0.70783 0.27011 0.34512
 C196 C 0.70979 0.25750 0.31189
 N197 N 0.73025 0.26772 0.29261
 C198 C 0.69158 0.23847 0.29862
 C199 C 0.69687 0.22287 0.26771
 C200 C 0.67787 0.20910 0.24804
 C201 C 0.69126 0.19584 0.22100
 C202 C 0.71811 0.20169 0.22512
 N203 N 0.72132 0.21821 0.25366
 C204 C 0.73902 0.19095 0.20399
 H205 H 0.78907 0.16965 0.17896
 H206 H 0.82743 0.20452 0.18049
 H207 H 0.73938 0.22383 0.26515
 H208 H 0.82566 0.31074 0.21419
 H209 H 0.79872 0.33705 0.26329
 H210 H 0.73169 0.30221 0.36828
 H211 H 0.69355 0.26635 0.36644
 H212 H 0.68211 0.18347 0.20057
 H213 H 0.77341 0.25644 0.26643
 H214 H 0.65656 0.20882 0.25247
 C215 C 0.28845 0.69073 0.30858
 C216 C 0.30845 0.70922 0.30769
 C217 C 0.29778 0.73202 0.29223
 N218 N 0.27174 0.72810 0.28429
 C219 C 0.26594 0.70291 0.29448
 C220 C 0.31101 0.75678 0.28920
 C221 C 0.30072 0.77813 0.26846
 C222 C 0.30992 0.80416 0.26937
 C223 C 0.29592 0.81807 0.24355
 C224 C 0.27882 0.80012 0.22717
 N225 N 0.28195 0.77583 0.24239
 C226 C 0.26195 0.80596 0.19762
 C227 C 0.24143 0.78868 0.18627
 C228 C 0.22804 0.79059 0.15360
 C229 C 0.20834 0.77176 0.15433
 C230 C 0.21027 0.75901 0.18749
 N231 N 0.23060 0.76930 0.20694
 C232 C 0.19214 0.73982 0.20059
 C233 C 0.19756 0.72400 0.23129
 C234 C 0.17867 0.71001 0.25090
 C235 C 0.19218 0.69658 0.27770
 C236 C 0.21900 0.70256 0.27350
 N237 N 0.22207 0.71931 0.24515
 C238 C 0.24002 0.69176 0.29441
 H239 H 0.29036 0.67066 0.31885
 H240 H 0.32839 0.70602 0.31778
 H241 H 0.24008 0.72512 0.23364
 H242 H 0.32535 0.81242 0.28635
 H243 H 0.29834 0.83897 0.23738
 H244 H 0.23203 0.80414 0.13150
 H245 H 0.19417 0.76798 0.13290
 H246 H 0.18313 0.68404 0.29804
 H247 H 0.27389 0.75813 0.23283
 H248 H 0.15735 0.70971 0.24662
 C249 C 0.78887 0.18778 0.80576
 C250 C 0.80883 0.20631 0.80480
 C251 C 0.79789 0.22933 0.79037
 N252 N 0.77173 0.22553 0.78315
 C253 C 0.76609 0.20019 0.79282
 C254 C 0.81100 0.25417 0.78766
 C255 C 0.80063 0.27558 0.76711
 C256 C 0.80987 0.30160 0.76802
 C257 C 0.79584 0.31555 0.74229
 C258 C 0.77865 0.29764 0.72599
 N259 N 0.78178 0.27334 0.74115
 C260 C 0.76168 0.30354 0.69657
 C261 C 0.74094 0.28639 0.68559
 C262 C 0.72725 0.28835 0.65315
 C263 C 0.70744 0.26964 0.65428
 C264 C 0.70964 0.25691 0.68742
 N265 N 0.73021 0.26709 0.70648
 C266 C 0.69155 0.23781 0.70086
 C267 C 0.69717 0.22201 0.73150
 C268 C 0.67838 0.20824 0.75155
 C269 C 0.69207 0.19466 0.77803
 C270 C 0.71891 0.20028 0.77315
 N271 N 0.72179 0.21705 0.74477
 C272 C 0.74013 0.18911 0.79334
 H273 H 0.79101 0.16753 0.81524
 H274 H 0.82896 0.20294 0.81405
 H275 H 0.73971 0.22264 0.73280
 H276 H 0.82539 0.30981 0.78490
 H277 H 0.79827 0.33646 0.73613
 H278 H 0.73110 0.30186 0.63096
 H279 H 0.69302 0.26593 0.63313
 H280 H 0.68311 0.18226 0.79860
 H281 H 0.77365 0.25566 0.73162
 H282 H 0.65700 0.20817 0.74773
 C283 C 0.28883 0.69051 0.69257
 C284 C 0.30884 0.70899 0.69360
 C285 C 0.29816 0.73174 0.70915
 N286 N 0.27210 0.72781 0.71701
 C287 C 0.26630 0.70266 0.70667
 C288 C 0.31140 0.75648 0.71232
 C289 C 0.30111 0.77778 0.73314
 C290 C 0.31035 0.80380 0.73236
 C291 C 0.29635 0.81764 0.75822
 C292 C 0.27920 0.79967 0.77450
 N293 N 0.28232 0.77542 0.75918
 C294 C 0.26226 0.80545 0.80401
 C295 C 0.24170 0.78815 0.81522
 C296 C 0.22823 0.78996 0.84785
 C297 C 0.20852 0.77115 0.84696
 C298 C 0.21053 0.75850 0.81376
 N299 N 0.23092 0.76883 0.79443
 C300 C 0.19240 0.73938 0.80052
 C301 C 0.19786 0.72363 0.76978
 C302 C 0.17899 0.70971 0.75009
 C303 C 0.19252 0.69633 0.72329
 C304 C 0.21934 0.70226 0.72757
 N305 N 0.22238 0.71895 0.75597
 C306 C 0.24038 0.69150 0.70666
 H307 H 0.29075 0.67048 0.68221
 H308 H 0.32879 0.70582 0.68354
 H309 H 0.24038 0.72471 0.76754
 H310 H 0.32581 0.81209 0.71543
 H311 H 0.29877 0.83853 0.76446
 H312 H 0.23217 0.80345 0.87001
 H313 H 0.19429 0.76732 0.86831
 H314 H 0.18349 0.68385 0.70289
 H315 H 0.27421 0.75770 0.76863
 H316 H 0.15765 0.70942 0.75433
 C317 C 0.20767 0.23005 0.84637
 C318 C 0.22731 0.21111 0.84726
 C319 C 0.24075 0.21283 0.81459
 N320 N 0.23004 0.23223 0.79381
 C321 C 0.20972 0.24270 0.81317
 C322 C 0.26119 0.19535 0.80332
 C323 C 0.27805 0.20101 0.77369
 C324 C 0.29499 0.18288 0.75724
 C325 C 0.30904 0.19665 0.73136
 C326 C 0.30003 0.22277 0.73230
 N327 N 0.28132 0.22526 0.75843
 C328 C 0.31045 0.24402 0.71155
 C329 C 0.29740 0.26891 0.70852
 C330 C 0.30823 0.29161 0.69308
 C331 C 0.28836 0.31029 0.69218
 C332 C 0.26575 0.29832 0.70624
 N333 N 0.27138 0.27307 0.71644
 C334 C 0.23991 0.30972 0.70631
 C335 C 0.21881 0.29907 0.72716
 C336 C 0.19202 0.30524 0.72290
 C337 C 0.17841 0.29189 0.74965
 C338 C 0.19720 0.27775 0.76928
 N339 N 0.22175 0.28228 0.75550
 C340 C 0.19167 0.26195 0.79994
 H341 H 0.19344 0.23397 0.86772
 H342 H 0.23122 0.19760 0.86945
 H343 H 0.23972 0.27634 0.76705
 H344 H 0.29725 0.16195 0.76338
 H345 H 0.32438 0.18823 0.71431
 H346 H 0.32820 0.29462 0.68302
 H347 H 0.29041 0.33035 0.68192
 H348 H 0.15708 0.29235 0.75389
 H349 H 0.27340 0.24304 0.76801
 H350 H 0.18305 0.31785 0.70254
 C351 C 0.78961 0.80939 0.80801
 C352 C 0.80963 0.79087 0.80707
 C353 C 0.79897 0.76810 0.79166
 N354 N 0.77291 0.77205 0.78381
 C355 C 0.76708 0.79724 0.79400
 C356 C 0.81223 0.74332 0.78860
 C357 C 0.80192 0.72200 0.76792
 C358 C 0.81118 0.69596 0.76880
 C359 C 0.79713 0.68208 0.74306
 C360 C 0.77995 0.70006 0.72676
 N361 N 0.78308 0.72433 0.74194
 C362 C 0.76300 0.69424 0.69730
 C363 C 0.74240 0.71152 0.68603
 C364 C 0.72888 0.70958 0.65346
 C365 C 0.70914 0.72843 0.65426
 C366 C 0.71120 0.74123 0.68734
 N367 N 0.73163 0.73094 0.70669
 C368 C 0.69312 0.76049 0.70045
 C369 C 0.69860 0.77628 0.73111
 C370 C 0.67974 0.79030 0.75076
 C371 C 0.69329 0.80368 0.77749
 C372 C 0.72010 0.79766 0.77320
 N373 N 0.72313 0.78090 0.74486
 C374 C 0.74116 0.80843 0.79398
 H375 H 0.79150 0.82945 0.81826
 H376 H 0.82958 0.79404 0.81709
 H377 H 0.74112 0.77508 0.73328
 H378 H 0.82667 0.68767 0.78572
 H379 H 0.79957 0.66118 0.73690
 H380 H 0.73280 0.69599 0.63140
 H381 H 0.69486 0.73219 0.63293
 H382 H 0.68426 0.81624 0.79785
 H383 H 0.77495 0.74204 0.73241
 H384 H 0.65840 0.79067 0.74654
 C385 C 0.26970 0.10005 0.11681
 N386 N 0.29351 0.09063 0.10485
 N387 N 0.29455 0.06968 0.08277
 C388 C 0.27180 0.05748 0.07172
 N389 N 0.24807 0.06680 0.08402
 N390 N 0.24705 0.08763 0.10617
 C391 C 0.26808 0.12405 0.13935
 N392 N 0.24409 0.13253 0.15174
 N393 N 0.24207 0.15504 0.17047
 C394 C 0.26394 0.17005 0.17739
 N395 N 0.28803 0.16145 0.16529
 N396 N 0.29006 0.13885 0.14660
 C397 C 0.77190 0.59830 0.61814
 N398 N 0.74935 0.58505 0.60904
 N399 N 0.75032 0.56424 0.58686
 C400 C 0.77390 0.55580 0.57304
 N401 N 0.79656 0.56883 0.58245
 N402 N 0.79557 0.58975 0.60459
 C403 C 0.77024 0.62233 0.64057
 N404 N 0.79207 0.63756 0.64697
 N405 N 0.78996 0.66022 0.66550
 C406 C 0.76593 0.66844 0.67827
 N407 N 0.74421 0.65302 0.67219
 N408 N 0.74632 0.63043 0.65366
 C409 C 0.72662 0.89902 0.11471
 N410 N 0.70503 0.91537 0.11522
 N411 N 0.70388 0.93653 0.09339
 C412 C 0.72453 0.94226 0.07090
 N413 N 0.74614 0.92606 0.07082
 N414 N 0.74709 0.90476 0.09211
 C415 C 0.72821 0.87523 0.13757
 N416 N 0.74316 0.85426 0.12658
 N417 N 0.74628 0.83309 0.14774
 C418 C 0.73500 0.83219 0.18109
 N419 N 0.71972 0.85310 0.19196
 N420 N 0.71626 0.87419 0.17049
 C421 C 0.22674 0.39975 0.61572
 N422 N 0.20527 0.41626 0.61642
 N423 N 0.20419 0.43743 0.59463
 C424 C 0.22477 0.44304 0.57200
 N425 N 0.24627 0.42667 0.57171
 N426 N 0.24716 0.40535 0.59298
 C427 C 0.22822 0.37594 0.63856
 N428 N 0.24305 0.35490 0.62754
 N429 N 0.24602 0.33369 0.64868
 C430 C 0.23472 0.33283 0.68201
 N431 N 0.21957 0.35382 0.69290
 N432 N 0.21625 0.37495 0.67147
 C433 C 0.90222 0.26632 0.12208
 N434 N 0.91618 0.24405 0.11358
 N435 N 0.93589 0.24500 0.08950
 C436 C 0.94265 0.26833 0.07340
 N437 N 0.92895 0.29072 0.08237
 N438 N 0.90892 0.28968 0.10602
 C439 C 0.87940 0.26475 0.14675
 N440 N 0.85840 0.28154 0.14289
 N441 N 0.83678 0.27877 0.16345
 C442 C 0.83551 0.25938 0.18900
 N443 N 0.85678 0.24296 0.19332
 N444 N 0.87823 0.24543 0.17236
 C445 C 0.40258 0.76800 0.62365
 N446 N 0.41928 0.74694 0.61961
 N447 N 0.43907 0.74778 0.59563
 C448 C 0.44308 0.76983 0.57513
 N449 N 0.42660 0.79104 0.57949
 N450 N 0.40659 0.79007 0.60316
 C451 C 0.37974 0.76629 0.64833
 N452 N 0.35816 0.78220 0.64352
 N453 N 0.33665 0.77938 0.66428
 C454 C 0.33603 0.76076 0.69091
 N455 N 0.35783 0.74519 0.69612
 N456 N 0.37921 0.74778 0.67506
 C457 C 0.09649 0.73242 0.12027
 N458 N 0.08474 0.75519 0.10862
 N459 N 0.06449 0.75440 0.08544
 C460 C 0.05512 0.73079 0.07299
 N461 N 0.06664 0.70793 0.08500
 N462 N 0.08701 0.70874 0.10815
 C463 C 0.12006 0.73377 0.14375
 N464 N 0.13403 0.71151 0.15257
 N465 N 0.15658 0.71328 0.17151
 C466 C 0.16595 0.73736 0.18226
 N467 N 0.15166 0.75950 0.17401
 N468 N 0.12920 0.75774 0.15509
 C469 C 0.59560 0.23046 0.62138
 N470 N 0.58328 0.25323 0.61085
 N471 N 0.56301 0.25253 0.58768
 C472 C 0.55424 0.22903 0.57417
 N473 N 0.56635 0.20617 0.58497
 N474 N 0.58671 0.20688 0.60813
 C475 C 0.61922 0.23177 0.64475
 N476 N 0.63339 0.20954 0.65306
 N477 N 0.65601 0.21130 0.67184
 C478 C 0.66526 0.23535 0.68290
 N479 N 0.65078 0.25746 0.67517
 N480 N 0.62822 0.25571 0.65644
 C481 C 0.72682 0.09832 0.88245
 N482 N 0.74912 0.08908 0.89888
 N483 N 0.74808 0.06794 0.92046
 C484 C 0.72460 0.05548 0.92704
 N485 N 0.70219 0.06470 0.91053
 N486 N 0.70333 0.08563 0.88832
 C487 C 0.72840 0.12235 0.86017
 N488 N 0.71509 0.12443 0.82833
 N489 N 0.71849 0.14571 0.80720
 C490 C 0.73501 0.16580 0.81738
 N491 N 0.74765 0.16386 0.84974
 N492 N 0.74466 0.14246 0.87049
 C493 C 0.22657 0.60191 0.38515
 N494 N 0.24699 0.59626 0.40788
 N495 N 0.24613 0.57494 0.42913
 C496 C 0.22466 0.55861 0.42886
 N497 N 0.20406 0.56425 0.40624
 N498 N 0.20512 0.58543 0.38446
 C499 C 0.22805 0.62570 0.36230
 N500 N 0.21614 0.62670 0.32935
 N501 N 0.21952 0.64779 0.30788
 C502 C 0.23468 0.66874 0.31877
 N503 N 0.24590 0.66788 0.35215
 N504 N 0.24287 0.64671 0.37332
 C505 C 0.27081 0.90155 0.88302
 N506 N 0.29446 0.91025 0.89637
 N507 N 0.29538 0.93132 0.91827
 C508 C 0.27267 0.94436 0.92762
 N509 N 0.24911 0.93576 0.91401
 N510 N 0.24820 0.91480 0.89208
 C511 C 0.26922 0.87742 0.86074
 N512 N 0.24531 0.86921 0.84784
 N513 N 0.24329 0.84660 0.82935
 C514 C 0.26509 0.83125 0.82312
 N515 N 0.28910 0.83957 0.83572
 N516 N 0.29113 0.86226 0.85422
 C517 C 0.77123 0.39992 0.38162
 N518 N 0.74876 0.41339 0.39068
 N519 N 0.74987 0.43428 0.41270
 C520 C 0.77351 0.44258 0.42640
 N521 N 0.79609 0.42932 0.41703
 N522 N 0.79496 0.40832 0.39505
 C523 C 0.76942 0.37584 0.35931
 N524 N 0.79117 0.36044 0.35291
 N525 N 0.78894 0.33780 0.33437
 C526 C 0.76488 0.32978 0.32160
 N527 N 0.74323 0.34536 0.32772
 N528 N 0.74545 0.36792 0.34626
 C529 C 0.09571 0.26917 0.87960
 N530 N 0.08668 0.29269 0.89297
 N531 N 0.06624 0.29329 0.91603
 C532 C 0.05419 0.27037 0.92660
 N533 N 0.06310 0.24693 0.91298
 N534 N 0.08344 0.24635 0.88991
 C535 C 0.11938 0.26794 0.85628
 N536 N 0.13355 0.29018 0.84818
 N537 N 0.15616 0.28846 0.82936
 C538 C 0.16541 0.26444 0.81806
 N539 N 0.15095 0.24233 0.82561
 N540 N 0.12839 0.24404 0.84438
 C541 C 0.59660 0.76877 0.37913
 N542 N 0.58771 0.79237 0.39238
 N543 N 0.56730 0.79315 0.41547
 C544 C 0.55514 0.77033 0.42621
 N545 N 0.56392 0.74680 0.41271
 N546 N 0.58424 0.74604 0.38961
 C547 C 0.62025 0.76738 0.35577
 N548 N 0.63444 0.78957 0.34748
 N549 N 0.65702 0.78775 0.32860
 C550 C 0.66622 0.76368 0.31741
 N551 N 0.65173 0.74161 0.32515
 N552 N 0.62920 0.74343 0.34398
 C553 C 0.90348 0.73202 0.87718
 N554 N 0.90758 0.71003 0.89782
 N555 N 0.92758 0.70917 0.92150
 C556 C 0.94396 0.73042 0.92573
 N557 N 0.93986 0.75239 0.90509
 N558 N 0.92008 0.75312 0.88109
 C559 C 0.88063 0.73363 0.85250
 N560 N 0.88005 0.75206 0.82566
 N561 N 0.85865 0.75460 0.80462
 C562 C 0.83690 0.73905 0.80996
 N563 N 0.83757 0.72051 0.83668
 N564 N 0.85910 0.71773 0.85742
 C565 C 0.40174 0.23204 0.37685
 N566 N 0.40566 0.20996 0.39738
 N567 N 0.42567 0.20888 0.42103
 C568 C 0.44222 0.22999 0.42535
 N569 N 0.43830 0.25204 0.40481
 N570 N 0.41852 0.25299 0.38083
 C571 C 0.37890 0.23389 0.35222
 N572 N 0.37845 0.25237 0.32545
 N573 N 0.35705 0.25513 0.30445
 C574 C 0.33517 0.23976 0.30978
 N575 N 0.33571 0.22117 0.33644
 N576 N 0.35723 0.21817 0.35714
 C577 C 0.72735 0.89829 0.88448
 N578 N 0.74763 0.90395 0.90741
 N579 N 0.74658 0.92528 0.92859
 C580 C 0.72504 0.94160 0.92802
 N581 N 0.70460 0.93593 0.90522
 N582 N 0.70585 0.91474 0.88352
 C583 C 0.72903 0.87452 0.86166
 N584 N 0.71712 0.87350 0.82872
 N585 N 0.72059 0.85241 0.80731
 C586 C 0.73582 0.83148 0.81825
 N587 N 0.74707 0.83237 0.85161
 N588 N 0.74395 0.85355 0.87273
 C589 C 0.22675 0.39972 0.38525
 N590 N 0.20526 0.41621 0.38460
 N591 N 0.20416 0.43736 0.40639
 C592 C 0.22476 0.44296 0.42899
 N593 N 0.24627 0.42662 0.42924
 N594 N 0.24717 0.40532 0.40797
 C595 C 0.22826 0.37595 0.36236
 N596 N 0.24320 0.35494 0.37324
 N597 N 0.24617 0.33377 0.35207
 C598 C 0.23475 0.33292 0.31881
 N599 N 0.21949 0.35388 0.30806
 N600 N 0.21618 0.37496 0.32953
 C601 C 0.26977 0.09948 0.88298
 N602 N 0.29357 0.09011 0.89503
 N603 N 0.29461 0.06922 0.91725
 C604 C 0.27186 0.05705 0.92837
 N605 N 0.24813 0.06630 0.91597
 N606 N 0.24711 0.08706 0.89367
 C607 C 0.26815 0.12347 0.86041
 N608 N 0.24415 0.13197 0.84806
 N609 N 0.24212 0.15452 0.82940
 C610 C 0.26399 0.16955 0.82250
 N611 N 0.28809 0.16093 0.83454
 N612 N 0.29013 0.13828 0.85316
 C613 C 0.77159 0.59900 0.38192
 N614 N 0.79529 0.59041 0.39532
 N615 N 0.79635 0.56938 0.41731
 C616 C 0.77373 0.55626 0.42671
 N617 N 0.75012 0.56474 0.41304
 N618 N 0.74907 0.58567 0.39102
 C619 C 0.76984 0.62310 0.35956
 N620 N 0.74589 0.63119 0.34658
 N621 N 0.74372 0.65378 0.32802
 C622 C 0.76541 0.66923 0.32182
 N623 N 0.78947 0.66102 0.33450
 N624 N 0.79165 0.63835 0.35306
 C625 C 0.09662 0.73210 0.88060
 N626 N 0.08485 0.75490 0.89207
 N627 N 0.06458 0.75416 0.91525
 C628 C 0.05523 0.73058 0.92787
 N629 N 0.06676 0.70769 0.91603
 N630 N 0.08715 0.70844 0.89289
 C631 C 0.12021 0.73340 0.85714
 N632 N 0.13419 0.71113 0.84845
 N633 N 0.15677 0.71287 0.82955
 C634 C 0.16617 0.73694 0.81873
 N635 N 0.15187 0.75909 0.82684
 N636 N 0.12936 0.75736 0.84571
 C637 C 0.59593 0.23085 0.37892
 N638 N 0.58358 0.25358 0.38951
 N639 N 0.56326 0.25280 0.41261
 C640 C 0.55447 0.22925 0.42600
 N641 N 0.56662 0.20643 0.41516
 N642 N 0.58703 0.20722 0.39206
 C643 C 0.61954 0.23224 0.35551
 N644 N 0.63369 0.21004 0.34702
 N645 N 0.65623 0.21186 0.32806
 C646 C 0.66543 0.23595 0.31700
 N647 N 0.65098 0.25804 0.32495
 N648 N 0.62850 0.25622 0.34386
 C649 C 0.90167 0.26611 0.87709
 N650 N 0.91853 0.24520 0.88132
 N651 N 0.93825 0.24626 0.90539
 C652 C 0.94200 0.26839 0.92578
 N653 N 0.92535 0.28944 0.92124
 N654 N 0.90541 0.28824 0.89749
 C655 C 0.87893 0.26419 0.85231
 N656 N 0.85721 0.27993 0.85698
 N657 N 0.83583 0.27700 0.83604
 C658 C 0.83548 0.25844 0.80936
 N659 N 0.85741 0.24303 0.80429
 N660 N 0.87867 0.24573 0.82554
 C661 C 0.40222 0.76813 0.37778
 N662 N 0.41896 0.74709 0.38171
 N663 N 0.43879 0.74791 0.40561
 C664 C 0.44282 0.76992 0.42613
 N665 N 0.42630 0.79112 0.42188
 N666 N 0.40624 0.79017 0.39830
 C667 C 0.37935 0.76645 0.35317
 N668 N 0.35776 0.78234 0.35804
 N669 N 0.33625 0.77955 0.33731
 C670 C 0.33563 0.76100 0.31063
 N671 N 0.35743 0.74544 0.30536
 N672 N 0.37882 0.74800 0.32639
 C673 C 0.27069 0.90213 0.11872
 N674 N 0.24811 0.91540 0.10962
 N675 N 0.24905 0.93629 0.08754
 C676 C 0.27262 0.94480 0.07383
 N677 N 0.29531 0.93175 0.08324
 N678 N 0.29435 0.91074 0.10528
 C679 C 0.26906 0.87801 0.14104
 N680 N 0.29094 0.86280 0.14755
 N681 N 0.28886 0.84009 0.16601
 C682 C 0.26482 0.83179 0.17859
 N683 N 0.24306 0.84719 0.17240
 N684 N 0.24513 0.86983 0.15394
 C685 C 0.77112 0.39949 0.61727
 N686 N 0.74866 0.41297 0.60817
 N687 N 0.74980 0.43389 0.58617
 C688 C 0.77346 0.44223 0.57253
 N689 N 0.79602 0.42897 0.58193
 N690 N 0.79487 0.40793 0.60390
 C691 C 0.76929 0.37539 0.63961
 N692 N 0.79105 0.36003 0.64616
 N693 N 0.78880 0.33738 0.66471
 C694 C 0.76471 0.32929 0.67734
 N695 N 0.74305 0.34483 0.67109
 N696 N 0.74529 0.36741 0.65254
 C697 C 0.72535 0.10149 0.11291
 N698 N 0.74576 0.09600 0.09008
 N699 N 0.74506 0.07461 0.06898
 C700 C 0.72375 0.05806 0.06952
 N701 N 0.70316 0.06356 0.09221
 N702 N 0.70407 0.08480 0.11385
 C703 C 0.72674 0.12525 0.13576
 N704 N 0.71502 0.12607 0.16885
 N705 N 0.71846 0.14707 0.19040
 C706 C 0.73349 0.16811 0.17946
 N707 N 0.74450 0.16745 0.14594
 N708 N 0.74140 0.14637 0.12468
 C709 C 0.22682 0.60187 0.61564
 N710 N 0.20536 0.58542 0.61638
 N711 N 0.20424 0.56428 0.59456
 C712 C 0.22479 0.55866 0.57185
 N713 N 0.24628 0.57497 0.57152
 N714 N 0.24720 0.59625 0.59281
 C715 C 0.22838 0.62560 0.63858
 N716 N 0.24329 0.64659 0.62766
 N717 N 0.24635 0.66770 0.64889
 C718 C 0.23506 0.66852 0.68224
 N719 N 0.21982 0.64760 0.69303
 N720 N 0.21641 0.62657 0.67150
 C721 C 0.90303 0.73254 0.12296
 N722 N 0.90720 0.71047 0.10255
 N723 N 0.92731 0.70951 0.07903
 C724 C 0.94374 0.73072 0.07475
 N725 N 0.93957 0.75277 0.09517
 N726 N 0.91968 0.75360 0.11901
 C727 C 0.88008 0.73426 0.14746
 N728 N 0.87941 0.75277 0.17416
 N729 N 0.85794 0.75537 0.19507
 C730 C 0.83620 0.73981 0.18973
 N731 N 0.83696 0.72120 0.16312
 N732 N 0.85855 0.71837 0.14252
 C733 C 0.40156 0.23191 0.62289
 N734 N 0.40545 0.20988 0.60230
 N735 N 0.42547 0.20881 0.57865
 C736 C 0.44207 0.22990 0.57440
 N737 N 0.43817 0.25191 0.59499
 N738 N 0.41838 0.25283 0.61896
 C739 C 0.37872 0.23374 0.64755
 N740 N 0.37833 0.25216 0.67438
 N741 N 0.35696 0.25489 0.69543
 C742 C 0.33505 0.23957 0.69012
 N743 N 0.33553 0.22105 0.66340
 N744 N 0.35703 0.21807 0.64264
 C745 C 0.09535 0.26933 0.12180
 N746 N 0.08626 0.29285 0.10845
 N747 N 0.06585 0.29341 0.08536
 C748 C 0.05390 0.27047 0.07473
 N749 N 0.06287 0.24704 0.08835
 N750 N 0.08318 0.24649 0.11145
 C751 C 0.11903 0.26813 0.14509
 N752 N 0.12812 0.24424 0.15694
 N753 N 0.15072 0.24255 0.17560
 C754 C 0.16516 0.26468 0.18308
 N755 N 0.15584 0.28870 0.17184
 N756 N 0.13317 0.29039 0.15313
 C757 C 0.59715 0.76839 0.62084
 N758 N 0.58822 0.79204 0.60775
 N759 N 0.56770 0.79289 0.58484
 C760 C 0.55548 0.77011 0.57415
 N761 N 0.56430 0.74654 0.58749
 N762 N 0.58472 0.74570 0.61041
 C763 C 0.62088 0.76692 0.64404
 N764 N 0.62985 0.74293 0.65570
 N765 N 0.65240 0.74105 0.67444
 C766 C 0.66692 0.76308 0.68220
 N767 N 0.65771 0.78719 0.67112
 N768 N 0.63510 0.78907 0.65234
   
