data_POSCAR
  _audit_creation_date              2014-09-24
  _audit_creation_method            'ToBaCCo'
  _symmetry_space_group_name_H-M    'P1'
  _symmetry_Int_Tables_number       1
  _symmetry_cell_setting            triclinic
  loop_
  _symmetry_equiv_pos_as_xyz
 x,y,z
_cell_length_a 27.8134
_cell_length_b 26.2491
_cell_length_c 24.6845
_cell_angle_alpha 85.954600
_cell_angle_beta 90.660000
_cell_angle_gamma 92.311700
loop_
  _atom_site_label
  _atom_site_type_symbol
  _atom_site_fract_x
  _atom_site_fract_y
  _atom_site_fract_z
N1 N 0.19452 1.26430 0.11906
 N2 N 0.15893 1.27157 0.15184
 C3 C 0.13234 1.30959 0.13030
 C4 C 0.15213 1.32730 0.08084
 C5 C 0.19167 1.29767 0.07508
 H6 H 0.10013 1.32183 0.14879
 H7 H 0.21596 1.29966 0.04101
 Cu8 Cu 0.14747 1.22851 0.21758
 Cu9 Cu 0.24033 1.21067 0.13610
 Cu10 Cu 0.20971 1.12266 0.24297
 N11 N 0.12428 1.17374 0.26831
 N12 N 0.14888 1.13244 0.27882
 C13 C 0.12416 1.10035 0.31436
 C14 C 0.08154 1.12287 0.32624
 C15 C 0.08294 1.16935 0.29629
 H16 H 0.13593 1.06312 0.32918
 H17 H 0.05559 1.19761 0.29445
 N18 N 0.26951 1.11996 0.20121
 N19 N 0.28134 1.15349 0.16064
 C20 C 0.32301 1.14025 0.13921
 C21 C 0.33791 1.09617 0.16761
 C22 C 0.30318 1.08445 0.20646
 H23 H 0.34018 1.16010 0.10431
 H24 H 0.30195 1.05149 0.23534
 H25 H 0.18751 1.16308 0.17267
 H26 H 0.22901 1.19809 0.21875
 N27 N 0.83939 0.73442 0.07607
 N28 N 0.87258 0.72628 0.11360
 C29 C 0.89921 0.68738 0.10041
 C30 C 0.88157 0.67031 0.05186
 C31 C 0.84364 0.70102 0.03764
 H32 H 0.92985 0.67372 0.12367
 H33 H 0.82134 0.69966 0.00153
 Cu34 Cu 0.88093 0.76993 0.17379
 Cu35 Cu 0.79536 0.78935 0.07978
 Cu36 Cu 0.78627 0.84811 0.19615
 N37 N 0.87648 0.80830 0.23905
 N38 N 0.84084 0.83843 0.24774
 C39 C 0.85006 0.86159 0.29406
 C40 C 0.89365 0.84505 0.31523
 C41 C 0.90899 0.81111 0.27957
 H42 H 0.82753 0.88948 0.31005
 H43 H 0.94240 0.79133 0.28210
 N44 N 0.73644 0.85214 0.13951
 N45 N 0.74033 0.82875 0.09446
 C46 C 0.70188 0.83810 0.06249
 C47 C 0.67234 0.86935 0.08836
 C48 C 0.69523 0.87774 0.13735
 H49 H 0.69610 0.82393 0.02274
 H50 H 0.68326 0.90106 0.16860
 H51 H 0.84246 0.83402 0.14778
 H52 H 0.80754 0.77681 0.17731
 N53 N 0.84942 1.27052 -0.15314
 N54 N 0.87864 1.25807 -0.19113
 C55 C 0.91837 1.28926 -0.19110
 C56 C 0.91364 1.32297 -0.15109
 C57 C 0.86937 1.31000 -0.12785
 H58 H 0.94914 1.28682 -0.21704
 H59 H 0.85369 1.32635 -0.09352
 Cu60 Cu 0.86257 1.20052 -0.23458
 Cu61 Cu 0.79030 1.23129 -0.13456
 Cu62 Cu 0.76682 1.12260 -0.20381
 N63 N 0.84440 1.14407 -0.27884
 N64 N 0.80688 1.11359 -0.26633
 C65 C 0.80427 1.07571 -0.30037
 C66 C 0.84215 1.08270 -0.33619
 C67 C 0.86682 1.12677 -0.32163
 H68 H 0.77774 1.04436 -0.29811
 H69 H 0.89964 1.14374 -0.33914
 N70 N 0.72396 1.14433 -0.14750
 N71 N 0.73286 1.18592 -0.12136
 C72 C 0.69926 1.18855 -0.08293
 C73 C 0.66758 1.14696 -0.08519
 C74 C 0.68414 1.11972 -0.12674
 H75 H 0.69887 1.21738 -0.05375
 H76 H 0.66969 1.08347 -0.13913
 H77 H 0.81545 1.16401 -0.15727
 H78 H 0.77849 1.20054 -0.20907
 N79 N 0.19027 0.74405 -0.11154
 N80 N 0.15375 0.74047 -0.14598
 C81 C 0.13040 0.69484 -0.13582
 C82 C 0.15327 0.66873 -0.09277
 C83 C 0.19094 0.70101 -0.07854
 H84 H 0.09735 0.68309 -0.15567
 H85 H 0.21524 0.69472 -0.04443
 Cu86 Cu 0.13463 0.79815 -0.19668
 Cu87 Cu 0.23112 0.80676 -0.10651
 Cu88 Cu 0.19086 0.91084 -0.17577
 N89 N 0.12211 0.86027 -0.24260
 N90 N 0.14433 0.90407 -0.23362
 C91 C 0.12977 0.94043 -0.27038
 C92 C 0.09639 0.91867 -0.30430
 C93 C 0.09209 0.86749 -0.28565
 H94 H 0.14276 0.97993 -0.27252
 H95 H 0.06930 0.83787 -0.30205
 N96 N 0.25053 0.91324 -0.13517
 N97 N 0.26667 0.87254 -0.10792
 C98 C 0.30839 0.88541 -0.08308
 C99 C 0.31867 0.93698 -0.09593
 C100 C 0.28129 0.95325 -0.12904
 H101 H 0.32936 0.85931 -0.05759
 H102 H 0.27672 0.99153 -0.14711
 H103 H 0.16277 0.83081 -0.12875
 H104 H 0.20538 0.82155 -0.18501
 C105 C 0.50188 1.01310 0.03187
 C106 C 0.01014 0.49146 0.98885
 C107 C 0.96655 -0.01896 0.49698
 C108 C 0.13512 0.36509 1.04326
 C109 C 0.09668 0.39201 1.05327
 C110 C 0.07648 0.42986 1.01324
 C111 C 0.03829 0.45551 1.02703
 H112 H 0.07869 0.38591 1.09196
 H113 H 0.09161 0.43571 0.97294
 H114 H 0.15356 0.37228 1.00486
 H115 H 0.02332 0.44664 1.06720
 C116 C -0.09995 0.63047 1.01941
 C117 C -0.06494 0.60014 1.03742
 C118 C -0.04614 0.56179 1.00337
 C119 C -0.01311 0.52956 1.02311
 H120 H -0.04977 0.60351 1.07766
 H121 H -0.05886 0.56005 0.96183
 H122 H -0.11560 0.62614 0.97950
 H123 H -0.00008 0.53319 1.06435
 C124 C -0.04953 0.36079 0.86589
 C125 C -0.05789 0.39300 0.90399
 C126 C -0.01963 0.42766 0.92365
 C127 C -0.02879 0.45924 0.96224
 H128 H -0.09317 0.39321 0.92206
 H129 H 0.01648 0.42635 0.90788
 H130 H -0.01436 0.36134 0.84733
 H131 H -0.06490 0.45847 0.97861
 C132 C 0.13685 0.62171 0.93898
 C133 C 0.10050 0.59130 0.92303
 C134 C 0.07953 0.55070 0.96086
 C135 C 0.04101 0.52222 0.94672
 H136 H 0.08390 0.59856 0.88347
 H137 H 0.09266 0.54728 1.00244
 H138 H 0.15369 0.61347 0.97828
 H139 H 0.02705 0.52753 0.90557
 C140 C 1.04381 0.10395 0.35976
 C141 C 1.04478 0.05939 0.38951
 C142 C 1.00394 0.04165 0.42432
 C143 C 1.00781 0.00161 0.46054
 H144 H 1.07603 0.03609 0.38931
 H145 H 0.97067 0.06185 0.42105
 H146 H 1.01255 0.12711 0.36193
 H147 H 1.04113 -0.01863 0.46229
 C148 C 1.07378 -0.05456 0.65247
 C149 C 1.04094 -0.07469 0.61929
 C150 C 1.02062 -0.04114 0.57520
 C151 C 0.98623 -0.05655 0.54088
 H152 H 1.02924 -0.11458 0.62441
 H153 H 1.03415 -0.00173 0.57054
 H154 H 1.08398 -0.01426 0.64585
 H155 H 0.97172 -0.09556 0.54527
 C156 C 0.92005 -0.13927 0.36001
 C157 C 0.90613 -0.10346 0.39180
 C158 C 0.93917 -0.08482 0.43380
 C159 C 0.92903 -0.04467 0.46160
 H160 H 0.87186 -0.08576 0.38512
 H161 H 0.97395 -0.10177 0.43954
 H162 H 0.95473 -0.15597 0.36777
 H163 H 0.89489 -0.02673 0.45413
 C164 C 0.85397 0.04899 0.62508
 C165 C 0.89185 0.05687 0.59218
 C166 C 0.90619 0.01704 0.55711
 C167 C 0.94482 0.02438 0.52523
 H168 H 0.91393 0.09179 0.59257
 H169 H 0.88698 -0.01981 0.55982
 H170 H 0.83192 0.01413 0.62299
 H171 H 0.96459 0.06091 0.52466
 C172 C 0.37832 1.06402 0.15604
 C173 C 0.41143 1.07809 0.11856
 C174 C 0.44638 1.04156 0.10200
 C175 C 0.47514 1.05342 0.05948
 H176 H 0.41087 1.11559 0.09729
 H177 H 0.44546 1.00304 0.12108
 H178 H 0.37947 1.02656 0.17742
 H179 H 0.47413 1.09158 0.03957
 C180 C 0.62907 1.13231 -0.04601
 C181 C 0.59765 1.09331 -0.05235
 C182 C 0.56369 1.07612 -0.00892
 C183 C 0.53136 1.03778 -0.01529
 H184 H 0.59805 1.07265 -0.08881
 H185 H 0.56674 1.09306 0.02984
 H186 H 0.62751 1.15349 -0.00996
 H187 H 0.52982 1.02017 -0.05379
 C188 C 0.35928 0.96978 -0.07853
 C189 C 0.39336 0.95342 -0.04377
 C190 C 0.43166 0.98927 -0.02662
 C191 C 0.46456 0.97506 0.01081
 H192 H 0.39255 0.91411 -0.02710
 H193 H 0.43242 1.02850 -0.04374
 H194 H 0.36049 1.00942 -0.09432
 H195 H 0.46268 0.93616 0.02893
 C196 C 0.62793 0.89007 0.06446
 C197 C 0.60210 0.92505 0.08642
 C198 C 0.56162 0.94688 0.05493
 C199 C 0.53668 0.98570 0.07093
 H200 H 0.61211 0.93920 0.12531
 H201 H 0.55382 0.93302 0.01525
 H202 H 0.61731 0.87726 0.02508
 H203 H 0.54527 1.00121 0.10960
   
