data_POSCAR
  _audit_creation_date              2014-09-24
  _audit_creation_method            'ToBaCCo'
  _symmetry_space_group_name_H-M    'P1'
  _symmetry_Int_Tables_number       1
  _symmetry_cell_setting            triclinic
  loop_
  _symmetry_equiv_pos_as_xyz
 x,y,z
_cell_length_a 41.3731
_cell_length_b 40.4525
_cell_length_c 33.4616
_cell_angle_alpha 89.409300
_cell_angle_beta 91.299000
_cell_angle_gamma 90.429700
loop_
  _atom_site_label
  _atom_site_type_symbol
  _atom_site_fract_x
  _atom_site_fract_y
  _atom_site_fract_z
C1 C 1.19115 0.26577 0.30164
 H2 H 1.18856 0.23925 0.29883
 C3 C 1.16798 0.28362 0.32207
 H4 H 1.14762 0.27062 0.33477
 C5 C 1.21960 0.31501 0.28583
 H6 H 1.23963 0.32726 0.27165
 C7 C 1.19730 0.33373 0.30632
 H8 H 1.20067 0.36027 0.30778
 N9 N 1.21520 0.28186 0.28205
 C10 C 1.22535 0.22324 0.17448
 H11 H 1.25128 0.22014 0.17362
 C12 C 1.20536 0.20866 0.14526
 H13 H 1.21633 0.19462 0.12186
 C14 C 1.17991 0.24597 0.20555
 H15 H 1.16986 0.26107 0.22843
 C16 C 1.15902 0.23136 0.17747
 H17 H 1.13325 0.23444 0.18057
 Zn18 Zn 1.24030 0.25765 0.24561
 N19 N 1.21233 0.24055 0.20468
 C20 C 1.25786 0.19054 0.26480
 N21 N 1.26142 0.22284 0.27485
 C22 C 1.27985 0.23162 0.30710
 C23 C 1.29648 0.20780 0.32986
 C24 C 1.27417 0.16576 0.28661
 C25 C 1.26049 0.31217 0.19847
 C26 C 1.28238 0.33397 0.18051
 C27 C 1.32607 0.30009 0.20610
 C28 C 1.30338 0.27924 0.22403
 N29 N 1.27126 0.28586 0.22055
 H30 H 1.24269 0.18383 0.23942
 H31 H 1.28158 0.25740 0.31527
 H32 H 1.30940 0.21667 0.35604
 H33 H 1.27157 0.14092 0.27549
 H34 H 1.23479 0.31663 0.19551
 H35 H 1.27315 0.35538 0.16446
 H36 H 1.35143 0.29396 0.20902
 H37 H 1.31153 0.25770 0.24061
 C38 C 1.17153 0.21163 0.14730
 C39 C 1.17017 0.31826 0.32307
 C40 C 1.31581 0.32831 0.18445
 C41 C 1.29471 0.17378 0.31977
 C42 C 0.70342 -0.22963 0.31027
 H43 H 0.70234 -0.25613 0.31488
 C44 C 0.68220 -0.20917 0.33013
 H45 H 0.66481 -0.22007 0.35017
 C46 C 0.72717 -0.18329 0.27807
 H47 H 0.74441 -0.17340 0.25722
 C48 C 0.70658 -0.16185 0.29768
 H49 H 0.70799 -0.13554 0.29160
 N50 N 0.72491 -0.21653 0.28426
 C51 C 0.74024 -0.29108 0.19202
 H52 H 0.76625 -0.29369 0.19272
 C53 C 0.72135 -0.31035 0.16581
 H54 H 0.73308 -0.32734 0.14609
 C55 C 0.69346 -0.26569 0.21669
 H56 H 0.68247 -0.24842 0.23655
 C57 C 0.67374 -0.28446 0.19117
 H58 H 0.64779 -0.28158 0.19242
 Zn59 Zn 0.75143 -0.24605 0.25633
 N60 N 0.72607 -0.26967 0.21736
 C61 C 0.77101 -0.30889 0.28607
 N62 N 0.77008 -0.27603 0.29408
 C63 C 0.78343 -0.26384 0.32852
 C64 C 0.80059 -0.28451 0.35492
 C65 C 0.78758 -0.33046 0.31179
 C66 C 0.78847 -0.22046 0.19145
 C67 C 0.81389 -0.20247 0.17465
 C68 C 0.83229 -0.18784 0.24117
 C69 C 0.80659 -0.20587 0.25659
 N70 N 0.78532 -0.22188 0.23185
 H71 H 0.75958 -0.31851 0.25936
 H72 H 0.78097 -0.23799 0.33548
 H73 H 0.81173 -0.27434 0.38173
 H74 H 0.78908 -0.35633 0.30409
 H75 H 0.77103 -0.23276 0.17213
 H76 H 0.81562 -0.20092 0.14244
 H77 H 0.84896 -0.17550 0.26160
 H78 H 0.80346 -0.20661 0.28843
 C79 C 0.68754 -0.30740 0.16542
 C80 C 0.68335 -0.17485 0.32352
 C81 C 0.83608 -0.18569 0.19970
 C82 C 0.80322 -0.31817 0.34623
 C83 C 0.70693 0.26371 -0.18027
 H84 H 0.70732 0.23738 -0.17427
 C85 C 0.68663 0.28406 -0.15878
 H86 H 0.67141 0.27320 -0.13616
 C87 C 0.72606 0.30979 -0.21737
 H88 H 0.74104 0.31963 -0.24078
 C89 C 0.70632 0.33110 -0.19632
 H90 H 0.70613 0.35719 -0.20387
 N91 N 0.72584 0.27674 -0.20924
 C92 C 0.73949 0.20199 -0.30199
 H93 H 0.76548 0.19927 -0.30210
 C94 C 0.72009 0.18341 -0.32840
 H95 H 0.73143 0.16694 -0.34908
 C96 C 0.69330 0.22703 -0.27532
 H97 H 0.68277 0.24393 -0.25460
 C98 C 0.67306 0.20885 -0.30091
 H99 H 0.64717 0.21182 -0.29893
 Zn100 Zn 0.75205 0.24767 -0.23844
 N101 N 0.72590 0.22323 -0.27596
 C102 C 0.77357 0.18542 -0.20892
 N103 N 0.77312 0.21843 -0.20166
 C104 C 0.78866 0.23120 -0.16892
 C105 C 0.80731 0.21095 -0.14360
 C106 C 0.79167 0.16427 -0.18424
 C107 C 0.78820 0.27208 -0.30497
 C108 C 0.81267 0.29073 -0.32281
 C109 C 0.82808 0.31132 -0.25768
 C110 C 0.80361 0.29214 -0.24132
 N111 N 0.78425 0.27292 -0.26481
 H112 H 0.76049 0.17536 -0.23425
 H113 H 0.78667 0.25715 -0.16233
 H114 H 0.81997 0.22158 -0.11807
 H115 H 0.79261 0.13825 -0.19138
 H116 H 0.77209 0.25740 -0.32352
 H117 H 0.81364 0.29016 -0.35503
 H118 H 0.84346 0.32467 -0.23682
 H119 H 0.79989 0.29303 -0.20960
 C120 C 0.68632 0.18669 -0.32810
 C121 C 0.68594 0.31819 -0.16699
 C122 C 0.83323 0.31142 -0.29936
 C123 C 0.80933 0.17711 -0.15156
 C124 C 1.19512 -0.23808 -0.20346
 H125 H 1.19475 -0.26481 -0.20386
 C126 C 1.17049 -0.22116 -0.18454
 H127 H 1.15150 -0.23505 -0.17007
 C128 C 1.21866 -0.18753 -0.22487
 H129 H 1.23686 -0.17440 -0.24147
 C130 C 1.19465 -0.16971 -0.20630
 H131 H 1.19522 -0.14296 -0.20806
 N132 N 1.21818 -0.22113 -0.22387
 C133 C 1.23687 -0.29190 -0.31721
 H134 H 1.26277 -0.29467 -0.31551
 C135 C 1.21845 -0.31298 -0.34154
 H136 H 1.23054 -0.33172 -0.35846
 C137 C 1.18968 -0.26422 -0.29754
 H138 H 1.17844 -0.24503 -0.28067
 C139 C 1.17032 -0.28491 -0.32125
 H140 H 1.14434 -0.28194 -0.32121
 Zn141 Zn 1.24713 -0.24425 -0.25675
 N142 N 1.22222 -0.26883 -0.29469
 C143 C 1.30017 -0.28570 -0.24438
 N144 N 1.27385 -0.27377 -0.22586
 C145 C 1.26763 -0.28247 -0.18730
 C146 C 1.28811 -0.30429 -0.16617
 C147 C 1.32118 -0.30741 -0.22446
 C148 C 1.27074 -0.20798 -0.32390
 C149 C 1.29113 -0.18548 -0.34334
 C150 C 1.31787 -0.17457 -0.27989
 C151 C 1.29706 -0.19721 -0.26173
 N152 N 1.27417 -0.21350 -0.28382
 H153 H 1.30523 -0.27788 -0.27460
 H154 H 1.24703 -0.27236 -0.17261
 H155 H 1.28314 -0.31050 -0.13535
 H156 H 1.34190 -0.31658 -0.24002
 H157 H 1.25230 -0.22113 -0.34089
 H158 H 1.28854 -0.18194 -0.37536
 H159 H 1.33585 -0.16184 -0.26163
 H160 H 1.29916 -0.20191 -0.22989
 C161 C 1.18460 -0.31035 -0.34272
 C162 C 1.16961 -0.18652 -0.18679
 C163 C 1.31534 -0.16867 -0.32134
 C164 C 1.31549 -0.31683 -0.18469
 C165 C 0.27068 0.21560 0.68127
 H166 H 0.25005 0.22726 0.66679
 C167 C 0.29138 0.19618 0.65894
 H168 H 0.28677 0.19327 0.62718
 C169 C 0.30229 0.20561 0.74009
 H170 H 0.30625 0.20936 0.77179
 C171 C 0.32363 0.18631 0.71896
 H172 H 0.34404 0.17516 0.73465
 N173 N 0.27651 0.21987 0.72109
 C174 C 0.19838 0.23092 0.80408
 H175 H 0.19500 0.25742 0.80399
 C176 C 0.17570 0.21023 0.82221
 H177 H 0.15504 0.22162 0.83553
 C178 C 0.22797 0.18473 0.78284
 H179 H 0.24803 0.17475 0.76694
 C180 C 0.20601 0.16318 0.80041
 H181 H 0.21095 0.13701 0.79908
 Zn182 Zn 0.24944 0.24580 0.75281
 N183 N 0.22356 0.21788 0.78437
 C184 C 0.19478 0.25662 0.70351
 N185 N 0.22120 0.27141 0.72066
 C186 C 0.22554 0.30470 0.71892
 C187 C 0.20227 0.32465 0.70048
 C188 C 0.17064 0.27575 0.68502
 C189 C 0.26994 0.28008 0.82376
 C190 C 0.29015 0.30153 0.84564
 C191 C 0.32190 0.30987 0.78658
 C192 C 0.30103 0.28866 0.76586
 N193 N 0.27576 0.27411 0.78460
 H194 H 0.19177 0.23009 0.70585
 H195 H 0.24655 0.31601 0.73290
 H196 H 0.20609 0.35115 0.69972
 H197 H 0.14907 0.26377 0.67309
 H198 H 0.24975 0.26820 0.83812
 H199 H 0.28565 0.30578 0.87692
 H200 H 0.34203 0.32107 0.77118
 H201 H 0.30497 0.28365 0.73465
 C202 C 0.17862 0.17556 0.81956
 C203 C 0.31842 0.18155 0.67781
 C204 C 0.31671 0.31635 0.82703
 C205 C 0.17394 0.31031 0.68430
 C206 C 0.76458 0.70830 0.68205
 H207 H 0.73848 0.70677 0.67971
 C208 C 0.78347 0.68759 0.65923
 H209 H 0.77175 0.67024 0.63908
 C210 C 0.81151 0.73239 0.71180
 H211 H 0.82237 0.74988 0.73232
 C212 C 0.83135 0.71221 0.68946
 H213 H 0.85733 0.71386 0.69375
 N214 N 0.77878 0.72924 0.70876
 C215 C 0.70535 0.73731 0.79902
 H216 H 0.70442 0.76396 0.80096
 C217 C 0.68469 0.71784 0.82183
 H218 H 0.66873 0.73029 0.84184
 C219 C 0.72899 0.68971 0.77191
 H220 H 0.74643 0.67885 0.75253
 C221 C 0.70911 0.66913 0.79482
 H222 H 0.71110 0.64269 0.79123
 Zn223 Zn 0.75162 0.75278 0.74292
 N224 N 0.72619 0.72315 0.77368
 C225 C 0.69190 0.77608 0.71092
 N226 N 0.72443 0.78111 0.71127
 C227 C 0.73766 0.80674 0.69043
 C228 C 0.71782 0.83029 0.67141
 C229 C 0.67125 0.79869 0.69194
 C230 C 0.79720 0.76078 0.80533
 C231 C 0.81632 0.77777 0.83342
 C232 C 0.79207 0.82876 0.81002
 C233 C 0.77346 0.81084 0.78251
 N234 N 0.77674 0.77753 0.78010
 H235 H 0.68176 0.75479 0.72595
 H236 H 0.76366 0.80982 0.69031
 H237 H 0.72882 0.85154 0.65707
 H238 H 0.64542 0.79430 0.69262
 H239 H 0.79877 0.73416 0.80341
 H240 H 0.83249 0.76407 0.85322
 H241 H 0.78963 0.85538 0.81067
 H242 H 0.75631 0.82369 0.76337
 C243 C 0.68566 0.68301 0.81955
 C244 C 0.81731 0.68875 0.66366
 C245 C 0.81392 0.81227 0.83590
 C246 C 0.68403 0.82695 0.67306
 C247 C 0.77245 0.20732 0.16633
 H248 H 0.74661 0.20523 0.16268
 C249 C 0.79221 0.18811 0.14272
 H250 H 0.78122 0.17112 0.12152
 C251 C 0.81831 0.23182 0.19777
 H252 H 0.82862 0.24908 0.21894
 C253 C 0.83898 0.21310 0.17483
 H254 H 0.86485 0.21542 0.17976
 N255 N 0.78569 0.22715 0.19501
 C256 C 0.73512 0.20681 0.29912
 H257 H 0.75262 0.22008 0.31729
 C258 C 0.71399 0.18455 0.31755
 H259 H 0.71560 0.18108 0.34966
 C260 C 0.70994 0.19700 0.23610
 H261 H 0.70715 0.20301 0.20479
 C262 C 0.68844 0.17456 0.25325
 H263 H 0.67030 0.16266 0.23439
 Zn264 Zn 0.75930 0.24605 0.23476
 N265 N 0.73270 0.21282 0.25902
 C266 C 0.70058 0.27955 0.22022
 N267 N 0.73253 0.27948 0.21160
 C268 C 0.74562 0.30362 0.18827
 C269 C 0.72636 0.32938 0.17304
 C270 C 0.68045 0.30443 0.20521
 C271 C 0.80950 0.24530 0.29325
 C272 C 0.83233 0.25898 0.31977
 C273 C 0.80738 0.31224 0.30888
 C274 C 0.78524 0.29763 0.28238
 N275 N 0.78700 0.26482 0.27452
 H276 H 0.69061 0.26062 0.23938
 H277 H 0.77118 0.30321 0.18217
 H278 H 0.73745 0.34880 0.15544
 H279 H 0.65502 0.30338 0.21202
 H280 H 0.81030 0.21921 0.28655
 H281 H 0.85045 0.24328 0.33386
 H282 H 0.80620 0.33862 0.31380
 H283 H 0.76707 0.31268 0.26751
 C284 C 0.68991 0.16848 0.29462
 C285 C 0.82593 0.18972 0.14829
 C286 C 0.83157 0.29294 0.32753
 C287 C 0.69324 0.33015 0.18168
 C288 C 0.29878 0.69020 0.25323
 H289 H 0.30036 0.69201 0.28545
 C290 C 0.31949 0.66920 0.23340
 H291 H 0.33692 0.65481 0.25065
 C292 C 0.27406 0.70679 0.19176
 H293 H 0.25631 0.72147 0.17560
 C294 C 0.29431 0.68599 0.17068
 H295 H 0.29235 0.68535 0.13837
 N296 N 0.27708 0.70905 0.23225
 C297 C 0.22491 0.68098 0.29455
 H298 H 0.23949 0.66894 0.27279
 C299 C 0.20495 0.66179 0.31853
 H300 H 0.20477 0.63521 0.31503
 C301 C 0.20549 0.73001 0.32335
 H302 H 0.20499 0.75660 0.32438
 C303 C 0.18501 0.71168 0.34796
 H304 H 0.16961 0.72440 0.36845
 Zn305 Zn 0.25112 0.73889 0.26120
 N306 N 0.22511 0.71448 0.29743
 C307 C 0.19151 0.75830 0.22502
 N308 N 0.22418 0.76227 0.22522
 C309 C 0.23872 0.78454 0.20074
 C310 C 0.22016 0.80483 0.17561
 C311 C 0.17195 0.77826 0.20046
 C312 C 0.31048 0.76972 0.28269
 C313 C 0.33079 0.79424 0.29826
 C314 C 0.28434 0.82093 0.32524
 C315 C 0.26484 0.79594 0.30853
 N316 N 0.27808 0.77078 0.28793
 H317 H 0.18053 0.74023 0.24458
 H318 H 0.26479 0.78699 0.20150
 H319 H 0.23215 0.82278 0.15671
 H320 H 0.14592 0.77584 0.20187
 H321 H 0.32086 0.75025 0.26552
 H322 H 0.35640 0.79088 0.29436
 H323 H 0.27219 0.84097 0.33965
 H324 H 0.23893 0.79764 0.31060
 C325 C 0.18469 0.67709 0.34574
 C326 C 0.31783 0.66736 0.19151
 C327 C 0.31816 0.82114 0.31964
 C328 C 0.18629 0.80240 0.17603
 O329 O 0.93890 -0.05338 -0.05774
 O330 O 0.97187 -0.09039 -0.02437
 C331 C 0.94746 -0.08318 -0.04786
 O332 O 1.05566 0.03688 -0.07638
 O333 O 1.03084 0.07492 -0.03735
 C334 C 1.05026 0.06700 -0.06553
 O335 O 1.05028 -0.05494 -0.07669
 O336 O 1.02711 -0.09115 -0.03232
 C337 C 1.04440 -0.08456 -0.06337
 O338 O 0.93799 0.03821 -0.05665
 O339 O 0.97324 0.07572 -0.02815
 C340 C 0.94712 0.06816 -0.04849
 Zr341 Zr 0.95824 -0.00749 -0.03982
 O342 O 0.94730 -0.00939 -0.10192
 O343 O 0.90878 -0.00732 -0.02522
 Zr344 Zr 1.03813 -0.00847 -0.05371
 O345 O 1.02830 -0.00611 -0.11605
 O346 O 1.08823 -0.01254 -0.06404
 O347 O 0.99671 -0.03784 -0.05362
 O348 O 0.99779 0.02119 -0.05513
 O349 O 0.95337 0.04061 0.07675
 O350 O 0.98120 0.07683 0.03681
 C351 C 0.95999 0.07019 0.06381
 O352 O 1.06876 -0.05263 0.06673
 O353 O 1.03482 -0.09012 0.03614
 C354 C 1.05943 -0.08263 0.05917
 O355 O 1.07481 0.03818 0.05586
 O356 O 1.03999 0.07595 0.02741
 C357 C 1.06663 0.06818 0.04661
 O358 O 0.95767 -0.05124 0.08605
 O359 O 0.98041 -0.08927 0.04493
 C360 C 0.96299 -0.08139 0.07520
 Zr361 Zr 0.97111 -0.00585 0.05963
 O362 O 0.98032 -0.00552 0.12222
 O363 O 0.92037 -0.00688 0.06608
 Zr364 Zr 1.05059 -0.00686 0.04666
 O365 O 1.05368 -0.00166 0.10958
 O366 O 1.10150 -0.01034 0.04606
 Zr367 Zr 1.00398 -0.05697 0.00467
 Zr368 Zr 1.00572 0.04270 0.00119
 O369 O 1.01233 0.02344 0.05931
 O370 O 1.01137 -0.03621 0.06171
 O371 O 0.95912 0.02282 0.00971
 O372 O 1.05018 -0.03628 -0.00352
 O373 O 0.95839 -0.03564 0.01190
 O374 O 1.05152 0.02128 -0.00577
 H375 H 0.99532 0.03632 -0.07844
 H376 H 1.06907 -0.05095 -0.00613
 H377 H 1.01561 0.03968 0.08102
 H378 H 0.93918 -0.05003 0.01559
 H379 H 1.09951 0.00419 -0.04735
 H380 H 1.10761 -0.00939 0.01771
 H381 H 1.04426 -0.02185 0.12172
 H382 H 0.98591 0.01731 0.13032
 H383 H 0.91650 -0.00673 0.09521
 H384 H 0.89646 -0.00863 -0.05092
 H385 H 0.96125 0.00686 -0.11567
 H386 H 1.01223 -0.02364 -0.12241
 O387 O 1.05491 0.44925 0.57293
 O388 O 1.02365 0.41236 0.53721
 C389 C 1.04615 0.41944 0.56347
 O390 O 0.93922 0.54114 0.57549
 O391 O 0.96829 0.57845 0.53852
 C392 C 0.94626 0.57107 0.56424
 O393 O 0.94324 0.44916 0.58103
 O394 O 0.96846 0.41225 0.54066
 C395 C 0.94962 0.41934 0.56981
 O396 O 1.06015 0.54095 0.56593
 O397 O 1.02670 0.57833 0.53419
 C398 C 1.05184 0.57093 0.55640
 Zr399 Zr 1.03832 0.49532 0.55138
 O400 O 1.04095 0.49954 0.61442
 O401 O 1.08924 0.49205 0.54929
 Zr402 Zr 0.95804 0.49544 0.55787
 O403 O 0.96533 0.49957 0.62050
 O404 O 0.90751 0.49194 0.56560
 O405 O 0.99842 0.46540 0.56256
 O406 O 0.99892 0.52479 0.56166
 O407 O 1.05139 0.54140 0.43305
 O408 O 1.02242 0.57870 0.46878
 C409 C 1.04484 0.57122 0.44397
 O410 O 0.93143 0.45008 0.43868
 O411 O 0.96335 0.41261 0.47298
 C412 C 0.93927 0.42021 0.44915
 O413 O 0.92939 0.54140 0.44287
 O414 O 0.96381 0.57870 0.47306
 C415 C 0.93820 0.57130 0.45175
 O416 O 1.04503 0.44980 0.42733
 O417 O 1.01958 0.41250 0.46827
 C418 C 1.03862 0.41985 0.43903
 Zr419 Zr 1.03139 0.49569 0.45061
 O420 O 1.02633 0.50003 0.38766
 O421 O 1.08235 0.49310 0.44795
 Zr422 Zr 0.95118 0.49582 0.45666
 O423 O 0.95347 0.49746 0.39368
 O424 O 0.90013 0.49476 0.45230
 Zr425 Zr 0.99414 0.44583 0.50438
 Zr426 Zr 0.99500 0.54539 0.50379
 O427 O 0.99099 0.52536 0.44614
 O428 O 0.99037 0.46571 0.44597
 O429 O 1.04140 0.52471 0.50033
 O430 O 0.94810 0.46723 0.50804
 O431 O 1.04067 0.46673 0.50073
 O432 O 0.94824 0.52465 0.50758
 H433 H 1.00065 0.54018 0.58448
 H434 H 0.92854 0.45311 0.51018
 H435 H 0.98962 0.54100 0.42317
 H436 H 1.05971 0.45209 0.49950
 H437 H 0.89715 0.50592 0.54462
 H438 H 0.89228 0.49169 0.47976
 H439 H 0.93078 0.49852 0.38372
 H440 H 1.01215 0.48168 0.37848
 H441 H 1.08770 0.49356 0.41922
 H442 H 1.09568 0.50240 0.52372
 H443 H 1.03046 0.47970 0.62601
 H444 H 0.97465 0.47854 0.63055
 O445 O 0.54653 0.06710 0.56041
 O446 O 0.58164 0.03618 0.52430
 C447 C 0.57541 0.05888 0.55023
 O448 O 0.45518 -0.05202 0.56167
 O449 O 0.41811 -0.02134 0.52557
 C450 C 0.42570 -0.04429 0.55167
 O451 O 0.54484 -0.04950 0.56492
 O452 O 0.58071 -0.02091 0.52600
 C453 C 0.57397 -0.04226 0.55395
 O454 O 0.45694 0.07008 0.55793
 O455 O 0.41902 0.03807 0.52517
 C456 C 0.42726 0.06192 0.54922
 Zr457 Zr 0.50094 0.05007 0.53972
 O458 O 0.49940 0.05079 0.60293
 O459 O 0.50287 0.10224 0.53549
 Zr460 Zr 0.49963 -0.03259 0.54274
 O461 O 0.49749 -0.02952 0.60580
 O462 O 0.50164 -0.08478 0.54640
 O463 O 0.52972 0.00857 0.54898
 O464 O 0.47188 0.00907 0.54875
 O465 O 0.45412 0.07072 0.42343
 O466 O 0.41750 0.03930 0.45816
 C467 C 0.42494 0.06360 0.43416
 O468 O 0.54124 -0.05134 0.42000
 O469 O 0.57899 -0.02205 0.45667
 C470 C 0.57089 -0.04407 0.43016
 O471 O 0.45183 -0.05253 0.42325
 O472 O 0.41641 -0.02082 0.45779
 C473 C 0.42285 -0.04421 0.43279
 O474 O 0.54324 0.06368 0.41563
 O475 O 0.57988 0.03487 0.45460
 C476 C 0.57261 0.05571 0.42603
 Zr477 Zr 0.49855 0.04849 0.43922
 O478 O 0.49300 0.04530 0.37631
 O479 O 0.50283 0.10052 0.43482
 Zr480 Zr 0.49719 -0.03418 0.44215
 O481 O 0.49730 -0.03689 0.37893
 O482 O 0.49680 -0.08626 0.44813
 Zr483 Zr 0.54786 0.00737 0.49062
 Zr484 Zr 0.45009 0.00839 0.49129
 O485 O 0.46896 0.00754 0.43351
 O486 O 0.52682 0.00671 0.43264
 O487 O 0.47106 0.05603 0.48963
 O488 O 0.52648 -0.03994 0.49240
 O489 O 0.52808 0.05513 0.48900
 O490 O 0.46938 -0.03970 0.49280
 H491 H 0.45779 0.00940 0.57230
 H492 H 0.54029 -0.05985 0.49296
 H493 H 0.45329 0.00819 0.41071
 H494 H 0.54257 0.07472 0.48793
 H495 H 0.48870 -0.09341 0.52352
 H496 H 0.49681 -0.09511 0.42062
 H497 H 0.48006 -0.02240 0.36797
 H498 H 0.51021 0.03061 0.36686
 H499 H 0.49428 0.10955 0.45980
 H500 H 0.50344 0.11053 0.56328
 H501 H 0.51814 0.03811 0.61346
 H502 H 0.51772 -0.01889 0.61561
 O503 O 0.54909 0.56439 0.06648
 O504 O 0.58470 0.53365 0.03075
 C505 C 0.57808 0.55667 0.05611
 O506 O 0.45997 0.44406 0.07152
 O507 O 0.42266 0.47323 0.03380
 C508 C 0.43042 0.45099 0.06064
 O509 O 0.55046 0.44863 0.07353
 O510 O 0.58538 0.47709 0.03301
 C511 C 0.57933 0.45624 0.06170
 O512 O 0.45951 0.56530 0.06458
 O513 O 0.42221 0.53279 0.03133
 C514 C 0.42998 0.55648 0.05584
 Zr515 Zr 0.50389 0.54586 0.04656
 O516 O 0.50300 0.54531 0.10982
 O517 O 0.50575 0.59813 0.04557
 Zr518 Zr 0.50442 0.46321 0.05090
 O519 O 0.50771 0.46378 0.11422
 O520 O 0.50534 0.41098 0.05010
 O521 O 0.53355 0.50513 0.05604
 O522 O 0.47570 0.50442 0.05632
 O523 O 0.45629 0.56237 -0.07237
 O524 O 0.42056 0.53198 -0.03534
 C525 C 0.42724 0.55500 -0.06151
 O526 O 0.54583 0.44307 -0.07074
 O527 O 0.58318 0.47452 -0.03624
 C528 C 0.57535 0.45131 -0.06137
 O529 O 0.45685 0.43938 -0.06524
 O530 O 0.42080 0.47146 -0.03231
 C531 C 0.42771 0.44704 -0.05562
 O532 O 0.54559 0.56002 -0.07728
 O533 O 0.58306 0.53160 -0.03904
 C534 C 0.57513 0.55295 -0.06680
 Zr535 Zr 0.50134 0.54337 -0.05399
 O536 O 0.49633 0.54133 -0.11704
 O537 O 0.50277 0.59566 -0.05428
 Zr538 Zr 0.50165 0.46079 -0.04990
 O539 O 0.49632 0.46204 -0.11302
 O540 O 0.50418 0.40861 -0.05038
 Zr541 Zr 0.55156 0.50373 -0.00239
 Zr542 Zr 0.45399 0.50278 -0.00108
 O543 O 0.47263 0.50157 -0.05895
 O544 O 0.53055 0.50213 -0.06033
 O545 O 0.47375 0.55085 -0.00369
 O546 O 0.53117 0.45602 0.00050
 O547 O 0.53075 0.55105 -0.00442
 O548 O 0.47431 0.45515 0.00124
 H549 H 0.46129 0.50505 0.07951
 H550 H 0.54539 0.43641 0.00153
 H551 H 0.45708 0.50082 -0.08190
 H552 H 0.54469 0.57104 -0.00568
 H553 H 0.50710 0.40364 0.07841
 H554 H 0.49529 0.40064 -0.02479
 H555 H 0.51662 0.47098 -0.12404
 H556 H 0.51459 0.52831 -0.12692
 H557 H 0.50195 0.60277 -0.08273
 H558 H 0.49373 0.60549 0.02121
 H559 H 0.52090 0.53106 0.11960
 H560 H 0.48925 0.47634 0.12433
 C561 C 1.11824 0.20297 0.10988
 C562 C 1.14939 0.19174 0.12101
 C563 C 1.15833 0.15973 0.11006
 C564 C 1.13629 0.13872 0.09047
 C565 C 1.10451 0.14948 0.08128
 C566 C 1.09601 0.18203 0.09026
 C567 C 1.08164 0.12706 0.06486
 C568 C 1.09041 0.09403 0.05840
 C569 C 1.12268 0.08447 0.06574
 C570 C 1.14532 0.10650 0.08158
 H571 H 1.18189 0.15024 0.11884
 H572 H 1.07194 0.19102 0.08310
 H573 H 1.05694 0.13480 0.05904
 H574 H 1.16969 0.09800 0.08797
 H575 H 1.11076 0.22775 0.11704
 H576 H 1.13043 0.05946 0.06012
 C577 C 1.17303 0.63085 0.63952
 C578 C 1.16422 0.66431 0.63683
 C579 C 1.13498 0.67285 0.61701
 C580 C 1.11453 0.64817 0.60104
 C581 C 1.12359 0.61468 0.60469
 C582 C 1.15299 0.60631 0.62351
 C583 C 1.10297 0.58991 0.58997
 C584 C 1.07312 0.59786 0.57147
 C585 C 1.06444 0.63127 0.56729
 C586 C 1.08497 0.65624 0.58202
 H587 H 1.12802 0.69856 0.61435
 H588 H 1.16022 0.58069 0.62655
 H589 H 1.11031 0.56433 0.59307
 H590 H 1.07764 0.68181 0.57882
 H591 H 1.19500 0.62344 0.65524
 H592 H 1.04170 0.63811 0.55295
 C593 C 0.63652 0.18215 0.62824
 C594 C 0.66472 0.16744 0.64427
 C595 C 0.67123 0.13421 0.63486
 C596 C 0.64908 0.11570 0.61135
 C597 C 0.62021 0.13064 0.59725
 C598 C 0.61446 0.16395 0.60518
 C599 C 0.59706 0.11191 0.57621
 C600 C 0.60212 0.07827 0.56867
 C601 C 0.63146 0.06377 0.58098
 C602 C 0.65473 0.08232 0.60244
 H603 H 0.69280 0.12243 0.64695
 H604 H 0.59262 0.17584 0.59404
 H605 H 0.57467 0.12344 0.56622
 H606 H 0.67682 0.07043 0.61271
 H607 H 0.63128 0.20786 0.63381
 H608 H 0.63582 0.03787 0.57537
 C609 C 0.63806 0.68519 0.12184
 C610 C 0.66641 0.67174 0.13913
 C611 C 0.67323 0.63806 0.13289
 C612 C 0.65120 0.61788 0.11140
 C613 C 0.62211 0.63162 0.09612
 C614 C 0.61610 0.66535 0.10074
 C615 C 0.59903 0.61133 0.07725
 C616 C 0.60445 0.57735 0.07297
 C617 C 0.63399 0.56393 0.08637
 C618 C 0.65715 0.58404 0.10577
 H619 H 0.69492 0.62725 0.14603
 H620 H 0.59411 0.67629 0.08862
 H621 H 0.57648 0.62196 0.06629
 H622 H 0.67941 0.57305 0.11699
 H623 H 0.63259 0.71114 0.12509
 H624 H 0.63860 0.53778 0.08315
 C625 C 0.86853 -0.13345 0.20025
 C626 C 0.86189 -0.16438 0.18301
 C627 C 0.87949 -0.17422 0.14966
 C628 C 0.90289 -0.15300 0.13327
 C629 C 0.90880 -0.12180 0.15066
 C630 C 0.89186 -0.11246 0.18439
 C631 C 0.93051 -0.09971 0.13312
 C632 C 0.94592 -0.10772 0.09752
 C633 C 0.94113 -0.13935 0.08130
 C634 C 0.91986 -0.16190 0.09917
 H635 H 0.87480 -0.19814 0.13636
 H636 H 0.89606 -0.08853 0.19792
 H637 H 0.93415 -0.07553 0.14625
 H638 H 0.91580 -0.18578 0.08550
 H639 H 0.85504 -0.12503 0.22552
 H640 H 0.95262 -0.14612 0.05383
 C641 C 0.86839 0.35970 0.70407
 C642 C 0.85641 0.33127 0.68391
 C643 C 0.86892 0.32483 0.64556
 C644 C 0.89145 0.34633 0.62793
 C645 C 0.90184 0.37488 0.64844
 C646 C 0.89062 0.38103 0.68659
 C647 C 0.92247 0.39757 0.63000
 C648 C 0.93285 0.39236 0.59097
 C649 C 0.92391 0.36306 0.57132
 C650 C 0.90332 0.34017 0.58970
 H651 H 0.86224 0.30267 0.62947
 H652 H 0.89830 0.40300 0.70257
 H653 H 0.92957 0.41996 0.64558
 H654 H 0.89587 0.31823 0.57353
 H655 H 0.85923 0.36746 0.73242
 H656 H 0.93155 0.35863 0.54110
 C657 C 0.37181 -0.14771 0.67051
 C658 C 0.33904 -0.14651 0.65858
 C659 C 0.32957 -0.12447 0.62751
 C660 C 0.35261 -0.10387 0.60898
 C661 C 0.38534 -0.10555 0.62160
 C662 C 0.39466 -0.12747 0.65232
 C663 C 0.40850 -0.08557 0.60315
 C664 C 0.39987 -0.06366 0.57176
 C665 C 0.36716 -0.06172 0.55960
 C666 C 0.34373 -0.08167 0.57805
 H667 H 0.30437 -0.12312 0.61812
 H668 H 0.41975 -0.12913 0.66214
 H669 H 0.43350 -0.08741 0.61329
 H670 H 0.31874 -0.07991 0.56793
 H671 H 0.37996 -0.16480 0.69367
 H672 H 0.35976 -0.04515 0.53553
 C673 C 0.36989 0.35727 0.18647
 C674 C 0.33992 0.35173 0.16680
 C675 C 0.33337 0.36869 0.13043
 C676 C 0.35653 0.39025 0.11388
 C677 C 0.38675 0.39471 0.13363
 C678 C 0.39306 0.37832 0.17000
 C679 C 0.41037 0.41519 0.11652
 C680 C 0.40428 0.43164 0.07988
 C681 C 0.37380 0.42782 0.06097
 C682 C 0.35020 0.40719 0.07770
 H683 H 0.31061 0.36467 0.11453
 H684 H 0.41600 0.38174 0.18576
 H685 H 0.43366 0.41807 0.13165
 H686 H 0.32714 0.40421 0.06212
 H687 H 0.37548 0.34550 0.21496
 H688 H 0.36851 0.44002 0.03263
 C689 C 0.81888 0.12366 -0.11563
 C690 C 0.83021 0.15516 -0.12673
 C691 C 0.86213 0.16459 -0.11629
 C692 C 0.88299 0.14204 -0.09683
 C693 C 0.87150 0.11003 -0.08730
 C694 C 0.83931 0.10132 -0.09597
 C695 C 0.89257 0.08676 -0.07036
 C696 C 0.92530 0.09460 -0.06303
 C697 C 0.93642 0.12683 -0.07093
 C698 C 0.91539 0.15042 -0.08784
 H699 H 0.87110 0.18881 -0.12492
 H700 H 0.83014 0.07692 -0.08847
 H701 H 0.88350 0.06216 -0.06358
 H702 H 0.92460 0.17491 -0.09471
 H703 H 0.79426 0.11612 -0.12276
 H704 H 0.96150 0.13344 -0.06520
 C705 C 0.81152 0.62783 0.38134
 C706 C 0.82310 0.65958 0.37182
 C707 C 0.85463 0.66889 0.38405
 C708 C 0.87500 0.64597 0.40360
 C709 C 0.86336 0.61371 0.41149
 C710 C 0.83143 0.60512 0.40117
 C711 C 0.88408 0.59009 0.42837
 C712 C 0.91659 0.59788 0.43724
 C713 C 0.92780 0.63032 0.43097
 C714 C 0.90712 0.65424 0.41415
 H715 H 0.86379 0.69331 0.37657
 H716 H 0.82214 0.58052 0.40739
 H717 H 0.87494 0.56530 0.43388
 H718 H 0.91642 0.67892 0.40853
 H719 H 0.78717 0.62039 0.37269
 H720 H 0.95271 0.63688 0.43791
 C721 C 0.30526 0.11572 0.33759
 C722 C 0.31242 0.15008 0.34054
 C723 C 0.33940 0.15885 0.36535
 C724 C 0.35859 0.13490 0.38490
 C725 C 0.35127 0.10096 0.38072
 C726 C 0.32427 0.09176 0.35735
 C727 C 0.37174 0.07700 0.39887
 C728 C 0.39984 0.08703 0.42003
 C729 C 0.40631 0.12091 0.42462
 C730 C 0.38584 0.14458 0.40757
 H731 H 0.34756 0.18418 0.36780
 H732 H 0.31792 0.06588 0.35403
 H733 H 0.36680 0.05088 0.39484
 H734 H 0.39186 0.17050 0.41123
 H735 H 0.28433 0.10662 0.32119
 H736 H 0.42779 0.12912 0.44091
 C737 C 0.37250 0.66833 -0.16725
 C738 C 0.33935 0.66215 -0.16243
 C739 C 0.32970 0.63592 -0.13701
 C740 C 0.35308 0.61571 -0.11766
 C741 C 0.38619 0.62216 -0.12367
 C742 C 0.39563 0.64859 -0.14817
 C743 C 0.40963 0.60212 -0.10525
 C744 C 0.40101 0.57526 -0.08043
 C745 C 0.36801 0.56903 -0.07412
 C746 C 0.34424 0.58906 -0.09266
 H747 H 0.30421 0.63087 -0.13304
 H748 H 0.42099 0.65395 -0.15273
 H749 H 0.43486 0.60775 -0.11040
 H750 H 0.31897 0.58367 -0.08752
 H751 H 0.38064 0.68872 -0.18579
 H752 H 0.36061 0.54870 -0.05503
 C753 C 1.12938 -0.14100 -0.19330
 C754 C 1.14203 -0.16778 -0.17103
 C755 C 1.12867 -0.17578 -0.13377
 C756 C 1.10434 -0.15596 -0.11799
 C757 C 1.09304 -0.12824 -0.14008
 C758 C 1.10512 -0.12145 -0.17802
 C759 C 1.07107 -0.10666 -0.12312
 C760 C 1.06068 -0.11175 -0.08386
 C761 C 1.07040 -0.14039 -0.06286
 C762 C 1.09205 -0.16240 -0.07987
 H763 H 1.13817 -0.19642 -0.11637
 H764 H 1.09643 -0.10047 -0.19545
 H765 H 1.06347 -0.08480 -0.13974
 H766 H 1.10024 -0.18364 -0.06255
 H767 H 1.13853 -0.13492 -0.22256
 H768 H 1.06284 -0.14472 -0.03246
 C769 C 1.13464 0.36783 0.31799
 C770 C 1.14334 0.33853 0.33839
 C771 C 1.12605 0.32894 0.37252
 C772 C 1.10144 0.34923 0.38694
 C773 C 1.09400 0.37915 0.36675
 C774 C 1.11030 0.38791 0.33201
 C775 C 1.07133 0.40064 0.38242
 C776 C 1.05630 0.39333 0.41875
 C777 C 1.06231 0.36269 0.43754
 C778 C 1.08474 0.34078 0.42176
 H779 H 1.13237 0.30639 0.38850
 H780 H 1.10460 0.41063 0.31600
 H781 H 1.06662 0.42397 0.36720
 H782 H 1.08983 0.31781 0.43752
 H783 H 1.14668 0.37529 0.29092
 H784 H 1.05089 0.35637 0.46538
 C785 C 0.62625 -0.16252 0.33985
 C786 C 0.65901 -0.15316 0.34152
 C787 C 0.66800 -0.12317 0.35989
 C788 C 0.64444 -0.10305 0.37689
 C789 C 0.61161 -0.11284 0.37472
 C790 C 0.60277 -0.14251 0.35612
 C791 C 0.58801 -0.09303 0.39150
 C792 C 0.59650 -0.06356 0.41123
 C793 C 0.62923 -0.05403 0.41361
 C794 C 0.65300 -0.07351 0.39633
 H795 H 0.69325 -0.11586 0.36149
 H796 H 0.57767 -0.15032 0.35424
 H797 H 0.56296 -0.10106 0.38979
 H798 H 0.67805 -0.06561 0.39845
 H799 H 0.61873 -0.18523 0.32537
 H800 H 0.63644 -0.03151 0.42873
 C801 C 0.63015 0.32885 -0.14398
 C802 C 0.66234 0.33964 -0.14713
 C803 C 0.67129 0.37100 -0.13226
 C804 C 0.64822 0.39118 -0.11433
 C805 C 0.61592 0.37996 -0.11194
 C806 C 0.60716 0.34882 -0.12669
 C807 C 0.59269 0.39999 -0.09486
 C808 C 0.60096 0.43123 -0.07943
 C809 C 0.63325 0.44210 -0.08109
 C810 C 0.65668 0.42230 -0.09867
 H811 H 0.69612 0.37945 -0.13435
 H812 H 0.58245 0.33993 -0.12502
 H813 H 0.56803 0.39089 -0.09322
 H814 H 0.68136 0.43130 -0.10000
 H815 H 0.62258 0.30509 -0.15570
 H816 H 0.64028 0.46597 -0.06923
 C817 C 1.14995 0.12214 -0.18263
 C818 C 1.15456 0.15374 -0.16563
 C819 C 1.13443 0.16275 -0.13391
 C820 C 1.11154 0.14036 -0.11873
 C821 C 1.10816 0.10873 -0.13574
 C822 C 1.12708 0.10007 -0.16795
 C823 C 1.08662 0.08574 -0.11959
 C824 C 1.06875 0.09343 -0.08578
 C825 C 1.07140 0.12530 -0.06962
 C826 C 1.09258 0.14864 -0.08606
 H827 H 1.13753 0.18634 -0.11931
 H828 H 1.12441 0.07601 -0.18166
 H829 H 1.08473 0.06134 -0.13260
 H830 H 1.09476 0.17281 -0.07256
 H831 H 1.16321 0.11444 -0.20837
 H832 H 1.05802 0.13183 -0.04343
 C833 C 1.17431 0.62672 0.38712
 C834 C 1.16295 0.65662 0.37060
 C835 C 1.13043 0.66549 0.37574
 C836 C 1.10914 0.64373 0.39521
 C837 C 1.12074 0.61302 0.40974
 C838 C 1.15341 0.60509 0.40646
 C839 C 1.09936 0.59018 0.42636
 C840 C 1.06638 0.59735 0.42896
 C841 C 1.05502 0.62844 0.41647
 C842 C 1.07629 0.65148 0.39937
 H843 H 1.12139 0.68848 0.36307
 H844 H 1.16266 0.58180 0.41800
 H845 H 1.10836 0.56644 0.43688
 H846 H 1.06697 0.67501 0.38872
 H847 H 1.19938 0.61973 0.38438
 H848 H 1.02965 0.63441 0.41868
 C849 C 0.63237 0.15026 0.30121
 C850 C 0.66488 0.14762 0.31396
 C851 C 0.67288 0.12595 0.34586
 C852 C 0.64864 0.10749 0.36494
 C853 C 0.61609 0.11075 0.35192
 C854 C 0.60826 0.13198 0.31991
 C855 C 0.59172 0.09319 0.37146
 C856 C 0.59913 0.07234 0.40427
 C857 C 0.63165 0.06871 0.41661
 C858 C 0.65620 0.08613 0.39710
 H859 H 0.69787 0.12349 0.35579
 H860 H 0.58338 0.13483 0.30968
 H861 H 0.56684 0.09620 0.36131
 H862 H 0.68102 0.08321 0.40747
 H863 H 0.62540 0.16716 0.27730
 H864 H 0.63811 0.05282 0.44174
 C865 C 0.63216 0.67537 -0.15124
 C866 C 0.66313 0.66299 -0.15951
 C867 C 0.67043 0.63022 -0.14699
 C868 C 0.64756 0.61080 -0.12655
 C869 C 0.61672 0.62383 -0.11946
 C870 C 0.60932 0.65602 -0.13179
 C871 C 0.59355 0.60453 -0.10011
 C872 C 0.60068 0.57231 -0.08677
 C873 C 0.63170 0.55964 -0.09270
 C874 C 0.65490 0.57865 -0.11280
 H875 H 0.69418 0.62007 -0.15160
 H876 H 0.58565 0.66626 -0.12666
 H877 H 0.56990 0.61486 -0.09499
 H878 H 0.67852 0.56823 -0.11761
 H879 H 0.62460 0.69962 -0.16146
 H880 H 0.63774 0.53491 -0.08250
 C881 C 0.82088 -0.14145 -0.11575
 C882 C 0.83414 -0.16865 -0.13520
 C883 C 0.86708 -0.17610 -0.12869
 C884 C 0.88689 -0.15535 -0.10506
 C885 C 0.87343 -0.12707 -0.08764
 C886 C 0.84034 -0.12082 -0.09226
 C887 C 0.89345 -0.10468 -0.06723
 C888 C 0.92688 -0.10989 -0.06395
 C889 C 0.94004 -0.13890 -0.07915
 C890 C 0.92014 -0.16149 -0.09979
 H891 H 0.87762 -0.19698 -0.14354
 H892 H 0.82965 -0.09946 -0.07858
 H893 H 0.88316 -0.08248 -0.05496
 H894 H 0.93087 -0.18317 -0.11265
 H895 H 0.79545 -0.13572 -0.11935
 H896 H 0.96582 -0.14325 -0.07677
 C897 C 0.88938 0.30190 0.34970
 C898 C 0.85634 0.30877 0.35376
 C899 C 0.84707 0.33299 0.38076
 C900 C 0.87036 0.35188 0.40126
 C901 C 0.90366 0.34602 0.39571
 C902 C 0.91288 0.32031 0.37065
 C903 C 0.92690 0.36707 0.41368
 C904 C 0.91680 0.39425 0.43576
 C905 C 0.88378 0.39891 0.44233
 C906 C 0.86074 0.37772 0.42560
 H907 H 0.82162 0.33803 0.38459
 H908 H 0.93821 0.31533 0.36604
 H909 H 0.95242 0.36360 0.40850
 H910 H 0.83536 0.38239 0.43031
 H911 H 0.89706 0.28331 0.32894
 H912 H 0.87576 0.41967 0.45968
 C913 C 0.36837 -0.14777 0.31610
 C914 C 0.33789 -0.15378 0.33346
 C915 C 0.32904 -0.13284 0.36536
 C916 C 0.35061 -0.10858 0.38050
 C917 C 0.38100 -0.10428 0.36300
 C918 C 0.38935 -0.12346 0.33051
 C919 C 0.40326 -0.08158 0.37893
 C920 C 0.39635 -0.06348 0.41331
 C921 C 0.36565 -0.06687 0.43005
 C922 C 0.34288 -0.08920 0.41367
 H923 H 0.30653 -0.13652 0.38065
 H924 H 0.41244 -0.11993 0.31633
 H925 H 0.42666 -0.07898 0.36522
 H926 H 0.31964 -0.09200 0.42763
 H927 H 0.37607 -0.16067 0.28989
 H928 H 0.35971 -0.05327 0.45657
 C929 C 0.37340 0.33037 -0.15379
 C930 C 0.34033 0.33690 -0.15028
 C931 C 0.33052 0.36344 -0.12651
 C932 C 0.35383 0.38397 -0.10767
 C933 C 0.38696 0.37725 -0.11228
 C934 C 0.39648 0.35025 -0.13489
 C935 C 0.41034 0.39782 -0.09475
 C936 C 0.40162 0.42565 -0.07262
 C937 C 0.36862 0.43209 -0.06752
 C938 C 0.34489 0.41137 -0.08492
 H939 H 0.30501 0.36864 -0.12377
 H940 H 0.42185 0.34475 -0.13843
 H941 H 0.43559 0.39205 -0.09885
 H942 H 0.31961 0.41695 -0.08092
 H943 H 0.38140 0.30980 -0.17144
 H944 H 0.36119 0.45320 -0.05044
 C945 C 1.17559 -0.13967 0.15420
 C946 C 1.16621 -0.17312 0.15387
 C947 C 1.13727 -0.18244 0.13388
 C948 C 1.11790 -0.15843 0.11461
 C949 C 1.12771 -0.12495 0.11556
 C950 C 1.15658 -0.11584 0.13516
 C951 C 1.10844 -0.10082 0.09723
 C952 C 1.07915 -0.10927 0.07768
 C953 C 1.06960 -0.14266 0.07623
 C954 C 1.08884 -0.16709 0.09466
 H955 H 1.12992 -0.20820 0.13329
 H956 H 1.16428 -0.09019 0.13618
 H957 H 1.11648 -0.07527 0.09835
 H958 H 1.08093 -0.19266 0.09349
 H959 H 1.19735 -0.13175 0.17006
 H960 H 1.04721 -0.14984 0.06121
 C961 C 1.14038 0.36100 0.68889
 C962 C 1.14754 0.33172 0.66873
 C963 C 1.12989 0.32366 0.63366
 C964 C 1.10655 0.34552 0.61790
 C965 C 1.10080 0.37556 0.63764
 C966 C 1.11729 0.38274 0.67347
 C967 C 1.07953 0.39859 0.62059
 C968 C 1.06401 0.39243 0.58367
 C969 C 1.06831 0.36182 0.56519
 C970 C 1.08955 0.33852 0.58213
 H971 H 1.13515 0.30112 0.61791
 H972 H 1.11280 0.40549 0.68917
 H973 H 1.07592 0.42193 0.63547
 H974 H 1.09339 0.31550 0.56672
 H975 H 1.15289 0.36727 0.71660
 H976 H 1.05635 0.35650 0.53688
 C977 C 0.63369 -0.13940 0.67754
 C978 C 0.66201 -0.14684 0.65700
 C979 C 0.66875 -0.12919 0.62153
 C980 C 0.64689 -0.10545 0.60619
 C981 C 0.61806 -0.09929 0.62659
 C982 C 0.61194 -0.11601 0.66247
 C983 C 0.59528 -0.07721 0.61032
 C984 C 0.60056 -0.06117 0.57355
 C985 C 0.62989 -0.06628 0.55418
 C986 C 0.65286 -0.08829 0.57034
 H987 H 0.69041 -0.13458 0.60527
 H988 H 0.59011 -0.11128 0.67870
 H989 H 0.57290 -0.07329 0.62578
 H990 H 0.67488 -0.09251 0.55430
 H991 H 0.62828 -0.15169 0.70552
 H992 H 0.63448 -0.05437 0.52571
 C993 C 0.64613 0.36813 0.18988
 C994 C 0.67188 0.35733 0.16661
 C995 C 0.67610 0.37178 0.12854
 C996 C 0.65405 0.39532 0.11332
 C997 C 0.62735 0.40442 0.13631
 C998 C 0.62401 0.39122 0.17482
 C999 C 0.60384 0.42573 0.11998
 C1000 C 0.60664 0.43834 0.08093
 C1001 C 0.63413 0.43063 0.05901
 C1002 C 0.65757 0.40917 0.07500
 H1003 H 0.69570 0.36382 0.11007
 H1004 H 0.60397 0.39833 0.19309
 H1005 H 0.58284 0.43174 0.13724
 H1006 H 0.67797 0.40270 0.05699
 H1007 H 0.64279 0.35847 0.21980
 H1008 H 0.63671 0.43990 0.02875
 C1009 C 0.83710 0.13122 0.13126
 C1010 C 0.84697 0.16453 0.13057
 C1011 C 0.87779 0.17281 0.11624
 C1012 C 0.89862 0.14795 0.10338
 C1013 C 0.88848 0.11457 0.10522
 C1014 C 0.85764 0.10649 0.11876
 C1015 C 0.90925 0.08961 0.09344
 C1016 C 0.94002 0.09727 0.07889
 C1017 C 0.94988 0.13053 0.07638
 C1018 C 0.92943 0.15569 0.08891
 H1019 H 0.88558 0.19845 0.11537
 H1020 H 0.84955 0.08097 0.12022
 H1021 H 0.90098 0.06413 0.09469
 H1022 H 0.93759 0.18116 0.08707
 H1023 H 0.81382 0.12409 0.14289
 H1024 H 0.97335 0.13702 0.06482
 C1025 C 0.82771 0.63039 0.64489
 C1026 C 0.83759 0.66370 0.64439
 C1027 C 0.86742 0.67231 0.62747
 C1028 C 0.88718 0.64781 0.61152
 C1029 C 0.87701 0.61442 0.61290
 C1030 C 0.84722 0.60600 0.62934
 C1031 C 0.89676 0.58981 0.59789
 C1032 C 0.92661 0.59782 0.58089
 C1033 C 0.93642 0.63113 0.57892
 C1034 C 0.91693 0.65593 0.59437
 H1035 H 0.87517 0.69796 0.62671
 H1036 H 0.83914 0.58047 0.63056
 H1037 H 0.88853 0.56431 0.59901
 H1038 H 0.92510 0.68141 0.59287
 H1039 H 0.80518 0.62304 0.65836
 H1040 H 0.95921 0.63795 0.56572
 C1041 C 0.37523 0.16830 0.66141
 C1042 C 0.34204 0.16252 0.65485
 C1043 C 0.33193 0.13827 0.62722
 C1044 C 0.35491 0.11945 0.60720
 C1045 C 0.38817 0.12542 0.61461
 C1046 C 0.39807 0.15000 0.64145
 C1047 C 0.41121 0.10660 0.59538
 C1048 C 0.40187 0.08144 0.56867
 C1049 C 0.36874 0.07564 0.56120
 C1050 C 0.34543 0.09454 0.58029
 H1051 H 0.30635 0.13356 0.62212
 H1052 H 0.42352 0.15493 0.64724
 H1053 H 0.43659 0.11160 0.60161
 H1054 H 0.32005 0.08956 0.57417
 H1055 H 0.38356 0.18716 0.68203
 H1056 H 0.36083 0.05653 0.54069
 C1057 C 0.37462 0.64928 0.18212
 C1058 C 0.34194 0.64779 0.16984
 C1059 C 0.33291 0.62819 0.13675
 C1060 C 0.35634 0.61014 0.11648
 C1061 C 0.38905 0.61208 0.12930
 C1062 C 0.39792 0.63164 0.16208
 C1063 C 0.41256 0.59449 0.10922
 C1064 C 0.40418 0.57457 0.07631
 C1065 C 0.37155 0.57241 0.06384
 C1066 C 0.34783 0.59016 0.08369
 H1067 H 0.30775 0.62673 0.12715
 H1068 H 0.42295 0.63342 0.17215
 H1069 H 0.43752 0.59625 0.11960
 H1070 H 0.32287 0.58827 0.07341
 H1071 H 0.38229 0.66461 0.20698
 H1072 H 0.36444 0.55729 0.03856
   
