data_POSCAR
  _audit_creation_date              2014-09-24
  _audit_creation_method            'ToBaCCo'
  _symmetry_space_group_name_H-M    'P1'
  _symmetry_Int_Tables_number       1
  _symmetry_cell_setting            triclinic
  loop_
  _symmetry_equiv_pos_as_xyz
 x,y,z
_cell_length_a 50.5682
_cell_length_b 49.7182
_cell_length_c 20.8013
_cell_angle_alpha 89.758000
_cell_angle_beta 90.329400
_cell_angle_gamma 119.423100
loop_
  _atom_site_label
  _atom_site_type_symbol
  _atom_site_fract_x
  _atom_site_fract_y
  _atom_site_fract_z
C1 C 0.32091 0.45874 0.43163
 C2 C 0.32434 0.46456 0.49631
 C3 C 0.29535 0.45119 0.52199
 N4 N 0.27432 0.43761 0.47509
 C5 C 0.28995 0.44208 0.41984
 C6 C 0.28858 0.45072 0.58809
 C7 C 0.25998 0.44650 0.60807
 C8 C 0.24792 0.43758 0.66923
 C9 C 0.22084 0.43779 0.66958
 C10 C 0.21692 0.44670 0.60856
 N11 N 0.24068 0.45157 0.57107
 C12 C 0.19233 0.45113 0.58935
 C13 C 0.18401 0.44967 0.52367
 C14 C 0.16613 0.46118 0.49813
 C15 C 0.16222 0.45363 0.43418
 C16 C 0.17809 0.43805 0.42245
 N17 N 0.19150 0.43572 0.47715
 C18 C 0.17928 0.42538 0.36252
 C19 C 0.20156 0.41700 0.34905
 C20 C 0.20136 0.39983 0.29644
 C21 C 0.22929 0.40136 0.29523
 C22 C 0.24552 0.41922 0.34736
 N23 N 0.22838 0.42832 0.38027
 C24 C 0.27652 0.42996 0.35946
 H25 H 0.33918 0.46620 0.39725
 H26 H 0.34574 0.47749 0.52147
 H27 H 0.23626 0.44517 0.41587
 H28 H 0.25753 0.43137 0.70943
 H29 H 0.20562 0.43180 0.71010
 H30 H 0.15709 0.47401 0.52281
 H31 H 0.14956 0.45943 0.40008
 H32 H 0.23713 0.39137 0.25901
 H33 H 0.24489 0.46080 0.52477
 H34 H 0.18343 0.38845 0.26120
 C35 C 0.56929 -0.28744 0.47850
 C36 C 0.57120 -0.28589 0.54413
 C37 C 0.58503 -0.25484 0.56023
 N38 N 0.59136 -0.23735 0.50640
 C39 C 0.58211 -0.25730 0.45623
 C40 C 0.59137 -0.24307 0.62392
 C41 C 0.59373 -0.21415 0.63830
 C42 C 0.60667 -0.19689 0.69346
 C43 C 0.60008 -0.17311 0.69302
 C44 C 0.58378 -0.17625 0.63714
 N45 N 0.58046 -0.20096 0.60357
 C46 C 0.56977 -0.15861 0.62090
 C47 C 0.56147 -0.15679 0.55674
 C48 C 0.54280 -0.14515 0.53700
 C49 C 0.54289 -0.14524 0.47104
 C50 C 0.56125 -0.15732 0.45288
 N51 N 0.57260 -0.16432 0.50521
 C52 C 0.56874 -0.16025 0.38910
 C53 C 0.58068 -0.17969 0.37287
 C54 C 0.59414 -0.17926 0.31476
 C55 C 0.59894 -0.20424 0.31523
 C56 C 0.58791 -0.21940 0.37336
 N57 N 0.57741 -0.20390 0.40867
 C58 C 0.58477 -0.24845 0.39056
 H59 H 0.55861 -0.30852 0.45069
 H60 H 0.56234 -0.30552 0.57634
 H61 H 0.56487 -0.21191 0.45084
 H62 H 0.61874 -0.20155 0.73111
 H63 H 0.60607 -0.15584 0.73011
 H64 H 0.53037 -0.13742 0.56677
 H65 H 0.53064 -0.13756 0.44005
 H66 H 0.60859 -0.21103 0.27646
 H67 H 0.56631 -0.21079 0.56387
 H68 H 0.59925 -0.16309 0.27554
 C69 C 1.12968 0.68385 0.47810
 C70 C 1.12695 0.68504 0.54325
 C71 C 1.15152 0.71257 0.56433
 N72 N 1.16930 0.72790 0.51349
 C73 C 1.15591 0.71042 0.46084
 C74 C 1.16004 0.72067 0.62980
 C75 C 1.18634 0.74894 0.64705
 C76 C 1.20197 0.75513 0.70515
 C77 C 1.22557 0.78485 0.70208
 C78 C 1.22281 0.79718 0.64415
 N79 N 1.19900 0.77496 0.61070
 C80 C 1.24140 0.82822 0.62296
 C81 C 1.24004 0.83588 0.55805
 C82 C 1.24690 0.86491 0.53578
 C83 C 1.24819 0.86389 0.47006
 C84 C 1.24219 0.83430 0.45469
 N85 N 1.23668 0.81703 0.50845
 C86 C 1.24566 0.82443 0.39323
 C87 C 1.22928 0.79249 0.37806
 C88 C 1.23579 0.77789 0.32879
 C89 C 1.21375 0.74733 0.33020
 C90 C 1.19508 0.74379 0.38176
 N91 N 1.20456 0.77135 0.41049
 C92 C 1.16900 0.71604 0.39895
 H93 H 1.11479 0.66471 0.44757
 H94 H 1.10966 0.66655 0.57148
 H95 H 1.19318 0.77593 0.44674
 H96 H 1.19753 0.74024 0.74625
 H97 H 1.24271 0.79562 0.73894
 H98 H 1.25160 0.88495 0.56429
 H99 H 1.25399 0.88296 0.43734
 H100 H 1.21212 0.72969 0.29758
 H101 H 1.19026 0.77819 0.56768
 H102 H 1.25464 0.78782 0.29570
 C103 C 0.89270 0.60315 0.52360
 C104 C 0.88978 0.60191 0.45800
 C105 C 0.85915 0.58998 0.44506
 N106 N 0.84324 0.58392 0.50008
 C107 C 0.86364 0.59153 0.54815
 C108 C 0.84538 0.57840 0.38521
 C109 C 0.81606 0.57347 0.37114
 C110 C 0.79791 0.55621 0.32032
 C111 C 0.77138 0.55749 0.32434
 C112 C 0.77414 0.57541 0.37768
 N113 N 0.80155 0.58531 0.40544
 C114 C 0.75204 0.58283 0.39890
 C115 C 0.75182 0.59267 0.46258
 C116 C 0.73308 0.60366 0.48406
 C117 C 0.73578 0.60539 0.54971
 C118 C 0.75662 0.59594 0.56664
 N119 N 0.76640 0.58825 0.51291
 C120 C 0.76205 0.58891 0.63010
 C121 C 0.78580 0.58219 0.64437
 C122 C 0.78848 0.56837 0.70043
 C123 C 0.81451 0.56632 0.69527
 C124 C 0.82800 0.58014 0.63750
 N125 N 0.81042 0.58998 0.60716
 C126 C 0.85544 0.58290 0.61277
 H127 H 0.91347 0.61006 0.55035
 H128 H 0.90776 0.60744 0.42368
 H129 H 0.81589 0.60317 0.56528
 H130 H 0.80301 0.54370 0.28456
 H131 H 0.75208 0.54605 0.29230
 H132 H 0.71799 0.60863 0.45566
 H133 H 0.72266 0.61166 0.58080
 H134 H 0.82210 0.55539 0.73018
 H135 H 0.81069 0.60109 0.44308
 H136 H 0.77334 0.56027 0.74115
 C137 C 0.38046 0.12238 0.46730
 C138 C 0.38378 0.12418 0.53281
 C139 C 0.39840 0.15533 0.54849
 N140 N 0.40293 0.17250 0.49496
 C141 C 0.39209 0.15237 0.44527
 C142 C 0.41155 0.16771 0.60925
 C143 C 0.42027 0.19868 0.62582
 C144 C 0.44161 0.21592 0.67246
 C145 C 0.44426 0.24474 0.67227
 C146 C 0.42450 0.24458 0.62549
 N147 N 0.41003 0.21639 0.59715
 C148 C 0.42111 0.27043 0.60829
 C149 C 0.40966 0.27223 0.54691
 C150 C 0.39998 0.29305 0.52983
 C151 C 0.39680 0.29170 0.46426
 C152 C 0.40349 0.26930 0.44367
 N153 N 0.41120 0.25728 0.49418
 C154 C 0.40706 0.26360 0.37895
 C155 C 0.40690 0.23645 0.35885
 C156 C 0.41472 0.23164 0.29788
 C157 C 0.41175 0.20267 0.29809
 C158 C 0.40231 0.19063 0.35929
 N159 N 0.39842 0.21098 0.39531
 C160 C 0.39705 0.16134 0.38017
 H161 H 0.37115 0.10141 0.43928
 H162 H 0.37756 0.10485 0.56502
 H163 H 0.38893 0.20709 0.44100
 H164 H 0.45497 0.20902 0.70188
 H165 H 0.46003 0.26399 0.70147
 H166 H 0.39692 0.30863 0.56113
 H167 H 0.39086 0.30601 0.43506
 H168 H 0.41609 0.19182 0.25761
 H169 H 0.39294 0.20914 0.56240
 H170 H 0.42181 0.24730 0.25729
 C171 C 0.67825 0.13108 0.48830
 C172 C 0.68022 0.12982 0.55380
 C173 C 0.71070 0.14750 0.56964
 N174 N 0.72737 0.15964 0.51594
 C175 C 0.70751 0.15001 0.46617
 C176 C 0.72283 0.15133 0.63248
 C177 C 0.75322 0.17325 0.64743
 C178 C 0.76809 0.17323 0.70355
 C179 C 0.79577 0.19985 0.70309
 C180 C 0.79693 0.21562 0.64697
 N181 N 0.77102 0.19902 0.61291
 C182 C 0.82070 0.24553 0.63050
 C183 C 0.82502 0.25669 0.56618
 C184 C 0.84306 0.28731 0.54775
 C185 C 0.84146 0.28815 0.48209
 C186 C 0.82199 0.25821 0.46236
 N187 N 0.81203 0.23894 0.51368
 C188 C 0.81436 0.24916 0.39756
 C189 C 0.78940 0.22063 0.37913
 C190 C 0.78347 0.20925 0.31689
 C191 C 0.75531 0.18323 0.31760
 C192 C 0.74498 0.17923 0.38046
 N193 N 0.76594 0.20213 0.41756
 C194 C 0.71558 0.15706 0.40078
 H195 H 0.65751 0.11934 0.46048
 H196 H 0.66123 0.11733 0.58583
 H197 H 0.76258 0.20732 0.46404
 H198 H 0.75965 0.15602 0.74134
 H199 H 0.81292 0.20704 0.74037
 H200 H 0.85561 0.30724 0.57824
 H201 H 0.85275 0.30862 0.45238
 H202 H 0.74356 0.16946 0.27603
 H203 H 0.76423 0.20684 0.57306
 H204 H 0.79749 0.21924 0.27485
 O205 O 0.97057 0.47931 -0.13182
 O206 O 1.02496 0.52031 0.11735
 O207 O 0.94951 0.49502 0.05223
 O208 O 1.04628 0.53835 -0.02416
 O209 O 0.97019 0.48707 0.13473
 O210 O 1.02461 0.51925 -0.11449
 O211 O 1.06256 0.52062 0.07053
 O212 O 0.95763 0.49796 -0.05662
 C213 C 0.96052 0.49632 -0.11442
 C214 C 1.05280 0.53297 0.10885
 C215 C 0.95414 0.49703 0.11065
 C216 C 1.04066 0.54244 -0.08035
 O217 O 1.03686 0.47242 -0.09322
 O218 O 0.97354 0.43782 0.11937
 O219 O 0.94108 0.43549 -0.06004
 O220 O 1.04287 0.46574 0.01818
 O221 O 1.02987 0.46853 0.11465
 O222 O 0.98218 0.43608 -0.09348
 O223 O 1.07636 0.51139 -0.04914
 O224 O 0.93609 0.43524 0.05928
 Co225 Co 1.00320 0.47760 -0.09740
 Co226 Co 0.99995 0.47895 0.11067
 Co227 Co 0.95031 0.46696 -0.00170
 Co228 Co 1.04245 0.50134 -0.00374
 O229 O 0.99711 0.48113 0.00667
 C230 C 1.06516 0.49175 -0.09680
 C231 C 0.94616 0.42386 0.10162
 C232 C 0.95397 0.42209 -0.08647
 C233 C 1.04161 0.45846 0.07564
 O234 O 0.52314 0.48255 -0.12649
 O235 O 0.47762 0.51193 0.11041
 O236 O 0.52273 0.46201 0.06949
 O237 O 0.47556 0.53025 -0.08597
 O238 O 0.48684 0.46981 0.09750
 O239 O 0.48330 0.49505 -0.12320
 O240 O 0.45812 0.50889 0.01871
 O241 O 0.51072 0.45485 -0.04278
 C242 C 0.50908 0.45641 -0.10187
 C243 C 0.45454 0.50112 0.07584
 C244 C 0.49702 0.45191 0.09361
 C245 C 0.46633 0.50623 -0.11851
 O246 O 0.52569 0.55572 -0.12226
 O247 O 0.54637 0.50837 0.12521
 O248 O 0.56751 0.50366 -0.06766
 O249 O 0.50532 0.56126 0.07064
 O250 O 0.53824 0.55187 0.11323
 O251 O 0.56454 0.54238 -0.10207
 O252 O 0.52738 0.57641 -0.03245
 O253 O 0.57362 0.51731 0.04265
 Co254 Co 0.52358 0.51854 -0.10732
 Co255 Co 0.51285 0.51088 0.10049
 Co256 Co 0.54108 0.48741 0.00009
 Co257 Co 0.49408 0.54130 -0.00687
 O258 O 0.51792 0.51458 -0.00342
 C259 C 0.53557 0.57948 -0.08897
 C260 C 0.57216 0.51967 0.10134
 C261 C 0.57988 0.52946 -0.09458
 C262 C 0.52878 0.57030 0.10396
 O263 O 0.52184 0.00705 -0.10327
 O264 O 0.50378 -0.01843 0.11724
 O265 O 0.53684 0.04548 0.04426
 O266 O 0.48197 -0.06036 -0.03024
 O267 O 0.51138 0.03386 0.12877
 O268 O 0.47579 -0.04337 -0.11792
 O269 O 0.46981 -0.06168 0.07736
 O270 O 0.53136 0.05077 -0.06471
 C271 C 0.54053 0.03451 -0.09228
 C272 C 0.49420 -0.04644 0.10829
 C273 C 0.53662 0.04584 0.10311
 C274 C 0.48680 -0.05715 -0.08832
 O275 O 0.44192 -0.01688 -0.11368
 O276 O 0.45207 0.01195 0.10789
 O277 O 0.47617 0.04931 -0.04204
 O278 O 0.41969 -0.05457 0.04249
 O279 O 0.44472 -0.03948 0.12780
 O280 O 0.48745 0.03316 -0.12453
 O281 O 0.42858 -0.06037 -0.06622
 O282 O 0.48689 0.05415 0.06791
 Co283 Co 0.48161 -0.00488 -0.10303
 Co284 Co 0.47814 -0.00308 0.10817
 Co285 Co 0.50520 0.04499 0.00159
 Co286 Co 0.45256 -0.05428 0.00559
 O287 O 0.47928 -0.00435 0.00288
 C288 C 0.42225 -0.04399 -0.10256
 C289 C 0.46252 0.03992 0.09853
 C290 C 0.47531 0.04723 -0.10104
 C291 C 0.41959 -0.05155 0.10113
 C292 C 1.11807 0.42457 0.21638
 C293 C 1.10667 0.40905 0.27561
 C294 C 1.12650 0.40762 0.32125
 C295 C 1.15789 0.42296 0.31045
 C296 C 1.16913 0.43802 0.25157
 C297 C 1.14951 0.43858 0.20479
 C298 C 1.09659 0.42795 0.17141
 C299 C 1.10541 0.44248 0.11080
 C300 C 1.08608 0.44979 0.07581
 C301 C 1.05771 0.44273 0.10063
 C302 C 1.04748 0.42532 0.15729
 C303 C 1.06661 0.41776 0.19264
 C304 C 1.07593 0.39679 0.29071
 C305 C 1.05644 0.40156 0.25064
 H306 H 1.06717 0.38478 0.33585
 H307 H 1.03325 0.39317 0.26614
 H308 H 1.11778 0.39605 0.36686
 H309 H 1.19334 0.45024 0.24259
 H310 H 1.09427 0.46306 0.03183
 H311 H 1.02528 0.41939 0.17599
 H312 H 1.15956 0.45126 0.16122
 H313 H 1.12751 0.44949 0.09091
 C314 C 0.56946 0.68267 0.25123
 C315 C 0.58838 0.68704 0.30499
 C316 C 0.59484 0.71095 0.34887
 C317 C 0.58186 0.73025 0.34168
 C318 C 0.56408 0.72643 0.28655
 C319 C 0.55807 0.70319 0.24203
 C320 C 0.56111 0.65541 0.20837
 C321 C 0.54172 0.64863 0.15479
 C322 C 0.53228 0.62151 0.12000
 C323 C 0.54202 0.60045 0.13714
 C324 C 0.56277 0.60778 0.18806
 C325 C 0.57219 0.63496 0.22400
 C326 C 0.59983 0.66683 0.31600
 C327 C 0.59182 0.64129 0.27655
 H328 H 0.61453 0.67029 0.35690
 H329 H 0.60061 0.62589 0.28824
 H330 H 0.60951 0.71410 0.38970
 H331 H 0.55311 0.74024 0.27946
 H332 H 0.51671 0.61671 0.08015
 H333 H 0.57064 0.59177 0.20137
 H334 H 0.54354 0.70110 0.20203
 H335 H 0.53302 0.66355 0.13959
 C336 C 0.31622 -0.11336 0.26873
 C337 C 0.28847 -0.13639 0.24243
 C338 C 0.26441 -0.15567 0.28339
 C339 C 0.26818 -0.15386 0.35085
 C340 C 0.29606 -0.13075 0.37597
 C341 C 0.31947 -0.11076 0.33592
 C342 C 0.34183 -0.09423 0.22415
 C343 C 0.36961 -0.06979 0.24600
 C344 C 0.39413 -0.05520 0.20458
 C345 C 0.39168 -0.06424 0.14009
 C346 C 0.36330 -0.08664 0.11614
 C347 C 0.33830 -0.10165 0.15789
 C348 C 0.28552 -0.14099 0.17568
 C349 C 0.31009 -0.12445 0.13446
 H350 H 0.26429 -0.15862 0.15526
 H351 H 0.30705 -0.12983 0.08360
 H352 H 0.24291 -0.17253 0.26254
 H353 H 0.30066 -0.12904 0.42715
 H354 H 0.41548 -0.03724 0.22379
 H355 H 0.36103 -0.09333 0.06602
 H356 H 0.34043 -0.09442 0.35883
 H357 H 0.37312 -0.06189 0.29511
 C358 C 0.89094 0.54208 0.27013
 C359 C 0.88246 0.56277 0.24210
 C360 C 0.86734 0.57462 0.27918
 C361 C 0.85979 0.56523 0.34323
 C362 C 0.86650 0.54321 0.36925
 C363 C 0.88197 0.53186 0.33349
 C364 C 0.90850 0.53128 0.23068
 C365 C 0.92097 0.51374 0.25677
 C366 C 0.93641 0.50337 0.21783
 C367 C 0.93968 0.51006 0.15196
 C368 C 0.92830 0.52847 0.12581
 C369 C 0.91325 0.53959 0.16496
 C370 C 0.88885 0.57111 0.17727
 C371 C 0.90332 0.55920 0.13913
 H372 H 0.88211 0.58665 0.15542
 H373 H 0.90724 0.56587 0.08893
 H374 H 0.86160 0.59118 0.25861
 H375 H 0.86007 0.53508 0.41815
 H376 H 0.94527 0.48948 0.23920
 H377 H 0.93135 0.53431 0.07509
 H378 H 0.88641 0.51496 0.35625
 H379 H 0.91926 0.50792 0.30713
 C380 C 0.44009 0.33999 0.24632
 C381 C 0.45992 0.33077 0.27459
 C382 C 0.44871 0.30609 0.31807
 C383 C 0.41778 0.28973 0.33303
 C384 C 0.39785 0.29812 0.30409
 C385 C 0.40885 0.32311 0.26134
 C386 C 0.45345 0.36751 0.20232
 C387 C 0.43627 0.38005 0.17502
 C388 C 0.45026 0.40687 0.13765
 C389 C 0.48156 0.42162 0.12603
 C390 C 0.49863 0.40865 0.15059
 C391 C 0.48500 0.38218 0.18943
 C392 C 0.49085 0.34614 0.25942
 C393 C 0.50306 0.37110 0.21726
 H394 H 0.50590 0.33880 0.28066
 H395 H 0.52719 0.38235 0.20741
 H396 H 0.46402 0.29931 0.34029
 H397 H 0.37383 0.28542 0.31489
 H398 H 0.43661 0.41631 0.11832
 H399 H 0.52291 0.42011 0.14226
 H400 H 0.39260 0.32875 0.24054
 H401 H 0.41221 0.36997 0.18318
 C402 C 0.64330 0.11079 0.26314
 C403 C 0.64406 0.13379 0.30429
 C404 C 0.66857 0.14974 0.34638
 C405 C 0.69148 0.14179 0.35143
 C406 C 0.69041 0.11844 0.31227
 C407 C 0.66677 0.10330 0.26794
 C408 C 0.61672 0.09444 0.21860
 C409 C 0.61518 0.07370 0.17067
 C410 C 0.58936 0.05838 0.13174
 C411 C 0.56447 0.06294 0.14096
 C412 C 0.56600 0.08401 0.18717
 C413 C 0.59218 0.10038 0.22471
 C414 C 0.61979 0.13982 0.30526
 C415 C 0.59404 0.12290 0.26752
 H416 H 0.62028 0.15722 0.33724
 H417 H 0.57544 0.12777 0.27135
 H418 H 0.66924 0.16751 0.37759
 H419 H 0.70780 0.11181 0.31645
 H420 H 0.58849 0.04237 0.09550
 H421 H 0.54692 0.08804 0.19297
 H422 H 0.66677 0.08525 0.23934
 H423 H 0.63371 0.06925 0.16226
 C424 C 0.43673 0.11425 -0.27069
 C425 C 0.42414 0.13136 -0.24307
 C426 C 0.41541 0.14875 -0.28267
 C427 C 0.41974 0.14996 -0.34978
 C428 C 0.43358 0.13389 -0.37590
 C429 C 0.44176 0.11626 -0.33735
 C430 C 0.44522 0.09552 -0.22757
 C431 C 0.45558 0.07595 -0.25155
 C432 C 0.46463 0.06006 -0.20992
 C433 C 0.46354 0.06301 -0.14312
 C434 C 0.45193 0.08134 -0.11836
 C435 C 0.44251 0.09741 -0.16025
 C436 C 0.42089 0.13139 -0.17614
 C437 C 0.43036 0.11521 -0.13557
 H438 H 0.41143 0.14462 -0.15469
 H439 H 0.42793 0.11649 -0.08411
 H440 H 0.40495 0.16107 -0.26131
 H441 H 0.43892 0.13558 -0.42664
 H442 H 0.47288 0.04559 -0.23043
 H443 H 0.45048 0.08331 -0.06677
 H444 H 0.45263 0.10500 -0.36079
 H445 H 0.45686 0.07247 -0.30229
 C446 C 0.69128 0.57011 -0.23797
 C447 C 0.69748 0.54651 -0.25732
 C448 C 0.72120 0.55312 -0.30015
 C449 C 0.73998 0.58331 -0.32254
 C450 C 0.73495 0.60705 -0.30031
 C451 C 0.71083 0.60058 -0.25885
 C452 C 0.66386 0.56134 -0.19699
 C453 C 0.65324 0.58202 -0.18173
 C454 C 0.62634 0.57199 -0.14705
 C455 C 0.60976 0.54132 -0.12575
 C456 C 0.62068 0.52090 -0.13897
 C457 C 0.64696 0.53037 -0.17561
 C458 C 0.67982 0.51633 -0.23443
 C459 C 0.65547 0.50858 -0.19341
 H460 H 0.68487 0.49838 -0.24851
 H461 H 0.64244 0.48486 -0.17717
 H462 H 0.72460 0.53449 -0.31755
 H463 H 0.74948 0.63064 -0.31598
 H464 H 0.61827 0.58813 -0.13756
 H465 H 0.60778 0.49700 -0.12364
 H466 H 0.70782 0.61964 -0.24388
 H467 H 0.66484 0.60571 -0.19786
 C468 C 0.87692 0.31030 -0.22821
 C469 C 0.89002 0.30466 -0.28283
 C470 C 0.87155 0.28219 -0.32786
 C471 C 0.83986 0.26517 -0.32003
 C472 C 0.82731 0.26933 -0.26327
 C473 C 0.84550 0.29156 -0.21810
 C474 C 0.89692 0.33689 -0.18527
 C475 C 0.88560 0.34639 -0.13347
 C476 C 0.90453 0.37332 -0.09946
 C477 C 0.93529 0.39123 -0.11547
 C478 C 0.94720 0.38098 -0.16435
 C479 C 0.92821 0.35440 -0.20005
 C480 C 0.92135 0.32210 -0.29329
 C481 C 0.94007 0.34628 -0.25249
 H482 H 0.93147 0.31747 -0.33458
 H483 H 0.96405 0.35955 -0.26360
 H484 H 0.88180 0.27836 -0.37002
 H485 H 0.80302 0.25661 -0.25542
 H486 H 0.89483 0.38064 -0.06162
 H487 H 0.97092 0.39475 -0.17742
 H488 H 0.83434 0.29420 -0.17655
 H489 H 0.86201 0.33406 -0.11991
 C490 C 0.54276 -0.11373 -0.23737
 C491 C 0.55916 -0.09747 -0.29262
 C492 C 0.57022 -0.11129 -0.33545
 C493 C 0.56293 -0.14220 -0.32744
 C494 C 0.54678 -0.15829 -0.27261
 C495 C 0.53714 -0.14416 -0.22764
 C496 C 0.53018 -0.09863 -0.19440
 C497 C 0.51584 -0.11145 -0.13531
 C498 C 0.50259 -0.09743 -0.09946
 C499 C 0.50281 -0.07080 -0.12249
 C500 C 0.51804 -0.05726 -0.17983
 C501 C 0.53239 -0.07042 -0.21484
 C502 C 0.56268 -0.06837 -0.30715
 C503 C 0.54882 -0.05554 -0.27012
 H504 H 0.57508 -0.05598 -0.34961
 H505 H 0.55097 -0.03365 -0.28505
 H506 H 0.58283 -0.09867 -0.37756
 H507 H 0.54071 -0.18224 -0.26567
 H508 H 0.49131 -0.10797 -0.05474
 H509 H 0.51871 -0.03637 -0.19728
 H510 H 0.52409 -0.15790 -0.18733
 H511 H 0.51464 -0.13222 -0.11614
 C512 C 0.35923 0.46555 -0.27969
 C513 C 0.34163 0.48025 -0.27042
 C514 C 0.31752 0.47433 -0.31256
 C515 C 0.31094 0.45446 -0.36554
 C516 C 0.32808 0.43935 -0.37323
 C517 C 0.35171 0.44468 -0.33109
 C518 C 0.38583 0.47380 -0.23584
 C519 C 0.40492 0.46067 -0.24134
 C520 C 0.43054 0.47062 -0.20206
 C521 C 0.43785 0.49389 -0.15631
 C522 C 0.41833 0.50621 -0.14866
 C523 C 0.39252 0.49641 -0.18793
 C524 C 0.34883 0.50156 -0.22045
 C525 C 0.37378 0.50956 -0.18030
 H526 H 0.33533 0.51276 -0.21308
 H527 H 0.37872 0.52666 -0.14322
 H528 H 0.30504 0.48669 -0.30624
 H529 H 0.32311 0.42316 -0.41224
 H530 H 0.44506 0.46051 -0.20857
 H531 H 0.42354 0.52394 -0.11285
 H532 H 0.36407 0.43259 -0.34041
 H533 H 0.40077 0.44302 -0.27617
 C534 C 1.11053 0.65170 -0.23022
 C535 C 1.09541 0.66260 -0.27098
 C536 C 1.11223 0.68692 -0.31410
 C537 C 1.14367 0.69849 -0.32193
 C538 C 1.15788 0.68543 -0.28503
 C539 C 1.14182 0.66305 -0.23860
 C540 C 1.09213 0.62630 -0.18406
 C541 C 1.10545 0.61774 -0.13432
 C542 C 1.08775 0.59175 -0.09691
 C543 C 1.05659 0.57343 -0.10915
 C544 C 1.04264 0.58312 -0.15524
 C545 C 1.06019 0.61020 -0.19114
 C546 C 1.06356 0.64779 -0.27122
 C547 C 1.04630 0.62129 -0.23417
 H548 H 1.05180 0.65573 -0.30314
 H549 H 1.02178 0.60956 -0.23867
 H550 H 1.10066 0.69597 -0.34374
 H551 H 1.18139 0.69190 -0.29339
 H552 H 1.09886 0.58478 -0.06112
 H553 H 1.01841 0.56936 -0.16375
 H554 H 1.15388 0.65369 -0.21202
 H555 H 1.12952 0.63062 -0.12442
 C556 C 0.90630 0.55015 -0.28055
 C557 C 0.89725 0.56999 -0.25111
 C558 C 0.88093 0.58131 -0.28642
 C559 C 0.87289 0.57278 -0.35097
 C560 C 0.88222 0.55317 -0.37969
 C561 C 0.89864 0.54213 -0.34536
 C562 C 0.92273 0.53768 -0.24073
 C563 C 0.93270 0.51773 -0.26537
 C564 C 0.94597 0.50504 -0.22500
 C565 C 0.94966 0.51197 -0.15930
 C566 C 0.94122 0.53302 -0.13509
 C567 C 0.92781 0.54578 -0.17498
 C568 C 0.90407 0.57799 -0.18629
 C569 C 0.91886 0.56602 -0.14898
 H570 H 0.89732 0.59327 -0.16366
 H571 H 0.92302 0.57241 -0.09866
 H572 H 0.87472 0.59701 -0.26374
 H573 H 0.87588 0.54537 -0.42881
 H574 H 0.95256 0.48911 -0.24487
 H575 H 0.94441 0.53894 -0.08444
 H576 H 0.90455 0.52686 -0.37026
 H577 H 0.93003 0.51120 -0.31534
 C578 C 0.45748 0.35007 -0.27136
 C579 C 0.44087 0.32033 -0.24383
 C580 C 0.42846 0.29396 -0.28352
 C581 C 0.43302 0.29673 -0.35066
 C582 C 0.45090 0.32649 -0.37660
 C583 C 0.46274 0.35262 -0.33797
 C584 C 0.46970 0.37766 -0.22820
 C585 C 0.48406 0.40802 -0.25221
 C586 C 0.49616 0.43309 -0.21063
 C587 C 0.49437 0.42883 -0.14375
 C588 C 0.47899 0.39862 -0.11896
 C589 C 0.46634 0.37301 -0.16087
 C590 C 0.43729 0.31717 -0.17689
 C591 C 0.45021 0.34290 -0.13626
 H592 H 0.42478 0.29442 -0.15547
 H593 H 0.44726 0.33918 -0.08482
 H594 H 0.41495 0.27131 -0.26219
 H595 H 0.45656 0.32965 -0.42723
 H596 H 0.50731 0.45605 -0.23133
 H597 H 0.47692 0.39506 -0.06737
 H598 H 0.47653 0.37453 -0.36129
 H599 H 0.48611 0.41304 -0.30297
 C600 C 0.65543 0.10043 -0.22390
 C601 C 0.66147 0.08444 -0.27271
 C602 C 0.68526 0.10083 -0.31633
 C603 C 0.70213 0.13321 -0.31408
 C604 C 0.69692 0.14883 -0.26422
 C605 C 0.67409 0.13272 -0.21935
 C606 C 0.62798 0.08264 -0.18257
 C607 C 0.61986 0.09657 -0.13349
 C608 C 0.59211 0.08019 -0.10221
 C609 C 0.57174 0.04941 -0.11844
 C610 C 0.58071 0.03446 -0.16333
 C611 C 0.60859 0.05090 -0.19570
 C612 C 0.64263 0.05251 -0.28007
 C613 C 0.61661 0.03616 -0.24277
 H614 H 0.64736 0.04020 -0.31708
 H615 H 0.60216 0.01175 -0.25208
 H616 H 0.68935 0.08870 -0.35482
 H617 H 0.70972 0.17381 -0.26174
 H618 H 0.58615 0.09210 -0.06653
 H619 H 0.56543 0.01055 -0.17545
 H620 H 0.67061 0.14622 -0.18342
 H621 H 0.63417 0.12031 -0.11962
 C622 C 1.14161 0.46969 -0.27201
 C623 C 1.12661 0.44759 -0.32098
 C624 C 1.14345 0.44136 -0.36597
 C625 C 1.17538 0.45658 -0.36322
 C626 C 1.19007 0.47758 -0.31281
 C627 C 1.17351 0.48417 -0.26809
 C628 C 1.12272 0.47642 -0.22629
 C629 C 1.13537 0.49930 -0.17821
 C630 C 1.11670 0.50453 -0.13674
 C631 C 1.08501 0.48703 -0.14189
 C632 C 1.07222 0.46448 -0.19002
 C633 C 1.09072 0.45927 -0.23240
 C634 C 1.09486 0.43168 -0.32475
 C635 C 1.07730 0.43717 -0.28103
 H636 H 1.08337 0.41460 -0.36200
 H637 H 1.05280 0.42411 -0.28582
 H638 H 1.13157 0.42412 -0.40281
 H639 H 1.21462 0.48991 -0.30927
 H640 H 1.12715 0.52220 -0.10022
 H641 H 1.04775 0.45090 -0.19467
 H642 H 1.18616 0.50075 -0.23109
 H643 H 1.15957 0.51349 -0.17200
 C644 C 0.58574 0.69202 -0.23625
 C645 C 0.57415 0.71207 -0.22241
 C646 C 0.57768 0.73489 -0.26698
 C647 C 0.59269 0.73814 -0.32582
 C648 C 0.60689 0.72024 -0.33566
 C649 C 0.60351 0.69755 -0.29170
 C650 C 0.57698 0.66468 -0.19338
 C651 C 0.58300 0.64070 -0.20925
 C652 C 0.57060 0.61360 -0.17311
 C653 C 0.55263 0.61004 -0.11937
 C654 C 0.54817 0.63452 -0.10030
 C655 C 0.55938 0.66138 -0.13809
 C656 C 0.55789 0.70829 -0.16562
 C657 C 0.55114 0.68378 -0.12373
 H658 H 0.54958 0.72406 -0.15419
 H659 H 0.53782 0.68140 -0.08130
 H660 H 0.56642 0.74825 -0.25795
 H661 H 0.61998 0.72320 -0.37878
 H662 H 0.57426 0.59489 -0.18850
 H663 H 0.53388 0.63162 -0.05923
 H664 H 0.61436 0.68414 -0.30289
 H665 H 0.59583 0.64164 -0.25124
 C666 C 0.31235 -0.10888 -0.25354
 C667 C 0.31653 -0.10749 -0.32075
 C668 C 0.29282 -0.12775 -0.36099
 C669 C 0.26398 -0.14887 -0.33611
 C670 C 0.25907 -0.14707 -0.27002
 C671 C 0.28299 -0.12786 -0.22907
 C672 C 0.33957 -0.09038 -0.21169
 C673 C 0.33945 -0.09503 -0.14474
 C674 C 0.36625 -0.07940 -0.10881
 C675 C 0.39339 -0.05804 -0.13841
 C676 C 0.39354 -0.05242 -0.20446
 C677 C 0.36725 -0.06931 -0.24159
 C678 C 0.34452 -0.08626 -0.34744
 C679 C 0.36906 -0.06685 -0.30868
 H680 H 0.34751 -0.08465 -0.39914
 H681 H 0.39027 -0.05086 -0.33163
 H682 H 0.29762 -0.12811 -0.41159
 H683 H 0.23670 -0.16084 -0.24954
 H684 H 0.36590 -0.08425 -0.05791
 H685 H 0.41474 -0.03657 -0.22772
 H686 H 0.27815 -0.12808 -0.17852
 H687 H 0.31924 -0.11167 -0.12003
 C688 C 0.54401 -0.11230 0.24932
 C689 C 0.56574 -0.09563 0.29767
 C690 C 0.57501 -0.11118 0.34088
 C691 C 0.56252 -0.14332 0.33750
 C692 C 0.54198 -0.15965 0.28814
 C693 C 0.53289 -0.14439 0.24433
 C694 C 0.53273 -0.09528 0.20776
 C695 C 0.51017 -0.10999 0.16028
 C696 C 0.49847 -0.09377 0.12683
 C697 C 0.50904 -0.06241 0.13935
 C698 C 0.53263 -0.04709 0.18409
 C699 C 0.54432 -0.06331 0.21868
 C700 C 0.57722 -0.06377 0.30418
 C701 C 0.56675 -0.04796 0.26552
 H702 H 0.59404 -0.05097 0.34084
 H703 H 0.57583 -0.02344 0.27351
 H704 H 0.59102 -0.09853 0.37901
 H705 H 0.53211 -0.18449 0.28493
 H706 H 0.48059 -0.10604 0.09185
 H707 H 0.54114 -0.02279 0.19380
 H708 H 0.51654 -0.15832 0.20824
 H709 H 0.50073 -0.13415 0.14913
 C710 C 0.34259 0.44217 0.21777
 C711 C 0.32202 0.45315 0.20551
 C712 C 0.29905 0.44735 0.25002
 C713 C 0.29617 0.43041 0.30620
 C714 C 0.31434 0.41661 0.31435
 C715 C 0.33732 0.42236 0.27065
 C716 C 0.37010 0.45366 0.17627
 C717 C 0.39476 0.44935 0.19289
 C718 C 0.42169 0.46411 0.15843
 C719 C 0.42445 0.48255 0.10505
 C720 C 0.39954 0.48572 0.08558
 C721 C 0.37278 0.47237 0.12236
 C722 C 0.32534 0.47085 0.15042
 C723 C 0.34982 0.47963 0.10881
 H724 H 0.30913 0.47860 0.14006
 H725 H 0.35174 0.49387 0.06759
 H726 H 0.28455 0.45751 0.24296
 H727 H 0.31175 0.40269 0.35655
 H728 H 0.44083 0.46182 0.17493
 H729 H 0.40189 0.50063 0.04524
 H730 H 0.35120 0.41184 0.28012
 H731 H 0.39442 0.43619 0.23453
 C732 C 1.12600 0.64125 0.26382
 C733 C 1.11323 0.66035 0.27771
 C734 C 1.12819 0.68545 0.31963
 C735 C 1.15509 0.69112 0.35036
 C736 C 1.16754 0.67199 0.33785
 C737 C 1.15337 0.64748 0.29455
 C738 C 1.10891 0.61430 0.21962
 C739 C 1.12034 0.59495 0.19906
 C740 C 1.10259 0.56903 0.16092
 C741 C 1.07304 0.56171 0.14333
 C742 C 1.06202 0.58153 0.16111
 C743 C 1.07979 0.60788 0.19808
 C744 C 1.08505 0.65363 0.25178
 C745 C 1.06843 0.62762 0.21378
 H746 H 1.07526 0.66819 0.26265
 H747 H 1.04630 0.62289 0.19644
 H748 H 1.11836 0.70001 0.33045
 H749 H 1.18813 0.67592 0.36218
 H750 H 1.11158 0.55413 0.14696
 H751 H 1.03939 0.57631 0.14625
 H752 H 1.16369 0.63324 0.28715
 H753 H 1.14279 0.59936 0.21218
 C754 C 0.41889 0.10734 0.25131
 C755 C 0.44148 0.13663 0.27351
 C756 C 0.43391 0.15337 0.31634
 C757 C 0.40379 0.14236 0.33514
 C758 C 0.38104 0.11407 0.31105
 C759 C 0.38850 0.09652 0.27002
 C760 C 0.42852 0.08944 0.20860
 C761 C 0.40895 0.05852 0.19040
 C762 C 0.41967 0.04245 0.15330
 C763 C 0.44986 0.05711 0.13220
 C764 C 0.46924 0.08802 0.14883
 C765 C 0.45913 0.10390 0.18815
 C766 C 0.47146 0.14934 0.25230
 C767 C 0.47995 0.13361 0.20938
 H768 H 0.48861 0.17197 0.26866
 H769 H 0.50343 0.14453 0.19410
 H770 H 0.45146 0.17544 0.33452
 H771 H 0.35757 0.10551 0.32437
 H772 H 0.40446 0.01843 0.14168
 H773 H 0.49283 0.09928 0.13414
 H774 H 0.37024 0.07482 0.25288
 H775 H 0.38563 0.04611 0.20605
 C776 C 0.67767 0.56201 0.26823
 C777 C 0.67206 0.55006 0.33166
 C778 C 0.69635 0.55705 0.37375
 C779 C 0.72637 0.57684 0.35475
 C780 C 0.73188 0.58977 0.29291
 C781 C 0.70790 0.58238 0.24997
 C782 C 0.65107 0.55235 0.22359
 C783 C 0.65417 0.56023 0.15772
 C784 C 0.62860 0.54975 0.11788
 C785 C 0.59937 0.53162 0.14296
 C786 C 0.59608 0.52392 0.20848
 C787 C 0.62155 0.53353 0.24843
 C788 C 0.64228 0.53122 0.35286
 C789 C 0.61755 0.52359 0.31249
 H790 H 0.63800 0.52237 0.40164
 H791 H 0.59493 0.50904 0.33133
 H792 H 0.69194 0.54687 0.42142
 H793 H 0.75492 0.60530 0.27756
 H794 H 0.63167 0.55585 0.06735
 H795 H 0.57358 0.50951 0.22814
 H796 H 0.71347 0.59286 0.20292
 H797 H 0.67612 0.57392 0.13584
 C798 C 0.87032 0.31619 0.25569
 C799 C 0.83936 0.30788 0.26188
 C800 C 0.82094 0.28528 0.30681
 C801 C 0.83311 0.27116 0.34649
 C802 C 0.86356 0.27900 0.33972
 C803 C 0.88197 0.30113 0.29480
 C804 C 0.88966 0.34169 0.20999
 C805 C 0.92079 0.35199 0.20152
 C806 C 0.93856 0.37777 0.16369
 C807 C 0.92585 0.39385 0.13248
 C808 C 0.89446 0.38259 0.13686
 C809 C 0.87636 0.35682 0.17587
 C810 C 0.82724 0.32282 0.22465
 C811 C 0.84535 0.34683 0.18277
 H812 H 0.80350 0.31635 0.22909
 H813 H 0.83504 0.35816 0.15633
 H814 H 0.79736 0.27926 0.31242
 H815 H 0.87319 0.26822 0.37010
 H816 H 0.96265 0.38567 0.16026
 H817 H 0.88443 0.39482 0.11281
 H818 H 0.90533 0.30645 0.29254
 H819 H 0.93211 0.34105 0.22489
   
