data_POSCAR
  _audit_creation_date              2014-09-24
  _audit_creation_method            'ToBaCCo'
  _symmetry_space_group_name_H-M    'P1'
  _symmetry_Int_Tables_number       1
  _symmetry_cell_setting            triclinic
  loop_
  _symmetry_equiv_pos_as_xyz
 x,y,z
_cell_length_a 28.6328
_cell_length_b 29.0378
_cell_length_c 24.5569
_cell_angle_alpha 90.483700
_cell_angle_beta 91.387000
_cell_angle_gamma 90.929800
loop_
  _atom_site_label
  _atom_site_type_symbol
  _atom_site_fract_x
  _atom_site_fract_y
  _atom_site_fract_z
C1 C 0.37875 0.03564 0.32115
 C2 C 0.35127 0.07486 0.29691
 C3 C 0.32057 0.06197 0.25636
 C4 C 0.31984 0.00956 0.24410
 C5 C 0.34159 0.00174 0.34005
 C6 C 0.31076 -0.01254 0.30039
 C7 C 0.40177 0.01213 0.27318
 C8 C 0.37144 -0.00115 0.23254
 H9 H 0.35447 0.10978 0.31225
 H10 H 0.29477 -0.00169 0.21126
 H11 H 0.34170 -0.01203 0.38093
 H12 H 0.43913 0.00720 0.27114
 C13 C 0.11482 -0.02665 0.78419
 C14 C 0.14608 -0.06740 0.77433
 C15 C 0.18473 -0.05715 0.74609
 C16 C 0.18827 -0.00613 0.72991
 C17 C 0.14646 0.00885 0.81301
 C18 C 0.18471 0.02006 0.78428
 C19 C 0.10377 -0.00737 0.73122
 C20 C 0.14428 0.00297 0.70056
 H21 H 0.13861 -0.10127 0.79013
 H22 H 0.22037 0.00340 0.70788
 H23 H 0.13623 0.02827 0.84856
 H24 H 0.06862 -0.00692 0.71381
 C25 C 0.63857 0.47967 0.29424
 C26 C 0.67428 0.44631 0.27237
 C27 C 0.69624 0.46086 0.22732
 C28 C 0.68282 0.50939 0.20981
 C29 C 0.66692 0.52375 0.30594
 C30 C 0.69023 0.53878 0.26177
 C31 C 0.60644 0.49168 0.24574
 C32 C 0.62974 0.50786 0.20204
 H33 H 0.68296 0.41446 0.29233
 H34 H 0.70180 0.52239 0.17392
 H35 H 0.66933 0.54073 0.34539
 H36 H 0.56871 0.49235 0.24807
 C37 C 0.86692 0.52890 0.81590
 C38 C 0.84010 0.56783 0.78927
 C39 C 0.82058 0.55706 0.73991
 C40 C 0.82890 0.50736 0.72165
 C41 C 0.83134 0.48909 0.81875
 C42 C 0.81129 0.47836 0.76924
 C43 C 0.90185 0.51294 0.77405
 C44 C 0.88196 0.50093 0.72528
 H45 H 0.83523 0.60065 0.80922
 H46 H 0.81284 0.49797 0.68133
 H47 H 0.82386 0.47040 0.85560
 H48 H 0.93847 0.50753 0.78379
 C49 C 0.29475 0.44673 0.99519
 C50 C 0.27889 0.41941 1.04504
 C51 C 0.24162 0.39050 1.03445
 C52 C 0.22462 0.39080 0.97436
 C53 C 0.30433 0.41064 0.95195
 C54 C 0.26851 0.38115 0.94113
 C55 C 0.25126 0.47097 0.97418
 C56 C 0.21435 0.44180 0.96423
 H57 H 0.29451 0.42411 1.08536
 H58 H 0.19480 0.36725 0.96403
 H59 H 0.33770 0.40693 0.93278
 H60 H 0.24838 0.50812 0.97311
 C61 C 0.76428 0.05665 0.95842
 C62 C 0.75217 0.09565 0.92030
 C63 C 0.72814 0.13008 0.94419
 C64 C 0.72013 0.12294 1.00561
 C65 C 0.79092 0.07970 1.00624
 C66 C 0.76914 0.11472 1.03049
 C67 C 0.71982 0.04162 0.98057
 C68 C 0.69580 0.07815 1.00767
 H69 H 0.75948 0.09456 0.87719
 H70 H 0.70187 0.15201 1.02492
 H71 H 0.82538 0.06941 1.01891
 H72 H 0.70604 0.00676 0.97719
 C73 C 0.29399 0.56914 0.45745
 C74 C 0.26672 0.59988 0.41891
 C75 C 0.23275 0.62426 0.44372
 C76 C 0.22852 0.61459 0.50551
 C77 C 0.31149 0.60188 0.50196
 C78 C 0.27838 0.62361 0.53011
 C79 C 0.25723 0.53830 0.48346
 C80 C 0.22206 0.56189 0.50701
 H81 H 0.27489 0.60394 0.37641
 H82 H 0.20072 0.63383 0.52615
 H83 H 0.34833 0.60639 0.51126
 H84 H 0.25632 0.50122 0.47804
 C85 C 0.81161 0.94270 0.51902
 C86 C 0.79135 0.91059 0.56221
 C87 C 0.74952 0.89050 0.54707
 C88 C 0.73304 0.90279 0.48905
 C89 C 0.81470 0.91322 0.46785
 C90 C 0.77447 0.89158 0.45239
 C91 C 0.77287 0.97645 0.50628
 C92 C 0.73123 0.95563 0.49172
 H93 H 0.80700 0.90699 0.60252
 H94 H 0.69971 0.88607 0.47510
 H95 H 0.84740 0.90509 0.44910
 H96 H 0.77665 1.01273 0.51611
 C97 C -0.00629 0.28904 0.42853
 C98 C 0.03495 0.30542 0.39359
 C99 C 0.04818 0.27501 0.35475
 C100 C 0.01810 0.23029 0.35390
 C101 C -0.04349 0.27690 0.38967
 C102 C -0.03056 0.24564 0.34779
 C103 C 0.00966 0.24236 0.45209
 C104 C 0.02260 0.21112 0.41320
 H105 H 0.05174 0.33897 0.39826
 H106 H 0.02856 0.20527 0.32220
 H107 H -0.07734 0.29311 0.38985
 H108 H 0.01312 0.23588 0.49533
 C109 C -0.00101 0.78510 0.07446
 C110 C -0.04233 0.79687 0.11057
 C111 C -0.04846 0.76792 0.15262
 C112 C -0.01342 0.72823 0.15421
 C113 C 0.04121 0.78200 0.11403
 C114 C 0.03519 0.75184 0.15551
 C115 C -0.01063 0.73504 0.05526
 C116 C -0.01739 0.70507 0.09702
 H117 H -0.06390 0.82686 0.10488
 H118 H -0.01929 0.70441 0.18847
 H119 H 0.07377 0.80061 0.10810
 H120 H -0.01324 0.72472 0.01281
 C121 C 0.50093 0.28469 0.58215
 C122 C 0.46332 0.29355 0.62480
 C123 C 0.46063 0.26045 0.66361
 C124 C 0.49533 0.22128 0.65614
 C125 C 0.54653 0.27802 0.61534
 C126 C 0.54397 0.24422 0.65348
 C127 C 0.48874 0.23594 0.55935
 C128 C 0.48527 0.20336 0.59831
 H129 H 0.43988 0.32244 0.62310
 H130 H 0.49224 0.19391 0.68707
 H131 H 0.57878 0.29621 0.60658
 H132 H 0.48132 0.22761 0.51706
 C133 C 0.49909 0.79047 0.93554
 C134 C 0.53188 0.80564 0.89010
 C135 C 0.54182 0.77172 0.85346
 C136 C 0.51641 0.72538 0.86483
 C137 C 0.45502 0.77169 0.90472
 C138 C 0.46382 0.73795 0.86705
 C139 C 0.52111 0.74988 0.95855
 C140 C 0.53059 0.71435 0.92052
 H141 H 0.54767 0.83977 0.88868
 H142 H 0.52411 0.69780 0.83488
 H143 H 0.42097 0.78692 0.90850
 H144 H 0.52469 0.74316 1.00156
 C145 C -0.22077 0.62394 0.94489
 C146 C -0.18306 0.59590 0.97371
 C147 C -0.19886 0.56956 1.01520
 C148 C -0.25091 0.57457 1.02500
 C149 C -0.25885 0.58864 0.92782
 C150 C -0.27380 0.56278 0.96985
 C151 C -0.24201 0.65252 0.99015
 C152 C -0.25816 0.62674 1.03170
 H153 H -0.14739 0.59557 0.96093
 H154 H -0.26392 0.55349 1.05919
 H155 H -0.27295 0.58474 0.88667
 H156 H -0.24460 0.68970 0.98903
 C157 C -0.26211 0.37389 0.44128
 C158 C -0.30451 0.39349 0.46878
 C159 C -0.29594 0.41333 0.51782
 C160 C -0.24412 0.41217 0.53552
 C161 C -0.22766 0.41449 0.43799
 C162 C -0.21809 0.43432 0.48766
 C163 C -0.24078 0.34303 0.48010
 C164 C -0.23051 0.36408 0.53193
 H165 H -0.33821 0.39522 0.44835
 H166 H -0.23610 0.42877 0.57571
 H167 H -0.20892 0.42334 0.40164
 H168 H -0.23224 0.30776 0.47022
 C169 C 0.21851 -0.13424 -0.03734
 C170 C 0.17794 -0.10230 -0.03285
 C171 C 0.18555 -0.06658 0.00221
 C172 C 0.23629 -0.06535 0.02817
 C173 C 0.25892 -0.10373 -0.05517
 C174 C 0.26883 -0.06779 -0.02115
 C175 C 0.23011 -0.14818 0.01761
 C176 C 0.24166 -0.11052 0.05338
 H177 H 0.14462 -0.10957 -0.05327
 H178 H 0.24363 -0.03559 0.05593
 H179 H 0.28055 -0.11189 -0.08947
 H180 H 0.23494 -0.18387 0.02880
 C181 C 0.28649 1.12943 0.43881
 C182 C 0.32303 1.09749 0.46259
 C183 C 0.30520 1.06471 0.49608
 C184 C 0.25200 1.06741 0.50264
 C185 C 0.25057 1.09723 0.41051
 C186 C 0.23262 1.06504 0.44359
 C187 C 0.26216 1.14961 0.48828
 C188 C 0.24402 1.11734 0.52179
 H189 H 0.35971 1.10065 0.45355
 H190 H 0.23729 1.04086 0.52981
 H191 H 0.23850 1.10094 0.36862
 H192 H 0.26157 1.18617 0.49739
 C193 C 0.18750 0.56053 0.24098
 C194 C 0.15984 0.53458 0.19529
 C195 C 0.13846 0.49485 0.21217
 C196 C 0.14611 0.48546 0.27321
 C197 C 0.15211 0.56832 0.28527
 C198 C 0.13048 0.52959 0.30211
 C199 C 0.22103 0.52493 0.26446
 C200 C 0.19935 0.48523 0.28012
 H201 H 0.15781 0.54642 0.15361
 H202 H 0.12888 0.45380 0.28847
 H203 H 0.14181 0.60211 0.29911
 H204 H 0.25864 0.52838 0.26177
 C205 C -0.17915 1.04825 0.26702
 C206 C -0.15004 1.02727 0.31268
 C207 C -0.13305 0.98529 0.29958
 C208 C -0.14726 0.96830 0.24174
 C209 C -0.14658 1.04916 0.21872
 C210 C -0.13125 1.00734 0.20350
 C211 C -0.21545 1.01444 0.25307
 C212 C -0.19795 0.96988 0.24046
 H213 H -0.14200 1.04496 0.35088
 H214 H -0.13289 0.93437 0.23040
 H215 H -0.14391 1.07826 0.19214
 H216 H -0.25226 1.02158 0.25659
 C217 C 0.30069 0.52012 -0.24479
 C218 C 0.33964 0.50982 -0.20325
 C219 C 0.37011 0.47785 -0.22010
 C220 C 0.36035 0.46027 -0.27832
 C221 C 0.32573 0.53335 -0.29655
 C222 C 0.35794 0.50371 -0.31288
 C223 C 0.27788 0.47340 -0.25849
 C224 C 0.30945 0.44250 -0.27703
 H225 H 0.34153 0.52498 -0.16275
 H226 H 0.38569 0.43478 -0.29317
 H227 H 0.32060 0.56505 -0.31742
 H228 H 0.24076 0.46615 -0.25629
 C229 C 0.69917 0.04670 -0.23920
 C230 C 0.66622 0.02662 -0.28405
 C231 C 0.63727 -0.00778 -0.26647
 C232 C 0.64265 -0.01731 -0.20520
 C233 C 0.66712 0.06214 -0.19409
 C234 C 0.63672 0.02977 -0.17727
 C235 C 0.72457 0.00478 -0.21635
 C236 C 0.69476 -0.02880 -0.19908
 H237 H 0.66798 0.03661 -0.32637
 H238 H 0.61891 -0.04444 -0.18961
 H239 H 0.66688 0.09693 -0.17793
 H240 H 0.76183 -0.00015 -0.21949
 C241 C 0.03524 0.22968 0.82918
 C242 C 0.05205 0.26577 0.87208
 C243 C 0.01918 0.27825 0.90849
 C244 C -0.02767 0.25156 0.89961
 C245 C 0.01797 0.18869 0.86254
 C246 C -0.01569 0.19892 0.89903
 C247 C -0.00727 0.24871 0.80468
 C248 C -0.04135 0.26176 0.84325
 H249 H 0.08611 0.28252 0.87116
 H250 H -0.05422 0.26057 0.92995
 H251 H 0.02942 0.15386 0.85515
 H252 H -0.01104 0.25689 0.76187
 C253 C 0.54914 0.27121 0.14275
 C254 C 0.54772 0.22856 0.10532
 C255 C 0.50542 0.22171 0.07913
 C256 C 0.46823 0.25767 0.09347
 C257 C 0.53351 0.31065 0.10616
 C258 C 0.49137 0.30425 0.08086
 C259 C 0.50873 0.26331 0.18152
 C260 C 0.46641 0.25615 0.15604
 H261 H 0.57710 0.20605 0.10006
 H262 H 0.43362 0.25182 0.07299
 H263 H 0.55486 0.34132 0.10035
 H264 H 0.51378 0.26078 0.22526
 C265 C 0.04524 0.76082 0.66415
 C266 C 0.05041 0.71756 0.62907
 C267 C 0.01456 0.70995 0.59302
 C268 C -0.02457 0.74617 0.59612
 C269 C 0.03775 0.79987 0.62383
 C270 C 0.00128 0.79274 0.58814
 C271 C -0.00152 0.75428 0.69185
 C272 C -0.03839 0.74687 0.65683
 H273 H 0.08103 0.69611 0.63044
 H274 H -0.05434 0.73927 0.56727
 H275 H 0.05930 0.83091 0.62424
 H276 H -0.00458 0.75187 0.73565
 C277 C 0.53762 0.74234 0.33105
 C278 C 0.55400 0.78129 0.37019
 C279 C 0.52383 0.79062 0.41056
 C280 C 0.47916 0.75978 0.40803
 C281 C 0.52794 0.70131 0.36756
 C282 C 0.49748 0.70939 0.40788
 C283 C 0.48907 0.75738 0.30977
 C284 C 0.45845 0.76727 0.34964
 H285 H 0.58710 0.79950 0.36661
 H286 H 0.45441 0.76743 0.44087
 H287 H 0.54383 0.66811 0.36132
 H288 H 0.48119 0.76477 0.26747
 B289 B -0.06812 0.00342 1.01750
 B290 B -0.08449 -0.00827 0.95235
 B291 B -0.04965 0.03850 0.96661
 B292 B -0.01256 0.02460 1.01819
 B293 B -0.02382 -0.03118 1.03548
 B294 B -0.06911 -0.05147 0.99501
 B295 B 0.00234 -0.03094 0.92989
 B296 B 0.02038 -0.01817 0.99414
 B297 B -0.01420 -0.06434 0.98062
 B298 B -0.05247 -0.05124 0.92971
 B299 B -0.04045 0.00460 0.91170
 B300 B 0.00522 0.02425 0.95193
 B301 B 0.46686 0.51806 0.53731
 B302 B 0.45296 0.51154 0.47068
 B303 B 0.49292 0.55138 0.49079
 B304 B 0.52445 0.53001 0.54403
 B305 B 0.50250 0.47578 0.55637
 B306 B 0.45740 0.46513 0.51073
 B307 B 0.53712 0.47652 0.45427
 B308 B 0.55093 0.48300 0.52044
 B309 B 0.50997 0.44356 0.50027
 B310 B 0.47959 0.46528 0.44688
 B311 B 0.50166 0.51901 0.43478
 B312 B 0.54642 0.53003 0.48031
 B313 B 0.53729 0.96541 0.57463
 B314 B 0.56305 0.98873 0.52056
 B315 B 0.52863 0.94100 0.51249
 B316 B 0.48333 0.94522 0.55522
 B317 B 0.49004 0.99620 0.58980
 B318 B 0.53969 1.02306 0.56841
 B319 B 0.48061 1.01542 0.48182
 B320 B 0.45379 0.99176 0.53488
 B321 B 0.48788 1.03856 0.54379
 B322 B 0.53294 1.03498 0.50127
 B323 B 0.52668 0.98381 0.46620
 B324 B 0.47653 0.95760 0.48735
 B325 B 0.03371 0.46118 1.06079
 B326 B 0.04997 0.48086 1.00000
 B327 B 0.01322 0.43491 1.00322
 B328 B -0.02315 0.44315 1.05559
 B329 B -0.00807 0.49498 1.08506
 B330 B 0.03789 0.51840 1.05070
 B331 B -0.03582 0.51099 0.98056
 B332 B -0.05331 0.49076 1.04007
 B333 B -0.01626 0.53630 1.03865
 B334 B 0.01970 0.52843 0.98597
 B335 B 0.00468 0.47622 0.95591
 B336 B -0.04121 0.45335 0.98984
 B337 B 0.02426 0.51892 0.45810
 B338 B 0.05466 0.50938 0.51641
 B339 B 0.01693 0.55303 0.51276
 B340 B -0.02976 0.53629 0.47372
 B341 B -0.02079 0.48110 0.45261
 B342 B 0.03234 0.46472 0.47893
 B343 B -0.02477 0.48205 0.56323
 B344 B -0.05492 0.49234 0.50596
 B345 B -0.01747 0.44806 0.50856
 B346 B 0.02891 0.46454 0.54816
 B347 B 0.02013 0.51996 0.56929
 B348 B -0.03197 0.53669 0.54279
 B349 B 0.51532 0.02635 -0.03558
 B350 B 0.53412 0.02664 0.02928
 B351 B 0.48990 0.06051 0.01023
 B352 B 0.45722 0.03254 -0.03750
 B353 B 0.48119 -0.02017 -0.04753
 B354 B 0.52960 -0.02346 -0.00574
 B355 B 0.45340 -0.01436 0.05831
 B356 B 0.43468 -0.01402 -0.00702
 B357 B 0.47902 -0.04860 0.01183
 B358 B 0.51228 -0.02008 0.06021
 B359 B 0.48783 0.03250 0.06995
 B360 B 0.43951 0.03575 0.02833
 B361 B 0.48208 0.48187 -0.06668
 B362 B 0.45809 0.50266 -0.00988
 B363 B 0.48948 0.45452 -0.00777
 B364 B 0.53449 0.45998 -0.05049
 B365 B 0.53030 0.51316 -0.07972
 B366 B 0.48196 0.53920 -0.05462
 B367 B 0.54291 0.52469 0.03027
 B368 B 0.56683 0.50433 -0.02621
 B369 B 0.53537 0.55259 -0.02904
 B370 B 0.49073 0.54700 0.01395
 B371 B 0.49476 0.49382 0.04292
 B372 B 0.54255 0.46773 0.01787
 B373 B -0.01209 0.97417 0.44071
 B374 B -0.02186 0.98785 0.50596
 B375 B 0.00921 0.94135 0.49025
 B376 B 0.04198 0.95372 0.43544
 B377 B 0.02977 1.00939 0.41793
 B378 B -0.01040 1.02992 0.46174
 B379 B 0.06894 1.00928 0.52114
 B380 B 0.07769 0.99724 0.45517
 B381 B 0.04631 1.04418 0.47100
 B382 B 0.01456 1.03107 0.52615
 B383 B 0.02582 0.97517 0.54321
 B384 B 0.06583 0.95429 0.49911
 B385 B 0.79274 0.22710 0.18046
 B386 B 0.77871 0.21124 0.24372
 B387 B 0.82380 0.24813 0.23506
 B388 B 0.81013 0.28324 0.18233
 B389 B 0.75526 0.26739 0.15867
 B390 B 0.73624 0.22174 0.19654
 B391 B 0.74838 0.29495 0.26440
 B392 B 0.76289 0.31228 0.20200
 B393 B 0.71823 0.27487 0.20980
 B394 B 0.73181 0.23969 0.26166
 B395 B 0.78625 0.25607 0.28592
 B396 B 0.80523 0.30147 0.24860
 B397 B 0.72224 0.79233 0.70196
 B398 B 0.73665 0.80768 0.76641
 B399 B 0.69298 0.76926 0.75418
 B400 B 0.70672 0.73572 0.70057
 B401 B 0.76064 0.75368 0.67973
 B402 B 0.77919 0.79907 0.72052
 B403 B 0.77027 0.72375 0.78403
 B404 B 0.75492 0.70768 0.72026
 B405 B 0.79896 0.74576 0.73145
 B406 B 0.78528 0.77978 0.78520
 B407 B 0.73155 0.76112 0.80611
 B408 B 0.71315 0.71624 0.76590
 B409 B 0.26915 0.26457 0.79194
 B410 B 0.26376 0.27935 0.72634
 B411 B 0.30415 0.24143 0.74532
 B412 B 0.28219 0.20848 0.79482
 B413 B 0.22678 0.22684 0.80605
 B414 B 0.21557 0.27153 0.76331
 B415 B 0.23046 0.19472 0.70125
 B416 B 0.23626 0.18028 0.76710
 B417 B 0.19526 0.21822 0.74799
 B418 B 0.21740 0.25119 0.69789
 B419 B 0.27294 0.23284 0.68720
 B420 B 0.28416 0.18827 0.72974
 B421 B 0.21969 0.74390 0.30876
 B422 B 0.23700 0.72590 0.24746
 B423 B 0.19051 0.75999 0.25261
 B424 B 0.20070 0.79818 0.30385
 B425 B 0.25508 0.78689 0.33051
 B426 B 0.27714 0.74149 0.29538
 B427 B 0.26456 0.81208 0.22417
 B428 B 0.24725 0.82988 0.28575
 B429 B 0.29429 0.79547 0.28108
 B430 B 0.28366 0.75765 0.22921
 B431 B 0.22902 0.76844 0.20293
 B432 B 0.20696 0.81401 0.23784
 B433 B 0.27699 0.70570 0.71095
 B434 B 0.26178 0.68204 0.77042
 B435 B 0.30846 0.71888 0.76902
 B436 B 0.29601 0.76016 0.72324
 B437 B 0.24120 0.74930 0.69672
 B438 B 0.22030 0.69999 0.72554
 B439 B 0.23415 0.76309 0.80603
 B440 B 0.25003 0.78787 0.74746
 B441 B 0.20417 0.75147 0.74870
 B442 B 0.21576 0.70935 0.79326
 B443 B 0.27057 0.72072 0.82055
 B444 B 0.29108 0.77011 0.79179
 B445 B 0.22908 0.29983 0.20087
 B446 B 0.24777 0.32204 0.26099
 B447 B 0.20209 0.28426 0.25869
 B448 B 0.21203 0.24434 0.20998
 B449 B 0.26502 0.25735 0.18247
 B450 B 0.28696 0.30604 0.21410
 B451 B 0.27926 0.23981 0.29038
 B452 B 0.26025 0.21693 0.23063
 B453 B 0.30570 0.25409 0.23283
 B454 B 0.29613 0.29424 0.28103
 B455 B 0.24322 0.28142 0.30884
 B456 B 0.22157 0.23260 0.27741
 B457 B 0.76495 0.78306 0.29430
 B458 B 0.75055 0.80794 0.23480
 B459 B 0.79740 0.77396 0.23889
 B460 B 0.78534 0.73030 0.28132
 B461 B 0.72971 0.73727 0.30351
 B462 B 0.70855 0.78612 0.27448
 B463 B 0.72585 0.72462 0.19340
 B464 B 0.74098 0.70064 0.25264
 B465 B 0.69367 0.73450 0.24828
 B466 B 0.70568 0.77789 0.20533
 B467 B 0.76113 0.77084 0.18328
 B468 B 0.78247 0.72249 0.21255
 B469 B 0.72892 0.23748 0.79425
 B470 B 0.75313 0.20879 0.74239
 B471 B 0.70574 0.24114 0.73149
 B472 B 0.70979 0.28846 0.77147
 B473 B 0.76069 0.28501 0.80831
 B474 B 0.78738 0.23488 0.79049
 B475 B 0.78204 0.28876 0.70080
 B476 B 0.75754 0.31730 0.75170
 B477 B 0.80499 0.28505 0.76414
 B478 B 0.80095 0.23778 0.72352
 B479 B 0.74950 0.24118 0.68649
 B480 B 0.72319 0.29081 0.70422
 C481 C 0.41255 1.04861 0.36579
 C482 C 0.43139 1.09191 0.37676
 C483 C 0.45896 1.08646 0.42210
 C484 C 0.45480 1.04037 0.43465
 O485 O 0.42723 1.01746 0.40036
 H486 H 0.42597 1.12352 0.35469
 H487 H 0.47989 1.11273 0.44309
 C488 C -0.10911 0.54285 0.86813
 C489 C -0.08785 0.58544 0.87683
 C490 C -0.06130 0.58095 0.92287
 C491 C -0.06750 0.53570 0.93802
 O492 O -0.09599 0.51243 0.90460
 H493 H -0.08901 0.61525 0.85073
 H494 H -0.03751 0.60651 0.94073
 C495 C 0.07430 -0.04087 0.81614
 C496 C 0.04437 -0.07667 0.80171
 C497 C 0.01658 -0.08173 0.84504
 C498 C 0.03156 -0.04802 0.88206
 O499 O 0.06657 -0.02333 0.86447
 H500 H 0.04334 -0.09644 0.76419
 H501 H -0.01281 -0.10542 0.84793
 C502 C 0.61263 0.46105 0.34161
 C503 C 0.60573 0.41492 0.35220
 C504 C 0.57995 0.41358 0.39763
 C505 C 0.57139 0.45888 0.41039
 O506 O 0.59117 0.48773 0.37627
 H507 H 0.61717 0.38552 0.32915
 H508 H 0.56931 0.38281 0.41813
 C509 C 0.60595 0.53136 0.15719
 C510 C 0.58353 0.57268 0.16251
 C511 C 0.56112 0.57907 0.11363
 C512 C 0.57162 0.54105 0.08231
 O513 O 0.59883 0.51208 0.10898
 H514 H 0.58193 0.59425 0.19856
 H515 H 0.53711 0.60628 0.10351
 C516 C 0.14106 1.00947 0.64446
 C517 C 0.17459 0.99418 0.60998
 C518 C 0.15374 0.99435 0.56022
 C519 C 0.11015 1.01406 0.56594
 O520 O 0.10195 1.02133 0.61824
 H521 H 0.20719 0.97766 0.62024
 H522 H 0.16688 0.97534 0.52606
 C523 C -0.09164 0.47681 0.68404
 C524 C -0.06865 0.43600 0.69246
 C525 C -0.04226 0.43003 0.64745
 C526 C -0.05113 0.46788 0.61559
 O527 O -0.08102 0.49617 0.63781
 H528 H -0.06954 0.41442 0.72815
 H529 H -0.01786 0.40274 0.63998
 C530 C 0.38863 -0.02338 0.18293
 C531 C 0.40537 -0.06741 0.18241
 C532 C 0.42576 -0.07257 0.13345
 C533 C 0.42300 -0.03031 0.10847
 O534 O 0.40040 -0.00027 0.13891
 H535 H 0.40505 -0.09213 0.21513
 H536 H 0.44298 -0.10299 0.12026
 C537 C 0.33619 0.47766 0.00535
 C538 C 0.33772 0.51570 0.03921
 C539 C 0.38256 0.53196 0.03678
 C540 C 0.40468 0.50240 0.00166
 O541 O 0.37661 0.46968 -0.01724
 H542 H 0.30981 0.52929 0.06323
 H543 H 0.39768 0.56098 0.05927
 C544 C -0.14232 0.96479 0.53473
 C545 C -0.13253 0.98994 0.58161
 C546 C -0.08630 1.00197 0.57866
 C547 C -0.07181 0.98333 0.53011
 O548 O -0.10570 0.96112 0.50364
 H549 H -0.15613 0.99813 0.61393
 H550 H -0.06570 1.02199 0.60813
 C551 C -0.20327 0.02290 0.93305
 C552 C -0.21096 -0.02366 0.92493
 C553 C -0.16725 -0.04191 0.92223
 C554 C -0.13641 -0.00506 0.92995
 O555 O -0.15829 0.03395 0.93357
 H556 H -0.24351 -0.04262 0.92793
 H557 H -0.15903 -0.07816 0.92268
 C558 C 0.33532 0.54410 0.43669
 C559 C 0.35152 0.54530 0.38423
 C560 C 0.39678 0.53164 0.38867
 C561 C 0.40470 0.52340 0.44341
 O562 O 0.36733 0.52981 0.47210
 H563 H 0.33404 0.55776 0.34786
 H564 H 0.42172 0.53017 0.35631
 C565 C 0.17938 0.53781 0.52426
 C566 C 0.18068 0.49700 0.55214
 C567 C 0.13571 0.48199 0.55332
 C568 C 0.10972 0.51448 0.52561
 O569 O 0.13638 0.54879 0.50792
 H570 H 0.21112 0.47964 0.56828
 H571 H 0.12351 0.45031 0.57148
 C572 C 0.65239 0.07196 0.03180
 C573 C 0.63555 0.09965 0.07265
 C574 C 0.59158 0.08345 0.08164
 C575 C 0.58388 0.04830 0.04424
 O576 O 0.62127 0.04045 0.01494
 H577 H 0.65316 0.12803 0.09384
 H578 H 0.56726 0.09717 0.11038
 C579 C 0.68701 0.98026 0.49511
 C580 C 0.68428 1.02755 0.49595
 C581 C 0.63935 1.03631 0.50701
 C582 C 0.61730 0.99378 0.51151
 O583 O 0.64633 0.95946 0.50421
 H584 H 0.71181 1.05287 0.49020
 H585 H 0.62436 1.07011 0.51097
 C586 C 0.16748 0.45962 0.95633
 C587 C 0.15708 0.49378 0.91990
 C588 C 0.11282 0.50574 0.93092
 C589 C 0.09957 0.47831 0.97393
 O590 O 0.13286 0.44997 0.98933
 H591 H 0.17952 0.50884 0.88986
 H592 H 0.09273 0.53188 0.91026
 C593 C -0.02091 0.32658 0.46863
 C594 C -0.05706 0.32367 0.50483
 C595 C -0.06201 0.36749 0.52566
 C596 C -0.02846 0.39412 0.50084
 O597 O -0.00392 0.36922 0.46649
 H598 H -0.07823 0.29356 0.51344
 H599 H -0.08748 0.37870 0.55458
 C600 C 0.49116 -0.17070 -0.02271
 C601 C 0.50723 -0.17133 0.03098
 C602 C 0.50113 -0.12844 0.05098
 C603 C 0.48014 -0.10374 0.00981
 O604 O 0.47510 -0.12915 -0.03567
 H605 H 0.52536 -0.19797 0.05289
 H606 H 0.51478 -0.11568 0.08982
 C607 C 0.00607 -0.17945 1.03058
 C608 C 0.04020 -0.18029 0.99196
 C609 C 0.03765 -0.13867 0.96631
 C610 C 0.00201 -0.11552 0.99111
 O611 O -0.01685 -0.14029 1.02995
 H612 H 0.06497 -0.20728 0.98491
 H613 H 0.06015 -0.12643 0.93469
 C614 C 0.50418 0.32264 0.53985
 C615 C 0.49129 0.31734 0.48557
 C616 C 0.49505 0.35984 0.46375
 C617 C 0.51132 0.38875 0.50519
 O618 O 0.51586 0.36622 0.55196
 H619 H 0.47809 0.28706 0.46414
 H620 H 0.48486 0.36906 0.42257
 C621 C 0.46878 1.15601 0.58734
 C622 C 0.43280 1.13592 0.61508
 C623 C 0.43249 1.09094 0.59960
 C624 C 0.46844 1.08664 0.56333
 O625 O 0.49078 1.12639 0.55613
 H626 H 0.41096 1.15183 0.64507
 H627 H 0.41073 1.06394 0.61611
 C628 C -0.03001 0.65541 1.08959
 C629 C -0.05835 0.63293 1.12538
 C630 C -0.05860 0.58819 1.10965
 C631 C -0.03093 0.58550 1.06422
 O632 O -0.01294 0.62683 1.05222
 H633 H -0.07583 0.64726 1.16009
 H634 H -0.07542 0.56030 1.13100
 C635 C 0.55062 0.67302 -0.06195
 C636 C 0.58413 0.67106 -0.02065
 C637 C 0.58765 0.62578 -0.00785
 C638 C 0.55477 0.60309 -0.04055
 O639 O 0.53287 0.63172 -0.07433
 H640 H 0.60271 0.69959 -0.00085
 H641 H 0.60940 0.61169 0.02419
 C642 C 0.04560 1.16611 0.42605
 C643 C 0.08470 1.15248 0.39967
 C644 C 0.09291 1.10884 0.41649
 C645 C 0.05865 1.09740 0.45319
 O646 O 0.02934 1.13286 0.45853
 H647 H 0.10374 1.17139 0.36929
 H648 H 0.11849 1.08732 0.39861
 C649 C 0.79614 0.65251 0.89884
 C650 C 0.83863 0.67549 0.89841
 C651 C 0.83690 0.70185 0.85299
 C652 C 0.79333 0.69323 0.82927
 O653 O 0.76844 0.66376 0.85754
 H654 H 0.86652 0.67485 0.92891
 H655 H 0.86298 0.72682 0.84071
 C656 C 0.30434 0.16523 0.40133
 C657 C 0.34186 0.19465 0.41148
 C658 C 0.34037 0.22540 0.36976
 C659 C 0.30210 0.21197 0.33769
 O660 O 0.28030 0.17596 0.35713
 H661 H 0.36585 0.19484 0.44622
 H662 H 0.36300 0.25518 0.36468
 C663 C 0.72340 0.35109 0.38886
 C664 C 0.68181 0.32683 0.38211
 C665 C 0.68271 0.30900 0.33159
 C666 C 0.72546 0.32234 0.31127
 O667 O 0.75047 0.34771 0.34642
 H668 H 0.65485 0.32098 0.41151
 H669 H 0.65727 0.28478 0.31420
 C670 C 0.20814 0.82744 0.92431
 C671 C 0.17273 0.79537 0.92985
 C672 C 0.17549 0.76803 0.88511
 C673 C 0.21218 0.78619 0.85589
 O674 O 0.23196 0.82200 0.87976
 H675 H 0.14849 0.79227 0.96275
 H676 H 0.15406 0.73786 0.87558
 C677 C 0.26222 0.88094 0.10423
 C678 C 0.29246 0.90960 0.13354
 C679 C 0.30407 0.88520 0.17932
 C680 C 0.27831 0.84494 0.17595
 O681 O 0.25436 0.84184 0.12941
 H682 H 0.30524 0.94344 0.12251
 H683 H 0.32642 0.89637 0.21280
 C684 C 0.79329 0.34133 0.57347
 C685 C 0.82397 0.30600 0.56528
 C686 C 0.83234 0.28806 0.61539
 C687 C 0.80456 0.31245 0.65032
 O688 O 0.78222 0.34594 0.62501
 H689 H 0.83652 0.29306 0.52697
 H690 H 0.85076 0.25653 0.62372
 C691 C 0.22446 0.12980 0.57487
 C692 C 0.18538 0.11023 0.59671
 C693 C 0.18133 0.12988 0.64715
 C694 C 0.21773 0.16141 0.65156
 O695 O 0.24381 0.16125 0.60761
 H696 H 0.16185 0.08616 0.57684
 H697 H 0.15492 0.12223 0.67663
 C698 C 0.71979 0.64737 0.07874
 C699 C 0.68560 0.62590 0.10783
 C700 C 0.67886 0.65416 0.15108
 C701 C 0.70975 0.69091 0.14546
 O702 O 0.73456 0.68666 0.10110
 H703 H 0.66933 0.59260 0.09979
 H704 H 0.65701 0.64635 0.18509
 C705 C 0.21103 0.60482 0.22474
 C706 C 0.24203 0.60958 0.18306
 C707 C 0.25569 0.65488 0.18473
 C708 C 0.23215 0.67422 0.22752
 O709 O 0.20519 0.64387 0.25165
 H710 H 0.25349 0.58316 0.15532
 H711 H 0.28024 0.67172 0.15830
 C712 C 0.72929 0.08633 0.74291
 C713 C 0.76293 0.08491 0.70383
 C714 C 0.77779 0.12966 0.69868
 C715 C 0.75191 0.15482 0.73495
 O716 O 0.72281 0.12851 0.76147
 H717 H 0.77425 0.05520 0.68110
 H718 H 0.80354 0.14258 0.67085
 C719 C 0.80222 0.09440 0.27995
 C720 C 0.77717 0.10488 0.32540
 C721 C 0.76556 0.14969 0.31898
 C722 C 0.78414 0.16275 0.26980
 O723 O 0.80632 0.12924 0.24631
 H724 H 0.76823 0.08240 0.35864
 H725 H 0.74544 0.17030 0.34656
 C726 C 0.27168 0.55920 0.77391
 C727 C 0.25458 0.56377 0.82566
 C728 C 0.24829 0.60993 0.83244
 C729 C 0.26204 0.62972 0.78424
 O730 O 0.27493 0.59908 0.74884
 H731 H 0.25227 0.53755 0.85654
 H732 H 0.23687 0.62727 0.86884
 C733 C 0.29681 0.39678 0.70317
 C734 C 0.31110 0.37965 0.65406
 C735 C 0.29874 0.33441 0.65451
 C736 C 0.27862 0.32746 0.70443
 O737 O 0.27727 0.36542 0.73405
 H738 H 0.32978 0.39774 0.62272
 H739 H 0.30555 0.30909 0.62322
 C740 C 0.77345 0.93090 0.23216
 C741 C 0.72562 0.93201 0.22410
 C742 C 0.71155 0.88726 0.22100
 C743 C 0.75159 0.86183 0.22784
 O744 O 0.78937 0.88828 0.23423
 H745 H 0.70334 0.96164 0.22113
 H746 H 0.67590 0.87460 0.21632
 C747 C 0.70916 0.92396 0.81115
 C748 C 0.69901 0.90169 0.85848
 C749 C 0.71009 0.85721 0.84926
 C750 C 0.72519 0.85502 0.79606
 O751 O 0.72440 0.89591 0.77264
 H752 H 0.68354 0.91596 0.89456
 H753 H 0.70543 0.82923 0.87753
 C754 C 0.22515 0.44265 0.28866
 C755 C 0.26867 0.44122 0.31334
 C756 C 0.28212 0.39694 0.30752
 C757 C 0.24593 0.37443 0.27919
 O758 O 0.21105 0.40231 0.26789
 H759 H 0.28851 0.46933 0.33229
 H760 H 0.31510 0.38303 0.32145
 C761 C 0.07315 0.21715 0.78881
 C762 C 0.06518 0.20373 0.73520
 C763 C 0.10833 0.20069 0.71282
 C764 C 0.14010 0.21089 0.75444
 O765 O 0.11864 0.22129 0.80037
 H766 H 0.03185 0.19876 0.71413
 H767 H 0.11540 0.19429 0.67043
 C768 C 0.57352 0.73111 0.28884
 C769 C 0.56481 0.72555 0.23369
 C770 C 0.60759 0.72093 0.21138
 C771 C 0.63968 0.72257 0.25442
 O772 O 0.61873 0.72891 0.30138
 H773 H 0.53173 0.72717 0.21168
 H774 H 0.61455 0.72082 0.16830
 C775 C 0.59463 0.28417 0.17190
 C776 C 0.60003 0.32543 0.19960
 C777 C 0.64567 0.32823 0.21444
 C778 C 0.66526 0.28788 0.19712
 O779 O 0.63422 0.26097 0.17032
 H780 H 0.57391 0.35130 0.20622
 H781 H 0.66234 0.35634 0.23618
 C782 C 0.08558 0.76993 0.70268
 C783 C 0.08576 0.80219 0.74396
 C784 C 0.12914 0.80031 0.76734
 C785 C 0.15243 0.76726 0.73824
 O786 O 0.12586 0.74882 0.69898
 H787 H 0.05745 0.82405 0.75565
 H788 H 0.14179 0.82086 0.80145
 C789 C 0.91652 0.73061 0.67830
 C790 C 0.91265 0.68917 0.70447
 C791 C 0.87052 0.68975 0.72846
 C792 C 0.85101 0.73163 0.71579
 O793 O 0.87938 0.75684 0.68526
 H794 H 0.93850 0.66246 0.70752
 H795 H 0.85623 0.66259 0.75275
 C796 C 0.42490 0.24150 0.18638
 C797 C 0.42604 0.20725 0.22468
 C798 C 0.38256 0.20580 0.24550
 C799 C 0.35770 0.23970 0.21908
 O800 O 0.38353 0.26130 0.18259
 H801 H 0.45536 0.18610 0.23632
 H802 H 0.37120 0.18303 0.27705
 C803 C 0.41366 0.79124 0.33711
 C804 C 0.40138 0.83208 0.36112
 C805 C 0.35860 0.84240 0.33894
 C806 C 0.34694 0.80702 0.30275
 O807 O 0.38091 0.77598 0.30157
 H808 H 0.42100 0.85165 0.39191
 H809 H 0.33731 0.87079 0.35115
 C810 C 0.91831 0.28603 0.82847
 C811 C 0.89814 0.31855 0.86110
 C812 C 0.85762 0.32976 0.83484
 C813 C 0.85449 0.30212 0.78859
 O814 O 0.89231 0.27638 0.78418
 H815 H 0.91061 0.33149 0.90038
 H816 H 0.83060 0.35078 0.85177
 C817 C 0.60676 0.96483 0.69585
 C818 C 0.57673 0.92967 0.71029
 C819 C 0.55087 0.91918 0.66421
 C820 C 0.56709 0.94873 0.62499
 O821 O 0.60131 0.97586 0.64426
 H822 H 0.57154 0.91589 0.75040
 H823 H 0.52044 0.89661 0.66134
 C824 C 0.11029 0.46428 1.17526
 C825 C 0.08286 0.42775 1.19156
 C826 C 0.05662 0.41471 1.14679
 C827 C 0.06910 0.44494 1.10644
 O828 O 0.10231 0.47430 1.12370
 H829 H 0.07848 0.41534 1.23239
 H830 H 0.02710 0.39094 1.14622
 C831 C -0.12646 0.00053 1.14490
 C832 C -0.16292 -0.01601 1.11301
 C833 C -0.14885 -0.01062 1.06148
 C834 C -0.10451 0.00936 1.06470
 O835 O -0.09115 0.01662 1.11625
 H836 H -0.19599 -0.03027 1.12573
 H837 H -0.16767 -0.02427 1.02658
 C838 C 0.39483 0.52110 0.65265
 C839 C 0.42157 0.55959 0.66601
 C840 C 0.44824 0.56722 0.62206
 C841 C 0.43521 0.53320 0.58475
 O842 O 0.40287 0.50489 0.60367
 H843 H 0.42168 0.57935 0.70358
 H844 H 0.47599 0.59276 0.61895
 C845 C 0.40724 0.46193 -0.18339
 C846 C 0.43364 0.42318 -0.19035
 C847 C 0.46382 0.42317 -0.14646
 C848 C 0.45308 0.46179 -0.11627
 O849 O 0.41888 0.48513 -0.13867
 H850 H 0.43156 0.39828 -0.22337
 H851 H 0.49124 0.39879 -0.13828
 C852 C -0.10045 0.96233 0.33642
 C853 C -0.08115 0.91981 0.32796
 C854 C -0.04758 0.91637 0.36786
 C855 C -0.04977 0.95670 0.39803
 O856 O -0.08167 0.98447 0.37876
 H857 H -0.08864 0.89539 0.29530
 H858 H -0.02281 0.88886 0.37267
 C859 C 0.08908 0.53314 0.33540
 C860 C 0.05035 0.55734 0.31908
 C861 C 0.02209 0.55701 0.36258
 C862 C 0.04624 0.53366 0.40283
 O863 O 0.08694 0.51864 0.38612
 H864 H 0.04375 0.57334 0.28004
 H865 H -0.01251 0.57133 0.36436
 C866 C 0.59740 0.04330 -0.14315
 C867 C 0.57737 0.08624 -0.14542
 C868 C 0.54443 0.08618 -0.10670
 C869 C 0.54678 0.04340 -0.08319
 O870 O 0.57868 0.01703 -0.10563
 H871 H 0.58562 0.11433 -0.17241
 H872 H 0.52150 0.11407 -0.09735
 C873 C 0.68878 0.52897 -0.03533
 C874 C 0.69322 0.48375 -0.02022
 C875 C 0.64869 0.46703 -0.01884
 C876 C 0.62079 0.50385 -0.03223
 O877 O 0.64515 0.54142 -0.04229
 H878 H 0.72487 0.46612 -0.00846
 H879 H 0.63773 0.43305 -0.00599
 C880 C 0.19312 1.03573 0.42656
 C881 C 0.18428 1.01649 0.37568
 C882 C 0.14132 0.99539 0.37918
 C883 C 0.12727 1.00482 0.43142
 O884 O 0.15823 1.03003 0.45901
 H885 H 0.20580 1.01875 0.34017
 H886 H 0.12154 0.97791 0.34685
 C887 C 0.14438 -0.03909 1.01590
 C888 C 0.13995 -0.01006 1.05996
 C889 C 0.09372 0.00184 1.05892
 C890 C 0.07343 -0.02098 1.01438
 O891 O 0.10424 -0.04540 0.98843
 H892 H 0.16652 -0.00008 1.09004
 H893 H 0.07673 0.02415 1.08758
 C894 C 0.66597 0.43858 0.54294
 C895 C 0.66975 0.47146 0.58361
 C896 C 0.62659 0.49134 0.58435
 C897 C 0.60012 0.46884 0.54411
 O898 O 0.62389 0.43686 0.51982
 H899 H 0.70071 0.48186 0.60699
 H900 H 0.61657 0.52053 0.60887
 C901 C -0.17877 0.46574 0.49693
 C902 C -0.18199 0.50590 0.52610
 C903 C -0.13747 0.52203 0.53100
 C904 C -0.11009 0.48971 0.50541
 O905 O -0.13544 0.45537 0.48438
 H906 H -0.21299 0.52089 0.54277
 H907 H -0.12624 0.55305 0.55263
 C908 C 0.31162 -0.04086 -0.03028
 C909 C 0.32187 -0.02574 -0.08171
 C910 C 0.36844 -0.01749 -0.08064
 C911 C 0.38376 -0.02755 -0.02833
 O912 O 0.34911 -0.04188 0.00256
 H913 H 0.29845 -0.02408 -0.11691
 H914 H 0.38883 -0.00484 -0.11409
 C915 C 0.33615 1.03039 0.52062
 C916 C 0.32553 0.99656 0.55773
 C917 C 0.36727 0.97526 0.56878
 C918 C 0.39949 0.99783 0.53721
 O919 O 0.38043 1.03081 0.50857
 H920 H 0.29205 0.98889 0.57533
 H921 H 0.37357 0.94753 0.59703
 C922 C -0.16804 0.53630 1.04184
 C923 C -0.18045 0.49607 1.06778
 C924 C -0.13936 0.47260 1.07485
 C925 C -0.10558 0.50084 1.05297
 O926 O -0.12322 0.53894 1.03357
 H927 H -0.21525 0.48386 1.07672
 H928 H -0.13508 0.43831 1.09092
 C929 C 0.01727 0.67285 0.55194
 C930 C 0.01502 0.67966 0.49669
 C931 C 0.02111 0.63714 0.47407
 C932 C 0.02636 0.60711 0.51719
 O933 O 0.02450 0.62922 0.56461
 H934 H 0.00914 0.71168 0.47555
 H935 H 0.01824 0.62887 0.43124
 C936 C 0.49542 0.18283 0.04151
 C937 C 0.46503 0.18508 -0.00259
 C938 C 0.46177 0.14132 -0.02265
 C939 C 0.49059 0.11527 0.01050
 O940 O 0.51081 0.14065 0.04977
 H941 H 0.44631 0.21477 -0.01727
 H942 H 0.43910 0.12937 -0.05592
 C943 C -0.04038 0.16083 0.92909
 C944 C -0.07326 0.16617 0.96874
 C945 C -0.08389 0.12238 0.98627
 C946 C -0.05774 0.09281 0.95573
 O947 O -0.03116 0.11644 0.92139
 H948 H -0.08658 0.19809 0.98466
 H949 H -0.10595 0.11339 1.01946
 C950 C 0.48475 0.67159 0.44596
 C951 C 0.45080 0.67367 0.48457
 C952 C 0.44955 0.63089 0.50755
 C953 C 0.48312 0.60537 0.48200
 O954 O 0.50421 0.63022 0.44431
 H955 H 0.42864 0.70234 0.49395
 H956 H 0.42576 0.61967 0.53818
 C957 C 0.53513 0.82580 0.45348
 C958 C 0.55782 0.81643 0.50210
 C959 C 0.56201 0.85780 0.52908
 C960 C 0.54222 0.88989 0.49481
 O961 O 0.52567 0.87021 0.44886
 H962 H 0.56922 0.78325 0.51652
 H963 H 0.57598 0.86338 0.56991
 C964 C 0.02808 0.31719 0.94805
 C965 C 0.06687 0.31930 0.98219
 C966 C 0.06609 0.36151 1.00694
 C967 C 0.02736 0.38325 0.98592
 O968 O 0.00387 0.35612 0.94999
 H969 H 0.09301 0.29313 0.98765
 H970 H 0.09121 0.37523 1.03649
 C971 C 0.47250 0.34059 0.04551
 C972 C 0.43744 0.33627 0.00625
 C973 C 0.43654 0.37820 -0.01925
 C974 C 0.47079 0.40481 0.00691
 O975 O 0.49225 0.38185 0.04583
 H976 H 0.41685 0.30580 -0.00430
 H977 H 0.41505 0.38734 -0.05407
 C978 C -0.01117 0.82810 0.54756
 C979 C -0.05129 0.82832 0.51554
 C980 C -0.04953 0.86908 0.48820
 C981 C -0.00819 0.89067 0.50488
 O982 O 0.01479 0.86572 0.54115
 H983 H -0.07935 0.80293 0.51376
 H984 H -0.07630 0.88185 0.46106
 C985 C 0.21875 0.36360 0.07760
 C986 C 0.17854 0.33738 0.07052
 C987 C 0.17243 0.31523 0.11864
 C988 C 0.20983 0.32896 0.15163
 O989 O 0.23772 0.35851 0.12670
 H990 H 0.15819 0.33203 0.03353
 H991 H 0.14680 0.28845 0.12650
 C992 C 0.72120 0.86406 0.58575
 C993 C 0.67860 0.84284 0.57448
 C994 C 0.66874 0.81788 0.61992
 C995 C 0.70595 0.82601 0.65570
 O996 O 0.73731 0.85430 0.63487
 H997 H 0.65883 0.84260 0.53647
 H998 H 0.64049 0.79304 0.62405
 C999 C 0.29222 0.64296 0.58464
 C1000 C 0.33232 0.62943 0.61215
 C1001 C 0.33208 0.65014 0.66139
 C1002 C 0.29293 0.67646 0.66076
 O1003 O 0.26786 0.67172 0.61440
 H1004 H 0.35711 0.60405 0.59990
 H1005 H 0.35546 0.64292 0.69520
 C1006 C 0.79271 0.14122 0.07523
 C1007 C 0.83301 0.12773 0.10230
 C1008 C 0.84163 0.15976 0.14177
 C1009 C 0.80620 0.19073 0.13640
 O1010 O 0.77640 0.17949 0.09594
 H1011 H 0.85242 0.09655 0.09706
 H1012 H 0.86758 0.15728 0.17402
 C1013 C 0.71103 0.16809 0.91085
 C1014 C 0.67830 0.20028 0.92428
 C1015 C 0.67625 0.22923 0.88046
 C1016 C 0.70767 0.21197 0.84397
 O1017 O 0.72841 0.17516 0.86258
 H1018 H 0.65935 0.20313 0.96171
 H1019 H 0.65652 0.26059 0.87700
 C1020 C 0.20862 0.66027 0.41318
 C1021 C 0.17285 0.68737 0.43087
 C1022 C 0.16802 0.72051 0.39185
 C1023 C 0.20111 0.71066 0.35353
 O1024 O 0.22526 0.67422 0.36654
 H1025 H 0.15447 0.68499 0.46874
 H1026 H 0.14553 0.75007 0.39314
 C1027 C 0.77800 0.85022 0.41818
 C1028 C 0.80651 0.81448 0.43299
 C1029 C 0.80814 0.78702 0.38834
 C1030 C 0.78093 0.80815 0.34890
 O1031 O 0.76237 0.84675 0.36710
 H1032 H 0.82479 0.80977 0.47160
 H1033 H 0.82605 0.75458 0.38544
 C1034 C 0.27790 0.33962 0.90926
 C1035 C 0.31431 0.31134 0.92295
 C1036 C 0.31867 0.28270 0.87976
 C1037 C 0.28497 0.29578 0.84203
 O1038 O 0.25987 0.33052 0.86016
 H1039 H 0.33540 0.31204 0.96011
 H1040 H 0.34183 0.25388 0.87797
 C1041 C 0.77969 0.43935 0.76037
 C1042 C 0.73905 0.44143 0.72971
 C1043 C 0.72380 0.39707 0.72504
 C1044 C 0.75696 0.37128 0.75248
 O1045 O 0.79096 0.39707 0.77401
 H1046 H 0.72341 0.47151 0.71158
 H1047 H 0.69325 0.38479 0.70212
 C1048 C 0.27750 0.94939 0.31127
 C1049 C 0.26052 0.93959 0.36218
 C1050 C 0.24280 0.89589 0.35846
 C1051 C 0.25119 0.88165 0.30595
 O1052 O 0.27125 0.91442 0.27733
 H1053 H 0.26391 0.96044 0.39884
 H1054 H 0.22925 0.87548 0.39140
 C1055 C 0.21815 0.90662 0.73508
 C1056 C 0.25761 0.91026 0.70442
 C1057 C 0.27574 0.86700 0.70465
 C1058 C 0.24581 0.84063 0.73551
 O1059 O 0.21125 0.86474 0.75392
 H1060 H 0.27118 0.94028 0.68392
 H1061 H 0.30679 0.85593 0.68432
 C1062 C 0.72651 0.42920 0.19832
 C1063 C 0.72707 0.42355 0.14253
 C1064 C 0.74500 0.38056 0.13440
 C1065 C 0.75392 0.36367 0.18593
 O1066 O 0.74342 0.39341 0.22411
 H1067 H 0.71119 0.44538 0.11201
 H1068 H 0.74698 0.36217 0.09605
 C1069 C 0.72073 0.57882 0.26352
 C1070 C 0.76724 0.57683 0.25192
 C1071 C 0.78164 0.62137 0.25034
 C1072 C 0.74232 0.64713 0.26008
 O1073 O 0.70517 0.62112 0.26855
 H1074 H 0.78757 0.54656 0.24365
 H1075 H 0.81625 0.63365 0.24031
 C1076 C 0.21013 0.06238 0.79723
 C1077 C 0.22161 0.07617 0.84970
 C1078 C 0.23253 0.12153 0.84581
 C1079 C 0.22655 0.13184 0.79124
 O1080 O 0.21329 0.09585 0.76161
 H1081 H 0.21960 0.05611 0.88655
 H1082 H 0.24283 0.14464 0.87894
 C1083 C 0.29204 0.09767 0.23052
 C1084 C 0.26172 0.09348 0.18625
 C1085 C 0.24526 0.13721 0.17820
 C1086 C 0.26703 0.16423 0.21822
 O1087 O 0.29492 0.14015 0.24944
 H1088 H 0.25286 0.06275 0.16275
 H1089 H 0.22030 0.14799 0.14728
 C1090 C 0.79258 0.59130 0.71093
 C1091 C 0.79113 0.59831 0.65549
 C1092 C 0.77301 0.64150 0.64922
 C1093 C 0.76465 0.65695 0.70139
 O1094 O 0.77585 0.62626 0.73817
 H1095 H 0.80588 0.57691 0.62424
 H1096 H 0.77008 0.66080 0.61183
 C1097 C 0.91634 0.77695 0.19433
 C1098 C 0.92649 0.78392 0.24882
 C1099 C 0.88426 0.79023 0.27243
 C1100 C 0.85113 0.78628 0.23068
 O1101 O 0.87095 0.77865 0.18311
 H1102 H 0.96049 0.78341 0.26902
 H1103 H 0.87842 0.79365 0.31551
 C1104 C 0.42494 0.25855 0.70620
 C1105 C 0.43372 0.24032 0.75689
 C1106 C 0.39123 0.23488 0.77968
 C1107 C 0.35904 0.25067 0.74174
 O1108 O 0.37963 0.26469 0.69664
 H1109 H 0.46692 0.22914 0.77364
 H1110 H 0.38455 0.21722 0.81728
 C1111 C 0.42838 0.72210 0.82506
 C1112 C 0.43921 0.71600 0.77130
 C1113 C 0.39746 0.71101 0.74397
 C1114 C 0.36327 0.71166 0.78282
 O1115 O 0.38237 0.72006 0.83222
 H1116 H 0.47318 0.71984 0.75334
 H1117 H 0.39282 0.71219 0.70023
 C1118 C 0.93885 0.23685 0.30263
 C1119 C 0.95234 0.22386 0.25125
 C1120 C 0.91286 0.22658 0.21881
 C1121 C 0.87715 0.23822 0.25288
 O1122 O 0.89341 0.24572 0.30344
 H1123 H 0.98733 0.21728 0.23780
 H1124 H 0.91112 0.22287 0.17498
 C1125 C 0.08437 0.28772 0.31434
 C1126 C 0.07995 0.32406 0.27893
 C1127 C 0.12185 0.32787 0.25345
 C1128 C 0.14941 0.29413 0.27540
 O1129 O 0.12661 0.26952 0.31243
 H1130 H 0.04972 0.34548 0.27301
 H1131 H 0.13156 0.35233 0.22270
 C1132 C 0.57618 0.77962 0.80995
 C1133 C 0.57396 0.81632 0.77496
 C1134 C 0.61518 0.81674 0.74820
 C1135 C 0.64007 0.78017 0.76862
 O1136 O 0.61637 0.75765 0.80646
 H1137 H 0.54605 0.84081 0.77116
 H1138 H 0.62651 0.84209 0.71918
 C1139 C 0.58545 0.22779 0.68459
 C1140 C 0.58580 0.19058 0.71928
 C1141 C 0.63048 0.18839 0.73953
 C1142 C 0.65447 0.22402 0.71547
 O1143 O 0.62709 0.24798 0.68228
 H1144 H 0.55705 0.16806 0.72982
 H1145 H 0.64318 0.16493 0.77011
 C1146 C 0.07328 0.74118 0.19528
 C1147 C 0.07180 0.70627 0.23300
 C1148 C 0.11424 0.70783 0.25947
 C1149 C 0.13880 0.74359 0.23624
 O1150 O 0.11393 0.76373 0.19716
 H1151 H 0.04368 0.68194 0.24013
 H1152 H 0.12569 0.68517 0.29154
   
