data_POSCAR
  _audit_creation_date              2014-09-24
  _audit_creation_method            'ToBaCCo'
  _symmetry_space_group_name_H-M    'P1'
  _symmetry_Int_Tables_number       1
  _symmetry_cell_setting            triclinic
  loop_
  _symmetry_equiv_pos_as_xyz
 x,y,z
_cell_length_a 31.4233
_cell_length_b 31.6386
_cell_length_c 31.7808
_cell_angle_alpha 89.981500
_cell_angle_beta 89.999100
_cell_angle_gamma 90.078900
loop_
  _atom_site_label
  _atom_site_type_symbol
  _atom_site_fract_x
  _atom_site_fract_y
  _atom_site_fract_z
C1 C 1.19313 0.26611 0.31543
 H2 H 1.19182 0.23202 0.31781
 C3 C 1.16777 0.29100 0.34168
 H4 H 1.14667 0.27607 0.36420
 C5 C 1.22217 0.32733 0.28327
 H6 H 1.24376 0.34146 0.26088
 C7 C 1.19736 0.35338 0.30893
 H8 H 1.19956 0.38741 0.30580
 N9 N 1.21912 0.28450 0.28644
 C10 C 1.23591 0.18968 0.18756
 H11 H 1.27027 0.18892 0.18560
 C12 C 1.21150 0.16428 0.16084
 H13 H 1.22705 0.14380 0.13828
 C14 C 1.17354 0.21749 0.21910
 H15 H 1.15880 0.23863 0.24140
 C16 C 1.14797 0.19265 0.19296
 H17 H 1.11364 0.19447 0.19553
 Zn18 Zn 1.25219 0.24852 0.25155
 N19 N 1.21671 0.21515 0.21639
 C20 C 1.28256 0.17070 0.28446
 N21 N 1.28533 0.21354 0.28713
 C22 C 1.31138 0.23250 0.31571
 C23 C 1.33713 0.20814 0.34210
 C24 C 1.30768 0.14515 0.31023
 C25 C 1.26893 0.30615 0.18685
 C26 C 1.29353 0.33127 0.16012
 C27 C 1.35688 0.30278 0.19255
 C28 C 1.33109 0.27818 0.21871
 N29 N 1.28793 0.28088 0.21595
 H30 H 1.26093 0.15617 0.26238
 H31 H 1.31245 0.26663 0.31760
 H32 H 1.35813 0.22364 0.36436
 H33 H 1.30543 0.11106 0.30747
 H34 H 1.23457 0.30714 0.18487
 H35 H 1.27815 0.35191 0.13757
 H36 H 1.39119 0.30099 0.19537
 H37 H 1.34566 0.25712 0.24119
 C38 C 1.16712 0.16565 0.16372
 C39 C 1.16971 0.33504 0.33820
 C40 C 1.33789 0.32978 0.16324
 C41 C 1.33547 0.16402 0.33911
 C42 C 0.69021 -0.23395 0.31439
 H43 H 0.68940 -0.26810 0.31591
 C44 C 0.66408 -0.21009 0.34082
 H45 H 0.64300 -0.22581 0.36282
 C46 C 0.71866 -0.17155 0.28391
 H47 H 0.74026 -0.15659 0.26207
 C48 C 0.69313 -0.14655 0.30975
 H49 H 0.69489 -0.11242 0.30747
 N50 N 0.71622 -0.21444 0.28614
 C51 C 0.73287 -0.30563 0.18500
 H52 H 0.76723 -0.30675 0.18311
 C53 C 0.70824 -0.33047 0.15807
 H54 H 0.72358 -0.35105 0.13546
 C55 C 0.67073 -0.27766 0.21690
 H56 H 0.65618 -0.25670 0.23948
 C57 C 0.64492 -0.30196 0.19056
 H58 H 0.61061 -0.30010 0.19335
 Zn59 Zn 0.74948 -0.24877 0.25028
 N60 N 0.71387 -0.28055 0.21425
 C61 C 0.77926 -0.32792 0.28121
 N62 N 0.78234 -0.28513 0.28481
 C63 C 0.80812 -0.26703 0.31414
 C64 C 0.83323 -0.29219 0.34036
 C65 C 0.80382 -0.35423 0.30683
 C66 C 0.76577 -0.18921 0.18712
 C67 C 0.79018 -0.16348 0.16073
 C68 C 0.85369 -0.19204 0.19275
 C69 C 0.82812 -0.21723 0.21855
 N70 N 0.78496 -0.21495 0.21572
 H71 H 0.75780 -0.34181 0.25857
 H72 H 0.80941 -0.23297 0.31685
 H73 H 0.85414 -0.27750 0.36319
 H74 H 0.80160 -0.38823 0.30342
 H75 H 0.73141 -0.18853 0.18506
 H76 H 0.77465 -0.14281 0.13832
 H77 H 0.88802 -0.19383 0.19538
 H78 H 0.84284 -0.23859 0.24066
 C79 C 0.66389 -0.32884 0.16117
 C80 C 0.66536 -0.16601 0.33817
 C81 C 0.83454 -0.16480 0.16375
 C82 C 0.83122 -0.33618 0.33647
 C83 C 0.69121 0.26692 -0.18698
 H84 H 0.69043 0.23278 -0.18521
 C85 C 0.66541 0.29094 -0.16035
 H86 H 0.64464 0.27535 -0.13799
 C87 C 0.71925 0.32912 -0.21819
 H88 H 0.74057 0.34395 -0.24038
 C89 C 0.69403 0.35429 -0.19215
 H90 H 0.69578 0.38840 -0.19465
 N91 N 0.71689 0.28623 -0.21566
 C92 C 0.73260 0.19374 -0.31616
 H93 H 0.76693 0.19252 -0.31838
 C94 C 0.70763 0.16860 -0.34256
 H95 H 0.72272 0.14775 -0.36508
 C96 C 0.67084 0.22222 -0.28403
 H97 H 0.65654 0.24348 -0.26157
 C98 C 0.64471 0.19763 -0.30983
 H99 H 0.61044 0.19964 -0.30676
 Zn100 Zn 0.74997 0.25153 -0.25155
 N101 N 0.71397 0.21927 -0.28706
 C102 C 0.78011 0.17263 -0.21991
 N103 N 0.78313 0.21547 -0.21677
 C104 C 0.80900 0.23387 -0.18768
 C105 C 0.83418 0.20899 -0.16123
 C106 C 0.80474 0.14660 -0.19404
 C107 C 0.76622 0.31094 -0.31523
 C108 C 0.79064 0.33668 -0.34167
 C109 C 0.85418 0.30797 -0.30972
 C110 C 0.82855 0.28283 -0.28390
 N111 N 0.78539 0.28517 -0.28663
 H112 H 0.75861 0.15849 -0.24236
 H113 H 0.81027 0.26796 -0.18532
 H114 H 0.85511 0.22394 -0.13859
 H115 H 0.80251 0.11256 -0.19709
 H116 H 0.73186 0.31170 -0.31721
 H117 H 0.77491 0.35735 -0.36398
 H118 H 0.88851 0.30599 -0.30695
 H119 H 0.84327 0.26147 -0.26177
 C120 C 0.66329 0.17034 -0.33909
 C121 C 0.66666 0.33503 -0.16322
 C122 C 0.83508 0.33536 -0.33874
 C123 C 0.83219 0.16495 -0.16460
 C124 C 1.19244 -0.23304 -0.18601
 H125 H 1.19122 -0.26710 -0.18328
 C126 C 1.16746 -0.20792 -0.15969
 H127 H 1.14667 -0.22263 -0.13675
 C128 C 1.22107 -0.17211 -0.21914
 H129 H 1.24240 -0.15821 -0.24190
 C130 C 1.19662 -0.14583 -0.19342
 H131 H 1.19877 -0.11183 -0.19687
 N132 N 1.21804 -0.21490 -0.21549
 C133 C 1.23435 -0.31103 -0.31285
 H134 H 1.26870 -0.31172 -0.31500
 C135 C 1.20986 -0.33692 -0.33897
 H136 H 1.22530 -0.35772 -0.36130
 C137 C 1.17210 -0.28284 -0.28138
 H138 H 1.15745 -0.26136 -0.25934
 C139 C 1.14644 -0.30818 -0.30691
 H140 H 1.11212 -0.30638 -0.30418
 Zn141 Zn 1.25080 -0.25126 -0.24999
 N142 N 1.21524 -0.28513 -0.28435
 C143 C 1.28123 -0.32840 -0.21597
 N144 N 1.28396 -0.28552 -0.21405
 C145 C 1.30998 -0.26597 -0.18584
 C146 C 1.33580 -0.28981 -0.15910
 C147 C 1.30645 -0.35338 -0.18981
 C148 C 1.26726 -0.19454 -0.31538
 C149 C 1.29181 -0.16962 -0.34232
 C150 C 1.35522 -0.19791 -0.30979
 C151 C 1.32949 -0.22230 -0.28344
 N152 N 1.28634 -0.21954 -0.28611
 H153 H 1.25960 -0.34337 -0.23775
 H154 H 1.31098 -0.23181 -0.18455
 H155 H 1.35687 -0.27408 -0.13712
 H156 H 1.30445 -0.38751 -0.19182
 H157 H 1.23290 -0.19353 -0.31727
 H158 H 1.27640 -0.14908 -0.36493
 H159 H 1.38953 -0.19963 -0.30698
 H160 H 1.34410 -0.24319 -0.26083
 C161 C 1.16551 -0.33560 -0.33579
 C162 C 1.16940 -0.16393 -0.16363
 C163 C 1.33616 -0.17108 -0.33918
 C164 C 1.33417 -0.33390 -0.16139
 C165 C 0.26678 0.19341 0.68539
 H166 H 0.23241 0.19225 0.68358
 C167 C 0.29130 0.16862 0.65836
 H168 H 0.27586 0.14806 0.63577
 C169 C 0.32904 0.22144 0.71714
 H170 H 0.34368 0.24240 0.73969
 C171 C 0.35475 0.19720 0.69069
 H172 H 0.38907 0.19912 0.69338
 N173 N 0.28588 0.21851 0.71459
 C174 C 0.19195 0.23220 0.81477
 H175 H 0.19086 0.26627 0.81743
 C176 C 0.16679 0.20715 0.84110
 H177 H 0.14606 0.22203 0.86395
 C178 C 0.22036 0.17120 0.78179
 H179 H 0.24166 0.15726 0.75906
 C180 C 0.19574 0.14497 0.80750
 H181 H 0.19783 0.11096 0.80402
 Zn182 Zn 0.25039 0.25032 0.75069
 N183 N 0.21753 0.21400 0.78536
 C184 C 0.17167 0.28169 0.71917
 N185 N 0.21482 0.28406 0.71618
 C186 C 0.23392 0.30989 0.68756
 C187 C 0.20942 0.33564 0.66132
 C188 C 0.14601 0.30688 0.69352
 C189 C 0.30978 0.26545 0.81472
 C190 C 0.33569 0.28947 0.84129
 C191 C 0.30632 0.35284 0.81034
 C192 C 0.28101 0.32769 0.78435
 N193 N 0.28370 0.28481 0.78647
 H194 H 0.15701 0.26026 0.74130
 H195 H 0.26827 0.31066 0.68538
 H196 H 0.22487 0.35639 0.63889
 H197 H 0.11169 0.30502 0.69628
 H198 H 0.31077 0.23131 0.81618
 H199 H 0.35680 0.27388 0.86330
 H200 H 0.30433 0.38696 0.80817
 H201 H 0.25935 0.34252 0.76254
 C202 C 0.16850 0.16312 0.83725
 C203 C 0.33567 0.17032 0.66132
 C204 C 0.33411 0.33355 0.83880
 C205 C 0.16507 0.33424 0.66450
 C206 C 0.76407 0.68993 0.68661
 H207 H 0.72971 0.68925 0.68455
 C208 C 0.78842 0.66418 0.66023
 H209 H 0.77283 0.64351 0.63784
 C210 C 0.82650 0.71786 0.71808
 H211 H 0.84129 0.73915 0.74024
 C212 C 0.85200 0.69266 0.69229
 H213 H 0.88633 0.69439 0.69497
 N214 N 0.78332 0.71563 0.71526
 C215 C 0.68886 0.73364 0.81458
 H216 H 0.68794 0.76778 0.81631
 C217 C 0.66304 0.70945 0.84113
 H218 H 0.64214 0.72500 0.86337
 C219 C 0.71733 0.67163 0.78357
 H220 H 0.73884 0.65694 0.76152
 C221 C 0.69213 0.64627 0.80951
 H222 H 0.69414 0.61216 0.80698
 Zn223 Zn 0.74796 0.74925 0.75023
 N224 N 0.71476 0.71449 0.78603
 C225 C 0.66905 0.77864 0.71743
 N226 N 0.71221 0.78145 0.71454
 C227 C 0.73111 0.80677 0.68538
 C228 C 0.70641 0.83183 0.65873
 C229 C 0.64318 0.80317 0.69137
 C230 C 0.80699 0.76701 0.81408
 C231 C 0.83238 0.79194 0.84033
 C232 C 0.80318 0.85426 0.80727
 C233 C 0.77834 0.82818 0.78162
 N234 N 0.78116 0.78535 0.78496
 H235 H 0.65455 0.75754 0.73996
 H236 H 0.76546 0.80786 0.68328
 H237 H 0.72172 0.85252 0.63614
 H238 H 0.60888 0.80129 0.69431
 H239 H 0.80811 0.73293 0.81659
 H240 H 0.85331 0.77704 0.86297
 H241 H 0.80115 0.88829 0.80403
 H242 H 0.75688 0.84227 0.75912
 C243 C 0.66450 0.66534 0.83832
 C244 C 0.83280 0.66540 0.66329
 C245 C 0.83064 0.83597 0.83670
 C246 C 0.66206 0.83024 0.66201
 C247 C 0.76544 0.18941 0.18606
 H248 H 0.73108 0.18863 0.18393
 C249 C 0.78992 0.16378 0.15972
 H250 H 0.77446 0.14308 0.13727
 C251 C 0.82771 0.21759 0.21764
 H252 H 0.84237 0.23898 0.23980
 C253 C 0.85335 0.19252 0.19190
 H254 H 0.88767 0.19440 0.19461
 N255 N 0.78456 0.21517 0.21471
 C256 C 0.68989 0.23377 0.31337
 H257 H 0.68914 0.26792 0.31491
 C258 C 0.66387 0.20986 0.33991
 H259 H 0.64291 0.22552 0.36201
 C260 C 0.71817 0.17144 0.28277
 H261 H 0.73968 0.15655 0.26086
 C262 C 0.69273 0.14638 0.30872
 H263 H 0.69447 0.11226 0.30646
 Zn264 Zn 0.74906 0.24879 0.24930
 N265 N 0.71577 0.21432 0.28503
 C266 C 0.67040 0.27773 0.21602
 N267 N 0.71356 0.28068 0.21337
 C268 C 0.73261 0.30594 0.18427
 C269 C 0.70803 0.33093 0.15748
 C270 C 0.64465 0.30217 0.18981
 C271 C 0.80748 0.26668 0.31337
 C272 C 0.83255 0.29166 0.33981
 C273 C 0.80350 0.35392 0.30647
 C274 C 0.77897 0.32778 0.28062
 N275 N 0.78190 0.28497 0.28402
 H276 H 0.65581 0.25663 0.23848
 H277 H 0.76697 0.30709 0.18239
 H278 H 0.72342 0.35166 0.13499
 H279 H 0.61034 0.30028 0.19260
 H280 H 0.80863 0.23260 0.31590
 H281 H 0.85331 0.27683 0.36266
 H282 H 0.80142 0.38795 0.30322
 H283 H 0.75765 0.34181 0.25795
 C284 C 0.66513 0.16578 0.33727
 C285 C 0.83427 0.16524 0.16285
 C286 C 0.83070 0.33567 0.33614
 C287 C 0.66368 0.32926 0.16059
 C288 C 0.26855 0.69401 0.18632
 H289 H 0.23419 0.69301 0.18426
 C290 C 0.29316 0.66889 0.15965
 H291 H 0.27776 0.64827 0.13707
 C292 C 0.33070 0.72194 0.21834
 H293 H 0.34528 0.74297 0.24087
 C294 C 0.35649 0.69735 0.19224
 H295 H 0.39080 0.69912 0.19517
 N296 N 0.28754 0.71927 0.21548
 C297 C 0.19270 0.73356 0.31503
 H298 H 0.19139 0.76764 0.31749
 C299 C 0.16739 0.70852 0.34129
 H300 H 0.14635 0.72334 0.36388
 C301 C 0.22170 0.67251 0.28271
 H302 H 0.24326 0.65850 0.26027
 C303 C 0.19695 0.64632 0.30837
 H304 H 0.19917 0.61230 0.30520
 Zn305 Zn 0.25179 0.75150 0.25116
 N306 N 0.21866 0.71533 0.28597
 C307 C 0.17314 0.78259 0.21884
 N308 N 0.21631 0.78499 0.21609
 C309 C 0.23550 0.81067 0.18738
 C310 C 0.21109 0.83621 0.16082
 C311 C 0.14757 0.80757 0.19287
 C312 C 0.31095 0.76743 0.31547
 C313 C 0.33663 0.79174 0.34203
 C314 C 0.30721 0.85479 0.31037
 C315 C 0.28216 0.82928 0.28442
 N316 N 0.28495 0.78643 0.28691
 H317 H 0.15839 0.76131 0.24105
 H318 H 0.26986 0.81150 0.18538
 H319 H 0.22664 0.85684 0.13836
 H320 H 0.11324 0.80568 0.19548
 H321 H 0.31204 0.73329 0.31723
 H322 H 0.35759 0.77620 0.36426
 H323 H 0.30495 0.88889 0.30774
 H324 H 0.26058 0.84385 0.26236
 C325 C 0.16935 0.66450 0.33774
 C326 C 0.33752 0.67035 0.16289
 C327 C 0.33495 0.83588 0.33924
 C328 C 0.16671 0.83478 0.16375
 N329 N 0.95587 0.04602 -0.07605
 N330 N 0.92828 0.05546 -0.10597
 N331 N 1.04544 0.07529 -0.04695
 N332 N 1.07325 0.10522 -0.05613
 N333 N 1.04530 0.04595 -0.07622
 N334 N 1.07302 0.05520 -0.10609
 N335 N 0.95603 0.07539 -0.04682
 N336 N 0.92856 0.10555 -0.05609
 C337 C 0.91105 0.09222 -0.09261
 C338 C 1.09062 0.09180 -0.09265
 N339 N 1.04570 0.04604 0.07319
 N340 N 1.07302 0.05565 0.10330
 N341 N 0.95629 0.07538 0.04405
 N342 N 0.92882 0.10549 0.05337
 N343 N 0.95632 0.04604 0.07334
 N344 N 0.92886 0.05546 0.10334
 N345 N 1.04566 0.07541 0.04393
 N346 N 1.07296 0.10574 0.05341
 Mn347 Mn 1.00086 0.07568 -0.00145
 C348 C 1.09025 0.09249 0.09005
 C349 C 0.91150 0.09215 0.08996
 N350 N 1.04512 -0.04536 -0.07607
 N351 N 1.07289 -0.05460 -0.10586
 N352 N 0.95576 -0.07469 -0.04659
 N353 N 0.92799 -0.10471 -0.05565
 N354 N 0.95570 -0.04538 -0.07591
 N355 N 0.92790 -0.05474 -0.10567
 N356 N 1.04515 -0.07465 -0.04675
 N357 N 1.07293 -0.10456 -0.05580
 Mn358 Mn 1.00049 0.00030 -0.07641
 C359 C 1.09039 -0.09116 -0.09230
 C360 C 0.91044 -0.09138 -0.09213
 N361 N 0.95616 -0.04525 0.07349
 N362 N 0.92884 -0.05472 0.10363
 N363 N 1.04541 -0.07472 0.04411
 N364 N 1.07256 -0.10508 0.05365
 N365 N 1.04556 -0.04533 0.07333
 N366 N 1.07281 -0.05496 0.10347
 N367 N 0.95602 -0.07462 0.04426
 N368 N 0.92862 -0.10482 0.05377
 Mn369 Mn 1.00094 0.00038 0.07365
 Mn370 Mn 1.00058 -0.07498 -0.00126
 Cl371 Cl 1.00072 0.00035 -0.00136
 C372 C 0.91144 -0.09149 0.09041
 C373 C 1.08990 -0.09184 0.09028
 N374 N 1.04352 0.42432 0.54524
 N375 N 1.07090 0.39418 0.55475
 N376 N 0.95390 0.45359 0.57383
 N377 N 0.92653 0.44382 0.60387
 N378 N 0.95413 0.42426 0.54456
 N379 N 0.92694 0.39381 0.55395
 N380 N 1.04330 0.45363 0.57452
 N381 N 1.07054 0.44417 0.60472
 C382 C 1.08796 0.40747 0.59147
 C383 C 0.90946 0.40693 0.59054
 N384 N 0.95437 0.57437 0.54457
 N385 N 0.92716 0.60474 0.55388
 N386 N 1.04343 0.54495 0.57451
 N387 N 1.07076 0.55434 0.60467
 N388 N 1.04373 0.57429 0.54523
 N389 N 1.07126 0.60437 0.55470
 N390 N 0.95404 0.54500 0.57383
 N391 N 0.92659 0.55467 0.60379
 Mn392 Mn 0.99866 0.49930 0.57449
 C393 C 0.90959 0.59153 0.59042
 C394 C 1.08831 0.59102 0.59139
 N395 N 0.95496 0.42446 0.45369
 N396 N 0.92708 0.39461 0.44446
 N397 N 1.04469 0.45372 0.42511
 N398 N 1.07263 0.44437 0.39550
 N399 N 1.04435 0.42438 0.45439
 N400 N 1.07204 0.39433 0.44546
 N401 N 0.95528 0.45379 0.42440
 N402 N 0.92762 0.44464 0.39446
 Mn403 Mn 0.99924 0.42404 0.49946
 C404 C 0.90988 0.40809 0.40788
 C405 C 1.08986 0.40768 0.40909
 N406 N 1.04457 0.57444 0.45440
 N407 N 1.07219 0.60461 0.44537
 N408 N 0.95540 0.54511 0.42439
 N409 N 0.92783 0.55439 0.39442
 N410 N 0.95517 0.57437 0.45372
 N411 N 0.92746 0.60430 0.44449
 N412 N 1.04483 0.54514 0.42510
 N413 N 1.07263 0.55465 0.39538
 Mn414 Mn 0.99946 0.57468 0.49948
 Mn415 Mn 1.00006 0.49943 0.42441
 Cl416 Cl 0.99935 0.49936 0.49946
 C417 C 1.08989 0.59138 0.40893
 C418 C 0.91024 0.59095 0.40787
 N419 N 0.57421 0.04458 0.54561
 N420 N 0.60422 0.07246 0.55435
 N421 N 0.54454 -0.04411 0.57517
 N422 N 0.55352 -0.07201 0.60476
 N423 N 0.57406 -0.04419 0.54590
 N424 N 0.60389 -0.07214 0.55477
 N425 N 0.54470 0.04470 0.57490
 N426 N 0.55388 0.07268 0.60437
 C427 C 0.59065 0.09013 0.59064
 C428 C 0.59019 -0.08962 0.59114
 N429 N 0.42327 -0.04417 0.54564
 N430 N 0.39365 -0.07251 0.55417
 N431 N 0.45286 0.04466 0.57470
 N432 N 0.44392 0.07280 0.60406
 N433 N 0.42334 0.04456 0.54542
 N434 N 0.39355 0.07261 0.55406
 N435 N 0.45276 -0.04408 0.57495
 N436 N 0.44398 -0.07238 0.60423
 Mn437 Mn 0.49870 0.00030 0.57532
 C438 C 0.40747 -0.09019 0.59037
 C439 C 0.40729 0.09034 0.59027
 N440 N 0.57406 -0.04443 0.45527
 N441 N 0.60419 -0.07203 0.44640
 N442 N 0.54471 0.04421 0.42565
 N443 N 0.55405 0.07183 0.39590
 N444 N 0.57417 0.04426 0.45498
 N445 N 0.60431 0.07191 0.44599
 N446 N 0.54461 -0.04454 0.42591
 N447 N 0.55398 -0.07224 0.39627
 Mn448 Mn 0.57446 0.00005 0.50044
 C449 C 0.59075 -0.08956 0.41000
 C450 C 0.59083 0.08928 0.40954
 N451 N 0.42330 0.04432 0.45472
 N452 N 0.39317 0.07186 0.44556
 N453 N 0.45271 -0.04456 0.42570
 N454 N 0.44327 -0.07211 0.39591
 N455 N 0.42315 -0.04445 0.45495
 N456 N 0.39286 -0.07191 0.44583
 N457 N 0.45283 0.04425 0.42545
 N458 N 0.44353 0.07176 0.39558
 Mn459 Mn 0.42291 0.00006 0.50020
 Mn460 Mn 0.49872 -0.00016 0.42530
 Cl461 Cl 0.49869 0.00007 0.50030
 C462 C 0.40670 0.08917 0.40906
 C463 C 0.40632 -0.08937 0.40940
 N464 N 0.57600 0.54485 0.04592
 N465 N 0.60574 0.57310 0.05439
 N466 N 0.54674 0.45606 0.07539
 N467 N 0.55565 0.42775 0.10459
 N468 N 0.57611 0.45614 0.04597
 N469 N 0.60579 0.42789 0.05434
 N470 N 0.54662 0.54481 0.07534
 N471 N 0.55559 0.57302 0.10462
 C472 C 0.59210 0.59076 0.09065
 C473 C 0.59213 0.41010 0.09056
 N474 N 0.42531 0.45570 0.04684
 N475 N 0.39552 0.42764 0.05579
 N476 N 0.45483 0.54459 0.07591
 N477 N 0.44592 0.57258 0.10543
 N478 N 0.42517 0.54448 0.04678
 N479 N 0.39529 0.57238 0.05568
 N480 N 0.45497 0.45579 0.07597
 N481 N 0.44614 0.42779 0.10554
 Mn482 Mn 0.50081 0.50031 0.07604
 C483 C 0.40941 0.41011 0.09204
 C484 C 0.40912 0.59003 0.09191
 N485 N 0.57587 0.45608 -0.04467
 N486 N 0.60618 0.42879 -0.05398
 N487 N 0.54608 0.54473 -0.07389
 N488 N 0.55530 0.57227 -0.10377
 N489 N 0.57571 0.54482 -0.04472
 N490 N 0.60585 0.57241 -0.05397
 N491 N 0.54622 0.45594 -0.07382
 N492 N 0.55562 0.42854 -0.10375
 Mn493 Mn 0.57627 0.50047 0.00064
 C494 C 0.59264 0.41141 -0.09043
 C495 C 0.59220 0.58973 -0.09040
 N496 N 0.42485 0.54436 -0.04390
 N497 N 0.39475 0.57204 -0.05269
 N498 N 0.45432 0.45569 -0.07327
 N499 N 0.44493 0.42797 -0.10290
 N500 N 0.42494 0.45566 -0.04384
 N501 N 0.39482 0.42793 -0.05267
 N502 N 0.45423 0.54444 -0.07332
 N503 N 0.44487 0.57218 -0.10293
 Mn504 Mn 0.42471 0.50005 0.00146
 Mn505 Mn 0.50019 0.50020 -0.07395
 Cl506 Cl 0.50049 0.50026 0.00104
 C507 C 0.40818 0.58956 -0.08912
 C508 C 0.40822 0.41048 -0.08911
 C509 C 1.14112 0.13945 0.13699
 C510 C 1.11849 0.11777 0.11518
 C511 C 1.13943 0.63789 0.63796
 C512 C 1.11669 0.61612 0.61642
 C513 C 0.63706 0.14315 0.63549
 C514 C 0.61549 0.11950 0.61474
 C515 C 0.63802 0.64404 0.13546
 C516 C 0.61672 0.62032 0.11461
 C517 C 0.86053 -0.13840 0.13724
 C518 C 0.88317 -0.11667 0.11554
 C519 C 0.85873 0.35947 0.63725
 C520 C 0.88129 0.38143 0.61558
 C521 C 0.36191 -0.14381 0.63515
 C522 C 0.38307 -0.11993 0.61433
 C523 C 0.36373 0.35696 0.13744
 C524 C 0.38493 0.38066 0.11639
 C525 C 0.85900 0.13878 -0.13864
 C526 C 0.88222 0.11723 -0.11734
 C527 C 0.85802 0.63743 0.36212
 C528 C 0.88131 0.61581 0.38322
 C529 C 0.35965 0.14038 0.36290
 C530 C 0.38154 0.11765 0.38431
 C531 C 0.36094 0.64060 -0.13502
 C532 C 0.38291 0.61802 -0.11365
 C533 C 1.14266 -0.13759 -0.13793
 C534 C 1.11937 -0.11601 -0.11683
 C535 C 1.14258 0.36122 0.36379
 C536 C 1.11905 0.38275 0.38474
 C537 C 0.63828 -0.14050 0.36424
 C538 C 0.61611 -0.11795 0.38546
 C539 C 0.63992 0.36068 -0.13683
 C540 C 0.61795 0.38319 -0.11532
 C541 C 1.14301 0.13823 -0.13843
 C542 C 1.11966 0.11666 -0.11728
 C543 C 1.14234 0.63816 0.36341
 C544 C 1.11894 0.61648 0.38445
 C545 C 0.63820 0.14023 0.36352
 C546 C 0.61613 0.11767 0.38487
 C547 C 0.63925 0.64087 -0.13675
 C548 C 0.61735 0.61819 -0.11526
 C549 C 0.85776 -0.13783 -0.13765
 C550 C 0.88127 -0.11630 -0.11661
 C551 C 0.85752 0.36187 0.36198
 C552 C 0.88086 0.38335 0.38319
 C553 C 0.35910 -0.14051 0.36316
 C554 C 0.38101 -0.11782 0.38464
 C555 C 0.36094 0.35924 -0.13495
 C556 C 0.38293 0.38193 -0.11365
 C557 C 1.14070 -0.13890 0.13716
 C558 C 1.11809 -0.11715 0.11542
 C559 C 1.13898 0.36063 0.63816
 C560 C 1.11628 0.38235 0.61655
 C561 C 0.63611 -0.14262 0.63634
 C562 C 0.61479 -0.11899 0.61540
 C563 C 0.63787 0.35654 0.13506
 C564 C 0.61664 0.38040 0.11436
 C565 C 0.86034 0.13892 0.13647
 C566 C 0.88309 0.11725 0.11490
 C567 C 0.85875 0.63884 0.63692
 C568 C 0.88136 0.61694 0.61537
 C569 C 0.36144 0.14333 0.63541
 C570 C 0.38269 0.11973 0.61441
 C571 C 0.36335 0.64315 0.13716
 C572 C 0.38458 0.61946 0.11618
   
