data_POSCAR
  _audit_creation_date              2014-09-24
  _audit_creation_method            'ToBaCCo'
  _symmetry_space_group_name_H-M    'P1'
  _symmetry_Int_Tables_number       1
  _symmetry_cell_setting            triclinic
  loop_
  _symmetry_equiv_pos_as_xyz
 x,y,z
_cell_length_a 24.6880
_cell_length_b 25.2818
_cell_length_c 25.0567
_cell_angle_alpha 89.805200
_cell_angle_beta 90.460800
_cell_angle_gamma 90.176800
loop_
  _atom_site_label
  _atom_site_type_symbol
  _atom_site_fract_x
  _atom_site_fract_y
  _atom_site_fract_z
C1 C 0.18107 0.17882 0.26071
 C2 C 0.15997 0.22257 0.23233
 C3 C 0.17887 0.23657 0.18129
 C4 C 0.21878 0.20479 0.15792
 C5 C 0.24009 0.16010 0.18438
 C6 C 0.22205 0.14877 0.23643
 H7 H 0.12918 0.24594 0.25075
 H8 H 0.23523 0.21659 0.11983
 H9 H 0.23628 0.11313 0.25586
 C10 C -0.17749 0.80481 0.27075
 C11 C -0.16214 0.75656 0.24721
 C12 C -0.19013 0.73644 0.20222
 C13 C -0.23209 0.76692 0.17976
 C14 C -0.24334 0.81764 0.19860
 C15 C -0.21744 0.83568 0.24494
 H16 H -0.12947 0.73419 0.26510
 H17 H -0.25490 0.75241 0.14584
 H18 H -0.22723 0.87475 0.25958
 C19 C -0.20192 0.21828 -0.28014
 C20 C -0.24165 0.18736 -0.25476
 C21 C -0.25818 0.19822 -0.20250
 C22 C -0.23599 0.24268 -0.17619
 C23 C -0.19898 0.27715 -0.20177
 C24 C -0.18354 0.26438 -0.25430
 H25 H -0.25764 0.15270 -0.27433
 H26 H -0.24714 0.24903 -0.13528
 H27 H -0.15736 0.29040 -0.27631
 C28 C 0.17645 0.80969 -0.24980
 C29 C 0.15621 0.76962 -0.21647
 C30 C 0.18756 0.74957 -0.17405
 C31 C 0.23808 0.77275 -0.16241
 C32 C 0.25905 0.81373 -0.19493
 C33 C 0.22829 0.83040 -0.23948
 H34 H 0.11630 0.75315 -0.22419
 H35 H 0.26031 0.75882 -0.12778
 H36 H 0.24327 0.86215 -0.26415
 C37 C 0.21260 1.18374 0.73056
 C38 C 0.18112 1.22418 0.75408
 C39 C 0.19558 1.24573 0.80365
 C40 C 0.24197 1.22779 0.83016
 C41 C 0.27375 1.18791 0.80810
 C42 C 0.25936 1.16637 0.75847
 H43 H 0.14328 1.23693 0.73630
 H44 H 0.25169 1.24282 0.86960
 H45 H 0.28402 1.13499 0.74265
 C46 C 0.81818 0.82307 0.76317
 C47 C 0.77427 0.83967 0.79459
 C48 C 0.75372 0.80737 0.83510
 C49 C 0.77735 0.75825 0.84557
 C50 C 0.82127 0.73985 0.81495
 C51 C 0.83870 0.77165 0.77201
 H52 H 0.75740 0.87888 0.79008
 H53 H 0.76269 0.73602 0.87952
 H54 H 0.86751 0.75564 0.74443
 C55 C 0.19895 0.81778 1.25521
 C56 C 0.17162 0.77226 1.23699
 C57 C 0.19207 0.74314 1.19436
 C58 C 0.24245 0.75612 1.17308
 C59 C 0.27041 0.80132 1.19015
 C60 C 0.24735 0.83297 1.22989
 H61 H 0.13263 0.76142 1.25326
 H62 H 0.25844 0.73241 1.14090
 H63 H 0.26673 0.86937 1.24134
 C64 C 0.80301 1.18641 1.26158
 C65 C 0.82757 1.23431 1.24662
 C66 C 0.80510 1.26570 1.20630
 C67 C 0.75391 1.25328 1.18551
 C68 C 0.72746 1.20644 1.20091
 C69 C 0.75330 1.17243 1.23751
 H70 H 0.86729 1.24476 1.26212
 H71 H 0.73656 1.27803 1.15443
 H72 H 0.73544 1.13466 1.24640
 O73 O 0.54551 0.93094 0.92685
 O74 O 0.45692 0.94380 1.10400
 O75 O 0.61838 0.99283 1.05755
 O76 O 0.44765 0.92463 0.93643
 O77 O 0.55792 0.94821 1.10259
 O78 O 0.47209 0.96792 0.86612
 O79 O 0.44052 0.90670 1.02903
 O80 O 0.61398 0.97328 0.96204
 C81 C 0.59494 0.93265 0.93882
 C82 C 0.43883 0.90551 1.07827
 C83 C 0.60587 0.95536 1.08892
 C84 C 0.44001 0.93307 0.88718
 O85 O 0.47370 1.05573 0.91583
 O86 O 0.55320 1.05029 1.10993
 O87 O 0.56788 1.07328 0.94735
 O88 O 0.39464 1.00284 1.04703
 O89 O 0.45166 1.04566 1.09937
 O90 O 0.56489 1.01983 0.88546
 O91 O 0.40326 1.02181 0.95158
 O92 O 0.56993 1.08860 1.03646
 Co93 Co 0.50794 0.99279 0.92467
 Co94 Co 0.50540 0.99730 1.09451
 Co95 Co 0.58649 1.02941 1.00090
 Co96 Co 0.42874 0.96703 0.99207
 O97 O 0.50879 0.99841 1.00652
 C98 C 0.42426 1.05775 0.92424
 C99 C 0.56965 1.08991 1.08545
 C100 C 0.58323 1.06228 0.90207
 C101 C 0.40433 1.03683 1.08312
 O102 O 0.05280 0.44465 0.09982
 O103 O 0.08364 0.53228 -0.06792
 O104 O 0.01796 0.36502 -0.04635
 O105 O 0.02188 0.60747 0.05013
 O106 O 0.06627 0.43444 -0.07179
 O107 O 0.06258 0.54557 0.09794
 O108 O 0.03490 0.59952 -0.04440
 O109 O 0.06914 0.41298 0.02179
 C110 C 0.07865 0.41367 0.07076
 C111 C 0.07876 0.58119 -0.06179
 C112 C 0.05494 0.38523 -0.07826
 C113 C 0.05902 0.59269 0.08238
 O114 O -0.04029 0.55400 0.10917
 O115 O -0.03567 0.45557 -0.10435
 O116 O -0.02788 0.38997 0.05183
 O117 O -0.07067 0.55842 -0.05242
 O118 O -0.01244 0.55092 -0.11101
 O119 O -0.05277 0.45615 0.10198
 O120 O -0.08295 0.57391 0.03781
 O121 O -0.06806 0.41954 -0.03461
 Co122 Co 0.00545 0.49977 0.09290
 Co123 Co 0.02285 0.49365 -0.08009
 Co124 Co 0.00075 0.42204 -0.00731
 Co125 Co -0.02229 0.57861 -0.00264
 O126 O 0.00032 0.50094 0.00516
 C127 C -0.08037 0.57458 0.08702
 C128 C -0.07271 0.42945 -0.08276
 C129 C -0.05610 0.40850 0.08899
 C130 C -0.05817 0.56661 -0.09865
 O131 O 1.10278 0.03871 0.45927
 O132 O 0.89166 0.05578 0.55599
 O133 O 0.94393 0.01577 0.39516
 O134 O 1.05701 0.07901 0.56711
 O135 O 0.90220 0.05701 0.45771
 O136 O 1.11462 0.02020 0.55692
 O137 O 0.96516 0.09293 0.58212
 O138 O 1.02915 0.06122 0.41985
 C139 C 1.07789 0.06983 0.42859
 C140 C 0.91524 0.09385 0.57730
 C141 C 0.91151 0.05070 0.40942
 C142 C 1.10437 0.06580 0.57117
 O143 O 1.07100 -0.07304 0.54502
 O144 O 0.89875 -0.04846 0.45913
 O145 O 1.04254 -0.02643 0.37398
 O146 O 0.95120 -0.00702 0.61963
 O147 O 0.89667 -0.04488 0.56028
 O148 O 1.07183 -0.06339 0.44758
 O149 O 1.04832 -0.02309 0.61196
 O150 O 0.97748 -0.07386 0.43369
 Co151 Co 1.08137 -0.01658 0.50248
 Co152 Co 0.90664 0.00465 0.50773
 Co153 Co 1.00451 -0.00548 0.43130
 Co154 Co 1.00558 0.03290 0.58853
 O155 O 0.99534 0.00579 0.51049
 C156 C 1.06568 -0.06669 0.59421
 C157 C 0.92760 -0.08155 0.43560
 C158 C 1.07919 -0.05562 0.39799
 C159 C 0.91392 -0.03970 0.60737
 C160 C 1.10600 0.17547 0.32542
 C161 C 1.15963 0.16365 0.31108
 C162 C 1.18954 0.13276 0.34839
 C163 C 1.16380 0.10733 0.39156
 C164 C 1.10731 0.11120 0.39829
 C165 C 1.08038 0.14921 0.36712
 C166 C 1.02739 0.14759 0.33814
 C167 C 1.05518 0.17599 0.29243
 H168 H 1.23237 0.12576 0.34311
 H169 H 1.18729 0.08021 0.41592
 H170 H 0.99665 0.17250 0.35797
 H171 H 1.01400 0.10691 0.32756
 H172 H 1.03952 0.21669 0.28581
 H173 H 1.05836 0.15151 0.25580
 C174 C 0.90105 -0.18820 0.33221
 C175 C 0.84666 -0.17769 0.31892
 C176 C 0.81710 -0.14739 0.35587
 C177 C 0.84323 -0.12185 0.39858
 C178 C 0.90013 -0.12382 0.40455
 C179 C 0.92747 -0.16089 0.37318
 C180 C 0.97883 -0.15701 0.34251
 C181 C 0.95019 -0.18668 0.29779
 H182 H 0.77394 -0.14146 0.35075
 H183 H 0.81919 -0.09606 0.42334
 H184 H 1.01170 -0.18051 0.36138
 H185 H 0.98965 -0.11577 0.33145
 H186 H 0.96712 -0.22677 0.29097
 H187 H 0.94420 -0.16247 0.26109
 C188 C 0.87719 0.21219 0.66045
 C189 C 0.82250 0.20083 0.67191
 C190 C 0.79610 0.16503 0.63681
 C191 C 0.82596 0.13388 0.60115
 C192 C 0.88294 0.13743 0.59985
 C193 C 0.90678 0.18043 0.62613
 C194 C 0.95691 0.18387 0.65944
 C195 C 0.92520 0.21895 0.69680
 H196 H 0.75291 0.15816 0.63905
 H197 H 0.80480 0.10345 0.57883
 H198 H 0.99021 0.20502 0.63864
 H199 H 0.96825 0.14554 0.67808
 H200 H 0.94046 0.26028 0.69681
 H201 H 0.91904 0.20114 0.73696
 C202 C 1.15897 -0.16723 0.65604
 C203 C 1.14361 -0.16850 0.70981
 C204 C 1.09377 -0.14423 0.72232
 C205 C 1.06676 -0.11205 0.68429
 C206 C 1.08619 -0.10743 0.63160
 C207 C 1.12987 -0.13956 0.61781
 C208 C 1.17922 -0.12933 0.58526
 C209 C 1.21119 -0.16037 0.62711
 H210 H 1.07903 -0.14497 0.76293
 H211 H 1.03279 -0.08843 0.69707
 H212 H 1.19033 -0.08670 0.58394
 H213 H 1.17724 -0.14936 0.54587
 H214 H 1.24133 -0.13510 0.64798
 H215 H 1.22704 -0.19849 0.61185
 C216 C 0.31303 1.09372 1.18827
 C217 C 0.27740 1.12616 1.15883
 C218 C 0.27940 1.12133 1.10243
 C219 C 0.31925 1.09026 1.07777
 C220 C 0.35908 1.06446 1.10837
 C221 C 0.35320 1.06450 1.16373
 C222 C 0.39340 1.07481 1.20714
 C223 C 0.34962 1.10697 1.23426
 H224 H 0.25046 1.14138 1.07688
 H225 H 0.32079 1.08901 1.03485
 H226 H 0.42832 1.09918 1.19366
 H227 H 0.40425 1.03816 1.22935
 H228 H 0.35915 1.14993 1.23652
 H229 H 0.33560 1.08885 1.27223
 C230 C 0.32325 0.89224 0.79965
 C231 C 0.31187 0.84056 0.81778
 C232 C 0.35238 0.81603 0.84941
 C233 C 0.39708 0.84524 0.86883
 C234 C 0.40350 0.89912 0.85565
 C235 C 0.36812 0.92060 0.81774
 C236 C 0.33771 0.97150 0.81876
 C237 C 0.28859 0.94070 0.79903
 H238 H 0.34843 0.77523 0.86186
 H239 H 0.42471 0.82658 0.89687
 H240 H 0.35324 1.00041 0.78901
 H241 H 0.33289 0.98736 0.85979
 H242 H 0.27585 0.95221 0.75796
 H243 H 0.25528 0.93869 0.82860
 C244 C 0.67060 0.83365 1.14812
 C245 C 0.72023 0.85248 1.16739
 C246 C 0.73630 0.90390 1.15169
 C247 C 0.70037 0.93705 1.12296
 C248 C 0.64745 0.91961 1.11075
 C249 C 0.63481 0.86662 1.12149
 C250 C 0.58672 0.84179 1.14748
 C251 C 0.62616 0.80547 1.17662
 H252 H 0.77592 0.91888 1.16286
 H253 H 0.71268 0.97713 1.11353
 H254 H 0.56034 0.82067 1.11832
 H255 H 0.56526 0.86923 1.17464
 H256 H 0.62261 0.76345 1.16411
 H257 H 0.62754 0.81194 1.22049
 C258 C 0.67169 1.17927 0.86796
 C259 C 0.70350 1.16158 0.82559
 C260 C 0.69854 1.10719 0.81219
 C261 C 0.65854 1.07480 0.83580
 C262 C 0.62332 1.09552 0.87425
 C263 C 0.63326 1.14710 0.89189
 C264 C 0.59485 1.19192 0.89902
 C265 C 0.63693 1.22721 0.87264
 H266 H 0.72485 1.08932 0.78312
 H267 H 0.65520 1.03375 0.82397
 H268 H 0.58859 1.20128 0.94184
 H269 H 0.55710 1.18726 0.87496
 H270 H 0.65465 1.25699 0.90030
 H271 H 0.62372 1.24295 0.83315
 C272 C 0.14641 0.33210 0.17830
 C273 C 0.15842 0.28455 0.15206
 C274 C 0.15457 0.28554 0.09552
 C275 C 0.13358 0.32991 0.06791
 C276 C 0.11582 0.37482 0.09593
 C277 C 0.12636 0.37588 0.15099
 C278 C 0.09187 0.39252 0.19651
 C279 C 0.11269 0.34428 0.22618
 H280 H 0.16424 0.25075 0.07248
 H281 H 0.12710 0.32710 0.02520
 H282 H 0.04775 0.39011 0.18749
 H283 H 0.10584 0.43044 0.21431
 H284 H 0.07953 0.31530 0.23312
 H285 H 0.13776 0.35432 0.26179
 C286 C -0.13463 0.35672 -0.19783
 C287 C -0.17501 0.32509 -0.17388
 C288 C -0.19078 0.34098 -0.12182
 C289 C -0.16078 0.37921 -0.09282
 C290 C -0.11563 0.40448 -0.11566
 C291 C -0.10676 0.39584 -0.16989
 C292 C -0.05491 0.38579 -0.19806
 C293 C -0.08443 0.34239 -0.22784
 H294 H -0.22384 0.32216 -0.10124
 H295 H -0.17049 0.38596 -0.05132
 H296 H -0.02230 0.37088 -0.17124
 H297 H -0.04308 0.41958 -0.22401
 H298 H -0.06946 0.30222 -0.21734
 H299 H -0.08782 0.35107 -0.27126
 C300 C 0.15395 0.65651 -0.16698
 C301 C 0.16643 0.70462 -0.14219
 C302 C 0.15143 0.71071 -0.08846
 C303 C 0.12666 0.66866 -0.06039
 C304 C 0.11789 0.61901 -0.08483
 C305 C 0.13052 0.61468 -0.13897
 C306 C 0.16553 0.57500 -0.16588
 C307 C 0.19070 0.62056 -0.19667
 H308 H 0.15761 0.74829 -0.06867
 H309 H 0.11330 0.67522 -0.01987
 H310 H 0.14161 0.54770 -0.19161
 H311 H 0.19425 0.55530 -0.13781
 H312 H 0.18097 0.61968 -0.24005
 H313 H 0.23416 0.62727 -0.18672
 C314 C -0.18651 0.67506 0.12270
 C315 C -0.17410 0.68549 0.17653
 C316 C -0.14244 0.64701 0.20346
 C317 C -0.11557 0.60711 0.17478
 C318 C -0.12024 0.60436 0.11868
 C319 C -0.15998 0.63594 0.09450
 C320 C -0.15944 0.66838 0.04459
 C321 C -0.18919 0.71079 0.07510
 H322 H -0.13507 0.64943 0.24596
 H323 H -0.08761 0.58154 0.19604
 H324 H -0.18400 0.65044 0.01192
 H325 H -0.11844 0.68192 0.03355
 H326 H -0.23134 0.71662 0.06033
 H327 H -0.16519 0.74773 0.08050
 C328 C 1.21272 0.10739 0.66864
 C329 C 1.19586 0.15893 0.68225
 C330 C 1.15897 0.18338 0.64622
 C331 C 1.13303 0.15414 0.60570
 C332 C 1.14366 0.09988 0.59937
 C333 C 1.18711 0.07864 0.62832
 C334 C 1.19078 0.02783 0.65853
 C335 C 1.21859 0.05882 0.70273
 H336 H 1.14770 0.22443 0.65042
 H337 H 1.10135 0.17299 0.58235
 H338 H 1.21795 -0.00102 0.63888
 H339 H 1.15048 0.01190 0.67010
 H340 H 1.26163 0.04724 0.70860
 H341 H 1.19444 0.06083 0.73995
 C342 C 0.81807 -0.09430 0.70985
 C343 C 0.84313 -0.14179 0.72623
 C344 C 0.89638 -0.15046 0.70681
 C345 C 0.91947 -0.11680 0.66851
 C346 C 0.89105 -0.07281 0.64933
 C347 C 0.84150 -0.06077 0.67246
 C348 C 0.78867 -0.04820 0.64639
 C349 C 0.76268 -0.08498 0.68690
 H350 H 0.92112 -0.18299 0.72054
 H351 H 0.95856 -0.12652 0.65211
 H352 H 0.78585 -0.06300 0.60472
 H353 H 0.77728 -0.00605 0.65174
 H354 H 0.74478 -0.12121 0.66880
 H355 H 0.73583 -0.06379 0.71503
 C356 C 1.18304 -0.09598 0.29708
 C357 C 1.17710 -0.15132 0.29642
 C358 C 1.14731 -0.17447 0.33860
 C359 C 1.11913 -0.14277 0.37500
 C360 C 1.11736 -0.08768 0.36792
 C361 C 1.15267 -0.06499 0.33112
 C362 C 1.14409 -0.02264 0.29052
 C363 C 1.17730 -0.05637 0.25280
 H364 H 1.14473 -0.21702 0.34295
 H365 H 1.09526 -0.16157 0.40581
 H366 H 1.16455 0.01497 0.30182
 H367 H 1.10098 -0.01875 0.27799
 H368 H 1.21673 -0.03791 0.24220
 H369 H 1.15347 -0.07191 0.21838
 C370 C 0.86654 0.17170 0.33529
 C371 C 0.83070 0.15180 0.29642
 C372 C 0.82719 0.09601 0.29151
 C373 C 0.85532 0.06261 0.32717
 C374 C 0.88530 0.08423 0.36973
 C375 C 0.89204 0.13880 0.37162
 C376 C 0.88556 0.17656 0.41661
 C377 C 0.85754 0.21308 0.37682
 H378 H 0.80372 0.07784 0.25983
 H379 H 0.85156 0.02011 0.32304
 H380 H 0.92509 0.19219 0.43121
 H381 H 0.85810 0.16133 0.44814
 H382 H 0.88097 0.24979 0.36861
 H383 H 0.81388 0.21927 0.38538
 C384 C 0.11719 0.26220 -0.13712
 C385 C 0.15922 0.28220 -0.16836
 C386 C 0.17094 0.33660 -0.16476
 C387 C 0.13699 0.37048 -0.13549
 C388 C 0.09123 0.35031 -0.10861
 C389 C 0.08400 0.29538 -0.10806
 C390 C 0.03490 0.26265 -0.11965
 C391 C 0.07129 0.22643 -0.15175
 H392 H 0.20551 0.35299 -0.18548
 H393 H 0.14603 0.41241 -0.13476
 H394 H 0.00436 0.28372 -0.14450
 H395 H 0.01869 0.24353 -0.08308
 H396 H 0.06200 0.22687 -0.19525
 H397 H 0.07583 0.18645 -0.13373
 C398 C -0.10921 0.29021 0.16114
 C399 C -0.16034 0.30458 0.17913
 C400 C -0.17760 0.35647 0.16651
 C401 C -0.14340 0.39125 0.13741
 C402 C -0.09239 0.37394 0.11878
 C403 C -0.07757 0.32269 0.13175
 C404 C -0.03365 0.28303 0.12582
 C405 C -0.06990 0.24561 0.15869
 H406 H -0.21700 0.37006 0.17917
 H407 H -0.15718 0.43100 0.12868
 H408 H 0.00421 0.29507 0.14691
 H409 H -0.02858 0.27044 0.08371
 H410 H -0.05253 0.23553 0.19850
 H411 H -0.08604 0.21160 0.13543
 C412 C -0.17204 0.65808 -0.13219
 C413 C -0.15038 0.69301 -0.17017
 C414 C -0.09642 0.68244 -0.18691
 C415 C -0.06736 0.63847 -0.16727
 C416 C -0.09107 0.60357 -0.13050
 C417 C -0.14320 0.61507 -0.11282
 C418 C -0.19191 0.58009 -0.11307
 C419 C -0.22363 0.62696 -0.13440
 H420 H -0.07466 0.70907 -0.21286
 H421 H -0.02555 0.63329 -0.17892
 H422 H -0.20386 0.56821 -0.07204
 H423 H -0.18870 0.54703 -0.14204
 H424 H -0.25416 0.64163 -0.10568
 H425 H -0.23890 0.62131 -0.17588
 C426 C 0.11262 0.72047 0.13761
 C427 C 0.15843 0.70399 0.16638
 C428 C 0.17724 0.65220 0.15821
 C429 C 0.14612 0.61606 0.12838
 C430 C 0.09655 0.63175 0.10493
 C431 C 0.08251 0.68516 0.10733
 C432 C 0.03009 0.71026 0.12195
 C433 C 0.06297 0.74886 0.15555
 H434 H 0.21483 0.63923 0.17654
 H435 H 0.15970 0.57548 0.12549
 H436 H 0.00375 0.68366 0.14595
 H437 H 0.00989 0.72920 0.08702
 H438 H 0.05533 0.74447 0.19899
 H439 H 0.06137 0.79013 0.14020
 C440 C 0.37062 1.16397 0.83144
 C441 C 0.31497 1.16220 0.84208
 C442 C 0.29805 1.13403 0.88744
 C443 C 0.33467 1.10251 0.91623
 C444 C 0.38964 1.09976 0.90163
 C445 C 0.40726 1.13375 0.86098
 C446 C 0.44108 1.12271 0.81323
 C447 C 0.40109 1.15575 0.78092
 H448 H 0.25557 1.13287 0.89795
 H449 H 0.31873 1.07682 0.94686
 H450 H 0.44086 1.08015 0.80212
 H451 H 0.48193 1.14109 0.81641
 H452 H 0.37834 1.13210 0.75088
 H453 H 0.41898 1.19316 0.76557
 C454 C 0.36747 0.83502 1.18870
 C455 C 0.32058 0.81720 1.16218
 C456 C 0.32305 0.81412 1.10589
 C457 C 0.36645 0.83689 1.07790
 C458 C 0.40799 0.86386 1.10560
 C459 C 0.41010 0.85730 1.16110
 C460 C 0.42571 0.89242 1.20645
 C461 C 0.37903 0.86780 1.23717
 H462 H 0.28915 0.79875 1.08300
 H463 H 0.36384 0.83879 1.03477
 H464 H 0.41905 0.93506 1.19787
 H465 H 0.46614 0.88232 1.22339
 H466 H 0.34804 0.89795 1.24632
 H467 H 0.39268 0.84344 1.27171
 C468 C 0.63231 1.16717 1.19737
 C469 C 0.67770 1.18945 1.17215
 C470 C 0.67568 1.19228 1.11580
 C471 C 0.63542 1.16492 1.08681
 C472 C 0.59656 1.13380 1.11360
 C473 C 0.59272 1.14067 1.16877
 C474 C 0.57843 1.10559 1.21446
 C475 C 0.62163 1.13505 1.24659
 H476 H 0.70829 1.21069 1.09378
 H477 H 0.63889 1.16320 1.04378
 H478 H 0.58893 1.06346 1.20751
 H479 H 0.53663 1.11269 1.22889
 H480 H 0.65459 1.10802 1.25903
 H481 H 0.60442 1.15930 1.27922
 C482 C 0.72356 0.85612 0.91599
 C483 C 0.71074 0.82753 0.86994
 C484 C 0.65578 0.82365 0.85501
 C485 C 0.61636 0.85424 0.88120
 C486 C 0.63168 0.88994 0.92195
 C487 C 0.68511 0.88694 0.94111
 C488 C 0.72565 0.92910 0.95406
 C489 C 0.76780 0.89509 0.92667
 H490 H 0.64403 0.80052 0.82048
 H491 H 0.57518 0.85377 0.86598
 H492 H 0.73264 0.93290 0.99777
 H493 H 0.71763 0.96690 0.93262
 H494 H 0.79889 0.87914 0.95466
 H495 H 0.78402 0.91331 0.88961
   
