data_POSCAR
  _audit_creation_date              2014-09-24
  _audit_creation_method            'ToBaCCo'
  _symmetry_space_group_name_H-M    'P1'
  _symmetry_Int_Tables_number       1
  _symmetry_cell_setting            triclinic
  loop_
  _symmetry_equiv_pos_as_xyz
 x,y,z
_cell_length_a 45.1103
_cell_length_b 42.4658
_cell_length_c 43.5798
_cell_angle_alpha 90.173300
_cell_angle_beta 90.286200
_cell_angle_gamma 85.841700
loop_
  _atom_site_label
  _atom_site_type_symbol
  _atom_site_fract_x
  _atom_site_fract_y
  _atom_site_fract_z
C1 C 0.59798 0.62298 0.64524
 C2 C 0.57640 0.64848 0.64393
 C3 C 0.57949 0.67353 0.62350
 C4 C 0.60413 0.67278 0.60389
 C5 C 0.62557 0.64717 0.60449
 C6 C 0.62265 0.62232 0.62547
 C7 C 0.59540 0.59840 0.66628
 C8 C 0.61755 0.57317 0.66853
 C9 C 0.64191 0.57273 0.64821
 C10 C 0.64439 0.59680 0.62662
 C11 C 0.66825 0.59564 0.60602
 C12 C 0.67091 0.61991 0.58458
 C13 C 0.64971 0.64585 0.58426
 H14 H 0.55744 0.64918 0.65917
 H15 H 0.60631 0.69195 0.58787
 H16 H 0.57682 0.60006 0.68198
 H17 H 0.65858 0.55304 0.64823
 H18 H 0.68487 0.57588 0.60671
 H19 H 0.65159 0.66459 0.56770
 C20 C 0.88438 0.37442 0.16016
 C21 C 0.90759 0.35062 0.16080
 C22 C 0.91104 0.32795 0.13703
 C23 C 0.89011 0.32950 0.11272
 C24 C 0.86636 0.35275 0.11222
 C25 C 0.86357 0.37543 0.13591
 C26 C 0.88191 0.39751 0.18327
 C27 C 0.85869 0.42140 0.18266
 C28 C 0.83766 0.42196 0.15875
 C29 C 0.84006 0.39926 0.13526
 C30 C 0.81948 0.40015 0.11101
 C31 C 0.82194 0.37741 0.08750
 C32 C 0.84536 0.35373 0.08830
 H33 H 0.92380 0.35092 0.17919
 H34 H 0.89144 0.31189 0.09466
 H35 H 0.89798 0.39686 0.20189
 H36 H 0.81983 0.44050 0.15810
 H37 H 0.80134 0.41836 0.11052
 H38 H 0.84747 0.33638 0.06998
 C39 C 0.41354 0.11933 -0.13983
 C40 C 0.43456 0.14198 -0.13726
 C41 C 0.43348 0.16360 -0.11272
 C42 C 0.41101 0.16242 -0.09060
 C43 C 0.38971 0.14004 -0.09295
 C44 C 0.39100 0.11839 -0.11766
 C45 C 0.41462 0.09784 -0.16439
 C46 C 0.39309 0.07544 -0.16768
 C47 C 0.37076 0.07477 -0.14508
 C48 C 0.36970 0.09584 -0.12022
 C49 C 0.34758 0.09468 -0.09784
 C50 C 0.34611 0.11618 -0.07325
 C51 C 0.36712 0.13894 -0.07103
 H52 H 0.45205 0.14259 -0.15419
 H53 H 0.40989 0.17922 -0.07179
 H54 H 0.43152 0.09983 -0.18169
 H55 H 0.35466 0.05707 -0.14595
 H56 H 0.33114 0.07736 -0.09975
 H57 H 0.36610 0.15546 -0.05198
 C58 C 0.09718 0.87178 0.34206
 C59 C 0.07592 0.84928 0.34118
 C60 C 0.07563 0.82532 0.36361
 C61 C 0.09770 0.82431 0.38681
 C62 C 0.11938 0.84637 0.38762
 C63 C 0.11905 0.87031 0.36529
 C64 C 0.09670 0.89595 0.32015
 C65 C 0.11793 0.91860 0.32102
 C66 C 0.13991 0.91677 0.34406
 C67 C 0.14056 0.89284 0.36623
 C68 C 0.16234 0.89111 0.38936
 C69 C 0.16302 0.86706 0.41149
 C70 C 0.14146 0.84479 0.41047
 H71 H 0.05876 0.85160 0.32370
 H72 H 0.09898 0.80560 0.40369
 H73 H 0.07995 0.89701 0.30218
 H74 H 0.15619 0.93432 0.34503
 H75 H 0.17906 0.90821 0.38990
 H76 H 0.14167 0.82645 0.42774
 N77 N 0.09123 0.17669 0.10168
 N78 N 0.08085 0.16384 0.12647
 C79 C 0.05478 0.17932 0.13402
 C80 C 0.04834 0.20285 0.11262
 C81 C 0.07193 0.20044 0.09238
 H82 H 0.04122 0.17369 0.15336
 H83 H 0.07509 0.21532 0.07274
 Cu84 Cu 0.10214 0.12758 0.14570
 Cu85 Cu 0.12959 0.16253 0.08411
 Cu86 Cu 0.16815 0.09841 0.11896
 N87 N 0.12368 0.09150 0.16499
 N88 N 0.14958 0.08029 0.15445
 C89 C 0.15956 0.05532 0.17151
 C90 C 0.13871 0.05045 0.19392
 C91 C 0.11622 0.07392 0.18904
 H92 H 0.18018 0.04138 0.16749
 H93 H 0.09598 0.07794 0.20209
 N94 N 0.18320 0.12005 0.08287
 N95 N 0.16875 0.14473 0.06989
 C96 C 0.18508 0.15462 0.04647
 C97 C 0.21091 0.13509 0.04444
 C98 C 0.20892 0.11342 0.06784
 H99 H 0.17854 0.17435 0.03171
 H100 H 0.22529 0.09454 0.07376
 H101 H 0.12924 0.11619 0.09822
 H102 H 0.14834 0.14359 0.12394
 N103 N 0.39938 0.83003 0.60244
 N104 N 0.41559 0.84630 0.62097
 C105 C 0.44063 0.82869 0.62832
 C106 C 0.43990 0.79970 0.61383
 C107 C 0.41338 0.80139 0.59763
 H108 H 0.45774 0.83614 0.64363
 H109 H 0.40511 0.78330 0.58305
 Cu110 Cu 0.40201 0.88834 0.63505
 Cu111 Cu 0.36212 0.84773 0.58484
 Cu112 Cu 0.33251 0.91724 0.61698
 N113 N 0.38193 0.92295 0.65791
 N114 N 0.35458 0.93359 0.65125
 C115 C 0.34564 0.95618 0.67156
 C116 C 0.36865 0.96002 0.69205
 C117 C 0.39142 0.93858 0.68260
 H118 H 0.32396 0.96884 0.67144
 H119 H 0.41290 0.93396 0.69344
 N120 N 0.31381 0.89668 0.58211
 N121 N 0.32485 0.86979 0.57015
 C122 C 0.30746 0.86192 0.54655
 C123 C 0.28440 0.88506 0.54339
 C124 C 0.28918 0.90672 0.56638
 H125 H 0.31178 0.84136 0.53214
 H126 H 0.27577 0.92826 0.57126
 H127 H 0.36745 0.89524 0.59216
 H128 H 0.35242 0.87255 0.62486
 N129 N 0.91249 0.67877 0.40060
 N130 N 0.92048 0.66930 0.37292
 C131 C 0.94438 0.68427 0.36430
 C132 C 0.95188 0.70407 0.38796
 C133 C 0.93118 0.69989 0.41066
 H134 H 0.95559 0.68084 0.34255
 H135 H 0.92939 0.71193 0.43254
 Cu136 Cu 0.89907 0.63837 0.35066
 Cu137 Cu 0.87751 0.66432 0.42067
 Cu138 Cu 0.84380 0.60303 0.38541
 N139 N 0.88392 0.60003 0.33440
 N140 N 0.86189 0.58669 0.34755
 C141 C 0.85562 0.56103 0.33121
 C142 C 0.87497 0.55796 0.30664
 C143 C 0.89267 0.58313 0.30945
 H144 H 0.83868 0.54538 0.33714
 H145 H 0.91043 0.58889 0.29435
 N146 N 0.82905 0.62296 0.42385
 N147 N 0.84180 0.64647 0.43718
 C148 C 0.82624 0.65551 0.46239
 C149 C 0.80265 0.63665 0.46521
 C150 C 0.80518 0.61624 0.44038
 H151 H 0.83171 0.67437 0.47764
 H152 H 0.79034 0.59829 0.43442
 H153 H 0.88314 0.62020 0.40027
 H154 H 0.85509 0.64929 0.38236
 N155 N 0.59155 0.31825 -0.11317
 N156 N 0.58105 0.33220 -0.13824
 C157 C 0.55709 0.31774 -0.14795
 C158 C 0.55222 0.29349 -0.12781
 C159 C 0.57453 0.29461 -0.10597
 H160 H 0.54414 0.32435 -0.16815
 H161 H 0.57855 0.27892 -0.08667
 Cu162 Cu 0.60017 0.36738 -0.15616
 Cu163 Cu 0.62703 0.33110 -0.09226
 Cu164 Cu 0.66185 0.39328 -0.12422
 N165 N 0.61973 0.40252 -0.17363
 N166 N 0.64441 0.41177 -0.16155
 C167 C 0.65407 0.43527 -0.17861
 C168 C 0.63425 0.44131 -0.20255
 C169 C 0.61265 0.42015 -0.19863
 H170 H 0.67384 0.44739 -0.17375
 H171 H 0.59360 0.41743 -0.21330
 N172 N 0.67608 0.37160 -0.08648
 N173 N 0.66313 0.34762 -0.07452
 C174 C 0.67813 0.33793 -0.04904
 C175 C 0.70147 0.35690 -0.04459
 C176 C 0.69944 0.37799 -0.06876
 H177 H 0.67219 0.31891 -0.03439
 H178 H 0.71409 0.39648 -0.07320
 H179 H 0.62305 0.37751 -0.10665
 H180 H 0.64643 0.34901 -0.13062
 C181 C -0.05294 0.29264 0.16554
 C182 C -0.06491 0.30446 0.13748
 C183 C -0.05193 0.29260 0.10993
 C184 C -0.02741 0.27025 0.11045
 C185 C -0.01609 0.25854 0.13878
 C186 C -0.02910 0.26977 0.16614
 C187 C 0.00832 0.23610 0.13931
 C188 C 0.02219 0.22590 0.11188
 C189 C 0.01111 0.23806 0.08382
 C190 C -0.01366 0.25982 0.08307
 H191 H -0.05969 0.30187 0.08796
 H192 H -0.02075 0.26097 0.18808
 H193 H 0.01698 0.22720 0.16111
 H194 H -0.02192 0.26865 0.06111
 H195 H -0.06264 0.30005 0.18729
 H196 H 0.02137 0.23041 0.06239
 C197 C 0.56553 0.73155 0.62527
 C198 C 0.55691 0.70054 0.62264
 C199 C 0.52669 0.69540 0.61905
 C200 C 0.50525 0.72101 0.61784
 C201 C 0.51407 0.75215 0.62101
 C202 C 0.54426 0.75716 0.62472
 C203 C 0.49257 0.77775 0.62012
 C204 C 0.46246 0.77270 0.61534
 C205 C 0.45400 0.74170 0.61176
 C206 C 0.47517 0.71605 0.61326
 H207 H 0.52000 0.67149 0.61666
 H208 H 0.55144 0.78086 0.62706
 H209 H 0.49937 0.80161 0.62250
 H210 H 0.46803 0.69236 0.61069
 H211 H 0.58875 0.73589 0.62816
 H212 H 0.43090 0.73723 0.60824
 C213 C 1.04069 0.79396 0.33499
 C214 C 1.05361 0.80303 0.36298
 C215 C 1.04371 0.78949 0.39037
 C216 C 1.02142 0.76809 0.38983
 C217 C 1.00905 0.75924 0.36156
 C218 C 1.01892 0.77221 0.33431
 C219 C 0.98674 0.73787 0.36102
 C220 C 0.97608 0.72577 0.38851
 C221 C 0.98834 0.73496 0.41656
 C222 C 1.01095 0.75576 0.41721
 H223 H 1.05210 0.79668 0.41244
 H224 H 1.00976 0.76557 0.31238
 H225 H 0.97718 0.73131 0.33927
 H226 H 1.02011 0.76235 0.43915
 H227 H 1.04811 0.80262 0.31322
 H228 H 0.98065 0.72581 0.43803
 C229 C 0.46972 0.19302 -0.08202
 C230 C 0.45587 0.18741 -0.11027
 C231 C 0.46367 0.20443 -0.13627
 C232 C 0.48516 0.22663 -0.13416
 C233 C 0.49925 0.23181 -0.10574
 C234 C 0.49128 0.21496 -0.07978
 C235 C 0.52107 0.25369 -0.10376
 C236 C 0.52888 0.27071 -0.12980
 C237 C 0.51443 0.26561 -0.15784
 C238 C 0.49284 0.24372 -0.16003
 H239 H 0.45281 0.20058 -0.15807
 H240 H 0.50181 0.21865 -0.05779
 H241 H 0.53172 0.25761 -0.08189
 H242 H 0.48224 0.24007 -0.18200
 H243 H 0.46422 0.18001 -0.06174
 H244 H 0.52011 0.27813 -0.17833
 C245 C 0.08977 -0.03949 0.29001
 C246 C 0.11697 -0.05571 0.29797
 C247 C 0.14319 -0.04732 0.28379
 C248 C 0.14223 -0.02316 0.26182
 C249 C 0.11476 -0.00696 0.25407
 C250 C 0.08867 -0.01529 0.26831
 C251 C 0.11377 0.01717 0.23208
 C252 C 0.13989 0.02524 0.21745
 C253 C 0.16708 0.00888 0.22529
 C254 C 0.16826 -0.01502 0.24733
 H255 H 0.16425 -0.05993 0.28950
 H256 H 0.06741 -0.00311 0.26267
 H257 H 0.09257 0.02923 0.22608
 H258 H 0.18952 -0.02717 0.25299
 H259 H 0.06933 -0.04530 0.30088
 H260 H 0.18758 0.01473 0.21464
 C261 C 0.58780 0.54021 -0.29877
 C262 C 0.61562 0.54915 -0.30910
 C263 C 0.64158 0.53384 -0.29611
 C264 C 0.63980 0.51081 -0.27332
 C265 C 0.61177 0.50198 -0.26365
 C266 C 0.58594 0.51674 -0.27660
 C267 C 0.61004 0.47883 -0.24091
 C268 C 0.63603 0.46506 -0.22707
 C269 C 0.66379 0.47434 -0.23655
 C270 C 0.66569 0.49681 -0.25965
 H271 H 0.66334 0.54086 -0.30240
 H272 H 0.56423 0.51021 -0.26952
 H273 H 0.58850 0.47214 -0.23346
 H274 H 0.68740 0.50339 -0.26668
 H275 H 0.56722 0.55038 -0.30860
 H276 H 0.68412 0.46391 -0.22638
 C277 C 0.42066 1.04427 0.79234
 C278 C 0.39366 1.05436 0.80689
 C279 C 0.36713 1.04304 0.79519
 C280 C 0.36752 1.02255 0.76987
 C281 C 0.39478 1.01248 0.75598
 C282 C 0.42119 1.02346 0.76741
 C283 C 0.39512 0.99179 0.73075
 C284 C 0.36843 0.98155 0.71883
 C285 C 0.34140 0.99206 0.73264
 C286 C 0.34095 1.01223 0.75801
 H287 H 0.34579 1.05120 0.80470
 H288 H 0.44235 1.01589 0.75711
 H289 H 0.41609 0.98416 0.72009
 H290 H 0.31980 1.01978 0.76832
 H291 H 0.44177 1.05128 0.80086
 H292 H 0.32054 0.98433 0.72413
 C293 C 0.82975 0.45416 0.22170
 C294 C 0.85677 0.44612 0.20675
 C295 C 0.88203 0.46190 0.21474
 C296 C 0.88035 0.48554 0.23734
 C297 C 0.85317 0.49320 0.25257
 C298 C 0.82800 0.47737 0.24456
 C299 C 0.85158 0.51667 0.27538
 C300 C 0.87669 0.53301 0.28279
 C301 C 0.90349 0.52543 0.26724
 C302 C 0.90536 0.50178 0.24485
 H303 H 0.90286 0.45609 0.20300
 H304 H 0.80695 0.48299 0.25592
 H305 H 0.83069 0.52257 0.28693
 H306 H 0.92635 0.49625 0.23336
 H307 H 0.81008 0.44216 0.21594
 H308 H 0.92320 0.53747 0.27268
 C309 C 0.31713 0.08589 -0.03618
 C310 C 0.32249 0.11478 -0.04995
 C311 C 0.30487 0.14215 -0.04183
 C312 C 0.28183 0.14060 -0.02047
 C313 C 0.27676 0.11144 -0.00657
 C314 C 0.29460 0.08425 -0.01452
 C315 C 0.25378 0.10987 0.01482
 C316 C 0.23537 0.13695 0.02215
 C317 C 0.24041 0.16575 0.00797
 C318 C 0.26356 0.16761 -0.01300
 H319 H 0.30869 0.16444 -0.05266
 H320 H 0.29099 0.06170 -0.00414
 H321 H 0.24989 0.08743 0.02527
 H322 H 0.26707 0.19014 -0.02347
 H323 H 0.33060 0.06459 -0.04206
 H324 H 0.22671 0.18700 0.01339
 C325 C 0.70232 0.58948 0.54589
 C326 C 0.69542 0.61778 0.56196
 C327 C 0.71161 0.64412 0.55590
 C328 C 0.73433 0.64226 0.53394
 C329 C 0.74079 0.61380 0.51759
 C330 C 0.72474 0.58752 0.52384
 C331 C 0.76312 0.61211 0.49523
 C332 C 0.77936 0.63840 0.48912
 C333 C 0.77305 0.66643 0.50585
 C334 C 0.75067 0.66838 0.52797
 H335 H 0.70666 0.66594 0.56844
 H336 H 0.72942 0.56551 0.51156
 H337 H 0.76799 0.59021 0.48283
 H338 H 0.74606 0.69037 0.54031
 H339 H 0.68994 0.56899 0.54999
 H340 H 0.78504 0.68711 0.50149
 C341 C 0.79280 0.40712 0.04653
 C342 C 0.80013 0.37859 0.06194
 C343 C 0.78648 0.35129 0.05295
 C344 C 0.76554 0.35252 0.02897
 C345 C 0.75856 0.38128 0.01340
 C346 C 0.77232 0.40843 0.02235
 C347 C 0.73781 0.38248 -0.01073
 C348 C 0.72350 0.35543 -0.01925
 C349 C 0.73033 0.32705 -0.00338
 C350 C 0.75129 0.32555 0.02040
 H351 H 0.79180 0.32927 0.06498
 H352 H 0.76719 0.43069 0.01071
 H353 H 0.73245 0.40463 -0.02248
 H354 H 0.75632 0.30332 0.03212
 H355 H 0.80323 0.42836 0.05300
 H356 H 0.71976 0.30584 -0.00961
 C357 C 0.20148 0.83600 0.44290
 C358 C 0.18633 0.86514 0.43566
 C359 C 0.19356 0.89242 0.45155
 C360 C 0.21568 0.89065 0.47435
 C361 C 0.23099 0.86128 0.48124
 C362 C 0.22367 0.83409 0.46542
 C363 C 0.25333 0.85958 0.50382
 C364 C 0.26051 0.88684 0.51984
 C365 C 0.24490 0.91585 0.51299
 C366 C 0.22276 0.91776 0.49042
 H367 H 0.18172 0.91493 0.44640
 H368 H 0.23516 0.81138 0.47041
 H369 H 0.26488 0.83697 0.50906
 H370 H 0.21123 0.94047 0.48545
 H371 H 0.19644 0.81473 0.43077
 H372 H 0.25007 0.93728 0.52472
   
