data_POSCAR
  _audit_creation_date              2014-09-24
  _audit_creation_method            'ToBaCCo'
  _symmetry_space_group_name_H-M    'P1'
  _symmetry_Int_Tables_number       1
  _symmetry_cell_setting            triclinic
  loop_
  _symmetry_equiv_pos_as_xyz
 x,y,z
_cell_length_a 35.8224
_cell_length_b 47.2571
_cell_length_c 39.8989
_cell_angle_alpha 90.022200
_cell_angle_beta 90.078100
_cell_angle_gamma 90.216200
loop_
  _atom_site_label
  _atom_site_type_symbol
  _atom_site_fract_x
  _atom_site_fract_y
  _atom_site_fract_z
O1 O 0.25178 0.27701 0.29067
 O2 O 0.20623 0.21958 0.24335
 O3 O 0.25438 0.22196 0.29200
 O4 O 0.20376 0.27439 0.24119
 O5 O 0.25084 0.27603 0.20552
 O6 O 0.30002 0.22180 0.25486
 O7 O 0.25170 0.22091 0.20602
 O8 O 0.29855 0.27710 0.25464
 Cu9 Cu 0.22444 0.24826 0.27052
 Cu10 Cu 0.27997 0.24902 0.22663
 C11 C 0.28301 0.28671 0.28086
 C12 C 0.22105 0.21062 0.21651
 C13 C 0.28564 0.21267 0.28189
 C14 C 0.21871 0.28414 0.21473
 O15 O 0.79732 0.27871 0.24601
 O16 O 0.75299 0.22097 0.29372
 O17 O 0.79970 0.22390 0.24339
 O18 O 0.75047 0.27624 0.29547
 O19 O 0.70351 0.27604 0.25948
 O20 O 0.75155 0.22231 0.20878
 O21 O 0.70493 0.22168 0.25901
 O22 O 0.75076 0.27762 0.20966
 Cu23 Cu 0.77986 0.24990 0.27326
 Cu24 Cu 0.72306 0.24935 0.23052
 C25 C 0.78171 0.28785 0.21960
 C26 C 0.72099 0.21190 0.28491
 C27 C 0.78396 0.21420 0.21724
 C28 C 0.71857 0.28501 0.28629
 O29 O 0.80031 0.72315 0.75495
 O30 O 0.75099 0.77706 0.70521
 O31 O 0.79871 0.77845 0.75427
 O32 O 0.75199 0.72195 0.70606
 O33 O 0.70645 0.72082 0.74334
 O34 O 0.75208 0.77836 0.79041
 O35 O 0.70398 0.77562 0.74098
 O36 O 0.75455 0.72333 0.79201
 Cu37 Cu 0.78019 0.75019 0.72649
 Cu38 Cu 0.72466 0.74957 0.77040
 C39 C 0.78585 0.71411 0.78197
 C40 C 0.71889 0.78524 0.71443
 C41 C 0.78327 0.78813 0.78051
 C42 C 0.72131 0.71173 0.71658
 O43 O 0.25274 0.72246 0.79399
 O44 O 0.29716 0.77974 0.74557
 O45 O 0.25028 0.77774 0.79497
 O46 O 0.29952 0.72490 0.74361
 O47 O 0.25151 0.72314 0.70886
 O48 O 0.20321 0.77701 0.75916
 O49 O 0.25052 0.77846 0.70930
 O50 O 0.20485 0.72265 0.75901
 Cu51 Cu 0.27966 0.75118 0.77314
 Cu52 Cu 0.22290 0.75024 0.73036
 C53 C 0.22088 0.71323 0.78509
 C54 C 0.28149 0.78873 0.71911
 C55 C 0.21825 0.78632 0.78584
 C56 C 0.28388 0.71506 0.71749
 C57 C 1.01956 0.01839 0.01960
 C58 C 0.98002 0.01992 0.01891
 C59 C 0.96020 0.00123 -0.00203
 C60 C 0.97853 -0.01829 -0.02276
 C61 C 1.01810 -0.01993 -0.02191
 C62 C 1.03786 -0.00119 -0.00099
 H63 H 1.06804 -0.00247 0.00029
 H64 H 0.93002 0.00254 -0.00322
 C65 C 0.51972 0.51875 0.52076
 C66 C 0.48015 0.52009 0.52028
 C67 C 0.46035 0.50120 0.49955
 C68 C 0.47871 0.48170 0.47883
 C69 C 0.51828 0.48031 0.47946
 C70 C 0.53805 0.49921 0.50013
 H71 H 0.56825 0.49805 0.50121
 H72 H 0.43014 0.50237 0.49851
 C73 C -0.02058 0.48102 0.02158
 C74 C 0.01901 0.47993 0.02109
 C75 C 0.03861 0.49936 0.00095
 C76 C 0.02006 0.51923 -0.01926
 C77 C -0.01956 0.51901 -0.02008
 C78 C -0.03915 0.50020 0.00065
 H79 H -0.06943 0.50053 0.00055
 H80 H 0.06886 0.49906 0.00105
 C81 C 0.47935 0.98111 0.52009
 C82 C 0.51894 0.98018 0.51977
 C83 C 0.53851 0.99962 0.49961
 C84 C 0.51994 1.01935 0.47918
 C85 C 0.48031 1.01894 0.47821
 C86 C 0.46076 1.00012 0.49898
 H87 H 0.43048 1.00035 0.49878
 H88 H 0.56875 0.99940 0.49987
 C89 C 1.16640 0.14781 0.16108
 N90 N 1.19810 0.16007 0.14927
 N91 N 1.21575 0.17990 0.16707
 C92 C 1.20226 0.18825 0.19726
 N93 N 1.17062 0.17593 0.20910
 N94 N 1.15304 0.15605 0.19136
 C95 C 1.14627 0.12661 0.14102
 N96 N 1.11541 0.11355 0.15339
 N97 N 1.09641 0.09502 0.13477
 C98 C 1.10753 0.08895 0.10307
 N99 N 1.13849 0.10192 0.09076
 N100 N 1.15755 0.12038 0.10941
 C101 C 1.08561 0.06959 0.08194
 N102 N 1.09452 0.06597 0.04917
 N103 N 1.07363 0.04951 0.02951
 C104 C 1.04294 0.03618 0.04183
 N105 N 1.03459 0.03923 0.07484
 N106 N 1.05541 0.05577 0.09448
 C107 C 0.66665 0.64873 0.66146
 N108 N 0.65330 0.65707 0.69170
 N109 N 0.67089 0.67701 0.70935
 C110 C 0.70252 0.68929 0.69744
 N111 N 0.71601 0.68084 0.66728
 N112 N 0.69835 0.66096 0.64958
 C113 C 0.64651 0.62748 0.64150
 N114 N 0.65772 0.62118 0.60989
 N115 N 0.63864 0.60266 0.59133
 C116 C 0.60773 0.58969 0.60374
 N117 N 0.59667 0.59583 0.63544
 N118 N 0.61569 0.61442 0.65397
 C119 C 0.58580 0.57026 0.58272
 N120 N 0.55569 0.55641 0.59540
 N121 N 0.53486 0.53977 0.57587
 C122 C 0.54310 0.53667 0.54285
 N123 N 0.57369 0.55003 0.53039
 N124 N 0.59459 0.56658 0.54994
 C125 C -0.16503 0.35090 0.16367
 N126 N -0.19692 0.33859 0.15225
 N127 N -0.21415 0.31870 0.17021
 C128 C -0.20002 0.31032 0.20018
 N129 N -0.16819 0.32267 0.21163
 N130 N -0.15104 0.34262 0.19373
 C131 C -0.14533 0.37216 0.14345
 N132 N -0.11440 0.38535 0.15559
 N133 N -0.09575 0.40393 0.13684
 C134 C -0.10729 0.40995 0.10522
 N135 N -0.13831 0.39685 0.09313
 N136 N -0.15703 0.37833 0.11192
 C137 C -0.08573 0.42940 0.08399
 N138 N -0.09491 0.43297 0.05125
 N139 N -0.07431 0.44954 0.03154
 C140 C -0.04366 0.46304 0.04378
 N141 N -0.03505 0.46003 0.07675
 N142 N -0.05558 0.44338 0.09644
 C143 C 0.33477 0.85148 0.66272
 N144 N 0.30290 0.83910 0.65136
 N145 N 0.28565 0.81930 0.66946
 C146 C 0.29975 0.81109 0.69951
 N147 N 0.33156 0.82352 0.71090
 N148 N 0.34872 0.84338 0.69286
 C149 C 0.35449 0.87264 0.64237
 N150 N 0.38535 0.88593 0.65449
 N151 N 0.40403 0.90443 0.63564
 C152 C 0.39258 0.91025 0.60395
 N153 N 0.36163 0.89706 0.59187
 N154 N 0.34288 0.87863 0.61076
 C155 C 0.41417 0.92962 0.58264
 N156 N 0.40511 0.93302 0.54985
 N157 N 0.42572 0.94954 0.53009
 C158 C 0.45628 0.96316 0.54233
 N159 N 0.46477 0.96033 0.57535
 N160 N 0.44423 0.94372 0.59509
 C161 C -0.15861 0.65291 -0.16128
 N162 N -0.19066 0.66477 -0.14993
 N163 N -0.20834 0.68424 -0.16805
 C164 C -0.19454 0.69268 -0.19811
 N165 N -0.16247 0.68085 -0.20947
 N166 N -0.14484 0.66130 -0.19139
 C167 C -0.13900 0.63163 -0.14108
 N168 N -0.10824 0.61840 -0.15316
 N169 N -0.09019 0.59942 -0.13455
 C170 C -0.10220 0.59305 -0.10318
 N171 N -0.13299 0.60625 -0.09114
 N172 N -0.15111 0.62514 -0.10978
 C173 C -0.08160 0.57292 -0.08214
 N174 N -0.09135 0.56897 -0.04961
 N175 N -0.07177 0.55166 -0.03004
 C176 C -0.04162 0.53772 -0.04223
 N177 N -0.03246 0.54111 -0.07502
 N178 N -0.05195 0.55852 -0.09456
 C179 C 0.34029 1.15232 0.33719
 N180 N 0.35473 1.16160 0.30772
 N181 N 0.33707 1.18123 0.28979
 C182 C 0.30424 1.19225 0.30062
 N183 N 0.28978 1.18287 0.33007
 N184 N 0.30752 1.16334 0.34805
 C185 C 0.35997 1.13101 0.35728
 N186 N 0.34765 1.12416 0.38841
 N187 N 0.36588 1.10530 0.40699
 C188 C 0.39698 1.09245 0.39506
 N189 N 0.40919 1.09916 0.36384
 N190 N 0.39105 1.11813 0.34530
 C191 C 0.41773 1.07241 0.41608
 N192 N 0.44718 1.05785 0.40354
 N193 N 0.46685 1.04056 0.42310
 C194 C 0.45809 1.03750 0.45603
 N195 N 0.42811 1.05158 0.46833
 N196 N 0.40835 1.06875 0.44874
 C197 C 1.16101 -0.15707 -0.15571
 N198 N 1.19699 -0.16365 -0.14849
 N199 N 1.21563 -0.18202 -0.16744
 C200 C 1.19914 -0.19415 -0.19458
 N201 N 1.16326 -0.18731 -0.20195
 N202 N 1.14448 -0.16925 -0.18275
 C203 C 1.14013 -0.13726 -0.13461
 N204 N 1.10224 -0.13758 -0.13468
 N205 N 1.08314 -0.11959 -0.11563
 C206 C 1.10124 -0.10039 -0.09614
 N207 N 1.13914 -0.09998 -0.09617
 N208 N 1.15826 -0.11823 -0.11488
 C209 C 1.08008 -0.08003 -0.07603
 N210 N 1.09598 -0.05535 -0.06598
 N211 N 1.07622 -0.03637 -0.04892
 C212 C 1.03984 -0.04132 -0.04110
 N213 N 1.02443 -0.06645 -0.05037
 N214 N 1.04399 -0.08529 -0.06782
 C215 C 0.66058 0.34249 0.34618
 N216 N 0.69800 0.33917 0.34994
 N217 N 0.71657 0.32084 0.33088
 C218 C 0.69845 0.30545 0.30711
 N219 N 0.66111 0.30892 0.30322
 N220 N 0.64248 0.32700 0.32252
 C221 C 0.63991 0.36243 0.36728
 N222 N 0.60223 0.36036 0.37000
 N223 N 0.58329 0.37854 0.38893
 C224 C 0.60129 0.39963 0.40554
 N225 N 0.63897 0.40176 0.40274
 N226 N 0.65798 0.38338 0.38411
 C227 C 0.58019 0.42013 0.42551
 N228 N 0.59551 0.44544 0.43398
 N229 N 0.57578 0.46446 0.45100
 C230 C 0.53999 0.45893 0.46029
 N231 N 0.52516 0.43324 0.45256
 N232 N 0.54470 0.41433 0.43521
 C233 C 0.83554 -0.14930 -0.16526
 N234 N 0.80263 -0.16048 -0.15469
 N235 N 0.78552 -0.18061 -0.17242
 C236 C 0.80079 -0.19045 -0.20130
 N237 N 0.83368 -0.17921 -0.21188
 N238 N 0.85070 -0.15898 -0.19422
 C239 C 0.85492 -0.12768 -0.14521
 N240 N 0.88635 -0.11496 -0.15691
 N241 N 0.90460 -0.09603 -0.13825
 C242 C 0.89216 -0.08921 -0.10716
 N243 N 0.86065 -0.10185 -0.09552
 N244 N 0.84231 -0.12068 -0.11424
 C245 C 0.91337 -0.06952 -0.08585
 N246 N 0.90404 -0.06596 -0.05317
 N247 N 0.92454 -0.04942 -0.03328
 C248 C 0.95525 -0.03590 -0.04529
 N249 N 0.96392 -0.03878 -0.07825
 N250 N 0.94351 -0.05545 -0.09811
 C251 C 0.33626 0.35012 0.33649
 N252 N 0.35066 0.34134 0.30681
 N253 N 0.33362 0.32122 0.28901
 C254 C 0.30149 0.30919 0.30019
 N255 N 0.28698 0.31807 0.32979
 N256 N 0.30409 0.33812 0.34765
 C257 C 0.35564 0.37169 0.35663
 N258 N 0.34335 0.37832 0.38782
 N259 N 0.36165 0.39717 0.40655
 C260 C 0.39282 0.41017 0.39473
 N261 N 0.40495 0.40370 0.36343
 N262 N 0.38673 0.38477 0.34474
 C263 C 0.41395 0.42995 0.41598
 N264 N 0.44422 0.44388 0.40375
 N265 N 0.46450 0.46068 0.42354
 C266 C 0.45555 0.46390 0.45639
 N267 N 0.42474 0.45050 0.46838
 N268 N 0.40438 0.43379 0.44857
 C269 C 0.16471 0.65448 -0.15499
 N270 N 0.20223 0.65793 -0.15198
 N271 N 0.22034 0.67653 -0.17120
 C272 C 0.20161 0.69200 -0.19441
 N273 N 0.16419 0.68831 -0.19761
 N274 N 0.14606 0.67000 -0.17815
 C275 C 0.14428 0.63474 -0.13331
 N276 N 0.10683 0.63741 -0.12942
 N277 N 0.08796 0.61960 -0.10988
 C278 C 0.10575 0.59825 -0.09379
 N279 N 0.14321 0.59546 -0.09776
 N280 N 0.16220 0.61352 -0.11701
 C281 C 0.08444 0.57822 -0.07318
 N282 N 0.09848 0.55240 -0.06545
 N283 N 0.07808 0.53377 -0.04826
 C284 C 0.04291 0.54023 -0.03809
 N285 N 0.02952 0.56644 -0.04496
 N286 N 0.04968 0.58496 -0.06246
 C287 C 0.66571 1.15372 0.34309
 N288 N 0.70187 1.16043 0.34970
 N289 N 0.72001 1.17916 0.33070
 C290 C 0.70280 1.19154 0.30413
 N291 N 0.66681 1.18446 0.29730
 N292 N 0.64854 1.16605 0.31655
 C293 C 0.64497 1.13408 0.36464
 N294 N 0.60714 1.13505 0.36565
 N295 N 0.58801 1.11743 0.38524
 C296 C 0.60597 1.09794 0.40424
 N297 N 0.64383 1.09682 0.40312
 N298 N 0.66303 1.11474 0.38385
 C299 C 0.58451 1.07812 0.42498
 N300 N 0.59912 1.05286 0.43429
 N301 N 0.57865 1.03431 0.45154
 C302 C 0.54284 1.04031 0.46026
 N303 N 0.52887 1.06603 0.45185
 N304 N 0.54910 1.08443 0.43423
 C305 C 0.16055 0.34228 0.15573
 N306 N 0.14236 0.32629 0.17882
 N307 N 0.16098 0.30799 0.19790
 C308 C 0.19841 0.30482 0.19433
 N309 N 0.21659 0.32073 0.17115
 N310 N 0.19803 0.33926 0.15233
 C311 C 0.13995 0.36238 0.13470
 N312 N 0.15813 0.38347 0.11826
 N313 N 0.13930 0.40185 0.09945
 C314 C 0.10169 0.39959 0.09608
 N315 N 0.08357 0.37838 0.11233
 N316 N 0.10233 0.36020 0.13143
 C317 C 0.08077 0.42000 0.07575
 N318 N 0.04546 0.41406 0.06558
 N319 N 0.02604 0.43287 0.04793
 C320 C 0.04081 0.45860 0.04033
 N321 N 0.07646 0.46426 0.05006
 N322 N 0.09608 0.44534 0.06738
 C323 C 0.66068 0.84318 0.65519
 N324 N 0.69816 0.84016 0.65178
 N325 N 0.71674 0.82169 0.67067
 C326 C 0.69857 0.80585 0.69394
 N327 N 0.66114 0.80904 0.69751
 N328 N 0.64251 0.82726 0.67836
 C329 C 0.64006 0.86321 0.63407
 N330 N 0.60245 0.86097 0.63078
 N331 N 0.58367 0.87907 0.61160
 C332 C 0.60176 0.90026 0.59528
 N333 N 0.63936 0.90258 0.59868
 N334 N 0.65821 0.88427 0.61757
 C335 C 0.58081 0.92057 0.57484
 N336 N 0.59602 0.94592 0.56641
 N337 N 0.57637 0.96475 0.54896
 C338 C 0.54078 0.95897 0.53917
 N339 N 0.52611 0.93323 0.54684
 N340 N 0.54555 0.91452 0.56460
 C341 C 0.84075 0.15658 0.15655
 N342 N 0.85945 0.17235 0.17959
 N343 N 0.84125 0.19046 0.19920
 C344 C 0.80375 0.19365 0.19627
 N345 N 0.78505 0.17795 0.17316
 N346 N 0.80320 0.15961 0.15378
 C347 C 0.86093 0.13671 0.13492
 N348 N 0.84242 0.11586 0.11828
 N349 N 0.86090 0.09766 0.09897
 C350 C 0.89848 0.09988 0.09529
 N351 N 0.91692 0.12085 0.11174
 N352 N 0.89850 0.13885 0.13132
 C353 C 0.91905 0.07962 0.07449
 N354 N 0.95438 0.08548 0.06439
 N355 N 0.97355 0.06675 0.04642
 C356 C 0.95849 0.04120 0.03840
 N357 N 0.92282 0.03564 0.04803
 N358 N 0.90345 0.05448 0.06570
 C359 C 0.34076 0.65706 0.65737
 N360 N 0.35942 0.67298 0.68029
 N361 N 0.34120 0.69120 0.69974
 C362 C 0.30370 0.69437 0.69674
 N363 N 0.28503 0.67853 0.67374
 N364 N 0.30320 0.66007 0.65455
 C365 C 0.36095 0.63709 0.63589
 N366 N 0.34248 0.61613 0.61943
 N367 N 0.36097 0.59787 0.60022
 C368 C 0.39853 0.60014 0.59646
 N369 N 0.41694 0.62121 0.61274
 N370 N 0.39852 0.63928 0.63223
 C371 C 0.41912 0.57983 0.57574
 N372 N 0.45438 0.58575 0.56546
 N373 N 0.47355 0.56701 0.54754
 C374 C 0.45860 0.54138 0.53973
 N375 N 0.42300 0.53574 0.54953
 N376 N 0.40362 0.55460 0.56715
   
