data_POSCAR
  _audit_creation_date              2014-09-24
  _audit_creation_method            'ToBaCCo'
  _symmetry_space_group_name_H-M    'P1'
  _symmetry_Int_Tables_number       1
  _symmetry_cell_setting            triclinic
  loop_
  _symmetry_equiv_pos_as_xyz
 x,y,z
_cell_length_a 52.5149
_cell_length_b 50.6609
_cell_length_c 50.6033
_cell_angle_alpha 94.652300
_cell_angle_beta 93.045100
_cell_angle_gamma 93.248900
loop_
  _atom_site_label
  _atom_site_type_symbol
  _atom_site_fract_x
  _atom_site_fract_y
  _atom_site_fract_z
N1 N 0.20284 1.25367 0.18316
 N2 N 0.18346 1.25062 0.19820
 C3 C 0.16681 1.26920 0.19367
 C4 C 0.17613 1.28483 0.17454
 C5 C 0.19920 1.27426 0.16848
 H6 H 0.14909 1.27082 0.20342
 H7 H 0.21229 1.28063 0.15418
 Cu8 Cu 0.18103 1.22210 0.22157
 Cu9 Cu 0.23072 1.22994 0.18285
 Cu10 Cu 0.23074 1.18366 0.22950
 N11 N 0.18349 1.19896 0.25029
 N12 N 0.20287 1.18402 0.25335
 C13 C 0.19925 1.16951 0.27411
 C14 C 0.17621 1.17558 0.28476
 C15 C 0.16687 1.19454 0.26901
 H16 H 0.21236 1.15532 0.28055
 H17 H 0.14917 1.20425 0.27065
 N18 N 0.25718 1.18646 0.20350
 N19 N 0.25716 1.20409 0.18571
 C20 C 0.27687 1.20031 0.17016
 C21 C 0.29000 1.17922 0.17849
 C22 C 0.27692 1.17100 0.19975
 H23 H 0.28108 1.21183 0.15370
 H24 H 0.28096 1.15443 0.21113
 H25 H 0.21190 1.19735 0.19684
 H26 H 0.22736 1.22299 0.22231
 N27 N 0.79593 0.74478 0.16640
 N28 N 0.80971 0.74252 0.18844
 C29 C 0.82640 0.72369 0.18406
 C30 C 0.82295 0.71346 0.15776
 C31 C 0.80335 0.72737 0.14721
 H32 H 0.84018 0.71817 0.19893
 H33 H 0.79543 0.72550 0.12695
 Cu34 Cu 0.80541 0.76506 0.22054
 Cu35 Cu 0.77014 0.77086 0.16404
 Cu36 Cu 0.76827 0.81678 0.21836
 N37 N 0.80795 0.79381 0.24852
 N38 N 0.79325 0.81387 0.24770
 C39 C 0.79969 0.83143 0.26868
 C40 C 0.81979 0.82205 0.28355
 C41 C 0.82436 0.79793 0.27001
 H42 H 0.79086 0.85004 0.27216
 H43 H 0.83893 0.78458 0.27479
 N44 N 0.74475 0.81625 0.18663
 N45 N 0.74550 0.79887 0.16585
 C46 C 0.72772 0.80424 0.14718
 C47 C 0.71518 0.82615 0.15661
 C48 C 0.72652 0.83312 0.18174
 H49 H 0.72455 0.79334 0.12793
 H50 H 0.72202 0.84942 0.19545
 H51 H 0.79061 0.79744 0.19140
 H52 H 0.76359 0.77720 0.20390
 N53 N 0.79099 1.24634 -0.18518
 N54 N 0.80575 1.24750 -0.20525
 C55 C 0.82189 1.26921 -0.20103
 C56 C 0.81704 1.28248 -0.17692
 C57 C 0.79718 1.26731 -0.16751
 H58 H 0.83670 1.27426 -0.21411
 H59 H 0.78831 1.27075 -0.14886
 Cu60 Cu 0.80385 1.21958 -0.23401
 Cu61 Cu 0.76624 1.21665 -0.18251
 Cu62 Cu 0.76934 1.16253 -0.22839
 N63 N 0.80897 1.18759 -0.25635
 N64 N 0.79554 1.16531 -0.25412
 C65 C 0.80355 1.14627 -0.27129
 C66 C 0.82325 1.15714 -0.28511
 C67 C 0.82602 1.18355 -0.27496
 H68 H 0.79575 1.12597 -0.27314
 H69 H 0.83964 1.19877 -0.28018
 N70 N 0.74422 1.16391 -0.20071
 N71 N 0.74303 1.18460 -0.18332
 C72 C 0.72452 1.17943 -0.16674
 C73 C 0.71347 1.15420 -0.17393
 C74 C 0.72647 1.14502 -0.19564
 H75 H 0.71961 1.19303 -0.15052
 H76 H 0.72360 1.12580 -0.20664
 H77 H 0.78919 1.19023 -0.20167
 H78 H 0.76213 1.20219 -0.22214
 N79 N 0.18575 0.75053 -0.18193
 N80 N 0.16545 0.75206 -0.19793
 C81 C 0.14713 0.73415 -0.19198
 C82 C 0.15642 0.72065 -0.17106
 C83 C 0.18107 0.73165 -0.16531
 H84 H 0.12829 0.73151 -0.20183
 H85 H 0.19460 0.72662 -0.14997
 Cu86 Cu 0.16488 0.77802 -0.22427
 Cu87 Cu 0.21639 0.77390 -0.18287
 Cu88 Cu 0.21581 0.81993 -0.22998
 N89 N 0.16484 0.80368 -0.25091
 N90 N 0.18490 0.81989 -0.25306
 C91 C 0.17983 0.83593 -0.27232
 C92 C 0.15508 0.82961 -0.28299
 C93 C 0.14625 0.80889 -0.26879
 H94 H 0.19318 0.85130 -0.27772
 H95 H 0.12762 0.79853 -0.27097
 N96 N 0.24526 0.81685 -0.20480
 N97 N 0.24549 0.79929 -0.18693
 C98 C 0.26749 0.80310 -0.17183
 C99 C 0.28185 0.82417 -0.18049
 C100 C 0.26711 0.83231 -0.20151
 H101 H 0.27220 0.79209 -0.15501
 H102 H 0.27163 0.84874 -0.21313
 H103 H 0.19848 0.80518 -0.19804
 H104 H 0.21142 0.78054 -0.22248
 C105 C 0.48773 1.02678 0.02855
 C106 C 0.50602 1.00936 0.04289
 C107 C 0.51790 0.99191 0.02646
 C108 C 0.51086 0.99411 -0.00326
 C109 C 0.50468 1.04051 0.00931
 C110 C 0.51656 1.02360 -0.00768
 C111 C 0.46970 1.00725 0.01085
 C112 C 0.48159 0.99015 -0.00578
 H113 H 0.51008 1.01152 0.06416
 H114 H 0.52025 0.97993 -0.01684
 H115 H 0.50832 1.06180 0.01024
 H116 H 0.44910 1.00756 0.01107
 C117 C 0.03048 0.48534 1.02795
 C118 C 0.04462 0.50432 1.01079
 C119 C 0.02910 0.51689 0.99408
 C120 C 0.00042 0.50981 0.99668
 C121 C 0.01207 0.50307 1.04262
 C122 C -0.00401 0.51563 1.02643
 C123 C 0.01336 0.46683 1.00824
 C124 C -0.00238 0.47943 0.99188
 H125 H 0.06511 0.50841 1.01264
 H126 H -0.01236 0.51976 0.98303
 H127 H 0.01276 0.50663 1.06402
 H128 H 0.01321 0.44542 1.00801
 C129 C 1.03047 0.02880 0.48582
 C130 C 1.01365 0.04387 0.50503
 C131 C 0.99700 0.02806 0.51743
 C132 C 0.99933 -0.00183 0.50999
 C133 C 1.04391 0.00975 0.50326
 C134 C 1.02778 -0.00660 0.51568
 C135 C 1.01170 0.01101 0.46714
 C136 C 0.99539 -0.00499 0.47958
 H137 H 1.01545 0.06522 0.50908
 H138 H 0.98584 -0.01491 0.51983
 H139 H 1.06440 0.01043 0.50706
 H140 H 1.01183 0.01081 0.44573
 C141 C 0.16404 0.33977 1.13133
 C142 C 0.14011 0.34705 1.13912
 C143 C 0.12840 0.33419 1.15910
 C144 C 0.14039 0.31389 1.17106
 C145 C 0.16440 0.30597 1.16316
 C146 C 0.17612 0.31949 1.14322
 C147 C 0.12718 0.36710 1.12604
 C148 C 0.11607 0.38352 1.11479
 C149 C 0.10273 0.40228 1.10130
 C150 C 0.09104 0.41790 1.08948
 C151 C 0.07673 0.43601 1.07502
 C152 C 0.05342 0.44407 1.08393
 C153 C 0.03878 0.46047 1.06915
 C154 C 0.04748 0.46960 1.04541
 C155 C 0.07078 0.46082 1.03642
 C156 C 0.08537 0.44441 1.05125
 H157 H 0.17328 0.34960 1.11584
 H158 H 0.10983 0.33966 1.16527
 H159 H 0.13051 0.30441 1.18628
 H160 H 0.19452 0.31442 1.13642
 H161 H 0.04626 0.43717 1.10201
 H162 H 0.02032 0.46529 1.07603
 H163 H 0.07749 0.46599 1.01756
 H164 H 0.10313 0.43780 1.04385
 C165 C -0.12609 0.66493 1.14292
 C166 C -0.13383 0.65466 1.11708
 C167 C -0.15585 0.66335 1.10456
 C168 C -0.17002 0.68234 1.11780
 C169 C -0.16232 0.69294 1.14379
 C170 C -0.14020 0.68389 1.15620
 C171 C -0.11890 0.63547 1.10342
 C172 C -0.10596 0.61957 1.09236
 C173 C -0.09029 0.60115 1.07990
 C174 C -0.07647 0.58559 1.06969
 C175 C -0.05943 0.56725 1.05806
 C176 C -0.04928 0.57147 1.03365
 C177 C -0.03164 0.55444 1.02309
 C178 C -0.02371 0.53306 1.03691
 C179 C -0.03460 0.52864 1.06115
 C180 C -0.05224 0.54565 1.07166
 H181 H -0.10904 0.65838 1.15278
 H182 H -0.16203 0.65551 1.08455
 H183 H -0.18698 0.68860 1.10762
 H184 H -0.13351 0.69158 1.17605
 H185 H -0.05471 0.58815 1.02294
 H186 H -0.02386 0.55855 1.00448
 H187 H -0.02957 0.51198 1.07205
 H188 H -0.06007 0.54210 1.09052
 C189 C -0.13508 0.34170 0.83742
 C190 C -0.13904 0.34925 0.86402
 C191 C -0.15808 0.33576 0.87689
 C192 C -0.17277 0.31446 0.86344
 C193 C -0.16854 0.30623 0.83685
 C194 C -0.14974 0.32039 0.82390
 C195 C -0.12257 0.36969 0.87860
 C196 C -0.10829 0.38607 0.89126
 C197 C -0.09102 0.40430 0.90658
 C198 C -0.07577 0.41897 0.92010
 C199 C -0.05699 0.43529 0.93674
 C200 C -0.06332 0.45930 0.94973
 C201 C -0.04533 0.47408 0.96724
 C202 C -0.02090 0.46486 0.97204
 C203 C -0.01457 0.44101 0.95845
 C204 C -0.03250 0.42635 0.94095
 H205 H -0.12034 0.35197 0.82726
 H206 H -0.16123 0.34136 0.89753
 H207 H -0.18696 0.30416 0.87418
 H208 H -0.14605 0.31492 0.80342
 H209 H -0.08227 0.46633 0.94672
 H210 H -0.05084 0.49220 0.97766
 H211 H 0.00422 0.43362 0.96143
 H212 H -0.02739 0.40781 0.93100
 C213 C 0.10511 0.67030 0.84712
 C214 C 0.11667 0.66088 0.86976
 C215 C 0.14125 0.67072 0.87888
 C216 C 0.15421 0.68999 0.86555
 C217 C 0.14276 0.69978 0.84281
 C218 C 0.11804 0.68960 0.83372
 C219 C 0.10337 0.64132 0.88391
 C220 C 0.09266 0.62506 0.89626
 C221 C 0.08065 0.60615 0.91126
 C222 C 0.07085 0.59012 0.92452
 C223 C 0.05973 0.57111 0.94089
 C224 C 0.07321 0.54926 0.94732
 C225 C 0.06308 0.53145 0.96428
 C226 C 0.03931 0.53530 0.97520
 C227 C 0.02568 0.55702 0.96812
 C228 C 0.03586 0.57485 0.95116
 H229 H 0.08607 0.66280 0.83988
 H230 H 0.15039 0.66359 0.89641
 H231 H 0.17311 0.69726 0.87331
 H232 H 0.10857 0.69645 0.81628
 H233 H 0.09167 0.54610 0.93941
 H234 H 0.07387 0.51462 0.96874
 H235 H 0.00748 0.56073 0.97610
 H236 H 0.02527 0.59174 0.94636
 C237 C 1.12854 0.16043 0.33454
 C238 C 1.14025 0.14060 0.34750
 C239 C 1.16417 0.13283 0.34017
 C240 C 1.17624 0.14459 0.31972
 C241 C 1.16450 0.16436 0.30609
 C242 C 1.14052 0.17225 0.31408
 C243 C 1.12731 0.12760 0.36770
 C244 C 1.11619 0.11640 0.38421
 C245 C 1.10285 0.10290 0.40305
 C246 C 1.09116 0.09104 0.41871
 C247 C 1.07688 0.07645 0.43683
 C248 C 1.08611 0.05329 0.44597
 C249 C 1.07157 0.03820 0.46230
 C250 C 1.04767 0.04632 0.47024
 C251 C 1.03844 0.06948 0.46044
 C252 C 1.05303 0.08452 0.44412
 H253 H 1.10998 0.16658 0.34006
 H254 H 1.17340 0.11745 0.35008
 H255 H 1.19463 0.13780 0.31461
 H256 H 1.13063 0.18735 0.30451
 H257 H 1.10431 0.04653 0.43995
 H258 H 1.07882 0.01977 0.46786
 H259 H 1.01963 0.07567 0.46483
 H260 H 1.04544 0.10212 0.43669
 C261 C 1.10298 -0.15357 0.66905
 C262 C 1.11489 -0.13239 0.65744
 C263 C 1.14019 -0.12411 0.66524
 C264 C 1.15353 -0.13675 0.68470
 C265 C 1.14176 -0.15802 0.69688
 C266 C 1.11625 -0.16631 0.68856
 C267 C 1.10118 -0.11873 0.63784
 C268 C 1.09019 -0.10669 0.62158
 C269 C 1.07793 -0.09189 0.60272
 C270 C 1.06802 -0.07866 0.58679
 C271 C 1.05693 -0.06213 0.56798
 C272 C 1.07017 -0.05600 0.54579
 C273 C 1.06039 -0.03844 0.52849
 C274 C 1.03725 -0.02658 0.53320
 C275 C 1.02372 -0.03355 0.55510
 C276 C 1.03355 -0.05111 0.57244
 H277 H 1.08336 -0.16015 0.66315
 H278 H 1.14962 -0.10771 0.65636
 H279 H 1.17302 -0.12954 0.69010
 H280 H 1.10624 -0.18251 0.69707
 H281 H 1.08825 -0.06449 0.54207
 H282 H 1.07105 -0.03413 0.51146
 H283 H 1.00596 -0.02494 0.55943
 H284 H 1.02315 -0.05568 0.58959
 C285 C 0.84132 -0.12650 0.33848
 C286 C 0.86261 -0.13776 0.34961
 C287 C 0.86906 -0.16290 0.33965
 C288 C 0.85460 -0.17651 0.31824
 C289 C 0.83346 -0.16506 0.30623
 C290 C 0.82682 -0.13998 0.31708
 C291 C 0.87869 -0.12273 0.37008
 C292 C 0.89241 -0.10938 0.38644
 C293 C 0.90877 -0.09289 0.40462
 C294 C 0.92298 -0.07807 0.41919
 C295 C 0.94023 -0.05951 0.43532
 C296 C 0.95222 -0.06663 0.45887
 C297 C 0.96988 -0.04871 0.47362
 C298 C 0.97581 -0.02358 0.46484
 C299 C 0.96332 -0.01649 0.44141
 C300 C 0.94569 -0.03434 0.42679
 H301 H 0.83617 -0.10700 0.34602
 H302 H 0.88557 -0.17180 0.34809
 H303 H 0.86049 -0.19573 0.31097
 H304 H 0.81071 -0.13031 0.30896
 H305 H 0.94820 -0.08611 0.46561
 H306 H 0.97941 -0.05481 0.49143
 H307 H 0.96715 0.00288 0.43439
 H308 H 0.93649 -0.02859 0.40863
 C309 C 0.84761 0.10401 0.66890
 C310 C 0.86722 0.11815 0.65749
 C311 C 0.87202 0.14523 0.66481
 C312 C 0.85742 0.15816 0.68358
 C313 C 0.83767 0.14418 0.69551
 C314 C 0.83294 0.11686 0.68770
 C315 C 0.88272 0.10491 0.63854
 C316 C 0.89605 0.09417 0.62279
 C317 C 0.91205 0.08201 0.60449
 C318 C 0.92604 0.07200 0.58896
 C319 C 0.94312 0.06050 0.57054
 C320 C 0.95087 0.07447 0.54934
 C321 C 0.96816 0.06382 0.53196
 C322 C 0.97810 0.03902 0.53560
 C323 C 0.96978 0.02495 0.55671
 C324 C 0.95249 0.03566 0.57410
 H325 H 0.84373 0.08300 0.66336
 H326 H 0.88716 0.15639 0.65607
 H327 H 0.86192 0.17910 0.68864
 H328 H 0.81805 0.10512 0.69607
 H329 H 0.94363 0.09367 0.54629
 H330 H 0.97355 0.07497 0.51556
 H331 H 0.97691 0.00595 0.56025
 H332 H 0.94663 0.02467 0.59048
 C333 C 0.33993 1.16161 0.12945
 C334 C 0.35279 1.14235 0.14223
 C335 C 0.34562 1.13565 0.16718
 C336 C 0.32546 1.14790 0.17917
 C337 C 0.31212 1.16702 0.16632
 C338 C 0.31978 1.17389 0.14139
 C339 C 0.37266 1.12881 0.12927
 C340 C 0.38888 1.11716 0.11802
 C341 C 0.40736 1.10317 0.10437
 C342 C 0.42268 1.09092 0.09230
 C343 C 0.44037 1.07593 0.07739
 C344 C 0.44835 1.05204 0.08601
 C345 C 0.46418 1.03659 0.07064
 C346 C 0.47278 1.04502 0.04657
 C347 C 0.46417 1.06894 0.03794
 C348 C 0.44834 1.08436 0.05336
 H349 H 0.34526 1.16688 0.11008
 H350 H 0.35544 1.12075 0.17725
 H351 H 0.32036 1.14224 0.19844
 H352 H 0.30998 1.18836 0.13076
 H353 H 0.44182 1.04502 0.10430
 H354 H 0.46906 1.01765 0.07730
 H355 H 0.46891 1.07546 0.01889
 H356 H 0.44178 1.10252 0.04619
 C357 C 0.66227 1.10205 -0.15941
 C358 C 0.65460 1.11245 -0.13483
 C359 C 0.66593 1.13655 -0.12319
 C360 C 0.68492 1.15017 -0.13596
 C361 C 0.69293 1.13988 -0.16064
 C362 C 0.68129 1.11566 -0.17225
 C363 C 0.63535 1.09842 -0.12123
 C364 C 0.61941 1.08719 -0.10917
 C365 C 0.60098 1.07466 -0.09429
 C366 C 0.58544 1.06455 -0.08092
 C367 C 0.56717 1.05323 -0.06417
 C368 C 0.54610 1.06729 -0.05696
 C369 C 0.52934 1.05735 -0.03911
 C370 C 0.53349 1.03321 -0.02802
 C371 C 0.55426 1.01883 -0.03612
 C372 C 0.57105 1.02883 -0.05396
 H373 H 0.65360 1.08341 -0.16861
 H374 H 0.66019 1.14476 -0.10414
 H375 H 0.69345 1.16859 -0.12622
 H376 H 0.68675 1.10716 -0.19126
 H377 H 0.54283 1.08615 -0.06482
 H378 H 0.51317 1.06866 -0.03397
 H379 H 0.55812 1.00028 -0.02819
 H380 H 0.58733 1.01778 -0.05938
 C381 C 0.34236 0.83723 -0.13570
 C382 C 0.35061 0.86264 -0.14181
 C383 C 0.33720 0.87490 -0.16156
 C384 C 0.31525 0.86210 -0.17470
 C385 C 0.30631 0.83686 -0.16816
 C386 C 0.32041 0.82438 -0.14880
 C387 C 0.37158 0.87695 -0.12641
 C388 C 0.38833 0.88942 -0.11273
 C389 C 0.40687 0.90458 -0.09581
 C390 C 0.42169 0.91800 -0.08059
 C391 C 0.43799 0.93460 -0.06150
 C392 C 0.46090 0.94678 -0.06875
 C393 C 0.47555 0.96438 -0.05038
 C394 C 0.46728 0.97010 -0.02468
 C395 C 0.44457 0.95724 -0.01744
 C396 C 0.43006 0.93965 -0.03572
 H397 H 0.35255 0.82757 -0.12038
 H398 H 0.34332 0.89466 -0.16633
 H399 H 0.30496 0.87243 -0.18937
 H400 H 0.31438 0.80487 -0.14343
 H401 H 0.46715 0.94310 -0.08870
 H402 H 0.49282 0.97420 -0.05658
 H403 H 0.43794 0.96092 0.00235
 H404 H 0.41238 0.93032 -0.02988
 C405 C 0.66401 0.84166 0.10506
 C406 C 0.65689 0.86635 0.11565
 C407 C 0.66858 0.87775 0.13967
 C408 C 0.68739 0.86463 0.15304
 C409 C 0.69485 0.83983 0.14256
 C410 C 0.68285 0.82847 0.11841
 C411 C 0.63780 0.88028 0.10192
 C412 C 0.62197 0.89254 0.09090
 C413 C 0.60363 0.90757 0.07858
 C414 C 0.58812 0.92095 0.06858
 C415 C 0.56980 0.93756 0.05729
 C416 C 0.54908 0.94523 0.07173
 C417 C 0.53202 0.96254 0.06151
 C418 C 0.53549 0.97259 0.03670
 C419 C 0.55604 0.96420 0.02209
 C420 C 0.57312 0.94690 0.03236
 H421 H 0.65506 0.83264 0.08648
 H422 H 0.66325 0.89689 0.14803
 H423 H 0.69620 0.87419 0.17141
 H424 H 0.68789 0.80937 0.10977
 H425 H 0.54625 0.93804 0.09101
 H426 H 0.51607 0.96796 0.07307
 H427 H 0.55941 0.97141 0.00306
 H428 H 0.58913 0.94111 0.02102
   
