data_POSCAR
  _audit_creation_date              2014-09-24
  _audit_creation_method            'ToBaCCo'
  _symmetry_space_group_name_H-M    'P1'
  _symmetry_Int_Tables_number       1
  _symmetry_cell_setting            triclinic
  loop_
  _symmetry_equiv_pos_as_xyz
 x,y,z
_cell_length_a 33.3569
_cell_length_b 34.3264
_cell_length_c 32.3844
_cell_angle_alpha 92.411200
_cell_angle_beta 89.908600
_cell_angle_gamma 93.549200
loop_
  _atom_site_label
  _atom_site_type_symbol
  _atom_site_fract_x
  _atom_site_fract_y
  _atom_site_fract_z
C1 C 0.18093 0.52657 1.04846
 H2 H 0.17685 0.54599 1.02356
 C3 C 0.15247 0.52382 1.07998
 H4 H 0.12770 0.54263 1.07905
 C5 C 0.21977 0.48051 1.07963
 H6 H 0.24603 0.46357 1.07921
 C7 C 0.19209 0.47681 1.11188
 H8 H 0.19753 0.45574 1.13478
 N9 N 0.21326 0.50444 1.04830
 C10 C 0.30401 0.56329 0.97220
 H11 H 0.30015 0.54666 0.94320
 C12 C 0.33174 0.59543 0.97504
 H13 H 0.34945 0.60311 0.94819
 C14 C 0.28694 0.57227 1.04288
 H15 H 0.26965 0.56285 1.06932
 C16 C 0.31488 0.60428 1.04726
 H17 H 0.31893 0.61938 1.07714
 Zn18 Zn 0.24698 0.50658 1.00132
 N19 N 0.28246 0.55215 1.00590
 C20 C 0.21074 0.54349 0.93560
 N21 N 0.21322 0.50903 0.95448
 C22 C 0.18958 0.47690 0.94228
 C23 C 0.16234 0.47862 0.90979
 C24 C 0.18414 0.54643 0.90286
 C25 C 0.31703 0.46494 0.98763
 C26 C 0.33987 0.43226 0.98447
 C27 C 0.28081 0.39174 1.00110
 C28 C 0.25880 0.42519 1.00304
 N29 N 0.27714 0.46102 0.99661
 H30 H 0.22832 0.56922 0.94677
 H31 H 0.19129 0.45006 0.95817
 H32 H 0.14368 0.45279 0.90058
 H33 H 0.18198 0.57435 0.88891
 H34 H 0.33144 0.49341 0.98307
 H35 H 0.37163 0.43602 0.97758
 H36 H 0.26600 0.36353 1.00687
 H37 H 0.22724 0.42260 1.01073
 C38 C 0.33791 0.61596 1.01310
 C39 C 0.15698 0.49794 1.11222
 C40 C 0.32183 0.39515 0.99148
 C41 C 0.15930 0.51380 0.88977
 C42 C 0.82433 0.50150 -0.04049
 H43 H 0.83504 0.50404 -0.00906
 C44 C 0.85197 0.50613 -0.07225
 H45 H 0.88346 0.51162 -0.06458
 C46 C 0.77047 0.49489 -0.08832
 H47 H 0.73852 0.49155 -0.09419
 C48 C 0.79734 0.49944 -0.12135
 H49 H 0.78594 0.49860 -0.15268
 N50 N 0.78446 0.49496 -0.04883
 C51 C 0.67715 0.52742 -0.00411
 H52 H 0.66363 0.49806 -0.00778
 C53 C 0.65286 0.55901 -0.00486
 H54 H 0.62069 0.55360 -0.00839
 C55 C 0.73538 0.57021 0.00424
 H56 H 0.76770 0.57423 0.00698
 C57 C 0.71205 0.60275 0.00426
 H58 H 0.72653 0.63185 0.00724
 Zn59 Zn 0.74958 0.48972 -0.00270
 N60 N 0.71762 0.53346 0.00033
 C61 C 0.78404 0.51438 0.07654
 N62 N 0.78169 0.48688 0.04502
 C63 C 0.80412 0.45518 0.04497
 C64 C 0.83202 0.45125 0.07612
 C65 C 0.81125 0.51124 0.10893
 C66 C 0.70583 0.42168 -0.04080
 C67 C 0.67683 0.39035 -0.03988
 C68 C 0.67141 0.40181 0.03392
 C69 C 0.69965 0.43320 0.03147
 N70 N 0.71568 0.44310 -0.00552
 H71 H 0.76533 0.53896 0.07636
 H72 H 0.80147 0.43373 0.01950
 H73 H 0.85094 0.42676 0.07388
 H74 H 0.81275 0.53336 0.13380
 H75 H 0.71915 0.42963 -0.06989
 H76 H 0.66760 0.37512 -0.06857
 H77 H 0.65892 0.39494 0.06381
 H78 H 0.70809 0.45049 0.05913
 C79 C 0.67027 0.59725 -0.00078
 C80 C 0.83878 0.50457 -0.11335
 C81 C 0.65836 0.38079 -0.00223
 C82 C 0.83621 0.47961 0.10864
 C83 C 0.02327 0.30364 0.47919
 H84 H 0.04492 0.30854 0.50394
 C85 C 0.02551 0.32742 0.44539
 H86 H 0.04838 0.35116 0.44599
 C87 C -0.03358 0.26753 0.45081
 H88 H -0.05589 0.24349 0.45253
 C89 C -0.03280 0.29090 0.41652
 H90 H -0.05462 0.28371 0.39228
 N91 N -0.00624 0.27479 0.48163
 C92 C -0.04382 0.17179 0.53915
 H93 H -0.01350 0.16373 0.54415
 C94 C -0.07521 0.14320 0.54015
 H95 H -0.06839 0.11336 0.54536
 C96 C -0.08924 0.21982 0.52468
 H97 H -0.09449 0.24964 0.51786
 C98 C -0.12167 0.19196 0.52522
 H99 H -0.15173 0.20071 0.51951
 Zn100 Zn -0.00615 0.24613 0.53004
 N101 N -0.05115 0.20935 0.53160
 C102 C -0.04218 0.29635 0.58824
 N103 N -0.00662 0.28279 0.57535
 C104 C 0.02896 0.29933 0.59006
 C105 C 0.02965 0.33175 0.61762
 C106 C -0.04286 0.32880 0.61550
 C107 C 0.05872 0.21071 0.49287
 C108 C 0.09210 0.18826 0.49050
 C109 C 0.09042 0.18437 0.56482
 C110 C 0.05683 0.20676 0.56575
 N111 N 0.04165 0.21926 0.53003
 H112 H -0.07010 0.28324 0.57607
 H113 H 0.05694 0.28883 0.57859
 H114 H 0.05823 0.34581 0.62738
 H115 H -0.07141 0.34008 0.62431
 H116 H 0.04562 0.22024 0.46480
 H117 H 0.10413 0.18055 0.46039
 H118 H 0.10201 0.17454 0.59354
 H119 H 0.04236 0.21356 0.59486
 C120 C -0.11478 0.15308 0.53318
 C121 C -0.00317 0.32189 0.41336
 C122 C 0.10816 0.17437 0.52672
 C123 C -0.00659 0.34754 0.62954
 C124 C 1.03625 0.69952 0.51979
 H125 H 1.05514 0.69258 0.49375
 C126 C 1.03673 0.67706 0.55461
 H127 H 1.05554 0.65246 0.55463
 C128 C 0.98823 0.73943 0.55100
 H129 H 0.96999 0.76427 0.54983
 C130 C 0.98769 0.71764 0.58646
 H131 H 0.96863 0.72566 0.61215
 N132 N 1.01166 0.72955 0.51821
 C133 C 0.97172 0.82755 0.46213
 H134 H 1.00136 0.84013 0.45534
 C135 C 0.93925 0.85133 0.46363
 H136 H 0.94435 0.88217 0.45829
 C137 C 0.92919 0.77257 0.47870
 H138 H 0.92559 0.74186 0.48504
 C139 C 0.89594 0.79534 0.48083
 H140 H 0.86675 0.78187 0.48825
 Zn141 Zn 1.01115 0.75742 0.46900
 N142 N 0.96622 0.78890 0.46959
 C143 C 0.97159 0.70969 0.40613
 N144 N 1.00793 0.72097 0.42320
 C145 C 1.04183 0.70383 0.41056
 C146 C 1.03953 0.67242 0.38160
 C147 C 0.96788 0.67824 0.37744
 C148 C 1.07909 0.79921 0.50256
 C149 C 1.11212 0.82622 0.50309
 C150 C 1.10495 0.83108 0.42929
 C151 C 1.07188 0.80408 0.43020
 N152 N 1.05922 0.78938 0.46663
 H153 H 0.94503 0.72386 0.41587
 H154 H 1.07046 0.71347 0.42430
 H155 H 1.06644 0.65773 0.37353
 H156 H 0.93846 0.66851 0.36553
 H157 H 1.06825 0.78743 0.53121
 H158 H 1.12600 0.83524 0.53243
 H159 H 1.11403 0.84319 0.40014
 H160 H 1.05548 0.79576 0.40208
 C161 C 0.90079 0.83529 0.47328
 C162 C 1.01186 0.68573 0.58835
 C163 C 1.12486 0.84332 0.46630
 C164 C 1.00195 0.65849 0.36584
 C165 C 0.45753 -0.01609 0.30767
 H166 H 0.47903 -0.03844 0.30729
 C167 C 0.42668 -0.01654 0.33694
 H168 H 0.42419 -0.03997 0.35831
 C169 C 0.43516 0.04169 0.28028
 H170 H 0.43914 0.06482 0.25874
 C171 C 0.40418 0.04262 0.30927
 H172 H 0.38477 0.06676 0.30966
 N173 N 0.46115 0.01270 0.28008
 C174 C 0.53579 -0.03076 0.17972
 H175 H 0.55728 -0.00591 0.17828
 C176 C 0.53855 -0.06258 0.15191
 H177 H 0.56186 -0.06061 0.12874
 C178 C 0.47805 -0.06069 0.21043
 H179 H 0.45438 -0.05972 0.23318
 C180 C 0.47951 -0.09320 0.18304
 H181 H 0.45737 -0.11714 0.18676
 Zn182 Zn 0.50618 0.01463 0.24445
 N183 N 0.50634 -0.03058 0.20868
 C184 C 0.57848 -0.01133 0.27577
 N185 N 0.55261 0.01778 0.27863
 C186 C 0.55699 0.04667 0.30867
 C187 C 0.58820 0.04678 0.33754
 C188 C 0.60998 -0.01234 0.30388
 C189 C 0.47748 0.05288 0.17828
 C190 C 0.47461 0.08173 0.14959
 C191 C 0.52575 0.12131 0.18746
 C192 C 0.52837 0.09117 0.21502
 N193 N 0.50422 0.05784 0.21002
 H194 H 0.57389 -0.03482 0.25275
 H195 H 0.53547 0.06897 0.31099
 H196 H 0.59097 0.06982 0.36142
 H197 H 0.62918 -0.03665 0.30178
 H198 H 0.45869 0.02610 0.17499
 H199 H 0.45341 0.07718 0.12429
 H200 H 0.54501 0.14776 0.19160
 H201 H 0.54969 0.09441 0.24018
 C202 C 0.51044 -0.09503 0.15320
 C203 C 0.39967 0.01336 0.33836
 C204 C 0.49890 0.11642 0.15404
 C205 C 0.61497 0.01669 0.33565
 C206 C 0.54259 -0.04690 0.69177
 H207 H 0.51714 -0.06800 0.68944
 C208 C 0.57261 -0.04740 0.66185
 H209 H 0.57047 -0.06935 0.63680
 C210 C 0.57552 0.00817 0.72665
 H211 H 0.57587 0.03042 0.75128
 C212 C 0.60669 0.00832 0.69762
 H213 H 0.63114 0.03056 0.70027
 N214 N 0.54426 -0.01918 0.72308
 C215 C 0.46389 -0.06747 0.81751
 H216 H 0.44067 -0.04679 0.81877
 C217 C 0.46298 -0.09793 0.84500
 H218 H 0.43857 -0.10081 0.86694
 C219 C 0.52443 -0.08818 0.78804
 H220 H 0.54895 -0.08376 0.76660
 C221 C 0.52462 -0.11904 0.81478
 H222 H 0.54947 -0.13791 0.81350
 Zn223 Zn 0.49774 -0.01865 0.75662
 N224 N 0.49446 -0.06302 0.78992
 C225 C 0.42161 -0.04442 0.71812
 N226 N 0.45440 -0.01872 0.71884
 C227 C 0.45916 0.00930 0.69052
 C228 C 0.42982 0.01334 0.66085
 C229 C 0.39121 -0.04135 0.68872
 C230 C 0.52613 0.03448 0.82177
 C231 C 0.52471 0.06727 0.84895
 C232 C 0.46488 0.08458 0.81405
 C233 C 0.46738 0.05164 0.78774
 N234 N 0.49769 0.02731 0.79183
 H235 H 0.41877 -0.06692 0.74050
 H236 H 0.48585 0.02891 0.69137
 H237 H 0.43436 0.03602 0.63875
 H238 H 0.36473 -0.06123 0.68906
 H239 H 0.54957 0.01439 0.82493
 H240 H 0.54711 0.07210 0.87308
 H241 H 0.44056 0.10352 0.80986
 H242 H 0.44450 0.04529 0.76450
 C243 C 0.49388 -0.12403 0.84412
 C244 C 0.60493 -0.01931 0.66433
 C245 C 0.49346 0.09264 0.84551
 C246 C 0.39493 -0.01168 0.66003
 C247 C 0.22537 0.05626 0.50531
 C248 C 0.25043 0.04900 0.54340
 C249 C 0.27306 0.01734 0.53958
 C250 C 0.26785 -0.00511 0.49752
 C251 C 0.25602 0.05799 0.46963
 C252 C 0.27813 0.02589 0.46554
 C253 C 0.20060 0.01793 0.49637
 C254 C 0.22238 -0.01411 0.49212
 H255 H 0.25096 0.06841 0.57066
 H256 H 0.28565 -0.03130 0.49382
 H257 H 0.26053 0.08198 0.44932
 H258 H 0.16825 0.01655 0.49267
 C259 C 0.77735 -0.05326 0.49551
 C260 C 0.74649 -0.05639 0.53085
 C261 C 0.72447 -0.02444 0.53603
 C262 C 0.73469 0.00781 0.50553
 C263 C 0.75220 -0.04479 0.45762
 C264 C 0.73003 -0.01281 0.46247
 C265 C 0.80197 -0.01510 0.50582
 C266 C 0.78002 0.01666 0.51107
 H267 H 0.74126 -0.08143 0.54967
 H268 H 0.71707 0.03401 0.51037
 H269 H 0.75063 -0.06393 0.43015
 H270 H 0.83438 -0.01348 0.50913
 C271 C 0.43838 0.27676 0.99492
 C272 C 0.44120 0.24715 0.95838
 C273 C 0.47488 0.22646 0.95823
 C274 C 0.50341 0.23796 0.99470
 C275 C 0.44294 0.25224 1.03334
 C276 C 0.47685 0.23191 1.03305
 C277 C 0.47748 0.30222 0.99361
 C278 C 0.51143 0.28248 0.99377
 H279 H 0.41736 0.24185 0.93581
 H280 H 0.53118 0.22175 0.99508
 H281 H 0.42028 0.24809 1.05686
 H282 H 0.47806 0.33385 0.99423
 C283 C 0.55461 0.71744 0.00537
 C284 C 0.54708 0.73901 -0.03429
 C285 C 0.51428 0.76093 -0.03271
 C286 C 0.49139 0.75874 0.00853
 C287 C 0.55648 0.75009 0.03959
 C288 C 0.52342 0.77169 0.04130
 C289 C 0.51519 0.69390 0.01351
 C290 C 0.48225 0.71507 0.01487
 H291 H 0.56827 0.73976 -0.05965
 H292 H 0.46412 0.77569 0.00978
 H293 H 0.58161 0.75655 0.06018
 H294 H 0.51340 0.66251 0.01659
 C295 C 0.99617 0.43525 0.28653
 C296 C 0.96082 0.43364 0.25604
 C297 C 0.96054 0.46478 0.23123
 C298 C 0.99645 0.49467 0.23890
 C299 C 1.03335 0.43953 0.25861
 C300 C 1.03371 0.47065 0.23381
 C301 C 0.99444 0.47474 0.30982
 C302 C 0.99467 0.50576 0.28517
 H303 H 0.93824 0.40975 0.25390
 H304 H 0.99699 0.52034 0.21920
 H305 H 1.05603 0.41828 0.25671
 H306 H 0.99383 0.47785 0.34325
 C307 C 0.00313 0.57101 0.71516
 C308 C -0.03360 0.56716 0.74375
 C309 C -0.03587 0.53405 0.76587
 C310 C 0.00011 0.50839 0.75807
 C311 C 0.03885 0.56870 0.74457
 C312 C 0.03780 0.53580 0.76678
 C313 C 0.00169 0.53279 0.68905
 C314 C 0.00011 0.50015 0.71129
 H315 H -0.05437 0.58991 0.74810
 H316 H -0.00090 0.48104 0.77501
 H317 H 0.06162 0.59232 0.74923
 H318 H 0.00191 0.53182 0.65556
 C319 C 0.14072 0.11500 0.54940
 C320 C 0.14116 0.14723 0.52413
 C321 C 0.17172 0.15166 0.49444
 C322 C 0.19996 0.12348 0.48867
 C323 C 0.19835 0.09011 0.51264
 C324 C 0.16904 0.08704 0.54389
 H325 H 0.11743 0.11038 0.57230
 H326 H 0.17343 0.17669 0.47511
 H327 H 0.22220 0.12808 0.46493
 H328 H 0.16715 0.06194 0.56316
 C329 C 0.64825 0.66128 0.02865
 C330 C 0.64452 0.63089 -0.00172
 C331 C 0.61430 0.63152 -0.03170
 C332 C 0.58722 0.66092 -0.03024
 C333 C 0.58918 0.69032 0.00151
 C334 C 0.62077 0.69056 0.03048
 H335 H 0.67128 0.66136 0.05219
 H336 H 0.61110 0.60870 -0.05581
 H337 H 0.56339 0.65976 -0.05303
 H338 H 0.62391 0.71209 0.05564
 C339 C 0.83954 -0.14251 0.51018
 C340 C 0.86636 -0.13947 0.47682
 C341 C 0.86140 -0.11068 0.44813
 C342 C 0.83125 -0.08454 0.45352
 C343 C 0.80517 -0.08638 0.48774
 C344 C 0.80944 -0.11617 0.51577
 H345 H 0.84301 -0.16418 0.53306
 H346 H 0.88137 -0.10791 0.42187
 H347 H 0.82924 -0.06172 0.43164
 H348 H 0.79106 -0.11857 0.54307
 C349 C 0.34746 0.33651 1.02389
 C350 C 0.34650 0.36072 0.99011
 C351 C 0.37193 0.35398 0.95643
 C352 C 0.39925 0.32484 0.95737
 C353 C 0.40253 0.30218 0.99237
 C354 C 0.37538 0.30772 1.02524
 H355 H 0.32814 0.34133 1.05029
 H356 H 0.37149 0.37211 0.92987
 H357 H 0.41958 0.32143 0.93154
 H358 H 0.37639 0.29143 1.05291
 C359 C 0.82289 0.11974 0.50098
 C360 C 0.85215 0.12213 0.53243
 C361 C 0.85227 0.09225 0.56076
 C362 C 0.82637 0.05903 0.55546
 C363 C 0.79950 0.05526 0.52211
 C364 C 0.79658 0.08645 0.49593
 H365 H 0.82217 0.14229 0.47865
 H366 H 0.87377 0.09374 0.58589
 H367 H 0.82873 0.03528 0.57617
 H368 H 0.77613 0.08381 0.46987
 C369 C 0.39912 0.64493 0.04977
 C370 C 0.37105 0.64663 0.01774
 C371 C 0.37746 0.67502 -0.01206
 C372 C 0.41244 0.69983 -0.01108
 C373 C 0.44174 0.69597 0.01921
 C374 C 0.43431 0.66916 0.05028
 H375 H 0.39510 0.62314 0.07290
 H376 H 0.35612 0.67699 -0.03694
 H377 H 0.41783 0.72013 -0.03549
 H378 H 0.45666 0.66575 0.07388
 C379 C 0.18770 -0.12089 0.49538
 C380 C 0.15504 -0.12291 0.46764
 C381 C 0.14857 -0.09028 0.44433
 C382 C 0.17228 -0.05571 0.45062
 C383 C 0.20297 -0.05283 0.48043
 C384 C 0.21161 -0.08610 0.50160
 H385 H 0.19381 -0.14574 0.51336
 H386 H 0.12358 -0.09053 0.42302
 H387 H 0.16548 -0.03057 0.43337
 H388 H 0.23522 -0.08454 0.52462
 C389 C 0.61924 0.31839 0.97303
 C390 C 0.62284 0.35233 0.99917
 C391 C 0.59077 0.36055 1.02567
 C392 C 0.55570 0.33647 1.02522
 C393 C 0.55130 0.30368 0.99790
 C394 C 0.58372 0.29409 0.97257
 H395 H 0.64355 0.31101 0.95254
 H396 H 0.59191 0.38665 1.04571
 H397 H 0.53134 0.34425 1.04551
 H398 H 0.58093 0.26891 0.95124
 C399 C 0.50112 0.13780 1.08128
 C400 C 0.49604 0.14699 1.12355
 C401 C 0.48614 0.18482 1.13616
 C402 C 0.48011 0.21266 1.10676
 C403 C 0.48486 0.20332 1.06445
 C404 C 0.49605 0.16588 1.05201
 H405 H 0.50875 0.10876 1.07096
 H406 H 0.48187 0.19239 1.16861
 H407 H 0.47167 0.24146 1.11700
 H408 H 0.49956 0.15792 1.01954
 C409 C 0.04507 0.64544 0.63947
 C410 C 0.01005 0.66047 0.62438
 C411 C -0.02711 0.64872 0.64176
 C412 C -0.02934 0.62137 0.67256
 C413 C 0.00567 0.60574 0.68743
 C414 C 0.04288 0.61815 0.67023
 H415 H 0.07415 0.65399 0.62667
 H416 H -0.05471 0.65909 0.63001
 H417 H -0.05878 0.61118 0.68305
 H418 H 0.07033 0.60556 0.67925
 C419 C 0.50910 0.80815 -0.13647
 C420 C 0.49555 0.84508 -0.12506
 C421 C 0.48590 0.85308 -0.08341
 C422 C 0.49091 0.82533 -0.05371
 C423 C 0.50563 0.78887 -0.06492
 C424 C 0.51409 0.78038 -0.10676
 H425 H 0.51619 0.80082 -0.16839
 H426 H 0.47603 0.88142 -0.07343
 H427 H 0.48485 0.83321 -0.02170
 H428 H 0.52490 0.75236 -0.11651
 C429 C 1.03278 0.36815 0.36782
 C430 C 0.99713 0.34740 0.37997
 C431 C 0.96131 0.35437 0.35917
 C432 C 0.96095 0.38178 0.32858
 C433 C 0.99661 0.40225 0.31647
 C434 C 1.03240 0.39525 0.33693
 H435 H 1.06149 0.36330 0.38152
 H436 H 0.93267 0.34087 0.36825
 H437 H 0.93215 0.38790 0.31603
 H438 H 1.06024 0.41142 0.32970
 C439 C 0.47951 0.84655 0.11507
 C440 C 0.51341 0.87183 0.12559
 C441 C 0.55064 0.86296 0.10769
 C442 C 0.55376 0.83059 0.08061
 C443 C 0.51992 0.80585 0.07035
 C444 C 0.48276 0.81423 0.08771
 H445 H 0.44988 0.85218 0.12650
 H446 H 0.57815 0.87995 0.11549
 H447 H 0.58284 0.82517 0.06741
 H448 H 0.45613 0.79557 0.08044
 C449 C 0.01854 0.39400 0.68704
 C450 C -0.00647 0.38566 0.65253
 C451 C -0.02999 0.41488 0.63830
 C452 C -0.02800 0.45197 0.65764
 C453 C -0.00272 0.46048 0.69182
 C454 C 0.02011 0.43110 0.70681
 H455 H 0.03694 0.37189 0.69853
 H456 H -0.04911 0.40935 0.61143
 H457 H -0.04623 0.47407 0.64584
 H458 H 0.03996 0.43714 0.73304
 C459 C 0.52316 0.15016 0.88901
 C460 C 0.48944 0.12658 0.87512
 C461 C 0.45124 0.13588 0.88939
 C462 C 0.44668 0.16825 0.91609
 C463 C 0.48019 0.19232 0.92939
 C464 C 0.51857 0.18269 0.91593
 H465 H 0.55298 0.14391 0.87841
 H466 H 0.42473 0.11778 0.88027
 H467 H 0.41680 0.17394 0.92690
 H468 H 0.54497 0.20067 0.92558
 C469 C 1.02381 0.61250 0.30885
 C470 C 0.99761 0.62098 0.34160
 C471 C 0.96870 0.59211 0.35345
 C472 C 0.96704 0.55500 0.33416
 C473 C 0.99389 0.54617 0.30225
 C474 C 1.02163 0.57540 0.28895
 H475 H 1.04631 0.63435 0.29918
 H476 H 0.94845 0.59776 0.37889
 H477 H 0.94525 0.53288 0.34469
 H478 H 1.04272 0.56902 0.26448
 C479 C 1.08646 0.50057 0.13539
 C480 C 1.12684 0.49259 0.14306
 C481 C 1.13583 0.47817 0.18204
 C482 C 1.10580 0.47146 0.21150
 C483 C 1.06582 0.47894 0.20315
 C484 C 1.05655 0.49382 0.16494
 H485 H 1.07693 0.51009 0.10578
 H486 H 1.16624 0.47305 0.19083
 H487 H 1.11402 0.46080 0.24113
 H488 H 1.02584 0.49904 0.15716
 C489 C 0.62443 -0.02050 0.58973
 C490 C 0.63591 -0.01857 0.63157
 C491 C 0.67690 -0.01722 0.64169
 C492 C 0.70584 -0.01891 0.61045
 C493 C 0.69418 -0.02113 0.56877
 C494 C 0.65340 -0.02150 0.55856
 H495 H 0.59300 -0.02137 0.58120
 H496 H 0.68641 -0.01595 0.67370
 H497 H 0.73732 -0.01864 0.61871
 H498 H 0.64395 -0.02370 0.52656
 C499 C -0.13763 0.53302 0.81988
 C500 C -0.13128 0.50915 0.85306
 C501 C -0.09462 0.49145 0.85568
 C502 C -0.06418 0.49898 0.82712
 C503 C -0.06945 0.52433 0.79489
 C504 C -0.10711 0.54044 0.79102
 H505 H -0.16566 0.54700 0.81699
 H506 H -0.08916 0.47218 0.88043
 H507 H -0.03636 0.48543 0.83143
 H508 H -0.11314 0.55903 0.76590
 C509 C 0.33036 0.02934 0.36175
 C510 C 0.36780 0.01485 0.37062
 C511 C 0.37485 0.00288 0.41092
 C512 C 0.34544 0.00581 0.44157
 C513 C 0.30862 0.02128 0.43276
 C514 C 0.30124 0.03274 0.39251
 H515 H 0.32343 0.03797 0.33093
 H516 H 0.40350 -0.00781 0.41916
 H517 H 0.35196 -0.00291 0.47248
 H518 H 0.27274 0.04405 0.38472
 C519 C 0.13864 0.53813 0.82153
 C520 C 0.12900 0.51721 0.85691
 C521 C 0.08968 0.50099 0.86156
 C522 C 0.06032 0.50648 0.83203
 C523 C 0.06954 0.52823 0.79711
 C524 C 0.10932 0.54342 0.79188
 H525 H 0.16891 0.55042 0.81682
 H526 H 0.08124 0.48514 0.88878
 H527 H 0.03024 0.49464 0.83750
 H528 H 0.11792 0.55943 0.76484
 C529 C 0.63808 0.02230 0.40976
 C530 C 0.64633 0.01377 0.36785
 C531 C 0.68384 -0.00031 0.35726
 C532 C 0.71149 -0.00766 0.38789
 C533 C 0.70242 -0.00102 0.42991
 C534 C 0.66591 0.01516 0.44043
 H535 H 0.60938 0.03286 0.41907
 H536 H 0.69159 -0.00627 0.32523
 H537 H 0.73986 -0.01901 0.37861
 H538 H 0.65795 0.02077 0.47240
 C539 C 0.88796 0.50959 0.15918
 C540 C 0.86707 0.47624 0.14124
 C541 C 0.87707 0.43927 0.15350
 C542 C 0.90773 0.43562 0.18197
 C543 C 0.92862 0.46888 0.20002
 C544 C 0.91820 0.50595 0.18843
 H545 H 0.88146 0.53855 0.15017
 H546 H 0.86125 0.41289 0.14109
 H547 H 0.91520 0.40649 0.18930
 H548 H 0.93302 0.53227 0.20217
 C549 C 0.34207 -0.03656 0.60794
 C550 C 0.36241 -0.00530 0.63022
 C551 C 0.35247 0.03297 0.62299
 C552 C 0.32355 0.04003 0.59376
 C553 C 0.30334 0.00899 0.57108
 C554 C 0.31291 -0.02943 0.57841
 H555 H 0.34930 -0.06635 0.61272
 H556 H 0.36723 0.05766 0.63997
 H557 H 0.31771 0.07007 0.58841
 H558 H 0.29777 -0.05395 0.56157
   
