data_POSCAR
  _audit_creation_date              2014-09-24
  _audit_creation_method            'ToBaCCo'
  _symmetry_space_group_name_H-M    'P1'
  _symmetry_Int_Tables_number       1
  _symmetry_cell_setting            triclinic
  loop_
  _symmetry_equiv_pos_as_xyz
 x,y,z
_cell_length_a 40.6271
_cell_length_b 40.4913
_cell_length_c 40.4467
_cell_angle_alpha 89.934800
_cell_angle_beta 90.001200
_cell_angle_gamma 89.935200
loop_
  _atom_site_label
  _atom_site_type_symbol
  _atom_site_fract_x
  _atom_site_fract_y
  _atom_site_fract_z
C1 C 0.18959 1.23144 0.19005
 N2 N 0.21687 1.21751 0.17659
 C3 C 0.23037 1.19020 0.19059
 N4 N 0.21637 1.17660 0.21785
 C5 C 0.18909 1.19050 0.23133
 N6 N 0.17560 1.21782 0.21731
 C7 C 0.81155 0.76828 0.19038
 N8 N 0.82523 0.78217 0.21763
 C9 C 0.81134 0.80937 0.23140
 N10 N 0.78396 0.82289 0.21769
 C11 C 0.77028 0.80901 0.19044
 N12 N 0.78418 0.78182 0.17668
 C13 C 0.80981 1.23098 -0.19039
 N14 N 0.78260 1.21732 -0.17656
 C15 C 0.76881 1.19006 -0.19025
 N16 N 0.78246 1.17624 -0.21756
 C17 C 0.80968 1.18988 -0.23140
 N18 N 0.82345 1.21715 -0.21770
 C19 C 0.18941 0.76925 -0.19087
 N20 N 0.21667 0.78286 -0.17712
 C21 C 0.23042 0.81016 -0.19082
 N22 N 0.21667 0.82409 -0.21806
 C23 C 0.18941 0.81050 -0.23183
 N24 N 0.17567 0.78319 -0.21811
 C25 C 0.55015 1.04503 -0.00923
 H26 H 0.55079 1.04482 0.01751
 C27 C 0.57276 1.06407 -0.02690
 H28 H 0.59082 1.07870 -0.01376
 C29 C 0.52657 1.02535 -0.05912
 H30 H 0.50903 1.00967 -0.07157
 C31 C 0.54877 1.04403 -0.07774
 H32 H 0.54808 1.04292 -0.10449
 N33 N 0.52760 1.02627 -0.02548
 C34 C 0.44964 1.00902 0.04655
 H35 H 0.44904 0.98231 0.04640
 C36 C 0.42701 1.02665 0.06560
 H37 H 0.40896 1.01352 0.08029
 C38 C 0.47313 1.05886 0.02668
 H39 H 0.49063 1.07131 0.01093
 C40 C 0.45089 1.07745 0.04537
 H41 H 0.45153 1.10417 0.04418
 Zn42 Zn 0.49988 0.99924 0.00060
 N43 N 0.47215 1.02526 0.02768
 C44 C 0.52675 0.97310 0.06024
 N45 N 0.52767 0.97215 0.02660
 C46 C 0.55018 0.95335 0.01029
 C47 C 0.57288 0.93430 0.02789
 C48 C 0.54905 0.95441 0.07880
 C49 C 0.44953 0.98962 -0.04522
 C50 C 0.42688 0.97207 -0.06428
 C51 C 0.45082 0.92118 -0.04421
 C52 C 0.47307 0.93969 -0.02550
 N53 N 0.47209 0.97330 -0.02643
 H54 H 0.50924 0.98881 0.07274
 H55 H 0.55074 0.95354 -0.01645
 H56 H 0.59093 0.91965 0.01470
 H57 H 0.54845 0.95555 0.10555
 H58 H 0.44893 1.01633 -0.04502
 H59 H 0.40882 0.98527 -0.07893
 H60 H 0.45148 0.89446 -0.04309
 H61 H 0.49061 0.92718 -0.00981
 C62 C 0.42756 1.06117 0.06489
 C63 C 0.57213 1.06346 -0.06145
 C64 C 0.42747 0.93755 -0.06366
 C65 C 0.57238 0.93495 0.06244
 C66 C -0.00876 0.55088 1.04540
 H67 H 0.01786 0.55150 1.04519
 C68 C -0.02633 0.57354 1.06450
 H69 H -0.01324 0.59163 1.07918
 C70 C -0.05844 0.52727 1.02567
 H71 H -0.07085 0.50971 1.00996
 C72 C -0.07696 0.54953 1.04442
 H73 H -0.10360 0.54885 1.04331
 N74 N -0.02495 0.52828 1.02659
 C75 C 0.04671 0.44995 1.00931
 H76 H 0.04654 0.44936 0.98257
 C77 C 0.06568 0.42721 1.02696
 H78 H 0.08030 0.40909 1.01382
 C79 C 0.02699 0.47354 1.05921
 H80 H 0.01132 0.49112 1.07167
 C81 C 0.04561 0.45120 1.07782
 H82 H 0.04445 0.45184 1.10457
 Zn83 Zn 0.00098 0.50045 0.99952
 N84 N 0.02796 0.47257 1.02557
 C85 C 0.06036 0.52730 0.97336
 N86 N 0.02687 0.52831 0.97244
 C87 C 0.01063 0.55094 0.95362
 C88 C 0.02815 0.57366 0.93454
 C89 C 0.07883 0.54961 0.95463
 C90 C -0.04466 0.45001 0.98982
 C91 C -0.06367 0.42735 0.97221
 C92 C -0.04371 0.45140 0.92131
 C93 C -0.02506 0.47366 0.93988
 N94 N -0.02596 0.47263 0.97351
 H95 H 0.07281 0.50970 0.98908
 H96 H -0.01599 0.55156 0.95383
 H97 H 0.01502 0.59179 0.91987
 H98 H 0.10547 0.54894 0.95576
 H99 H -0.04444 0.44936 1.01656
 H100 H -0.07826 0.40923 0.98539
 H101 H -0.04263 0.45210 0.89456
 H102 H -0.00943 0.49125 0.92737
 C103 C 0.06501 0.42777 1.06152
 C104 C -0.06073 0.57293 1.06390
 C105 C -0.06309 0.42798 0.93766
 C106 C 0.06255 0.57306 0.93516
 C107 C 1.04496 -0.00918 0.55034
 H108 H 1.04472 0.01753 0.55097
 C109 C 1.06397 -0.02682 0.57306
 H110 H 1.07856 -0.01370 0.59120
 C111 C 1.02538 -0.05901 0.52665
 H112 H 1.00977 -0.07146 0.50903
 C113 C 1.04405 -0.07761 0.54897
 H114 H 1.04297 -0.10433 0.54828
 N115 N 1.02626 -0.02541 0.52767
 C116 C 1.00904 0.04652 0.44925
 H117 H 0.98242 0.04634 0.44860
 C118 C 1.02661 0.06559 0.42655
 H119 H 1.01353 0.08028 0.40839
 C120 C 1.05872 0.02674 0.47297
 H121 H 1.07113 0.01101 0.49059
 C122 C 1.07724 0.04545 0.45067
 H123 H 1.10388 0.04431 0.45138
 Zn124 Zn 0.99931 0.00062 0.49977
 N125 N 1.02523 0.02769 0.47192
 C126 C 0.97320 0.06019 0.52662
 N127 N 0.97230 0.02659 0.52762
 C128 C 0.95356 0.01030 0.55024
 C129 C 0.93454 0.02789 0.57296
 C130 C 0.95454 0.07873 0.54894
 C131 C 0.98973 -0.04516 0.44924
 C132 C 0.97224 -0.06425 0.42653
 C133 C 0.92153 -0.04424 0.45053
 C134 C 0.93997 -0.02551 0.47284
 N135 N 0.97346 -0.02640 0.47186
 H136 H 0.98885 0.07268 0.50903
 H137 H 0.95378 -0.01641 0.55086
 H138 H 0.91994 0.01472 0.59109
 H139 H 0.95564 0.10546 0.54828
 H140 H 1.01635 -0.04493 0.44864
 H141 H 0.98540 -0.07889 0.40842
 H142 H 0.89489 -0.04316 0.45120
 H143 H 0.92750 -0.00984 0.49043
 C144 C 1.06101 0.06494 0.42720
 C145 C 1.06341 -0.06133 0.57243
 C146 C 0.93784 -0.06368 0.42712
 C147 C 0.93515 0.06240 0.57238
 C148 C 0.11861 0.35402 1.15089
 C149 C 0.10911 0.31701 1.14915
 C150 C 0.14562 0.30819 1.14454
 C151 C 0.15541 0.34478 1.14656
 C152 C 0.11519 0.35626 1.11312
 C153 C 0.15170 0.34745 1.10850
 C154 C 0.10545 0.31966 1.11114
 C155 C 0.14218 0.31046 1.10678
 C156 C 0.16212 0.28088 1.16160
 C157 C 0.17525 0.25787 1.17519
 C158 C 0.09781 0.38245 1.09521
 C159 C 0.08308 0.40342 1.08006
 H160 H 0.10872 0.37224 1.16882
 H161 H 0.09178 0.30420 1.16605
 H162 H 0.17615 0.35478 1.16133
 H163 H 0.16901 0.36027 1.09158
 H164 H 0.08472 0.30961 1.09638
 H165 H 0.15205 0.29226 1.08882
 C166 C -0.14866 0.65234 1.10986
 C167 C -0.15256 0.65519 1.14789
 C168 C -0.14327 0.69189 1.14561
 C169 C -0.13965 0.68946 1.10788
 C170 C -0.11206 0.64408 1.11470
 C171 C -0.10281 0.68079 1.11246
 C172 C -0.11566 0.64648 1.15244
 C173 C -0.10667 0.68361 1.15043
 C174 C -0.16022 0.71907 1.16239
 C175 C -0.17371 0.74197 1.17576
 C176 C -0.09425 0.61802 1.09707
 C177 C -0.07918 0.59716 1.08216
 H178 H -0.16573 0.63919 1.09298
 H179 H -0.17322 0.64498 1.16265
 H180 H -0.14970 0.70742 1.08973
 H181 H -0.08216 0.69105 1.09771
 H182 H -0.10559 0.62851 1.17056
 H183 H -0.08959 0.69676 1.16730
 C184 C -0.09711 0.32519 0.87355
 C185 C -0.12588 0.30471 0.88799
 C186 C -0.14457 0.30896 0.85524
 C187 C -0.11604 0.32907 0.84053
 C188 C -0.11371 0.35681 0.88634
 C189 C -0.13239 0.36112 0.85358
 C190 C -0.14224 0.33670 0.90103
 C191 C -0.16121 0.34057 0.86801
 C192 C -0.16135 0.28176 0.83838
 C193 C -0.17474 0.25885 0.82499
 C194 C -0.09612 0.38288 0.90411
 C195 C -0.08126 0.40375 0.91918
 H196 H -0.07057 0.31915 0.87602
 H197 H -0.12337 0.28123 0.90197
 H198 H -0.10547 0.32563 0.81547
 H199 H -0.13486 0.38463 0.83965
 H200 H -0.15281 0.34012 0.92610
 H201 H -0.18776 0.34658 0.86553
 C202 C 0.14966 0.65413 0.89087
 C203 C 0.15532 0.65611 0.85301
 C204 C 0.14464 0.69252 0.85372
 C205 C 0.13926 0.69095 0.89129
 C206 C 0.11365 0.64449 0.88451
 C207 C 0.10302 0.68091 0.88519
 C208 C 0.11901 0.64602 0.84694
 C209 C 0.10863 0.68286 0.84738
 C210 C 0.16145 0.71982 0.83701
 C211 C 0.17482 0.74282 0.82369
 C212 C 0.09594 0.61831 0.90208
 C213 C 0.08094 0.59737 0.91694
 H214 H 0.16633 0.64202 0.90895
 H215 H 0.17702 0.64623 0.83958
 H216 H 0.14777 0.70971 0.90935
 H217 H 0.08133 0.69083 0.89861
 H218 H 0.11048 0.62724 0.82890
 H219 H 0.09195 0.69496 0.82931
 C220 C 1.13843 0.09937 0.33351
 C221 C 1.12184 0.11561 0.30310
 C222 C 1.14370 0.14617 0.30791
 C223 C 1.16056 0.13019 0.33794
 C224 C 1.11240 0.11549 0.35585
 C225 C 1.13424 0.14605 0.36073
 C226 C 1.09557 0.13147 0.32581
 C227 C 1.11767 0.16230 0.33024
 C228 C 1.16070 0.16281 0.28066
 C229 C 1.17426 0.17605 0.25770
 C230 C 1.09455 0.09797 0.38199
 C231 C 1.07947 0.08313 0.40291
 H232 H 1.14677 0.07331 0.33515
 H233 H 1.11692 0.10326 0.27911
 H234 H 1.18749 0.12986 0.34262
 H235 H 1.13913 0.15836 0.38474
 H236 H 1.06865 0.13181 0.32110
 H237 H 1.10933 0.18837 0.32859
 C238 C 1.09903 -0.12024 0.67784
 C239 C 1.11255 -0.15594 0.67565
 C240 C 1.14478 -0.14419 0.69165
 C241 C 1.13148 -0.10875 0.69421
 C242 C 1.11399 -0.11286 0.64374
 C243 C 1.14621 -0.10111 0.65973
 C244 C 1.12726 -0.14831 0.64112
 C245 C 1.15978 -0.13684 0.65756
 C246 C 1.16150 -0.16119 0.71888
 C247 C 1.17483 -0.17472 0.74181
 C248 C 1.09643 -0.09499 0.61763
 C249 C 1.08159 -0.07986 0.59672
 H250 H 1.07386 -0.11322 0.68591
 H251 H 1.09890 -0.17867 0.68250
 H252 H 1.13339 -0.09266 0.71633
 H253 H 1.15986 -0.07837 0.65290
 H254 H 1.12533 -0.16436 0.61898
 H255 H 1.18496 -0.14387 0.64954
 C256 C 0.89684 -0.14855 0.34229
 C257 C 0.86022 -0.15921 0.34314
 C258 C 0.85593 -0.14558 0.30794
 C259 C 0.89228 -0.13519 0.30669
 C260 C 0.88685 -0.11455 0.35584
 C261 C 0.88254 -0.10096 0.32062
 C262 C 0.85050 -0.12491 0.35713
 C263 C 0.84594 -0.11158 0.32148
 C264 C 0.83918 -0.16245 0.28070
 C265 C 0.82586 -0.17590 0.25776
 C266 C 0.90451 -0.09687 0.38195
 C267 C 0.91948 -0.08194 0.40285
 H268 H 0.91797 -0.16356 0.35115
 H269 H 0.85084 -0.18336 0.35208
 H270 H 0.90928 -0.13960 0.28567
 H271 H 0.89190 -0.07682 0.31163
 H272 H 0.83353 -0.12048 0.37817
 H273 H 0.82483 -0.09657 0.31262
 C274 C 0.85609 0.09919 0.66395
 C275 C 0.87254 0.11199 0.69599
 C276 C 0.85406 0.14486 0.69186
 C277 C 0.83733 0.13234 0.66020
 C278 C 0.88471 0.11371 0.64382
 C279 C 0.86625 0.14658 0.63963
 C280 C 0.90140 0.12625 0.67549
 C281 C 0.88268 0.15939 0.67175
 C282 C 0.83742 0.16176 0.71917
 C283 C 0.82417 0.17520 0.74217
 C284 C 0.90220 0.09592 0.61764
 C285 C 0.91701 0.08086 0.59669
 H286 H 0.84535 0.07424 0.66045
 H287 H 0.87496 0.09794 0.71945
 H288 H 0.81080 0.13504 0.65423
 H289 H 0.86386 0.16060 0.61615
 H290 H 0.92793 0.12356 0.68150
 H291 H 0.89343 0.18434 0.67526
 C292 C 0.35095 1.15023 0.11387
 C293 C 0.31373 1.14423 0.10813
 C294 C 0.30843 1.14403 0.14574
 C295 C 0.34523 1.15030 0.15178
 C296 C 0.35633 1.11269 0.11523
 C297 C 0.35105 1.11246 0.15285
 C298 C 0.31951 1.10646 0.10924
 C299 C 0.31383 1.10649 0.14708
 C300 C 0.28120 1.16104 0.16229
 C301 C 0.25827 1.17459 0.17545
 C302 C 0.38243 1.09481 0.09780
 C303 C 0.40332 1.07968 0.08302
 H304 H 0.36651 1.16801 0.10002
 H305 H 0.29809 1.15748 0.08992
 H306 H 0.35549 1.16853 0.16947
 H307 H 0.36670 1.09919 0.17103
 H308 H 0.30921 1.08824 0.09156
 H309 H 0.29828 1.08868 0.16092
 C310 C 0.63795 1.14206 -0.13805
 C311 C 0.66608 1.16170 -0.12122
 C312 C 0.69095 1.14474 -0.14426
 C313 C 0.66328 1.12539 -0.16138
 C314 C 0.64318 1.11400 -0.11298
 C315 C 0.66806 1.09707 -0.13603
 C316 C 0.67087 1.13336 -0.09590
 C317 C 0.69612 1.11668 -0.11919
 C318 C 0.71811 1.16144 -0.16123
 C319 C 0.74098 1.17473 -0.17473
 C320 C 0.61715 1.09647 -0.09512
 C321 C 0.59631 1.08163 -0.07999
 H322 H 0.61373 1.15229 -0.14559
 H323 H 0.66557 1.18846 -0.11533
 H324 H 0.66047 1.12230 -0.18850
 H325 H 0.66859 1.07031 -0.14192
 H326 H 0.67371 1.13645 -0.06878
 H327 H 0.72032 1.10641 -0.11161
 C328 C 0.35620 0.84929 -0.12200
 C329 C 0.32003 0.84740 -0.10998
 C330 C 0.30843 0.85551 -0.14522
 C331 C 0.34416 0.85712 -0.15755
 C332 C 0.35629 0.88644 -0.11435
 C333 C 0.34469 0.89456 -0.14959
 C334 C 0.32054 0.88480 -0.10207
 C335 C 0.30856 0.89266 -0.13754
 C336 C 0.28122 0.83875 -0.16200
 C337 C 0.25830 0.82544 -0.17539
 C338 C 0.38237 0.90413 -0.09675
 C339 C 0.40324 0.91914 -0.08187
 H340 H 0.37610 0.83166 -0.11541
 H341 H 0.30959 0.82782 -0.09388
 H342 H 0.35356 0.84555 -0.18056
 H343 H 0.35513 0.91416 -0.16568
 H344 H 0.31110 0.89636 -0.07907
 H345 H 0.28868 0.91032 -0.14411
 C346 C 0.64426 0.87744 0.15104
 C347 C 0.65615 0.84179 0.14367
 C348 C 0.69193 0.85401 0.14481
 C349 C 0.68047 0.88936 0.15246
 C350 C 0.64385 0.88458 0.11373
 C351 C 0.67964 0.89675 0.11490
 C352 C 0.65530 0.84923 0.10607
 C353 C 0.69147 0.86117 0.10750
 C354 C 0.71926 0.83742 0.16166
 C355 C 0.74227 0.82422 0.17505
 C356 C 0.61765 0.90204 0.09597
 C357 C 0.59670 0.91682 0.08091
 H358 H 0.62453 0.88433 0.16874
 H359 H 0.64682 0.81900 0.15571
 H360 H 0.69111 0.90568 0.17172
 H361 H 0.68902 0.91953 0.10288
 H362 H 0.64465 0.83293 0.08680
 H363 H 0.71118 0.85431 0.08977
   
