data_POSCAR
  _audit_creation_date              2014-09-24
  _audit_creation_method            'ToBaCCo'
  _symmetry_space_group_name_H-M    'P1'
  _symmetry_Int_Tables_number       1
  _symmetry_cell_setting            triclinic
  loop_
  _symmetry_equiv_pos_as_xyz
 x,y,z
_cell_length_a 34.7151
_cell_length_b 35.0051
_cell_length_c 35.0104
_cell_angle_alpha 99.208800
_cell_angle_beta 75.824000
_cell_angle_gamma 102.766500
loop_
  _atom_site_label
  _atom_site_type_symbol
  _atom_site_fract_x
  _atom_site_fract_y
  _atom_site_fract_z
O1 O 0.53004 0.49453 0.03540
 O2 O 0.42214 0.48040 0.03210
 O3 O 0.47069 0.43447 0.03597
 O4 O 0.48078 0.54108 0.03420
 O5 O 0.49682 0.53307 -0.03114
 O6 O 0.48716 0.42616 -0.02937
 O7 O 0.43894 0.47212 -0.03316
 O8 O 0.54616 0.48676 -0.02995
 Cu9 Cu 0.47431 0.48847 0.04095
 Cu10 Cu 0.49397 0.47876 -0.03741
 C11 C 0.55653 0.49267 0.00316
 C12 C 0.41207 0.47404 -0.00129
 C13 C 0.47741 0.41206 0.00372
 C14 C 0.49001 0.55532 0.00128
 O15 O -0.03268 0.54878 0.50791
 O16 O -0.01623 0.44647 0.49032
 O17 O -0.02523 0.49883 0.55225
 O18 O -0.02568 0.49626 0.44714
 O19 O 0.04040 0.51741 0.43353
 O20 O 0.04066 0.52116 0.53959
 O21 O 0.04976 0.46827 0.47800
 O22 O 0.03329 0.57028 0.49446
 Cu23 Cu -0.03153 0.49532 0.50082
 Cu24 Cu 0.04768 0.52132 0.48514
 C25 C -0.00248 0.57714 0.50360
 C26 C 0.01965 0.43988 0.48118
 C27 C 0.00764 0.51062 0.56407
 C28 C 0.00703 0.50675 0.42237
 O29 O 0.50193 0.03102 0.56749
 O30 O 0.51959 0.04634 0.46218
 O31 O 0.45708 0.04133 0.52131
 O32 O 0.56448 0.03835 0.50915
 O33 O 0.55144 -0.02613 0.49386
 O34 O 0.44374 -0.02291 0.50471
 O35 O 0.50734 -0.01808 0.44631
 O36 O 0.48818 -0.03318 0.55108
 Cu37 Cu 0.51197 0.04572 0.51661
 Cu38 Cu 0.49625 -0.03150 0.49730
 C39 C 0.49255 -0.00389 0.57726
 C40 C 0.51664 0.01660 0.43621
 C41 C 0.43202 0.00991 0.51490
 C42 C 0.57631 0.00560 0.50005
 C43 C 0.50390 -0.08584 -0.07837
 C44 C 0.50507 -0.04695 -0.08414
 C45 C 0.50563 -0.01747 -0.05199
 C46 C 0.50180 -0.02669 -0.01325
 C47 C 0.49978 -0.06644 -0.00812
 C48 C 0.50231 -0.09577 -0.04072
 C49 C 0.49987 0.00508 0.02127
 C50 C 0.51053 0.00070 0.05652
 C51 C 0.50832 0.03024 0.08887
 C52 C 0.49736 0.06551 0.08532
 C53 C 0.48748 0.07108 0.05041
 C54 C 0.48753 0.04043 0.01922
 H55 H 0.50429 -0.10851 -0.10341
 H56 H 0.50849 0.01258 -0.05765
 H57 H 0.49661 -0.07498 0.02097
 H58 H 0.52134 -0.02525 0.05907
 H59 H 0.49650 0.08873 0.10985
 H60 H 0.47724 0.04449 -0.00632
 C61 C -0.09016 0.49561 1.07936
 C62 C -0.09721 0.49407 1.04137
 C63 C -0.06421 0.49679 1.00871
 C64 C -0.02401 0.50311 1.01372
 C65 C -0.01792 0.50601 1.05264
 C66 C -0.05075 0.50085 1.08521
 C67 C 0.01121 0.50578 0.97858
 C68 C 0.04854 0.49721 0.98061
 C69 C 0.08180 0.50035 0.94823
 C70 C 0.07693 0.50969 0.91245
 C71 C 0.04012 0.51765 0.90916
 C72 C 0.00788 0.51670 0.94254
 H73 H -0.11541 0.49356 1.10473
 H74 H -0.07047 0.49300 0.97944
 H75 H 0.01223 0.51168 1.05809
 H76 H 0.05231 0.48830 1.00737
 H77 H 0.10173 0.50983 0.88670
 H78 H -0.01948 0.52511 0.94013
 C79 C -0.07244 -0.07498 0.50463
 C80 C -0.03251 -0.08024 0.49886
 C81 C -0.00072 -0.04751 0.49401
 C82 C -0.00851 -0.00901 0.49767
 C83 C -0.04923 -0.00457 0.50495
 C84 C -0.08104 -0.03735 0.50696
 C85 C 0.02534 0.02634 0.49427
 C86 C 0.01972 0.06189 0.48429
 C87 C 0.05007 0.09584 0.48341
 C88 C 0.08780 0.09363 0.48967
 C89 C 0.09513 0.05822 0.49778
 C90 C 0.06345 0.02519 0.50122
 H91 H -0.09677 -0.10051 0.50620
 H92 H 0.02990 -0.05254 0.48780
 H93 H -0.05691 0.02435 0.50969
 H94 H -0.00815 0.06367 0.47674
 H95 H 0.11121 0.11987 0.48932
 H96 H 0.06902 -0.00134 0.50912
 C97 C -0.37064 0.49649 0.96851
 C98 C -0.33014 0.49831 0.96900
 C99 C -0.31837 0.49972 1.00485
 C100 C -0.34784 0.50077 1.04052
 C101 C -0.38836 0.49913 1.04005
 C102 C -0.40029 0.49655 1.00400
 C103 C -0.27515 0.50090 1.00388
 C104 C -0.26286 0.48760 1.03191
 C105 C -0.21982 0.48817 1.03142
 C106 C -0.21125 0.46403 1.05543
 C107 C -0.17142 0.46504 1.05776
 C108 C -0.13915 0.49043 1.03622
 C109 C -0.14754 0.51413 1.01161
 C110 C -0.18743 0.51321 1.00935
 H111 H -0.37875 0.49474 0.94023
 H112 H -0.30801 0.49794 0.94116
 H113 H -0.33975 0.50327 1.06887
 H114 H -0.41040 0.49954 1.06793
 H115 H -0.25327 0.51099 0.97799
 H116 H -0.28534 0.47418 1.05577
 H117 H -0.23552 0.44452 1.07279
 H118 H -0.16588 0.44614 1.07668
 H119 H -0.12334 0.53449 0.99522
 H120 H -0.19261 0.53313 0.99132
 C121 C 0.34077 0.47284 1.03142
 C122 C 0.30075 0.47113 1.02899
 C123 C 0.29045 0.46689 0.99201
 C124 C 0.32051 0.46224 0.95742
 C125 C 0.36039 0.46380 0.95975
 C126 C 0.37134 0.46990 0.99676
 C127 C 0.24844 0.46782 0.99025
 C128 C 0.24016 0.48242 0.96063
 C129 C 0.19904 0.48623 0.95876
 C130 C 0.19539 0.51506 0.93700
 C131 C 0.15742 0.51959 0.93381
 C132 C 0.12206 0.49491 0.95180
 C133 C 0.12568 0.46567 0.97331
 C134 C 0.16380 0.46136 0.97679
 H135 H 0.34777 0.47716 1.06049
 H136 H 0.27799 0.47425 1.05608
 H137 H 0.31334 0.45738 0.92842
 H138 H 0.38272 0.46075 0.93232
 H139 H 0.22443 0.45918 1.01533
 H140 H 0.26493 0.49471 0.93781
 H141 H 0.22206 0.53451 0.92273
 H142 H 0.15575 0.54284 0.91760
 H143 H 0.09913 0.44569 0.98690
 H144 H 0.16556 0.43806 0.99284
 C145 C -0.04794 -0.37570 0.51683
 C146 C -0.05384 -0.33710 0.51934
 C147 C -0.02073 -0.30578 0.51313
 C148 C 0.01860 -0.31365 0.50581
 C149 C 0.02459 -0.35222 0.50320
 C150 C -0.00859 -0.38390 0.50818
 C151 C -0.02859 -0.26550 0.51519
 C152 C -0.00145 -0.23615 0.49789
 C153 C -0.00991 -0.19624 0.49896
 C154 C 0.01379 -0.17206 0.47009
 C155 C 0.00666 -0.13432 0.46992
 C156 C -0.02435 -0.12004 0.49873
 C157 C -0.04758 -0.14388 0.52803
 C158 C -0.04032 -0.18145 0.52836
 H159 H -0.07432 -0.39911 0.52115
 H160 H -0.08447 -0.33178 0.52554
 H161 H 0.04491 -0.29020 0.50239
 H162 H 0.05536 -0.35713 0.49703
 H163 H -0.05880 -0.26088 0.52957
 H164 H 0.02742 -0.24185 0.48031
 H165 H 0.03765 -0.18258 0.44733
 H166 H 0.02495 -0.11655 0.44695
 H167 H -0.07104 -0.13316 0.55113
 H168 H -0.05820 -0.19833 0.55212
 C169 C 0.06540 0.39119 0.47046
 C170 C 0.07164 0.35247 0.46563
 C171 C 0.03918 0.32052 0.46481
 C172 C 0.00035 0.32819 0.46760
 C173 C -0.00593 0.36695 0.47273
 C174 C 0.02646 0.39885 0.47457
 C175 C 0.04729 0.28004 0.46130
 C176 C 0.01851 0.24859 0.47148
 C177 C 0.02703 0.20896 0.47191
 C178 C -0.00223 0.18245 0.49503
 C179 C 0.00498 0.14550 0.49806
 C180 C 0.04163 0.13408 0.47784
 C181 C 0.07049 0.16002 0.45366
 C182 C 0.06321 0.19700 0.45048
 H183 H 0.09104 0.41513 0.47158
 H184 H 0.10191 0.34750 0.46318
 H185 H -0.02532 0.30460 0.46563
 H186 H -0.03619 0.37191 0.47519
 H187 H 0.07866 0.27698 0.45281
 H188 H -0.01246 0.25229 0.48307
 H189 H -0.03046 0.19071 0.51161
 H190 H -0.01770 0.12627 0.51718
 H191 H 0.09867 0.15164 0.43714
 H192 H 0.08595 0.21582 0.43111
 C193 C 0.47880 -0.04907 -0.37256
 C194 C 0.47682 -0.05587 -0.33389
 C195 C 0.48407 -0.02439 -0.30470
 C196 C 0.49183 0.01440 -0.31469
 C197 C 0.49388 0.02129 -0.35349
 C198 C 0.48799 -0.01039 -0.38315
 C199 C 0.48285 -0.03366 -0.26448
 C200 C 0.50009 -0.00851 -0.23751
 C201 C 0.50058 -0.01906 -0.19821
 C202 C 0.52891 0.00411 -0.17723
 C203 C 0.53065 -0.00491 -0.14026
 C204 C 0.50410 -0.03740 -0.12357
 C205 C 0.47545 -0.06032 -0.14421
 C206 C 0.47340 -0.05111 -0.18091
 H207 H 0.47375 -0.07436 -0.39428
 H208 H 0.47028 -0.08603 -0.32694
 H209 H 0.49616 0.03957 -0.29279
 H210 H 0.50054 0.05151 -0.36025
 H211 H 0.46935 -0.06354 -0.25820
 H212 H 0.51660 0.02029 -0.24504
 H213 H 0.54999 0.02913 -0.18962
 H214 H 0.55301 0.01323 -0.12489
 H215 H 0.45398 -0.08495 -0.13147
 H216 H 0.44997 -0.06887 -0.19502
 C217 C 0.52508 0.05922 0.38245
 C218 C 0.52937 0.06373 0.34256
 C219 C 0.53223 0.03138 0.31323
 C220 C 0.53227 -0.00543 0.32460
 C221 C 0.52760 -0.01000 0.36449
 C222 C 0.52349 0.02214 0.39389
 C223 C 0.53471 0.03736 0.27155
 C224 C 0.52630 0.00787 0.24337
 C225 C 0.52481 0.01393 0.20277
 C226 C 0.50353 -0.01678 0.18049
 C227 C 0.49921 -0.01188 0.14304
 C228 C 0.51621 0.02390 0.12694
 C229 C 0.53888 0.05415 0.14845
 C230 C 0.54338 0.04919 0.18586
 H231 H 0.52215 0.08459 0.40440
 H232 H 0.52967 0.09251 0.33469
 H233 H 0.53603 -0.03087 0.30306
 H234 H 0.52719 -0.03882 0.37231
 H235 H 0.54086 0.06753 0.26496
 H236 H 0.51698 -0.02208 0.25081
 H237 H 0.48923 -0.04438 0.19255
 H238 H 0.48139 -0.03562 0.12724
 H239 H 0.55304 0.08173 0.13634
 H240 H 0.56143 0.07306 0.20118
 C241 C 0.48603 -0.37678 0.03630
 C242 C 0.48621 -0.33685 0.03585
 C243 C 0.49255 -0.32110 -0.00011
 C244 C 0.49837 -0.34641 -0.03577
 C245 C 0.49831 -0.38631 -0.03531
 C246 C 0.49200 -0.40200 0.00072
 C247 C 0.49120 -0.27875 0.00094
 C248 C 0.50818 -0.25797 -0.03003
 C249 C 0.50671 -0.21585 -0.03018
 C250 C 0.53305 -0.19564 -0.06089
 C251 C 0.53186 -0.15665 -0.06380
 C252 C 0.50413 -0.13677 -0.03612
 C253 C 0.47801 -0.15664 -0.00499
 C254 C 0.47907 -0.19587 -0.00212
 H255 H 0.48088 -0.38793 0.06461
 H256 H 0.48130 -0.31820 0.06376
 H257 H 0.50194 -0.33598 -0.06411
 H258 H 0.50248 -0.40502 -0.06323
 H259 H 0.47695 -0.26423 0.02877
 H260 H 0.52531 -0.27192 -0.05661
 H261 H 0.55460 -0.21016 -0.08296
 H262 H 0.55276 -0.14194 -0.08782
 H263 H 0.45599 -0.14220 0.01648
 H264 H 0.45748 -0.21047 0.02148
 C265 C 0.47880 0.34339 -0.03025
 C266 C 0.47782 0.30342 -0.02908
 C267 C 0.47256 0.28843 0.00715
 C268 C 0.46820 0.31452 0.04235
 C269 C 0.46894 0.35440 0.04118
 C270 C 0.47457 0.36937 0.00487
 C271 C 0.47436 0.24626 0.00653
 C272 C 0.46179 0.22653 0.03866
 C273 C 0.46664 0.18543 0.03925
 C274 C 0.44805 0.16695 0.07373
 C275 C 0.45395 0.12950 0.07712
 C276 C 0.47854 0.10952 0.04598
 C277 C 0.49648 0.12747 0.01112
 C278 C 0.49085 0.16504 0.00780
 H279 H 0.48325 0.35398 -0.05873
 H280 H 0.48160 0.28418 -0.05669
 H281 H 0.46541 0.30484 0.07086
 H282 H 0.46600 0.37371 0.06876
 H283 H 0.48637 0.23126 -0.02190
 H284 H 0.44704 0.24090 0.06632
 H285 H 0.42933 0.18181 0.09849
 H286 H 0.43947 0.11624 0.10423
 H287 H 0.51612 0.11300 -0.01312
 H288 H 0.50663 0.17805 -0.01904
 C289 C -0.35259 0.03955 0.50198
 C290 C -0.31253 0.03849 0.50169
 C291 C -0.29993 0.00237 0.49756
 C292 C -0.32787 -0.03283 0.49218
 C293 C -0.36791 -0.03177 0.49227
 C294 C -0.38081 0.00442 0.49762
 C295 C -0.25734 0.00258 0.49803
 C296 C -0.24575 -0.02705 0.50957
 C297 C -0.20322 -0.02723 0.51010
 C298 C -0.19566 -0.05224 0.53388
 C299 C -0.15603 -0.05480 0.53379
 C300 C -0.12307 -0.03252 0.50967
 C301 C -0.13058 -0.00719 0.48614
 C302 C -0.17018 -0.00467 0.48617
 H303 H -0.36150 0.06794 0.50595
 H304 H -0.29147 0.06599 0.50537
 H305 H -0.31890 -0.06121 0.48749
 H306 H -0.38885 -0.05934 0.48854
 H307 H -0.23547 0.02905 0.49070
 H308 H -0.26844 -0.05172 0.52060
 H309 H -0.22053 -0.07005 0.55245
 H310 H -0.15116 -0.07437 0.55244
 H311 H -0.10581 0.00966 0.46658
 H312 H -0.17460 0.01397 0.46641
 C313 C 0.36006 -0.02253 0.51372
 C314 C 0.31987 -0.02018 0.51578
 C315 C 0.30800 0.01655 0.52228
 C316 C 0.33672 0.05088 0.52845
 C317 C 0.37676 0.04855 0.52663
 C318 C 0.38904 0.01188 0.51872
 C319 C 0.26569 0.01824 0.52248
 C320 C 0.25600 0.04862 0.51031
 C321 C 0.21439 0.05020 0.50798
 C322 C 0.20939 0.07250 0.48029
 C323 C 0.17077 0.07500 0.47705
 C324 C 0.13613 0.05575 0.50197
 C325 C 0.14114 0.03392 0.53025
 C326 C 0.17988 0.03111 0.53322
 H327 H 0.36850 -0.05124 0.50787
 H328 H 0.29818 -0.04707 0.51137
 H329 H 0.32832 0.07960 0.53490
 H330 H 0.39821 0.07560 0.53103
 H331 H 0.24259 -0.00741 0.53001
 H332 H 0.27989 0.07228 0.49891
 H333 H 0.23550 0.08761 0.46063
 H334 H 0.16806 0.09157 0.45455
 H335 H 0.11517 0.01946 0.55049
 H336 H 0.18268 0.01467 0.55575
 C337 C 0.04142 0.51612 1.35148
 C338 C 0.03959 0.51748 1.31221
 C339 C 0.00216 0.50977 1.30106
 C340 C -0.03352 0.50135 1.33028
 C341 C -0.03168 0.49979 1.36935
 C342 C 0.00575 0.50717 1.38046
 C343 C 0.00124 0.51218 1.25932
 C344 C -0.03002 0.49347 1.24299
 C345 C -0.03304 0.49592 1.20190
 C346 C -0.06318 0.46867 1.18642
 C347 C -0.06870 0.47036 1.14863
 C348 C -0.04426 0.49948 1.12530
 C349 C -0.01389 0.52676 1.14052
 C350 C -0.00842 0.52518 1.17853
 H351 H 0.07073 0.52221 1.35916
 H352 H 0.06751 0.52449 1.29044
 H353 H -0.06306 0.49683 1.32350
 H354 H -0.05978 0.49343 1.39104
 H355 H 0.02773 0.52876 1.24155
 H356 H -0.05466 0.47420 1.26014
 H357 H -0.08268 0.44592 1.20370
 H358 H -0.09199 0.44859 1.13749
 H359 H 0.00505 0.54982 1.12334
 H360 H 0.01447 0.54743 1.18956
 C361 C -0.02815 0.49595 0.63297
 C362 C -0.02855 0.49640 0.67304
 C363 C 0.00617 0.51325 0.68793
 C364 C 0.04169 0.52921 0.66165
 C365 C 0.04218 0.52850 0.62145
 C366 C 0.00726 0.51186 0.60666
 C367 C 0.00467 0.51152 0.73033
 C368 C 0.02894 0.53704 0.75122
 C369 C 0.02935 0.53385 0.79294
 C370 C 0.06392 0.55271 0.80734
 C371 C 0.06693 0.54854 0.84548
 C372 C 0.03526 0.52554 0.87027
 C373 C -0.00017 0.50818 0.85663
 C374 C -0.00321 0.51236 0.81846
 H375 H -0.05554 0.48272 0.62255
 H376 H -0.05616 0.48356 0.69253
 H377 H 0.06945 0.54132 0.67168
 H378 H 0.07000 0.54079 0.60190
 H379 H -0.01736 0.48806 0.74437
 H380 H 0.05070 0.56055 0.73690
 H381 H 0.08919 0.56995 0.78863
 H382 H 0.09430 0.56296 0.85541
 H383 H -0.02511 0.49028 0.87502
 H384 H -0.03105 0.49855 0.80927
   
