data_POSCAR
  _audit_creation_date              2014-09-24
  _audit_creation_method            'ToBaCCo'
  _symmetry_space_group_name_H-M    'P1'
  _symmetry_Int_Tables_number       1
  _symmetry_cell_setting            triclinic
  loop_
  _symmetry_equiv_pos_as_xyz
 x,y,z
_cell_length_a 45.4208
_cell_length_b 45.0198
_cell_length_c 7.2053
_cell_angle_alpha 89.945600
_cell_angle_beta 90.240800
_cell_angle_gamma 90.034400
loop_
  _atom_site_label
  _atom_site_type_symbol
  _atom_site_fract_x
  _atom_site_fract_y
  _atom_site_fract_z
C1 C 0.18670 0.22284 0.26125
 C2 C 0.17198 0.25008 0.26689
 C3 C 0.18748 0.27687 0.26739
 C4 C 0.21857 0.27676 0.26252
 C5 C 0.23381 0.24927 0.25693
 C6 C 0.21785 0.22216 0.25633
 C7 C 0.23346 0.19518 0.25031
 C8 C 0.26410 0.19484 0.24541
 C9 C 0.28036 0.22146 0.24603
 C10 C 0.26507 0.24893 0.25143
 C11 C 0.23479 0.30337 0.26275
 C12 C 0.26542 0.30303 0.25801
 C13 C 0.28099 0.27606 0.25224
 C14 C 0.31208 0.27547 0.24786
 C15 C 0.32691 0.24834 0.24275
 C16 C 0.31152 0.22144 0.24207
 H17 H 0.22208 0.17404 0.24929
 H18 H 0.27496 0.17345 0.24083
 H19 H 0.22390 0.32475 0.26682
 H20 H 0.27682 0.32415 0.25895
 H21 H 0.14807 0.25049 0.26973
 H22 H 0.35082 0.24820 0.24083
 C23 C 0.68705 0.22281 0.23828
 C24 C 0.67228 0.25004 0.23436
 C25 C 0.68773 0.27686 0.23316
 C26 C 0.71883 0.27678 0.23546
 C27 C 0.73413 0.24931 0.23944
 C28 C 0.71821 0.22217 0.24096
 C29 C 0.73389 0.19520 0.24556
 C30 C 0.76455 0.19491 0.24833
 C31 C 0.78072 0.22155 0.24705
 C32 C 0.76539 0.24899 0.24282
 C33 C 0.73503 0.30341 0.23458
 C34 C 0.76568 0.30309 0.23734
 C35 C 0.78129 0.27613 0.24168
 C36 C 0.81239 0.27554 0.24463
 C37 C 0.82723 0.24839 0.24845
 C38 C 0.81183 0.22153 0.24960
 H39 H 0.72255 0.17405 0.24685
 H40 H 0.77549 0.17356 0.25161
 H41 H 0.72412 0.32478 0.23163
 H42 H 0.77707 0.32423 0.23608
 H43 H 0.64836 0.25042 0.23361
 H44 H 0.85113 0.24815 0.24930
 C45 C 0.68796 0.72452 0.74704
 C46 C 0.67317 0.75170 0.75054
 C47 C 0.68861 0.77852 0.75235
 C48 C 0.71971 0.77846 0.75063
 C49 C 0.73499 0.75099 0.74690
 C50 C 0.71906 0.72387 0.74526
 C51 C 0.73462 0.69689 0.74132
 C52 C 0.76528 0.69654 0.73940
 C53 C 0.78151 0.72316 0.74065
 C54 C 0.76625 0.75064 0.74417
 C55 C 0.73590 0.80508 0.75207
 C56 C 0.76654 0.80475 0.74961
 C57 C 0.78219 0.77778 0.74554
 C58 C 0.81334 0.77711 0.74338
 C59 C 0.82809 0.74988 0.74014
 C60 C 0.81261 0.72307 0.73892
 H61 H 0.72320 0.67578 0.73976
 H62 H 0.77617 0.67516 0.73682
 H63 H 0.72498 0.82644 0.75540
 H64 H 0.77791 0.82590 0.75108
 H65 H 0.64927 0.75198 0.75056
 H66 H 0.85200 0.74948 0.73962
 C67 C 0.18694 0.72341 0.75856
 C68 C 0.17204 0.75056 0.75381
 C69 C 0.18739 0.77748 0.75127
 C70 C 0.21855 0.77752 0.75352
 C71 C 0.23393 0.75008 0.75790
 C72 C 0.21809 0.72289 0.76060
 C73 C 0.23385 0.69598 0.76576
 C74 C 0.26449 0.69575 0.76662
 C75 C 0.28059 0.72242 0.76358
 C76 C 0.26520 0.74983 0.76012
 C77 C 0.23476 0.80419 0.75205
 C78 C 0.26541 0.80392 0.75401
 C79 C 0.28106 0.77700 0.75766
 C80 C 0.31216 0.77646 0.75814
 C81 C 0.32705 0.74933 0.76021
 C82 C 0.31170 0.72245 0.76276
 H83 H 0.22257 0.67479 0.76872
 H84 H 0.27548 0.67442 0.76955
 H85 H 0.22383 0.82555 0.74933
 H86 H 0.27675 0.82508 0.75247
 H87 H 0.14811 0.75075 0.75341
 H88 H 0.35095 0.74913 0.75810
 O89 O 1.02989 -0.03584 0.07269
 O90 O 0.97212 0.01704 0.20993
 O91 O 0.97270 -0.03656 0.07464
 O92 O 1.02949 0.01779 0.20903
 O93 O 1.02884 0.03542 -0.07747
 O94 O 0.97203 -0.01896 -0.21192
 O95 O 0.97167 0.03466 -0.07661
 O96 O 1.02947 -0.01822 -0.21375
 Cu97 Cu 1.00113 -0.01132 0.16993
 Cu98 Cu 1.00046 0.01013 -0.17337
 C99 C 1.03935 -0.03613 -0.09256
 C100 C 0.96220 0.03492 0.08864
 C101 C 0.96281 -0.03705 -0.09009
 C102 C 1.03863 0.03596 0.08749
 O103 O 0.52812 0.53582 0.41788
 O104 O 0.47133 0.48126 0.28590
 O105 O 0.47097 0.53503 0.41891
 O106 O 0.52871 0.48216 0.28237
 O107 O 0.52929 0.46480 0.56947
 O108 O 0.47150 0.51775 0.70623
 O109 O 0.47212 0.46398 0.57321
 O110 O 0.52891 0.51850 0.70510
 Cu111 Cu 0.49972 0.51046 0.32283
 Cu112 Cu 0.50055 0.48935 0.66688
 C113 C 0.53799 0.53655 0.58265
 C114 C 0.46220 0.46327 0.40861
 C115 C 0.46154 0.53548 0.58416
 C116 C 0.53866 0.46437 0.40399
 O117 O 0.02931 0.51860 -0.19835
 O118 O -0.02762 0.46417 -0.06965
 O119 O -0.02810 0.51786 -0.20467
 O120 O 0.02953 0.46503 -0.06099
 O121 O 0.02866 0.48258 0.22538
 O122 O -0.02901 0.53536 0.08178
 O123 O -0.02873 0.48163 0.21693
 O124 O 0.02816 0.53612 0.08804
 Cu125 Cu 0.00088 0.48950 -0.16180
 Cu126 Cu -0.00034 0.51084 0.18132
 C127 C 0.03828 0.53670 -0.07564
 C128 C -0.03770 0.46355 0.09408
 C129 C -0.03821 0.53569 -0.08451
 C130 C 0.03875 0.46473 0.10531
 O131 O 0.47056 1.03587 0.57004
 O132 O 0.52853 0.98308 0.70838
 O133 O 0.52777 1.03666 0.57183
 O134 O 0.47113 0.98222 0.70568
 O135 O 0.47153 0.96469 0.41916
 O136 O 0.52818 1.01910 0.28540
 O137 O 0.52871 0.96552 0.42193
 O138 O 0.47075 1.01834 0.28352
 Cu139 Cu 0.49946 1.01138 0.66732
 Cu140 Cu 0.49983 0.99001 0.32411
 C141 C 0.46092 1.03616 0.40472
 C142 C 0.53833 0.96524 0.58731
 C143 C 0.53749 1.03719 0.40721
 C144 C 0.46184 0.96412 0.58385
 C145 C 1.17005 0.19754 0.25749
 C146 C 1.15484 0.17559 0.25225
 C147 C 1.13607 0.14989 0.24286
 C148 C 1.10729 0.15143 0.31132
 C149 C 1.08832 0.12716 0.29210
 C150 C 1.09803 0.10123 0.20430
 C151 C 1.12697 0.09949 0.13849
 C152 C 1.14596 0.12379 0.15774
 C153 C 1.07767 0.07732 0.17057
 C154 C 1.06010 0.05800 0.13628
 H155 H 1.09936 0.17158 0.37623
 H156 H 1.06592 0.12884 0.34210
 H157 H 1.13463 0.07962 0.06914
 H158 H 1.16812 0.12243 0.10335
 C159 C 0.67031 0.69784 0.74213
 C160 C 0.65480 0.67613 0.73635
 C161 C 0.63539 0.65092 0.72695
 C162 C 0.60494 0.65521 0.74112
 C163 C 0.58576 0.63110 0.72398
 C164 C 0.59689 0.60254 0.69275
 C165 C 0.62738 0.59816 0.68040
 C166 C 0.64661 0.62232 0.69760
 C167 C 0.57683 0.57827 0.66222
 C168 C 0.55939 0.55873 0.62999
 H169 H 0.59603 0.67725 0.76271
 H170 H 0.56222 0.63479 0.73191
 H171 H 0.63621 0.57621 0.65458
 H172 H 0.67012 0.61880 0.68548
 C173 C -0.17008 0.30232 0.24102
 C174 C -0.15495 0.32431 0.23656
 C175 C -0.13630 0.35012 0.22883
 C176 C -0.14331 0.37369 0.10951
 C177 C -0.12421 0.39793 0.09386
 C178 C -0.09804 0.39871 0.19749
 C179 C -0.09127 0.37535 0.31896
 C180 C -0.11037 0.35111 0.33461
 C181 C -0.07724 0.42238 0.16952
 C182 C -0.05939 0.44159 0.13939
 H183 H -0.16322 0.37306 0.02617
 H184 H -0.12954 0.41576 -0.00160
 H185 H -0.07098 0.37560 0.39853
 H186 H -0.10465 0.33290 0.42628
 C187 C 0.32964 0.80326 0.75257
 C188 C 0.34472 0.82528 0.74589
 C189 C 0.36328 0.85112 0.73476
 C190 C 0.35676 0.87372 0.60733
 C191 C 0.37585 0.89789 0.58789
 C192 C 0.40153 0.89958 0.69591
 C193 C 0.40779 0.87723 0.82556
 C194 C 0.38870 0.85305 0.84499
 C195 C 0.42237 0.92312 0.66442
 C196 C 0.44022 0.94222 0.63158
 H197 H 0.33726 0.87235 0.52064
 H198 H 0.37094 0.91492 0.48598
 H199 H 0.42772 0.87817 0.90848
 H200 H 0.39404 0.83559 0.94310
 C201 C -0.17046 0.69590 -0.26007
 C202 C -0.15567 0.67368 -0.25627
 C203 C -0.13727 0.64772 -0.24742
 C204 C -0.14501 0.62383 -0.13273
 C205 C -0.12592 0.59967 -0.11263
 C206 C -0.09902 0.59929 -0.20721
 C207 C -0.09157 0.62290 -0.32482
 C208 C -0.11066 0.64706 -0.34490
 C209 C -0.07811 0.57593 -0.17218
 C210 C -0.06012 0.55711 -0.13616
 H211 H -0.16545 0.62422 -0.05572
 H212 H -0.13177 0.58167 -0.01990
 H213 H -0.07070 0.62298 -0.39709
 H214 H -0.10436 0.66551 -0.43283
 C215 C 0.32757 1.19576 0.24283
 C216 C 0.34229 1.17349 0.24651
 C217 C 0.36057 1.14745 0.25527
 C218 C 0.35573 1.12601 0.39282
 C219 C 0.37495 1.10192 0.41095
 C220 C 0.39908 1.09917 0.29164
 C221 C 0.40357 1.12028 0.15162
 C222 C 0.38434 1.14438 0.13350
 C223 C 0.42041 1.07607 0.32255
 C224 C 0.43873 1.05742 0.35570
 H225 H 0.33755 1.12828 0.48862
 H226 H 0.37143 1.08586 0.52077
 H227 H 0.42231 1.11852 0.05976
 H228 H 0.38841 1.16097 0.02764
 C229 C 1.17132 -0.19684 -0.24968
 C230 C 1.15666 -0.17453 -0.24770
 C231 C 1.13854 -0.14836 -0.24053
 C232 C 1.11394 -0.14579 -0.35740
 C233 C 1.09493 -0.12153 -0.33986
 C234 C 1.10046 -0.09973 -0.20552
 C235 C 1.12541 -0.10198 -0.09130
 C236 C 1.14442 -0.12624 -0.10885
 C237 C 1.07942 -0.07638 -0.17474
 C238 C 1.06133 -0.05755 -0.14163
 H239 H 1.10910 -0.16286 -0.45892
 H240 H 1.07556 -0.12015 -0.42771
 H241 H 1.12977 -0.08539 0.01416
 H242 H 1.16329 -0.12810 -0.01708
 C243 C 0.67079 0.30403 0.23473
 C244 C 0.65611 0.32631 0.23949
 C245 C 0.63794 0.35242 0.24996
 C246 C 0.61404 0.35589 0.12828
 C247 C 0.59499 0.38008 0.14800
 C248 C 0.59979 0.40089 0.28938
 C249 C 0.62404 0.39774 0.40864
 C250 C 0.64308 0.37356 0.38893
 C251 C 0.57871 0.42415 0.32129
 C252 C 0.56062 0.44294 0.35499
 H253 H 0.60975 0.33958 0.02107
 H254 H 0.57616 0.38217 0.05607
 H255 H 0.62781 0.41356 0.51942
 H256 H 0.66139 0.37100 0.48444
 C257 C 0.82996 -0.19756 -0.25249
 C258 C 0.84506 -0.17554 -0.24692
 C259 C 0.86365 -0.14971 -0.23711
 C260 C 0.88886 -0.14789 -0.34799
 C261 C 0.90803 -0.12374 -0.32987
 C262 C 0.90207 -0.10130 -0.20082
 C263 C 0.87658 -0.10286 -0.09229
 C264 C 0.85740 -0.12701 -0.11041
 C265 C 0.92306 -0.07785 -0.17019
 C266 C 0.94103 -0.05883 -0.13777
 H267 H 0.89398 -0.16541 -0.44562
 H268 H 0.92780 -0.12288 -0.41336
 H269 H 0.87187 -0.08575 0.00895
 H270 H 0.83805 -0.12827 -0.02333
 C271 C 0.32963 0.30224 0.25213
 C272 C 0.34485 0.32418 0.25756
 C273 C 0.36366 0.34986 0.26667
 C274 C 0.39074 0.34977 0.17433
 C275 C 0.40988 0.37395 0.19146
 C276 C 0.40201 0.39836 0.30096
 C277 C 0.37476 0.39864 0.39142
 C278 C 0.35561 0.37444 0.37429
 C279 C 0.42272 0.42209 0.33069
 C280 C 0.44054 0.44131 0.36206
 H281 H 0.39728 0.33078 0.09199
 H282 H 0.43102 0.37338 0.12246
 H283 H 0.36858 0.41728 0.47793
 H284 H 0.33481 0.37465 0.44742
 C285 C 0.17046 0.69801 -0.23447
 C286 C 0.15551 0.67592 -0.22521
 C287 C 0.13716 0.65001 -0.20837
 C288 C 0.12615 0.63567 -0.36689
 C289 C 0.10705 0.61142 -0.34828
 C290 C 0.09895 0.60150 -0.17114
 C291 C 0.11031 0.61562 -0.01307
 C292 C 0.12936 0.63979 -0.03164
 C293 C 0.07801 0.57778 -0.14891
 C294 C 0.06005 0.55860 -0.12075
 H295 H 0.13198 0.64347 -0.50426
 H296 H 0.09829 0.60073 -0.47138
 H297 H 0.10409 0.60823 0.12449
 H298 H 0.13765 0.65079 0.09169
 C299 C 0.67043 1.19749 0.24258
 C300 C 0.65525 1.17553 0.24822
 C301 C 0.63648 1.14983 0.25797
 C302 C 0.64409 1.12587 0.37272
 C303 C 0.62486 1.10177 0.39132
 C304 C 0.59797 1.10155 0.29518
 C305 C 0.59060 1.12529 0.17812
 C306 C 0.60982 1.14938 0.15953
 C307 C 0.57709 1.07805 0.32673
 C308 C 0.55919 1.05901 0.35952
 H309 H 0.66457 1.12608 0.45033
 H310 H 0.63066 1.08365 0.48345
 H311 H 0.56975 1.12547 0.10454
 H312 H 0.60364 1.16789 0.07147
 C313 C 0.17060 0.30406 0.26895
 C314 C 0.15595 0.32637 0.26737
 C315 C 0.13778 0.35251 0.26107
 C316 C 0.11187 0.35374 0.36567
 C317 C 0.09288 0.37803 0.34788
 C318 C 0.09973 0.40119 0.22542
 C319 C 0.12596 0.40028 0.12390
 C320 C 0.14495 0.37598 0.14169
 C321 C 0.07875 0.42455 0.19219
 C322 C 0.06070 0.44335 0.15689
 H323 H 0.10601 0.33560 0.45727
 H324 H 0.07252 0.37837 0.42563
 H325 H 0.13134 0.41793 0.02753
 H326 H 0.16482 0.37516 0.05915
 C327 C 0.67165 0.80566 0.75146
 C328 C 0.65688 0.82788 0.74773
 C329 C 0.63853 0.85388 0.73895
 C330 C 0.64385 0.87575 0.60476
 C331 C 0.62461 0.89981 0.58622
 C332 C 0.59999 0.90212 0.70188
 C333 C 0.59502 0.88058 0.83869
 C334 C 0.61427 0.85651 0.85723
 C335 C 0.57872 0.92525 0.67033
 C336 C 0.56047 0.94394 0.63669
 H337 H 0.66245 0.87384 0.51192
 H338 H 0.62851 0.91621 0.47891
 H339 H 0.57591 0.88201 0.92772
 H340 H 0.60986 0.83962 0.96069
 C341 C 0.82885 0.19442 0.24952
 C342 C 0.84370 0.17224 0.24675
 C343 C 0.86217 0.14632 0.23933
 C344 C 0.85575 0.12344 0.11386
 C345 C 0.87502 0.09940 0.09588
 C346 C 0.90078 0.09814 0.20326
 C347 C 0.90687 0.12069 0.33171
 C348 C 0.88760 0.14473 0.34970
 C349 C 0.92197 0.07497 0.17140
 C350 C 0.94015 0.05626 0.13775
 H351 H 0.83623 0.12452 0.02715
 H352 H 0.87020 0.08218 -0.00475
 H353 H 0.92683 0.12005 0.41451
 H354 H 0.89286 0.16238 0.44641
 C355 C 0.32870 0.69535 0.75747
 C356 C 0.34339 0.67311 0.74892
 C357 C 0.36152 0.64705 0.73303
 C358 C 0.36251 0.63161 0.56454
 C359 C 0.38167 0.60759 0.54345
 C360 C 0.39995 0.59886 0.69074
 C361 C 0.39863 0.61397 0.86041
 C362 C 0.37943 0.63803 0.88156
 C363 C 0.42123 0.57565 0.66274
 C364 C 0.43946 0.55687 0.63177
 H365 H 0.34890 0.63851 0.44846
 H366 H 0.38269 0.59622 0.41117
 H367 H 0.41284 0.60755 0.97470
 H368 H 0.37896 0.64993 1.01210
   
