data_POSCAR
  _audit_creation_date              2014-09-24
  _audit_creation_method            'ToBaCCo'
  _symmetry_space_group_name_H-M    'P1'
  _symmetry_Int_Tables_number       1
  _symmetry_cell_setting            triclinic
  loop_
  _symmetry_equiv_pos_as_xyz
 x,y,z
_cell_length_a 46.5759
_cell_length_b 46.6639
_cell_length_c 46.6172
_cell_angle_alpha 87.194400
_cell_angle_beta 86.316100
_cell_angle_gamma 87.337900
loop_
  _atom_site_label
  _atom_site_type_symbol
  _atom_site_fract_x
  _atom_site_fract_y
  _atom_site_fract_z
C1 C 0.79943 0.63115 1.00320
 C2 C 0.80540 0.61019 0.97905
 C3 C 0.78230 0.59459 0.97415
 C4 C 0.75547 0.60107 0.99415
 C5 C 0.77288 0.64961 0.99446
 C6 C 0.74989 0.63364 0.98975
 C7 C 0.78884 0.61276 1.02948
 C8 C 0.76581 0.59712 1.02480
 H9 H 0.82480 0.61032 0.96478
 H10 H 0.73679 0.58805 0.99040
 H11 H 0.77280 0.67278 0.99082
 H12 H 0.79719 0.61396 1.05062
 C13 C 0.79499 0.35126 0.47582
 C14 C 0.80168 0.36978 0.50050
 C15 C 0.77908 0.38732 0.50960
 C16 C 0.75173 0.38487 0.49320
 C17 C 0.76828 0.33502 0.48684
 C18 C 0.74565 0.35269 0.49587
 C19 C 0.78445 0.37250 0.45227
 C20 C 0.76177 0.39003 0.46136
 H21 H 0.82237 0.36892 0.51012
 H22 H 0.73337 0.39928 0.50068
 H23 H 0.76715 0.31181 0.48690
 H24 H 0.79251 0.37203 0.42988
 C25 C 0.29436 -0.14372 -0.02622
 C26 C 0.30050 -0.12655 -0.00229
 C27 C 0.27629 -0.10894 0.00773
 C28 C 0.25050 -0.11176 -0.00804
 C29 C 0.26956 -0.16029 -0.01610
 C30 C 0.24531 -0.14251 -0.00609
 C31 C 0.28395 -0.12334 -0.04832
 C32 C 0.25968 -0.10570 -0.03826
 H33 H 0.32111 -0.12728 0.00754
 H34 H 0.23178 -0.09793 -0.00018
 H35 H 0.26925 -0.18358 -0.01610
 H36 H 0.29142 -0.12366 -0.07091
 C37 C 0.29800 0.12929 0.50575
 C38 C 0.30457 0.10853 0.48150
 C39 C 0.28187 0.09238 0.47650
 C40 C 0.25487 0.09817 0.49649
 C41 C 0.27107 0.14708 0.49704
 C42 C 0.24852 0.13062 0.49220
 C43 C 0.28784 0.11058 0.53196
 C44 C 0.26522 0.09439 0.52716
 H45 H 0.32393 0.10925 0.46721
 H46 H 0.23653 0.08470 0.49267
 H47 H 0.27050 0.17025 0.49324
 H48 H 0.29602 0.11201 0.55314
 C49 C 0.13328 0.50955 0.30409
 C50 C 0.11342 0.48467 0.31137
 C51 C 0.09865 0.47723 0.28873
 C52 C 0.10476 0.49569 0.26096
 C53 C 0.15275 0.49997 0.27807
 C54 C 0.13760 0.49275 0.25551
 C55 C 0.11390 0.53412 0.29226
 C56 C 0.09909 0.52693 0.26961
 H57 H 0.11390 0.47172 0.33137
 H58 H 0.09237 0.48985 0.24266
 H59 H 0.17610 0.49821 0.27784
 H60 H 0.11428 0.55603 0.29910
 C61 C -0.13881 -0.02435 0.28919
 C62 C -0.11903 0.00010 0.29402
 C63 C -0.10201 0.00766 0.27018
 C64 C -0.10625 -0.00997 0.24379
 C65 C -0.15595 -0.01364 0.26336
 C66 C -0.13876 -0.00610 0.23955
 C67 C -0.11993 -0.04773 0.27882
 C68 C -0.10207 -0.03983 0.25389
 H69 H -0.11895 0.01087 0.31416
 H70 H -0.09225 -0.00375 0.22447
 H71 H -0.17931 -0.01156 0.26403
 H72 H -0.12116 -0.06979 0.28734
 C73 C 0.36167 0.48038 0.79207
 C74 C 0.38211 0.50436 0.79624
 C75 C 0.39851 0.51178 0.77200
 C76 C 0.39316 0.49451 0.74572
 C77 C 0.34396 0.49121 0.76676
 C78 C 0.36054 0.49855 0.74252
 C79 C 0.38095 0.45553 0.78049
 C80 C 0.39737 0.46292 0.75623
 H81 H 0.38294 0.51509 0.81632
 H82 H 0.40668 0.50054 0.72603
 H83 H 0.32059 0.49323 0.76800
 H84 H 0.38014 0.43361 0.78943
 C85 C 0.63853 1.01247 0.79980
 C86 C 0.61964 0.98694 0.80793
 C87 C 0.60347 0.97966 0.78621
 C88 C 0.60748 0.99889 0.75856
 C89 C 0.65659 1.00357 0.77258
 C90 C 0.64012 0.99643 0.75096
 C91 C 0.61904 1.03563 0.79031
 C92 C 0.60204 1.02823 0.76758
 H93 H 0.62149 0.97375 0.82766
 H94 H 0.59400 0.99306 0.74105
 H95 H 0.67997 1.00170 0.77108
 H96 H 0.61998 1.05756 0.79699
 C97 C -0.01710 0.29968 -0.14263
 C98 C 0.00706 0.30563 -0.12328
 C99 C 0.01461 0.28269 -0.10570
 C100 C -0.00266 0.25585 -0.10894
 C101 C -0.00632 0.27308 -0.15893
 C102 C 0.00118 0.25016 -0.14120
 C103 C -0.04188 0.28936 -0.12208
 C104 C -0.03433 0.26642 -0.10451
 H105 H 0.01758 0.32597 -0.12376
 H106 H 0.00352 0.23724 -0.09448
 H107 H -0.00483 0.27240 -0.18224
 H108 H -0.06392 0.29796 -0.12292
 C109 C 0.50226 0.30076 0.14281
 C110 C 0.47912 0.30808 0.12142
 C111 C 0.47410 0.28590 0.10466
 C112 C 0.49296 0.25860 0.11055
 C113 C 0.49199 0.27375 0.15997
 C114 C 0.48714 0.25171 0.14288
 C115 C 0.52893 0.29057 0.12457
 C116 C 0.52409 0.26846 0.10778
 H117 H 0.46546 0.32761 0.12202
 H118 H 0.48910 0.24069 0.09659
 H119 H 0.48766 0.27263 0.18317
 H120 H 0.55030 0.29831 0.12675
 C121 C 0.99876 0.80473 0.64065
 C122 C 0.97652 0.81159 0.62049
 C123 C 0.97178 0.78826 0.60265
 C124 C 0.99034 0.76272 0.60831
 C125 C 0.98966 0.77885 0.65707
 C126 C 0.98506 0.75562 0.63901
 C127 C 1.02440 0.79586 0.62318
 C128 C 1.01977 0.77261 0.60535
 H129 H 0.96209 0.83057 0.62164
 H130 H 0.98685 0.74478 0.59417
 H131 H 0.98517 0.77764 0.68028
 H132 H 1.04578 0.80337 0.62600
 C133 C 0.47703 0.79558 0.35699
 C134 C 0.50109 0.80268 0.37594
 C135 C 0.50943 0.78035 0.39390
 C136 C 0.49289 0.75287 0.39144
 C137 C 0.48845 0.76890 0.34118
 C138 C 0.49671 0.74657 0.35930
 C139 C 0.45270 0.78500 0.37792
 C140 C 0.46097 0.76264 0.39589
 H141 H 0.51122 0.82326 0.37469
 H142 H 0.49967 0.73475 0.40622
 H143 H 0.48996 0.76780 0.31790
 H144 H 0.43044 0.79293 0.37705
 C145 C 0.39488 -0.01104 0.26400
 H146 H 0.39196 0.00879 0.27513
 C147 C 0.41018 -0.03444 0.27635
 H148 H 0.41893 -0.03241 0.29708
 C149 C 0.38510 -0.03831 0.22446
 H150 H 0.37477 -0.04000 0.20457
 C151 C 0.40025 -0.06220 0.23599
 H152 H 0.40185 -0.08187 0.22449
 N153 N 0.38244 -0.01346 0.23867
 C154 C 0.36432 0.07184 0.19989
 H155 H 0.34173 0.07019 0.19638
 C156 C 0.37833 0.09679 0.19089
 H157 H 0.36624 0.11442 0.18071
 C158 C 0.40723 0.05091 0.21802
 H159 H 0.41844 0.03290 0.22842
 C160 C 0.42210 0.07552 0.20939
 H161 H 0.44477 0.07612 0.21310
 Zn162 Zn 0.35767 0.01706 0.22565
 N163 N 0.37876 0.04969 0.21351
 C164 C 0.32908 0.05338 0.26609
 N165 N 0.33169 0.02600 0.25722
 C166 C 0.31976 0.00398 0.27332
 C167 C 0.30574 0.00892 0.30018
 C168 C 0.31501 0.05931 0.29257
 C169 C 0.35498 0.00475 0.16861
 C170 C 0.34444 -0.00672 0.14457
 C171 C 0.30012 -0.01622 0.17254
 C172 C 0.31153 -0.00440 0.19617
 N173 N 0.33878 0.00518 0.19389
 H174 H 0.33924 0.07052 0.25346
 H175 H 0.32264 -0.01769 0.26606
 H176 H 0.29739 -0.00899 0.31328
 H177 H 0.31455 0.08103 0.29983
 H178 H 0.37657 0.01251 0.16743
 H179 H 0.35793 -0.00724 0.12478
 H180 H 0.27890 -0.02492 0.17496
 H181 H 0.29908 -0.00387 0.21653
 C182 C 0.40759 0.09894 0.19575
 C183 C 0.41255 -0.06063 0.26256
 C184 C 0.31698 -0.01813 0.14653
 C185 C 0.30389 0.03681 0.31039
 C186 C 0.07242 1.04339 0.79218
 H187 H 0.06802 1.02263 0.80245
 C188 C 0.05927 1.06832 0.80348
 H189 H 0.04472 1.06654 0.82249
 C190 C 0.09813 1.07101 0.75599
 H191 H 0.11388 1.07214 0.73799
 C192 C 0.08552 1.09638 0.76653
 H193 H 0.09118 1.11669 0.75594
 N194 N 0.09157 1.04518 0.76894
 C195 C 0.10262 0.95972 0.73505
 H196 H 0.12590 0.95831 0.73448
 C197 C 0.08775 0.93726 0.72545
 H198 H 0.09978 0.91867 0.71724
 C199 C 0.05891 0.98627 0.74573
 H200 H 0.04791 1.00556 0.75347
 C201 C 0.04307 0.96426 0.73597
 H202 H 0.01981 0.96660 0.73647
 Zn203 Zn 0.11232 1.01153 0.75693
 N204 N 0.08815 0.98342 0.74528
 C205 C 0.12671 0.96997 0.80033
 N206 N 0.13303 0.99628 0.78835
 C207 C 0.15318 1.01219 0.79922
 C208 C 0.16881 1.00115 0.82223
 C209 C 0.14173 0.95817 0.82329
 C210 C 0.12429 1.02964 0.70007
 C211 C 0.14068 1.03623 0.67472
 C212 C 0.18369 1.02288 0.69943
 C213 C 0.16642 1.01653 0.72438
 N214 N 0.13729 1.02038 0.72433
 H215 H 0.10984 0.95808 0.79228
 H216 H 0.15735 1.03334 0.78974
 H217 H 0.18534 1.01377 0.83007
 H218 H 0.13628 0.93722 0.83249
 H219 H 0.10105 1.03211 0.70055
 H220 H 0.12986 1.04426 0.65589
 H221 H 0.20683 1.01959 0.69979
 H222 H 0.17632 1.00834 0.74361
 C223 C 0.05759 0.93926 0.72591
 C224 C 0.06614 1.09532 0.79087
 C225 C 0.17083 1.03298 0.67417
 C226 C 0.16338 0.97361 0.83432
 C227 C 0.57566 0.54219 0.29220
 H228 H 0.57205 0.52116 0.30225
 C229 C 0.56181 0.56657 0.30394
 H230 H 0.54752 0.56412 0.32307
 C231 C 0.60000 0.57102 0.25603
 H232 H 0.61545 0.57284 0.23783
 C233 C 0.58668 0.59588 0.26702
 H234 H 0.59151 0.61649 0.25659
 N235 N 0.59442 0.54484 0.26873
 C236 C 0.60694 0.46039 0.23294
 H237 H 0.63024 0.45972 0.23152
 C238 C 0.59241 0.43754 0.22365
 H239 H 0.60471 0.41942 0.21477
 C240 C 0.56281 0.48535 0.24568
 H241 H 0.55149 0.50415 0.25417
 C242 C 0.54730 0.46292 0.23631
 H243 H 0.52399 0.46444 0.23785
 Zn244 Zn 0.61581 0.51191 0.25586
 N245 N 0.59211 0.48346 0.24410
 C246 C 0.63157 0.46983 0.29811
 N247 N 0.63721 0.49653 0.28674
 C248 C 0.65703 0.51263 0.29790
 C249 C 0.67297 0.50144 0.32064
 C250 C 0.64695 0.45785 0.32073
 C251 C 0.62667 0.53108 0.19913
 C252 C 0.64261 0.53818 0.17364
 C253 C 0.68617 0.52546 0.19766
 C254 C 0.66934 0.51858 0.22276
 N255 N 0.64014 0.52182 0.22311
 H256 H 0.61495 0.45775 0.28988
 H257 H 0.66065 0.53407 0.28891
 H258 H 0.68918 0.51424 0.32879
 H259 H 0.64203 0.43658 0.32946
 H260 H 0.60340 0.53306 0.19991
 H261 H 0.63141 0.54614 0.15502
 H262 H 0.70937 0.52259 0.19770
 H263 H 0.67963 0.51040 0.24178
 C264 C 0.56222 0.43849 0.22544
 C265 C 0.56759 0.59392 0.29153
 C266 C 0.67280 0.53548 0.17266
 C267 C 0.66822 0.47352 0.33208
 C268 C 0.90053 0.49278 0.76322
 H269 H 0.89711 0.51265 0.77422
 C270 C 0.91616 0.46974 0.77584
 H271 H 0.92467 0.47211 0.79662
 C272 C 0.89157 0.46495 0.72382
 H273 H 0.88140 0.46286 0.70391
 C274 C 0.90710 0.44144 0.73560
 H275 H 0.90916 0.42169 0.72424
 N276 N 0.88827 0.48987 0.73788
 C277 C 0.86754 0.57440 0.69851
 H278 H 0.84499 0.57205 0.69527
 C279 C 0.88077 0.59967 0.68907
 H280 H 0.86811 0.61684 0.67883
 C281 C 0.91115 0.55491 0.71637
 H282 H 0.92293 0.53732 0.72684
 C283 C 0.92525 0.57987 0.70729
 H284 H 0.94791 0.58116 0.71072
 Zn285 Zn 0.86267 0.51963 0.72470
 N286 N 0.88270 0.55281 0.71217
 C287 C 0.83312 0.55545 0.76504
 N288 N 0.83646 0.52808 0.75622
 C289 C 0.82477 0.50583 0.77215
 C290 C 0.81011 0.51055 0.79874
 C291 C 0.81841 0.56115 0.79127
 C292 C 0.86007 0.50635 0.66781
 C293 C 0.84949 0.49449 0.64399
 C294 C 0.80539 0.48494 0.67231
 C295 C 0.81682 0.49716 0.69569
 N296 N 0.84398 0.50693 0.69316
 H297 H 0.84310 0.57279 0.75255
 H298 H 0.82822 0.48418 0.76493
 H299 H 0.80187 0.49248 0.81168
 H300 H 0.81730 0.58290 0.79850
 H301 H 0.88157 0.51433 0.66642
 H302 H 0.86288 0.49388 0.62414
 H303 H 0.78425 0.47610 0.67497
 H304 H 0.80442 0.49788 0.71606
 C305 C 0.90998 0.60273 0.69353
 C306 C 0.91910 0.44343 0.76228
 C307 C 0.82212 0.48288 0.64623
 C308 C 0.80739 0.53845 0.80888
 C309 C 0.26841 0.40609 -0.00647
 H310 H 0.27797 0.40452 0.01412
 C311 C 0.28206 0.42104 -0.02978
 H312 H 0.30187 0.43147 -0.02677
 C313 C 0.23155 0.39338 -0.03561
 H314 H 0.21239 0.38181 -0.03808
 C315 C 0.24448 0.40809 -0.05946
 H316 H 0.23501 0.40761 -0.08004
 N317 N 0.24378 0.39241 -0.00983
 C318 C 0.20203 0.37450 0.07524
 H319 H 0.19839 0.35194 0.07347
 C320 C 0.19294 0.38813 0.10041
 H321 H 0.18193 0.37597 0.11782
 C322 C 0.22054 0.41771 0.05439
 H323 H 0.23133 0.42914 0.03642
 C324 C 0.21175 0.43224 0.07920
 H325 H 0.21619 0.45473 0.08017
 Zn326 Zn 0.22944 0.36804 0.02091
 N327 N 0.21606 0.38921 0.05312
 C328 C 0.26847 0.34075 0.05860
 N329 N 0.26051 0.34272 0.03099
 C330 C 0.27686 0.32997 0.00954
 C331 C 0.30295 0.31547 0.01533
 C332 C 0.29414 0.32621 0.06538
 C333 C 0.17338 0.36389 0.00559
 C334 C 0.14962 0.35147 -0.00460
 C335 C 0.17723 0.30641 -0.00712
 C336 C 0.20051 0.31972 0.00334
 N337 N 0.19827 0.34809 0.00897
 H338 H 0.25572 0.35156 0.07527
 H339 H 0.27031 0.33231 -0.01234
 H340 H 0.31623 0.30628 -0.00211
 H341 H 0.30067 0.32606 0.08727
 H342 H 0.17226 0.38642 0.01023
 H343 H 0.13033 0.36473 -0.00803
 H344 H 0.17939 0.28392 -0.01192
 H345 H 0.22047 0.30753 0.00641
 C346 C 0.19811 0.41730 0.10279
 C347 C 0.27038 0.42172 -0.05687
 C348 C 0.15144 0.32245 -0.01143
 C349 C 0.31210 0.31397 0.04351
 C350 C 0.78971 0.08064 1.04081
 H351 H 0.79975 0.07872 1.01937
 C352 C 0.80171 0.06564 1.06419
 H353 H 0.82104 0.05218 1.06055
 C354 C 0.75334 0.10195 1.07179
 H355 H 0.73495 0.11666 1.07487
 C356 C 0.76458 0.08740 1.09568
 H357 H 0.75416 0.09059 1.11679
 N358 N 0.76604 0.09850 1.04501
 C359 C 0.72839 0.11598 0.96249
 H360 H 0.72673 0.13912 0.96341
 C361 C 0.71845 0.10284 0.93913
 H362 H 0.70881 0.11604 0.92225
 C363 C 0.74240 0.07081 0.98399
 H364 H 0.75164 0.05852 1.00165
 C365 C 0.73248 0.05668 0.96095
 H366 H 0.73440 0.03347 0.96088
 Zn367 Zn 0.75291 0.12177 1.01367
 N368 N 0.74044 0.09999 0.98410
 C369 C 0.79439 0.14071 0.97116
 N370 N 0.78385 0.14417 0.99872
 C371 C 0.79608 0.16226 1.01596
 C372 C 0.81932 0.17842 1.00525
 C373 C 0.81743 0.15643 0.95962
 C374 C 0.69634 0.13073 1.03429
 C375 C 0.67101 0.14574 1.04315
 C376 C 0.69558 0.19009 1.03429
 C377 C 0.72053 0.17417 1.02555
 N378 N 0.72052 0.14500 1.02604
 H379 H 0.78525 0.12546 0.95806
 H380 H 0.78772 0.16416 1.03801
 H381 H 0.82850 0.19310 1.01906
 H382 H 0.82556 0.15314 0.93768
 H383 H 0.69681 0.10755 1.03391
 H384 H 0.65199 0.13390 1.04942
 H385 H 0.69608 0.21326 1.03428
 H386 H 0.73978 0.18514 1.01834
 C387 C 0.72058 0.07284 0.93801
 C388 C 0.78936 0.06931 1.09215
 C389 C 0.67041 0.17583 1.04339
 C390 C 0.83008 0.17576 0.97661
 C391 C 0.28392 0.58123 0.54449
 H392 H 0.29352 0.57897 0.52292
 C393 C 0.29641 0.56660 0.56781
 H394 H 0.31565 0.55307 0.56398
 C395 C 0.24825 0.60312 0.57582
 H396 H 0.22998 0.61794 0.57906
 C397 C 0.25998 0.58895 0.59966
 H398 H 0.25004 0.59252 0.62090
 N399 N 0.26040 0.59923 0.54890
 C400 C 0.21976 0.61630 0.46796
 H401 H 0.21838 0.63946 0.46875
 C402 C 0.20781 0.60309 0.44573
 H403 H 0.19751 0.61629 0.42926
 C404 C 0.23521 0.57118 0.48855
 H405 H 0.24563 0.55893 0.50553
 C406 C 0.22359 0.55699 0.46645
 H407 H 0.22509 0.53376 0.46657
 Zn408 Zn 0.24685 0.62228 0.51760
 N409 N 0.23316 0.60036 0.48875
 C410 C 0.28740 0.64058 0.47383
 N411 N 0.27783 0.64404 0.50167
 C412 C 0.29115 0.66156 0.51863
 C413 C 0.31472 0.67697 0.50744
 C414 C 0.31076 0.65556 0.46180
 C415 C 0.19077 0.63243 0.53927
 C416 C 0.16574 0.64799 0.54799
 C417 C 0.19094 0.69180 0.53780
 C418 C 0.21559 0.67533 0.52925
 N419 N 0.21510 0.64617 0.53037
 H420 H 0.27725 0.62586 0.46091
 H421 H 0.28345 0.66350 0.54088
 H422 H 0.32482 0.69115 0.52108
 H423 H 0.31818 0.65222 0.43967
 H424 H 0.19084 0.60923 0.53938
 H425 H 0.14655 0.63657 0.55467
 H426 H 0.19178 0.71497 0.53715
 H427 H 0.23496 0.68586 0.52154
 C428 C 0.20947 0.57306 0.44482
 C429 C 0.28468 0.57079 0.59591
 C430 C 0.16558 0.67810 0.54740
 C431 C 0.32468 0.67416 0.47857
 C432 C 0.76807 0.90100 0.48910
 H433 H 0.77907 0.89858 0.50888
 C434 C 0.78113 0.91519 0.46493
 H435 H 0.80223 0.92362 0.46634
 C436 C 0.72816 0.89100 0.46273
 H437 H 0.70781 0.88103 0.46171
 C438 C 0.74036 0.90505 0.43813
 H439 H 0.72892 0.90619 0.41858
 N440 N 0.74225 0.88891 0.48746
 C441 C 0.70080 0.87361 0.57297
 H442 H 0.69616 0.85124 0.57154
 C443 C 0.69194 0.88803 0.59771
 H444 H 0.68014 0.87666 0.61516
 C445 C 0.72148 0.91559 0.55160
 H446 H 0.73305 0.92619 0.53358
 C447 C 0.71294 0.93089 0.57599
 H448 H 0.71831 0.95317 0.57663
 Zn449 Zn 0.72803 0.86528 0.51887
 N450 N 0.71570 0.88734 0.55076
 C451 C 0.76614 0.83712 0.55685
 N452 N 0.75867 0.83940 0.52908
 C453 C 0.77548 0.82698 0.50774
 C454 C 0.80166 0.81276 0.51382
 C455 C 0.79187 0.82287 0.56391
 C456 C 0.67079 0.86203 0.50759
 C457 C 0.64661 0.85124 0.49659
 C458 C 0.67435 0.80746 0.48640
 C459 C 0.69811 0.81911 0.49779
 N460 N 0.69600 0.84617 0.50755
 H461 H 0.75300 0.84761 0.57346
 H462 H 0.76936 0.82957 0.48573
 H463 H 0.81536 0.80399 0.49645
 H464 H 0.79802 0.82264 0.58593
 H465 H 0.66975 0.88354 0.51537
 H466 H 0.62687 0.86444 0.49651
 H467 H 0.67665 0.78638 0.47758
 H468 H 0.71845 0.80697 0.49785
 C469 C 0.69827 0.91697 0.59960
 C470 C 0.76749 0.91684 0.43883
 C471 C 0.64836 0.82392 0.48509
 C472 C 0.81041 0.81119 0.54215
 C473 C -0.00802 0.25827 0.39661
 H474 H 0.01225 0.26880 0.39577
 C475 C -0.03224 0.27047 0.41138
 H476 H -0.03039 0.29044 0.42186
 C477 C -0.03541 0.22057 0.38210
 H478 H -0.03675 0.20149 0.37013
 C479 C -0.06015 0.23200 0.39661
 H480 H -0.08018 0.22121 0.39610
 N481 N -0.01008 0.23394 0.38211
 C482 C 0.07530 0.19341 0.36658
 H483 H 0.07481 0.19033 0.34377
 C484 C 0.09936 0.18379 0.38120
 H485 H 0.11721 0.17296 0.36953
 C486 C 0.05235 0.21105 0.40943
 H487 H 0.03401 0.22175 0.42032
 C488 C 0.07602 0.20172 0.42495
 H489 H 0.07576 0.20565 0.44766
 Zn490 Zn 0.02205 0.22139 0.35835
 N491 N 0.05268 0.20726 0.38066
 C492 C 0.06181 0.26119 0.33465
 N493 N 0.03388 0.25379 0.33523
 C494 C 0.01338 0.27175 0.32367
 C495 C 0.02038 0.29914 0.31256
 C496 C 0.06976 0.28813 0.32358
 C497 C 0.00914 0.16529 0.35045
 C498 C -0.00041 0.14200 0.33673
 C499 C -0.00516 0.17247 0.29369
 C500 C 0.00480 0.19524 0.30824
 N501 N 0.01129 0.19129 0.33624
 H502 H 0.07780 0.24692 0.34417
 H503 H -0.00878 0.26558 0.32487
 H504 H 0.00348 0.31385 0.30515
 H505 H 0.09197 0.29388 0.32415
 H506 H 0.01423 0.16286 0.37277
 H507 H -0.00284 0.12174 0.34879
 H508 H -0.01077 0.17595 0.27157
 H509 H 0.00668 0.21616 0.29743
 C510 C 0.10011 0.18826 0.41071
 C511 C -0.05888 0.25757 0.41108
 C512 C -0.00805 0.14548 0.30809
 C513 C 0.04873 0.30796 0.31347
 C514 C 1.04264 0.78444 0.07013
 H515 H 1.02147 0.79430 0.06728
 C516 C 1.06695 0.79664 0.05614
 H517 H 1.06428 0.81589 0.04248
 C518 C 1.07198 0.74851 0.09297
 H519 H 1.07407 0.73026 0.10795
 C520 C 1.09675 0.75993 0.07945
 H521 H 1.11753 0.74976 0.08365
 N522 N 1.04560 0.76096 0.08835
 C523 C 0.96303 0.72130 0.10464
 H524 H 0.96322 0.72012 0.12786
 C525 C 0.94101 0.70911 0.09132
 H526 H 0.92409 0.69882 0.10450
 C527 C 0.98503 0.73633 0.05946
 H528 H 1.00250 0.74665 0.04724
 C529 C 0.96312 0.72450 0.04515
 H530 H 0.96384 0.72574 0.02186
 Zn531 Zn 1.01309 0.74797 0.11097
 N532 N 0.98447 0.73451 0.08871
 C533 C 0.96987 0.78887 0.12878
 N534 N 0.99744 0.77911 0.13238
 C535 C 1.01439 0.79219 0.15003
 C536 C 1.00345 0.81564 0.16551
 C537 C 0.95810 0.81216 0.14381
 C538 C 1.03268 0.69180 0.12213
 C539 C 1.04044 0.66699 0.13819
 C540 C 1.03005 0.69284 0.18157
 C541 C 1.02243 0.71723 0.16461
 N542 N 1.02419 0.71634 0.13543
 H543 H 0.95698 0.77886 0.11399
 H544 H 1.03642 0.78433 0.15210
 H545 H 1.01708 0.82547 0.17986
 H546 H 0.93619 0.81971 0.14040
 H547 H 1.03331 0.69155 0.09890
 H548 H 1.04690 0.64765 0.12711
 H549 H 1.02903 0.69406 0.20474
 H550 H 1.01505 0.73676 0.17481
 C551 C 0.94095 0.71039 0.06122
 C552 C 1.09451 0.78464 0.06119
 C553 C 1.03931 0.66730 0.16833
 C554 C 0.97486 0.82578 0.16261
 C555 C 0.53919 0.28382 0.57178
 H556 H 0.51799 0.29384 0.56950
 C557 C 0.56319 0.29553 0.55676
 H558 H 0.56024 0.31433 0.54253
 C559 C 0.56889 0.24765 0.59382
 H560 H 0.57125 0.22960 0.60899
 C561 C 0.59337 0.25854 0.57918
 H562 H 0.61426 0.24857 0.58326
 N563 N 0.54246 0.26038 0.58998
 C564 C 0.45847 0.22358 0.60691
 H565 H 0.45826 0.22275 0.63016
 C566 C 0.43555 0.21320 0.59341
 H567 H 0.41783 0.20414 0.60645
 C568 C 0.48244 0.23574 0.56185
 H569 H 0.50090 0.24440 0.54976
 C570 C 0.45992 0.22531 0.54737
 H571 H 0.46104 0.22626 0.52407
 Zn572 Zn 0.51020 0.24777 0.61317
 N573 N 0.48110 0.23491 0.59113
 C574 C 0.46811 0.28985 0.63083
 N575 N 0.49534 0.27919 0.63470
 C576 C 0.51255 0.29168 0.65255
 C577 C 0.50216 0.31532 0.66806
 C578 C 0.45689 0.31333 0.64588
 C579 C 0.52956 0.19148 0.62382
 C580 C 0.53797 0.16671 0.63960
 C581 C 0.52859 0.19241 0.68321
 C582 C 0.52030 0.21677 0.66653
 N583 N 0.52133 0.21595 0.63736
 H584 H 0.45507 0.28046 0.61576
 H585 H 0.53436 0.28321 0.65476
 H586 H 0.51596 0.32467 0.68259
 H587 H 0.43524 0.32156 0.64226
 H588 H 0.52964 0.19130 0.60062
 H589 H 0.54434 0.14745 0.62835
 H590 H 0.52826 0.19360 0.70636
 H591 H 0.51312 0.23623 0.67693
 C592 C 0.43598 0.21411 0.56327
 C593 C 0.59078 0.28299 0.56060
 C594 C 0.53779 0.16699 0.66971
 C595 C 0.47387 0.32629 0.66496
 C596 C 0.49307 0.76424 0.89765
 H597 H 0.51388 0.77369 0.89723
 C598 C 0.46923 0.77757 0.91203
 H599 H 0.47202 0.79696 0.92318
 C600 C 0.46404 0.72806 0.88266
 H601 H 0.46190 0.70927 0.87046
 C602 C 0.43964 0.74068 0.89675
 H603 H 0.41897 0.73136 0.89520
 N604 N 0.49004 0.74012 0.88312
 C605 C 0.57425 0.69686 0.86799
 H606 H 0.57346 0.69362 0.84523
 C607 C 0.59813 0.68654 0.88252
 H608 H 0.61577 0.67556 0.87069
 C609 C 0.55245 0.71595 0.91068
 H610 H 0.53454 0.72732 0.92158
 C611 C 0.57601 0.70604 0.92608
 H612 H 0.57593 0.70975 0.94883
 Zn613 Zn 0.52186 0.72630 0.85963
 N614 N 0.55225 0.71165 0.88204
 C615 C 0.56268 0.76479 0.83547
 N616 N 0.53457 0.75801 0.83603
 C617 C 0.51452 0.77621 0.82404
 C618 C 0.52219 0.80325 0.81252
 C619 C 0.57129 0.79136 0.82398
 C620 C 0.50666 0.67071 0.85283
 C621 C 0.49719 0.64728 0.83928
 C622 C 0.49556 0.67653 0.79511
 C623 C 0.50540 0.69946 0.80953
 N624 N 0.51035 0.69618 0.83797
 H625 H 0.57830 0.75033 0.84532
 H626 H 0.49221 0.77053 0.82523
 H627 H 0.50564 0.81819 0.80478
 H628 H 0.59364 0.79664 0.82457
 H629 H 0.51066 0.66880 0.87546
 H630 H 0.49365 0.62744 0.85177
 H631 H 0.49128 0.67945 0.77257
 H632 H 0.50857 0.71994 0.79817
 C633 C 0.59937 0.69131 0.91192
 C634 C 0.44195 0.76608 0.91124
 C635 C 0.49126 0.65005 0.81011
 C636 C 0.55074 0.81147 0.81343
 C637 C 0.44933 -0.13540 0.30636
 C638 C 0.46235 -0.10901 0.30696
 C639 C 0.45083 -0.08475 0.29220
 C640 C 0.46789 -0.18014 0.33805
 C641 C 0.41352 -0.11340 0.27581
 C642 C 0.42506 -0.13758 0.29057
 C643 C 0.45980 -0.15985 0.32323
 C644 C 0.42610 -0.08662 0.27668
 H645 H 0.48111 -0.10707 0.31919
 H646 H 0.46115 -0.06452 0.29304
 H647 H 0.39419 -0.11548 0.26450
 H648 H 0.41468 -0.15785 0.29017
 C649 C 0.95609 0.36930 0.80701
 C650 C 0.96871 0.39588 0.80776
 C651 C 0.95713 0.41995 0.79272
 C652 C 0.97441 0.32446 0.83875
 C653 C 0.92056 0.39073 0.77581
 C654 C 0.93216 0.36675 0.79083
 C655 C 0.96657 0.34492 0.82401
 C656 C 0.93274 0.41769 0.77677
 H657 H 0.98721 0.39810 0.82030
 H658 H 0.96715 0.44033 0.79367
 H659 H 0.90148 0.38833 0.76420
 H660 H 0.92207 0.34633 0.79030
 C661 C 0.03201 1.17380 0.82716
 C662 C 0.06082 1.17133 0.81678
 C663 C 0.07187 1.14580 0.80510
 C664 C 0.01173 1.22298 0.84799
 C665 C 0.02532 1.12487 0.81428
 C666 C 0.01428 1.15050 0.82596
 C667 C 0.02076 1.20041 0.83867
 C668 C 0.05422 1.12230 0.80357
 H669 H 0.07477 1.18917 0.81768
 H670 H 0.09434 1.14435 0.79754
 H671 H 0.01115 1.10726 0.81321
 H672 H -0.00808 1.15220 0.83388
 C673 C 0.53057 0.67099 0.32840
 C674 C 0.55942 0.66965 0.31798
 C675 C 0.57142 0.64455 0.30617
 C676 C 0.50831 0.71958 0.34891
 C677 C 0.52580 0.62179 0.31535
 C678 C 0.51380 0.64699 0.32715
 C679 C 0.51824 0.69724 0.33980
 C680 C 0.55472 0.62037 0.30454
 H681 H 0.57262 0.68805 0.31890
 H682 H 0.59388 0.64399 0.29852
 H683 H 0.51235 0.60362 0.31420
 H684 H 0.49141 0.64783 0.33508
 C685 C 0.52312 0.36783 0.19017
 C686 C 0.51239 0.39592 0.18437
 C687 C 0.52411 0.41901 0.19697
 C688 C 0.50801 0.32468 0.16058
 C689 C 0.55662 0.38577 0.22187
 C690 C 0.54484 0.36279 0.20939
 C691 C 0.51406 0.34443 0.17445
 C692 C 0.54689 0.41416 0.21525
 H693 H 0.49571 0.40006 0.16936
 H694 H 0.51638 0.44067 0.19134
 H695 H 0.57390 0.38142 0.23617
 H696 H 0.55335 0.34116 0.21397
 C697 C 0.01822 0.87004 0.68843
 C698 C 0.00872 0.89843 0.68208
 C699 C 0.02042 0.92109 0.69541
 C700 C 0.00377 0.82738 0.65775
 C701 C 0.05037 0.88684 0.72217
 C702 C 0.03860 0.86429 0.70894
 C703 C 0.00945 0.84697 0.67205
 C704 C 0.04195 0.91550 0.71500
 H705 H -0.00691 0.90312 0.66606
 H706 H 0.01373 0.94296 0.68934
 H707 H 0.06667 0.88193 0.73743
 H708 H 0.04617 0.84242 0.71397
 C709 C 0.95022 0.68149 0.66648
 C710 C 0.95667 0.66745 0.69265
 C711 C 0.94381 0.64168 0.70137
 C712 C 0.97358 0.73046 0.64919
 C713 C 0.91814 0.64388 0.65764
 C714 C 0.93102 0.66960 0.64897
 C715 C 0.96313 0.70814 0.65744
 C716 C 0.92429 0.62967 0.68401
 H717 H 0.97147 0.67649 0.70638
 H718 H 0.94871 0.63144 0.72193
 H719 H 0.90354 0.63500 0.64361
 H720 H 0.92598 0.68024 0.62861
 C721 C 0.45016 0.17680 0.17024
 C722 C 0.43090 0.16567 0.15229
 C723 C 0.41726 0.14024 0.16046
 C724 C 0.47469 0.22534 0.15369
 C725 C 0.44232 0.13677 0.20457
 C726 C 0.45594 0.16226 0.19636
 C727 C 0.46378 0.20320 0.16170
 C728 C 0.42271 0.12555 0.18676
 H729 H 0.42637 0.17670 0.13197
 H730 H 0.40261 0.13196 0.14609
 H731 H 0.44671 0.12613 0.22510
 H732 H 0.47079 0.17071 0.21043
 C733 C 0.31571 0.45568 -0.13336
 C734 C 0.28583 0.46027 -0.12953
 C735 C 0.27108 0.44987 -0.10435
 C736 C 0.34438 0.47225 -0.18164
 C737 C 0.31617 0.43068 -0.08657
 C738 C 0.33085 0.44109 -0.11173
 C739 C 0.33093 0.46504 -0.15973
 C740 C 0.28607 0.43471 -0.08268
 H741 H 0.27391 0.47158 -0.14614
 H742 H 0.24795 0.45355 -0.10187
 H743 H 0.32830 0.41869 -0.07057
 H744 H 0.35397 0.43731 -0.11452
 C745 C 0.81226 0.95027 0.36172
 C746 C 0.81366 0.96405 0.38758
 C747 C 0.79872 0.95355 0.41263
 C748 C 0.84315 0.96735 0.31496
 C749 C 0.78069 0.91566 0.38587
 C750 C 0.79561 0.92618 0.36091
 C751 C 0.82883 0.95995 0.33627
 C752 C 0.78220 0.92910 0.41209
 H753 H 0.82654 0.98269 0.38845
 H754 H 0.80011 0.96452 0.43240
 H755 H 0.76862 0.89650 0.38481
 H756 H 0.79456 0.91522 0.34107
 C757 C 0.82768 0.02949 1.16650
 C758 C 0.81660 0.05784 1.16697
 C759 C 0.80427 0.07074 1.14277
 C760 C 0.84976 0.00589 1.21338
 C761 C 0.81419 0.02699 1.11727
 C762 C 0.82652 0.01408 1.14158
 C763 C 0.83988 0.01634 1.19179
 C764 C 0.80277 0.05543 1.11767
 H765 H 0.81748 0.07000 1.18609
 H766 H 0.79618 0.09283 1.14361
 H767 H 0.81317 0.01459 1.09835
 H768 H 0.83499 -0.00791 1.14100
 C769 C 0.32495 0.53263 0.66990
 C770 C 0.31383 0.56098 0.67004
 C771 C 0.30085 0.57332 0.64596
 C772 C 0.34834 0.51006 0.71653
 C773 C 0.31020 0.52902 0.62125
 C774 C 0.32318 0.51668 0.64544
 C775 C 0.33785 0.52006 0.69507
 C776 C 0.29873 0.55746 0.62132
 H777 H 0.31518 0.57356 0.68880
 H778 H 0.29274 0.59543 0.64652
 H779 H 0.30871 0.51622 0.60269
 H780 H 0.33169 0.49468 0.64513
 C781 C 0.17221 0.53582 0.37424
 C782 C 0.19887 0.52496 0.38325
 C783 C 0.21079 0.53645 0.40681
 C784 C 0.14869 0.51766 0.32873
 C785 C 0.16910 0.56922 0.41256
 C786 C 0.15726 0.55771 0.38917
 C787 C 0.16008 0.52530 0.34938
 C788 C 0.19618 0.55903 0.42140
 H789 H 0.21061 0.50798 0.37184
 H790 H 0.23175 0.52833 0.41305
 H791 H 0.15715 0.58627 0.42367
 H792 H 0.13654 0.56616 0.38248
 C793 C 0.68442 0.03650 0.86639
 C794 C 0.68002 0.02371 0.89405
 C795 C 0.69272 0.03477 0.91733
 C796 C 0.65570 0.02022 0.82335
 C797 C 0.71488 0.07091 0.88511
 C798 C 0.70224 0.05980 0.86192
 C799 C 0.66914 0.02716 0.84294
 C800 C 0.70978 0.05889 0.91316
 H801 H 0.66613 0.00573 0.89775
 H802 H 0.68824 0.02525 0.93870
 H803 H 0.72825 0.08925 0.88121
 H804 H 0.70580 0.06986 0.84062
 C805 C 0.67197 0.96034 0.67683
 C806 C 0.66951 0.97468 0.64995
 C807 C 0.67842 0.96077 0.62476
 C808 C 0.65209 0.98454 0.72465
 C809 C 0.69253 0.91827 0.65338
 C810 C 0.68366 0.93221 0.67848
 C811 C 0.66144 0.97391 0.70274
 C812 C 0.68977 0.93230 0.62621
 H813 H 0.66033 0.99642 0.64844
 H814 H 0.67579 0.97202 0.60417
 H815 H 0.70161 0.89652 0.65522
 H816 H 0.68566 0.92092 0.69918
 C817 C 0.17172 0.45845 0.18130
 C818 C 0.16829 0.47313 0.15474
 C819 C 0.17720 0.45995 0.12915
 C820 C 0.15086 0.48130 0.22951
 C821 C 0.19327 0.41746 0.15670
 C822 C 0.18439 0.43068 0.18222
 C823 C 0.16085 0.47119 0.20755
 C824 C 0.18953 0.43184 0.12985
 H825 H 0.15830 0.49456 0.15379
 H826 H 0.17378 0.47145 0.10884
 H827 H 0.20310 0.39599 0.15796
 H828 H 0.18709 0.41910 0.20266
 C829 C -0.13509 0.30135 0.44698
 C830 C -0.10973 0.30020 0.46164
 C831 C -0.08505 0.28544 0.45034
 C832 C -0.18044 0.33270 0.46597
 C833 C -0.11124 0.27254 0.40992
 C834 C -0.13585 0.28730 0.42124
 C835 C -0.15990 0.31808 0.45756
 C836 C -0.08546 0.27166 0.42420
 H837 H -0.10890 0.31104 0.48158
 H838 H -0.06563 0.28491 0.46197
 H839 H -0.11215 0.26258 0.38952
 H840 H -0.15532 0.28824 0.40962
 C841 C 0.36527 0.81068 0.94515
 C842 C 0.36814 0.78075 0.94865
 C843 C 0.39325 0.76618 0.93805
 C844 C 0.31819 0.83956 0.96407
 C845 C 0.41275 0.81153 0.92069
 C846 C 0.38767 0.82602 0.93127
 C847 C 0.33941 0.82591 0.95557
 C848 C 0.41581 0.78142 0.92384
 H849 H 0.35096 0.76868 0.95946
 H850 H 0.39506 0.74302 0.94103
 H851 H 0.42946 0.82386 0.90942
 H852 H 0.38564 0.84919 0.92839
 C853 C 1.17143 0.82398 0.02551
 C854 C 1.14771 0.82260 0.00868
 C855 C 1.12256 0.80996 0.02023
 C856 C 1.21988 0.84645 0.00431
 C857 C 1.14482 0.80019 0.06547
 C858 C 1.16986 0.81283 0.05392
 C859 C 1.19761 0.83641 0.01372
 C860 C 1.12092 0.79843 0.04872
 H861 H 1.14872 0.83112 -0.01338
 H862 H 1.10460 0.80876 0.00675
 H863 H 1.14407 0.79203 0.08764
 H864 H 1.18803 0.81386 0.06718
 C865 C 0.66839 0.32021 0.52416
 C866 C 0.66566 0.29045 0.52470
 C867 C 0.64014 0.27840 0.53582
 C868 C 0.71811 0.34188 0.50579
 C869 C 0.61964 0.32594 0.54534
 C870 C 0.64523 0.33796 0.53423
 C871 C 0.69528 0.33230 0.51406
 C872 C 0.61695 0.29597 0.54660
 H873 H 0.68342 0.27652 0.51687
 H874 H 0.63860 0.25530 0.53618
 H875 H 0.60232 0.34000 0.55380
 H876 H 0.64713 0.36102 0.53396
 C877 C 0.36552 0.17627 0.52642
 C878 C 0.36030 0.19542 0.54851
 C879 C 0.38317 0.20858 0.55969
 C880 C 0.32233 0.14658 0.51149
 C881 C 0.41665 0.18438 0.52595
 C882 C 0.39367 0.17111 0.51482
 C883 C 0.34217 0.16036 0.51750
 C884 C 0.41165 0.20273 0.54896
 H885 H 0.33861 0.19955 0.55767
 H886 H 0.37866 0.22292 0.57716
 H887 H 0.43838 0.17933 0.51744
 H888 H 0.39796 0.15619 0.49782
 C889 C 0.87078 0.67164 0.02473
 C890 C 0.87972 0.69847 0.01367
 C891 C 0.90329 0.71084 0.02476
 C892 C 0.82454 0.64735 0.00893
 C893 C 0.90922 0.66925 0.05744
 C894 C 0.88586 0.65694 0.04631
 C895 C 0.84556 0.65921 0.01519
 C896 C 0.91789 0.69653 0.04717
 H897 H 0.86817 0.71004 -0.00304
 H898 H 0.90946 0.73194 0.01660
 H899 H 0.92033 0.65756 0.07438
 H900 H 0.87920 0.63613 0.05494
 C901 C 0.67563 0.66352 0.95460
 C902 C 0.66183 0.69004 0.96061
 C903 C 0.63671 0.69892 0.94713
 C904 C 0.72380 0.64563 0.97815
 C905 C 0.63902 0.65462 0.92184
 C906 C 0.66405 0.64579 0.93535
 C907 C 0.70182 0.65436 0.96778
 C908 C 0.62516 0.68138 0.92740
 H909 H 0.67062 0.70394 0.97547
 H910 H 0.62673 0.71978 0.95159
 H911 H 0.63045 0.64046 0.90709
 H912 H 0.67449 0.62516 0.93064
 C913 C 0.17566 0.16156 0.45505
 C914 C 0.17832 0.17452 0.42737
 C915 C 0.15376 0.18337 0.41309
 C916 C 0.22260 0.14223 0.47998
 C917 C 0.12364 0.16659 0.45427
 C918 C 0.14828 0.15770 0.46853
 C919 C 0.20106 0.15130 0.46902
 C920 C 0.12612 0.17933 0.42628
 H921 H 0.19941 0.17759 0.41674
 H922 H 0.15639 0.19354 0.39176
 H923 H 0.10267 0.16295 0.46488
 H924 H 0.14599 0.14753 0.48990
 C925 C 0.56705 0.09230 0.71922
 C926 C 0.54310 0.10890 0.72946
 C927 C 0.53339 0.13311 0.71333
 C928 C 0.58884 0.04917 0.75100
 C929 C 0.57152 0.12404 0.67660
 C930 C 0.58115 0.09988 0.69273
 C931 C 0.57830 0.06848 0.73649
 C932 C 0.54759 0.14103 0.68676
 H933 H 0.53211 0.10330 0.75002
 H934 H 0.51472 0.14554 0.72158
 H935 H 0.58320 0.12978 0.65647
 H936 H 0.59990 0.08737 0.68475
 C937 C 1.06537 0.59206 0.21883
 C938 C 1.08051 0.59935 0.19281
 C939 C 1.07193 0.62370 0.17636
 C940 C 1.08557 0.54882 0.25153
 C941 C 1.03279 0.63353 0.21181
 C942 C 1.04144 0.60913 0.22827
 C943 C 1.07567 0.56814 0.23657
 C944 C 1.04804 0.64117 0.18572
 H945 H 1.09927 0.58648 0.18547
 H946 H 1.08439 0.62920 0.15661
 H947 H 1.01411 0.64633 0.21943
 H948 H 1.02967 0.60377 0.24848
 C949 C 0.93769 0.89719 0.20911
 C950 C 0.96618 0.89785 0.19760
 C951 C 0.97848 0.87454 0.18266
 C952 C 0.91265 0.93981 0.23807
 C953 C 0.93382 0.84987 0.19091
 C954 C 0.92162 0.87312 0.20580
 C955 C 0.92468 0.92086 0.22462
 C956 C 0.96234 0.85034 0.17904
 H957 H 0.97883 0.91638 0.20007
 H958 H 1.00039 0.87564 0.17353
 H959 H 0.92099 0.83138 0.18890
 H960 H 0.89962 0.87230 0.21479
 C961 C 0.43796 0.39834 0.71126
 C962 C 0.46659 0.39835 0.70008
 C963 C 0.47851 0.37479 0.68527
 C964 C 0.41321 0.44142 0.73975
 C965 C 0.43321 0.35117 0.69304
 C966 C 0.42139 0.37465 0.70780
 C967 C 0.42521 0.42230 0.72652
 C968 C 0.46185 0.35101 0.68143
 H969 H 0.47961 0.41658 0.70268
 H970 H 0.50053 0.37539 0.67635
 H971 H 0.41998 0.33301 0.69087
 H972 H 0.39927 0.37433 0.71655
 C973 C 0.45049 0.57884 0.77778
 C974 C 0.44074 0.60695 0.77053
 C975 C 0.45504 0.63031 0.77961
 C976 C 0.41771 0.53515 0.77148
 C977 C 0.48958 0.59744 0.80216
 C978 C 0.47533 0.57417 0.79300
 C979 C 0.43305 0.55502 0.77317
 C980 C 0.47908 0.62574 0.79631
 H981 H 0.42134 0.61082 0.75903
 H982 H 0.44632 0.65184 0.77502
 H983 H 0.50824 0.59332 0.81470
 H984 H 0.48297 0.55253 0.79890
 C985 C -0.05015 0.07479 0.27638
 C986 C -0.06049 0.10295 0.27036
 C987 C -0.04583 0.12617 0.27920
 C988 C -0.08294 0.03110 0.27010
 C989 C -0.00977 0.09309 0.29900
 C990 C -0.02440 0.06994 0.29009
 C991 C -0.06763 0.05097 0.27189
 C992 C -0.02079 0.12141 0.29440
 H993 H -0.08056 0.10694 0.26001
 H994 H -0.05499 0.14771 0.27563
 H995 H 0.00965 0.08881 0.31036
 H996 H -0.01627 0.04824 0.29500
 C997 C 0.06942 0.39625 0.29642
 C998 C 0.05143 0.38333 0.27833
 C999 C 0.04460 0.35450 0.28364
 C1000 C 0.08605 0.44958 0.28925
 C1001 C 0.07378 0.35174 0.32499
 C1002 C 0.08048 0.38037 0.31972
 C1003 C 0.07744 0.42557 0.29146
 C1004 C 0.05592 0.33836 0.30696
 H1005 H 0.04281 0.39544 0.26017
 H1006 H 0.03081 0.34475 0.26939
 H1007 H 0.08227 0.34018 0.34353
 H1008 H 0.09434 0.39016 0.33391
 C1009 C 0.57328 0.89908 0.79511
 C1010 C 0.55506 0.88625 0.77719
 C1011 C 0.54766 0.85764 0.78289
 C1012 C 0.59066 0.95209 0.78724
 C1013 C 0.57677 0.85487 0.82430
 C1014 C 0.58403 0.88330 0.81863
 C1015 C 0.58176 0.92820 0.78980
 C1016 C 0.55863 0.84160 0.80645
 H1017 H 0.54666 0.89829 0.75887
 H1018 H 0.53367 0.84797 0.76878
 H1019 H 0.58501 0.84341 0.84301
 H1020 H 0.59807 0.89302 0.83269
 C1021 C 0.72138 0.56178 0.09503
 C1022 C 0.69644 0.54648 0.09348
 C1023 C 0.68092 0.53742 0.11873
 C1024 C 0.74961 0.58318 0.04843
 C1025 C 0.71551 0.55857 0.14715
 C1026 C 0.73098 0.56759 0.12190
 C1027 C 0.73654 0.57279 0.06925
 C1028 C 0.69012 0.54363 0.14586
 H1029 H 0.68881 0.54188 0.07280
 H1030 H 0.66168 0.52560 0.11702
 H1031 H 0.72296 0.56402 0.16764
 H1032 H 0.75017 0.57958 0.12334
 C1033 C 0.22062 1.05863 0.59708
 C1034 C 0.19554 1.04363 0.59523
 C1035 C 0.17965 1.03470 0.62031
 C1036 C 0.24912 1.08024 0.55074
 C1037 C 0.21420 1.05534 0.64916
 C1038 C 0.23004 1.06422 0.62409
 C1039 C 0.23600 1.06972 0.57146
 C1040 C 0.18863 1.04076 0.64757
 H1041 H 0.18803 1.03921 0.57444
 H1042 H 0.16028 1.02317 0.61837
 H1043 H 0.22149 1.06067 0.66976
 H1044 H 0.24933 1.07599 0.62576
 C1045 C 0.21212 0.93531 0.90266
 C1046 C 0.20378 0.96452 0.90279
 C1047 C 0.18800 0.97715 0.88053
 C1048 C 0.24304 0.90956 0.94280
 C1049 C 0.18901 0.93134 0.85803
 C1050 C 0.20474 0.91881 0.88022
 C1051 C 0.22875 0.92197 0.92504
 C1052 C 0.18037 0.96064 0.85793
 H1053 H 0.20945 0.97750 0.92005
 H1054 H 0.18144 0.99969 0.88118
 H1055 H 0.18393 0.91815 0.84072
 H1056 H 0.21127 0.89624 0.87979
 C1057 C 0.71653 0.43440 0.40029
 C1058 C 0.70756 0.46343 0.40113
 C1059 C 0.69211 0.47641 0.37878
 C1060 C 0.74555 0.40735 0.44112
 C1061 C 0.69485 0.43136 0.35475
 C1062 C 0.71026 0.41850 0.37700
 C1063 C 0.73222 0.42048 0.42305
 C1064 C 0.68541 0.46041 0.35546
 H1065 H 0.71234 0.47594 0.41906
 H1066 H 0.68492 0.49874 0.38002
 H1067 H 0.69048 0.41861 0.33687
 H1068 H 0.71726 0.39607 0.37604
 C1069 C 0.79429 0.43654 0.57625
 C1070 C 0.82287 0.43387 0.58382
 C1071 C 0.83174 0.44896 0.60651
 C1072 C 0.78149 0.40586 0.53306
 C1073 C 0.78333 0.46960 0.61447
 C1074 C 0.77445 0.45440 0.59160
 C1075 C 0.78599 0.42042 0.55281
 C1076 C 0.81216 0.46712 0.62205
 H1077 H 0.83835 0.41996 0.57222
 H1078 H 0.85391 0.44605 0.61217
 H1079 H 0.76781 0.48351 0.62596
 H1080 H 0.75224 0.45658 0.58593
 C1081 C 0.28970 -0.06306 0.07533
 C1082 C 0.31806 -0.06637 0.08351
 C1083 C 0.32670 -0.05183 0.10667
 C1084 C 0.27789 -0.09224 0.03073
 C1085 C 0.27848 -0.03052 0.11399
 C1086 C 0.26983 -0.04517 0.09063
 C1087 C 0.28181 -0.07836 0.05116
 C1088 C 0.30712 -0.03356 0.12208
 H1089 H 0.33357 -0.08030 0.07196
 H1090 H 0.34871 -0.05515 0.11272
 H1091 H 0.26297 -0.01654 0.12541
 H1092 H 0.24780 -0.04248 0.08449
 C1093 C 0.28254 0.05758 0.39791
 C1094 C 0.27177 0.07508 0.37547
 C1095 C 0.27721 0.06747 0.34694
 C1096 C 0.28101 0.07821 0.44981
 C1097 C 0.30293 0.02398 0.36329
 C1098 C 0.29754 0.03169 0.39182
 C1099 C 0.28111 0.06797 0.42656
 C1100 C 0.29356 0.04225 0.34050
 H1101 H 0.26024 0.09524 0.37992
 H1102 H 0.26953 0.08182 0.32985
 H1103 H 0.31591 0.00463 0.35900
 H1104 H 0.30620 0.01811 0.40901
 C1105 C 0.78344 0.55908 0.89594
 C1106 C 0.77288 0.57631 0.87320
 C1107 C 0.77916 0.56870 0.84478
 C1108 C 0.78123 0.58017 0.94764
 C1109 C 0.80528 0.52572 0.86182
 C1110 C 0.79905 0.53342 0.89024
 C1111 C 0.78149 0.56971 0.92449
 C1112 C 0.79617 0.54376 0.83876
 H1113 H 0.76091 0.59630 0.87735
 H1114 H 0.77164 0.58285 0.82747
 H1115 H 0.81874 0.50660 0.85786
 H1116 H 0.80759 0.52009 0.90766
 C1117 C 0.08842 0.72634 0.57431
 C1118 C 0.09645 0.70087 0.58937
 C1119 C 0.12155 0.68526 0.58065
 C1120 C 0.04249 0.75673 0.59357
 C1121 C 0.13078 0.72058 0.54167
 C1122 C 0.10562 0.73618 0.55045
 C1123 C 0.06318 0.74286 0.58423
 C1124 C 0.13904 0.69493 0.55670
 H1125 H 0.08345 0.69320 0.60804
 H1126 H 0.12752 0.66584 0.59294
 H1127 H 0.14359 0.72841 0.52296
 H1128 H 0.09966 0.75595 0.53871
 C1129 C 0.59314 0.22259 1.07255
 C1130 C 0.60144 0.19664 1.08660
 C1131 C 0.62651 0.18147 1.07707
 C1132 C 0.54764 0.25225 1.09389
 C1133 C 0.63514 0.21813 1.03924
 C1134 C 0.61000 0.23331 1.04884
 C1135 C 0.56810 0.23876 1.08353
 C1136 C 0.64371 0.19205 1.05332
 H1137 H 0.58871 0.18831 1.10516
 H1138 H 0.63273 0.16170 1.08865
 H1139 H 0.64772 0.22667 1.02070
 H1140 H 0.60383 0.25346 1.03789
 C1141 C 0.90118 0.22306 0.93904
 C1142 C 0.87699 0.21968 0.92346
 C1143 C 0.85374 0.20473 0.93591
 C1144 C 0.94420 0.25074 0.91252
 C1145 C 0.87851 0.19680 0.97996
 C1146 C 0.90186 0.21178 0.96740
 C1147 C 0.92511 0.23799 0.92541
 C1148 C 0.85432 0.19287 0.96419
 H1149 H 0.87615 0.22847 0.90156
 H1150 H 0.83524 0.20247 0.92339
 H1151 H 0.87965 0.18770 1.00170
 H1152 H 0.92050 0.21430 0.97965
 C1153 C 0.39686 0.71933 0.44010
 C1154 C 0.39768 0.70780 0.46835
 C1155 C 0.37405 0.69342 0.48116
 C1156 C 0.43991 0.74673 0.41324
 C1157 C 0.34875 0.70240 0.43754
 C1158 C 0.37229 0.71673 0.42485
 C1159 C 0.42091 0.73399 0.42631
 C1160 C 0.34941 0.69038 0.46577
 H1161 H 0.41660 0.70973 0.48036
 H1162 H 0.37527 0.68417 0.50283
 H1163 H 0.32995 0.70083 0.42530
 H1164 H 0.37135 0.72575 0.40304
 C1165 C 0.57697 0.79572 0.44132
 C1166 C 0.58498 0.82425 0.43817
 C1167 C 0.60815 0.83322 0.45239
 C1168 C 0.53305 0.78279 0.41198
 C1169 C 0.61574 0.78502 0.47312
 C1170 C 0.59239 0.77604 0.45878
 C1171 C 0.55308 0.78733 0.42600
 C1172 C 0.62375 0.81380 0.47017
 H1173 H 0.57335 0.83962 0.42454
 H1174 H 0.61412 0.85535 0.44912
 H1175 H 0.62729 0.76961 0.48673
 H1176 H 0.58640 0.75386 0.46130
 C1177 C 0.08056 0.29188 -0.05392
 C1178 C 0.07541 0.30791 -0.02938
 C1179 C 0.09845 0.31675 -0.01473
 C1180 C 0.03762 0.28392 -0.08664
 C1181 C 0.13196 0.29251 -0.04841
 C1182 C 0.10885 0.28373 -0.06308
 C1183 C 0.05712 0.28661 -0.07135
 C1184 C 0.12701 0.30975 -0.02450
 H1185 H 0.05361 0.31446 -0.02217
 H1186 H 0.09398 0.32970 0.00383
 H1187 H 0.15369 0.28704 -0.05663
 H1188 H 0.11310 0.27156 -0.08222
 C1189 C 0.39739 0.28920 0.06703
 C1190 C 0.39332 0.30408 0.04070
 C1191 C 0.36544 0.31059 0.03210
 C1192 C 0.44815 0.28589 0.08946
 C1193 C 0.34571 0.28624 0.07558
 C1194 C 0.37356 0.27967 0.08408
 C1195 C 0.42544 0.28676 0.07837
 C1196 C 0.34134 0.30249 0.04991
 H1197 H 0.41160 0.31179 0.02748
 H1198 H 0.36273 0.32344 0.01240
 H1199 H 0.32755 0.27953 0.08958
 H1200 H 0.37646 0.26826 0.10457
 C1201 C 0.89601 0.78910 0.56658
 C1202 C 0.89176 0.80368 0.54014
 C1203 C 0.86385 0.80927 0.53124
 C1204 C 0.94681 0.78743 0.58897
 C1205 C 0.84446 0.78453 0.57464
 C1206 C 0.87236 0.77890 0.58345
 C1207 C 0.92402 0.78753 0.57806
 C1208 C 0.83986 0.80052 0.54885
 H1209 H 0.90989 0.81189 0.52703
 H1210 H 0.86099 0.82195 0.51147
 H1211 H 0.82640 0.77732 0.58850
 H1212 H 0.87539 0.76768 0.60401
   
