data_POSCAR
  _audit_creation_date              2014-09-24
  _audit_creation_method            'ToBaCCo'
  _symmetry_space_group_name_H-M    'P1'
  _symmetry_Int_Tables_number       1
  _symmetry_cell_setting            triclinic
  loop_
  _symmetry_equiv_pos_as_xyz
 x,y,z
_cell_length_a 40.2257
_cell_length_b 40.1854
_cell_length_c 13.9504
_cell_angle_alpha 89.934600
_cell_angle_beta 90.030600
_cell_angle_gamma 119.956800
loop_
  _atom_site_label
  _atom_site_type_symbol
  _atom_site_fract_x
  _atom_site_fract_y
  _atom_site_fract_z
O1 O 0.19971 0.46493 0.40973
 O2 O 0.26560 0.46482 0.59181
 O3 O 0.20019 0.46457 0.59369
 O4 O 0.26468 0.46481 0.40809
 O5 O 0.29660 0.52828 0.40766
 O6 O 0.23151 0.52804 0.59455
 O7 O 0.29677 0.52824 0.59455
 O8 O 0.23151 0.52840 0.40797
 Cu9 Cu 0.22938 0.45845 0.50092
 Cu10 Cu 0.26731 0.53466 0.50125
 C11 C 0.20396 0.49655 0.37888
 C12 C 0.29285 0.49640 0.62303
 C13 C 0.20423 0.49611 0.62415
 C14 C 0.29202 0.49643 0.37761
 O15 O 0.53475 -0.26694 0.40747
 O16 O 0.53537 -0.20116 0.59075
 O17 O 0.53474 -0.26676 0.59107
 O18 O 0.53518 -0.20150 0.40678
 O19 O 0.47177 -0.23274 0.40570
 O20 O 0.47137 -0.29790 0.59297
 O21 O 0.47198 -0.23239 0.59218
 O22 O 0.47139 -0.29809 0.40584
 Cu23 Cu 0.54133 -0.23096 0.49903
 Cu24 Cu 0.46522 -0.26848 0.49922
 C25 C 0.50310 -0.29414 0.37653
 C26 C 0.50392 -0.20504 0.62136
 C27 C 0.50310 -0.29392 0.62216
 C28 C 0.50369 -0.20548 0.37617
 O29 O 1.20057 0.73543 0.58841
 O30 O 1.26664 0.80104 0.40607
 O31 O 1.20112 0.73610 0.40452
 O32 O 1.26581 0.80034 0.58984
 O33 O 1.29746 0.76850 0.59060
 O34 O 1.23221 0.70370 0.40386
 O35 O 1.29761 0.76859 0.40367
 O36 O 1.23208 0.70347 0.59042
 Cu37 Cu 1.23041 0.77143 0.49713
 Cu38 Cu 1.26803 0.73284 0.49715
 C39 C 1.20461 0.70794 0.61933
 C40 C 1.29379 0.79654 0.37491
 C41 C 1.20503 0.70850 0.37417
 C42 C 1.29307 0.79593 0.62040
 O43 O 0.80099 0.53858 0.40953
 O44 O 0.73478 0.53810 0.59207
 O45 O 0.80026 0.53873 0.59434
 O46 O 0.73597 0.53842 0.40741
 O47 O 0.70432 0.47496 0.40699
 O48 O 0.76912 0.47526 0.59490
 O49 O 0.70387 0.47469 0.59444
 O50 O 0.76936 0.47512 0.40777
 Cu51 Cu 0.77113 0.54478 0.50094
 Cu52 Cu 0.73348 0.46861 0.50106
 C53 C 0.79669 0.50702 0.37809
 C54 C 0.70779 0.50641 0.62375
 C55 C 0.79608 0.50717 0.62540
 C56 C 0.70896 0.50676 0.37618
 O57 O 0.46229 0.19718 0.59311
 O58 O 0.46190 0.26286 0.40981
 O59 O 0.46194 0.19786 0.40851
 O60 O 0.46156 0.26202 0.59463
 O61 O 0.52496 0.29424 0.59522
 O62 O 0.52534 0.22957 0.40798
 O63 O 0.52528 0.29460 0.40807
 O64 O 0.52564 0.22957 0.59543
 Cu65 Cu 0.45560 0.22680 0.50160
 Cu66 Cu 0.53170 0.26521 0.50169
 C67 C 0.49395 0.20183 0.62490
 C68 C 0.49343 0.29008 0.37829
 C69 C 0.49357 0.20241 0.37740
 C70 C 0.49306 0.28936 0.62561
 O71 O 0.73687 0.19886 0.41087
 O72 O 0.80259 0.26507 0.59329
 O73 O 0.73785 0.19963 0.59567
 O74 O 0.80165 0.26401 0.40867
 O75 O 0.76987 0.29571 0.40816
 O76 O 0.70555 0.23080 0.59617
 O77 O 0.77015 0.29604 0.59561
 O78 O 0.70507 0.23052 0.40903
 Cu79 Cu 0.77293 0.22876 0.50218
 Cu80 Cu 0.73444 0.26645 0.50223
 C81 C 0.70961 0.20315 0.37946
 C82 C 0.79790 0.29208 0.62499
 C83 C 0.71054 0.20383 0.62679
 C84 C 0.79702 0.29109 0.37746
 O85 O 1.05312 0.58536 0.17307
 O86 O 1.09563 0.57591 0.08374
 C87 C 1.08760 0.59355 0.14953
 O88 O 0.94574 0.41268 0.16574
 O89 O 0.90312 0.42381 0.08183
 C90 C 0.91123 0.40471 0.14340
 O91 O 1.05279 0.46866 0.17409
 O92 O 1.09550 0.52051 0.08467
 C93 C 1.08733 0.49484 0.15078
 O94 O 0.94600 0.53484 0.16486
 O95 O 0.90319 0.48090 0.08191
 C96 C 0.91140 0.50822 0.14323
 Zr97 Zr 0.99952 0.54258 0.11883
 O98 O 0.99608 0.54268 0.27022
 O99 O 1.00133 0.59592 0.10761
 Zr100 Zr 0.99933 0.45832 0.12007
 O101 O 0.99524 0.45671 0.27152
 O102 O 1.00350 0.40783 0.12025
 O103 O 1.03365 0.51751 0.13844
 O104 O 0.96620 0.48392 0.13762
 O105 O 0.94572 0.53474 -0.16537
 O106 O 0.90303 0.48068 -0.08229
 C107 C 0.91116 0.50811 -0.14325
 O108 O 1.05258 0.46818 -0.17451
 O109 O 1.09536 0.52022 -0.08586
 C110 C 1.08713 0.49438 -0.15130
 O111 O 0.94540 0.41220 -0.16583
 O112 O 0.90295 0.42370 -0.08243
 C113 C 0.91091 0.40440 -0.14372
 O114 O 1.05288 0.58522 -0.17591
 O115 O 1.09552 0.57569 -0.08714
 C116 C 1.08741 0.59333 -0.15303
 Zr117 Zr 0.99940 0.54223 -0.12152
 O118 O 0.99509 0.53965 -0.27292
 O119 O 1.00308 0.59664 -0.12165
 Zr120 Zr 0.99913 0.45799 -0.12079
 O121 O 0.99491 0.45610 -0.27221
 O122 O 1.00323 0.40747 -0.11992
 Zr123 Zr 1.05703 0.52896 -0.00103
 Zr124 Zr 0.94190 0.47165 -0.00047
 O125 O 0.96596 0.48354 -0.13892
 O126 O 1.03352 0.51714 -0.14041
 O127 O 0.96493 0.53163 -0.00114
 O128 O 1.03284 0.46886 -0.00042
 O129 O 1.03327 0.56522 -0.00147
 O130 O 0.96472 0.43444 -0.00011
 H131 H 0.94924 0.47554 0.19460
 H132 H 1.05007 0.45786 -0.00017
 H133 H 0.94878 0.47502 -0.19552
 H134 H 1.05067 0.59342 -0.00178
 H135 H 0.98195 0.38830 0.08168
 H136 H 0.98169 0.38802 -0.08109
 H137 H 1.01670 0.48014 -0.29732
 H138 H 1.01673 0.53710 -0.29782
 H139 H 0.98513 0.59591 -0.07213
 H140 H 1.00125 0.60446 0.17418
 H141 H 1.01532 0.53650 0.29561
 H142 H 1.01711 0.48075 0.29631
 O143 O 0.53106 0.58458 -0.17595
 O144 O 0.47902 0.57522 -0.08708
 C145 C 0.50475 0.59281 -0.15279
 O146 O 0.46541 0.41161 -0.16630
 O147 O 0.51903 0.42254 -0.08212
 C148 C 0.49185 0.40347 -0.14358
 O149 O 0.41430 0.46781 -0.17530
 O150 O 0.42390 0.52008 -0.08705
 C151 C 0.40618 0.49425 -0.15249
 O152 O 0.58748 0.53372 -0.16684
 O153 O 0.57605 0.47959 -0.08385
 C154 C 0.59530 0.50694 -0.14506
 Zr155 Zr 0.54166 0.54157 -0.12152
 O156 O 0.54481 0.54112 -0.27293
 O157 O 0.59320 0.59484 -0.11170
 Zr158 Zr 0.45758 0.45752 -0.12156
 O159 O 0.46009 0.45592 -0.27300
 O160 O 0.40299 0.40711 -0.12165
 O161 O 0.48250 0.51670 -0.14075
 O162 O 0.51623 0.48286 -0.13947
 O163 O 0.58772 0.53423 0.16309
 O164 O 0.57627 0.48001 0.08089
 C165 C 0.59557 0.50750 0.14151
 O166 O 0.41470 0.46811 0.17318
 O167 O 0.42385 0.52004 0.08374
 C168 C 0.40637 0.49435 0.14970
 O169 O 0.46568 0.41187 0.16554
 O170 O 0.51925 0.42276 0.08139
 C171 C 0.49216 0.40377 0.14331
 O172 O 0.53142 0.58500 0.17216
 O173 O 0.47904 0.57526 0.08420
 C174 C 0.50492 0.59304 0.14951
 Zr175 Zr 0.54156 0.54159 0.11885
 O176 O 0.54309 0.53899 0.27031
 O177 O 0.59233 0.59587 0.11853
 Zr178 Zr 0.45766 0.45755 0.11929
 O179 O 0.45982 0.45564 0.27073
 O180 O 0.40305 0.40713 0.11842
 Zr181 Zr 0.47072 0.52842 -0.00143
 Zr182 Zr 0.52829 0.47069 -0.00120
 O183 O 0.51631 0.48292 0.13704
 O184 O 0.48246 0.51674 0.13810
 O185 O 0.56526 0.53065 -0.00135
 O186 O 0.43477 0.46836 -0.00117
 O187 O 0.53068 0.56449 -0.00156
 O188 O 0.46831 0.43370 -0.00103
 H189 H 0.52476 0.47431 -0.19624
 H190 H 0.40658 0.45746 -0.00115
 H191 H 0.52496 0.47444 0.19381
 H192 H 0.54155 0.59271 -0.00164
 H193 H 0.40485 0.38776 -0.08170
 H194 H 0.40530 0.38741 0.08122
 H195 H 0.46285 0.48006 0.29551
 H196 H 0.51929 0.53736 0.29516
 H197 H 0.60923 0.59520 0.06798
 H198 H 0.60170 0.60316 -0.17848
 H199 H 0.51959 0.53565 -0.29809
 H200 H 0.46194 0.47983 -0.29795
 O201 O 0.53193 -0.05368 0.17454
 O202 O 0.48026 -0.09626 0.08456
 C203 C 0.50582 -0.08819 0.15072
 O204 O 0.46631 0.05346 0.16569
 O205 O 0.52007 0.09628 0.08230
 C206 C 0.49281 0.08805 0.14360
 O207 O 0.41526 -0.05376 0.17313
 O208 O 0.42504 -0.09627 0.08466
 C209 C 0.40722 -0.08827 0.15007
 O210 O 0.58822 0.05355 0.16676
 O211 O 0.57712 0.09638 0.08337
 C212 C 0.59617 0.08818 0.14502
 Zr213 Zr 0.54267 -0.00004 0.12029
 O214 O 0.54580 0.00326 0.27174
 O215 O 0.59425 -0.00168 0.11026
 Zr216 Zr 0.45854 -0.00012 0.11998
 O217 O 0.46066 0.00370 0.27147
 O218 O 0.40391 -0.00434 0.11912
 O219 O 0.48349 -0.03436 0.13900
 O220 O 0.51716 0.03316 0.13842
 O221 O 0.58908 0.05412 -0.16338
 O222 O 0.57739 0.09669 -0.08080
 C223 C 0.59683 0.08866 -0.14137
 O224 O 0.41605 -0.05310 -0.17522
 O225 O 0.42520 -0.09598 -0.08622
 C226 C 0.40774 -0.08770 -0.15208
 O227 O 0.46680 0.05413 -0.16598
 O228 O 0.52047 0.09662 -0.08187
 C229 C 0.49334 0.08866 -0.14355
 O230 O 0.53275 -0.05314 -0.17432
 O231 O 0.48052 -0.09597 -0.08622
 C232 C 0.50638 -0.08775 -0.15170
 Zr233 Zr 0.54295 0.00031 -0.12008
 O234 O 0.54494 0.00477 -0.27148
 O235 O 0.59372 -0.00321 -0.11937
 Zr236 Zr 0.45896 0.00036 -0.12086
 O237 O 0.46157 0.00478 -0.27225
 O238 O 0.40431 -0.00394 -0.12091
 Zr239 Zr 0.47195 -0.05762 -0.00056
 Zr240 Zr 0.52942 0.05762 0.00042
 O241 O 0.51763 0.03369 -0.13811
 O242 O 0.48387 -0.03394 -0.13985
 O243 O 0.56646 0.03471 0.00055
 O244 O 0.43594 -0.03355 -0.00078
 O245 O 0.53192 -0.03368 -0.00002
 O246 O 0.46944 0.03466 -0.00017
 H247 H 0.52559 0.05008 0.19547
 H248 H 0.40775 -0.05087 -0.00104
 H249 H 0.52634 0.05094 -0.19464
 H250 H 0.54281 -0.05102 -0.00005
 H251 H 0.40601 0.01732 0.08068
 H252 H 0.40624 0.01755 -0.08212
 H253 H 0.46412 -0.01687 -0.29723
 H254 H 0.52093 -0.01700 -0.29670
 H255 H 0.61072 0.01460 -0.06933
 H256 H 0.60271 -0.00163 0.17702
 H257 H 0.52039 -0.01614 0.29671
 H258 H 0.46267 -0.01829 0.29629
 N259 N 1.14062 0.46339 0.30435
 C260 C 1.17522 0.49586 0.31278
 N261 N 1.18136 0.52793 0.26503
 N262 N 1.15377 0.52747 0.21090
 C263 C 1.11894 0.49506 0.20381
 N264 N 1.11295 0.46305 0.25130
 N265 N 0.53698 0.68010 0.29399
 C266 C 0.50350 0.67934 0.31309
 N267 N 0.47049 0.65079 0.27447
 N268 N 0.47101 0.62390 0.21950
 C269 C 0.50445 0.62431 0.20239
 N270 N 0.53740 0.65295 0.24036
 N271 N 0.31990 -0.14346 0.29355
 C272 C 0.32046 -0.17637 0.31194
 N273 N 0.34899 -0.18086 0.27324
 N274 N 0.37604 -0.15332 0.21887
 C275 C 0.37583 -0.12010 0.20248
 N276 N 0.34721 -0.11575 0.24052
 N277 N 0.85901 0.54045 0.29765
 C278 C 0.82483 0.50775 0.30971
 N279 N 0.81843 0.47547 0.26269
 N280 N 0.84544 0.47589 0.20633
 C281 C 0.87989 0.50851 0.19572
 N282 N 0.88610 0.54076 0.24223
 N283 N 0.52496 0.34341 0.26273
 C284 C 0.49271 0.31752 0.30977
 N285 N 0.46003 0.31905 0.29770
 N286 N 0.45971 0.34587 0.24227
 C287 C 0.49193 0.37193 0.19575
 N288 N 0.52453 0.37004 0.20635
 N289 N 0.65628 0.18129 0.26417
 C290 C 0.68217 0.17493 0.31128
 N291 N 0.68070 0.14071 0.29951
 N292 N 0.65393 0.11355 0.24424
 C293 C 0.62787 0.11973 0.19761
 N294 N 0.62970 0.15422 0.20796
 N295 N 0.52679 0.18028 -0.27076
 C296 C 0.49368 0.17535 -0.31000
 N297 N 0.46031 0.14274 -0.28931
 N298 N 0.46014 0.11567 -0.23387
 C299 C 0.49323 0.12041 -0.19544
 N300 N 0.52654 0.15339 -0.21410
 N301 N 0.68229 0.54005 -0.29081
 C302 C 0.68154 0.50666 -0.31141
 N303 N 0.65338 0.47349 -0.27224
 N304 N 0.62675 0.47372 -0.21571
 C305 C 0.62708 0.50706 -0.19711
 N306 N 0.65539 0.54020 -0.23550
 N307 N 0.81942 0.34647 -0.27088
 C308 C 0.82436 0.31826 -0.31005
 N309 N 0.85692 0.31741 -0.28933
 N310 N 0.88395 0.34425 -0.23392
 C311 C 0.87920 0.37261 -0.19556
 N312 N 0.84627 0.37305 -0.21426
 N313 N 0.47293 -0.18201 -0.26521
 C314 C 0.50489 -0.17609 -0.31283
 N315 N 0.53743 -0.14150 -0.30472
 N316 N 0.53794 -0.11366 -0.25206
 C317 C 0.50604 -0.11944 -0.20469
 N318 N 0.47357 -0.15424 -0.21149
 N319 N 0.34805 0.52878 -0.27538
 C320 C 0.31951 0.49583 -0.31424
 N321 N 0.31893 0.46232 -0.29624
 N322 N 0.34625 0.46184 -0.24338
 C323 C 0.37487 0.49475 -0.20514
 N324 N 0.37509 0.52820 -0.22117
 N325 N 1.18161 0.65389 -0.26693
 C326 C 1.17570 0.67995 -0.31478
 N327 N 1.14115 0.67799 -0.30667
 N328 N 1.11334 0.65073 -0.25381
 C329 C 1.11911 0.62459 -0.20620
 N330 N 1.15387 0.62683 -0.21300
 N331 N 0.85826 0.54067 -0.29434
 C332 C 0.82413 0.50793 -0.30625
 N333 N 0.81794 0.47554 -0.26012
 N334 N 0.84514 0.47588 -0.20471
 C335 C 0.87956 0.50853 -0.19438
 N336 N 0.88554 0.54091 -0.23988
 N337 N 0.45952 0.31814 -0.29463
 C338 C 0.49225 0.31666 -0.30624
 N339 N 0.52454 0.34276 -0.25992
 N340 N 0.52412 0.36960 -0.20461
 C341 C 0.49150 0.37146 -0.19459
 N342 N 0.45921 0.34517 -0.24029
 N343 N 0.65715 0.18194 -0.25874
 C344 C 0.68340 0.17581 -0.30461
 N345 N 0.68219 0.14174 -0.29219
 N346 N 0.65526 0.11444 -0.23754
 C347 C 0.62881 0.12036 -0.19234
 N348 N 0.63042 0.15473 -0.20314
 N349 N 1.14084 0.46278 -0.30204
 C350 C 1.17545 0.49527 -0.31008
 N351 N 1.18141 0.52738 -0.26309
 N352 N 1.15361 0.52692 -0.21002
 C353 C 1.11878 0.49450 -0.20339
 N354 N 1.11297 0.46244 -0.25004
 N355 N 0.53695 0.68016 -0.29604
 C356 C 0.50351 0.67954 -0.31461
 N357 N 0.47049 0.65096 -0.27613
 N358 N 0.47095 0.62388 -0.22175
 C359 C 0.50434 0.62413 -0.20527
 N360 N 0.53732 0.65281 -0.24302
 N361 N 0.32296 -0.14095 -0.30444
 C362 C 0.32095 -0.17552 -0.31332
 N363 N 0.34699 -0.18166 -0.26627
 N364 N 0.37412 -0.15405 -0.21233
 C365 C 0.37642 -0.11926 -0.20486
 N366 N 0.35029 -0.11328 -0.25160
 N367 N 0.47257 -0.18258 0.26297
 C368 C 0.50460 -0.17667 0.31023
 N369 N 0.53711 -0.14207 0.30216
 N370 N 0.53753 -0.11417 0.24988
 C371 C 0.50555 -0.11994 0.20296
 N372 N 0.47311 -0.15475 0.20960
 N373 N 0.34586 0.52780 0.26410
 C374 C 0.31977 0.49565 0.31112
 N375 N 0.32163 0.46302 0.30200
 N376 N 0.34887 0.46258 0.24901
 C377 C 0.37506 0.49466 0.20234
 N378 N 0.37291 0.52723 0.21002
 N379 N 1.14166 0.67872 0.30038
 C380 C 1.17617 0.68063 0.30844
 N381 N 1.18196 0.65436 0.26144
 N382 N 1.15409 0.62714 0.20831
 C383 C 1.11936 0.62494 0.20166
 N384 N 1.11372 0.65129 0.24834
 N385 N 0.46028 0.14048 0.29604
 C386 C 0.49299 0.17457 0.30870
 N387 N 0.52538 0.18095 0.26254
 N388 N 0.52506 0.15395 0.20641
 C389 C 0.49243 0.11955 0.19533
 N390 N 0.46006 0.11339 0.24087
 N391 N 0.68058 0.54014 0.29367
 C392 C 0.68182 0.50734 0.30706
 N393 N 0.65574 0.47487 0.26128
 N394 N 0.62912 0.47519 0.20488
 C395 C 0.62748 0.50790 0.19312
 N396 N 0.65377 0.54036 0.23823
 N397 N 0.85880 0.31961 0.29561
 C398 C 0.82477 0.31833 0.30855
 N399 N 0.81841 0.34446 0.26260
 N400 N 0.84538 0.37116 0.20640
 C401 C 0.87972 0.37282 0.19508
 N402 N 0.88585 0.34649 0.24040
   
