data_POSCAR
  _audit_creation_date              2014-09-24
  _audit_creation_method            'ToBaCCo'
  _symmetry_space_group_name_H-M    'P1'
  _symmetry_Int_Tables_number       1
  _symmetry_cell_setting            triclinic
  loop_
  _symmetry_equiv_pos_as_xyz
 x,y,z
_cell_length_a 27.8974
_cell_length_b 28.1833
_cell_length_c 25.9272
_cell_angle_alpha 90.719100
_cell_angle_beta 90.890500
_cell_angle_gamma 84.858300
loop_
  _atom_site_label
  _atom_site_type_symbol
  _atom_site_fract_x
  _atom_site_fract_y
  _atom_site_fract_z
C1 C 1.30634 0.22010 0.24613
 C2 C 1.26495 0.24276 0.22301
 C3 C 1.23034 0.21554 0.20064
 C4 C 1.23723 0.16546 0.20071
 C5 C 1.27872 0.14321 0.22484
 C6 C 1.31326 0.17019 0.24881
 C7 C 1.25673 0.29516 0.22549
 C8 C 1.28970 0.32352 0.20363
 C9 C 1.28287 0.37375 0.20743
 C10 C 1.24305 0.39441 0.23476
 C11 C 1.21110 0.36627 0.25864
 C12 C 1.21729 0.31656 0.25243
 H13 H 1.33214 0.24183 0.26437
 H14 H 1.19861 0.23400 0.18334
 H15 H 1.31943 0.30555 0.18288
 H16 H 1.19233 0.29412 0.26926
 H17 H 1.28314 0.10477 0.22491
 H18 H 1.23762 0.43286 0.23905
 C19 C 0.78151 -0.28563 0.26113
 C20 C 0.74761 -0.26918 0.22386
 C21 C 0.72536 -0.30163 0.19251
 C22 C 0.73590 -0.35108 0.19896
 C23 C 0.77200 -0.36727 0.23518
 C24 C 0.79524 -0.33445 0.26680
 C25 C 0.73672 -0.21749 0.21767
 C26 C 0.75543 -0.19446 0.17599
 C27 C 0.75323 -0.14463 0.17498
 C28 C 0.73009 -0.11767 0.21497
 C29 C 0.70845 -0.14050 0.25539
 C30 C 0.71302 -0.19058 0.25692
 H31 H 0.79834 -0.25965 0.28493
 H32 H 0.70003 -0.28792 0.16312
 H33 H 0.77462 -0.21535 0.14617
 H34 H 0.69981 -0.20890 0.28958
 H35 H 0.78030 -0.40524 0.23933
 H36 H 0.72862 -0.07912 0.21433
 C37 C 0.76059 0.19260 -0.20560
 C38 C 0.73357 0.21675 -0.24465
 C39 C 0.70399 0.19198 -0.27754
 C40 C 0.70126 0.14273 -0.27130
 C41 C 0.72833 0.11911 -0.23179
 C42 C 0.75826 0.14344 -0.19893
 C43 C 0.74134 0.26667 -0.25462
 C44 C 0.77955 0.27662 -0.28585
 C45 C 0.79196 0.32345 -0.29124
 C46 C 0.76399 0.36064 -0.26558
 C47 C 0.72474 0.35120 -0.23545
 C48 C 0.71389 0.30379 -0.22956
 H49 H 0.78504 0.21215 -0.18268
 H50 H 0.68531 0.21098 -0.30894
 H51 H 0.80062 0.24730 -0.30464
 H52 H 0.68541 0.29537 -0.20424
 H53 H 0.72717 0.08100 -0.22747
 H54 H 0.77098 0.39746 -0.26961
 C55 C 1.27284 -0.29187 -0.23476
 C56 C 1.24910 -0.25740 -0.26627
 C57 C 1.21423 -0.26972 -0.30176
 C58 C 1.20223 -0.31679 -0.30521
 C59 C 1.22651 -0.35187 -0.27331
 C60 C 1.26289 -0.33998 -0.23838
 C61 C 1.26083 -0.20813 -0.25994
 C62 C 1.30436 -0.19505 -0.27820
 C63 C 1.31948 -0.15004 -0.26682
 C64 C 1.29107 -0.11866 -0.23420
 C65 C 1.24784 -0.13261 -0.21379
 C66 C 1.23223 -0.17684 -0.22892
 H67 H 1.29758 -0.27949 -0.20624
 H68 H 1.19610 -0.24257 -0.32619
 H69 H 1.32647 -0.22027 -0.30163
 H70 H 1.19852 -0.18813 -0.21565
 H71 H 1.21837 -0.38864 -0.27696
 H72 H 1.30304 -0.08439 -0.22334
 C73 C 0.19707 0.27578 0.74625
 C74 C 0.23263 0.24592 0.77108
 C75 C 0.21944 0.20957 0.80288
 C76 C 0.17072 0.20197 0.80946
 C77 C 0.13524 0.23242 0.78378
 C78 C 0.14807 0.26946 0.75264
 C79 C 0.28366 0.24930 0.75915
 C80 C 0.30963 0.28474 0.78203
 C81 C 0.35911 0.28641 0.77137
 C82 C 0.38103 0.25259 0.73711
 C83 C 0.35485 0.21862 0.71259
 C84 C 0.30623 0.21659 0.72425
 H85 H 0.20808 0.30216 0.71997
 H86 H 0.24754 0.18634 0.82137
 H87 H 0.29119 0.30918 0.80910
 H88 H 0.28591 0.18939 0.70687
 H89 H 0.09734 0.22865 0.78806
 H90 H 0.41889 0.25324 0.72834
 C91 C 0.70589 0.78953 0.72228
 C92 C 0.73671 0.75919 0.75207
 C93 C 0.71844 0.72306 0.77994
 C94 C 0.66885 0.71706 0.77936
 C95 C 0.63776 0.74727 0.74718
 C96 C 0.65656 0.78354 0.71780
 C97 C 0.78878 0.76392 0.75104
 C98 C 0.80752 0.80423 0.77234
 C99 C 0.85678 0.81008 0.76965
 C100 C 0.88703 0.77585 0.74211
 C101 C 0.86781 0.73618 0.71783
 C102 C 0.81889 0.72978 0.72486
 H103 H 0.72138 0.81688 0.70047
 H104 H 0.74335 0.69993 0.80289
 H105 H 0.78359 0.83073 0.79206
 H106 H 0.80326 0.69881 0.70930
 H107 H 0.59976 0.74293 0.74520
 H108 H 0.92482 0.78086 0.73809
 C109 C 0.68278 0.26690 0.20819
 C110 C 0.70647 0.23369 0.24183
 C111 C 0.68094 0.19983 0.26582
 C112 C 0.63127 0.19881 0.25669
 C113 C 0.60786 0.23224 0.22280
 C114 C 0.63304 0.26657 0.19829
 C115 C 0.75753 0.23647 0.25511
 C116 C 0.77039 0.26930 0.29255
 C117 C 0.81878 0.27292 0.30583
 C118 C 0.85458 0.24233 0.28117
 C119 C 0.84196 0.20844 0.24405
 C120 C 0.79304 0.20607 0.23110
 H121 H 0.70355 0.29282 0.19073
 H122 H 0.69986 0.17604 0.29322
 H123 H 0.74244 0.29232 0.31123
 H124 H 0.78224 0.18166 0.20145
 H125 H 0.56940 0.23206 0.21616
 H126 H 0.89217 0.24383 0.29139
 C127 C 0.20369 0.76897 0.25288
 C128 C 0.22632 0.72990 0.27930
 C129 C 0.19915 0.69477 0.29850
 C130 C 0.14862 0.69856 0.29193
 C131 C 0.12661 0.73794 0.26522
 C132 C 0.15339 0.77338 0.24543
 C133 C 0.27847 0.72734 0.28941
 C134 C 0.29598 0.75013 0.33317
 C135 C 0.34578 0.75085 0.34144
 C136 C 0.37773 0.72765 0.30620
 C137 C 0.36069 0.70438 0.26266
 C138 C 0.31069 0.70448 0.25422
 H139 H 0.22586 0.79556 0.23914
 H140 H 0.21812 0.66581 0.31942
 H141 H 0.27064 0.76747 0.36013
 H142 H 0.29667 0.68831 0.21968
 H143 H 0.08776 0.74120 0.26000
 H144 H 0.41622 0.72858 0.31205
 O145 O 1.08156 0.04855 0.07325
 O146 O 0.91824 -0.05741 0.02850
 O147 O 0.96926 0.06784 0.08143
 O148 O 1.05619 -0.07455 0.09159
 O149 O 0.91083 0.02808 0.05607
 O150 O 1.11271 -0.03584 0.06290
 O151 O 0.97326 -0.07114 0.08312
 O152 O 1.03547 0.10337 0.03734
 C153 C 1.06826 0.09159 0.06924
 C154 C 0.93015 -0.06898 0.07297
 C155 C 0.92890 0.05420 0.08950
 C156 C 1.09816 -0.06414 0.09434
 O157 O 1.10561 -0.03122 -0.03570
 O158 O 0.92807 0.05051 -0.04258
 O159 O 1.00806 0.06951 -0.05166
 O160 O 0.98305 -0.09681 -0.02106
 O161 O 0.94801 -0.03590 -0.06263
 O162 O 1.08278 0.05684 -0.03069
 O163 O 1.07097 -0.09420 -0.00931
 O164 O 0.94500 0.11422 0.00097
 Co165 Co 1.08750 0.00912 0.01745
 Co166 Co 0.93414 -0.00339 -0.00264
 Co167 Co 0.98894 0.06536 0.01529
 Co168 Co 1.01929 -0.07770 0.03421
 O169 O 1.01152 -0.00422 0.01778
 C170 C 1.10075 -0.07521 -0.03773
 C171 C 0.91547 0.09374 -0.02996
 C172 C 1.05081 0.07306 -0.06186
 C173 C 0.96397 -0.07913 -0.06182
 O174 O 1.07763 0.51208 0.57666
 O175 O 0.91564 0.47791 0.56292
 O176 O 0.96748 0.57789 0.54967
 O177 O 1.02743 0.41487 0.58510
 O178 O 0.90607 0.55127 0.51568
 O179 O 1.09433 0.42942 0.55593
 O180 O 0.94851 0.40707 0.55335
 O181 O 1.05028 0.57663 0.53921
 C182 C 1.06894 0.55573 0.57828
 C183 C 0.92296 0.43712 0.57937
 C184 C 0.92361 0.57744 0.54888
 C185 C 1.07094 0.41640 0.59250
 O186 O 1.09121 0.45074 0.45524
 O187 O 0.92663 0.50076 0.42845
 O188 O 1.03725 0.55487 0.43448
 O189 O 0.98548 0.39840 0.45460
 O190 O 0.91566 0.42792 0.47230
 O191 O 1.09812 0.53267 0.47992
 O192 O 1.06302 0.38975 0.48718
 O193 O 0.95194 0.56937 0.44354
 Co194 Co 1.08139 0.48159 0.51570
 Co195 Co 0.92477 0.48897 0.49607
 Co196 Co 1.00191 0.56188 0.49281
 Co197 Co 1.00581 0.41013 0.51898
 O198 O 1.00336 0.48569 0.50593
 C199 C 1.08547 0.40781 0.45204
 C200 C 0.93150 0.54141 0.41370
 C201 C 1.08140 0.54975 0.43899
 C202 C 0.94259 0.40205 0.44354
 O203 O 0.58207 0.03645 0.54982
 O204 O 0.42340 -0.00295 0.56188
 O205 O 0.44895 0.08628 0.52934
 O206 O 0.54044 -0.10193 0.53237
 O207 O 0.39057 0.05457 0.49575
 O208 O 0.56861 -0.04308 0.56732
 O209 O 0.45687 -0.07474 0.56131
 O210 O 0.53293 0.09426 0.52148
 C211 C 0.56659 0.07913 0.55043
 C212 C 0.43374 -0.04083 0.58493
 C213 C 0.40484 0.08565 0.52487
 C214 C 0.55927 -0.08461 0.57070
 O215 O 0.58407 -0.06588 0.46316
 O216 O 0.42341 -0.00211 0.42204
 O217 O 0.53251 0.07198 0.42414
 O218 O 0.43120 -0.07843 0.45949
 O219 O 0.37124 -0.03342 0.49020
 O220 O 0.59267 0.02084 0.45000
 O221 O 0.51519 -0.08923 0.43648
 O222 O 0.44421 0.06951 0.42447
 Co223 Co 0.57445 -0.01290 0.50618
 Co224 Co 0.42596 -0.00341 0.49265
 Co225 Co 0.48954 0.07307 0.47639
 Co226 Co 0.48671 -0.07791 0.49784
 O227 O 0.49804 -0.00174 0.49377
 C228 C 0.55936 -0.08711 0.43024
 C229 C 0.42562 0.03664 0.40032
 C230 C 0.57504 0.05327 0.41995
 C231 C 0.38736 -0.07495 0.47239
 O232 O 0.58320 0.53891 0.04091
 O233 O 0.42504 0.48208 0.05919
 O234 O 0.47027 0.58916 0.06352
 O235 O 0.53325 0.42767 0.03995
 O236 O 0.40420 0.56290 0.04068
 O237 O 0.59401 0.45894 0.00948
 O238 O 0.45108 0.41913 0.01994
 O239 O 0.54442 0.60406 0.02077
 C240 C 0.57390 0.58176 0.04997
 C241 C 0.43268 0.43834 0.05905
 C242 C 0.42918 0.58008 0.07493
 C243 C 0.57686 0.43263 0.04201
 O244 O 0.57081 0.49100 -0.08900
 O245 O 0.40271 0.54144 -0.06286
 O246 O 0.49953 0.60050 -0.07086
 O247 O 0.46749 0.43662 -0.08100
 O248 O 0.40389 0.46060 -0.04118
 O249 O 0.57257 0.57189 -0.05942
 O250 O 0.55259 0.42525 -0.06003
 O251 O 0.42411 0.60484 -0.02926
 Co252 Co 0.57182 0.51505 -0.02339
 Co253 Co 0.41717 0.51199 -0.00211
 Co254 Co 0.48536 0.59115 -0.00447
 Co255 Co 0.50014 0.43596 -0.01975
 O256 O 0.49382 0.51354 -0.01243
 C257 C 0.56737 0.44804 -0.09610
 C258 C 0.40345 0.58496 -0.06518
 C259 C 0.54162 0.59710 -0.08538
 C260 C 0.42302 0.44169 -0.08008
 C261 C 1.20254 0.13443 0.17660
 C262 C 1.16130 0.14958 0.15234
 C263 C 1.13194 0.11456 0.12765
 C264 C 1.09292 0.12748 0.09870
 H265 H 1.14956 0.18700 0.14900
 H266 H 1.14401 0.07707 0.13134
 H267 H 1.21212 0.09630 0.17825
 H268 H 1.08088 0.16484 0.09404
 C269 C 1.16625 0.67142 0.65545
 C270 C 1.13681 0.63740 0.66212
 C271 C 1.10637 0.62195 0.61944
 C272 C 1.08651 0.58100 0.62331
 H273 H 1.13747 0.61855 0.69835
 H274 H 1.10526 0.64047 0.58296
 H275 H 1.16402 0.69142 0.61989
 H276 H 1.09074 0.56128 0.65902
 C277 C 0.67444 0.11329 0.69269
 C278 C 0.64197 0.13039 0.65769
 C279 C 0.62019 0.09723 0.62209
 C280 C 0.58719 0.11241 0.58685
 H281 H 0.63152 0.16815 0.65475
 H282 H 0.63187 0.05954 0.62445
 H283 H 0.68231 0.07494 0.69492
 H284 H 0.57500 0.14997 0.58471
 C285 C 0.71031 0.61405 0.16734
 C286 C 0.66560 0.62446 0.14812
 C287 C 0.64111 0.59218 0.11289
 C288 C 0.59935 0.60806 0.09000
 H289 H 0.64632 0.65842 0.15765
 H290 H 0.65806 0.55705 0.10370
 H291 H 0.72852 0.57907 0.16003
 H292 H 0.58416 0.64405 0.09846
 C293 C 0.77828 -0.12191 0.13352
 C294 C 0.81831 -0.10065 0.14379
 C295 C 0.84957 -0.08666 0.10220
 C296 C 0.89578 -0.08070 0.11240
 H297 H 0.83031 -0.09726 0.18357
 H298 H 0.83557 -0.08361 0.06302
 H299 H 0.76825 -0.12923 0.09386
 H300 H 0.90965 -0.08585 0.15142
 C301 C 0.83100 0.33114 0.67699
 C302 C 0.85041 0.37268 0.67348
 C303 C 0.88600 0.38029 0.63391
 C304 C 0.89649 0.42454 0.62468
 H305 H 0.83902 0.40266 0.69806
 H306 H 0.89978 0.35096 0.60929
 H307 H 0.84616 0.30158 0.65342
 H308 H 0.88045 0.45377 0.64810
 C309 C 0.36489 -0.13853 0.70929
 C310 C 0.37478 -0.09459 0.69732
 C311 C 0.41133 -0.08829 0.65797
 C312 C 0.41409 -0.04586 0.63669
 H313 H 0.35157 -0.06397 0.71010
 H314 H 0.43051 -0.11959 0.64072
 H315 H 0.38797 -0.16823 0.69387
 H316 H 0.39389 -0.01485 0.65329
 C317 C 0.31323 0.40449 0.18432
 C318 C 0.35432 0.39049 0.16032
 C319 C 0.37942 0.42458 0.13059
 C320 C 0.41471 0.40861 0.09907
 H321 H 0.36879 0.35366 0.15962
 H322 H 0.36583 0.46186 0.13026
 H323 H 0.30206 0.44241 0.18513
 H324 H 0.42662 0.37091 0.09804
 C325 C 0.78985 0.11513 -0.16210
 C326 C 0.81436 0.13392 -0.12345
 C327 C 0.84945 0.10361 -0.09301
 C328 C 0.87729 0.12261 -0.05758
 H329 H 0.81000 0.17169 -0.11487
 H330 H 0.85405 0.06567 -0.10127
 H331 H 0.79417 0.07681 -0.16806
 H332 H 0.87286 0.16056 -0.04945
 C333 C 0.83085 0.65271 0.30481
 C334 C 0.85261 0.60899 0.31246
 C335 C 0.88702 0.59994 0.35620
 C336 C 0.90742 0.55605 0.36470
 H337 H 0.84484 0.57940 0.28769
 H338 H 0.89243 0.62820 0.38388
 H339 H 0.84218 0.68090 0.32988
 H340 H 0.89989 0.52776 0.33783
 C341 C 0.35282 0.15008 0.27813
 C342 C 0.36188 0.10374 0.28950
 C343 C 0.39784 0.08945 0.32985
 C344 C 0.40060 0.04607 0.35062
 H345 H 0.34039 0.07683 0.27384
 H346 H 0.41855 0.11659 0.34690
 H347 H 0.37614 0.17460 0.29603
 H348 H 0.37965 0.01886 0.33421
 C349 C 0.28710 0.62447 -0.20705
 C350 C 0.32703 0.63146 -0.17937
 C351 C 0.34858 0.59776 -0.14086
 C352 C 0.37982 0.61364 -0.10652
 H353 H 0.34500 0.66349 -0.18374
 H354 H 0.33798 0.56175 -0.13918
 H355 H 0.27276 0.59003 -0.20503
 H356 H 0.38803 0.65052 -0.10776
 C357 C 1.21973 -0.10135 -0.17634
 C358 C 1.19024 -0.11852 -0.14199
 C359 C 1.16129 -0.08734 -0.10608
 C360 C 1.12991 -0.10530 -0.07453
 H361 H 1.18741 -0.15644 -0.13941
 H362 H 1.16549 -0.04947 -0.10574
 H363 H 1.22419 -0.06354 -0.17623
 H364 H 1.12566 -0.14316 -0.07552
 C365 C 1.17355 0.39028 0.29186
 C366 C 1.15484 0.36918 0.33181
 C367 C 1.12577 0.39779 0.36948
 C368 C 1.10869 0.37809 0.41114
 H369 H 1.16423 0.33186 0.33967
 H370 H 1.12038 0.43608 0.36448
 H371 H 1.16486 0.42825 0.28677
 H372 H 1.11274 0.33977 0.41582
 C373 C 0.68391 -0.11196 0.29740
 C374 C 0.64654 -0.12696 0.32257
 C375 C 0.62422 -0.10012 0.36657
 C376 C 0.58252 -0.11179 0.38552
 H377 H 0.63185 -0.15973 0.31056
 H378 H 0.64191 -0.07083 0.38354
 H379 H 0.69629 -0.07755 0.30718
 H380 H 0.56390 -0.13952 0.36665
 C381 C 0.69794 0.39135 -0.20789
 C382 C 0.65147 0.39154 -0.19630
 C383 C 0.62789 0.42863 -0.16235
 C384 C 0.58555 0.42183 -0.14191
 H385 H 0.63129 0.36238 -0.20920
 H386 H 0.64754 0.45807 -0.14902
 H387 H 0.71730 0.42159 -0.19650
 H388 H 0.56806 0.39025 -0.15276
 C389 C 1.15969 0.16473 -0.15809
 C390 C 1.11574 0.14967 -0.15277
 C391 C 1.10698 0.11403 -0.11377
 C392 C 1.06265 0.10104 -0.10662
 H393 H 1.08535 0.16387 -0.17582
 H394 H 1.13629 0.10092 -0.08831
 H395 H 1.18898 0.14683 -0.13567
 H396 H 1.03330 0.11488 -0.13164
 C397 C 1.11844 0.66630 0.31276
 C398 C 1.13334 0.62729 0.33953
 C399 C 1.09837 0.60096 0.36685
 C400 C 1.11373 0.56874 0.40195
 H401 H 1.17109 0.61598 0.34482
 H402 H 1.06017 0.61132 0.36223
 H403 H 1.07983 0.67463 0.30846
 H404 H 1.15207 0.55998 0.40779
 C405 C 0.60174 0.16695 0.28546
 C406 C 0.61952 0.12877 0.31234
 C407 C 0.58795 0.10470 0.34663
 C408 C 0.60505 0.06993 0.37861
 H409 H 0.65739 0.11660 0.31152
 H410 H 0.55042 0.11839 0.34850
 H411 H 0.56324 0.17671 0.28618
 H412 H 0.64256 0.05623 0.37704
 C413 C 0.65385 0.68130 -0.18810
 C414 C 0.60856 0.67085 -0.18025
 C415 C 0.59889 0.63503 -0.14094
 C416 C 0.55391 0.62718 -0.12883
 H417 H 0.57846 0.68949 -0.20044
 H418 H 0.62877 0.61681 -0.11978
 H419 H 0.68173 0.66103 -0.16583
 H420 H 0.52423 0.64633 -0.14944
 C421 C 0.87385 -0.14686 -0.20461
 C422 C 0.91543 -0.14673 -0.17815
 C423 C 0.92445 -0.10652 -0.14258
 C424 C 0.95884 -0.11214 -0.10606
 H425 H 0.94046 -0.17845 -0.17823
 H426 H 0.90001 -0.07437 -0.14282
 H427 H 0.84804 -0.11586 -0.20116
 H428 H 0.98120 -0.14565 -0.10486
 C429 C 0.82978 0.30796 0.34674
 C430 C 0.87191 0.32682 0.35125
 C431 C 0.88176 0.36051 0.39351
 C432 C 0.92626 0.37353 0.39988
 H433 H 0.90003 0.31712 0.32375
 H434 H 0.85387 0.37245 0.42057
 H435 H 0.80148 0.31964 0.37345
 H436 H 0.95392 0.35942 0.37345
 C437 C 0.36635 -0.22262 0.38447
 C438 C 0.34401 -0.18352 0.40598
 C439 C 0.37250 -0.15230 0.43709
 C440 C 0.35461 -0.10948 0.45368
 H441 H 0.30720 -0.17147 0.39573
 H442 H 0.41059 -0.16268 0.44183
 H443 H 0.40397 -0.23203 0.39417
 H444 H 0.31650 -0.09854 0.44988
 C445 C 0.38861 0.31899 -0.20565
 C446 C 0.37316 0.35657 -0.17665
 C447 C 0.40797 0.38472 -0.14956
 C448 C 0.39214 0.42036 -0.11844
 H449 H 0.33519 0.36613 -0.17098
 H450 H 0.44616 0.37351 -0.15113
 H451 H 0.42713 0.31320 -0.21185
 H452 H 0.35374 0.43021 -0.11604
 C453 C 1.12800 -0.18874 0.21898
 C454 C 1.14712 -0.15271 0.19570
 C455 C 1.11502 -0.11924 0.16519
 C456 C 1.13121 -0.08791 0.13283
 H457 H 1.18535 -0.14913 0.19590
 H458 H 1.07673 -0.12331 0.16602
 H459 H 1.08920 -0.18952 0.21590
 H460 H 1.16930 -0.08329 0.13127
 C461 C 1.10977 0.29809 0.72353
 C462 C 1.11518 0.34178 0.70651
 C463 C 1.08152 0.36495 0.66837
 C464 C 1.09624 0.39954 0.63958
 H465 H 1.14700 0.35919 0.71725
 H466 H 1.04772 0.35020 0.65952
 H467 H 1.07697 0.28179 0.71392
 H468 H 1.13165 0.41155 0.64664
 C469 C 0.62989 -0.18586 0.68283
 C470 C 0.58421 -0.18847 0.66660
 C471 C 0.56283 -0.15742 0.62446
 C472 C 0.57530 -0.11309 0.61629
 H473 H 0.56362 -0.21663 0.67960
 H474 H 0.53651 -0.17203 0.59911
 H475 H 0.64956 -0.15927 0.66469
 H476 H 0.59863 -0.09678 0.64373
 C477 C 0.60537 0.30137 0.16378
 C478 C 0.62330 0.33770 0.13970
 C479 C 0.59176 0.36937 0.10618
 C480 C 0.60853 0.40387 0.07821
 H481 H 0.66071 0.34431 0.14383
 H482 H 0.55395 0.36333 0.10324
 H483 H 0.56746 0.29677 0.15797
 H484 H 0.64642 0.40957 0.08011
 C485 C 0.88046 0.17836 0.21682
 C486 C 0.87376 0.13583 0.19527
 C487 C 0.90994 0.11113 0.16084
 C488 C 0.90020 0.07194 0.13421
 H489 H 0.84013 0.12017 0.20046
 H490 H 0.94257 0.12788 0.15318
 H491 H 0.91516 0.19242 0.21322
 H492 H 0.86668 0.05639 0.14074
 C493 C 0.89878 0.70212 0.68514
 C494 C 0.88096 0.67331 0.64898
 C495 C 0.91212 0.63972 0.61704
 C496 C 0.89325 0.61020 0.58249
 H497 H 0.84266 0.67475 0.64140
 H498 H 0.95084 0.63932 0.62169
 H499 H 0.93748 0.70168 0.68999
 H500 H 0.85452 0.61047 0.57826
 C501 C 0.38038 0.18566 0.67578
 C502 C 0.35936 0.16628 0.63505
 C503 C 0.38972 0.13785 0.59849
 C504 C 0.37194 0.11550 0.55783
 H505 H 0.32100 0.17259 0.62774
 H506 H 0.42829 0.13449 0.60577
 H507 H 0.41919 0.17987 0.68042
 H508 H 0.33347 0.11704 0.55063
 C509 C 0.39583 0.68340 0.22491
 C510 C 0.38806 0.64467 0.19724
 C511 C 0.42018 0.62744 0.15526
 C512 C 0.40662 0.59300 0.12426
 H513 H 0.35607 0.62657 0.20397
 H514 H 0.45183 0.64550 0.14682
 H515 H 0.42893 0.70018 0.21995
 H516 H 0.37365 0.57692 0.13230
   
