data_POSCAR
  _audit_creation_date              2014-09-24
  _audit_creation_method            'ToBaCCo'
  _symmetry_space_group_name_H-M    'P1'
  _symmetry_Int_Tables_number       1
  _symmetry_cell_setting            triclinic
  loop_
  _symmetry_equiv_pos_as_xyz
 x,y,z
_cell_length_a 33.4882
_cell_length_b 32.8316
_cell_length_c 33.0340
_cell_angle_alpha 89.937900
_cell_angle_beta 88.791800
_cell_angle_gamma 91.157900
loop_
  _atom_site_label
  _atom_site_type_symbol
  _atom_site_fract_x
  _atom_site_fract_y
  _atom_site_fract_z
N1 N 0.57455 0.69396 0.60843
 N2 N 0.55895 0.67733 0.64149
 C3 C 0.52676 0.69853 0.65337
 C4 C 0.52190 0.73016 0.62624
 C5 C 0.55271 0.72616 0.59806
 H6 H 0.50809 0.69114 0.67950
 H7 H 0.55864 0.74537 0.57192
 Cu8 Cu 0.58184 0.62920 0.66544
 Cu9 Cu 0.62193 0.67264 0.58138
 Cu10 Cu 0.66414 0.58764 0.62436
 N11 N 0.60622 0.58199 0.68962
 N12 N 0.63850 0.56599 0.67352
 C13 C 0.64915 0.53405 0.69616
 C14 C 0.62196 0.52952 0.72813
 C15 C 0.59515 0.56070 0.72302
 H16 H 0.67472 0.51528 0.68990
 H17 H 0.56966 0.56769 0.74212
 N18 N 0.68568 0.61400 0.57468
 N19 N 0.66988 0.64658 0.55854
 C20 C 0.69147 0.65751 0.52527
 C21 C 0.72238 0.63049 0.52019
 C22 C 0.71761 0.60325 0.55195
 H23 H 0.68488 0.68302 0.50604
 H24 H 0.73628 0.57754 0.55791
 H25 H 0.61377 0.61305 0.60054
 H26 H 0.64565 0.64685 0.63247
 N27 N 0.92234 0.30533 0.10302
 N28 N 0.93752 0.32124 0.13593
 C29 C 0.96904 0.29922 0.14685
 C30 C 0.97406 0.26793 0.11920
 C31 C 0.94367 0.27276 0.09181
 H32 H 0.98719 0.30530 0.17293
 H33 H 0.93711 0.25403 0.06584
 Cu34 Cu 0.91467 0.36924 0.16114
 Cu35 Cu 0.87586 0.32774 0.07726
 Cu36 Cu 0.83542 0.41419 0.12057
 N37 N 0.89224 0.41836 0.18449
 N38 N 0.86112 0.43561 0.16864
 C39 C 0.85139 0.46841 0.19085
 C40 C 0.87793 0.47217 0.22221
 C41 C 0.90346 0.43978 0.21725
 H42 H 0.82673 0.48816 0.18484
 H43 H 0.92804 0.43202 0.23624
 N44 N 0.81367 0.38796 0.07191
 N45 N 0.82887 0.35485 0.05563
 C46 C 0.80733 0.34412 0.02321
 C47 C 0.77709 0.37181 0.01884
 C48 C 0.78216 0.39921 0.05015
 H49 H 0.81345 0.31820 0.00415
 H50 H 0.76396 0.42536 0.05650
 H51 H 0.88571 0.38695 0.09653
 H52 H 0.85135 0.35429 0.12854
 N53 N 0.42518 0.18993 -0.10165
 N54 N 0.44199 0.17418 -0.13419
 C55 C 0.47451 0.19688 -0.14471
 C56 C 0.47853 0.22828 -0.11712
 C57 C 0.44654 0.22298 -0.09024
 H58 H 0.49392 0.19129 -0.17059
 H59 H 0.43887 0.24198 -0.06468
 Cu60 Cu 0.41972 0.12572 -0.15977
 Cu61 Cu 0.37635 0.16703 -0.07709
 Cu62 Cu 0.33482 0.08182 -0.12312
 N63 N 0.39551 0.07842 -0.18572
 N64 N 0.36221 0.06159 -0.17135
 C65 C 0.35182 0.02995 -0.19500
 C66 C 0.38018 0.02655 -0.22578
 C67 C 0.40749 0.05793 -0.21899
 H68 H 0.32557 0.01066 -0.19029
 H69 H 0.43388 0.06555 -0.23698
 N70 N 0.31151 0.10676 -0.07409
 N71 N 0.32708 0.13944 -0.05679
 C72 C 0.30407 0.14936 -0.02451
 C73 C 0.27272 0.12143 -0.02107
 C74 C 0.27834 0.09492 -0.05314
 H75 H 0.30953 0.17500 -0.00474
 H76 H 0.25947 0.06919 -0.06101
 H77 H 0.38446 0.10798 -0.09661
 H78 H 0.35478 0.14158 -0.12972
 N79 N 0.07745 0.80595 0.39496
 N80 N 0.06240 0.82258 0.36261
 C81 C 0.02978 0.80084 0.35185
 C82 C 0.02385 0.76906 0.37911
 C83 C 0.05494 0.77322 0.40598
 H84 H 0.01154 0.80743 0.32612
 H85 H 0.06128 0.75378 0.43134
 Cu86 Cu 0.08690 0.87103 0.33784
 Cu87 Cu 0.12543 0.82750 0.42019
 Cu88 Cu 0.16891 0.91462 0.37772
 N89 N 0.11105 0.92065 0.31513
 N90 N 0.14326 0.93730 0.33069
 C91 C 0.15395 0.97078 0.30923
 C92 C 0.12694 0.97546 0.27847
 C93 C 0.10006 0.94316 0.28328
 H94 H 0.17938 0.99022 0.31581
 H95 H 0.07452 0.93667 0.26470
 N96 N 0.19045 0.88716 0.42535
 N97 N 0.17405 0.85383 0.44137
 C98 C 0.19551 0.84252 0.47339
 C99 C 0.22694 0.87009 0.47775
 C100 C 0.22267 0.89799 0.44686
 H101 H 0.18839 0.81646 0.49234
 H102 H 0.24175 0.92434 0.44080
 H103 H 0.11781 0.88713 0.40220
 H104 H 0.15013 0.85499 0.36896
 C105 C 0.09181 0.15191 0.12659
 N106 N 0.12108 0.15223 0.09748
 C107 C 0.15049 0.12436 0.09804
 N108 N 0.15035 0.09591 0.12790
 C109 C 0.12122 0.09521 0.15713
 N110 N 0.09202 0.12331 0.15634
 C111 C 0.40397 0.84941 0.62235
 N112 N 0.40429 0.87902 0.65102
 C113 C 0.37594 0.90802 0.65172
 N114 N 0.34707 0.90721 0.62345
 C115 C 0.34641 0.87774 0.59463
 N116 N 0.37488 0.84885 0.59430
 C117 C 0.90281 0.65168 0.37146
 N118 N 0.87283 0.65235 0.39978
 C119 C 0.84298 0.62374 0.39959
 N120 N 0.84322 0.59432 0.37072
 C121 C 0.87301 0.59334 0.34220
 N122 N 0.90280 0.62203 0.34280
 C123 C 0.59834 0.35057 -0.12425
 N124 N 0.62782 0.35013 -0.09666
 C125 C 0.65722 0.37926 -0.09737
 N126 N 0.65699 0.40900 -0.12599
 C127 C 0.62762 0.40976 -0.15372
 N128 N 0.59836 0.38051 -0.15264
 C129 C 0.00400 0.23743 0.12028
 C130 C 0.04670 0.25550 0.12204
 C131 C 0.07553 0.22705 0.12472
 C132 C 0.05935 0.18294 0.12510
 C133 C 0.02859 0.18137 0.16042
 C134 C -0.00027 0.20982 0.15784
 C135 C 0.00539 0.20766 0.08417
 C136 C 0.03429 0.17927 0.08685
 H137 H 0.05371 0.28793 0.12115
 H138 H 0.10704 0.23522 0.12627
 H139 H 0.02923 0.15984 0.18533
 H140 H -0.02409 0.21231 0.18047
 H141 H -0.01398 0.20862 0.05835
 H142 H 0.03903 0.15636 0.06365
 C143 C 0.48985 0.76179 0.62586
 C144 C 0.46125 0.76196 0.66301
 C145 C 0.43275 0.79084 0.66129
 C146 C 0.43521 0.81707 0.62278
 C147 C 0.47814 0.83451 0.62140
 C148 C 0.50668 0.80564 0.62315
 C149 C 0.46239 0.75742 0.58937
 C150 C 0.43380 0.78625 0.58769
 H151 H 0.46317 0.74171 0.68879
 H152 H 0.41055 0.79479 0.68532
 H153 H 0.48547 0.86682 0.61929
 H154 H 0.53837 0.81334 0.62267
 H155 H 0.46517 0.73360 0.56679
 H156 H 0.41238 0.78689 0.56352
 C157 C 0.99292 0.73834 0.37789
 C158 C 0.98990 0.70915 0.41453
 C159 C 0.96024 0.68040 0.41178
 C160 C 0.93607 0.68317 0.37294
 C161 C 0.92119 0.72712 0.37219
 C162 C 0.95082 0.75593 0.37495
 C163 C 0.99708 0.71021 0.34090
 C164 C 0.96745 0.68139 0.33827
 H165 H 1.00856 0.71096 0.44089
 H166 H 0.95424 0.65794 0.43540
 H167 H 0.88997 0.73492 0.36986
 H168 H 0.94475 0.78830 0.37514
 H169 H 1.02137 0.71266 0.31867
 H170 H 0.96660 0.65951 0.31369
 C171 C 0.51030 0.26149 -0.11820
 C172 C 0.51103 0.29015 -0.08131
 C173 C 0.54007 0.31974 -0.08378
 C174 C 0.56584 0.31819 -0.12273
 C175 C 0.58192 0.27469 -0.12400
 C176 C 0.55293 0.24508 -0.12147
 C177 C 0.50679 0.28991 -0.15486
 C178 C 0.53573 0.31956 -0.15730
 H179 H 0.49106 0.28740 -0.05516
 H180 H 0.54446 0.34210 -0.06000
 H181 H 0.61344 0.26777 -0.12656
 H182 H 0.55973 0.21289 -0.12173
 H183 H 0.48342 0.28699 -0.17702
 H184 H 0.53692 0.34174 -0.18170
 C185 C 0.12597 0.00815 0.24638
 C186 C 0.08876 0.03465 0.24999
 C187 C 0.08665 0.06366 0.22064
 C188 C 0.12207 0.06359 0.19013
 C189 C 0.15931 0.06770 0.21627
 C190 C 0.16145 0.03879 0.24566
 C191 C 0.12505 -0.00914 0.20318
 C192 C 0.12288 0.01980 0.17382
 H193 H 0.06603 0.03096 0.27370
 H194 H 0.06199 0.08454 0.21945
 H195 H 0.18215 0.09134 0.21195
 H196 H 0.18637 0.03803 0.26602
 H197 H 0.12602 -0.04143 0.19627
 H198 H 0.12186 0.01220 0.14188
 C199 C 0.62270 0.49912 -0.24078
 C200 C 0.65994 0.50286 -0.21446
 C201 C 0.66209 0.47349 -0.18550
 C202 C 0.62670 0.44279 -0.18533
 C203 C 0.58945 0.46909 -0.18131
 C204 C 0.58720 0.49850 -0.21019
 C205 C 0.62359 0.45547 -0.25768
 C206 C 0.62584 0.42612 -0.22874
 H207 H 0.68267 0.52672 -0.21816
 H208 H 0.68674 0.47243 -0.16474
 H209 H 0.56662 0.46482 -0.15777
 H210 H 0.56210 0.51877 -0.21089
 H211 H 0.62245 0.44820 -0.28970
 H212 H 0.62677 0.39393 -0.23609
 C213 C 0.37988 0.99531 0.74078
 C214 C 0.34381 0.99917 0.71316
 C215 C 0.34207 0.97051 0.68347
 C216 C 0.37670 0.94034 0.68401
 C217 C 0.41469 0.96733 0.68204
 C218 C 0.41645 0.99607 0.71167
 C219 C 0.37728 0.95132 0.75673
 C220 C 0.37548 0.92262 0.72709
 H221 H 0.32158 1.02260 0.71658
 H222 H 0.31822 0.96963 0.66174
 H223 H 0.43826 0.96405 0.65928
 H224 H 0.44177 1.01697 0.71396
 H225 H 0.37692 0.94340 0.78866
 H226 H 0.37346 0.89024 0.73372
 C227 C 0.87734 0.50426 0.25486
 C228 C 0.83955 0.50145 0.28198
 C229 C 0.83763 0.53075 0.31103
 C230 C 0.87383 0.56048 0.31043
 C231 C 0.91028 0.53308 0.31352
 C232 C 0.91221 0.50370 0.28453
 C233 C 0.87792 0.54792 0.23797
 C234 C 0.87595 0.57728 0.26699
 H235 H 0.81628 0.47826 0.27866
 H236 H 0.81258 0.53243 0.33231
 H237 H 0.93278 0.53661 0.33651
 H238 H 0.93663 0.48257 0.28300
 H239 H 0.87975 0.55514 0.20590
 H240 H 0.87598 0.60952 0.25968
 C241 C 0.23952 0.12153 0.01050
 C242 C 0.25476 0.12418 0.05402
 C243 C 0.22516 0.12571 0.08284
 C244 C 0.18285 0.12415 0.06570
 C245 C 0.18235 0.15955 0.03509
 C246 C 0.21201 0.15811 0.00631
 C247 C 0.21114 0.08400 0.01079
 C248 C 0.18158 0.08548 0.03964
 H249 H 0.28616 0.12477 0.06154
 H250 H 0.23132 0.12776 0.11491
 H251 H 0.16076 0.18375 0.03585
 H252 H 0.21553 0.18094 -0.01736
 H253 H 0.21403 0.05811 -0.00930
 H254 H 0.15941 0.06114 0.04371
 C255 C 0.75430 0.62944 0.48731
 C256 C 0.75031 0.59189 0.45986
 C257 C 0.77942 0.58954 0.43062
 C258 C 0.81016 0.62506 0.43142
 C259 C 0.78511 0.66360 0.42883
 C260 C 0.75591 0.66599 0.45799
 C261 C 0.79674 0.62747 0.50396
 C262 C 0.82589 0.62502 0.47478
 H263 H 0.72649 0.56912 0.46310
 H264 H 0.78031 0.56462 0.40908
 H265 H 0.79006 0.68715 0.40607
 H266 H 0.73636 0.69185 0.45992
 H267 H 0.80331 0.62800 0.53600
 H268 H 0.85731 0.62331 0.48193
 C269 C 0.74536 0.37313 -0.01287
 C270 C 0.74401 0.33685 -0.04240
 C271 C 0.71499 0.33942 -0.07047
 C272 C 0.68981 0.37786 -0.06669
 C273 C 0.67381 0.37745 -0.02276
 C274 C 0.70280 0.37484 0.00535
 C275 C 0.74942 0.41093 -0.04023
 C276 C 0.72046 0.41347 -0.06839
 H277 H 0.76368 0.31107 -0.04146
 H278 H 0.71029 0.31610 -0.09325
 H279 H 0.64234 0.37902 -0.01445
 H280 H 0.69604 0.37405 0.03763
 H281 H 0.77317 0.43373 -0.03772
 H282 H 0.71963 0.43858 -0.08972
 C283 C 0.25861 0.87134 0.50956
 C284 C 0.25872 0.83481 0.53887
 C285 C 0.28768 0.83744 0.56711
 C286 C 0.31403 0.87616 0.56368
 C287 C 0.33025 0.87628 0.51983
 C288 C 0.30131 0.87363 0.49155
 C289 C 0.25554 0.90886 0.53711
 C290 C 0.28443 0.91146 0.56541
 H291 H 0.23832 0.80882 0.53762
 H292 H 0.29159 0.81395 0.58976
 H293 H 0.36182 0.87820 0.51170
 H294 H 0.30820 0.87316 0.45930
 H295 H 0.23248 0.93145 0.53461
 H296 H 0.28589 0.93642 0.58687
   
