data_POSCAR
  _audit_creation_date              2014-09-24
  _audit_creation_method            'ToBaCCo'
  _symmetry_space_group_name_H-M    'P1'
  _symmetry_Int_Tables_number       1
  _symmetry_cell_setting            triclinic
  loop_
  _symmetry_equiv_pos_as_xyz
 x,y,z
_cell_length_a 41.6103
_cell_length_b 48.2184
_cell_length_c 7.4103
_cell_angle_alpha 93.591000
_cell_angle_beta 93.430800
_cell_angle_gamma 90.265400
loop_
  _atom_site_label
  _atom_site_type_symbol
  _atom_site_fract_x
  _atom_site_fract_y
  _atom_site_fract_z
C1 C 0.16341 0.24976 0.23072
 C2 C 0.17898 0.22485 0.26383
 C3 C 0.21259 0.22411 0.28552
 C4 C 0.23134 0.24806 0.26588
 C5 C 0.21517 0.27294 0.22799
 C6 C 0.18147 0.27388 0.21547
 C7 C 0.26738 0.24711 0.28787
 C8 C 0.28551 0.27135 0.34141
 C9 C 0.31914 0.27056 0.36009
 C10 C 0.33520 0.24540 0.33453
 C11 C 0.31769 0.22100 0.28653
 C12 C 0.28411 0.22192 0.25863
 H13 H 0.13731 0.25046 0.21761
 H14 H 0.22380 0.20476 0.31960
 H15 H 0.22841 0.29174 0.20787
 H16 H 0.27384 0.29099 0.37055
 H17 H 0.36127 0.24486 0.35289
 H18 H 0.27134 0.20287 0.21427
 C19 C 0.83147 0.25163 0.15465
 C20 C 0.81528 0.27613 0.20110
 C21 C 0.78247 0.27521 0.23347
 C22 C 0.76498 0.24986 0.21156
 C23 C 0.78176 0.22544 0.16194
 C24 C 0.81485 0.22629 0.13754
 C25 C 0.72952 0.24893 0.23814
 C26 C 0.71436 0.22442 0.28732
 C27 C 0.68100 0.22352 0.30574
 C28 C 0.66261 0.24742 0.28387
 C29 C 0.67731 0.27195 0.23923
 C30 C 0.71030 0.27256 0.21257
 H31 H 0.85697 0.25228 0.13205
 H32 H 0.77092 0.29437 0.27616
 H33 H 0.76936 0.20564 0.14011
 H34 H 0.72823 0.20597 0.31214
 H35 H 0.63690 0.24697 0.30133
 H36 H 0.72061 0.29159 0.17053
 C37 C 0.66653 0.75340 0.66631
 C38 C 0.68295 0.72855 0.63468
 C39 C 0.71654 0.72799 0.65639
 C40 C 0.73422 0.75220 0.71561
 C41 C 0.71724 0.77706 0.75042
 C42 C 0.68367 0.77771 0.72266
 C43 C 0.77014 0.75159 0.73659
 C44 C 0.78854 0.77533 0.70791
 C45 C 0.82220 0.77479 0.72656
 C46 C 0.83802 0.75028 0.76808
 C47 C 0.82014 0.72639 0.79374
 C48 C 0.78645 0.72714 0.78168
 H49 H 0.64050 0.75388 0.64589
 H50 H 0.72868 0.70866 0.62421
 H51 H 0.72987 0.79602 0.79874
 H52 H 0.77689 0.79428 0.66895
 H53 H 0.86414 0.74972 0.77996
 H54 H 0.77319 0.70859 0.80780
 C55 C 0.33617 0.75171 0.73066
 C56 C 0.31905 0.77621 0.76095
 C57 C 0.28599 0.77508 0.78636
 C58 C 0.26898 0.74943 0.77103
 C59 C 0.28680 0.72498 0.73528
 C60 C 0.32016 0.72612 0.72068
 C61 C 0.23316 0.74819 0.79198
 C62 C 0.21755 0.72313 0.82825
 C63 C 0.18413 0.72208 0.84377
 C64 C 0.16600 0.74632 0.83441
 C65 C 0.18098 0.77137 0.80317
 C66 C 0.21396 0.77216 0.77633
 H67 H 0.36191 0.75255 0.71484
 H68 H 0.27409 0.79446 0.81872
 H69 H 0.27525 0.70482 0.71751
 H70 H 0.23092 0.70425 0.84614
 H71 H 0.14029 0.74576 0.85163
 H72 H 0.22410 0.79171 0.74295
 O73 O 0.97412 -0.01990 -0.28632
 O74 O 1.03429 0.03097 -0.08858
 O75 O 1.03526 -0.02124 -0.20597
 O76 O 0.97333 0.03274 -0.17471
 O77 O 0.96404 0.02181 0.10289
 O78 O 1.02591 -0.03248 0.07093
 O79 O 1.02516 0.01994 0.18874
 O80 O 0.96488 -0.03064 -0.00849
 Cu81 Cu 1.00532 0.00701 -0.21538
 Cu82 Cu 0.99395 -0.00663 0.11527
 C83 C 0.95976 -0.03437 -0.17820
 C84 C 1.03951 0.03449 0.08120
 C85 C 1.04050 -0.03641 -0.07382
 C86 C 0.95863 0.03675 -0.03053
 O87 O 0.46259 0.47406 0.34026
 O88 O 0.52203 0.52915 0.28478
 O89 O 0.52047 0.47471 0.23615
 O90 O 0.46356 0.52837 0.38386
 O91 O 0.48128 0.52566 0.66956
 O92 O 0.53808 0.47175 0.52177
 O93 O 0.53966 0.52591 0.57019
 O94 O 0.48018 0.47114 0.62597
 Cu95 Cu 0.49021 0.50192 0.28290
 Cu96 Cu 0.51172 0.49833 0.62537
 C97 C 0.46181 0.46291 0.49041
 C98 C 0.54054 0.53714 0.42065
 C99 C 0.53847 0.46374 0.35556
 C100 C 0.46314 0.53646 0.54979
 O101 O 0.02844 0.51907 -0.14921
 O102 O -0.03335 0.46844 -0.04402
 O103 O -0.03369 0.51990 -0.13945
 O104 O 0.02849 0.46746 -0.05858
 O105 O 0.03342 0.48106 0.23233
 O106 O -0.02876 0.53375 0.15106
 O107 O -0.02861 0.48223 0.24645
 O108 O 0.03329 0.53271 0.14151
 Cu109 Cu -0.00310 0.49215 -0.12632
 Cu110 Cu 0.00286 0.50903 0.22134
 C111 C 0.04097 0.53484 -0.01995
 C112 C -0.04097 0.46632 0.11760
 C113 C -0.04127 0.53608 -0.00743
 C114 C 0.04103 0.46502 0.09954
 O115 O 0.46940 0.96750 0.44820
 O116 O 0.53174 1.01946 0.37053
 O117 O 0.53152 0.96820 0.47030
 O118 O 0.46945 1.01814 0.33812
 O119 O 0.46861 1.03397 0.62436
 O120 O 0.53055 0.98345 0.75766
 O121 O 0.53086 1.03474 0.65783
 O122 O 0.46833 0.98331 0.73435
 Cu123 Cu 0.50064 0.99164 0.37818
 Cu124 Cu 0.49949 1.01060 0.72207
 C125 C 0.45880 0.96628 0.60456
 C126 C 0.54139 1.03624 0.50175
 C127 C 0.54098 0.96686 0.63513
 C128 C 0.45898 1.03490 0.45915
 C129 C 1.09441 0.10282 0.23209
 C130 C 1.07757 0.12826 0.24491
 C131 C 1.09492 0.15380 0.26287
 C132 C 1.12896 0.15369 0.26769
 C133 C 1.14581 0.12824 0.25828
 C134 C 1.12845 0.10269 0.24055
 C135 C 1.14572 0.07749 0.22845
 C136 C 1.17924 0.07756 0.23230
 C137 C 1.19625 0.10256 0.24937
 C138 C 1.17986 0.12767 0.26294
 C139 C 1.07761 0.17901 0.27256
 C140 C 1.04405 0.17896 0.26358
 C141 C 1.02705 0.15396 0.24588
 C142 C 1.04348 0.12885 0.23702
 C143 C 1.14661 0.17969 0.27216
 C144 C 1.16159 0.20106 0.27068
 C145 C 1.07652 0.07712 0.19306
 C146 C 1.06040 0.05678 0.14925
 H147 H 1.13351 0.05753 0.21576
 H148 H 1.19208 0.05810 0.22147
 H149 H 1.22227 0.10252 0.25198
 H150 H 1.19415 0.14657 0.27640
 H151 H 1.08979 0.19897 0.28685
 H152 H 1.03118 0.19841 0.27057
 H153 H 1.00100 0.15401 0.23909
 H154 H 1.02917 0.10996 0.22406
 C155 C 0.59689 0.60655 0.43161
 C156 C 0.58108 0.63242 0.42180
 C157 C 0.59901 0.65754 0.45489
 C158 C 0.63259 0.65661 0.49727
 C159 C 0.64847 0.63076 0.50436
 C160 C 0.63054 0.60563 0.47148
 C161 C 0.64680 0.58001 0.48177
 C162 C 0.67987 0.57925 0.52378
 C163 C 0.69743 0.60384 0.55610
 C164 C 0.68205 0.62937 0.54626
 C165 C 0.58266 0.68317 0.44698
 C166 C 0.54951 0.68393 0.40781
 C167 C 0.53197 0.65935 0.37497
 C168 C 0.54744 0.63383 0.38177
 C169 C 0.65052 0.68221 0.54132
 C170 C 0.66530 0.70342 0.58186
 C171 C 0.57806 0.58108 0.41497
 C172 C 0.56150 0.56050 0.41090
 H173 H 0.63415 0.56034 0.45755
 H174 H 0.69193 0.55947 0.53118
 H175 H 0.72310 0.60316 0.58902
 H176 H 0.69674 0.64793 0.57204
 H177 H 0.59527 0.70285 0.47114
 H178 H 0.53738 0.70370 0.40281
 H179 H 0.50622 0.66005 0.34446
 H180 H 0.53273 0.61529 0.35530
 C181 C -0.09762 0.39892 0.18896
 C182 C -0.12860 0.40003 0.25818
 C183 C -0.14687 0.37515 0.26616
 C184 C -0.13397 0.34929 0.20598
 C185 C -0.10299 0.34820 0.13649
 C186 C -0.08481 0.37307 0.12754
 C187 C -0.05405 0.37142 0.05538
 C188 C -0.04174 0.34601 -0.00713
 C189 C -0.05945 0.32172 0.00225
 C190 C -0.08968 0.32266 0.07359
 C191 C -0.17795 0.37683 0.33346
 C192 C -0.19068 0.40235 0.39078
 C193 C -0.17277 0.42663 0.38371
 C194 C -0.14203 0.42560 0.31861
 C195 C -0.15271 0.32383 0.21065
 C196 C -0.16764 0.30229 0.20951
 C197 C -0.07913 0.42426 0.17419
 C198 C -0.06250 0.44426 0.15368
 H199 H -0.03919 0.38968 0.04603
 H200 H -0.01823 0.34517 -0.06229
 H201 H -0.04970 0.30202 -0.04579
 H202 H -0.10249 0.30316 0.07826
 H203 H -0.19274 0.35850 0.34203
 H204 H -0.21459 0.40327 0.44075
 H205 H -0.18275 0.44638 0.42892
 H206 H -0.12899 0.44503 0.31569
 C207 C 0.40201 0.89978 0.69644
 C208 C 0.41796 0.87653 0.76690
 C209 C 0.40042 0.85169 0.78794
 C210 C 0.36695 0.85030 0.74052
 C211 C 0.35085 0.87378 0.67449
 C212 C 0.36846 0.89854 0.65158
 C213 C 0.35193 0.92158 0.58296
 C214 C 0.31889 0.92025 0.53878
 C215 C 0.30165 0.89609 0.56188
 C216 C 0.31732 0.87306 0.62902
 C217 C 0.41701 0.82859 0.85570
 C218 C 0.44994 0.83003 0.90229
 C219 C 0.46703 0.85440 0.88344
 C220 C 0.45139 0.87742 0.81621
 C221 C 0.34944 0.82441 0.75329
 C222 C 0.33538 0.80259 0.75977
 C223 C 0.42052 0.92446 0.66460
 C224 C 0.43716 0.94414 0.63728
 H225 H 0.36431 0.94085 0.56324
 H226 H 0.30661 0.93807 0.48647
 H227 H 0.27599 0.89518 0.52784
 H228 H 0.30288 0.85476 0.64535
 H229 H 0.40473 0.80922 0.87396
 H230 H 0.46225 0.81216 0.95366
 H231 H 0.49257 0.85548 0.92106
 H232 H 0.46578 0.89587 0.80393
 C233 C -0.09748 0.60382 -0.08875
 C234 C -0.08154 0.62766 -0.14324
 C235 C -0.09874 0.65280 -0.16174
 C236 C -0.13185 0.65387 -0.12771
 C237 C -0.14787 0.62997 -0.07505
 C238 C -0.13060 0.60486 -0.05528
 C239 C -0.14707 0.58124 -0.00228
 C240 C -0.17972 0.58236 0.02978
 C241 C -0.19663 0.60690 0.01003
 C242 C -0.18099 0.63052 -0.04127
 C243 C -0.08223 0.67644 -0.21460
 C244 C -0.04975 0.67519 -0.25020
 C245 C -0.03298 0.65055 -0.23332
 C246 C -0.04851 0.62703 -0.17994
 C247 C -0.14944 0.67944 -0.15083
 C248 C -0.16354 0.70082 -0.17365
 C249 C -0.07935 0.57862 -0.06228
 C250 C -0.06287 0.55855 -0.03850
 H251 H -0.13493 0.56168 0.01421
 H252 H -0.19196 0.56409 0.07014
 H253 H -0.22201 0.60764 0.03439
 H254 H -0.19513 0.64915 -0.05410
 H255 H -0.09421 0.69612 -0.22922
 H256 H -0.03754 0.69343 -0.29122
 H257 H -0.00778 0.64965 -0.26175
 H258 H -0.03436 0.60838 -0.16869
 C259 C 0.40117 1.09961 0.32562
 C260 C 0.41658 1.12388 0.27375
 C261 C 0.39855 1.14851 0.25118
 C262 C 0.36522 1.14870 0.28024
 C263 C 0.34962 1.12417 0.32617
 C264 C 0.36765 1.09952 0.34826
 C265 C 0.35164 1.07532 0.39599
 C266 C 0.31875 1.07551 0.42217
 C267 C 0.30114 1.09964 0.40129
 C268 C 0.31626 1.12377 0.35405
 C269 C 0.41458 1.17265 0.20253
 C270 C 0.44748 1.17245 0.17653
 C271 C 0.46512 1.14839 0.19911
 C272 C 0.44999 1.12431 0.24683
 C273 C 0.34751 1.17452 0.27409
 C274 C 0.33328 1.19624 0.27607
 C275 C 0.42029 1.07551 0.36800
 C276 C 0.43722 1.05636 0.40787
 H277 H 0.36435 1.05605 0.41325
 H278 H 0.30691 1.05686 0.45968
 H279 H 0.27562 1.09969 0.42197
 H280 H 0.30155 1.14205 0.33988
 H281 H 0.40188 1.19190 0.18403
 H282 H 0.45934 1.19108 0.13899
 H283 H 0.49070 1.14836 0.17971
 H284 H 0.46475 1.10609 0.26204
 C285 C 1.09564 -0.10585 -0.13169
 C286 C 1.07963 -0.13156 -0.11793
 C287 C 1.09686 -0.15683 -0.13799
 C288 C 1.12996 -0.15625 -0.17219
 C289 C 1.14591 -0.13056 -0.18741
 C290 C 1.12868 -0.10527 -0.16719
 C291 C 1.14511 -0.07985 -0.18245
 C292 C 1.17769 -0.07941 -0.21650
 C293 C 1.19456 -0.10412 -0.23606
 C294 C 1.17898 -0.12947 -0.22172
 C295 C 1.08041 -0.18226 -0.12232
 C296 C 1.04784 -0.18271 -0.08819
 C297 C 1.03097 -0.15801 -0.06879
 C298 C 1.04654 -0.13268 -0.08358
 C299 C 1.14779 -0.18202 -0.18648
 C300 C 1.16275 -0.20335 -0.19417
 C301 C 1.07786 -0.08015 -0.10985
 C302 C 1.06172 -0.05958 -0.09237
 H303 H 1.13299 -0.06009 -0.16804
 H304 H 1.18991 -0.05977 -0.22742
 H305 H 1.21988 -0.10367 -0.26219
 H306 H 1.19314 -0.14814 -0.23762
 H307 H 1.09250 -0.20204 -0.13605
 H308 H 1.03564 -0.20233 -0.07643
 H309 H 1.00568 -0.15846 -0.04223
 H310 H 1.03234 -0.11405 -0.06753
 C311 C 0.59169 0.39463 0.24448
 C312 C 0.62576 0.39508 0.26227
 C313 C 0.64305 0.36973 0.25261
 C314 C 0.62615 0.34412 0.22340
 C315 C 0.59210 0.34371 0.20208
 C316 C 0.57480 0.36904 0.21303
 C317 C 0.54071 0.36808 0.19491
 C318 C 0.52421 0.34281 0.16753
 C319 C 0.54114 0.31805 0.15640
 C320 C 0.57470 0.31837 0.17275
 C321 C 0.67710 0.37067 0.27544
 C322 C 0.69354 0.39592 0.30694
 C323 C 0.67661 0.42070 0.31556
 C324 C 0.64311 0.42041 0.29285
 C325 C 0.64378 0.31822 0.22300
 C326 C 0.65881 0.29695 0.22740
 C327 C 0.57387 0.42015 0.27327
 C328 C 0.55826 0.44064 0.30579
 H329 H 0.52644 0.38679 0.20173
 H330 H 0.49814 0.34246 0.15540
 H331 H 0.52821 0.29847 0.13494
 H332 H 0.58681 0.29857 0.16257
 H333 H 0.69136 0.35195 0.26973
 H334 H 0.71957 0.39624 0.32446
 H335 H 0.68949 0.44026 0.34065
 H336 H 0.63098 0.44022 0.29946
 C337 C 0.90424 -0.10287 -0.31144
 C338 C 0.87113 -0.10310 -0.27784
 C339 C 0.85429 -0.12880 -0.27882
 C340 C 0.87068 -0.15405 -0.31400
 C341 C 0.90365 -0.15379 -0.35118
 C342 C 0.92047 -0.12809 -0.35059
 C343 C 0.95357 -0.12831 -0.38538
 C344 C 0.96964 -0.15324 -0.41811
 C345 C 0.95317 -0.17839 -0.41865
 C346 C 0.92054 -0.17880 -0.38582
 C347 C 0.82135 -0.12857 -0.24053
 C348 C 0.80558 -0.10366 -0.20176
 C349 C 0.82207 -0.07852 -0.20116
 C350 C 0.85446 -0.07812 -0.23925
 C351 C 0.85387 -0.18024 -0.30434
 C352 C 0.83933 -0.20160 -0.29187
 C353 C 0.92256 -0.07720 -0.28277
 C354 C 0.93888 -0.05679 -0.24431
 H355 H 0.96735 -0.10926 -0.38791
 H356 H 0.99502 -0.15302 -0.44260
 H357 H 0.96576 -0.19770 -0.44439
 H358 H 0.90877 -0.19887 -0.38712
 H359 H 0.80747 -0.14759 -0.23937
 H360 H 0.78043 -0.10389 -0.17201
 H361 H 0.80973 -0.05923 -0.17071
 H362 H 0.86626 -0.05805 -0.23828
 C363 C 0.40627 0.39318 0.49682
 C364 C 0.37234 0.39387 0.47002
 C365 C 0.35438 0.36862 0.45018
 C366 C 0.37051 0.34289 0.45768
 C367 C 0.40443 0.34220 0.48596
 C368 C 0.42238 0.36744 0.50602
 C369 C 0.45633 0.36627 0.53229
 C370 C 0.47208 0.34087 0.53762
 C371 C 0.45451 0.31617 0.51811
 C372 C 0.42107 0.31670 0.49232
 C373 C 0.32050 0.36977 0.42037
 C374 C 0.30482 0.39515 0.41043
 C375 C 0.32239 0.41986 0.43042
 C376 C 0.35578 0.41935 0.45993
 C377 C 0.35234 0.31714 0.42897
 C378 C 0.33722 0.29582 0.40046
 C379 C 0.42487 0.41873 0.50335
 C380 C 0.44115 0.43940 0.50185
 H381 H 0.47107 0.38491 0.54863
 H382 H 0.49807 0.34035 0.55599
 H383 H 0.46687 0.29650 0.52274
 H384 H 0.40846 0.29693 0.47655
 H385 H 0.30580 0.35111 0.40360
 H386 H 0.27891 0.39563 0.38664
 H387 H 0.31011 0.43952 0.42240
 H388 H 0.36843 0.43910 0.47418
 C389 C 0.09895 0.60147 -0.08924
 C390 C 0.13118 0.59971 -0.13984
 C391 C 0.14984 0.62437 -0.14783
 C392 C 0.13609 0.65064 -0.10628
 C393 C 0.10393 0.65238 -0.05430
 C394 C 0.08531 0.62776 -0.04586
 C395 C 0.05320 0.63009 0.00661
 C396 C 0.04001 0.65595 0.05122
 C397 C 0.05821 0.68000 0.04305
 C398 C 0.08976 0.67838 -0.00974
 C399 C 0.18208 0.62207 -0.19736
 C400 C 0.19555 0.59616 -0.23727
 C401 C 0.17727 0.57209 -0.23038
 C402 C 0.14540 0.57372 -0.18267
 C403 C 0.15458 0.67598 -0.12100
 C404 C 0.16895 0.69745 -0.13568
 C405 C 0.07993 0.57641 -0.07484
 C406 C 0.06288 0.55665 -0.05509
 H407 H 0.03792 0.61203 0.01382
 H408 H 0.01548 0.65732 0.09178
 H409 H 0.04783 0.70004 0.07755
 H410 H 0.10291 0.69771 -0.01451
 H411 H 0.19721 0.64022 -0.20517
 H412 H 0.22032 0.59478 -0.27382
 H413 H 0.18782 0.55203 -0.26234
 H414 H 0.13207 0.55444 -0.17975
 C415 C 0.59856 1.10359 0.43530
 C416 C 0.58345 1.12982 0.45307
 C417 C 0.60133 1.15451 0.43253
 C418 C 0.63425 1.15287 0.39451
 C419 C 0.64948 1.12669 0.37964
 C420 C 0.63159 1.10198 0.40032
 C421 C 0.64736 1.07608 0.38565
 C422 C 0.67991 1.07460 0.35174
 C423 C 0.69736 1.09873 0.33078
 C424 C 0.68244 1.12452 0.34430
 C425 C 0.58567 1.18046 0.45085
 C426 C 0.55333 1.18199 0.48942
 C427 C 0.53583 1.15787 0.50889
 C428 C 0.55057 1.13204 0.49127
 C429 C 0.65210 1.17811 0.36663
 C430 C 0.66611 1.19931 0.34011
 C431 C 0.57994 1.07845 0.45415
 C432 C 0.56318 1.05847 0.47299
 H433 H 0.63475 1.05675 0.40056
 H434 H 0.69165 1.05462 0.34174
 H435 H 0.72262 1.09746 0.30424
 H436 H 0.69702 1.14271 0.32716
 H437 H 0.59821 1.19981 0.43578
 H438 H 0.54180 1.20201 0.50462
 H439 H 0.51065 1.15916 0.53749
 H440 H 0.53592 1.11391 0.50849
 C441 C 0.09794 0.39717 0.16026
 C442 C 0.13134 0.39721 0.13364
 C443 C 0.14898 0.37209 0.14157
 C444 C 0.13301 0.34706 0.17396
 C445 C 0.09960 0.34703 0.20090
 C446 C 0.08204 0.37219 0.19510
 C447 C 0.04870 0.37169 0.22420
 C448 C 0.03321 0.34704 0.25815
 C449 C 0.05032 0.32240 0.26222
 C450 C 0.08313 0.32226 0.23402
 C451 C 0.18242 0.37268 0.11649
 C452 C 0.19796 0.39736 0.08353
 C453 C 0.18064 0.42187 0.07399
 C454 C 0.14770 0.42192 0.09865
 C455 C 0.15092 0.32139 0.18327
 C456 C 0.16521 0.29983 0.19495
 C457 C 0.07949 0.42246 0.14531
 C458 C 0.06280 0.44259 0.12809
 H459 H 0.03427 0.39029 0.22190
 H460 H 0.00779 0.34707 0.28164
 H461 H 0.03811 0.30328 0.28759
 H462 H 0.09539 0.30256 0.23903
 H463 H 0.19689 0.35412 0.12233
 H464 H 0.22356 0.39744 0.06477
 H465 H 0.19280 0.44096 0.04767
 H466 H 0.13523 0.44149 0.09033
 C467 C 0.59697 0.89971 0.73550
 C468 C 0.63026 0.90115 0.78699
 C469 C 0.64844 0.87632 0.79624
 C470 C 0.63312 0.85022 0.75503
 C471 C 0.59967 0.84875 0.70721
 C472 C 0.58155 0.87355 0.69680
 C473 C 0.54826 0.87154 0.64458
 C474 C 0.53336 0.84579 0.60344
 C475 C 0.55104 0.82153 0.61506
 C476 C 0.58380 0.82286 0.66630
 C477 C 0.68183 0.87830 0.84452
 C478 C 0.69682 0.90408 0.88306
 C479 C 0.67904 0.92835 0.87385
 C480 C 0.64611 0.92702 0.82678
 C481 C 0.65187 0.82491 0.75207
 C482 C 0.66675 0.80354 0.74267
 C483 C 0.57874 0.92494 0.71126
 C484 C 0.56235 0.94490 0.68215
 H485 H 0.53338 0.88979 0.63453
 H486 H 0.50796 0.84466 0.56242
 H487 H 0.53933 0.80157 0.58387
 H488 H 0.59652 0.80339 0.67296
 H489 H 0.69667 0.85999 0.85262
 H490 H 0.72238 0.90524 0.91985
 H491 H 0.69083 0.94833 0.90298
 H492 H 0.63325 0.94645 0.82168
 C493 C 0.90077 0.10481 0.00678
 C494 C 0.91495 0.13067 -0.02573
 C495 C 0.89685 0.15548 -0.00607
 C496 C 0.86465 0.15428 0.04513
 C497 C 0.85029 0.12839 0.07429
 C498 C 0.86840 0.10356 0.05486
 C499 C 0.85358 0.07792 0.08504
 C500 C 0.82176 0.07684 0.13335
 C501 C 0.80410 0.10112 0.15346
 C502 C 0.81807 0.12666 0.12435
 C503 C 0.91162 0.18111 -0.03742
 C504 C 0.94332 0.18219 -0.08763
 C505 C 0.96103 0.15793 -0.10710
 C506 C 0.94715 0.13242 -0.07654
 C507 C 0.84666 0.17975 0.07297
 C508 C 0.83200 0.20096 0.09987
 C509 C 0.91984 0.07971 -0.00563
 C510 C 0.93679 0.05955 -0.01619
 H511 H 0.86637 0.05849 0.07131
 H512 H 0.81078 0.05705 0.15584
 H513 H 0.77943 0.10018 0.19146
 H514 H 0.80334 0.14497 0.14141
 H515 H 0.89885 0.20056 -0.02370
 H516 H 0.95423 0.20197 -0.11106
 H517 H 0.98568 0.15889 -0.14572
 H518 H 0.96195 0.11415 -0.09317
 C519 C 0.40819 0.60471 0.65577
 C520 C 0.37413 0.60335 0.64239
 C521 C 0.35594 0.62822 0.65295
 C522 C 0.37196 0.65429 0.67724
 C523 C 0.40603 0.65563 0.69234
 C524 C 0.42421 0.63077 0.68230
 C525 C 0.45827 0.63264 0.69802
 C526 C 0.47389 0.65835 0.72136
 C527 C 0.45610 0.68267 0.73016
 C528 C 0.42257 0.68145 0.71648
 C529 C 0.32191 0.62635 0.63773
 C530 C 0.30630 0.60065 0.61204
 C531 C 0.32410 0.57633 0.60176
 C532 C 0.35763 0.57754 0.61729
 C533 C 0.35343 0.67969 0.68856
 C534 C 0.33818 0.70084 0.70076
 C535 C 0.42683 0.57959 0.62930
 C536 C 0.44297 0.55936 0.59860
 H537 H 0.47318 0.61431 0.69283
 H538 H 0.49994 0.65941 0.73249
 H539 H 0.46834 0.70261 0.74820
 H540 H 0.40979 0.70095 0.72467
 H541 H 0.30703 0.64469 0.64505
 H542 H 0.28026 0.59960 0.60022
 H543 H 0.31186 0.55642 0.58156
 H544 H 0.37045 0.55806 0.60961
   
