data_POSCAR
  _audit_creation_date              2014-09-24
  _audit_creation_method            'ToBaCCo'
  _symmetry_space_group_name_H-M    'P1'
  _symmetry_Int_Tables_number       1
  _symmetry_cell_setting            triclinic
  loop_
  _symmetry_equiv_pos_as_xyz
 x,y,z
_cell_length_a 23.9549
_cell_length_b 24.4858
_cell_length_c 43.2497
_cell_angle_alpha 88.788600
_cell_angle_beta 85.110300
_cell_angle_gamma 123.333300
loop_
  _atom_site_label
  _atom_site_type_symbol
  _atom_site_fract_x
  _atom_site_fract_y
  _atom_site_fract_z
C1 C -0.02905 0.05126 0.56383
 H2 H 0.01687 0.05264 0.55944
 C3 C -0.02981 0.09787 0.58133
 H4 H 0.01554 0.13469 0.59075
 C5 C -0.14326 0.00278 0.55576
 H6 H -0.18661 -0.03348 0.54501
 C7 C -0.14645 0.04842 0.57352
 H8 H -0.19252 0.04713 0.57647
 N9 N -0.08471 0.00580 0.55099
 C10 C -0.03578 -0.13771 0.53019
 H11 H -0.02967 -0.13369 0.50500
 C12 C -0.03258 -0.18569 0.54638
 H13 H -0.02320 -0.21773 0.53338
 C14 C -0.06186 -0.10508 0.57748
 H15 H -0.07528 -0.07499 0.58956
 C16 C -0.05893 -0.15225 0.59458
 H17 H -0.06839 -0.15665 0.61973
 Zn18 Zn -0.06972 -0.04438 0.52319
 N19 N -0.05146 -0.09934 0.54583
 C20 C 0.06176 0.01756 0.48864
 N21 N 0.00559 0.01834 0.49494
 C22 C 0.00340 0.06949 0.48393
 C23 C 0.05913 0.12290 0.46627
 C24 C 0.11848 0.06967 0.47057
 C25 C -0.17555 -0.16406 0.50511
 C26 C -0.22341 -0.20553 0.48611
 C27 C -0.21448 -0.11155 0.46125
 C28 C -0.16513 -0.07159 0.48031
 N29 N -0.14515 -0.09808 0.50110
 H30 H 0.06362 -0.02238 0.49820
 H31 H -0.04061 0.07051 0.49026
 H32 H 0.05673 0.16413 0.45914
 H33 H 0.16246 0.06782 0.46571
 H34 H -0.16230 -0.18515 0.52286
 H35 H -0.24640 -0.25762 0.49084
 H36 H -0.22539 -0.08731 0.44392
 H37 H -0.14129 -0.01915 0.47766
 C38 C -0.04565 -0.19436 0.57900
 C39 C -0.08855 0.09765 0.58583
 C40 C -0.24288 -0.17999 0.46279
 C41 C 0.11808 0.12392 0.45951
 C42 C 1.12196 0.07992 0.11066
 H43 H 1.12264 0.12381 0.11424
 C44 C 1.17322 0.08394 0.09082
 H45 H 1.21244 0.13107 0.07916
 C46 C 1.07380 -0.03280 0.12419
 H47 H 1.03615 -0.07771 0.13788
 C48 C 1.12405 -0.03111 0.10429
 H49 H 1.12327 -0.07552 0.10233
 N50 N 1.07362 0.02235 0.12695
 C51 C 0.88494 -0.00548 0.14571
 H52 H 0.86919 -0.03613 0.16712
 C53 C 0.83609 -0.01078 0.12831
 H54 H 0.78337 -0.04580 0.13636
 C55 C 0.97188 0.07720 0.10911
 H56 H 1.02475 0.11052 0.10132
 C57 C 0.92441 0.07432 0.09122
 H58 H 0.94113 0.10555 0.06981
 Zn59 Zn 1.01388 0.02808 0.15629
 N60 N 0.95150 0.03609 0.13534
 C61 C 1.05870 0.15058 0.18313
 N62 N 1.06891 0.10197 0.17797
 C63 C 1.12140 0.10318 0.18844
 C64 C 1.16621 0.15441 0.20502
 C65 C 1.10217 0.20279 0.20013
 C66 C 0.92096 -0.10705 0.17581
 C67 C 0.87166 -0.15844 0.19706
 C68 C 0.91442 -0.08592 0.23832
 C69 C 0.96292 -0.03610 0.21638
 N70 N 0.96386 -0.04664 0.18562
 H71 H 1.01648 0.14836 0.17450
 H72 H 1.12840 0.06395 0.18379
 H73 H 1.20831 0.15462 0.21251
 H74 H 1.09261 0.24038 0.20476
 H75 H 0.92115 -0.11387 0.15119
 H76 H 0.83497 -0.20482 0.18858
 H77 H 0.91234 -0.07564 0.26247
 H78 H 0.99652 0.01225 0.22381
 C79 C 0.85572 0.02827 0.10036
 C80 C 1.17520 0.02813 0.08754
 C81 C 0.86636 -0.14720 0.22856
 C82 C 1.15658 0.20479 0.21152
 C83 C 0.11563 0.97093 0.85712
 H84 H 0.06964 0.92380 0.85545
 C85 C 0.16647 0.97447 0.87219
 H86 H 0.15904 0.92935 0.88161
 C87 C 0.18175 1.08586 0.84460
 H88 H 0.18765 1.12885 0.83334
 C89 C 0.23362 1.09189 0.86012
 H90 H 0.27855 1.14017 0.86120
 N91 N 0.12429 1.02590 0.84341
 C92 C -0.08070 0.97103 0.83786
 H93 H -0.08668 0.96128 0.81368
 C94 C -0.13119 0.97066 0.85685
 H95 H -0.17562 0.95978 0.84668
 C96 C -0.01157 1.00477 0.87870
 H97 H 0.03599 1.02008 0.88685
 C98 C -0.05950 1.00737 0.89810
 H99 H -0.04878 1.02175 0.92147
 Zn100 Zn 0.05361 1.01057 0.82081
 N101 N -0.02203 0.98865 0.84891
 C102 C -0.02167 0.88454 0.79546
 N103 N 0.03824 0.94310 0.79510
 C104 C 0.09449 0.95510 0.77780
 C105 C 0.09237 0.90717 0.76021
 C106 C -0.02634 0.83528 0.77772
 C107 C 0.07928 1.13559 0.81199
 C108 C 0.08146 1.18690 0.79595
 C109 C 0.07980 1.13772 0.74789
 C110 C 0.07673 1.08680 0.76490
 N111 N 0.07551 1.08618 0.79643
 H112 H -0.06550 0.87533 0.80992
 H113 H 0.14177 1.00163 0.77848
 H114 H 0.13869 0.91744 0.74773
 H115 H -0.07458 0.78923 0.77810
 H116 H 0.07702 1.13329 0.83710
 H117 H 0.08216 1.22474 0.80879
 H118 H 0.07802 1.13623 0.72296
 H119 H 0.07194 1.04630 0.75304
 C120 C -0.11989 0.99205 0.88711
 C121 C 0.22676 1.03551 0.87389
 C122 C 0.08025 1.18754 0.76357
 C123 C 0.03148 0.84598 0.76003
 C124 C 0.47991 0.01023 -0.02720
 C125 C 0.48265 0.02118 0.00483
 C126 C 0.53788 0.03143 0.01892
 C127 C 0.58859 0.02787 0.00244
 C128 C 0.58416 0.01312 -0.02916
 C129 C 0.53066 0.00659 -0.04371
 H130 H 0.52768 -0.00261 -0.06812
 H131 H 0.54092 0.04125 0.04327
 C132 C -0.01539 0.42527 0.65746
 C133 C -0.00879 0.42861 0.68967
 C134 C -0.00778 0.47909 0.70498
 C135 C -0.01070 0.52765 0.68877
 C136 C -0.01467 0.52545 0.65620
 C137 C -0.01712 0.47420 0.64109
 H138 H -0.02165 0.47172 0.61634
 H139 H -0.00228 0.48196 0.72963
 C140 C 0.53291 0.54934 0.32329
 C141 C 0.52002 0.54767 0.35593
 C142 C 0.45863 0.49624 0.37154
 C143 C 0.40947 0.44629 0.35536
 C144 C 0.42153 0.44885 0.32257
 C145 C 0.48279 0.50057 0.30696
 H146 H 0.49249 0.50162 0.28193
 H147 H 0.44969 0.49428 0.39667
 C148 C -0.13689 0.13768 0.62606
 C149 C -0.08722 0.15118 0.60174
 C150 C -0.03450 0.21657 0.59289
 C151 C -0.03062 0.26798 0.60838
 C152 C -0.07981 0.25401 0.63338
 C153 C -0.13298 0.18872 0.64193
 C154 C -0.07477 0.30560 0.64936
 C155 C -0.02163 0.37078 0.64037
 C156 C 0.02601 0.38419 0.61508
 C157 C 0.02186 0.33316 0.59933
 H158 H 0.00345 0.22735 0.57381
 H159 H -0.17126 0.17713 0.66095
 H160 H -0.11197 0.29532 0.66872
 H161 H 0.05978 0.34464 0.58013
 H162 H -0.17779 0.08755 0.63322
 H163 H 0.06717 0.43423 0.60794
 C164 C 0.77196 0.82464 0.26923
 C165 C 0.80663 0.80406 0.25026
 C166 C 0.78139 0.73687 0.25076
 C167 C 0.72161 0.69076 0.26959
 C168 C 0.68633 0.71204 0.28793
 C169 C 0.71232 0.77910 0.28783
 C170 C 0.62499 0.66587 0.30559
 C171 C 0.59906 0.59870 0.30577
 C172 C 0.63493 0.57801 0.28790
 C173 C 0.69566 0.62361 0.26993
 H174 H 0.80793 0.72058 0.23632
 H175 H 0.68603 0.79627 0.30178
 H176 H 0.59655 0.68205 0.31845
 H177 H 0.72197 0.60632 0.25609
 H178 H 0.78985 0.87604 0.26891
 H179 H 0.61549 0.52629 0.28770
 C180 C 0.35005 0.08669 -0.12198
 C181 C 0.28232 0.03954 -0.11081
 C182 C 0.26798 -0.00527 -0.08554
 C183 C 0.31998 -0.00381 -0.07208
 C184 C 0.38766 0.04435 -0.08331
 C185 C 0.40214 0.08939 -0.10821
 C186 C 0.43967 0.04709 -0.06919
 C187 C 0.42479 0.00230 -0.04399
 C188 C 0.35745 -0.04719 -0.03386
 C189 C 0.30539 -0.04979 -0.04756
 H190 H 0.21637 -0.04120 -0.07608
 H191 H 0.45377 0.12638 -0.11724
 H192 H 0.49166 0.08518 -0.07713
 H193 H 0.25377 -0.08744 -0.03884
 H194 H 0.36307 0.12096 -0.14177
 H195 H 0.34524 -0.08258 -0.01470
 C196 C -0.09959 0.71434 0.62153
 C197 C -0.04911 0.75079 0.59650
 C198 C -0.00335 0.73333 0.58779
 C199 C -0.00791 0.68034 0.60381
 C200 C -0.05898 0.64403 0.62887
 C201 C -0.10449 0.66148 0.63755
 C202 C -0.06307 0.59149 0.64509
 C203 C -0.01540 0.57614 0.63719
 C204 C 0.03432 0.61162 0.61188
 C205 C 0.03801 0.66325 0.59529
 H206 H 0.03626 0.76142 0.56879
 H207 H -0.14391 0.63424 0.65671
 H208 H -0.10197 0.56373 0.66441
 H209 H 0.07740 0.69044 0.57611
 H210 H -0.13623 0.72594 0.62840
 H211 H 0.07147 0.60041 0.60551
 C212 C 0.22364 0.32354 0.22315
 C213 C 0.20330 0.25835 0.23023
 C214 C 0.22984 0.24450 0.25476
 C215 C 0.27746 0.29486 0.27124
 C216 C 0.29800 0.36027 0.26378
 C217 C 0.27038 0.37402 0.23986
 C218 C 0.34577 0.41062 0.28039
 C219 C 0.37297 0.39613 0.30430
 C220 C 0.35323 0.33115 0.31105
 C221 C 0.30540 0.28081 0.29486
 H222 H 0.21361 0.19439 0.26106
 H223 H 0.28559 0.42389 0.23380
 H224 H 0.36121 0.46085 0.27507
 H225 H 0.29050 0.23096 0.30071
 H226 H 0.20463 0.33579 0.20421
 H227 H 0.37455 0.31939 0.32910
 C228 C 0.85847 0.05382 -0.07511
 C229 C 0.83464 0.00232 -0.09505
 C230 C 0.76496 -0.03653 -0.09763
 C231 C 0.72065 -0.02420 -0.08087
 C232 C 0.74605 0.02937 -0.06222
 C233 C 0.81493 0.06781 -0.05939
 C234 C 0.70213 0.04335 -0.04651
 C235 C 0.63223 0.00159 -0.04724
 C236 C 0.60746 -0.05251 -0.06538
 C237 C 0.65121 -0.06474 -0.08236
 H238 H 0.74450 -0.07794 -0.11178
 H239 H 0.83525 0.10884 -0.04499
 H240 H 0.72256 0.08663 -0.03370
 H241 H 0.63062 -0.10648 -0.09630
 H242 H 0.91156 0.08624 -0.07291
 H243 H 0.55389 -0.08583 -0.06625
 C244 C 0.26156 0.07469 0.04039
 C245 C 0.23240 0.03315 0.06809
 C246 C 0.26017 -0.00126 0.07783
 C247 C 0.31628 0.00599 0.06037
 C248 C 0.34595 0.04897 0.03298
 C249 C 0.31800 0.08282 0.02311
 C250 C 0.40246 0.05662 0.01569
 C251 C 0.42757 0.01924 0.02457
 C252 C 0.39802 -0.02287 0.05200
 C253 C 0.34322 -0.02908 0.06988
 H254 H 0.23908 -0.03270 0.09932
 H255 H 0.33955 0.11531 0.00195
 H256 H 0.42580 0.09024 -0.00508
 H257 H 0.32114 -0.06224 0.09081
 H258 H 0.24066 0.10097 0.03199
 H259 H 0.41657 -0.05214 0.05923
 C260 C 0.67448 0.79695 0.42716
 C261 C 0.71359 0.78011 0.44255
 C262 C 0.70667 0.72029 0.43585
 C263 C 0.66240 0.67903 0.41521
 C264 C 0.62212 0.69579 0.40126
 C265 C 0.62882 0.75493 0.40725
 C266 C 0.57572 0.65291 0.38164
 C267 C 0.57141 0.59497 0.37490
 C268 C 0.61283 0.57947 0.38819
 C269 C 0.65786 0.62104 0.40832
 H270 H 0.73828 0.70666 0.44517
 H271 H 0.59837 0.76865 0.39665
 H272 H 0.54288 0.66430 0.37170
 H273 H 0.68874 0.60759 0.41867
 H274 H 0.67538 0.84065 0.43168
 H275 H 0.60929 0.53448 0.38340
 C276 C 0.11419 0.26931 0.71822
 C277 C 0.07430 0.23697 0.74659
 C278 C 0.02643 0.24996 0.75820
 C279 C 0.01798 0.29425 0.74156
 C280 C 0.05871 0.32691 0.71316
 C281 C 0.10683 0.31430 0.70175
 C282 C 0.05033 0.37127 0.69656
 C283 C 0.00048 0.38213 0.70750
 C284 C -0.03964 0.34951 0.73577
 C285 C -0.03091 0.30602 0.75270
 H286 H -0.00537 0.22434 0.77980
 H287 H 0.13831 0.33878 0.67996
 H288 H 0.08257 0.39741 0.67513
 H289 H -0.06266 0.28128 0.77440
 H290 H 0.15133 0.25996 0.70891
 H291 H -0.07817 0.35737 0.74461
 C292 C 0.75774 -0.04439 0.07167
 C293 C 0.80438 0.01860 0.08043
 C294 C 0.80048 0.07137 0.07082
 C295 C 0.74912 0.06096 0.05335
 C296 C 0.70237 -0.00270 0.04458
 C297 C 0.70755 -0.05488 0.05363
 C298 C 0.65057 -0.01327 0.02742
 C299 C 0.64429 0.03876 0.01949
 C300 C 0.69024 0.10154 0.02858
 C301 C 0.74276 0.11278 0.04508
 H302 H 0.83609 0.11992 0.07778
 H303 H 0.67221 -0.10392 0.04717
 H304 H 0.61456 -0.06186 0.02064
 H305 H 0.77783 0.16174 0.05171
 H306 H 0.76039 -0.08553 0.07877
 H307 H 0.68559 0.14196 0.02264
 C308 C 0.24374 0.20329 0.45022
 C309 C 0.17944 0.18263 0.44242
 C310 C 0.17406 0.21994 0.41904
 C311 C 0.23159 0.27717 0.40408
 C312 C 0.29577 0.29695 0.41205
 C313 C 0.30129 0.25961 0.43507
 C314 C 0.35340 0.35340 0.39667
 C315 C 0.34777 0.39032 0.37334
 C316 C 0.28370 0.37143 0.36618
 C317 C 0.22606 0.31504 0.38127
 H318 H 0.12518 0.20442 0.41232
 H319 H 0.35011 0.27429 0.44157
 H320 H 0.40279 0.36772 0.40220
 H321 H 0.17723 0.30087 0.37500
 H322 H 0.24968 0.17670 0.46854
 H323 H 0.27848 0.39973 0.34845
 C324 C 0.07211 0.80936 0.71450
 C325 C 0.02965 0.79334 0.74248
 C326 C -0.01229 0.72708 0.75419
 C327 C -0.01108 0.67805 0.73849
 C328 C 0.03364 0.69537 0.71108
 C329 C 0.07460 0.76103 0.69916
 C330 C 0.03612 0.64666 0.69583
 C331 C -0.00861 0.58016 0.70643
 C332 C -0.05287 0.56343 0.73373
 C333 C -0.05367 0.61196 0.74980
 H334 H -0.04483 0.71361 0.77584
 H335 H 0.10830 0.77500 0.67785
 H336 H 0.07181 0.66034 0.67531
 H337 H -0.08838 0.59769 0.77076
 H338 H 0.10371 0.85949 0.70437
 H339 H -0.08767 0.51252 0.74237
   
