data_POSCAR
  _audit_creation_date              2014-09-24
  _audit_creation_method            'ToBaCCo'
  _symmetry_space_group_name_H-M    'P1'
  _symmetry_Int_Tables_number       1
  _symmetry_cell_setting            triclinic
  loop_
  _symmetry_equiv_pos_as_xyz
 x,y,z
_cell_length_a 38.8316
_cell_length_b 39.2544
_cell_length_c 41.4231
_cell_angle_alpha 87.547800
_cell_angle_beta 92.118400
_cell_angle_gamma 91.902600
loop_
  _atom_site_label
  _atom_site_type_symbol
  _atom_site_fract_x
  _atom_site_fract_y
  _atom_site_fract_z
N1 N 0.18071 1.27039 0.18204
 N2 N 0.15956 1.26417 0.20581
 C3 C 0.13332 1.28582 0.20244
 C4 C 0.13842 1.30671 0.17521
 C5 C 0.16888 1.29629 0.16291
 H6 H 0.11167 1.28595 0.21812
 H7 H 0.18092 1.30577 0.14105
 Cu8 Cu 0.16788 1.22726 0.23769
 Cu9 Cu 0.22023 1.24242 0.17573
 Cu10 Cu 0.23460 1.17588 0.23198
 N11 N 0.17652 1.19050 0.26965
 N12 N 0.20255 1.17031 0.26709
 C13 C 0.20180 1.14613 0.29112
 C14 C 0.17386 1.15145 0.30976
 C15 C 0.15838 1.17994 0.29552
 H16 H 0.21985 1.12576 0.29447
 H17 H 0.13516 1.19152 0.30273
 N18 N 0.26411 1.18579 0.19478
 N19 N 0.25870 1.21121 0.17347
 C20 C 0.28180 1.21015 0.15010
 C21 C 0.30269 1.18286 0.15700
 C22 C 0.29084 1.16795 0.18553
 H23 H 0.28272 1.22720 0.12893
 H24 H 0.30011 1.14510 0.19796
 H25 H 0.20067 1.19841 0.19850
 H26 H 0.22828 1.22749 0.22371
 N27 N 0.82821 0.74624 0.15283
 N28 N 0.85376 0.74502 0.17453
 C29 C 0.87343 0.71848 0.16905
 C30 C 0.85974 0.70235 0.14237
 C31 C 0.83098 0.72057 0.13254
 H32 H 0.89594 0.71120 0.18357
 H33 H 0.81295 0.71507 0.11279
 Cu34 Cu 0.85933 0.77774 0.20821
 Cu35 Cu 0.79222 0.77968 0.15422
 Cu36 Cu 0.79447 0.82874 0.22208
 N37 N 0.85830 0.80238 0.24772
 N38 N 0.83254 0.82189 0.25343
 C39 C 0.83937 0.83762 0.28134
 C40 C 0.87134 0.82752 0.29353
 C41 C 0.88246 0.80502 0.27169
 H42 H 0.82316 0.85634 0.29093
 H43 H 0.90696 0.79260 0.27254
 N44 N 0.75835 0.83231 0.18754
 N45 N 0.75815 0.81471 0.16105
 C46 C 0.73145 0.82444 0.14141
 C47 C 0.71412 0.84923 0.15645
 C48 C 0.73172 0.85345 0.18557
 H49 H 0.72500 0.81415 0.11809
 H50 H 0.72581 0.87120 0.20368
 H51 H 0.81877 0.81625 0.18062
 H52 H 0.79694 0.78038 0.20389
 N53 N 0.81069 1.24466 -0.18744
 N54 N 0.83571 1.24347 -0.20783
 C55 C 0.85852 1.26935 -0.20254
 C56 C 0.84726 1.28773 -0.17755
 C57 C 0.81673 1.27145 -0.16848
 H58 H 0.88246 1.27363 -0.21484
 H59 H 0.80128 1.27730 -0.14838
 Cu60 Cu 0.83853 1.20647 -0.23715
 Cu61 Cu 0.77497 1.20874 -0.18431
 Cu62 Cu 0.77556 1.14534 -0.24008
 N63 N 0.83524 1.17391 -0.27116
 N64 N 0.81121 1.14955 -0.27201
 C65 C 0.81614 1.13007 -0.29738
 C66 C 0.84478 1.14323 -0.31325
 C67 C 0.85607 1.17104 -0.29606
 H68 H 0.80005 1.10818 -0.30372
 H69 H 0.87813 1.18770 -0.30115
 N70 N 0.74161 1.14580 -0.20587
 N71 N 0.74114 1.17018 -0.18492
 C72 C 0.71604 1.16268 -0.16393
 C73 C 0.70001 1.13206 -0.17206
 C74 C 0.71678 1.12216 -0.19876
 H75 H 0.71061 1.17788 -0.14371
 H76 H 0.71178 1.09893 -0.21148
 H77 H 0.80181 1.16977 -0.20287
 H78 H 0.77663 1.19715 -0.23262
 N79 N 0.18709 0.74106 -0.16153
 N80 N 0.16102 0.74712 -0.18190
 C81 C 0.13736 0.72130 -0.17910
 C82 C 0.14959 0.69791 -0.15582
 C83 C 0.18116 0.71116 -0.14537
 H84 H 0.11323 0.71966 -0.19291
 H85 H 0.19810 0.70021 -0.12667
 Cu86 Cu 0.16046 0.78822 -0.20997
 Cu87 Cu 0.22522 0.77356 -0.15513
 Cu88 Cu 0.23010 0.84247 -0.20934
 N89 N 0.16709 0.82372 -0.24366
 N90 N 0.19429 0.84460 -0.24338
 C91 C 0.19194 0.86678 -0.26896
 C92 C 0.16169 0.85951 -0.28622
 C93 C 0.14649 0.83189 -0.26956
 H94 H 0.21066 0.88702 -0.27446
 H95 H 0.12231 0.81882 -0.27552
 N96 N 0.26373 0.83569 -0.17305
 N97 N 0.26174 0.80927 -0.15235
 C98 C 0.28605 0.81315 -0.12868
 C99 C 0.30427 0.84333 -0.13479
 C100 C 0.28955 0.85704 -0.16316
 H101 H 0.28919 0.79622 -0.10756
 H102 H 0.29575 0.88162 -0.17463
 H103 H 0.20178 0.81731 -0.17388
 H104 H 0.22286 0.79037 -0.20335
 C105 C 0.48245 1.03620 0.04349
 C106 C 0.50758 1.01028 0.05809
 C107 C 0.52515 0.99258 0.03470
 C108 C 0.51489 1.00370 -0.00023
 C109 C 0.50406 1.05974 0.02149
 C110 C 0.52148 1.04264 -0.00218
 C111 C 0.45835 1.01607 0.02099
 C112 C 0.47558 0.99840 -0.00258
 H113 H 0.51229 1.00725 0.08390
 H114 H 0.52823 0.98933 -0.01823
 H115 H 0.50654 1.08706 0.02419
 H116 H 0.43066 1.01665 0.02253
 C117 C 0.01090 0.47609 1.01394
 C118 C 0.02689 0.49968 0.98803
 C119 C 0.00238 0.51566 0.96653
 C120 C -0.03499 0.50565 0.97441
 C121 C -0.01356 0.49825 1.03106
 C122 C -0.03846 0.51426 1.00994
 C123 C -0.01208 0.45091 0.99551
 C124 C -0.03672 0.46654 0.97392
 H125 H 0.05433 0.50526 0.98789
 H126 H -0.05432 0.51808 0.95771
 H127 H -0.01013 0.50289 1.05651
 H128 H -0.00994 0.42368 0.99966
 C129 C 1.01936 0.02725 0.48179
 C130 C 0.99025 0.04212 0.49978
 C131 C 0.96780 0.01760 0.51492
 C132 C 0.97758 -0.01914 0.50996
 C133 C 1.03910 0.00568 0.50696
 C134 C 1.01743 -0.02183 0.52457
 C135 C 1.00210 0.00229 0.45878
 C136 C 0.97980 -0.02256 0.47350
 H137 H 0.98910 0.06926 0.50272
 H138 H 0.95989 -0.03849 0.52152
 H139 H 1.06625 0.01020 0.51255
 H140 H 1.00549 0.00504 0.43300
 C141 C 0.11600 0.33131 1.16240
 C142 C 0.12348 0.35193 1.13507
 C143 C 0.09870 0.37553 1.11897
 C144 C 0.11145 0.40298 1.09966
 C145 C 0.08894 0.42444 1.08214
 C146 C 0.05305 0.41842 1.08304
 C147 C 0.04028 0.39147 1.10302
 C148 C 0.06283 0.37012 1.12074
 C149 C 0.02829 0.43918 1.06325
 C150 C 0.03747 0.45892 1.03587
 H151 H 0.14880 0.35137 1.12507
 H152 H 0.13898 0.40775 1.09801
 H153 H 0.09993 0.44560 1.06802
 H154 H 0.01277 0.38634 1.10426
 H155 H 0.05204 0.34877 1.13481
 H156 H 0.00129 0.43710 1.06906
 H157 H 0.09204 0.33428 1.17438
 H158 H 0.06363 0.45898 1.02782
 C159 C -0.12680 0.67146 1.12920
 C160 C -0.13775 0.65885 1.09944
 C161 C -0.12229 0.62840 1.08675
 C162 C -0.11799 0.62642 1.05342
 C163 C -0.10087 0.59909 1.04129
 C164 C -0.08832 0.57287 1.06240
 C165 C -0.09411 0.57426 1.09556
 C166 C -0.11095 0.60160 1.10762
 C167 C -0.06713 0.54499 1.05166
 C168 C -0.06239 0.53762 1.01937
 H169 H -0.15580 0.67310 1.08405
 H170 H -0.12673 0.64671 1.03686
 H171 H -0.09668 0.59937 1.01565
 H172 H -0.08499 0.55437 1.11238
 H173 H -0.11486 0.60179 1.13335
 H174 H -0.05454 0.52973 1.07065
 H175 H -0.10618 0.65914 1.14304
 H176 H -0.07774 0.55027 1.00046
 C177 C -0.13260 0.31477 0.83875
 C178 C -0.14521 0.33293 0.86375
 C179 C -0.12236 0.35494 0.88393
 C180 C -0.13562 0.38326 0.89827
 C181 C -0.11453 0.40341 0.91856
 C182 C -0.08000 0.39502 0.92524
 C183 C -0.06698 0.36647 0.91120
 C184 C -0.08781 0.34674 0.89064
 C185 C -0.05729 0.41392 0.94811
 C186 C -0.05957 0.44880 0.95310
 H187 H -0.17237 0.33083 0.86886
 H188 H -0.16234 0.38971 0.89385
 H189 H -0.12553 0.42478 0.92970
 H190 H -0.04059 0.35924 0.91633
 H191 H -0.07704 0.32444 0.88087
 H192 H -0.03618 0.39991 0.95924
 H193 H -0.10635 0.31963 0.83143
 H194 H -0.07843 0.46328 0.93893
 C195 C 0.13338 0.66597 0.85683
 C196 C 0.09834 0.65769 0.85257
 C197 C 0.08272 0.62725 0.86934
 C198 C 0.04933 0.62851 0.88101
 C199 C 0.03578 0.60141 0.90025
 C200 C 0.05537 0.57238 0.90767
 C201 C 0.08797 0.57050 0.89444
 C202 C 0.10145 0.59750 0.87536
 C203 C 0.04451 0.54499 0.93117
 C204 C 0.01076 0.53913 0.94130
 H205 H 0.08160 0.67567 0.83983
 H206 H 0.03436 0.65113 0.87651
 H207 H 0.01077 0.60404 0.91032
 H208 H 0.10349 0.54834 0.89954
 H209 H 0.12681 0.59524 0.86581
 H210 H 0.06454 0.52841 0.94051
 H211 H 0.14938 0.64975 0.87247
 H212 H -0.01006 0.55247 0.92882
 C213 C 1.16329 0.13079 0.33606
 C214 C 1.13486 0.13792 0.35406
 C215 C 1.12100 0.11442 0.37966
 C216 C 1.10050 0.12759 0.40305
 C217 C 1.08484 0.10595 0.42622
 C218 C 1.08884 0.07045 0.42607
 C219 C 1.11013 0.05739 0.40322
 C220 C 1.12594 0.07906 0.38013
 C221 C 1.07061 0.04623 0.44852
 C222 C 1.04104 0.05427 0.46443
 H223 H 1.12218 0.16189 0.34961
 H224 H 1.09640 0.15474 0.40326
 H225 H 1.06964 0.11728 0.44403
 H226 H 1.11372 0.03018 0.40260
 H227 H 1.14091 0.06781 0.36208
 H228 H 1.07884 0.02009 0.45041
 H229 H 1.17800 0.10840 0.34246
 H230 H 1.03055 0.07936 0.46077
 C231 C 1.14984 -0.12251 0.68599
 C232 C 1.11846 -0.13014 0.66984
 C233 C 1.10541 -0.10990 0.64117
 C234 C 1.06985 -0.11059 0.63363
 C235 C 1.05646 -0.09096 0.60741
 C236 C 1.07851 -0.07037 0.58805
 C237 C 1.11412 -0.07043 0.59503
 C238 C 1.12751 -0.09007 0.62117
 C239 C 1.06529 -0.04818 0.56094
 C240 C 1.03043 -0.04733 0.55203
 H241 H 1.10173 -0.15038 0.67952
 H242 H 1.05230 -0.12591 0.64842
 H243 H 1.02886 -0.09165 0.60260
 H244 H 1.13169 -0.05510 0.58026
 H245 H 1.15516 -0.08978 0.62532
 H246 H 1.08366 -0.03193 0.54801
 H247 H 1.16570 -0.10105 0.67748
 H248 H 1.02141 -0.03425 0.53716
 C249 C 0.89079 -0.16034 0.31987
 C250 C 0.87884 -0.13640 0.34045
 C251 C 0.90192 -0.11824 0.36371
 C252 C 0.88800 -0.10412 0.39075
 C253 C 0.90879 -0.08435 0.41156
 C254 C 0.94383 -0.07802 0.40535
 C255 C 0.95772 -0.09230 0.37843
 C256 C 0.93710 -0.11229 0.35789
 C257 C 0.96587 -0.05431 0.42446
 C258 C 0.96052 -0.04744 0.45673
 H259 H 0.85189 -0.13006 0.33918
 H260 H 0.86086 -0.10791 0.39544
 H261 H 0.89705 -0.07297 0.43162
 H262 H 0.98453 -0.08738 0.37289
 H263 H 0.94853 -0.12176 0.33674
 H264 H 0.98803 -0.04297 0.41257
 H265 H 0.91673 -0.16937 0.32367
 H266 H 0.94141 -0.06262 0.46979
 C267 C 0.86029 0.13187 0.65954
 C268 C 0.84987 0.10219 0.64396
 C269 C 0.86828 0.09078 0.61590
 C270 C 0.87145 0.05581 0.61150
 C271 C 0.89100 0.04456 0.58651
 C272 C 0.90737 0.06829 0.56512
 C273 C 0.90260 0.10321 0.56871
 C274 C 0.88331 0.11437 0.59373
 C275 C 0.93081 0.05849 0.53978
 C276 C 0.94107 0.02523 0.53510
 H277 H 0.82984 0.08552 0.65399
 H278 H 0.85969 0.03716 0.62808
 H279 H 0.89346 0.01742 0.58462
 H280 H 0.91447 0.12211 0.55245
 H281 H 0.88034 0.14150 0.59573
 H282 H 0.94148 0.07927 0.52498
 H283 H 0.88246 0.14656 0.65094
 H284 H 0.92855 0.00401 0.54788
 C285 C 0.32928 1.17100 0.13608
 C286 C 0.34954 1.14316 0.14477
 C287 C 0.37386 1.12870 0.12272
 C288 C 0.40078 1.10893 0.13587
 C289 C 0.42338 1.09365 0.11577
 C290 C 0.41910 1.09740 0.08192
 C291 C 0.39234 1.11744 0.06881
 C292 C 0.36985 1.13281 0.08890
 C293 C 0.44154 1.08088 0.05941
 C294 C 0.46351 1.05439 0.06842
 H295 H 0.34794 1.13161 0.16890
 H296 H 0.40439 1.10536 0.16184
 H297 H 0.44409 1.07917 0.12701
 H298 H 0.38840 1.12072 0.04285
 H299 H 0.34887 1.14703 0.07775
 H300 H 0.43936 1.08863 0.03400
 H301 H 0.33261 1.18466 0.11312
 H302 H 0.46463 1.04421 0.09308
 C303 C 0.67267 1.11229 -0.15514
 C304 C 0.65851 1.12337 -0.12706
 C305 C 0.63303 1.10325 -0.10767
 C306 C 0.62758 1.11304 -0.07612
 C307 C 0.60415 1.09487 -0.05664
 C308 C 0.58525 1.06658 -0.06846
 C309 C 0.59069 1.05665 -0.09996
 C310 C 0.61411 1.07491 -0.11952
 C311 C 0.56064 1.04646 -0.04818
 C312 C 0.54326 1.06086 -0.02341
 H313 H 0.66777 1.14746 -0.11773
 H314 H 0.64188 1.13463 -0.06629
 H315 H 0.60152 1.10266 -0.03215
 H316 H 0.57649 1.03491 -0.10958
 H317 H 0.61687 1.06683 -0.14387
 H318 H 0.55526 1.02028 -0.05421
 H319 H 0.66489 1.08787 -0.16455
 H320 H 0.54637 1.08808 -0.02049
 C321 C 0.32964 0.85922 -0.11238
 C322 C 0.34831 0.88919 -0.12027
 C323 C 0.36893 0.90802 -0.09571
 C324 C 0.39788 0.92799 -0.10491
 C325 C 0.41674 0.94717 -0.08218
 C326 C 0.40648 0.94708 -0.04996
 C327 C 0.37731 0.92744 -0.04095
 C328 C 0.35883 0.90796 -0.06347
 C329 C 0.42406 0.96865 -0.02560
 C330 C 0.45915 0.97791 -0.02583
 H331 H 0.34783 0.89918 -0.14506
 H332 H 0.40579 0.92885 -0.12974
 H333 H 0.43858 0.96279 -0.09008
 H334 H 0.36863 0.92735 -0.01638
 H335 H 0.33600 0.89376 -0.05577
 H336 H 0.40884 0.97528 -0.00561
 H337 H 0.33298 0.84723 -0.08850
 H338 H 0.47487 0.96763 -0.04391
 C339 C 0.68351 0.86795 0.14509
 C340 C 0.67071 0.86823 0.11317
 C341 C 0.64097 0.88894 0.10226
 C342 C 0.63932 0.90313 0.07059
 C343 C 0.61251 0.92452 0.06042
 C344 C 0.58645 0.93159 0.08172
 C345 C 0.58763 0.91640 0.11303
 C346 C 0.61445 0.89524 0.12318
 C347 C 0.55869 0.95580 0.07326
 C348 C 0.55008 0.96800 0.04182
 H349 H 0.68447 0.85531 0.09526
 H350 H 0.65943 0.89852 0.05402
 H351 H 0.61301 0.93608 0.03630
 H352 H 0.56784 0.92118 0.12989
 H353 H 0.61431 0.88384 0.14743
 H354 H 0.54408 0.96368 0.09318
 H355 H 0.67193 0.88369 0.16230
 H356 H 0.56264 0.95780 0.02165
   
