data_POSCAR
  _audit_creation_date              2014-09-24
  _audit_creation_method            'ToBaCCo'
  _symmetry_space_group_name_H-M    'P1'
  _symmetry_Int_Tables_number       1
  _symmetry_cell_setting            triclinic
  loop_
  _symmetry_equiv_pos_as_xyz
 x,y,z
_cell_length_a 51.3317
_cell_length_b 51.3308
_cell_length_c 51.3311
_cell_angle_alpha 89.988300
_cell_angle_beta 90.000000
_cell_angle_gamma 89.997600
loop_
  _atom_site_label
  _atom_site_type_symbol
  _atom_site_fract_x
  _atom_site_fract_y
  _atom_site_fract_z
C1 C 0.27217 0.23907 0.23863
 C2 C 0.26101 0.22790 0.26093
 C3 C 0.23900 0.23890 0.27193
 C4 C 0.22784 0.26121 0.26079
 C5 C 0.23885 0.27223 0.23878
 C6 C 0.26116 0.26109 0.22763
 C7 C 0.29353 0.23257 0.22378
 N8 N 0.29570 0.25010 0.20409
 C9 C 0.27600 0.26762 0.20627
 C10 C 0.22401 0.29359 0.23227
 N11 N 0.20430 0.29577 0.24978
 C12 C 0.20648 0.27606 0.26730
 C13 C 0.23248 0.22404 0.29328
 N14 N 0.25000 0.20434 0.29546
 C15 C 0.26752 0.20653 0.27576
 H16 H 0.30653 0.21628 0.22706
 H17 H 0.27271 0.28391 0.19328
 H18 H 0.22730 0.30660 0.21599
 H19 H 0.19348 0.27276 0.28358
 H20 H 0.21619 0.22732 0.30628
 H21 H 0.28381 0.19354 0.27247
 C22 C 0.72742 -0.23933 0.23828
 C23 C 0.73859 -0.22816 0.26057
 C24 C 0.76065 -0.23912 0.27153
 C25 C 0.77184 -0.26139 0.26034
 C26 C 0.76083 -0.27241 0.23835
 C27 C 0.73847 -0.26130 0.22724
 C28 C 0.70602 -0.23286 0.22348
 N29 N 0.70381 -0.25038 0.20374
 C30 C 0.72361 -0.26785 0.20591
 C31 C 0.77571 -0.29373 0.23179
 N32 N 0.79549 -0.29590 0.24928
 C33 C 0.79325 -0.27618 0.26682
 C34 C 0.76717 -0.22428 0.29288
 N35 N 0.74960 -0.20463 0.29511
 C36 C 0.73205 -0.20683 0.27545
 H37 H 0.69302 -0.21658 0.22687
 H38 H 0.72699 -0.28415 0.19294
 H39 H 0.77236 -0.30668 0.21548
 H40 H 0.80622 -0.27279 0.28311
 H41 H 0.78349 -0.22754 0.30584
 H42 H 0.71573 -0.19387 0.27220
 C43 C 0.72815 0.23979 0.76126
 C44 C 0.73937 0.22860 0.73900
 C45 C 0.76140 0.23960 0.72803
 C46 C 0.77252 0.26193 0.73918
 C47 C 0.76145 0.27296 0.76114
 C48 C 0.73912 0.26181 0.77225
 C49 C 0.70676 0.23328 0.77605
 N50 N 0.70448 0.25083 0.79576
 C51 C 0.72422 0.26836 0.79356
 C52 C 0.77626 0.29433 0.76767
 N53 N 0.79605 0.29653 0.75020
 C54 C 0.79389 0.27677 0.73269
 C55 C 0.76798 0.22472 0.70672
 N56 N 0.75046 0.20501 0.70453
 C57 C 0.73290 0.20722 0.72419
 H58 H 0.69382 0.21695 0.77269
 H59 H 0.72754 0.28469 0.80650
 H60 H 0.77285 0.30731 0.78395
 H61 H 0.80690 0.27339 0.71642
 H62 H 0.78429 0.22798 0.69375
 H63 H 0.71660 0.19423 0.72746
 C64 C 0.27219 -0.23986 0.76203
 C65 C 0.26105 -0.22869 0.73973
 C66 C 0.23897 -0.23962 0.72878
 C67 C 0.22775 -0.26187 0.74000
 C68 C 0.23874 -0.27288 0.76200
 C69 C 0.26112 -0.26181 0.77309
 C70 C 0.29361 -0.23340 0.77682
 N71 N 0.29579 -0.25091 0.79659
 C72 C 0.27598 -0.26836 0.79444
 C73 C 0.22383 -0.29417 0.76858
 N74 N 0.20404 -0.29633 0.75109
 C75 C 0.20632 -0.27662 0.73353
 C76 C 0.23247 -0.22479 0.70741
 N77 N 0.25007 -0.20516 0.70516
 C78 C 0.26762 -0.20738 0.72483
 H79 H 0.30662 -0.21715 0.77341
 H80 H 0.27258 -0.28463 0.80743
 H81 H 0.22716 -0.30712 0.78491
 H82 H 0.19335 -0.27323 0.71723
 H83 H 0.21615 -0.22803 0.69445
 H84 H 0.28396 -0.19445 0.72807
 C85 C 0.72747 -0.23947 0.76193
 C86 C 0.73864 -0.22829 0.73964
 C87 C 0.76069 -0.23925 0.72868
 C88 C 0.77188 -0.26152 0.73987
 C89 C 0.76087 -0.27254 0.76186
 C90 C 0.73851 -0.26144 0.77297
 C91 C 0.70606 -0.23299 0.77673
 N92 N 0.70386 -0.25052 0.79647
 C93 C 0.72365 -0.26799 0.79430
 C94 C 0.77575 -0.29387 0.76842
 N95 N 0.79553 -0.29604 0.75093
 C96 C 0.79329 -0.27631 0.73339
 C97 C 0.76721 -0.22440 0.70732
 N98 N 0.74965 -0.20474 0.70509
 C99 C 0.73210 -0.20696 0.72476
 H100 H 0.69307 -0.21671 0.77334
 H101 H 0.72702 -0.28429 0.80727
 H102 H 0.77239 -0.30683 0.78473
 H103 H 0.80626 -0.27292 0.71710
 H104 H 0.78353 -0.22766 0.69436
 H105 H 0.71578 -0.19399 0.72801
 C106 C 0.27250 0.23921 0.76135
 C107 C 0.26129 0.22801 0.73910
 C108 C 0.23922 0.23897 0.72816
 C109 C 0.22807 0.26127 0.73932
 C110 C 0.23914 0.27232 0.76127
 C111 C 0.26151 0.26121 0.77236
 C112 C 0.29393 0.23273 0.77612
 N113 N 0.29619 0.25029 0.79583
 C114 C 0.27641 0.26778 0.79366
 C115 C 0.22429 0.29367 0.76781
 N116 N 0.20453 0.29580 0.75036
 C117 C 0.20667 0.27608 0.73286
 C118 C 0.23265 0.22408 0.70685
 N119 N 0.25020 0.20440 0.70464
 C120 C 0.26778 0.20664 0.72428
 H121 H 0.30689 0.21643 0.77274
 H122 H 0.27308 0.28411 0.80660
 H123 H 0.22762 0.30669 0.78406
 H124 H 0.19362 0.27275 0.71663
 H125 H 0.21632 0.22732 0.69390
 H126 H 0.28410 0.19367 0.72753
 C127 C 0.27224 -0.23973 0.23818
 C128 C 0.26109 -0.22857 0.26048
 C129 C 0.23902 -0.23950 0.27143
 C130 C 0.22779 -0.26174 0.26021
 C131 C 0.23878 -0.27275 0.23821
 C132 C 0.26116 -0.26167 0.22712
 C133 C 0.29366 -0.23327 0.22339
 N134 N 0.29584 -0.25077 0.20363
 C135 C 0.27602 -0.26822 0.20578
 C136 C 0.22386 -0.29403 0.23163
 N137 N 0.20408 -0.29619 0.24912
 C138 C 0.20635 -0.27649 0.26668
 C139 C 0.23252 -0.22467 0.29280
 N140 N 0.25011 -0.20505 0.29505
 C141 C 0.26767 -0.20726 0.27538
 H142 H 0.30667 -0.21702 0.22680
 H143 H 0.27261 -0.28449 0.19279
 H144 H 0.22719 -0.30698 0.21531
 H145 H 0.19339 -0.27310 0.28298
 H146 H 0.21619 -0.22791 0.30575
 H147 H 0.28401 -0.19432 0.27215
 C148 C 0.72849 0.23965 0.23872
 C149 C 0.73965 0.22850 0.26103
 C150 C 0.76163 0.23953 0.27206
 C151 C 0.77276 0.26187 0.26092
 C152 C 0.76175 0.27287 0.23892
 C153 C 0.73947 0.26169 0.22774
 C154 C 0.70716 0.23311 0.22385
 N155 N 0.70497 0.25065 0.20416
 C156 C 0.72464 0.26820 0.20637
 C157 C 0.77655 0.29426 0.23241
 N158 N 0.79628 0.29650 0.24995
 C159 C 0.79409 0.27674 0.26747
 C160 C 0.76815 0.22467 0.29341
 N161 N 0.75066 0.20494 0.29556
 C162 C 0.73315 0.20712 0.27585
 H163 H 0.69419 0.21680 0.22712
 H164 H 0.72791 0.28450 0.19339
 H165 H 0.77318 0.30721 0.21610
 H166 H 0.80704 0.27340 0.28378
 H167 H 0.78442 0.22797 0.30643
 H168 H 0.71689 0.19410 0.27253
 O169 O 0.22858 0.02476 0.47476
 O170 O 0.22863 -0.02598 0.52549
 O171 O 0.22859 0.02475 0.52549
 O172 O 0.22863 -0.02597 0.47475
 O173 O 0.27167 -0.02594 0.47475
 O174 O 0.27164 0.02478 0.52548
 O175 O 0.27167 -0.02595 0.52549
 O176 O 0.27162 0.02479 0.47475
 Cu177 Cu 0.22428 -0.00062 0.50012
 Cu178 Cu 0.27597 -0.00058 0.50012
 C179 C 0.25009 0.03340 0.46613
 C180 C 0.25016 -0.03459 0.53412
 C181 C 0.25011 0.03340 0.53411
 C182 C 0.25015 -0.03458 0.46612
 O183 O 0.77175 0.02518 0.52548
 O184 O 0.77155 -0.02555 0.47475
 O185 O 0.77176 0.02519 0.47476
 O186 O 0.77155 -0.02556 0.52549
 O187 O 0.72851 -0.02538 0.52549
 O188 O 0.72871 0.02536 0.47475
 O189 O 0.72851 -0.02538 0.47475
 O190 O 0.72871 0.02535 0.52548
 Cu191 Cu 0.77597 -0.00021 0.50012
 Cu192 Cu 0.72429 0.00000 0.50012
 C193 C 0.75026 0.03390 0.53410
 C194 C 0.74999 -0.03408 0.46611
 C195 C 0.75027 0.03391 0.46613
 C196 C 0.74999 -0.03409 0.53413
 O197 O 0.47505 0.22895 0.02456
 O198 O 0.52578 0.22910 -0.02618
 O199 O 0.52577 0.22904 0.02455
 O200 O 0.47504 0.22902 -0.02617
 O201 O 0.47497 0.27206 -0.02613
 O202 O 0.52570 0.27208 0.02460
 O203 O 0.52571 0.27215 -0.02613
 O204 O 0.47498 0.27200 0.02460
 Cu205 Cu 0.50042 0.22470 -0.00082
 Cu206 Cu 0.50033 0.27640 -0.00076
 C207 C 0.46639 0.25045 0.03321
 C208 C 0.53437 0.25065 -0.03478
 C209 C 0.53436 0.25056 0.03321
 C210 C 0.46637 0.25054 -0.03478
 O211 O 0.52521 0.77073 0.02544
 O212 O 0.47448 0.77063 -0.02530
 O213 O 0.47448 0.77066 0.02543
 O214 O 0.52521 0.77071 -0.02530
 O215 O 0.52528 0.72766 -0.02527
 O216 O 0.47454 0.72762 0.02547
 O217 O 0.47454 0.72759 -0.02527
 O218 O 0.52528 0.72769 0.02547
 Cu219 Cu 0.49984 0.77501 0.00006
 Cu220 Cu 0.49992 0.72332 0.00010
 C221 C 0.53387 0.74923 0.03408
 C222 C 0.46587 0.74909 -0.03391
 C223 C 0.46588 0.74913 0.03407
 C224 C 0.53387 0.74919 -0.03391
 O225 O 0.02500 0.47524 0.22797
 O226 O -0.02574 0.52598 0.22785
 O227 O 0.02501 0.52597 0.22781
 O228 O -0.02572 0.47524 0.22802
 O229 O -0.02569 0.47537 0.27106
 O230 O 0.02505 0.52610 0.27085
 O231 O -0.02570 0.52610 0.27089
 O232 O 0.02503 0.47537 0.27101
 Cu233 Cu -0.00037 0.50060 0.22359
 Cu234 Cu -0.00032 0.50075 0.27528
 C235 C 0.03364 0.46667 0.24951
 C236 C -0.03435 0.53466 0.24935
 C237 C 0.03367 0.53465 0.24929
 C238 C -0.03432 0.46666 0.24957
 O239 O 0.02501 0.52579 0.77244
 O240 O -0.02573 0.47505 0.77225
 O241 O 0.02501 0.47506 0.77229
 O242 O -0.02574 0.52579 0.77240
 O243 O -0.02570 0.52593 0.72936
 O244 O 0.02504 0.47520 0.72925
 O245 O -0.02569 0.47519 0.72921
 O246 O 0.02504 0.52592 0.72940
 Cu247 Cu -0.00037 0.50041 0.77667
 Cu248 Cu -0.00033 0.50058 0.72498
 C249 C 0.03366 0.53447 0.75096
 C250 C -0.03433 0.46649 0.75069
 C251 C 0.03365 0.46650 0.75075
 C252 C -0.03435 0.53448 0.75090
 N253 N 0.33404 0.26875 0.14714
 C254 C 0.35280 0.25016 0.14697
 N255 N 0.35266 0.23155 0.16571
 N256 N 0.33431 0.23152 0.18407
 C257 C 0.31547 0.25012 0.18432
 N258 N 0.31569 0.26874 0.16550
 C259 C 0.37256 0.25019 0.12720
 C260 C 0.38915 0.25022 0.11058
 C261 C 0.40890 0.25028 0.09080
 N262 N 0.41838 0.22753 0.08132
 N263 N 0.43672 0.22758 0.06294
 C264 C 0.44618 0.25039 0.05344
 N265 N 0.43664 0.27315 0.06299
 N266 N 0.41830 0.27309 0.08136
 N267 N 0.66640 0.73094 0.14783
 C268 C 0.64760 0.74948 0.14772
 N269 N 0.64773 0.76807 0.16647
 N270 N 0.66611 0.76812 0.18480
 C271 C 0.68504 0.74958 0.18503
 N272 N 0.68479 0.73098 0.16615
 C273 C 0.62780 0.74944 0.12798
 C274 C 0.61118 0.74940 0.11139
 C275 C 0.59141 0.74935 0.09163
 N276 N 0.58192 0.77211 0.08216
 N277 N 0.56356 0.77208 0.06380
 C278 C 0.55409 0.74927 0.05431
 N279 N 0.56364 0.72651 0.06384
 N280 N 0.58199 0.72655 0.08219
 N281 N 0.66697 0.26947 -0.14840
 C282 C 0.64824 0.25086 -0.14827
 N283 N 0.64845 0.23225 -0.16699
 N284 N 0.66684 0.23223 -0.18530
 C285 C 0.68569 0.25085 -0.18555
 N286 N 0.68537 0.26947 -0.16671
 C287 C 0.62843 0.25086 -0.12854
 C288 C 0.61179 0.25084 -0.11197
 C289 C 0.59199 0.25079 -0.09224
 N290 N 0.58256 0.22799 -0.08282
 N291 N 0.56417 0.22794 -0.06449
 C292 C 0.55461 0.25070 -0.05498
 N293 N 0.56410 0.27351 -0.06445
 N294 N 0.58249 0.27355 -0.08278
 N295 N 0.35189 0.76755 -0.16619
 C296 C 0.35201 0.74899 -0.14741
 N297 N 0.33320 0.73046 -0.14749
 N298 N 0.31481 0.73049 -0.16580
 C299 C 0.31457 0.74905 -0.18471
 N300 N 0.33350 0.76759 -0.18451
 C301 C 0.37181 0.74897 -0.12767
 C302 C 0.38845 0.74897 -0.11110
 C303 C 0.40825 0.74900 -0.09137
 N304 N 0.41775 0.72623 -0.08191
 N305 N 0.43613 0.72626 -0.06359
 C306 C 0.44564 0.74906 -0.05411
 N307 N 0.43608 0.77182 -0.06362
 N308 N 0.41769 0.77179 -0.08194
 N309 N 0.14735 0.33414 0.26835
 C310 C 0.14721 0.35289 0.24975
 N311 N 0.16597 0.35273 0.23116
 N312 N 0.18432 0.33437 0.23117
 C313 C 0.18454 0.31554 0.24977
 N314 N 0.16570 0.31577 0.26837
 C315 C 0.12745 0.37266 0.24973
 C316 C 0.11086 0.38928 0.24970
 C317 C 0.09112 0.40907 0.24965
 N318 N 0.08166 0.41847 0.22685
 N319 N 0.06333 0.43685 0.22680
 C320 C 0.05384 0.44644 0.24956
 N321 N 0.06336 0.43698 0.27237
 N322 N 0.08169 0.41860 0.27241
 N323 N 0.16646 0.64788 0.76979
 C324 C 0.14770 0.64779 0.75121
 N325 N 0.14791 0.66653 0.73260
 N326 N 0.16633 0.68481 0.73256
 C327 C 0.18522 0.68501 0.75114
 N328 N 0.18490 0.66616 0.76976
 C329 C 0.12786 0.62810 0.75123
 C330 C 0.11119 0.61155 0.75121
 C331 C 0.09136 0.59186 0.75115
 N332 N 0.08188 0.58251 0.72834
 N333 N 0.06347 0.56421 0.72827
 C334 C 0.05392 0.55466 0.75103
 N335 N 0.06345 0.56407 0.77384
 N336 N 0.08186 0.58237 0.77390
 N337 N -0.14843 0.66687 0.26779
 C338 C -0.14825 0.64813 0.24920
 N339 N -0.16703 0.64824 0.23063
 N340 N -0.18543 0.66654 0.23065
 C341 C -0.18572 0.68540 0.24925
 N342 N -0.16683 0.68518 0.26783
 C343 C -0.12845 0.62840 0.24919
 C344 C -0.11180 0.61183 0.24920
 C345 C -0.09199 0.59211 0.24923
 N346 N -0.08249 0.58274 0.27203
 N347 N -0.06410 0.56442 0.27207
 C348 C -0.05459 0.55486 0.24931
 N349 N -0.06415 0.56429 0.22651
 N350 N -0.08254 0.58261 0.22647
 N351 N -0.14796 0.33392 0.73173
 C352 C -0.14788 0.35268 0.75030
 N353 N -0.16668 0.35253 0.76884
 N354 N -0.18502 0.33417 0.76881
 C355 C -0.18522 0.31529 0.75023
 N356 N -0.16630 0.31555 0.73168
 C357 C -0.12812 0.37246 0.75034
 C358 C -0.11154 0.38909 0.75039
 C359 C -0.09180 0.40888 0.75047
 N360 N -0.08238 0.41827 0.77329
 N361 N -0.06405 0.43666 0.77336
 C362 C -0.05453 0.44625 0.75062
 N363 N -0.06401 0.43680 0.72779
 N364 N -0.08234 0.41842 0.72773
 N365 N 0.23140 0.16593 0.35238
 C366 C 0.25000 0.14718 0.35253
 N367 N 0.26860 0.14736 0.33378
 N368 N 0.26861 0.16573 0.31544
 C369 C 0.25000 0.18456 0.31521
 N370 N 0.23139 0.18431 0.33404
 C371 C 0.24999 0.12740 0.37228
 C372 C 0.25000 0.11077 0.38887
 C373 C 0.25003 0.09099 0.40861
 N374 N 0.27282 0.08154 0.41805
 N375 N 0.27284 0.06317 0.43640
 C376 C 0.25007 0.05363 0.44591
 N377 N 0.22728 0.06314 0.43642
 N378 N 0.22726 0.08151 0.41807
 N379 N 0.73192 0.14800 0.66626
 C380 C 0.75055 0.14779 0.64754
 N381 N 0.76916 0.16653 0.64769
 N382 N 0.76914 0.18492 0.66601
 C383 C 0.75050 0.18520 0.68481
 N384 N 0.73189 0.16638 0.68458
 C385 C 0.75056 0.12800 0.62781
 C386 C 0.75053 0.11136 0.61124
 C387 C 0.75047 0.09155 0.59152
 N388 N 0.77322 0.08199 0.58210
 N389 N 0.77316 0.06360 0.56378
 C390 C 0.75034 0.05415 0.55429
 N391 N 0.72759 0.06376 0.56378
 N392 N 0.72766 0.08216 0.58209
 N393 N 0.23149 -0.16682 0.64819
 C394 C 0.25016 -0.14814 0.64796
 N395 N 0.26880 -0.14834 0.66666
 N396 N 0.26878 -0.16667 0.68505
 C397 C 0.25010 -0.18542 0.68536
 N398 N 0.23146 -0.18515 0.66657
 C399 C 0.25018 -0.12840 0.62816
 C400 C 0.25019 -0.11182 0.61152
 C401 C 0.25019 -0.09208 0.59173
 N402 N 0.22740 -0.08265 0.58226
 N403 N 0.22739 -0.06431 0.56388
 C404 C 0.25017 -0.05480 0.55436
 N405 N 0.27296 -0.06429 0.56389
 N406 N 0.27296 -0.08263 0.58227
 N407 N 0.73098 -0.14775 0.33357
 C408 C 0.74963 -0.14758 0.35228
 N409 N 0.76826 -0.16630 0.35205
 N410 N 0.76826 -0.18463 0.33368
 C411 C 0.74961 -0.18488 0.31490
 N412 N 0.73097 -0.16609 0.31520
 C413 C 0.74965 -0.12784 0.37206
 C414 C 0.74969 -0.11126 0.38869
 C415 C 0.74977 -0.09153 0.40849
 N416 N 0.77258 -0.08219 0.41796
 N417 N 0.77266 -0.06386 0.43635
 C418 C 0.74991 -0.05428 0.44587
 N419 N 0.72709 -0.06368 0.43634
 N420 N 0.72702 -0.08200 0.41796
 N421 N 0.64778 0.76794 -0.16627
 C422 C 0.64764 0.74935 -0.14751
 N423 N 0.66644 0.73080 -0.14762
 N424 N 0.68483 0.73084 -0.16594
 C425 C 0.68508 0.74944 -0.18482
 N426 N 0.66616 0.76799 -0.18459
 C427 C 0.62784 0.74931 -0.12778
 C428 C 0.61122 0.74928 -0.11119
 C429 C 0.59143 0.74925 -0.09144
 N430 N 0.58201 0.72646 -0.08197
 N431 N 0.56365 0.72644 -0.06362
 C432 C 0.55410 0.74921 -0.05413
 N433 N 0.56358 0.77201 -0.06366
 N434 N 0.58194 0.77203 -0.08200
 N435 N 0.33372 0.26899 -0.14836
 C436 C 0.35249 0.25042 -0.14825
 N437 N 0.35230 0.23180 -0.16697
 N438 N 0.33388 0.23176 -0.18526
 C439 C 0.31499 0.25033 -0.18549
 N440 N 0.31530 0.26896 -0.16665
 C441 C 0.37231 0.25045 -0.12854
 C442 C 0.38896 0.25047 -0.11197
 C443 C 0.40876 0.25049 -0.09224
 N444 N 0.41827 0.22772 -0.08283
 N445 N 0.43666 0.22773 -0.06450
 C446 C 0.44614 0.25052 -0.05498
 N447 N 0.43657 0.27330 -0.06446
 N448 N 0.41818 0.27328 -0.08279
 N449 N 0.35194 0.76767 0.16639
 C450 C 0.35205 0.74912 0.14761
 N451 N 0.33323 0.73060 0.14770
 N452 N 0.31484 0.73063 0.16602
 C453 C 0.31461 0.74919 0.18492
 N454 N 0.33355 0.76772 0.18472
 C455 C 0.37185 0.74909 0.12787
 C456 C 0.38848 0.74908 0.11129
 C457 C 0.40827 0.74909 0.09156
 N458 N 0.41777 0.72632 0.08213
 N459 N 0.43615 0.72633 0.06380
 C460 C 0.44564 0.74912 0.05428
 N461 N 0.43609 0.77189 0.06376
 N462 N 0.41771 0.77188 0.08210
 N463 N 0.66665 0.26922 0.14717
 C464 C 0.64793 0.25059 0.14699
 N465 N 0.64809 0.23198 0.16573
 N466 N 0.66642 0.23200 0.18411
 C467 C 0.68522 0.25063 0.18437
 N468 N 0.68498 0.26925 0.16555
 C469 C 0.62820 0.25057 0.12719
 C470 C 0.61161 0.25056 0.11056
 C471 C 0.59187 0.25056 0.09078
 N472 N 0.58239 0.27334 0.08135
 N473 N 0.56405 0.27335 0.06298
 C474 C 0.55457 0.25056 0.05343
 N475 N 0.56411 0.22778 0.06293
 N476 N 0.58245 0.22778 0.08130
 N477 N -0.14840 0.66672 0.73243
 C478 C -0.14823 0.64798 0.75102
 N479 N -0.16700 0.64809 0.76959
 N480 N -0.18540 0.66640 0.76957
 C481 C -0.18569 0.68526 0.75097
 N482 N -0.16679 0.68504 0.73239
 C483 C -0.12842 0.62825 0.75104
 C484 C -0.11178 0.61168 0.75103
 C485 C -0.09197 0.59195 0.75100
 N486 N -0.08253 0.58244 0.77377
 N487 N -0.06414 0.56412 0.77374
 C488 C -0.05459 0.55469 0.75094
 N489 N -0.06409 0.56425 0.72817
 N490 N -0.08248 0.58258 0.72821
 N491 N -0.16647 0.35253 0.23135
 C492 C -0.14773 0.35272 0.24995
 N493 N -0.14785 0.33398 0.26855
 N494 N -0.16616 0.31558 0.26856
 C495 C -0.18502 0.31528 0.24995
 N496 N -0.18479 0.33414 0.23135
 C497 C -0.12800 0.37253 0.24993
 C498 C -0.11144 0.38918 0.24989
 C499 C -0.09173 0.40899 0.24981
 N500 N -0.08228 0.41854 0.27255
 N501 N -0.06397 0.43694 0.27248
 C502 C -0.05451 0.44641 0.24966
 N503 N -0.06402 0.43681 0.22691
 N504 N -0.08232 0.41841 0.22699
 N505 N 0.14746 0.33407 0.73190
 C506 C 0.14735 0.35284 0.75047
 N507 N 0.16616 0.35273 0.76901
 N508 N 0.18454 0.33440 0.76898
 C509 C 0.18473 0.31554 0.75040
 N510 N 0.16584 0.31573 0.73186
 C511 C 0.12757 0.37259 0.75050
 C512 C 0.11096 0.38919 0.75054
 C513 C 0.09119 0.40895 0.75060
 N514 N 0.08174 0.41848 0.72784
 N515 N 0.06339 0.43684 0.72789
 C516 C 0.05387 0.44628 0.75070
 N517 N 0.06337 0.43669 0.77346
 N518 N 0.08173 0.41833 0.77340
 N519 N 0.16649 0.64803 0.23043
 C520 C 0.14773 0.64794 0.24901
 N521 N 0.14794 0.66667 0.26762
 N522 N 0.16637 0.68495 0.26766
 C523 C 0.18526 0.68515 0.24908
 N524 N 0.18493 0.66630 0.23046
 C525 C 0.12789 0.62825 0.24900
 C526 C 0.11121 0.61171 0.24902
 C527 C 0.09137 0.59202 0.24908
 N528 N 0.08187 0.58254 0.22633
 N529 N 0.06345 0.56425 0.22640
 C530 C 0.05392 0.55483 0.24921
 N531 N 0.06348 0.56438 0.27196
 N532 N 0.08190 0.58267 0.27189
 N533 N 0.76830 -0.16639 0.64815
 C534 C 0.74966 -0.14768 0.64793
 N535 N 0.73102 -0.14786 0.66664
 N536 N 0.73101 -0.16620 0.68501
 C537 C 0.74965 -0.18499 0.68531
 N538 N 0.76830 -0.18473 0.66652
 C539 C 0.74968 -0.12792 0.62815
 C540 C 0.74971 -0.11133 0.61153
 C541 C 0.74978 -0.09158 0.59174
 N542 N 0.72703 -0.08205 0.58227
 N543 N 0.72710 -0.06371 0.56389
 C544 C 0.74992 -0.05430 0.55436
 N545 N 0.77267 -0.06389 0.56389
 N546 N 0.77260 -0.08223 0.58227
 N547 N 0.23152 -0.16674 0.35202
 C548 C 0.25019 -0.14806 0.35226
 N549 N 0.26884 -0.14824 0.33356
 N550 N 0.26882 -0.16656 0.31516
 C551 C 0.25015 -0.18532 0.31485
 N552 N 0.23150 -0.18505 0.33364
 C553 C 0.25021 -0.12833 0.37206
 C554 C 0.25021 -0.11176 0.38870
 C555 C 0.25020 -0.09203 0.40850
 N556 N 0.27297 -0.08258 0.41797
 N557 N 0.27296 -0.06425 0.43635
 C558 C 0.25017 -0.05478 0.44588
 N559 N 0.22739 -0.06429 0.43636
 N560 N 0.22741 -0.08262 0.41797
 N561 N 0.73206 0.14793 0.33384
 C562 C 0.75064 0.14777 0.35261
 N563 N 0.76922 0.16653 0.35250
 N564 N 0.76923 0.18491 0.33417
 C565 C 0.75066 0.18515 0.31531
 N566 N 0.73207 0.16631 0.31550
 C567 C 0.75061 0.12798 0.37236
 C568 C 0.75057 0.11135 0.38894
 C569 C 0.75050 0.09155 0.40868
 N570 N 0.77324 0.08199 0.41812
 N571 N 0.77317 0.06360 0.43644
 C572 C 0.75035 0.05415 0.44594
 N573 N 0.72761 0.06377 0.43644
 N574 N 0.72768 0.08216 0.41811
 N575 N 0.23147 0.16592 0.64782
 C576 C 0.25010 0.14721 0.64763
 N577 N 0.26876 0.14742 0.66632
 N578 N 0.26880 0.16580 0.68465
 C579 C 0.25016 0.18460 0.68491
 N580 N 0.23150 0.18431 0.66614
 C581 C 0.25008 0.12741 0.62790
 C582 C 0.25007 0.11078 0.61132
 C583 C 0.25008 0.09099 0.59159
 N584 N 0.27286 0.08154 0.58214
 N585 N 0.27288 0.06316 0.56381
 C586 C 0.25010 0.05363 0.55431
 N587 N 0.22731 0.06314 0.56381
 N588 N 0.22730 0.08152 0.58215
   
