data_POSCAR
  _audit_creation_date              2014-09-24
  _audit_creation_method            'ToBaCCo'
  _symmetry_space_group_name_H-M    'P1'
  _symmetry_Int_Tables_number       1
  _symmetry_cell_setting            triclinic
  loop_
  _symmetry_equiv_pos_as_xyz
 x,y,z
_cell_length_a 34.5133
_cell_length_b 26.3145
_cell_length_c 26.4422
_cell_angle_alpha 90.290400
_cell_angle_beta 90.028200
_cell_angle_gamma 90.192000
loop_
  _atom_site_label
  _atom_site_type_symbol
  _atom_site_fract_x
  _atom_site_fract_y
  _atom_site_fract_z
C1 C 0.24877 0.27593 0.24993
 C2 C 0.24932 0.22399 0.25024
 C3 C 0.22140 0.19328 0.21989
 C4 C 0.27773 0.19505 0.28098
 C5 C 0.27891 0.30668 0.27642
 C6 C 0.21786 0.30452 0.22315
 C7 C 0.19914 0.15559 0.24356
 C8 C 0.17168 0.12774 0.21615
 C9 C 0.16608 0.13686 0.16427
 C10 C 0.18883 0.17423 0.14051
 C11 C 0.21663 0.20159 0.16785
 C12 C 0.28258 0.20496 0.33289
 C13 C 0.31050 0.17871 0.36063
 C14 C 0.33315 0.14118 0.33731
 C15 C 0.32752 0.13017 0.28588
 C16 C 0.30002 0.15689 0.25796
 C17 C 0.31858 0.29778 0.26838
 C18 C 0.34642 0.32479 0.29605
 C19 C 0.33511 0.36214 0.33100
 C20 C 0.29557 0.37239 0.33769
 C21 C 0.26771 0.34489 0.31059
 C22 C 0.22798 0.34215 0.18807
 C23 C 0.19933 0.36712 0.16045
 C24 C 0.16015 0.35463 0.16723
 C25 C 0.14986 0.31841 0.20363
 C26 C 0.17846 0.29399 0.23182
 H27 H 0.20242 0.14855 0.28366
 H28 H 0.15438 0.10005 0.23614
 H29 H 0.18497 0.18245 0.10073
 H30 H 0.23400 0.22986 0.14861
 H31 H 0.26509 0.23341 0.35173
 H32 H 0.31445 0.18764 0.40034
 H33 H 0.29659 0.14843 0.21807
 H34 H 0.32793 0.26930 0.24137
 H35 H 0.37681 0.31643 0.29036
 H36 H 0.28608 0.40080 0.36462
 H37 H 0.23731 0.35257 0.31719
 H38 H 0.25814 0.35130 0.18121
 H39 H 0.20774 0.39551 0.13301
 H40 H 0.11979 0.30891 0.21033
 H41 H 0.16993 0.26617 0.25976
 H42 H 0.34477 0.10161 0.26693
 C43 C 0.74913 0.22357 0.24771
 C44 C 0.74982 0.27552 0.24787
 C45 C 0.77823 0.30486 0.21731
 C46 C 0.72202 0.30588 0.27851
 C47 C 0.71816 0.19461 0.27425
 C48 C 0.77922 0.19317 0.22103
 C49 C 0.80060 0.34303 0.24057
 C50 C 0.82801 0.37024 0.21277
 C51 C 0.83347 0.35971 0.16123
 C52 C 0.81075 0.32217 0.13769
 C53 C 0.78293 0.29542 0.16532
 C54 C 0.71711 0.29687 0.33047
 C55 C 0.68943 0.32397 0.35802
 C56 C 0.66709 0.36146 0.33447
 C57 C 0.67290 0.37172 0.28303
 C58 C 0.70016 0.34414 0.25529
 C59 C 0.67879 0.20506 0.26567
 C60 C 0.65014 0.18046 0.29382
 C61 C 0.66036 0.14415 0.33009
 C62 C 0.69950 0.13167 0.33670
 C63 C 0.72820 0.15681 0.30912
 C64 C 0.76796 0.15500 0.18671
 C65 C 0.79578 0.12768 0.15964
 C66 C 0.83534 0.13806 0.16649
 C67 C 0.84670 0.17544 0.20150
 C68 C 0.81890 0.20227 0.22915
 H69 H 0.79728 0.35113 0.28054
 H70 H 0.84531 0.39880 0.23187
 H71 H 0.81458 0.31362 0.09790
 H72 H 0.76537 0.26699 0.14630
 H73 H 0.73427 0.26835 0.34944
 H74 H 0.68533 0.31561 0.39773
 H75 H 0.70365 0.35190 0.21535
 H76 H 0.67032 0.23302 0.23790
 H77 H 0.62010 0.18996 0.28723
 H78 H 0.70786 0.10322 0.36404
 H79 H 0.75834 0.14772 0.31590
 H80 H 0.73755 0.14717 0.18005
 H81 H 0.78625 0.09924 0.13267
 H82 H 0.87711 0.18390 0.20733
 H83 H 0.82832 0.23070 0.25627
 H84 H 0.65589 0.40026 0.26395
 C85 C 0.75068 0.77957 0.75043
 C86 C 0.75027 0.72761 0.75142
 C87 C 0.72211 0.69727 0.72104
 C88 C 0.77809 0.69852 0.78297
 C89 C 0.78209 0.80932 0.77549
 C90 C 0.71972 0.80892 0.72456
 C91 C 0.70011 0.65903 0.74438
 C92 C 0.67269 0.63133 0.71670
 C93 C 0.66687 0.64146 0.66524
 C94 C 0.68931 0.67897 0.64161
 C95 C 0.71713 0.70616 0.66908
 C96 C 0.78278 0.70958 0.83467
 C97 C 0.81071 0.68419 0.86314
 C98 C 0.83375 0.64654 0.84063
 C99 C 0.82782 0.63376 0.78967
 C100 C 0.80028 0.65964 0.76099
 C101 C 0.82125 0.79844 0.76593
 C102 C 0.85047 0.82299 0.79335
 C103 C 0.84107 0.85970 0.83008
 C104 C 0.80204 0.87287 0.83728
 C105 C 0.77279 0.84775 0.81035
 C106 C 0.72966 0.84668 0.68952
 C107 C 0.70082 0.87217 0.66266
 C108 C 0.66165 0.86007 0.67020
 C109 C 0.65158 0.82385 0.70669
 C110 C 0.68037 0.79890 0.73409
 H111 H 0.70364 0.65133 0.78431
 H112 H 0.65561 0.60276 0.73583
 H113 H 0.68522 0.68721 0.60188
 H114 H 0.73440 0.73462 0.64998
 H115 H 0.76521 0.73844 0.85276
 H116 H 0.81420 0.69406 0.90263
 H117 H 0.79685 0.65011 0.72134
 H118 H 0.82912 0.76996 0.73810
 H119 H 0.88028 0.81288 0.78586
 H120 H 0.79410 0.90169 0.86475
 H121 H 0.74281 0.85720 0.81784
 H122 H 0.75979 0.85547 0.68201
 H123 H 0.70908 0.90054 0.63513
 H124 H 0.62154 0.81465 0.71402
 H125 H 0.67198 0.77103 0.76205
 H126 H 0.84506 0.60437 0.77188
 C127 C 0.25010 0.72353 0.75125
 C128 C 0.24999 0.77549 0.75143
 C129 C 0.27694 0.80527 0.71907
 C130 C 0.22296 0.80502 0.78399
 C131 C 0.22028 0.69353 0.77887
 C132 C 0.28000 0.69398 0.72329
 C133 C 0.30013 0.84352 0.74076
 C134 C 0.32725 0.86958 0.71139
 C135 C 0.33175 0.85761 0.66001
 C136 C 0.30756 0.82082 0.63778
 C137 C 0.28004 0.79527 0.66697
 C138 C 0.21980 0.79506 0.83597
 C139 C 0.19229 0.82043 0.86537
 C140 C 0.16802 0.85705 0.84349
 C141 C 0.17275 0.86904 0.79216
 C142 C 0.19987 0.84311 0.76263
 C143 C 0.18056 0.70294 0.77221
 C144 C 0.15304 0.67591 0.80007
 C145 C 0.16465 0.63789 0.83390
 C146 C 0.20433 0.62753 0.83949
 C147 C 0.23185 0.65508 0.81218
 C148 C 0.26853 0.65555 0.68938
 C149 C 0.29615 0.62867 0.66153
 C150 C 0.33570 0.63978 0.66718
 C151 C 0.34729 0.67753 0.70167
 C152 C 0.31971 0.70393 0.73008
 H153 H 0.29791 0.85226 0.78073
 H154 H 0.34537 0.89833 0.72899
 H155 H 0.30993 0.81162 0.59800
 H156 H 0.26166 0.76696 0.64914
 H157 H 0.23817 0.76694 0.85358
 H158 H 0.19011 0.81116 0.90507
 H159 H 0.20219 0.85189 0.72277
 H160 H 0.17090 0.73164 0.74590
 H161 H 0.12262 0.68469 0.79516
 H162 H 0.21432 0.59887 0.86556
 H163 H 0.26232 0.64706 0.81774
 H164 H 0.23810 0.64707 0.68374
 H165 H 0.28644 0.59992 0.63500
 H166 H 0.37771 0.68652 0.70657
 H167 H 0.32929 0.73260 0.75685
 H168 H 0.15481 0.89771 0.77462
 O169 O 1.04040 -0.06494 -0.00770
 O170 O 0.96286 -0.00331 0.06504
 O171 O 0.96520 -0.06625 -0.01140
 O172 O 1.03834 -0.00062 0.06678
 O173 O 1.04005 0.06230 0.01171
 O174 O 0.96392 -0.00069 -0.06334
 O175 O 0.96454 0.06230 0.01320
 O176 O 1.03930 -0.00219 -0.06298
 Cu177 Cu 1.00157 -0.04021 0.03364
 Cu178 Cu 1.00190 0.03696 -0.03072
 C179 C 1.05277 -0.04429 -0.04782
 C180 C 0.95082 0.04013 0.05182
 C181 C 0.95211 -0.04448 -0.05056
 C182 C 1.05201 0.04160 0.05198
 O183 O 0.53913 0.43753 0.48893
 O184 O 0.46226 0.49884 0.56319
 O185 O 0.46372 0.43699 0.48599
 O186 O 0.53765 0.50114 0.56432
 O187 O 0.53935 0.56465 0.50994
 O188 O 0.46252 0.50326 0.43497
 O189 O 0.46396 0.56512 0.51218
 O190 O 0.53794 0.50104 0.43453
 Cu191 Cu 0.50062 0.46206 0.53093
 Cu192 Cu 0.50093 0.54007 0.46757
 C193 C 0.55140 0.45870 0.44902
 C194 C 0.45036 0.54254 0.55062
 C195 C 0.45035 0.45957 0.44745
 C196 C 0.55134 0.54351 0.54997
 O197 O -0.03715 0.56394 -0.01105
 O198 O 0.03850 0.49858 0.06137
 O199 O 0.03827 0.56257 -0.01370
 O200 O -0.03674 0.49875 0.06221
 O201 O -0.03953 0.43656 0.00575
 O202 O 0.03836 0.49757 -0.06699
 O203 O 0.03562 0.43362 0.00813
 O204 O -0.03709 0.50172 -0.06756
 Cu205 Cu 0.00094 0.53743 0.03020
 Cu206 Cu -0.00069 0.46099 -0.03579
 C207 C -0.04984 0.54406 -0.05161
 C208 C 0.04936 0.45466 0.04758
 C209 C 0.05121 0.54062 -0.05304
 C210 C -0.05109 0.45708 0.04651
 O211 O 0.46062 1.06489 0.49258
 O212 O 0.53764 1.00228 0.56533
 O213 O 0.53588 1.06641 0.49009
 O214 O 0.46221 1.00005 0.56614
 O215 O 0.46079 0.93780 0.50967
 O216 O 0.53755 1.00131 0.43697
 O217 O 0.53609 0.93721 0.51216
 O218 O 0.46227 1.00256 0.43621
 Cu219 Cu 0.49923 1.03983 0.53410
 Cu220 Cu 0.49933 0.96327 0.46824
 C221 C 0.44858 1.04446 0.45193
 C222 C 0.54941 0.95873 0.55159
 C223 C 0.54915 1.04506 0.45061
 C224 C 0.44863 0.95799 0.55030
 C225 C 1.07716 0.08887 0.13612
 C226 C 1.11587 0.06454 0.15245
 C227 C 1.13669 0.11061 0.13605
 C228 C 1.10081 0.13647 0.12098
 C229 C 1.14343 0.09022 0.08485
 C230 C 1.12089 0.04148 0.09897
 C231 C 1.08285 0.06712 0.08238
 C232 C 1.10545 0.11526 0.06673
 H233 H 1.04995 0.08907 0.15850
 H234 H 1.12087 0.04334 0.18801
 H235 H 1.09396 0.17640 0.13139
 H236 H 1.17185 0.09147 0.06519
 H237 H 1.13018 0.00203 0.09036
 H238 H 1.10193 0.13741 0.03141
 C239 C 0.57542 0.59209 0.63341
 C240 C 0.61311 0.56648 0.65204
 C241 C 0.63623 0.61376 0.63554
 C242 C 0.59887 0.63962 0.61726
 C243 C 0.64279 0.59049 0.58273
 C244 C 0.61935 0.54299 0.59882
 C245 C 0.58206 0.56895 0.58069
 C246 C 0.60511 0.61613 0.56416
 H247 H 0.54734 0.59257 0.65387
 H248 H 0.61622 0.54544 0.68806
 H249 H 0.59071 0.67964 0.62518
 H250 H 0.67079 0.58993 0.56211
 H251 H 0.62746 0.50297 0.59082
 H252 H 0.60160 0.63641 0.52774
 C253 C -0.07515 0.40841 0.12913
 C254 C -0.11264 0.43425 0.14827
 C255 C -0.13599 0.38712 0.13141
 C256 C -0.09882 0.36105 0.11259
 C257 C -0.14273 0.41048 0.07889
 C258 C -0.11904 0.45783 0.09537
 C259 C -0.08193 0.43167 0.07672
 C260 C -0.10521 0.38464 0.05978
 H261 H -0.04698 0.40775 0.14940
 H262 H -0.11546 0.45533 0.18451
 H263 H -0.09077 0.32097 0.12001
 H264 H -0.17083 0.41123 0.05848
 H265 H -0.12704 0.49791 0.08785
 H266 H -0.10192 0.36441 0.02310
 C267 C 0.37572 0.92559 0.56118
 C268 C 0.37683 0.86891 0.57646
 C269 C 0.36269 0.88379 0.62975
 C270 C 0.36127 0.94017 0.61480
 C271 C 0.40481 0.88994 0.64812
 C272 C 0.41923 0.87541 0.59459
 C273 C 0.41771 0.93171 0.57964
 C274 C 0.40369 0.94665 0.63283
 H275 H 0.36409 0.94067 0.52511
 H276 H 0.36619 0.83686 0.55277
 H277 H 0.33708 0.96656 0.62329
 H278 H 0.41660 0.87494 0.68412
 H279 H 0.44345 0.84906 0.58610
 H280 H 0.41503 0.97882 0.65584
 C281 C -0.12207 0.57838 -0.06118
 C282 C -0.12002 0.63488 -0.07695
 C283 C -0.13527 0.61996 -0.12976
 C284 C -0.13761 0.56376 -0.11430
 C285 C -0.09358 0.61253 -0.14911
 C286 C -0.07805 0.62710 -0.09606
 C287 C -0.08050 0.57098 -0.08061
 C288 C -0.09563 0.55600 -0.13332
 H289 H -0.13346 0.56391 -0.02471
 H290 H -0.12962 0.66739 -0.05326
 H291 H -0.16246 0.53796 -0.12197
 H292 H -0.08205 0.62694 -0.18553
 H293 H -0.05316 0.65284 -0.08838
 H294 H -0.08530 0.52334 -0.15632
 C295 C 0.42444 1.09272 0.36917
 C296 C 0.38665 1.06680 0.35069
 C297 C 0.36373 1.11419 0.36725
 C298 C 0.40120 1.14034 0.38543
 C299 C 0.35718 1.09143 0.42009
 C300 C 0.38042 1.04384 0.40388
 C301 C 0.41784 1.07006 0.42190
 C302 C 0.39501 1.11734 0.43857
 H303 H 0.45249 1.09307 0.34863
 H304 H 0.38346 1.04530 0.31472
 H305 H 0.40949 1.18031 0.37749
 H306 H 0.32920 1.09100 0.44078
 H307 H 0.37217 1.00388 0.41191
 H308 H 0.39869 1.13794 0.47500
 C309 C 1.12557 -0.07673 -0.05859
 C310 C 1.12406 -0.13334 -0.07471
 C311 C 1.13866 -0.11824 -0.12765
 C312 C 1.14049 -0.06195 -0.11185
 C313 C 1.09669 -0.11177 -0.14638
 C314 C 1.08184 -0.12647 -0.09321
 C315 C 1.08375 -0.07025 -0.07739
 C316 C 1.09820 -0.05513 -0.13021
 H317 H 1.13710 -0.06189 -0.02218
 H318 H 1.13403 -0.16554 -0.05116
 H319 H 1.16493 -0.03561 -0.11965
 H320 H 1.08488 -0.12652 -0.18268
 H321 H 1.05734 -0.15270 -0.08537
 H322 H 1.08726 -0.02277 -0.15282
 C323 C 0.57576 0.41056 0.36567
 C324 C 0.61368 0.43630 0.34766
 C325 C 0.63647 0.38892 0.36412
 C326 C 0.59887 0.36294 0.38181
 C327 C 0.64283 0.41186 0.41715
 C328 C 0.61972 0.45945 0.40107
 C329 C 0.58219 0.43338 0.41860
 C330 C 0.60490 0.38610 0.43513
 H331 H 0.54781 0.41019 0.34488
 H332 H 0.61711 0.45759 0.31182
 H333 H 0.59057 0.32296 0.37355
 H334 H 0.67071 0.41230 0.43810
 H335 H 0.62798 0.49943 0.40941
 H336 H 0.60106 0.36560 0.47138
 C337 C 0.90999 -0.12662 -0.07658
 C338 C 0.86718 -0.11019 -0.08194
 C339 C 0.87038 -0.11678 -0.13972
 C340 C 0.91294 -0.13361 -0.13464
 C341 C 0.88292 -0.06097 -0.14546
 C342 C 0.88008 -0.05404 -0.08738
 C343 C 0.92251 -0.07085 -0.08242
 C344 C 0.92581 -0.07747 -0.14005
 H345 H 0.92132 -0.15346 -0.04793
 H346 H 0.84288 -0.12393 -0.05809
 H347 H 0.92717 -0.16638 -0.15346
 H348 H 0.87162 -0.03414 -0.17412
 H349 H 0.86689 -0.02111 -0.06751
 H350 H 0.95026 -0.06371 -0.16362
 C351 C 0.42599 0.38665 0.38365
 C352 C 0.38795 0.36393 0.40490
 C353 C 0.36526 0.38951 0.36192
 C354 C 0.40298 0.41196 0.34027
 C355 C 0.35907 0.43733 0.39474
 C356 C 0.38206 0.41201 0.43805
 C357 C 0.41970 0.43435 0.41636
 C358 C 0.39711 0.46000 0.37339
 H359 H 0.45385 0.36610 0.37941
 H360 H 0.38387 0.32413 0.41761
 H361 H 0.41135 0.41185 0.29974
 H362 H 0.33173 0.45889 0.39954
 H363 H 0.37378 0.41223 0.47861
 H364 H 0.40113 0.49978 0.36060
 C365 C 0.07581 0.61454 -0.11449
 C366 C 0.11419 0.63626 -0.09296
 C367 C 0.13630 0.61141 -0.13709
 C368 C 0.09823 0.58997 -0.15902
 C369 C 0.14242 0.56269 -0.10600
 C370 C 0.11997 0.58729 -0.06154
 C371 C 0.08198 0.56598 -0.08349
 C372 C 0.10399 0.54108 -0.12761
 H373 H 0.04808 0.63555 -0.11765
 H374 H 0.11866 0.67568 -0.07889
 H375 H 0.08944 0.59107 -0.19939
 H376 H 0.16949 0.54040 -0.10217
 H377 H 0.12857 0.58595 -0.02111
 H378 H 0.09953 0.50167 -0.14167
 C379 C 0.57475 1.07909 0.36171
 C380 C 0.58745 1.13522 0.36800
 C381 C 0.63002 1.11878 0.36205
 C382 C 0.61762 1.06293 0.35548
 C383 C 0.63372 1.11169 0.41964
 C384 C 0.59089 1.12779 0.42588
 C385 C 0.57855 1.07198 0.41917
 C386 C 0.62099 1.05551 0.41335
 H387 H 0.55016 1.06538 0.33819
 H388 H 0.57322 1.16812 0.34972
 H389 H 0.62882 1.03649 0.32615
 H390 H 0.65821 1.12541 0.44332
 H391 H 0.57970 1.15431 0.45517
 H392 H 0.63448 1.02252 0.43243
 C393 C 0.09029 0.37136 0.07193
 C394 C 0.13331 0.38713 0.07785
 C395 C 0.12985 0.38007 0.13547
 C396 C 0.08710 0.36395 0.12985
 C397 C 0.11802 0.43600 0.14214
 C398 C 0.12116 0.44340 0.08426
 C399 C 0.07853 0.42727 0.07876
 C400 C 0.07497 0.42019 0.13625
 H401 H 0.07869 0.34496 0.04272
 H402 H 0.15755 0.37323 0.05399
 H403 H 0.07266 0.33116 0.14826
 H404 H 0.12963 0.46236 0.17139
 H405 H 0.13487 0.47630 0.06509
 H406 H 0.05063 0.43408 0.15995
 C407 C 0.57589 0.92497 0.64023
 C408 C 0.58842 0.86891 0.63362
 C409 C 0.63108 0.88557 0.63888
 C410 C 0.61886 0.94134 0.64577
 C411 C 0.63417 0.89279 0.58124
 C412 C 0.59126 0.87646 0.57571
 C413 C 0.57908 0.93219 0.58273
 C414 C 0.62161 0.94889 0.58785
 H415 H 0.55158 0.93850 0.66420
 H416 H 0.57431 0.83590 0.65204
 H417 H 0.63044 0.96779 0.67496
 H418 H 0.65838 0.87926 0.55711
 H419 H 0.57972 0.84992 0.54657
 H420 H 0.63496 0.98201 0.56861
 C421 C 0.89704 0.04010 0.12508
 C422 C 0.90296 0.08828 0.15803
 C423 C 0.86549 0.11063 0.13587
 C424 C 0.85924 0.06266 0.10319
 C425 C 0.88856 0.13601 0.09302
 C426 C 0.92635 0.11338 0.11481
 C427 C 0.92001 0.06553 0.08224
 C428 C 0.88262 0.08778 0.06002
 H429 H 0.90077 0.00037 0.13810
 H430 H 0.91110 0.08857 0.19865
 H431 H 0.83181 0.04109 0.09819
 H432 H 0.88476 0.17575 0.08009
 H433 H 0.95428 0.13396 0.11928
 H434 H 0.87458 0.08736 0.01937
 C435 C 0.39704 0.54206 0.62444
 C436 C 0.40318 0.59000 0.65767
 C437 C 0.36561 0.61257 0.63601
 C438 C 0.35914 0.56483 0.60306
 C439 C 0.38847 0.63822 0.59313
 C440 C 0.42636 0.61538 0.61441
 C441 C 0.41979 0.56777 0.58157
 C442 C 0.38231 0.59023 0.55986
 H443 H 0.40081 0.50224 0.63714
 H444 H 0.41154 0.59001 0.69821
 H445 H 0.33169 0.54331 0.59811
 H446 H 0.38463 0.67806 0.58051
 H447 H 0.45434 0.63587 0.61875
 H448 H 0.37405 0.59011 0.51928
   
