data_POSCAR
  _audit_creation_date              2014-09-24
  _audit_creation_method            'ToBaCCo'
  _symmetry_space_group_name_H-M    'P1'
  _symmetry_Int_Tables_number       1
  _symmetry_cell_setting            triclinic
  loop_
  _symmetry_equiv_pos_as_xyz
 x,y,z
_cell_length_a 43.9908
_cell_length_b 43.9769
_cell_length_c 43.9780
_cell_angle_alpha 89.993100
_cell_angle_beta 90.007600
_cell_angle_gamma 89.953600
loop_
  _atom_site_label
  _atom_site_type_symbol
  _atom_site_fract_x
  _atom_site_fract_y
  _atom_site_fract_z
C1 C 0.19358 0.15688 0.19165
 C2 C 0.18046 0.14462 0.21804
 C3 C 0.15403 0.15750 0.23112
 C4 C 0.14123 0.18335 0.21686
 C5 C 0.15412 0.19578 0.19048
 C6 C 0.18032 0.18245 0.17776
 C7 C 0.21953 0.14352 0.17873
 C8 C 0.23280 0.15529 0.15188
 C9 C 0.21916 0.18115 0.13844
 C10 C 0.19318 0.19464 0.15109
 C11 C 0.17992 0.22026 0.13745
 C12 C 0.15382 0.23379 0.15001
 C13 C 0.14110 0.22140 0.17659
 H14 H 0.19037 0.12413 0.22739
 H15 H 0.12181 0.19481 0.22671
 H16 H 0.22840 0.12306 0.18915
 H17 H 0.22920 0.19178 0.11865
 H18 H 0.19008 0.22987 0.11715
 H19 H 0.12071 0.23140 0.18617
 C20 C -0.19030 0.84647 0.19637
 C21 C -0.17646 0.85949 0.22201
 C22 C -0.14966 0.84697 0.23472
 C23 C -0.13726 0.82072 0.22087
 C24 C -0.15093 0.80748 0.19529
 C25 C -0.17758 0.82036 0.18303
 C26 C -0.21667 0.85942 0.18385
 C27 C -0.23091 0.84667 0.15797
 C28 C -0.21781 0.82025 0.14508
 C29 C -0.19144 0.80715 0.15736
 C30 C -0.17849 0.78120 0.14403
 C31 C -0.15190 0.76818 0.15610
 C32 C -0.13833 0.78144 0.18182
 H33 H -0.18607 0.88027 0.23101
 H34 H -0.11753 0.80957 0.23047
 H35 H -0.22656 0.87884 0.19529
 H36 H -0.22711 0.81035 0.12457
 H37 H -0.18887 0.77137 0.12396
 H38 H -0.11803 0.77133 0.19150
 C39 C -0.19574 0.15101 -0.19330
 C40 C -0.18214 0.13836 -0.21925
 C41 C -0.15634 0.15186 -0.23241
 C42 C -0.14427 0.17844 -0.21938
 C43 C -0.15768 0.19141 -0.19351
 C44 C -0.18352 0.17765 -0.18042
 C45 C -0.22139 0.13740 -0.18014
 C46 C -0.23535 0.14986 -0.15396
 C47 C -0.22271 0.17667 -0.14144
 C48 C -0.19705 0.19047 -0.15439
 C49 C -0.18454 0.21681 -0.14144
 C50 C -0.15870 0.23059 -0.15423
 C51 C -0.14545 0.21775 -0.18035
 H52 H -0.19180 0.11807 -0.22937
 H53 H -0.12413 0.18877 -0.22910
 H54 H -0.23095 0.11766 -0.19128
 H55 H -0.23177 0.18634 -0.12072
 H56 H -0.19512 0.22679 -0.12154
 H57 H -0.12529 0.22797 -0.19014
 C58 C 0.19439 0.84566 -0.19246
 C59 C 0.18225 0.85963 -0.21846
 C60 C 0.15605 0.84794 -0.23302
 C61 C 0.14244 0.82156 -0.22060
 C62 C 0.15434 0.80744 -0.19458
 C63 C 0.18040 0.81950 -0.18045
 C64 C 0.22038 0.85755 -0.17828
 C65 C 0.23247 0.84374 -0.15208
 C66 C 0.21832 0.81765 -0.14022
 C67 C 0.19241 0.80546 -0.15421
 C68 C 0.17823 0.77952 -0.14228
 C69 C 0.15209 0.76742 -0.15614
 C70 C 0.14033 0.78153 -0.18232
 H71 H 0.19419 0.87899 -0.22781
 H72 H 0.12167 0.81249 -0.23013
 H73 H 0.23089 0.87792 -0.18731
 H74 H 0.22769 0.80664 -0.12025
 H75 H 0.18722 0.76905 -0.12185
 H76 H 0.12042 0.77212 -0.19336
 C77 C 0.15696 1.19377 0.80831
 C78 C 0.14470 1.18059 0.78195
 C79 C 0.15757 1.15411 0.76893
 C80 C 0.18340 1.14133 0.78323
 C81 C 0.19583 1.15428 0.80959
 C82 C 0.18251 1.18053 0.82223
 C83 C 0.14361 1.21977 0.82117
 C84 C 0.15538 1.23311 0.84798
 C85 C 0.18122 1.21948 0.86147
 C86 C 0.19470 1.19346 0.84887
 C87 C 0.22031 1.18022 0.86256
 C88 C 0.23382 1.15407 0.85006
 C89 C 0.22143 1.14129 0.82351
 H90 H 0.12422 1.19049 0.77256
 H91 H 0.19485 1.12188 0.77343
 H92 H 0.12317 1.22862 0.81071
 H93 H 0.19185 1.22956 0.88123
 H94 H 0.22992 1.19042 0.88283
 H95 H 0.23142 1.12086 0.81398
 C96 C 0.84616 0.80966 0.80362
 C97 C 0.85921 0.82348 0.77799
 C98 C 0.84678 0.85030 0.76526
 C99 C 0.82055 0.86278 0.77910
 C100 C 0.80727 0.84913 0.80467
 C101 C 0.82007 0.82245 0.81694
 C102 C 0.85904 0.78327 0.81616
 C103 C 0.84625 0.76906 0.84204
 C104 C 0.81986 0.78222 0.85490
 C105 C 0.80682 0.80862 0.84261
 C106 C 0.78090 0.82163 0.85591
 C107 C 0.76795 0.84826 0.84384
 C108 C 0.78126 0.86181 0.81813
 H109 H 0.87998 0.81380 0.76901
 H110 H 0.80946 0.88254 0.76948
 H111 H 0.87843 0.77333 0.80473
 H112 H 0.80993 0.77294 0.87541
 H113 H 0.77104 0.81127 0.87599
 H114 H 0.77120 0.88213 0.80843
 C115 C 0.15119 0.80427 1.19302
 C116 C 0.13858 0.81782 1.21901
 C117 C 0.15214 0.84358 1.23223
 C118 C 0.17873 0.85563 1.21922
 C119 C 0.19164 0.84227 1.19330
 C120 C 0.17783 0.81648 1.18015
 C121 C 0.13753 0.77867 1.17981
 C122 C 0.14993 0.76475 1.15358
 C123 C 0.17675 0.77738 1.14107
 C124 C 0.19061 0.80299 1.15408
 C125 C 0.21695 0.81548 1.14115
 C126 C 0.23079 0.84128 1.15400
 C127 C 0.21800 0.85448 1.18016
 H128 H 0.11829 0.80818 1.22912
 H129 H 0.18910 0.87574 1.22899
 H130 H 0.11779 0.76912 1.19094
 H131 H 0.18639 0.76834 1.12032
 H132 H 0.22690 0.80494 1.12121
 H133 H 0.22826 0.87461 1.19000
 C134 C 0.84586 1.19391 1.19293
 C135 C 0.85970 1.18149 1.21886
 C136 C 0.84801 1.15507 1.23302
 C137 C 0.82168 1.14161 1.22035
 C138 C 0.80765 1.15383 1.19444
 C139 C 0.81974 1.18008 1.18067
 C140 C 0.85801 1.21985 1.17888
 C141 C 0.84435 1.23222 1.15273
 C142 C 0.81814 1.21838 1.14078
 C143 C 0.80576 1.19242 1.15455
 C144 C 0.77981 1.17843 1.14242
 C145 C 0.76758 1.15222 1.15604
 C146 C 0.78161 1.14015 1.18212
 H147 H 0.88047 1.19190 1.22695
 H148 H 0.81113 1.12217 1.23109
 H149 H 0.87798 1.23062 1.18848
 H150 H 0.80767 1.22751 1.12041
 H151 H 0.76941 1.18766 1.12206
 H152 H 0.77211 1.12016 1.19296
 O153 O 0.45718 1.05197 1.05646
 O154 O 0.42386 1.02255 1.02904
 C155 C 0.42999 1.04378 1.04849
 O156 O 0.54246 1.04910 0.94794
 O157 O 0.57596 1.02166 0.97721
 C158 C 0.56970 1.04116 0.95604
 O159 O 0.45703 1.05182 0.95094
 O160 O 0.42378 1.02249 0.97855
 C161 C 0.42987 1.04364 0.95898
 O162 O 0.54263 1.04934 1.05921
 O163 O 0.57602 1.02177 1.02996
 C164 C 0.56984 1.04139 1.05103
 Zr165 Zr 0.49993 1.03476 1.04218
 O166 O 0.50322 1.08279 1.04219
 O167 O 0.49654 1.03444 1.09020
 Zr168 Zr 0.49982 1.03470 0.96522
 O169 O 0.50315 1.08272 0.96529
 O170 O 0.49627 1.03450 0.91721
 O171 O 0.47278 1.04063 1.00373
 O172 O 0.52623 1.04034 1.00365
 O173 O 0.54295 0.94362 1.05943
 O174 O 0.57618 0.97121 1.03005
 C175 C 0.57012 0.95168 1.05124
 O176 O 0.45734 0.94053 0.95094
 O177 O 0.42395 0.96973 0.97855
 C178 C 0.43013 0.94864 0.95896
 O179 O 0.54278 0.94359 0.94798
 O180 O 0.57610 0.97118 0.97725
 C181 C 0.56997 0.95167 0.95606
 O182 O 0.45747 0.94054 1.05664
 O183 O 0.42401 0.96976 1.02910
 C184 C 0.43024 0.94862 1.04865
 Zr185 Zr 0.50015 0.95783 1.04225
 O186 O 0.50375 0.90982 1.04215
 O187 O 0.49675 0.95801 1.09027
 Zr188 Zr 0.50004 0.95774 0.96532
 O189 O 0.50364 0.90973 0.96573
 O190 O 0.49653 0.95761 0.91731
 Zr191 Zr 0.45482 0.99618 1.00379
 Zr192 Zr 0.54515 0.99636 1.00367
 O193 O 0.52651 0.95230 1.00375
 O194 O 0.47301 0.95180 1.00382
 O195 O 0.52714 0.99636 1.04811
 O196 O 0.47354 0.99617 0.95976
 O197 O 0.47364 0.99625 1.04779
 O198 O 0.52699 0.99627 0.95929
 H199 H 0.53997 1.05818 1.00359
 H200 H 0.45972 0.99614 0.94196
 H201 H 0.54039 0.93455 1.00374
 H202 H 0.45984 0.99625 1.06559
 H203 H 0.51334 1.02223 0.90923
 H204 H 0.51322 0.97035 0.90930
 H205 H 0.48641 0.90177 0.97778
 H206 H 0.48679 0.90182 1.02975
 H207 H 0.51368 0.97050 1.09819
 H208 H 0.51386 1.02247 1.09813
 H209 H 0.48642 1.09072 1.02952
 H210 H 0.48613 1.09068 0.97764
 O211 O 0.05181 0.45756 -0.05670
 O212 O 0.02247 0.42413 -0.02941
 C213 C 0.04370 0.43034 -0.04882
 O214 O 0.04876 0.54256 0.05196
 O215 O 0.02129 0.57605 0.02269
 C216 C 0.04082 0.56981 0.04384
 O217 O 0.05148 0.45703 0.04904
 O218 O 0.02223 0.42365 0.02148
 C219 C 0.04336 0.42982 0.04103
 O220 O 0.04879 0.54273 -0.05926
 O221 O 0.02120 0.57610 -0.03004
 C222 C 0.04080 0.56994 -0.05112
 Zr223 Zr 0.03430 0.50003 -0.04216
 O224 O 0.08230 0.50345 -0.04222
 O225 O 0.03380 0.49664 -0.09019
 Zr226 Zr 0.03440 0.49985 0.03473
 O227 O 0.08241 0.50323 0.03449
 O228 O 0.03439 0.49636 0.08275
 O229 O 0.04027 0.47279 -0.00375
 O230 O 0.03993 0.52633 -0.00368
 O231 O -0.05683 0.54283 -0.05934
 O232 O -0.02933 0.57617 -0.02998
 C233 C -0.04884 0.57004 -0.05117
 O234 O -0.05986 0.45761 0.04942
 O235 O -0.03064 0.42415 0.02197
 C236 C -0.05174 0.43038 0.04153
 O237 O -0.05672 0.54281 0.05206
 O238 O -0.02919 0.57615 0.02278
 C239 C -0.04867 0.57001 0.04397
 O240 O -0.05972 0.45725 -0.05651
 O241 O -0.03048 0.42377 -0.02897
 C242 C -0.05161 0.43001 -0.04852
 Zr243 Zr -0.04257 0.50002 -0.04214
 O244 O -0.09057 0.50354 -0.04186
 O245 O -0.04259 0.49661 -0.09016
 Zr246 Zr -0.04250 0.50008 0.03472
 O247 O -0.09050 0.50366 0.03437
 O248 O -0.04243 0.49665 0.08274
 Zr249 Zr -0.00411 0.45465 -0.00373
 Zr250 Zr -0.00405 0.54518 -0.00367
 O251 O -0.04806 0.52649 -0.00370
 O252 O -0.04848 0.47290 -0.00370
 O253 O -0.00413 0.52714 -0.04809
 O254 O -0.00408 0.47354 0.04025
 O255 O -0.00413 0.47358 -0.04770
 O256 O -0.00401 0.52705 0.04072
 H257 H 0.05775 0.54009 -0.00368
 H258 H -0.00406 0.45980 0.05811
 H259 H -0.06584 0.54034 -0.00366
 H260 H -0.00413 0.45983 -0.06554
 H261 H 0.02202 0.51335 0.09075
 H262 H -0.02983 0.51347 0.09071
 H263 H -0.09845 0.48655 0.02215
 H264 H -0.09853 0.48633 -0.02978
 H265 H -0.03003 0.51347 -0.09812
 H266 H 0.02189 0.51401 -0.09810
 H267 H 0.09028 0.48683 -0.02934
 H268 H 0.09036 0.48595 0.02248
 O269 O 0.95117 0.05927 0.45731
 O270 O 0.97878 0.03003 0.42396
 C271 C 0.95916 0.05112 0.43011
 O272 O 1.05970 0.05650 0.54281
 O273 O 1.03044 0.02893 0.57616
 C274 C 1.05156 0.04849 0.57002
 O275 O 1.05685 0.05935 0.45731
 O276 O 1.02933 0.03005 0.42396
 C277 C 1.04885 0.05119 0.43010
 O278 O 0.94831 0.05637 0.54279
 O279 O 0.97767 0.02888 0.57617
 C280 C 0.95644 0.04835 0.57000
 Zr281 Zr 0.96562 0.04216 0.50005
 O282 O 0.96594 0.09018 0.50352
 O283 O 0.91762 0.04224 0.49660
 Zr284 Zr 1.04253 0.04214 0.50006
 O285 O 1.04236 0.09016 0.50350
 O286 O 1.09053 0.04197 0.49662
 O287 O 1.00407 0.04809 0.47295
 O288 O 1.00406 0.04769 0.52647
 O289 O 0.94848 -0.04914 0.54279
 O290 O 0.97773 -0.02160 0.57617
 C291 C 0.95660 -0.04115 0.57000
 O292 O 1.05683 -0.05209 0.45733
 O293 O 1.02932 -0.02275 0.42395
 C294 C 1.04881 -0.04396 0.43012
 O295 O 1.05974 -0.04921 0.54281
 O296 O 1.03048 -0.02162 0.57617
 C297 C 1.05159 -0.04121 0.57002
 O298 O 0.95131 -0.05198 0.45734
 O299 O 0.97883 -0.02272 0.42396
 C300 C 0.95929 -0.04384 0.43013
 Zr301 Zr 0.96567 -0.03480 0.50006
 O302 O 0.96590 -0.08282 0.50352
 O303 O 0.91767 -0.03470 0.49661
 Zr304 Zr 1.04260 -0.03479 0.50007
 O305 O 1.04269 -0.08281 0.50353
 O306 O 1.09060 -0.03447 0.49659
 Zr307 Zr 1.00409 0.00366 0.45488
 Zr308 Zr 1.00409 0.00366 0.54524
 O309 O 1.00414 -0.04035 0.52646
 O310 O 1.00413 -0.04075 0.47298
 O311 O 0.95970 0.00367 0.52714
 O312 O 1.04810 0.00367 0.47365
 O313 O 0.96010 0.00367 0.47367
 O314 O 1.04850 0.00367 0.52717
 H315 H 1.00403 0.06547 0.54029
 H316 H 1.06588 0.00365 0.45983
 H317 H 1.00414 -0.05816 0.54025
 H318 H 0.94228 0.00366 0.45989
 H319 H 1.09849 0.02960 0.51364
 H320 H 1.09854 -0.02237 0.51381
 H321 H 1.03001 -0.09078 0.48677
 H322 H 0.97813 -0.09078 0.48641
 H323 H 0.90969 -0.02234 0.51362
 H324 H 0.90965 0.02953 0.51335
 H325 H 0.97796 0.09812 0.48626
 H326 H 1.02992 0.09811 0.48653
 C327 C 1.09601 0.13530 0.28969
 C328 C 1.11373 0.11859 0.31007
 C329 C 1.14478 0.11495 0.30460
 C330 C 1.15812 0.12780 0.27878
 C331 C 1.14061 0.14471 0.25768
 C332 C 1.10921 0.14825 0.26385
 C333 C 1.09994 0.10477 0.33633
 C334 C 1.08832 0.09296 0.35816
 C335 C 1.07463 0.07880 0.38349
 C336 C 1.06289 0.06639 0.40491
 H337 H 1.07184 0.13801 0.29356
 H338 H 1.15879 0.10222 0.32040
 H339 H 1.18243 0.12523 0.27624
 H340 H 1.09419 0.15981 0.24818
 C341 C 0.90988 -0.12937 0.29115
 C342 C 0.89269 -0.11219 0.31158
 C343 C 0.86151 -0.10862 0.30680
 C344 C 0.84752 -0.12205 0.28164
 C345 C 0.86447 -0.13951 0.26054
 C346 C 0.89603 -0.14291 0.26596
 C347 C 0.90709 -0.09798 0.33730
 C348 C 0.91914 -0.08590 0.35874
 C349 C 0.93320 -0.07153 0.38374
 C350 C 0.94515 -0.05903 0.40499
 H351 H 0.93415 -0.13204 0.29449
 H352 H 0.84792 -0.09554 0.32266
 H353 H 0.82315 -0.11953 0.27967
 H354 H 0.91063 -0.15486 0.25021
 C355 C 0.88265 0.14340 0.69103
 C356 C 0.88627 0.11183 0.68922
 C357 C 0.87582 0.09333 0.71290
 C358 C 0.86186 0.10632 0.73833
 C359 C 0.85819 0.13804 0.74042
 C360 C 0.86871 0.15645 0.71645
 C361 C 0.90097 0.09842 0.66325
 C362 C 0.91343 0.08709 0.64162
 C363 C 0.92820 0.07372 0.61647
 C364 C 0.94099 0.06220 0.59515
 H365 H 0.89062 0.15793 0.67280
 H366 H 0.87861 0.06887 0.71179
 H367 H 0.85437 0.09159 0.75658
 H368 H 0.86588 0.18090 0.71724
 C369 C 1.11373 -0.13985 0.69382
 C370 C 1.11814 -0.10877 0.68911
 C371 C 1.13533 -0.09201 0.70986
 C372 C 1.14799 -0.10619 0.73535
 C373 C 1.14363 -0.13764 0.74077
 C374 C 1.12627 -0.15416 0.71928
 C375 C 1.10461 -0.09403 0.66320
 C376 C 1.09297 -0.08176 0.64162
 C377 C 1.07898 -0.06752 0.61650
 C378 C 1.06668 -0.05545 0.59518
 H379 H 1.10063 -0.15312 0.67772
 H380 H 1.13866 -0.06782 0.70656
 H381 H 1.15996 -0.09189 0.75135
 H382 H 1.12309 -0.17846 0.72122
 C383 C 0.30519 1.11072 1.14351
 C384 C 0.31063 1.11342 1.11234
 C385 C 0.29054 1.13007 1.09425
 C386 C 0.26504 1.14395 1.10718
 C387 C 0.25895 1.14143 1.13870
 C388 C 0.27971 1.12450 1.15658
 C389 C 0.33664 1.09883 1.09885
 C390 C 0.35828 1.08648 1.08745
 C391 C 0.38346 1.07183 1.07399
 C392 C 0.40481 1.05914 1.06240
 H393 H 0.32077 1.09805 1.15780
 H394 H 0.29439 1.13206 1.06999
 H395 H 0.24958 1.15545 1.09191
 H396 H 0.27722 1.12266 1.18097
 C397 C 0.28669 0.87134 0.90913
 C398 C 0.31100 0.88211 0.89167
 C399 C 0.30979 0.88011 0.85993
 C400 C 0.28434 0.86751 0.84568
 C401 C 0.25972 0.85673 0.86303
 C402 C 0.26122 0.85871 0.89493
 C403 C 0.33694 0.89566 0.90628
 C404 C 0.35854 0.90729 0.91847
 C405 C 0.38368 0.92126 0.93268
 C406 C 0.40499 0.93355 0.94473
 H407 H 0.28733 0.87290 0.93371
 H408 H 0.32850 0.88835 0.84620
 H409 H 0.28401 0.86595 0.82111
 H410 H 0.24248 0.85098 0.90888
 C411 C 0.71053 0.90475 1.13569
 C412 C 0.69021 0.88705 1.11893
 C413 C 0.69570 0.85599 1.11531
 C414 C 0.72150 0.84263 1.12821
 C415 C 0.74255 0.86012 1.14516
 C416 C 0.73635 0.89153 1.14870
 C417 C 0.66397 0.90085 1.10505
 C418 C 0.64215 0.91245 1.09316
 C419 C 0.61681 0.92606 1.07893
 C420 C 0.59536 0.93773 1.06647
 H421 H 0.70664 0.92893 1.13840
 H422 H 0.67994 0.84199 1.10255
 H423 H 0.72404 0.81831 1.12565
 H424 H 0.75198 0.90653 1.16030
 C425 C 0.70829 1.09033 0.86982
 C426 C 0.68785 1.10756 0.88695
 C427 C 0.69255 1.13876 0.89037
 C428 C 0.71768 1.15275 0.87687
 C429 C 0.73882 1.13575 0.85952
 C430 C 0.73344 1.10417 0.85622
 C431 C 0.66222 1.09318 0.90130
 C432 C 0.64085 1.08117 0.91352
 C433 C 0.61593 1.06717 0.92807
 C434 C 0.59476 1.05526 0.94071
 H435 H 0.70500 1.06605 0.86725
 H436 H 0.67668 1.15239 0.90340
 H437 H 0.71960 1.17713 0.87930
 H438 H 0.74922 1.08955 0.84432
 C439 C 0.12316 0.28720 0.08951
 C440 C 0.11231 0.31131 0.10722
 C441 C 0.11519 0.31021 0.13890
 C442 C 0.12878 0.28506 0.15283
 C443 C 0.13968 0.26067 0.13523
 C444 C 0.13677 0.26204 0.10339
 C445 C 0.09794 0.33701 0.09293
 C446 C 0.08573 0.35844 0.08097
 C447 C 0.07122 0.38343 0.06701
 C448 C 0.05862 0.40468 0.05512
 H449 H 0.12094 0.28777 0.06498
 H450 H 0.10691 0.32878 0.15282
 H451 H 0.13103 0.28483 0.17735
 H452 H 0.14458 0.24345 0.08926
 C453 C -0.12974 0.28629 -0.09502
 C454 C -0.11926 0.31012 -0.11331
 C455 C -0.12189 0.30811 -0.14496
 C456 C -0.13484 0.28233 -0.15830
 C457 C -0.14533 0.25819 -0.14011
 C458 C -0.14270 0.26050 -0.10830
 C459 C -0.10539 0.33638 -0.09959
 C460 C -0.09352 0.35819 -0.08801
 C461 C -0.07930 0.38349 -0.07435
 C462 C -0.06685 0.40487 -0.06260
 H463 H -0.12769 0.28754 -0.07050
 H464 H -0.11389 0.32645 -0.15933
 H465 H -0.13689 0.28138 -0.18282
 H466 H -0.15019 0.24213 -0.09372
 C467 C 0.13996 0.69017 -0.11956
 C468 C 0.10823 0.68901 -0.11766
 C469 C 0.09081 0.71331 -0.12857
 C470 C 0.10504 0.73874 -0.14123
 C471 C 0.13694 0.74021 -0.14312
 C472 C 0.15425 0.71559 -0.13220
 C473 C 0.09358 0.66310 -0.10407
 C474 C 0.08136 0.64152 -0.09243
 C475 C 0.06713 0.61640 -0.07845
 C476 C 0.05506 0.59510 -0.06617
 H477 H 0.15367 0.67147 -0.11122
 H478 H 0.06623 0.71270 -0.12708
 H479 H 0.09112 0.75749 -0.14907
 H480 H 0.17882 0.71589 -0.13368
 C481 C -0.09349 0.71323 0.12413
 C482 C -0.11202 0.68952 0.11382
 C483 C -0.14357 0.69140 0.11747
 C484 C -0.15657 0.71692 0.13130
 C485 C -0.13813 0.74091 0.14167
 C486 C -0.10643 0.73875 0.13798
 C487 C -0.09866 0.66345 0.09923
 C488 C -0.08736 0.64176 0.08685
 C489 C -0.07401 0.61654 0.07215
 C490 C -0.06251 0.59518 0.05941
 H491 H -0.06905 0.71206 0.12131
 H492 H -0.15813 0.67315 0.10962
 H493 H -0.18100 0.71776 0.13416
 H494 H -0.09168 0.75702 0.14535
 C495 C 1.11508 0.14470 0.69544
 C496 C 1.11873 0.11362 0.69005
 C497 C 1.13541 0.09594 0.71048
 C498 C 1.14833 0.10920 0.73631
 C499 C 1.14479 0.14063 0.74240
 C500 C 1.12790 0.15810 0.72125
 C501 C 1.10496 0.09977 0.66379
 C502 C 1.09319 0.08810 0.64197
 C503 C 1.07908 0.07436 0.61663
 C504 C 1.06671 0.06257 0.59521
 H505 H 1.10238 0.15867 0.67960
 H506 H 1.13813 0.07175 0.70667
 H507 H 1.15987 0.09421 0.75202
 H508 H 1.12533 0.18242 0.72373
 C509 C 0.89129 -0.13867 0.69323
 C510 C 0.88783 -0.10747 0.68845
 C511 C 0.87067 -0.09022 0.70884
 C512 C 0.85705 -0.10403 0.73401
 C513 C 0.86035 -0.13561 0.73945
 C514 C 0.87777 -0.15262 0.71838
 C515 C 0.90216 -0.09312 0.66277
 C516 C 0.91432 -0.08113 0.64134
 C517 C 0.92879 -0.06714 0.61636
 C518 C 0.94136 -0.05524 0.59513
 H519 H 0.90435 -0.15232 0.67741
 H520 H 0.86808 -0.06594 0.70549
 H521 H 0.84511 -0.08939 0.74974
 H522 H 0.88021 -0.17701 0.72035
 C523 C 1.14378 -0.11761 0.30891
 C524 C 1.11223 -0.11396 0.31075
 C525 C 1.09371 -0.12432 0.28705
 C526 C 1.10666 -0.13823 0.26157
 C527 C 1.13836 -0.14193 0.25945
 C528 C 1.15679 -0.13150 0.28344
 C529 C 1.09886 -0.09930 0.33678
 C530 C 1.08755 -0.08689 0.35844
 C531 C 1.07418 -0.07216 0.38362
 C532 C 1.06266 -0.05939 0.40496
 H533 H 1.15833 -0.10972 0.32715
 H534 H 1.06926 -0.12149 0.28819
 H535 H 1.09191 -0.14564 0.24331
 H536 H 1.18123 -0.13436 0.28263
 C537 C 0.89428 0.14766 0.30446
 C538 C 0.89133 0.11666 0.31064
 C539 C 0.87403 0.09836 0.29133
 C540 C 0.85972 0.11092 0.26589
 C541 C 0.86241 0.14228 0.25907
 C542 C 0.88006 0.16037 0.27901
 C543 C 0.90613 0.10349 0.33669
 C544 C 0.91845 0.09210 0.35837
 C545 C 0.93275 0.07831 0.38358
 C546 C 0.94487 0.06613 0.40493
 H547 H 0.90745 0.16212 0.31944
 H548 H 0.87182 0.07422 0.29576
 H549 H 0.84769 0.09547 0.25104
 H550 H 0.88212 0.18467 0.27594
 C551 C 0.11081 0.30554 -0.14381
 C552 C 0.11350 0.31104 -0.11266
 C553 C 0.13015 0.29100 -0.09452
 C554 C 0.14404 0.26547 -0.10739
 C555 C 0.14153 0.25930 -0.13890
 C556 C 0.12460 0.28002 -0.15683
 C557 C 0.09889 0.33707 -0.09922
 C558 C 0.08652 0.35873 -0.08784
 C559 C 0.07183 0.38390 -0.07439
 C560 C 0.05911 0.40522 -0.06278
 H561 H 0.09814 0.32109 -0.15814
 H562 H 0.13214 0.29490 -0.07027
 H563 H 0.15554 0.25004 -0.09209
 H564 H 0.12276 0.27748 -0.18121
 C565 C -0.09812 0.28758 0.12010
 C566 C -0.11702 0.31073 0.10915
 C567 C -0.14856 0.30830 0.11248
 C568 C -0.16117 0.28280 0.12667
 C569 C -0.14235 0.25940 0.13775
 C570 C -0.11067 0.26208 0.13430
 C571 C -0.10394 0.33690 0.09450
 C572 C -0.09262 0.35865 0.08226
 C573 C -0.07890 0.38390 0.06800
 C574 C -0.06675 0.40526 0.05588
 H575 H -0.07367 0.28918 0.11756
 H576 H -0.16340 0.32613 0.10415
 H577 H -0.18561 0.28154 0.12930
 H578 H -0.09561 0.24427 0.14221
 C579 C -0.14457 0.69564 -0.11527
 C580 C -0.11353 0.69010 -0.11888
 C581 C -0.09579 0.71040 -0.13564
 C582 C -0.10896 0.73624 -0.14866
 C583 C -0.14036 0.74249 -0.14513
 C584 C -0.15788 0.72147 -0.12818
 C585 C -0.09977 0.66384 -0.10499
 C586 C -0.08819 0.64202 -0.09310
 C587 C -0.07456 0.61668 -0.07886
 C588 C -0.06285 0.59525 -0.06640
 H589 H -0.15859 0.67991 -0.10251
 H590 H -0.07162 0.70647 -0.13834
 H591 H -0.09394 0.75185 -0.16025
 H592 H -0.18219 0.72406 -0.12563
 C593 C 0.09031 0.70849 0.12980
 C594 C 0.10748 0.68803 0.11264
 C595 C 0.13867 0.69271 0.10915
 C596 C 0.15270 0.71782 0.12264
 C597 C 0.13577 0.73896 0.14006
 C598 C 0.10420 0.73362 0.14340
 C599 C 0.09304 0.66239 0.09833
 C600 C 0.08098 0.64101 0.08616
 C601 C 0.06692 0.61608 0.07168
 C602 C 0.05496 0.59489 0.05910
 H603 H 0.06603 0.70522 0.13242
 H604 H 0.15225 0.67683 0.09608
 H605 H 0.17707 0.71972 0.12017
 H606 H 0.08962 0.74941 0.15533
 C607 C 0.31020 1.11540 0.86123
 C608 C 0.31130 1.11258 0.89290
 C609 C 0.28722 1.12349 0.91061
 C610 C 0.26208 1.13711 0.89671
 C611 C 0.26069 1.13996 0.86486
 C612 C 0.28507 1.12900 0.84727
 C613 C 0.33699 1.09819 0.90721
 C614 C 0.35842 1.08598 0.91916
 C615 C 0.38342 1.07146 0.93309
 C616 C 0.40469 1.05888 0.94494
 H617 H 0.32875 1.10708 0.84731
 H618 H 0.28780 1.12131 0.93514
 H619 H 0.24350 1.14496 0.91083
 H620 H 0.28483 1.13120 0.82275
 C621 C 0.28652 0.87034 1.09487
 C622 C 0.31035 0.88074 1.11319
 C623 C 0.30835 0.87801 1.14484
 C624 C 0.28256 0.86505 1.15814
 C625 C 0.25841 0.85463 1.13992
 C626 C 0.26073 0.85735 1.10812
 C627 C 0.33661 0.89466 1.09953
 C628 C 0.35842 0.90657 1.08800
 C629 C 0.38373 0.92084 1.07439
 C630 C 0.40511 0.93334 1.06269
 H631 H 0.28778 0.87246 1.07036
 H632 H 0.32668 0.88596 1.15923
 H633 H 0.28160 0.86293 1.18265
 H634 H 0.24236 0.84992 1.09351
 C635 C 0.69032 1.14057 1.11934
 C636 C 0.68905 1.10884 1.11725
 C637 C 0.71332 1.09128 1.12800
 C638 C 0.73880 1.10536 1.14073
 C639 C 0.74035 1.13725 1.14284
 C640 C 0.71579 1.15471 1.13204
 C641 C 0.66307 1.09431 1.10370
 C642 C 0.64145 1.08212 1.09210
 C643 C 0.61630 1.06787 1.07820
 C644 C 0.59498 1.05574 1.06600
 H645 H 0.67164 1.15438 1.11112
 H646 H 0.71263 1.06670 1.12637
 H647 H 0.75751 1.09133 1.14845
 H648 H 0.71617 1.17927 1.13369
 C649 C 0.71311 0.90678 0.87581
 C650 C 0.68939 0.88828 0.88611
 C651 C 0.69120 0.85672 0.88244
 C652 C 0.71669 0.84368 0.86861
 C653 C 0.74071 0.86208 0.85824
 C654 C 0.73861 0.89379 0.86195
 C655 C 0.66335 0.90168 0.90073
 C656 C 0.64169 0.91299 0.91314
 C657 C 0.61649 0.92635 0.92786
 C658 C 0.59514 0.93785 0.94062
 H659 H 0.71199 0.93123 0.87864
 H660 H 0.67294 0.84219 0.89029
 H661 H 0.71748 0.81924 0.86574
 H662 H 0.75689 0.90852 0.85458
   
