data_POSCAR
  _audit_creation_date              2014-09-24
  _audit_creation_method            'ToBaCCo'
  _symmetry_space_group_name_H-M    'P1'
  _symmetry_Int_Tables_number       1
  _symmetry_cell_setting            triclinic
  loop_
  _symmetry_equiv_pos_as_xyz
 x,y,z
_cell_length_a 23.4797
_cell_length_b 23.3166
_cell_length_c 27.0926
_cell_angle_alpha 89.856900
_cell_angle_beta 89.898500
_cell_angle_gamma 89.879400
loop_
  _atom_site_label
  _atom_site_type_symbol
  _atom_site_fract_x
  _atom_site_fract_y
  _atom_site_fract_z
B1 B 0.28120 0.22823 0.29847
 B2 B 0.21379 0.20917 0.28564
 B3 B 0.22758 0.27792 0.29916
 B4 B 0.29227 0.29477 0.27461
 B5 B 0.31632 0.23523 0.24500
 B6 B 0.26743 0.18210 0.25231
 B7 B 0.21776 0.26810 0.19971
 B8 B 0.28513 0.28744 0.21249
 B9 B 0.27057 0.21854 0.19941
 B10 B 0.20619 0.20201 0.22382
 B11 B 0.18208 0.26159 0.25316
 B12 B 0.23099 0.31491 0.24590
 B13 B 0.72888 0.77981 0.19766
 B14 B 0.71323 0.71142 0.21171
 B15 B 0.78065 0.72897 0.19692
 B16 B 0.79426 0.79487 0.22001
 B17 B 0.73444 0.81648 0.25013
 B18 B 0.68413 0.76452 0.24466
 B19 B 0.77355 0.71990 0.29653
 B20 B 0.78850 0.78823 0.28181
 B21 B 0.72125 0.77093 0.29714
 B22 B 0.70777 0.70453 0.27404
 B23 B 0.76760 0.68278 0.24382
 B24 B 0.81791 0.73488 0.24928
 B25 B 0.73305 0.21325 -0.19909
 B26 B 0.71690 0.28165 -0.21299
 B27 B 0.78484 0.26378 -0.19978
 B28 B 0.79801 0.19756 -0.22341
 B29 B 0.73734 0.17635 -0.25162
 B30 B 0.68704 0.22851 -0.24510
 B31 B 0.77477 0.27305 -0.29922
 B32 B 0.79008 0.20401 -0.28558
 B33 B 0.72243 0.22191 -0.29835
 B34 B 0.70975 0.28838 -0.27501
 B35 B 0.77043 0.30975 -0.24626
 B36 B 0.82075 0.25739 -0.25333
 B37 B 0.27004 0.77920 -0.29652
 B38 B 0.20265 0.79504 -0.27977
 B39 B 0.21919 0.72721 -0.29564
 B40 B 0.28577 0.71266 -0.27449
 B41 B 0.30875 0.77241 -0.24483
 B42 B 0.25710 0.82362 -0.24875
 B43 B 0.21456 0.73387 -0.19574
 B44 B 0.28192 0.71787 -0.21205
 B45 B 0.26518 0.78578 -0.19675
 B46 B 0.19869 0.80004 -0.21767
 B47 B 0.17558 0.74020 -0.24740
 B48 B 0.22730 0.68904 -0.24352
 B49 B 1.23148 1.28234 0.69809
 B50 B 1.21515 1.21411 0.71315
 B51 B 1.28246 1.23076 0.69685
 B52 B 1.29775 1.29661 0.71916
 B53 B 1.23911 1.31952 0.75016
 B54 B 1.18775 1.26827 0.74598
 B55 B 1.27762 1.22266 0.79661
 B56 B 1.29353 1.29072 0.78115
 B57 B 1.22630 1.27471 0.79775
 B58 B 1.21116 1.20824 0.77549
 B59 B 1.26994 1.18515 0.74433
 B60 B 1.32120 1.23647 0.74851
 B61 B 0.77861 0.72822 0.79945
 B62 B 0.71127 0.71388 0.78213
 B63 B 0.72821 0.78124 0.79875
 B64 B 0.79528 0.79505 0.77848
 B65 B 0.81806 0.73548 0.74811
 B66 B 0.76568 0.68512 0.75103
 B67 B 0.72506 0.77634 0.69873
 B68 B 0.79233 0.79119 0.71597
 B69 B 0.77484 0.72372 0.69966
 B70 B 0.70803 0.71004 0.71993
 B71 B 0.68524 0.76971 0.75003
 B72 B 0.73752 0.82022 0.74713
 B73 B 1.23078 0.71575 0.30013
 B74 B 1.21173 0.78301 0.28413
 B75 B 1.27939 0.76949 0.30119
 B76 B 1.29783 0.70375 0.27953
 B77 B 1.24054 0.67805 0.24850
 B78 B 1.18710 0.72735 0.25190
 B79 B 1.27535 0.77575 0.20120
 B80 B 1.29395 0.70847 0.21731
 B81 B 1.22618 0.72171 0.20038
 B82 B 1.20821 0.78782 0.22184
 B83 B 1.26556 0.81368 0.25307
 B84 B 1.31901 0.76431 0.24967
 B85 B 0.77323 1.27573 0.20461
 B86 B 0.70540 1.29102 0.22014
 B87 B 0.72285 1.22288 0.20576
 B88 B 0.78931 1.20975 0.22792
 B89 B 0.81113 1.27045 0.25691
 B90 B 0.75892 1.32095 0.25154
 B91 B 0.71655 1.23190 0.30548
 B92 B 0.78427 1.21622 0.29024
 B93 B 0.76657 1.28434 0.30423
 B94 B 0.70025 1.29743 0.28219
 B95 B 0.67835 1.23663 0.25326
 B96 B 0.73055 1.18613 0.25861
 O97 O 0.43847 1.10736 0.03971
 O98 O 0.56134 0.89287 0.03927
 O99 O 0.38699 0.93352 0.02782
 O100 O 0.61308 1.06688 0.03031
 O101 O 0.46258 0.90157 0.05955
 O102 O 0.53686 1.09725 0.06181
 O103 O 0.59738 0.97201 0.06389
 O104 O 0.40072 1.02802 0.06248
 C105 C 0.40568 1.08037 0.06783
 C106 C 0.59306 0.91947 0.06829
 C107 C 0.41000 0.90662 0.06138
 C108 C 0.58948 1.09264 0.06423
 O109 O 0.56452 1.10673 -0.03690
 O110 O 0.43740 0.89464 -0.03929
 O111 O 0.38916 1.06963 -0.02776
 O112 O 0.61251 0.93200 -0.02646
 O113 O 0.53693 0.90294 -0.05974
 O114 O 0.46578 1.09965 -0.05895
 O115 O 0.59963 1.02667 -0.06044
 O116 O 0.40121 0.97465 -0.06231
 Co117 Co 0.50133 1.09315 0.00135
 Co118 Co 0.49966 0.90763 -0.00004
 Co119 Co 0.40614 1.00136 0.00013
 Co120 Co 0.59383 0.99956 0.00171
 O121 O 0.50018 1.00042 0.00076
 C122 C 0.59633 1.07916 -0.06541
 C123 C 0.40492 0.92209 -0.06737
 C124 C 0.41317 1.09520 -0.06157
 C125 C 0.58965 0.90696 -0.06095
 O126 O 0.93825 0.60976 0.53761
 O127 O 1.06229 0.39441 0.53991
 O128 O 0.88737 0.43537 0.53083
 O129 O 1.11247 0.56920 0.52903
 O130 O 0.96340 0.40216 0.56106
 O131 O 1.03557 0.59949 0.55954
 O132 O 1.09872 0.47409 0.56327
 O133 O 0.90262 0.53106 0.56377
 C134 C 0.90732 0.58368 0.56765
 C135 C 1.09444 0.42151 0.56833
 C136 C 0.91089 0.40730 0.56352
 C137 C 1.08817 0.59628 0.56197
 O138 O 1.06341 0.60721 0.46115
 O139 O 0.93660 0.39472 0.46281
 O140 O 0.88841 0.56995 0.47230
 O141 O 1.11262 0.43304 0.47294
 O142 O 1.03676 0.40173 0.44123
 O143 O 0.96469 0.59800 0.43913
 O144 O 1.09839 0.52711 0.43828
 O145 O 0.89962 0.47455 0.43993
 Co146 Co 1.00048 0.59390 0.49939
 Co147 Co 0.99978 0.40806 0.50112
 Co148 Co 0.90618 0.50268 0.50173
 Co149 Co 1.09376 0.50110 0.50086
 O150 O 1.00003 0.50140 0.50078
 C151 C 1.09494 0.57945 0.43274
 C152 C 0.90354 0.42201 0.43502
 C153 C 0.91193 0.59437 0.43756
 C154 C 1.08953 0.40584 0.43961
 O155 O 1.04118 0.43237 0.09310
 O156 O 1.04414 0.56219 -0.09156
 O157 O 1.03492 0.38545 -0.05766
 O158 O 1.03459 0.60874 0.05895
 O159 O 1.07032 0.46282 -0.08438
 O160 O 1.06969 0.53113 0.08488
 O161 O 1.07205 0.59573 -0.02254
 O162 O 1.06993 0.39662 0.02496
 C163 C 1.07441 0.40000 0.07014
 C164 C 1.07732 0.59358 -0.06769
 C165 C 1.07391 0.40992 -0.07990
 C166 C 1.07375 0.58402 0.08068
 O167 O 0.95631 0.56164 0.09277
 O168 O 0.95734 0.43416 -0.09318
 O169 O 0.96322 0.38513 0.05756
 O170 O 0.96659 0.61041 -0.05724
 O171 O 0.93053 0.53392 -0.08435
 O172 O 0.92878 0.46287 0.08458
 O173 O 0.92878 0.59658 0.02403
 O174 O 0.92829 0.39785 -0.02522
 Co175 Co 0.99910 0.49712 0.08034
 Co176 Co 1.00042 0.49823 -0.07986
 Co177 Co 0.99914 0.40266 -0.00002
 Co178 Co 1.00040 0.59140 0.00077
 O179 O 0.99970 0.49727 0.00030
 C180 C 0.92330 0.59367 0.06914
 C181 C 0.92425 0.40121 -0.07051
 C182 C 0.92488 0.40997 0.08041
 C183 C 0.92753 0.58686 -0.07978
 O184 O 0.54316 0.93590 0.59222
 O185 O 0.54934 1.05908 0.41102
 O186 O 0.52882 0.88347 0.44223
 O187 O 0.52871 1.11187 0.56028
 O188 O 0.56860 0.95871 0.41718
 O189 O 0.56555 1.03502 0.58542
 O190 O 0.57305 1.09710 0.48023
 O191 O 0.56987 0.89810 0.52390
 C192 C 0.57757 0.90493 0.56866
 C193 C 0.58077 1.09230 0.43525
 C194 C 0.56901 0.90570 0.42017
 C195 C 0.56704 1.08809 0.58317
 O196 O 0.45056 1.06072 0.59007
 O197 O 0.45251 0.93710 0.40931
 O198 O 0.46544 0.88568 0.56036
 O199 O 0.47249 1.11311 0.44105
 O200 O 0.43341 1.03812 0.41481
 O201 O 0.42737 0.96267 0.58273
 O202 O 0.42718 1.09892 0.52097
 O203 O 0.42548 0.89906 0.47786
 Co204 Co 0.49682 0.99836 0.57975
 Co205 Co 0.50077 0.99816 0.42104
 Co206 Co 0.49761 0.90337 0.50117
 Co207 Co 0.50011 1.09303 0.50072
 O208 O 0.49882 0.99821 0.50065
 C209 C 0.41943 1.09427 0.56590
 C210 C 0.41886 0.90496 0.43271
 C211 C 0.42489 0.90983 0.58051
 C212 C 0.43355 1.09120 0.41781
 O213 O 1.11212 1.05482 0.46688
 O214 O 0.88243 1.02914 0.54529
 O215 O 0.96787 1.07392 0.41328
 O216 O 1.04598 1.08798 0.55823
 O217 O 0.89256 1.04248 0.45435
 O218 O 1.11514 1.03291 0.55700
 O219 O 0.95012 1.08576 0.55139
 O220 O 1.06579 1.02974 0.40209
 C221 C 1.10110 1.06060 0.42205
 C222 C 0.90075 1.07522 0.56116
 C223 C 0.91658 1.07884 0.42496
 C224 C 1.09438 1.07844 0.57154
 O225 O 1.09046 0.92692 0.54258
 O226 O 0.92219 0.92134 0.45558
 O227 O 1.02404 0.92987 0.40852
 O228 O 0.94619 0.97978 0.59821
 O229 O 0.92248 0.92240 0.54052
 O230 O 1.10324 0.94244 0.44900
 O231 O 1.04598 0.97723 0.59923
 O232 O 0.92851 0.97648 0.39756
 Co233 Co 1.09503 0.98994 0.50294
 Co234 Co 0.91276 0.98134 0.49790
 Co235 Co 0.99709 1.00227 0.41579
 Co236 Co 0.99741 1.03024 0.57045
 O237 O 1.00132 1.00002 0.49749
 C238 C 1.07521 0.93406 0.58656
 C239 C 0.91194 0.93087 0.41223
 C240 C 1.07514 0.91805 0.41546
 C241 C 0.92641 0.93255 0.58523
 O242 O 0.60692 0.54564 -0.05567
 O243 O 0.39684 0.54844 0.05065
 O244 O 0.43465 0.53226 -0.09996
 O245 O 0.56861 0.52801 0.09426
 O246 O 0.40481 0.57112 -0.03505
 O247 O 0.59867 0.56764 0.02989
 O248 O 0.47692 0.57212 0.08269
 O249 O 0.52755 0.57288 -0.08700
 C250 C 0.57954 0.57824 -0.08391
 C251 C 0.42507 0.57913 0.07958
 C252 C 0.40955 0.57236 -0.08058
 C253 C 0.59323 0.56848 0.07533
 O254 O 0.60487 0.45095 0.05083
 O255 O 0.39621 0.45547 -0.05618
 O256 O 0.56920 0.46928 -0.09950
 O257 O 0.43250 0.47034 0.09424
 O258 O 0.40214 0.43226 0.02948
 O259 O 0.59726 0.42936 -0.03453
 O260 O 0.52446 0.42622 0.08187
 O261 O 0.47592 0.42883 -0.08784
 Co262 Co 0.59285 0.49856 -0.00240
 Co263 Co 0.40915 0.50167 -0.00277
 Co264 Co 0.50180 0.50074 -0.08352
 Co265 Co 0.50070 0.49923 0.07831
 O266 O 0.50113 0.50004 -0.00260
 C267 C 0.57643 0.41959 0.07934
 C268 C 0.42390 0.42342 -0.08452
 C269 C 0.59335 0.42858 -0.08005
 C270 C 0.40668 0.43090 0.07501
 C271 C 0.30077 1.11026 0.10235
 C272 C 0.30409 1.11398 0.15929
 C273 C 0.30117 1.18058 0.15618
 C274 C 0.29750 1.17663 0.09940
 C275 C 0.36726 1.18206 0.15275
 C276 C 0.36983 1.11621 0.15637
 C277 C 0.36616 1.11319 0.10027
 C278 C 0.36328 1.17877 0.09627
 H279 H 0.27382 1.07972 0.08150
 H280 H 0.27932 1.08602 0.18463
 H281 H 0.26864 1.19951 0.07392
 H282 H 0.39774 1.20982 0.17249
 H283 H 0.39959 1.09126 0.17993
 H284 H 0.38808 1.20456 0.06941
 C285 C 0.87371 0.62080 0.65665
 C286 C 0.87175 0.68678 0.65317
 C287 C 0.80579 0.68589 0.65679
 C288 C 0.80801 0.61925 0.65988
 C289 C 0.80159 0.68205 0.60012
 C290 C 0.86740 0.68355 0.59662
 C291 C 0.86946 0.61778 0.60056
 C292 C 0.80412 0.61567 0.60304
 H293 H 0.90334 0.59544 0.68001
 H294 H 0.90196 0.71485 0.67300
 H295 H 0.78320 0.59128 0.68519
 H296 H 0.77232 0.70532 0.57525
 H297 H 0.89221 0.71009 0.57022
 H298 H 0.77664 0.58546 0.58235
 C299 C 0.69807 0.88899 0.10148
 C300 C 0.69527 0.88474 0.15841
 C301 C 0.69798 0.81817 0.15504
 C302 C 0.70119 0.82264 0.09828
 C303 C 0.63190 0.81683 0.15234
 C304 C 0.62953 0.88264 0.15622
 C305 C 0.63266 0.88620 0.10014
 C306 C 0.63536 0.82065 0.09583
 H307 H 0.72483 0.91972 0.08044
 H308 H 0.72036 0.91245 0.18353
 H309 H 0.73021 0.79975 0.07287
 H310 H 0.60161 0.78903 0.17244
 H311 H 0.60005 0.90745 0.18014
 H312 H 0.61021 0.79515 0.06919
 C313 C 1.13768 0.32301 0.59606
 C314 C 1.20344 0.32576 0.59887
 C315 C 1.19993 0.32078 0.65560
 C316 C 1.13391 0.31870 0.65257
 C317 C 1.19639 0.38732 0.65928
 C318 C 1.19953 0.39203 0.60237
 C319 C 1.13418 0.38855 0.60058
 C320 C 1.13068 0.38450 0.65669
 H321 H 1.11321 0.29727 0.56910
 H322 H 1.23262 0.30348 0.57326
 H323 H 1.10405 0.29023 0.67248
 H324 H 1.22091 0.41523 0.68465
 H325 H 1.22617 0.42318 0.58166
 H326 H 1.10078 0.40879 0.68061
 C327 C 0.63276 1.11293 -0.15431
 C328 C 0.63625 1.17873 -0.15178
 C329 C 0.70233 1.17597 -0.15536
 C330 C 0.69845 1.10944 -0.15737
 C331 C 0.70608 1.17295 -0.09853
 C332 C 0.64033 1.17638 -0.09527
 C333 C 0.63647 1.11086 -0.09816
 C334 C 0.70183 1.10659 -0.10035
 H335 H 0.60254 1.08820 -0.17738
 H336 H 0.60587 1.20631 -0.17201
 H337 H 0.72273 1.08068 -0.18237
 H338 H 0.73548 1.19579 -0.07367
 H339 H 0.61606 1.20316 -0.06880
 H340 H 0.72838 1.07592 -0.07901
 C341 C 1.13844 0.67660 0.40315
 C342 C 1.20416 0.67334 0.39961
 C343 C 1.19995 0.67724 0.34289
 C344 C 1.13398 0.67962 0.34664
 C345 C 1.19637 0.61068 0.34017
 C346 C 1.20012 0.60704 0.39714
 C347 C 1.13478 0.61106 0.39969
 C348 C 1.13069 0.61384 0.34357
 H349 H 1.11456 0.70345 0.42987
 H350 H 1.23407 0.69575 0.42430
 H351 H 1.10361 0.70715 0.32636
 H352 H 1.22059 0.58229 0.31481
 H353 H 1.22692 0.57617 0.41803
 H354 H 1.10045 0.58924 0.32040
 C355 C 0.36147 0.82407 -0.09594
 C356 C 0.29557 0.82644 -0.09723
 C357 C 0.29734 0.82341 -0.15413
 C358 C 0.36352 0.82170 -0.15257
 C359 C 0.30014 0.89004 -0.15652
 C360 C 0.29877 0.89288 -0.09945
 C361 C 0.36427 0.88975 -0.09922
 C362 C 0.36596 0.88760 -0.15545
 H363 H 0.38710 0.79765 -0.07014
 H364 H 0.26709 0.80293 -0.07175
 H365 H 0.39331 0.79439 -0.17370
 H366 H 0.27454 0.91850 -0.18082
 H367 H 0.27246 0.92313 -0.07750
 H368 H 0.39488 0.91279 -0.17959
 C369 C 0.85921 0.32426 0.40711
 C370 C 0.79347 0.32767 0.40366
 C371 C 0.79758 0.32306 0.34690
 C372 C 0.86360 0.32041 0.35061
 C373 C 0.80153 0.38957 0.34337
 C374 C 0.79784 0.39395 0.40032
 C375 C 0.86322 0.38973 0.40276
 C376 C 0.86720 0.38615 0.34663
 H377 H 0.88303 0.29830 0.43450
 H378 H 0.76361 0.30550 0.42878
 H379 H 0.89394 0.29255 0.33071
 H380 H 0.77747 0.41775 0.31768
 H381 H 0.77113 0.42517 0.42087
 H382 H 0.89753 0.41025 0.32298
 C383 C 1.10817 0.29462 0.10294
 C384 C 1.17396 0.29044 0.09863
 C385 C 1.17960 0.29662 0.15535
 C386 C 1.11376 0.30026 0.15958
 C387 C 1.18170 0.36290 0.14933
 C388 C 1.17669 0.35673 0.09286
 C389 C 1.11216 0.36027 0.09819
 C390 C 1.11677 0.36594 0.15432
 H391 H 1.07717 0.26693 0.08341
 H392 H 1.19520 0.25928 0.07405
 H393 H 1.08637 0.27707 0.18642
 H394 H 1.20842 0.39471 0.16845
 H395 H 1.20095 0.37986 0.06390
 H396 H 1.09348 0.39713 0.17783
 C397 C 0.62357 0.80361 0.59652
 C398 C 0.68963 0.80654 0.59592
 C399 C 0.69045 0.80754 0.65316
 C400 C 0.62437 0.80450 0.65342
 C401 C 0.68646 0.87407 0.65168
 C402 C 0.68568 0.87316 0.59463
 C403 C 0.62054 0.86951 0.59623
 C404 C 0.62108 0.87043 0.65284
 H405 H 0.59723 0.77463 0.57354
 H406 H 0.71624 0.78132 0.57025
 H407 H 0.59723 0.77630 0.67665
 H408 H 0.71091 0.90541 0.67376
 H409 H 0.71013 0.90185 0.56972
 H410 H 0.59310 0.89663 0.67702
 C411 C 1.10982 0.70073 -0.09621
 C412 C 1.17570 0.70527 -0.09363
 C413 C 1.17943 0.70246 -0.15074
 C414 C 1.11347 0.69846 -0.15309
 C415 C 1.18250 0.63593 -0.14760
 C416 C 1.17928 0.63870 -0.09078
 C417 C 1.11462 0.63490 -0.09452
 C418 C 1.11746 0.63263 -0.15090
 H419 H 1.07921 0.72701 -0.07464
 H420 H 1.19785 0.73516 -0.06854
 H421 H 1.08464 0.72290 -0.17789
 H422 H 1.20904 0.60545 -0.16866
 H423 H 1.20441 0.61404 -0.06338
 H424 H 1.09376 0.60274 -0.17518
 C425 C 0.61151 1.19920 0.40500
 C426 C 0.67724 1.20517 0.40785
 C427 C 0.68147 1.20099 0.35081
 C428 C 0.61565 1.19557 0.34818
 C429 C 0.68583 1.13461 0.35527
 C430 C 0.68216 1.13877 0.41203
 C431 C 0.61773 1.13354 0.40805
 C432 C 0.62095 1.12993 0.35170
 H433 H 0.58025 1.22540 0.42592
 H434 H 0.69838 1.23596 0.43273
 H435 H 0.58658 1.21875 0.32270
 H436 H 0.71257 1.10389 0.33476
 H437 H 0.70718 1.11543 0.44032
 H438 H 0.59811 1.09893 0.32784
 C439 C 0.88927 0.69992 0.09939
 C440 C 0.82345 0.70408 0.09538
 C441 C 0.81794 0.69932 0.15231
 C442 C 0.88388 0.69573 0.15613
 C443 C 0.81585 0.63290 0.14777
 C444 C 0.82075 0.63762 0.09112
 C445 C 0.88529 0.63414 0.09623
 C446 C 0.88080 0.62995 0.15248
 H447 H 0.92022 0.72711 0.07907
 H448 H 0.80186 0.73466 0.07034
 H449 H 0.91160 0.71954 0.18211
 H450 H 0.78916 0.60152 0.16769
 H451 H 0.79674 0.61378 0.06261
 H452 H 0.90415 0.59941 0.17664
 C453 C 0.31801 1.13973 0.58972
 C454 C 0.31480 1.13464 0.64650
 C455 C 0.31801 1.20093 0.65134
 C456 C 0.32188 1.20609 0.59431
 C457 C 0.38395 1.19643 0.65361
 C458 C 0.37975 1.13081 0.64966
 C459 C 0.38250 1.13531 0.59327
 C460 C 0.38770 1.20095 0.59679
 H461 H 0.29322 1.11670 0.56123
 H462 H 0.28879 1.10343 0.66723
 H463 H 0.30020 1.23693 0.56964
 H464 H 0.41279 1.21956 0.67914
 H465 H 0.40330 1.09982 0.67325
 H466 H 0.41836 1.22785 0.57585
 C467 C 0.88387 0.36473 -0.15518
 C468 C 0.88809 0.29894 -0.15911
 C469 C 0.82224 0.29431 -0.15564
 C470 C 0.81888 0.36074 -0.15100
 C471 C 0.82706 0.28959 -0.09871
 C472 C 0.89285 0.29469 -0.10226
 C473 C 0.88763 0.36045 -0.09885
 C474 C 0.82306 0.35596 -0.09433
 H475 H 0.90698 0.39576 -0.17901
 H476 H 0.91628 0.27556 -0.18516
 H477 H 0.79202 0.39182 -0.17110
 H478 H 0.80591 0.25881 -0.07368
 H479 H 0.92397 0.26780 -0.08181
 H480 H 0.79790 0.37928 -0.06612
 C481 C 0.31361 0.86608 0.40639
 C482 C 0.31245 0.86838 0.34936
 C483 C 0.31305 0.80174 0.34686
 C484 C 0.31441 0.79939 0.40411
 C485 C 0.37919 0.80320 0.34628
 C486 C 0.37789 0.86920 0.34792
 C487 C 0.37874 0.86701 0.40453
 C488 C 0.38050 0.80103 0.40321
 H489 H 0.28792 0.89232 0.43226
 H490 H 0.28646 0.89893 0.32764
 H491 H 0.29003 0.77159 0.42949
 H492 H 0.40799 0.77749 0.32243
 H493 H 0.40374 0.89789 0.32404
 H494 H 0.40899 0.77333 0.42566
 C495 C 1.12505 1.16574 0.38900
 C496 C 1.18994 1.16894 0.38013
 C497 C 1.17961 1.16885 0.32368
 C498 C 1.11476 1.16560 0.33246
 C499 C 1.18313 1.10275 0.32321
 C500 C 1.19386 1.10274 0.37957
 C501 C 1.13015 1.10067 0.38853
 C502 C 1.11869 1.09971 0.33241
 H503 H 1.09960 1.18843 0.41730
 H504 H 1.21784 1.19726 0.40160
 H505 H 1.08102 1.18883 0.31192
 H506 H 1.20508 1.07593 0.29521
 H507 H 1.22373 1.07412 0.39943
 H508 H 1.08914 1.07065 0.31266
 C509 C 0.60726 0.67759 -0.12518
 C510 C 0.67298 0.67887 -0.12695
 C511 C 0.67108 0.67419 -0.18377
 C512 C 0.60528 0.67242 -0.18221
 C513 C 0.67304 0.60813 -0.17990
 C514 C 0.67533 0.61319 -0.12312
 C515 C 0.61029 0.61270 -0.12106
 C516 C 0.60727 0.60638 -0.17752
 H517 H 0.57765 0.70367 -0.10259
 H518 H 0.70026 0.70641 -0.10415
 H519 H 0.57604 0.69564 -0.20749
 H520 H 0.69859 0.57870 -0.20324
 H521 H 0.70260 0.58750 -0.09815
 H522 H 0.57960 0.57599 -0.19780
 C523 C 0.80945 1.11582 0.60641
 C524 C 0.81077 1.10036 0.66204
 C525 C 0.82325 1.16386 0.67471
 C526 C 0.82190 1.17872 0.61900
 C527 C 0.88777 1.15202 0.67118
 C528 C 0.87536 1.08860 0.65807
 C529 C 0.87304 1.10524 0.60296
 C530 C 0.88628 1.16753 0.61554
 H531 H 0.78082 1.10086 0.57680
 H532 H 0.78180 1.07061 0.68165
 H533 H 0.79934 1.21316 0.59981
 H534 H 0.92037 1.16661 0.69795
 H535 H 0.89640 1.05025 0.67420
 H536 H 0.91801 1.19440 0.59585
 C537 C 0.32992 0.61191 0.12046
 C538 C 0.33284 0.60458 0.17701
 C539 C 0.33429 0.67041 0.18248
 C540 C 0.33172 0.67731 0.12585
 C541 C 0.40006 0.66918 0.18040
 C542 C 0.39862 0.60332 0.17411
 C543 C 0.39497 0.61196 0.11788
 C544 C 0.39742 0.67659 0.12354
 H545 H 0.30226 0.58746 0.09506
 H546 H 0.30749 0.57423 0.19965
 H547 H 0.30367 0.70510 0.10385
 H548 H 0.42920 0.69181 0.20598
 H549 H 0.42682 0.57237 0.19345
 H550 H 0.42652 0.70376 0.10139
 C551 C 1.09940 0.83318 0.62756
 C552 C 1.16508 0.83166 0.62959
 C553 C 1.16267 0.83475 0.68635
 C554 C 1.09686 0.83661 0.68469
 C555 C 1.16448 0.90086 0.68412
 C556 C 1.16724 0.89744 0.62736
 C557 C 1.10202 0.89841 0.62516
 C558 C 1.09866 0.90294 0.68167
 H559 H 1.07084 0.80695 0.60423
 H560 H 1.19244 0.80417 0.60650
 H561 H 1.06761 0.81223 0.70915
 H562 H 1.19074 0.92920 0.70773
 H563 H 1.19553 0.92349 0.60340
 H564 H 1.07058 0.93269 0.70248
 C565 C 0.60201 0.39623 0.17430
 C566 C 0.60030 0.33050 0.18150
 C567 C 0.66608 0.32902 0.18400
 C568 C 0.66774 0.39478 0.17762
 C569 C 0.66923 0.32136 0.12747
 C570 C 0.60353 0.32234 0.12477
 C571 C 0.60623 0.38691 0.11819
 C572 C 0.67125 0.38675 0.12115
 H573 H 0.57379 0.42746 0.19322
 H574 H 0.57072 0.30842 0.20724
 H575 H 0.69279 0.42543 0.20001
 H576 H 0.69728 0.29299 0.10604
 H577 H 0.57448 0.29505 0.10289
 H578 H 0.69909 0.41103 0.09560
 C579 C 0.81826 0.88984 0.37609
 C580 C 0.82142 0.89370 0.31925
 C581 C 0.82572 0.82777 0.31690
 C582 C 0.82284 0.82403 0.37374
 C583 C 0.89128 0.83156 0.31888
 C584 C 0.88679 0.89741 0.32191
 C585 C 0.88295 0.89238 0.37839
 C586 C 0.88852 0.82756 0.37597
 H587 H 0.79037 0.91570 0.40042
 H588 H 0.79562 0.92177 0.29484
 H589 H 0.79633 0.79545 0.39655
 H590 H 0.92166 0.80904 0.29416
 H591 H 0.91385 0.92825 0.30126
 H592 H 0.91829 0.80304 0.39971
 C593 C 0.39620 0.39740 -0.17786
 C594 C 0.39843 0.33150 -0.18316
 C595 C 0.33268 0.32967 -0.18438
 C596 C 0.33045 0.39556 -0.17993
 C597 C 0.33077 0.32373 -0.12769
 C598 C 0.39649 0.32509 -0.12623
 C599 C 0.39326 0.38982 -0.12154
 C600 C 0.32820 0.38929 -0.12323
 H601 H 0.42383 0.42830 -0.19783
 H602 H 0.42758 0.30877 -0.20884
 H603 H 0.30453 0.42523 -0.20280
 H604 H 0.30344 0.29577 -0.10513
 H605 H 0.42620 0.29870 -0.10398
 H606 H 0.30060 0.41421 -0.09793
 C607 C 1.11985 0.30780 -0.10406
 C608 C 1.12325 0.30625 -0.16084
 C609 C 1.18941 0.30803 -0.15847
 C610 C 1.18582 0.30956 -0.10131
 C611 C 1.18621 0.37492 -0.15927
 C612 C 1.12081 0.37234 -0.16255
 C613 C 1.11776 0.37395 -0.10623
 C614 C 1.18277 0.37631 -0.10234
 H615 H 1.09197 0.28003 -0.08111
 H616 H 1.09669 0.27739 -0.18377
 H617 H 1.21077 0.28413 -0.07438
 H618 H 1.21158 0.40563 -0.18135
 H619 H 1.09433 0.39825 -0.18821
 H620 H 1.20590 0.40593 -0.07753
 C621 C 0.67619 0.86971 0.39814
 C622 C 0.67843 0.80297 0.39782
 C623 C 0.68302 0.80310 0.34070
 C624 C 0.68043 0.86999 0.34127
 C625 C 0.61689 0.80205 0.33745
 C626 C 0.61245 0.80207 0.39428
 C627 C 0.61127 0.86825 0.39349
 C628 C 0.61514 0.86820 0.33718
 H629 H 0.69903 0.89812 0.42414
 H630 H 0.70272 0.77648 0.42444
 H631 H 0.70572 0.90138 0.31995
 H632 H 0.59058 0.77416 0.31344
 H633 H 0.58383 0.77411 0.41635
 H634 H 0.58931 0.89513 0.31179
 C635 C 0.88348 0.69019 -0.10253
 C636 C 0.88072 0.69353 -0.15926
 C637 C 0.81450 0.69282 -0.15724
 C638 C 0.81747 0.68950 -0.10010
 C639 C 0.81663 0.62591 -0.15924
 C640 C 0.88209 0.62747 -0.16217
 C641 C 0.88449 0.62407 -0.10590
 C642 C 0.81944 0.62274 -0.10231
 H643 H 0.91157 0.71679 -0.07895
 H644 H 0.90804 0.72262 -0.18149
 H645 H 0.79263 0.71476 -0.07297
 H646 H 0.79117 0.59626 -0.18207
 H647 H 0.90840 0.60189 -0.18817
 H648 H 0.79598 0.59267 -0.07797
 C649 C 0.32896 1.13199 0.39936
 C650 C 0.33019 1.19867 0.39700
 C651 C 0.32173 1.19658 0.34033
 C652 C 0.32121 1.12970 0.34288
 C653 C 0.38751 1.19418 0.33351
 C654 C 0.39566 1.19588 0.38999
 C655 C 0.39313 1.12972 0.39117
 C656 C 0.38600 1.12806 0.33531
 H657 H 0.30709 1.10624 0.42810
 H658 H 0.30924 1.22802 0.42355
 H659 H 0.29436 1.09835 0.32337
 H660 H 0.41353 1.21989 0.30735
 H661 H 0.42723 1.22281 0.40965
 H662 H 0.40879 1.09881 0.30970
 C663 C 1.12064 0.68582 0.10266
 C664 C 1.12375 0.68909 0.15933
 C665 C 1.18995 0.68687 0.15710
 C666 C 1.18662 0.68356 0.09999
 C667 C 1.18661 0.62003 0.15943
 C668 C 1.12115 0.62309 0.16260
 C669 C 1.11827 0.61974 0.10633
 C670 C 1.18335 0.61684 0.10251
 H671 H 1.09299 0.71313 0.07909
 H672 H 1.09702 0.71882 0.18147
 H673 H 1.21176 0.70824 0.07262
 H674 H 1.21210 0.59000 0.18217
 H675 H 1.09451 0.59820 0.18887
 H676 H 1.20646 0.58613 0.07852
 C677 C 0.67260 1.11448 0.61117
 C678 C 0.68318 1.17979 0.60341
 C679 C 0.68241 1.18929 0.66004
 C680 C 0.67123 1.12358 0.66741
 C681 C 0.61700 1.19880 0.65805
 C682 C 0.61789 1.18929 0.60162
 C683 C 0.60867 1.12452 0.61022
 C684 C 0.60671 1.13392 0.66592
 H685 H 0.69218 1.07723 0.59227
 H686 H 0.71126 1.19905 0.57505
 H687 H 0.68981 1.09274 0.69409
 H688 H 0.59300 1.23374 0.67658
 H689 H 0.59508 1.21609 0.57406
 H690 H 0.57537 1.11467 0.69179
 C691 C 0.88016 0.30811 0.10665
 C692 C 0.87640 0.30754 0.16344
 C693 C 0.81025 0.30880 0.16070
 C694 C 0.81422 0.30936 0.10354
 C695 C 0.81270 0.37571 0.16039
 C696 C 0.87813 0.37368 0.16400
 C697 C 0.88150 0.37431 0.10765
 C698 C 0.81651 0.37613 0.10344
 H699 H 0.90849 0.28012 0.08434
 H700 H 0.90308 0.27927 0.18703
 H701 H 0.78987 0.28323 0.07688
 H702 H 0.78680 0.40651 0.18189
 H703 H 0.90417 0.40024 0.18930
 H704 H 0.79353 0.40525 0.07790
 C705 C 0.37680 0.80902 0.60526
 C706 C 0.37310 0.80827 0.66201
 C707 C 0.30698 0.81155 0.65941
 C708 C 0.31088 0.81230 0.60226
 C709 C 0.31126 0.87825 0.65944
 C710 C 0.37663 0.87427 0.66296
 C711 C 0.38011 0.87500 0.60661
 C712 C 0.31507 0.87894 0.60250
 H713 H 0.40427 0.78037 0.58276
 H714 H 0.39917 0.77914 0.68534
 H715 H 0.28558 0.78769 0.57527
 H716 H 0.28562 0.90933 0.68097
 H717 H 0.40352 0.89980 0.68839
 H718 H 0.29189 0.90860 0.57751
 C719 C 0.31185 1.11793 -0.10400
 C720 C 0.30376 1.18375 -0.10316
 C721 C 0.31066 1.18615 -0.15981
 C722 C 0.31844 1.11996 -0.16081
 C723 C 0.37625 1.19232 -0.15375
 C724 C 0.36908 1.19081 -0.09709
 C725 C 0.37689 1.12584 -0.09872
 C726 C 0.38365 1.12671 -0.15483
 H727 H 0.28553 1.08639 -0.08343
 H728 H 0.27056 1.20512 -0.08067
 H729 H 0.29726 1.08967 -0.18642
 H730 H 0.40611 1.21983 -0.17448
 H731 H 0.38994 1.21849 -0.06930
 H732 H 0.41670 1.10333 -0.17619
 C733 C 0.81007 0.61593 0.39593
 C734 C 0.80094 0.68165 0.39694
 C735 C 0.80717 0.68417 0.34024
 C736 C 0.81608 0.61814 0.33909
 C737 C 0.87277 0.69146 0.34591
 C738 C 0.86621 0.68970 0.40256
 C739 C 0.87504 0.62481 0.40071
 C740 C 0.88123 0.62596 0.34458
 H741 H 0.78445 0.58391 0.41663
 H742 H 0.76774 0.70246 0.41979
 H743 H 0.79511 0.58754 0.31362
 H744 H 0.90211 0.71975 0.32541
 H745 H 0.88711 0.71779 0.43001
 H746 H 0.91444 0.60323 0.32291
 C747 C 0.69090 1.11562 0.10760
 C748 C 0.69876 1.18144 0.10570
 C749 C 0.69091 1.18504 0.16226
 C750 C 0.68338 1.11882 0.16433
 C751 C 0.62538 1.19096 0.15518
 C752 C 0.63352 1.18833 0.09866
 C753 C 0.62591 1.12337 0.10131
 C754 C 0.61823 1.12539 0.15735
 H755 H 0.71771 1.08370 0.08795
 H756 H 0.73222 1.20243 0.08323
 H757 H 0.70420 1.08904 0.19080
 H758 H 0.59501 1.21873 0.17509
 H759 H 0.61317 1.21544 0.07001
 H760 H 0.58497 1.10243 0.17878
 C761 C 1.18857 0.62375 0.60393
 C762 C 1.19403 0.68988 0.60344
 C763 C 1.18704 0.69126 0.66012
 C764 C 1.18174 0.62485 0.66070
 C765 C 1.12130 0.69542 0.65395
 C766 C 1.12847 0.69470 0.59726
 C767 C 1.12335 0.62927 0.59851
 C768 C 1.11637 0.62949 0.65469
 H769 H 1.21624 0.59349 0.58326
 H770 H 1.22611 0.71256 0.58082
 H771 H 1.20394 0.59490 0.68617
 H772 H 1.09090 0.72270 0.67445
 H773 H 1.10633 0.72264 0.57020
 H774 H 1.08426 0.60472 0.67594
 C775 C 0.69231 0.88441 -0.10138
 C776 C 0.70014 0.81852 -0.10084
 C777 C 0.69470 0.81700 -0.15761
 C778 C 0.68721 0.88325 -0.15830
 C779 C 0.62893 0.81101 -0.15264
 C780 C 0.63463 0.81168 -0.09591
 C781 C 0.62711 0.87669 -0.09733
 C782 C 0.62185 0.87665 -0.15350
 H783 H 0.71815 0.91558 -0.08014
 H784 H 0.73269 0.79647 -0.07808
 H785 H 0.70917 0.91386 -0.18330
 H786 H 0.59944 0.78393 -0.17396
 H787 H 0.61291 0.78387 -0.06854
 H788 H 0.58947 0.90047 -0.17525
 C789 C 1.19228 0.38014 0.40031
 C790 C 1.19886 0.31403 0.40056
 C791 C 1.19436 0.31319 0.34363
 C792 C 1.18790 0.37950 0.34334
 C793 C 1.12830 0.30822 0.34812
 C794 C 1.13313 0.30854 0.40489
 C795 C 1.12687 0.37380 0.40376
 C796 C 1.12236 0.37404 0.34749
 H797 H 1.21853 0.41058 0.42194
 H798 H 1.23048 0.29149 0.42390
 H799 H 1.21074 0.40988 0.31871
 H800 H 1.09867 0.28108 0.32694
 H801 H 1.10958 0.28146 0.43157
 H802 H 1.09073 0.39851 0.32544
 C803 C 0.30770 0.88205 0.10232
 C804 C 0.30096 0.81608 0.10096
 C805 C 0.30738 0.81317 0.15764
 C806 C 0.31372 0.87950 0.15916
 C807 C 0.37314 0.80821 0.15181
 C808 C 0.36650 0.81021 0.09517
 C809 C 0.37292 0.87526 0.09740
 C810 C 0.37909 0.87387 0.15350
 H811 H 0.28103 0.91340 0.08181
 H812 H 0.26837 0.79410 0.07834
 H813 H 0.29168 0.90920 0.18488
 H814 H 0.40339 0.78103 0.17248
 H815 H 0.38821 0.78326 0.06720
 H816 H 0.41140 0.89759 0.17521
 C817 C 0.81011 0.38552 0.60757
 C818 C 0.79778 0.32074 0.60167
 C819 C 0.80714 0.31128 0.65755
 C820 C 0.81922 0.37654 0.66356
 C821 C 0.87189 0.30172 0.64816
 C822 C 0.86233 0.31029 0.59226
 C823 C 0.87423 0.37428 0.59898
 C824 C 0.88350 0.36631 0.65439
 H825 H 0.78493 0.42094 0.59091
 H826 H 0.76220 0.30344 0.57930
 H827 H 0.80136 0.40550 0.69216
 H828 H 0.90010 0.26900 0.66495
 H829 H 0.88052 0.28343 0.56235
 H830 H 0.91882 0.38494 0.67626
 C831 C 1.18520 1.11318 0.61774
 C832 C 1.18275 1.17914 0.62054
 C833 C 1.17600 1.17520 0.67721
 C834 C 1.17778 1.10901 0.67434
 C835 C 1.11051 1.17365 0.67146
 C836 C 1.11761 1.17784 0.61464
 C837 C 1.12087 1.11251 0.61154
 C838 C 1.11254 1.10735 0.66778
 H839 H 1.21346 1.08520 0.59563
 H840 H 1.20973 1.20855 0.59899
 H841 H 1.20118 1.07986 0.69965
 H842 H 1.07907 1.19735 0.69427
 H843 H 1.09135 1.20452 0.58955
 H844 H 1.08395 1.07704 0.68735
 C845 C 0.68520 0.61013 0.11575
 C846 C 0.68281 0.67627 0.11734
 C847 C 0.67548 0.67351 0.17412
 C848 C 0.67728 0.60744 0.17236
 C849 C 0.61008 0.67224 0.16776
 C850 C 0.61744 0.67486 0.11081
 C851 C 0.62091 0.60957 0.10910
 C852 C 0.61231 0.60616 0.16556
 H853 H 0.71389 0.58221 0.09394
 H854 H 0.71050 0.70491 0.09571
 H855 H 0.70021 0.57876 0.19839
 H856 H 0.57827 0.69597 0.19014
 H857 H 0.59158 0.70063 0.08473
 H858 H 0.58270 0.57698 0.18535
 C859 C 1.17114 0.88208 0.37826
 C860 C 1.17047 0.81625 0.37513
 C861 C 1.16963 0.82063 0.31829
 C862 C 1.16980 0.88669 0.32147
 C863 C 1.10373 0.82095 0.31893
 C864 C 1.10464 0.81637 0.37609
 C865 C 1.10590 0.88162 0.37938
 C866 C 1.10403 0.88717 0.32282
 H867 H 1.19793 0.90858 0.40284
 H868 H 1.19747 0.78846 0.39831
 H869 H 1.19542 0.91639 0.29839
 H870 H 1.07563 0.79660 0.29364
 H871 H 1.07631 0.78879 0.39867
 H872 H 1.07596 0.91675 0.30179
 C873 C 0.61535 0.38852 -0.16949
 C874 C 0.68050 0.38695 -0.17530
 C875 C 0.67909 0.32075 -0.17566
 C876 C 0.61349 0.32239 -0.17030
 C877 C 0.68509 0.31969 -0.11878
 C878 C 0.68706 0.38594 -0.11851
 C879 C 0.62248 0.38681 -0.11289
 C880 C 0.61948 0.32140 -0.11323
 H881 H 0.58610 0.41713 -0.19031
 H882 H 0.70384 0.41496 -0.20158
 H883 H 0.58219 0.29811 -0.19260
 H884 H 0.71269 0.29170 -0.09629
 H885 H 0.71543 0.41428 -0.09696
 H886 H 0.59302 0.29624 -0.08715
 C887 C 0.88858 1.11209 0.33541
 C888 C 0.82334 1.11216 0.33068
 C889 C 0.82361 1.17835 0.32753
 C890 C 0.88925 1.17809 0.33172
 C891 C 0.81868 1.18196 0.38450
 C892 C 0.81793 1.11571 0.38757
 C893 C 0.88250 1.11655 0.39204
 C894 C 0.88436 1.18185 0.38874
 H895 H 0.91772 1.08283 0.31523
 H896 H 0.80051 1.08237 0.30575
 H897 H 0.91958 1.20179 0.30780
 H898 H 0.79117 1.21047 0.40648
 H899 H 0.79108 1.08758 0.41084
 H900 H 0.91106 1.20858 0.41322
 C901 C 0.38620 0.61184 -0.17036
 C902 C 0.32091 0.61285 -0.17515
 C903 C 0.32178 0.67906 -0.17602
 C904 C 0.38747 0.67803 -0.17168
 C905 C 0.31680 0.68022 -0.11902
 C906 C 0.31535 0.61401 -0.11829
 C907 C 0.37998 0.61371 -0.11365
 C908 C 0.38245 0.67913 -0.11451
 H909 H 0.41533 0.58334 -0.19138
 H910 H 0.29732 0.58459 -0.20086
 H911 H 0.41808 0.70263 -0.19463
 H912 H 0.28953 0.70807 -0.09619
 H913 H 0.28777 0.58541 -0.09606
 H914 H 0.40910 0.70460 -0.08900
 C915 C 0.89756 0.89905 0.67871
 C916 C 0.83172 0.89679 0.67914
 C917 C 0.83373 0.83062 0.68178
 C918 C 0.89961 0.83263 0.68187
 C919 C 0.83398 0.82742 0.62487
 C920 C 0.83164 0.89338 0.62223
 C921 C 0.89698 0.89487 0.62203
 C922 C 0.89977 0.82930 0.62465
 H923 H 0.92431 0.92878 0.70061
 H924 H 0.80442 0.92536 0.70183
 H925 H 0.92798 0.80800 0.70692
 H926 H 0.80837 0.79899 0.60123
 H927 H 0.80426 0.91933 0.59743
 H928 H 0.92858 0.80201 0.60220
 C929 C 0.31268 0.38955 0.11506
 C930 C 0.31491 0.32331 0.11705
 C931 C 0.32180 0.32600 0.17385
 C932 C 0.32010 0.39212 0.17176
 C933 C 0.38727 0.32731 0.16759
 C934 C 0.38039 0.32473 0.11065
 C935 C 0.37715 0.39008 0.10860
 C936 C 0.38515 0.39336 0.16513
 H937 H 0.28371 0.41709 0.09310
 H938 H 0.28720 0.29479 0.09548
 H939 H 0.29698 0.42085 0.19758
 H940 H 0.41895 0.30353 0.19008
 H941 H 0.40643 0.29884 0.08483
 H942 H 0.41456 0.42244 0.18503
   
