data_POSCAR
  _audit_creation_date              2014-09-24
  _audit_creation_method            'ToBaCCo'
  _symmetry_space_group_name_H-M    'P1'
  _symmetry_Int_Tables_number       1
  _symmetry_cell_setting            triclinic
  loop_
  _symmetry_equiv_pos_as_xyz
 x,y,z
_cell_length_a 38.5088
_cell_length_b 38.5470
_cell_length_c 38.5766
_cell_angle_alpha 90.061700
_cell_angle_beta 89.819800
_cell_angle_gamma 90.031200
loop_
  _atom_site_label
  _atom_site_type_symbol
  _atom_site_fract_x
  _atom_site_fract_y
  _atom_site_fract_z
C1 C 0.31425 0.31424 -0.01744
 C2 C 0.31540 0.31409 0.01791
 C3 C 0.29254 0.33690 0.03906
 C4 C 0.34085 0.29247 0.03712
 C5 C 0.33661 0.29096 -0.03860
 C6 C 0.29219 0.33912 -0.03684
 C7 C 0.30740 0.35987 0.06309
 C8 C 0.28653 0.38291 0.08178
 C9 C 0.25054 0.38310 0.07687
 C10 C 0.23539 0.35963 0.05364
 C11 C 0.25626 0.33649 0.03494
 C12 C 0.37669 0.29576 0.03090
 C13 C 0.40036 0.27517 0.04900
 C14 C 0.38851 0.25135 0.07375
 C15 C 0.35287 0.24837 0.08047
 C16 C 0.32916 0.26893 0.06235
 C17 C 0.33634 0.25483 -0.03366
 C18 C 0.35898 0.23360 -0.05258
 C19 C 0.38181 0.24828 -0.07688
 C20 C 0.38143 0.28418 -0.08255
 C21 C 0.35889 0.30535 -0.06362
 C22 C 0.26841 0.32679 -0.06149
 C23 C 0.24798 0.35001 -0.08037
 C24 C 0.25134 0.38578 -0.07498
 C25 C 0.27527 0.39824 -0.05070
 C26 C 0.29573 0.37507 -0.03185
 H27 H 0.33527 0.36055 0.06672
 H28 H 0.29851 0.40090 0.09973
 H29 H 0.20754 0.35946 0.04975
 H30 H 0.24424 0.31861 0.01693
 H31 H 0.38628 0.31429 0.01207
 H32 H 0.42788 0.27790 0.04379
 H33 H 0.30167 0.26626 0.06771
 H34 H 0.31894 0.24320 -0.01487
 H35 H 0.35884 0.20586 -0.04795
 H36 H 0.39887 0.29599 -0.10126
 H37 H 0.35943 0.33312 -0.06787
 H38 H 0.26558 0.29919 -0.06593
 H39 H 0.22968 0.34008 -0.09921
 H40 H 0.27828 0.42588 -0.04652
 H41 H 0.31448 0.38513 -0.01355
 H42 H 0.34342 0.23019 0.09971
 C43 C 0.68626 0.68650 -0.01941
 C44 C 0.68680 0.68570 0.01592
 C45 C 0.70882 0.66072 0.03511
 C46 C 0.66383 0.70821 0.03728
 C47 C 0.66102 0.70826 -0.03859
 C48 C 0.70933 0.66396 -0.04065
 C49 C 0.70536 0.62483 0.02972
 C50 C 0.72578 0.60154 0.04843
 C51 C 0.74956 0.61387 0.07291
 C52 C 0.75285 0.64958 0.07866
 C53 C 0.73246 0.67291 0.05993
 C54 C 0.64163 0.69298 0.06190
 C55 C 0.61894 0.71346 0.08140
 C56 C 0.61830 0.74944 0.07672
 C57 C 0.64087 0.76496 0.05276
 C58 C 0.66369 0.74446 0.03323
 C59 C 0.67295 0.73228 -0.06323
 C60 C 0.64938 0.75274 -0.08160
 C61 C 0.61367 0.74914 -0.07569
 C62 C 0.60159 0.72490 -0.05148
 C63 C 0.62512 0.70441 -0.03313
 C64 C 0.74556 0.66420 -0.03618
 C65 C 0.76655 0.64121 -0.05496
 C66 C 0.75155 0.61808 -0.07862
 C67 C 0.71562 0.61847 -0.08390
 C68 C 0.69464 0.64134 -0.06513
 H69 H 0.68671 0.61492 0.01124
 H70 H 0.72285 0.57394 0.04400
 H71 H 0.77103 0.65936 0.09770
 H72 H 0.73519 0.70048 0.06465
 H73 H 0.64139 0.66511 0.06549
 H74 H 0.60160 0.70118 0.09985
 H75 H 0.68099 0.75677 0.01478
 H76 H 0.70052 0.73533 -0.06800
 H77 H 0.65897 0.77127 -0.10044
 H78 H 0.57400 0.72171 -0.04692
 H79 H 0.61539 0.68548 -0.01479
 H80 H 0.75745 0.68180 -0.01782
 H81 H 0.79435 0.64121 -0.05076
 H82 H 0.70374 0.60072 -0.10216
 H83 H 0.66680 0.64078 -0.06903
 H84 H 0.64064 0.79280 0.04900
 C85 C 0.68798 0.31423 1.01721
 C86 C 0.68642 0.31409 0.98189
 C87 C 0.70912 0.33685 0.96060
 C88 C 0.66068 0.29257 0.96288
 C89 C 0.66590 0.29089 1.03849
 C90 C 0.71017 0.33918 1.03648
 C91 C 0.69407 0.35990 0.93683
 C92 C 0.71482 0.38295 0.91807
 C93 C 0.75085 0.38306 0.92267
 C94 C 0.76617 0.35951 0.94561
 C95 C 0.74542 0.33635 0.96438
 C96 C 0.62492 0.29591 0.96953
 C97 C 0.60096 0.27554 0.95149
 C98 C 0.61242 0.25188 0.92636
 C99 C 0.64797 0.24883 0.91923
 C100 C 0.67197 0.26917 0.93730
 C101 C 0.66616 0.25477 1.03337
 C102 C 0.64362 0.23350 1.05231
 C103 C 0.62098 0.24812 1.07675
 C104 C 0.62139 0.28393 1.08267
 C105 C 0.64380 0.30520 1.06374
 C106 C 0.73405 0.32694 1.06103
 C107 C 0.75441 0.35022 1.07998
 C108 C 0.75090 0.38601 1.07476
 C109 C 0.72689 0.39838 1.05050
 C110 C 0.70651 0.37512 1.03159
 H111 H 0.66616 0.36064 0.93347
 H112 H 0.70272 0.40103 0.90033
 H113 H 0.79406 0.35928 0.94924
 H114 H 0.75756 0.31840 0.98219
 H115 H 0.61562 0.31434 0.98862
 H116 H 0.57350 0.27833 0.95703
 H117 H 0.69939 0.26647 0.93158
 H118 H 0.68341 0.24320 1.01439
 H119 H 0.64354 0.20579 1.04761
 H120 H 0.60397 0.29549 1.10153
 H121 H 0.64327 0.33295 1.06814
 H122 H 0.73696 0.29935 1.06540
 H123 H 0.77273 0.34027 1.09878
 H124 H 0.72369 0.42600 1.04636
 H125 H 0.68767 0.38511 1.01337
 H126 H 0.65712 0.23077 0.89971
 C127 C 0.31487 0.68550 1.02110
 C128 C 0.31430 0.68524 0.98575
 C129 C 0.29224 0.66053 0.96619
 C130 C 0.33724 0.70811 0.96469
 C131 C 0.34013 0.70705 1.04055
 C132 C 0.29177 0.66268 1.04204
 C133 C 0.29566 0.62457 0.97101
 C134 C 0.27518 0.60154 0.95197
 C135 C 0.25140 0.61421 0.92771
 C136 C 0.24816 0.64999 0.92251
 C137 C 0.26860 0.67306 0.94157
 C138 C 0.35929 0.69328 0.93967
 C139 C 0.38176 0.71409 0.92027
 C140 C 0.38236 0.75002 0.92544
 C141 C 0.35998 0.76514 0.94987
 C142 C 0.33738 0.74431 0.96930
 C143 C 0.32822 0.73086 1.06544
 C144 C 0.35180 0.75131 1.08389
 C145 C 0.38753 0.74791 1.07781
 C146 C 0.39957 0.72381 1.05336
 C147 C 0.37601 0.70335 1.03496
 C148 C 0.25553 0.66294 1.03758
 C149 C 0.23449 0.63986 1.05619
 C150 C 0.24942 0.61656 1.07971
 C151 C 0.28540 0.61690 1.08493
 C152 C 0.30640 0.63988 1.06632
 H153 H 0.31431 0.61441 0.98933
 H154 H 0.27807 0.57388 0.95598
 H155 H 0.22997 0.66003 0.90365
 H156 H 0.26590 0.70069 0.93728
 H157 H 0.35955 0.66547 0.93563
 H158 H 0.39894 0.70211 0.90146
 H159 H 0.32019 0.75633 0.98805
 H160 H 0.30066 0.73380 1.07030
 H161 H 0.34212 0.76969 1.10288
 H162 H 0.42715 0.72070 1.04860
 H163 H 0.38571 0.68459 1.01639
 H164 H 0.24366 0.68069 1.01939
 H165 H 0.20668 0.64000 1.05195
 H166 H 0.29734 0.59909 1.10306
 H167 H 0.33424 0.63930 1.07023
 H168 H 0.36016 0.79294 0.95402
 C169 C -0.02046 0.31493 0.31412
 C170 C 0.01495 0.31436 0.31439
 C171 C 0.03456 0.29254 0.33923
 C172 C 0.03597 0.33715 0.29136
 C173 C -0.03998 0.34004 0.29251
 C174 C -0.04148 0.29195 0.33696
 C175 C 0.02941 0.29604 0.37515
 C176 C 0.04844 0.27575 0.39829
 C177 C 0.07303 0.25205 0.38579
 C178 C 0.07858 0.24875 0.35006
 C179 C 0.05953 0.26901 0.32688
 C180 C 0.06072 0.35953 0.30600
 C181 C 0.07974 0.38217 0.28505
 C182 C 0.07446 0.38260 0.24918
 C183 C 0.05039 0.35982 0.23424
 C184 C 0.03134 0.33705 0.25521
 C185 C -0.06484 0.32800 0.26883
 C186 C -0.08343 0.35142 0.24842
 C187 C -0.07754 0.38715 0.25172
 C188 C -0.05312 0.39933 0.27568
 C189 C -0.03457 0.37592 0.29611
 C190 C -0.03691 0.25576 0.33681
 C191 C -0.05583 0.23482 0.35972
 C192 C -0.07975 0.24985 0.38274
 C193 C -0.08502 0.28579 0.38232
 C194 C -0.06611 0.30668 0.35951
 H195 H 0.01083 0.31460 0.38520
 H196 H 0.04414 0.27869 0.42590
 H197 H 0.09768 0.23063 0.34014
 H198 H 0.06408 0.26623 0.29930
 H199 H 0.06476 0.35997 0.33377
 H200 H 0.09830 0.39965 0.29688
 H201 H 0.01278 0.31962 0.24335
 H202 H -0.06957 0.30044 0.26597
 H203 H -0.10237 0.34164 0.23012
 H204 H -0.04848 0.42690 0.27870
 H205 H -0.01604 0.38573 0.31478
 H206 H -0.01846 0.24382 0.31923
 H207 H -0.05155 0.20704 0.35966
 H208 H -0.10344 0.29779 0.39992
 H209 H -0.07010 0.33449 0.35999
 H210 H 0.04617 0.35986 0.20649
 C211 C -0.01730 0.68591 0.68651
 C212 C 0.01810 0.68656 0.68555
 C213 C 0.03725 0.70829 0.66014
 C214 C 0.03945 0.66402 0.70835
 C215 C -0.03650 0.66058 0.70828
 C216 C -0.03860 0.70899 0.66420
 C217 C 0.03146 0.70454 0.62439
 C218 C 0.04968 0.72504 0.60068
 C219 C 0.07412 0.74921 0.61244
 C220 C 0.08039 0.75270 0.64800
 C221 C 0.06214 0.73221 0.67176
 C222 C 0.06419 0.64171 0.69348
 C223 C 0.08333 0.61912 0.71426
 C224 C 0.07816 0.61871 0.75018
 C225 C 0.05416 0.64147 0.76534
 C226 C 0.03501 0.66418 0.74455
 C227 C -0.06132 0.67232 0.73229
 C228 C -0.07972 0.64865 0.75273
 C229 C -0.07366 0.61299 0.74914
 C230 C -0.04924 0.60111 0.72489
 C231 C -0.03089 0.62476 0.70443
 C232 C -0.03394 0.74518 0.66446
 C233 C -0.05290 0.76623 0.64183
 C234 C -0.07694 0.75133 0.61901
 C235 C -0.08236 0.71540 0.61938
 C236 C -0.06340 0.69439 0.64191
 H237 H 0.01291 0.68568 0.61490
 H238 H 0.04484 0.72195 0.57320
 H239 H 0.09940 0.77118 0.65734
 H240 H 0.06717 0.73520 0.69921
 H241 H 0.06809 0.64122 0.66566
 H242 H 0.10183 0.60164 0.70225
 H243 H 0.01647 0.68157 0.75660
 H244 H -0.06621 0.69983 0.73534
 H245 H -0.09868 0.65820 0.77124
 H246 H -0.04449 0.57358 0.72163
 H247 H -0.01240 0.61518 0.68550
 H248 H -0.01534 0.75701 0.68184
 H249 H -0.04851 0.79400 0.64192
 H250 H -0.10088 0.70349 0.60192
 H251 H -0.06745 0.66658 0.64135
 H252 H 0.05003 0.64144 0.79313
 C253 C 1.01752 0.68500 0.31411
 C254 C 0.98211 0.68549 0.31521
 C255 C 0.96292 0.70725 0.34064
 C256 C 0.96077 0.66289 0.29239
 C257 C 1.03681 0.65984 0.29211
 C258 C 1.03877 0.70821 0.33640
 C259 C 0.96883 0.70376 0.37641
 C260 C 0.95061 0.72435 0.40010
 C261 C 0.92606 0.74836 0.38834
 C262 C 0.91968 0.75158 0.35277
 C263 C 0.93792 0.73102 0.32904
 C264 C 0.93614 0.64045 0.30724
 C265 C 0.91700 0.61783 0.28642
 C266 C 0.92205 0.61753 0.25048
 C267 C 0.94593 0.64043 0.23534
 C268 C 0.96509 0.66316 0.25618
 C269 C 1.06163 0.67183 0.26823
 C270 C 1.08016 0.64837 0.24761
 C271 C 1.07424 0.61264 0.25088
 C272 C 1.04980 0.60052 0.27499
 C273 C 1.03132 0.62397 0.29563
 C274 C 1.03401 0.74438 0.33613
 C275 C 1.05286 0.76555 0.35878
 C276 C 1.07691 0.75080 0.38164
 C277 C 1.08245 0.71490 0.38126
 C278 C 1.06360 0.69376 0.35870
 H279 H 0.98747 0.68505 0.38591
 H280 H 0.95555 0.72145 0.42758
 H281 H 0.90059 0.76993 0.34341
 H282 H 0.93280 0.73383 0.30159
 H283 H 0.93234 0.63988 0.33507
 H284 H 0.89859 0.60025 0.29840
 H285 H 0.98353 0.68065 0.24415
 H286 H 1.06644 0.69937 0.26541
 H287 H 1.09912 0.65812 0.22922
 H288 H 1.04514 0.57295 0.27802
 H289 H 1.01284 0.61418 0.31445
 H290 H 1.01538 0.75609 0.31873
 H291 H 1.04838 0.79331 0.35869
 H292 H 1.10099 0.70311 0.39875
 H293 H 1.06773 0.66597 0.35926
 H294 H 0.94997 0.64048 0.20754
 C295 C 1.01964 0.31450 0.68464
 C296 C 0.98425 0.31377 0.68440
 C297 C 0.96464 0.29197 0.65947
 C298 C 0.96325 0.33644 0.70752
 C299 C 1.03912 0.33967 0.70630
 C300 C 1.04069 0.29164 0.66174
 C301 C 0.96977 0.29556 0.62356
 C302 C 0.95064 0.27539 0.60034
 C303 C 0.92597 0.25172 0.61273
 C304 C 0.92046 0.24831 0.64845
 C305 C 0.93961 0.26845 0.67172
 C306 C 0.93861 0.35894 0.69299
 C307 C 0.91978 0.38166 0.71404
 C308 C 0.92517 0.38202 0.74989
 C309 C 0.94908 0.35908 0.76473
 C310 C 0.96793 0.33624 0.74366
 C311 C 1.06406 0.32769 0.72990
 C312 C 1.08269 0.35119 0.75028
 C313 C 1.07674 0.38687 0.74703
 C314 C 1.05225 0.39899 0.72318
 C315 C 1.03365 0.37553 0.70277
 C316 C 1.03622 0.25544 0.66183
 C317 C 1.05515 0.23460 0.63884
 C318 C 1.07897 0.24975 0.61583
 C319 C 1.08415 0.28570 0.61632
 C320 C 1.06523 0.30649 0.63921
 H321 H 0.98839 0.31413 0.61359
 H322 H 0.95492 0.27841 0.57273
 H323 H 0.90131 0.23021 0.65830
 H324 H 0.93506 0.26561 0.69929
 H325 H 0.93455 0.35946 0.66523
 H326 H 0.90133 0.39927 0.70230
 H327 H 0.98642 0.31871 0.75542
 H328 H 1.06885 0.30015 0.73270
 H329 H 1.10171 0.34156 0.76852
 H330 H 1.04764 0.42655 0.72028
 H331 H 1.01507 0.38529 0.68417
 H332 H 1.01782 0.24343 0.67940
 H333 H 1.05095 0.20679 0.63882
 H334 H 1.10250 0.29779 0.59871
 H335 H 1.06913 0.33432 0.63879
 H336 H 0.95337 0.35908 0.79247
 C337 C 0.31416 -0.01757 0.31127
 C338 C 0.31368 0.01780 0.31152
 C339 C 0.33668 0.03855 0.28856
 C340 C 0.29178 0.03757 0.33639
 C341 C 0.29104 -0.03825 0.33418
 C342 C 0.33937 -0.03743 0.28984
 C343 C 0.35909 0.06324 0.30324
 C344 C 0.38216 0.08182 0.28237
 C345 C 0.38297 0.07613 0.24655
 C346 C 0.36012 0.05218 0.23155
 C347 C 0.33692 0.03358 0.25244
 C348 C 0.29524 0.03263 0.37230
 C349 C 0.27478 0.05164 0.39548
 C350 C 0.25095 0.07604 0.38305
 C351 C 0.24773 0.08143 0.34732
 C352 C 0.26816 0.06238 0.32409
 C353 C 0.25481 -0.03371 0.33380
 C354 C 0.23374 -0.05217 0.35693
 C355 C 0.24867 -0.07554 0.38033
 C356 C 0.28461 -0.08080 0.38015
 C357 C 0.30567 -0.06237 0.35714
 C358 C 0.32738 -0.06286 0.26670
 C359 C 0.35089 -0.08225 0.24693
 C360 C 0.38666 -0.07660 0.25034
 C361 C 0.39879 -0.05151 0.27368
 C362 C 0.37529 -0.03216 0.29347
 H363 H 0.35927 0.06751 0.33099
 H364 H 0.39971 0.10030 0.29423
 H365 H 0.36048 0.04767 0.20383
 H366 H 0.31947 0.01505 0.24056
 H367 H 0.31387 0.01418 0.38232
 H368 H 0.27768 0.04746 0.42309
 H369 H 0.26542 0.06678 0.29651
 H370 H 0.24299 -0.01561 0.31593
 H371 H 0.20592 -0.04802 0.35678
 H372 H 0.29641 -0.09886 0.39810
 H373 H 0.33351 -0.06629 0.35780
 H374 H 0.29979 -0.06753 0.26384
 H375 H 0.34113 -0.10167 0.22909
 H376 H 0.42639 -0.04701 0.27677
 H377 H 0.38507 -0.01324 0.31177
 H378 H 0.22951 0.10037 0.33744
 C379 C 0.68407 -0.01676 0.68749
 C380 C 0.68443 0.01863 0.68706
 C381 C 0.66152 0.03944 0.71015
 C382 C 0.70628 0.03835 0.66208
 C383 C 0.70738 -0.03751 0.66476
 C384 C 0.65900 -0.03660 0.70914
 C385 C 0.63899 0.06404 0.69560
 C386 C 0.61607 0.08271 0.71662
 C387 C 0.61554 0.07719 0.75247
 C388 C 0.63851 0.05332 0.76732
 C389 C 0.66155 0.03464 0.74628
 C390 C 0.70302 0.03302 0.62619
 C391 C 0.72354 0.05186 0.60292
 C392 C 0.74725 0.07649 0.61523
 C393 C 0.75026 0.08229 0.65094
 C394 C 0.72976 0.06341 0.67425
 C395 C 0.74358 -0.03271 0.66517
 C396 C 0.76485 -0.05132 0.64230
 C397 C 0.75015 -0.07511 0.61911
 C398 C 0.71423 -0.08061 0.61924
 C399 C 0.69298 -0.06202 0.64200
 C400 C 0.67116 -0.06184 0.73234
 C401 C 0.64780 -0.08109 0.75243
 C402 C 0.61199 -0.07549 0.74931
 C403 C 0.59969 -0.05061 0.72590
 C404 C 0.62304 -0.03140 0.70579
 H405 H 0.63860 0.06821 0.66784
 H406 H 0.59844 0.10112 0.70486
 H407 H 0.63840 0.04894 0.79505
 H408 H 0.67910 0.01620 0.75808
 H409 H 0.68451 0.01436 0.61624
 H410 H 0.72080 0.04735 0.57534
 H411 H 0.73238 0.06812 0.70180
 H412 H 0.75525 -0.01432 0.68290
 H413 H 0.79264 -0.04698 0.64250
 H414 H 0.70259 -0.09899 0.60145
 H415 H 0.66516 -0.06617 0.64132
 H416 H 0.69876 -0.06645 0.73501
 H417 H 0.65771 -0.10034 0.77031
 H418 H 0.57206 -0.04615 0.72301
 H419 H 0.61310 -0.01262 0.68747
 H420 H 0.76837 0.10141 0.66075
 C421 C 0.31360 1.01731 0.68416
 C422 C 0.31352 0.98193 0.68421
 C423 C 0.33812 0.96193 0.70590
 C424 C 0.29044 0.96147 0.66103
 C425 C 0.29244 1.03738 0.65916
 C426 C 0.33645 1.03775 0.70758
 C427 C 0.37413 0.96679 0.70248
 C428 C 0.39708 0.94803 0.72320
 C429 C 0.38430 0.92399 0.74724
 C430 C 0.34847 0.91857 0.75033
 C431 C 0.32547 0.93737 0.72963
 C432 C 0.30502 0.93675 0.63852
 C433 C 0.28405 0.91834 0.61545
 C434 C 0.24819 0.92419 0.61473
 C435 C 0.23330 0.94821 0.63764
 C436 C 0.25429 0.96665 0.66083
 C437 C 0.26881 1.06232 0.67133
 C438 C 0.24879 1.08140 0.64798
 C439 C 0.25246 1.07589 0.61228
 C440 C 0.27638 1.05143 0.59997
 C441 C 0.29643 1.03238 0.62328
 C442 C 0.33581 1.03283 0.74370
 C443 C 0.35863 1.05131 0.76505
 C444 C 0.38203 1.07510 0.75054
 C445 C 0.38218 1.08066 0.71470
 C446 C 0.35948 1.06221 0.69336
 H447 H 0.38439 0.98511 0.68380
 H448 H 0.42478 0.95220 0.72042
 H449 H 0.33835 0.89986 0.76871
 H450 H 0.29779 0.93308 0.73235
 H451 H 0.33279 0.93228 0.63828
 H452 H 0.29586 0.89979 0.59789
 H453 H 0.24244 0.98518 0.67835
 H454 H 0.26567 1.06673 0.69889
 H455 H 0.23047 1.10039 0.65773
 H456 H 0.27958 1.04716 0.57238
 H457 H 0.31508 1.01378 0.61340
 H458 H 0.31788 1.01450 0.75525
 H459 H 0.35818 1.04689 0.79278
 H460 H 0.40012 1.09904 0.70318
 H461 H 0.36036 1.06648 0.66562
 H462 H 0.20556 0.95286 0.63741
 C463 C 0.68612 1.01657 0.31638
 C464 C 0.68611 0.98120 0.31652
 C465 C 0.66137 0.96110 0.29501
 C466 C 0.70925 0.96084 0.33966
 C467 C 0.70740 1.03684 0.34116
 C468 C 0.66316 1.03683 0.29297
 C469 C 0.62539 0.96596 0.29864
 C470 C 0.60231 0.94718 0.27801
 C471 C 0.61494 0.92313 0.25387
 C472 C 0.65074 0.91770 0.25059
 C473 C 0.67388 0.93651 0.27119
 C474 C 0.69472 0.93615 0.36221
 C475 C 0.71575 0.91773 0.38515
 C476 C 0.75162 0.92354 0.38572
 C477 C 0.76647 0.94756 0.36279
 C478 C 0.74541 0.96600 0.33973
 C479 C 0.73087 1.06182 0.32875
 C480 C 0.75091 1.08121 0.35188
 C481 C 0.74743 1.07597 0.38766
 C482 C 0.72368 1.05143 0.40020
 C483 C 0.70362 1.03209 0.37708
 C484 C 0.66370 1.03169 0.25687
 C485 C 0.64072 1.04992 0.23553
 C486 C 0.61728 1.07367 0.25004
 C487 C 0.61724 1.07946 0.28586
 C488 C 0.64010 1.06125 0.30718
 H489 H 0.61526 0.98431 0.31739
 H490 H 0.57463 0.95136 0.28094
 H491 H 0.66075 0.89899 0.23213
 H492 H 0.70153 0.93224 0.26832
 H493 H 0.66694 0.93169 0.36255
 H494 H 0.70398 0.89920 0.40273
 H495 H 0.75723 0.98450 0.32217
 H496 H 0.73384 1.06604 0.30114
 H497 H 0.76907 1.10022 0.34184
 H498 H 0.72055 1.04729 0.42782
 H499 H 0.68509 1.01347 0.38714
 H500 H 0.68164 1.01337 0.24532
 H501 H 0.64109 1.04535 0.20782
 H502 H 0.59928 1.09782 0.29737
 H503 H 0.63930 1.06567 0.33491
 H504 H 0.79422 0.95218 0.36291
 O505 O 0.83630 0.88368 0.53659
 O506 O 0.88439 0.83460 0.46982
 O507 O 0.83694 0.88309 0.46896
 O508 O 0.88395 0.83561 0.53728
 O509 O 0.84298 0.79537 0.53740
 O510 O 0.79609 0.84275 0.46923
 O511 O 0.84341 0.79439 0.47010
 O512 O 0.79546 0.84332 0.53668
 Cu513 Cu 0.86451 0.86334 0.50311
 Cu514 Cu 0.81535 0.81494 0.50335
 C515 C 0.80772 0.87172 0.54789
 C516 C 0.87209 0.80609 0.45887
 C517 C 0.80849 0.87096 0.45765
 C518 C 0.87143 0.80740 0.54877
 O519 O 0.11743 0.16675 0.46602
 O520 O 0.16669 0.11862 0.53198
 O521 O 0.11846 0.16600 0.53346
 O522 O 0.16567 0.11900 0.46471
 O523 O 0.20604 0.15984 0.46436
 O524 O 0.15890 0.20677 0.53302
 O525 O 0.20707 0.15946 0.53155
 O526 O 0.15786 0.20753 0.46566
 Cu527 Cu 0.13796 0.13848 0.49902
 Cu528 Cu 0.18651 0.18755 0.49855
 C529 C 0.12924 0.19539 0.45489
 C530 C 0.19528 0.13085 0.54275
 C531 C 0.13072 0.19437 0.54479
 C532 C 0.19402 0.13130 0.45322
 O533 O 0.11552 0.83502 0.53072
 O534 O 0.16324 0.88382 0.46367
 O535 O 0.11581 0.83554 0.46328
 O536 O 0.16295 0.88354 0.53132
 O537 O 0.20386 0.84330 0.53104
 O538 O 0.15686 0.79543 0.46317
 O539 O 0.20416 0.84358 0.46357
 O540 O 0.15657 0.79491 0.53045
 Cu541 Cu 0.13526 0.86357 0.49730
 Cu542 Cu 0.18452 0.81530 0.49707
 C543 C 0.12791 0.80662 0.54172
 C544 C 0.19176 0.87185 0.45229
 C545 C 0.12836 0.80731 0.45184
 C546 C 0.19143 0.87152 0.54260
 O547 O 0.88136 0.16660 0.53231
 O548 O 0.83217 0.11840 0.46625
 O549 O 0.88042 0.16589 0.46484
 O550 O 0.83290 0.11900 0.53352
 O551 O 0.79264 0.15989 0.53379
 O552 O 0.84005 0.20668 0.46521
 O553 O 0.79185 0.15925 0.46659
 O554 O 0.84104 0.20743 0.53260
 Cu555 Cu 0.86081 0.13837 0.49925
 Cu556 Cu 0.81237 0.18746 0.49962
 C557 C 0.86961 0.19527 0.54343
 C558 C 0.80360 0.13060 0.45544
 C559 C 0.86825 0.19427 0.45350
 C560 C 0.80455 0.13135 0.54497
 O561 O 0.46481 0.88204 0.83350
 O562 O 0.53206 0.83449 0.88179
 O563 O 0.53221 0.88230 0.83372
 O564 O 0.46448 0.83515 0.88228
 O565 O 0.46445 0.79413 0.84216
 O566 O 0.53213 0.84131 0.79357
 O567 O 0.53195 0.79357 0.84157
 O568 O 0.46482 0.84094 0.79345
 Cu569 Cu 0.49843 0.86262 0.86190
 Cu570 Cu 0.49835 0.81332 0.81368
 C571 C 0.45367 0.86958 0.80518
 C572 C 0.54319 0.80587 0.86988
 C573 C 0.54335 0.86996 0.80529
 C574 C 0.45312 0.80661 0.87047
 O575 O 0.53714 0.16297 0.11605
 O576 O 0.46771 0.11603 0.16225
 O577 O 0.46959 0.16468 0.11517
 O578 O 0.53544 0.11495 0.16358
 O579 O 0.53533 0.15524 0.20443
 O580 O 0.46969 0.20480 0.15620
 O581 O 0.46778 0.15629 0.20314
 O582 O 0.53707 0.20314 0.15704
 Cu583 Cu 0.50244 0.13557 0.13514
 Cu584 Cu 0.50245 0.18388 0.18435
 C585 C 0.54871 0.19105 0.12872
 C586 C 0.45610 0.12823 0.19055
 C587 C 0.45868 0.19324 0.12747
 C588 C 0.54650 0.12678 0.19221
 O589 O 0.46281 0.16465 0.88463
 O590 O 0.53166 0.11745 0.83761
 O591 O 0.53041 0.16591 0.88504
 O592 O 0.46393 0.11659 0.83691
 O593 O 0.46394 0.15697 0.79623
 O594 O 0.53023 0.20614 0.84421
 O595 O 0.53150 0.15781 0.79692
 O596 O 0.46280 0.20489 0.84381
 Cu597 Cu 0.49723 0.13706 0.86515
 Cu598 Cu 0.49712 0.18548 0.81617
 C599 C 0.45131 0.19283 0.87218
 C600 C 0.54312 0.12964 0.80926
 C601 C 0.54140 0.19444 0.87280
 C602 C 0.45275 0.12850 0.80838
 O603 O 0.53442 0.88079 0.16764
 O604 O 0.46763 0.83259 0.11917
 O605 O 0.46704 0.88079 0.16689
 O606 O 0.53521 0.83370 0.11906
 O607 O 0.53515 0.79294 0.15937
 O608 O 0.46700 0.84010 0.20726
 O609 O 0.46765 0.79195 0.15960
 O610 O 0.53431 0.83995 0.20788
 Cu611 Cu 0.50104 0.86106 0.13909
 Cu612 Cu 0.50099 0.81209 0.18756
 C613 C 0.54546 0.86855 0.19607
 C614 C 0.45652 0.80400 0.13117
 C615 C 0.45577 0.86861 0.19530
 C616 C 0.54663 0.80533 0.13110
 O617 O 0.83613 0.46644 0.88234
 O618 O 0.88476 0.53303 0.83378
 O619 O 0.83673 0.53414 0.88173
 O620 O 0.88441 0.46557 0.83488
 O621 O 0.84396 0.46539 0.79430
 O622 O 0.79640 0.53382 0.84105
 O623 O 0.84430 0.53270 0.79322
 O624 O 0.79580 0.46628 0.84164
 Cu625 Cu 0.86456 0.49986 0.86233
 Cu626 Cu 0.81601 0.49955 0.81349
 C627 C 0.80777 0.45509 0.87009
 C628 C 0.87281 0.54392 0.80518
 C629 C 0.80848 0.54550 0.86931
 C630 C 0.87224 0.45400 0.80661
 O631 O 0.16508 0.46651 0.11716
 O632 O 0.11640 0.53322 0.16572
 O633 O 0.16476 0.53424 0.11797
 O634 O 0.11645 0.46576 0.16438
 O635 O 0.15666 0.46540 0.20519
 O636 O 0.20485 0.53375 0.15887
 O637 O 0.15662 0.53272 0.20651
 O638 O 0.20516 0.46617 0.15809
 Cu639 Cu 0.13666 0.50002 0.13714
 Cu640 Cu 0.18490 0.49950 0.18623
 C641 C 0.19334 0.45505 0.12951
 C642 C 0.12820 0.54402 0.19446
 C643 C 0.19301 0.54549 0.13056
 C644 C 0.12836 0.45414 0.19271
 O645 O 0.88198 0.46659 0.16656
 O646 O 0.83458 0.53311 0.11720
 O647 O 0.88182 0.53412 0.16551
 O648 O 0.83491 0.46580 0.11781
 O649 O 0.79364 0.46615 0.15781
 O650 O 0.84051 0.53441 0.20546
 O651 O 0.79333 0.53338 0.15724
 O652 O 0.84065 0.46696 0.20649
 Cu653 Cu 0.86253 0.49983 0.13776
 Cu654 Cu 0.81290 0.50022 0.18582
 C655 C 0.86939 0.45571 0.19497
 C656 C 0.80582 0.54429 0.12881
 C657 C 0.86910 0.54574 0.19359
 C658 C 0.80616 0.45473 0.12957
 O659 O 0.11851 0.46761 0.83331
 O660 O 0.16611 0.53398 0.88284
 O661 O 0.11867 0.53515 0.83472
 O662 O 0.16587 0.46670 0.88175
 O663 O 0.20694 0.46729 0.84155
 O664 O 0.15979 0.53565 0.79458
 O665 O 0.20718 0.53449 0.84262
 O666 O 0.15964 0.46820 0.79318
 Cu667 Cu 0.13810 0.50077 0.86218
 Cu668 Cu 0.18749 0.50144 0.81389
 C669 C 0.13097 0.45684 0.80479
 C670 C 0.19481 0.54523 0.87118
 C671 C 0.13125 0.54689 0.80665
 C672 C 0.19457 0.45573 0.86978
 C673 C 0.22948 0.40794 0.09522
 C674 C 0.21259 0.42926 0.11075
 C675 C 0.77000 0.58979 0.09261
 C676 C 0.78667 0.56925 0.10916
 C677 C 0.77179 0.40794 0.90432
 C678 C 0.78859 0.42929 0.88882
 C679 C 0.23086 0.59039 0.90772
 C680 C 0.21409 0.57004 0.89099
 C681 C 0.09293 0.23158 0.40972
 C682 C 0.10956 0.21480 0.43011
 C683 C 0.09308 0.77000 0.58791
 C684 C 0.10897 0.78701 0.56703
 C685 C 0.90708 0.76925 0.41284
 C686 C 0.89114 0.78636 0.43366
 C687 C 0.90598 0.23138 0.58872
 C688 C 0.88929 0.21466 0.56827
 C689 C 0.40800 0.09433 0.22564
 C690 C 0.42966 0.10973 0.20912
 C691 C 0.59074 0.09553 0.77359
 C692 C 0.56929 0.11103 0.79036
 C693 C 0.40810 0.90465 0.76835
 C694 C 0.42858 0.88858 0.78553
 C695 C 0.59103 0.90380 0.23284
 C696 C 0.57051 0.88768 0.21569
 C697 C 0.40410 0.22892 0.90635
 C698 C 0.42531 0.21192 0.89080
 C699 C 0.58931 0.76980 0.90514
 C700 C 0.56851 0.78662 0.88905
 C701 C 0.41058 0.76756 0.09594
 C702 C 0.43133 0.78454 0.11200
 C703 C 0.59637 0.22684 0.09504
 C704 C 0.57496 0.20999 0.11039
 C705 C 0.23193 0.09546 0.58819
 C706 C 0.21499 0.11171 0.56766
 C707 C 0.76688 0.09480 0.41027
 C708 C 0.78385 0.11129 0.43064
 C709 C 0.77154 0.90646 0.59461
 C710 C 0.78854 0.89077 0.57351
 C711 C 0.22750 0.90625 0.40509
 C712 C 0.21071 0.89071 0.42643
 C713 C 0.09598 0.41112 0.76782
 C714 C 0.11202 0.43177 0.78493
 C715 C 0.09256 0.58969 0.23115
 C716 C 0.10882 0.56906 0.21409
 C717 C 0.90429 0.41005 0.23198
 C718 C 0.88830 0.43066 0.21483
 C719 C 0.90818 0.58984 0.76872
 C720 C 0.89206 0.56907 0.78567
 C721 C 0.77263 0.59319 0.90311
 C722 C 0.78943 0.57169 0.88773
 C723 C 0.23071 0.40980 0.90532
 C724 C 0.21389 0.43042 0.88896
 C725 C 0.22935 0.59301 0.09694
 C726 C 0.21235 0.57159 0.11225
 C727 C 0.77026 0.40882 0.09358
 C728 C 0.78697 0.42944 0.11014
 C729 C 0.90556 0.77136 0.59581
 C730 C 0.89002 0.78828 0.57465
 C731 C 0.90267 0.22993 0.40611
 C732 C 0.88700 0.21316 0.42742
 C733 C 0.09651 0.22993 0.59236
 C734 C 0.11211 0.21323 0.57096
 C735 C 0.09431 0.77097 0.40485
 C736 C 0.10979 0.78802 0.42601
 C737 C 0.58913 0.90566 0.76870
 C738 C 0.56853 0.88918 0.78561
 C739 C 0.40966 0.90442 0.23129
 C740 C 0.43041 0.88785 0.21467
 C741 C 0.59285 0.09193 0.22855
 C742 C 0.57189 0.10760 0.21148
 C743 C 0.40636 0.09355 0.77205
 C744 C 0.42730 0.10932 0.78912
 C745 C 0.59377 0.77004 0.09597
 C746 C 0.57255 0.78651 0.11208
 C747 C 0.41298 0.23037 0.09257
 C748 C 0.43369 0.21315 0.10842
 C749 C 0.58764 0.23117 0.90757
 C750 C 0.56668 0.21415 0.89176
 C751 C 0.40656 0.77098 0.90610
 C752 C 0.42749 0.78765 0.88981
 C753 C 0.77279 0.90523 0.41040
 C754 C 0.78957 0.88969 0.43169
 C755 C 0.22709 0.90589 0.58993
 C756 C 0.21034 0.89033 0.56857
 C757 C 0.23025 0.09579 0.40710
 C758 C 0.21337 0.11215 0.42779
 C759 C 0.76808 0.09606 0.59110
 C760 C 0.78506 0.11229 0.57038
 C761 C 0.90333 0.59296 0.22950
 C762 C 0.88768 0.57171 0.21271
 C763 C 0.90668 0.40665 0.77103
 C764 C 0.89103 0.42797 0.78777
 C765 C 0.09689 0.59415 0.77108
 C766 C 0.11258 0.57289 0.78775
 C767 C 0.09330 0.40707 0.22812
 C768 C 0.10924 0.42824 0.21146
   
