data_POSCAR
  _audit_creation_date              2014-09-24
  _audit_creation_method            'ToBaCCo'
  _symmetry_space_group_name_H-M    'P1'
  _symmetry_Int_Tables_number       1
  _symmetry_cell_setting            triclinic
  loop_
  _symmetry_equiv_pos_as_xyz
 x,y,z
_cell_length_a 43.9007
_cell_length_b 45.2868
_cell_length_c 45.2706
_cell_angle_alpha 90.092000
_cell_angle_beta 89.980700
_cell_angle_gamma 89.971300
loop_
  _atom_site_label
  _atom_site_type_symbol
  _atom_site_fract_x
  _atom_site_fract_y
  _atom_site_fract_z
C1 C 0.27471 0.23282 0.23840
 C2 C 0.26199 0.22061 0.26406
 C3 C 0.23708 0.23387 0.27720
 C4 C 0.22447 0.25951 0.26488
 C5 C 0.23701 0.27151 0.23964
 C6 C 0.26227 0.25804 0.22628
 C7 C 0.29908 0.22484 0.22098
 N8 N 0.30169 0.24453 0.19840
 C9 C 0.27907 0.26487 0.20160
 C10 C 0.22039 0.29630 0.23279
 N11 N 0.19779 0.29967 0.25313
 C12 C 0.20023 0.27709 0.27283
 C13 C 0.22976 0.21744 0.30172
 N14 N 0.24950 0.19432 0.30380
 C15 C 0.26927 0.19621 0.28068
 H16 H 0.31401 0.20627 0.22495
 H17 H 0.27467 0.28321 0.18694
 H18 H 0.22492 0.31094 0.21446
 H19 H 0.18531 0.27326 0.29145
 H20 H 0.21160 0.22241 0.31709
 H21 H 0.28745 0.18081 0.27587
 C22 C 0.72533 -0.23488 0.23840
 C23 C 0.73762 -0.22285 0.26435
 C24 C 0.76176 -0.23666 0.27818
 C25 C 0.77410 -0.26260 0.26615
 C26 C 0.76203 -0.27438 0.24062
 C27 C 0.73744 -0.26039 0.22662
 C28 C 0.70162 -0.22643 0.22048
 N29 N 0.69875 -0.24620 0.19781
 C30 C 0.72094 -0.26702 0.20167
 C31 C 0.77860 -0.29928 0.23396
 N32 N 0.80080 -0.30312 0.25477
 C33 C 0.79785 -0.28048 0.27458
 C34 C 0.76885 -0.22025 0.30283
 N35 N 0.74967 -0.19665 0.30433
 C36 C 0.73051 -0.19819 0.28073
 H37 H 0.68790 -0.20694 0.22405
 H38 H 0.72485 -0.28622 0.18800
 H39 H 0.77474 -0.31293 0.21474
 H40 H 0.81157 -0.27690 0.29405
 H41 H 0.78647 -0.22553 0.31865
 H42 H 0.71289 -0.18236 0.27542
 C43 C 0.72531 0.23584 0.76064
 C44 C 0.73760 0.22372 0.73472
 C45 C 0.76166 0.23753 0.72077
 C46 C 0.77391 0.26357 0.73265
 C47 C 0.76182 0.27543 0.75814
 C48 C 0.73732 0.26144 0.77227
 C49 C 0.70169 0.22737 0.77867
 N50 N 0.69879 0.24723 0.80127
 C51 C 0.72087 0.26811 0.79725
 C52 C 0.77830 0.30039 0.76468
 N53 N 0.80047 0.30420 0.74382
 C54 C 0.79760 0.28147 0.72411
 C55 C 0.76878 0.22099 0.69620
 N56 N 0.74968 0.19733 0.69488
 C57 C 0.73056 0.19895 0.71851
 H58 H 0.68808 0.20781 0.77525
 H59 H 0.72472 0.28737 0.81084
 H60 H 0.77444 0.31409 0.78387
 H61 H 0.81132 0.27785 0.70464
 H62 H 0.78635 0.22621 0.68030
 H63 H 0.71303 0.18310 0.72396
 C64 C 0.27389 -0.23359 0.76325
 C65 C 0.26153 -0.22160 0.73733
 C66 C 0.23732 -0.23540 0.72359
 C67 C 0.22496 -0.26126 0.73568
 C68 C 0.23709 -0.27298 0.76116
 C69 C 0.26176 -0.25902 0.77507
 C70 C 0.29772 -0.22519 0.78107
 N71 N 0.30064 -0.24493 0.80371
 C72 C 0.27836 -0.26566 0.79993
 C73 C 0.22053 -0.29785 0.76785
 N74 N 0.19829 -0.30172 0.74708
 C75 C 0.20119 -0.27913 0.72729
 C76 C 0.23020 -0.21910 0.69893
 N77 N 0.24944 -0.19558 0.69732
 C78 C 0.26867 -0.19706 0.72087
 H79 H 0.31151 -0.20579 0.77744
 H80 H 0.27445 -0.28482 0.81359
 H81 H 0.22445 -0.31147 0.78703
 H82 H 0.18745 -0.27560 0.70783
 H83 H 0.21254 -0.22442 0.68316
 H84 H 0.28636 -0.18127 0.72608
 C85 C 0.72520 -0.23399 0.76213
 C86 C 0.73750 -0.22195 0.73620
 C87 C 0.76167 -0.23574 0.72235
 C88 C 0.77403 -0.26166 0.73431
 C89 C 0.76196 -0.27344 0.75980
 C90 C 0.73734 -0.25948 0.77383
 C91 C 0.70146 -0.22557 0.78007
 N92 N 0.69860 -0.24536 0.80268
 C93 C 0.72083 -0.26614 0.79875
 C94 C 0.77854 -0.29832 0.76639
 N95 N 0.80076 -0.30215 0.74557
 C96 C 0.79781 -0.27952 0.72583
 C97 C 0.76877 -0.21935 0.69774
 N98 N 0.74957 -0.19577 0.69628
 C99 C 0.73038 -0.19731 0.71987
 H100 H 0.68770 -0.20612 0.77656
 H101 H 0.72477 -0.28533 0.81235
 H102 H 0.77468 -0.31197 0.78557
 H103 H 0.81154 -0.27594 0.70636
 H104 H 0.78641 -0.22464 0.68191
 H105 H 0.71274 -0.18150 0.72520
 C106 C 0.27586 0.23516 0.76138
 C107 C 0.26275 0.22244 0.73613
 C108 C 0.23817 0.23587 0.72265
 C109 C 0.22625 0.26218 0.73429
 C110 C 0.23922 0.27470 0.75911
 C111 C 0.26419 0.26104 0.77276
 C112 C 0.29989 0.22700 0.77905
 N113 N 0.30329 0.24726 0.80122
 C114 C 0.28121 0.26816 0.79722
 C115 C 0.22294 0.29984 0.76556
 N116 N 0.20015 0.30290 0.74539
 C117 C 0.20216 0.27982 0.72616
 C118 C 0.23048 0.21894 0.69854
 N119 N 0.24972 0.19539 0.69700
 C120 C 0.26948 0.19745 0.72010
 H121 H 0.31330 0.20725 0.77582
 H122 H 0.27763 0.28765 0.81057
 H123 H 0.22767 0.31481 0.78362
 H124 H 0.18687 0.27558 0.70792
 H125 H 0.21251 0.22392 0.68299
 H126 H 0.28739 0.18186 0.72521
 C127 C 0.27415 -0.23433 0.23797
 C128 C 0.26176 -0.22237 0.26393
 C129 C 0.23753 -0.23617 0.27761
 C130 C 0.22519 -0.26203 0.26543
 C131 C 0.23735 -0.27373 0.23990
 C132 C 0.26204 -0.25976 0.22605
 C133 C 0.29798 -0.22591 0.22018
 N134 N 0.30092 -0.24563 0.19746
 C135 C 0.27865 -0.26638 0.20116
 C136 C 0.22081 -0.29860 0.23310
 N137 N 0.19854 -0.30249 0.25384
 C138 C 0.20140 -0.27991 0.27372
 C139 C 0.23039 -0.21986 0.30232
 N140 N 0.24962 -0.19634 0.30402
 C141 C 0.26887 -0.19782 0.28047
 H142 H 0.31175 -0.20650 0.22388
 H143 H 0.27476 -0.28552 0.18742
 H144 H 0.22476 -0.31220 0.21386
 H145 H 0.18763 -0.27640 0.29319
 H146 H 0.21270 -0.22517 0.31807
 H147 H 0.28656 -0.18203 0.27530
 C148 C 0.72704 0.23343 0.23821
 C149 C 0.73886 0.22186 0.26455
 C150 C 0.76317 0.23555 0.27826
 C151 C 0.77611 0.26097 0.26577
 C152 C 0.76453 0.27226 0.23985
 C153 C 0.73985 0.25838 0.22593
 C154 C 0.70316 0.22515 0.22037
 N155 N 0.70113 0.24443 0.19739
 C156 C 0.72372 0.26476 0.20071
 C157 C 0.78129 0.29692 0.23298
 N158 N 0.80314 0.30113 0.25407
 C159 C 0.79985 0.27889 0.27420
 C160 C 0.76983 0.21955 0.30323
 N161 N 0.75028 0.19628 0.30502
 C162 C 0.73124 0.19767 0.28132
 H163 H 0.68800 0.20677 0.22442
 H164 H 0.72839 0.28292 0.18591
 H165 H 0.77773 0.31023 0.21351
 H166 H 0.81315 0.27580 0.29403
 H167 H 0.78752 0.22480 0.31900
 H168 H 0.71348 0.18196 0.27612
 O169 O 0.22426 0.02801 0.47175
 O170 O 0.22428 -0.02920 0.52946
 O171 O 0.22418 0.02812 0.52945
 O172 O 0.22428 -0.02933 0.47179
 O173 O 0.27453 -0.02945 0.47194
 O174 O 0.27444 0.02828 0.52931
 O175 O 0.27453 -0.02934 0.52932
 O176 O 0.27452 0.02819 0.47194
 Cu177 Cu 0.21921 -0.00060 0.50061
 Cu178 Cu 0.27955 -0.00058 0.50063
 C179 C 0.24939 0.03790 0.46199
 C180 C 0.24941 -0.03908 0.53925
 C181 C 0.24930 0.03804 0.53924
 C182 C 0.24942 -0.03924 0.46202
 O183 O 0.72456 0.02871 0.52883
 O184 O 0.72453 -0.02906 0.47152
 O185 O 0.72449 -0.02893 0.52889
 O186 O 0.72452 0.02860 0.47152
 O187 O 0.77478 0.02840 0.47135
 O188 O 0.77474 -0.02882 0.52904
 O189 O 0.77479 -0.02896 0.47136
 O190 O 0.77482 0.02853 0.52896
 Cu191 Cu 0.71948 -0.00018 0.50019
 Cu192 Cu 0.77982 -0.00023 0.50017
 C193 C 0.74969 0.03851 0.53870
 C194 C 0.74966 -0.03887 0.46160
 C195 C 0.74961 -0.03868 0.53882
 C196 C 0.74965 0.03835 0.46163
 O197 O 0.47123 0.21912 0.02791
 O198 O 0.53060 0.21978 -0.02962
 O199 O 0.53075 0.21904 0.02782
 O200 O 0.47132 0.21984 -0.02961
 O201 O 0.47135 0.26853 -0.02884
 O202 O 0.53052 0.26776 0.02870
 O203 O 0.53066 0.26848 -0.02884
 O204 O 0.47156 0.26784 0.02879
 Cu205 Cu 0.50096 0.21456 -0.00093
 Cu206 Cu 0.50101 0.27303 -0.00002
 C207 C 0.46135 0.24339 0.03829
 C208 C 0.54079 0.24426 -0.03910
 C209 C 0.54074 0.24329 0.03813
 C210 C 0.46122 0.24434 -0.03912
 O211 O 0.52975 0.73181 0.02899
 O212 O 0.47039 0.73205 -0.02841
 O213 O 0.52967 0.73197 -0.02851
 O214 O 0.47046 0.73193 0.02908
 O215 O 0.47049 0.78063 0.02929
 O216 O 0.52975 0.78067 -0.02833
 O217 O 0.47042 0.78075 -0.02824
 O218 O 0.52983 0.78051 0.02920
 Cu219 Cu 0.50006 0.72706 0.00027
 Cu220 Cu 0.50013 0.78552 0.00050
 C221 C 0.53996 0.75611 0.03895
 C222 C 0.46022 0.75643 -0.03817
 C223 C 0.53986 0.75632 -0.03831
 C224 C 0.46032 0.75626 0.03906
 O225 O 0.02921 0.47086 0.23131
 O226 O -0.02958 0.52879 0.23170
 O227 O 0.02976 0.52848 0.23137
 O228 O -0.02982 0.47134 0.23171
 O229 O -0.02924 0.47110 0.28042
 O230 O 0.02980 0.52886 0.28008
 O231 O -0.02955 0.52866 0.28041
 O232 O 0.03012 0.47141 0.28004
 Cu233 Cu -0.00011 0.49991 0.22664
 Cu234 Cu 0.00031 0.50003 0.28513
 C235 C 0.03971 0.46120 0.25559
 C236 C -0.03974 0.53857 0.25610
 C237 C 0.03995 0.53852 0.25566
 C238 C -0.03963 0.46131 0.25611
 O239 O 0.02962 0.52975 0.71960
 O240 O -0.02950 0.47207 0.71876
 O241 O -0.02969 0.52960 0.71917
 O242 O 0.02994 0.47234 0.71918
 O243 O 0.02897 0.47157 0.76790
 O244 O -0.02982 0.52953 0.76789
 O245 O -0.03018 0.47211 0.76748
 O246 O 0.02949 0.52917 0.76831
 Cu247 Cu 0.00012 0.50096 0.71429
 Cu248 Cu -0.00040 0.50059 0.77277
 C249 C 0.03973 0.53931 0.74411
 C250 C -0.04002 0.46226 0.74299
 C251 C -0.03991 0.53944 0.74354
 C252 C 0.03957 0.46208 0.74356
 C253 C 0.36933 0.24347 0.13016
 C254 C 0.35239 0.26916 0.13608
 C255 C 0.33048 0.26954 0.15844
 C256 C 0.32450 0.24411 0.17530
 C257 C 0.34127 0.21831 0.16916
 C258 C 0.36348 0.21805 0.14703
 C259 C 0.39303 0.24330 0.10660
 C260 C 0.39809 0.21796 0.08923
 C261 C 0.42040 0.21789 0.06718
 C262 C 0.43787 0.24328 0.06171
 C263 C 0.43279 0.26863 0.07892
 C264 C 0.41081 0.26858 0.10123
 H265 H 0.31849 0.28998 0.16256
 H266 H 0.33722 0.19814 0.18126
 H267 H 0.42369 0.19808 0.05412
 H268 H 0.44611 0.28844 0.07541
 H269 H 0.37633 0.19796 0.14340
 H270 H 0.38452 0.19827 0.09236
 H271 H 0.35586 0.28903 0.12326
 H272 H 0.40806 0.28829 0.11453
 C273 C 0.63266 0.75543 0.13003
 C274 C 0.63137 0.77570 0.15345
 C275 C 0.65329 0.77530 0.17582
 C276 C 0.67735 0.75450 0.17557
 C277 C 0.67848 0.73433 0.15169
 C278 C 0.65650 0.73482 0.12938
 C279 C 0.60908 0.75564 0.10650
 C280 C 0.59737 0.72900 0.09529
 C281 C 0.57499 0.72916 0.07334
 C282 C 0.56380 0.75597 0.06209
 C283 C 0.57556 0.78261 0.07324
 C284 C 0.59793 0.78245 0.09521
 H285 H 0.65059 0.79114 0.19344
 H286 H 0.69642 0.71818 0.14960
 H287 H 0.56636 0.70825 0.06529
 H288 H 0.56750 0.80364 0.06499
 H289 H 0.65842 0.71922 0.11132
 H290 H 0.60518 0.70800 0.10381
 H291 H 0.61299 0.79160 0.15482
 H292 H 0.60677 0.80332 0.10312
 C293 C 0.63305 0.24547 -0.13063
 C294 C 0.63164 0.22528 -0.15410
 C295 C 0.65343 0.22573 -0.17659
 C296 C 0.67749 0.24651 -0.17640
 C297 C 0.67872 0.26663 -0.15249
 C298 C 0.65687 0.26608 -0.13005
 C299 C 0.60963 0.24515 -0.10694
 C300 C 0.59795 0.27172 -0.09551
 C301 C 0.57568 0.27143 -0.07345
 C302 C 0.56457 0.24456 -0.06230
 C303 C 0.57632 0.21798 -0.07365
 C304 C 0.59859 0.21828 -0.09572
 H305 H 0.65064 0.20996 -0.19426
 H306 H 0.69668 0.28275 -0.15045
 H307 H 0.56704 0.29230 -0.06525
 H308 H 0.56834 0.19690 -0.06547
 H309 H 0.65888 0.28162 -0.11195
 H310 H 0.60568 0.29277 -0.10397
 H311 H 0.61325 0.20940 -0.15542
 H312 H 0.60743 0.19744 -0.10378
 C313 C 0.36716 0.75640 -0.12890
 C314 C 0.36837 0.77669 -0.15224
 C315 C 0.34630 0.77640 -0.17448
 C316 C 0.32217 0.75570 -0.17416
 C317 C 0.32111 0.73554 -0.15034
 C318 C 0.34323 0.73592 -0.12816
 C319 C 0.39090 0.75645 -0.10552
 C320 C 0.40255 0.72974 -0.09450
 C321 C 0.42501 0.72974 -0.07264
 C322 C 0.43635 0.75646 -0.06128
 C323 C 0.42467 0.78319 -0.07225
 C324 C 0.40221 0.78318 -0.09414
 H325 H 0.34894 0.79224 -0.19206
 H326 H 0.30311 0.71948 -0.14818
 H327 H 0.43358 0.70876 -0.06473
 H328 H 0.43285 0.80416 -0.06391
 H329 H 0.34136 0.72032 -0.11015
 H330 H 0.39461 0.70879 -0.10311
 H331 H 0.38680 0.79250 -0.15366
 H332 H 0.39342 0.80412 -0.10190
 C333 C 0.13099 0.36866 0.25449
 C334 C 0.14774 0.36258 0.22872
 C335 C 0.16939 0.33996 0.22823
 C336 C 0.17524 0.32300 0.25363
 C337 C 0.15863 0.32928 0.27949
 C338 C 0.13670 0.35166 0.27986
 C339 C 0.10760 0.39250 0.25482
 C340 C 0.10288 0.40981 0.28027
 C341 C 0.08075 0.43202 0.28058
 C342 C 0.06314 0.43773 0.25534
 C343 C 0.06795 0.42065 0.22984
 C344 C 0.08975 0.39817 0.22965
 H345 H 0.18126 0.33574 0.20775
 H346 H 0.16260 0.31711 0.29964
 H347 H 0.07769 0.44498 0.30050
 H348 H 0.05451 0.42436 0.21014
 H349 H 0.12396 0.35539 0.30000
 H350 H 0.11654 0.40648 0.29988
 H351 H 0.14436 0.37547 0.20888
 H352 H 0.09226 0.38496 0.20986
 C353 C 0.13219 0.63055 0.74543
 C354 C 0.13085 0.65397 0.72525
 C355 C 0.15275 0.67634 0.72567
 C356 C 0.17685 0.67608 0.74641
 C357 C 0.17800 0.65224 0.76654
 C358 C 0.15604 0.62992 0.76602
 C359 C 0.10869 0.60696 0.74509
 C360 C 0.09699 0.59563 0.77166
 C361 C 0.07467 0.57363 0.77135
 C362 C 0.06354 0.56246 0.74446
 C363 C 0.07532 0.57371 0.71788
 C364 C 0.09763 0.59571 0.71820
 H365 H 0.15002 0.69396 0.70989
 H366 H 0.19597 0.65015 0.78265
 H367 H 0.06602 0.56550 0.79221
 H368 H 0.06732 0.56551 0.69679
 H369 H 0.15799 0.61186 0.78156
 H370 H 0.10475 0.60411 0.79273
 H371 H 0.11245 0.65533 0.70938
 H372 H 0.10648 0.60370 0.69737
 C373 C -0.13281 0.62935 0.25615
 C374 C -0.15668 0.62865 0.23559
 C375 C -0.17877 0.65087 0.23519
 C376 C -0.17772 0.67470 0.25542
 C377 C -0.15366 0.67498 0.27620
 C378 C -0.13162 0.65270 0.27650
 C379 C -0.10908 0.60595 0.25619
 C380 C -0.09781 0.59458 0.28292
 C381 C -0.07534 0.57269 0.28292
 C382 C -0.06362 0.56170 0.25617
 C383 C -0.07491 0.57305 0.22945
 C384 C -0.09737 0.59492 0.22946
 H385 H -0.19672 0.64875 0.21907
 H386 H -0.15103 0.69256 0.29209
 H387 H -0.06720 0.56435 0.30389
 H388 H -0.06631 0.56513 0.20846
 H389 H -0.11323 0.65409 0.29238
 H390 H -0.10664 0.60237 0.30387
 H391 H -0.15853 0.61064 0.21993
 H392 H -0.10527 0.60351 0.20851
 C393 C -0.13321 0.37170 0.74238
 C394 C -0.13188 0.34826 0.72215
 C395 C -0.15391 0.32600 0.72244
 C396 C -0.17811 0.32640 0.74310
 C397 C -0.17932 0.35036 0.76316
 C398 C -0.15725 0.37256 0.76277
 C399 C -0.10942 0.39503 0.74245
 C400 C -0.09797 0.40611 0.76925
 C401 C -0.07549 0.42793 0.76940
 C402 C -0.06391 0.43918 0.74275
 C403 C -0.07537 0.42813 0.71593
 C404 C -0.09787 0.40629 0.71579
 H405 H -0.15118 0.30831 0.70668
 H406 H -0.19741 0.35261 0.77914
 H407 H -0.06709 0.43589 0.79045
 H408 H -0.06700 0.43639 0.69501
 H409 H -0.15922 0.39067 0.77830
 H410 H -0.10609 0.39760 0.79016
 H411 H -0.11337 0.34676 0.70641
 H412 H -0.10649 0.39845 0.69478
 C413 C 0.24945 0.12787 0.37101
 C414 C 0.27550 0.13282 0.35364
 C415 C 0.27558 0.15460 0.33181
 C416 C 0.24948 0.17186 0.32648
 C417 C 0.22336 0.16675 0.34378
 C418 C 0.22342 0.14519 0.36583
 C419 C 0.24943 0.10477 0.39441
 C420 C 0.22304 0.08815 0.40024
 C421 C 0.22297 0.06661 0.42231
 C422 C 0.24939 0.06089 0.43882
 C423 C 0.27584 0.07731 0.43294
 C424 C 0.27580 0.09912 0.41113
 H425 H 0.29628 0.15799 0.31934
 H426 H 0.20267 0.17918 0.34024
 H427 H 0.20231 0.05414 0.42618
 H428 H 0.29649 0.07356 0.44546
 H429 H 0.20307 0.14234 0.37903
 H430 H 0.20248 0.09146 0.38746
 H431 H 0.29583 0.11964 0.35666
 H432 H 0.29637 0.11183 0.40768
 C433 C 0.74973 0.12986 0.62852
 C434 C 0.72390 0.13469 0.64625
 C435 C 0.72382 0.15683 0.66779
 C436 C 0.74970 0.17457 0.67244
 C437 C 0.77559 0.16961 0.65477
 C438 C 0.77554 0.14767 0.63302
 C439 C 0.74973 0.10638 0.60546
 C440 C 0.77624 0.08994 0.59953
 C441 C 0.77627 0.06802 0.57777
 C442 C 0.74969 0.06177 0.56167
 C443 C 0.72313 0.07801 0.56766
 C444 C 0.72320 0.10018 0.58917
 H445 H 0.70330 0.16010 0.68057
 H446 H 0.79610 0.18245 0.65781
 H447 H 0.79703 0.05571 0.57379
 H448 H 0.70236 0.07386 0.55545
 H449 H 0.79570 0.14490 0.61952
 H450 H 0.79693 0.09370 0.61199
 H451 H 0.70376 0.12115 0.64374
 H452 H 0.70252 0.11273 0.59272
 C453 C 0.24945 -0.12908 0.63018
 C454 C 0.22359 -0.14674 0.63497
 C455 C 0.22353 -0.16832 0.65700
 C456 C 0.24944 -0.17310 0.67465
 C457 C 0.27535 -0.15550 0.66972
 C458 C 0.27529 -0.13370 0.64791
 C459 C 0.24944 -0.10596 0.60681
 C460 C 0.27594 -0.10004 0.59037
 C461 C 0.27598 -0.07822 0.56857
 C462 C 0.24941 -0.06207 0.56242
 C463 C 0.22286 -0.06805 0.57866
 C464 C 0.22292 -0.08961 0.60071
 H465 H 0.20298 -0.18105 0.66024
 H466 H 0.29590 -0.15863 0.68249
 H467 H 0.29673 -0.07426 0.55627
 H468 H 0.20210 -0.05580 0.57458
 H469 H 0.29548 -0.12025 0.64517
 H470 H 0.29662 -0.11253 0.59405
 H471 H 0.20341 -0.14414 0.62149
 H472 H 0.20226 -0.09315 0.61326
 C473 C 0.74966 -0.12964 0.37116
 C474 C 0.77549 -0.14741 0.36650
 C475 C 0.77556 -0.16917 0.34459
 C476 C 0.74966 -0.17402 0.32692
 C477 C 0.72377 -0.15632 0.33173
 C478 C 0.72383 -0.13434 0.35343
 C479 C 0.74966 -0.10632 0.39440
 C480 C 0.72314 -0.10020 0.41077
 C481 C 0.72309 -0.07819 0.43244
 C482 C 0.74966 -0.06202 0.43852
 C483 C 0.77622 -0.06819 0.42235
 C484 C 0.77618 -0.08995 0.40042
 H485 H 0.79609 -0.18198 0.34143
 H486 H 0.70324 -0.15951 0.31894
 H487 H 0.70232 -0.07409 0.44470
 H488 H 0.79699 -0.05593 0.42639
 H489 H 0.70366 -0.12083 0.35607
 H490 H 0.70246 -0.11270 0.40714
 H491 H 0.79565 -0.14473 0.38000
 H492 H 0.79686 -0.09364 0.38792
 C493 C 0.63245 0.75606 -0.12955
 C494 C 0.65634 0.73550 -0.12898
 C495 C 0.67833 0.73509 -0.15129
 C496 C 0.67719 0.75529 -0.17507
 C497 C 0.65310 0.77606 -0.17523
 C498 C 0.63115 0.77638 -0.15286
 C499 C 0.60885 0.75617 -0.10602
 C500 C 0.59767 0.78292 -0.09455
 C501 C 0.57532 0.78299 -0.07254
 C502 C 0.56364 0.75629 -0.06152
 C503 C 0.57485 0.72954 -0.07297
 C504 C 0.59720 0.72948 -0.09496
 H505 H 0.69631 0.71897 -0.14927
 H506 H 0.65039 0.79193 -0.19277
 H507 H 0.56724 0.80398 -0.06414
 H508 H 0.56628 0.70858 -0.06503
 H509 H 0.61275 0.79225 -0.15415
 H510 H 0.60646 0.80384 -0.10235
 H511 H 0.65827 0.71987 -0.11100
 H512 H 0.60504 0.70852 -0.10362
 C513 C 0.36943 0.24578 -0.13107
 C514 C 0.37067 0.22542 -0.15441
 C515 C 0.34879 0.22583 -0.17682
 C516 C 0.32483 0.24673 -0.17667
 C517 C 0.32384 0.26709 -0.15295
 C518 C 0.34576 0.26657 -0.13059
 C519 C 0.39282 0.24539 -0.10735
 C520 C 0.40458 0.27193 -0.09596
 C521 C 0.42670 0.27159 -0.07376
 C522 C 0.43756 0.24469 -0.06244
 C523 C 0.42574 0.21815 -0.07376
 C524 C 0.40362 0.21850 -0.09596
 H525 H 0.35142 0.20992 -0.19440
 H526 H 0.30598 0.28333 -0.15095
 H527 H 0.43540 0.29243 -0.06560
 H528 H 0.43355 0.19705 -0.06546
 H529 H 0.34388 0.28225 -0.11260
 H530 H 0.39703 0.29300 -0.10454
 H531 H 0.38895 0.20940 -0.15567
 H532 H 0.39471 0.19769 -0.10398
 C533 C 0.36741 0.75587 0.13001
 C534 C 0.36863 0.77609 0.15346
 C535 C 0.34658 0.77575 0.17572
 C536 C 0.32245 0.75504 0.17532
 C537 C 0.32139 0.73493 0.15140
 C538 C 0.34350 0.73537 0.12919
 C539 C 0.39112 0.75601 0.10658
 C540 C 0.40278 0.72934 0.09537
 C541 C 0.42520 0.72943 0.07345
 C542 C 0.43649 0.75620 0.06223
 C543 C 0.42482 0.78288 0.07341
 C544 C 0.40239 0.78278 0.09535
 H545 H 0.34922 0.79155 0.19339
 H546 H 0.30340 0.71886 0.14918
 H547 H 0.43377 0.70849 0.06538
 H548 H 0.43296 0.80388 0.06519
 H549 H 0.34162 0.71981 0.11109
 H550 H 0.39487 0.70836 0.10385
 H551 H 0.38705 0.79192 0.15494
 H552 H 0.39360 0.80369 0.10327
 C553 C 0.63368 0.24319 0.12905
 C554 C 0.65082 0.26880 0.13468
 C555 C 0.67279 0.26920 0.15699
 C556 C 0.67858 0.24388 0.17408
 C557 C 0.66169 0.21813 0.16813
 C558 C 0.63944 0.21785 0.14605
 C559 C 0.60976 0.24308 0.10572
 C560 C 0.60437 0.21768 0.08853
 C561 C 0.58181 0.21765 0.06673
 C562 C 0.56442 0.24311 0.06135
 C563 C 0.56982 0.26851 0.07838
 C564 C 0.59206 0.26843 0.10044
 H565 H 0.68489 0.28960 0.16094
 H566 H 0.66563 0.19804 0.18040
 H567 H 0.57828 0.19780 0.05380
 H568 H 0.55657 0.28838 0.07493
 H569 H 0.62646 0.19782 0.14262
 H570 H 0.61787 0.19792 0.09160
 H571 H 0.64743 0.28860 0.12173
 H572 H 0.59507 0.28818 0.11361
 C573 C -0.13284 0.63034 0.74397
 C574 C -0.13161 0.65372 0.72374
 C575 C -0.15363 0.67600 0.72411
 C576 C -0.17775 0.67568 0.74486
 C577 C -0.17883 0.65183 0.76497
 C578 C -0.15675 0.62960 0.76450
 C579 C -0.10913 0.60691 0.74381
 C580 C -0.09748 0.59580 0.77049
 C581 C -0.07505 0.57390 0.77039
 C582 C -0.06374 0.56260 0.74361
 C583 C -0.07541 0.57368 0.71692
 C584 C -0.09785 0.59559 0.71702
 H585 H -0.15098 0.69361 0.70832
 H586 H -0.19682 0.64967 0.78106
 H587 H -0.06649 0.56591 0.79134
 H588 H -0.06726 0.56538 0.69591
 H589 H -0.15863 0.61156 0.78006
 H590 H -0.10540 0.60435 0.79148
 H591 H -0.11318 0.65514 0.70789
 H592 H -0.10664 0.60344 0.69611
 C593 C -0.13129 0.36931 0.25584
 C594 C -0.15506 0.36970 0.23516
 C595 C -0.17682 0.34723 0.23460
 C596 C -0.17559 0.32346 0.25480
 C597 C -0.15164 0.32346 0.27570
 C598 C -0.12989 0.34599 0.27615
 C599 C -0.10791 0.39301 0.25601
 C600 C -0.09686 0.40456 0.28278
 C601 C -0.07477 0.42679 0.28285
 C602 C -0.06323 0.43796 0.25614
 C603 C -0.07432 0.42643 0.22938
 C604 C -0.09638 0.40421 0.22932
 H605 H -0.19475 0.34916 0.21843
 H606 H -0.14888 0.30587 0.29152
 H607 H -0.06677 0.43525 0.30384
 H608 H -0.06582 0.43445 0.20841
 H609 H -0.11156 0.34483 0.29210
 H610 H -0.10557 0.39665 0.30370
 H611 H -0.15710 0.38769 0.21955
 H612 H -0.10409 0.39549 0.20833
 C613 C 0.13250 0.37109 0.74416
 C614 C 0.13828 0.35398 0.71883
 C615 C 0.16057 0.33193 0.71912
 C616 C 0.17749 0.32611 0.74488
 C617 C 0.17165 0.34327 0.77021
 C618 C 0.14963 0.36554 0.76979
 C619 C 0.10863 0.39447 0.74394
 C620 C 0.09084 0.39995 0.76923
 C621 C 0.06859 0.42202 0.76914
 C622 C 0.06328 0.43887 0.74364
 C623 C 0.08081 0.43332 0.71827
 C624 C 0.10336 0.41151 0.71848
 H625 H 0.16454 0.31959 0.69903
 H626 H 0.18379 0.33940 0.79060
 H627 H 0.05525 0.42562 0.78895
 H628 H 0.07737 0.44611 0.69836
 H629 H 0.14620 0.37856 0.78959
 H630 H 0.09379 0.38691 0.78904
 H631 H 0.12530 0.35732 0.69879
 H632 H 0.11694 0.40831 0.69877
 C633 C 0.13242 0.62979 0.25507
 C634 C 0.13106 0.65316 0.27539
 C635 C 0.15297 0.67552 0.27511
 C636 C 0.17710 0.67531 0.25438
 C637 C 0.17828 0.65150 0.23413
 C638 C 0.15630 0.62920 0.23451
 C639 C 0.10889 0.60621 0.25522
 C640 C 0.09776 0.59488 0.28202
 C641 C 0.07546 0.57288 0.28217
 C642 C 0.06375 0.56169 0.25550
 C643 C 0.07493 0.57296 0.22870
 C644 C 0.09725 0.59496 0.22856
 H645 H 0.15023 0.69310 0.29099
 H646 H 0.19627 0.64945 0.21803
 H647 H 0.06741 0.56461 0.30320
 H648 H 0.06634 0.56489 0.20777
 H649 H 0.15827 0.61118 0.21886
 H650 H 0.10656 0.60281 0.30292
 H651 H 0.11264 0.65448 0.29125
 H652 H 0.10506 0.60351 0.20756
 C653 C 0.74957 -0.12895 0.62948
 C654 C 0.72373 -0.13361 0.64722
 C655 C 0.72367 -0.15552 0.66892
 C656 C 0.74957 -0.17318 0.67373
 C657 C 0.77548 -0.16837 0.65607
 C658 C 0.77541 -0.14667 0.63415
 C659 C 0.74957 -0.10573 0.60621
 C660 C 0.77608 -0.08939 0.60015
 C661 C 0.77614 -0.06776 0.57816
 C662 C 0.74959 -0.06170 0.56196
 C663 C 0.72303 -0.07784 0.56809
 C664 C 0.72306 -0.09972 0.58982
 H665 H 0.70313 -0.15868 0.68171
 H666 H 0.79602 -0.18114 0.65923
 H667 H 0.79691 -0.05552 0.57410
 H668 H 0.70227 -0.07382 0.55581
 H669 H 0.79559 -0.14403 0.62066
 H670 H 0.79675 -0.09299 0.61267
 H671 H 0.70356 -0.12012 0.64456
 H672 H 0.70238 -0.11221 0.59347
 C673 C 0.24955 -0.12969 0.37123
 C674 C 0.27541 -0.13435 0.35350
 C675 C 0.27550 -0.15621 0.33168
 C676 C 0.24960 -0.17383 0.32673
 C677 C 0.22368 -0.16903 0.34440
 C678 C 0.22372 -0.14739 0.36643
 C679 C 0.24951 -0.10648 0.39458
 C680 C 0.22298 -0.09011 0.40067
 C681 C 0.22290 -0.06844 0.42268
 C682 C 0.24945 -0.06235 0.43889
 C683 C 0.27602 -0.07853 0.43276
 C684 C 0.27600 -0.10046 0.41100
 H685 H 0.29606 -0.15936 0.31891
 H686 H 0.20314 -0.18178 0.34114
 H687 H 0.20213 -0.05618 0.42674
 H688 H 0.29677 -0.07449 0.44505
 H689 H 0.20352 -0.14475 0.37991
 H690 H 0.20232 -0.09373 0.38813
 H691 H 0.29559 -0.12088 0.35625
 H692 H 0.29669 -0.11296 0.40734
 C693 C 0.74981 0.12948 0.37185
 C694 C 0.77574 0.14709 0.36723
 C695 C 0.77592 0.16885 0.34539
 C696 C 0.75005 0.17385 0.32773
 C697 C 0.72403 0.15639 0.33256
 C698 C 0.72397 0.13441 0.35419
 C699 C 0.74976 0.10605 0.39489
 C700 C 0.72324 0.09999 0.41126
 C701 C 0.72315 0.07787 0.43276
 C702 C 0.74966 0.06154 0.43865
 C703 C 0.77621 0.06764 0.42246
 C704 C 0.77621 0.08950 0.40071
 H705 H 0.79654 0.18148 0.34223
 H706 H 0.70351 0.15971 0.31980
 H707 H 0.70240 0.07382 0.44504
 H708 H 0.79694 0.05527 0.42636
 H709 H 0.70372 0.12103 0.35681
 H710 H 0.70261 0.11261 0.40780
 H711 H 0.79591 0.14426 0.38068
 H712 H 0.79688 0.09314 0.38819
 C713 C 0.24931 0.12823 0.63028
 C714 C 0.22339 0.14580 0.63528
 C715 C 0.22343 0.16754 0.65723
 C716 C 0.24951 0.17257 0.67460
 C717 C 0.27545 0.15500 0.66951
 C718 C 0.27528 0.13305 0.64779
 C719 C 0.24928 0.10508 0.60688
 C720 C 0.27572 0.09924 0.59028
 C721 C 0.27577 0.07738 0.56846
 C722 C 0.24927 0.06110 0.56242
 C723 C 0.22277 0.06700 0.57879
 C724 C 0.22282 0.08860 0.60088
 H725 H 0.20286 0.18023 0.66061
 H726 H 0.29612 0.15830 0.68205
 H727 H 0.29648 0.07349 0.55604
 H728 H 0.20206 0.05464 0.57480
 H729 H 0.29551 0.11967 0.64491
 H730 H 0.29635 0.11184 0.59385
 H731 H 0.20310 0.14304 0.62199
 H732 H 0.20220 0.09207 0.61354
   
