data_POSCAR
  _audit_creation_date              2014-09-24
  _audit_creation_method            'ToBaCCo'
  _symmetry_space_group_name_H-M    'P1'
  _symmetry_Int_Tables_number       1
  _symmetry_cell_setting            triclinic
  loop_
  _symmetry_equiv_pos_as_xyz
 x,y,z
_cell_length_a 37.1168
_cell_length_b 35.9460
_cell_length_c 32.4263
_cell_angle_alpha 89.881500
_cell_angle_beta 89.886000
_cell_angle_gamma 90.038000
loop_
  _atom_site_label
  _atom_site_type_symbol
  _atom_site_fract_x
  _atom_site_fract_y
  _atom_site_fract_z
Zr1 Zr 0.24508 0.24463 0.32414
 O2 O 0.27120 0.27439 0.37180
 O3 O 0.21211 0.20835 0.35771
 O4 O 0.20783 0.27698 0.35797
 O5 O 0.31451 0.18243 0.30814
 O6 O 0.17934 0.31105 0.30835
 O7 O 0.28031 0.21004 0.35799
 O8 O 0.17911 0.17996 0.30748
 O9 O 0.19815 0.24564 0.28834
 O10 O 0.24647 0.19680 0.28757
 O11 O 0.24727 0.29464 0.29045
 O12 O 0.29383 0.24766 0.29068
 Zr13 Zr 0.24995 0.25040 0.18003
 Zr14 Zr 0.20190 0.29382 0.25217
 Zr15 Zr 0.29298 0.20103 0.25184
 Zr16 Zr 0.20085 0.19889 0.25068
 O17 O 0.34983 0.20577 0.25105
 O18 O 0.14445 0.20803 0.24847
 O19 O 0.24746 0.19991 0.21354
 O20 O 0.20163 0.24698 0.21399
 O21 O 0.24857 0.29850 0.21630
 O22 O 0.29636 0.24931 0.21652
 C23 C 0.18734 0.18605 0.34555
 C24 C 0.30596 0.18843 0.34607
 C25 C 0.18488 0.30164 0.34613
 O26 O 0.14525 0.28881 0.24761
 O27 O 0.18453 0.31770 0.19629
 O28 O 0.21817 0.28907 0.14670
 C29 C 0.19404 0.31261 0.15849
 O30 O 0.31677 0.31495 0.31036
 Zr31 Zr 0.29384 0.29598 0.25418
 O32 O 0.28540 0.28541 0.14738
 O33 O 0.20597 0.35238 0.25689
 O34 O 0.28470 0.35415 0.25735
 O35 O 0.35062 0.28956 0.25223
 O36 O 0.31167 0.31950 0.19844
 C37 C 0.30642 0.31132 0.16033
 O38 O 0.22140 0.22432 0.13154
 O39 O 0.28885 0.14231 0.25225
 O40 O 0.28275 0.21336 0.14592
 O41 O 0.31172 0.17958 0.19542
 O42 O 0.20772 0.14033 0.25211
 O43 O 0.18186 0.17488 0.19495
 C44 C 0.30484 0.18775 0.15755
 H45 H 0.24687 0.17350 0.30390
 H46 H 0.18050 0.24700 0.19541
 H47 H 0.31888 0.24923 0.20011
 H48 H 0.24710 0.31644 0.30906
 H49 H 0.13250 0.18420 0.25563
 H50 H 0.13525 0.31430 0.24970
 H51 H 0.18110 0.36233 0.25561
 H52 H 0.30782 0.36676 0.25105
 H53 H 0.18399 0.12917 0.25882
 H54 H 0.31376 0.13250 0.25376
 H55 H 0.35959 0.18013 0.24991
 H56 H 0.36119 0.31436 0.24643
 H57 H 0.16138 0.15807 0.20107
 H58 H 0.23128 0.23418 0.10523
 H59 H 0.26207 0.26437 0.39837
 H60 H 0.33320 0.33606 0.30466
 Zr61 Zr 0.75220 0.75278 0.32525
 O62 O 0.72610 0.72292 0.37309
 O63 O 0.78553 0.78876 0.35844
 O64 O 0.78959 0.72040 0.35878
 O65 O 0.68290 0.81510 0.30997
 O66 O 0.81784 0.68638 0.30897
 O67 O 0.71747 0.78752 0.35948
 O68 O 0.81751 0.81800 0.30769
 O69 O 0.79894 0.75197 0.28896
 O70 O 0.75056 0.80069 0.28858
 O71 O 0.74983 0.70285 0.29168
 O72 O 0.70328 0.74981 0.29230
 Zr73 Zr 0.74663 0.74734 0.18119
 Zr74 Zr 0.79504 0.70385 0.25299
 Zr75 Zr 0.70389 0.79654 0.25336
 Zr76 Zr 0.79596 0.79878 0.25119
 O77 O 0.64705 0.79170 0.25323
 O78 O 0.85237 0.78973 0.24883
 O79 O 0.74921 0.79775 0.21456
 O80 O 0.79505 0.75077 0.21470
 O81 O 0.74823 0.69912 0.21749
 O82 O 0.70039 0.74836 0.21815
 C83 C 0.80976 0.81160 0.34588
 C84 C 0.69185 0.80923 0.34780
 C85 C 0.81253 0.69579 0.34678
 O86 O 0.85170 0.70888 0.24825
 O87 O 0.81271 0.68071 0.19700
 O88 O 0.77873 0.70917 0.14762
 C89 C 0.80330 0.68608 0.15926
 O90 O 0.68065 0.68208 0.31225
 Zr91 Zr 0.70311 0.70158 0.25585
 O92 O 0.71093 0.71246 0.14897
 O93 O 0.79094 0.64526 0.25745
 O94 O 0.71241 0.64341 0.25844
 O95 O 0.64632 0.70810 0.25507
 O96 O 0.68443 0.67863 0.20035
 C97 C 0.68953 0.68689 0.16217
 O98 O 0.77481 0.77350 0.13221
 O99 O 0.70785 0.85528 0.25363
 O100 O 0.71388 0.78461 0.14738
 O101 O 0.68505 0.81829 0.19707
 O102 O 0.78891 0.85732 0.25215
 O103 O 0.81492 0.82276 0.19523
 C104 C 0.69194 0.81030 0.15914
 H105 H 0.75024 0.82398 0.30481
 H106 H 0.81615 0.75092 0.19598
 H107 H 0.67778 0.74856 0.20201
 H108 H 0.75011 0.68100 0.31031
 H109 H 0.86428 0.81356 0.25584
 H110 H 0.86173 0.68339 0.25022
 H111 H 0.81582 0.63533 0.25602
 H112 H 0.68927 0.63080 0.25238
 H113 H 0.81260 0.86859 0.25866
 H114 H 0.68293 0.86502 0.25545
 H115 H 0.63728 0.81733 0.25218
 H116 H 0.63562 0.68336 0.24941
 H117 H 0.83542 0.83955 0.20116
 H118 H 0.76477 0.76368 0.10605
 H119 H 0.73537 0.73276 0.39959
 H120 H 0.66437 0.66085 0.30669
 Zr121 Zr 0.75335 0.24761 -0.32057
 O122 O 0.72857 0.27499 -0.37097
 O123 O 0.78804 0.21009 -0.35018
 O124 O 0.79141 0.27855 -0.35488
 O125 O 0.68380 0.18568 -0.30431
 O126 O 0.81794 0.31522 -0.30632
 O127 O 0.71984 0.21120 -0.35397
 O128 O 0.81845 0.18366 -0.29655
 O129 O 0.79900 0.25042 -0.28291
 O130 O 0.75085 0.20147 -0.28130
 O131 O 0.74951 0.29898 -0.28988
 O132 O 0.70348 0.25193 -0.28939
 Zr133 Zr 0.74399 0.25962 -0.17717
 Zr134 Zr 0.79380 0.30016 -0.25009
 Zr135 Zr 0.70317 0.20700 -0.24806
 Zr136 Zr 0.79510 0.20545 -0.24248
 O137 O 0.64635 0.21156 -0.24990
 O138 O 0.85141 0.21481 -0.23872
 O139 O 0.74736 0.20782 -0.20769
 O140 O 0.79319 0.25510 -0.20910
 O141 O 0.74614 0.30617 -0.21605
 O142 O 0.69860 0.25655 -0.21525
 C143 C 0.81191 0.18799 -0.33527
 C144 C 0.69391 0.18993 -0.34210
 C145 C 0.81383 0.30390 -0.34367
 O146 O 0.85039 0.29590 -0.24380
 O147 O 0.81040 0.32568 -0.19519
 O148 O 0.77621 0.29865 -0.14485
 C149 C 0.80087 0.32140 -0.15732
 O150 O 0.68121 0.31968 -0.31307
 Zr151 Zr 0.70183 0.30162 -0.25529
 O152 O 0.70903 0.29721 -0.14801
 O153 O 0.78938 0.35844 -0.25783
 O154 O 0.71104 0.35975 -0.25929
 O155 O 0.64522 0.29372 -0.25729
 O156 O 0.67999 0.32569 -0.20145
 C157 C 0.68619 0.32053 -0.16281
 O158 O 0.77037 0.23542 -0.12585
 O159 O 0.70716 0.14832 -0.24502
 O160 O 0.71005 0.22383 -0.14247
 O161 O 0.68317 0.18765 -0.19136
 O162 O 0.78829 0.14689 -0.24028
 O163 O 0.81215 0.18442 -0.18439
 C164 C 0.68874 0.19735 -0.15371
 H165 H 0.75105 0.17744 -0.29616
 H166 H 0.81389 0.25587 -0.18991
 H167 H 0.67565 0.25689 -0.19965
 H168 H 0.75019 0.31997 -0.30968
 H169 H 0.86354 0.19063 -0.24343
 H170 H 0.86033 0.32135 -0.24699
 H171 H 0.81415 0.36866 -0.25642
 H172 H 0.68770 0.37237 -0.25437
 H173 H 0.81227 0.13548 -0.24484
 H174 H 0.68231 0.13842 -0.24706
 H175 H 0.63661 0.18596 -0.24773
 H176 H 0.63374 0.31828 -0.25288
 H177 H 0.83293 0.16755 -0.18842
 H178 H 0.75974 0.24658 -0.10064
 H179 H 0.73858 0.26394 -0.39656
 H180 H 0.66461 0.34087 -0.30871
 Zr181 Zr 0.25279 0.75100 -0.32985
 O182 O 0.27905 0.72128 -0.37749
 O183 O 0.22070 0.78809 -0.36344
 O184 O 0.21495 0.71921 -0.36373
 O185 O 0.32250 0.81292 -0.31346
 O186 O 0.18654 0.68466 -0.31428
 O187 O 0.28779 0.78642 -0.36338
 O188 O 0.18746 0.81560 -0.31289
 O189 O 0.20575 0.74986 -0.29400
 O190 O 0.25434 0.79852 -0.29280
 O191 O 0.25474 0.70082 -0.29630
 O192 O 0.30148 0.74755 -0.29641
 Zr193 Zr 0.25711 0.74416 -0.18570
 Zr194 Zr 0.20914 0.70147 -0.25803
 Zr195 Zr 0.30073 0.79392 -0.25718
 Zr196 Zr 0.20858 0.79635 -0.25605
 O197 O 0.35754 0.78895 -0.25619
 O198 O 0.15215 0.78729 -0.25414
 O199 O 0.25503 0.79484 -0.21892
 O200 O 0.20897 0.74812 -0.21963
 O201 O 0.25575 0.69627 -0.22223
 O202 O 0.30375 0.74550 -0.22201
 C203 C 0.19597 0.81046 -0.35116
 C204 C 0.31352 0.80804 -0.35151
 C205 C 0.19173 0.69461 -0.35199
 O206 O 0.15243 0.70650 -0.25414
 O207 O 0.19014 0.67846 -0.20212
 O208 O 0.22467 0.70572 -0.15265
 C209 C 0.19960 0.68313 -0.16422
 O210 O 0.32344 0.67891 -0.31620
 Zr211 Zr 0.30132 0.69907 -0.26001
 O212 O 0.29119 0.70763 -0.15337
 O213 O 0.21330 0.64292 -0.26250
 O214 O 0.29185 0.64090 -0.26162
 O215 O 0.35805 0.70628 -0.26015
 O216 O 0.32115 0.67670 -0.20440
 C217 C 0.31411 0.68344 -0.16626
 O218 O 0.22878 0.77020 -0.13692
 O219 O 0.29702 0.85268 -0.25728
 O220 O 0.28999 0.78081 -0.15127
 O221 O 0.31883 0.81533 -0.20046
 O222 O 0.21552 0.85491 -0.25695
 O223 O 0.18941 0.82026 -0.20027
 C224 C 0.31177 0.80687 -0.16264
 H225 H 0.25488 0.82200 -0.30879
 H226 H 0.18774 0.74825 -0.20110
 H227 H 0.32617 0.74556 -0.20552
 H228 H 0.25444 0.67910 -0.31503
 H229 H 0.14033 0.81112 -0.26139
 H230 H 0.14234 0.68104 -0.25633
 H231 H 0.18841 0.63299 -0.26133
 H232 H 0.31496 0.62832 -0.25539
 H233 H 0.19188 0.86610 -0.26384
 H234 H 0.32200 0.86236 -0.25870
 H235 H 0.36738 0.81455 -0.25476
 H236 H 0.36910 0.68172 -0.25437
 H237 H 0.16877 0.83682 -0.20632
 H238 H 0.23840 0.75998 -0.11071
 H239 H 0.27008 0.73150 -0.40399
 H240 H 0.33981 0.65782 -0.31032
 Zr241 Zr 1.25536 1.25646 0.82101
 O242 O 1.22904 1.23026 0.87130
 O243 O 1.29251 1.29102 0.85103
 O244 O 1.29057 1.22211 0.85534
 O245 O 1.18634 1.31926 0.80492
 O246 O 1.31957 1.18824 0.80602
 O247 O 1.22218 1.29351 0.85446
 O248 O 1.32135 1.32079 0.79817
 O249 O 1.30136 1.25411 0.78359
 O250 O 1.25359 1.30329 0.78262
 O251 O 1.25159 1.20562 0.78927
 O252 O 1.20584 1.25303 0.78922
 Zr253 Zr 1.24716 1.24671 0.67744
 Zr254 Zr 1.29630 1.20488 0.74985
 Zr255 Zr 1.20620 1.29861 0.74865
 Zr256 Zr 1.29802 1.29976 0.74385
 O257 O 1.14931 1.29462 0.75017
 O258 O 1.35434 1.29043 0.73998
 O259 O 1.25061 1.29820 0.70852
 O260 O 1.29617 1.25054 0.70966
 O261 O 1.24888 1.19959 0.71549
 O262 O 1.20156 1.24937 0.71534
 C263 C 1.31600 1.31394 0.83668
 C264 C 1.19621 1.31479 0.84268
 C265 C 1.31350 1.19731 0.84381
 O266 O 1.35295 1.20935 0.74433
 O267 O 1.31289 1.18037 0.69425
 O268 O 1.27892 1.20811 0.64434
 C269 C 1.30336 1.18514 0.65646
 O270 O 1.18262 1.18589 0.81192
 Zr271 Zr 1.20431 1.20375 0.75447
 O272 O 1.21269 1.20972 0.64686
 O273 O 1.29183 1.14645 0.75603
 O274 O 1.21298 1.14555 0.75845
 O275 O 1.14761 1.21112 0.75514
 O276 O 1.18413 1.17997 0.69985
 C277 C 1.19022 1.18580 0.66125
 O278 O 1.27421 1.27279 0.62762
 O279 O 1.21085 1.35725 0.74651
 O280 O 1.21201 1.28093 0.64300
 O281 O 1.18654 1.31834 0.69182
 O282 O 1.29111 1.35833 0.74282
 O283 O 1.31564 1.32157 0.68625
 C284 C 1.19108 1.30767 0.65424
 H285 H 1.25404 1.32700 0.79808
 H286 H 1.31698 1.24997 0.69054
 H287 H 1.17865 1.24904 0.69976
 H288 H 1.25169 1.18421 0.80851
 H289 H 1.36653 1.31454 0.74499
 H290 H 1.36277 1.18379 0.74652
 H291 H 1.31659 1.13627 0.75431
 H292 H 1.18962 1.13314 0.75303
 H293 H 1.31505 1.36977 0.74758
 H294 H 1.18605 1.36735 0.74810
 H295 H 1.13985 1.32032 0.74802
 H296 H 1.13647 1.18646 0.75026
 H297 H 1.33609 1.33879 0.69077
 H298 H 1.26420 1.26221 0.60183
 H299 H 1.23931 1.24078 0.89700
 H300 H 1.16617 1.16460 0.80736
 Zr301 Zr 0.74257 0.74164 0.81940
 O302 O 0.76967 0.76887 0.86824
 O303 O 0.70605 0.70760 0.85146
 O304 O 0.70804 0.77678 0.85366
 O305 O 0.81137 0.67863 0.80323
 O306 O 0.67857 0.81013 0.80425
 O307 O 0.77656 0.70554 0.85301
 O308 O 0.67619 0.67712 0.80015
 O309 O 0.69595 0.74356 0.78319
 O310 O 0.74345 0.69402 0.78237
 O311 O 0.74612 0.79180 0.78612
 O312 O 0.79150 0.74407 0.78614
 Zr313 Zr 0.74831 0.74833 0.67544
 Zr314 Zr 0.70074 0.79210 0.74793
 Zr315 Zr 0.79022 0.69767 0.74697
 Zr316 Zr 0.69837 0.69712 0.74466
 O317 O 0.84717 0.70101 0.74667
 O318 O 0.64204 0.70673 0.74236
 O319 O 0.74515 0.69748 0.70802
 O320 O 0.69985 0.74566 0.70906
 O321 O 0.74758 0.79625 0.71211
 O322 O 0.79451 0.74615 0.71221
 C323 C 0.68235 0.68444 0.83830
 C324 C 0.80246 0.68423 0.84112
 C325 C 0.68519 0.80166 0.84212
 O326 O 0.64400 0.78787 0.74388
 O327 O 0.68380 0.81588 0.69205
 O328 O 0.71672 0.78687 0.64208
 C329 C 0.69287 0.81049 0.65419
 O330 O 0.81529 0.81212 0.80613
 Zr331 Zr 0.79277 0.79260 0.74996
 O332 O 0.78256 0.78402 0.64268
 O333 O 0.70555 0.85060 0.75248
 O334 O 0.78432 0.85091 0.75137
 O335 O 0.84941 0.78481 0.75024
 O336 O 0.81286 0.81407 0.69396
 C337 C 0.80607 0.80733 0.65575
 O338 O 0.71994 0.72141 0.62742
 O339 O 0.78497 0.63905 0.74689
 O340 O 0.78284 0.71338 0.64103
 O341 O 0.80905 0.67687 0.69023
 O342 O 0.70486 0.63850 0.74494
 O343 O 0.67943 0.67445 0.68821
 C344 C 0.80410 0.68699 0.65249
 H345 H 0.74325 0.67065 0.79858
 H346 H 0.67872 0.74607 0.69047
 H347 H 0.81722 0.74589 0.69617
 H348 H 0.74649 0.81360 0.80472
 H349 H 0.62984 0.68280 0.74842
 H350 H 0.63439 0.81354 0.74550
 H351 H 0.68083 0.86091 0.75096
 H352 H 0.80763 0.86301 0.74472
 H353 H 0.68094 0.62730 0.75061
 H354 H 0.80971 0.62877 0.74813
 H355 H 0.85636 0.67517 0.74513
 H356 H 0.86071 0.80921 0.74415
 H357 H 0.65894 0.65751 0.69380
 H358 H 0.72956 0.73125 0.60100
 H359 H 0.75984 0.75886 0.89451
 H360 H 0.83137 0.83351 0.80036
 Zr361 Zr 1.25198 0.74961 0.18073
 O362 O 1.22639 0.77644 0.13047
 O363 O 1.28736 0.71280 0.15086
 O364 O 1.28815 0.78276 0.14630
 O365 O 1.18283 0.68707 0.19643
 O366 O 1.31638 0.81759 0.19528
 O367 O 1.21878 0.71316 0.14706
 O368 O 1.31838 0.68609 0.20391
 O369 O 1.29789 0.75206 0.21805
 O370 O 1.24983 0.70303 0.21935
 O371 O 1.24820 0.80061 0.21219
 O372 O 1.20225 0.75351 0.21226
 Zr373 Zr 1.24299 0.75994 0.32427
 Zr374 Zr 1.29274 0.80140 0.25160
 Zr375 Zr 1.20220 0.70803 0.25288
 Zr376 Zr 1.29418 0.70667 0.25808
 O377 O 1.14538 0.71248 0.25112
 O378 O 1.35045 0.71604 0.26273
 O379 O 1.24647 0.70844 0.29314
 O380 O 1.29217 0.75593 0.29208
 O381 O 1.24519 0.80693 0.28601
 O382 O 1.19757 0.75732 0.28627
 C383 C 1.31169 0.69095 0.16533
 C384 C 1.19296 0.69166 0.15869
 C385 C 1.31089 0.80777 0.15762
 O386 O 1.34936 0.79690 0.25725
 O387 O 1.30943 0.82599 0.30698
 O388 O 1.27539 0.79835 0.35712
 C389 C 1.30005 0.82118 0.34484
 O390 O 1.17930 0.82063 0.18952
 Zr391 Zr 1.20072 0.80288 0.24703
 O392 O 1.20863 0.79742 0.35447
 O393 O 1.28840 0.85980 0.24511
 O394 O 1.20981 0.86101 0.24253
 O395 O 1.14401 0.79558 0.24653
 O396 O 1.18044 0.82738 0.30151
 C397 C 1.18653 0.82170 0.34013
 O398 O 1.26926 0.73414 0.37467
 O399 O 1.20640 0.64935 0.25523
 O400 O 1.20755 0.72525 0.35846
 O401 O 1.18225 0.68807 0.30939
 O402 O 1.28749 0.64806 0.25874
 O403 O 1.31095 0.68481 0.31590
 C404 C 1.18669 0.69843 0.34703
 H405 H 1.25020 0.67920 0.20410
 H406 H 1.31291 0.75645 0.31122
 H407 H 1.17464 0.75777 0.30189
 H408 H 1.24857 0.82188 0.19276
 H409 H 1.36269 0.69194 0.25791
 H410 H 1.35928 0.82240 0.25463
 H411 H 1.31319 0.86995 0.24665
 H412 H 1.18652 0.87361 0.24780
 H413 H 1.31153 0.63679 0.25421
 H414 H 1.18157 0.63937 0.25321
 H415 H 1.13570 0.68683 0.25303
 H416 H 1.13292 0.82027 0.25130
 H417 H 1.33146 0.66762 0.31166
 H418 H 1.25897 0.74501 0.40020
 H419 H 1.23652 0.76578 0.10473
 H420 H 1.16273 0.84182 0.19403
 Zr421 Zr 0.74546 1.25765 0.17179
 O422 O 0.76601 1.23696 0.11532
 O423 O 0.70788 1.29667 0.15073
 O424 O 0.70705 1.22642 0.13813
 O425 O 0.81578 1.31907 0.18797
 O426 O 0.68412 1.18615 0.18593
 O427 O 0.77700 1.29711 0.13922
 O428 O 0.68032 1.31690 0.20955
 O429 O 0.70299 1.25009 0.21371
 O430 O 0.75013 1.30021 0.21542
 O431 O 0.75246 1.20396 0.19638
 O432 O 0.79752 1.25239 0.19713
 Zr433 Zr 0.76728 1.23263 0.31179
 Zr434 Zr 0.71182 1.19791 0.24081
 Zr435 Zr 0.80022 1.29321 0.24326
 Zr436 Zr 0.70929 1.29138 0.25822
 O437 O 0.85689 1.29119 0.23605
 O438 O 0.65388 1.27963 0.26771
 O439 O 0.75963 1.28696 0.28783
 O440 O 0.71549 1.23917 0.28601
 O441 O 0.76238 1.18992 0.26827
 O442 O 0.80876 1.24091 0.26903
 C443 C 0.68444 1.31632 0.17007
 C444 C 0.80379 1.31738 0.15080
 C445 C 0.68615 1.19946 0.14910
 O446 O 0.65574 1.20055 0.25242
 O447 O 0.69869 1.16846 0.29489
 O448 O 0.73762 1.19066 0.34334
 C449 C 0.71118 1.16971 0.33186
 O450 O 0.81820 1.18908 0.16246
 Zr451 Zr 0.80276 1.19982 0.22448
 O452 O 0.80701 1.19426 0.33144
 O453 O 0.71691 1.14046 0.22807
 O454 O 0.79449 1.14215 0.21449
 O455 O 0.85880 1.20930 0.21687
 O456 O 0.82971 1.17114 0.27125
 C457 C 0.82851 1.17313 0.31065
 O458 O 0.74600 1.25069 0.36901
 O459 O 0.79453 1.35122 0.25225
 O460 O 0.80377 1.26580 0.34613
 O461 O 0.82379 1.30883 0.29960
 O462 O 0.71571 1.34963 0.26552
 O463 O 0.69624 1.30709 0.31963
 C464 C 0.82249 1.29475 0.33613
 H465 H 0.74837 1.32535 0.20306
 H466 H 0.69651 1.23640 0.30728
 H467 H 0.83303 1.24002 0.28158
 H468 H 0.75079 1.18466 0.17474
 H469 H 0.64069 1.30358 0.26674
 H470 H 0.64593 1.17523 0.24791
 H471 H 0.69250 1.12953 0.23079
 H472 H 0.81844 1.13000 0.21411
 H473 H 0.69141 1.36099 0.26426
 H474 H 0.81882 1.36229 0.24880
 H475 H 0.86599 1.31687 0.23996
 H476 H 0.87085 1.18472 0.21571
 H477 H 0.67541 1.32429 0.31930
 H478 H 0.75928 1.23737 0.39110
 H479 H 0.75352 1.25037 0.09269
 H480 H 0.83509 1.16777 0.16175
 N481 N 0.56406 1.04030 0.04301
 N482 N 0.58752 1.06714 0.05088
 N483 N 0.53907 0.96187 0.07162
 N484 N 0.54592 0.93750 0.10098
 N485 N 0.56469 0.96162 0.04363
 N486 N 0.58975 0.93689 0.05337
 N487 N 0.53839 1.03998 0.07096
 N488 N 0.54373 1.06619 0.09859
 C489 C 0.57412 1.08321 0.08553
 C490 C 0.57727 0.92177 0.08905
 N491 N 0.43615 0.96055 0.04331
 N492 N 0.41194 0.93474 0.05256
 N493 N 0.46084 1.03929 0.07098
 N494 N 0.45360 1.06373 0.10007
 N495 N 0.43528 1.03907 0.04301
 N496 N 0.40993 1.06356 0.05248
 N497 N 0.46168 0.96126 0.07132
 N498 N 0.45563 0.93621 0.10018
 Mn499 Mn 0.50000 1.00062 0.07142
 C500 C 0.42489 0.91957 0.08795
 C501 C 0.42212 1.07903 0.08795
 N502 N 0.56475 0.96124 -0.04604
 N503 N 0.58891 0.93525 -0.05477
 N504 N 0.53899 1.03969 -0.07411
 N505 N 0.54487 1.06567 -0.10205
 N506 N 0.56444 1.03993 -0.04604
 N507 N 0.58833 1.06633 -0.05413
 N508 N 0.53923 0.96161 -0.07406
 N509 N 0.54525 0.93621 -0.10242
 Mn510 Mn 0.56499 1.00072 -0.00137
 C511 C 0.57596 0.91967 -0.08992
 C512 C 0.57543 1.08232 -0.08904
 N513 N 0.43579 1.03923 -0.04640
 N514 N 0.41179 1.06540 -0.05489
 N515 N 0.46185 0.96111 -0.07435
 N516 N 0.45536 0.93658 -0.10353
 N517 N 0.43618 0.96055 -0.04640
 N518 N 0.41145 0.93542 -0.05604
 N519 N 0.46153 1.03917 -0.07426
 N520 N 0.45577 1.06494 -0.10238
 Mn521 Mn 0.43536 0.99981 -0.00163
 Mn522 Mn 0.50041 1.00041 -0.07440
 Cl523 Cl 0.50017 1.00034 -0.00148
 C524 C 0.42499 1.08137 -0.08979
 C525 C 0.42420 0.92040 -0.09159
 N526 N 0.96094 0.56518 0.54416
 N527 N 0.93452 0.58888 0.55215
 N528 N 1.03760 0.54053 0.57151
 N529 N 1.06310 0.54689 0.59881
 N530 N 1.03710 0.56682 0.54336
 N531 N 1.06246 0.59185 0.55077
 N532 N 0.96196 0.53891 0.57232
 N533 N 0.93654 0.54390 0.60011
 C534 C 0.91944 0.57487 0.58709
 C535 C 1.07858 0.57872 0.58538
 N536 N 1.03924 0.43410 0.54405
 N537 N 1.06506 0.40980 0.55229
 N538 N 0.96335 0.45920 0.57261
 N539 N 0.93853 0.45293 0.60083
 N540 N 0.96325 0.43279 0.54467
 N541 N 0.93824 0.40770 0.55329
 N542 N 1.03888 0.46065 0.57180
 N543 N 1.06421 0.45525 0.59954
 Mn544 Mn 1.00047 0.49982 0.57232
 C545 C 1.08055 0.42375 0.58687
 C546 C 0.92291 0.42101 0.58828
 N547 N 1.03663 0.56657 0.45434
 N548 N 1.06179 0.59168 0.44624
 N549 N 0.96115 0.53872 0.42692
 N550 N 0.93612 0.54467 0.39894
 N551 N 0.96074 0.56504 0.45496
 N552 N 0.93531 0.58968 0.44671
 N553 N 1.03685 0.54022 0.42632
 N554 N 1.06200 0.54669 0.39845
 Mn555 Mn 0.99881 0.56640 0.49920
 C556 C 1.07755 0.57861 0.41139
 C557 C 0.92001 0.57625 0.41186
 N558 N 0.96274 0.43210 0.45511
 N559 N 0.93940 0.40553 0.44558
 N560 N 1.03804 0.46002 0.42669
 N561 N 1.06289 0.45392 0.39844
 N562 N 1.03858 0.43378 0.45493
 N563 N 1.06390 0.40906 0.44660
 N564 N 0.96234 0.45850 0.42700
 N565 N 0.93876 0.45071 0.39791
 Mn566 Mn 1.00093 0.43271 0.49972
 Mn567 Mn 0.99960 0.49939 0.42642
 Cl568 Cl 0.99992 0.49956 0.49936
 C569 C 0.92432 0.41793 0.40999
 C570 C 1.07900 0.42234 0.41145
 N571 N 1.06601 0.54259 0.04278
 N572 N 1.09044 0.56802 0.05226
 N573 N 1.04031 0.46396 0.07039
 N574 N 1.04712 0.43936 0.09956
 N575 N 1.06616 0.46410 0.04264
 N576 N 1.09128 0.43940 0.05238
 N577 N 1.04026 0.54202 0.07067
 N578 N 1.04629 0.56691 0.09954
 C579 C 1.07734 0.58317 0.08757
 C580 C 1.07865 0.42387 0.08779
 N581 N 0.93710 0.46484 0.04182
 N582 N 0.91216 0.43963 0.05014
 N583 N 0.96285 0.54248 0.07062
 N584 N 0.95533 0.56626 0.10032
 N585 N 0.93764 0.54311 0.04227
 N586 N 0.91218 0.56732 0.05215
 N587 N 0.96253 0.46425 0.06991
 N588 N 0.95562 0.43871 0.09806
 Mn589 Mn 1.00151 0.50312 0.07061
 C590 C 0.92439 0.42334 0.08513
 C591 C 0.92398 0.58192 0.08821
 N592 N 1.06638 0.46436 -0.04682
 N593 N 1.09082 0.43873 -0.05542
 N594 N 1.04158 0.54239 -0.07559
 N595 N 1.04989 0.56492 -0.10631
 N596 N 1.06695 0.54286 -0.04733
 N597 N 1.09318 0.56600 -0.05835
 N598 N 1.04078 0.46433 -0.07478
 N599 N 1.04710 0.43888 -0.10305
 Mn600 Mn 1.06682 0.50355 -0.00216
 C601 C 1.07808 0.42286 -0.09041
 C602 C 1.08178 0.57987 -0.09509
 N603 N 0.93835 0.54337 -0.04699
 N604 N 0.91363 0.56852 -0.05602
 N605 N 0.96289 0.46479 -0.07510
 N606 N 0.95526 0.44038 -0.10415
 N607 N 0.93738 0.46518 -0.04697
 N608 N 0.91177 0.44099 -0.05614
 N609 N 0.96378 0.54302 -0.07525
 N610 N 0.95709 0.56792 -0.10413
 Mn611 Mn 0.93730 0.50419 -0.00249
 Mn612 Mn 1.00225 0.50360 -0.07541
 Cl613 Cl 1.00203 0.50367 -0.00239
 C614 C 0.92603 0.58389 -0.09151
 C615 C 0.92359 0.42540 -0.09167
 N616 N 0.56586 1.04015 0.54492
 N617 N 0.59044 1.06556 0.55395
 N618 N 0.53944 0.96220 0.57287
 N619 N 0.54546 0.93669 0.60125
 N620 N 0.56492 0.96179 0.54474
 N621 N 0.58908 0.93591 0.55333
 N622 N 0.54004 1.04020 0.57271
 N623 N 0.54623 1.06543 0.60119
 C624 C 0.57742 1.08129 0.58898
 C625 C 0.57623 0.92028 0.58849
 N626 N 0.43686 0.96237 0.54460
 N627 N 0.41277 0.93614 0.55297
 N628 N 0.46263 1.04084 0.57267
 N629 N 0.45562 1.06555 0.60156
 N630 N 0.43723 1.04091 0.54455
 N631 N 0.41221 1.06576 0.55360
 N632 N 0.46213 0.96280 0.57288
 N633 N 0.45595 0.93729 0.60123
 Mn634 Mn 0.50108 1.00155 0.57302
 C635 C 0.42536 0.92067 0.58839
 C636 C 0.42440 1.08118 0.58903
 N637 N 0.56525 0.96182 0.45560
 N638 N 0.58873 0.93509 0.44770
 N639 N 0.54162 1.04066 0.42713
 N640 N 0.55093 1.06293 0.39646
 N641 N 0.56703 1.04003 0.45533
 N642 N 0.59426 1.06175 0.44431
 N643 N 0.53993 0.96251 0.42736
 N644 N 0.54537 0.93641 0.39962
 Mn645 Mn 0.56618 1.00095 0.50019
 C646 C 0.57562 0.91934 0.41282
 C647 C 0.58350 1.07635 0.40780
 N648 N 0.43783 1.04144 0.45552
 N649 N 0.41351 1.06719 0.44700
 N650 N 0.46234 0.96337 0.42699
 N651 N 0.45479 0.93903 0.39785
 N652 N 0.43707 0.96323 0.45540
 N653 N 0.41164 0.93885 0.44628
 N654 N 0.46350 1.04153 0.42753
 N655 N 0.45734 1.06716 0.39931
 Mn656 Mn 0.43684 1.00196 0.50000
 Mn657 Mn 0.50183 1.00208 0.42696
 Cl658 Cl 0.50150 1.00171 0.49998
 C659 C 0.42638 1.08322 0.41206
 C660 C 0.42338 0.92365 0.41053
 N661 N 1.06083 1.03721 0.55480
 N662 N 1.08424 1.06354 0.56402
 N663 N 1.04013 0.95644 0.57634
 N664 N 1.04895 0.93074 0.60324
 N665 N 1.06442 0.95921 0.54698
 N666 N 1.09085 0.93501 0.55356
 N667 N 1.03679 1.03359 0.58432
 N668 N 1.04321 1.05718 0.61446
 C669 C 1.07259 1.07587 0.60118
 C670 C 1.08024 0.91731 0.58873
 N671 N 0.93786 0.95155 0.55365
 N672 N 0.91534 0.92387 0.56047
 N673 N 0.95972 1.02873 0.58940
 N674 N 0.95496 1.05375 0.61853
 N675 N 0.93287 1.02908 0.56322
 N676 N 0.90917 1.05483 0.57347
 N677 N 0.96397 0.95134 0.58085
 N678 N 0.96013 0.92337 0.60681
 Mn679 Mn 1.00016 0.99264 0.58300
 C680 C 0.92996 0.90630 0.59337
 C681 C 0.92347 1.06992 0.60803
 N682 N 1.05953 0.96789 0.45750
 N683 N 1.08430 0.94419 0.44469
 N684 N 1.02881 1.04760 0.44092
 N685 N 1.03391 1.07373 0.41302
 N686 N 1.05644 1.04554 0.46616
 N687 N 1.08112 1.07046 0.45577
 N688 N 1.03326 0.97043 0.43052
 N689 N 1.03939 0.94848 0.39874
 Mn690 Mn 1.06085 1.00235 0.50631
 C691 C 1.07109 0.93208 0.40816
 C692 C 1.06621 1.08818 0.42298
 N693 N 0.92804 1.03748 0.47642
 N694 N 0.90247 1.06285 0.47599
 N695 N 0.95651 0.96555 0.43567
 N696 N 0.95072 0.94290 0.40458
 N697 N 0.93290 0.96012 0.46524
 N698 N 0.91005 0.93349 0.45481
 N699 N 0.95112 1.04284 0.44631
 N700 N 0.94139 1.07189 0.42390
 Mn701 Mn 0.93251 0.99433 0.51464
 Mn702 Mn 0.99239 1.00680 0.43803
 Cl703 Cl 0.99659 0.99901 0.51041
 C704 C 0.91116 1.08418 0.44325
 C705 C 0.92197 0.92289 0.41699
 N706 N 0.52424 0.42702 -0.03568
 N707 N 0.52738 0.40032 -0.06344
 N708 N 0.55193 0.44815 0.05135
 N709 N 0.57511 0.43580 0.07883
 N710 N 0.52263 0.42766 0.05137
 N711 N 0.52504 0.40091 0.07930
 N712 N 0.55355 0.44743 -0.03477
 N713 N 0.57753 0.43506 -0.06136
 C714 C 0.56074 0.40595 -0.07930
 C715 C 0.55785 0.40665 0.09641
 N716 N 0.54783 0.55729 0.04937
 N717 N 0.56154 0.58248 0.07434
 N718 N 0.56820 0.52575 -0.03599
 N719 N 0.59442 0.52776 -0.06346
 N720 N 0.54879 0.55627 -0.03642
 N721 N 0.56156 0.58013 -0.06361
 N722 N 0.56683 0.52650 0.05077
 N723 N 0.59350 0.52965 0.07735
 Mn724 Mn 0.56039 0.48692 0.00786
 C725 C 0.58955 0.56452 0.09203
 C726 C 0.58967 0.56174 -0.08053
 N727 N 0.44633 0.44317 0.04879
 N728 N 0.43187 0.41834 0.07377
 N729 N 0.42872 0.47319 -0.03814
 N730 N 0.40359 0.47081 -0.06677
 N731 N 0.44809 0.44264 -0.03701
 N732 N 0.43633 0.41841 -0.06427
 N733 N 0.42718 0.47391 0.04863
 N734 N 0.39957 0.47102 0.07414
 Mn735 Mn 0.48527 0.43475 0.00688
 C736 C 0.40316 0.43639 0.08980
 C737 C 0.40891 0.43659 -0.08289
 N738 N 0.47270 0.57200 -0.03850
 N739 N 0.46999 0.59923 -0.06578
 N740 N 0.44199 0.55258 0.04764
 N741 N 0.41771 0.56626 0.07313
 N742 N 0.47156 0.57267 0.04843
 N743 N 0.46837 0.60022 0.07508
 N744 N 0.44328 0.55171 -0.03828
 N745 N 0.41961 0.56481 -0.06480
 Mn746 Mn 0.51026 0.56489 0.00572
 Mn747 Mn 0.43501 0.51285 0.00499
 Cl748 Cl 0.49772 0.49986 0.00642
 C749 C 0.43681 0.59409 -0.08210
 C750 C 0.43475 0.59559 0.09041
 C751 C 0.32378 1.16623 0.12523
 C752 C 0.35256 1.14529 0.13430
 C753 C 0.37137 1.12199 0.10358
 C754 C 0.40240 1.10563 0.11402
 H755 H 0.36270 1.14506 0.16565
 H756 H 0.35967 1.11754 0.07339
 H757 H 0.31420 1.16781 0.09373
 H758 H 0.41390 1.11121 0.14411
 C759 C 0.82563 0.66810 0.62032
 C760 C 0.84632 0.63875 0.62947
 C761 C 0.87194 0.62215 0.59993
 C762 C 0.89039 0.59196 0.61133
 H763 H 0.84544 0.62723 0.66040
 H764 H 0.87669 0.63513 0.57022
 H765 H 0.82574 0.67940 0.58931
 H766 H 0.88469 0.57924 0.64100
 C767 C 0.67340 0.83222 0.12684
 C768 C 0.64530 0.85410 0.13593
 C769 C 0.62707 0.87774 0.10502
 C770 C 0.59650 0.89502 0.11543
 H771 H 0.63530 0.85486 0.16738
 H772 H 0.63879 0.88159 0.07468
 H773 H 0.68281 0.83024 0.09526
 H774 H 0.58493 0.88997 0.14567
 C775 C 1.16972 0.32655 0.62198
 C776 C 1.15071 0.35721 0.63046
 C777 C 1.12575 0.37448 0.60075
 C778 C 1.10903 0.40596 0.61128
 H779 H 1.15263 0.36950 0.66091
 H780 H 1.12000 0.36100 0.57163
 H781 H 1.16871 0.31453 0.59138
 H782 H 1.11559 0.41910 0.64039
 C783 C 0.66936 1.17617 -0.12139
 C784 C 0.64138 1.15436 -0.13121
 C785 C 0.62324 1.12943 -0.10152
 C786 C 0.59362 1.11125 -0.11349
 H787 H 0.63184 1.15402 -0.16281
 H788 H 0.63461 1.12487 -0.07118
 H789 H 0.67840 1.17795 -0.08971
 H790 H 0.58238 1.11694 -0.14370
 C791 C 1.16532 0.67875 0.37895
 C792 C 1.14689 0.64775 0.36977
 C793 C 1.12194 0.62924 0.39882
 C794 C 1.10577 0.59762 0.38736
 H795 H 1.14933 0.63598 0.33912
 H796 H 1.11581 0.64191 0.42831
 H797 H 1.16388 0.69030 0.40975
 H798 H 1.11269 0.58528 0.35791
 C799 C 0.32989 0.82874 -0.13001
 C800 C 0.35752 0.85145 -0.13880
 C801 C 0.37517 0.87529 -0.10768
 C802 C 0.40541 0.89335 -0.11797
 H803 H 0.36753 0.85281 -0.17021
 H804 H 0.36333 0.87864 -0.07734
 H805 H 0.32044 0.82619 -0.09849
 H806 H 0.41710 0.88871 -0.14820
 C807 C 0.84446 0.31287 0.36866
 C808 C 0.86088 0.34566 0.36205
 C809 C 0.88445 0.36402 0.39276
 C810 C 0.89821 0.39763 0.38411
 H811 H 0.85721 0.35953 0.33263
 H812 H 0.89117 0.34998 0.42133
 H813 H 0.84724 0.29912 0.39825
 H814 H 0.89081 0.41106 0.35538
 C815 C 1.17617 0.33556 0.12643
 C816 C 1.14681 0.35594 0.13493
 C817 C 1.12906 0.38035 0.10424
 C818 C 1.09778 0.39672 0.11398
 H819 H 1.13538 0.35483 0.16572
 H820 H 1.14165 0.38545 0.07459
 H821 H 1.18716 0.33559 0.09545
 H822 H 1.08548 0.39059 0.14358
 C823 C 0.67448 0.83311 0.62259
 C824 C 0.64415 0.85144 0.63170
 C825 C 0.62595 0.87633 0.60231
 C826 C 0.59468 0.89189 0.61314
 H827 H 0.63246 0.84857 0.66223
 H828 H 0.63850 0.88292 0.57298
 H829 H 0.68577 0.83464 0.59179
 H830 H 0.58244 0.88462 0.64247
 C831 C 1.18229 0.66352 -0.13460
 C832 C 1.15186 0.64144 -0.14267
 C833 C 1.13399 0.62071 -0.11209
 C834 C 1.10110 0.60359 -0.12133
 H835 H 1.14089 0.64111 -0.17366
 H836 H 1.14531 0.61837 -0.08141
 H837 H 1.19139 0.66599 -0.10295
 H838 H 1.08929 0.60881 -0.15137
 C839 C 0.69291 1.14646 0.36353
 C840 C 0.65979 1.13249 0.35703
 C841 C 0.63958 1.11059 0.38822
 C842 C 0.60554 1.10017 0.38041
 H843 H 0.64659 1.13788 0.32781
 H844 H 0.65247 1.10267 0.41688
 H845 H 0.70582 1.14248 0.39315
 H846 H 0.59322 1.10851 0.35155
 C847 C 0.82218 0.66424 0.12712
 C848 C 0.85281 0.64597 0.13548
 C849 C 0.87195 0.62287 0.10480
 C850 C 0.90392 0.60808 0.11455
 H851 H 0.86428 0.64788 0.16614
 H852 H 0.85971 0.61725 0.07514
 H853 H 0.81112 0.66357 0.09623
 H854 H 0.91580 0.61446 0.14424
 C855 C 0.32220 1.16286 0.62491
 C856 C 0.35342 1.14601 0.63365
 C857 C 0.37264 1.12225 0.60396
 C858 C 0.40476 1.10830 0.61424
 H859 H 0.36526 1.14952 0.66396
 H860 H 0.36022 1.11523 0.57477
 H861 H 0.31076 1.16076 0.59428
 H862 H 0.41682 1.11589 0.64347
 C863 C 0.82007 0.34398 -0.12617
 C864 C 0.85124 0.36103 -0.13549
 C865 C 0.87101 0.38481 -0.10614
 C866 C 0.90321 0.39869 -0.11688
 H867 H 0.86271 0.35757 -0.16603
 H868 H 0.85901 0.39172 -0.07664
 H869 H 0.80899 0.34610 -0.09533
 H870 H 0.91489 0.39114 -0.14637
 C871 C 0.31951 0.84319 0.37617
 C872 C 0.35090 0.85974 0.36691
 C873 C 0.37088 0.88320 0.39626
 C874 C 0.40305 0.89696 0.38537
 H875 H 0.36234 0.85621 0.33636
 H876 H 0.35899 0.89011 0.42582
 H877 H 0.30844 0.84532 0.40702
 H878 H 0.41461 0.88950 0.35579
 C879 C 1.16789 1.16547 0.37788
 C880 C 1.13623 1.14927 0.37075
 C881 C 1.11801 1.12693 0.40259
 C882 C 1.08456 1.11497 0.39605
 H883 H 1.12366 1.15214 0.34074
 H884 H 1.13231 1.11908 0.43040
 H885 H 1.17973 1.16394 0.40838
 H886 H 1.07049 1.12347 0.36831
 C887 C 0.66038 0.66513 -0.13087
 C888 C 0.64525 0.63231 -0.13906
 C889 C 0.62097 0.61481 -0.10929
 C890 C 0.61441 0.57839 -0.11037
 H891 H 0.65071 0.61824 -0.16796
 H892 H 0.60866 0.63196 -0.08564
 H893 H 0.65672 0.67795 -0.10091
 H894 H 0.62863 0.56056 -0.13184
 C895 C 0.83228 1.16501 0.63541
 C896 C 0.85998 1.14416 0.64777
 C897 C 0.87773 1.11781 0.61993
 C898 C 0.90650 1.09898 0.63284
 H899 H 0.86911 1.14556 0.67949
 H900 H 0.86671 1.11296 0.58946
 H901 H 0.82367 1.16426 0.60349
 H902 H 0.91785 1.10464 0.66297
 C903 C 0.33239 0.66887 0.13555
 C904 C 0.36416 0.65373 0.14514
 C905 C 0.38225 0.62848 0.11631
 C906 C 0.41747 0.62154 0.11905
 H907 H 0.37671 0.65957 0.17460
 H908 H 0.36648 0.61562 0.09207
 H909 H 0.32104 0.66459 0.10513
 H910 H 0.43397 0.63630 0.14117
 C911 C 1.17852 0.83000 0.61972
 C912 C 1.14907 0.85250 0.62912
 C913 C 1.13173 0.87473 0.59998
 C914 C 1.09944 0.89130 0.61141
 H915 H 1.13848 0.85214 0.66037
 H916 H 1.14282 0.87866 0.56933
 H917 H 1.18707 0.82768 0.58781
 H918 H 1.08779 0.88374 0.64102
 C919 C 0.66238 0.34114 0.14459
 C920 C 0.62955 0.35282 0.15535
 C921 C 0.61073 0.37924 0.12830
 C922 C 0.57485 0.38144 0.12639
 H923 H 0.61665 0.34266 0.18320
 H924 H 0.62697 0.39609 0.10759
 H925 H 0.67358 0.34967 0.11512
 H926 H 0.55815 0.36299 0.14472
 C927 C 0.82912 0.83254 0.37783
 C928 C 0.85760 0.85361 0.36876
 C929 C 0.87519 0.87685 0.40004
 C930 C 0.90457 0.89597 0.38974
 H931 H 0.86777 0.85445 0.33738
 H932 H 0.86361 0.87932 0.43063
 H933 H 0.81943 0.83102 0.40935
 H934 H 0.91593 0.89289 0.35909
 C935 C 0.33874 0.33329 -0.13338
 C936 C 0.35466 0.36561 -0.14236
 C937 C 0.37888 0.38315 -0.11262
 C938 C 0.38525 0.41963 -0.11358
 H939 H 0.34955 0.37940 -0.17155
 H940 H 0.39084 0.36605 -0.08867
 H941 H 0.34215 0.32093 -0.10311
 H942 H 0.37128 0.43738 -0.13535
 C943 C 1.17697 0.33643 -0.12547
 C944 C 1.14637 0.35441 -0.13428
 C945 C 1.12807 0.37907 -0.10463
 C946 C 1.09673 0.39463 -0.11518
 H947 H 1.13472 0.35170 -0.16478
 H948 H 1.14065 0.38556 -0.07538
 H949 H 1.18830 0.33809 -0.09475
 H950 H 1.08449 0.38744 -0.14444
 C951 C 0.67206 0.82994 0.37986
 C952 C 0.64177 0.84827 0.37075
 C953 C 0.62380 0.87335 0.40009
 C954 C 0.59326 0.89004 0.38878
 H955 H 0.63048 0.84597 0.34002
 H956 H 0.63622 0.87957 0.42950
 H957 H 0.68305 0.83117 0.41077
 H958 H 0.58115 0.88317 0.35935
 C959 C 0.82308 0.66419 -0.12699
 C960 C 0.85467 0.64822 -0.13597
 C961 C 0.87453 0.62519 -0.10614
 C962 C 0.90651 0.61109 -0.11677
 H963 H 0.86594 0.65133 -0.16669
 H964 H 0.86244 0.61842 -0.07661
 H965 H 0.81217 0.66231 -0.09603
 H966 H 0.91829 0.61833 -0.14635
 C967 C 0.32644 1.16822 0.37800
 C968 C 0.35721 1.15074 0.36872
 C969 C 0.37628 1.12676 0.39835
 C970 C 0.40760 1.11138 0.38734
 H971 H 0.36821 1.15312 0.33780
 H972 H 0.36411 1.12033 0.42793
 H973 H 0.31578 1.16699 0.40911
 H974 H 0.41950 1.11847 0.35778
 C975 C 1.17444 0.67000 0.12647
 C976 C 1.14432 0.65100 0.13464
 C977 C 1.12687 0.62684 0.10394
 C978 C 1.09553 0.61080 0.11345
 H979 H 1.13241 0.65267 0.16516
 H980 H 1.13995 0.62125 0.07469
 H981 H 1.18596 0.66927 0.09574
 H982 H 1.08278 0.61718 0.14271
 C983 C 0.67515 1.16810 0.62598
 C984 C 0.64488 1.14946 0.63453
 C985 C 0.62719 1.12497 0.60435
 C986 C 0.59581 1.10920 0.61431
 H987 H 0.63305 1.15162 0.66505
 H988 H 0.64013 1.11890 0.57513
 H989 H 0.68663 1.16690 0.59525
 H990 H 0.58318 1.11605 0.64351
 C991 C 0.82216 0.34064 0.11956
 C992 C 0.85414 0.35623 0.12773
 C993 C 0.87280 0.38146 0.09891
 C994 C 0.90506 0.39507 0.10928
 H995 H 0.86698 0.35078 0.15715
 H996 H 0.85987 0.38984 0.07043
 H997 H 0.80952 0.34490 0.08983
 H998 H 0.91753 0.38624 0.13789
 C999 C 0.33146 0.82741 0.61934
 C1000 C 0.36107 0.85004 0.62881
 C1001 C 0.37741 0.87386 0.60019
 C1002 C 0.40856 0.89300 0.61164
 H1003 H 0.37191 0.84938 0.65987
 H1004 H 0.36589 0.87767 0.56979
 H1005 H 0.32263 0.82561 0.58753
 H1006 H 0.42079 0.88642 0.64113
 C1007 C 0.33326 1.17670 -0.12383
 C1008 C 0.36039 1.15380 -0.13351
 C1009 C 0.37795 1.12907 -0.10323
 C1010 C 0.40706 1.10992 -0.11489
 H1011 H 0.36946 1.15226 -0.16528
 H1012 H 0.36665 1.12556 -0.07263
 H1013 H 0.32461 1.17930 -0.09203
 H1014 H 0.41832 1.11474 -0.14533
 C1015 C 0.83449 0.67692 0.37840
 C1016 C 0.85231 0.64563 0.36936
 C1017 C 0.87676 0.62710 0.39853
 C1018 C 0.89206 0.59497 0.38761
 H1019 H 0.84941 0.63346 0.33896
 H1020 H 0.88327 0.64016 0.42768
 H1021 H 0.83608 0.68870 0.40908
 H1022 H 0.88490 0.58224 0.35846
 C1023 C 0.66416 1.18107 0.11703
 C1024 C 0.63826 1.15682 0.12743
 C1025 C 0.61982 1.13265 0.09738
 C1026 C 0.59189 1.11214 0.11018
 H1027 H 0.63133 1.15328 0.15972
 H1028 H 0.62987 1.13029 0.06610
 H1029 H 0.67058 1.18587 0.08485
 H1030 H 0.58171 1.11594 0.14126
 C1031 C 1.16898 0.67659 0.61636
 C1032 C 1.14929 0.64646 0.62578
 C1033 C 1.12372 0.62878 0.59705
 C1034 C 1.10716 0.59742 0.60881
 H1035 H 1.15147 0.63449 0.65641
 H1036 H 1.11764 0.64167 0.56763
 H1037 H 1.16803 0.68826 0.58554
 H1038 H 1.11419 0.58488 0.63815
 C1039 C 0.66623 0.82298 -0.12540
 C1040 C 0.63986 0.84692 -0.13479
 C1041 C 0.62278 0.87168 -0.10414
 C1042 C 0.59400 0.89149 -0.11547
 H1043 H 0.63090 0.84910 -0.16652
 H1044 H 0.63398 0.87442 -0.07345
 H1045 H 0.67480 0.81987 -0.09365
 H1046 H 0.58283 0.88732 -0.14600
 C1047 C 1.16323 0.32069 0.37788
 C1048 C 1.14594 0.35232 0.36890
 C1049 C 1.12177 0.37116 0.39812
 C1050 C 1.10676 0.40343 0.38710
 H1051 H 1.14904 0.36455 0.33848
 H1052 H 1.11514 0.35817 0.42737
 H1053 H 1.16149 0.30884 0.40858
 H1054 H 1.11396 0.41607 0.35782
 C1055 C 0.33118 0.82747 0.12498
 C1056 C 0.35868 0.84998 0.13418
 C1057 C 0.37688 0.87344 0.10314
 C1058 C 0.40650 0.89202 0.11403
 H1059 H 0.36761 0.85206 0.16593
 H1060 H 0.36562 0.87655 0.07252
 H1061 H 0.32276 0.82432 0.09319
 H1062 H 0.41770 0.88768 0.14453
 C1063 C 0.83662 0.32131 0.62432
 C1064 C 0.85486 0.35255 0.63237
 C1065 C 0.87970 0.37010 0.60273
 C1066 C 0.89506 0.40239 0.61288
 H1067 H 0.85185 0.36562 0.66231
 H1068 H 0.88622 0.35643 0.57391
 H1069 H 0.83841 0.30856 0.59413
 H1070 H 0.88780 0.41564 0.64175
 C1071 C 1.16984 1.16359 0.63133
 C1072 C 1.14064 1.14454 0.64285
 C1073 C 1.12110 1.12055 0.61406
 C1074 C 1.09121 1.10333 0.62657
 H1075 H 1.13114 1.14614 0.67446
 H1076 H 1.13175 1.11594 0.58333
 H1077 H 1.17874 1.16306 0.59948
 H1078 H 1.08067 1.10838 0.65727
 C1079 C 0.66804 0.66654 0.13170
 C1080 C 0.65104 0.63505 0.14187
 C1081 C 0.62567 0.61724 0.11362
 C1082 C 0.61537 0.58213 0.11971
 H1083 H 0.65521 0.62249 0.17193
 H1084 H 0.61536 0.63290 0.08756
 H1085 H 0.66518 0.67812 0.10098
 H1086 H 0.62760 0.56548 0.14381
 C1087 C 1.16694 0.84452 0.37043
 C1088 C 1.13882 0.86562 0.35979
 C1089 C 1.12014 0.88909 0.39017
 C1090 C 1.08976 0.90664 0.37996
 H1091 H 1.12934 0.86566 0.32817
 H1092 H 1.13143 0.89233 0.42077
 H1093 H 1.17561 0.84366 0.40233
 H1094 H 1.07824 0.90263 0.34959
 C1095 C 0.66596 0.34306 -0.13311
 C1096 C 0.63253 0.35492 -0.14072
 C1097 C 0.61397 0.37878 -0.11082
 C1098 C 0.57811 0.38157 -0.10965
 H1099 H 0.61877 0.34678 -0.16875
 H1100 H 0.63016 0.39380 -0.08854
 H1101 H 0.67850 0.34913 -0.10370
 H1102 H 0.56151 0.36481 -0.12985
 C1103 C 0.85510 1.14985 0.33179
 C1104 C 0.86003 1.14911 0.37239
 C1105 C 0.88810 1.12463 0.38923
 C1106 C 0.88764 1.11408 0.42848
 H1107 H 0.84299 1.16526 0.39280
 H1108 H 0.90766 1.11247 0.36832
 H1109 H 0.87218 1.13271 0.31236
 H1110 H 0.86690 1.12445 0.44904
 C1111 C 0.33356 0.66177 -0.13506
 C1112 C 0.36650 0.64822 -0.14228
 C1113 C 0.38429 0.62422 -0.11188
 C1114 C 0.41996 0.61928 -0.11199
 H1115 H 0.38040 0.65472 -0.17086
 H1116 H 0.36783 0.61055 -0.08868
 H1117 H 0.32079 0.65727 -0.10537
 H1118 H 0.43692 0.63480 -0.13313
 C1119 C 0.82720 0.82742 0.62481
 C1120 C 0.86000 0.83993 0.63398
 C1121 C 0.88013 0.86357 0.60542
 C1122 C 0.91237 0.87643 0.61629
 H1123 H 0.87161 0.83398 0.66396
 H1124 H 0.86746 0.87278 0.57707
 H1125 H 0.81598 0.83174 0.59434
 H1126 H 0.92482 0.86716 0.64474
 C1127 C 0.32721 0.33232 0.12965
 C1128 C 0.34220 0.36495 0.13925
 C1129 C 0.36753 0.38330 0.11126
 C1130 C 0.37649 0.41885 0.11664
 H1131 H 0.33667 0.37785 0.16880
 H1132 H 0.37929 0.36746 0.08616
 H1133 H 0.33127 0.32033 0.09934
 H1134 H 0.36300 0.43561 0.13972
   
