data_POSCAR
  _audit_creation_date              2014-09-24
  _audit_creation_method            'ToBaCCo'
  _symmetry_space_group_name_H-M    'P1'
  _symmetry_Int_Tables_number       1
  _symmetry_cell_setting            triclinic
  loop_
  _symmetry_equiv_pos_as_xyz
 x,y,z
_cell_length_a 42.9433
_cell_length_b 42.9342
_cell_length_c 42.8758
_cell_angle_alpha 89.937500
_cell_angle_beta 90.034900
_cell_angle_gamma 90.037400
loop_
  _atom_site_label
  _atom_site_type_symbol
  _atom_site_fract_x
  _atom_site_fract_y
  _atom_site_fract_z
C1 C 0.19164 0.15040 0.19086
 C2 C 0.17976 0.13859 0.21902
 C3 C 0.15505 0.15364 0.23487
 C4 C 0.14341 0.18164 0.22192
 C5 C 0.15464 0.19327 0.19351
 C6 C 0.17851 0.17736 0.17772
 C7 C 0.21668 0.13565 0.17585
 C8 C 0.22885 0.14718 0.14737
 C9 C 0.21382 0.17319 0.13370
 C10 C 0.18934 0.18854 0.14885
 C11 C 0.17574 0.21516 0.13558
 C12 C 0.15248 0.23189 0.15156
 C13 C 0.14237 0.22076 0.18078
 H14 H 0.18909 0.11676 0.22743
 H15 H 0.12602 0.19519 0.23408
 H16 H 0.22754 0.11627 0.18771
 H17 H 0.22066 0.18163 0.11093
 H18 H 0.18344 0.22279 0.11277
 H19 H 0.12507 0.23354 0.19392
 C20 C -0.18972 0.85111 0.18812
 C21 C -0.17826 0.86233 0.21668
 C22 C -0.15324 0.84746 0.23232
 C23 C -0.14073 0.82026 0.21849
 C24 C -0.15143 0.80935 0.18959
 C25 C -0.17571 0.82508 0.17417
 C26 C -0.21527 0.86548 0.17355
 C27 C -0.22689 0.85485 0.14445
 C28 C -0.21084 0.82992 0.12998
 C29 C -0.18613 0.81462 0.14490
 C30 C -0.17202 0.78862 0.13106
 C31 C -0.14852 0.77195 0.14673
 C32 C -0.13839 0.78260 0.17608
 H33 H -0.18829 0.88360 0.22561
 H34 H -0.12311 0.80668 0.23031
 H35 H -0.22676 0.88388 0.18625
 H36 H -0.21700 0.82216 0.10682
 H37 H -0.17967 0.78117 0.10816
 H38 H -0.12067 0.76984 0.18874
 C39 C -0.18796 0.14615 -0.18749
 C40 C -0.17440 0.13311 -0.21426
 C41 C -0.14547 0.14384 -0.22540
 C42 C -0.13011 0.16778 -0.20905
 C43 C -0.14392 0.18176 -0.18295
 C44 C -0.17293 0.17089 -0.17211
 C45 C -0.21664 0.13515 -0.17635
 C46 C -0.23077 0.14809 -0.14948
 C47 C -0.21550 0.17345 -0.13485
 C48 C -0.18709 0.18504 -0.14615
 C49 C -0.17284 0.21092 -0.13207
 C50 C -0.14419 0.22252 -0.14317
 C51 C -0.12948 0.20698 -0.16805
 H52 H -0.18681 0.11505 -0.22677
 H53 H -0.10753 0.17591 -0.21684
 H54 H -0.22820 0.11711 -0.18960
 H55 H -0.22468 0.18371 -0.11377
 H56 H -0.18473 0.22265 -0.11317
 H57 H -0.10697 0.21485 -0.17631
 C58 C 0.18574 0.85338 -0.18581
 C59 C 0.17421 0.86539 -0.21402
 C60 C 0.14942 0.85066 -0.23014
 C61 C 0.13710 0.82293 -0.21708
 C62 C 0.14781 0.81126 -0.18849
 C63 C 0.17196 0.82670 -0.17262
 C64 C 0.21115 0.86750 -0.17077
 C65 C 0.22265 0.85560 -0.14236
 C66 C 0.20745 0.83001 -0.12857
 C67 C 0.18263 0.81519 -0.14374
 C68 C 0.16883 0.78857 -0.13078
 C69 C 0.14527 0.77239 -0.14687
 C70 C 0.13496 0.78399 -0.17580
 H71 H 0.18409 0.88700 -0.22235
 H72 H 0.11971 0.80946 -0.22934
 H73 H 0.22264 0.88704 -0.18187
 H74 H 0.21532 0.82114 -0.10625
 H75 H 0.17670 0.78033 -0.10822
 H76 H 0.11724 0.77155 -0.18878
 C77 C 0.14824 1.19095 0.80906
 C78 C 0.13650 1.17921 0.78083
 C79 C 0.15165 1.15466 0.76484
 C80 C 0.17963 1.14298 0.77777
 C81 C 0.19119 1.15407 0.80625
 C82 C 0.17522 1.17783 0.82214
 C83 C 0.13343 1.21589 0.82416
 C84 C 0.14494 1.22798 0.85266
 C85 C 0.17098 1.21298 0.86628
 C86 C 0.18637 1.18857 0.85105
 C87 C 0.21303 1.17499 0.86424
 C88 C 0.22980 1.15184 0.84817
 C89 C 0.21869 1.14180 0.81893
 H90 H 0.11466 1.18854 0.77245
 H91 H 0.19324 1.12569 0.76552
 H92 H 0.11403 1.22676 0.81234
 H93 H 0.17941 1.21980 0.88904
 H94 H 0.22067 1.18264 0.88705
 H95 H 0.23152 1.12457 0.80573
 C96 C 0.85419 0.81485 0.81495
 C97 C 0.86844 0.82928 0.78920
 C98 C 0.85730 0.85794 0.77707
 C99 C 0.83211 0.87225 0.79284
 C100 C 0.81710 0.85757 0.81791
 C101 C 0.82799 0.82865 0.82881
 C102 C 0.86561 0.78648 0.82665
 C103 C 0.85083 0.77093 0.85180
 C104 C 0.82370 0.78477 0.86444
 C105 C 0.81247 0.81341 0.85339
 C106 C 0.78553 0.82675 0.86624
 C107 C 0.77441 0.85573 0.85557
 C108 C 0.79091 0.87125 0.83182
 H109 H 0.88708 0.81680 0.77785
 H110 H 0.82395 0.89510 0.78612
 H111 H 0.88690 0.77756 0.81665
 H112 H 0.81033 0.77304 0.88230
 H113 H 0.77293 0.81418 0.88415
 H114 H 0.78317 0.89388 0.82377
 C115 C 0.15045 0.80846 1.19023
 C116 C 0.13755 0.82161 1.21727
 C117 C 0.14800 0.85061 1.22850
 C118 C 0.17172 0.86630 1.21215
 C119 C 0.18556 0.85290 1.18577
 C120 C 0.17482 0.82393 1.17470
 C121 C 0.13954 0.77986 1.17883
 C122 C 0.15194 0.76637 1.15136
 C123 C 0.17702 0.78206 1.13663
 C124 C 0.18867 0.81030 1.14830
 C125 C 0.21423 0.82499 1.13406
 C126 C 0.22573 0.85357 1.14542
 C127 C 0.21043 0.86778 1.17072
 H128 H 0.11967 0.80894 1.22980
 H129 H 0.17965 0.88892 1.22004
 H130 H 0.12187 0.76795 1.19227
 H131 H 0.18697 0.77342 1.11518
 H132 H 0.22576 0.81351 1.11478
 H133 H 0.21817 0.89026 1.17916
 C134 C 0.85328 1.18513 1.18525
 C135 C 0.86502 1.17309 1.21333
 C136 C 0.85048 1.14764 1.22861
 C137 C 0.82337 1.13495 1.21469
 C138 C 0.81182 1.14636 1.18629
 C139 C 0.82700 1.17131 1.17136
 C140 C 0.86723 1.21115 1.17107
 C141 C 0.85552 1.22325 1.14284
 C142 C 0.83026 1.20814 1.12840
 C143 C 0.81562 1.18272 1.14271
 C144 C 0.78926 1.16908 1.12913
 C145 C 0.77325 1.14483 1.14433
 C146 C 0.78484 1.13355 1.17292
 H147 H 0.88631 1.18312 1.22228
 H148 H 0.81022 1.11680 1.22623
 H149 H 0.88649 1.22260 1.18268
 H150 H 0.82154 1.21650 1.10620
 H151 H 0.78102 1.17763 1.10682
 H152 H 0.77254 1.11520 1.18515
 N153 N 0.46577 1.03290 0.94412
 N154 N 0.44164 1.03644 0.92538
 N155 N 0.53143 1.05477 0.96502
 N156 N 0.55548 1.07356 0.96133
 N157 N 0.53145 1.03292 0.94361
 N158 N 0.55569 1.03609 0.92496
 N159 N 0.46607 1.05472 0.96554
 N160 N 0.44232 1.07385 0.96181
 C161 C 0.42727 1.06214 0.93665
 C162 C 0.57039 1.06164 0.93621
 N163 N 0.53234 1.03303 1.05373
 N164 N 0.55732 1.03571 1.07146
 N165 N 0.46655 1.05463 1.03273
 N166 N 0.44195 1.07276 1.03574
 N167 N 0.46656 1.03282 1.05423
 N168 N 0.44180 1.03541 1.07229
 N169 N 0.53194 1.05487 1.03228
 N170 N 0.55642 1.07325 1.03509
 Mn171 Mn 0.49900 1.05514 0.99891
 C172 C 0.57199 1.06103 1.05968
 C173 C 0.42677 1.06057 1.06058
 N174 N 0.53139 0.96584 0.94361
 N175 N 0.55610 0.96328 0.92549
 N176 N 0.46634 0.94406 0.96575
 N177 N 0.44154 0.92604 0.96353
 N178 N 0.46565 0.96600 0.94441
 N179 N 0.44014 0.96374 0.92736
 N180 N 0.53191 0.94452 0.96558
 N181 N 0.55709 0.92708 0.96319
 Mn182 Mn 0.49855 0.99939 0.94352
 C183 C 0.57184 0.93891 0.93792
 C184 C 0.42548 0.93852 0.93940
 N185 N 0.46692 0.96577 1.05459
 N186 N 0.44229 0.96304 1.07279
 N187 N 0.53226 0.94442 1.03256
 N188 N 0.55704 0.92644 1.03521
 N189 N 0.53250 0.96618 1.05403
 N190 N 0.55750 0.96367 1.07177
 N191 N 0.46655 0.94437 1.03274
 N192 N 0.44148 0.92674 1.03528
 Mn193 Mn 0.49958 0.99947 1.05456
 Mn194 Mn 0.49927 0.94394 0.99916
 Cl195 Cl 0.49910 0.99949 0.99903
 C196 C 0.42670 0.93852 1.06052
 C197 C 0.57253 0.93865 1.05986
 N198 N 0.03250 0.46684 0.05429
 N199 N 0.03632 0.44291 0.07326
 N200 N 0.05389 0.53239 0.03234
 N201 N 0.07308 0.55614 0.03602
 N202 N 0.03235 0.53249 0.05405
 N203 N 0.03613 0.55644 0.07293
 N204 N 0.05405 0.46698 0.03260
 N205 N 0.07329 0.44331 0.03637
 C206 C 0.06192 0.42850 0.06185
 C207 C 0.06169 0.57096 0.06145
 N208 N 0.03086 0.53225 -0.05607
 N209 N 0.03353 0.55689 -0.07433
 N210 N 0.05303 0.46674 -0.03458
 N211 N 0.07117 0.44213 -0.03747
 N212 N 0.03100 0.46645 -0.05583
 N213 N 0.03343 0.44146 -0.07359
 N214 N 0.05297 0.53209 -0.03489
 N215 N 0.07146 0.55637 -0.03838
 Mn216 Mn 0.05387 0.49955 -0.00117
 C217 C 0.05909 0.57159 -0.06311
 C218 C 0.05873 0.42662 -0.06197
 N219 N -0.03460 0.53237 0.05473
 N220 N -0.03716 0.55725 0.07262
 N221 N -0.05656 0.46670 0.03382
 N222 N -0.07458 0.44199 0.03675
 N223 N -0.03440 0.46645 0.05492
 N224 N -0.03649 0.44126 0.07251
 N225 N -0.05668 0.53204 0.03355
 N226 N -0.07506 0.55645 0.03666
 Mn227 Mn -0.00106 0.49954 0.05492
 C228 C -0.06264 0.57193 0.06118
 C229 C -0.06185 0.42638 0.06103
 N230 N -0.03599 0.46647 -0.05530
 N231 N -0.03872 0.44166 -0.07322
 N232 N -0.05735 0.53208 -0.03354
 N233 N -0.07566 0.55662 -0.03647
 N234 N -0.03613 0.53191 -0.05556
 N235 N -0.03959 0.55613 -0.07422
 N236 N -0.05712 0.46618 -0.03319
 N237 N -0.07458 0.44093 -0.03527
 Mn238 Mn -0.00254 0.49928 -0.05610
 Mn239 Mn -0.05733 0.49926 0.00014
 Cl240 Cl -0.00176 0.49942 -0.00054
 C241 C -0.06296 0.42599 -0.06052
 C242 C -0.06440 0.57132 -0.06207
 N243 N 0.94398 0.03259 0.53260
 N244 N 0.92636 0.03512 0.55768
 N245 N 0.96493 0.05400 0.46663
 N246 N 0.96132 0.07260 0.44239
 N247 N 0.94356 0.03212 0.46672
 N248 N 0.92500 0.03508 0.44233
 N249 N 0.96526 0.05455 0.53214
 N250 N 0.96248 0.07282 0.55672
 C251 C 0.93803 0.06046 0.57238
 C252 C 0.93629 0.06055 0.42745
 N253 N 1.05392 0.03291 0.46664
 N254 N 1.07327 0.03687 0.44308
 N255 N 1.03239 0.05495 0.53181
 N256 N 1.03614 0.07428 0.55543
 N257 N 1.05390 0.03323 0.53221
 N258 N 1.07272 0.03705 0.55624
 N259 N 1.03200 0.05421 0.46621
 N260 N 1.03572 0.07311 0.44219
 Mn261 Mn 0.99863 0.05482 0.49917
 C262 C 1.06162 0.06202 0.42800
 C263 C 1.06140 0.06281 0.57047
 N264 N 0.94363 -0.03488 0.46753
 N265 N 0.92450 -0.03881 0.44376
 N266 N 0.96595 -0.05572 0.53334
 N267 N 0.96389 -0.07300 0.55876
 N268 N 0.94410 -0.03434 0.53310
 N269 N 0.92648 -0.03665 0.55820
 N270 N 0.96549 -0.05622 0.46742
 N271 N 0.96198 -0.07512 0.44341
 Mn272 Mn 0.94342 -0.00111 0.49997
 C273 C 0.93622 -0.06403 0.42891
 C274 C 0.93899 -0.06096 0.57395
 N275 N 1.05446 -0.03380 0.53260
 N276 N 1.07342 -0.03712 0.55661
 N277 N 1.03246 -0.05570 0.46703
 N278 N 1.03539 -0.07398 0.44247
 N279 N 1.05425 -0.03422 0.46711
 N280 N 1.07280 -0.03752 0.44280
 N281 N 1.03286 -0.05543 0.53286
 N282 N 1.03639 -0.07393 0.55720
 Mn283 Mn 1.05451 -0.00046 0.49966
 Mn284 Mn 0.99919 -0.05618 0.50015
 Cl285 Cl 0.99894 -0.00074 0.49972
 C286 C 1.06187 -0.06230 0.57174
 C287 C 1.06077 -0.06246 0.42768
 C288 C 1.11556 0.11499 0.31723
 C289 C 1.14618 0.10730 0.30901
 C290 C 1.15934 0.12041 0.28208
 C291 C 1.14201 0.14089 0.26272
 C292 C 1.11099 0.14797 0.27170
 C293 C 1.09788 0.13537 0.29885
 C294 C 1.10170 0.10138 0.34562
 C295 C 1.07112 0.10938 0.35402
 C296 C 1.05816 0.09659 0.38118
 C297 C 1.07541 0.07559 0.39955
 C298 C 1.10592 0.06756 0.39064
 C299 C 1.11928 0.08061 0.36380
 C300 C 1.06723 0.14259 0.30784
 C301 C 1.05413 0.12993 0.33503
 C302 C 1.16316 0.08663 0.32796
 C303 C 1.14988 0.07340 0.35480
 H304 H 1.05328 0.15828 0.29380
 H305 H 1.03048 0.13621 0.34118
 H306 H 1.18686 0.08048 0.32190
 H307 H 1.16372 0.05746 0.36866
 H308 H 1.18347 0.11524 0.27714
 H309 H 1.09618 0.16223 0.25711
 H310 H 1.03458 0.10270 0.38782
 H311 H 1.11935 0.05148 0.40475
 C312 C 0.88441 -0.11554 0.31641
 C313 C 0.90242 -0.13573 0.29822
 C314 C 0.88998 -0.14771 0.27046
 C315 C 0.85918 -0.14041 0.26079
 C316 C 0.84145 -0.12029 0.28014
 C317 C 0.85405 -0.10757 0.30752
 C318 C 0.89767 -0.10241 0.34532
 C319 C 0.87984 -0.08166 0.36321
 C320 C 0.89268 -0.06898 0.39048
 C321 C 0.92289 -0.07738 0.40012
 C322 C 0.94035 -0.09843 0.38206
 C323 C 0.92792 -0.11083 0.35447
 C324 C 0.83677 -0.08700 0.32625
 C325 C 0.84952 -0.07412 0.35351
 C326 C 0.93272 -0.14343 0.30801
 C327 C 0.94514 -0.13139 0.33578
 H328 H 0.81326 -0.08062 0.31967
 H329 H 0.83548 -0.05820 0.36714
 H330 H 0.94689 -0.15906 0.29419
 H331 H 0.96844 -0.13818 0.34264
 H332 H 0.90517 -0.16168 0.25607
 H333 H 0.81742 -0.11499 0.27485
 H334 H 0.87908 -0.05286 0.40434
 H335 H 0.96370 -0.10483 0.38924
 C336 C 0.89196 0.10739 0.68908
 C337 C 0.87549 0.08749 0.70916
 C338 C 0.86396 0.09925 0.73742
 C339 C 0.86812 0.13091 0.74533
 C340 C 0.88466 0.15047 0.72467
 C341 C 0.89689 0.13877 0.69675
 C342 C 0.90402 0.09523 0.65928
 C343 C 0.92088 0.11507 0.63942
 C344 C 0.93233 0.10340 0.61114
 C345 C 0.92633 0.07240 0.60239
 C346 C 0.90923 0.05284 0.62245
 C347 C 0.89828 0.06407 0.65114
 C348 C 0.91375 0.15794 0.67621
 C349 C 0.92571 0.14623 0.64812
 C350 C 0.87066 0.05630 0.70045
 C351 C 0.88171 0.04483 0.67185
 H352 H 0.91777 0.18219 0.68191
 H353 H 0.93864 0.16177 0.63297
 H354 H 0.85799 0.04069 0.71573
 H355 H 0.87726 0.02070 0.66591
 H356 H 0.85181 0.08372 0.75320
 H357 H 0.88753 0.17497 0.72993
 H358 H 0.94540 0.11855 0.59570
 H359 H 0.90480 0.02885 0.61592
 C360 C 1.11239 -0.11202 0.68563
 C361 C 1.14244 -0.10349 0.69507
 C362 C 1.15480 -0.11611 0.72264
 C363 C 1.13712 -0.13676 0.74154
 C364 C 1.10655 -0.14439 0.73144
 C365 C 1.09440 -0.13256 0.70352
 C366 C 1.09947 -0.09921 0.65642
 C367 C 1.06960 -0.10832 0.64670
 C368 C 1.05751 -0.09634 0.61879
 C369 C 1.07493 -0.07504 0.60093
 C370 C 1.10475 -0.06591 0.61112
 C371 C 1.11726 -0.07817 0.63877
 C372 C 1.06446 -0.14089 0.69318
 C373 C 1.05240 -0.12919 0.66511
 C374 C 1.15967 -0.08257 0.67662
 C375 C 1.14722 -0.06997 0.64906
 H376 H 1.05032 -0.15682 0.70676
 H377 H 1.02944 -0.13654 0.65776
 H378 H 1.18294 -0.07573 0.68363
 H379 H 1.16123 -0.05381 0.63563
 H380 H 1.17864 -0.11040 0.72835
 H381 H 1.09131 -0.15864 0.74557
 H382 H 1.03446 -0.10330 0.61119
 H383 H 1.11830 -0.04958 0.59741
 C384 C 0.31140 1.10895 1.10825
 C385 C 0.30252 1.13939 1.10057
 C386 C 0.27514 1.15173 1.11328
 C387 C 0.25595 1.13384 1.13346
 C388 C 0.26526 1.10281 1.14012
 C389 C 0.29298 1.09050 1.12793
 C390 C 0.34078 1.09630 1.09574
 C391 C 0.35010 1.06606 1.10405
 C392 C 0.37844 1.05444 1.09265
 C393 C 0.39704 1.07274 1.07272
 C394 C 0.38710 1.10281 1.06426
 C395 C 0.35912 1.11482 1.07595
 C396 C 0.30278 1.06010 1.13525
 C397 C 0.33092 1.04814 1.12364
 C398 C 0.32152 1.15723 1.08069
 C399 C 0.34926 1.14509 1.06846
 H400 H 0.28875 1.04553 1.15037
 H401 H 0.33774 1.02471 1.13010
 H402 H 0.31491 1.18080 1.07456
 H403 H 0.36321 1.15962 1.05323
 H404 H 0.27006 1.17591 1.10845
 H405 H 0.25085 1.08762 1.15414
 H406 H 0.38586 1.03116 1.09903
 H407 H 0.40135 1.11702 1.04898
 C408 C 0.30767 0.89211 0.89594
 C409 C 0.30079 0.86035 0.89932
 C410 C 0.27289 0.84871 0.88704
 C411 C 0.25149 0.86865 0.87196
 C412 C 0.25851 0.90068 0.86958
 C413 C 0.28674 0.91244 0.88116
 C414 C 0.33763 0.90420 0.90764
 C415 C 0.34507 0.93575 0.90322
 C416 C 0.37406 0.94689 0.91341
 C417 C 0.39510 0.92681 0.92856
 C418 C 0.38698 0.89544 0.93351
 C419 C 0.35843 0.88388 0.92267
 C420 C 0.29467 0.94404 0.87788
 C421 C 0.32339 0.95544 0.88862
 C422 C 0.32216 0.84074 0.91453
 C423 C 0.35041 0.85236 0.92621
 H424 H 0.27870 0.96002 0.86661
 H425 H 0.32868 0.97986 0.88545
 H426 H 0.31705 0.81619 0.91737
 H427 H 0.36625 0.83645 0.93775
 H428 H 0.26832 0.82394 0.88853
 H429 H 0.24216 0.91646 0.85859
 H430 H 0.38011 0.97116 0.90990
 H431 H 0.40316 0.87992 0.94515
 C432 C 0.68947 0.89216 1.10606
 C433 C 0.70600 0.90934 1.12835
 C434 C 0.73420 0.89762 1.14001
 C435 C 0.74565 0.86799 1.13073
 C436 C 0.72815 0.85130 1.10806
 C437 C 0.70055 0.86340 1.09548
 C438 C 0.65969 0.90431 1.09390
 C439 C 0.64329 0.88719 1.07134
 C440 C 0.61489 0.89871 1.06003
 C441 C 0.60266 0.92686 1.07155
 C442 C 0.61937 0.94371 1.09424
 C443 C 0.64800 0.93258 1.10539
 C444 C 0.68347 0.84691 1.07288
 C445 C 0.65545 0.85872 1.06083
 C446 C 0.69379 0.93782 1.13892
 C447 C 0.66511 0.94903 1.12792
 H448 H 0.69181 0.82466 1.06442
 H449 H 0.64305 0.84528 1.04342
 H450 H 0.70624 0.95130 1.15627
 H451 H 0.65616 0.97064 1.13729
 H452 H 0.74711 0.91227 1.15588
 H453 H 0.73467 0.82809 1.10092
 H454 H 0.60216 0.88560 1.04260
 H455 H 0.61021 0.96549 1.10309
 C456 C 0.68443 1.11148 0.88653
 C457 C 0.70337 1.09268 0.86778
 C458 C 0.73138 1.10479 0.85610
 C459 C 0.74065 1.13591 0.86245
 C460 C 0.72068 1.15436 0.88124
 C461 C 0.69293 1.14221 0.89349
 C462 C 0.65513 1.09870 0.89919
 C463 C 0.63643 1.11739 0.91842
 C464 C 0.60877 1.10503 0.93065
 C465 C 0.59955 1.07445 0.92328
 C466 C 0.61841 1.05609 0.90374
 C467 C 0.64642 1.06803 0.89186
 C468 C 0.67343 1.16031 0.91257
 C469 C 0.64575 1.14806 0.92495
 C470 C 0.69404 1.06197 0.86122
 C471 C 0.66598 1.04990 0.87292
 H472 H 0.67970 1.18411 0.91813
 H473 H 0.63149 1.16275 0.93969
 H474 H 0.70849 1.04716 0.84679
 H475 H 0.65961 1.02616 0.86719
 H476 H 0.74629 1.08919 0.84315
 H477 H 0.72577 1.17861 0.88570
 H478 H 0.59428 1.11930 0.94561
 H479 H 0.61154 1.03243 0.89819
 C480 C 0.11378 0.31606 0.11301
 C481 C 0.14455 0.30781 0.10581
 C482 C 0.15720 0.28060 0.11875
 C483 C 0.13899 0.26098 0.13796
 C484 C 0.10787 0.26951 0.14432
 C485 C 0.09541 0.29727 0.13246
 C486 C 0.10057 0.34499 0.10000
 C487 C 0.07013 0.35376 0.10807
 C488 C 0.05773 0.38137 0.09580
 C489 C 0.07536 0.39979 0.07515
 C490 C 0.10579 0.39061 0.06716
 C491 C 0.11866 0.36336 0.07983
 C492 C 0.06497 0.30671 0.13984
 C493 C 0.05271 0.33469 0.12817
 C494 C 0.16208 0.32700 0.08586
 C495 C 0.14927 0.35417 0.07288
 H496 H 0.05062 0.29255 0.15505
 H497 H 0.02942 0.34145 0.13495
 H498 H 0.18585 0.32087 0.08006
 H499 H 0.16351 0.36819 0.05744
 H500 H 0.18134 0.27505 0.11409
 H501 H 0.09314 0.25457 0.15834
 H502 H 0.03422 0.38825 0.10191
 H503 H 0.11955 0.40482 0.05144
 C504 C -0.10725 0.30829 -0.10665
 C505 C -0.10226 0.30058 -0.13804
 C506 C -0.11425 0.27255 -0.14967
 C507 C -0.13052 0.25172 -0.13005
 C508 C -0.13459 0.25961 -0.09833
 C509 C -0.12341 0.28806 -0.08665
 C510 C -0.09566 0.33832 -0.09462
 C511 C -0.10159 0.34659 -0.06350
 C512 C -0.09117 0.37556 -0.05244
 C513 C -0.07437 0.39574 -0.07215
 C514 C -0.06817 0.38683 -0.10310
 C515 C -0.07912 0.35832 -0.11459
 C516 C -0.12836 0.29687 -0.05547
 C517 C -0.11781 0.32571 -0.04414
 C518 C -0.08568 0.32124 -0.15731
 C519 C -0.07410 0.34952 -0.14572
 H520 H -0.14080 0.28149 -0.03976
 H521 H -0.12239 0.33172 -0.02003
 H522 H -0.08161 0.31549 -0.18157
 H523 H -0.06139 0.36476 -0.16135
 H524 H -0.11149 0.26744 -0.17424
 H525 H -0.14651 0.24376 -0.08271
 H526 H -0.09572 0.38220 -0.02849
 H527 H -0.05531 0.40234 -0.11836
 C528 C 0.10792 0.68688 -0.11052
 C529 C 0.08834 0.70716 -0.12710
 C530 C 0.10045 0.73534 -0.13842
 C531 C 0.13211 0.74298 -0.13391
 C532 C 0.15138 0.72209 -0.11738
 C533 C 0.13934 0.69424 -0.10535
 C534 C 0.09532 0.65729 -0.09844
 C535 C 0.11480 0.63731 -0.08134
 C536 C 0.10267 0.60936 -0.06965
 C537 C 0.07153 0.60105 -0.07557
 C538 C 0.05235 0.62113 -0.09304
 C539 C 0.06407 0.64952 -0.10426
 C540 C 0.15817 0.67352 -0.08836
 C541 C 0.14605 0.64562 -0.07638
 C542 C 0.05708 0.69879 -0.13211
 C543 C 0.04520 0.67037 -0.12104
 H544 H 0.18245 0.67898 -0.08418
 H545 H 0.16131 0.63036 -0.06328
 H546 H 0.04173 0.71423 -0.14489
 H547 H 0.02102 0.66472 -0.12557
 H548 H 0.08516 0.75133 -0.15058
 H549 H 0.17590 0.72719 -0.11426
 H550 H 0.11753 0.59388 -0.05630
 H551 H 0.02827 0.61491 -0.09742
 C552 C -0.11104 0.68739 0.10846
 C553 C -0.09160 0.70716 0.12581
 C554 C -0.10370 0.73509 0.13763
 C555 C -0.13527 0.74298 0.13291
 C556 C -0.15438 0.72267 0.11548
 C557 C -0.14231 0.69507 0.10293
 C558 C -0.09849 0.65792 0.09610
 C559 C -0.11784 0.63838 0.07837
 C560 C -0.10580 0.61040 0.06668
 C561 C -0.07491 0.60162 0.07325
 C562 C -0.05584 0.62137 0.09120
 C563 C -0.06745 0.64976 0.10243
 C564 C -0.16098 0.67487 0.08518
 C565 C -0.14889 0.64710 0.07292
 C566 C -0.06051 0.69845 0.13120
 C567 C -0.04871 0.67016 0.11986
 H568 H -0.18514 0.68059 0.08067
 H569 H -0.16406 0.63220 0.05930
 H570 H -0.04525 0.71350 0.14455
 H571 H -0.02472 0.66420 0.12477
 H572 H -0.08850 0.75065 0.15043
 H573 H -0.17882 0.72793 0.11213
 H574 H -0.12059 0.59522 0.05293
 H575 H -0.03194 0.61484 0.09607
 C576 C 1.11346 0.11585 0.68201
 C577 C 1.13376 0.09803 0.70034
 C578 C 1.14619 0.11090 0.72766
 C579 C 1.13903 0.14184 0.73686
 C580 C 1.11862 0.15931 0.71756
 C581 C 1.10567 0.14639 0.69046
 C582 C 1.10005 0.10224 0.65342
 C583 C 1.07936 0.11995 0.63529
 C584 C 1.06652 0.10682 0.60824
 C585 C 1.07470 0.07643 0.59910
 C586 C 1.09561 0.05904 0.61745
 C587 C 1.10817 0.07176 0.64480
 C588 C 1.08507 0.16350 0.67156
 C589 C 1.07203 0.15046 0.64453
 C590 C 1.14109 0.06748 0.69112
 C591 C 1.12863 0.05461 0.66375
 H592 H 1.07885 0.18714 0.67780
 H593 H 1.05614 0.16440 0.63071
 H594 H 1.15672 0.05342 0.70512
 H595 H 1.13500 0.03103 0.65741
 H596 H 1.16040 0.09599 0.74219
 H597 H 1.11339 0.18341 0.72268
 H598 H 1.05049 0.12034 0.59415
 H599 H 1.10182 0.03554 0.61064
 C600 C 0.89380 -0.10480 0.69252
 C601 C 0.91187 -0.12555 0.71009
 C602 C 0.90030 -0.13692 0.73853
 C603 C 0.87014 -0.12866 0.74933
 C604 C 0.85262 -0.10741 0.73091
 C605 C 0.86440 -0.09530 0.70291
 C606 C 0.90567 -0.09315 0.66238
 C607 C 0.88757 -0.07226 0.64487
 C608 C 0.89879 -0.06154 0.61608
 C609 C 0.92763 -0.07203 0.60454
 C610 C 0.94552 -0.09297 0.62240
 C611 C 0.93470 -0.10347 0.65146
 C612 C 0.84698 -0.07428 0.68477
 C613 C 0.85846 -0.06280 0.65635
 C614 C 0.94113 -0.13484 0.69870
 C615 C 0.95222 -0.12418 0.66979
 H616 H 0.82423 -0.06668 0.69257
 H617 H 0.84427 -0.04665 0.64309
 H618 H 0.95539 -0.15087 0.71202
 H619 H 0.97459 -0.13235 0.66164
 H620 H 0.91541 -0.15171 0.75220
 H621 H 0.82904 -0.10119 0.73704
 H622 H 0.88489 -0.04541 0.60248
 H623 H 0.96787 -0.10094 0.61380
 C624 C 1.11022 -0.11130 0.31315
 C625 C 1.09075 -0.12822 0.29305
 C626 C 1.10300 -0.14013 0.26517
 C627 C 1.13472 -0.13587 0.25764
 C628 C 1.15389 -0.11895 0.27835
 C629 C 1.14170 -0.10635 0.30590
 C630 C 1.09746 -0.09866 0.34245
 C631 C 1.11683 -0.08126 0.36228
 C632 C 1.10454 -0.06914 0.39001
 C633 C 1.07337 -0.07499 0.39828
 C634 C 1.05431 -0.09270 0.37829
 C635 C 1.06617 -0.10431 0.35012
 C636 C 1.16041 -0.08900 0.32643
 C637 C 1.14814 -0.07649 0.35405
 C638 C 1.05944 -0.13301 0.30131
 C639 C 1.04742 -0.12140 0.32944
 H640 H 1.18474 -0.08497 0.32106
 H641 H 1.16333 -0.06317 0.36918
 H642 H 1.04414 -0.14603 0.28601
 H643 H 1.02323 -0.12579 0.33502
 H644 H 1.08777 -0.15255 0.24934
 H645 H 1.17844 -0.11597 0.27336
 H646 H 1.11933 -0.05561 0.40540
 H647 H 1.03020 -0.09703 0.38445
 C648 C 0.88687 0.11054 0.31318
 C649 C 0.86777 0.09194 0.29436
 C650 C 0.85606 0.10416 0.26636
 C651 C 0.86264 0.13524 0.25704
 C652 C 0.88183 0.15347 0.27689
 C653 C 0.89416 0.14118 0.30459
 C654 C 0.89950 0.09767 0.34250
 C655 C 0.91905 0.11618 0.36109
 C656 C 0.93120 0.10377 0.38879
 C657 C 0.92343 0.07332 0.39820
 C658 C 0.90360 0.05513 0.37944
 C659 C 0.89178 0.06712 0.35136
 C660 C 0.91359 0.15909 0.32396
 C661 C 0.92597 0.14674 0.35163
 C662 C 0.86086 0.06133 0.30381
 C663 C 0.87252 0.04918 0.33190
 H664 H 0.91943 0.18281 0.31760
 H665 H 0.94099 0.16127 0.36580
 H666 H 0.84615 0.04666 0.28945
 H667 H 0.86648 0.02554 0.33839
 H668 H 0.84281 0.08869 0.25153
 H669 H 0.88651 0.17768 0.27179
 H670 H 0.94639 0.11791 0.40319
 H671 H 0.89773 0.03158 0.38645
 C672 C 0.10677 0.31067 -0.10853
 C673 C 0.08826 0.29212 -0.12801
 C674 C 0.10054 0.26432 -0.14004
 C675 C 0.13159 0.25506 -0.13343
 C676 C 0.14950 0.27434 -0.11338
 C677 C 0.13721 0.30182 -0.10084
 C678 C 0.09419 0.34018 -0.09627
 C679 C 0.11279 0.35869 -0.07672
 C680 C 0.10086 0.38682 -0.06532
 C681 C 0.07080 0.39673 -0.07381
 C682 C 0.05241 0.37795 -0.09346
 C683 C 0.06395 0.34948 -0.10459
 C684 C 0.15511 0.32096 -0.08118
 C685 C 0.14304 0.34884 -0.06920
 C686 C 0.05786 0.30188 -0.13533
 C687 C 0.04596 0.33014 -0.12394
 H688 H 0.17868 0.31437 -0.07505
 H689 H 0.15762 0.36292 -0.05414
 H690 H 0.04325 0.28774 -0.15030
 H691 H 0.02253 0.33693 -0.13041
 H692 H 0.08533 0.24981 -0.15393
 H693 H 0.17369 0.26926 -0.10857
 H694 H 0.11513 0.40120 -0.05024
 H695 H 0.02914 0.38535 -0.09986
 C696 C -0.10827 0.30902 0.10581
 C697 C -0.13999 0.30204 0.10233
 C698 C -0.15155 0.27401 0.11439
 C699 C -0.13156 0.25253 0.12928
 C700 C -0.09960 0.25972 0.13195
 C701 C -0.08792 0.28809 0.12059
 C702 C -0.09622 0.33899 0.09408
 C703 C -0.06468 0.34646 0.09845
 C704 C -0.05352 0.37537 0.08798
 C705 C -0.07358 0.39626 0.07258
 C706 C -0.10497 0.38814 0.06783
 C707 C -0.11653 0.35969 0.07892
 C708 C -0.05636 0.29611 0.12393
 C709 C -0.04499 0.32485 0.11317
 C710 C -0.15962 0.32338 0.08711
 C711 C -0.14804 0.35163 0.07541
 H712 H -0.04037 0.28017 0.13522
 H713 H -0.02059 0.33018 0.11635
 H714 H -0.18414 0.31819 0.08421
 H715 H -0.16394 0.36742 0.06378
 H716 H -0.17629 0.26932 0.11274
 H717 H -0.08379 0.24334 0.14285
 H718 H -0.02923 0.38142 0.09135
 H719 H -0.12048 0.40420 0.05601
 C720 C -0.11309 0.68608 -0.11152
 C721 C -0.10551 0.69499 -0.14203
 C722 C -0.11775 0.72275 -0.15420
 C723 C -0.13715 0.74236 -0.13597
 C724 C -0.14404 0.73271 -0.10503
 C725 C -0.13240 0.70465 -0.09293
 C726 C -0.10057 0.65668 -0.09878
 C727 C -0.10859 0.64751 -0.06837
 C728 C -0.09692 0.61935 -0.05652
 C729 C -0.07697 0.60075 -0.07471
 C730 C -0.06886 0.61049 -0.10500
 C731 C -0.08083 0.63832 -0.11727
 C732 C -0.13960 0.69489 -0.06244
 C733 C -0.12803 0.66674 -0.05043
 C734 C -0.08586 0.67585 -0.15991
 C735 C -0.07359 0.64810 -0.14769
 H736 H -0.15446 0.70906 -0.04778
 H737 H -0.13429 0.66002 -0.02688
 H738 H -0.07978 0.68246 -0.18353
 H739 H -0.05843 0.63413 -0.16222
 H740 H -0.11281 0.72810 -0.17833
 H741 H -0.15747 0.74731 -0.08953
 H742 H -0.10305 0.61211 -0.03308
 H743 H -0.05354 0.59626 -0.11914
 C744 C 0.11396 0.68289 0.11353
 C745 C 0.09603 0.70096 0.13390
 C746 C 0.10857 0.72854 0.14611
 C747 C 0.13939 0.73814 0.13887
 C748 C 0.15704 0.71895 0.11852
 C749 C 0.14435 0.69172 0.10560
 C750 C 0.10061 0.65415 0.10019
 C751 C 0.11836 0.63634 0.07929
 C752 C 0.10541 0.60922 0.06642
 C753 C 0.07518 0.59965 0.07480
 C754 C 0.05781 0.61763 0.09602
 C755 C 0.07034 0.64505 0.10859
 C756 C 0.16156 0.67309 0.08488
 C757 C 0.14872 0.64598 0.07180
 C758 C 0.06571 0.69122 0.14157
 C759 C 0.05320 0.66362 0.12934
 H760 H 0.18509 0.67963 0.07853
 H761 H 0.16272 0.63242 0.05579
 H762 H 0.05160 0.70494 0.15735
 H763 H 0.02991 0.65677 0.13614
 H764 H 0.09343 0.74284 0.16023
 H765 H 0.18108 0.72421 0.11324
 H766 H 0.11895 0.59540 0.05021
 H767 H 0.03445 0.61050 0.10243
 C768 C 0.31428 1.11343 0.88624
 C769 C 0.30597 1.14418 0.89345
 C770 C 0.27863 1.15672 0.88069
 C771 C 0.25897 1.13842 0.86164
 C772 C 0.26756 1.10732 0.85526
 C773 C 0.29542 1.09496 0.86696
 C774 C 0.34334 1.10035 0.89905
 C775 C 0.35216 1.06992 0.89098
 C776 C 0.37991 1.05764 0.90307
 C777 C 0.39842 1.07540 0.92351
 C778 C 0.38918 1.10583 0.93147
 C779 C 0.36179 1.11855 0.91902
 C780 C 0.30492 1.06453 0.85958
 C781 C 0.33301 1.05238 0.87107
 C782 C 0.32523 1.16183 0.91320
 C783 C 0.35254 1.14915 0.92598
 H784 H 0.29070 1.05011 0.84451
 H785 H 0.33979 1.02909 0.86430
 H786 H 0.31905 1.18560 0.91900
 H787 H 0.36663 1.16347 0.94127
 H788 H 0.27302 1.18085 0.88535
 H789 H 0.25258 1.09254 0.84135
 H790 H 0.38683 1.03414 0.89697
 H791 H 0.40346 1.11968 0.94704
 C792 C 0.31033 0.89230 1.10801
 C793 C 0.30309 0.89670 1.13959
 C794 C 0.27547 0.88409 1.15153
 C795 C 0.25455 0.86779 1.13203
 C796 C 0.26196 0.86430 1.10013
 C797 C 0.29002 0.87610 1.08813
 C798 C 0.33996 0.90454 1.09564
 C799 C 0.34779 0.89914 1.06431
 C800 C 0.37642 0.91009 1.05292
 C801 C 0.39670 0.92688 1.07251
 C802 C 0.38820 0.93263 1.10366
 C803 C 0.36003 0.92112 1.11548
 C804 C 0.29837 0.87173 1.05674
 C805 C 0.32686 0.88287 1.04507
 C806 C 0.32380 0.91333 1.15874
 C807 C 0.35169 0.92555 1.14683
 H808 H 0.28293 0.85926 1.04113
 H809 H 0.33254 0.87870 1.02081
 H810 H 0.31841 0.91696 1.18315
 H811 H 0.36699 0.93826 1.16237
 H812 H 0.27073 0.88640 1.17623
 H813 H 0.24603 0.85239 1.08460
 H814 H 0.38276 0.90588 1.02882
 H815 H 0.40380 0.94548 1.11882
 C816 C 0.68802 1.10849 1.10653
 C817 C 0.69498 1.14023 1.10295
 C818 C 0.72280 1.15193 1.11539
 C819 C 0.74397 1.13205 1.13082
 C820 C 0.73675 1.10011 1.13370
 C821 C 0.70867 1.08830 1.12188
 C822 C 0.65841 1.09623 1.09418
 C823 C 0.65104 1.06466 1.09852
 C824 C 0.62250 1.05328 1.08742
 C825 C 0.60185 1.07313 1.07146
 C826 C 0.60983 1.10456 1.06673
 C827 C 0.63795 1.11636 1.07843
 C828 C 0.70074 1.05671 1.12525
 C829 C 0.67235 1.04514 1.11387
 C830 C 0.67388 1.15968 1.08717
 C831 C 0.64593 1.14791 1.07495
 H832 H 0.71650 1.04085 1.13698
 H833 H 0.66706 1.02072 1.11705
 H834 H 0.67904 1.18421 1.08420
 H835 H 0.63033 1.16368 1.06289
 H836 H 0.72764 1.17662 1.11350
 H837 H 0.75297 1.08442 1.14502
 H838 H 0.61654 1.02897 1.09081
 H839 H 0.59391 1.11991 1.05451
 C840 C 0.68883 0.89322 0.89168
 C841 C 0.70854 0.87630 0.91158
 C842 C 0.73680 0.86473 0.89994
 C843 C 0.74507 0.86925 0.86838
 C844 C 0.72476 0.88621 0.84881
 C845 C 0.69687 0.89853 0.86041
 C846 C 0.65903 0.90532 0.90371
 C847 C 0.63954 0.92261 0.88387
 C848 C 0.61119 0.93399 0.89538
 C849 C 0.60201 0.92748 0.92620
 C850 C 0.62175 0.91002 0.94577
 C851 C 0.65049 0.89914 0.93472
 C852 C 0.67672 0.91586 0.84126
 C853 C 0.64863 0.92788 0.85285
 C854 C 0.69945 0.87109 0.94265
 C855 C 0.67084 0.88215 0.95397
 H856 H 0.68272 0.92020 0.81710
 H857 H 0.63379 0.94115 0.83732
 H858 H 0.71444 0.85808 0.95826
 H859 H 0.66459 0.87737 0.97799
 H860 H 0.75230 0.85228 0.91551
 H861 H 0.73025 0.88936 0.82436
 H862 H 0.59602 0.94736 0.88022
 H863 H 0.61490 0.90521 0.96964
   
