data_POSCAR
  _audit_creation_date              2014-09-24
  _audit_creation_method            'ToBaCCo'
  _symmetry_space_group_name_H-M    'P1'
  _symmetry_Int_Tables_number       1
  _symmetry_cell_setting            triclinic
  loop_
  _symmetry_equiv_pos_as_xyz
 x,y,z
_cell_length_a 60.5066
_cell_length_b 61.1412
_cell_length_c 60.7846
_cell_angle_alpha 90.210500
_cell_angle_beta 89.240200
_cell_angle_gamma 90.182900
loop_
  _atom_site_label
  _atom_site_type_symbol
  _atom_site_fract_x
  _atom_site_fract_y
  _atom_site_fract_z
N1 N 0.28217 0.24286 0.22752
 N2 N 0.27316 0.26033 0.21892
 C3 C 0.28504 0.26636 0.20103
 C4 C 0.30239 0.25182 0.19819
 C5 C 0.29999 0.23712 0.21536
 H6 H 0.28120 0.28012 0.19067
 H7 H 0.31054 0.22338 0.21892
 Cu8 Cu 0.24665 0.27328 0.23187
 Cu9 Cu 0.27022 0.22889 0.25387
 Cu10 Cu 0.22347 0.25216 0.27773
 N11 N 0.22060 0.28638 0.24560
 N12 N 0.21169 0.27814 0.26359
 C13 C 0.19403 0.29024 0.26957
 C14 C 0.19165 0.30698 0.25447
 C15 C 0.20886 0.30397 0.23949
 H16 H 0.18354 0.28688 0.28369
 H17 H 0.21266 0.31395 0.22530
 N18 N 0.23785 0.22586 0.28957
 N19 N 0.25573 0.21712 0.28055
 C20 C 0.26162 0.19954 0.29238
 C21 C 0.24672 0.19699 0.30966
 C22 C 0.23186 0.21399 0.30732
 H23 H 0.27557 0.18917 0.28851
 H24 H 0.21783 0.21757 0.31789
 H25 H 0.23784 0.23867 0.24985
 H26 H 0.25570 0.25669 0.26702
 N27 N 0.71125 -0.24318 0.22568
 N28 N 0.71724 -0.26317 0.22040
 C29 C 0.70463 -0.27039 0.20378
 C30 C 0.68986 -0.25398 0.19818
 C31 C 0.69467 -0.23696 0.21260
 H32 H 0.70647 -0.28631 0.19620
 H33 H 0.68688 -0.22112 0.21360
 Cu34 Cu 0.74142 -0.27774 0.23516
 Cu35 Cu 0.72550 -0.22665 0.24898
 Cu36 Cu 0.77430 -0.24786 0.26822
 N37 N 0.77069 -0.28766 0.24331
 N38 N 0.78396 -0.27539 0.25506
 C39 C 0.80335 -0.28579 0.25738
 C40 C 0.80214 -0.30593 0.24678
 C41 C 0.78102 -0.30647 0.23807
 H42 H 0.81695 -0.27943 0.26684
 H43 H 0.77376 -0.31930 0.22821
 N44 N 0.76140 -0.22042 0.27961
 N45 N 0.74255 -0.21254 0.27249
 C46 C 0.73730 -0.19456 0.28426
 C47 C 0.75362 -0.19090 0.29963
 C48 C 0.76867 -0.20764 0.29612
 H49 H 0.72252 -0.18501 0.28197
 H50 H 0.78341 -0.21076 0.30543
 H51 H 0.75549 -0.24109 0.24099
 H52 H 0.74047 -0.25209 0.26585
 N53 N 0.71753 0.24188 0.77539
 N54 N 0.72660 0.25934 0.78418
 C55 C 0.71468 0.26533 0.80207
 C56 C 0.69723 0.25079 0.80471
 C57 C 0.69963 0.23611 0.78743
 H58 H 0.71853 0.27912 0.81252
 H59 H 0.68899 0.22239 0.78369
 Cu60 Cu 0.75315 0.27252 0.77145
 Cu61 Cu 0.72946 0.22805 0.74890
 Cu62 Cu 0.77594 0.25190 0.72507
 N63 N 0.77901 0.28593 0.75760
 N64 N 0.78767 0.27797 0.73935
 C65 C 0.80509 0.29037 0.73323
 C66 C 0.80767 0.30713 0.74853
 C67 C 0.79069 0.30366 0.76377
 H68 H 0.81517 0.28718 0.71878
 H69 H 0.78691 0.31333 0.77822
 N70 N 0.76170 0.22545 0.71306
 N71 N 0.74392 0.21646 0.72207
 C72 C 0.73816 0.19878 0.71014
 C73 C 0.75306 0.19643 0.69280
 C74 C 0.76775 0.21366 0.69523
 H75 H 0.72432 0.18819 0.71397
 H76 H 0.78173 0.21744 0.68465
 H77 H 0.76182 0.23808 0.75288
 H78 H 0.74377 0.25612 0.73615
 N79 N 0.28941 -0.24300 0.77361
 N80 N 0.28298 -0.26285 0.77890
 C81 C 0.29528 -0.27005 0.79569
 C82 C 0.31025 -0.25378 0.80129
 C83 C 0.30600 -0.23687 0.78682
 H84 H 0.29310 -0.28577 0.80353
 H85 H 0.31428 -0.22121 0.78595
 Cu86 Cu 0.25867 -0.27727 0.76396
 Cu87 Cu 0.27558 -0.22643 0.75026
 Cu88 Cu 0.22652 -0.24729 0.73074
 N89 N 0.22937 -0.28704 0.75550
 N90 N 0.21638 -0.27472 0.74368
 C91 C 0.19688 -0.28500 0.74110
 C92 C 0.19772 -0.30512 0.75162
 C93 C 0.21874 -0.30578 0.76055
 H94 H 0.18346 -0.27857 0.73154
 H95 H 0.22573 -0.31863 0.77040
 N96 N 0.23987 -0.21999 0.71954
 N97 N 0.25884 -0.21226 0.72672
 C98 C 0.26435 -0.19432 0.71508
 C99 C 0.24806 -0.19051 0.69976
 C100 C 0.23278 -0.20713 0.70315
 H101 H 0.27924 -0.18486 0.71747
 H102 H 0.21798 -0.21012 0.69383
 H103 H 0.24533 -0.24047 0.75808
 H104 H 0.26029 -0.25180 0.73330
 N105 N 0.71549 -0.24197 0.77294
 N106 N 0.72438 -0.25963 0.78126
 C107 C 0.71243 -0.26591 0.79899
 C108 C 0.69514 -0.25137 0.80200
 C109 C 0.69765 -0.23636 0.78513
 H110 H 0.71618 -0.27987 0.80912
 H111 H 0.68717 -0.22252 0.78178
 Cu112 Cu 0.75078 -0.27257 0.76818
 Cu113 Cu 0.72761 -0.22763 0.74687
 Cu114 Cu 0.77456 -0.25065 0.72311
 N115 N 0.77719 -0.28522 0.75481
 N116 N 0.78625 -0.27673 0.73704
 C117 C 0.80405 -0.28861 0.73114
 C118 C 0.80646 -0.30555 0.74610
 C119 C 0.78898 -0.30275 0.76091
 H120 H 0.81451 -0.28492 0.71709
 H121 H 0.78498 -0.31273 0.77504
 N122 N 0.76027 -0.22426 0.71150
 N123 N 0.74235 -0.21557 0.72046
 C124 C 0.73663 -0.19783 0.70879
 C125 C 0.75172 -0.19514 0.69170
 C126 C 0.76648 -0.21222 0.69396
 H127 H 0.72268 -0.18745 0.71264
 H128 H 0.78059 -0.21573 0.68347
 H129 H 0.74215 -0.25517 0.73333
 H130 H 0.75988 -0.23761 0.75111
 N131 N 0.28387 0.24068 0.77932
 N132 N 0.27505 0.25837 0.78802
 C133 C 0.28701 0.26455 0.80552
 C134 C 0.30422 0.24990 0.80796
 C135 C 0.30165 0.23496 0.79101
 H136 H 0.28334 0.27853 0.81586
 H137 H 0.31208 0.22108 0.78725
 Cu138 Cu 0.24878 0.27149 0.77565
 Cu139 Cu 0.27183 0.22645 0.75339
 Cu140 Cu 0.22506 0.24961 0.73095
 N141 N 0.22250 0.28427 0.76293
 N142 N 0.21343 0.27569 0.74536
 C143 C 0.19583 0.28774 0.73975
 C144 C 0.19366 0.30482 0.75463
 C145 C 0.21088 0.30206 0.76915
 H146 H 0.18532 0.28419 0.72594
 H147 H 0.21487 0.31244 0.78298
 N148 N 0.23929 0.22322 0.71876
 N149 N 0.25719 0.21450 0.72720
 C150 C 0.26300 0.19688 0.71512
 C151 C 0.24801 0.19432 0.69830
 C152 C 0.23320 0.21133 0.70115
 H153 H 0.27699 0.18652 0.71847
 H154 H 0.21918 0.21496 0.69098
 H155 H 0.25745 0.25409 0.74045
 H156 H 0.23962 0.23657 0.75852
 N157 N 0.28500 -0.24406 0.22864
 N158 N 0.27651 -0.26223 0.22077
 C159 C 0.28850 -0.26864 0.20309
 C160 C 0.30541 -0.25366 0.19965
 C161 C 0.30263 -0.23826 0.21623
 H162 H 0.28497 -0.28295 0.19324
 H163 H 0.31275 -0.22398 0.21918
 Cu164 Cu 0.25041 -0.27559 0.23409
 Cu165 Cu 0.27261 -0.22926 0.25432
 Cu166 Cu 0.22539 -0.25188 0.27784
 N167 N 0.22342 -0.28751 0.24706
 N168 N 0.21381 -0.27829 0.26422
 C169 C 0.19559 -0.28980 0.26976
 C170 C 0.19358 -0.30717 0.25523
 C171 C 0.21156 -0.30515 0.24103
 H172 H 0.18446 -0.28562 0.28317
 H173 H 0.21578 -0.31582 0.22741
 N174 N 0.23960 -0.22522 0.28926
 N175 N 0.25766 -0.21669 0.28038
 C176 C 0.26340 -0.19877 0.29194
 C177 C 0.24819 -0.19580 0.30889
 C178 C 0.23332 -0.21290 0.30664
 H179 H 0.27750 -0.18849 0.28816
 H180 H 0.21913 -0.21628 0.31707
 H181 H 0.25802 -0.25648 0.26849
 H182 H 0.24057 -0.24005 0.24958
 N183 N 0.71124 0.24146 0.22665
 N184 N 0.71740 0.26135 0.22120
 C185 C 0.70468 0.26846 0.20472
 C186 C 0.68969 0.25210 0.19950
 C187 C 0.69438 0.23522 0.21385
 H188 H 0.70660 0.28418 0.19682
 H189 H 0.68622 0.21951 0.21492
 Cu190 Cu 0.74194 0.27591 0.23548
 Cu191 Cu 0.72574 0.22505 0.24964
 Cu192 Cu 0.77497 0.24640 0.26829
 N193 N 0.77134 0.28583 0.24313
 N194 N 0.78460 0.27383 0.25504
 C195 C 0.80399 0.28441 0.25728
 C196 C 0.80269 0.30418 0.24638
 C197 C 0.78171 0.30456 0.23762
 H198 H 0.81776 0.27852 0.26672
 H199 H 0.77461 0.31740 0.22781
 N200 N 0.76204 0.21903 0.27974
 N201 N 0.74307 0.21108 0.27281
 C202 C 0.73786 0.19316 0.28457
 C203 C 0.75432 0.18961 0.29974
 C204 C 0.76944 0.20633 0.29612
 H205 H 0.72299 0.18360 0.28243
 H206 H 0.78428 0.20952 0.30530
 H207 H 0.74114 0.25060 0.26628
 H208 H 0.75580 0.23931 0.24132
 O209 O 0.26485 0.02201 0.48049
 O210 O 0.26494 -0.02044 0.52335
 O211 O 0.26497 -0.02056 0.48047
 O212 O 0.26506 0.02206 0.52332
 O213 O 0.22860 0.02200 0.52385
 O214 O 0.22851 -0.02074 0.48104
 O215 O 0.22849 -0.02058 0.52388
 O216 O 0.22840 0.02192 0.48108
 Cu217 Cu 0.26861 0.00077 0.50183
 Cu218 Cu 0.22484 0.00063 0.50250
 C219 C 0.24661 0.02929 0.47348
 C220 C 0.24673 -0.02774 0.53101
 C221 C 0.24674 -0.02797 0.47342
 C222 C 0.24686 0.02934 0.53093
 O223 O 0.73692 0.02165 0.52020
 O224 O 0.73715 -0.02106 0.47733
 O225 O 0.73678 -0.02091 0.52019
 O226 O 0.73734 0.02141 0.47734
 O227 O 0.77379 0.02143 0.47714
 O228 O 0.77323 -0.02097 0.52000
 O229 O 0.77360 -0.02114 0.47715
 O230 O 0.77338 0.02172 0.51998
 Cu231 Cu 0.73340 0.00027 0.49881
 Cu232 Cu 0.77716 0.00025 0.49858
 C233 C 0.75510 0.02904 0.52741
 C234 C 0.75540 -0.02838 0.46984
 C235 C 0.75491 -0.02822 0.52742
 C236 C 0.75564 0.02863 0.46985
 O237 O 0.47765 0.27017 0.02250
 O238 O 0.52144 0.27004 -0.02021
 O239 O 0.47835 0.26998 -0.02029
 O240 O 0.52068 0.27031 0.02263
 O241 O 0.52067 0.23424 0.02264
 O242 O 0.47833 0.23391 -0.02023
 O243 O 0.52131 0.23397 -0.02023
 O244 O 0.47771 0.23409 0.02262
 Cu245 Cu 0.49955 0.27374 0.00114
 Cu246 Cu 0.49951 0.23044 0.00120
 C247 C 0.47020 0.25214 0.02990
 C248 C 0.52886 0.25197 -0.02756
 C249 C 0.47107 0.25189 -0.02759
 C250 C 0.52790 0.25233 0.03003
 O251 O 0.52135 0.72685 0.02171
 O252 O 0.47865 0.72686 -0.02097
 O253 O 0.52172 0.72722 -0.02114
 O254 O 0.47827 0.72688 0.02190
 O255 O 0.47834 0.76296 0.02217
 O256 O 0.52158 0.76330 -0.02086
 O257 O 0.47862 0.76293 -0.02069
 O258 O 0.52128 0.76292 0.02202
 Cu259 Cu 0.50000 0.72334 0.00035
 Cu260 Cu 0.49996 0.76663 0.00069
 C261 C 0.52860 0.74488 0.02921
 C262 C 0.47135 0.74489 -0.02817
 C263 C 0.52905 0.74535 -0.02840
 C264 C 0.47090 0.74489 0.02943
 O265 O 0.01579 0.47936 0.26703
 O266 O -0.02751 0.52153 0.26471
 O267 O -0.02723 0.47930 0.26475
 O268 O 0.01558 0.52210 0.26701
 O269 O 0.01826 0.52173 0.23078
 O270 O -0.02454 0.47894 0.22849
 O271 O -0.02456 0.52186 0.22846
 O272 O 0.01831 0.47931 0.23080
 Cu273 Cu -0.00603 0.50060 0.26952
 Cu274 Cu -0.00294 0.50045 0.22599
 C275 C 0.02444 0.47208 0.24930
 C276 C -0.03339 0.52889 0.24618
 C277 C -0.03319 0.47183 0.24623
 C278 C 0.02428 0.52923 0.24928
 O279 O 0.02502 0.52282 0.73419
 O280 O -0.01899 0.48103 0.73310
 O281 O -0.01814 0.52373 0.73275
 O282 O 0.02383 0.48043 0.73444
 O283 O 0.02278 0.48140 0.77072
 O284 O -0.02046 0.52356 0.76899
 O285 O -0.02030 0.48111 0.76939
 O286 O 0.02240 0.52418 0.77044
 Cu287 Cu 0.00307 0.50201 0.72998
 Cu288 Cu 0.00098 0.50259 0.77353
 C289 C 0.03111 0.53072 0.75249
 C290 C -0.02706 0.47379 0.75107
 C291 C -0.02663 0.53094 0.75057
 C292 C 0.03058 0.47356 0.75285
 C293 C 0.35268 0.25202 0.14719
 C294 C 0.34873 0.23320 0.15988
 C295 C 0.33247 0.23316 0.17643
 C296 C 0.31967 0.25190 0.18063
 C297 C 0.32356 0.27070 0.16789
 C298 C 0.33991 0.27078 0.15141
 C299 C 0.37002 0.25206 0.12969
 N300 N 0.37532 0.27074 0.11876
 N301 N 0.39094 0.27078 0.10310
 C302 C 0.40190 0.25213 0.09766
 N303 N 0.39657 0.23345 0.10857
 N304 N 0.38099 0.23342 0.12425
 C305 C 0.41932 0.25215 0.08024
 C306 C 0.42917 0.23247 0.07325
 C307 C 0.44561 0.23247 0.05687
 C308 C 0.45267 0.25215 0.04716
 C309 C 0.44286 0.27184 0.05414
 C310 C 0.42634 0.27183 0.07045
 H311 H 0.35823 0.21845 0.15709
 H312 H 0.32982 0.21832 0.18575
 H313 H 0.31417 0.28549 0.17077
 H314 H 0.34249 0.28556 0.14196
 H315 H 0.42416 0.21700 0.08038
 H316 H 0.45284 0.21702 0.05188
 H317 H 0.44790 0.28729 0.04698
 H318 H 0.41915 0.28729 0.07545
 C319 C 0.64184 0.74519 0.14766
 C320 C 0.64506 0.76397 0.16061
 C321 C 0.66074 0.76420 0.17728
 C322 C 0.67383 0.74567 0.18146
 C323 C 0.67051 0.72684 0.16841
 C324 C 0.65471 0.72661 0.15181
 C325 C 0.62518 0.74506 0.12995
 N326 N 0.62042 0.72639 0.11876
 N327 N 0.60543 0.72632 0.10289
 C328 C 0.59458 0.74494 0.09749
 N329 N 0.59938 0.76360 0.10866
 N330 N 0.61433 0.76366 0.12455
 C331 C 0.57783 0.74490 0.07987
 C332 C 0.56823 0.76458 0.07292
 C333 C 0.55237 0.76457 0.05641
 C334 C 0.54563 0.74488 0.04651
 C335 C 0.55523 0.72521 0.05342
 C336 C 0.57118 0.72522 0.06987
 H337 H 0.63540 0.77857 0.15793
 H338 H 0.66250 0.77912 0.18668
 H339 H 0.67997 0.71212 0.17089
 H340 H 0.65268 0.71185 0.14214
 H341 H 0.57297 0.78005 0.08021
 H342 H 0.54529 0.78002 0.05149
 H343 H 0.55043 0.70975 0.04612
 H344 H 0.57820 0.70976 0.07482
 C345 C 0.64663 0.25119 -0.14460
 C346 C 0.65955 0.26993 -0.14868
 C347 C 0.67599 0.26978 -0.16507
 C348 C 0.67983 0.25093 -0.17786
 C349 C 0.66687 0.23222 -0.17382
 C350 C 0.65051 0.23233 -0.15735
 C351 C 0.62921 0.25132 -0.12718
 N352 N 0.61811 0.23271 -0.12180
 N353 N 0.60248 0.23282 -0.10617
 C354 C 0.59722 0.25156 -0.09525
 N355 N 0.60831 0.27018 -0.10064
 N356 N 0.62398 0.27006 -0.11625
 C357 C 0.57976 0.25168 -0.07787
 C358 C 0.57280 0.27143 -0.06813
 C359 C 0.55627 0.27154 -0.05183
 C360 C 0.54638 0.25189 -0.04482
 C361 C 0.55338 0.23213 -0.05450
 C362 C 0.56983 0.23204 -0.07087
 H363 H 0.65703 0.28475 -0.13919
 H364 H 0.68550 0.28455 -0.16782
 H365 H 0.66947 0.21735 -0.18319
 H366 H 0.64088 0.21760 -0.15467
 H367 H 0.58006 0.28687 -0.07314
 H368 H 0.55128 0.28703 -0.04469
 H369 H 0.54609 0.21671 -0.04949
 H370 H 0.57480 0.21652 -0.07797
 C371 C 0.35835 0.74541 -0.14687
 C372 C 0.34805 0.72595 -0.15375
 C373 C 0.33244 0.72619 -0.17053
 C374 C 0.32681 0.74589 -0.18089
 C375 C 0.33714 0.76533 -0.17401
 C376 C 0.35267 0.76510 -0.15721
 C377 C 0.37492 0.74524 -0.12907
 N378 N 0.38412 0.76420 -0.12182
 N379 N 0.39903 0.76410 -0.10590
 C380 C 0.40542 0.74505 -0.09653
 N381 N 0.39622 0.72608 -0.10377
 N382 N 0.38128 0.72618 -0.11968
 C383 C 0.42215 0.74498 -0.07887
 C384 C 0.42961 0.72518 -0.06994
 C385 C 0.44552 0.72515 -0.05346
 C386 C 0.45432 0.74491 -0.04548
 C387 C 0.44679 0.76470 -0.05433
 C388 C 0.43092 0.76473 -0.07083
 H389 H 0.35202 0.71048 -0.14617
 H390 H 0.32498 0.71087 -0.17547
 H391 H 0.33312 0.78085 -0.18141
 H392 H 0.36023 0.78041 -0.15235
 H393 H 0.42323 0.70966 -0.07572
 H394 H 0.45095 0.70962 -0.04699
 H395 H 0.45323 0.78021 -0.04856
 H396 H 0.42556 0.78029 -0.07729
 C397 C 0.14142 0.35694 0.25355
 C398 C 0.14511 0.34476 0.27273
 C399 C 0.16136 0.32854 0.27303
 C400 C 0.17439 0.32418 0.25420
 C401 C 0.17073 0.33641 0.23507
 C402 C 0.15443 0.35254 0.23473
 C403 C 0.12409 0.37406 0.25311
 N404 N 0.11940 0.38460 0.23410
 N405 N 0.10383 0.39993 0.23362
 C406 C 0.09228 0.40544 0.25213
 N407 N 0.09699 0.39493 0.27116
 N408 N 0.11254 0.37956 0.27163
 C409 C 0.07491 0.42251 0.25151
 C410 C 0.06413 0.42952 0.27092
 C411 C 0.04779 0.44564 0.27024
 C412 C 0.04179 0.45505 0.25013
 C413 C 0.05254 0.44803 0.23074
 C414 C 0.06892 0.43200 0.23142
 H415 H 0.13541 0.34769 0.28753
 H416 H 0.16381 0.31958 0.28812
 H417 H 0.18026 0.33341 0.22019
 H418 H 0.15206 0.36158 0.21966
 H419 H 0.06834 0.42260 0.28668
 H420 H 0.03982 0.45067 0.28548
 H421 H 0.04833 0.45496 0.21497
 H422 H 0.07683 0.42700 0.21614
 C423 C 0.14794 0.64585 0.75381
 C424 C 0.14289 0.66713 0.74706
 C425 C 0.15932 0.68324 0.74612
 C426 C 0.18112 0.67863 0.75259
 C427 C 0.18591 0.65731 0.75987
 C428 C 0.16959 0.64105 0.76011
 C429 C 0.13074 0.62868 0.75405
 N430 N 0.13585 0.60769 0.74874
 N431 N 0.12025 0.59227 0.74854
 C432 C 0.09898 0.59719 0.75393
 N433 N 0.09389 0.61815 0.75942
 N434 N 0.10945 0.63363 0.75933
 C435 C 0.08168 0.58012 0.75366
 C436 C 0.06419 0.58058 0.76906
 C437 C 0.04791 0.56429 0.76891
 C438 C 0.04849 0.54766 0.75292
 C439 C 0.06581 0.54737 0.73732
 C440 C 0.08246 0.56328 0.73790
 H441 H 0.12629 0.67121 0.74208
 H442 H 0.15466 0.69939 0.74070
 H443 H 0.20238 0.65282 0.76483
 H444 H 0.17386 0.62473 0.76546
 H445 H 0.06329 0.59337 0.78142
 H446 H 0.03466 0.56488 0.78106
 H447 H 0.06664 0.53465 0.72489
 H448 H 0.09573 0.56264 0.72579
 C449 C -0.14880 0.64465 0.24391
 C450 C -0.14338 0.66591 0.25069
 C451 C -0.15956 0.68216 0.25184
 C452 C -0.18149 0.67770 0.24556
 C453 C -0.18665 0.65639 0.23824
 C454 C -0.17058 0.64000 0.23778
 C455 C -0.13187 0.62731 0.24353
 N456 N -0.13730 0.60641 0.24888
 N457 N -0.12193 0.59085 0.24906
 C458 C -0.10060 0.59553 0.24360
 N459 N -0.09521 0.61640 0.23805
 N460 N -0.11052 0.63202 0.23817
 C461 C -0.08355 0.57834 0.24402
 C462 C -0.06597 0.57846 0.22870
 C463 C -0.04986 0.56211 0.22912
 C464 C -0.05069 0.54579 0.24530
 C465 C -0.06813 0.54582 0.26077
 C466 C -0.08460 0.56176 0.25993
 H467 H -0.12667 0.66987 0.25555
 H468 H -0.15462 0.69828 0.25730
 H469 H -0.20323 0.65202 0.23342
 H470 H -0.17513 0.62370 0.23242
 H471 H -0.06486 0.59105 0.21623
 H472 H -0.03651 0.56245 0.21707
 H473 H -0.06915 0.53333 0.27335
 H474 H -0.09794 0.56139 0.27199
 C475 C -0.14340 0.35725 0.74893
 C476 C -0.15882 0.35538 0.76629
 C477 C -0.17497 0.33899 0.76612
 C478 C -0.17610 0.32382 0.74862
 C479 C -0.16053 0.32578 0.73126
 C480 C -0.14449 0.34230 0.73138
 C481 C -0.12625 0.37465 0.74916
 N482 N -0.11330 0.37850 0.73114
 N483 N -0.09789 0.39410 0.73138
 C484 C -0.09470 0.40650 0.74967
 N485 N -0.10762 0.40264 0.76769
 N486 N -0.12309 0.38708 0.76743
 C487 C -0.07745 0.42380 0.74999
 C488 C -0.07192 0.43432 0.76979
 C489 C -0.05555 0.45049 0.77014
 C490 C -0.04443 0.45666 0.75067
 C491 C -0.05003 0.44624 0.73085
 C492 C -0.06629 0.42994 0.73053
 H493 H -0.15850 0.36666 0.78005
 H494 H -0.18639 0.33831 0.77992
 H495 H -0.16061 0.31472 0.71735
 H496 H -0.13285 0.34323 0.71774
 H497 H -0.08014 0.42997 0.78509
 H498 H -0.05166 0.45823 0.78567
 H499 H -0.04175 0.45059 0.71557
 H500 H -0.07016 0.42223 0.71498
 C501 C 0.24659 0.14665 0.35926
 C502 C 0.26570 0.15097 0.34658
 C503 C 0.26572 0.16727 0.33052
 C504 C 0.24668 0.17975 0.32680
 C505 C 0.22760 0.17554 0.33956
 C506 C 0.22753 0.15915 0.35555
 C507 C 0.24655 0.12922 0.37619
 N508 N 0.22764 0.12364 0.38710
 N509 N 0.22762 0.10794 0.40225
 C510 C 0.24652 0.09717 0.40717
 N511 N 0.26543 0.10278 0.39627
 N512 N 0.26545 0.11844 0.38110
 C513 C 0.24652 0.07971 0.42407
 C514 C 0.26643 0.07003 0.43058
 C515 C 0.26646 0.05367 0.44660
 C516 C 0.24656 0.04653 0.45641
 C517 C 0.22664 0.05612 0.44984
 C518 C 0.22662 0.07255 0.43390
 H519 H 0.28069 0.14170 0.34899
 H520 H 0.28079 0.17018 0.32119
 H521 H 0.21257 0.18469 0.33705
 H522 H 0.21252 0.15629 0.36501
 H523 H 0.28207 0.07514 0.42339
 H524 H 0.28209 0.04661 0.45127
 H525 H 0.21102 0.05101 0.45709
 H526 H 0.21097 0.07960 0.42926
 C527 C 0.75374 0.14612 0.64281
 C528 C 0.73457 0.15011 0.65550
 C529 C 0.73436 0.16639 0.67171
 C530 C 0.75328 0.17918 0.67555
 C531 C 0.77242 0.17527 0.66280
 C532 C 0.77267 0.15890 0.64667
 C533 C 0.75398 0.12875 0.62569
 N534 N 0.77300 0.12344 0.61481
 N535 N 0.77321 0.10781 0.59949
 C536 C 0.75441 0.09682 0.59433
 N537 N 0.73540 0.10214 0.60519
 N538 N 0.73520 0.11774 0.62055
 C539 C 0.75462 0.07943 0.57723
 C540 C 0.73480 0.06959 0.57044
 C541 C 0.73496 0.05327 0.55427
 C542 C 0.75496 0.04632 0.54457
 C543 C 0.77480 0.05608 0.55140
 C544 C 0.77463 0.07248 0.56750
 H545 H 0.71968 0.14061 0.65298
 H546 H 0.71926 0.16906 0.68105
 H547 H 0.78735 0.18465 0.66541
 H548 H 0.78772 0.15630 0.63721
 H549 H 0.71908 0.07454 0.57755
 H550 H 0.71939 0.04608 0.54941
 H551 H 0.79049 0.05111 0.54424
 H552 H 0.79021 0.07966 0.57235
 C553 C 0.24716 -0.14073 0.64962
 C554 C 0.26670 -0.14539 0.66092
 C555 C 0.26694 -0.16137 0.67730
 C556 C 0.24766 -0.17317 0.68273
 C557 C 0.22809 -0.16844 0.67151
 C558 C 0.22783 -0.15239 0.65518
 C559 C 0.24702 -0.12393 0.63205
 N560 N 0.22793 -0.11837 0.62201
 N561 N 0.22785 -0.10336 0.60617
 C562 C 0.24688 -0.09330 0.59965
 N563 N 0.26597 -0.09887 0.60969
 N564 N 0.26604 -0.11384 0.62554
 C565 C 0.24683 -0.07660 0.58198
 C566 C 0.26676 -0.06739 0.57420
 C567 C 0.26673 -0.05163 0.55759
 C568 C 0.24677 -0.04464 0.54842
 C569 C 0.22684 -0.05385 0.55617
 C570 C 0.22687 -0.06967 0.57273
 H571 H 0.28190 -0.13673 0.65709
 H572 H 0.28237 -0.16465 0.68542
 H573 H 0.21288 -0.17704 0.67537
 H574 H 0.21247 -0.14921 0.64685
 H575 H 0.28244 -0.07235 0.58090
 H576 H 0.28237 -0.04485 0.55201
 H577 H 0.21117 -0.04884 0.54945
 H578 H 0.21121 -0.07639 0.57832
 C579 C 0.75489 -0.14131 0.35034
 C580 C 0.73536 -0.14582 0.33888
 C581 C 0.73502 -0.16174 0.32234
 C582 C 0.75417 -0.17364 0.31687
 C583 C 0.77374 -0.16906 0.32824
 C584 C 0.77412 -0.15306 0.34474
 C585 C 0.75511 -0.12457 0.36809
 N586 N 0.77420 -0.11908 0.37829
 N587 N 0.77431 -0.10412 0.39428
 C588 C 0.75533 -0.09403 0.40080
 N589 N 0.73626 -0.09953 0.39059
 N590 N 0.73615 -0.11446 0.37459
 C591 C 0.75539 -0.07737 0.41862
 C592 C 0.73547 -0.06816 0.42634
 C593 C 0.73548 -0.05239 0.44304
 C594 C 0.75542 -0.04536 0.45238
 C595 C 0.77534 -0.05458 0.44471
 C596 C 0.77533 -0.07043 0.42806
 H597 H 0.72024 -0.13710 0.34272
 H598 H 0.71958 -0.16490 0.31412
 H599 H 0.78886 -0.17774 0.32436
 H600 H 0.78947 -0.15000 0.35319
 H601 H 0.71980 -0.07313 0.41950
 H602 H 0.71984 -0.04561 0.44855
 H603 H 0.79099 -0.04954 0.45157
 H604 H 0.79098 -0.07715 0.42252
 C605 C 0.64495 0.74749 -0.14702
 C606 C 0.65758 0.72876 -0.15174
 C607 C 0.67386 0.72914 -0.16826
 C608 C 0.67783 0.74823 -0.18052
 C609 C 0.66514 0.76693 -0.17587
 C610 C 0.64893 0.76659 -0.15928
 C611 C 0.62778 0.74713 -0.12941
 N612 N 0.61692 0.76568 -0.12347
 N613 N 0.60154 0.76537 -0.10760
 C614 C 0.59632 0.74648 -0.09701
 N615 N 0.60716 0.72792 -0.10297
 N616 N 0.62257 0.72824 -0.11881
 C617 C 0.57917 0.74616 -0.07937
 C618 C 0.57232 0.72631 -0.06982
 C619 C 0.55606 0.72602 -0.05328
 C620 C 0.54635 0.74559 -0.04584
 C621 C 0.55327 0.76545 -0.05530
 C622 C 0.56945 0.76572 -0.07191
 H623 H 0.65496 0.71376 -0.14264
 H624 H 0.68315 0.71437 -0.17151
 H625 H 0.66786 0.78197 -0.18485
 H626 H 0.63951 0.78132 -0.15610
 H627 H 0.57944 0.71093 -0.07518
 H628 H 0.55111 0.71046 -0.04630
 H629 H 0.54610 0.78081 -0.04996
 H630 H 0.57435 0.78131 -0.07885
 C631 C 0.35470 0.25062 -0.14268
 C632 C 0.35051 0.23158 -0.15498
 C633 C 0.33418 0.23137 -0.17101
 C634 C 0.32157 0.25016 -0.17506
 C635 C 0.32572 0.26918 -0.16273
 C636 C 0.34213 0.26943 -0.14677
 C637 C 0.37205 0.25085 -0.12570
 N638 N 0.37748 0.26968 -0.11511
 N639 N 0.39306 0.26987 -0.09984
 C640 C 0.40386 0.25123 -0.09448
 N641 N 0.39843 0.23240 -0.10506
 N642 N 0.38287 0.23222 -0.12035
 C643 C 0.42114 0.25142 -0.07743
 C644 C 0.43081 0.23179 -0.07045
 C645 C 0.44699 0.23195 -0.05427
 C646 C 0.45397 0.25174 -0.04477
 C647 C 0.44439 0.27138 -0.05180
 C648 C 0.42813 0.27122 -0.06790
 H649 H 0.35988 0.21679 -0.15227
 H650 H 0.33132 0.21636 -0.18004
 H651 H 0.31648 0.28401 -0.16552
 H652 H 0.34491 0.28439 -0.13761
 H653 H 0.42581 0.21624 -0.07740
 H654 H 0.45407 0.21654 -0.04924
 H655 H 0.44939 0.28690 -0.04478
 H656 H 0.42107 0.28664 -0.07291
 C657 C 0.35521 0.74561 0.14829
 C658 C 0.34303 0.72662 0.15331
 C659 C 0.32686 0.72686 0.16994
 C660 C 0.32257 0.74607 0.18201
 C661 C 0.33480 0.76503 0.17704
 C662 C 0.35089 0.76482 0.16035
 C663 C 0.37229 0.74541 0.13058
 N664 N 0.38284 0.76414 0.12455
 N665 N 0.39817 0.76400 0.10863
 C666 C 0.40365 0.74512 0.09808
 N667 N 0.39313 0.72638 0.10412
 N668 N 0.37776 0.72653 0.12002
 C669 C 0.42077 0.74501 0.08040
 C670 C 0.42779 0.72524 0.07074
 C671 C 0.44405 0.72518 0.05418
 C672 C 0.45359 0.74489 0.04686
 C673 C 0.44650 0.76465 0.05645
 C674 C 0.43032 0.76470 0.07305
 H675 H 0.34592 0.71153 0.14436
 H676 H 0.31791 0.71190 0.17344
 H677 H 0.33183 0.78017 0.18585
 H678 H 0.35996 0.77975 0.15693
 H679 H 0.42081 0.70977 0.07601
 H680 H 0.44914 0.70968 0.04711
 H681 H 0.45352 0.78011 0.05121
 H682 H 0.42528 0.78023 0.08009
 C683 C 0.64080 0.25258 0.14853
 C684 C 0.65114 0.27210 0.15516
 C685 C 0.66697 0.27197 0.17170
 C686 C 0.67279 0.25232 0.18205
 C687 C 0.66238 0.23283 0.17545
 C688 C 0.64661 0.23296 0.15889
 C689 C 0.62410 0.25263 0.13090
 N690 N 0.61481 0.23364 0.12388
 N691 N 0.59984 0.23364 0.10803
 C692 C 0.59349 0.25262 0.09850
 N693 N 0.60277 0.27163 0.10551
 N694 N 0.61777 0.27163 0.12136
 C695 C 0.57679 0.25258 0.08088
 C696 C 0.56946 0.27231 0.07172
 C697 C 0.55362 0.27224 0.05520
 C698 C 0.54478 0.25243 0.04742
 C699 C 0.55216 0.23270 0.05650
 C700 C 0.56795 0.23277 0.07306
 H701 H 0.64705 0.28753 0.14755
 H702 H 0.67448 0.28732 0.17644
 H703 H 0.66653 0.21735 0.18286
 H704 H 0.63900 0.21761 0.15421
 H705 H 0.57590 0.28787 0.07735
 H706 H 0.54829 0.28772 0.04853
 H707 H 0.54567 0.21715 0.05089
 H708 H 0.57322 0.21726 0.07970
 C709 C -0.14378 0.64557 0.74690
 C710 C -0.15974 0.64680 0.76382
 C711 C -0.17617 0.66278 0.76351
 C712 C -0.17704 0.67817 0.74631
 C713 C -0.16092 0.67685 0.72938
 C714 C -0.14460 0.66073 0.72964
 C715 C -0.12636 0.62860 0.74732
 N716 N -0.11285 0.62522 0.72961
 N717 N -0.09721 0.60995 0.73004
 C718 C -0.09437 0.59746 0.74822
 N719 N -0.10786 0.60087 0.76593
 N720 N -0.12354 0.61609 0.76548
 C721 C -0.07696 0.58050 0.74877
 C722 C -0.07190 0.56998 0.76859
 C723 C -0.05549 0.55398 0.76917
 C724 C -0.04388 0.54802 0.74991
 C725 C -0.04895 0.55848 0.73007
 C726 C -0.06526 0.57461 0.72952
 H727 H -0.15964 0.63533 0.77735
 H728 H -0.18800 0.66298 0.77698
 H729 H -0.16078 0.68812 0.71572
 H730 H -0.13252 0.66027 0.71635
 H731 H -0.08054 0.57415 0.78374
 H732 H -0.05200 0.54620 0.78471
 H733 H -0.04026 0.55427 0.71496
 H734 H -0.06877 0.58235 0.71397
 C735 C -0.14802 0.35482 0.24373
 C736 C -0.17059 0.36011 0.24380
 C737 C -0.18660 0.34360 0.24423
 C738 C -0.18034 0.32154 0.24516
 C739 C -0.15779 0.31623 0.24521
 C740 C -0.14175 0.33273 0.24421
 C741 C -0.13114 0.37230 0.24354
 N742 N -0.11082 0.36883 0.23445
 N743 N -0.09558 0.38461 0.23444
 C744 C -0.09999 0.40438 0.24375
 N745 N -0.12028 0.40781 0.25290
 N746 N -0.13559 0.39212 0.25269
 C747 C -0.08299 0.42172 0.24420
 C748 C -0.08289 0.43716 0.26136
 C749 C -0.06656 0.45333 0.26210
 C750 C -0.05037 0.45470 0.24540
 C751 C -0.05066 0.43950 0.22803
 C752 C -0.06667 0.42296 0.22759
 H753 H -0.17585 0.37701 0.24335
 H754 H -0.20389 0.34813 0.24433
 H755 H -0.15256 0.29933 0.24579
 H756 H -0.12445 0.32823 0.24426
 H757 H -0.09522 0.43650 0.27442
 H758 H -0.06672 0.46494 0.27561
 H759 H -0.03829 0.44018 0.21501
 H760 H -0.06646 0.41130 0.21413
 C761 C 0.14460 0.35577 0.75485
 C762 C 0.15693 0.35153 0.77379
 C763 C 0.17288 0.33504 0.77373
 C764 C 0.17677 0.32233 0.75477
 C765 C 0.16439 0.32653 0.73586
 C766 C 0.14854 0.34307 0.73588
 C767 C 0.12775 0.37331 0.75477
 N768 N 0.11736 0.37869 0.73589
 N769 N 0.10223 0.39445 0.73573
 C770 C 0.09682 0.40550 0.75444
 N771 N 0.10719 0.40012 0.77335
 N772 N 0.12236 0.38438 0.77350
 C773 C 0.07994 0.42302 0.75416
 C774 C 0.07269 0.43307 0.77379
 C775 C 0.05664 0.44948 0.77342
 C776 C 0.04760 0.45626 0.75339
 C777 C 0.05493 0.44626 0.73377
 C778 C 0.07086 0.42982 0.73416
 H779 H 0.15432 0.36100 0.78869
 H780 H 0.18198 0.33214 0.78864
 H781 H 0.16708 0.31723 0.72089
 H782 H 0.13936 0.34587 0.72099
 H783 H 0.07931 0.42821 0.78949
 H784 H 0.05135 0.45688 0.78881
 H785 H 0.04829 0.45108 0.71807
 H786 H 0.07609 0.42247 0.71871
 C787 C 0.14234 0.64373 0.25387
 C788 C 0.14565 0.65647 0.27284
 C789 C 0.16223 0.67243 0.27328
 C790 C 0.17596 0.67594 0.25479
 C791 C 0.17269 0.66317 0.23584
 C792 C 0.15605 0.64729 0.23537
 C793 C 0.12472 0.62685 0.25331
 N794 N 0.12025 0.61592 0.23439
 N795 N 0.10444 0.60075 0.23384
 C796 C 0.09243 0.59580 0.25220
 N797 N 0.09690 0.60671 0.27114
 N798 N 0.11270 0.62193 0.27168
 C799 C 0.07488 0.57885 0.25152
 C800 C 0.06385 0.57221 0.27089
 C801 C 0.04742 0.55609 0.27020
 C802 C 0.04160 0.54635 0.25011
 C803 C 0.05255 0.55306 0.23075
 C804 C 0.06903 0.56908 0.23145
 H805 H 0.13540 0.65416 0.28739
 H806 H 0.16439 0.68183 0.28821
 H807 H 0.18279 0.66554 0.22122
 H808 H 0.15398 0.63779 0.22046
 H809 H 0.06796 0.57937 0.28664
 H810 H 0.03927 0.55129 0.28540
 H811 H 0.04848 0.54587 0.21500
 H812 H 0.07714 0.57382 0.21621
 C813 C 0.75277 -0.14458 0.64246
 C814 C 0.77174 -0.15709 0.64645
 C815 C 0.77138 -0.17352 0.66237
 C816 C 0.75208 -0.17775 0.67476
 C817 C 0.73313 -0.16520 0.67083
 C818 C 0.73345 -0.14885 0.65483
 C819 C 0.75313 -0.12721 0.62550
 N820 N 0.73435 -0.11641 0.62024
 N821 N 0.73466 -0.10086 0.60495
 C822 C 0.75376 -0.09540 0.59430
 N823 N 0.77254 -0.10619 0.59959
 N824 N 0.77223 -0.12177 0.61484
 C825 C 0.75408 -0.07813 0.57725
 C826 C 0.77415 -0.07117 0.56764
 C827 C 0.77444 -0.05491 0.55153
 C828 C 0.75465 -0.04532 0.54460
 C829 C 0.73459 -0.05227 0.55420
 C830 C 0.73431 -0.06845 0.57037
 H831 H 0.78691 -0.15425 0.63723
 H832 H 0.78634 -0.18270 0.66508
 H833 H 0.71792 -0.16813 0.67992
 H834 H 0.71853 -0.13953 0.65220
 H835 H 0.78970 -0.07824 0.57257
 H836 H 0.79017 -0.04994 0.54444
 H837 H 0.71905 -0.04518 0.54925
 H838 H 0.71855 -0.07342 0.57740
 C839 C 0.24749 -0.14484 0.35807
 C840 C 0.26678 -0.14925 0.34574
 C841 C 0.26698 -0.16572 0.32974
 C842 C 0.24793 -0.17825 0.32577
 C843 C 0.22863 -0.17385 0.33812
 C844 C 0.22840 -0.15731 0.35404
 C845 C 0.24730 -0.12739 0.37507
 N846 N 0.22827 -0.12187 0.38579
 N847 N 0.22813 -0.10622 0.40110
 C848 C 0.24702 -0.09545 0.40636
 N849 N 0.26604 -0.10098 0.39563
 N850 N 0.26617 -0.11659 0.38030
 C851 C 0.24691 -0.07811 0.42347
 C852 C 0.26679 -0.06840 0.43024
 C853 C 0.26673 -0.05215 0.44646
 C854 C 0.24677 -0.04516 0.45622
 C855 C 0.22687 -0.05480 0.44940
 C856 C 0.22695 -0.07112 0.43325
 H857 H 0.28179 -0.13998 0.34840
 H858 H 0.28219 -0.16877 0.32071
 H859 H 0.21359 -0.18302 0.33537
 H860 H 0.21324 -0.15435 0.36322
 H861 H 0.28247 -0.07339 0.42310
 H862 H 0.28234 -0.04503 0.45132
 H863 H 0.21122 -0.04979 0.45661
 H864 H 0.21132 -0.07822 0.42840
 C865 C 0.75561 0.14053 0.35045
 C866 C 0.73599 0.14506 0.33925
 C867 C 0.73565 0.16082 0.32269
 C868 C 0.75490 0.17251 0.31696
 C869 C 0.77456 0.16791 0.32807
 C870 C 0.77493 0.15207 0.34460
 C871 C 0.75580 0.12398 0.36820
 N872 N 0.77491 0.11847 0.37824
 N873 N 0.77498 0.10364 0.39424
 C874 C 0.75593 0.09372 0.40092
 N875 N 0.73683 0.09924 0.39088
 N876 N 0.73677 0.11403 0.37487
 C877 C 0.75592 0.07720 0.41871
 C878 C 0.73593 0.06815 0.42651
 C879 C 0.73586 0.05249 0.44319
 C880 C 0.75577 0.04546 0.45241
 C881 C 0.77577 0.05452 0.44466
 C882 C 0.77584 0.07025 0.42802
 H883 H 0.72080 0.13649 0.34330
 H884 H 0.72014 0.16401 0.31467
 H885 H 0.78975 0.17645 0.32397
 H886 H 0.79035 0.14897 0.35286
 H887 H 0.72027 0.07314 0.41976
 H888 H 0.72017 0.04582 0.44877
 H889 H 0.79139 0.04946 0.45144
 H890 H 0.79154 0.07686 0.42240
 C891 C 0.24760 0.14456 0.64790
 C892 C 0.22853 0.15689 0.65254
 C893 C 0.22868 0.17305 0.66886
 C894 C 0.24786 0.17718 0.68099
 C895 C 0.26692 0.16481 0.67639
 C896 C 0.26681 0.14873 0.66000
 C897 C 0.24748 0.12748 0.63053
 N898 N 0.26635 0.11686 0.62468
 N899 N 0.26624 0.10154 0.60905
 C900 C 0.24725 0.09615 0.59863
 N901 N 0.22837 0.10676 0.60451
 N902 N 0.22849 0.12211 0.62010
 C903 C 0.24714 0.07908 0.58127
 C904 C 0.22717 0.07212 0.57192
 C905 C 0.22707 0.05595 0.55561
 C906 C 0.24694 0.04645 0.54820
 C907 C 0.26691 0.05345 0.55748
 C908 C 0.26701 0.06954 0.57386
 H909 H 0.21344 0.15412 0.64355
 H910 H 0.21364 0.18211 0.67208
 H911 H 0.28205 0.16767 0.68526
 H912 H 0.28180 0.13955 0.65687
 H913 H 0.21155 0.07909 0.57725
 H914 H 0.21140 0.05094 0.54877
 H915 H 0.28251 0.04644 0.55215
 H916 H 0.28269 0.07452 0.58066
   
