data_POSCAR
  _audit_creation_date              2014-09-24
  _audit_creation_method            'ToBaCCo'
  _symmetry_space_group_name_H-M    'P1'
  _symmetry_Int_Tables_number       1
  _symmetry_cell_setting            triclinic
  loop_
  _symmetry_equiv_pos_as_xyz
 x,y,z
_cell_length_a 40.3325
_cell_length_b 39.0200
_cell_length_c 38.2373
_cell_angle_alpha 89.568600
_cell_angle_beta 90.448900
_cell_angle_gamma 89.469100
loop_
  _atom_site_label
  _atom_site_type_symbol
  _atom_site_fract_x
  _atom_site_fract_y
  _atom_site_fract_z
C1 C 0.32359 0.27795 0.22988
 H2 H 0.33265 0.26258 0.25158
 C3 C 0.34565 0.29870 0.21163
 H4 H 0.37159 0.29849 0.21913
 C5 C 0.27900 0.29707 0.19388
 H6 H 0.25296 0.29688 0.18734
 C7 C 0.30018 0.31826 0.17498
 H8 H 0.29003 0.33419 0.15413
 N9 N 0.29090 0.27739 0.22078
 C10 C 0.20730 0.26069 0.29030
 H11 H 0.20693 0.23297 0.29112
 C12 C 0.18337 0.27954 0.30822
 H13 H 0.16452 0.26625 0.32294
 C14 C 0.23216 0.31177 0.26970
 H15 H 0.25133 0.32420 0.25481
 C16 C 0.20833 0.33162 0.28673
 H17 H 0.20940 0.35930 0.28500
 Zn18 Zn 0.26156 0.24933 0.24696
 N19 N 0.23113 0.27697 0.27167
 C20 C 0.28409 0.22706 0.31406
 N21 N 0.28681 0.22193 0.27906
 C22 C 0.30804 0.19788 0.26638
 C23 C 0.32554 0.17607 0.28909
 C24 C 0.30222 0.20675 0.33776
 C25 C 0.21214 0.23749 0.19677
 C26 C 0.19241 0.21893 0.17364
 C27 C 0.22164 0.16740 0.19157
 C28 C 0.24045 0.18685 0.21473
 N29 N 0.23610 0.22146 0.21630
 H30 H 0.26815 0.24722 0.32372
 H31 H 0.31091 0.19518 0.23844
 H32 H 0.34049 0.15593 0.27782
 H33 H 0.30010 0.21219 0.36534
 H34 H 0.20786 0.26469 0.19959
 H35 H 0.17361 0.23213 0.15814
 H36 H 0.22550 0.13991 0.19059
 H37 H 0.25813 0.17393 0.23153
 C38 C 0.18362 0.31544 0.30632
 C39 C 0.33401 0.31930 0.18379
 C40 C 0.19740 0.18349 0.17059
 C41 C 0.32288 0.18016 0.32554
 C42 C 0.81321 0.77936 0.22683
 H43 H 0.82433 0.76792 0.24997
 C44 C 0.83254 0.79945 0.20472
 H45 H 0.85864 0.80160 0.21091
 C46 C 0.76594 0.78923 0.19111
 H47 H 0.73981 0.78578 0.18624
 C48 C 0.78433 0.80924 0.16808
 H49 H 0.77128 0.82132 0.14640
 N50 N 0.78057 0.77447 0.21965
 C51 C 0.69798 0.76797 0.28922
 H52 H 0.68880 0.74278 0.28292
 C53 C 0.67899 0.78999 0.30982
 H54 H 0.65490 0.78172 0.31865
 C55 C 0.74052 0.80927 0.28517
 H56 H 0.76473 0.81641 0.27578
 C57 C 0.72245 0.83201 0.30579
 H58 H 0.73310 0.85654 0.31228
 Zn59 Zn 0.75436 0.74787 0.25038
 N60 N 0.72803 0.77801 0.27721
 C61 C 0.77726 0.72371 0.31608
 N62 N 0.78223 0.72170 0.28101
 C63 C 0.80669 0.70144 0.26780
 C64 C 0.82679 0.68156 0.29011
 C65 C 0.79676 0.70431 0.33929
 C66 C 0.69932 0.73258 0.20748
 C67 C 0.67941 0.71268 0.18571
 C68 C 0.71533 0.66417 0.19797
 C69 C 0.73438 0.68490 0.21975
 N70 N 0.72654 0.71866 0.22359
 H71 H 0.75792 0.74016 0.32615
 H72 H 0.81043 0.70054 0.23984
 H73 H 0.84556 0.66497 0.27903
 H74 H 0.79235 0.70631 0.36710
 H75 H 0.69318 0.75932 0.21128
 H76 H 0.65831 0.72443 0.17248
 H77 H 0.72219 0.63746 0.19491
 H78 H 0.75569 0.67399 0.23306
 C79 C 0.69121 0.82252 0.31843
 C80 C 0.81835 0.81492 0.17453
 C81 C 0.68767 0.67813 0.18030
 C82 C 0.82171 0.68259 0.32639
 C83 C 0.79398 0.30296 0.74101
 H84 H 0.78869 0.30814 0.76817
 C85 C 0.81743 0.32251 0.72335
 H86 H 0.82954 0.34317 0.73701
 C87 C 0.78419 0.26980 0.69041
 H88 H 0.77188 0.24864 0.67793
 C89 C 0.80771 0.28849 0.67184
 H90 H 0.81303 0.28146 0.64512
 N91 N 0.77744 0.27762 0.72424
 C92 C 0.69201 0.26683 0.79305
 H93 H 0.69296 0.23955 0.79830
 C94 C 0.66860 0.28735 0.80988
 H95 H 0.65158 0.27580 0.82818
 C96 C 0.71290 0.31507 0.76266
 H97 H 0.72997 0.32575 0.74399
 C98 C 0.68951 0.33644 0.77843
 H99 H 0.68921 0.36359 0.77229
 Zn100 Zn 0.74678 0.25193 0.75086
 N101 N 0.71426 0.28107 0.77083
 C102 C 0.76587 0.23154 0.82057
 N103 N 0.77188 0.22867 0.78582
 C104 C 0.79708 0.20876 0.77402
 C105 C 0.81711 0.19017 0.79734
 C106 C 0.78485 0.21286 0.84492
 C107 C 0.70856 0.23037 0.69328
 C108 C 0.69129 0.20717 0.67250
 C109 C 0.70525 0.16237 0.71411
 C110 C 0.72294 0.18626 0.73363
 N111 N 0.72441 0.21951 0.72289
 H112 H 0.74653 0.24848 0.82964
 H113 H 0.80131 0.20695 0.74618
 H114 H 0.83555 0.17342 0.78604
 H115 H 0.77958 0.21701 0.87224
 H116 H 0.70962 0.25709 0.68565
 H117 H 0.67990 0.21637 0.64845
 H118 H 0.70366 0.13635 0.72389
 H119 H 0.73481 0.17834 0.75783
 C120 C 0.66744 0.32268 0.80285
 C121 C 0.82456 0.31546 0.68820
 C122 C 0.68917 0.17257 0.68290
 C123 C 0.81126 0.19142 0.83381
 C124 C 0.27942 0.80823 0.73046
 H125 H 0.27719 0.81464 0.75782
 C126 C 0.29956 0.82784 0.70872
 H127 H 0.31185 0.84986 0.71969
 C128 C 0.26502 0.77218 0.68331
 H129 H 0.25186 0.75012 0.67368
 C130 C 0.28568 0.79045 0.66086
 H131 H 0.28827 0.78179 0.63421
 N132 N 0.26217 0.78141 0.71736
 C133 C 0.18684 0.76832 0.79782
 H134 H 0.18940 0.74107 0.80273
 C135 C 0.16435 0.78767 0.81718
 H136 H 0.14967 0.77529 0.83714
 C137 C 0.20232 0.81749 0.76528
 H138 H 0.21663 0.82891 0.74458
 C139 C 0.17966 0.83768 0.78357
 H140 H 0.17726 0.86472 0.77734
 Zn141 Zn 0.23589 0.75522 0.74823
 N142 N 0.20594 0.78357 0.77312
 C143 C 0.26387 0.73688 0.81450
 N144 N 0.26519 0.73160 0.77940
 C145 C 0.28796 0.70977 0.76552
 C146 C 0.30937 0.69082 0.78731
 C147 C 0.28465 0.71836 0.83722
 C148 C 0.18556 0.73855 0.70174
 C149 C 0.16369 0.71787 0.68314
 C150 C 0.19166 0.66797 0.70737
 C151 C 0.21270 0.68963 0.72599
 N152 N 0.20945 0.72424 0.72263
 H153 H 0.24673 0.75541 0.82507
 H154 H 0.28903 0.70659 0.73746
 H155 H 0.32660 0.67273 0.77587
 H156 H 0.28295 0.72261 0.86510
 H157 H 0.18335 0.76615 0.69983
 H158 H 0.14484 0.72967 0.66657
 H159 H 0.19442 0.64046 0.71030
 H160 H 0.23131 0.67871 0.74331
 C161 C 0.16068 0.82281 0.81016
 C162 C 0.30323 0.81897 0.67332
 C163 C 0.16666 0.68212 0.68581
 C164 C 0.30743 0.69459 0.82372
 C165 C -0.00107 0.00713 0.00685
 C166 C 0.00562 0.48827 0.49758
 C167 C 0.50376 -0.00879 0.50546
 C168 C 0.49985 0.50865 -0.00604
 C169 C 0.09257 -0.11408 -0.16728
 C170 C 0.09301 -0.11470 -0.13022
 C171 C 0.11680 -0.13620 -0.11328
 C172 C 0.13814 -0.15711 -0.13285
 C173 C 0.13724 -0.15611 -0.16944
 C174 C 0.11449 -0.13433 -0.18644
 C175 C 0.11958 -0.13636 -0.07692
 C176 C 0.10003 -0.11477 -0.05685
 C177 C 0.07605 -0.09274 -0.07238
 C178 C 0.07138 -0.09402 -0.10950
 C179 C 0.04501 -0.07490 -0.12464
 C180 C 0.02508 -0.05374 -0.10458
 C181 C 0.03102 -0.05010 -0.06884
 C182 C 0.05648 -0.06953 -0.05212
 C183 C 0.06148 -0.06448 -0.01587
 C184 C 0.04278 -0.04036 0.00241
 C185 C 0.01869 -0.01970 -0.01452
 C186 C 0.01172 -0.02670 -0.04992
 H187 H 0.07628 -0.09751 -0.18231
 H188 H 0.15620 -0.17350 -0.11961
 H189 H 0.11357 -0.13307 -0.21474
 H190 H 0.13758 -0.15290 -0.06381
 H191 H 0.10398 -0.11640 -0.02900
 H192 H 0.03869 -0.07621 -0.15201
 H193 H 0.00525 -0.03939 -0.11742
 H194 H 0.08022 -0.07804 -0.00092
 H195 H 0.04778 -0.03715 0.03006
 H196 H -0.00871 -0.01398 -0.06328
 C197 C 0.11716 0.38170 0.32527
 C198 C 0.11049 0.37571 0.36111
 C199 C 0.12900 0.34954 0.37856
 C200 C 0.15214 0.32954 0.36034
 C201 C 0.15837 0.33591 0.32495
 C202 C 0.14089 0.36221 0.30767
 C203 C 0.12474 0.34375 0.41423
 C204 C 0.10349 0.36429 0.43349
 C205 C 0.08484 0.39101 0.41752
 C206 C 0.08693 0.39545 0.38044
 C207 C 0.06520 0.41921 0.36394
 C208 C 0.04354 0.43938 0.38319
 C209 C 0.04340 0.43755 0.41964
 C210 C 0.06408 0.41341 0.43735
 C211 C 0.06375 0.41334 0.47428
 C212 C 0.04459 0.43690 0.49259
 C213 C 0.02492 0.46182 0.47520
 C214 C 0.02312 0.46030 0.43842
 H215 H 0.10521 0.40190 0.31035
 H216 H 0.16609 0.30957 0.37396
 H217 H 0.14549 0.36761 0.28031
 H218 H 0.13854 0.32353 0.42762
 H219 H 0.10175 0.35807 0.46089
 H220 H 0.06388 0.42235 0.33595
 H221 H 0.02743 0.45739 0.36938
 H222 H 0.07902 0.39635 0.48997
 H223 H 0.04593 0.43644 0.52089
 H224 H 0.00636 0.47689 0.42388
 C225 C 0.65266 -0.09591 0.35411
 C226 C 0.63402 -0.10797 0.38287
 C227 C 0.63450 -0.14375 0.38969
 C228 C 0.65333 -0.16607 0.36893
 C229 C 0.67164 -0.15367 0.34060
 C230 C 0.67103 -0.11840 0.33346
 C231 C 0.61601 -0.15724 0.41707
 C232 C 0.59624 -0.13621 0.43744
 C233 C 0.59450 -0.10044 0.43162
 C234 C 0.61450 -0.08596 0.40457
 C235 C 0.61432 -0.04998 0.40019
 C236 C 0.59425 -0.02898 0.42035
 C237 C 0.57331 -0.04285 0.44546
 C238 C 0.57327 -0.07866 0.45175
 C239 C 0.55159 -0.09113 0.47769
 C240 C 0.52992 -0.06927 0.49524
 C241 C 0.52841 -0.03390 0.48752
 C242 C 0.55193 -0.02098 0.46388
 H243 H 0.65312 -0.06934 0.34632
 H244 H 0.65387 -0.19325 0.37504
 H245 H 0.68439 -0.10811 0.31134
 H246 H 0.61644 -0.18455 0.42254
 H247 H 0.58267 -0.14897 0.45777
 H248 H 0.62965 -0.03704 0.38143
 H249 H 0.59472 -0.00154 0.41574
 H250 H 0.55030 -0.11780 0.48490
 H251 H 0.51457 -0.08076 0.51504
 H252 H 0.55241 0.00637 0.45860
 C253 C 0.60301 0.39120 -0.17840
 C254 C 0.60068 0.38980 -0.14144
 C255 C 0.62124 0.36577 -0.12335
 C256 C 0.64214 0.34344 -0.14176
 C257 C 0.64405 0.34523 -0.17825
 C258 C 0.62451 0.36939 -0.19635
 C259 C 0.62122 0.36438 -0.08693
 C260 C 0.60189 0.38694 -0.06779
 C261 C 0.58099 0.41142 -0.08441
 C262 C 0.57930 0.41185 -0.12183
 C263 C 0.55596 0.43391 -0.13834
 C264 C 0.53578 0.45564 -0.11912
 C265 C 0.53855 0.45702 -0.08278
 C266 C 0.56135 0.43519 -0.06488
 C267 C 0.56361 0.43823 -0.02812
 C268 C 0.54413 0.46187 -0.01020
 C269 C 0.52186 0.48410 -0.02785
 C270 C 0.51846 0.48019 -0.06433
 H271 H 0.58924 0.40944 -0.19418
 H272 H 0.65777 0.32523 -0.12758
 H273 H 0.62581 0.37132 -0.22458
 H274 H 0.63675 0.34592 -0.07298
 H275 H 0.60343 0.38399 -0.03981
 H276 H 0.55210 0.43445 -0.16624
 H277 H 0.51813 0.47199 -0.13299
 H278 H 0.58058 0.42318 -0.01233
 H279 H 0.54668 0.46307 0.01798
 H280 H 0.49987 0.49463 -0.07882
 C281 C -0.16345 0.14240 -0.08671
 C282 C -0.13175 0.12983 -0.09585
 C283 C -0.11871 0.14049 -0.12834
 C284 C -0.13765 0.16095 -0.15146
 C285 C -0.16992 0.17247 -0.14294
 C286 C -0.18190 0.16334 -0.10953
 C287 C -0.08670 0.13071 -0.13783
 C288 C -0.06717 0.11058 -0.11569
 C289 C -0.07922 0.09867 -0.08330
 C290 C -0.11247 0.10735 -0.07380
 C291 C -0.12562 0.09247 -0.04317
 C292 C -0.10690 0.07002 -0.02248
 C293 C -0.07408 0.06228 -0.03080
 C294 C -0.05944 0.07739 -0.06063
 C295 C -0.02531 0.07121 -0.06608
 C296 C -0.00728 0.04913 -0.04419
 C297 C -0.02254 0.03115 -0.01672
 C298 C -0.05580 0.03956 -0.00927
 H299 H -0.17471 0.13674 -0.06189
 H300 H -0.12599 0.16920 -0.17544
 H301 H -0.20655 0.17038 -0.10116
 H302 H -0.07655 0.13872 -0.16273
 H303 H -0.04303 0.10365 -0.12538
 H304 H -0.15084 0.09668 -0.03507
 H305 H -0.11827 0.05867 0.00039
 H306 H -0.01155 0.08376 -0.08646
 H307 H 0.01894 0.04555 -0.04909
 H308 H -0.06757 0.02919 0.01378
 C309 C -0.15605 0.62229 0.40123
 C310 C -0.12165 0.61636 0.39662
 C311 C -0.10607 0.63334 0.36833
 C312 C -0.12445 0.65502 0.34571
 C313 C -0.15854 0.66033 0.35062
 C314 C -0.17399 0.64380 0.37862
 C315 C -0.07228 0.62842 0.36252
 C316 C -0.05346 0.60670 0.38390
 C317 C -0.06772 0.58895 0.41229
 C318 C -0.10238 0.59394 0.41880
 C319 C -0.11672 0.57608 0.44706
 C320 C -0.09830 0.55338 0.46754
 C321 C -0.06477 0.54765 0.46109
 C322 C -0.04869 0.56583 0.43403
 C323 C -0.01417 0.56018 0.43023
 C324 C 0.00283 0.53598 0.45093
 C325 C -0.01384 0.51549 0.47549
 C326 C -0.04741 0.52356 0.48174
 H327 H -0.17012 0.61057 0.42181
 H328 H -0.11212 0.66799 0.32434
 H329 H -0.20038 0.64697 0.38275
 H330 H -0.06023 0.64130 0.34092
 H331 H -0.02773 0.60399 0.37709
 H332 H -0.14240 0.57866 0.45401
 H333 H -0.11062 0.53986 0.48856
 H334 H 0.00056 0.57409 0.41163
 H335 H 0.02924 0.53258 0.44715
 H336 H -0.06051 0.51145 0.50299
 C337 C 0.34690 0.12974 0.40797
 C338 C 0.37651 0.11290 0.39809
 C339 C 0.38735 0.11735 0.36322
 C340 C 0.37063 0.14003 0.34037
 C341 C 0.34135 0.15698 0.35049
 C342 C 0.32950 0.15092 0.38445
 C343 C 0.41484 0.09909 0.35122
 C344 C 0.43147 0.07587 0.37289
 C345 C 0.42219 0.07129 0.40810
 C346 C 0.39546 0.09148 0.42141
 C347 C 0.38950 0.09065 0.45775
 C348 C 0.40919 0.07089 0.48028
 C349 C 0.43436 0.04989 0.46731
 C350 C 0.44000 0.04849 0.43091
 C351 C 0.46297 0.02393 0.41875
 C352 C 0.48201 0.00416 0.44202
 C353 C 0.48008 0.00913 0.47845
 C354 C 0.45442 0.03076 0.49058
 H355 H 0.33588 0.12600 0.43330
 H356 H 0.38083 0.14438 0.31465
 H357 H 0.30632 0.16204 0.39301
 H358 H 0.42334 0.10241 0.32459
 H359 H 0.45270 0.06303 0.36183
 H360 H 0.37083 0.10650 0.46980
 H361 H 0.40457 0.07199 0.50815
 H362 H 0.46607 0.01881 0.39127
 H363 H 0.49814 -0.01486 0.43072
 H364 H 0.45093 0.03363 0.51850
 C365 C 0.33283 0.63687 -0.10056
 C366 C 0.36673 0.62994 -0.10723
 C367 C 0.38110 0.64605 -0.13676
 C368 C 0.36180 0.66708 -0.15914
 C369 C 0.32814 0.67305 -0.15239
 C370 C 0.31403 0.65800 -0.12278
 C371 C 0.41463 0.64101 -0.14394
 C372 C 0.43442 0.62033 -0.12246
 C373 C 0.42130 0.60334 -0.09299
 C374 C 0.38673 0.60764 -0.08569
 C375 C 0.37315 0.58895 -0.05756
 C376 C 0.39247 0.56678 -0.03735
 C377 C 0.42620 0.56263 -0.04383
 C378 C 0.44138 0.58143 -0.07106
 C379 C 0.47613 0.57783 -0.07472
 C380 C 0.49436 0.55498 -0.05364
 C381 C 0.47879 0.53382 -0.02887
 C382 C 0.44474 0.53962 -0.02300
 H383 H 0.31998 0.62663 -0.07830
 H384 H 0.37307 0.67911 -0.18172
 H385 H 0.28805 0.66211 -0.11702
 H386 H 0.42575 0.65318 -0.16651
 H387 H 0.45988 0.61744 -0.13027
 H388 H 0.34730 0.59011 -0.05087
 H389 H 0.38075 0.55258 -0.01641
 H390 H 0.49011 0.59268 -0.09321
 H391 H 0.52095 0.55328 -0.05714
 H392 H 0.43231 0.52673 -0.00175
 C393 C -0.15273 -0.13956 0.09379
 C394 C -0.12457 -0.12174 0.10594
 C395 C -0.11593 -0.12558 0.14174
 C396 C -0.13451 -0.14665 0.16398
 C397 C -0.16258 -0.16425 0.15173
 C398 C -0.17128 -0.16016 0.11618
 C399 C -0.08895 -0.10804 0.15551
 C400 C -0.07022 -0.08658 0.13463
 C401 C -0.07748 -0.08198 0.09870
 C402 C -0.10493 -0.10010 0.08400
 C403 C -0.11173 -0.09603 0.04789
 C404 C -0.09277 -0.07474 0.02695
 C405 C -0.06636 -0.05649 0.04098
 C406 C -0.05822 -0.05983 0.07696
 C407 C -0.03083 -0.04108 0.08955
 C408 C -0.01295 -0.01956 0.06759
 C409 C -0.02185 -0.01499 0.03217
 C410 C -0.04794 -0.03497 0.01901
 H411 H -0.16131 -0.13820 0.06708
 H412 H -0.12769 -0.14777 0.19141
 H413 H -0.19184 -0.17388 0.10481
 H414 H -0.08229 -0.11076 0.18292
 H415 H -0.05007 -0.07398 0.14771
 H416 H -0.13155 -0.10912 0.03474
 H417 H -0.09900 -0.07244 -0.00061
 H418 H -0.02213 -0.04260 0.11619
 H419 H 0.00853 -0.00719 0.07868
 H420 H -0.05406 -0.03345 -0.00863
 C421 C -0.09889 0.36774 0.66764
 C422 C -0.10374 0.37663 0.63197
 C423 C -0.13238 0.36384 0.61492
 C424 C -0.15555 0.34420 0.63334
 C425 C -0.15063 0.33609 0.66880
 C426 C -0.12192 0.34784 0.68557
 C427 C -0.13795 0.37081 0.57957
 C428 C -0.11549 0.38982 0.56038
 C429 C -0.08659 0.40323 0.57600
 C430 C -0.08116 0.39750 0.61263
 C431 C -0.05378 0.41344 0.62879
 C432 C -0.03235 0.43403 0.60986
 C433 C -0.03676 0.43902 0.57397
 C434 C -0.06339 0.42296 0.55636
 C435 C -0.06528 0.42677 0.51962
 C436 C -0.04293 0.44727 0.50167
 C437 C -0.01816 0.46569 0.51935
 C438 C -0.01452 0.45996 0.55562
 H439 H -0.07730 0.37519 0.68236
 H440 H -0.17776 0.33560 0.62003
 H441 H -0.11692 0.34125 0.71267
 H442 H -0.15993 0.36133 0.56647
 H443 H -0.12208 0.39443 0.53339
 H444 H -0.04865 0.41129 0.65639
 H445 H -0.01199 0.44615 0.62355
 H446 H -0.08331 0.41370 0.50378
 H447 H -0.04531 0.44934 0.47348
 H448 H 0.00594 0.47108 0.56986
 C449 C 0.33959 -0.14031 0.59144
 C450 C 0.36818 -0.12380 0.60443
 C451 C 0.37412 -0.12513 0.64098
 C452 C 0.35347 -0.14428 0.66299
 C453 C 0.32540 -0.16102 0.64973
 C454 C 0.31854 -0.15824 0.61375
 C455 C 0.40065 -0.10731 0.65548
 C456 C 0.42099 -0.08738 0.63460
 C457 C 0.41638 -0.08559 0.59800
 C458 C 0.39069 -0.10558 0.58251
 C459 C 0.38904 -0.10753 0.54568
 C460 C 0.41135 -0.09005 0.52473
 C461 C 0.43523 -0.06883 0.53950
 C462 C 0.43737 -0.06539 0.57624
 C463 C 0.45990 -0.04121 0.58966
 C464 C 0.48061 -0.02261 0.56760
 C465 C 0.48067 -0.02812 0.53120
 C466 C 0.45697 -0.05095 0.51761
 H467 H 0.33220 -0.13887 0.56432
 H468 H 0.35964 -0.14624 0.69055
 H469 H 0.29648 -0.16953 0.60261
 H470 H 0.40547 -0.10836 0.68340
 H471 H 0.44109 -0.07465 0.64777
 H472 H 0.37151 -0.12355 0.53226
 H473 H 0.40958 -0.09285 0.49659
 H474 H 0.46121 -0.03513 0.61710
 H475 H 0.49612 -0.00367 0.57973
 H476 H 0.45557 -0.05480 0.48958
 C477 C 0.40274 0.38217 0.16434
 C478 C 0.40011 0.38678 0.12761
 C479 C 0.37515 0.36825 0.10978
 C480 C 0.35400 0.34620 0.12811
 C481 C 0.35689 0.34212 0.16444
 C482 C 0.38149 0.36027 0.18227
 C483 C 0.37118 0.37188 0.07372
 C484 C 0.39125 0.39374 0.05472
 C485 C 0.41651 0.41286 0.07104
 C486 C 0.42111 0.40923 0.10809
 C487 C 0.44649 0.42822 0.12437
 C488 C 0.46628 0.45039 0.10541
 C489 C 0.46179 0.45464 0.06946
 C490 C 0.43717 0.43572 0.05161
 C491 C 0.43457 0.44031 0.01495
 C492 C 0.45466 0.46348 -0.00270
 C493 C 0.47781 0.48379 0.01521
 C494 C 0.48203 0.47777 0.05136
 H495 H 0.42070 0.39525 0.18021
 H496 H 0.33534 0.33194 0.11394
 H497 H 0.38399 0.35804 0.21042
 H498 H 0.35210 0.35781 0.05998
 H499 H 0.38606 0.39515 0.02710
 H500 H 0.45181 0.42667 0.15195
 H501 H 0.48526 0.46458 0.11918
 H502 H 0.41739 0.42636 -0.00109
 H503 H 0.45186 0.46596 -0.03080
 H504 H 0.50145 0.49053 0.06576
 C505 C 0.17239 0.11925 0.10193
 C506 C 0.13736 0.12229 0.10151
 C507 C 0.12261 0.14620 0.12458
 C508 C 0.14234 0.16671 0.14622
 C509 C 0.17688 0.16314 0.14636
 C510 C 0.19169 0.13925 0.12416
 C511 C 0.08822 0.14915 0.12645
 C512 C 0.06792 0.12801 0.10685
 C513 C 0.08129 0.10347 0.08381
 C514 C 0.11652 0.10179 0.07980
 C515 C 0.12968 0.07990 0.05406
 C516 C 0.10935 0.05905 0.03415
 C517 C 0.07522 0.05851 0.03959
 C518 C 0.06064 0.08064 0.06448
 C519 C 0.02601 0.07856 0.06932
 C520 C 0.00703 0.05517 0.05072
 C521 C 0.02153 0.03236 0.02681
 C522 C 0.05568 0.03565 0.02033
 H523 H 0.18566 0.10099 0.08621
 H524 H 0.13074 0.18477 0.16387
 H525 H 0.21840 0.13604 0.12399
 H526 H 0.07682 0.16759 0.14380
 H527 H 0.04167 0.13200 0.11001
 H528 H 0.15573 0.07870 0.04815
 H529 H 0.12062 0.04258 0.01477
 H530 H 0.01279 0.09401 0.08789
 H531 H -0.01938 0.05438 0.05553
 H532 H 0.06749 0.02061 0.00024
 C533 C 0.08802 0.64496 0.64753
 C534 C 0.10017 0.61749 0.62712
 C535 C 0.13502 0.61215 0.62629
 C536 C 0.15637 0.63276 0.64607
 C537 C 0.14385 0.65974 0.66607
 C538 C 0.10959 0.66577 0.66646
 C539 C 0.14850 0.58647 0.60550
 C540 C 0.12831 0.56649 0.58456
 C541 C 0.09353 0.57094 0.58411
 C542 C 0.07910 0.59564 0.60702
 C543 C 0.04418 0.59724 0.60943
 C544 C 0.02407 0.57600 0.58957
 C545 C 0.03779 0.55313 0.56572
 C546 C 0.07264 0.55090 0.56204
 C547 C 0.08518 0.52954 0.53552
 C548 C 0.06414 0.50986 0.51495
 C549 C 0.02962 0.50958 0.52051
 C550 C 0.01679 0.53262 0.54530
 H551 H 0.06207 0.65161 0.64875
 H552 H 0.18294 0.62838 0.64520
 H553 H 0.09942 0.68662 0.68168
 H554 H 0.17507 0.58201 0.60507
 H555 H 0.14071 0.54692 0.56968
 H556 H 0.03157 0.61407 0.62726
 H557 H -0.00259 0.57783 0.59262
 H558 H 0.11112 0.52847 0.52903
 H559 H 0.07546 0.49550 0.49409
 H560 H -0.00983 0.53451 0.54867
 C561 C 0.66057 0.08905 0.64205
 C562 C 0.63178 0.09927 0.62319
 C563 C 0.62320 0.13458 0.62303
 C564 C 0.64159 0.15803 0.64277
 C565 C 0.66979 0.14748 0.66187
 C566 C 0.67926 0.11279 0.66077
 C567 C 0.59621 0.14643 0.60326
 C568 C 0.57785 0.12413 0.58291
 C569 C 0.58515 0.08869 0.58241
 C570 C 0.61147 0.07581 0.60420
 C571 C 0.61589 0.03994 0.60708
 C572 C 0.59548 0.01748 0.58902
 C573 C 0.57079 0.02981 0.56634
 C574 C 0.56612 0.06554 0.56178
 C575 C 0.54308 0.07671 0.53610
 C576 C 0.52383 0.05346 0.51759
 C577 C 0.52578 0.01792 0.52455
 C578 C 0.55066 0.00656 0.54822
 H579 H 0.66985 0.06306 0.64206
 H580 H 0.63350 0.18456 0.64347
 H581 H 0.70151 0.10384 0.67409
 H582 H 0.58936 0.17337 0.60323
 H583 H 0.55711 0.13529 0.56884
 H584 H 0.63418 0.02834 0.62424
 H585 H 0.59928 -0.00986 0.59265
 H586 H 0.54015 0.10332 0.52882
 H587 H 0.50783 0.06411 0.49749
 H588 H 0.55399 -0.02071 0.55286
 C589 C 0.66639 0.61633 0.10780
 C590 C 0.63126 0.61733 0.10706
 C591 C 0.61504 0.63830 0.13192
 C592 C 0.63346 0.65815 0.15552
 C593 C 0.66819 0.65704 0.15557
 C594 C 0.68437 0.63581 0.13167
 C595 C 0.58053 0.63923 0.13329
 C596 C 0.56154 0.61940 0.11092
 C597 C 0.57635 0.59817 0.08555
 C598 C 0.61177 0.59791 0.08293
 C599 C 0.62650 0.57856 0.05605
 C600 C 0.60756 0.55908 0.03338
 C601 C 0.57321 0.55766 0.03669
 C602 C 0.55700 0.57724 0.06263
 C603 C 0.52207 0.57486 0.06448
 C604 C 0.50443 0.55325 0.04232
 C605 C 0.52064 0.53246 0.01773
 C606 C 0.55512 0.53650 0.01410
 H607 H 0.68084 0.60042 0.09069
 H608 H 0.62072 0.67411 0.17435
 H609 H 0.71121 0.63459 0.13110
 H610 H 0.56799 0.65525 0.15220
 H611 H 0.53511 0.62164 0.11403
 H612 H 0.65279 0.57820 0.05141
 H613 H 0.62007 0.54452 0.01327
 H614 H 0.50749 0.58894 0.08307
 H615 H 0.47774 0.55215 0.04490
 H616 H 0.56835 0.52334 -0.00638
   
