data_POSCAR
  _audit_creation_date              2014-09-24
  _audit_creation_method            'ToBaCCo'
  _symmetry_space_group_name_H-M    'P1'
  _symmetry_Int_Tables_number       1
  _symmetry_cell_setting            triclinic
  loop_
  _symmetry_equiv_pos_as_xyz
 x,y,z
_cell_length_a 17.4589
_cell_length_b 17.2378
_cell_length_c 17.4572
_cell_angle_alpha 79.596600
_cell_angle_beta 95.361500
_cell_angle_gamma 72.343700
loop_
  _atom_site_label
  _atom_site_type_symbol
  _atom_site_fract_x
  _atom_site_fract_y
  _atom_site_fract_z
C1 C 0.57521 0.48408 0.01941
 C2 C 0.52572 0.56951 0.00538
 C3 C 0.44055 0.58887 -0.01232
 C4 C 0.40144 0.52773 -0.00898
 C5 C 0.45198 0.44255 0.00664
 C6 C 0.53678 0.42315 0.02062
 H7 H 0.57363 0.35816 0.02997
 H8 H 0.40361 0.65361 -0.02694
 C9 C -0.00202 0.41200 0.51507
 C10 C -0.00681 0.46826 0.56542
 C11 C -0.00161 0.54723 0.53551
 C12 C 0.00424 0.57423 0.45570
 C13 C -0.00153 0.52091 0.40354
 C14 C -0.00147 0.43976 0.43449
 H15 H -0.00248 0.39813 0.39503
 H16 H -0.00128 0.58740 0.57616
 C17 C 0.48625 -0.01555 0.42922
 C18 C 0.42682 -0.00527 0.47953
 C19 C 0.44712 0.00434 0.55614
 C20 C 0.52405 0.00894 0.58323
 C21 C 0.58458 -0.00239 0.53246
 C22 C 0.56309 -0.01162 0.45553
 H23 H 0.60879 -0.02282 0.41724
 H24 H 0.39957 0.01540 0.59246
 O25 O 0.44601 0.03043 -0.12026
 O26 O 0.42116 -0.01673 0.08922
 O27 O 0.39590 0.12073 -0.01392
 O28 O 0.46448 -0.10345 -0.01465
 O29 O 0.59063 -0.11274 0.02867
 O30 O 0.52372 0.11517 0.01461
 O31 O 0.54522 -0.01434 0.12467
 O32 O 0.57386 0.01995 -0.08305
 Cu33 Cu 0.41892 0.00929 -0.01938
 Cu34 Cu 0.57131 0.00109 0.02411
 C35 C 0.51506 0.03145 -0.13698
 C36 C 0.47869 -0.02213 0.14232
 C37 C 0.44804 0.15578 0.00139
 C38 C 0.53860 -0.14682 0.00961
 O39 O -0.14435 0.54000 0.96211
 O40 O 0.04145 0.59617 0.94718
 O41 O -0.04905 0.54235 0.85575
 O42 O -0.05568 0.59364 1.05065
 O43 O 0.02467 0.46539 1.10615
 O44 O 0.01775 0.41004 0.91199
 O45 O 0.11651 0.46424 0.99444
 O46 O -0.06903 0.41159 1.02340
 Cu47 Cu -0.05902 0.58125 0.94757
 Cu48 Cu 0.03101 0.42471 1.01430
 C49 C -0.13813 0.46682 0.99785
 C50 C 0.11047 0.53980 0.96807
 C51 C -0.01700 0.46713 0.85106
 C52 C -0.01737 0.53805 1.11167
 O53 O -0.00965 -0.07537 0.40273
 O54 O -0.03695 0.12148 0.46723
 O55 O 0.07508 0.02446 0.41144
 O56 O -0.12261 0.01871 0.46666
 O57 O -0.06128 -0.04663 0.58787
 O58 O 0.13692 -0.05003 0.53011
 O59 O 0.02867 0.05110 0.58596
 O60 O 0.04496 -0.14509 0.52467
 Cu61 Cu -0.03051 0.02923 0.42498
 Cu62 Cu 0.04309 -0.05505 0.56925
 C63 C 0.02103 -0.14361 0.45334
 C64 C -0.00455 0.11962 0.53600
 C65 C 0.13933 -0.01037 0.46211
 C66 C -0.12538 -0.01518 0.53694
 N67 N -0.21016 0.37377 1.05805
 N68 N -0.29026 0.37970 1.06564
 C69 C -0.33902 0.45628 1.02557
 C70 C -0.29103 0.49918 0.98998
 C71 C -0.21145 0.44611 1.01278
 H72 H -0.31088 0.56102 0.95218
 H73 H -0.15898 0.32316 1.08617
 H74 H -0.30675 0.33399 1.10158
 N75 N 0.18761 0.63623 0.98081
 N76 N 0.26904 0.63141 0.99007
 C77 C 0.31460 0.55560 0.98038
 C78 C 0.26153 0.51218 0.96328
 C79 C 0.18405 0.56361 0.96631
 H80 H 0.27500 0.45169 0.94898
 H81 H 0.13992 0.68472 0.99157
 H82 H 0.28884 0.67649 1.01031
 N83 N 0.05073 -0.24370 0.36486
 N84 N 0.04686 -0.32365 0.36620
 C85 C 0.01661 -0.34780 0.43176
 C86 C 0.00397 -0.28492 0.47405
 C87 C 0.02556 -0.22209 0.43064
 H88 H -0.02050 -0.28231 0.52854
 H89 H 0.07237 -0.20931 0.32166
 H90 H 0.07142 -0.35939 0.32670
 N91 N 0.04760 0.19935 0.62070
 N92 N 0.05104 0.27569 0.61389
 C93 C 0.00534 0.32363 0.54524
 C94 C -0.02776 0.27521 0.50623
 C95 C 0.00044 0.19695 0.55619
 H96 H -0.06398 0.29324 0.44816
 H97 H 0.08071 0.14899 0.66677
 H98 H 0.08699 0.29325 0.65421
 N99 N 0.58263 0.07995 -0.24604
 N100 N 0.58555 0.07338 -0.32421
 C101 C 0.53498 0.03157 -0.34329
 C102 C 0.49576 0.01514 -0.27903
 C103 C 0.52847 0.04474 -0.21950
 H104 H 0.45358 -0.01966 -0.27377
 H105 H 0.61799 0.10626 -0.21429
 H106 H 0.61862 0.10055 -0.36097
 N107 N 0.42204 -0.08075 0.25602
 N108 N 0.42518 -0.08051 0.33188
 C109 C 0.47153 -0.03440 0.35037
 C110 C 0.50153 -0.00675 0.28368
 C111 C 0.46798 -0.03677 0.22529
 H112 H 0.53980 0.03232 0.27766
 H113 H 0.38975 -0.11140 0.22631
 H114 H 0.39645 -0.11221 0.36998
 N115 N 0.62771 -0.29360 0.06709
 N116 N 0.62295 -0.37307 0.06701
 C117 C 0.55626 -0.36463 0.01578
 C118 C 0.51707 -0.27956 -0.01591
 C119 C 0.56306 -0.23785 0.01748
 H120 H 0.46094 -0.25026 -0.05713
 H121 H 0.67022 -0.28070 0.10459
 H122 H 0.65941 -0.42697 0.10758
 N123 N 0.37138 0.27417 0.05681
 N124 N 0.37364 0.34958 0.06014
 C125 C 0.42279 0.36969 0.01047
 C126 C 0.45549 0.30246 -0.02343
 C127 C 0.42105 0.24368 0.00696
 H128 H 0.50220 0.29513 -0.06074
 H129 H 0.34099 0.24199 0.09242
 H130 H 0.34508 0.38470 0.09856
 N131 N -0.21129 -0.05465 0.63287
 N132 N -0.29228 -0.05110 0.63167
 C133 C -0.33254 -0.01364 0.55788
 C134 C -0.27753 0.00552 0.51070
 C135 C -0.20316 -0.02007 0.55987
 H136 H -0.28988 0.03500 0.44858
 H137 H -0.16556 -0.08165 0.68194
 H138 H -0.31436 -0.07931 0.67879
 N139 N 0.22389 0.04624 0.37530
 N140 N 0.29884 0.04927 0.38049
 C141 C 0.34105 0.00369 0.45139
 C142 C 0.29017 -0.02891 0.49360
 C143 C 0.21659 -0.00079 0.44294
 H144 H 0.30412 -0.06600 0.55329
 H145 H 0.17804 0.07817 0.32711
 H146 H 0.31969 0.08403 0.33686
 N147 N -0.07505 0.62955 1.20139
 N148 N -0.07171 0.62476 1.27804
 C149 C -0.01806 0.55033 1.31660
 C150 C 0.01307 0.50510 1.26187
 C151 C -0.02435 0.55791 1.18958
 H152 H 0.05553 0.44223 1.27304
 H153 H -0.11328 0.68020 1.15819
 H154 H -0.10719 0.67104 1.30321
 N155 N -0.06512 0.39915 0.75195
 N156 N -0.06465 0.40119 0.67598
 C157 C -0.01933 0.44811 0.64882
 C158 C 0.00819 0.47901 0.71011
 C159 C -0.02166 0.44601 0.77401
 H160 H 0.04396 0.52056 0.70864
 H161 H -0.09778 0.36936 0.78693
 H162 H -0.09769 0.37355 0.64325
   
