data_POSCAR
  _audit_creation_date              2014-09-24
  _audit_creation_method            'ToBaCCo'
  _symmetry_space_group_name_H-M    'P1'
  _symmetry_Int_Tables_number       1
  _symmetry_cell_setting            triclinic
  loop_
  _symmetry_equiv_pos_as_xyz
 x,y,z
_cell_length_a 37.3995
_cell_length_b 37.3980
_cell_length_c 37.3980
_cell_angle_alpha 89.761100
_cell_angle_beta 90.000100
_cell_angle_gamma 90.000100
loop_
  _atom_site_label
  _atom_site_type_symbol
  _atom_site_fract_x
  _atom_site_fract_y
  _atom_site_fract_z
N1 N 0.22349 0.22235 0.22235
 N2 N -0.22273 0.77611 0.22389
 N3 N -0.22273 0.22388 -0.22388
 N4 N 0.22350 0.77765 -0.22234
 N5 N 0.22042 1.22122 0.77878
 N6 N 0.77995 0.78074 0.78075
 N7 N 0.22043 0.77877 1.22123
 N8 N 0.77995 1.21925 1.21926
 N9 N 0.46324 0.93670 0.96159
 N10 N 0.43767 0.91312 0.95566
 N11 N 0.53845 0.96160 0.93672
 N12 N 0.56423 0.95584 0.91333
 N13 N 0.53845 0.93671 0.96161
 N14 N 0.56423 0.91332 0.95585
 N15 N 0.46324 0.96159 0.93671
 N16 N 0.43767 0.95565 0.91313
 C17 C 0.42188 0.92555 0.92556
 C18 C 0.58013 0.92583 0.92584
 N19 N 0.53840 1.06346 0.96133
 N20 N 0.56391 1.08711 0.95524
 N21 N 0.46320 1.03866 0.93656
 N22 N 0.43744 1.04453 0.91312
 N23 N 0.46320 1.06344 0.96134
 N24 N 0.43744 1.08688 0.95547
 N25 N 0.53840 1.03868 0.93655
 N26 N 0.56391 1.04477 0.91289
 Mn27 Mn 0.50082 1.00013 0.93625
 C28 C 0.57967 1.07484 0.92517
 C29 C 0.42155 1.07450 0.92550
 N30 N 0.53840 0.93654 1.03868
 N31 N 0.56391 0.91289 1.04477
 N32 N 0.46320 0.96134 1.06345
 N33 N 0.43743 0.95546 1.08689
 N34 N 0.46320 0.93655 1.03866
 N35 N 0.43744 0.91311 1.04454
 N36 N 0.53840 0.96132 1.06347
 N37 N 0.56391 0.95524 1.08712
 Mn38 Mn 0.50082 0.93624 1.00014
 C39 C 0.57967 0.92516 1.07485
 C40 C 0.42155 0.92549 1.07451
 N41 N 0.46324 1.06330 1.03841
 N42 N 0.43766 1.08687 1.04435
 N43 N 0.53844 1.03840 1.06329
 N44 N 0.56422 1.04416 1.08669
 N45 N 0.53844 1.06328 1.03840
 N46 N 0.56422 1.08668 1.04416
 N47 N 0.46324 1.03841 1.06330
 N48 N 0.43766 1.04434 1.08688
 Mn49 Mn 0.50082 1.06376 0.99987
 Mn50 Mn 0.50082 0.99987 1.06376
 Cl51 Cl 0.50082 1.00000 1.00001
 C52 C 0.42187 1.07444 1.07445
 C53 C 0.58012 1.07417 1.07418
 N54 N -0.06407 0.46201 0.03835
 N55 N -0.08749 0.43619 0.04405
 N56 N -0.03925 0.53699 0.06357
 N57 N -0.04520 0.56237 0.08726
 N58 N -0.06409 0.53722 0.03874
 N59 N -0.08765 0.56277 0.04484
 N60 N -0.03923 0.46179 0.06318
 N61 N -0.04504 0.43581 0.08648
 C62 C -0.07504 0.42002 0.07396
 C63 C -0.07526 0.57830 0.07498
 N64 N 0.06265 0.53726 0.03871
 N65 N 0.08606 0.56298 0.04465
 N66 N 0.03784 0.46183 0.06320
 N67 N 0.04392 0.43613 0.08673
 N68 N 0.06267 0.46207 0.03835
 N69 N 0.08634 0.43654 0.04428
 N70 N 0.03782 0.53704 0.06356
 N71 N 0.04364 0.56260 0.08710
 Mn72 Mn -0.00071 0.49941 0.06376
 C73 C 0.07363 0.57861 0.07472
 C74 C 0.07403 0.42050 0.07431
 N75 N -0.06407 0.53798 -0.03835
 N76 N -0.08749 0.56380 -0.04406
 N77 N -0.03924 0.46300 -0.06357
 N78 N -0.04518 0.43762 -0.08726
 N79 N -0.06408 0.46276 -0.03874
 N80 N -0.08764 0.43721 -0.04484
 N81 N -0.03923 0.53820 -0.06318
 N82 N -0.04504 0.56418 -0.08648
 Mn83 Mn -0.06447 0.49999 -0.00000
 C84 C -0.07503 0.57996 -0.07397
 C85 C -0.07524 0.42169 -0.07498
 N86 N 0.06265 0.46273 -0.03870
 N87 N 0.08607 0.43701 -0.04463
 N88 N 0.03784 0.53816 -0.06319
 N89 N 0.04392 0.56387 -0.08672
 N90 N 0.06267 0.53793 -0.03834
 N91 N 0.08634 0.56346 -0.04426
 N92 N 0.03783 0.46296 -0.06355
 N93 N 0.04366 0.43739 -0.08709
 Mn94 Mn 0.06304 0.50000 0.00001
 Mn95 Mn -0.00070 0.50058 -0.06376
 Cl96 Cl -0.00071 0.50000 0.00000
 C97 C 0.07364 0.42139 -0.07470
 C98 C 0.07403 0.57949 -0.07429
 N99 N 0.93591 0.03873 0.53723
 N100 N 0.91236 0.04483 0.56278
 N101 N 0.96077 0.06317 0.46180
 N102 N 0.95496 0.08647 0.43582
 N103 N 0.93593 0.03834 0.46202
 N104 N 0.91251 0.04405 0.43619
 N105 N 0.96076 0.06356 0.53700
 N106 N 0.95481 0.08725 0.56238
 C107 C 0.92475 0.07497 0.57831
 C108 C 0.92497 0.07396 0.42003
 N109 N 1.06267 0.03834 0.46208
 N110 N 1.08634 0.04427 0.43655
 N111 N 1.03782 0.06355 0.53705
 N112 N 1.04364 0.08709 0.56261
 N113 N 1.06265 0.03870 0.53727
 N114 N 1.08607 0.04463 0.56299
 N115 N 1.03784 0.06319 0.46184
 N116 N 1.04392 0.08672 0.43614
 Mn117 Mn 0.99930 0.06375 0.49942
 C118 C 1.07403 0.07430 0.42051
 C119 C 1.07363 0.07470 0.57862
 N120 N 0.93592 -0.03875 0.46277
 N121 N 0.91237 -0.04485 0.43722
 N122 N 0.96077 -0.06319 0.53821
 N123 N 0.95496 -0.08648 0.56419
 N124 N 0.93593 -0.03836 0.53798
 N125 N 0.91251 -0.04406 0.56380
 N126 N 0.96077 -0.06357 0.46301
 N127 N 0.95482 -0.08727 0.43762
 Mn128 Mn 0.93553 -0.00001 0.50000
 C129 C 0.92476 -0.07499 0.42170
 C130 C 0.92497 -0.07398 0.57997
 N131 N 1.06267 -0.03835 0.53794
 N132 N 1.08634 -0.04427 0.56347
 N133 N 1.03783 -0.06356 0.46296
 N134 N 1.04366 -0.08710 0.43740
 N135 N 1.06266 -0.03871 0.46274
 N136 N 1.08608 -0.04464 0.43702
 N137 N 1.03784 -0.06320 0.53817
 N138 N 1.04392 -0.08673 0.56387
 Mn139 Mn 1.06304 -0.00000 0.50001
 Mn140 Mn 0.99930 -0.06377 0.50059
 Cl141 Cl 0.99929 -0.00001 0.50000
 C142 C 1.07403 -0.07431 0.57950
 C143 C 1.07364 -0.07471 0.42140
 C144 C 1.16508 0.16416 0.29185
 N145 N 1.17798 0.13296 0.30523
 N146 N 1.15944 0.11465 0.32960
 C147 C 1.12743 0.12698 0.34132
 N148 N 1.11450 0.15814 0.32790
 N149 N 1.13305 0.17646 0.30352
 C150 C 1.18565 0.18454 0.26661
 C151 C 1.20317 0.20199 0.24585
 C152 C 1.10816 0.10801 0.36860
 C153 C 1.09236 0.09243 0.39203
 C154 C 0.83525 -0.16570 0.29327
 N155 N 0.86634 -0.17870 0.30671
 N156 N 0.88457 -0.16024 0.33107
 C157 C 0.87225 -0.12823 0.34271
 N158 N 0.84119 -0.11520 0.32922
 N159 N 0.82296 -0.13366 0.30486
 C160 C 0.81495 -0.18618 0.26805
 C161 C 0.79756 -0.20363 0.24732
 C162 C 0.89114 -0.10903 0.36995
 C163 C 0.90667 -0.09328 0.39331
 C164 C 0.83523 0.16567 0.70673
 N165 N 0.86641 0.17859 0.69342
 N166 N 0.88464 0.16013 0.66906
 C167 C 0.87223 0.12820 0.65729
 N168 N 0.84108 0.11525 0.67065
 N169 N 0.82285 0.13371 0.69501
 C170 C 0.81494 0.18615 0.73195
 C171 C 0.79755 0.20361 0.75268
 C172 C 0.89112 0.10901 0.63005
 C173 C 0.90665 0.09326 0.60669
 C174 C 1.16508 -0.16417 0.70816
 N175 N 1.13307 -0.17649 0.69645
 N176 N 1.11452 -0.15818 0.67208
 C177 C 1.12742 -0.12699 0.65869
 N178 N 1.15941 -0.11463 0.67045
 N179 N 1.17796 -0.13295 0.69482
 C180 C 1.18565 -0.18455 0.73340
 C181 C 1.20317 -0.20200 0.75417
 C182 C 1.10816 -0.10802 0.63141
 C183 C 1.09235 -0.09244 0.60799
 C184 C 0.29302 1.16433 1.16433
 N185 N 0.30555 1.13270 1.17703
 N186 N 0.32997 1.11439 1.15872
 C187 C 0.34260 1.12716 1.12716
 N188 N 0.33003 1.15876 1.11443
 N189 N 0.30561 1.17707 1.13274
 C190 C 0.26775 1.18469 1.18469
 C191 C 0.24697 1.20209 1.20210
 C192 C 0.36993 1.10817 1.10817
 C193 C 0.39338 1.09257 1.09257
 C194 C 0.29303 0.83566 0.83567
 N195 N 0.30560 0.86727 0.82294
 N196 N 0.33002 0.88558 0.84125
 C197 C 0.34261 0.87283 0.87284
 N198 N 0.33001 0.84126 0.88559
 N199 N 0.30558 0.82295 0.86728
 C200 C 0.26776 0.81531 0.81531
 C201 C 0.24698 0.79790 0.79791
 C202 C 0.36994 0.89183 0.89183
 C203 C 0.39339 0.90742 0.90743
 C204 C 0.70792 0.83449 1.16553
 N205 N 0.69534 0.86603 1.17814
 N206 N 0.67103 0.88449 1.15967
 C207 C 0.65858 0.87198 1.12805
 N208 N 0.67120 0.84046 1.11541
 N209 N 0.69551 0.82200 1.13388
 C210 C 0.73310 0.81398 1.18603
 C211 C 0.75382 0.79647 1.20353
 C212 C 0.63139 0.89114 1.10888
 C213 C 0.60805 0.90688 1.09314
 C214 C 0.70792 1.16552 0.83449
 N215 N 0.69540 1.17808 0.86607
 N216 N 0.67110 1.15962 0.88453
 C217 C 0.65859 1.12804 0.87198
 N218 N 0.67115 1.11544 0.84043
 N219 N 0.69545 1.13390 0.82196
 C220 C 0.73310 1.18602 0.81399
 C221 C 0.75382 1.20352 0.79648
 C222 C 0.63139 1.10887 0.89114
 C223 C 0.60805 1.09313 0.90688
 C224 C 0.16508 0.29184 0.16417
 N225 N 0.13308 0.30358 0.17651
 N226 N 0.11453 0.32795 0.15820
 C227 C 0.12742 0.34131 0.12699
 N228 N 0.15939 0.32953 0.11462
 N229 N 0.17794 0.30515 0.13293
 C230 C 0.18564 0.26660 0.18455
 C231 C 0.20316 0.24584 0.20200
 C232 C 0.10815 0.36859 0.10802
 C233 C 0.09235 0.39202 0.09244
 C234 C -0.16476 0.29326 -0.16569
 N235 N -0.13362 0.30665 -0.17866
 N236 N -0.11540 0.33101 -0.16020
 C237 C -0.12775 0.34270 -0.12822
 N238 N -0.15886 0.32927 -0.11523
 N239 N -0.17708 0.30491 -0.13368
 C240 C -0.18505 0.26805 -0.18617
 C241 C -0.20244 0.24731 -0.20362
 C242 C -0.10886 0.36994 -0.10903
 C243 C -0.09333 0.39331 -0.09327
 C244 C 0.16508 0.70816 -0.16415
 N245 N 0.17798 0.69479 -0.13295
 N246 N 0.15943 0.67042 -0.11463
 C247 C 0.12742 0.65869 -0.12697
 N248 N 0.11451 0.67209 -0.15815
 N249 N 0.13305 0.69647 -0.17646
 C250 C 0.18565 0.73339 -0.18453
 C251 C 0.20317 0.75416 -0.20199
 C252 C 0.10816 0.63140 -0.10800
 C253 C 0.09235 0.60798 -0.09242
 C254 C -0.16478 0.70672 0.16568
 N255 N -0.17723 0.69490 0.13378
 N256 N -0.15900 0.67054 0.11532
 C257 C -0.12778 0.65728 0.12820
 N258 N -0.11531 0.66915 0.16007
 N259 N -0.13353 0.69351 0.17853
 C260 C -0.18506 0.73194 0.18616
 C261 C -0.20245 0.75267 0.20362
 C262 C -0.10889 0.63005 0.10901
 C263 C -0.09335 0.60668 0.09326
 C264 C 1.16256 0.16357 0.70881
 N265 N 1.17507 0.13189 0.69649
 N266 N 1.15693 0.11382 0.67177
 C267 C 1.12573 0.12689 0.65862
 N268 N 1.11319 0.15854 0.67099
 N269 N 1.13133 0.17661 0.69571
 C270 C 1.18282 0.18373 0.73432
 C271 C 1.20018 0.20103 0.75523
 C272 C 1.10694 0.10814 0.63100
 C273 C 1.09153 0.09271 0.60733
 C274 C 0.83656 -0.16245 0.71154
 N275 N 0.86817 -0.17503 0.69904
 N276 N 0.88617 -0.15696 0.67407
 C277 C 0.87310 -0.12576 0.66084
 N278 N 0.84152 -0.11315 0.67339
 N279 N 0.82352 -0.13123 0.69836
 C280 C 0.81642 -0.18269 0.73727
 C281 C 0.79910 -0.20007 0.75833
 C282 C 0.89175 -0.10707 0.63292
 C283 C 0.90709 -0.09175 0.60899
 C284 C 1.16257 -0.16357 0.29121
 N285 N 1.17512 -0.13193 0.30358
 N286 N 1.15698 -0.11386 0.32829
 C287 C 1.12575 -0.12689 0.34139
 N288 N 1.11317 -0.15851 0.32897
 N289 N 1.13131 -0.17658 0.30426
 C290 C 1.18283 -0.18374 0.26569
 C291 C 1.20019 -0.20103 0.24478
 C292 C 1.10696 -0.10814 0.36902
 C293 C 1.09154 -0.09271 0.39269
 C294 C 0.83656 0.16244 0.28846
 N295 N 0.86817 0.17503 0.30098
 N296 N 0.88617 0.15695 0.32594
 C297 C 0.87311 0.12575 0.33916
 N298 N 0.84153 0.11313 0.32660
 N299 N 0.82353 0.13121 0.30163
 C300 C 0.81642 0.18268 0.26273
 C301 C 0.79910 0.20006 0.24167
 C302 C 0.89176 0.10705 0.36709
 C303 C 0.90709 0.09174 0.39101
 C304 C 0.16257 0.29120 -0.16356
 N305 N 0.17513 0.30359 -0.13193
 N306 N 0.15700 0.32831 -0.11386
 C307 C 0.12575 0.34138 -0.12688
 N308 N 0.11316 0.32895 -0.15849
 N309 N 0.13130 0.30423 -0.17656
 C310 C 0.18283 0.26568 -0.18373
 C311 C 0.20019 0.24477 -0.20102
 C312 C 0.10696 0.36901 -0.10813
 C313 C 0.09154 0.39268 -0.09270
 C314 C -0.16344 0.28845 0.16245
 N315 N -0.17647 0.30162 0.13121
 N316 N -0.15847 0.32659 0.11314
 C317 C -0.12690 0.33915 0.12576
 N318 N -0.11383 0.32593 0.15696
 N319 N -0.13183 0.30097 0.17503
 C320 C -0.18358 0.26272 0.18268
 C321 C -0.20090 0.24166 0.20007
 C322 C -0.10825 0.36708 0.10706
 C323 C -0.09291 0.39100 0.09174
 C324 C -0.16344 0.71154 -0.16244
 N325 N -0.17646 0.69838 -0.13120
 N326 N -0.15846 0.67342 -0.11313
 C327 C -0.12689 0.66084 -0.12576
 N328 N -0.11384 0.67404 -0.15697
 N329 N -0.13185 0.69900 -0.17504
 C330 C -0.18358 0.73727 -0.18268
 C331 C -0.20090 0.75833 -0.20006
 C332 C -0.10824 0.63291 -0.10706
 C333 C -0.09291 0.60898 -0.09174
 C334 C 0.16256 0.70880 0.16358
 N335 N 0.17508 0.69646 0.13191
 N336 N 0.15694 0.67174 0.11384
 C337 C 0.12573 0.65861 0.12690
 N338 N 0.11318 0.67099 0.15854
 N339 N 0.13133 0.69571 0.17661
 C340 C 0.18282 0.73431 0.18374
 C341 C 0.20018 0.75522 0.20104
 C342 C 0.10694 0.63099 0.10815
 C343 C 0.09152 0.60731 0.09272
 C344 C 0.29072 1.16339 0.83660
 N345 N 0.30346 1.17609 0.86804
 N346 N 0.32830 1.15798 0.88615
 C347 C 0.34116 1.12663 0.87337
 N348 N 0.32837 1.11389 0.84196
 N349 N 0.30353 1.13200 0.82385
 C350 C 0.26508 1.18362 0.81637
 C351 C 0.24408 1.20097 0.79903
 C352 C 0.36892 1.10785 0.89214
 C353 C 0.39270 1.09244 0.90756
 C354 C 0.29072 0.83659 1.16340
 N355 N 0.30351 0.82386 1.13199
 N356 N 0.32834 0.84197 1.11388
 C357 C 0.34115 0.87336 1.12663
 N358 N 0.32833 0.88612 1.15801
 N359 N 0.30349 0.86801 1.17612
 C360 C 0.26508 0.81636 1.18363
 C361 C 0.24408 0.79902 1.20098
 C362 C 0.36892 0.89213 1.10786
 C363 C 0.39270 0.90755 1.09244
 C364 C 0.71106 1.16261 1.16262
 N365 N 0.69828 1.17548 1.13116
 N366 N 0.67344 1.15745 1.11313
 C367 C 0.66061 1.12601 1.12602
 N368 N 0.67344 1.11312 1.15745
 N369 N 0.69829 1.13115 1.17548
 C370 C 0.73667 1.18278 1.18279
 C371 C 0.75763 1.20011 1.20012
 C372 C 0.63282 1.10734 1.10735
 C373 C 0.60900 1.09201 1.09201
 C374 C 0.71107 0.83738 0.83740
 N375 N 0.69831 0.86886 0.82455
 N376 N 0.67347 0.88689 0.84258
 C377 C 0.66062 0.87399 0.87400
 N378 N 0.67343 0.84254 0.88688
 N379 N 0.69827 0.82451 0.86885
 C380 C 0.73667 0.81722 0.81722
 C381 C 0.75763 0.79989 0.79989
 C382 C 0.63283 0.89266 0.89267
 C383 C 0.60902 0.90800 0.90800
   
