data_POSCAR
  _audit_creation_date              2014-09-24
  _audit_creation_method            'ToBaCCo'
  _symmetry_space_group_name_H-M    'P1'
  _symmetry_Int_Tables_number       1
  _symmetry_cell_setting            triclinic
  loop_
  _symmetry_equiv_pos_as_xyz
 x,y,z
_cell_length_a 43.1156
_cell_length_b 43.7150
_cell_length_c 44.9309
_cell_angle_alpha 89.973500
_cell_angle_beta 90.004300
_cell_angle_gamma 89.802300
loop_
  _atom_site_label
  _atom_site_type_symbol
  _atom_site_fract_x
  _atom_site_fract_y
  _atom_site_fract_z
C1 C 0.18495 0.14537 0.18676
 C2 C 0.17349 0.13322 0.21348
 C3 C 0.14789 0.14679 0.22755
 C4 C 0.13351 0.17254 0.21497
 C5 C 0.14468 0.18497 0.18826
 C6 C 0.17051 0.17135 0.17406
 C7 C 0.21073 0.13215 0.17262
 C8 C 0.22215 0.14464 0.14606
 C9 C 0.20781 0.17035 0.13340
 C10 C 0.18203 0.18384 0.14726
 C11 C 0.16772 0.20977 0.13493
 C12 C 0.14217 0.22326 0.14907
 C13 C 0.13063 0.21090 0.17560
 H14 H 0.18454 0.11332 0.22337
 H15 H 0.11374 0.18296 0.22601
 H16 H 0.22201 0.11229 0.18235
 H17 H 0.21682 0.17996 0.11288
 H18 H 0.17652 0.21958 0.11443
 H19 H 0.11088 0.22157 0.18642
 C20 C -0.18068 0.86010 0.19047
 C21 C -0.16705 0.87281 0.21596
 C22 C -0.14054 0.85935 0.22850
 C23 C -0.12738 0.83317 0.21559
 C24 C -0.14071 0.82017 0.19010
 C25 C -0.16750 0.83365 0.17747
 C26 C -0.20741 0.87320 0.17790
 C27 C -0.22101 0.86010 0.15262
 C28 C -0.20793 0.83389 0.13967
 C29 C -0.18122 0.82054 0.15195
 C30 C -0.16812 0.79416 0.13931
 C31 C -0.14160 0.78082 0.15191
 C32 C -0.12790 0.79379 0.17717
 H33 H -0.17715 0.89304 0.22612
 H34 H -0.10690 0.82283 0.22546
 H35 H -0.21769 0.89345 0.18786
 H36 H -0.21863 0.82382 0.12014
 H37 H -0.17860 0.78387 0.11980
 H38 H -0.10743 0.78322 0.18680
 C39 C -0.18450 0.14512 -0.19187
 C40 C -0.17089 0.13365 -0.21794
 C41 C -0.14516 0.14827 -0.23048
 C42 C -0.13275 0.17443 -0.21706
 C43 C -0.14608 0.18623 -0.19098
 C44 C -0.17208 0.17154 -0.17830
 C45 C -0.21039 0.13075 -0.17922
 C46 C -0.22393 0.14255 -0.15327
 C47 C -0.21163 0.16874 -0.13976
 C48 C -0.18575 0.18336 -0.15212
 C49 C -0.17340 0.20969 -0.13889
 C50 C -0.14766 0.22422 -0.15151
 C51 C -0.13401 0.21254 -0.17743
 H52 H -0.18032 0.11344 -0.22855
 H53 H -0.11283 0.18557 -0.22698
 H54 H -0.22007 0.11051 -0.18961
 H55 H -0.22229 0.17781 -0.11972
 H56 H -0.18382 0.21896 -0.11884
 H57 H -0.11410 0.22399 -0.18705
 C58 C 0.18210 0.85316 -0.18580
 C59 C 0.17079 0.86720 -0.21171
 C60 C 0.14450 0.85555 -0.22608
 C61 C 0.12924 0.82987 -0.21456
 C62 C 0.14025 0.81557 -0.18865
 C63 C 0.16681 0.82723 -0.17418
 C64 C 0.20863 0.86437 -0.17146
 C65 C 0.21996 0.84996 -0.14580
 C66 C 0.20481 0.82431 -0.13418
 C67 C 0.17826 0.81278 -0.14825
 C68 C 0.16314 0.78688 -0.13704
 C69 C 0.13688 0.77531 -0.15146
 C70 C 0.12541 0.78961 -0.17712
 H71 H 0.18255 0.88702 -0.22082
 H72 H 0.10897 0.82090 -0.22586
 H73 H 0.22062 0.88416 -0.18034
 H74 H 0.21384 0.81327 -0.11435
 H75 H 0.17189 0.77555 -0.11725
 H76 H 0.10512 0.78039 -0.18817
 C77 C 0.13851 1.18357 0.81506
 C78 C 0.12651 1.17000 0.78922
 C79 C 0.14102 1.14421 0.77684
 C80 C 0.16755 1.13173 0.79028
 C81 C 0.17985 1.14502 0.81609
 C82 C 0.16532 1.17105 0.82856
 C83 C 0.12443 1.20962 0.82746
 C84 C 0.13691 1.22317 0.85306
 C85 C 0.16342 1.21071 0.86651
 C86 C 0.17776 1.18472 0.85441
 C87 C 0.20452 1.17235 0.86754
 C88 C 0.21892 1.14662 0.85509
 C89 C 0.20663 1.13295 0.82950
 H90 H 0.10605 1.17961 0.77864
 H91 H 0.17873 1.11184 0.78051
 H92 H 0.10395 1.21944 0.81710
 H93 H 0.17302 1.22137 0.88627
 H94 H 0.21428 1.18281 0.88731
 H95 H 0.21802 1.11307 0.82000
 C96 C 0.86202 0.81787 0.80950
 C97 C 0.87487 0.83025 0.78348
 C98 C 0.86154 0.85621 0.77026
 C99 C 0.83537 0.87007 0.78304
 C100 C 0.82225 0.85801 0.80906
 C101 C 0.83559 0.83178 0.82238
 C102 C 0.87491 0.79165 0.82273
 C103 C 0.86163 0.77929 0.84853
 C104 C 0.83549 0.79313 0.86137
 C105 C 0.82234 0.81933 0.84843
 C106 C 0.79596 0.83310 0.86092
 C107 C 0.78275 0.85904 0.84765
 C108 C 0.79585 0.87151 0.82185
 H109 H 0.89507 0.81958 0.77342
 H110 H 0.82512 0.89011 0.77263
 H111 H 0.89509 0.78076 0.81285
 H112 H 0.82526 0.78338 0.88129
 H113 H 0.78555 0.82356 0.88084
 H114 H 0.78537 0.89155 0.81170
 C115 C 0.14376 0.81204 1.18965
 C116 C 0.13307 0.82549 1.21608
 C117 C 0.14776 0.85146 1.22759
 C118 C 0.17319 0.86424 1.21277
 C119 C 0.18420 0.85106 1.18632
 C120 C 0.16946 0.82484 1.17467
 C121 C 0.12931 0.78594 1.17799
 C122 C 0.14032 0.77258 1.15166
 C123 C 0.16581 0.78526 1.13678
 C124 C 0.18050 0.81134 1.14812
 C125 C 0.20613 0.82409 1.13348
 C126 C 0.22072 0.85005 1.14510
 C127 C 0.20978 0.86353 1.17138
 H128 H 0.11341 0.81578 1.22776
 H129 H 0.18440 0.88433 1.22188
 H130 H 0.10962 0.77598 1.18944
 H131 H 0.17427 0.77475 1.11644
 H132 H 0.21483 0.81381 1.11315
 H133 H 0.22128 0.88360 1.18020
 C134 C 0.85569 1.18363 1.19050
 C135 C 0.86913 1.17134 1.21631
 C136 C 0.85689 1.14481 1.22927
 C137 C 0.83118 1.13034 1.21647
 C138 C 0.81744 1.14235 1.19067
 C139 C 0.82972 1.16912 1.17760
 C140 C 0.86763 1.21027 1.17744
 C141 C 0.85387 1.22245 1.15177
 C142 C 0.82815 1.20811 1.13894
 C143 C 0.81593 1.18147 1.15170
 C144 C 0.79004 1.16706 1.13914
 C145 C 0.77787 1.14058 1.15218
 C146 C 0.79152 1.12821 1.17781
 H147 H 0.88901 1.18244 1.22637
 H148 H 0.82180 1.10983 1.22665
 H149 H 0.88751 1.22160 1.18723
 H150 H 0.81763 1.21778 1.11910
 H151 H 0.77924 1.17647 1.11933
 H152 H 0.78186 1.10774 1.18775
 O153 O 0.45590 1.05362 1.04982
 O154 O 0.42236 1.02390 1.02273
 C155 C 0.42829 1.04517 1.04187
 O156 O 0.54425 1.05016 0.94385
 O157 O 0.57792 1.02269 0.97322
 C158 C 0.57190 1.04197 0.95213
 O159 O 0.45692 1.05380 0.94630
 O160 O 0.42285 1.02442 0.97315
 C161 C 0.42916 1.04570 0.95410
 O162 O 0.54320 1.05044 1.05350
 O163 O 0.57741 1.02265 1.02505
 C164 C 0.57100 1.04212 1.04584
 Zr165 Zr 0.49974 1.03658 1.03591
 O166 O 0.50331 1.08487 1.03486
 O167 O 0.49574 1.03750 1.08285
 Zr168 Zr 0.50045 1.03622 0.96053
 O169 O 0.50410 1.08449 0.96032
 O170 O 0.49714 1.03586 0.91351
 O171 O 0.47247 1.04245 0.99797
 O172 O 0.52703 1.04198 0.99846
 O173 O 0.54337 0.94501 1.05379
 O174 O 0.57746 0.97184 1.02453
 C175 C 0.57115 0.95286 1.04575
 O176 O 0.45713 0.94133 0.94679
 O177 O 0.42293 0.97118 0.97323
 C178 C 0.42933 0.94966 0.95444
 O179 O 0.54456 0.94483 0.94419
 O180 O 0.57806 0.97258 0.97327
 C181 C 0.57217 0.95314 0.95235
 O182 O 0.45593 0.94196 1.04984
 O183 O 0.42241 0.97138 1.02216
 C184 C 0.42831 0.95023 1.04148
 Zr185 Zr 0.49985 0.95901 1.03619
 O186 O 0.50365 0.91070 1.03578
 O187 O 0.49571 0.95868 1.08314
 Zr188 Zr 0.50062 0.95875 0.96092
 O189 O 0.50455 0.91047 0.96152
 O190 O 0.49731 0.95829 0.91392
 Zr191 Zr 0.45417 0.99779 0.99796
 Zr192 Zr 0.54613 0.99764 0.99887
 O193 O 0.52721 0.95332 0.99882
 O194 O 0.47262 0.95303 0.99832
 O195 O 0.52726 0.99777 1.04217
 O196 O 0.47366 0.99751 0.95503
 O197 O 0.47292 0.99784 1.04123
 O198 O 0.52814 0.99744 0.95522
 H199 H 0.54125 1.05973 0.99854
 H200 H 0.45964 0.99748 0.93755
 H201 H 0.54144 0.93547 0.99893
 H202 H 0.45875 0.99782 1.05859
 H203 H 0.51460 1.02342 0.90586
 H204 H 0.51416 0.97132 0.90611
 H205 H 0.48703 0.90249 0.97338
 H206 H 0.48584 0.90268 1.02434
 H207 H 0.51236 0.97180 1.09117
 H208 H 0.51196 1.02379 1.09096
 H209 H 0.48510 1.09283 1.02388
 H210 H 0.48712 1.09261 0.97286
 O211 O -0.06198 0.45772 0.05390
 O212 O -0.03282 0.42397 0.02636
 C213 C -0.05374 0.43029 0.04606
 O214 O -0.05926 0.54392 -0.05348
 O215 O -0.03076 0.57691 -0.02469
 C216 C -0.05051 0.57113 -0.04558
 O217 O -0.06311 0.45771 -0.05077
 O218 O -0.03336 0.42397 -0.02379
 C219 C -0.05468 0.43028 -0.04309
 O220 O -0.05825 0.54390 0.05640
 O221 O -0.03025 0.57688 0.02714
 C222 C -0.04970 0.57110 0.04829
 Zr223 Zr -0.04490 0.50062 0.03899
 O224 O -0.09384 0.50470 0.03807
 O225 O -0.04569 0.49735 0.08598
 Zr226 Zr -0.04581 0.50062 -0.03613
 O227 O -0.09471 0.50476 -0.03387
 O228 O -0.04809 0.49737 -0.08307
 O229 O -0.05162 0.47327 0.00150
 O230 O -0.05067 0.52738 0.00147
 O231 O 0.04812 0.54246 0.05556
 O232 O 0.02040 0.57626 0.02670
 C233 C 0.03997 0.56990 0.04766
 O234 O 0.04935 0.45638 -0.05188
 O235 O 0.01986 0.42339 -0.02405
 C236 C 0.04078 0.42917 -0.04387
 O237 O 0.04681 0.54251 -0.05472
 O238 O 0.01975 0.57627 -0.02529
 C239 C 0.03880 0.56994 -0.04667
 O240 O 0.05043 0.45625 0.05269
 O241 O 0.01994 0.42326 0.02584
 C242 C 0.04148 0.42903 0.04505
 Zr243 Zr 0.03393 0.49959 0.03811
 O244 O 0.08288 0.50254 0.03575
 O245 O 0.03631 0.49624 0.08503
 Zr246 Zr 0.03307 0.49962 -0.03693
 O247 O 0.08207 0.50261 -0.03559
 O248 O 0.03435 0.49628 -0.08389
 Zr249 Zr -0.00641 0.45470 0.00100
 Zr250 Zr -0.00549 0.54539 0.00099
 O251 O 0.03934 0.52628 0.00052
 O252 O 0.03918 0.47209 0.00054
 O253 O -0.00516 0.52712 0.04442
 O254 O -0.00668 0.47380 -0.04203
 O255 O -0.00569 0.47378 0.04404
 O256 O -0.00618 0.52710 -0.04243
 H257 H -0.06846 0.54179 0.00162
 H258 H -0.00696 0.46020 -0.05966
 H259 H 0.05735 0.54031 0.00032
 H260 H -0.00561 0.46021 0.06170
 H261 H -0.03319 0.51230 -0.09126
 H262 H 0.01915 0.51119 -0.09180
 H263 H 0.08996 0.48387 -0.02579
 H264 H 0.09055 0.48371 0.02595
 H265 H 0.02117 0.51102 0.09324
 H266 H -0.03123 0.51291 0.09379
 H267 H -0.10206 0.48646 0.02775
 H268 H -0.10272 0.48618 -0.02396
 O269 O 1.06256 -0.05137 0.54269
 O270 O 1.03196 -0.02356 0.57469
 C271 C 1.05364 -0.04325 0.56914
 O272 O 1.06108 0.05806 0.45913
 O273 O 1.03343 0.02875 0.42611
 C274 C 1.05328 0.04989 0.43239
 O275 O 1.06222 0.05497 0.54312
 O276 O 1.03184 0.02679 0.57484
 C277 C 1.05329 0.04661 0.56951
 O278 O 1.06122 -0.05396 0.45873
 O279 O 1.03348 -0.02428 0.42591
 C280 C 1.05337 -0.04557 0.43204
 Zr281 Zr 1.04581 -0.03680 0.50047
 O282 O 1.09484 -0.03670 0.49796
 O283 O 1.04577 -0.08512 0.50366
 Zr284 Zr 1.04569 0.04064 0.50075
 O285 O 1.09473 0.04022 0.49831
 O286 O 1.04559 0.08893 0.50419
 O287 O 1.05127 0.00180 0.52721
 O288 O 1.05187 0.00201 0.47488
 O289 O 0.95322 -0.05357 0.45691
 O290 O 0.98220 -0.02414 0.42505
 C291 C 0.96197 -0.04517 0.43051
 O292 O 0.94906 0.05546 0.54096
 O293 O 0.97816 0.02716 0.57384
 C294 C 0.95700 0.04720 0.56765
 O295 O 0.95304 0.05809 0.45728
 O296 O 0.98213 0.02882 0.42523
 C297 C 0.96182 0.04987 0.43082
 O298 O 0.94922 -0.05160 0.54063
 O299 O 0.97825 -0.02365 0.57365
 C300 C 0.95714 -0.04356 0.56736
 Zr301 Zr 0.96729 -0.03668 0.49912
 O302 O 0.91836 -0.03640 0.49513
 O303 O 0.96756 -0.08502 0.50210
 Zr304 Zr 0.96714 0.04079 0.49937
 O305 O 0.91821 0.04061 0.49538
 O306 O 0.96715 0.08910 0.50267
 Zr307 Zr 1.00562 0.00180 0.54407
 Zr308 Zr 1.00729 0.00217 0.45578
 O309 O 0.96205 0.00217 0.47336
 O310 O 0.96064 0.00196 0.52566
 O311 O 1.00705 -0.04260 0.47327
 O312 O 1.00592 0.04617 0.52586
 O313 O 1.00609 -0.04242 0.52557
 O314 O 1.00690 0.04679 0.47358
 H315 H 1.07025 0.00202 0.46165
 H316 H 1.00569 0.06407 0.53939
 H317 H 0.94411 0.00226 0.45958
 H318 H 1.00593 -0.06040 0.53901
 H319 H 1.03297 0.09700 0.48754
 H320 H 0.97996 0.09706 0.48615
 H321 H 0.90992 0.02832 0.51205
 H322 H 0.91001 -0.02409 0.51179
 H323 H 0.98031 -0.09288 0.48546
 H324 H 1.03335 -0.09303 0.48685
 H325 H 1.10259 -0.02428 0.51476
 H326 H 1.10248 0.02808 0.51535
 C327 C 1.09226 0.08924 0.35897
 C328 C 1.11654 0.07374 0.34395
 C329 C 1.12819 0.08553 0.31668
 C330 C 1.11564 0.11287 0.30470
 C331 C 1.09149 0.12847 0.31983
 C332 C 1.07973 0.11658 0.34701
 C333 C 1.05538 0.13241 0.36158
 C334 C 1.04302 0.15922 0.34964
 C335 C 1.05455 0.17089 0.32309
 C336 C 1.07851 0.15579 0.30826
 C337 C 1.15218 0.06942 0.30187
 C338 C 1.16438 0.04248 0.31372
 C339 C 1.15313 0.03105 0.34048
 C340 C 1.12947 0.04638 0.35550
 C341 C 1.12743 0.12492 0.27680
 C342 C 1.13708 0.13510 0.25365
 C343 C 1.07922 0.07628 0.38593
 C344 C 1.06777 0.06479 0.40767
 H345 H 1.04567 0.12426 0.38232
 H346 H 1.02438 0.17102 0.36106
 H347 H 1.04488 0.19174 0.31391
 H348 H 1.08668 0.16575 0.28766
 H349 H 1.16171 0.07743 0.28101
 H350 H 1.18267 0.03040 0.30206
 H351 H 1.16264 0.01008 0.34956
 H352 H 1.12139 0.03651 0.37617
 C353 C 0.92269 -0.08271 0.35640
 C354 C 0.93495 -0.10975 0.34359
 C355 C 0.92202 -0.12142 0.31683
 C356 C 0.89699 -0.10591 0.30298
 C357 C 0.88497 -0.07867 0.31560
 C358 C 0.89776 -0.06711 0.34248
 C359 C 0.88524 -0.03993 0.35479
 C360 C 0.86095 -0.02449 0.34081
 C361 C 0.84860 -0.03567 0.31441
 C362 C 0.86034 -0.06247 0.30188
 C363 C 0.93466 -0.14850 0.30444
 C364 C 0.95944 -0.16354 0.31805
 C365 C 0.97214 -0.15207 0.34418
 C366 C 0.96011 -0.12551 0.35692
 C367 C 0.88347 -0.11815 0.27592
 C368 C 0.87221 -0.12858 0.25358
 C369 C 0.93629 -0.07040 0.38336
 C370 C 0.94784 -0.05945 0.40530
 H371 H 0.89418 -0.03022 0.37519
 H372 H 0.85180 -0.00362 0.35042
 H373 H 0.82984 -0.02350 0.30357
 H374 H 0.84995 -0.07027 0.28133
 H375 H 0.92562 -0.15829 0.28411
 H376 H 0.96885 -0.18420 0.30825
 H377 H 0.99141 -0.16382 0.35465
 H378 H 0.97074 -0.11749 0.37728
 C379 C 0.91774 0.08777 0.64040
 C380 C 0.93765 0.09646 0.66400
 C381 C 0.92500 0.10958 0.69029
 C382 C 0.89253 0.11376 0.69288
 C383 C 0.87266 0.10524 0.66921
 C384 C 0.88532 0.09222 0.64288
 C385 C 0.86501 0.08378 0.61956
 C386 C 0.83309 0.08806 0.62218
 C387 C 0.82070 0.10079 0.64792
 C388 C 0.84014 0.10933 0.67124
 C389 C 0.94533 0.11812 0.71357
 C390 C 0.97724 0.11359 0.71106
 C391 C 0.98958 0.10052 0.68547
 C392 C 0.97017 0.09214 0.66208
 C393 C 0.87948 0.12628 0.72007
 C394 C 0.86840 0.13642 0.74264
 C395 C 0.93065 0.07372 0.61389
 C396 C 0.94208 0.06177 0.59235
 H397 H 0.87356 0.07379 0.59909
 H398 H 0.81788 0.08146 0.60413
 H399 H 0.79588 0.10407 0.64985
 H400 H 0.82940 0.11914 0.69081
 H401 H 0.93681 0.12830 0.73395
 H402 H 0.99245 0.12017 0.72910
 H403 H 1.01434 0.09681 0.68376
 H404 H 0.98092 0.08220 0.64257
 C405 C 1.09190 -0.08090 0.64384
 C406 C 1.10299 -0.11140 0.64440
 C407 C 1.11412 -0.12420 0.67146
 C408 C 1.11414 -0.10640 0.69780
 C409 C 1.10334 -0.07578 0.69717
 C410 C 1.09211 -0.06301 0.67012
 C411 C 1.08118 -0.03242 0.67009
 C412 C 1.08140 -0.01495 0.69601
 C413 C 1.09256 -0.02738 0.72241
 C414 C 1.10339 -0.05745 0.72313
 C415 C 1.12498 -0.15481 0.67149
 C416 C 1.12486 -0.17223 0.64553
 C417 C 1.11398 -0.15969 0.61907
 C418 C 1.10313 -0.12964 0.61838
 C419 C 1.12505 -0.11974 0.72551
 C420 C 1.13413 -0.13118 0.74834
 C421 C 1.07943 -0.06815 0.61651
 C422 C 1.06826 -0.05715 0.59437
 H423 H 1.07246 -0.02164 0.65006
 H424 H 1.07305 0.00844 0.69557
 H425 H 1.09282 -0.01365 0.74245
 H426 H 1.11180 -0.06612 0.74420
 H427 H 1.13369 -0.16559 0.69152
 H428 H 1.13326 -0.19559 0.64595
 H429 H 1.11394 -0.17332 0.59896
 H430 H 1.09492 -0.12088 0.59726
 C431 C 0.35236 1.08430 1.08093
 C432 C 0.33432 1.10621 1.06537
 C433 C 0.30692 1.11824 1.07856
 C434 C 0.29780 1.10839 1.10729
 C435 C 0.31579 1.08640 1.12280
 C436 C 0.34323 1.07443 1.10964
 C437 C 0.36099 1.05266 1.12567
 C438 C 0.35176 1.04282 1.15380
 C439 C 0.32481 1.05437 1.16658
 C440 C 0.30696 1.07595 1.15138
 C441 C 0.28916 1.13998 1.06251
 C442 C 0.29828 1.14964 1.03428
 C443 C 0.32519 1.13802 1.02147
 C444 C 0.34306 1.11650 1.03671
 C445 C 0.27026 1.12125 1.12111
 C446 C 0.24757 1.13212 1.13277
 C447 C 0.37981 1.07128 1.06715
 C448 C 0.40225 1.05981 1.05567
 H449 H 0.38208 1.04292 1.11662
 H450 H 0.36554 1.02606 1.16569
 H451 H 0.31768 1.04659 1.18840
 H452 H 0.28620 1.08427 1.16227
 H453 H 0.26805 1.14969 1.07156
 H454 H 0.28439 1.16623 1.02228
 H455 H 0.33215 1.14555 0.99951
 H456 H 0.36372 1.10800 1.02575
 C457 C 0.35404 0.90792 0.91732
 C458 C 0.33253 0.89250 0.93578
 C459 C 0.30509 0.87997 0.92324
 C460 C 0.29933 0.88300 0.89234
 C461 C 0.32103 0.89812 0.87385
 C462 C 0.34847 0.91060 0.88638
 C463 C 0.36975 0.92574 0.86748
 C464 C 0.36408 0.92847 0.83706
 C465 C 0.33724 0.91627 0.82480
 C466 C 0.31589 0.90125 0.84287
 C467 C 0.28389 0.86474 0.94212
 C468 C 0.28959 0.86201 0.97255
 C469 C 0.31638 0.87430 0.98483
 C470 C 0.33770 0.88939 0.96677
 C471 C 0.27099 0.87094 0.87950
 C472 C 0.24762 0.86125 0.86825
 C473 C 0.38134 0.92194 0.93027
 C474 C 0.40361 0.93422 0.94112
 H475 H 0.39098 0.93558 0.87596
 H476 H 0.38060 0.94012 0.82294
 H477 H 0.33293 0.91845 0.80116
 H478 H 0.29536 0.89215 0.83226
 H479 H 0.26272 0.85481 0.93359
 H480 H 0.27312 0.85030 0.98668
 H481 H 0.32066 0.87215 1.00848
 H482 H 0.35823 0.89853 0.97734
 C483 C 0.64686 0.91837 1.08919
 C484 C 0.64745 0.88809 1.10035
 C485 C 0.67472 0.87656 1.11421
 C486 C 0.70123 0.89541 1.11691
 C487 C 0.70048 0.92586 1.10616
 C488 C 0.67327 0.93733 1.09213
 C489 C 0.67325 0.96770 1.08113
 C490 C 0.69933 0.98622 1.08402
 C491 C 0.72580 0.97511 1.09804
 C492 C 0.72652 0.94528 1.10899
 C493 C 0.67480 0.84613 1.12503
 C494 C 0.64869 0.82766 1.12225
 C495 C 0.62202 0.83895 1.10871
 C496 C 0.62127 0.86880 1.09784
 C497 C 0.72942 0.88318 1.13008
 C498 C 0.75276 0.87256 1.14076
 C499 C 0.61936 0.92989 1.07424
 C500 C 0.59696 0.93993 1.06146
 H501 H 0.65312 0.97749 1.07029
 H502 H 0.69888 1.00941 1.07556
 H503 H 0.74589 0.98967 1.10042
 H504 H 0.74767 0.93764 1.11967
 H505 H 0.69498 0.83631 1.13577
 H506 H 0.64915 0.80445 1.13066
 H507 H 0.60180 0.82451 1.10661
 H508 H 0.59999 0.87656 1.08749
 C509 C 0.64706 1.07846 0.90978
 C510 C 0.64639 1.10899 0.89931
 C511 C 0.67312 1.12171 0.88563
 C512 C 0.70034 1.10378 0.88244
 C513 C 0.70086 1.07309 0.89253
 C514 C 0.67418 1.06042 0.90637
 C515 C 0.67539 1.02982 0.91666
 C516 C 0.70216 1.01221 0.91328
 C517 C 0.72814 1.02450 0.89948
 C518 C 0.72765 1.05459 0.88923
 C519 C 0.67194 1.15236 0.87547
 C520 C 0.64512 1.16992 0.87872
 C521 C 0.61898 1.15747 0.89208
 C522 C 0.61947 1.12737 0.90230
 C523 C 0.72790 1.11719 0.86934
 C524 C 0.75061 1.12887 0.85865
 C525 C 0.62004 1.06576 0.92447
 C526 C 0.59782 1.05511 0.93693
 H527 H 0.65569 1.01916 0.92733
 H528 H 0.70265 0.98881 0.92118
 H529 H 0.74880 1.01064 0.89673
 H530 H 0.74845 1.06317 0.87869
 H531 H 0.69167 1.16307 0.86490
 H532 H 0.64463 1.19331 0.87081
 H533 H 0.59820 1.17120 0.89455
 H534 H 0.59855 1.11871 0.91254
 C535 C 0.07928 0.35390 0.08547
 C536 C 0.06023 0.32790 0.08958
 C537 C 0.07258 0.30117 0.10326
 C538 C 0.10396 0.30053 0.11253
 C539 C 0.12297 0.32658 0.10852
 C540 C 0.11058 0.35335 0.09497
 C541 C 0.13003 0.37907 0.09115
 C542 C 0.16085 0.37838 0.10045
 C543 C 0.17298 0.35220 0.11369
 C544 C 0.15437 0.32654 0.11773
 C545 C 0.05306 0.27553 0.10725
 C546 C 0.02227 0.27618 0.09781
 C547 C 0.01027 0.30220 0.08419
 C548 C 0.02887 0.32787 0.08018
 C549 C 0.11692 0.27298 0.12573
 C550 C 0.12816 0.25023 0.13648
 C551 C 0.06669 0.38108 0.07130
 C552 C 0.05569 0.40330 0.05939
 H553 H 0.12165 0.39996 0.08096
 H554 H 0.17541 0.39826 0.09736
 H555 H 0.19695 0.35178 0.12087
 H556 H 0.16487 0.30674 0.12816
 H557 H 0.06136 0.25474 0.11769
 H558 H 0.00765 0.25638 0.10107
 H559 H -0.01366 0.30258 0.07691
 H560 H 0.01839 0.34765 0.06967
 C561 C -0.09125 0.35527 -0.08413
 C562 C -0.07195 0.32908 -0.08650
 C563 C -0.08318 0.30230 -0.10074
 C564 C -0.11373 0.30176 -0.11230
 C565 C -0.13304 0.32792 -0.10986
 C566 C -0.12175 0.35477 -0.09576
 C567 C -0.14146 0.38063 -0.09356
 C568 C -0.17150 0.37998 -0.10497
 C569 C -0.18256 0.35373 -0.11875
 C570 C -0.16366 0.32794 -0.12124
 C571 C -0.06341 0.27648 -0.10302
 C572 C -0.03347 0.27703 -0.09133
 C573 C -0.02259 0.30310 -0.07714
 C574 C -0.04144 0.32895 -0.07480
 C575 C -0.12545 0.27423 -0.12635
 C576 C -0.13543 0.25139 -0.13789
 C577 C -0.07960 0.38263 -0.06974
 C578 C -0.06896 0.40484 -0.05766
 H579 H -0.13389 0.40156 -0.08301
 H580 H -0.18628 0.39996 -0.10310
 H581 H -0.20592 0.35335 -0.12758
 H582 H -0.17331 0.30807 -0.13216
 H583 H -0.07085 0.25564 -0.11381
 H584 H -0.01864 0.25710 -0.09330
 H585 H 0.00070 0.30343 -0.06814
 H586 H -0.03181 0.34875 -0.06376
 C587 C 0.07344 0.64411 -0.09075
 C588 C 0.05486 0.67083 -0.09272
 C589 C 0.06683 0.69755 -0.10655
 C590 C 0.09743 0.69749 -0.11799
 C591 C 0.11577 0.67058 -0.11654
 C592 C 0.10371 0.64380 -0.10291
 C593 C 0.12251 0.61722 -0.10161
 C594 C 0.15238 0.61710 -0.11343
 C595 C 0.16419 0.64329 -0.12674
 C596 C 0.14622 0.66979 -0.12833
 C597 C 0.04779 0.72391 -0.10844
 C598 C 0.01782 0.72395 -0.09680
 C599 C 0.00624 0.69795 -0.08297
 C600 C 0.02441 0.67161 -0.08093
 C601 C 0.11054 0.72530 -0.13030
 C602 C 0.12216 0.74823 -0.14012
 C603 C 0.06165 0.61723 -0.07562
 C604 C 0.05159 0.59529 -0.06263
 H605 H 0.11433 0.59627 -0.09150
 H606 H 0.16644 0.59657 -0.11226
 H607 H 0.18742 0.64308 -0.13590
 H608 H 0.15642 0.68956 -0.13896
 H609 H 0.05582 0.74470 -0.11896
 H610 H 0.00352 0.74428 -0.09851
 H611 H -0.01706 0.69810 -0.07397
 H612 H 0.01426 0.65188 -0.07019
 C613 C -0.08463 0.64707 0.08948
 C614 C -0.06730 0.66176 0.11208
 C615 C -0.07834 0.68954 0.12473
 C616 C -0.10682 0.70226 0.11492
 C617 C -0.12415 0.68754 0.09233
 C618 C -0.11300 0.65988 0.07956
 C619 C -0.13068 0.64563 0.05695
 C620 C -0.15860 0.65833 0.04727
 C621 C -0.16948 0.68540 0.05972
 C622 C -0.15257 0.69994 0.08201
 C623 C -0.06041 0.70404 0.14698
 C624 C -0.03242 0.69139 0.15657
 C625 C -0.02176 0.66408 0.14440
 C626 C -0.03889 0.64934 0.12239
 C627 C -0.11854 0.73028 0.12821
 C628 C -0.12879 0.75341 0.13909
 C629 C -0.07277 0.61938 0.07569
 C630 C -0.06258 0.59691 0.06359
 H631 H -0.12319 0.62453 0.04657
 H632 H -0.17188 0.64706 0.03006
 H633 H -0.19117 0.69519 0.05210
 H634 H -0.16200 0.72096 0.09099
 H635 H -0.06778 0.72530 0.15713
 H636 H -0.01894 0.70283 0.17353
 H637 H 0.00003 0.65439 0.15186
 H638 H -0.02955 0.62825 0.11347
 C639 C 1.08874 0.08405 0.64538
 C640 C 1.11084 0.06772 0.66251
 C641 C 1.12091 0.07963 0.69030
 C642 C 1.10887 0.10784 0.70074
 C643 C 1.08627 0.12383 0.68390
 C644 C 1.07626 0.11196 0.65608
 C645 C 1.05363 0.12834 0.63965
 C646 C 1.04105 0.15553 0.65052
 C647 C 1.05074 0.16707 0.67778
 C648 C 1.07314 0.15155 0.69434
 C649 C 1.14282 0.06278 0.70715
 C650 C 1.15442 0.03493 0.69686
 C651 C 1.14467 0.02334 0.66964
 C652 C 1.12314 0.03946 0.65255
 C653 C 1.12014 0.12071 0.72849
 C654 C 1.12979 0.13166 0.75130
 C655 C 1.07767 0.07143 0.61749
 C656 C 1.06737 0.06049 0.59497
 H657 H 1.04526 0.12025 0.61837
 H658 H 1.02361 0.16765 0.63775
 H659 H 1.04084 0.18816 0.68616
 H660 H 1.07990 0.16141 0.71544
 H661 H 1.15108 0.07083 0.72849
 H662 H 1.17105 0.02225 0.71010
 H663 H 1.15367 0.00165 0.66179
 H664 H 1.11616 0.02943 0.63159
 C665 C 0.91949 -0.08399 0.64080
 C666 C 0.88735 -0.08960 0.64381
 C667 C 0.87565 -0.10235 0.67065
 C668 C 0.89620 -0.10942 0.69429
 C669 C 0.92841 -0.10405 0.69118
 C670 C 0.94010 -0.09128 0.66435
 C671 C 0.97239 -0.08599 0.66179
 C672 C 0.99254 -0.09311 0.68506
 C673 C 0.98109 -0.10562 0.71128
 C674 C 0.94942 -0.11107 0.71443
 C675 C 0.84338 -0.10766 0.67318
 C676 C 0.82327 -0.10058 0.64987
 C677 C 0.83473 -0.08812 0.62363
 C678 C 0.86638 -0.08263 0.62052
 C679 C 0.88410 -0.12196 0.72186
 C680 C 0.87369 -0.13225 0.74465
 C681 C 0.93145 -0.07013 0.61381
 C682 C 0.94240 -0.05822 0.59206
 H683 H 0.98243 -0.07633 0.64183
 H684 H 1.01716 -0.08891 0.68271
 H685 H 0.99683 -0.11112 0.72929
 H686 H 0.94162 -0.12084 0.73525
 H687 H 0.83336 -0.11732 0.69314
 H688 H 0.79867 -0.10479 0.65219
 H689 H 0.81902 -0.08266 0.60559
 H690 H 0.87422 -0.07293 0.59968
 C691 C 1.09229 -0.08501 0.35853
 C692 C 1.09832 -0.11681 0.35685
 C693 C 1.11018 -0.12967 0.33010
 C694 C 1.11597 -0.11063 0.30521
 C695 C 1.11016 -0.07878 0.30697
 C696 C 1.09820 -0.06594 0.33368
 C697 C 1.09219 -0.03408 0.33477
 C698 C 1.09777 -0.01549 0.31015
 C699 C 1.10972 -0.02801 0.28414
 C700 C 1.11588 -0.05928 0.28243
 C701 C 1.11587 -0.16155 0.32890
 C702 C 1.11000 -0.18019 0.35342
 C703 C 1.09840 -0.16761 0.37957
 C704 C 1.09258 -0.13629 0.38139
 C705 C 1.12742 -0.12390 0.27768
 C706 C 1.13675 -0.13506 0.25483
 C707 C 1.07923 -0.07195 0.38547
 C708 C 1.06781 -0.06044 0.40724
 H709 H 1.08307 -0.02320 0.35456
 H710 H 1.09287 0.00878 0.31130
 H711 H 1.11418 -0.01343 0.26514
 H712 H 1.12510 -0.06796 0.26167
 H713 H 1.12490 -0.17241 0.30906
 H714 H 1.11448 -0.20454 0.35212
 H715 H 1.09387 -0.18219 0.39855
 H716 H 1.08357 -0.12755 0.40221
 C717 C 0.92218 0.08746 0.35673
 C718 C 0.91456 0.11891 0.35478
 C719 C 0.90103 0.13073 0.32829
 C720 C 0.89518 0.11100 0.30395
 C721 C 0.90294 0.07956 0.30586
 C722 C 0.91659 0.06776 0.33229
 C723 C 0.92448 0.03631 0.33354
 C724 C 0.91909 0.01710 0.30935
 C725 C 0.90546 0.02857 0.28363
 C726 C 0.89743 0.05942 0.28177
 C727 C 0.89367 0.16228 0.32683
 C728 C 0.89954 0.18158 0.35084
 C729 C 0.91277 0.17001 0.37673
 C730 C 0.92023 0.13905 0.37881
 C731 C 0.88136 0.12309 0.27692
 C732 C 0.86988 0.13323 0.25451
 C733 C 0.93596 0.07528 0.38373
 C734 C 0.94760 0.06433 0.40568
 H735 H 0.93496 0.02623 0.35313
 H736 H 0.92542 -0.00685 0.31062
 H737 H 0.90113 0.01350 0.26499
 H738 H 0.88696 0.06730 0.26125
 H739 H 0.88337 0.17236 0.30716
 H740 H 0.89378 0.20566 0.34933
 H741 H 0.91728 0.18511 0.39531
 H742 H 0.93050 0.13112 0.39940
 C743 C 0.07763 0.35382 -0.08459
 C744 C 0.10707 0.34234 -0.07611
 C745 C 0.11873 0.31511 -0.08935
 C746 C 0.10083 0.29948 -0.11093
 C747 C 0.07135 0.31093 -0.11936
 C748 C 0.05977 0.33826 -0.10624
 C749 C 0.03032 0.34938 -0.11516
 C750 C 0.01276 0.33386 -0.13633
 C751 C 0.02398 0.30700 -0.14897
 C752 C 0.05295 0.29558 -0.14070
 C753 C 0.14824 0.30407 -0.08050
 C754 C 0.16569 0.31947 -0.05916
 C755 C 0.15426 0.34607 -0.04620
 C756 C 0.12531 0.35748 -0.05449
 C757 C 0.11294 0.27175 -0.12445
 C758 C 0.12378 0.24885 -0.13525
 C759 C 0.06537 0.38115 -0.07047
 C760 C 0.05465 0.40343 -0.05845
 H761 H 0.02050 0.37007 -0.10583
 H762 H -0.00979 0.34259 -0.14277
 H763 H 0.01015 0.29493 -0.16526
 H764 H 0.06072 0.27462 -0.15118
 H765 H 0.15814 0.28346 -0.08990
 H766 H 0.18819 0.31069 -0.05265
 H767 H 0.16790 0.35794 -0.02963
 H768 H 0.11743 0.37828 -0.04379
 C769 C -0.09054 0.35544 0.08731
 C770 C -0.07272 0.34054 0.10952
 C771 C -0.08381 0.31315 0.12277
 C772 C -0.11277 0.30097 0.11391
 C773 C -0.13064 0.31596 0.09180
 C774 C -0.11947 0.34326 0.07843
 C775 C -0.13765 0.35774 0.05625
 C776 C -0.16609 0.34561 0.04754
 C777 C -0.17704 0.31894 0.06064
 C778 C -0.15963 0.30419 0.08252
 C779 C -0.06544 0.29847 0.14467
 C780 C -0.03698 0.31059 0.15335
 C781 C -0.02624 0.33750 0.14056
 C782 C -0.04378 0.35237 0.11884
 C783 C -0.12423 0.27307 0.12751
 C784 C -0.13404 0.24996 0.13865
 C785 C -0.07861 0.38272 0.07296
 C786 C -0.06789 0.40487 0.06080
 H787 H -0.13013 0.37856 0.04545
 H788 H -0.17969 0.35698 0.03055
 H789 H -0.19914 0.30961 0.05380
 H790 H -0.16912 0.28348 0.09202
 H791 H -0.07283 0.27750 0.15529
 H792 H -0.02318 0.29902 0.17007
 H793 H -0.00408 0.34677 0.14731
 H794 H -0.03434 0.37313 0.10943
 C795 C -0.08433 0.64712 -0.08761
 C796 C -0.11189 0.66124 -0.07728
 C797 C -0.12240 0.68892 -0.09054
 C798 C -0.10522 0.70236 -0.11400
 C799 C -0.07751 0.68838 -0.12414
 C800 C -0.06714 0.66055 -0.11105
 C801 C -0.03951 0.64685 -0.12174
 C802 C -0.02243 0.66042 -0.14449
 C803 C -0.03241 0.68778 -0.15709
 C804 C -0.05966 0.70166 -0.14718
 C805 C -0.15002 0.70263 -0.07981
 C806 C -0.16675 0.68939 -0.05664
 C807 C -0.15648 0.66232 -0.04369
 C808 C -0.12937 0.64831 -0.05378
 C809 C -0.11639 0.73033 -0.12783
 C810 C -0.12636 0.75340 -0.13907
 C811 C -0.07309 0.61941 -0.07339
 C812 C -0.06326 0.59692 -0.06103
 H813 H -0.03071 0.62566 -0.11252
 H814 H -0.00121 0.64977 -0.15222
 H815 H -0.01897 0.69831 -0.17465
 H816 H -0.06652 0.72291 -0.15769
 H817 H -0.15895 0.72372 -0.08913
 H818 H -0.18782 0.70018 -0.04871
 H819 H -0.16961 0.65207 -0.02578
 H820 H -0.12234 0.62727 -0.04300
 C821 C 0.07620 0.64377 0.09100
 C822 C 0.10659 0.64300 0.10290
 C823 C 0.11917 0.66957 0.11647
 C824 C 0.10124 0.69672 0.11813
 C825 C 0.07057 0.69727 0.10687
 C826 C 0.05806 0.67076 0.09312
 C827 C 0.02751 0.67200 0.08160
 C828 C 0.00978 0.69862 0.08375
 C829 C 0.02190 0.72444 0.09746
 C830 C 0.05196 0.72393 0.10887
 C831 C 0.14970 0.66830 0.12803
 C832 C 0.16726 0.64154 0.12627
 C833 C 0.15494 0.61556 0.11302
 C834 C 0.12497 0.61615 0.10142
 C835 C 0.11476 0.72426 0.13060
 C836 C 0.12653 0.74702 0.14062
 C837 C 0.06381 0.61705 0.07606
 C838 C 0.05326 0.59521 0.06328
 H839 H 0.01695 0.65243 0.07096
 H840 H -0.01360 0.69912 0.07495
 H841 H 0.00794 0.74499 0.09925
 H842 H 0.06040 0.74459 0.11931
 H843 H 0.16028 0.68790 0.13860
 H844 H 0.19055 0.64097 0.13525
 H845 H 0.16868 0.59483 0.11171
 H846 H 0.11640 0.59535 0.09134
 C847 C 0.35318 1.08731 0.91758
 C848 C 0.35343 1.09855 0.88804
 C849 C 0.32593 1.11110 0.87548
 C850 C 0.29836 1.11239 0.89258
 C851 C 0.29824 1.10159 0.92230
 C852 C 0.32571 1.08892 0.93482
 C853 C 0.32493 1.07793 0.96446
 C854 C 0.29779 1.07944 0.98125
 C855 C 0.27102 1.09206 0.96910
 C856 C 0.27109 1.10302 0.93997
 C857 C 0.32670 1.12203 0.84583
 C858 C 0.35387 1.12063 0.82908
 C859 C 0.38076 1.10836 0.84137
 C860 C 0.38068 1.09741 0.87050
 C861 C 0.27010 1.12449 0.87947
 C862 C 0.24670 1.13451 0.86840
 C863 C 0.38086 1.07334 0.93004
 C864 C 0.40333 1.06111 0.94072
 H865 H 0.34523 1.06814 0.97501
 H866 H 0.29762 1.07097 1.00390
 H867 H 0.25006 1.09336 0.98231
 H868 H 0.24966 1.11259 0.93148
 H869 H 0.30638 1.13179 0.83529
 H870 H 0.35405 1.12911 0.80644
 H871 H 0.40180 1.10733 0.82826
 H872 H 0.40217 1.08809 0.87909
 C873 C 0.35100 0.91139 1.07778
 C874 C 0.32951 0.93080 1.09244
 C875 C 0.30236 0.91824 1.10549
 C876 C 0.29672 0.88641 1.10358
 C877 C 0.31763 0.86720 1.08796
 C878 C 0.34488 0.87973 1.07506
 C879 C 0.36543 0.86010 1.05953
 C880 C 0.35916 0.82899 1.05672
 C881 C 0.33251 0.81673 1.06933
 C882 C 0.31193 0.83550 1.08485
 C883 C 0.28129 0.93805 1.12016
 C884 C 0.28668 0.96943 1.12154
 C885 C 0.31306 0.98175 1.10852
 C886 C 0.33442 0.96276 1.09428
 C887 C 0.26961 0.87343 1.11795
 C888 C 0.24725 0.86275 1.13019
 C889 C 0.37916 0.92415 1.06526
 C890 C 0.40209 0.93547 1.05467
 H891 H 0.38640 0.86860 1.04927
 H892 H 0.37506 0.81432 1.04466
 H893 H 0.32775 0.79255 1.06707
 H894 H 0.29148 0.82492 1.09421
 H895 H 0.26034 0.92957 1.13049
 H896 H 0.27023 0.98429 1.13266
 H897 H 0.31692 1.00616 1.10937
 H898 H 0.35462 0.97345 1.08454
 C899 C 0.64626 1.07864 1.08793
 C900 C 0.65844 1.10686 1.07792
 C901 C 0.68566 1.11892 1.09126
 C902 C 0.70060 1.10264 1.11448
 C903 C 0.68853 1.07431 1.12437
 C904 C 0.66115 1.06237 1.11118
 C905 C 0.64935 1.03415 1.12160
 C906 C 0.66432 1.01805 1.14423
 C907 C 0.69124 1.02959 1.15694
 C908 C 0.70327 1.05743 1.14726
 C909 C 0.69739 1.14720 1.08086
 C910 C 0.68269 1.16305 1.05792
 C911 C 0.65610 1.15123 1.04484
 C912 C 0.64400 1.12348 1.05464
 C913 C 0.72818 1.11527 1.12825
 C914 C 0.75094 1.12645 1.13934
 C915 C 0.61896 1.06599 1.07370
 C916 C 0.59670 1.05533 1.06131
 H917 H 0.62858 1.02415 1.11228
 H918 H 0.65511 0.99639 1.15178
 H919 H 0.70288 1.01692 1.17440
 H920 H 0.72425 1.06552 1.15785
 H921 H 0.71805 1.15733 1.09028
 H922 H 0.69200 1.18462 1.05023
 H923 H 0.64477 1.16363 1.02701
 H924 H 0.62324 1.11525 1.04378
 C925 C 0.64867 0.91771 0.91099
 C926 C 0.66334 0.93441 0.88796
 C927 C 0.69117 0.92309 0.87496
 C928 C 0.70395 0.89498 0.88485
 C929 C 0.68924 0.87827 0.90785
 C930 C 0.66154 0.88969 0.92098
 C931 C 0.64733 0.87266 0.94403
 C932 C 0.66012 0.84512 0.95382
 C933 C 0.68719 0.83393 0.94096
 C934 C 0.70167 0.85021 0.91823
 C935 C 0.70564 0.94036 0.85225
 C936 C 0.69290 0.96797 0.84257
 C937 C 0.66556 0.97891 0.85510
 C938 C 0.65086 0.96243 0.87756
 C939 C 0.73206 0.88302 0.87130
 C940 C 0.75526 0.87244 0.86036
 C941 C 0.62089 0.92976 0.92503
 C942 C 0.59827 0.94010 0.93720
 H943 H 0.62622 0.88039 0.95470
 H944 H 0.64895 0.83239 0.97147
 H945 H 0.69703 0.81253 0.94864
 H946 H 0.72271 0.84057 0.90898
 H947 H 0.72692 0.93276 0.84181
 H948 H 0.70432 0.98095 0.82524
 H949 H 0.65581 1.00041 0.84755
 H950 H 0.62974 0.97198 0.88675
   
