data_POSCAR
  _audit_creation_date              2014-09-24
  _audit_creation_method            'ToBaCCo'
  _symmetry_space_group_name_H-M    'P1'
  _symmetry_Int_Tables_number       1
  _symmetry_cell_setting            triclinic
  loop_
  _symmetry_equiv_pos_as_xyz
 x,y,z
_cell_length_a 21.3818
_cell_length_b 21.1110
_cell_length_c 20.8947
_cell_angle_alpha 89.760000
_cell_angle_beta 90.060900
_cell_angle_gamma 89.699200
loop_
  _atom_site_label
  _atom_site_type_symbol
  _atom_site_fract_x
  _atom_site_fract_y
  _atom_site_fract_z
N1 N 0.17878 1.30915 0.13238
 N2 N 0.13677 1.30910 0.17840
 C3 C 0.09321 1.35383 0.16576
 C4 C 0.10954 1.38351 0.10933
 C5 C 0.16368 1.35411 0.08910
 H6 H 0.05101 1.36152 0.19321
 H7 H 0.18793 1.36200 0.04436
 Cu8 Cu 0.13965 1.24438 0.24462
 Cu9 Cu 0.24496 1.24511 0.12698
 Cu10 Cu 0.24393 1.12641 0.24324
 N11 N 0.13558 1.17688 0.30781
 N12 N 0.17724 1.13072 0.30706
 C13 C 0.16166 1.08698 0.35124
 C14 C 0.10763 1.10708 0.38096
 C15 C 0.09184 1.16390 0.35230
 H16 H 0.18577 1.04235 0.35856
 H17 H 0.05005 1.19172 0.36072
 N18 N 0.30715 1.13088 0.17445
 N19 N 0.30751 1.17592 0.13027
 C20 C 0.35248 1.16268 0.08713
 C21 C 0.38159 1.10711 0.10534
 C22 C 0.35188 1.08794 0.16048
 H23 H 0.36119 1.18938 0.04383
 H24 H 0.36002 1.04417 0.18630
 H25 H 0.19537 1.17419 0.17216
 H26 H 0.24929 1.22172 0.22259
 N27 N 0.82202 0.69087 0.13467
 N28 N 0.86578 0.69246 0.17893
 C29 C 0.90895 0.64752 0.16622
 C30 C 0.89078 0.61621 0.11157
 C31 C 0.83572 0.64481 0.09250
 H32 H 0.95222 0.64061 0.19224
 H33 H 0.80987 0.63553 0.04905
 Cu34 Cu 0.86653 0.75850 0.24362
 Cu35 Cu 0.75552 0.75411 0.12970
 Cu36 Cu 0.75681 0.87306 0.24366
 N37 N 0.86728 0.82598 0.30674
 N38 N 0.82396 0.87049 0.30666
 C39 C 0.83824 0.91409 0.35115
 C40 C 0.89312 0.89553 0.38048
 C41 C 0.91071 0.83983 0.35125
 H42 H 0.81257 0.95764 0.35908
 H43 H 0.95347 0.81341 0.35940
 N44 N 0.69274 0.86757 0.17606
 N45 N 0.69228 0.82229 0.13258
 C46 C 0.64693 0.83501 0.08952
 C47 C 0.61765 0.89052 0.10704
 C48 C 0.64768 0.91018 0.16173
 H49 H 0.63825 0.80810 0.04653
 H50 H 0.63968 0.95419 0.18679
 H51 H 0.80547 0.82640 0.17212
 H52 H 0.75526 0.77708 0.22546
 N53 N 0.82836 1.30086 -0.12791
 N54 N 0.86989 1.30265 -0.17432
 C55 C 0.91125 1.34906 -0.16220
 C56 C 0.89424 1.37764 -0.10555
 C57 C 0.84180 1.34598 -0.08478
 H58 H 0.95255 1.35899 -0.19026
 H59 H 0.81759 1.35276 -0.03988
 Cu60 Cu 0.86955 1.23890 -0.24139
 Cu61 Cu 0.76590 1.23421 -0.12223
 Cu62 Cu 0.75705 1.12856 -0.24853
 N63 N 0.86924 1.17523 -0.30834
 N64 N 0.82438 1.13286 -0.31139
 C65 C 0.83767 1.09126 -0.35822
 C66 C 0.89348 1.10888 -0.38580
 C67 C 0.91265 1.16196 -0.35313
 H68 H 0.81092 1.04915 -0.36853
 H69 H 0.95653 1.18655 -0.35900
 N70 N 0.69462 1.13180 -0.17900
 N71 N 0.69832 1.17163 -0.13051
 C72 C 0.65298 1.15794 -0.08801
 C73 C 0.61956 1.10727 -0.11087
 C74 C 0.64701 1.09152 -0.16830
 H75 H 0.64695 1.18058 -0.04210
 H76 H 0.63560 1.05129 -0.19791
 H77 H 0.81024 1.16426 -0.17618
 H78 H 0.75930 1.22221 -0.21962
 N79 N 0.17086 0.69788 -0.12803
 N80 N 0.12849 0.69731 -0.17374
 C81 C 0.08731 0.65064 -0.16173
 C82 C 0.10528 0.62064 -0.10585
 C83 C 0.15814 0.65170 -0.08545
 H84 H 0.04549 0.64149 -0.18924
 H85 H 0.18313 0.64383 -0.04106
 Cu86 Cu 0.12762 0.76249 -0.23998
 Cu87 Cu 0.23353 0.76421 -0.12230
 Cu88 Cu 0.24154 0.87161 -0.24793
 N89 N 0.12819 0.82702 -0.30668
 N90 N 0.17357 0.86878 -0.31016
 C91 C 0.16049 0.91080 -0.35703
 C92 C 0.10425 0.89407 -0.38422
 C93 C 0.08462 0.84110 -0.35127
 H94 H 0.18781 0.95250 -0.36778
 H95 H 0.04048 0.81696 -0.35702
 N96 N 0.30469 0.86706 -0.17902
 N97 N 0.30125 0.82661 -0.13072
 C98 C 0.34681 0.83976 -0.08832
 C99 C 0.38012 0.89071 -0.11108
 C100 C 0.35236 0.90719 -0.16833
 H101 H 0.35303 0.81663 -0.04248
 H102 H 0.36345 0.94792 -0.19764
 H103 H 0.18898 0.83546 -0.17513
 H104 H 0.23845 0.77751 -0.21972
 C105 C 0.49973 0.99870 -0.00407
 C106 C 0.00024 0.49852 1.00249
 C107 C 0.99937 0.00175 0.49723
 C108 C 0.07344 0.42415 1.07456
 C109 C 0.04073 0.45866 1.04266
 C110 C -0.07205 0.57275 1.07489
 C111 C -0.03988 0.53816 1.04284
 C112 C -0.06959 0.42205 0.93061
 C113 C -0.03846 0.45756 0.96237
 C114 C 0.06950 0.57569 0.93034
 C115 C 0.03861 0.53980 0.96215
 C116 C 1.07169 0.07270 0.42172
 C117 C 1.03929 0.04121 0.45659
 C118 C 1.06977 -0.07074 0.57400
 C119 C 1.03839 -0.03855 0.53844
 C120 C 0.92813 -0.06956 0.42142
 C121 C 0.95992 -0.03778 0.45641
 C122 C 0.92829 0.07403 0.57281
 C123 C 0.95995 0.04200 0.53770
 C124 C 0.42504 1.07062 0.06816
 C125 C 0.45975 1.03875 0.03602
 C126 C 0.57510 1.07035 -0.07556
 C127 C 0.53987 1.03844 -0.04419
 C128 C 0.42457 0.92733 -0.07565
 C129 C 0.45974 0.95907 -0.04421
 C130 C 0.57420 0.92686 0.06926
 C131 C 0.53955 0.95863 0.03660
   
