data_POSCAR
  _audit_creation_date              2014-09-24
  _audit_creation_method            'ToBaCCo'
  _symmetry_space_group_name_H-M    'P1'
  _symmetry_Int_Tables_number       1
  _symmetry_cell_setting            triclinic
  loop_
  _symmetry_equiv_pos_as_xyz
 x,y,z
_cell_length_a 45.3169
_cell_length_b 30.7419
_cell_length_c 21.3590
_cell_angle_alpha 89.915300
_cell_angle_beta 89.846300
_cell_angle_gamma 89.981300
loop_
  _atom_site_label
  _atom_site_type_symbol
  _atom_site_fract_x
  _atom_site_fract_y
  _atom_site_fract_z
C1 C 0.67370 0.29274 0.49848
 C2 C 0.68402 0.27681 0.55638
 C3 C 0.71012 0.25154 0.55621
 C4 C 0.72682 0.24528 0.50097
 C5 C 0.71652 0.26419 0.44504
 C6 C 0.68947 0.28607 0.44281
 C7 C 0.75457 0.21844 0.50103
 C8 C 0.76441 0.19794 0.44583
 C9 C 0.79100 0.17418 0.44359
 C10 C 0.80544 0.16584 0.50084
 C11 C 0.79589 0.18495 0.55726
 C12 C 0.77134 0.21293 0.55583
 H13 H 0.65227 0.30810 0.49561
 H14 H 0.71796 0.23768 0.59941
 H15 H 0.72934 0.26201 0.40242
 H16 H 0.75082 0.19925 0.40445
 H17 H 0.82489 0.14579 0.50161
 H18 H 0.76560 0.23080 0.59759
 C19 C 0.19049 0.82577 0.49903
 C20 C 0.20165 0.81106 0.55685
 C21 C 0.22904 0.78893 0.55663
 C22 C 0.24616 0.78486 0.50150
 C23 C 0.23492 0.80304 0.44577
 C24 C 0.20664 0.82133 0.44341
 C25 C 0.27526 0.76100 0.50116
 C26 C 0.28635 0.74319 0.44498
 C27 C 0.31373 0.72225 0.44278
 C28 C 0.32925 0.71542 0.49849
 C29 C 0.31834 0.73029 0.55648
 C30 C 0.29196 0.75494 0.55644
 H31 H 0.16822 0.83827 0.49623
 H32 H 0.23740 0.77589 0.59980
 H33 H 0.24789 0.80301 0.40328
 H34 H 0.27376 0.74487 0.40218
 H35 H 0.35084 0.70049 0.49574
 H36 H 0.28388 0.76799 0.59993
 C37 C 0.30892 0.32499 -0.49942
 C38 C 0.29278 0.32144 -0.55501
 C39 C 0.26429 0.30360 -0.55272
 C40 C 0.25268 0.28571 -0.49689
 C41 C 0.26964 0.28952 -0.44176
 C42 C 0.29725 0.31036 -0.44229
 C43 C 0.22353 0.26219 -0.49710
 C44 C 0.20670 0.25669 -0.44177
 C45 C 0.18035 0.23204 -0.44131
 C46 C 0.16963 0.21658 -0.49903
 C47 C 0.18537 0.22273 -0.55481
 C48 C 0.21269 0.24385 -0.55297
 H49 H 0.33115 0.33788 -0.50077
 H50 H 0.25137 0.30381 -0.59515
 H51 H 0.26169 0.27636 -0.39802
 H52 H 0.21473 0.27010 -0.39853
 H53 H 0.14807 0.20160 -0.50151
 H54 H 0.22547 0.24520 -0.59569
 C55 C -0.17530 0.79517 -0.49143
 C56 C -0.18488 0.77818 -0.54916
 C57 C -0.21063 0.75234 -0.54929
 C58 C -0.22780 0.74616 -0.49469
 C59 C -0.21818 0.76579 -0.43873
 C60 C -0.19140 0.78854 -0.43607
 C61 C -0.25471 0.71744 -0.49590
 C62 C -0.26490 0.69647 -0.44107
 C63 C -0.28881 0.66734 -0.44266
 C64 C -0.30074 0.65629 -0.50110
 C65 C -0.29258 0.67854 -0.55593
 C66 C -0.27011 0.70996 -0.55225
 H67 H -0.15408 0.81111 -0.48838
 H68 H -0.21777 0.73770 -0.59242
 H69 H -0.23119 0.76342 -0.39643
 H70 H -0.25447 0.70292 -0.39684
 H71 H -0.31677 0.63036 -0.50366
 H72 H -0.26501 0.72903 -0.59334
 N73 N 0.02635 1.08192 -0.06177
 N74 N 0.04474 1.11433 -0.07314
 N75 N -0.03304 1.04498 -0.10727
 N76 N -0.05347 1.05108 -0.15025
 N77 N -0.03561 1.07385 -0.06233
 N78 N -0.05821 1.09995 -0.07297
 N79 N 0.02853 1.05207 -0.10548
 N80 N 0.04826 1.06353 -0.14792
 C81 C 0.05845 1.10222 -0.12681
 C82 C -0.06916 1.08514 -0.12785
 N83 N -0.02721 0.92106 -0.06519
 N84 N -0.04788 0.89157 -0.07498
 N85 N 0.03359 0.95814 -0.10725
 N86 N 0.05426 0.95187 -0.15001
 N87 N 0.03474 0.92764 -0.06423
 N88 N 0.05630 0.90004 -0.07631
 N89 N -0.02826 0.95151 -0.10833
 N90 N -0.04960 0.94356 -0.14860
 Mn91 Mn 0.00028 1.00165 -0.10771
 C92 C -0.06173 0.90612 -0.12718
 C93 C 0.06849 0.91573 -0.12967
 N94 N -0.03610 1.07243 0.07260
 N95 N -0.05964 1.09690 0.08230
 N96 N 0.02759 1.04982 0.11574
 N97 N 0.04866 1.05863 0.15627
 N98 N 0.02591 1.08038 0.07294
 N99 N 0.04593 1.11074 0.08297
 N100 N -0.03415 1.04209 0.11567
 N101 N -0.05617 1.04511 0.15591
 Mn102 Mn -0.00494 1.07766 0.00542
 C103 C -0.07198 1.07934 0.13443
 C104 C 0.06003 1.09665 0.13506
 N105 N 0.03449 0.92659 0.07042
 N106 N 0.05756 0.90117 0.07987
 N107 N -0.02889 0.94906 0.11415
 N108 N -0.04858 0.93816 0.15693
 N109 N -0.02748 0.91942 0.07009
 N110 N -0.04620 0.88748 0.08180
 N111 N 0.03283 0.95651 0.11406
 N112 N 0.05458 0.95219 0.15449
 Mn113 Mn 0.00362 0.92317 0.00273
 Mn114 Mn -0.00062 0.99939 0.11551
 Cl115 Cl -0.00040 1.00047 0.00392
 C116 C 0.06995 0.91768 0.13244
 C117 C -0.05942 0.89986 0.13592
 N118 N 0.52691 0.44854 -0.10966
 N119 N 0.54652 0.43769 -0.15266
 N120 N 0.46423 0.42643 -0.06277
 N121 N 0.44285 0.39837 -0.07386
 N122 N 0.46515 0.45640 -0.10662
 N123 N 0.44444 0.44940 -0.14878
 N124 N 0.52600 0.41915 -0.06503
 N125 N 0.54496 0.38750 -0.07653
 C126 C 0.55778 0.39970 -0.13119
 C127 C 0.43047 0.41335 -0.12731
 N128 N 0.46673 0.45881 0.11416
 N129 N 0.44493 0.45523 0.15498
 N130 N 0.52700 0.42083 0.07017
 N131 N 0.54738 0.39085 0.07989
 N132 N 0.52851 0.45128 0.11305
 N133 N 0.54987 0.44293 0.15304
 N134 N 0.46500 0.42817 0.07162
 N135 N 0.44188 0.40308 0.08206
 Mn136 Mn 0.49560 0.42316 0.00358
 C137 C 0.42950 0.42042 0.13414
 C138 C 0.56155 0.40522 0.13172
 N139 N 0.47085 0.55028 -0.10923
 N140 N 0.45089 0.56119 -0.15134
 N141 N 0.53546 0.57154 -0.06869
 N142 N 0.55971 0.59451 -0.07845
 N143 N 0.53239 0.54175 -0.11219
 N144 N 0.55407 0.54404 -0.15327
 N145 N 0.47344 0.58091 -0.06681
 N146 N 0.45510 0.61326 -0.07862
 Mn147 Mn 0.49872 0.49927 -0.11005
 C148 C 0.44100 0.60038 -0.13126
 C149 C 0.57098 0.57688 -0.13148
 N150 N 0.53383 0.54435 0.11119
 N151 N 0.55474 0.54990 0.15323
 N152 N 0.47415 0.58211 0.06797
 N153 N 0.45429 0.61290 0.07758
 N154 N 0.47230 0.55213 0.11164
 N155 N 0.45136 0.56173 0.15224
 N156 N 0.53620 0.57328 0.06620
 N157 N 0.55912 0.59896 0.07593
 Mn158 Mn 0.50028 0.50163 0.11312
 Mn159 Mn 0.50491 0.57752 -0.00037
 Cl160 Cl 0.49986 0.50041 0.00151
 C161 C 0.57050 0.58374 0.13031
 C162 C 0.44018 0.59960 0.13033
 C163 C 0.34146 0.37628 0.32402
 C164 C 0.33708 0.34953 0.27335
 C165 C 0.31745 0.31481 0.27453
 C166 C 0.30208 0.30688 0.33056
 C167 C 0.30655 0.33353 0.38406
 C168 C 0.32620 0.36929 0.37992
 O169 O 0.36238 0.40577 0.31457
 C170 C 0.37153 0.39733 0.25679
 C171 C 0.35675 0.36325 0.22942
 C172 C 0.36402 0.34734 0.17042
 C173 C 0.38765 0.36711 0.13864
 C174 C 0.40344 0.40201 0.16621
 C175 C 0.39492 0.41764 0.22586
 H176 H 0.31474 0.29374 0.23441
 H177 H 0.28769 0.27883 0.33292
 H178 H 0.33023 0.39034 0.41957
 H179 H 0.35233 0.32010 0.15016
 H180 H 0.39393 0.35473 0.09307
 H181 H 0.40678 0.44378 0.24855
 C182 C -0.13637 0.83334 0.33358
 C183 C -0.13726 0.80428 0.28490
 C184 C -0.15338 0.76592 0.28784
 C185 C -0.16924 0.75721 0.34312
 C186 C -0.16874 0.78668 0.39485
 C187 C -0.15178 0.82543 0.38885
 O188 O -0.11969 0.86784 0.32185
 C189 C -0.10969 0.86031 0.26452
 C190 C -0.11972 0.82185 0.23962
 C191 C -0.11141 0.80747 0.18034
 C192 C -0.09180 0.83367 0.14576
 C193 C -0.08107 0.87335 0.17086
 C194 C -0.09044 0.88686 0.23096
 H195 H -0.15353 0.74322 0.24916
 H196 H -0.18074 0.72648 0.34574
 H197 H -0.15123 0.85002 0.42500
 H198 H -0.11948 0.77702 0.16167
 H199 H -0.08480 0.82288 0.09983
 H200 H -0.08256 0.91680 0.25168
 C201 C 0.64874 0.64438 0.32768
 C202 C 0.66325 0.65009 0.27170
 C203 C 0.69217 0.66512 0.26842
 C204 C 0.70667 0.67432 0.32509
 C205 C 0.69195 0.66934 0.38369
 C206 C 0.66227 0.65465 0.38409
 O207 O 0.62189 0.62794 0.32141
 C208 C 0.61927 0.62324 0.26004
 C209 C 0.64375 0.63682 0.22715
 C210 C 0.64525 0.63521 0.16200
 C211 C 0.62060 0.61870 0.12981
 C212 C 0.59566 0.60323 0.16329
 C213 C 0.59504 0.60567 0.22925
 H214 H 0.70342 0.66869 0.22394
 H215 H 0.72951 0.68444 0.32298
 H216 H 0.64974 0.65120 0.42697
 H217 H 0.66464 0.64627 0.13692
 H218 H 0.62120 0.61690 0.07919
 H219 H 0.57615 0.59439 0.25584
 C220 C 0.14194 1.15956 0.32478
 C221 C 0.14369 1.18720 0.27420
 C222 C 0.15986 1.22563 0.27538
 C223 C 0.17442 1.23629 0.33126
 C224 C 0.17249 1.20869 0.38457
 C225 C 0.15636 1.16936 0.38053
 O226 O 0.12422 1.12590 0.31530
 C227 C 0.11443 1.13251 0.25761
 C228 C 0.12564 1.16956 0.23029
 C229 C 0.11697 1.18381 0.17126
 C230 C 0.09571 1.15906 0.13944
 C231 C 0.08367 1.12093 0.16700
 C232 C 0.09353 1.10729 0.22666
 H233 H 0.16059 1.24720 0.23532
 H234 H 0.18622 1.26686 0.33370
 H235 H 0.15441 1.14752 0.42014
 H236 H 0.12581 1.21336 0.15099
 H237 H 0.08835 1.16994 0.09384
 H238 H 0.08449 1.07871 0.24935
 C239 C 0.63546 0.33267 -0.32724
 C240 C 0.63704 0.30455 -0.27740
 C241 C 0.65387 0.26678 -0.27905
 C242 C 0.66965 0.25761 -0.33430
 C243 C 0.66830 0.28597 -0.38732
 C244 C 0.65078 0.32429 -0.38244
 O245 O 0.61817 0.36670 -0.31674
 C246 C 0.60845 0.35984 -0.25900
 C247 C 0.61927 0.32225 -0.23265
 C248 C 0.61134 0.30860 -0.17274
 C249 C 0.59129 0.33461 -0.13905
 C250 C 0.57976 0.37341 -0.16559
 C251 C 0.58875 0.38622 -0.22632
 H252 H 0.65460 0.24483 -0.23942
 H253 H 0.68172 0.22731 -0.33587
 H254 H 0.64964 0.34821 -0.41954
 H255 H 0.62001 0.27883 -0.15292
 H256 H 0.58462 0.32435 -0.09261
 H257 H 0.58025 0.41545 -0.24813
 C258 C 0.15021 0.86082 -0.32641
 C259 C 0.15358 0.83305 -0.27660
 C260 C 0.17242 0.79744 -0.27844
 C261 C 0.18848 0.79014 -0.33385
 C262 C 0.18547 0.81825 -0.38682
 C263 C 0.16583 0.85431 -0.38180
 O264 O 0.13096 0.89249 -0.31570
 C265 C 0.12182 0.88441 -0.25782
 C266 C 0.13497 0.84839 -0.23168
 C267 C 0.12806 0.83359 -0.17185
 C268 C 0.10649 0.85658 -0.13799
 C269 C 0.09242 0.89361 -0.16428
 C270 C 0.10051 0.90789 -0.22491
 H271 H 0.17445 0.77565 -0.23883
 H272 H 0.20211 0.76133 -0.33552
 H273 H 0.16324 0.87795 -0.41893
 H274 H 0.13858 0.80507 -0.15226
 H275 H 0.10054 0.84520 -0.09165
 H276 H 0.09004 0.93576 -0.24652
 C277 C 0.36554 0.67186 -0.32756
 C278 C 0.36369 0.69914 -0.27692
 C279 C 0.34711 0.73718 -0.27788
 C280 C 0.33186 0.74751 -0.33327
 C281 C 0.33358 0.72010 -0.38713
 C282 C 0.35084 0.68148 -0.38297
 O283 O 0.38242 0.63730 -0.31755
 C284 C 0.39163 0.64296 -0.25929
 C285 C 0.38091 0.68035 -0.23218
 C286 C 0.38846 0.69291 -0.17172
 C287 C 0.40803 0.66605 -0.13829
 C288 C 0.41940 0.62738 -0.16552
 C289 C 0.41078 0.61564 -0.22678
 H290 H 0.34613 0.75843 -0.23756
 H291 H 0.31989 0.77791 -0.33427
 H292 H 0.35218 0.65822 -0.42084
 H293 H 0.37990 0.72256 -0.15131
 H294 H 0.41444 0.67551 -0.09145
 H295 H 0.41925 0.58659 -0.24915
 C296 C -0.14514 1.15208 -0.32543
 C297 C -0.16076 1.15368 -0.27026
 C298 C -0.19028 1.16581 -0.26778
 C299 C -0.20429 1.17624 -0.32449
 C300 C -0.18854 1.17560 -0.38236
 C301 C -0.15821 1.16396 -0.38183
 O302 O -0.11788 1.13718 -0.31857
 C303 C -0.11619 1.12932 -0.25765
 C304 C -0.14166 1.13944 -0.22562
 C305 C -0.14442 1.13398 -0.16111
 C306 C -0.11998 1.11716 -0.12857
 C307 C -0.09401 1.10507 -0.16127
 C308 C -0.09209 1.11135 -0.22662
 H309 H -0.20237 1.16593 -0.22400
 H310 H -0.22762 1.18360 -0.32304
 H311 H -0.14487 1.16373 -0.42384
 H312 H -0.16462 1.14233 -0.13676
 H313 H -0.12153 1.11241 -0.07841
 H314 H -0.07238 1.10259 -0.25248
 C315 C 0.65289 0.62910 -0.32761
 C316 C 0.66859 0.62711 -0.27276
 C317 C 0.69875 0.63546 -0.27044
 C318 C 0.71309 0.64686 -0.32671
 C319 C 0.69704 0.65086 -0.38375
 C320 C 0.66638 0.64153 -0.38328
 O321 O 0.62463 0.61920 -0.32080
 C322 C 0.62227 0.61100 -0.26015
 C323 C 0.64838 0.61593 -0.22813
 C324 C 0.65028 0.61049 -0.16344
 C325 C 0.62430 0.59903 -0.13095
 C326 C 0.59759 0.59228 -0.16388
 C327 C 0.59662 0.59844 -0.22924
 H328 H 0.71085 0.63307 -0.22695
 H329 H 0.73662 0.65252 -0.32530
 H330 H 0.65280 0.64517 -0.42451
 H331 H 0.67091 0.61501 -0.13891
 H332 H 0.62513 0.59423 -0.08074
 H333 H 0.57637 0.59379 -0.25525
 C334 C 0.13327 1.17408 -0.32435
 C335 C 0.13503 1.20159 -0.27396
 C336 C 0.15147 1.23975 -0.27550
 C337 C 0.16667 1.24991 -0.33119
 C338 C 0.16506 1.22220 -0.38473
 C339 C 0.14793 1.18351 -0.37999
 O340 O 0.11658 1.13942 -0.31386
 C341 C 0.10739 1.14522 -0.25554
 C342 C 0.11794 1.18280 -0.22881
 C343 C 0.11040 1.19540 -0.16826
 C344 C 0.09103 1.16837 -0.13435
 C345 C 0.07984 1.12955 -0.16128
 C346 C 0.08844 1.11780 -0.22263
 H347 H 0.15239 1.26118 -0.23539
 H348 H 0.17857 1.28036 -0.33265
 H349 H 0.14670 1.16001 -0.41754
 H350 H 0.11884 1.22518 -0.14812
 H351 H 0.08462 1.17783 -0.08743
 H352 H 0.08014 1.08862 -0.24478
 C353 C 0.34665 0.36100 -0.32014
 C354 C 0.34702 0.32899 -0.27513
 C355 C 0.33148 0.29021 -0.28141
 C356 C 0.31498 0.28420 -0.33638
 C357 C 0.31423 0.31685 -0.38355
 C358 C 0.33023 0.35592 -0.37459
 O359 O 0.36370 0.39471 -0.30650
 C360 C 0.37516 0.38379 -0.25164
 C361 C 0.36561 0.34398 -0.23015
 C362 C 0.37548 0.32594 -0.17425
 C363 C 0.39629 0.34966 -0.13960
 C364 C 0.40688 0.39042 -0.16153
 C365 C 0.39583 0.40783 -0.21809
 H366 H 0.33240 0.26520 -0.24575
 H367 H 0.30336 0.25377 -0.34265
 H368 H 0.33002 0.38174 -0.40913
 H369 H 0.36777 0.29448 -0.15832
 H370 H 0.40458 0.33582 -0.09644
 H371 H 0.40357 0.43868 -0.23632
 C372 C -0.14714 0.84958 -0.31448
 C373 C -0.14882 0.82123 -0.26473
 C374 C -0.16556 0.78335 -0.26650
 C375 C -0.18065 0.77389 -0.32221
 C376 C -0.17875 0.80214 -0.37486
 C377 C -0.16218 0.84107 -0.37000
 O378 O -0.12866 0.88233 -0.30484
 C379 C -0.11831 0.87440 -0.24791
 C380 C -0.12992 0.83742 -0.22119
 C381 C -0.12076 0.82181 -0.16319
 C382 C -0.09862 0.84512 -0.13175
 C383 C -0.08615 0.88316 -0.15870
 C384 C -0.09649 0.89815 -0.21736
 H385 H -0.16620 0.76114 -0.22716
 H386 H -0.19266 0.74353 -0.32519
 H387 H -0.16014 0.86338 -0.40903
 H388 H -0.12991 0.79231 -0.14341
 H389 H -0.09092 0.83319 -0.08695
 H390 H -0.08717 0.92670 -0.23963
 C391 C 0.35776 0.66109 0.32078
 C392 C 0.35646 0.68965 0.27121
 C393 C 0.34037 0.72814 0.27356
 C394 C 0.32543 0.73785 0.32956
 C395 C 0.32694 0.70927 0.38185
 C396 C 0.34301 0.66995 0.37662
 O397 O 0.37536 0.62742 0.31036
 C398 C 0.38554 0.63494 0.25312
 C399 C 0.37472 0.67258 0.22692
 C400 C 0.38383 0.68761 0.16843
 C401 C 0.40509 0.66297 0.13601
 C402 C 0.41668 0.62423 0.16251
 C403 C 0.40641 0.60992 0.22164
 H404 H 0.33994 0.75044 0.23431
 H405 H 0.31366 0.76841 0.33296
 H406 H 0.34464 0.64739 0.41543
 H407 H 0.37529 0.71760 0.14900
 H408 H 0.41278 0.67437 0.09084
 H409 H 0.41505 0.58081 0.24355
 C410 C -0.16032 1.12028 0.32479
 C411 C -0.16624 1.14526 0.27301
 C412 C -0.18741 1.17783 0.27321
 C413 C -0.20257 1.18577 0.32944
 C414 C -0.19635 1.16150 0.38513
 C415 C -0.17522 1.12726 0.38108
 O416 O -0.13831 1.09247 0.31594
 C417 C -0.12998 1.10040 0.25744
 C418 C -0.14634 1.13245 0.22897
 C419 C -0.14005 1.14777 0.16903
 C420 C -0.11577 1.12953 0.13747
 C421 C -0.09848 1.09661 0.16616
 C422 C -0.10603 1.08154 0.22674
 H423 H -0.19139 1.19760 0.23211
 H424 H -0.21756 1.21314 0.32973
 H425 H -0.17002 1.10634 0.42019
 H426 H -0.15295 1.17350 0.14788
 H427 H -0.11022 1.14143 0.09117
 H428 H -0.09302 1.05696 0.25034
 C429 C 0.64545 0.34693 0.32067
 C430 C 0.64702 0.31839 0.27122
 C431 C 0.66339 0.28018 0.27359
 C432 C 0.67830 0.27067 0.32954
 C433 C 0.67653 0.29920 0.38176
 C434 C 0.66023 0.33832 0.37644
 O435 O 0.62742 0.38013 0.31036
 C436 C 0.61725 0.37229 0.25333
 C437 C 0.62851 0.33494 0.22717
 C438 C 0.61944 0.31945 0.16911
 C439 C 0.59771 0.34328 0.13706
 C440 C 0.58562 0.38169 0.16350
 C441 C 0.59589 0.39656 0.22217
 H442 H 0.66397 0.25785 0.23448
 H443 H 0.69017 0.24019 0.33297
 H444 H 0.65833 0.36080 0.41521
 H445 H 0.62832 0.28965 0.14978
 H446 H 0.59002 0.33147 0.09224
 H447 H 0.58685 0.42540 0.24405
 C448 C 0.15823 0.87484 0.32128
 C449 C 0.16220 0.84702 0.27158
 C450 C 0.18156 0.81198 0.27372
 C451 C 0.19703 0.80487 0.32970
 C452 C 0.19293 0.83264 0.38223
 C453 C 0.17359 0.86868 0.37707
 O454 O 0.13753 0.90453 0.31120
 C455 C 0.12811 0.89514 0.25405
 C456 C 0.14247 0.86026 0.22761
 C457 C 0.13482 0.84346 0.16939
 C458 C 0.11125 0.86319 0.13746
 C459 C 0.09592 0.89891 0.16419
 C460 C 0.10482 0.91535 0.22303
 H461 H 0.18398 0.79007 0.23442
 H462 H 0.21120 0.77660 0.33288
 H463 H 0.16983 0.89054 0.41598
 H464 H 0.14618 0.81561 0.14984
 H465 H 0.10466 0.85018 0.09254
 H466 H 0.09334 0.94218 0.24511
   
