data_POSCAR
  _audit_creation_date              2014-09-24
  _audit_creation_method            'ToBaCCo'
  _symmetry_space_group_name_H-M    'P1'
  _symmetry_Int_Tables_number       1
  _symmetry_cell_setting            triclinic
  loop_
  _symmetry_equiv_pos_as_xyz
 x,y,z
_cell_length_a 16.0512
_cell_length_b 16.0744
_cell_length_c 41.0007
_cell_angle_alpha 90.713800
_cell_angle_beta 92.745600
_cell_angle_gamma 118.765700
loop_
  _atom_site_label
  _atom_site_type_symbol
  _atom_site_fract_x
  _atom_site_fract_y
  _atom_site_fract_z
Si1 Si 0.04747 0.01101 0.49884
 Si2 Si 0.98756 -0.02407 0.16885
 Si3 Si -0.04514 0.98097 0.83256
 O4 O 0.44676 0.10437 0.03038
 O5 O 0.60160 0.10242 -0.03201
 O6 O 0.43612 0.09432 -0.03271
 O7 O 0.61793 0.12195 0.03193
 O8 O 0.55139 -0.03414 0.03376
 O9 O 0.37425 -0.06145 -0.03108
 O10 O 0.53958 -0.05312 -0.02930
 O11 O 0.38005 -0.05155 0.03271
 Cu12 Cu 0.53259 0.12153 -0.00063
 Cu13 Cu 0.45460 -0.06570 0.00195
 C14 C 0.38557 0.02694 0.04173
 C15 C 0.59690 0.02463 -0.04151
 C16 C 0.37473 0.01128 -0.04307
 C17 C 0.61575 0.04812 0.04361
 O18 O -0.07825 0.53829 0.63645
 O19 O -0.06289 0.38090 0.69820
 O20 O -0.07531 0.53734 0.69972
 O21 O -0.09163 0.36968 0.63473
 O22 O 0.06524 0.44079 0.63481
 O23 O 0.08080 0.61622 0.69686
 O24 O 0.09398 0.46043 0.69829
 O25 O 0.07786 0.60905 0.63357
 Cu26 Cu -0.09255 0.44886 0.66739
 Cu27 Cu 0.09500 0.53884 0.66578
 C28 C -0.00244 0.60101 0.62461
 C29 C 0.01861 0.39454 0.70897
 C30 C 0.00503 0.60690 0.70873
 C31 C -0.01629 0.37564 0.62398
 O32 O 0.54238 0.61035 0.30134
 O33 O 0.40272 0.46501 0.36670
 O34 O 0.56059 0.62443 0.36509
 O35 O 0.38397 0.45152 0.30289
 O36 O 0.47245 0.38096 0.30046
 O37 O 0.63267 0.53705 0.36708
 O38 O 0.47434 0.37751 0.36410
 O39 O 0.63136 0.53992 0.30347
 Cu40 Cu 0.46423 0.54579 0.33403
 Cu41 Cu 0.56082 0.45088 0.33375
 C42 C 0.61136 0.60118 0.29147
 C43 C 0.41348 0.39590 0.37636
 C44 C 0.62527 0.60791 0.37727
 C45 C 0.40035 0.38834 0.29047
 C46 C -0.03147 0.17194 0.55416
 C47 C 0.05377 0.23179 0.57248
 N48 N 0.13245 0.22297 0.56851
 C49 C 0.13012 0.15717 0.54695
 C50 C 0.04577 0.09820 0.52820
 N51 N -0.03371 0.10649 0.53219
 N52 N -0.11051 0.18001 0.55892
 C53 C -0.10812 0.24498 0.58114
 C54 C -0.02248 0.30540 0.59925
 N55 N 0.05633 0.29704 0.59431
 H56 H 0.19396 0.15140 0.54429
 H57 H -0.17221 0.24967 0.58452
 C58 C 0.77168 0.78653 0.21938
 C59 C 0.81361 0.74711 0.24047
 N60 N 0.90766 0.77414 0.23873
 C61 C 0.96152 0.83928 0.21702
 C62 C 0.91910 0.87839 0.19603
 N63 N 0.82519 0.85083 0.19782
 N64 N 0.67904 0.76290 0.22158
 C65 C 0.62609 0.70212 0.24423
 C66 C 0.66740 0.66269 0.26568
 N67 N 0.76044 0.68555 0.26311
 H68 H 1.03664 0.86137 0.21649
 H69 H 0.55239 0.68509 0.24555
 C70 C 0.16013 -0.03431 -0.11570
 C71 C 0.20777 0.05270 -0.09787
 N72 N 0.17994 0.11951 -0.10287
 C73 C 0.10613 0.10270 -0.12472
 C74 C 0.05863 0.01535 -0.14245
 N75 N 0.08714 -0.05069 -0.13734
 N76 N 0.18482 -0.10273 -0.11024
 C77 C 0.25475 -0.08873 -0.08741
 C78 C 0.30253 -0.00217 -0.06914
 N79 N 0.27833 0.06716 -0.07501
 H80 H 0.08383 0.15603 -0.12771
 H81 H 0.27247 -0.14499 -0.08345
 C82 C -0.01464 0.79871 0.56044
 C83 C 0.06966 0.79334 0.56525
 N84 N 0.14800 0.85394 0.54961
 C85 C 0.14552 0.91963 0.52939
 C86 C 0.06124 0.92528 0.52500
 N87 N -0.01644 0.86477 0.54078
 N88 N -0.09351 0.73799 0.57549
 C89 C -0.09205 0.67206 0.59550
 C90 C -0.00739 0.66725 0.60108
 N91 N 0.07175 0.72827 0.58570
 H92 H 0.20852 0.96719 0.51721
 H93 H -0.15592 0.62524 0.60743
 C94 C 0.21845 0.18646 0.21762
 C95 C 0.18185 0.22823 0.23889
 N96 N 0.08642 0.19724 0.23734
 C97 C 0.02618 0.12562 0.21577
 C98 C 0.06323 0.08340 0.19491
 N99 N 0.15854 0.11541 0.19636
 N100 N 0.31269 0.21411 0.21958
 C101 C 0.37244 0.28091 0.24226
 C102 C 0.33653 0.32218 0.26410
 N103 N 0.24176 0.29557 0.26169
 H104 H -0.04970 0.10038 0.21546
 H105 H 0.44729 0.30084 0.24345
 C106 C 0.77871 0.03161 -0.11381
 C107 C 0.73423 -0.04815 -0.09466
 N108 N 0.75366 -0.12115 -0.09864
 C109 C 0.81594 -0.11750 -0.12082
 C110 C 0.85982 -0.03775 -0.14001
 N111 N 0.84015 0.03484 -0.13586
 N112 N 0.76237 0.10606 -0.10939
 C113 C 0.70370 0.10493 -0.08645
 C114 C 0.65884 0.02550 -0.06703
 N115 N 0.67484 -0.04975 -0.07177
 H116 H 0.83215 -0.17526 -0.12307
 H117 H 0.69226 0.16561 -0.08345
 C118 C 0.19200 0.03654 0.10592
 C119 C 0.19677 -0.04769 0.10145
 N120 N 0.13789 -0.12576 0.11777
 C121 C 0.07468 -0.12299 0.13832
 C122 C 0.06994 -0.03861 0.14240
 N123 N 0.12859 0.03867 0.12595
 N124 N 0.25081 0.11518 0.09025
 C125 C 0.31450 0.11377 0.07003
 C126 C 0.31924 0.02946 0.06490
 N127 N 0.25989 -0.04975 0.08081
 H128 H 0.02839 -0.18580 0.15100
 H129 H 0.36001 0.17777 0.05773
 C130 C 0.83235 0.78465 0.45004
 C131 C 0.78997 0.82297 0.42866
 N132 N 0.82211 0.91837 0.43009
 C133 C 0.89540 0.97692 0.45165
 C134 C 0.93817 0.93811 0.47262
 N135 N 0.90502 0.84287 0.47126
 N136 N 0.80359 0.69046 0.44824
 C137 C 0.73506 0.63238 0.42560
 C138 C 0.69314 0.66999 0.40364
 N139 N 0.72087 0.76472 0.40589
 H140 H 0.92147 1.05280 0.45187
 H141 H 0.71430 0.55752 0.42453
 C142 C 0.03367 0.20884 0.77839
 C143 C -0.05160 0.18594 0.76016
 N144 N -0.13040 0.10189 0.76415
 C145 C -0.12826 0.03952 0.78566
 C146 C -0.04381 0.06252 0.80439
 N147 N 0.03579 0.14681 0.80032
 N148 N 0.11280 0.29251 0.77365
 C149 C 0.11046 0.35406 0.75155
 C150 C 0.02476 0.33140 0.73354
 N151 N -0.05413 0.24764 0.73845
 H152 H -0.19249 -0.02718 0.78830
 H153 H 0.17462 0.42009 0.74819
 C154 C 0.82560 0.06111 0.11321
 C155 C 0.76291 -0.02333 0.09547
 N156 N 0.76994 -0.10305 0.09992
 C157 C 0.83679 -0.10263 0.12146
 C158 C 0.89868 -0.01921 0.13972
 N159 N 0.89225 0.06148 0.13522
 N160 N 0.81889 0.14110 0.10782
 C161 C 0.75240 0.14022 0.08557
 C162 C 0.68907 0.05514 0.06815
 N163 N 0.69641 -0.02428 0.07372
 H164 H 0.84113 -0.16730 0.12446
 H165 H 0.74865 0.20483 0.08168
 C166 C 0.23456 0.23037 0.44878
 C167 C 0.27195 0.18998 0.42728
 N168 N 0.24469 0.09581 0.42871
 C169 C 0.18116 0.04038 0.45048
 C170 C 0.14392 0.08125 0.47182
 N171 N 0.17182 0.17528 0.47036
 N172 N 0.25825 0.32312 0.44689
 C173 C 0.31709 0.37768 0.42416
 C174 C 0.35440 0.33795 0.40227
 N175 N 0.33157 0.24477 0.40453
 H176 H 0.15870 -0.03478 0.45072
 H177 H 0.33419 0.45144 0.42309
 C178 C 0.01772 0.82099 0.77273
 C179 C -0.06752 0.73554 0.76718
 N180 N -0.14670 0.72351 0.78187
 C181 C -0.14416 0.79338 0.80185
 C182 C -0.05888 0.87909 0.80699
 N183 N 0.01963 0.89054 0.79214
 N184 N 0.09729 0.83357 0.75853
 C185 C 0.09563 0.76463 0.73864
 C186 C 0.01008 0.67939 0.73229
 N187 N -0.06975 0.66683 0.74686
 H188 H -0.20794 0.78262 0.81316
 H189 H 0.16011 0.77727 0.72738
   
