data_POSCAR
  _audit_creation_date              2014-09-24
  _audit_creation_method            'ToBaCCo'
  _symmetry_space_group_name_H-M    'P1'
  _symmetry_Int_Tables_number       1
  _symmetry_cell_setting            triclinic
  loop_
  _symmetry_equiv_pos_as_xyz
 x,y,z
_cell_length_a 33.0462
_cell_length_b 33.2907
_cell_length_c 84.0433
_cell_angle_alpha 81.820700
_cell_angle_beta 92.117600
_cell_angle_gamma 121.041400
loop_
  _atom_site_label
  _atom_site_type_symbol
  _atom_site_fract_x
  _atom_site_fract_y
  _atom_site_fract_z
C1 C -0.04959 0.07798 0.52172
 H2 H -0.02077 0.07129 0.52245
 C3 C -0.05054 0.10825 0.53133
 H4 H -0.02291 0.12310 0.53978
 C5 C -0.12112 0.06453 0.51010
 H6 H -0.14817 0.04769 0.50163
 C7 C -0.12267 0.09599 0.51914
 H8 H -0.15103 0.10319 0.51735
 N9 N -0.08494 0.05613 0.51161
 C10 C -0.07227 -0.06486 0.50500
 H11 H -0.06929 -0.06089 0.49202
 C12 C -0.07505 -0.10456 0.51435
 H13 H -0.07407 -0.13091 0.50844
 C14 C -0.08053 -0.03696 0.52834
 H15 H -0.08440 -0.01169 0.53383
 C16 C -0.08298 -0.07569 0.53812
 H17 H -0.08683 -0.07838 0.55103
 Zn18 Zn -0.07776 0.01767 0.49884
 N19 N -0.07501 -0.03200 0.51209
 C20 C 0.01311 0.04899 0.48410
 N21 N -0.02176 0.05842 0.48598
 C22 C -0.01864 0.09884 0.47839
 C23 C 0.01970 0.13093 0.46796
 C24 C 0.05223 0.08021 0.47364
 C25 C -0.17117 -0.04753 0.49216
 C26 C -0.20709 -0.07629 0.48255
 C27 C -0.15697 -0.02785 0.45906
 C28 C -0.12197 -0.00063 0.46915
 N29 N -0.12917 -0.01141 0.48537
 H30 H 0.01025 0.01696 0.49042
 H31 H -0.04661 0.10571 0.48027
 H32 H 0.02123 0.16280 0.46203
 H33 H 0.07895 0.07154 0.47183
 H34 H -0.17604 -0.05534 0.50513
 H35 H -0.23987 -0.10417 0.48864
 H36 H -0.14729 -0.01917 0.44637
 H37 H -0.08803 0.02755 0.46393
 C38 C -0.08095 -0.11059 0.53118
 C39 C -0.08706 0.11836 0.53004
 C40 C -0.20023 -0.06812 0.46556
 C41 C 0.05539 0.12145 0.46520
 C42 C 1.16737 0.07550 0.14329
 H43 H 1.16996 0.10956 0.14199
 C44 C 1.19800 0.06954 0.13431
 H45 H 1.22373 0.09915 0.12593
 C46 C 1.12968 -0.00462 0.15560
 H47 H 1.10318 -0.03322 0.16401
 C48 C 1.15963 -0.01222 0.14678
 H49 H 1.15600 -0.04680 0.14851
 N50 N 1.13382 0.03864 0.15356
 C51 C 1.02217 0.07011 0.15679
 H52 H 1.02158 0.07245 0.16948
 C53 C 0.98792 0.07221 0.14705
 H54 H 0.96159 0.07711 0.15228
 C55 C 1.05625 0.05911 0.13473
 H56 H 1.08186 0.05237 0.13007
 C57 C 1.02276 0.06106 0.12457
 H58 H 1.02320 0.05586 0.11216
 Zn59 Zn 1.09497 0.05212 0.16491
 N60 N 1.05518 0.06328 0.15055
 C61 C 1.13308 0.14583 0.17250
 N62 N 1.13554 0.10589 0.17490
 C63 C 1.16780 0.10272 0.18466
 C64 C 1.19769 0.13970 0.19314
 C65 C 1.16261 0.18392 0.18068
 C66 C 1.01901 -0.03940 0.17559
 C67 C 0.98367 -0.07505 0.18652
 C68 C 1.02312 -0.02829 0.20775
 C69 C 1.05741 0.00652 0.19643
 N70 N 1.05452 0.00073 0.18065
 H71 H 1.10797 0.14806 0.16438
 H72 H 1.16931 0.07071 0.18619
 H73 H 1.22156 0.13537 0.20138
 H74 H 1.15997 0.21532 0.17871
 H75 H 1.01695 -0.04269 0.16292
 H76 H 0.95454 -0.10570 0.18213
 H77 H 1.02588 -0.02260 0.22021
 H78 H 1.08514 0.03893 0.20024
 C79 C 0.98751 0.06692 0.13075
 C80 C 1.19433 0.02521 0.13594
 C81 C 0.98487 -0.06919 0.20280
 C82 C 1.19501 0.18086 0.19137
 C83 C 0.06014 0.91462 0.85484
 H84 H 0.02786 0.88039 0.85565
 C85 C 0.09867 0.91966 0.86363
 H86 H 0.09543 0.88913 0.87136
 C87 C 0.10250 0.99613 0.84409
 H88 H 0.10373 1.02569 0.83639
 C89 C 0.14206 1.00281 0.85271
 H90 H 0.17369 1.03765 0.85152
 N91 N 0.06244 0.95262 0.84550
 C92 C -0.08235 0.92207 0.84408
 H93 H -0.08848 0.92184 0.83135
 C94 C -0.11559 0.92003 0.85451
 H95 H -0.14653 0.91880 0.84930
 C96 C -0.03172 0.92897 0.86549
 H97 H 0.00141 0.93351 0.86974
 C98 C -0.06380 0.92705 0.87633
 H99 H -0.05502 0.92768 0.88884
 Zn100 Zn 0.00709 0.94060 0.83462
 N101 N -0.04106 0.92725 0.84966
 C102 C -0.05349 0.84890 0.82526
 N103 N -0.01001 0.88899 0.82344
 C104 C 0.02434 0.89370 0.81360
 C105 C 0.01528 0.85787 0.80470
 C106 C -0.06409 0.81196 0.81659
 C107 C 0.02280 1.03224 0.82613
 C108 C 0.02247 1.06932 0.81606
 C109 C 0.01197 1.02783 0.79348
 C110 C 0.01201 0.99142 0.80397
 N111 N 0.01683 0.99394 0.82000
 H112 H -0.07998 0.84554 0.83339
 H113 H 0.05875 0.92582 0.81251
 H114 H 0.04281 0.86318 0.79656
 H115 H -0.09884 0.78024 0.81818
 H116 H 0.02560 1.03293 0.83896
 H117 H 0.02504 1.09839 0.82130
 H118 H 0.00770 1.02481 0.78079
 H119 H 0.00643 0.96044 0.79932
 C120 C -0.10616 0.92405 0.87094
 C121 C 0.14031 0.96424 0.86271
 C122 C 0.01595 1.06690 0.79953
 C123 C -0.02949 0.81632 0.80606
 C124 C 0.45937 -0.01372 -0.01419
 C125 C 0.44103 -0.01130 0.00014
 C126 C 0.46306 -0.01060 0.01470
 C127 C 0.50524 -0.01188 0.01505
 C128 C 0.52430 -0.01447 0.00062
 C129 C 0.50116 -0.01573 -0.01403
 C130 C 0.52068 -0.01848 -0.02813
 C131 C 0.56112 -0.02159 -0.02778
 C132 C 0.58473 -0.02021 -0.01343
 C133 C 0.56649 -0.01606 0.00088
 C134 C 0.52828 -0.01170 0.02946
 C135 C 0.57007 -0.01232 0.02964
 C136 C 0.59016 -0.01386 0.01546
 C137 C 0.63267 -0.01449 0.01554
 C138 C 0.64911 -0.02044 0.00147
 C139 C 0.62576 -0.02352 -0.01292
 H140 H 0.50480 -0.01852 -0.03962
 H141 H 0.57379 -0.02486 -0.03893
 H142 H 0.51414 -0.01131 0.04080
 H143 H 0.58602 -0.01250 0.04111
 H144 H 0.40882 -0.01009 -0.00004
 H145 H 0.68142 -0.02146 0.00161
 C146 C -0.07057 0.38237 0.65403
 C147 C -0.06048 0.36254 0.66831
 C148 C -0.05678 0.37978 0.68285
 C149 C -0.06297 0.41863 0.68326
 C150 C -0.07218 0.44001 0.66885
 C151 C -0.07625 0.42175 0.65419
 C152 C -0.08656 0.44298 0.64022
 C153 C -0.08947 0.48314 0.64032
 C154 C -0.08520 0.50206 0.65462
 C155 C -0.07737 0.47977 0.66910
 C156 C -0.05961 0.43706 0.69762
 C157 C -0.06608 0.47506 0.69794
 C158 C -0.07425 0.49745 0.68379
 C159 C -0.07968 0.53690 0.68392
 C160 C -0.08597 0.55923 0.66947
 C161 C -0.08805 0.54297 0.65485
 H162 H -0.09238 0.42908 0.62896
 H163 H -0.09565 0.49880 0.62904
 H164 H -0.05192 0.42234 0.70881
 H165 H -0.06415 0.48692 0.70943
 H166 H -0.05572 0.33269 0.66814
 H167 H -0.08859 0.59037 0.66957
 C168 C 0.43133 0.46025 0.31612
 C169 C 0.40125 0.43639 0.32980
 C170 C 0.41378 0.45235 0.34474
 C171 C 0.45718 0.49476 0.34599
 C172 C 0.48852 0.51903 0.33226
 C173 C 0.47594 0.50125 0.31733
 C174 C 0.50793 0.52535 0.30400
 C175 C 0.55169 0.56572 0.30532
 C176 C 0.56432 0.58492 0.31983
 C177 C 0.53230 0.56150 0.33340
 C178 C 0.46961 0.51408 0.36046
 C179 C 0.51212 0.55608 0.36151
 C180 C 0.54386 0.58053 0.34811
 C181 C 0.58712 0.62329 0.34908
 C182 C 0.61905 0.64497 0.33577
 C183 C 0.60832 0.62661 0.32120
 H184 H 0.49965 0.51308 0.29240
 H185 H 0.57533 0.58185 0.29477
 H186 H 0.44627 0.49727 0.37110
 H187 H 0.52003 0.56897 0.37301
 H188 H 0.36762 0.40426 0.32883
 H189 H 0.65224 0.67767 0.33660
 C190 C -0.08833 0.21117 0.56113
 C191 C -0.13065 0.17677 0.55509
 C192 C -0.13038 0.14702 0.54493
 C193 C -0.08765 0.15172 0.54009
 C194 C -0.04523 0.18789 0.54541
 C195 C -0.04561 0.21640 0.55598
 C196 C -0.08862 0.23986 0.57329
 C197 C -0.04880 0.28449 0.57487
 C198 C -0.04700 0.30882 0.58738
 C199 C -0.08571 0.29028 0.59837
 C200 C -0.12665 0.24709 0.59616
 C201 C -0.12776 0.22188 0.58403
 C202 C -0.08280 0.31473 0.61239
 C203 C -0.10945 0.28853 0.62679
 C204 C -0.10631 0.31092 0.64000
 C205 C -0.07555 0.35991 0.63941
 C206 C -0.04782 0.38613 0.62530
 C207 C -0.05225 0.36407 0.61182
 H208 H -0.16431 0.17221 0.55829
 H209 H -0.16395 0.11962 0.54125
 H210 H -0.01131 0.19416 0.54159
 H211 H -0.01213 0.24164 0.56041
 H212 H -0.01838 0.30071 0.56661
 H213 H -0.01449 0.34157 0.58859
 H214 H -0.15798 0.23205 0.60391
 H215 H -0.15906 0.18759 0.58350
 H216 H -0.13212 0.25043 0.62811
 H217 H -0.12747 0.28974 0.65085
 H218 H -0.02281 0.42378 0.62469
 H219 H -0.03157 0.38598 0.60100
 C220 C 0.86756 0.83203 0.23590
 C221 C 0.88337 0.81554 0.22447
 C222 C 0.92166 0.84740 0.21379
 C223 C 0.94502 0.89638 0.21434
 C224 C 0.92921 0.91268 0.22582
 C225 C 0.89114 0.88095 0.23648
 C226 C 0.82679 0.79865 0.24726
 C227 C 0.79392 0.81074 0.25133
 C228 C 0.75702 0.78075 0.26266
 C229 C 0.75189 0.73777 0.27016
 C230 C 0.78409 0.72510 0.26581
 C231 C 0.82113 0.75520 0.25449
 C232 C 0.71410 0.70721 0.28285
 C233 C 0.72339 0.68463 0.29671
 C234 C 0.68866 0.65779 0.30901
 C235 C 0.64392 0.65279 0.30767
 C236 C 0.63438 0.67515 0.29388
 C237 C 0.66903 0.70185 0.28153
 H238 H 0.86572 0.77808 0.22364
 H239 H 0.93313 0.83368 0.20515
 H240 H 0.94580 0.95019 0.22642
 H241 H 0.88035 0.89480 0.24528
 H242 H 0.79682 0.84360 0.24580
 H243 H 0.73321 0.79188 0.26584
 H244 H 0.78077 0.69194 0.27121
 H245 H 0.84602 0.74499 0.25170
 H246 H 0.75795 0.68875 0.29826
 H247 H 0.69680 0.64127 0.31968
 H248 H 0.60021 0.67218 0.29275
 H249 H 0.66055 0.71837 0.27095
 C250 C 0.25161 -0.02297 -0.10614
 C251 C 0.22719 -0.06203 -0.11450
 C252 C 0.19227 -0.06532 -0.12504
 C253 C 0.18079 -0.02974 -0.12740
 C254 C 0.20645 0.01019 -0.11949
 C255 C 0.24154 0.01356 -0.10898
 C256 C 0.28557 -0.02161 -0.09386
 C257 C 0.32846 0.02058 -0.09255
 C258 C 0.35919 0.02210 -0.08043
 C259 C 0.34752 -0.01846 -0.06929
 C260 C 0.30489 -0.06080 -0.07077
 C261 C 0.27435 -0.06237 -0.08293
 C262 C 0.37861 -0.01630 -0.05577
 C263 C 0.38454 -0.05488 -0.05033
 C264 C 0.41148 -0.05382 -0.03700
 C265 C 0.43353 -0.01393 -0.02900
 C266 C 0.42816 0.02479 -0.03447
 C267 C 0.40104 0.02368 -0.04773
 H268 H 0.23481 -0.09029 -0.11277
 H269 H 0.17386 -0.09605 -0.13122
 H270 H 0.19811 0.03794 -0.12091
 H271 H 0.25948 0.04387 -0.10258
 H272 H 0.33826 0.05239 -0.10093
 H273 H 0.39210 0.05508 -0.07979
 H274 H 0.29434 -0.09245 -0.06222
 H275 H 0.24118 -0.09519 -0.08347
 H276 H 0.36816 -0.08601 -0.05634
 H277 H 0.41473 -0.08429 -0.03279
 H278 H 0.44444 0.05563 -0.02830
 H279 H 0.39652 0.05360 -0.05139
 C280 C -0.09280 0.76845 0.56227
 C281 C -0.06312 0.78775 0.54826
 C282 C -0.05970 0.82651 0.53801
 C283 C -0.08607 0.84670 0.54150
 C284 C -0.11688 0.82637 0.55521
 C285 C -0.11996 0.78802 0.56550
 C286 C -0.09376 0.72986 0.57395
 C287 C -0.13566 0.69515 0.58274
 C288 C -0.13536 0.66212 0.59496
 C289 C -0.09325 0.66262 0.59860
 C290 C -0.05188 0.69581 0.58927
 C291 C -0.05206 0.72916 0.57718
 C292 C -0.09178 0.63065 0.61262
 C293 C -0.05220 0.64723 0.62229
 C294 C -0.05107 0.61824 0.63580
 C295 C -0.08948 0.57211 0.64002
 C296 C -0.12929 0.55533 0.63056
 C297 C -0.13029 0.58421 0.61689
 H298 H -0.04220 0.77315 0.54526
 H299 H -0.03550 0.84137 0.52759
 H300 H -0.13854 0.84028 0.55809
 H301 H -0.14273 0.77463 0.57626
 H302 H -0.16864 0.69399 0.58037
 H303 H -0.16783 0.63732 0.60194
 H304 H -0.01902 0.69661 0.59150
 H305 H -0.01904 0.75550 0.57077
 H306 H -0.02243 0.68309 0.61965
 H307 H -0.02031 0.63197 0.64311
 H308 H -0.15951 0.51997 0.63377
 H309 H -0.16118 0.57015 0.60967
 C310 C 0.27579 0.28459 0.22282
 C311 C 0.29568 0.26239 0.21583
 C312 C 0.27023 0.23014 0.20514
 C313 C 0.22414 0.21902 0.20128
 C314 C 0.20499 0.24260 0.20779
 C315 C 0.23057 0.27510 0.21837
 C316 C 0.30084 0.31525 0.23538
 C317 C 0.27535 0.31306 0.24883
 C318 C 0.29865 0.34005 0.26106
 C319 C 0.34806 0.36971 0.26021
 C320 C 0.37370 0.37221 0.24676
 C321 C 0.35031 0.34539 0.23444
 C322 C 0.37244 0.39678 0.27359
 C323 C 0.41309 0.39795 0.27981
 C324 C 0.43337 0.41987 0.29339
 C325 C 0.41365 0.44147 0.30078
 C326 C 0.37390 0.44144 0.29434
 C327 C 0.35353 0.41940 0.28086
 H328 H 0.33027 0.26859 0.21904
 H329 H 0.28641 0.21328 0.20012
 H330 H 0.16949 0.23468 0.20519
 H331 H 0.21454 0.29223 0.22330
 H332 H 0.23740 0.28944 0.25017
 H333 H 0.27805 0.33672 0.27142
 H334 H 0.41179 0.39513 0.24574
 H335 H 0.37096 0.34837 0.22415
 H336 H 0.42805 0.38031 0.27457
 H337 H 0.46362 0.41895 0.29838
 H338 H 0.35810 0.45771 0.29998
 H339 H 0.32254 0.41947 0.27622
 C340 C 0.80357 -0.06238 -0.09799
 C341 C 0.78547 -0.08610 -0.11140
 C342 C 0.81479 -0.09108 -0.12155
 C343 C 0.86317 -0.07276 -0.11850
 C344 C 0.88058 -0.04962 -0.10478
 C345 C 0.85131 -0.04453 -0.09476
 C346 C 0.77308 -0.05612 -0.08728
 C347 C 0.79044 -0.01287 -0.08141
 C348 C 0.76319 -0.00768 -0.07049
 C349 C 0.71792 -0.04564 -0.06518
 C350 C 0.69997 -0.08851 -0.07140
 C351 C 0.72723 -0.09366 -0.08238
 C352 C 0.69084 -0.04117 -0.05253
 C353 C 0.66716 -0.07827 -0.03976
 C354 C 0.64495 -0.07281 -0.02712
 C355 C 0.64565 -0.03037 -0.02707
 C356 C 0.66842 0.00646 -0.03991
 C357 C 0.69075 0.00108 -0.05256
 H358 H 0.74868 -0.10036 -0.11416
 H359 H 0.79868 -0.11059 -0.13149
 H360 H 0.91747 -0.03309 -0.10199
 H361 H 0.86620 -0.02646 -0.08440
 H362 H 0.82540 0.01690 -0.08515
 H363 H 0.77822 0.02563 -0.06582
 H364 H 0.66501 -0.11823 -0.06765
 H365 H 0.71300 -0.12746 -0.08664
 H366 H 0.66726 -0.11090 -0.03924
 H367 H 0.62795 -0.10136 -0.01719
 H368 H 0.66964 0.03962 -0.03995
 H369 H 0.70837 0.03012 -0.06229
 C370 C 0.28454 0.00906 0.10500
 C371 C 0.23715 -0.02735 0.10833
 C372 C 0.20817 -0.02280 0.11875
 C373 C 0.22597 0.01827 0.12606
 C374 C 0.27379 0.05389 0.12317
 C375 C 0.30272 0.04935 0.11276
 C376 C 0.31423 0.00610 0.09292
 C377 C 0.34389 0.04605 0.08177
 C378 C 0.37019 0.04301 0.06987
 C379 C 0.36751 -0.00005 0.06882
 C380 C 0.33847 -0.03983 0.08015
 C381 C 0.31207 -0.03681 0.09205
 C382 C 0.39343 -0.00377 0.05557
 C383 C 0.37169 -0.04389 0.04760
 C384 C 0.39487 -0.04637 0.03455
 C385 C 0.44030 -0.00897 0.02926
 C386 C 0.46238 0.03097 0.03723
 C387 C 0.43924 0.03348 0.05032
 H388 H 0.22197 -0.05859 0.10240
 H389 H 0.17137 -0.05061 0.12060
 H390 H 0.28878 0.08553 0.12887
 H391 H 0.33931 0.07757 0.11069
 H392 H 0.34571 0.07940 0.08195
 H393 H 0.39152 0.07408 0.06117
 H394 H 0.33619 -0.07333 0.07981
 H395 H 0.29002 -0.06802 0.10060
 H396 H 0.33616 -0.07279 0.05115
 H397 H 0.37712 -0.07723 0.02840
 H398 H 0.49725 0.06039 0.03318
 H399 H 0.45711 0.06465 0.05630
 C400 C 0.70962 0.83380 0.43521
 C401 C 0.73996 0.88148 0.42897
 C402 C 0.76835 0.91444 0.43907
 C403 C 0.76773 0.90097 0.45590
 C404 C 0.73427 0.85318 0.46210
 C405 C 0.70620 0.82026 0.45189
 C406 C 0.68418 0.79803 0.42419
 C407 C 0.68343 0.75499 0.42673
 C408 C 0.66398 0.72337 0.41549
 C409 C 0.64465 0.73399 0.40151
 C410 C 0.64383 0.77623 0.39926
 C411 C 0.66349 0.80796 0.41046
 C412 C 0.62775 0.70252 0.38888
 C413 C 0.58651 0.69322 0.38075
 C414 C 0.57254 0.66623 0.36812
 C415 C 0.59947 0.64797 0.36343
 C416 C 0.64029 0.65663 0.37164
 C417 C 0.65418 0.68345 0.38431
 H418 H 0.74308 0.89318 0.41614
 H419 H 0.79003 0.95070 0.43340
 H420 H 0.73169 0.83923 0.47467
 H421 H 0.68256 0.78372 0.45706
 H422 H 0.69951 0.74656 0.43711
 H423 H 0.66465 0.69087 0.41763
 H424 H 0.62953 0.78558 0.38854
 H425 H 0.66320 0.84066 0.40825
 H426 H 0.56529 0.70717 0.38407
 H427 H 0.54125 0.66038 0.36176
 H428 H 0.66178 0.64328 0.36804
 H429 H 0.68650 0.69062 0.39017
 C430 C -0.00334 0.17073 0.76875
 C431 C 0.02987 0.18468 0.78084
 C432 C 0.03656 0.15122 0.79076
 C433 C 0.01018 0.10308 0.78881
 C434 C -0.02297 0.08929 0.77671
 C435 C -0.02946 0.12265 0.76678
 C436 C -0.01058 0.20591 0.75803
 C437 C -0.05604 0.19392 0.75300
 C438 C -0.06262 0.22539 0.74196
 C439 C -0.02397 0.26991 0.73576
 C440 C 0.02128 0.28263 0.74125
 C441 C 0.02792 0.25097 0.75223
 C442 C -0.03063 0.30158 0.72297
 C443 C 0.00292 0.32721 0.71009
 C444 C -0.00496 0.35394 0.69737
 C445 C -0.04649 0.35566 0.69724
 C446 C -0.07980 0.33076 0.71015
 C447 C -0.07177 0.30430 0.72297
 H448 H 0.05032 0.22138 0.78276
 H449 H 0.06260 0.16310 0.79989
 H450 H -0.04455 0.05245 0.77504
 H451 H -0.05475 0.11072 0.75742
 H452 H -0.08661 0.15987 0.75746
 H453 H -0.09789 0.21413 0.73789
 H454 H 0.05173 0.31691 0.73692
 H455 H 0.06343 0.26126 0.75578
 H456 H 0.03451 0.32525 0.70951
 H457 H 0.02084 0.37242 0.68740
 H458 H -0.11240 0.33111 0.71014
 H459 H -0.09809 0.28546 0.73277
 C460 C 0.87449 0.05241 0.10014
 C461 C 0.86508 0.03310 0.11651
 C462 C 0.90188 0.03903 0.12654
 C463 C 0.94896 0.06440 0.12044
 C464 C 0.95849 0.08489 0.10419
 C465 C 0.92169 0.07897 0.09416
 C466 C 0.83522 0.04310 0.08917
 C467 C 0.83927 0.07863 0.07693
 C468 C 0.80359 0.06888 0.06597
 C469 C 0.76303 0.02335 0.06700
 C470 C 0.75847 -0.01186 0.07947
 C471 C 0.79414 -0.00210 0.09042
 C472 C 0.72673 0.01217 0.05467
 C473 C 0.70646 -0.03090 0.04841
 C474 C 0.67471 -0.04020 0.03604
 C475 C 0.66237 -0.00679 0.02977
 C476 C 0.68189 0.03590 0.03615
 C477 C 0.71362 0.04523 0.04853
 H478 H 0.82915 0.01294 0.12152
 H479 H 0.89328 0.02237 0.13896
 H480 H 0.99441 0.10504 0.09917
 H481 H 0.93012 0.09394 0.08158
 H482 H 0.87023 0.11394 0.07575
 H483 H 0.80843 0.09666 0.05641
 H484 H 0.72742 -0.04712 0.08068
 H485 H 0.79013 -0.03040 0.09961
 H486 H 0.71637 -0.05677 0.05269
 H487 H 0.66044 -0.07310 0.03114
 H488 H 0.67331 0.06242 0.03129
 H489 H 0.72826 0.07851 0.05320
 C490 C 0.16861 0.21782 0.43039
 C491 C 0.12182 0.20602 0.42759
 C492 C 0.08532 0.17437 0.43879
 C493 C 0.09460 0.15393 0.45319
 C494 C 0.14131 0.16532 0.45599
 C495 C 0.17799 0.19704 0.44471
 C496 C 0.20715 0.25209 0.41839
 C497 C 0.25136 0.28648 0.42329
 C498 C 0.28639 0.32044 0.41188
 C499 C 0.27774 0.32081 0.39539
 C500 C 0.23403 0.28577 0.39049
 C501 C 0.19925 0.25174 0.40184
 C502 C 0.31379 0.35760 0.38319
 C503 C 0.30034 0.37933 0.37025
 C504 C 0.33337 0.41161 0.35812
 C505 C 0.38051 0.42286 0.35868
 C506 C 0.39435 0.40203 0.37177
 C507 C 0.36132 0.36992 0.38400
 H508 H 0.11339 0.22183 0.41681
 H509 H 0.04965 0.16578 0.43612
 H510 H 0.14961 0.15036 0.46701
 H511 H 0.21360 0.20507 0.44715
 H512 H 0.25839 0.28802 0.43594
 H513 H 0.31975 0.34719 0.41597
 H514 H 0.22681 0.28457 0.37784
 H515 H 0.16605 0.22508 0.39764
 H516 H 0.26407 0.37093 0.36944
 H517 H 0.32197 0.42713 0.34808
 H518 H 0.43038 0.40960 0.37225
 H519 H 0.37251 0.35337 0.39377
 C520 C -0.05676 0.71326 0.77496
 C521 C -0.01345 0.73595 0.78251
 C522 C -0.00524 0.76814 0.79300
 C523 C -0.04000 0.77869 0.79614
 C524 C -0.08391 0.75479 0.78904
 C525 C -0.09222 0.72239 0.77859
 C526 C -0.06385 0.68227 0.76271
 C527 C -0.08779 0.68389 0.74868
 C528 C -0.09214 0.65704 0.73668
 C529 C -0.07245 0.62809 0.73838
 C530 C -0.04907 0.62587 0.75248
 C531 C -0.04496 0.65253 0.76455
 C532 C -0.07515 0.60160 0.72520
 C533 C -0.03518 0.60115 0.72026
 C534 C -0.03683 0.57912 0.70707
 C535 C -0.07863 0.55660 0.69876
 C536 C -0.11877 0.55626 0.70384
 C537 C -0.11709 0.57848 0.71695
 H538 H 0.01479 0.73011 0.77989
 H539 H 0.02869 0.78530 0.79849
 H540 H -0.11135 0.76228 0.79111
 H541 H -0.12625 0.70494 0.77319
 H542 H -0.10193 0.70709 0.74671
 H543 H -0.10969 0.66006 0.72583
 H544 H -0.03407 0.60339 0.75418
 H545 H -0.02695 0.64989 0.77531
 H546 H -0.00220 0.61928 0.72625
 H547 H -0.00527 0.58046 0.70311
 H548 H -0.15121 0.53935 0.69747
 H549 H -0.14852 0.57790 0.72057
   
