data_POSCAR
  _audit_creation_date              2014-09-24
  _audit_creation_method            'ToBaCCo'
  _symmetry_space_group_name_H-M    'P1'
  _symmetry_Int_Tables_number       1
  _symmetry_cell_setting            triclinic
  loop_
  _symmetry_equiv_pos_as_xyz
 x,y,z
_cell_length_a 51.2383
_cell_length_b 51.1993
_cell_length_c 51.1862
_cell_angle_alpha 94.023200
_cell_angle_beta 86.034000
_cell_angle_gamma 94.011500
loop_
  _atom_site_label
  _atom_site_type_symbol
  _atom_site_fract_x
  _atom_site_fract_y
  _atom_site_fract_z
C1 C 0.27499 0.47781 1.00695
 C2 C 0.26398 0.50107 1.00158
 C3 C 0.28041 0.52356 0.99674
 C4 C 0.30764 0.52289 0.99756
 C5 C 0.31851 0.49955 1.00263
 C6 C 0.30223 0.47699 1.00718
 C7 C 0.23533 0.50186 1.00103
 C8 C 0.21901 0.49662 1.02349
 C9 C 0.19179 0.49763 1.02305
 C10 C 0.18079 0.50330 0.99995
 C11 C 0.19696 0.50825 0.97741
 C12 C 0.22420 0.50783 0.97803
 H13 H 0.26240 0.46033 1.01046
 H14 H 0.27192 0.54160 0.99280
 H15 H 0.22760 0.49221 1.04134
 H16 H 0.23671 0.51165 0.96057
 H17 H 0.33960 0.49888 1.00303
 H18 H 0.15969 0.50383 0.99945
 C19 C 0.71971 0.47711 0.00350
 C20 C 0.73605 0.49955 -0.00180
 C21 C 0.72494 0.52254 -0.00780
 C22 C 0.69769 0.52316 -0.00821
 C23 C 0.68152 0.50064 -0.00320
 C24 C 0.69251 0.47758 0.00251
 C25 C 0.76471 0.49896 -0.00106
 C26 C 0.78109 0.50376 -0.02359
 C27 C 0.80832 0.50287 -0.02297
 C28 C 0.81923 0.49777 0.00036
 C29 C 0.80300 0.49327 0.02295
 C30 C 0.77576 0.49356 0.02218
 H31 H 0.72821 0.45925 0.00793
 H32 H 0.73746 0.53999 -0.01167
 H33 H 0.77257 0.50771 -0.04161
 H34 H 0.76320 0.49007 0.03968
 H35 H 0.66043 0.50106 -0.00371
 H36 H 0.84033 0.49732 0.00098
 C37 C 0.02264 0.22540 0.50664
 C38 C -0.00038 0.23655 0.50082
 C39 C -0.02287 0.22023 0.49568
 C40 C -0.02243 0.19300 0.49665
 C41 C 0.00066 0.18197 0.50217
 C42 C 0.02323 0.19813 0.50702
 C43 C -0.00094 0.26524 0.50012
 C44 C -0.00663 0.27632 0.47700
 C45 C -0.00690 0.30361 0.47627
 C46 C -0.00208 0.31983 0.49886
 C47 C 0.00331 0.30886 0.52205
 C48 C 0.00416 0.28163 0.52259
 H49 H 0.04012 0.23790 0.51040
 H50 H -0.04075 0.22876 0.49139
 H51 H -0.01036 0.26370 0.45955
 H52 H 0.00834 0.27315 0.54055
 H53 H 0.00107 0.16086 0.50267
 H54 H -0.00249 0.34096 0.49845
 C55 C 1.02335 0.78082 0.50363
 C56 C 1.00081 0.76438 0.49904
 C57 C 0.97755 0.77535 0.49368
 C58 C 0.97676 0.80259 0.49322
 C59 C 0.99936 0.81890 0.49750
 C60 C 1.02271 0.80805 0.50257
 C61 C 1.00156 0.73574 0.49987
 C62 C 1.00679 0.72480 0.52321
 C63 C 1.00718 0.69753 0.52405
 C64 C 1.00295 0.68122 0.50139
 C65 C 0.99802 0.69207 0.47801
 C66 C 0.99704 0.71927 0.47731
 H67 H 1.04138 0.77235 0.50758
 H68 H 0.96005 0.76273 0.49036
 H69 H 1.01006 0.73750 0.54070
 H70 H 0.99319 0.72766 0.45921
 H71 H 0.99872 0.83999 0.49693
 H72 H 1.00344 0.66010 0.50192
 C73 C 0.49273 0.02173 0.22451
 C74 C 0.49846 -0.00139 0.23555
 C75 C 0.50358 -0.02382 0.21911
 C76 C 0.50270 -0.02322 0.19188
 C77 C 0.49727 -0.00002 0.18097
 C78 C 0.49244 0.02249 0.19724
 C79 C 0.49906 -0.00212 0.26423
 C80 C 0.47659 0.00295 0.28058
 C81 C 0.47708 0.00201 0.30781
 C82 C 0.50020 -0.00345 0.31882
 C83 C 0.52276 -0.00823 0.30265
 C84 C 0.52211 -0.00787 0.27537
 H85 H 0.48898 0.03917 0.23711
 H86 H 0.50780 -0.04179 0.22756
 H87 H 0.45868 0.00720 0.27206
 H88 H 0.53959 -0.01156 0.26285
 H89 H 0.49683 0.00051 0.15986
 H90 H 0.50065 -0.00392 0.33994
 C91 C 0.49631 0.02255 0.78119
 C92 C 0.50092 0.00003 0.76470
 C93 C 0.50622 -0.02328 0.77565
 C94 C 0.50660 -0.02413 0.80292
 C95 C 0.50229 -0.00151 0.81925
 C96 C 0.49729 0.02185 0.80840
 C97 C 0.50018 0.00086 0.73605
 C98 C 0.52273 -0.00369 0.71964
 C99 C 0.52211 -0.00260 0.69243
 C100 C 0.49880 0.00244 0.68153
 C101 C 0.47618 0.00670 0.69779
 C102 C 0.47694 0.00621 0.72504
 H103 H 0.49241 0.04063 0.77279
 H104 H 0.50956 -0.04075 0.76294
 H105 H 0.54078 -0.00762 0.72807
 H106 H 0.45942 0.00952 0.73763
 H107 H 0.50277 -0.00203 0.84037
 H108 H 0.49826 0.00303 0.66043
 C109 C 0.29091 0.04084 0.48783
 H110 H 0.29147 0.05623 0.50343
 C111 C 0.30992 0.04122 0.46694
 H112 H 0.32513 0.05700 0.46634
 C113 C 0.27112 0.00078 0.47014
 H114 H 0.25643 -0.01530 0.47183
 C115 C 0.28979 0.00040 0.44890
 H116 H 0.28926 -0.01584 0.43416
 N117 N 0.27205 0.02080 0.48909
 C118 C 0.21037 0.05113 0.54349
 H119 H 0.20946 0.03678 0.55813
 C120 C 0.19217 0.07034 0.54521
 H121 H 0.17727 0.07091 0.56128
 C122 C 0.22985 0.06694 0.50374
 H123 H 0.24399 0.06501 0.48718
 C124 C 0.21200 0.08646 0.50471
 H125 H 0.21261 0.09967 0.48901
 Zn126 Zn 0.24928 0.02031 0.51978
 N127 N 0.22858 0.04965 0.52289
 C128 C 0.27143 0.03990 0.56761
 N129 N 0.27083 0.02026 0.54825
 C130 C 0.28749 0.00061 0.54724
 C131 C 0.30574 0.00019 0.56616
 C132 C 0.28947 0.04024 0.58696
 C133 C 0.20832 -0.01161 0.49945
 C134 C 0.18920 -0.03236 0.49816
 C135 C 0.20597 -0.04901 0.53630
 C136 C 0.22483 -0.02791 0.53687
 N137 N 0.22569 -0.00980 0.51853
 H138 H 0.25845 0.05566 0.56769
 H139 H 0.28690 -0.01446 0.53134
 H140 H 0.31918 -0.01534 0.56495
 H141 H 0.29021 0.05615 0.60206
 H142 H 0.20916 0.00333 0.48542
 H143 H 0.17531 -0.03352 0.48302
 H144 H 0.20519 -0.06322 0.55109
 H145 H 0.23837 -0.02577 0.55226
 C146 C 0.19279 0.08794 0.52545
 C147 C 0.30947 0.02071 0.44741
 C148 C 0.18795 -0.05117 0.51681
 C149 C 0.30688 0.02027 0.58608
 C150 C 0.70911 0.00093 0.51146
 H151 H 0.70991 0.01491 0.49648
 C152 C 0.69001 0.00220 0.53222
 H153 H 0.67609 0.01729 0.53334
 C154 C 0.72570 -0.03641 0.52783
 H155 H 0.73925 -0.05177 0.52571
 C156 C 0.70685 -0.03585 0.54893
 H157 H 0.70610 -0.05062 0.56316
 N158 N 0.72651 -0.01811 0.50967
 C159 C 0.79150 0.01251 0.45870
 H160 H 0.79203 -0.00314 0.44338
 C161 C 0.81047 0.03345 0.45817
 H162 H 0.82562 0.03402 0.44233
 C163 C 0.77186 0.03032 0.49877
 H164 H 0.75724 0.02866 0.51491
 C165 C 0.79048 0.05160 0.49899
 H166 H 0.79000 0.06641 0.51518
 Zn167 Zn 0.74999 -0.01943 0.47950
 N168 N 0.77273 0.01129 0.47881
 C169 C 0.73032 -0.00369 0.43283
 N170 N 0.72916 -0.02272 0.45024
 C171 C 0.71094 -0.04335 0.44896
 C172 C 0.69263 -0.04520 0.42983
 C173 C 0.71235 -0.00479 0.41339
 C174 C 0.78833 -0.04674 0.49920
 C175 C 0.80656 -0.06565 0.49965
 C176 C 0.79010 -0.08663 0.45973
 C177 C 0.77208 -0.06729 0.46004
 N178 N 0.77158 -0.04785 0.47960
 H179 H 0.74447 0.01289 0.43461
 H180 H 0.71013 -0.05789 0.46339
 H181 H 0.67773 -0.06129 0.42942
 H182 H 0.71288 0.01082 0.40010
 H183 H 0.78781 -0.03079 0.51421
 H184 H 0.82007 -0.06437 0.51514
 H185 H 0.79076 -0.10181 0.44389
 H186 H 0.75903 -0.06745 0.44432
 C187 C 0.81007 0.05305 0.47861
 C188 C 0.68880 -0.01641 0.55105
 C189 C 0.80760 -0.08566 0.47965
 C190 C 0.69313 -0.02556 0.41212
 C191 C 0.45630 0.21116 1.05197
 H192 H 0.44171 0.21031 1.03759
 C193 C 0.45457 0.19284 1.07108
 H194 H 0.43852 0.17790 1.07153
 C195 C 0.49600 0.23059 1.06795
 H196 H 0.51255 0.24476 1.06612
 C197 C 0.49502 0.21261 1.08737
 H198 H 0.51069 0.21316 1.10060
 N199 N 0.47690 0.22939 1.05062
 C200 C 0.45272 0.28840 1.00156
 H201 H 0.46862 0.28783 0.98652
 C202 C 0.43382 0.30664 1.00109
 H203 H 0.43505 0.32010 0.98556
 C204 C 0.43230 0.27230 1.04080
 H205 H 0.43219 0.25930 1.05655
 C206 C 0.41297 0.29033 1.04109
 H207 H 0.39785 0.29104 1.05695
 Zn208 Zn 0.48009 0.25014 1.02131
 N209 N 0.45167 0.27173 1.02121
 C210 C 0.46300 0.22564 0.97306
 N211 N 0.48133 0.22653 0.99120
 C212 C 0.50036 0.20914 0.98944
 C213 C 0.50162 0.18996 0.96871
 C214 C 0.46354 0.20672 0.95199
 C215 C 0.51207 0.29177 1.04193
 C216 C 0.53299 0.31076 1.04235
 C217 C 0.55098 0.29060 1.00155
 C218 C 0.52972 0.27195 1.00188
 N219 N 0.51078 0.27291 1.02188
 H220 H 0.44764 0.23920 0.97516
 H221 H 0.51437 0.21000 1.00440
 H222 H 0.51672 0.17606 0.96760
 H223 H 0.44876 0.20591 0.93777
 H224 H 0.49649 0.29236 1.05730
 H225 H 0.53362 0.32599 1.05814
 H226 H 0.56571 0.29005 0.98532
 H227 H 0.52801 0.25726 0.98579
 C228 C 0.41388 0.30776 1.02112
 C229 C 0.47429 0.19336 1.08871
 C230 C 0.55250 0.31029 1.02187
 C231 C 0.48298 0.18867 0.94989
 C232 C 0.50019 0.78758 -0.04820
 H233 H 0.48517 0.78696 -0.03228
 C234 C 0.49975 0.80591 -0.06703
 H235 H 0.48425 0.81939 -0.06573
 C236 C 0.53939 0.77150 -0.06870
 H237 H 0.55512 0.75849 -0.06885
 C238 C 0.53971 0.78963 -0.08796
 H239 H 0.55557 0.79040 -0.10308
 N240 N 0.51981 0.77088 -0.04932
 C241 C 0.48810 0.70827 -0.00060
 H242 H 0.50310 0.70908 0.01338
 C243 C 0.46735 0.68916 0.00073
 H244 H 0.46625 0.67525 0.01584
 C245 C 0.47166 0.72485 -0.03791
 H246 H 0.47373 0.73841 -0.05327
 C247 C 0.45055 0.70599 -0.03730
 H248 H 0.43628 0.70524 -0.05203
 Zn249 Zn 0.51994 0.74925 -0.02092
 N250 N 0.48984 0.72567 -0.01964
 C251 C 0.50065 0.77106 0.02884
 N252 N 0.52057 0.77201 0.00982
 C253 C 0.54061 0.79087 0.01105
 C254 C 0.54110 0.80985 0.03199
 C255 C 0.50040 0.78970 0.05014
 C256 C 0.55065 0.71030 -0.04481
 C257 C 0.56984 0.69208 -0.04661
 C258 C 0.58610 0.71189 -0.00612
 C259 C 0.56659 0.72976 -0.00507
 N260 N 0.54924 0.72851 -0.02416
 H261 H 0.48457 0.75637 0.02718
 H262 H 0.55591 0.79145 -0.00460
 H263 H 0.55689 0.82507 0.03257
 H264 H 0.48424 0.78915 0.06494
 H265 H 0.53626 0.70942 -0.05940
 H266 H 0.57036 0.67718 -0.06271
 H267 H 0.59935 0.71249 0.00954
 H268 H 0.56473 0.74390 0.01152
 C269 C 0.44846 0.68795 -0.01784
 C270 C 0.51978 0.80710 -0.08697
 C271 C 0.58751 0.69268 -0.02691
 C272 C 0.52071 0.80938 0.05160
 C273 C 1.01299 0.45832 0.20822
 H274 H 0.99741 0.44294 0.20767
 C275 C 1.03387 0.45790 0.18919
 H276 H 1.03446 0.44210 0.17397
 C277 C 1.03068 0.49840 0.22797
 H278 H 1.02899 0.51450 0.24265
 C279 C 1.05190 0.49873 0.20929
 H280 H 1.06663 0.51498 0.20980
 N281 N 1.01174 0.47839 0.22706
 C282 C 0.95727 0.44834 0.28884
 H283 H 0.94268 0.46272 0.28966
 C284 C 0.95553 0.42925 0.30718
 H285 H 0.93947 0.42880 0.32210
 C286 C 0.99696 0.43237 0.26945
 H287 H 1.01351 0.43420 0.25529
 C288 C 0.99596 0.41296 0.28744
 H289 H 1.01163 0.39975 0.28692
 Zn290 Zn 0.98106 0.47897 0.24983
 N291 N 0.97787 0.44969 0.27062
 C292 C 0.93326 0.45945 0.22764
 N293 N 0.95264 0.47905 0.22821
 C294 C 0.95372 0.49867 0.21151
 C295 C 0.93482 0.49913 0.19324
 C296 C 0.91393 0.45915 0.20957
 C297 C 1.00137 0.51090 0.29082
 C298 C 1.00264 0.53165 0.30997
 C299 C 0.96459 0.54834 0.29314
 C300 C 0.96402 0.52724 0.27425
 N301 N 0.98233 0.50911 0.27340
 H302 H 0.93313 0.44371 0.24066
 H303 H 0.96963 0.51371 0.21209
 H304 H 0.93607 0.51463 0.17976
 H305 H 0.89880 0.44328 0.20886
 H306 H 1.01536 0.49594 0.28999
 H307 H 1.01774 0.53278 0.32389
 H308 H 0.94981 0.56256 0.29391
 H309 H 0.94866 0.52512 0.26068
 C310 C 0.97524 0.41164 0.30669
 C311 C 1.05337 0.47841 0.18961
 C312 C 0.98403 0.55046 0.31121
 C313 C 0.91487 0.47909 0.19212
 C314 C -0.01173 0.50047 0.79123
 H315 H 0.00323 0.48648 0.79039
 C316 C -0.03247 0.49915 0.81035
 H317 H -0.03359 0.48402 0.82424
 C318 C -0.02810 0.53785 0.77472
 H319 H -0.02600 0.55324 0.76120
 C320 C -0.04919 0.53724 0.79359
 H321 H -0.06341 0.55201 0.79438
 N322 N -0.00996 0.51955 0.77386
 C323 C 0.04093 0.48907 0.70870
 H324 H 0.05622 0.50474 0.70821
 C325 C 0.04147 0.46819 0.68965
 H326 H 0.05728 0.46768 0.67447
 C327 C 0.00096 0.47117 0.72836
 H328 H -0.01515 0.47277 0.74302
 C329 C 0.00074 0.44993 0.70965
 H330 H -0.01541 0.43511 0.71011
 Zn331 Zn 0.02017 0.52090 0.75035
 N332 N 0.02086 0.49022 0.72752
 C333 C 0.06678 0.50509 0.76996
 N334 N 0.04942 0.52415 0.77118
 C335 C 0.05074 0.54475 0.78944
 C336 C 0.06986 0.54654 0.80775
 C337 C 0.08622 0.50613 0.78793
 C338 C 0.00046 0.54825 0.71204
 C339 C 0.00002 0.56714 0.69376
 C340 C 0.03995 0.58807 0.71018
 C341 C 0.03962 0.56876 0.72825
 N342 N 0.02005 0.54935 0.72878
 H343 H 0.06498 0.48853 0.75577
 H344 H 0.03634 0.55932 0.79029
 H345 H 0.07031 0.56260 0.82270
 H346 H 0.09948 0.49049 0.78735
 H347 H -0.01455 0.53231 0.71258
 H348 H -0.01545 0.56585 0.68024
 H349 H 0.05580 0.60321 0.70949
 H350 H 0.05534 0.56890 0.74130
 C351 C 0.02108 0.44856 0.69001
 C352 C -0.05130 0.51776 0.81161
 C353 C 0.02004 0.58710 0.69267
 C354 C 0.08753 0.52686 0.80720
 C355 C 0.09028 0.16324 0.51859
 N356 N 0.11100 0.16494 0.50066
 N357 N 0.13203 0.15156 0.50296
 C358 C 0.13299 0.13609 0.52328
 N359 N 0.11231 0.13445 0.54125
 N360 N 0.09128 0.14783 0.53895
 C361 C 0.06696 0.17623 0.51513
 C362 C 0.04713 0.18652 0.51171
 C363 C 0.15472 0.12012 0.52465
 C364 C 0.17242 0.10590 0.52529
 C365 C 0.66285 0.59018 -0.02011
 N366 N 0.64715 0.59095 -0.04028
 N367 N 0.63375 0.61197 -0.04261
 C368 C 0.63566 0.63286 -0.02486
 N369 N 0.65143 0.63211 -0.00474
 N370 N 0.66483 0.61110 -0.00241
 C371 C 0.67584 0.56686 -0.01656
 C372 C 0.68612 0.54704 -0.01305
 C373 C 0.61968 0.65459 -0.02622
 C374 C 0.60546 0.67230 -0.02683
 C375 C 0.90924 -0.16266 0.48325
 N376 N 0.90759 -0.14763 0.46271
 N377 N 0.88658 -0.13404 0.46101
 C378 C 0.86658 -0.13509 0.47978
 N379 N 0.86819 -0.15019 0.50027
 N380 N 0.88920 -0.16378 0.50197
 C381 C 0.93267 -0.17570 0.48611
 C382 C 0.95264 -0.18595 0.48906
 C383 C 0.84504 -0.11874 0.47911
 C384 C 0.82758 -0.10414 0.47907
 C385 C 0.33698 0.40947 1.01732
 N386 N 0.33566 0.38926 0.99876
 N387 N 0.34923 0.36824 1.00051
 C388 C 0.36451 0.36679 1.02090
 N389 N 0.36576 0.38697 1.03951
 N390 N 0.35219 0.40799 1.03775
 C391 C 0.32394 0.43290 1.01438
 C392 C 0.31369 0.45287 1.01138
 C393 C 0.38083 0.34523 1.02161
 C394 C 0.39542 0.32775 1.02168
 C395 C 0.91199 0.14445 0.48646
 N396 N 0.89150 0.14511 0.50471
 N397 N 0.87080 0.12801 0.50253
 C398 C 0.86996 0.10975 0.48204
 N399 N 0.89042 0.10913 0.46377
 N400 N 0.91112 0.12622 0.46594
 C401 C 0.93483 0.16197 0.48954
 C402 C 0.95423 0.17630 0.49254
 C403 C 0.84837 0.09041 0.48048
 C404 C 0.83065 0.07366 0.47947
 C405 C 0.35580 0.58702 -0.01162
 N406 N 0.37406 0.58790 -0.03208
 N407 N 0.39141 0.60843 -0.03395
 C408 C 0.39103 0.62870 -0.01543
 N409 N 0.37273 0.62786 0.00500
 N410 N 0.35538 0.60733 0.00687
 C411 C 0.33806 0.56430 -0.00882
 C412 C 0.32358 0.54495 -0.00604
 C413 C 0.41066 0.65007 -0.01665
 C414 C 0.42763 0.66759 -0.01735
 C415 C 0.08692 -0.14376 0.51114
 N416 N 0.10691 -0.14402 0.49234
 N417 N 0.12746 -0.12668 0.49406
 C418 C 0.12864 -0.10855 0.51465
 N419 N 0.10867 -0.10832 0.53349
 N420 N 0.08812 -0.12567 0.53176
 C421 C 0.06417 -0.16151 0.50855
 C422 C 0.04480 -0.17600 0.50595
 C423 C 0.15003 -0.08894 0.51575
 C424 C 0.16757 -0.07199 0.51638
 C425 C 0.64389 0.41215 1.01328
 N426 N 0.62550 0.41161 1.03365
 N427 N 0.60839 0.39094 1.03599
 C428 C 0.60916 0.37017 1.01804
 N429 N 0.62758 0.37068 0.99771
 N430 N 0.64469 0.39135 0.99537
 C431 C 0.66143 0.43495 1.01000
 C432 C 0.67578 0.45430 1.00683
 C433 C 0.58982 0.34859 1.01976
 C434 C 0.57309 0.33088 1.02089
 C435 C 0.48107 0.08995 1.16290
 N436 N 0.49907 0.11061 1.16476
 N437 N 0.49680 0.13182 1.15162
 C438 C 0.47645 0.13302 1.13624
 N439 N 0.45841 0.11239 1.13445
 N440 N 0.46068 0.09118 1.14759
 C441 C 0.48448 0.06646 1.17566
 C442 C 0.48783 0.04650 1.18578
 C443 C 0.47510 0.15496 1.12052
 C444 C 0.47446 0.17282 1.10649
 C445 C 0.01671 0.66362 0.59053
 N446 N -0.00197 0.66494 0.61061
 N447 N -0.00032 0.65146 0.63172
 C448 C 0.02007 0.63627 0.63340
 N449 N 0.03879 0.63501 0.61336
 N450 N 0.03714 0.64849 0.59225
 C451 C 0.01389 0.67655 0.56701
 C452 C 0.01100 0.68671 0.54695
 C453 C 0.02068 0.62003 0.65506
 C454 C 0.02067 0.60551 0.67261
 C455 C 0.51626 0.90939 -0.16323
 N456 N 0.49755 0.88933 -0.16452
 N457 N 0.49924 0.86820 -0.15109
 C458 C 0.51970 0.86648 -0.13598
 N459 N 0.53845 0.88651 -0.13476
 N460 N 0.53676 0.90764 -0.14820
 C461 C 0.51341 0.93293 -0.17612
 C462 C 0.51048 0.95299 -0.18627
 C463 C 0.52037 0.84479 -0.11980
 C464 C 0.52039 0.82721 -0.10532
 C465 C 0.98199 0.33740 0.41010
 N466 N 0.99998 0.33557 0.38944
 N467 N 0.99771 0.34872 0.36824
 C468 C 0.97737 0.36408 0.36703
 N469 N 0.95934 0.36585 0.38766
 N470 N 0.96161 0.35270 0.40887
 C471 C 0.98540 0.32463 0.43359
 C472 C 0.98877 0.31450 0.45355
 C473 C 0.97602 0.37982 0.34510
 C474 C 0.97539 0.39386 0.32724
 C475 C 0.51282 0.91130 0.14310
 N476 N 0.49454 0.89083 0.14365
 N477 N 0.49671 0.87013 0.12653
 C478 C 0.51723 0.86927 0.10834
 N479 N 0.53554 0.88972 0.10783
 N480 N 0.53337 0.91042 0.12495
 C481 C 0.50977 0.93413 0.16067
 C482 C 0.50679 0.95350 0.17507
 C483 C 0.51880 0.84768 0.08898
 C484 C 0.51982 0.82996 0.07222
 C485 C 0.01337 0.35745 0.58771
 N486 N 0.03378 0.37577 0.58858
 N487 N 0.03592 0.39282 0.60935
 C488 C 0.01772 0.39206 0.62987
 N489 N -0.00266 0.37370 0.62902
 N490 N -0.00480 0.35665 0.60825
 C491 C 0.01034 0.33995 0.56481
 C492 C 0.00738 0.32560 0.54539
 C493 C 0.01925 0.41133 0.65155
 C494 C 0.02023 0.42802 0.66934
 C495 C 0.48854 0.08733 0.85752
 N496 N 0.50723 0.10744 0.85711
 N497 N 0.50552 0.12804 0.87442
 C498 C 0.48506 0.12916 0.89265
 N499 N 0.46633 0.10909 0.89302
 N500 N 0.46804 0.08848 0.87571
 C501 C 0.49111 0.06455 0.83978
 C502 C 0.49369 0.04519 0.82527
 C503 C 0.48397 0.15062 0.91221
 C504 C 0.48337 0.16822 0.92912
 C505 C 0.98949 0.64294 0.41248
 N506 N 0.96879 0.62499 0.41109
 N507 N 0.96713 0.60766 0.39050
 C508 C 0.98610 0.60776 0.37066
 N509 N 1.00677 0.62575 0.37202
 N510 N 1.00844 0.64308 0.39262
 C511 C 0.99200 0.66069 0.43526
 C512 C 0.99451 0.67520 0.45464
 C513 C 0.98503 0.58818 0.34923
 C514 C 0.98443 0.57125 0.33164
 C515 C 1.14428 0.48712 0.08739
 N516 N 1.12584 0.46679 0.08795
 N517 N 1.10884 0.46443 0.10870
 C518 C 1.10977 0.48230 0.12952
 N519 N 1.12825 0.50260 0.12898
 N520 N 1.14525 0.50497 0.10824
 C521 C 1.16172 0.49042 0.06453
 C522 C 1.17599 0.49360 0.04512
 C523 C 1.09054 0.48056 0.15118
 C524 C 1.07388 0.47941 0.16896
 C525 C 0.58763 -0.01107 0.64345
 N526 N 0.58916 -0.03191 0.62565
 N527 N 0.60974 -0.03355 0.60835
 C528 C 0.62943 -0.01440 0.60833
 N529 N 0.62793 0.00641 0.62616
 N530 N 0.60735 0.00804 0.64346
 C531 C 0.56485 -0.00860 0.66115
 C532 C 0.54547 -0.00611 0.67561
 C533 C 0.65084 -0.01544 0.58876
 C534 C 0.66840 -0.01603 0.57184
 C535 C -0.14368 0.51181 0.91277
 N536 N -0.14396 0.49308 0.89267
 N537 N -0.12667 0.49488 0.87210
 C538 C -0.10857 0.51548 0.87099
 N539 N -0.10832 0.53424 0.89105
 N540 N -0.12561 0.53244 0.91163
 C541 C -0.16136 0.50912 0.93555
 C542 C -0.17579 0.50641 0.95493
 C543 C -0.08900 0.51664 0.84957
 C544 C -0.07208 0.51730 0.83201
 C545 C 0.41152 0.01228 0.35631
 N546 N 0.39115 -0.00611 0.35589
 N547 N 0.37043 -0.00385 0.37293
 C548 C 0.36944 0.01689 0.39089
 N549 N 0.38979 0.03531 0.39127
 N550 N 0.41051 0.03305 0.37424
 C551 C 0.43438 0.00915 0.33884
 C552 C 0.45377 0.00612 0.32452
 C553 C 0.34782 0.01857 0.41017
 C554 C 0.33008 0.01969 0.42686
 C555 C 0.16227 0.52006 0.91024
 N556 N 0.16447 0.50245 0.88926
 N557 N 0.15119 0.50477 0.86815
 C558 C 0.13533 0.52479 0.86736
 N559 N 0.13320 0.54245 0.88830
 N560 N 0.14647 0.54012 0.90942
 C561 C 0.17517 0.51653 0.93363
 C562 C 0.18540 0.51304 0.95350
 C563 C 0.11949 0.52614 0.84550
 C564 C 0.10538 0.52676 0.82769
 C565 C 0.59003 -0.01941 0.33736
 N566 N 0.59117 -0.03964 0.35290
 N567 N 0.61231 -0.04180 0.36618
 C568 C 0.63296 -0.02381 0.36430
 N569 N 0.63186 -0.00362 0.34869
 N570 N 0.61072 -0.00147 0.33542
 C571 C 0.56661 -0.01610 0.32446
 C572 C 0.54671 -0.01280 0.31423
 C573 C 0.65483 -0.02502 0.38014
 C574 C 0.67264 -0.02553 0.39426
 C575 C 0.83788 0.48301 0.09041
 N576 N 0.83654 0.50150 0.11069
 N577 N 0.85014 0.49971 0.13169
 C578 C 0.86547 0.47936 0.13307
 N579 N 0.86674 0.46083 0.11282
 N580 N 0.85314 0.46262 0.09182
 C581 C 0.82480 0.48599 0.06700
 C582 C 0.81451 0.48902 0.04704
 C583 C 0.88181 0.47861 0.15463
 C584 C 0.89640 0.47854 0.17211
 C585 C 0.40868 0.01672 0.66297
 N586 N 0.38851 -0.00186 0.66430
 N587 N 0.36748 -0.00015 0.65073
 C588 C 0.36597 0.02021 0.63544
 N589 N 0.38611 0.03883 0.63417
 N590 N 0.40714 0.03712 0.64774
 C591 C 0.43211 0.01383 0.67601
 C592 C 0.45208 0.01087 0.68628
 C593 C 0.34439 0.02087 0.61913
 C594 C 0.32689 0.02089 0.60455
   
