data_POSCAR
  _audit_creation_date              2014-09-24
  _audit_creation_method            'ToBaCCo'
  _symmetry_space_group_name_H-M    'P1'
  _symmetry_Int_Tables_number       1
  _symmetry_cell_setting            triclinic
  loop_
  _symmetry_equiv_pos_as_xyz
 x,y,z
_cell_length_a 43.0627
_cell_length_b 47.4097
_cell_length_c 44.1239
_cell_angle_alpha 89.916200
_cell_angle_beta 90.648400
_cell_angle_gamma 90.062300
loop_
  _atom_site_label
  _atom_site_type_symbol
  _atom_site_fract_x
  _atom_site_fract_y
  _atom_site_fract_z
C1 C 1.20253 0.26500 0.29156
 H2 H 1.19762 0.24279 0.28910
 C3 C 1.18412 0.28134 0.31064
 H4 H 1.16545 0.27148 0.32303
 C5 C 1.23192 0.30519 0.27783
 H6 H 1.25002 0.31473 0.26461
 C7 C 1.21476 0.32208 0.29736
 H8 H 1.22003 0.34438 0.29902
 N9 N 1.22581 0.27709 0.27539
 C10 C 1.23736 0.21294 0.20586
 H11 H 1.26223 0.21000 0.20758
 C12 C 1.21971 0.19581 0.18662
 H13 H 1.23123 0.17960 0.17365
 C14 C 1.19230 0.23763 0.22100
 H15 H 1.18178 0.25427 0.23402
 C16 C 1.17367 0.22065 0.20237
 H17 H 1.14885 0.22425 0.20148
 Zn18 Zn 1.24984 0.25446 0.24858
 N19 N 1.22349 0.23326 0.22266
 C20 C 1.30575 0.22832 0.26993
 N21 N 1.27421 0.22809 0.27119
 C22 C 1.25908 0.20809 0.28749
 C23 C 1.27565 0.18778 0.30398
 C24 C 1.32330 0.20872 0.28638
 C25 C 1.26999 0.27933 0.19393
 C26 C 1.28825 0.29631 0.17537
 C27 C 1.31798 0.31043 0.21953
 C28 C 1.29897 0.29333 0.23729
 N29 N 1.27566 0.27796 0.22430
 H30 H 1.31757 0.24344 0.25592
 H31 H 1.23402 0.20755 0.28736
 H32 H 1.26269 0.17225 0.31670
 H33 H 1.34837 0.20983 0.28491
 H34 H 1.25108 0.26743 0.18396
 H35 H 1.28326 0.29699 0.15128
 H36 H 1.33641 0.32240 0.23038
 H37 H 1.30281 0.29232 0.26154
 C38 C 1.18738 0.19937 0.18494
 C39 C 1.19038 0.31021 0.31383
 C40 C 1.31273 0.31207 0.18810
 C41 C 1.30841 0.18793 0.30394
 C42 C 0.70363 -0.23349 0.29439
 H43 H 0.70086 -0.25610 0.29633
 C44 C 0.68482 -0.21558 0.31128
 H45 H 0.66762 -0.22466 0.32611
 C46 C 0.72967 -0.19435 0.27295
 H47 H 0.74721 -0.18609 0.25803
 C48 C 0.71161 -0.17568 0.28969
 H49 H 0.71540 -0.15321 0.28727
 N50 N 0.72534 -0.22269 0.27542
 C51 C 0.73984 -0.28618 0.20494
 H52 H 0.76475 -0.28513 0.20282
 C53 C 0.72273 -0.30339 0.18525
 H54 H 0.73487 -0.31590 0.16865
 C55 C 0.69379 -0.27029 0.22815
 H56 H 0.68235 -0.25689 0.24424
 C57 C 0.67579 -0.28740 0.20912
 H58 H 0.65077 -0.28714 0.21127
 Zn59 Zn 0.75044 -0.24728 0.25199
 N60 N 0.72532 -0.27036 0.22622
 C61 C 0.79716 -0.28733 0.26503
 N62 N 0.77551 -0.27037 0.27788
 C63 C 0.77208 -0.26964 0.30851
 C64 C 0.79013 -0.28699 0.32731
 C65 C 0.81592 -0.30476 0.28298
 C66 C 0.76350 -0.21413 0.20133
 C67 C 0.78139 -0.19755 0.18206
 C68 C 0.82522 -0.20408 0.21605
 C69 C 0.80649 -0.22064 0.23462
 N70 N 0.77626 -0.22532 0.22696
 H71 H 0.80027 -0.28707 0.24081
 H72 H 0.75541 -0.25562 0.31855
 H73 H 0.78683 -0.28620 0.35158
 H74 H 0.83288 -0.31811 0.27216
 H75 H 0.73931 -0.21807 0.19592
 H76 H 0.77070 -0.18879 0.16182
 H77 H 0.84920 -0.20050 0.22263
 H78 H 0.81600 -0.22949 0.25532
 C79 C 0.69025 -0.30436 0.18739
 C80 C 0.68868 -0.18623 0.30902
 C81 C 0.81270 -0.19226 0.18936
 C82 C 0.81235 -0.30493 0.31457
 C83 C 0.69395 0.27007 -0.22712
 H84 H 0.68271 0.25416 -0.24083
 C85 C 0.67586 0.28744 -0.20884
 H86 H 0.65087 0.28488 -0.20913
 C87 C 0.73995 0.29207 -0.20911
 H88 H 0.76496 0.29360 -0.20901
 C89 C 0.72281 0.30959 -0.19019
 H90 H 0.73492 0.32473 -0.17600
 N91 N 0.72541 0.27289 -0.22728
 C92 C 0.73053 0.19616 -0.27355
 H93 H 0.74863 0.18810 -0.25878
 C94 C 0.71248 0.17729 -0.29051
 H95 H 0.71698 0.15489 -0.28852
 C96 C 0.70263 0.23493 -0.29394
 H97 H 0.69888 0.25747 -0.29514
 C98 C 0.68382 0.21681 -0.31105
 H99 H 0.66579 0.22567 -0.32547
 Zn100 Zn 0.75059 0.24936 -0.25190
 N101 N 0.72543 0.22443 -0.27556
 C102 C 0.80331 0.21654 -0.23728
 N103 N 0.77673 0.22775 -0.22617
 C104 C 0.76805 0.22312 -0.19706
 C105 C 0.78640 0.20653 -0.17782
 C106 C 0.82243 0.19988 -0.21878
 C107 C 0.76931 0.27483 -0.30750
 C108 C 0.78752 0.29210 -0.32586
 C109 C 0.81973 0.30281 -0.28222
 C110 C 0.80065 0.28557 -0.26470
 N111 N 0.77578 0.27220 -0.27739
 H112 H 0.80952 0.22038 -0.26062
 H113 H 0.74662 0.23199 -0.18884
 H114 H 0.77890 0.20297 -0.15478
 H115 H 0.84339 0.19101 -0.22814
 H116 H 0.74992 0.26369 -0.31749
 H117 H 0.78135 0.29384 -0.34966
 H118 H 0.83925 0.31313 -0.27117
 H119 H 0.80595 0.28263 -0.24091
 C120 C 0.68867 0.18754 -0.30951
 C121 C 0.69029 0.30754 -0.19004
 C122 C 0.81323 0.30666 -0.31337
 C123 C 0.81396 0.19456 -0.18863
 C124 C 1.19970 -0.23723 -0.20564
 H125 H 1.19505 -0.25957 -0.20785
 C126 C 1.18142 -0.22081 -0.18659
 H127 H 1.16249 -0.23051 -0.17441
 C128 C 1.23048 -0.19749 -0.21812
 H129 H 1.24976 -0.18847 -0.23023
 C130 C 1.21342 -0.18053 -0.19863
 H131 H 1.21946 -0.15845 -0.19623
 N132 N 1.22324 -0.22526 -0.22154
 C133 C 1.23651 -0.28461 -0.29661
 H134 H 1.26148 -0.28473 -0.29809
 C135 C 1.21900 -0.30125 -0.31654
 H136 H 1.23087 -0.31449 -0.33268
 C137 C 1.19078 -0.26655 -0.27469
 H138 H 1.17962 -0.25235 -0.25921
 C139 C 1.17237 -0.28306 -0.29396
 H140 H 1.14733 -0.28171 -0.29243
 Zn141 Zn 1.24786 -0.24746 -0.24790
 N142 N 1.22232 -0.26829 -0.27555
 C143 C 1.29469 -0.28883 -0.23770
 N144 N 1.27298 -0.27241 -0.22413
 C145 C 1.26938 -0.27304 -0.19352
 C146 C 1.28761 -0.29084 -0.17546
 C147 C 1.31364 -0.30673 -0.22046
 C148 C 1.25857 -0.20596 -0.29128
 C149 C 1.27556 -0.18676 -0.30845
 C150 C 1.32244 -0.20329 -0.28363
 C151 C 1.30449 -0.22195 -0.26664
 N152 N 1.27317 -0.22301 -0.27084
 H153 H 1.29798 -0.28756 -0.26185
 H154 H 1.25253 -0.25960 -0.18286
 H155 H 1.28428 -0.29090 -0.15117
 H156 H 1.33083 -0.31946 -0.23178
 H157 H 1.23361 -0.20717 -0.29401
 H158 H 1.26346 -0.17336 -0.32457
 H159 H 1.34733 -0.20271 -0.27992
 H160 H 1.31559 -0.23526 -0.24987
 C161 C 1.18646 -0.30103 -0.31494
 C162 C 1.18834 -0.19212 -0.18292
 C163 C 1.30795 -0.18530 -0.30478
 C164 C 1.31016 -0.30795 -0.18889
 C165 C 0.25996 0.20550 0.70935
 H166 H 0.23500 0.20676 0.70668
 C167 C 0.27680 0.18621 0.69225
 H168 H 0.26458 0.17281 0.67623
 C169 C 0.30601 0.22141 0.73381
 H170 H 0.31723 0.23465 0.75056
 C171 C 0.32382 0.20266 0.71689
 H172 H 0.34871 0.20199 0.72056
 N173 N 0.27470 0.22262 0.72960
 C174 C 0.19968 0.23571 0.79292
 H175 H 0.19358 0.25761 0.78948
 C176 C 0.18147 0.21879 0.81164
 H177 H 0.16121 0.22793 0.82210
 C178 C 0.23397 0.19770 0.78398
 H179 H 0.25455 0.18956 0.77330
 C180 C 0.21722 0.18037 0.80345
 H181 H 0.22512 0.15893 0.80703
 Zn182 Zn 0.24928 0.24711 0.75229
 N183 N 0.22482 0.22472 0.77875
 C184 C 0.19230 0.26430 0.72369
 N185 N 0.22371 0.26769 0.72437
 C186 C 0.23782 0.28560 0.70470
 C187 C 0.22024 0.30213 0.68471
 C188 C 0.17378 0.28068 0.70435
 C189 C 0.26905 0.27418 0.80635
 C190 C 0.28702 0.29217 0.82444
 C191 C 0.31556 0.30588 0.78001
 C192 C 0.29685 0.28781 0.76273
 N193 N 0.27408 0.27235 0.77601
 H194 H 0.18135 0.24882 0.73794
 H195 H 0.26278 0.28718 0.70447
 H196 H 0.23202 0.31665 0.66975
 H197 H 0.14881 0.27800 0.70465
 H198 H 0.25117 0.26162 0.81674
 H199 H 0.28257 0.29321 0.84851
 H200 H 0.33364 0.31780 0.76892
 H201 H 0.30122 0.28560 0.73882
 C202 C 0.19014 0.19061 0.81719
 C203 C 0.30919 0.18469 0.69583
 C204 C 0.31073 0.30828 0.81132
 C205 C 0.18772 0.30021 0.68482
 C206 C 0.77352 0.72967 0.69302
 H207 H 0.75772 0.74448 0.68252
 C208 C 0.79159 0.71233 0.67468
 H209 H 0.78918 0.71391 0.65029
 C210 C 0.79642 0.71002 0.73725
 H211 H 0.79857 0.70941 0.76163
 C212 C 0.81521 0.69257 0.71979
 H213 H 0.83129 0.67839 0.73110
 N214 N 0.77586 0.72799 0.72377
 C215 C 0.69395 0.72687 0.77002
 H216 H 0.68270 0.73937 0.75272
 C217 C 0.67582 0.70960 0.78844
 H218 H 0.65096 0.70900 0.78446
 C219 C 0.73950 0.71321 0.79663
 H220 H 0.76426 0.71517 0.80021
 C221 C 0.72226 0.69594 0.81584
 H222 H 0.73436 0.68444 0.83360
 Zn223 Zn 0.75071 0.75112 0.74893
 N224 N 0.72532 0.72797 0.77394
 C225 C 0.70468 0.76519 0.70469
 N226 N 0.72587 0.77587 0.72472
 C227 C 0.72992 0.80421 0.72766
 C228 C 0.71201 0.82298 0.71044
 C229 C 0.68602 0.78320 0.68728
 C230 C 0.76356 0.78472 0.79960
 C231 C 0.78143 0.80143 0.81914
 C232 C 0.82564 0.79377 0.78692
 C233 C 0.80693 0.77710 0.76806
 N234 N 0.77650 0.77297 0.77468
 H235 H 0.70222 0.74259 0.70227
 H236 H 0.74709 0.81240 0.74337
 H237 H 0.71554 0.84544 0.71329
 H238 H 0.66920 0.77421 0.67162
 H239 H 0.73924 0.78120 0.80420
 H240 H 0.77057 0.81068 0.83877
 H241 H 0.84975 0.79695 0.78114
 H242 H 0.81661 0.76778 0.74792
 C243 C 0.68989 0.69364 0.81174
 C244 C 0.81275 0.69340 0.68805
 C245 C 0.81290 0.80625 0.81285
 C246 C 0.68953 0.81254 0.69008
 C247 C 0.76368 0.21466 0.20032
 H248 H 0.73958 0.21867 0.19466
 C249 C 0.78176 0.19827 0.18112
 H250 H 0.77129 0.18974 0.16068
 C251 C 0.80629 0.22078 0.23417
 H252 H 0.81557 0.22940 0.25505
 C253 C 0.82520 0.20440 0.21568
 H254 H 0.84909 0.20073 0.22250
 N255 N 0.77617 0.22557 0.22618
 C256 C 0.70339 0.23333 0.29339
 H257 H 0.70064 0.25593 0.29533
 C258 C 0.68455 0.21535 0.31025
 H259 H 0.66734 0.22436 0.32507
 C260 C 0.72942 0.19428 0.27195
 H261 H 0.74696 0.18610 0.25703
 C262 C 0.71132 0.17554 0.28866
 H263 H 0.71508 0.15308 0.28623
 Zn264 Zn 0.75023 0.24733 0.25111
 N265 N 0.72511 0.22261 0.27445
 C266 C 0.69359 0.27014 0.22718
 N267 N 0.72512 0.27041 0.22533
 C268 C 0.73963 0.28644 0.20415
 C269 C 0.72249 0.30369 0.18451
 C270 C 0.67556 0.28728 0.20819
 C271 C 0.77175 0.26946 0.30770
 C272 C 0.78983 0.28670 0.32657
 C273 C 0.81568 0.30472 0.28231
 C274 C 0.79688 0.28740 0.26429
 N275 N 0.77520 0.27036 0.27708
 H276 H 0.68215 0.25657 0.24317
 H277 H 0.76455 0.28554 0.20209
 H278 H 0.73462 0.31638 0.16799
 H279 H 0.65053 0.28688 0.21028
 H280 H 0.75507 0.25536 0.31770
 H281 H 0.78654 0.28575 0.35084
 H282 H 0.83268 0.31813 0.27154
 H283 H 0.80003 0.28726 0.24007
 C284 C 0.68838 0.18601 0.30797
 C285 C 0.81297 0.19289 0.18873
 C286 C 0.81210 0.30470 0.31389
 C287 C 0.69001 0.30448 0.18659
 C288 C 0.26998 0.72093 0.19376
 H289 H 0.25112 0.73287 0.18378
 C290 C 0.28826 0.70402 0.17523
 H291 H 0.28333 0.70342 0.15112
 C292 C 0.29884 0.70678 0.23717
 H293 H 0.30263 0.70770 0.26143
 C294 C 0.31786 0.68975 0.21943
 H295 H 0.33624 0.67775 0.23031
 N296 N 0.27559 0.72219 0.22415
 C297 C 0.20264 0.73479 0.29167
 H298 H 0.19780 0.75703 0.28932
 C299 C 0.18427 0.71836 0.31078
 H300 H 0.16571 0.72818 0.32331
 C301 C 0.23179 0.69466 0.27762
 H302 H 0.24976 0.68517 0.26425
 C303 C 0.21467 0.67766 0.29717
 H304 H 0.21985 0.65535 0.29871
 Zn305 Zn 0.24976 0.74557 0.24847
 N306 N 0.22578 0.72278 0.27532
 C307 C 0.19209 0.76247 0.22119
 N308 N 0.22331 0.76681 0.22263
 C309 C 0.23711 0.78718 0.20575
 C310 C 0.21936 0.80441 0.18666
 C311 C 0.17336 0.77955 0.20273
 C312 C 0.25902 0.79192 0.28730
 C313 C 0.27559 0.81220 0.30382
 C314 C 0.32325 0.79125 0.28643
 C315 C 0.30569 0.77168 0.26994
 N316 N 0.27415 0.77193 0.27109
 H317 H 0.18161 0.74580 0.23428
 H318 H 0.26199 0.79011 0.20729
 H319 H 0.23082 0.82066 0.17362
 H320 H 0.14852 0.77598 0.20203
 H321 H 0.23396 0.79249 0.28707
 H322 H 0.26263 0.82771 0.31648
 H323 H 0.34832 0.79013 0.28506
 H324 H 0.31752 0.75657 0.25600
 C325 C 0.19043 0.68947 0.31383
 C326 C 0.31268 0.68821 0.18799
 C327 C 0.30835 0.81202 0.30391
 C328 C 0.18701 0.80089 0.18523
 N329 N 1.05573 0.02972 0.03542
 N330 N 1.07668 0.04943 0.04094
 N331 N 1.03371 -0.02948 0.05631
 N332 N 1.03912 -0.04942 0.07663
 N333 N 1.05532 -0.02945 0.03556
 N334 N 1.07611 -0.04922 0.04124
 N335 N 1.03410 0.02996 0.05614
 N336 N 1.03963 0.04999 0.07627
 C337 C 1.06616 0.06203 0.06631
 C338 C 1.06554 -0.06164 0.06674
 N339 N 0.94512 -0.02894 0.03440
 N340 N 0.92389 -0.04831 0.04006
 N341 N 0.96723 0.03020 0.05544
 N342 N 0.96160 0.04966 0.07599
 N343 N 0.94557 0.03030 0.03424
 N344 N 0.92456 0.04981 0.03984
 N345 N 0.96682 -0.02905 0.05556
 N346 N 0.96101 -0.04851 0.07614
 Mn347 Mn 1.00047 0.00041 0.05618
 C348 C 0.93434 -0.06048 0.06601
 C349 C 0.93509 0.06187 0.06578
 N350 N 1.05539 -0.02943 -0.02966
 N351 N 1.07657 -0.04876 -0.03515
 N352 N 1.03408 0.02998 -0.05093
 N353 N 1.04009 0.04956 -0.07139
 N354 N 1.05586 0.02953 -0.02987
 N355 N 1.07753 0.04840 -0.03565
 N356 N 1.03369 -0.02958 -0.05081
 N357 N 1.03933 -0.04932 -0.07110
 Mn358 Mn 1.05584 0.00009 0.00288
 C359 C 1.06602 -0.06120 -0.06082
 C360 C 1.06713 0.06097 -0.06133
 N361 N 0.94555 0.03031 -0.03121
 N362 N 0.92453 0.04980 -0.03747
 N363 N 0.96682 -0.02914 -0.05173
 N364 N 0.96100 -0.04864 -0.07235
 N365 N 0.94510 -0.02899 -0.03107
 N366 N 0.92386 -0.04835 -0.03712
 N367 N 0.96721 0.03010 -0.05193
 N368 N 0.96152 0.04940 -0.07284
 Mn369 Mn 0.94500 0.00067 0.00159
 Mn370 Mn 1.00046 0.00034 -0.05167
 Cl371 Cl 1.00041 0.00038 0.00224
 C372 C 0.93502 0.06168 -0.06334
 C373 C 0.93430 -0.06058 -0.06277
 N374 N 1.05547 0.52891 0.53518
 N375 N 1.07634 0.54870 0.54067
 N376 N 1.03402 0.46949 0.55595
 N377 N 1.03970 0.44950 0.57614
 N378 N 1.05550 0.46972 0.53506
 N379 N 1.07646 0.45003 0.54053
 N380 N 1.03400 0.52891 0.55608
 N381 N 1.03961 0.54883 0.57631
 C382 C 1.06597 0.56108 0.56623
 C383 C 1.06613 0.43745 0.56605
 N384 N 0.94530 0.46949 0.53470
 N385 N 0.92402 0.45022 0.54061
 N386 N 0.96701 0.52873 0.55598
 N387 N 0.96111 0.54780 0.57689
 N388 N 0.94533 0.52890 0.53480
 N389 N 0.92415 0.54821 0.54068
 N390 N 0.96701 0.46954 0.55586
 N391 N 0.96102 0.45042 0.57677
 Mn392 Mn 1.00054 0.49916 0.55627
 C393 C 0.93434 0.43834 0.56677
 C394 C 0.93450 0.55998 0.56686
 N395 N 1.05524 0.47001 0.46972
 N396 N 1.07686 0.45121 0.46366
 N397 N 1.03337 0.52935 0.44884
 N398 N 1.03937 0.54871 0.42814
 N399 N 1.05523 0.52904 0.46983
 N400 N 1.07689 0.54787 0.46378
 N401 N 1.03338 0.46977 0.44873
 N402 N 1.03935 0.45050 0.42800
 Mn403 Mn 1.05562 0.49942 0.50248
 C404 C 1.06641 0.43895 0.43782
 C405 C 1.06645 0.56023 0.43797
 N406 N 0.94493 0.52910 0.46934
 N407 N 0.92378 0.54856 0.46338
 N408 N 0.96641 0.46990 0.44831
 N409 N 0.96043 0.45065 0.42749
 N410 N 0.94494 0.46971 0.46923
 N411 N 0.92381 0.45022 0.46323
 N412 N 0.96640 0.52908 0.44842
 N413 N 0.96039 0.54842 0.42764
 Mn414 Mn 0.94480 0.49930 0.50201
 Mn415 Mn 0.99989 0.49952 0.44828
 Cl416 Cl 1.00018 0.49935 0.50225
 C417 C 0.93394 0.56057 0.43745
 C418 C 0.93399 0.43838 0.43726
 N419 N 0.52796 0.04987 0.53002
 N420 N 0.53461 0.07011 0.54952
 N421 N 0.54953 0.03043 0.46662
 N422 N 0.57138 0.03684 0.44697
 N423 N 0.52777 0.04982 0.46648
 N424 N 0.53423 0.06991 0.44684
 N425 N 0.54973 0.03048 0.53038
 N426 N 0.57179 0.03707 0.55023
 C427 C 0.56174 0.06166 0.56225
 C428 C 0.56123 0.06134 0.43456
 N429 N 0.52773 -0.04996 0.46661
 N430 N 0.53427 -0.07012 0.44714
 N431 N 0.54969 -0.03059 0.53046
 N432 N 0.57180 -0.03718 0.55026
 N433 N 0.52793 -0.05003 0.53014
 N434 N 0.53464 -0.07032 0.54960
 N435 N 0.54953 -0.03055 0.46671
 N436 N 0.57145 -0.03701 0.44719
 Mn437 Mn 0.54993 -0.00006 0.49855
 C438 C 0.56133 -0.06156 0.43490
 C439 C 0.56179 -0.06183 0.56228
 N440 N 0.46091 0.04965 0.46579
 N441 N 0.45475 0.06941 0.44553
 N442 N 0.43920 0.03039 0.52936
 N443 N 0.41778 0.03642 0.54955
 N444 N 0.46113 0.04966 0.52958
 N445 N 0.45541 0.06915 0.55006
 N446 N 0.43890 0.03043 0.46580
 N447 N 0.41700 0.03682 0.44572
 Mn448 Mn 0.49442 0.04994 0.49796
 C449 C 0.42751 0.06097 0.43298
 C450 C 0.42849 0.06047 0.56251
 N451 N 0.46108 -0.04989 0.52970
 N452 N 0.45527 -0.06944 0.55017
 N453 N 0.43887 -0.03067 0.46587
 N454 N 0.41696 -0.03707 0.44581
 N455 N 0.46085 -0.04986 0.46592
 N456 N 0.45468 -0.06962 0.44571
 N457 N 0.43918 -0.03063 0.52943
 N458 N 0.41770 -0.03672 0.54957
 Mn459 Mn 0.49437 -0.05012 0.49809
 Mn460 Mn 0.43872 -0.00012 0.49761
 Cl461 Cl 0.49438 -0.00009 0.49805
 C462 C 0.42834 -0.06079 0.56256
 C463 C 0.42744 -0.06121 0.43314
 N464 N 0.55959 0.53004 0.03097
 N465 N 0.58080 0.54946 0.03692
 N466 N 0.53798 0.47074 0.05179
 N467 N 0.54376 0.45110 0.07230
 N468 N 0.55951 0.47083 0.03094
 N469 N 0.58064 0.45135 0.03682
 N470 N 0.53804 0.53007 0.05180
 N471 N 0.54389 0.54960 0.07237
 C472 C 0.57047 0.56165 0.06263
 C473 C 0.57028 0.43907 0.06251
 N474 N 0.44929 0.47076 0.03079
 N475 N 0.42775 0.45184 0.03706
 N476 N 0.47113 0.53000 0.05187
 N477 N 0.46497 0.54869 0.07310
 N478 N 0.44935 0.53010 0.03080
 N479 N 0.42782 0.54897 0.03709
 N480 N 0.47108 0.47082 0.05186
 N481 N 0.46493 0.45203 0.07305
 Mn482 Mn 0.50459 0.50041 0.05209
 C483 C 0.43805 0.44014 0.06331
 C484 C 0.43810 0.56058 0.06336
 N485 N 0.55896 0.47093 -0.03452
 N486 N 0.58031 0.45185 -0.04058
 N487 N 0.53712 0.53024 -0.05545
 N488 N 0.54289 0.54963 -0.07616
 N489 N 0.55902 0.53011 -0.03448
 N490 N 0.58037 0.54927 -0.04046
 N491 N 0.53704 0.47085 -0.05546
 N492 N 0.54278 0.45158 -0.07622
 Mn493 Mn 0.55958 0.50048 -0.00176
 C494 C 0.56968 0.43975 -0.06646
 C495 C 0.56978 0.56146 -0.06632
 N496 N 0.44879 0.53018 -0.03461
 N497 N 0.42733 0.54929 -0.04072
 N498 N 0.47004 0.47095 -0.05566
 N499 N 0.46358 0.45199 -0.07669
 N500 N 0.44871 0.47086 -0.03462
 N501 N 0.42721 0.45175 -0.04072
 N502 N 0.47012 0.53012 -0.05566
 N503 N 0.46367 0.54910 -0.07672
 Mn504 Mn 0.44874 0.50048 -0.00192
 Mn505 Mn 0.50359 0.50054 -0.05584
 Cl506 Cl 0.50411 0.50048 -0.00187
 C507 C 0.43714 0.56108 -0.06688
 C508 C 0.43701 0.43999 -0.06685
 C509 C 1.13360 0.14460 0.13130
 N510 N 1.12028 0.15995 0.15360
 N511 N 1.13725 0.17770 0.17034
 C512 C 1.16821 0.18062 0.16556
 N513 N 1.18143 0.16531 0.14314
 N514 N 1.16444 0.14771 0.12628
 C515 C 1.11535 0.12418 0.11359
 N516 N 1.12797 0.11124 0.08923
 N517 N 1.11201 0.09180 0.07384
 C518 C 1.08292 0.08447 0.08237
 N519 N 1.07021 0.09746 0.10664
 N520 N 1.08612 0.11705 0.12194
 C521 C 1.13311 0.64394 0.63121
 N522 N 1.12019 0.65769 0.65488
 N523 N 1.13700 0.67551 0.67164
 C524 C 1.16744 0.68019 0.66551
 N525 N 1.18027 0.66648 0.64171
 N526 N 1.16342 0.64876 0.62485
 C527 C 1.11500 0.62337 0.61352
 N528 N 1.12723 0.61119 0.58853
 N529 N 1.11132 0.59168 0.57316
 C530 C 1.08269 0.58355 0.58232
 N531 N 1.07038 0.59580 0.60723
 N532 N 1.08623 0.61541 0.62252
 C533 C 0.63332 0.13214 0.63890
 N534 N 0.62501 0.15955 0.64231
 N535 N 0.64256 0.17709 0.65870
 C536 C 0.66908 0.16791 0.67243
 N537 N 0.67728 0.14041 0.66911
 N538 N 0.65979 0.12288 0.65259
 C539 C 0.61424 0.11314 0.62010
 N540 N 0.62418 0.08672 0.61330
 N541 N 0.60727 0.07002 0.59524
 C542 C 0.57975 0.07911 0.58353
 N543 N 0.56972 0.10539 0.59057
 N544 N 0.58666 0.12210 0.60848
 C545 C 0.63782 0.64176 0.13131
 N546 N 0.62460 0.65470 0.15535
 N547 N 0.64117 0.67203 0.17294
 C548 C 0.67164 0.67699 0.16730
 N549 N 0.68479 0.66405 0.14316
 N550 N 0.66820 0.64681 0.12548
 C551 C 0.61982 0.62190 0.11260
 N552 N 0.63231 0.61027 0.08741
 N553 N 0.61635 0.59144 0.07111
 C554 C 0.58740 0.58350 0.07949
 N555 N 0.57486 0.59521 0.10458
 N556 N 0.59075 0.61413 0.12080
 C557 C 0.86654 -0.13975 0.13406
 N558 N 0.83722 -0.14701 0.12561
 N559 N 0.82025 -0.16387 0.14304
 C560 C 0.83191 -0.17415 0.16959
 N561 N 0.86136 -0.16697 0.17788
 N562 N 0.87832 -0.15008 0.16048
 C563 C 0.88478 -0.12022 0.11554
 N564 N 0.91323 -0.11142 0.12514
 N565 N 0.92924 -0.09272 0.10904
 C566 C 0.91741 -0.08220 0.08273
 N567 N 0.88908 -0.09116 0.07297
 N568 N 0.87304 -0.10983 0.08910
 C569 C 0.86592 0.35924 0.63491
 N570 N 0.84095 0.34575 0.62273
 N571 N 0.82391 0.32840 0.63955
 C572 C 0.83094 0.32388 0.66934
 N573 N 0.85610 0.33745 0.68134
 N574 N 0.87323 0.35470 0.66450
 C575 C 0.88430 0.37898 0.61664
 N576 N 0.91067 0.39068 0.62819
 N577 N 0.92686 0.40924 0.61206
 C578 C 0.91723 0.41686 0.58382
 N579 N 0.89093 0.40510 0.57219
 N580 N 0.87480 0.38644 0.58828
 C581 C 0.36029 -0.12913 0.64280
 N582 N 0.32910 -0.12592 0.64513
 N583 N 0.31251 -0.14368 0.66188
 C584 C 0.32646 -0.16527 0.67704
 N585 N 0.35772 -0.16830 0.67485
 N586 N 0.37430 -0.15064 0.65797
 C587 C 0.37841 -0.11038 0.62326
 N588 N 0.40841 -0.11653 0.61689
 N589 N 0.42447 -0.10037 0.59795
 C590 C 0.41119 -0.07736 0.58489
 N591 N 0.38131 -0.07099 0.59151
 N592 N 0.36518 -0.08726 0.61032
 C593 C 0.36799 0.36404 0.13350
 N594 N 0.34180 0.35194 0.12210
 N595 N 0.32438 0.33532 0.13939
 C596 C 0.33237 0.33026 0.16878
 N597 N 0.35863 0.34239 0.18011
 N598 N 0.37612 0.35893 0.16280
 C599 C 0.38682 0.38292 0.11470
 N600 N 0.41389 0.39378 0.12561
 N601 N 0.43049 0.41162 0.10896
 C602 C 0.42059 0.41930 0.08083
 N603 N 0.39360 0.40836 0.06983
 N604 N 0.37704 0.39043 0.08645
 C605 C 0.86786 0.14127 -0.13307
 N606 N 0.84059 0.15189 -0.12307
 N607 N 0.82367 0.16903 -0.14059
 C608 C 0.83329 0.17617 -0.16882
 N609 N 0.86068 0.16559 -0.17870
 N610 N 0.87764 0.14849 -0.16117
 C611 C 0.88597 0.12155 -0.11424
 N612 N 0.91329 0.11103 -0.12428
 N613 N 0.92916 0.09230 -0.10777
 C614 C 0.91829 0.08340 -0.08063
 N615 N 0.89107 0.09403 -0.07047
 N616 N 0.87521 0.11280 -0.08697
 C617 C 0.86611 0.64065 0.36892
 N618 N 0.84104 0.65399 0.38052
 N619 N 0.82414 0.67149 0.36337
 C620 C 0.83156 0.67621 0.33393
 N621 N 0.85671 0.66285 0.32243
 N622 N 0.87368 0.64547 0.33959
 C623 C 0.88433 0.62072 0.38741
 N624 N 0.91063 0.60907 0.37630
 N625 N 0.92668 0.59027 0.39252
 C626 C 0.91697 0.58233 0.42041
 N627 N 0.89074 0.59403 0.43163
 N628 N 0.87474 0.61295 0.41544
 C629 C 0.35863 0.13125 0.35387
 N630 N 0.37305 0.15171 0.33776
 N631 N 0.35664 0.17001 0.32121
 C632 C 0.32506 0.16885 0.32023
 N633 N 0.31075 0.14818 0.33640
 N634 N 0.32717 0.12974 0.35282
 C635 C 0.37679 0.11191 0.37311
 N636 N 0.36321 0.08927 0.38647
 N637 N 0.37955 0.07252 0.40497
 C638 C 0.40998 0.07793 0.41089
 N639 N 0.42357 0.10046 0.39743
 N640 N 0.40731 0.11707 0.37878
 C641 C 0.36611 0.63853 -0.13567
 N642 N 0.34092 0.65132 -0.12366
 N643 N 0.32325 0.66840 -0.14052
 C644 C 0.32997 0.67324 -0.17009
 N645 N 0.35522 0.66040 -0.18205
 N646 N 0.37297 0.64341 -0.16517
 C647 C 0.38522 0.61925 -0.11730
 N648 N 0.41161 0.60799 -0.12867
 N649 N 0.42846 0.58983 -0.11235
 C650 C 0.41949 0.58222 -0.08411
 N651 N 0.39319 0.59355 -0.07266
 N652 N 0.37639 0.61180 -0.08894
 C653 C 1.13516 -0.14001 -0.12745
 N654 N 1.12152 -0.16120 -0.14343
 N655 N 1.13851 -0.17815 -0.16069
 C656 C 1.16966 -0.17425 -0.16289
 N657 N 1.18323 -0.15303 -0.14692
 N658 N 1.16633 -0.13634 -0.12937
 C659 C 1.11662 -0.12072 -0.10914
 N660 N 1.13040 -0.10513 -0.08701
 N661 N 1.11399 -0.08663 -0.07116
 C662 C 1.08332 -0.08280 -0.07715
 N663 N 1.06948 -0.09840 -0.09927
 N664 N 1.08582 -0.11718 -0.11488
 C665 C 1.13671 0.36199 0.36944
 N666 N 1.12339 0.34027 0.35404
 N667 N 1.14052 0.32346 0.33673
 C668 C 1.17151 0.32803 0.33388
 N669 N 1.18475 0.34981 0.34924
 N670 N 1.16771 0.36635 0.36685
 C671 C 1.11796 0.38098 0.38805
 N672 N 1.13167 0.39684 0.41002
 N673 N 1.11502 0.41485 0.42628
 C674 C 1.08413 0.41795 0.42090
 N675 N 1.07036 0.40213 0.39891
 N676 N 1.08696 0.38381 0.38290
 C677 C 0.63297 -0.13142 0.35951
 N678 N 0.62518 -0.15901 0.35637
 N679 N 0.64286 -0.17638 0.34034
 C680 C 0.66899 -0.16683 0.32672
 N681 N 0.67666 -0.13915 0.32977
 N682 N 0.65906 -0.12179 0.34594
 C683 C 0.61381 -0.11259 0.37793
 N684 N 0.62349 -0.08604 0.38474
 N685 N 0.60655 -0.06948 0.40250
 C686 C 0.57926 -0.07886 0.41389
 N687 N 0.56947 -0.10528 0.40683
 N688 N 0.58645 -0.12185 0.38921
 C689 C 0.63764 0.36115 -0.13510
 N690 N 0.62397 0.34660 -0.15813
 N691 N 0.64062 0.32939 -0.17540
 C692 C 0.67163 0.32621 -0.17046
 N693 N 0.68523 0.34080 -0.14737
 N694 N 0.66856 0.35787 -0.12999
 C695 C 0.61949 0.38070 -0.11654
 N696 N 0.63235 0.39292 -0.09157
 N697 N 0.61625 0.41135 -0.07527
 C698 C 0.58676 0.41833 -0.08345
 N699 N 0.57385 0.40606 -0.10835
 N700 N 0.58989 0.38750 -0.12455
 C701 C 1.13756 0.13840 -0.12893
 N702 N 1.16646 0.13068 -0.13748
 N703 N 1.18336 0.14754 -0.15494
 C704 C 1.17229 0.17303 -0.16414
 N705 N 1.14341 0.18083 -0.15517
 N706 N 1.12625 0.16374 -0.13814
 C707 C 1.11890 0.11931 -0.11043
 N708 N 1.08747 0.11867 -0.11333
 N709 N 1.07080 0.10017 -0.09755
 C710 C 1.08497 0.08205 -0.07799
 N711 N 1.11632 0.08298 -0.07481
 N712 N 1.13301 0.10113 -0.09094
 C713 C 1.13681 0.63744 0.36952
 N714 N 1.16778 0.63305 0.36676
 N715 N 1.18481 0.64966 0.34912
 C716 C 1.17158 0.67155 0.33389
 N717 N 1.14063 0.67615 0.33691
 N718 N 1.12351 0.65927 0.35424
 C719 C 1.11807 0.61838 0.38815
 N720 N 1.08704 0.61560 0.38310
 N721 N 1.07042 0.59724 0.39913
 C722 C 1.08420 0.58130 0.42104
 N723 N 1.11512 0.58434 0.42633
 N724 N 1.13179 0.60241 0.41005
 C725 C 0.63265 0.13108 0.35856
 N726 N 0.65874 0.12151 0.34504
 N727 N 0.67635 0.13890 0.32882
 C728 C 0.66866 0.16656 0.32567
 N729 N 0.64252 0.17605 0.33922
 N730 N 0.62484 0.15865 0.35530
 C731 C 0.61352 0.11226 0.37708
 N732 N 0.58618 0.12150 0.38836
 N733 N 0.56925 0.10495 0.40613
 C734 C 0.57908 0.07858 0.41336
 N735 N 0.60634 0.06922 0.40198
 N736 N 0.62323 0.08575 0.38406
 C737 C 0.63794 0.64064 -0.13441
 N738 N 0.66877 0.64421 -0.12897
 N739 N 0.68550 0.66139 -0.14628
 C740 C 0.67210 0.67583 -0.16966
 N741 N 0.64113 0.67231 -0.17484
 N742 N 0.62442 0.65501 -0.15766
 C743 C 0.61973 0.62093 -0.11599
 N744 N 0.59023 0.61399 -0.12424
 N745 N 0.57413 0.59529 -0.10818
 C746 C 0.58690 0.58302 -0.08318
 N747 N 0.61629 0.59014 -0.07477
 N748 N 0.63244 0.60871 -0.09092
 C749 C 0.86657 -0.14047 -0.13145
 N750 N 0.83719 -0.14757 -0.12366
 N751 N 0.82027 -0.16468 -0.14120
 C752 C 0.83206 -0.17538 -0.16720
 N753 N 0.86157 -0.16837 -0.17483
 N754 N 0.87847 -0.15122 -0.15733
 C755 C 0.88477 -0.12070 -0.11280
 N756 N 0.91324 -0.11197 -0.12184
 N757 N 0.92923 -0.09312 -0.10561
 C758 C 0.91736 -0.08239 -0.07971
 N759 N 0.88901 -0.09127 -0.07050
 N760 N 0.87299 -0.11008 -0.08678
 C761 C 0.86607 0.35867 0.36847
 N762 N 0.84095 0.34529 0.38002
 N763 N 0.82399 0.32792 0.36279
 C764 C 0.83138 0.32340 0.33333
 N765 N 0.85658 0.33680 0.32189
 N766 N 0.87362 0.35404 0.33913
 C767 C 0.88434 0.37847 0.38704
 N768 N 0.91065 0.39020 0.37596
 N769 N 0.92673 0.40892 0.39225
 C770 C 0.91703 0.41668 0.42017
 N771 N 0.89079 0.40489 0.43135
 N772 N 0.87476 0.38606 0.41510
 C773 C 0.35857 -0.13143 0.35401
 N774 N 0.32712 -0.12990 0.35283
 N775 N 0.31070 -0.14830 0.33637
 C776 C 0.32500 -0.16894 0.32027
 N777 N 0.35658 -0.17013 0.32136
 N778 N 0.37299 -0.15188 0.33796
 C779 C 0.37672 -0.11212 0.37328
 N780 N 0.40722 -0.11728 0.37902
 N781 N 0.42347 -0.10069 0.39768
 C782 C 0.40991 -0.07817 0.41106
 N783 N 0.37949 -0.07277 0.40507
 N784 N 0.36316 -0.08950 0.38657
 C785 C 0.36620 0.36221 -0.13546
 N786 N 0.34050 0.34992 -0.12374
 N787 N 0.32298 0.33272 -0.14059
 C788 C 0.33035 0.32724 -0.16987
 N789 N 0.35610 0.33958 -0.18152
 N790 N 0.37369 0.35670 -0.16465
 C791 C 0.38520 0.38162 -0.11712
 N792 N 0.41182 0.39266 -0.12832
 N793 N 0.42862 0.41090 -0.11205
 C794 C 0.41936 0.41880 -0.08403
 N795 N 0.39282 0.40770 -0.07275
 N796 N 0.37607 0.38938 -0.08898
 C797 C 1.13301 -0.14413 0.13197
 N798 N 1.16378 -0.14733 0.12669
 N799 N 1.18082 -0.16498 0.14343
 C800 C 1.16774 -0.18027 0.16601
 N801 N 1.13685 -0.17725 0.17108
 N802 N 1.11982 -0.15944 0.15445
 C803 C 1.11471 -0.12370 0.11428
 N804 N 1.08558 -0.11643 0.12280
 N805 N 1.06966 -0.09687 0.10745
 C806 C 1.08226 -0.08404 0.08295
 N807 N 1.11123 -0.09151 0.07428
 N808 N 1.12720 -0.11092 0.08972
 C809 C 1.13390 0.35488 0.63095
 N810 N 1.16450 0.35103 0.62518
 N811 N 1.18149 0.33342 0.64205
 C812 C 1.16853 0.31884 0.66524
 N813 N 1.13782 0.32253 0.67078
 N814 N 1.12085 0.34027 0.65402
 C815 C 1.11561 0.37535 0.61327
 N816 N 1.08661 0.38276 0.62203
 N817 N 1.07062 0.40232 0.60677
 C818 C 1.08301 0.41503 0.58211
 N819 N 1.11187 0.40744 0.57319
 N820 N 1.12792 0.38801 0.58854
 C821 C 0.63392 -0.13232 0.63844
 N822 N 0.65986 -0.12274 0.65285
 N823 N 0.67745 -0.14020 0.66936
 C824 C 0.66991 -0.16795 0.67192
 N825 N 0.64395 -0.17746 0.65744
 N826 N 0.62628 -0.15999 0.64108
 C827 C 0.61469 -0.11335 0.61976
 N828 N 0.58732 -0.12256 0.60786
 N829 N 0.57024 -0.10584 0.59007
 C830 C 0.57991 -0.07932 0.58344
 N831 N 0.60722 -0.07000 0.59543
 N832 N 0.62427 -0.08670 0.61337
 C833 C 0.63752 0.35855 0.13078
 N834 N 0.66789 0.35359 0.12488
 N835 N 0.68450 0.33628 0.14247
 C836 C 0.67138 0.32319 0.16658
 N837 N 0.64091 0.32806 0.17229
 N838 N 0.62433 0.34546 0.15478
 C839 C 0.61952 0.37851 0.11217
 N840 N 0.59050 0.38626 0.12047
 N841 N 0.57463 0.40527 0.10435
 C842 C 0.58715 0.41711 0.07927
 N843 N 0.61605 0.40919 0.07079
 N844 N 0.63198 0.39026 0.08699
 C845 C 0.86728 0.14092 0.13361
 N846 N 0.87879 0.15094 0.16026
 N847 N 0.86168 0.16768 0.17760
 C848 C 0.83236 0.17498 0.16903
 N849 N 0.82098 0.16502 0.14226
 N850 N 0.83810 0.14832 0.12488
 C851 C 0.88562 0.12151 0.11515
 N852 N 0.87406 0.11138 0.08855
 N853 N 0.89011 0.09275 0.07247
 C854 C 0.91827 0.08360 0.08245
 N855 N 0.92994 0.09387 0.10891
 N856 N 0.91391 0.11252 0.12496
 C857 C 0.86659 0.63921 0.63481
 N858 N 0.87361 0.64327 0.66455
 N859 N 0.85660 0.66056 0.68138
 C860 C 0.83198 0.67458 0.66913
 N861 N 0.82511 0.67061 0.63929
 N862 N 0.84202 0.65321 0.62247
 C863 C 0.88483 0.61944 0.61657
 N864 N 0.87545 0.61223 0.58813
 N865 N 0.89146 0.59352 0.57208
 C866 C 0.91753 0.58149 0.58386
 N867 N 0.92705 0.58886 0.61218
 N868 N 0.91097 0.60745 0.62827
 C869 C 0.36107 0.12854 0.64322
 N870 N 0.37524 0.14997 0.65836
 N871 N 0.35882 0.16761 0.67532
 C872 C 0.32755 0.16464 0.67763
 N873 N 0.31344 0.14312 0.66250
 N874 N 0.32988 0.12538 0.64567
 C875 C 0.37902 0.10985 0.62355
 N876 N 0.36563 0.08680 0.61061
 N877 N 0.38161 0.07060 0.59168
 C878 C 0.41149 0.07696 0.58494
 N879 N 0.42491 0.09989 0.59801
 N880 N 0.40901 0.11598 0.61705
 C881 C 0.36798 0.63640 0.13349
 N882 N 0.37603 0.64143 0.16282
 N883 N 0.35854 0.65791 0.18009
 C884 C 0.33233 0.67009 0.16870
 N885 N 0.32441 0.66511 0.13928
 N886 N 0.34184 0.64855 0.12203
 C887 C 0.38682 0.61758 0.11471
 N888 N 0.37710 0.61016 0.08643
 N889 N 0.39367 0.59231 0.06984
 C890 C 0.42062 0.58134 0.08089
 N891 N 0.43047 0.58893 0.10905
 N892 N 0.41385 0.60670 0.12568
   
