data_POSCAR
  _audit_creation_date              2014-09-24
  _audit_creation_method            'ToBaCCo'
  _symmetry_space_group_name_H-M    'P1'
  _symmetry_Int_Tables_number       1
  _symmetry_cell_setting            triclinic
  loop_
  _symmetry_equiv_pos_as_xyz
 x,y,z
_cell_length_a 38.2417
_cell_length_b 39.3292
_cell_length_c 37.9593
_cell_angle_alpha 88.461600
_cell_angle_beta 89.408000
_cell_angle_gamma 92.401600
loop_
  _atom_site_label
  _atom_site_type_symbol
  _atom_site_fract_x
  _atom_site_fract_y
  _atom_site_fract_z
C1 C 0.70985 0.64250 1.02048
 C2 C 0.73532 0.64573 0.99399
 C3 C 0.76991 0.65421 1.00271
 C4 C 0.78014 0.65796 1.03800
 C5 C 0.75438 0.65274 1.06479
 C6 C 0.71912 0.64457 1.05629
 C7 C 0.72770 0.63347 0.95832
 C8 C 0.70277 0.64833 0.93655
 C9 C 0.69767 0.63674 0.90213
 C10 C 0.71689 0.60926 0.89034
 C11 C 0.74056 0.59332 0.91265
 C12 C 0.74604 0.60590 0.94634
 H13 H 0.68368 0.63427 1.01296
 H14 H 0.78867 0.65718 0.98125
 H15 H 0.68841 0.66955 0.94591
 H16 H 0.76497 0.59437 0.96349
 H17 H 0.76187 0.65409 1.09221
 H18 H 0.71281 0.59954 0.86421
 C19 C 0.77491 0.41239 0.44313
 C20 C 0.77868 0.39191 0.47347
 C21 C 0.80735 0.37123 0.47658
 C22 C 0.83232 0.37023 0.44930
 C23 C 0.82874 0.39140 0.41918
 C24 C 0.80010 0.41270 0.41592
 C25 C 0.75056 0.38826 0.50013
 C26 C 0.72177 0.36619 0.49378
 C27 C 0.69684 0.35844 0.52040
 C28 C 0.70021 0.37426 0.55295
 C29 C 0.72909 0.39627 0.55983
 C30 C 0.75449 0.40288 0.53326
 H31 H 0.75212 0.42772 0.44065
 H32 H 0.80875 0.35458 0.49962
 H33 H 0.71971 0.35418 0.46850
 H34 H 0.77752 0.41892 0.53840
 H35 H 0.84763 0.39035 0.39786
 H36 H 0.68132 0.36765 0.57368
 C37 C 0.25431 -0.12671 -0.02700
 C38 C 0.25820 -0.14733 0.00341
 C39 C 0.28675 -0.16863 0.00607
 C40 C 0.31168 -0.16945 -0.02150
 C41 C 0.30794 -0.14761 -0.05108
 C42 C 0.27956 -0.12621 -0.05411
 C43 C 0.23205 -0.14724 0.03234
 C44 C 0.19890 -0.16326 0.02811
 C45 C 0.17437 -0.16523 0.05616
 C46 C 0.18351 -0.14992 0.08800
 C47 C 0.21615 -0.13275 0.09236
 C48 C 0.24058 -0.13208 0.06442
 H49 H 0.23218 -0.11046 -0.02907
 H50 H 0.28891 -0.18464 0.02950
 H51 H 0.19308 -0.17490 0.00324
 H52 H 0.26613 -0.11957 0.06741
 H53 H 0.32676 -0.14792 -0.07257
 H54 H 0.16485 -0.15158 0.10956
 C55 C 0.24316 0.09039 0.54964
 C56 C 0.25551 0.09559 0.51473
 C57 C 0.29114 0.10389 0.50853
 C58 C 0.31398 0.10898 0.53677
 C59 C 0.30106 0.10477 0.57138
 C60 C 0.26581 0.09538 0.57803
 C61 C 0.23067 0.09854 0.48522
 C62 C 0.20259 0.12018 0.48850
 C63 C 0.18136 0.12749 0.45960
 C64 C 0.18774 0.11181 0.42755
 C65 C 0.21543 0.08972 0.42375
 C66 C 0.23717 0.08359 0.45264
 H67 H 0.21557 0.08468 0.55470
 H68 H 0.30029 0.10928 0.48179
 H69 H 0.19878 0.13284 0.51311
 H70 H 0.25918 0.06735 0.44980
 H71 H 0.31835 0.10945 0.59333
 H72 H 0.17169 0.11784 0.40510
 C73 C 0.09362 0.52482 0.24321
 C74 C 0.12635 0.51033 0.24246
 C75 C 0.15409 0.52501 0.26122
 C76 C 0.14950 0.55462 0.28037
 C77 C 0.11735 0.57070 0.27845
 C78 C 0.08911 0.55585 0.25992
 C79 C 0.13217 0.48198 0.21890
 C80 C 0.15351 0.48760 0.18886
 C81 C 0.15618 0.46225 0.16373
 C82 C 0.13766 0.43094 0.16948
 C83 C 0.11649 0.42498 0.19964
 C84 C 0.11391 0.45063 0.22434
 H85 H 0.07284 0.51347 0.22766
 H86 H 0.17893 0.51279 0.26126
 H87 H 0.16717 0.51207 0.18492
 H88 H 0.09697 0.44663 0.24727
 H89 H 0.11410 0.59427 0.29204
 H90 H 0.13970 0.41112 0.15039
 C91 C -0.10648 -0.05060 0.27135
 C92 C -0.12156 -0.01893 0.27468
 C93 C -0.14218 -0.01252 0.30429
 C94 C -0.14850 -0.03785 0.33070
 C95 C -0.13250 -0.06920 0.32738
 C96 C -0.11122 -0.07567 0.29812
 C97 C -0.11766 0.00725 0.24643
 C98 C -0.13846 0.00456 0.21636
 C99 C -0.13856 0.03146 0.19117
 C100 C -0.11590 0.06003 0.19566
 C101 C -0.09394 0.06223 0.22490
 C102 C -0.09567 0.03623 0.25086
 H103 H -0.09068 -0.05542 0.24829
 H104 H -0.15396 0.01194 0.30575
 H105 H -0.15597 -0.01759 0.21410
 H106 H -0.07960 0.03821 0.27413
 H107 H -0.13714 -0.08904 0.34741
 H108 H -0.11516 0.08082 0.17628
 C109 C 0.37946 0.46751 0.70814
 C110 C 0.36554 0.48506 0.73631
 C111 C 0.36782 0.47159 0.77074
 C112 C 0.38534 0.44126 0.77725
 C113 C 0.40000 0.42448 0.74852
 C114 C 0.39638 0.43693 0.71383
 C115 C 0.34895 0.51761 0.72859
 C116 C 0.32071 0.51792 0.70524
 C117 C 0.31011 0.54859 0.68996
 C118 C 0.32771 0.57913 0.69875
 C119 C 0.35568 0.57936 0.72244
 C120 C 0.36572 0.54852 0.73801
 H121 H 0.37670 0.47799 0.68174
 H122 H 0.35651 0.48507 0.79233
 H123 H 0.30891 0.49394 0.69699
 H124 H 0.38858 0.54821 0.75463
 H125 H 0.41266 0.40064 0.75272
 H126 H 0.32031 0.60281 0.68621
 C127 C 0.58454 1.06797 0.76708
 C128 C 0.59191 1.03480 0.77838
 C129 C 0.60512 1.02901 0.81217
 C130 C 0.61277 1.05644 0.83431
 C131 C 0.60497 1.08950 0.82265
 C132 C 0.59078 1.09558 0.78916
 C133 C 0.59191 1.00724 0.75287
 C134 C 0.61755 1.00867 0.72616
 C135 C 0.62024 0.98192 0.70270
 C136 C 0.59557 0.95449 0.70516
 C137 C 0.56982 0.95270 0.73184
 C138 C 0.56858 0.97877 0.75630
 H139 H 0.57513 1.07228 0.74057
 H140 H 0.61189 1.00339 0.81963
 H141 H 0.63606 1.03024 0.72482
 H142 H 0.54919 0.97730 0.77737
 H143 H 0.61022 1.11058 0.83978
 H144 H 0.59706 0.93376 0.68702
 C145 C -0.02615 0.24523 -0.09663
 C146 C 0.00554 0.25203 -0.11511
 C147 C 0.00890 0.28069 -0.13801
 C148 C -0.01907 0.30247 -0.14294
 C149 C -0.05019 0.29558 -0.12351
 C150 C -0.05376 0.26734 -0.10020
 C151 C 0.03466 0.22836 -0.11227
 C152 C 0.02778 0.19322 -0.11557
 C153 C 0.05537 0.17075 -0.11794
 C154 C 0.08997 0.18404 -0.11584
 C155 C 0.09732 0.21894 -0.11168
 C156 C 0.06953 0.24096 -0.10957
 H157 H -0.02889 0.22341 -0.07862
 H158 H 0.03300 0.28490 -0.15291
 H159 H 0.00096 0.18404 -0.11851
 H160 H 0.07506 0.26802 -0.10698
 H161 H -0.07192 0.31223 -0.12638
 H162 H 0.11151 0.16707 -0.11729
 C163 C 0.55870 0.26191 0.12023
 C164 C 0.52610 0.26734 0.13598
 C165 C 0.52268 0.29496 0.15828
 C166 C 0.55141 0.31715 0.16514
 C167 C 0.58356 0.31186 0.14846
 C168 C 0.58743 0.28451 0.12575
 C169 C 0.49542 0.24400 0.13012
 C170 C 0.49747 0.20881 0.13694
 C171 C 0.46703 0.18747 0.13693
 C172 C 0.43474 0.20149 0.12950
 C173 C 0.43266 0.23618 0.12108
 C174 C 0.46303 0.25733 0.12116
 H175 H 0.56136 0.24069 0.10291
 H176 H 0.49753 0.29861 0.17056
 H177 H 0.52226 0.19853 0.14437
 H178 H 0.46121 0.28440 0.11577
 H179 H 0.60579 0.32883 0.15373
 H180 H 0.41109 0.18528 0.12989
 C181 C 1.03684 0.76462 0.60095
 C182 C 1.00699 0.76904 0.62168
 C183 C 1.00472 0.79820 0.64184
 C184 C 1.03305 0.82220 0.64300
 C185 C 1.06280 0.81744 0.62180
 C186 C 1.06434 0.78926 0.59998
 C187 C 0.97873 0.74242 0.62343
 C188 C 0.98627 0.70902 0.63374
 C189 C 0.95935 0.68385 0.63696
 C190 C 0.92503 0.69204 0.62877
 C191 C 0.91736 0.72493 0.61670
 C192 C 0.94428 0.75031 0.61506
 H193 H 1.03817 0.74233 0.58486
 H194 H 0.98169 0.80069 0.65823
 H195 H 1.01284 0.70304 0.64042
 H196 H 0.93878 0.77595 0.60620
 H197 H 1.08468 0.83586 0.62196
 H198 H 0.90445 0.67237 0.63127
 C199 C 0.45607 0.76433 0.41691
 C200 C 0.48756 0.77022 0.39806
 C201 C 0.49411 0.80130 0.37965
 C202 C 0.46905 0.82641 0.37976
 C203 C 0.43819 0.82063 0.39970
 C204 C 0.43167 0.78984 0.41848
 C205 C 0.51444 0.74459 0.39929
 C206 C 0.51036 0.71448 0.38058
 C207 C 0.53611 0.68991 0.38223
 C208 C 0.56524 0.69547 0.40393
 C209 C 0.56918 0.72545 0.42301
 C210 C 0.54404 0.75018 0.41997
 H211 H 0.45124 0.74045 0.43143
 H212 H 0.51828 0.80534 0.36472
 H213 H 0.48761 0.71092 0.36417
 H214 H 0.54685 0.77343 0.43461
 H215 H 0.41882 0.83996 0.40017
 H216 H 0.58512 0.67668 0.40554
 C217 C 0.42599 -0.02430 0.27492
 H218 H 0.43630 -0.00207 0.26041
 C219 C 0.44908 -0.04547 0.29234
 H220 H 0.47688 -0.03928 0.29067
 C221 C 0.37740 -0.05881 0.29545
 H222 H 0.34951 -0.06397 0.29680
 C223 C 0.39944 -0.08045 0.31340
 H224 H 0.38806 -0.10222 0.32813
 N225 N 0.39086 -0.03172 0.27604
 C226 C 0.38014 0.06145 0.22558
 H227 H 0.36055 0.06922 0.24404
 C228 C 0.40061 0.08621 0.20702
 H229 H 0.39631 0.11285 0.21123
 C230 C 0.41028 0.01757 0.19833
 H231 H 0.41412 -0.00932 0.19542
 C232 C 0.43188 0.04154 0.17976
 H233 H 0.45190 0.03291 0.16216
 Zn234 Zn 0.35953 -0.00500 0.24963
 N235 N 0.38541 0.02784 0.22119
 C236 C 0.30070 0.03095 0.26555
 N237 N 0.32898 0.01695 0.28061
 C238 C 0.33317 0.01641 0.31620
 C239 C 0.30772 0.02971 0.33816
 C240 C 0.27462 0.04417 0.28642
 C241 C 0.33342 -0.03543 0.18583
 C242 C 0.30881 -0.05484 0.16684
 C243 C 0.27900 -0.07030 0.22166
 C244 C 0.30400 -0.05088 0.23945
 N245 N 0.33050 -0.03374 0.22156
 H246 H 0.29799 0.03098 0.23721
 H247 H 0.35585 0.00505 0.32762
 H248 H 0.31101 0.02858 0.36646
 H249 H 0.25230 0.05492 0.27365
 H250 H 0.35422 -0.02117 0.17187
 H251 H 0.31096 -0.05543 0.13840
 H252 H 0.25819 -0.08341 0.23681
 H253 H 0.30133 -0.04838 0.26760
 C254 C 0.42729 0.07637 0.18433
 C255 C 0.43582 -0.07431 0.31144
 C256 C 0.28074 -0.07197 0.18481
 C257 C 0.27759 0.04308 0.32329
 C258 C 0.08476 1.00968 0.80830
 H259 H 0.07198 0.98867 0.79515
 C260 C 0.06456 1.03161 0.82748
 H261 H 0.03643 1.02749 0.82797
 C262 C 0.13677 1.04029 0.82361
 H263 H 0.16497 1.04358 0.82178
 C264 C 0.11762 1.06294 0.84291
 H265 H 0.13133 1.08375 0.85575
 N266 N 0.12004 1.01539 0.80528
 C267 C 0.12522 0.92432 0.75081
 H268 H 0.14717 0.91494 0.76532
 C269 C 0.10373 0.90177 0.73205
 H270 H 0.10889 0.87489 0.73247
 C271 C 0.09204 0.97078 0.73152
 H272 H 0.08816 0.99788 0.73092
 C273 C 0.06917 0.94901 0.71357
 H274 H 0.04742 0.95928 0.69932
 Zn275 Zn 0.14749 0.98962 0.77472
 N276 N 0.11870 0.95806 0.75057
 C277 C 0.16968 0.94666 0.83014
 N278 N 0.18094 0.96761 0.80286
 C279 C 0.21559 0.97508 0.79725
 C280 C 0.24048 0.96121 0.81942
 C281 C 0.19375 0.93219 0.85305
 C282 C 0.16863 1.05278 0.73996
 C283 C 0.18623 1.07320 0.71426
 C284 C 0.20463 1.02241 0.68630
 C285 C 0.18731 1.00292 0.71303
 N286 N 0.17019 1.01829 0.73948
 H287 H 0.14191 0.94157 0.83438
 H288 H 0.22403 0.99239 0.77598
 H289 H 0.26774 0.96806 0.81432
 H290 H 0.18429 0.91565 0.87466
 H291 H 0.15392 1.06470 0.76025
 H292 H 0.18516 1.10061 0.71545
 H293 H 0.21864 1.00984 0.66577
 H294 H 0.18770 0.97543 0.71289
 C295 C 0.07501 0.91414 0.71383
 C296 C 0.08094 1.05944 0.84402
 C297 C 0.20478 1.05800 0.68721
 C298 C 0.22974 0.93947 0.84792
 C299 C 0.58879 0.55684 0.26834
 H300 H 0.58336 0.54683 0.24261
 C301 C 0.56576 0.57891 0.28346
 H302 H 0.54282 0.58589 0.26894
 C303 C 0.62624 0.56063 0.31757
 H304 H 0.65011 0.55376 0.33044
 C305 C 0.60412 0.58341 0.33344
 H306 H 0.61097 0.59377 0.35873
 N307 N 0.61809 0.54777 0.28561
 C308 C 0.63582 0.45614 0.22708
 H309 H 0.66201 0.46165 0.21684
 C310 C 0.61694 0.42694 0.21671
 H311 H 0.62888 0.41002 0.19850
 C312 C 0.58847 0.47173 0.26305
 H313 H 0.57756 0.48894 0.28150
 C314 C 0.56874 0.44282 0.25349
 H315 H 0.54273 0.43871 0.26460
 Zn316 Zn 0.64709 0.51877 0.26048
 N317 N 0.62108 0.47826 0.24921
 C318 C 0.67957 0.48911 0.31858
 N319 N 0.68621 0.50552 0.28709
 C320 C 0.71937 0.50933 0.27382
 C321 C 0.74743 0.49632 0.29245
 C322 C 0.70684 0.47574 0.33809
 C323 C 0.64283 0.53597 0.18862
 C324 C 0.64724 0.55669 0.15845
 C325 C 0.68890 0.59234 0.18949
 C326 C 0.68303 0.57128 0.21955
 N327 N 0.66043 0.54358 0.21851
 H328 H 0.65289 0.48579 0.32820
 H329 H 0.72404 0.52145 0.24825
 H330 H 0.77339 0.49937 0.28099
 H331 H 0.70086 0.46240 0.36289
 H332 H 0.62399 0.51475 0.18855
 H333 H 0.63246 0.55047 0.13513
 H334 H 0.70657 0.61451 0.19066
 H335 H 0.69576 0.57757 0.24399
 C336 C 0.58274 0.42013 0.22962
 C337 C 0.57332 0.59257 0.31640
 C338 C 0.67012 0.58550 0.15881
 C339 C 0.74130 0.47890 0.32493
 C340 C 0.93677 0.45401 0.76060
 H341 H 0.94763 0.47868 0.75212
 C342 C 0.95901 0.42977 0.77412
 H343 H 0.98679 0.43602 0.77534
 C344 C 0.88733 0.41674 0.77151
 H345 H 0.85930 0.41201 0.77073
 C346 C 0.90858 0.39198 0.78587
 H347 H 0.89676 0.36807 0.79582
 N348 N 0.90165 0.44705 0.75918
 C349 C 0.92251 0.51074 0.69540
 H350 H 0.92640 0.48472 0.68822
 C351 C 0.94274 0.53722 0.67917
 H352 H 0.96181 0.53152 0.65913
 C353 C 0.89294 0.54987 0.73022
 H354 H 0.87389 0.55482 0.75038
 C355 C 0.91188 0.57710 0.71400
 H356 H 0.90700 0.60282 0.72169
 Zn357 Zn 0.87146 0.48092 0.74256
 N358 N 0.89821 0.51744 0.72050
 C359 C 0.81840 0.51726 0.77597
 N360 N 0.84596 0.49702 0.78146
 C361 C 0.85552 0.48759 0.81458
 C362 C 0.83715 0.49852 0.84378
 C363 C 0.79950 0.52915 0.80455
 C364 C 0.84404 0.46576 0.67478
 C365 C 0.81838 0.45391 0.65161
 C366 C 0.78264 0.43506 0.70179
 C367 C 0.80913 0.44678 0.72395
 N368 N 0.83895 0.46215 0.71026
 H369 H 0.81122 0.52427 0.74933
 H370 H 0.87766 0.47178 0.81847
 H371 H 0.84573 0.49102 0.86980
 H372 H 0.77778 0.54542 0.79980
 H373 H 0.86770 0.47822 0.66428
 H374 H 0.82268 0.45724 0.62346
 H375 H 0.75913 0.42304 0.71337
 H376 H 0.80560 0.44424 0.75221
 C377 C 0.93719 0.57086 0.68832
 C378 C 0.94491 0.39833 0.78707
 C379 C 0.78698 0.43891 0.66509
 C380 C 0.80869 0.51957 0.83898
 C381 C 0.34106 0.38564 -0.04511
 H382 H 0.35181 0.37569 -0.02094
 C383 C 0.36362 0.39698 -0.07247
 H384 H 0.39159 0.39538 -0.06916
 C385 C 0.29168 0.39904 -0.07920
 H386 H 0.26354 0.39871 -0.08196
 C387 C 0.31334 0.41117 -0.10708
 H388 H 0.30170 0.42011 -0.13132
 N389 N 0.30580 0.38550 -0.04951
 C390 C 0.22362 0.38023 0.03116
 H391 H 0.21719 0.35317 0.03195
 C392 C 0.20748 0.40114 0.05483
 H393 H 0.18813 0.38996 0.07320
 C394 C 0.25848 0.42694 0.00789
 H395 H 0.27912 0.43659 -0.00982
 C396 C 0.24297 0.44888 0.03128
 H397 H 0.25175 0.47538 0.03098
 Zn398 Zn 0.27531 0.36198 -0.01668
 N399 N 0.24917 0.39316 0.00886
 C400 C 0.29694 0.34015 0.05145
 N401 N 0.30202 0.33604 0.01626
 C402 C 0.32618 0.31432 0.00456
 C403 C 0.34587 0.29559 0.02847
 C404 C 0.31518 0.32115 0.07615
 C405 C 0.20940 0.33573 -0.04242
 C406 C 0.18755 0.31282 -0.06042
 C407 C 0.23876 0.28457 -0.07997
 C408 C 0.25954 0.30784 -0.06149
 N409 N 0.24472 0.33233 -0.04242
 H410 H 0.27882 0.35817 0.06079
 H411 H 0.33090 0.31201 -0.02333
 H412 H 0.36498 0.27846 0.01878
 H413 H 0.31038 0.32450 0.10399
 H414 H 0.19793 0.35622 -0.02863
 H415 H 0.15951 0.31563 -0.05959
 H416 H 0.25152 0.26503 -0.09416
 H417 H 0.28761 0.30629 -0.06247
 C418 C 0.21775 0.43575 0.05580
 C419 C 0.34971 0.40878 -0.10438
 C420 C 0.20214 0.28658 -0.07925
 C421 C 0.33989 0.29853 0.06469
 C422 C 0.78503 0.09171 1.03431
 H423 H 0.78716 0.08785 1.00627
 C424 C 0.79793 0.06778 1.05803
 H425 H 0.81013 0.04545 1.04833
 C426 C 0.76673 0.12574 1.08120
 H427 H 0.75474 0.14847 1.08999
 C428 C 0.78058 0.10310 1.10581
 H429 H 0.77903 0.10830 1.13365
 N430 N 0.76884 0.11943 1.04622
 C431 C 0.71233 0.13787 0.94939
 H432 H 0.72037 0.16392 0.94251
 C433 C 0.69122 0.11899 0.92651
 H434 H 0.68349 0.13056 0.90173
 C435 C 0.71186 0.09136 0.99036
 H436 H 0.71865 0.08102 1.01588
 C437 C 0.69105 0.07156 0.96826
 H438 H 0.68277 0.04604 0.97696
 Zn439 Zn 0.75095 0.14917 1.01170
 N440 N 0.72294 0.12352 0.98025
 C441 C 0.79981 0.17020 0.95529
 N442 N 0.79056 0.17197 0.98992
 C443 C 0.80949 0.19176 1.01226
 C444 C 0.83696 0.21312 0.99956
 C445 C 0.82798 0.19062 0.94159
 C446 C 0.69535 0.17179 1.05411
 C447 C 0.67460 0.19594 1.06964
 C448 C 0.70886 0.24029 1.03841
 C449 C 0.72867 0.21542 1.02335
 N450 N 0.72232 0.18195 1.03207
 H451 H 0.78500 0.15363 0.93816
 H452 H 0.80198 0.19217 1.03980
 H453 H 0.85059 0.23001 1.01740
 H454 H 0.83449 0.19008 0.91379
 H455 H 0.69027 0.14496 1.05998
 H456 H 0.65367 0.18755 1.08767
 H457 H 0.71462 0.26670 1.03100
 H458 H 0.74899 0.22303 1.00446
 C459 C 0.68084 0.08518 0.93565
 C460 C 0.79571 0.07353 1.09414
 C461 C 0.68176 0.23073 1.06234
 C462 C 0.84601 0.21316 0.96375
 C463 C 0.26956 0.63218 0.54324
 H464 H 0.28824 0.65242 0.53563
 C465 C 0.27625 0.61158 0.57259
 H466 H 0.30010 0.61633 0.58712
 C467 C 0.21606 0.60145 0.53366
 H468 H 0.19246 0.59799 0.51845
 C469 C 0.22184 0.57999 0.56287
 H470 H 0.20247 0.56007 0.56991
 N471 N 0.23951 0.62736 0.52487
 C472 C 0.18978 0.64190 0.42741
 H473 H 0.17172 0.66007 0.43691
 C474 C 0.18358 0.62617 0.39530
 H475 H 0.16065 0.63228 0.38028
 C476 C 0.24179 0.61199 0.43513
 H477 H 0.26444 0.60665 0.45087
 C478 C 0.23689 0.59609 0.40304
 H479 H 0.25572 0.57812 0.39463
 Zn480 Zn 0.23000 0.65869 0.48768
 N481 N 0.21891 0.63507 0.44619
 C482 C 0.29067 0.68612 0.45055
 N483 N 0.26976 0.68835 0.47954
 C484 C 0.27576 0.71302 0.50346
 C485 C 0.30348 0.73690 0.49856
 C486 C 0.31907 0.70916 0.44494
 C487 C 0.17445 0.67961 0.53118
 C488 C 0.15214 0.70357 0.54427
 C489 C 0.16874 0.74128 0.49507
 C490 C 0.19016 0.71631 0.48249
 N491 N 0.19333 0.68657 0.50109
 H492 H 0.28531 0.66676 0.43152
 H493 H 0.25869 0.71429 0.52625
 H494 H 0.30770 0.75637 0.51786
 H495 H 0.33533 0.70722 0.42161
 H496 H 0.17767 0.65613 0.54591
 H497 H 0.13808 0.69807 0.56882
 H498 H 0.16742 0.76525 0.48054
 H499 H 0.20577 0.72134 0.45885
 C500 C 0.20777 0.60358 0.38239
 C501 C 0.25211 0.58534 0.58303
 C502 C 0.15006 0.73525 0.52679
 C503 C 0.32540 0.73518 0.46886
 C504 C 0.74927 0.92690 0.48892
 H505 H 0.73253 0.93745 0.50858
 C506 C 0.76252 0.94774 0.46108
 H507 H 0.75603 0.97423 0.45996
 C508 C 0.77755 0.87949 0.46643
 H509 H 0.78333 0.85292 0.46850
 C510 C 0.79138 0.89934 0.43829
 H511 H 0.80771 0.88762 0.41897
 N512 N 0.75723 0.89352 0.49128
 C513 C 0.69039 0.88918 0.57728
 H514 H 0.67347 0.86931 0.56682
 C515 C 0.67707 0.91106 0.60190
 H516 H 0.65000 0.90758 0.61039
 C517 C 0.74582 0.91843 0.57833
 H518 H 0.77246 0.92139 0.56851
 C519 C 0.73345 0.94115 0.60271
 H520 H 0.75107 0.96107 0.61206
 Zn521 Zn 0.74036 0.86567 0.52971
 N522 N 0.72417 0.89330 0.56590
 C523 C 0.79451 0.84219 0.57566
 N524 N 0.77602 0.83718 0.54564
 C525 C 0.77956 0.80870 0.52659
 C526 C 0.80117 0.78327 0.53812
 C527 C 0.81728 0.81753 0.58777
 C528 C 0.68927 0.83992 0.48244
 C529 C 0.66595 0.81482 0.47002
 C530 C 0.67259 0.78268 0.52457
 C531 C 0.69503 0.80872 0.53628
 N532 N 0.70364 0.83612 0.51484
 H533 H 0.79102 0.86474 0.59072
 H534 H 0.76433 0.80498 0.50307
 H535 H 0.80288 0.76043 0.52299
 H536 H 0.83142 0.82129 0.61203
 H537 H 0.69669 0.86187 0.46585
 H538 H 0.65524 0.81766 0.44385
 H539 H 0.66683 0.76056 0.54155
 H540 H 0.70698 0.80638 0.56189
 C541 C 0.69850 0.93775 0.61451
 C542 C 0.78408 0.93396 0.43540
 C543 C 0.65833 0.78536 0.49080
 C544 C 0.81986 0.78730 0.56933
 C545 C -0.03633 0.29922 0.36054
 H546 H -0.02447 0.31346 0.33848
 C547 C -0.06158 0.31422 0.38115
 H548 H -0.06907 0.33988 0.37467
 C549 C -0.04060 0.24890 0.39638
 H550 H -0.03195 0.22358 0.40239
 C551 C -0.06543 0.26317 0.41806
 H552 H -0.07626 0.24832 0.44029
 N553 N -0.02613 0.26721 0.36862
 C554 C 0.07102 0.21405 0.36097
 H555 H 0.07176 0.20836 0.33334
 C556 C 0.09466 0.19907 0.38373
 H557 H 0.11342 0.18203 0.37317
 C558 C 0.04543 0.24256 0.40828
 H559 H 0.02627 0.25963 0.41778
 C560 C 0.06862 0.22812 0.43203
 H561 H 0.06668 0.23423 0.45955
 Zn562 Zn 0.01083 0.24879 0.34257
 N563 N 0.04634 0.23456 0.37362
 C564 C 0.05937 0.30010 0.31543
 N565 N 0.02892 0.28206 0.30977
 C566 C 0.01041 0.28668 0.27974
 C567 C 0.02300 0.30933 0.25330
 C568 C 0.07252 0.32372 0.28991
 C569 C -0.03582 0.19296 0.32412
 C570 C -0.04710 0.16625 0.30278
 C571 C 0.00448 0.17699 0.26625
 C572 C 0.01492 0.20306 0.28840
 N573 N -0.00530 0.21082 0.31651
 H574 H 0.07346 0.29604 0.33964
 H575 H -0.01393 0.27224 0.27615
 H576 H 0.00809 0.31237 0.22941
 H577 H 0.09692 0.33781 0.29448
 H578 H -0.05173 0.19960 0.34635
 H579 H -0.07171 0.15258 0.30874
 H580 H 0.02093 0.17161 0.24390
 H581 H 0.03886 0.21781 0.28254
 C582 C 0.09313 0.20536 0.41991
 C583 C -0.07585 0.29642 0.41073
 C584 C -0.02712 0.15850 0.27307
 C585 C 0.05454 0.32798 0.25816
 C586 C 1.00425 0.75867 0.10282
 H587 H 0.98056 0.74729 0.09228
 C588 C 1.03095 0.77054 0.07964
 H589 H 1.02719 0.76796 0.05163
 C590 C 1.03736 0.77642 0.15188
 H591 H 1.03972 0.77845 0.18013
 C592 C 1.06467 0.78877 0.12962
 H593 H 1.08799 0.80027 0.14105
 N594 N 1.00825 0.76086 0.13830
 C595 C 0.90225 0.73277 0.14476
 H596 H 0.89571 0.75352 0.16136
 C597 C 0.87652 0.71772 0.12333
 H598 H 0.85045 0.72744 0.12300
 C599 C 0.94418 0.69509 0.12416
 H600 H 0.97064 0.68637 0.12465
 C601 C 0.91961 0.67969 0.10228
 H602 H 0.92744 0.65914 0.08591
 Zn603 Zn 0.97344 0.74108 0.16988
 N604 N 0.93560 0.72186 0.14393
 C605 C 0.94332 0.80314 0.18927
 N606 N 0.95872 0.77453 0.20122
 C607 C 0.96535 0.76954 0.23604
 C608 C 0.95570 0.79326 0.26049
 C609 C 0.93306 0.82765 0.21300
 C610 C 1.02631 0.69751 0.19601
 C611 C 1.03790 0.66856 0.21379
 C612 C 0.97822 0.65443 0.23202
 C613 C 0.96788 0.68389 0.21447
 N614 N 0.99173 0.70440 0.19637
 H615 H 0.93890 0.80685 0.16136
 H616 H 0.97848 0.74721 0.24505
 H617 H 0.96158 0.78832 0.28787
 H618 H 0.92045 0.85009 0.20315
 H619 H 1.04487 0.71379 0.18120
 H620 H 1.06530 0.66275 0.21226
 H621 H 0.95867 0.63785 0.24530
 H622 H 0.94055 0.68996 0.21430
 C623 C 0.88554 0.69154 0.10098
 C624 C 1.06200 0.78525 0.09300
 C625 C 1.01354 0.64617 0.23120
 C626 C 0.93899 0.82271 0.24922
 C627 C 0.55816 0.23922 0.57349
 H628 H 0.55240 0.21215 0.57671
 C629 C 0.58636 0.25115 0.55225
 H630 H 0.60241 0.23309 0.53929
 C631 C 0.54513 0.29568 0.58770
 H632 H 0.52954 0.31299 0.60210
 C633 C 0.57347 0.30859 0.56749
 H634 H 0.57918 0.33582 0.56618
 N635 N 0.53774 0.26155 0.59004
 C636 C 0.44086 0.20173 0.61092
 H637 H 0.43664 0.20741 0.63833
 C638 C 0.41726 0.17998 0.59383
 H639 H 0.39483 0.16898 0.60835
 C640 C 0.47493 0.20982 0.55866
 H641 H 0.49684 0.22221 0.54470
 C642 C 0.45202 0.18815 0.54054
 H643 H 0.45701 0.18404 0.51293
 Zn644 Zn 0.49974 0.24500 0.61875
 N645 N 0.46930 0.21575 0.59337
 C646 C 0.45901 0.30046 0.60646
 N647 N 0.47388 0.28243 0.63297
 C648 C 0.47166 0.29229 0.66699
 C649 C 0.45576 0.32259 0.67501
 C650 C 0.44304 0.33085 0.61325
 C651 C 0.51184 0.18766 0.66370
 C652 C 0.52733 0.17063 0.69188
 C653 C 0.55708 0.22352 0.70709
 C654 C 0.54123 0.23947 0.67851
 N655 N 0.51871 0.22158 0.65780
 H656 H 0.46080 0.29179 0.57972
 H657 H 0.48299 0.27725 0.68783
 H658 H 0.45511 0.33066 0.70205
 H659 H 0.43205 0.34493 0.59147
 H660 H 0.49479 0.17359 0.64631
 H661 H 0.52156 0.14363 0.69620
 H662 H 0.57501 0.23838 0.72297
 H663 H 0.54699 0.26620 0.67263
 C664 C 0.42276 0.17282 0.55821
 C665 C 0.59421 0.28628 0.54923
 C666 C 0.55010 0.18862 0.71414
 C667 C 0.44208 0.34276 0.64779
 C668 C 0.44914 0.79053 0.88602
 H669 H 0.45671 0.80912 0.86567
 C670 C 0.42479 0.79915 0.91142
 H671 H 0.41444 0.82438 0.91035
 C672 C 0.45173 0.73489 0.91099
 H673 H 0.46120 0.70942 0.90984
 C674 C 0.42746 0.74263 0.93729
 H675 H 0.41882 0.72304 0.95636
 N676 N 0.46164 0.75864 0.88561
 C677 C 0.55723 0.73521 0.82805
 H678 H 0.55058 0.74936 0.80444
 C679 C 0.58954 0.72029 0.82982
 H680 H 0.60736 0.72367 0.80757
 C681 C 0.54186 0.71393 0.88529
 H682 H 0.52300 0.71108 0.90664
 C683 C 0.57422 0.69849 0.88821
 H684 H 0.57993 0.68382 0.91185
 Zn685 Zn 0.48883 0.74831 0.84494
 N686 N 0.53374 0.73132 0.85514
 C687 C 0.52067 0.81275 0.82772
 N688 N 0.49617 0.78916 0.81721
 C689 C 0.47720 0.79444 0.78761
 C690 C 0.48351 0.82374 0.76654
 C691 C 0.52778 0.84249 0.80744
 C692 C 0.47856 0.70897 0.78535
 C693 C 0.46145 0.68678 0.76256
 C694 C 0.41626 0.67589 0.80677
 C695 C 0.43385 0.69907 0.82851
 N696 N 0.46433 0.71532 0.81738
 H697 H 0.53510 0.80815 0.85162
 H698 H 0.45714 0.77588 0.78024
 H699 H 0.46817 0.82712 0.74303
 H700 H 0.54794 0.86058 0.81580
 H701 H 0.50268 0.72209 0.77688
 H702 H 0.47277 0.68286 0.73679
 H703 H 0.39168 0.66366 0.81556
 H704 H 0.42276 0.70439 0.85393
 C705 C 0.59808 0.70080 0.85976
 C706 C 0.41309 0.77497 0.93708
 C707 C 0.42974 0.67021 0.77306
 C708 C 0.50954 0.84800 0.77604
 C709 C 0.47327 -0.14194 0.35802
 C710 C 0.50414 -0.12801 0.34370
 C711 C 0.49481 -0.09983 0.32474
 C712 C 0.45891 -0.09878 0.32882
 O713 O 0.44605 -0.12422 0.34903
 H714 H 0.53025 -0.13723 0.34648
 H715 H 0.51214 -0.08278 0.30922
 C716 C 0.98315 0.33049 0.83309
 C717 C 1.01279 0.34231 0.81448
 C718 C 1.00263 0.36963 0.79486
 C719 C 0.96757 0.37247 0.80256
 O720 O 0.95579 0.34887 0.82565
 H721 H 1.03888 0.33277 0.81504
 H722 H 1.01884 0.38524 0.77674
 C723 C 0.04952 1.13597 0.87533
 C724 C 0.01740 1.11847 0.87384
 C725 C 0.02463 1.08650 0.86352
 C726 C 0.06058 1.08670 0.85941
 O727 O 0.07551 1.11646 0.86692
 H728 H -0.00838 1.12763 0.87894
 H729 H 0.00568 1.06603 0.85867
 C730 C 0.53396 0.65922 0.36041
 C731 C 0.50469 0.64757 0.34262
 C732 C 0.51519 0.62046 0.32425
 C733 C 0.55011 0.61739 0.33213
 O734 O 0.56142 0.64071 0.35425
 H735 H 0.47878 0.65758 0.34266
 H736 H 0.49922 0.60494 0.30704
 C737 C 0.54848 0.34579 0.18965
 C738 C 0.51977 0.35156 0.21075
 C739 C 0.52857 0.38005 0.22883
 C740 C 0.56209 0.38982 0.21763
 O741 O 0.57412 0.36898 0.19393
 H742 H 0.49531 0.33686 0.21317
 H743 H 0.51220 0.39196 0.24788
 C744 C 0.03261 0.84995 0.66552
 C745 C 0.00321 0.86216 0.68177
 C746 C 0.01515 0.88886 0.70109
 C747 C 0.05085 0.89057 0.69584
 O748 O 0.06153 0.86727 0.67425
 H749 H -0.02382 0.85332 0.67952
 H750 H -0.00015 0.90465 0.71774
 C751 C 0.96612 0.64889 0.64915
 C752 C 0.99657 0.63205 0.64359
 C753 C 0.99002 0.59990 0.65731
 C754 C 0.95624 0.59984 0.67052
 O755 O 0.94180 0.62941 0.66553
 H756 H 1.02029 0.64172 0.63036
 H757 H 1.00774 0.57917 0.65782
 C758 C 0.46769 0.15096 0.14685
 C759 C 0.49555 0.13028 0.14223
 C760 C 0.48404 0.09882 0.15476
 C761 C 0.45013 0.10283 0.16637
 O762 O 0.44029 0.13436 0.16150
 H763 H 0.52104 0.13718 0.13092
 H764 H 0.49891 0.07603 0.15606
 C765 C 0.38684 0.42732 -0.18832
 C766 C 0.41036 0.40368 -0.17694
 C767 C 0.40110 0.39565 -0.14295
 C768 C 0.37229 0.41444 -0.13600
 O769 O 0.36378 0.43391 -0.16335
 H770 H 0.43174 0.39329 -0.19144
 H771 H 0.41273 0.37677 -0.12601
 C772 C 0.82906 0.96683 0.35963
 C773 C 0.81164 0.99601 0.36716
 C774 C 0.79239 0.98809 0.39698
 C775 C 0.79932 0.95471 0.40551
 O776 O 0.82150 0.94203 0.38300
 H777 H 0.81240 1.02019 0.35290
 H778 H 0.77516 1.00473 0.41040
 C779 C 0.83859 0.03117 1.16247
 C780 C 0.81944 0.00322 1.15039
 C781 C 0.80133 0.01518 1.12216
 C782 C 0.81019 0.04946 1.11966
 O783 O 0.83273 0.05917 1.14376
 H784 H 0.81902 -0.02284 1.16025
 H785 H 0.78333 0.00087 1.10580
 C786 C 0.28404 0.54893 0.66146
 C787 C 0.25850 0.52393 0.65553
 C788 C 0.24218 0.53420 0.62544
 C789 C 0.25916 0.56461 0.61511
 O790 O 0.28436 0.57348 0.63703
 H791 H 0.25258 0.50090 0.67106
 H792 H 0.22103 0.52067 0.61238
 C793 C 0.17772 0.56780 0.30337
 C794 C 0.21281 0.56190 0.29884
 C795 C 0.22892 0.57498 0.32755
 C796 C 0.20258 0.58795 0.34767
 O797 O 0.17151 0.58392 0.33285
 H798 H 0.22525 0.54924 0.27740
 H799 H 0.25661 0.57492 0.33307
 C800 C 0.63020 0.05201 0.86646
 C801 C 0.63731 0.02122 0.88285
 C802 C 0.65643 0.02938 0.91176
 C803 C 0.65984 0.06449 0.91095
 O804 O 0.64384 0.07813 0.88370
 H805 H 0.62991 -0.00426 0.87494
 H806 H 0.66743 0.01164 0.93041
 C807 C 0.64966 0.98099 0.67703
 C808 C 0.67625 1.00566 0.67213
 C809 C 0.69845 0.99297 0.64792
 C810 C 0.68386 0.96151 0.63974
 O811 O 0.65431 0.95436 0.65725
 H812 H 0.67960 1.02988 0.68472
 H813 H 0.72225 1.00541 0.63748
 C814 C 0.17763 0.46777 0.13118
 C815 C 0.19348 0.49822 0.11924
 C816 C 0.21037 0.49089 0.08867
 C817 C 0.20356 0.45652 0.08414
 O818 O 0.18371 0.44269 0.10983
 H819 H 0.19294 0.52289 0.13109
 H820 H 0.22590 0.50859 0.07206
 C821 C -0.13966 0.34524 0.45081
 C822 C -0.13161 0.32548 0.48010
 C823 C -0.10663 0.30443 0.46905
 C824 C -0.10101 0.31284 0.43390
 O825 O -0.12080 0.33772 0.42285
 H826 H -0.14249 0.32597 0.50646
 H827 H -0.09386 0.28547 0.48493
 C828 C 0.33966 0.80822 0.97902
 C829 C 0.34592 0.78324 1.00435
 C830 C 0.37465 0.76710 0.99249
 C831 C 0.38408 0.78352 0.96102
 O832 O 0.36300 0.80828 0.95303
 H833 H 0.33119 0.77679 1.02824
 H834 H 0.38706 0.74593 1.00527
 C835 C 1.14134 0.81762 0.05369
 C836 C 1.12757 0.80249 0.02408
 C837 C 1.09556 0.78877 0.03437
 C838 C 1.09192 0.79634 0.06952
 O839 O 1.11958 0.81378 0.08109
 H840 H 1.13911 0.80124 -0.00194
 H841 H 1.07755 0.77440 0.01812
 C842 C 0.66877 0.33193 0.51612
 C843 C 0.66885 0.30614 0.49206
 C844 C 0.64044 0.28531 0.50076
 C845 C 0.62508 0.30007 0.52928
 O846 O 0.64215 0.32822 0.53851
 H847 H 0.68803 0.30204 0.47164
 H848 H 0.63223 0.26201 0.48814
 C849 C 0.35014 0.12275 0.53085
 C850 C 0.36924 0.12146 0.49990
 C851 C 0.39977 0.13951 0.50583
 C852 C 0.39698 0.15059 0.53997
 O853 O 0.36701 0.14021 0.55508
 H854 H 0.36182 0.10914 0.47579
 H855 H 0.42111 0.14417 0.48720
 C856 C 0.81567 0.66515 0.04608
 C857 C 0.84332 0.66248 0.02247
 C858 C 0.87260 0.67120 0.04040
 C859 C 0.86131 0.67892 0.07366
 O860 O 0.82675 0.67525 0.07739
 H861 H 0.84299 0.65437 -0.00449
 H862 H 0.89915 0.67241 0.03012
 C863 C 0.67295 0.65372 0.87831
 C864 C 0.67587 0.65447 0.84205
 C865 C 0.64861 0.67256 0.83036
 C866 C 0.63078 0.68171 0.86028
 O867 O 0.64556 0.67026 0.88950
 H868 H 0.69567 0.64343 0.82590
 H869 H 0.64226 0.67776 0.80310
 C870 C 0.15398 0.15302 0.46142
 C871 C 0.14234 0.16827 0.49150
 C872 C 0.11796 0.19040 0.48033
 C873 C 0.11646 0.18713 0.44421
 O874 O 0.13823 0.16446 0.43290
 H875 H 0.15031 0.16391 0.51843
 H876 H 0.10313 0.20670 0.49681
 C877 C 0.58389 0.13065 0.77636
 C878 C 0.59490 0.16029 0.79248
 C879 C 0.58373 0.18615 0.77149
 C880 C 0.56670 0.17061 0.74395
 O881 O 0.56677 0.13699 0.74693
 H882 H 0.60972 0.16317 0.81639
 H883 H 0.58755 0.21306 0.77607
 C884 C 1.05786 0.57289 0.25565
 C885 C 1.02570 0.55730 0.24851
 C886 C 1.00396 0.58307 0.24164
 C887 C 1.02442 0.61259 0.24433
 O888 O 1.05701 0.60651 0.25330
 H889 H 1.01893 0.53034 0.24763
 H890 H 0.97711 0.58048 0.23304
 C891 C 0.90575 0.89130 0.29576
 C892 C 0.91437 0.87139 0.32459
 C893 C 0.92835 0.84326 0.31120
 C894 C 0.92742 0.84784 0.27497
 O895 O 0.91379 0.87717 0.26559
 H896 H 0.91101 0.87670 0.35221
 H897 H 0.93756 0.82193 0.32649
 C898 C 0.40899 0.41706 0.68382
 C899 C 0.40933 0.42779 0.64882
 C900 C 0.42150 0.40141 0.63052
 C901 C 0.42780 0.37628 0.65548
 O902 O 0.42041 0.38584 0.68781
 H903 H 0.40186 0.45191 0.63756
 H904 H 0.42571 0.40103 0.60232
 C905 C 0.37729 0.61106 0.72651
 C906 C 0.38601 0.63329 0.69875
 C907 C 0.40723 0.65796 0.71254
 C908 C 0.40977 0.64927 0.74783
 O909 O 0.39168 0.62068 0.75649
 H910 H 0.37831 0.63135 0.67149
 H911 H 0.41910 0.67996 0.69863
 C912 C -0.06908 0.09164 0.22773
 C913 C -0.05053 0.10629 0.19950
 C914 C -0.03151 0.13277 0.21291
 C915 C -0.04001 0.13253 0.24838
 O916 O -0.06282 0.10748 0.25747
 H917 H -0.05098 0.09861 0.17233
 H918 H -0.01437 0.15072 0.19824
 C919 C 0.09616 0.39251 0.20493
 C920 C 0.08262 0.37313 0.17810
 C921 C 0.06476 0.34641 0.19448
 C922 C 0.06894 0.35131 0.23008
 O923 O 0.08794 0.37928 0.23650
 H924 H 0.08491 0.37817 0.14999
 H925 H 0.05074 0.32565 0.18193
 C926 C 0.54493 0.92307 0.73408
 C927 C 0.52699 0.91054 0.70562
 C928 C 0.50992 0.88144 0.71780
 C929 C 0.51899 0.87806 0.75287
 O930 O 0.54025 0.90348 0.76277
 H931 H 0.52716 0.92096 0.67894
 H932 H 0.49415 0.86411 0.70230
 C933 C 0.69435 0.63442 0.08265
 C934 C 0.65847 0.63248 0.07770
 C935 C 0.64476 0.61572 0.10665
 C936 C 0.67295 0.60851 0.12744
 O937 O 0.70308 0.62042 0.11340
 H938 H 0.64380 0.64136 0.05530
 H939 H 0.61750 0.60837 0.11144
 C940 C 0.25217 1.09459 0.61455
 C941 C 0.25991 1.11965 0.63831
 C942 C 0.24231 1.10974 0.66842
 C943 C 0.22538 1.07912 0.66100
 O944 O 0.23125 1.06985 0.62820
 H945 H 0.27635 1.14249 0.63404
 H946 H 0.24258 1.12282 0.69315
 C947 C 0.27674 0.89643 0.91424
 C948 C 0.30513 0.90938 0.89472
 C949 C 0.29154 0.92746 0.86752
 C950 C 0.25562 0.92445 0.87217
 O951 O 0.24663 0.90568 0.90073
 H952 H 0.33262 0.90610 0.89966
 H953 H 0.30645 0.94080 0.84672
 C954 C 0.79508 0.43397 0.38364
 C955 C 0.82075 0.44333 0.35902
 C956 C 0.80447 0.46203 0.33377
 C957 C 0.76991 0.46278 0.34469
 O958 O 0.76434 0.44585 0.37500
 H959 H 0.84812 0.43744 0.35931
 H960 H 0.81660 0.47330 0.31015
 C961 C 0.73406 0.40998 0.59551
 C962 C 0.70785 0.41199 0.62063
 C963 C 0.72406 0.42331 0.65006
 C964 C 0.75902 0.42754 0.64091
 O965 O 0.76509 0.41977 0.60772
 H966 H 0.68017 0.40590 0.61803
 H967 H 0.71168 0.42807 0.67511
 C968 C 0.22456 -0.11577 0.12605
 C969 C 0.20090 -0.11228 0.15342
 C970 C 0.21887 -0.09574 0.17882
 C971 C 0.25235 -0.09002 0.16550
 O972 O 0.25585 -0.10188 0.13329
 H973 H 0.17352 -0.12017 0.15508
 H974 H 0.20833 -0.08811 0.20381
 C975 C 0.22236 0.07453 0.38913
 C976 C 0.19753 0.07010 0.36331
 C977 C 0.21482 0.05757 0.33538
 C978 C 0.24908 0.05512 0.34596
 O979 O 0.25365 0.06506 0.37879
 H980 H 0.16998 0.07523 0.36455
 H981 H 0.20351 0.05077 0.31041
 C982 C 0.76001 0.56380 0.90106
 C983 C 0.77080 0.53824 0.92354
 C984 C 0.78976 0.51772 0.90319
 C985 C 0.78934 0.53220 0.86964
 O986 O 0.77092 0.56002 0.86823
 H987 H 0.76563 0.53501 0.95154
 H988 H 0.80247 0.49500 0.91200
 C989 C 0.09421 0.78530 0.57576
 C990 C 0.11402 0.81175 0.56001
 C991 C 0.13720 0.79666 0.53852
 C992 C 0.12992 0.76211 0.54293
 O993 O 0.10385 0.75522 0.56546
 H994 H 0.11153 0.83878 0.56333
 H995 H 0.15744 0.80934 0.52226
 C996 C 0.62122 0.27976 1.10746
 C997 C 0.64668 0.30523 1.10122
 C998 C 0.67268 0.29038 1.08333
 C999 C 0.66136 0.25684 1.07980
 O1000 O 0.63011 0.25036 1.09445
 H1001 H 0.64631 0.33166 1.10833
 H1002 H 0.69713 0.30265 1.07438
 C1003 C 0.91425 0.26218 0.92167
 C1004 C 0.89830 0.28819 0.93842
 C1005 C 0.87093 0.27299 0.95674
 C1006 C 0.87187 0.23888 0.94947
 O1007 O 0.89822 0.23209 0.92822
 H1008 H 0.90616 0.31496 0.93782
 H1009 H 0.85223 0.28528 0.97321
 C1010 C 0.39936 0.78443 0.43965
 C1011 C 0.38410 0.80919 0.45893
 C1012 C 0.35470 0.79378 0.47361
 C1013 C 0.35407 0.76082 0.46191
 O1014 O 0.38123 0.75509 0.44137
 H1015 H 0.39328 0.83537 0.46182
 H1016 H 0.33551 0.80556 0.48991
 C1017 C 0.59914 0.73135 0.44646
 C1018 C 0.61609 0.70626 0.46479
 C1019 C 0.64035 0.72315 0.48461
 C1020 C 0.63654 0.75725 0.47664
 O1021 O 0.61157 0.76225 0.45355
 H1022 H 0.61092 0.67901 0.46434
 H1023 H 0.65891 0.71194 0.50233
 C1024 C 0.13411 0.23221 -0.11071
 C1025 C 0.16150 0.21779 -0.12797
 C1026 C 0.19063 0.23656 -0.11926
 C1027 C 0.17910 0.26121 -0.09713
 O1028 O 0.14466 0.25874 -0.09221
 H1029 H 0.16044 0.19616 -0.14502
 H1030 H 0.21702 0.23236 -0.12808
 C1031 C 0.39840 0.25051 0.11422
 C1032 C 0.36938 0.24461 0.13571
 C1033 C 0.34366 0.26256 0.12037
 C1034 C 0.35881 0.27765 0.09039
 O1035 O 0.39211 0.27046 0.08660
 H1036 H 0.36740 0.22925 0.15979
 H1037 H 0.31687 0.26394 0.12950
 C1038 C 0.88197 0.73236 0.60392
 C1039 C 0.85700 0.70788 0.59453
 C1040 C 0.83020 0.72538 0.58091
 C1041 C 0.84055 0.75924 0.58301
 O1042 O 0.87188 0.76365 0.59700
 H1043 H 0.85845 0.68048 0.59594
 H1044 H 0.80615 0.71472 0.57020
   
