data_POSCAR
  _audit_creation_date              2014-09-24
  _audit_creation_method            'ToBaCCo'
  _symmetry_space_group_name_H-M    'P1'
  _symmetry_Int_Tables_number       1
  _symmetry_cell_setting            triclinic
  loop_
  _symmetry_equiv_pos_as_xyz
 x,y,z
_cell_length_a 24.0675
_cell_length_b 26.3228
_cell_length_c 24.1629
_cell_angle_alpha 91.264100
_cell_angle_beta 90.606300
_cell_angle_gamma 89.170000
loop_
  _atom_site_label
  _atom_site_type_symbol
  _atom_site_fract_x
  _atom_site_fract_y
  _atom_site_fract_z
C1 C 0.14356 0.17318 0.21655
 N2 N 0.13245 0.20908 0.17798
 C3 C 0.17296 0.22317 0.14267
 N4 N 0.22379 0.19991 0.14489
 C5 C 0.23500 0.16403 0.18313
 N6 N 0.19510 0.15166 0.21941
 C7 C -0.17665 0.84182 0.23304
 N8 N -0.14027 0.80243 0.22589
 C9 C -0.13721 0.77747 0.17617
 N10 N -0.16988 0.79272 0.13307
 C11 C -0.20677 0.83177 0.14057
 N12 N -0.21028 0.85554 0.19069
 C13 C -0.14587 0.15255 -0.19230
 N14 N -0.19808 0.13358 -0.18914
 C15 C -0.24092 0.16459 -0.17339
 N16 N -0.23127 0.21380 -0.16038
 C17 C -0.17924 0.23209 -0.15966
 N18 N -0.13619 0.20172 -0.17654
 C19 C 0.18278 0.82631 -0.24494
 N20 N 0.15891 0.78154 -0.23392
 C21 C 0.15338 0.76598 -0.18134
 N22 N 0.17540 0.79418 -0.13888
 C23 C 0.20300 0.83782 -0.14968
 N24 N 0.20501 0.85467 -0.20272
 C25 C 0.18197 1.15765 0.77054
 N26 N 0.14660 1.19819 0.77490
 C27 C 0.14070 1.22347 0.82424
 N28 N 0.16946 1.20741 0.86953
 C29 C 0.20550 1.16760 0.86478
 N30 N 0.21201 1.14330 0.81529
 C31 C 0.85485 0.83347 0.78388
 N32 N 0.80268 0.85360 0.77973
 C33 C 0.76165 0.83735 0.81270
 N34 N 0.77250 0.79972 0.84889
 C35 C 0.82411 0.77841 0.85244
 N36 N 0.86556 0.79586 0.82045
 C37 C 0.14103 0.83300 1.20681
 N38 N 0.13317 0.79003 1.17529
 C39 C 0.17687 0.76815 1.14765
 N40 N 0.22731 0.79056 1.14991
 C41 C 0.23491 0.83370 1.18034
 N42 N 0.19211 0.85419 1.20943
 C43 C 0.82495 1.17785 1.24589
 N44 N 0.80232 1.14665 1.20644
 C45 C 0.79970 1.16152 1.15267
 N46 N 0.82325 1.20622 1.13795
 C47 C 0.84595 1.23724 1.17776
 N48 N 0.84469 1.22331 1.23128
 O49 O 0.54153 0.91474 0.87568
 O50 O 0.61660 0.95559 0.91445
 C51 C 0.59416 0.92508 0.87818
 O52 O 0.39947 1.09882 0.94228
 O53 O 0.35336 1.04853 1.00248
 C54 C 0.35528 1.08582 0.96849
 O55 O 0.54523 1.09204 0.89249
 O56 O 0.61841 1.04162 0.92025
 C57 C 0.59697 1.07790 0.89091
 O58 O 0.39245 0.91514 0.92181
 O59 O 0.35065 0.95921 0.99351
 C60 C 0.34945 0.92737 0.95167
 Zr61 Zr 0.47629 0.93880 0.92928
 O62 O 0.44676 0.94466 0.84685
 O63 O 0.47900 0.85854 0.92181
 Zr64 Zr 0.47994 1.06603 0.94088
 O65 O 0.45243 1.06331 0.85755
 O66 O 0.48138 1.14630 0.93962
 O67 O 0.52289 1.00225 0.91094
 O68 O 0.42856 1.00423 0.93912
 O69 O 0.45011 0.90211 1.10976
 O70 O 0.37866 0.95464 1.08218
 C71 C 0.39884 0.91788 1.11129
 O72 O 0.60570 1.07825 1.08554
 O73 O 0.64706 1.03610 1.01250
 C74 C 0.64882 1.06626 1.05572
 O75 O 0.45340 1.08730 1.12332
 O76 O 0.37948 1.04264 1.08761
 C77 C 0.40092 1.07606 1.12127
 O78 O 0.59975 0.90267 1.06925
 O79 O 0.64426 0.94950 1.00458
 C80 C 0.64339 0.91477 1.04166
 Zr81 Zr 0.51693 0.93010 1.06344
 O82 O 0.53699 0.92425 1.14861
 O83 O 0.51956 0.84997 1.05352
 Zr84 Zr 0.52084 1.05806 1.07498
 O85 O 0.53968 1.05191 1.16036
 O86 O 0.52920 1.13793 1.08105
 Zr87 Zr 0.57804 0.99684 0.97895
 Zr88 Zr 0.41952 0.99992 1.02526
 O89 O 0.47560 0.99452 1.09234
 O90 O 0.56968 0.99239 1.06559
 O91 O 0.44887 0.92531 1.00940
 O92 O 0.54681 1.07066 0.99522
 O93 O 0.54244 0.92427 0.98216
 O94 O 0.45370 1.07317 1.02246
 H95 H 0.39486 1.00718 0.91544
 H96 H 0.57162 1.10000 0.99098
 H97 H 0.46099 0.99351 1.13049
 H98 H 0.56525 0.89376 0.97263
 H99 H 0.49777 1.15784 0.97526
 H100 H 0.49351 1.15339 1.06893
 H101 H 0.57366 1.03056 1.16379
 H102 H 0.57098 0.94413 1.15568
 H103 H 0.48229 0.83910 1.04086
 H104 H 0.45362 0.84507 0.94970
 H105 H 0.47046 0.96941 0.82831
 H106 H 0.44701 1.09912 0.84667
 O107 O 0.06701 0.56711 -0.12567
 O108 O 0.03990 0.62544 -0.05915
 C109 C 0.06199 0.61332 -0.10645
 O110 O -0.12743 0.43717 -0.07474
 O111 O -0.06596 0.37687 -0.04298
 C112 C -0.11107 0.39044 -0.06886
 O113 O -0.11977 0.57813 -0.07138
 O114 O -0.05196 0.63053 -0.03647
 C115 C -0.09930 0.62271 -0.06127
 O116 O 0.06405 0.42536 -0.12711
 O117 O 0.02758 0.37136 -0.06408
 C118 C 0.05329 0.38033 -0.10963
 Zr119 Zr 0.04780 0.49733 -0.08949
 O120 O 0.02696 0.49491 -0.17481
 O121 O 0.13344 0.49698 -0.10872
 Zr122 Zr -0.08684 0.50547 -0.05363
 O123 O -0.10252 0.50707 -0.13979
 O124 O -0.17295 0.50780 -0.03642
 O125 O -0.01997 0.54708 -0.08097
 O126 O -0.02469 0.45743 -0.08241
 O127 O 0.11967 0.42129 0.05772
 O128 O 0.05017 0.36892 0.02625
 C129 C 0.09860 0.37662 0.04877
 O130 O -0.05909 0.57489 0.12153
 O131 O -0.02611 0.62918 0.05697
 C132 C -0.04861 0.62001 0.10414
 O133 O -0.07625 0.43434 0.11369
 O134 O -0.04499 0.37532 0.04971
 C135 C -0.07052 0.38802 0.09514
 O136 O 0.12358 0.56483 0.06839
 O137 O 0.06210 0.62450 0.03480
 C138 C 0.10709 0.61154 0.06108
 Zr139 Zr 0.08536 0.49496 0.04517
 O140 O 0.10595 0.48753 0.13006
 O141 O 0.17089 0.49536 0.02609
 Zr142 Zr -0.04935 0.50319 0.08109
 O143 O -0.02851 0.49627 0.16586
 O144 O -0.13403 0.51389 0.10209
 Zr145 Zr 0.00347 0.57609 -0.00237
 Zr146 Zr -0.00524 0.42408 -0.00599
 O147 O 0.01819 0.45450 0.07194
 O148 O 0.02356 0.54417 0.07483
 O149 O 0.07450 0.45009 -0.02617
 O150 O -0.07547 0.54918 0.01774
 O151 O 0.07900 0.53974 -0.02379
 O152 O -0.08134 0.45954 0.01539
 H153 H -0.03442 0.43594 -0.11518
 H154 H -0.10510 0.57413 0.02770
 H155 H 0.02558 0.43100 0.10272
 H156 H 0.11171 0.56069 -0.03179
 H157 H -0.17815 0.52832 -0.00209
 H158 H -0.15534 0.48746 0.08169
 H159 H 0.00485 0.51694 0.17303
 H160 H 0.09609 0.51999 0.14916
 H161 H 0.17626 0.47232 -0.00631
 H162 H 0.14955 0.46394 -0.09742
 H163 H -0.00550 0.51788 -0.17994
 H164 H -0.14346 0.50890 -0.14438
 O165 O 1.07220 -0.08835 0.39342
 O166 O 1.00638 -0.03693 0.35283
 C167 C 1.04338 -0.07333 0.35104
 O168 O 0.92546 -0.08799 0.59676
 O169 O 0.99783 -0.05030 0.64356
 C170 C 0.95563 -0.08028 0.64089
 O171 O 0.88668 -0.08534 0.44649
 O172 O 0.91792 -0.03335 0.37875
 C173 C 0.88638 -0.06889 0.39632
 O174 O 1.12091 -0.09327 0.54060
 O175 O 1.08960 -0.04970 0.61769
 C176 C 1.12136 -0.08357 0.59360
 Zr177 Zr 1.07023 -0.06279 0.47677
 O178 O 1.07355 -0.14312 0.47227
 O179 O 1.15349 -0.05698 0.45101
 Zr180 Zr 0.93589 -0.06209 0.51530
 O181 O 0.94357 -0.14199 0.50792
 O182 O 0.85155 -0.06858 0.53737
 O183 O 0.98855 -0.06921 0.44789
 O184 O 1.01665 -0.07491 0.54135
 O185 O 1.12452 0.08474 0.55569
 O186 O 1.09061 0.03503 0.62411
 C187 C 1.12434 0.06856 0.60598
 O188 O 0.89234 0.10081 0.46177
 O189 O 0.91953 0.05397 0.38524
 C190 C 0.89107 0.09045 0.40885
 O191 O 0.92999 0.08444 0.61284
 O192 O 0.99774 0.03445 0.65246
 C193 C 0.95737 0.06758 0.65556
 O194 O 1.07677 0.09744 0.40916
 O195 O 1.00840 0.05521 0.36091
 C196 C 1.04740 0.08867 0.36473
 Zr197 Zr 1.07192 0.06472 0.48817
 O198 O 1.07416 0.14452 0.50079
 O199 O 1.15464 0.06315 0.45926
 Zr200 Zr 0.93742 0.06594 0.52722
 O201 O 0.93942 0.14548 0.54172
 O202 O 0.85153 0.06651 0.54539
 Zr203 Zr 0.97956 0.00664 0.42267
 Zr204 Zr 1.02753 -0.00378 0.58084
 O205 O 1.01864 0.07167 0.55468
 O206 O 0.99056 0.07844 0.46144
 O207 O 1.09571 -0.00226 0.52704
 O208 O 0.91272 0.00513 0.47800
 O209 O 1.06642 0.00372 0.43299
 O210 O 0.94032 -0.00106 0.57138
 H211 H 1.02312 -0.10629 0.56253
 H212 H 0.87436 0.00739 0.46291
 H213 H 1.02598 0.09988 0.58149
 H214 H 1.09010 0.00473 0.39973
 H215 H 0.83454 -0.03430 0.53541
 H216 H 0.84636 0.04414 0.57727
 H217 H 0.95537 0.16071 0.50850
 H218 H 1.04440 0.15970 0.47767
 H219 H 1.17511 0.03673 0.48006
 H220 H 1.16698 -0.09228 0.44412
 H221 H 1.03669 -0.15450 0.45892
 H222 H 0.90723 -0.15559 0.51887
 N223 N 1.02271 0.14344 0.28759
 N224 N 1.04779 0.16824 0.24782
 C225 C 1.10255 0.15701 0.25226
 C226 C 1.11028 0.12492 0.29622
 N227 N 1.05963 0.11732 0.31688
 H228 H 1.14881 0.10846 0.31160
 N229 N 0.80589 -0.06594 0.33636
 N230 N 0.78843 -0.08894 0.29029
 C231 C 0.82254 -0.12941 0.28171
 C232 C 0.86086 -0.13110 0.32431
 N233 N 0.84885 -0.09099 0.35749
 H234 H 0.89739 -0.15540 0.32756
 N235 N 0.96136 0.06962 0.75699
 N236 N 0.93478 0.09170 0.79923
 C237 C 0.89656 0.12343 0.77717
 C238 C 0.90011 0.11985 0.72044
 N239 N 0.94112 0.08616 0.70932
 H240 H 0.87421 0.13887 0.69015
 N241 N 1.16454 -0.16410 0.61336
 N242 N 1.18022 -0.19040 0.65693
 C243 C 1.18172 -0.15764 0.70059
 C244 C 1.16587 -0.11004 0.68230
 N245 N 1.15484 -0.11601 0.62762
 H246 H 1.15557 -0.07666 0.70735
 N247 N 0.34773 1.08204 1.20529
 N248 N 0.30073 1.10381 1.22223
 C249 C 0.28586 1.13803 1.18386
 C250 C 0.32568 1.13691 1.14311
 N251 N 0.36373 1.10177 1.15825
 H252 H 0.32412 1.15568 1.10365
 N253 N 0.26760 0.87875 0.97340
 N254 N 0.22797 0.85302 0.94706
 C255 C 0.23290 0.86249 0.89265
 C256 C 0.27721 0.89470 0.88649
 N257 N 0.29777 0.90369 0.93775
 H258 H 0.29534 0.90720 0.84839
 N259 N 0.72118 0.85817 1.01813
 N260 N 0.76158 0.83321 1.04433
 C261 C 0.75869 0.84813 1.09806
 C262 C 0.71560 0.88258 1.10408
 N263 N 0.69361 0.88794 1.05355
 H264 H 0.70057 0.90101 1.14167
 N265 N 0.61748 1.15421 0.84355
 N266 N 0.66092 1.17956 0.82698
 C267 C 0.70509 1.14776 0.83034
 C268 C 0.68746 1.10171 0.84979
 N269 N 0.63244 1.10782 0.85820
 H270 H 0.71290 1.06993 0.86327
 N271 N 0.18538 0.32900 0.05449
 N272 N 0.20633 0.28808 0.07836
 C273 C 0.16434 0.26595 0.10494
 C274 C 0.11643 0.29465 0.09616
 N275 N 0.13157 0.33351 0.06442
 H276 H 0.07565 0.28953 0.11356
 N277 N -0.19460 0.36056 -0.11477
 N278 N -0.21323 0.31963 -0.14119
 C279 C -0.17188 0.28453 -0.14000
 C280 C -0.12744 0.30479 -0.11100
 N281 N -0.14366 0.35220 -0.09571
 H282 H -0.08785 0.28682 -0.10142
 N283 N 0.08652 0.64693 -0.19466
 N284 N 0.11131 0.68642 -0.21567
 C285 C 0.12429 0.71811 -0.17305
 C286 C 0.10578 0.69702 -0.12469
 N287 N 0.08258 0.65250 -0.14034
 H288 H 0.10994 0.71162 -0.08264
 N289 N -0.05981 0.66297 0.19347
 N290 N -0.08242 0.70537 0.21415
 C291 C -0.10190 0.73194 0.17076
 C292 C -0.09009 0.70490 0.12275
 N293 N -0.06388 0.66226 0.13883
 H294 H -0.10232 0.71367 0.08070
 N295 N 1.20217 0.06382 0.66932
 N296 N 1.21781 0.08672 0.71613
 C297 C 1.18524 0.12860 0.72205
 C298 C 1.15000 0.13127 0.67695
 N299 N 1.16201 0.09028 0.64503
 H300 H 1.11469 0.15667 0.67130
 N301 N 0.97792 -0.13349 0.71945
 N302 N 0.95156 -0.15892 0.75776
 C303 C 0.89692 -0.14810 0.75123
 C304 C 0.89049 -0.11555 0.70766
 N305 N 0.94185 -0.10737 0.68919
 H306 H 0.85236 -0.10001 0.69036
 N307 N 1.01837 -0.13019 0.27417
 N308 N 1.04429 -0.15846 0.23589
 C309 C 1.09814 -0.14481 0.23771
 C310 C 1.10422 -0.10727 0.27793
 N311 N 1.05370 -0.09903 0.29944
 H312 H 1.14233 -0.09006 0.29287
 N313 N 0.85450 0.17310 0.38655
 N314 N 0.83776 0.19837 0.34260
 C315 C 0.83113 0.16402 0.30091
 C316 C 0.84466 0.11644 0.32080
 N317 N 0.85965 0.12405 0.37436
 H318 H 0.84986 0.08124 0.29724
 N319 N 0.06385 0.33442 -0.19736
 N320 N 0.08628 0.29136 -0.21656
 C321 C 0.10819 0.26735 -0.17243
 C322 C 0.09792 0.29650 -0.12551
 N323 N 0.07045 0.33792 -0.14301
 H324 H 0.11111 0.28963 -0.08330
 N325 N -0.08983 0.35475 0.18445
 N326 N -0.11204 0.31512 0.20771
 C327 C -0.12885 0.28330 0.16656
 C328 C -0.11541 0.30476 0.11641
 N329 N -0.09095 0.34935 0.12994
 H330 H -0.12280 0.28995 0.07487
 N331 N -0.18741 0.66755 -0.06773
 N332 N -0.20920 0.70911 -0.08941
 C333 C -0.16711 0.73409 -0.11252
 C334 C -0.11838 0.70669 -0.10382
 N335 N -0.13313 0.66547 -0.07578
 H336 H -0.07722 0.71421 -0.11900
 N337 N 0.19588 0.65201 0.07762
 N338 N 0.21568 0.69476 0.09934
 C339 C 0.17182 0.72190 0.11905
 C340 C 0.12422 0.69459 0.10826
 N341 N 0.14125 0.65133 0.08253
 H342 H 0.08164 0.70473 0.11827
 N343 N 0.26328 1.12180 0.99036
 N344 N 0.22214 1.14548 0.96383
 C345 C 0.23952 1.15125 0.91144
 C346 C 0.29191 1.13093 0.90658
 N347 N 0.30533 1.11308 0.95636
 H348 H 0.31684 1.12700 0.86955
 N349 N 0.34907 0.91648 1.19736
 N350 N 0.30387 0.89552 1.21704
 C351 C 0.28803 0.85989 1.17941
 C352 C 0.32475 0.85963 1.13605
 N353 N 0.36245 0.89508 1.14915
 H354 H 0.32127 0.83949 1.09662
 N355 N 0.74007 1.09922 1.03375
 N356 N 0.78096 1.12518 1.05778
 C357 C 0.76767 1.13136 1.11160
 C358 C 0.71683 1.10888 1.11966
 N359 N 0.70106 1.08921 1.07008
 H360 H 0.69286 1.10859 1.15730
 N361 N 0.64125 0.91472 0.79013
 N362 N 0.68754 0.89272 0.77144
 C363 C 0.70704 0.86280 0.81214
 C364 C 0.67153 0.86722 0.85621
 N365 N 0.63083 0.89941 0.84073
 H366 H 0.67731 0.85222 0.89728
   
