data_POSCAR
  _audit_creation_date              2014-09-24
  _audit_creation_method            'ToBaCCo'
  _symmetry_space_group_name_H-M    'P1'
  _symmetry_Int_Tables_number       1
  _symmetry_cell_setting            triclinic
  loop_
  _symmetry_equiv_pos_as_xyz
 x,y,z
_cell_length_a 47.0318
_cell_length_b 47.0008
_cell_length_c 46.8701
_cell_angle_alpha 90.841700
_cell_angle_beta 88.871600
_cell_angle_gamma 90.534600
loop_
  _atom_site_label
  _atom_site_type_symbol
  _atom_site_fract_x
  _atom_site_fract_y
  _atom_site_fract_z
N1 N 0.13903 0.16766 0.21471
 N2 N 0.15631 0.14582 0.21396
 C3 C 0.14950 0.12833 0.23560
 C4 C 0.12657 0.13989 0.25065
 C5 C 0.12059 0.16488 0.23684
 H6 H 0.16012 0.10852 0.23956
 H7 H 0.10387 0.17978 0.24228
 Cu8 Cu 0.18580 0.14214 0.18444
 Cu9 Cu 0.14180 0.19763 0.18638
 Cu10 Cu 0.17056 0.17248 0.12230
 N11 N 0.20927 0.13577 0.15040
 N12 N 0.20284 0.14719 0.12594
 C13 C 0.22163 0.13850 0.10570
 C14 C 0.24112 0.12099 0.11822
 C15 C 0.23261 0.11965 0.14669
 H16 H 0.22130 0.14471 0.08357
 H17 H 0.24230 0.10770 0.16340
 N18 N 0.14657 0.20663 0.12540
 N19 N 0.13676 0.21696 0.14998
 C20 C 0.12271 0.24122 0.14530
 C21 C 0.12381 0.24639 0.11630
 C22 C 0.13901 0.22406 0.10436
 H23 H 0.11231 0.25388 0.16180
 H24 H 0.14456 0.22102 0.08203
 H25 H 0.14690 0.16437 0.15943
 H26 H 0.17886 0.18804 0.16189
 N27 N -0.13166 0.85858 0.20871
 N28 N -0.14588 0.88133 0.20179
 C29 C -0.14138 0.90204 0.22135
 C30 C -0.12352 0.89169 0.24170
 C31 C -0.11768 0.86401 0.23303
 H32 H -0.15052 0.92306 0.22090
 H33 H -0.10398 0.84911 0.24332
 Cu34 Cu -0.16937 0.88191 0.16826
 Cu35 Cu -0.13156 0.82431 0.18473
 Cu36 Cu -0.18210 0.82064 0.13218
 N37 N -0.20145 0.87758 0.14319
 N38 N -0.20703 0.85348 0.12975
 C39 C -0.23088 0.85647 0.11462
 C40 C -0.24060 0.88402 0.11890
 C41 C -0.22138 0.89675 0.13706
 H42 H -0.24015 0.83993 0.10140
 H43 H -0.22204 0.91832 0.14544
 N44 N -0.15440 0.79007 0.13818
 N45 N -0.13492 0.79170 0.15806
 C46 C -0.11763 0.76912 0.15527
 C47 C -0.12668 0.75244 0.13269
 C48 C -0.15010 0.76627 0.12232
 H49 H -0.09912 0.76554 0.16803
 H50 H -0.16219 0.76025 0.10377
 H51 H -0.14580 0.84093 0.14656
 H52 H -0.17361 0.83099 0.17401
 N53 N -0.15104 0.16064 -0.21498
 N54 N -0.17109 0.14099 -0.21557
 C55 C -0.16369 0.12066 -0.23478
 C56 C -0.13786 0.12818 -0.24703
 C57 C -0.13033 0.15365 -0.23397
 H58 H -0.17633 0.10203 -0.23996
 H59 H -0.11128 0.16614 -0.23792
 Cu60 Cu -0.20533 0.14446 -0.19203
 Cu61 Cu -0.15339 0.19384 -0.18974
 Cu62 Cu -0.21397 0.19986 -0.14664
 N63 N -0.23941 0.14830 -0.16831
 N64 N -0.24239 0.16955 -0.14997
 C65 C -0.26726 0.16644 -0.13554
 C66 C -0.28058 0.14197 -0.14563
 C67 C -0.26242 0.13114 -0.16647
 H68 H -0.27498 0.18097 -0.11912
 H69 H -0.26557 0.11184 -0.17890
 N70 N -0.18282 0.22828 -0.14654
 N71 N -0.15970 0.22580 -0.16281
 C72 C -0.14248 0.24831 -0.15795
 C73 C -0.15540 0.26582 -0.13770
 C74 C -0.18093 0.25257 -0.13101
 H75 H -0.12220 0.25185 -0.16860
 H76 H -0.19688 0.26013 -0.11587
 H77 H -0.17954 0.17536 -0.15910
 H78 H -0.19732 0.19560 -0.18758
 N79 N 0.14206 0.84128 -0.22644
 N80 N 0.16361 0.85927 -0.22608
 C81 C 0.16356 0.87476 -0.25004
 C82 C 0.14066 0.86617 -0.26609
 C83 C 0.12742 0.84485 -0.25052
 H84 H 0.17885 0.89125 -0.25542
 H85 H 0.10879 0.83262 -0.25636
 Cu86 Cu 0.18928 0.86095 -0.19410
 Cu87 Cu 0.13521 0.81403 -0.19606
 Cu88 Cu 0.18288 0.81463 -0.14029
 N89 N 0.21509 0.86207 -0.16226
 N90 N 0.21324 0.84332 -0.14173
 C91 C 0.23384 0.84881 -0.12274
 C92 C 0.24913 0.87248 -0.13186
 C93 C 0.23661 0.88031 -0.15689
 H94 H 0.23685 0.83697 -0.10344
 H95 H 0.24281 0.89806 -0.17012
 N96 N 0.15049 0.78756 -0.14275
 N97 N 0.13195 0.78800 -0.16354
 C98 C 0.11183 0.76797 -0.15872
 C99 C 0.11803 0.75414 -0.13390
 C100 C 0.14268 0.76706 -0.12425
 H101 H 0.09394 0.76357 -0.17229
 H102 H 0.15381 0.76222 -0.10498
 H103 H 0.15418 0.83725 -0.16345
 H104 H 0.17714 0.81156 -0.18375
 N105 N 0.16906 1.13207 0.79105
 N106 N 0.14776 1.14998 0.79059
 C107 C 0.12995 1.14192 0.76975
 C108 C 0.14063 1.11758 0.75667
 C109 C 0.16533 1.11181 0.77082
 H110 H 0.11062 1.15280 0.76457
 H111 H 0.17983 1.09455 0.76622
 Cu112 Cu 0.14534 1.18194 0.81738
 Cu113 Cu 0.20096 1.13733 0.81653
 Cu114 Cu 0.19861 1.19551 0.86270
 N115 N 0.14375 1.21367 0.84452
 N116 N 0.16488 1.21913 0.86178
 C117 C 0.15829 1.24176 0.87847
 C118 C 0.13155 1.25095 0.87128
 C119 C 0.12293 1.23266 0.84973
 H120 H 0.17167 1.25037 0.89504
 H121 H 0.10282 1.23305 0.83897
 N122 N 0.23080 1.16906 0.86064
 N123 N 0.23127 1.14639 0.84369
 C124 C 0.25523 1.13179 0.84822
 C125 C 0.27053 1.14601 0.86900
 C126 C 0.25453 1.16956 0.87629
 H127 H 0.26107 1.11227 0.83723
 H128 H 0.25957 1.18547 0.89234
 H129 H 0.17862 1.15874 0.84851
 H130 H 0.19694 1.18096 0.82079
 N131 N 0.85159 0.87205 0.79199
 N132 N 0.87536 0.85798 0.79491
 C133 C 0.89427 0.86611 0.77470
 C134 C 0.88175 0.88634 0.75818
 C135 C 0.85460 0.88969 0.76969
 H136 H 0.91563 0.85797 0.77218
 H137 H 0.83852 0.90424 0.76283
 Cu138 Cu 0.87973 0.83016 0.82449
 Cu139 Cu 0.81954 0.86773 0.81873
 Cu140 Cu 0.82610 0.81586 0.87009
 N141 N 0.87819 0.79498 0.84554
 N142 N 0.85682 0.78898 0.86299
 C143 C 0.86163 0.76383 0.87534
 C144 C 0.88745 0.75365 0.86497
 C145 C 0.89735 0.77395 0.84619
 H146 H 0.84791 0.75428 0.89140
 H147 H 0.91730 0.77368 0.83429
 N148 N 0.79277 0.84079 0.86812
 N149 N 0.78995 0.86014 0.84824
 C150 C 0.76574 0.87458 0.85350
 C151 C 0.75283 0.86380 0.87787
 C152 C 0.77047 0.84242 0.88652
 H153 H 0.75877 0.89248 0.84131
 H154 H 0.76766 0.82963 0.90537
 H155 H 0.84197 0.85362 0.85269
 H156 H 0.82829 0.82565 0.82772
 N157 N 0.16913 0.84194 1.23526
 N158 N 0.14596 0.82608 1.23478
 C159 C 0.13133 0.82965 1.25948
 C160 C 0.14619 0.84879 1.27640
 C161 C 0.17016 0.85600 1.26046
 H162 H 0.11136 0.81917 1.26457
 H163 H 0.18676 0.87088 1.26646
 Cu164 Cu 0.13708 0.80206 1.20215
 Cu165 Cu 0.19575 0.84330 1.20284
 Cu166 Cu 0.16950 0.81532 1.13969
 N167 N 0.13496 0.77523 1.17037
 N168 N 0.14798 0.78039 1.14589
 C169 C 0.14370 0.75833 1.12783
 C170 C 0.12703 0.73841 1.14176
 C171 C 0.12177 0.74976 1.16872
 H172 H 0.15219 0.75688 1.10624
 H173 H 0.10985 0.74000 1.18601
 N174 N 0.20172 0.84191 1.14091
 N175 N 0.21277 0.85141 1.16494
 C176 C 0.23599 0.86728 1.15867
 C177 C 0.23957 0.86760 1.12927
 C178 C 0.21741 0.85148 1.11873
 H179 H 0.24919 0.87776 1.17433
 H180 H 0.21358 0.84628 1.09657
 H181 H 0.16188 0.84040 1.17688
 H182 H 0.18367 0.80754 1.17905
 N183 N 0.84501 1.12628 1.20945
 N184 N 0.86595 1.14500 1.20975
 C185 C 0.88312 1.13935 1.23157
 C186 C 0.87237 1.11576 1.24559
 C187 C 0.84825 1.10797 1.23095
 H188 H 0.90225 1.15118 1.23655
 H189 H 0.83430 1.09012 1.23548
 Cu190 Cu 0.86912 1.17464 1.18132
 Cu191 Cu 0.81576 1.12631 1.18056
 Cu192 Cu 0.82438 1.17534 1.12643
 N193 N 0.87036 1.20498 1.15351
 N194 N 0.85252 1.20535 1.13229
 C195 C 0.85839 1.22802 1.11589
 C196 C 0.88119 1.24261 1.12751
 C197 C 0.88826 1.22742 1.15130
 H198 H 0.84735 1.23300 1.09660
 H199 H 0.90546 1.23222 1.16563
 N200 N 0.79256 1.14787 1.12811
 N201 N 0.78882 1.12968 1.14909
 C202 C 0.76537 1.11383 1.14406
 C203 C 0.75390 1.12252 1.11870
 C204 C 0.77162 1.14407 1.10921
 H205 H 0.75768 1.09676 1.15744
 H206 H 0.76947 1.15592 1.08978
 H207 H 0.84222 1.14275 1.14991
 H208 H 0.81926 1.16896 1.16963
 O209 O 0.45807 1.03751 1.06055
 O210 O 0.42694 1.01143 1.03348
 C211 C 0.43259 1.02998 1.05335
 O212 O 0.53557 1.04507 0.95604
 O213 O 0.56786 1.01840 0.97995
 C214 C 0.56139 1.03820 0.96235
 O215 O 0.45552 1.04428 0.96104
 O216 O 0.42552 1.01405 0.98551
 C217 C 0.43033 1.03509 0.96850
 O218 O 0.53748 1.03641 1.06017
 O219 O 0.56863 1.01426 1.02905
 C220 C 0.56297 1.03050 1.05098
 Zr221 Zr 0.49770 1.02336 1.04379
 O222 O 0.50023 1.06828 1.04734
 O223 O 0.49529 1.01990 1.08876
 Zr224 Zr 0.49616 1.02887 0.97198
 O225 O 0.49812 1.07375 0.97623
 O226 O 0.49232 1.03200 0.92720
 O227 O 0.47142 1.03093 1.00937
 O228 O 0.52153 1.03204 1.00746
 O229 O 0.53975 0.93771 1.04980
 O230 O 0.56985 0.96651 1.02378
 C231 C 0.56494 0.94630 1.04181
 O232 O 0.45750 0.94005 0.95331
 O233 O 0.42623 0.96514 0.98202
 C234 C 0.43197 0.94629 0.96232
 O235 O 0.53709 0.94648 0.94605
 O236 O 0.56848 0.97046 0.97475
 C237 C 0.56263 0.95377 0.95334
 O238 O 0.45975 0.93391 1.05132
 O239 O 0.42759 0.96225 1.02929
 C240 C 0.43397 0.94157 1.04590
 Zr241 Zr 0.49916 0.95169 1.03720
 O242 O 0.50280 0.90697 1.03276
 O243 O 0.49734 0.94850 1.08221
 Zr244 Zr 0.49750 0.95726 0.96546
 O245 O 0.50202 0.91270 0.96046
 O246 O 0.49266 0.96102 0.92086
 Zr247 Zr 0.45533 0.98901 1.00626
 Zr248 Zr 0.54006 0.99158 1.00296
 O249 O 0.52312 0.95005 0.99980
 O250 O 0.47310 0.94812 1.00186
 O251 O 0.52395 0.98785 1.04507
 O252 O 0.47200 0.99263 0.96446
 O253 O 0.47386 0.98644 1.04663
 O254 O 0.52216 0.99427 0.96218
 H255 H 0.53401 1.04910 1.00872
 H256 H 0.45873 0.99317 0.94833
 H257 H 0.53617 0.93371 0.99754
 H258 H 0.46146 0.98497 1.06389
 H259 H 0.50884 1.02228 0.91820
 H260 H 0.50797 0.97379 0.91378
 H261 H 0.48810 0.90361 0.97361
 H262 H 0.48620 0.89997 1.02199
 H263 H 0.51397 0.95893 1.08984
 H264 H 0.51074 1.00719 1.09446
 H265 H 0.48405 1.07610 1.03692
 H266 H 0.48175 1.07975 0.98838
 O267 O 0.05899 0.46311 -0.04157
 O268 O 0.02921 0.43058 -0.02012
 C269 C 0.05161 0.43727 -0.03524
 O270 O 0.03407 0.54461 0.05698
 O271 O 0.01153 0.57363 0.02567
 C272 C 0.02643 0.56945 0.04816
 O273 O 0.04187 0.46477 0.05611
 O274 O 0.02101 0.43122 0.02699
 C275 C 0.03716 0.43863 0.04798
 O276 O 0.05278 0.54212 -0.04565
 O277 O 0.02097 0.57223 -0.02342
 C278 C 0.04291 0.56727 -0.03990
 Zr279 Zr 0.03826 0.50188 -0.03143
 O280 O 0.08235 0.50801 -0.02512
 O281 O 0.04517 0.49772 -0.07607
 Zr282 Zr 0.02603 0.50336 0.03985
 O283 O 0.06998 0.50979 0.04681
 O284 O 0.01836 0.50104 0.08442
 O285 O 0.03906 0.47770 0.00548
 O286 O 0.03593 0.52766 0.00462
 O287 O -0.04583 0.53534 -0.06080
 O288 O -0.02635 0.56884 -0.03070
 C289 C -0.04116 0.56146 -0.05269
 O290 O -0.06098 0.45804 0.04033
 O291 O -0.02766 0.42821 0.02016
 C292 C -0.05077 0.43296 0.03492
 O293 O -0.06316 0.53761 0.04220
 O294 O -0.03477 0.56992 0.01867
 C295 C -0.05582 0.56343 0.03568
 O296 O -0.04418 0.45546 -0.05685
 O297 O -0.01941 0.42681 -0.02700
 C298 C -0.03647 0.43068 -0.04791
 Zr299 Zr -0.03236 0.49692 -0.04240
 O300 O -0.07657 0.49690 -0.05000
 O301 O -0.02344 0.49277 -0.08672
 Zr302 Zr -0.04462 0.49853 0.02890
 O303 O -0.08899 0.49873 0.02212
 O304 O -0.05160 0.49624 0.07359
 Zr305 Zr -0.00082 0.45790 -0.00051
 Zr306 Zr -0.00545 0.54256 -0.00197
 O307 O -0.04492 0.52205 -0.00793
 O308 O -0.04258 0.47203 -0.00712
 O309 O 0.00252 0.52473 -0.04287
 O310 O -0.00884 0.47636 0.03998
 O311 O 0.00520 0.47456 -0.04164
 O312 O -0.01162 0.52639 0.03947
 H313 H 0.05166 0.54160 0.00704
 H314 H -0.01096 0.46385 0.05673
 H315 H -0.06213 0.53364 -0.01057
 H316 H 0.00870 0.46125 -0.05789
 H317 H 0.00502 0.51643 0.08983
 H318 H -0.04280 0.51336 0.08236
 H319 H -0.09348 0.48240 0.00940
 H320 H -0.08533 0.48160 -0.03843
 H321 H -0.01297 0.51010 -0.09271
 H322 H 0.03519 0.51350 -0.08522
 H323 H 0.08837 0.49377 -0.01120
 H324 H 0.08028 0.49424 0.03676
 O325 O 1.04523 -0.04595 0.54360
 O326 O 1.02062 -0.01575 0.57387
 C327 C 1.03776 -0.03672 0.56893
 O328 O 1.05918 0.05141 0.46054
 O329 O 1.03025 0.02687 0.42977
 C330 C 1.05115 0.04420 0.43511
 O331 O 1.05895 0.05285 0.54026
 O332 O 1.02806 0.03173 0.57214
 C333 C 1.05003 0.04750 0.56601
 O334 O 1.04415 -0.05142 0.46307
 O335 O 1.02289 -0.02250 0.43075
 C336 C 1.03810 -0.04424 0.43719
 Zr337 Zr 1.03243 -0.03206 0.50285
 O338 O 1.07707 -0.03728 0.49995
 O339 O 1.02668 -0.07652 0.50728
 Zr340 Zr 1.04220 0.03901 0.50071
 O341 O 1.08667 0.03248 0.49814
 O342 O 1.04830 0.08370 0.50229
 O343 O 1.04224 0.00390 0.52740
 O344 O 1.04294 0.00171 0.47690
 O345 O 0.94691 -0.03985 0.46293
 O346 O 0.97622 -0.01685 0.43094
 C347 C 0.95572 -0.03445 0.43716
 O348 O 0.95658 0.06578 0.54000
 O349 O 0.97951 0.03807 0.57211
 C350 C 0.96253 0.05850 0.56584
 O351 O 0.96102 0.06463 0.45976
 O352 O 0.98269 0.03242 0.42939
 C353 C 0.96739 0.05479 0.43444
 O354 O 0.94192 -0.03219 0.54236
 O355 O 0.97191 -0.00908 0.57311
 C356 C 0.94972 -0.02467 0.56777
 Zr357 Zr 0.96116 -0.02283 0.50230
 O358 O 0.91689 -0.01665 0.49826
 O359 O 0.95448 -0.06709 0.50725
 Zr360 Zr 0.97100 0.04832 0.50024
 O361 O 0.92645 0.05293 0.49677
 O362 O 0.97644 0.09306 0.50207
 Zr363 Zr 1.00073 0.00994 0.54407
 Zr364 Zr 1.00260 0.00622 0.45892
 O365 O 0.96148 0.01228 0.47635
 O366 O 0.96001 0.01459 0.52674
 O367 O 0.99660 -0.03413 0.47737
 O368 O 1.00678 0.04990 0.52506
 O369 O 0.99545 -0.03157 0.52747
 O370 O 1.00794 0.04809 0.47483
 H371 H 1.05971 -0.00102 0.46406
 H372 H 1.00885 0.06712 0.53731
 H373 H 0.94528 0.01368 0.46325
 H374 H 0.99268 -0.04757 0.54080
 H375 H 1.03838 0.09179 0.48591
 H376 H 0.99055 0.09821 0.48707
 H377 H 0.91740 0.04491 0.51415
 H378 H 0.91071 -0.00344 0.51374
 H379 H 0.96666 -0.07695 0.49287
 H380 H 1.01445 -0.08322 0.49158
 H381 H 1.08546 -0.02715 0.51646
 H382 H 1.09196 0.02128 0.51489
 C383 C 1.11158 0.12899 0.27415
 C384 C 1.11959 0.10432 0.28807
 C385 C 1.10317 0.09255 0.31250
 C386 C 1.11752 0.07773 0.33353
 C387 C 1.10260 0.06626 0.35682
 C388 C 1.07291 0.06896 0.35921
 C389 C 1.05842 0.08298 0.33772
 C390 C 1.07340 0.09492 0.31469
 C391 C 1.05663 0.05670 0.38343
 C392 C 1.06736 0.05625 0.41095
 H393 H 1.13936 0.09403 0.28206
 H394 H 1.14038 0.07522 0.33204
 H395 H 1.11425 0.05483 0.37265
 H396 H 1.03549 0.08493 0.33893
 H397 H 1.06162 0.10549 0.29838
 H398 H 1.03498 0.04958 0.37991
 H399 H 1.09325 0.14068 0.28208
 H400 H 1.08774 0.06619 0.41522
 C401 C 0.88721 -0.09222 0.26649
 C402 C 0.90157 -0.10509 0.28855
 C403 C 0.91273 -0.08885 0.31327
 C404 C 0.91569 -0.10260 0.33940
 C405 C 0.92646 -0.08792 0.36307
 C406 C 0.93479 -0.05919 0.36091
 C407 C 0.93243 -0.04564 0.33461
 C408 C 0.92139 -0.06023 0.31104
 C409 C 0.94733 -0.04324 0.38511
 C410 C 0.94160 -0.04968 0.41364
 H411 H 0.90351 -0.12803 0.28848
 H412 H 0.90960 -0.12477 0.34151
 H413 H 0.92884 -0.09932 0.38275
 H414 H 0.93917 -0.02368 0.33229
 H415 H 0.92029 -0.04921 0.29100
 H416 H 0.96093 -0.02515 0.38022
 H417 H 0.88272 -0.06969 0.26771
 H418 H 0.92623 -0.06612 0.41903
 C419 C 0.87734 0.11222 0.73031
 C420 C 0.89914 0.12439 0.71390
 C421 C 0.91279 0.10910 0.68961
 C422 C 0.92282 0.12461 0.66608
 C423 C 0.93502 0.11064 0.64240
 C424 C 0.93775 0.08089 0.64210
 C425 C 0.92869 0.06549 0.66607
 C426 C 0.91615 0.07941 0.68957
 C427 C 0.95079 0.06542 0.61763
 C428 C 0.94936 0.07472 0.58955
 H429 H 0.90466 0.14659 0.71730
 H430 H 0.92083 0.14756 0.66587
 H431 H 0.94265 0.12319 0.62461
 H432 H 0.93105 0.04259 0.66647
 H433 H 0.90944 0.06695 0.70777
 H434 H 0.96049 0.04509 0.62175
 H435 H 0.86971 0.09098 0.72520
 H436 H 0.93754 0.09365 0.58470
 C437 C 1.13270 -0.12214 0.70626
 C438 C 1.10621 -0.12742 0.69435
 C439 C 1.09722 -0.11384 0.66779
 C440 C 1.06842 -0.10745 0.66459
 C441 C 1.05931 -0.09375 0.64021
 C442 C 1.07884 -0.08658 0.61832
 C443 C 1.10745 -0.09408 0.62093
 C444 C 1.11667 -0.10737 0.64558
 C445 C 1.06966 -0.07163 0.59260
 C446 C 1.04838 -0.05120 0.59408
 H447 H 1.09057 -0.13983 0.70615
 H448 H 1.05300 -0.11262 0.68124
 H449 H 1.03693 -0.08904 0.63840
 H450 H 1.12277 -0.08916 0.60411
 H451 H 1.13890 -0.11281 0.64707
 H452 H 1.08085 -0.07562 0.57254
 H453 H 1.14748 -0.10756 0.69599
 H454 H 1.03923 -0.04522 0.61468
 C455 C 0.26412 1.10788 1.10428
 C456 C 0.28413 1.09176 1.11845
 C457 C 0.30861 1.07817 1.10355
 C458 C 0.33356 1.07353 1.11867
 C459 C 0.35715 1.06087 1.10521
 C460 C 0.35608 1.05235 1.07636
 C461 C 0.33082 1.05617 1.06151
 C462 C 0.30734 1.06906 1.07488
 C463 C 0.38049 1.03874 1.06136
 C464 C 0.40871 1.04333 1.06908
 H465 H 0.28295 1.09035 1.14148
 H466 H 0.33488 1.07992 1.14091
 H467 H 0.37592 1.05739 1.11762
 H468 H 0.32931 1.04932 1.03942
 H469 H 0.28812 1.07139 1.06286
 H470 H 0.37614 1.02583 1.04258
 H471 H 0.26675 1.11122 1.08158
 H472 H 0.41367 1.05782 1.08647
 C473 C 0.27184 0.88671 0.88093
 C474 C 0.28555 0.87687 0.90496
 C475 C 0.30950 0.89286 0.91765
 C476 C 0.33265 0.87805 0.92834
 C477 C 0.35588 0.89286 0.93967
 C478 C 0.35598 0.92277 0.94108
 C479 C 0.33235 0.93752 0.93140
 C480 C 0.30943 0.92275 0.91949
 C481 C 0.38002 0.93894 0.95333
 C482 C 0.40819 0.93045 0.94951
 H483 H 0.28020 0.85612 0.91336
 H484 H 0.33295 0.85501 0.92747
 H485 H 0.37351 0.88093 0.94773
 H486 H 0.33182 0.96055 0.93269
 H487 H 0.29150 0.93468 0.91207
 H488 H 0.37552 0.95897 0.96418
 H489 H 0.27964 0.90603 0.87102
 H490 H 0.41304 0.91197 0.93627
 C491 C 0.73568 0.89721 1.10778
 C492 C 0.71581 0.88313 1.09077
 C493 C 0.69083 0.89780 1.07940
 C494 C 0.66565 0.88231 1.07483
 C495 C 0.64154 0.89576 1.06465
 C496 C 0.64233 0.92498 1.05855
 C497 C 0.66782 0.94022 1.06213
 C498 C 0.69181 0.92684 1.07257
 C499 C 0.61737 0.93994 1.04759
 C500 C 0.58939 0.93148 1.05358
 H501 H 0.71745 0.86040 1.08713
 H502 H 0.66454 0.85980 1.07946
 H503 H 0.62254 0.88313 1.06117
 H504 H 0.66909 0.96262 1.05706
 H505 H 0.71117 0.93920 1.07487
 H506 H 0.62120 0.95908 1.03542
 H507 H 0.73239 0.91938 1.11343
 H508 H 0.58513 0.91369 1.06748
 C509 C 0.69369 1.12960 0.86307
 C510 C 0.67782 1.13929 0.88665
 C511 C 0.65235 1.12364 0.89687
 C512 C 0.64790 1.12018 0.92627
 C513 C 0.62500 1.10383 0.93640
 C514 C 0.60582 1.09123 0.91726
 C515 C 0.60945 1.09588 0.88794
 C516 C 0.63275 1.11169 0.87775
 C517 C 0.58188 1.07345 0.92763
 C518 C 0.58518 1.05457 0.94993
 H519 H 0.68589 1.15651 0.89988
 H520 H 0.66259 1.12950 0.94135
 H521 H 0.62222 1.10117 0.95920
 H522 H 0.59464 1.08668 0.87290
 H523 H 0.63540 1.11463 0.85498
 H524 H 0.56185 1.07417 0.91665
 H525 H 0.68665 1.11060 0.85178
 H526 H 0.60605 1.05178 0.95882
 C527 C 0.11161 0.27017 0.10067
 C528 C 0.09886 0.29339 0.11450
 C529 C 0.08623 0.31737 0.09914
 C530 C 0.08297 0.34364 0.11339
 C531 C 0.07080 0.36667 0.09975
 C532 C 0.06149 0.36380 0.07150
 C533 C 0.06424 0.33737 0.05747
 C534 C 0.07649 0.31438 0.07106
 C535 C 0.04796 0.38735 0.05630
 C536 C 0.05104 0.41605 0.06391
 H537 H 0.09911 0.29474 0.13757
 H538 H 0.08990 0.34636 0.13518
 H539 H 0.06826 0.38639 0.11166
 H540 H 0.05684 0.33447 0.03586
 H541 H 0.07771 0.29425 0.05967
 H542 H 0.03577 0.38183 0.03759
 H543 H 0.11360 0.26952 0.07764
 H544 H 0.06441 0.42239 0.08144
 C545 C -0.14485 0.29297 -0.12572
 C546 C -0.11683 0.30215 -0.13007
 C547 C -0.10535 0.32889 -0.11770
 C548 C -0.07613 0.33087 -0.11248
 C549 C -0.06446 0.35566 -0.10060
 C550 C -0.08183 0.37912 -0.09396
 C551 C -0.11087 0.37755 -0.10014
 C552 C -0.12262 0.35260 -0.11174
 C553 C -0.07014 0.40542 -0.08086
 C554 C -0.04744 0.40495 -0.06220
 H555 H -0.10207 0.28832 -0.14144
 H556 H -0.06232 0.31305 -0.11735
 H557 H -0.04181 0.35651 -0.09698
 H558 H -0.12456 0.39554 -0.09561
 H559 H -0.14506 0.35212 -0.11637
 H560 H -0.08097 0.42529 -0.08429
 H561 H -0.15922 0.30527 -0.11221
 H562 H -0.03830 0.38479 -0.05651
 C563 C 0.10107 0.73095 -0.12102
 C564 C 0.11102 0.71443 -0.09891
 C565 C 0.09450 0.69035 -0.08674
 C566 C 0.10913 0.66760 -0.07496
 C567 C 0.09426 0.64433 -0.06361
 C568 C 0.06436 0.64354 -0.06351
 C569 C 0.04969 0.66673 -0.07438
 C570 C 0.06457 0.68985 -0.08608
 C571 C 0.04809 0.61923 -0.05149
 C572 C 0.05842 0.59149 -0.05252
 H573 H 0.13249 0.71793 -0.09159
 H574 H 0.13216 0.66769 -0.07479
 H575 H 0.10623 0.62725 -0.05452
 H576 H 0.02666 0.66681 -0.07409
 H577 H 0.05259 0.70744 -0.09416
 H578 H 0.02689 0.62307 -0.04290
 H579 H 0.08071 0.72596 -0.13033
 H580 H 0.07841 0.58712 -0.06349
 C581 C -0.11196 0.72722 0.12090
 C582 C -0.12360 0.70963 0.09985
 C583 C -0.10796 0.68531 0.08691
 C584 C -0.12322 0.66172 0.07640
 C585 C -0.10896 0.63854 0.06389
 C586 C -0.07912 0.63878 0.06128
 C587 C -0.06393 0.66271 0.07105
 C588 C -0.07814 0.68568 0.08391
 C589 C -0.06328 0.61498 0.04768
 C590 C -0.07272 0.58674 0.04844
 H591 H -0.14529 0.71301 0.09343
 H592 H -0.14623 0.66117 0.07802
 H593 H -0.12136 0.62079 0.05578
 H594 H -0.04096 0.66356 0.06887
 H595 H -0.06577 0.70391 0.09091
 H596 H -0.04252 0.61965 0.03836
 H597 H -0.09141 0.72228 0.12946
 H598 H -0.09219 0.58133 0.05990
 C599 C 1.12889 0.10114 0.73261
 C600 C 1.10936 0.11284 0.71423
 C601 C 1.09785 0.09704 0.68948
 C602 C 1.09071 0.11209 0.66506
 C603 C 1.07930 0.09789 0.64145
 C604 C 1.07434 0.06836 0.64208
 C605 C 1.08087 0.05339 0.66675
 C606 C 1.09281 0.06752 0.69017
 C607 C 1.06101 0.05311 0.61794
 C608 C 1.06543 0.06111 0.58963
 H609 H 1.10377 0.13504 0.71686
 H610 H 1.09407 0.13490 0.66423
 H611 H 1.07370 0.11016 0.62307
 H612 H 1.07678 0.03071 0.66785
 H613 H 1.09741 0.05547 0.70901
 H614 H 1.04798 0.03454 0.62255
 H615 H 1.13711 0.08002 0.72833
 H616 H 1.08066 0.07781 0.58458
 C617 C 0.89575 -0.09871 0.73435
 C618 C 0.88142 -0.08066 0.71632
 C619 C 0.89609 -0.06630 0.69224
 C620 C 0.88099 -0.06048 0.66751
 C621 C 0.89478 -0.04818 0.64395
 C622 C 0.92391 -0.04120 0.64492
 C623 C 0.93860 -0.04572 0.67016
 C624 C 0.92492 -0.05825 0.69356
 C625 C 0.93961 -0.02916 0.62021
 C626 C 0.93224 -0.03484 0.59197
 H627 H 0.85858 -0.07852 0.71865
 H628 H 0.85863 -0.06599 0.66622
 H629 H 0.88256 -0.04403 0.62517
 H630 H 0.96092 -0.04004 0.67158
 H631 H 0.93693 -0.06147 0.71269
 H632 H 0.95900 -0.01730 0.62438
 H633 H 0.91807 -0.10299 0.73040
 H634 H 0.91391 -0.04808 0.58734
 C635 C 1.13796 -0.13950 0.30465
 C636 C 1.11081 -0.14379 0.31640
 C637 C 1.10064 -0.12921 0.34274
 C638 C 1.07166 -0.12278 0.34553
 C639 C 1.06135 -0.10783 0.36944
 C640 C 1.07984 -0.09934 0.39123
 C641 C 1.10856 -0.10702 0.38917
 C642 C 1.11899 -0.12164 0.36499
 C643 C 1.06952 -0.08240 0.41605
 C644 C 1.04874 -0.06175 0.41319
 H645 H 1.09536 -0.15596 0.30439
 H646 H 1.05705 -0.12881 0.32887
 H647 H 1.03890 -0.10300 0.37088
 H648 H 1.12306 -0.10110 0.40597
 H649 H 1.14129 -0.12711 0.36384
 H650 H 1.07986 -0.08471 0.43633
 H651 H 1.15293 -0.12553 0.31530
 H652 H 1.04053 -0.05747 0.39226
 C653 C 0.88417 0.10100 0.27013
 C654 C 0.90620 0.11267 0.28616
 C655 C 0.91848 0.09821 0.31082
 C656 C 0.93106 0.11474 0.33239
 C657 C 0.94301 0.10185 0.35595
 C658 C 0.94289 0.07206 0.35819
 C659 C 0.93107 0.05547 0.33622
 C660 C 0.91881 0.06838 0.31281
 C661 C 0.95549 0.05774 0.38273
 C662 C 0.95604 0.06998 0.41003
 H663 H 0.91380 0.13394 0.28148
 H664 H 0.93148 0.13774 0.33110
 H665 H 0.95275 0.11523 0.37208
 H666 H 0.93111 0.03246 0.33729
 H667 H 0.91012 0.05495 0.29612
 H668 H 0.96275 0.03607 0.37964
 H669 H 0.87454 0.08091 0.27617
 H670 H 0.94634 0.09048 0.41406
 C671 C 0.11475 0.27421 -0.11576
 C672 C 0.12623 0.29371 -0.09632
 C673 C 0.10949 0.31700 -0.08294
 C674 C 0.12359 0.34188 -0.07389
 C675 C 0.10837 0.36438 -0.06137
 C676 C 0.07871 0.36226 -0.05740
 C677 C 0.06477 0.33700 -0.06555
 C678 C 0.07994 0.31461 -0.07831
 C679 C 0.06180 0.38566 -0.04447
 C680 C 0.06980 0.41425 -0.04644
 H681 H 0.14870 0.29287 -0.09182
 H682 H 0.14642 0.34401 -0.07676
 H683 H 0.11996 0.38317 -0.05448
 H684 H 0.04200 0.33469 -0.06229
 H685 H 0.06852 0.29535 -0.08409
 H686 H 0.04132 0.38031 -0.03487
 H687 H 0.09300 0.27637 -0.12243
 H688 H 0.08912 0.42015 -0.05789
 C689 C -0.10367 0.26784 0.11652
 C690 C -0.11409 0.28395 0.09434
 C691 C -0.09866 0.30885 0.08258
 C692 C -0.11417 0.33062 0.07015
 C693 C -0.10024 0.35438 0.05870
 C694 C -0.07042 0.35660 0.05917
 C695 C -0.05485 0.33442 0.07082
 C696 C -0.06880 0.31083 0.08259
 C697 C -0.05500 0.38129 0.04700
 C698 C -0.06659 0.40850 0.04657
 H699 H -0.13497 0.27904 0.08615
 H700 H -0.13716 0.32932 0.06946
 H701 H -0.11284 0.37066 0.04904
 H702 H -0.03182 0.33546 0.07099
 H703 H -0.05613 0.29398 0.09115
 H704 H -0.03318 0.37830 0.03976
 H705 H -0.08411 0.27416 0.12674
 H706 H -0.08735 0.41234 0.05617
 C707 C -0.09698 0.72829 -0.12644
 C708 C -0.10964 0.70665 -0.11049
 C709 C -0.09336 0.68232 -0.09993
 C710 C -0.10730 0.65621 -0.09547
 C711 C -0.09264 0.63314 -0.08457
 C712 C -0.06381 0.63598 -0.07753
 C713 C -0.05000 0.66221 -0.08159
 C714 C -0.06453 0.68513 -0.09287
 C715 C -0.04824 0.61271 -0.06413
 C716 C -0.05455 0.58401 -0.06900
 H717 H -0.13237 0.70703 -0.10634
 H718 H -0.12962 0.65369 -0.10033
 H719 H -0.10415 0.61345 -0.08085
 H720 H -0.02795 0.66501 -0.07585
 H721 H -0.05336 0.70522 -0.09523
 H722 H -0.03092 0.61843 -0.05018
 H723 H -0.07494 0.72655 -0.13328
 H724 H -0.06993 0.57788 -0.08489
 C725 C 0.11797 0.71074 0.13014
 C726 C 0.09463 0.69600 0.14133
 C727 C 0.08486 0.66911 0.12823
 C728 C 0.05573 0.66447 0.12429
 C729 C 0.04623 0.63989 0.11019
 C730 C 0.06579 0.61932 0.10049
 C731 C 0.09479 0.62329 0.10577
 C732 C 0.10434 0.64819 0.11923
 C733 C 0.05642 0.59367 0.08478
 C734 C 0.03505 0.59469 0.06469
 H735 H 0.08160 0.70574 0.15803
 H736 H 0.04041 0.68026 0.13139
 H737 H 0.02366 0.63694 0.10697
 H738 H 0.11011 0.60746 0.09879
 H739 H 0.12689 0.65111 0.12265
 H740 H 0.06825 0.57421 0.08723
 H741 H 0.12890 0.70261 0.11120
 H742 H 0.02523 0.61481 0.06001
 C743 C 0.29751 1.13785 0.88188
 C744 C 0.30867 1.11063 0.87827
 C745 C 0.33418 1.10101 0.89318
 C746 C 0.33641 1.07212 0.89968
 C747 C 0.35990 1.06220 0.91419
 C748 C 0.38185 1.08102 0.92220
 C749 C 0.38016 1.10975 0.91479
 C750 C 0.35641 1.11977 0.90060
 C751 C 0.40703 1.07082 0.93729
 C752 C 0.40525 1.04820 0.95618
 H753 H 0.29688 1.09489 0.86610
 H754 H 0.31977 1.05719 0.89378
 H755 H 0.36103 1.03972 0.91865
 H756 H 0.39710 1.12450 0.92026
 H757 H 0.35573 1.14203 0.89509
 H758 H 0.42723 1.08162 0.93379
 H759 H 0.30763 1.15304 0.89606
 H760 H 0.38466 1.03905 0.96156
 C761 C 0.26241 0.88077 1.11204
 C762 C 0.28721 0.89155 1.12404
 C763 C 0.31130 0.90255 1.10661
 C764 C 0.33880 0.90154 1.11754
 C765 C 0.36215 0.91134 1.10151
 C766 C 0.35834 0.92255 1.07420
 C767 C 0.33075 0.92426 1.06358
 C768 C 0.30743 0.91431 1.07955
 C769 C 0.38228 0.93419 1.05702
 C770 C 0.41058 0.92649 1.06059
 H771 H 0.29006 0.88984 1.14682
 H772 H 0.34225 0.89298 1.13852
 H773 H 0.38295 0.91066 1.11087
 H774 H 0.32722 0.93336 1.04285
 H775 H 0.28643 0.91636 1.07083
 H776 H 0.37732 0.94955 1.04087
 H777 H 0.26028 0.88005 1.08910
 H778 H 0.41590 0.90979 1.07515
 C779 C 0.72920 1.11078 1.10353
 C780 C 0.71051 1.09100 1.11576
 C781 C 0.68612 1.07855 1.10031
 C782 C 0.66217 1.06913 1.11594
 C783 C 0.63880 1.05722 1.10200
 C784 C 0.63910 1.05419 1.07210
 C785 C 0.66340 1.06279 1.05655
 C786 C 0.68664 1.07500 1.07045
 C787 C 0.61489 1.04141 1.05666
 C788 C 0.58681 1.04321 1.06669
 H789 H 0.71296 1.08540 1.13790
 H790 H 0.66148 1.07117 1.13899
 H791 H 0.62079 1.04994 1.11473
 H792 H 0.66431 1.06023 1.03354
 H793 H 0.70513 1.08112 1.05781
 H794 H 0.61917 1.03162 1.03596
 H795 H 0.72541 1.11853 1.08233
 H796 H 0.58194 1.05500 1.08615
 C797 C 0.72747 0.87425 0.89354
 C798 C 0.70953 0.89466 0.88252
 C799 C 0.68511 0.90660 0.89893
 C800 C 0.66180 0.91702 0.88418
 C801 C 0.63854 0.92874 0.89905
 C802 C 0.63837 0.93059 0.92903
 C803 C 0.66201 0.92092 0.94373
 C804 C 0.68511 0.90888 0.92889
 C805 C 0.61433 0.94320 0.94546
 C806 C 0.58634 0.94200 0.93615
 H807 H 0.71281 0.90145 0.86072
 H808 H 0.66155 0.91597 0.86108
 H809 H 0.62104 0.93682 0.88701
 H810 H 0.66254 0.92254 0.96680
 H811 H 0.70313 0.90196 0.94090
 H812 H 0.61857 0.95205 0.96645
 H813 H 0.72281 0.86534 0.91430
 H814 H 0.58138 0.93088 0.91645
   
