data_POSCAR
  _audit_creation_date              2014-09-24
  _audit_creation_method            'ToBaCCo'
  _symmetry_space_group_name_H-M    'P1'
  _symmetry_Int_Tables_number       1
  _symmetry_cell_setting            triclinic
  loop_
  _symmetry_equiv_pos_as_xyz
 x,y,z
_cell_length_a 57.0012
_cell_length_b 56.9519
_cell_length_c 23.4123
_cell_angle_alpha 90.030400
_cell_angle_beta 89.883300
_cell_angle_gamma 119.979300
loop_
  _atom_site_label
  _atom_site_type_symbol
  _atom_site_fract_x
  _atom_site_fract_y
  _atom_site_fract_z
C1 C 0.16986 0.46703 0.49936
 C2 C 0.18388 0.47059 0.44824
 C3 C 0.20859 0.47086 0.44821
 C4 C 0.21897 0.46614 0.49915
 C5 C 0.20395 0.46185 0.55019
 C6 C 0.18001 0.46307 0.55039
 C7 C 0.24533 0.46603 0.49915
 C8 C 0.26044 0.47070 0.55005
 C9 C 0.28477 0.47026 0.54996
 C10 C 0.29513 0.46654 0.49892
 C11 C 0.28102 0.46261 0.44798
 C12 C 0.25597 0.46159 0.44814
 H13 H 0.15107 0.46756 0.49949
 H14 H 0.21958 0.47509 0.40835
 H15 H 0.21056 0.45753 0.59007
 H16 H 0.25382 0.47503 0.58995
 H17 H 0.31436 0.46694 0.49877
 H18 H 0.24512 0.45732 0.40822
 C19 C 0.53350 -0.29709 0.49900
 C20 C 0.52981 -0.28647 0.44834
 C21 C 0.52936 -0.26210 0.44914
 C22 C 0.53405 -0.24721 0.50046
 C23 C 0.53851 -0.25809 0.55099
 C24 C 0.53744 -0.28320 0.55039
 C25 C 0.53393 -0.22083 0.50141
 C26 C 0.52949 -0.21054 0.55293
 C27 C 0.52978 -0.18582 0.55378
 C28 C 0.53306 -0.17167 0.50309
 C29 C 0.53673 -0.18169 0.45156
 C30 C 0.53793 -0.20565 0.45075
 H31 H 0.53309 -0.31638 0.49851
 H32 H 0.52501 -0.25524 0.40962
 H33 H 0.54283 -0.24735 0.59114
 H34 H 0.52547 -0.22155 0.59266
 H35 H 0.53256 -0.15287 0.50370
 H36 H 0.54201 -0.21209 0.41034
 C37 C 1.29639 0.82973 0.49751
 C38 C 1.28559 0.81573 0.44663
 C39 C 1.26110 0.79106 0.44727
 C40 C 1.24628 0.78073 0.49869
 C41 C 1.25740 0.79576 0.54948
 C42 C 1.28260 0.81964 0.54892
 C43 C 1.21973 0.75445 0.49939
 C44 C 1.20939 0.73943 0.55056
 C45 C 1.18453 0.71513 0.55107
 C46 C 1.17031 0.70473 0.50026
 C47 C 1.18038 0.71875 0.44910
 C48 C 1.20446 0.74376 0.44874
 H49 H 1.31574 0.84849 0.49727
 H50 H 1.25408 0.78008 0.40753
 H51 H 1.24681 0.78928 0.58980
 H52 H 1.22052 0.74613 0.59017
 H53 H 1.15142 0.68551 0.50035
 H54 H 1.21093 0.75453 0.40864
 C55 C 0.82870 0.53297 0.49922
 C56 C 0.81846 0.53694 0.44838
 C57 C 0.79446 0.53804 0.44884
 C58 C 0.77950 0.53367 0.50006
 C59 C 0.79003 0.52898 0.55078
 C60 C 0.81475 0.52933 0.55039
 C61 C 0.75305 0.53358 0.50047
 C62 C 0.74236 0.53781 0.55168
 C63 C 0.71715 0.53655 0.55210
 C64 C 0.70300 0.53257 0.50114
 C65 C 0.71344 0.52906 0.45001
 C66 C 0.73787 0.52886 0.44971
 H67 H 0.84751 0.53252 0.49890
 H68 H 0.78781 0.54232 0.40900
 H69 H 0.77918 0.52470 0.59081
 H70 H 0.75333 0.54212 0.59148
 H71 H 0.68367 0.53201 0.50121
 H72 H 0.74453 0.52467 0.40970
 C73 C 0.46646 0.29592 0.49747
 C74 C 0.46949 0.28467 0.44708
 C75 C 0.46980 0.26024 0.44865
 C76 C 0.46558 0.24589 0.50064
 C77 C 0.46181 0.25743 0.55097
 C78 C 0.46303 0.28261 0.54945
 C79 C 0.46535 0.21933 0.50240
 C80 C 0.46991 0.20924 0.55407
 C81 C 0.46933 0.18434 0.55540
 C82 C 0.46562 0.16986 0.50495
 C83 C 0.46179 0.17968 0.45340
 C84 C 0.46085 0.20376 0.45221
 H85 H 0.46697 0.31523 0.49617
 H86 H 0.47365 0.25298 0.40910
 H87 H 0.45788 0.24716 0.59164
 H88 H 0.47428 0.22058 0.59343
 H89 H 0.46595 0.15096 0.50561
 H90 H 0.45663 0.20998 0.41177
 C91 C 0.70511 0.17093 0.49903
 C92 C 0.71593 0.18533 0.44856
 C93 C 0.74027 0.21014 0.44971
 C94 C 0.75492 0.22024 0.50133
 C95 C 0.74380 0.20477 0.55165
 C96 C 0.71875 0.18076 0.55056
 C97 C 0.78132 0.24670 0.50283
 C98 C 0.79157 0.26115 0.55465
 C99 C 0.81637 0.28553 0.55587
 C100 C 0.83056 0.29659 0.50522
 C101 C 0.82055 0.28315 0.45352
 C102 C 0.79657 0.25807 0.45235
 H103 H 0.68587 0.15210 0.49828
 H104 H 0.74722 0.22134 0.41020
 H105 H 0.75423 0.21100 0.59208
 H106 H 0.78045 0.25397 0.59425
 H107 H 0.84940 0.31585 0.50586
 H108 H 0.79018 0.24779 0.41175
 N109 N 0.97175 0.52861 0.05845
 N110 N 0.95377 0.53616 0.07017
 N111 N 1.02857 0.54104 0.09890
 N112 N 1.04635 0.55506 0.13895
 N113 N 1.02866 0.55723 0.05882
 N114 N 1.04651 0.58275 0.07068
 N115 N 0.97167 0.51239 0.09845
 N116 N 0.95366 0.50843 0.13828
 C117 C 0.94240 0.52298 0.11955
 C118 C 1.05763 0.58090 0.12026
 N119 N 1.02905 0.47386 0.06311
 N120 N 1.04814 0.46788 0.07504
 N121 N 0.97191 0.46189 0.10109
 N122 N 0.95389 0.44842 0.14132
 N123 N 0.97210 0.44513 0.06273
 N124 N 0.95422 0.41980 0.07594
 N125 N 1.02881 0.49063 0.10135
 N126 N 1.04769 0.49658 0.14016
 Mn127 Mn 1.00023 0.50147 0.10039
 C128 C 1.05972 0.48253 0.12278
 C129 C 0.94277 0.42233 0.12447
 N130 N 1.02911 0.55616 -0.06456
 N131 N 1.04814 0.58131 -0.07622
 N132 N 0.97233 0.51075 -0.10318
 N133 N 0.95330 0.50461 -0.14171
 N134 N 0.97207 0.52748 -0.06491
 N135 N 0.95281 0.53325 -0.07647
 N136 N 1.02924 0.53931 -0.10273
 N137 N 1.04830 0.55244 -0.14125
 Mn138 Mn 1.00040 0.54264 -0.00313
 C139 C 1.06007 0.57847 -0.12373
 C140 C 0.94117 0.51852 -0.12408
 N141 N 0.97226 0.44413 -0.06064
 N142 N 0.95318 0.41883 -0.07090
 N143 N 1.02933 0.48886 -0.10029
 N144 N 1.04729 0.49277 -0.14019
 N145 N 1.02926 0.47267 -0.06029
 N146 N 1.04720 0.46508 -0.07204
 N147 N 0.97243 0.46040 -0.10057
 N148 N 0.95353 0.44675 -0.13892
 Mn149 Mn 1.00067 0.45868 0.00126
 Mn150 Mn 1.00085 0.49985 -0.10215
 Cl151 Cl 1.00054 0.50066 -0.00086
 C152 C 0.94155 0.42101 -0.11951
 C153 C 1.05853 0.47821 -0.12145
 N154 N 0.51189 0.54003 -0.10091
 N155 N 0.50809 0.55400 -0.14112
 N156 N 0.55635 0.52776 -0.06008
 N157 N 0.58188 0.53537 -0.07177
 N158 N 0.54027 0.51148 -0.10002
 N159 N 0.55438 0.50755 -0.13977
 N160 N 0.52791 0.55627 -0.06088
 N161 N 0.53550 0.58177 -0.07294
 C162 C 0.52255 0.57985 -0.12258
 C163 C 0.58015 0.52218 -0.12106
 N164 N 0.53784 0.51001 0.10162
 N165 N 0.55075 0.50397 0.14033
 N166 N 0.52633 0.55531 0.06252
 N167 N 0.53243 0.58046 0.07413
 N168 N 0.50936 0.53847 0.10072
 N169 N 0.50341 0.55160 0.13920
 N170 N 0.55482 0.52673 0.06331
 N171 N 0.57985 0.53258 0.07503
 Mn172 Mn 0.54162 0.54178 0.00129
 C173 C 0.57678 0.51792 0.12278
 C174 C 0.51765 0.57763 0.12163
 N175 N 0.48967 0.46091 -0.10251
 N176 N 0.49432 0.44744 -0.14257
 N177 N 0.44437 0.47280 -0.06489
 N178 N 0.41933 0.46689 -0.07669
 N179 N 0.46136 0.48956 -0.10319
 N180 N 0.44843 0.49555 -0.14194
 N181 N 0.47275 0.44417 -0.06409
 N182 N 0.46541 0.41884 -0.07708
 Mn183 Mn 0.50079 0.50048 -0.10211
 C184 C 0.47943 0.42136 -0.12554
 C185 C 0.42238 0.48155 -0.12445
 N186 N 0.45896 0.48796 0.09843
 N187 N 0.44484 0.49191 0.13812
 N188 N 0.47151 0.44327 0.05928
 N189 N 0.46539 0.41800 0.06975
 N190 N 0.48754 0.45960 0.09916
 N191 N 0.49282 0.44602 0.13768
 N192 N 0.44290 0.47171 0.05847
 N193 N 0.41737 0.46412 0.07003
 Mn194 Mn 0.49842 0.49903 0.10044
 Mn195 Mn 0.45762 0.45772 -0.00284
 Cl196 Cl 0.49961 0.49975 -0.00085
 C197 C 0.41908 0.47731 0.11930
 C198 C 0.47916 0.42026 0.11843
 N199 N 0.44405 -0.02861 0.06212
 N200 N 0.41884 -0.04775 0.07284
 N201 N 0.48876 0.02835 0.10175
 N202 N 0.49282 0.04621 0.14196
 N203 N 0.47241 0.02840 0.06235
 N204 N 0.46485 0.04629 0.07483
 N205 N 0.46051 -0.02858 0.10136
 N206 N 0.44707 -0.04764 0.13966
 C207 C 0.42126 -0.05957 0.12092
 C208 C 0.47817 0.05749 0.12403
 N209 N 0.55600 0.02857 0.06322
 N210 N 0.58116 0.04764 0.07439
 N211 N 0.51104 -0.02848 0.10219
 N212 N 0.50669 -0.04647 0.14232
 N213 N 0.52760 -0.02848 0.06310
 N214 N 0.53501 -0.04646 0.07569
 N215 N 0.53932 0.02849 0.10212
 N216 N 0.55257 0.04745 0.14067
 Mn217 Mn 0.49991 -0.00005 0.10231
 C218 C 0.57850 0.05938 0.12242
 C219 C 0.52139 -0.05776 0.12467
 N220 N 0.47297 0.02874 -0.06105
 N221 N 0.46684 0.04781 -0.07219
 N222 N 0.46096 -0.02825 -0.10038
 N223 N 0.44737 -0.04614 -0.14065
 N224 N 0.44437 -0.02830 -0.06129
 N225 N 0.41901 -0.04623 -0.07402
 N226 N 0.48961 0.02872 -0.09995
 N227 N 0.49529 0.04772 -0.13846
 Mn228 Mn 0.45819 0.00006 0.00054
 C229 C 0.48125 0.05961 -0.12019
 C230 C 0.42137 -0.05744 -0.12308
 N231 N 0.52773 -0.02854 -0.06030
 N232 N 0.53371 -0.04776 -0.07098
 N233 N 0.54000 0.02853 -0.09957
 N234 N 0.55383 0.04651 -0.13959
 N235 N 0.55635 0.02847 -0.06017
 N236 N 0.58178 0.04642 -0.07243
 N237 N 0.51135 -0.02841 -0.09954
 N238 N 0.50570 -0.04748 -0.13783
 Mn239 Mn 0.54218 0.00000 0.00146
 Mn240 Mn 0.50049 0.00015 -0.10032
 Cl241 Cl 0.50019 0.00004 0.00100
 C242 C 0.51950 -0.05951 -0.11908
 C243 C 0.57971 0.05775 -0.12152
 C244 C 1.10617 0.45514 0.27039
 C245 C 1.13362 0.45635 0.26030
 C246 C 1.14592 0.47689 0.30936
 C247 C 1.11870 0.47563 0.31996
 C248 C 1.11490 0.47892 0.22871
 C249 C 1.12723 0.49943 0.27784
 C250 C 1.14211 0.48020 0.21779
 C251 C 1.15472 0.50071 0.26778
 C252 C 1.16165 0.47532 0.35708
 C253 C 1.17293 0.47344 0.39886
 C254 C 1.09639 0.48000 0.18686
 C255 C 1.08011 0.48102 0.15574
 H256 H 1.08603 0.43641 0.27107
 H257 H 1.13645 0.43863 0.25361
 H258 H 1.10921 0.47375 0.36243
 H259 H 1.12441 0.51715 0.28466
 H260 H 1.15150 0.48208 0.17522
 H261 H 1.17487 0.51943 0.26724
 C262 C 0.51094 0.62788 0.28864
 C263 C 0.53717 0.65229 0.31167
 C264 C 0.52350 0.66966 0.30852
 C265 C 0.49725 0.64544 0.28602
 C266 C 0.52148 0.63669 0.22743
 C267 C 0.50775 0.65401 0.22403
 C268 C 0.54772 0.66091 0.24997
 C269 C 0.53408 0.67861 0.24739
 C270 C 0.52508 0.68689 0.35654
 C271 C 0.52696 0.69992 0.39860
 C272 C 0.52035 0.61707 0.18547
 C273 C 0.51928 0.59969 0.15438
 H274 H 0.50143 0.60683 0.30527
 H275 H 0.54926 0.65171 0.34819
 H276 H 0.47652 0.63926 0.30133
 H277 H 0.49567 0.65450 0.18741
 H278 H 0.56846 0.66708 0.23471
 H279 H 0.54359 0.69969 0.23100
 C280 C 0.37051 -0.11589 0.28737
 C281 C 0.34523 -0.11519 0.30876
 C282 C 0.32909 -0.14631 0.30665
 C283 C 0.35419 -0.14722 0.28578
 C284 C 0.36189 -0.11516 0.22554
 C285 C 0.34581 -0.14629 0.22317
 C286 C 0.33680 -0.11425 0.24642
 C287 C 0.32033 -0.14569 0.24489
 C288 C 0.31200 -0.16208 0.35472
 C289 C 0.29908 -0.17335 0.39684
 C290 C 0.38151 -0.09654 0.18372
 C291 C 0.39898 -0.08012 0.15297
 H292 H 0.39132 -0.10345 0.30452
 H293 H 0.34486 -0.10253 0.34445
 H294 H 0.36116 -0.16094 0.30245
 H295 H 0.34626 -0.15886 0.18740
 H296 H 0.32985 -0.10051 0.22979
 H297 H 0.29948 -0.15818 0.22799
 C298 C 0.87540 0.51131 0.27229
 C299 C 0.88568 0.53408 0.31747
 C300 C 0.86068 0.53698 0.30637
 C301 C 0.85017 0.51420 0.26167
 C302 C 0.89074 0.53276 0.22603
 C303 C 0.86576 0.53566 0.21461
 C304 C 0.90123 0.55553 0.27075
 C305 C 0.87599 0.55850 0.26021
 C306 C 0.84468 0.53837 0.35400
 C307 C 0.83230 0.53839 0.39580
 C308 C 0.90826 0.52978 0.18422
 C309 C 0.92345 0.52685 0.15296
 H310 H 0.87531 0.49186 0.27693
 H311 H 0.89375 0.53345 0.36021
 H312 H 0.82899 0.49722 0.25841
 H313 H 0.85777 0.53626 0.17177
 H314 H 0.92241 0.57250 0.27410
 H315 H 0.87604 0.57793 0.25576
 C316 C 0.47599 0.33446 0.21186
 C317 C 0.49736 0.34240 0.26002
 C318 C 0.47431 0.32819 0.30371
 C319 C 0.45292 0.31992 0.25648
 C320 C 0.47555 0.36086 0.22275
 C321 C 0.45255 0.34662 0.26652
 C322 C 0.49691 0.36906 0.27004
 C323 C 0.47388 0.35461 0.31425
 C324 C 0.47328 0.31124 0.35180
 C325 C 0.47192 0.29850 0.39401
 C326 C 0.47637 0.38042 0.18098
 C327 C 0.47737 0.39789 0.15030
 H328 H 0.47684 0.32639 0.16922
 H329 H 0.51578 0.34047 0.25788
 H330 H 0.43482 0.29950 0.25141
 H331 H 0.43411 0.34853 0.26882
 H332 H 0.51501 0.38947 0.27526
 H333 H 0.47303 0.36279 0.35678
 C334 C 0.66822 0.13501 0.21732
 C335 C 0.66534 0.15698 0.25096
 C336 C 0.67121 0.14660 0.30665
 C337 C 0.67442 0.12498 0.27387
 C338 C 0.63790 0.11512 0.22671
 C339 C 0.64385 0.10488 0.28248
 C340 C 0.63469 0.13674 0.25950
 C341 C 0.64087 0.12667 0.31575
 C342 C 0.68859 0.16258 0.35414
 C343 C 0.70170 0.17397 0.39591
 C344 C 0.61813 0.09636 0.18535
 C345 C 0.60066 0.07992 0.15471
 H346 H 0.67925 0.13822 0.17634
 H347 H 0.67438 0.17860 0.23855
 H348 H 0.69095 0.12031 0.28026
 H349 H 0.63485 0.08328 0.29511
 H350 H 0.61814 0.14139 0.25317
 H351 H 0.62975 0.12338 0.35664
 C352 C 0.49730 0.12693 -0.27504
 C353 C 0.47314 0.11889 -0.31567
 C354 C 0.47540 0.14658 -0.30494
 C355 C 0.49959 0.15488 -0.26482
 C356 C 0.47736 0.11523 -0.22471
 C357 C 0.47965 0.14291 -0.21363
 C358 C 0.45322 0.10700 -0.26491
 C359 C 0.45543 0.13491 -0.25467
 C360 C 0.47390 0.16242 -0.35267
 C361 C 0.47209 0.17364 -0.39469
 C362 C 0.47846 0.09654 -0.18321
 C363 C 0.47955 0.08013 -0.15251
 H364 H 0.51453 0.12346 -0.28307
 H365 H 0.47047 0.10914 -0.35808
 H366 H 0.51865 0.17475 -0.26529
 H367 H 0.48232 0.15256 -0.17113
 H368 H 0.43415 0.08714 -0.26458
 H369 H 0.43820 0.13841 -0.24679
 C370 C 0.65030 0.55209 -0.27800
 C371 C 0.68012 0.55957 -0.26812
 C372 C 0.67578 0.53640 -0.30831
 C373 C 0.64626 0.52900 -0.31873
 C374 C 0.64159 0.53212 -0.22769
 C375 C 0.63734 0.50902 -0.26799
 C376 C 0.67109 0.53953 -0.21693
 C377 C 0.66710 0.51641 -0.25805
 C378 C 0.69308 0.53781 -0.35613
 C379 C 0.70538 0.53782 -0.39812
 C380 C 0.62111 0.52910 -0.18577
 C381 C 0.60300 0.52612 -0.15446
 H382 H 0.64317 0.56673 -0.28585
 H383 H 0.69792 0.58037 -0.26869
 H384 H 0.63617 0.52469 -0.36104
 H385 H 0.61956 0.48820 -0.26759
 H386 H 0.68107 0.54382 -0.17452
 H387 H 0.67423 0.50177 -0.25032
 C388 C 0.89319 0.34406 -0.26141
 C389 C 0.86440 0.31952 -0.25194
 C390 C 0.85443 0.32855 -0.30390
 C391 C 0.88298 0.35279 -0.31388
 C392 C 0.88582 0.36138 -0.22324
 C393 C 0.87580 0.37031 -0.27528
 C394 C 0.85728 0.33718 -0.21292
 C395 C 0.84701 0.34585 -0.26581
 C396 C 0.83854 0.31151 -0.35188
 C397 C 0.82723 0.29874 -0.39408
 C398 C 0.90454 0.38104 -0.18167
 C399 C 0.92100 0.39858 -0.15117
 H400 H 0.91235 0.34349 -0.25922
 H401 H 0.85949 0.29842 -0.24286
 H402 H 0.89342 0.35910 -0.35584
 H403 H 0.88068 0.39139 -0.28454
 H404 H 0.84694 0.33097 -0.17086
 H405 H 0.82784 0.34641 -0.26813
 C406 C 0.50889 -0.12028 -0.28146
 C407 C 0.53492 -0.11643 -0.31056
 C408 C 0.52436 -0.14694 -0.30379
 C409 C 0.49830 -0.15102 -0.27520
 C410 C 0.52292 -0.11547 -0.22317
 C411 C 0.51231 -0.14598 -0.21610
 C412 C 0.54896 -0.11141 -0.25181
 C413 C 0.53843 -0.14220 -0.24558
 C414 C 0.52556 -0.16288 -0.35162
 C415 C 0.52711 -0.17430 -0.39357
 C416 C 0.52205 -0.09669 -0.18160
 C417 C 0.52110 -0.08017 -0.15100
 H418 H 0.49674 -0.11107 -0.29588
 H419 H 0.54420 -0.10440 -0.34988
 H420 H 0.47748 -0.16747 -0.28533
 H421 H 0.50303 -0.15790 -0.17668
 H422 H 0.56978 -0.09494 -0.24176
 H423 H 0.55057 -0.15145 -0.23137
 C424 C 0.34896 0.45502 -0.27236
 C425 C 0.32233 0.45537 -0.26146
 C426 C 0.33017 0.47649 -0.30927
 C427 C 0.35653 0.47609 -0.32067
 C428 C 0.36346 0.47832 -0.22943
 C429 C 0.37125 0.49941 -0.27729
 C430 C 0.33714 0.47874 -0.21770
 C431 C 0.34465 0.49984 -0.26642
 C432 C 0.31271 0.47504 -0.35655
 C433 C 0.29941 0.47324 -0.39800
 C434 C 0.38314 0.47927 -0.18799
 C435 C 0.40047 0.48017 -0.15717
 H436 H 0.35091 0.43660 -0.27441
 H437 H 0.30199 0.43726 -0.25546
 H438 H 0.36437 0.47501 -0.36346
 H439 H 0.39158 0.51752 -0.28341
 H440 H 0.32940 0.47982 -0.17481
 H441 H 0.34267 0.51824 -0.26452
 C442 C 1.12935 0.63007 -0.27616
 C443 C 1.12032 0.64399 -0.32059
 C444 C 1.14660 0.67087 -0.30973
 C445 C 1.15591 0.65720 -0.26584
 C446 C 1.11546 0.63764 -0.22915
 C447 C 1.14173 0.66449 -0.21796
 C448 C 1.10623 0.65135 -0.27314
 C449 C 1.13273 0.67850 -0.26278
 C450 C 1.16238 0.68823 -0.35750
 C451 C 1.17364 0.70138 -0.39938
 C452 C 1.09688 0.61794 -0.18740
 C453 C 1.08053 0.60053 -0.15644
 H454 H 1.12777 0.60995 -0.28127
 H455 H 1.11165 0.63569 -0.36324
 H456 H 1.17653 0.65981 -0.26338
 H457 H 1.15030 0.67269 -0.17521
 H458 H 1.08563 0.64877 -0.27575
 H459 H 1.13433 0.69863 -0.25780
 C460 C 0.87233 0.50047 -0.27688
 C461 C 0.84512 0.49970 -0.26622
 C462 C 0.85387 0.52314 -0.30882
 C463 C 0.88080 0.52389 -0.32002
 C464 C 0.88530 0.52144 -0.22877
 C465 C 0.89396 0.54483 -0.27145
 C466 C 0.85838 0.52069 -0.21724
 C467 C 0.86681 0.54415 -0.26076
 C468 C 0.83792 0.52456 -0.35619
 C469 C 0.82644 0.52634 -0.39767
 C470 C 0.90404 0.52058 -0.18732
 C471 C 0.92053 0.51977 -0.15658
 H472 H 0.87481 0.48250 -0.28310
 H473 H 0.82485 0.48117 -0.26463
 H474 H 0.88988 0.52519 -0.36273
 H475 H 0.91423 0.56339 -0.27319
 H476 H 0.84941 0.51938 -0.17443
 H477 H 0.86432 0.56211 -0.25467
 C478 C 0.45330 0.35536 -0.28833
 C479 C 0.47701 0.35635 -0.32241
 C480 C 0.46465 0.32570 -0.31303
 C481 C 0.44086 0.32444 -0.27950
 C482 C 0.46971 0.36043 -0.23317
 C483 C 0.45732 0.32980 -0.22348
 C484 C 0.49346 0.36164 -0.26678
 C485 C 0.48109 0.33072 -0.25793
 C486 C 0.46275 0.30797 -0.36024
 C487 C 0.46229 0.29516 -0.40161
 C488 C 0.47296 0.38099 -0.19142
 C489 C 0.47588 0.39896 -0.15987
 H490 H 0.44192 0.36572 -0.30045
 H491 H 0.48508 0.36711 -0.36357
 H492 H 0.41922 0.30893 -0.28524
 H493 H 0.44929 0.31914 -0.18223
 H494 H 0.51512 0.37715 -0.26115
 H495 H 0.49246 0.32034 -0.24596
 C496 C 0.63603 0.12583 -0.27244
 C497 C 0.66504 0.14963 -0.26178
 C498 C 0.67558 0.13839 -0.30875
 C499 C 0.64681 0.11482 -0.31991
 C500 C 0.64103 0.10877 -0.22855
 C501 C 0.65158 0.09756 -0.27555
 C502 C 0.66978 0.13231 -0.21707
 C503 C 0.68067 0.12136 -0.26495
 C504 C 0.69317 0.15422 -0.35613
 C505 C 0.70585 0.16663 -0.39757
 C506 C 0.62046 0.09152 -0.18675
 C507 C 0.60237 0.07652 -0.15536
 H508 H 0.61748 0.12750 -0.27514
 H509 H 0.67081 0.17123 -0.25664
 H510 H 0.63752 0.10776 -0.36266
 H511 H 0.64582 0.07596 -0.28079
 H512 H 0.67896 0.13929 -0.17423
 H513 H 0.69925 0.11972 -0.26243
 C514 C 1.13235 0.46147 -0.21806
 C515 C 1.12121 0.44065 -0.26783
 C516 C 1.13910 0.46342 -0.30975
 C517 C 1.15053 0.48418 -0.26092
 C518 C 1.10958 0.46794 -0.22863
 C519 C 1.12749 0.49064 -0.27066
 C520 C 1.09819 0.44720 -0.27751
 C521 C 1.11630 0.46989 -0.31999
 C522 C 1.15480 0.46190 -0.35779
 C523 C 1.16698 0.46183 -0.39987
 C524 C 1.09233 0.47111 -0.18647
 C525 C 1.07732 0.47418 -0.15500
 H526 H 1.13875 0.45805 -0.17559
 H527 H 1.11882 0.42008 -0.26720
 H528 H 1.17225 0.49935 -0.25460
 H529 H 1.12992 0.51123 -0.27146
 H530 H 1.07648 0.43203 -0.28394
 H531 H 1.10982 0.47332 -0.36236
 C532 C 0.52974 0.66609 -0.22016
 C533 C 0.55535 0.68310 -0.25750
 C534 C 0.53724 0.67516 -0.31073
 C535 C 0.51172 0.65852 -0.27425
 C536 C 0.53278 0.64106 -0.22991
 C537 C 0.51474 0.63325 -0.28322
 C538 C 0.55830 0.65769 -0.26638
 C539 C 0.54025 0.65009 -0.32020
 C540 C 0.53872 0.69246 -0.35849
 C541 C 0.53875 0.70482 -0.40027
 C542 C 0.52963 0.62064 -0.18783
 C543 C 0.52657 0.60260 -0.15632
 H544 H 0.52537 0.67243 -0.17850
 H545 H 0.57207 0.70381 -0.24750
 H546 H 0.49258 0.65905 -0.27797
 H547 H 0.49800 0.61257 -0.29345
 H548 H 0.57743 0.65713 -0.26269
 H549 H 0.54460 0.64367 -0.36179
 C550 C 0.33243 -0.13344 -0.21863
 C551 C 0.31991 -0.12294 -0.26379
 C552 C 0.32580 -0.13836 -0.31027
 C553 C 0.33797 -0.14915 -0.26601
 C554 C 0.36039 -0.10861 -0.23043
 C555 C 0.36618 -0.12406 -0.27700
 C556 C 0.34821 -0.09785 -0.27472
 C557 C 0.35378 -0.11351 -0.32177
 C558 C 0.30815 -0.15421 -0.35752
 C559 C 0.29545 -0.16652 -0.39896
 C560 C 0.38091 -0.09128 -0.18871
 C561 C 0.39889 -0.07624 -0.15722
 H562 H 0.32390 -0.14144 -0.17568
 H563 H 0.30067 -0.12268 -0.25889
 H564 H 0.33354 -0.17043 -0.26291
 H565 H 0.38539 -0.12436 -0.28207
 H566 H 0.35264 -0.07657 -0.27790
 H567 H 0.36241 -0.10544 -0.36463
 C568 C 0.53527 -0.13342 0.21955
 C569 C 0.55758 -0.12286 0.26626
 C570 C 0.53574 -0.13926 0.31116
 C571 C 0.51350 -0.15011 0.26535
 C572 C 0.53103 -0.10927 0.23158
 C573 C 0.50927 -0.12569 0.27657
 C574 C 0.55326 -0.09845 0.27743
 C575 C 0.53151 -0.11508 0.32289
 C576 C 0.53747 -0.15525 0.35826
 C577 C 0.53780 -0.16769 0.39958
 C578 C 0.52791 -0.09180 0.19001
 C579 C 0.52502 -0.07667 0.15866
 H580 H 0.53677 -0.14076 0.17652
 H581 H 0.57746 -0.12189 0.26254
 H582 H 0.49719 -0.17155 0.26087
 H583 H 0.48937 -0.12670 0.28045
 H584 H 0.56957 -0.07701 0.28200
 H585 H 0.52999 -0.10766 0.36583
 C586 C 0.34727 0.44582 0.27336
 C587 C 0.35212 0.46818 0.31696
 C588 C 0.32324 0.46272 0.30605
 C589 C 0.31809 0.44028 0.26301
 C590 C 0.35755 0.46719 0.22560
 C591 C 0.32869 0.46173 0.21436
 C592 C 0.36260 0.48956 0.26874
 C593 C 0.33349 0.48411 0.25832
 C594 C 0.30586 0.46123 0.35372
 C595 C 0.29346 0.46116 0.39552
 C596 C 0.37807 0.47031 0.18379
 C597 C 0.39622 0.47334 0.15259
 H598 H 0.35316 0.43011 0.27915
 H599 H 0.36161 0.47081 0.35959
 H600 H 0.29957 0.42000 0.26119
 H601 H 0.31931 0.45912 0.17162
 H602 H 0.38110 0.50987 0.27074
 H603 H 0.32760 0.49983 0.25264
 C604 C 1.12666 0.63761 0.26879
 C605 C 1.14961 0.66713 0.25857
 C606 C 1.13824 0.67647 0.30759
 C607 C 1.11553 0.64719 0.31831
 C608 C 1.10860 0.64225 0.22708
 C609 C 1.09727 0.65161 0.27614
 C610 C 1.13127 0.67151 0.21604
 C611 C 1.12019 0.68120 0.26598
 C612 C 1.15406 0.69383 0.35521
 C613 C 1.16641 0.70625 0.39688
 C614 C 1.09133 0.62178 0.18517
 C615 C 1.07635 0.60369 0.15381
 H616 H 1.12916 0.61949 0.26958
 H617 H 1.17132 0.67374 0.25184
 H618 H 1.10917 0.63733 0.36081
 H619 H 1.07556 0.64501 0.28297
 H620 H 1.13755 0.68126 0.17343
 H621 H 1.11773 0.69934 0.26536
 C622 C 0.44972 0.12115 0.22709
 C623 C 0.43900 0.11110 0.28841
 C624 C 0.46255 0.13744 0.31247
 C625 C 0.47326 0.14782 0.25204
 C626 C 0.46762 0.10811 0.23180
 C627 C 0.49114 0.13445 0.25592
 C628 C 0.45692 0.09783 0.29229
 C629 C 0.48040 0.12434 0.31690
 C630 C 0.46076 0.15316 0.36004
 C631 C 0.46051 0.16553 0.40154
 C632 C 0.47101 0.09101 0.18973
 C633 C 0.47418 0.07613 0.15811
 H634 H 0.43717 0.11964 0.18957
 H635 H 0.41754 0.10169 0.30229
 H636 H 0.47991 0.16857 0.23605
 H637 H 0.51261 0.14387 0.24214
 H638 H 0.45027 0.07710 0.30847
 H639 H 0.49298 0.12577 0.35432
 C640 C 0.65002 0.50452 0.22751
 C641 C 0.67657 0.53030 0.24597
 C642 C 0.66836 0.52282 0.30878
 C643 C 0.64219 0.49712 0.29114
 C644 C 0.63545 0.52107 0.22817
 C645 C 0.62737 0.51362 0.29104
 C646 C 0.66162 0.54679 0.24581
 C647 C 0.65373 0.53932 0.30921
 C648 C 0.68563 0.52427 0.35638
 C649 C 0.69882 0.52607 0.39798
 C650 C 0.61592 0.52015 0.18645
 C651 C 0.59866 0.51927 0.15549
 H652 H 0.64827 0.49022 0.19333
 H653 H 0.69703 0.53714 0.22803
 H654 H 0.63438 0.47671 0.31027
 H655 H 0.60695 0.50678 0.30923
 H656 H 0.66940 0.56719 0.22671
 H657 H 0.65540 0.55363 0.34331
 C658 C 0.90248 0.36006 0.29223
 C659 C 0.87661 0.35778 0.31883
 C660 C 0.86253 0.32680 0.31291
 C661 C 0.88823 0.32882 0.28685
 C662 C 0.89195 0.36146 0.23270
 C663 C 0.87793 0.33050 0.22649
 C664 C 0.86626 0.35942 0.25881
 C665 C 0.85191 0.32814 0.25343
 C666 C 0.84680 0.30909 0.36023
 C667 C 0.83451 0.29626 0.40163
 C668 C 0.90912 0.38200 0.19075
 C669 C 0.92406 0.39995 0.15901
 H670 H 0.92345 0.37341 0.30781
 H671 H 0.87593 0.36885 0.35729
 H672 H 0.89707 0.31603 0.29888
 H673 H 0.87868 0.31953 0.18794
 H674 H 0.85740 0.37222 0.24686
 H675 H 0.83092 0.31476 0.23803
   
