data_POSCAR
  _audit_creation_date              2014-09-24
  _audit_creation_method            'ToBaCCo'
  _symmetry_space_group_name_H-M    'P1'
  _symmetry_Int_Tables_number       1
  _symmetry_cell_setting            triclinic
  loop_
  _symmetry_equiv_pos_as_xyz
 x,y,z
_cell_length_a 30.9731
_cell_length_b 30.9638
_cell_length_c 30.9640
_cell_angle_alpha 74.965300
_cell_angle_beta 105.417500
_cell_angle_gamma 74.601300
loop_
  _atom_site_label
  _atom_site_type_symbol
  _atom_site_fract_x
  _atom_site_fract_y
  _atom_site_fract_z
O1 O 0.56145 0.49115 0.03011
 O2 O 0.43907 0.50597 0.02904
 O3 O 0.50950 0.43693 0.03100
 O4 O 0.49133 0.55950 0.02970
 O5 O 0.46372 0.58713 -0.04933
 O6 O 0.48134 0.46415 -0.04803
 O7 O 0.41119 0.53357 -0.04992
 O8 O 0.53349 0.51828 -0.04891
 Cu9 Cu 0.50316 0.49564 0.03785
 Cu10 Cu 0.46969 0.52849 -0.05696
 C11 C 0.56833 0.50270 -0.00931
 C12 C 0.40411 0.52191 -0.01061
 C13 C 0.49792 0.42955 -0.00823
 C14 C 0.47490 0.59425 -0.00989
 O15 O -0.03937 0.57322 0.47578
 O16 O -0.03868 0.45104 0.49005
 O17 O -0.03905 0.50329 0.54404
 O18 O -0.03992 0.52090 0.42174
 O19 O 0.03924 0.49257 0.44968
 O20 O 0.04009 0.47554 0.57221
 O21 O 0.04047 0.42306 0.51836
 O22 O 0.03970 0.54506 0.50348
 Cu23 Cu -0.04718 0.51497 0.48016
 Cu24 Cu 0.04780 0.48132 0.51378
 C25 C 0.00015 0.58011 0.48748
 C26 C 0.00104 0.41621 0.50608
 C27 C 0.00055 0.48677 0.57904
 C28 C -0.00051 0.50904 0.41482
 O29 O 0.50657 0.03007 0.56036
 O30 O 0.49112 0.03109 0.43816
 O31 O 0.43769 0.03033 0.49087
 O32 O 0.56034 0.02932 0.50833
 O33 O 0.58826 -0.04971 0.53609
 O34 O 0.46570 -0.04869 0.51819
 O35 O 0.51929 -0.04793 0.46554
 O36 O 0.53423 -0.04888 0.58814
 Cu37 Cu 0.49612 0.03810 0.49666
 Cu38 Cu 0.52962 -0.05672 0.52971
 C39 C 0.52255 -0.00942 0.59523
 C40 C 0.50315 -0.00818 0.43093
 C41 C 0.43078 -0.00910 0.50209
 C42 C 0.59525 -0.01036 0.52479
 C43 C 0.49681 -0.01294 0.02123
 C44 C 0.50379 0.02019 -0.01218
 C45 C 0.50917 0.01271 -0.05629
 C46 C 0.50544 0.06623 -0.00718
 C47 C 0.49583 -0.00791 0.06748
 C48 C 0.49041 -0.05664 0.01368
 C49 C 0.54496 -0.02790 -0.05375
 C50 C 0.54998 -0.03378 -0.09570
 C51 C 0.51955 0.00104 -0.14046
 C52 C 0.48413 0.04167 -0.14312
 C53 C 0.47905 0.04756 -0.10131
 C54 C 0.54400 0.08027 -0.01196
 C55 C 0.54473 0.12471 -0.01022
 C56 C 0.50680 0.15574 -0.00399
 C57 C 0.46829 0.14196 0.00096
 C58 C 0.46749 0.09748 -0.00079
 C59 C 0.45742 -0.01236 0.08196
 C60 C 0.45724 -0.01058 0.12654
 C61 C 0.49559 -0.00464 0.15733
 C62 C 0.53397 -0.00000 0.14311
 C63 C 0.53420 -0.00179 0.09847
 C64 C 0.45381 -0.05345 -0.02665
 C65 C 0.44792 -0.09503 -0.03271
 C66 C 0.47826 -0.14004 0.00167
 C67 C 0.51444 -0.14333 0.04207
 C68 C 0.52039 -0.10189 0.04813
 H69 H 0.56913 -0.05475 -0.01934
 H70 H 0.57767 -0.06525 -0.09322
 H71 H 0.46047 0.06889 -0.17754
 H72 H 0.45144 0.07923 -0.10403
 H73 H 0.57340 0.05686 -0.01729
 H74 H 0.57461 0.13509 -0.01427
 H75 H 0.43693 0.08781 0.00192
 H76 H 0.42768 -0.01745 0.05877
 H77 H 0.42745 -0.01437 0.13722
 H78 H 0.56397 0.00432 0.16678
 H79 H 0.56465 0.00068 0.08848
 H80 H 0.42975 -0.01883 -0.05317
 H81 H 0.41966 -0.09208 -0.06399
 H82 H 0.53802 -0.17797 0.06893
 H83 H 0.54859 -0.10508 0.07958
 H84 H 0.43860 0.16585 0.00549
 C85 C -0.02615 0.50027 0.97568
 C86 C 0.00789 0.50640 1.00927
 C87 C 0.05258 0.51057 1.00263
 C88 C 0.00278 0.50876 1.05501
 C89 C -0.07222 0.49925 0.98100
 C90 C -0.01949 0.49477 0.93139
 C91 C 0.09721 0.47970 1.03791
 C92 C 0.13963 0.48416 1.03342
 C93 C 0.13799 0.51972 0.99378
 C94 C 0.09364 0.55075 0.95841
 C95 C 0.05105 0.54634 0.96288
 C96 C -0.00367 0.47124 1.08641
 C97 C -0.00607 0.47306 1.13040
 C98 C -0.00171 0.51217 1.14349
 C99 C 0.00469 0.54962 1.11235
 C100 C 0.00707 0.54786 1.06841
 C101 C -0.10292 0.53746 0.98759
 C102 C -0.14686 0.53656 0.99094
 C103 C -0.16069 0.49768 0.98737
 C104 C -0.13034 0.45964 0.98062
 C105 C -0.08643 0.46049 0.97730
 C106 C -0.05433 0.52559 0.88658
 C107 C -0.04907 0.52072 0.84451
 C108 C -0.00911 0.48480 0.84673
 C109 C 0.02561 0.45357 0.89129
 C110 C 0.02036 0.45838 0.93350
 H111 H 0.09914 0.45212 1.06895
 H112 H 0.17372 0.46003 1.06104
 H113 H 0.09196 0.57854 0.92769
 H114 H 0.01696 0.57109 0.93574
 H115 H -0.00608 0.44032 1.07716
 H116 H -0.01071 0.44374 1.15442
 H117 H 0.01241 0.57694 1.04483
 H118 H -0.09310 0.56815 0.98955
 H119 H -0.17024 0.56636 0.99580
 H120 H -0.14077 0.42950 0.97757
 H121 H -0.06345 0.43087 0.97187
 H122 H -0.08542 0.55365 0.88422
 H123 H -0.07620 0.54499 0.81022
 H124 H 0.05656 0.42550 0.89339
 H125 H 0.04715 0.43368 0.96776
 H126 H 0.00831 0.57993 1.12223
 C127 C 0.02581 -0.02424 0.49992
 C128 C -0.00795 0.00975 0.50590
 C129 C -0.05231 0.00318 0.51107
 C130 C -0.00273 0.05574 0.50737
 C131 C 0.07175 -0.01909 0.49835
 C132 C 0.01907 -0.06884 0.49534
 C133 C -0.09713 0.03816 0.48032
 C134 C -0.13924 0.03369 0.48567
 C135 C -0.13705 -0.00562 0.52201
 C136 C -0.09250 -0.04066 0.55295
 C137 C -0.05023 -0.03621 0.54764
 C138 C 0.00350 0.08667 0.46933
 C139 C 0.00595 0.13089 0.47034
 C140 C 0.00186 0.14470 0.50916
 C141 C -0.00431 0.11400 0.54712
 C142 C -0.00673 0.06985 0.54618
 C143 C 0.10266 -0.01217 0.53615
 C144 C 0.14643 -0.00881 0.53471
 C145 C 0.15987 -0.01271 0.49572
 C146 C 0.12933 -0.01985 0.45811
 C147 C 0.08558 -0.02318 0.45948
 C148 C 0.05422 -0.11347 0.52621
 C149 C 0.04906 -0.15580 0.52201
 C150 C 0.00885 -0.15406 0.48672
 C151 C -0.02625 -0.10969 0.45551
 C152 C -0.02109 -0.06722 0.45965
 H153 H -0.09945 0.06892 0.45213
 H154 H -0.17352 0.06104 0.46161
 H155 H -0.09043 -0.07112 0.58132
 H156 H -0.01595 -0.06308 0.57230
 H157 H 0.00569 0.07689 0.43863
 H158 H 0.01042 0.15453 0.44062
 H159 H -0.01189 0.04666 0.57567
 H160 H 0.09311 -0.00992 0.56691
 H161 H 0.16998 -0.00365 0.56418
 H162 H 0.13950 -0.02317 0.42790
 H163 H 0.06241 -0.02888 0.43019
 H164 H 0.08556 -0.11549 0.55375
 H165 H 0.07649 -0.18991 0.54626
 H166 H -0.05739 -0.10793 0.42791
 H167 H -0.04815 -0.03314 0.43490
 H168 H -0.00770 0.12440 0.57724
 C169 C -0.29150 0.49689 0.99062
 C170 C -0.32967 0.51151 0.94732
 C171 C -0.37508 0.51263 0.94736
 C172 C -0.38296 0.49912 0.99080
 C173 C -0.34420 0.48388 1.03419
 C174 C -0.29879 0.48281 1.03405
 C175 C -0.24512 0.49694 0.99027
 C176 C -0.20652 0.49726 0.98931
 H177 H -0.32443 0.52244 0.91349
 H178 H -0.40411 0.52458 0.91333
 H179 H -0.34907 0.47333 1.06824
 H180 H -0.26948 0.47139 1.06779
 C181 C 0.26590 0.52822 0.98858
 C182 C 0.30398 0.51307 1.03203
 C183 C 0.34950 0.51184 1.03236
 C184 C 0.35775 0.52568 0.98905
 C185 C 0.31876 0.54185 0.94546
 C186 C 0.27327 0.54298 0.94532
 C187 C 0.21987 0.52681 0.98875
 C188 C 0.18207 0.52429 0.99020
 H189 H 0.29866 0.50152 1.06575
 H190 H 0.37832 0.49930 1.06666
 H191 H 0.32343 0.55291 0.91135
 H192 H 0.24402 0.55474 0.91147
 C193 C 0.00104 -0.28187 0.48004
 C194 C -0.04261 -0.28884 0.46563
 C195 C -0.04308 -0.33431 0.46726
 C196 C 0.00027 -0.37363 0.48355
 C197 C 0.04394 -0.36579 0.49716
 C198 C 0.04421 -0.32034 0.49544
 C199 C 0.00198 -0.23582 0.48076
 C200 C 0.00426 -0.19807 0.48274
 H201 H -0.07626 -0.25929 0.45371
 H202 H -0.07744 -0.33867 0.45639
 H203 H 0.07808 -0.39486 0.50980
 H204 H 0.07822 -0.31534 0.50673
 C205 C 0.00234 0.27605 0.51062
 C206 C -0.04132 0.31404 0.49498
 C207 C -0.04182 0.35949 0.49433
 C208 C 0.00145 0.36753 0.50932
 C209 C 0.04518 0.32893 0.52559
 C210 C 0.04557 0.28351 0.52620
 C211 C 0.00272 0.22960 0.51015
 C212 C 0.00264 0.19083 0.50963
 H213 H -0.07500 0.30862 0.48290
 H214 H -0.07607 0.38843 0.48153
 H215 H 0.07912 0.33391 0.53729
 H216 H 0.07957 0.25434 0.53843
 C217 C 0.52877 -0.00815 -0.26708
 C218 C 0.51387 0.03487 -0.30533
 C219 C 0.51266 0.03443 -0.35062
 C220 C 0.52630 -0.00924 -0.35853
 C221 C 0.54222 -0.05244 -0.31940
 C222 C 0.54331 -0.05181 -0.27407
 C223 C 0.52725 -0.00693 -0.22133
 C224 C 0.52450 -0.00422 -0.18394
 H225 H 0.50249 0.06888 -0.30032
 H226 H 0.50032 0.06848 -0.37954
 H227 H 0.55310 -0.08679 -0.32383
 H228 H 0.55487 -0.08534 -0.24468
 C229 C 0.49662 -0.00589 0.28991
 C230 C 0.51285 -0.04966 0.32765
 C231 C 0.51423 -0.05052 0.37341
 C232 C 0.49939 -0.00750 0.38201
 C233 C 0.48257 0.03633 0.34366
 C234 C 0.48123 0.03707 0.29796
 C235 C 0.49622 -0.00505 0.24308
 C236 C 0.49599 -0.00460 0.20394
 H237 H 0.52480 -0.08315 0.32181
 H238 H 0.52744 -0.08483 0.40212
 H239 H 0.47095 0.07009 0.34904
 H240 H 0.46855 0.07117 0.26901
 C241 C 0.46732 -0.26574 -0.00838
 C242 C 0.45484 -0.27307 -0.05208
 C243 C 0.45610 -0.31838 -0.05282
 C244 C 0.47006 -0.35692 -0.00977
 C245 C 0.48155 -0.34883 0.03384
 C246 C 0.48019 -0.30357 0.03447
 C247 C 0.46928 -0.22024 -0.00686
 C248 C 0.47255 -0.18312 -0.00388
 H249 H 0.44496 -0.24403 -0.08545
 H250 H 0.44712 -0.32347 -0.08695
 H251 H 0.49240 -0.37766 0.06760
 H252 H 0.49003 -0.29830 0.06849
 C253 C 0.50637 0.28813 -0.00556
 C254 C 0.52163 0.29630 0.03734
 C255 C 0.51979 0.34213 0.03648
 C256 C 0.50259 0.38046 -0.00742
 C257 C 0.48801 0.37171 -0.05039
 C258 C 0.48989 0.32582 -0.04941
 C259 C 0.50680 0.24130 -0.00460
 C260 C 0.50686 0.20221 -0.00405
 H261 H 0.53447 0.26737 0.07148
 H262 H 0.53122 0.34765 0.07019
 H263 H 0.47452 0.40042 -0.08475
 H264 H 0.47802 0.31986 -0.08285
 C265 C -0.26421 -0.01108 0.53226
 C266 C -0.30214 0.03235 0.51778
 C267 C -0.34764 0.03258 0.51645
 C268 C -0.35581 -0.01072 0.52955
 C269 C -0.31717 -0.05427 0.54508
 C270 C -0.27167 -0.05439 0.54634
 C271 C -0.21838 -0.01080 0.53042
 C272 C -0.18080 -0.00927 0.52737
 H273 H -0.29675 0.06609 0.50670
 H274 H -0.37659 0.06669 0.50433
 H275 H -0.32228 -0.08821 0.55535
 H276 H -0.24255 -0.08820 0.55748
 C277 C 0.29034 -0.00927 0.49430
 C278 C 0.29762 0.03419 0.48050
 C279 C 0.34313 0.03437 0.48208
 C280 C 0.38195 -0.00901 0.49758
 C281 C 0.37404 -0.05248 0.51068
 C282 C 0.32853 -0.05255 0.50904
 C283 C 0.24400 -0.00969 0.49431
 C284 C 0.20551 -0.01070 0.49482
 H285 H 0.26827 0.06789 0.46902
 H286 H 0.34803 0.06842 0.47184
 H287 H 0.40313 -0.08648 0.52281
 H288 H 0.32327 -0.08639 0.51979
 C289 C -0.00200 0.51505 1.27439
 C290 C 0.04171 0.49930 1.31236
 C291 C 0.04227 0.49833 1.35789
 C292 C -0.00098 0.51311 1.36600
 C293 C -0.04474 0.52968 1.32737
 C294 C -0.04520 0.53060 1.28188
 C295 C -0.00245 0.51434 1.22804
 C296 C -0.00242 0.51339 1.18940
 H297 H 0.07536 0.48722 1.30690
 H298 H 0.07654 0.48532 1.38685
 H299 H -0.07866 0.54124 1.33242
 H300 H -0.07922 0.54290 1.25270
 C301 C -0.00060 0.47734 0.71949
 C302 C -0.04368 0.49154 0.68119
 C303 C -0.04323 0.49368 0.63571
 C304 C 0.00043 0.48165 0.62788
 C305 C 0.04367 0.46652 0.66683
 C306 C 0.04311 0.46446 0.71235
 C307 C -0.00178 0.47814 0.76540
 C308 C -0.00428 0.48036 0.80300
 H309 H -0.07772 0.50170 0.68632
 H310 H -0.07713 0.50544 0.60656
 H311 H 0.07786 0.45708 0.66197
 H312 H 0.07666 0.45355 0.74174
   
