data_POSCAR
  _audit_creation_date              2014-09-24
  _audit_creation_method            'ToBaCCo'
  _symmetry_space_group_name_H-M    'P1'
  _symmetry_Int_Tables_number       1
  _symmetry_cell_setting            triclinic
  loop_
  _symmetry_equiv_pos_as_xyz
 x,y,z
_cell_length_a 51.0479
_cell_length_b 49.4456
_cell_length_c 52.3027
_cell_angle_alpha 91.230600
_cell_angle_beta 90.918900
_cell_angle_gamma 91.803800
loop_
  _atom_site_label
  _atom_site_type_symbol
  _atom_site_fract_x
  _atom_site_fract_y
  _atom_site_fract_z
C1 C 0.61150 0.64674 0.61304
 C2 C 0.63448 0.63631 0.60290
 C3 C 0.64608 0.61474 0.61444
 C4 C 0.63504 0.60337 0.63624
 C5 C 0.61232 0.61337 0.64608
 C6 C 0.60041 0.63523 0.63438
 C7 C 0.59586 0.66753 0.60586
 N8 N 0.57550 0.66880 0.62222
 C9 C 0.57811 0.64907 0.63969
 C10 C 0.60610 0.59823 0.66705
 N11 N 0.62467 0.57926 0.67044
 C12 C 0.64236 0.58246 0.65135
 C13 C 0.66749 0.60823 0.60024
 N14 N 0.66918 0.62523 0.58022
 C15 C 0.64910 0.64261 0.58180
 H16 H 0.59887 0.68055 0.58972
 H17 H 0.56491 0.64529 0.65530
 H18 H 0.58951 0.60161 0.67916
 H19 H 0.65928 0.57036 0.64804
 H20 H 0.68076 0.59213 0.60417
 H21 H 0.64489 0.65809 0.56814
 C22 C 0.88889 0.35233 0.11019
 C23 C 0.86679 0.36406 0.09930
 C24 C 0.85498 0.38514 0.11194
 C25 C 0.86496 0.39465 0.13570
 C26 C 0.88667 0.38303 0.14647
 C27 C 0.89866 0.36163 0.13362
 C28 C 0.90451 0.33180 0.10211
 N29 N 0.92368 0.32809 0.12010
 C30 C 0.91998 0.34646 0.13949
 C31 C 0.89199 0.39639 0.16944
 N32 N 0.87395 0.41575 0.17287
 C33 C 0.85736 0.41478 0.15225
 C34 C 0.83420 0.39270 0.09695
 N35 N 0.83302 0.37666 0.07551
 C36 C 0.85290 0.35904 0.07682
 H37 H 0.90144 0.32022 0.08450
 H38 H 0.93210 0.34940 0.15651
 H39 H 0.90761 0.39204 0.18282
 H40 H 0.84113 0.42799 0.14929
 H41 H 0.82074 0.40851 0.10152
 H42 H 0.85719 0.34392 0.06234
 C43 C 0.38428 0.14239 -0.10982
 C44 C 0.36180 0.13019 -0.09943
 C45 C 0.35114 0.10652 -0.11033
 C46 C 0.36274 0.09480 -0.13185
 C47 C 0.38509 0.10655 -0.14182
 C48 C 0.39597 0.13053 -0.13075
 C49 C 0.39854 0.16576 -0.10360
 N50 N 0.41866 0.16826 -0.12016
 C51 C 0.41728 0.14676 -0.13679
 C52 C 0.39180 0.09104 -0.16270
 N53 N 0.37386 0.07015 -0.16604
 C54 C 0.35606 0.07246 -0.14696
 C55 C 0.32969 0.09913 -0.09616
 N56 N 0.32711 0.11769 -0.07688
 C57 C 0.34664 0.13684 -0.07885
 H58 H 0.39462 0.17987 -0.08812
 H59 H 0.43048 0.14349 -0.15248
 H60 H 0.40805 0.09565 -0.17504
 H61 H 0.33946 0.05891 -0.14382
 H62 H 0.31690 0.08154 -0.09971
 H63 H 0.35004 0.15398 -0.06587
 C64 C 0.11712 0.85283 0.38048
 C65 C 0.14136 0.86360 0.38957
 C66 C 0.15248 0.88618 0.37834
 C67 C 0.13958 0.89826 0.35786
 C68 C 0.11555 0.88795 0.34928
 C69 C 0.10419 0.86513 0.36071
 C70 C 0.10150 0.83124 0.38777
 N71 N 0.07913 0.83021 0.37310
 C72 C 0.08078 0.85112 0.35655
 C73 C 0.10730 0.90406 0.32983
 N74 N 0.12584 0.92402 0.32605
 C75 C 0.14565 0.92042 0.34338
 C76 C 0.17515 0.89302 0.39183
 N77 N 0.17803 0.87530 0.41114
 C78 C 0.15747 0.85711 0.40973
 H79 H 0.10597 0.81793 0.40329
 H80 H 0.06646 0.85565 0.34192
 H81 H 0.08923 0.90072 0.31901
 H82 H 0.16312 0.93318 0.34600
 H83 H 0.18830 0.91002 0.38808
 H84 H 0.15378 0.84108 0.42310
 N85 N 0.09869 0.16883 0.11220
 N86 N 0.08853 0.15968 0.13339
 C87 C 0.06764 0.17437 0.13940
 C88 C 0.06444 0.19368 0.12091
 C89 C 0.08453 0.18952 0.10393
 H90 H 0.05536 0.17097 0.15574
 H91 H 0.08868 0.20079 0.08691
 Cu92 Cu 0.10328 0.12898 0.15054
 Cu93 Cu 0.12951 0.15329 0.09690
 Cu94 Cu 0.15670 0.09925 0.12793
 N95 N 0.11857 0.09863 0.16777
 N96 N 0.13970 0.08734 0.15903
 C97 C 0.14601 0.06681 0.17420
 C98 C 0.12775 0.06497 0.19343
 C99 C 0.11062 0.08553 0.18872
 H100 H 0.16227 0.05371 0.17104
 H101 H 0.09363 0.09053 0.19972
 N102 N 0.17098 0.11423 0.09621
 N103 N 0.16070 0.13485 0.08447
 C104 C 0.17462 0.14011 0.06339
 C105 C 0.19458 0.12188 0.06166
 C106 C 0.19162 0.10577 0.08282
 H107 H 0.17026 0.15576 0.05001
 H108 H 0.20368 0.08916 0.08813
 H109 H 0.12381 0.11479 0.11088
 H110 H 0.14515 0.13887 0.13045
 N111 N 0.40290 0.83154 0.61045
 N112 N 0.41800 0.84596 0.62652
 C113 C 0.43997 0.83247 0.63130
 C114 C 0.43843 0.80812 0.61768
 C115 C 0.41456 0.80819 0.60473
 H116 H 0.45553 0.83945 0.64432
 H117 H 0.40633 0.79257 0.59193
 Cu118 Cu 0.40678 0.88002 0.64118
 Cu119 Cu 0.36917 0.84403 0.59839
 Cu120 Cu 0.35584 0.91041 0.61446
 N121 N 0.38941 0.90935 0.65880
 N122 N 0.36916 0.92095 0.64840
 C123 C 0.36088 0.94041 0.66443
 C124 C 0.37684 0.94108 0.68610
 C125 C 0.39481 0.92111 0.68182
 H126 H 0.34466 0.95330 0.66040
 H127 H 0.41044 0.91534 0.69460
 N128 N 0.33713 0.89000 0.58688
 N129 N 0.34163 0.86449 0.58114
 C130 C 0.32586 0.85637 0.56136
 C131 C 0.31061 0.87784 0.55434
 C132 C 0.31836 0.89880 0.57109
 H133 H 0.32602 0.83648 0.55239
 H134 H 0.31107 0.91907 0.57180
 H135 H 0.38332 0.88297 0.60029
 H136 H 0.36132 0.87275 0.62684
 N137 N 0.90105 0.66567 0.39088
 N138 N 0.91347 0.65211 0.37315
 C139 C 0.93566 0.66599 0.36739
 C140 C 0.93700 0.68962 0.38207
 C141 C 0.91468 0.68878 0.39671
 H142 H 0.94947 0.65984 0.35310
 H143 H 0.90897 0.70374 0.41076
 Cu144 Cu 0.89843 0.61866 0.35811
 Cu145 Cu 0.86870 0.65189 0.40584
 Cu146 Cu 0.84241 0.59149 0.38034
 N147 N 0.88296 0.58523 0.34340
 N148 N 0.86092 0.57490 0.35214
 C149 C 0.85375 0.55276 0.33804
 C150 C 0.87223 0.54893 0.31930
 C151 C 0.89055 0.56996 0.32337
 H152 H 0.83615 0.54062 0.34105
 H153 H 0.90764 0.57433 0.31207
 N154 N 0.82650 0.61128 0.40890
 N155 N 0.83626 0.63443 0.41847
 C156 C 0.82133 0.64239 0.43810
 C157 C 0.80123 0.62328 0.44110
 C158 C 0.80517 0.60392 0.42216
 H159 H 0.82527 0.66034 0.44986
 H160 H 0.79349 0.58562 0.41842
 H161 H 0.87454 0.61160 0.39750
 H162 H 0.85538 0.63069 0.37356
 N163 N 0.59533 0.33684 -0.11520
 N164 N 0.58311 0.34955 -0.13348
 C165 C 0.56033 0.33615 -0.13926
 C166 C 0.55829 0.31374 -0.12391
 C167 C 0.58088 0.31481 -0.10891
 H168 H 0.54644 0.34192 -0.15382
 H169 H 0.58620 0.30087 -0.09420
 Cu170 Cu 0.59904 0.38165 -0.14842
 Cu171 Cu 0.62859 0.35028 -0.10013
 Cu172 Cu 0.65646 0.40804 -0.12647
 N173 N 0.61500 0.41354 -0.16377
 N174 N 0.63774 0.42344 -0.15518
 C175 C 0.64530 0.44439 -0.16959
 C176 C 0.62630 0.44789 -0.18831
 C177 C 0.60728 0.42797 -0.18398
 H178 H 0.66341 0.45605 -0.16674
 H179 H 0.58961 0.42376 -0.19522
 N180 N 0.67234 0.38950 -0.09737
 N181 N 0.66199 0.36731 -0.08755
 C182 C 0.67709 0.36001 -0.06766
 C183 C 0.69789 0.37855 -0.06472
 C184 C 0.69421 0.39691 -0.08395
 H185 H 0.67282 0.34297 -0.05565
 H186 H 0.70646 0.41451 -0.08778
 H187 H 0.62427 0.39027 -0.10905
 H188 H 0.64193 0.36887 -0.13253
 C189 C -0.01690 0.27165 0.11693
 C190 C -0.03219 0.27611 0.09503
 C191 C -0.05205 0.29482 0.09606
 C192 C -0.05691 0.30945 0.11888
 C193 C -0.04103 0.30405 0.14043
 N194 N -0.02198 0.28553 0.13891
 C195 C 0.00415 0.25175 0.11707
 N196 N 0.01051 0.23982 0.13945
 C197 C 0.02957 0.22131 0.14112
 C198 C 0.04377 0.21399 0.11940
 C199 C 0.03784 0.22639 0.09622
 C200 C 0.01806 0.24520 0.09495
 H201 H -0.06310 0.29793 0.07865
 H202 H -0.04391 0.31389 0.15873
 H203 H 0.03371 0.21260 0.15947
 H204 H 0.04825 0.22140 0.07898
 H205 H -0.02925 0.26498 0.07733
 H206 H 0.01410 0.25475 0.07694
 C207 C 0.51494 0.72522 0.61936
 C208 C 0.50916 0.69863 0.62687
 C209 C 0.52913 0.68003 0.62791
 C210 C 0.55475 0.68778 0.62124
 C211 C 0.55970 0.71453 0.61381
 N212 N 0.54001 0.73239 0.61329
 C213 C 0.49468 0.74590 0.61861
 N214 N 0.50182 0.77222 0.62381
 C215 C 0.48425 0.79231 0.62366
 C216 C 0.45776 0.78644 0.61764
 C217 C 0.45006 0.75952 0.61173
 C218 C 0.46840 0.73918 0.61231
 H219 H 0.52455 0.65955 0.63367
 H220 H 0.57929 0.72134 0.60889
 H221 H 0.49109 0.81286 0.62798
 H222 H 0.42983 0.75409 0.60700
 H223 H 0.48958 0.69237 0.63241
 H224 H 0.46213 0.71856 0.60751
 C225 C 1.01735 0.77319 0.37802
 C226 C 1.01315 0.79768 0.36590
 C227 C 1.03380 0.81664 0.36401
 C228 C 1.05869 0.81164 0.37469
 C229 C 1.06179 0.78674 0.38692
 N230 N 1.04149 0.76835 0.38791
 C231 C 0.99631 0.75220 0.37953
 N232 N 1.00212 0.72578 0.37562
 C233 C 0.98352 0.70552 0.37627
 C234 C 0.95743 0.71139 0.38160
 C235 C 0.95113 0.73843 0.38625
 C236 C 0.97046 0.75893 0.38498
 H237 H 1.02983 0.83544 0.35476
 H238 H 1.08048 0.78130 0.39494
 H239 H 0.98918 0.68486 0.37289
 H240 H 0.93120 0.74376 0.39039
 H241 H 0.99422 0.80193 0.35754
 H242 H 0.96535 0.77975 0.38853
 C243 C 0.47558 0.23225 -0.12163
 C244 C 0.44962 0.23791 -0.11544
 C245 C 0.43088 0.21678 -0.11469
 C246 C 0.43786 0.19015 -0.12039
 C247 C 0.46401 0.18534 -0.12641
 N248 N 0.48201 0.20618 -0.12666
 C249 C 0.49623 0.25379 -0.12231
 N250 N 0.52119 0.24796 -0.11531
 C251 C 0.54118 0.26676 -0.11551
 C252 C 0.53668 0.29313 -0.12357
 C253 C 0.51120 0.29945 -0.13131
 C254 C 0.49090 0.27991 -0.13056
 H255 H 0.41087 0.22125 -0.11002
 H256 H 0.47017 0.16500 -0.13057
 H257 H 0.56062 0.26095 -0.10974
 H258 H 0.50689 0.31955 -0.13765
 H259 H 0.44395 0.25832 -0.11080
 H260 H 0.47141 0.28507 -0.13682
 C261 C 0.12327 -0.01557 0.27124
 C262 C 0.10059 -0.03116 0.27615
 C263 C 0.10139 -0.05129 0.29439
 C264 C 0.12477 -0.05610 0.30810
 C265 C 0.14706 -0.03982 0.30241
 N266 N 0.14576 -0.02054 0.28433
 C267 C 0.12366 0.00553 0.25161
 N268 N 0.14647 0.01129 0.23943
 C269 C 0.14826 0.03015 0.22095
 C270 C 0.12623 0.04475 0.21389
 C271 C 0.10265 0.03952 0.22658
 C272 C 0.10126 0.01995 0.24537
 H273 H 0.08340 -0.06259 0.29781
 H274 H 0.16580 -0.04266 0.31164
 H275 H 0.16694 0.03378 0.21197
 H276 H 0.08514 0.05025 0.22179
 H277 H 0.08246 -0.02830 0.26570
 H278 H 0.08294 0.01648 0.25507
 C279 C 0.62774 0.52361 -0.27042
 C280 C 0.64932 0.52716 -0.28634
 C281 C 0.64826 0.54553 -0.30613
 C282 C 0.62570 0.56072 -0.31036
 C283 C 0.60434 0.55611 -0.29398
 N284 N 0.60588 0.53791 -0.27492
 C285 C 0.62803 0.50439 -0.24915
 N286 N 0.60513 0.49222 -0.24187
 C287 C 0.60406 0.47419 -0.22259
 C288 C 0.62699 0.46770 -0.20917
 C289 C 0.65072 0.48039 -0.21611
 C290 C 0.65134 0.49867 -0.23602
 H291 H 0.66554 0.54795 -0.31757
 H292 H 0.58619 0.56644 -0.29636
 H293 H 0.58529 0.46517 -0.21769
 H294 H 0.66892 0.47603 -0.20639
 H295 H 0.66683 0.51566 -0.28383
 H296 H 0.66984 0.50845 -0.24075
 C297 C 0.37227 1.01336 0.77343
 C298 C 0.35015 1.01590 0.78870
 C299 C 0.35078 1.03447 0.80918
 C300 C 0.37335 1.05098 0.81452
 C301 C 0.39525 1.04724 0.79882
 N302 N 0.39417 1.02878 0.77918
 C303 C 0.37251 0.99427 0.75131
 N304 N 0.39543 0.98279 0.74480
 C305 C 0.39718 0.96550 0.72437
 C306 C 0.37509 0.95932 0.70877
 C307 C 0.35133 0.97115 0.71498
 C308 C 0.34992 0.98850 0.73627
 H309 H 0.33315 1.03623 0.82015
 H310 H 0.41348 1.05849 0.80223
 H311 H 0.41595 0.95706 0.72009
 H312 H 0.33379 0.96690 0.70349
 H313 H 0.33256 1.00353 0.78503
 H314 H 0.33150 0.99776 0.74049
 C315 C 0.87027 0.47025 0.23630
 C316 C 0.84715 0.46214 0.22294
 C317 C 0.84836 0.44410 0.20217
 C318 C 0.87250 0.43410 0.19454
 C319 C 0.89518 0.44276 0.20833
 N320 N 0.89353 0.46048 0.22845
 C321 C 0.87017 0.48980 0.25815
 N322 N 0.89226 0.50507 0.26374
 C323 C 0.89348 0.52379 0.28320
 C324 C 0.87156 0.52798 0.29852
 C325 C 0.84878 0.51200 0.29340
 C326 C 0.84801 0.49293 0.27336
 H327 H 0.83038 0.43786 0.19219
 H328 H 0.91423 0.43588 0.20285
 H329 H 0.91161 0.53529 0.28660
 H330 H 0.83136 0.51431 0.30464
 H331 H 0.82834 0.46998 0.22801
 H332 H 0.83031 0.48066 0.27011
 C333 C 0.27081 0.11564 -0.01817
 C334 C 0.27867 0.09129 -0.02958
 C335 C 0.29705 0.09196 -0.04904
 C336 C 0.30765 0.11677 -0.05722
 C337 C 0.29901 0.14065 -0.04557
 N338 N 0.28102 0.13949 -0.02671
 C339 C 0.25136 0.11626 0.00252
 N340 N 0.23734 0.13896 0.00608
 C341 C 0.21920 0.14119 0.02469
 C342 C 0.21441 0.11977 0.04136
 C343 C 0.22893 0.09631 0.03828
 C344 C 0.24737 0.09447 0.01896
 H345 H 0.30323 0.07305 -0.05742
 H346 H 0.30634 0.16022 -0.05158
 H347 H 0.20880 0.15983 0.02652
 H348 H 0.22597 0.07925 0.05064
 H349 H 0.27054 0.07191 -0.02391
 H350 H 0.25860 0.07634 0.01733
 C351 C 0.72437 0.62178 0.52063
 C352 C 0.71722 0.59811 0.53351
 C353 C 0.69912 0.59929 0.55313
 C354 C 0.68811 0.62396 0.56012
 C355 C 0.69598 0.64724 0.54698
 N356 N 0.71375 0.64561 0.52793
 C357 C 0.74359 0.62158 0.49972
 N358 N 0.75793 0.64457 0.49501
 C359 C 0.77621 0.64569 0.47639
 C360 C 0.78088 0.62272 0.46104
 C361 C 0.76588 0.59900 0.46527
 C362 C 0.74726 0.59835 0.48446
 H363 H 0.69353 0.58080 0.56260
 H364 H 0.68828 0.66673 0.55202
 H365 H 0.78698 0.66456 0.47364
 H366 H 0.76861 0.58075 0.45400
 H367 H 0.72573 0.57889 0.52887
 H368 H 0.73573 0.57991 0.48699
 C369 C 0.77708 0.38071 0.01507
 C370 C 0.78459 0.40433 0.02907
 C371 C 0.80302 0.40299 0.04894
 C372 C 0.81407 0.37825 0.05493
 C373 C 0.80597 0.35508 0.04055
 N374 N 0.78783 0.35684 0.02139
 C375 C 0.75720 0.38088 -0.00583
 N376 N 0.74270 0.35786 -0.01137
 C377 C 0.72384 0.35659 -0.03005
 C378 C 0.71874 0.37941 -0.04463
 C379 C 0.73381 0.40321 -0.03954
 C380 C 0.75301 0.40403 -0.02024
 H381 H 0.80877 0.42136 0.05947
 H382 H 0.81369 0.33553 0.04481
 H383 H 0.71299 0.33769 -0.03351
 H384 H 0.73065 0.42136 -0.05020
 H385 H 0.77601 0.42357 0.02517
 H386 H 0.76459 0.42252 -0.01697
 C387 C 0.23544 0.87957 0.47080
 C388 C 0.22925 0.90310 0.45768
 C389 C 0.21059 0.90164 0.43790
 C390 C 0.19813 0.87681 0.43089
 C391 C 0.20533 0.85365 0.44406
 N392 N 0.22352 0.85559 0.46335
 C393 C 0.25467 0.87999 0.49236
 N394 N 0.26651 0.85666 0.49854
 C395 C 0.28425 0.85542 0.51814
 C396 C 0.29100 0.87866 0.53306
 C397 C 0.27867 0.90282 0.52723
 C398 C 0.26054 0.90356 0.50707
 H399 H 0.20563 0.92008 0.42845
 H400 H 0.19660 0.83402 0.43902
 H401 H 0.29293 0.83624 0.52194
 H402 H 0.28291 0.92127 0.53818
 H403 H 0.23877 0.92246 0.46236
 H404 H 0.25099 0.92235 0.50350
   
