data_POSCAR
  _audit_creation_date              2014-09-24
  _audit_creation_method            'ToBaCCo'
  _symmetry_space_group_name_H-M    'P1'
  _symmetry_Int_Tables_number       1
  _symmetry_cell_setting            triclinic
  loop_
  _symmetry_equiv_pos_as_xyz
 x,y,z
_cell_length_a 24.0352
_cell_length_b 21.7875
_cell_length_c 27.1687
_cell_angle_alpha 89.925400
_cell_angle_beta 90.465500
_cell_angle_gamma 90.113500
loop_
  _atom_site_label
  _atom_site_type_symbol
  _atom_site_fract_x
  _atom_site_fract_y
  _atom_site_fract_z
C1 C 0.39173 0.22056 0.33398
 C2 C 0.38701 0.28295 0.33848
 C3 C 0.33666 0.29891 0.31690
 N4 N 0.30991 0.24815 0.30058
 C5 C 0.34294 0.19996 0.31193
 C6 C 0.31254 0.35785 0.31699
 C7 C 0.26997 0.37414 0.28338
 C8 C 0.23754 0.42658 0.28597
 C9 C 0.20558 0.42817 0.24368
 C10 C 0.21974 0.37691 0.21627
 N11 N 0.25878 0.34416 0.24086
 C12 C 0.20019 0.36311 0.16832
 C13 C 0.20459 0.30324 0.14881
 C14 C 0.20033 0.28788 0.09947
 C15 C 0.20214 0.22499 0.09710
 C16 C 0.20707 0.20399 0.14515
 N17 N 0.20941 0.25196 0.17663
 C18 C 0.20667 0.14183 0.16036
 C19 C 0.22967 0.12490 0.20665
 C20 C 0.21600 0.07257 0.23323
 C21 C 0.25029 0.07123 0.27382
 C22 C 0.28383 0.12297 0.27135
 N23 N 0.27023 0.15617 0.23082
 C24 C 0.32676 0.13799 0.30525
 H25 H 0.42755 0.19398 0.34530
 H26 H 0.41788 0.31245 0.35520
 H27 H 0.29117 0.19491 0.21792
 H28 H 0.23759 0.46088 0.31472
 H29 H 0.17561 0.46336 0.23433
 H30 H 0.19710 0.31865 0.06830
 H31 H 0.20103 0.19807 0.06369
 H32 H 0.24938 0.03680 0.30253
 H33 H 0.28096 0.30714 0.22682
 H34 H 0.18374 0.03931 0.22519
 C35 C 0.89809 0.22157 0.17414
 C36 C 0.89571 0.28453 0.17292
 C37 C 0.84316 0.30062 0.18907
 N38 N 0.81369 0.24981 0.20061
 C39 C 0.84699 0.20148 0.19113
 C40 C 0.82110 0.36058 0.19041
 C41 C 0.77368 0.37424 0.21862
 C42 C 0.74031 0.42564 0.21298
 C43 C 0.70277 0.42462 0.25099
 C44 C 0.71456 0.37281 0.27889
 N45 N 0.75719 0.34188 0.25840
 C46 C 0.69064 0.35765 0.32465
 C47 C 0.69467 0.29749 0.34365
 C48 C 0.68988 0.28106 0.39267
 C49 C 0.69263 0.21818 0.39433
 C50 C 0.69837 0.19828 0.34616
 N51 N 0.70061 0.24696 0.31533
 C52 C 0.69919 0.13646 0.33013
 C53 C 0.72540 0.12112 0.28512
 C54 C 0.71609 0.06835 0.25751
 C55 C 0.75333 0.06936 0.21935
 C56 C 0.78386 0.12300 0.22415
 N57 N 0.76611 0.15472 0.26382
 C58 C 0.82949 0.13985 0.19461
 H59 H 0.93366 0.19400 0.16427
 H60 H 0.92920 0.31473 0.16204
 H61 H 0.78487 0.19388 0.27857
 H62 H 0.74290 0.46050 0.18469
 H63 H 0.67085 0.45855 0.25733
 H64 H 0.68625 0.31112 0.42413
 H65 H 0.69193 0.19060 0.42745
 H66 H 0.75701 0.03475 0.19104
 H67 H 0.77838 0.30504 0.27429
 H68 H 0.68527 0.03296 0.26340
 C69 C 0.69032 0.71649 0.61171
 C70 C 0.69093 0.77931 0.61082
 C71 C 0.69601 0.79854 0.65922
 N72 N 0.69984 0.74950 0.68957
 C73 C 0.69501 0.69926 0.66067
 C74 C 0.69870 0.86048 0.67437
 C75 C 0.73051 0.87806 0.71610
 C76 C 0.76042 0.93234 0.71998
 C77 C 0.78626 0.93180 0.76512
 C78 C 0.77137 0.87735 0.78801
 N79 N 0.73798 0.84429 0.75755
 C80 C 0.78698 0.86073 0.83656
 C81 C 0.78275 0.80001 0.85436
 C82 C 0.78810 0.78300 0.90329
 C83 C 0.78713 0.72020 0.90434
 C84 C 0.78183 0.70070 0.85596
 N85 N 0.77757 0.74969 0.82559
 C86 C 0.77878 0.63861 0.84081
 C87 C 0.74542 0.62173 0.79963
 C88 C 0.71475 0.56790 0.79590
 C89 C 0.68934 0.56832 0.75051
 C90 C 0.70508 0.62232 0.72740
 N91 N 0.73856 0.65522 0.75794
 C92 C 0.69059 0.63850 0.67845
 H93 H 0.68763 0.68706 0.57974
 H94 H 0.69032 0.80740 0.57796
 H95 H 0.76029 0.69497 0.74874
 H96 H 0.76609 0.96745 0.69234
 H97 H 0.81408 0.96709 0.77871
 H98 H 0.79144 0.81266 0.93508
 H99 H 0.78770 0.69231 0.93731
 H100 H 0.66156 0.53311 0.73669
 H101 H 0.71714 0.80388 0.76646
 H102 H 0.70910 0.53285 0.82364
 C103 C 0.18042 0.78702 0.87919
 C104 C 0.18039 0.72409 0.88074
 C105 C 0.18140 0.70416 0.83237
 N106 N 0.18303 0.75280 0.80132
 C107 C 0.18107 0.80359 0.82990
 C108 C 0.17988 0.64228 0.81657
 C109 C 0.20593 0.62590 0.77183
 C110 C 0.19618 0.57294 0.74457
 C111 C 0.23502 0.57186 0.70771
 C112 C 0.26667 0.62465 0.71281
 N113 N 0.24821 0.65781 0.75138
 C114 C 0.31353 0.63958 0.68431
 C115 C 0.33160 0.70092 0.67920
 C116 C 0.38096 0.71992 0.65805
 C117 C 0.37792 0.78253 0.65368
 C118 C 0.32763 0.80003 0.67398
 N119 N 0.29949 0.74999 0.68949
 C120 C 0.30432 0.85942 0.67257
 C121 C 0.25878 0.87561 0.70254
 C122 C 0.22590 0.92729 0.69638
 C123 C 0.18958 0.92854 0.73524
 C124 C 0.20190 0.87821 0.76481
 N125 N 0.24372 0.84589 0.74420
 C126 C 0.17780 0.86422 0.81107
 H127 H 0.18175 0.81698 0.91090
 H128 H 0.18172 0.69640 0.91380
 H129 H 0.26456 0.80910 0.76054
 H130 H 0.16432 0.53856 0.74999
 H131 H 0.23912 0.53649 0.68006
 H132 H 0.41552 0.69199 0.64633
 H133 H 0.40944 0.81089 0.63707
 H134 H 0.15759 0.96267 0.74041
 H135 H 0.26755 0.69649 0.76636
 H136 H 0.22789 0.96108 0.66726
 O137 O 0.93450 0.02906 -0.05306
 O138 O 1.05584 0.07108 0.02341
 O139 O 1.04289 0.02974 -0.06608
 O140 O 0.94962 0.06784 0.03669
 O141 O 0.95607 -0.02761 0.06357
 O142 O 1.04708 -0.06619 -0.03996
 O143 O 1.06271 -0.02504 0.04871
 O144 O 0.94070 -0.06671 -0.02685
 Cu145 Cu 0.99504 0.05895 -0.01775
 Cu146 Cu 1.00201 -0.05598 0.01405
 C147 C 0.91702 -0.02595 -0.05304
 C148 C 1.07968 0.03021 0.04936
 C149 C 1.06093 -0.02479 -0.07040
 C150 C 0.93784 0.02673 0.06816
 O151 O 0.54629 0.42719 0.46671
 O152 O 0.44812 0.46682 0.56486
 O153 O 0.43849 0.42744 0.47468
 O154 O 0.55566 0.46795 0.55650
 O155 O 0.54879 0.56453 0.53238
 O156 O 0.43780 0.52163 0.44437
 O157 O 0.44160 0.56089 0.53497
 O158 O 0.54696 0.52384 0.44209
 Cu159 Cu 0.49739 0.43766 0.51827
 Cu160 Cu 0.49346 0.55225 0.48539
 C161 C 0.56422 0.46900 0.43834
 C162 C 0.42813 0.52066 0.56662
 C163 C 0.41864 0.46735 0.44539
 C164 C 0.57121 0.52359 0.55928
 O165 O -0.06326 0.57119 -0.02749
 O166 O 0.05530 0.53316 0.05417
 O167 O 0.04441 0.57426 -0.03554
 O168 O -0.05231 0.53341 0.06363
 O169 O -0.05629 0.43812 0.03616
 O170 O 0.04427 0.47780 -0.06041
 O171 O 0.05048 0.43667 0.02960
 O172 O -0.06462 0.47571 -0.05463
 Cu173 Cu -0.00387 0.56267 0.01627
 Cu174 Cu -0.00683 0.44759 -0.01530
 C175 C -0.08389 0.52989 -0.05519
 C176 C 0.07237 0.47803 0.05636
 C177 C 0.06136 0.53280 -0.06450
 C178 C -0.07039 0.47879 0.06708
 O179 O 0.55794 0.96839 0.44340
 O180 O 0.44083 0.92831 0.52368
 O181 O 0.45075 0.96734 0.43339
 O182 O 0.54915 0.92838 0.53304
 O183 O 0.54823 1.02466 0.55833
 O184 O 0.44611 1.06234 0.46136
 O185 O 0.43865 1.02327 0.55207
 O186 O 0.55283 1.06470 0.46833
 Cu187 Cu 0.49982 0.93835 0.48101
 Cu188 Cu 0.49596 1.05322 0.51319
 C189 C 0.57463 1.02368 0.44149
 C190 C 0.41979 0.96883 0.55134
 C191 C 0.43229 1.02176 0.43001
 C192 C 0.56654 0.97019 0.56184
 N193 N 1.15781 0.00664 0.10350
 N194 N 1.19246 0.03543 0.13379
 C195 C 1.18153 0.09616 0.13038
 C196 C 1.13894 0.10337 0.09614
 N197 N 1.12541 0.04667 0.08063
 H198 H 1.11667 0.14485 0.08645
 N199 N 0.65114 0.50214 0.61243
 N200 N 0.68410 0.53133 0.64405
 C201 C 0.66693 0.59030 0.64541
 C202 C 0.62226 0.59617 0.61340
 N203 N 0.61402 0.54045 0.59355
 H204 H 0.59699 0.63641 0.60648
 N205 N -0.11788 0.49926 0.14420
 N206 N -0.14632 0.46904 0.17811
 C207 C -0.15188 0.41070 0.16206
 C208 C -0.12642 0.40642 0.11683
 N209 N -0.10554 0.46237 0.10723
 H210 H -0.12236 0.36634 0.09363
 N211 N 0.32187 0.94917 0.56377
 N212 N 0.28982 0.91922 0.59517
 C213 C 0.32248 0.90258 0.63353
 C214 C 0.37569 0.92386 0.62469
 N215 N 0.37336 0.95278 0.58103
 H216 H 0.41308 0.91597 0.64624
 N217 N -0.15683 0.50377 -0.11432
 N218 N -0.19453 0.53165 -0.14219
 C219 C -0.19167 0.59250 -0.13257
 C220 C -0.14913 0.60056 -0.09812
 N221 N -0.12925 0.54446 -0.08757
 H222 H -0.13112 0.64285 -0.08456
 N223 N 0.38256 1.00071 0.35329
 N224 N 0.35453 1.03110 0.31889
 C225 C 0.35182 1.09042 0.33330
 C226 C 0.37840 1.09468 0.37862
 N227 N 0.39719 1.03821 0.38938
 H228 H 0.38299 1.13432 0.40225
 N229 N 1.12467 0.00051 -0.13696
 N230 N 1.15690 -0.02818 -0.16888
 C231 C 1.15039 -0.08924 -0.16172
 C232 C 1.11237 -0.09654 -0.12401
 N233 N 1.09775 -0.03989 -0.10968
 H234 H 1.09509 -0.13860 -0.10937
 N235 N 0.63875 0.49466 0.38163
 N236 N 0.67362 0.46650 0.35165
 C237 C 0.66138 0.40598 0.35327
 C238 C 0.61760 0.39815 0.38537
 N239 N 0.60499 0.45429 0.40224
 H240 H 0.59647 0.35600 0.39519
 N241 N 0.83240 -0.00361 -0.09978
 N242 N 0.79633 -0.03246 -0.12883
 C243 C 0.81254 -0.09173 -0.13101
 C244 C 0.85967 -0.09821 -0.10210
 N245 N 0.87054 -0.04244 -0.08337
 H246 H 0.88507 -0.13876 -0.09702
 N247 N 0.32198 0.44362 0.42835
 N248 N 0.29235 0.41377 0.39471
 C249 C 0.32710 0.40059 0.35746
 C250 C 0.37899 0.42390 0.36920
 N251 N 0.37388 0.45050 0.41348
 H252 H 0.41748 0.41852 0.34925
 N253 N 0.12916 0.50732 -0.12726
 N254 N 0.16171 0.53550 -0.15927
 C255 C 0.15345 0.59658 -0.15447
 C256 C 0.11428 0.60453 -0.11777
 N257 N 0.10044 0.54804 -0.10202
 H258 H 0.09552 0.64671 -0.10512
 N259 N 0.64982 1.00018 0.38500
 N260 N 0.68378 1.02927 0.35467
 C261 C 0.67307 1.08999 0.35844
 C262 C 0.63103 1.09676 0.39269
 N263 N 0.61800 1.04001 0.40819
 H264 H 0.60929 1.13815 0.40311
 N265 N 0.15128 0.50150 0.11033
 N266 N 0.18635 0.47236 0.14013
 C267 C 0.17285 0.41215 0.13850
 C268 C 0.12826 0.40551 0.10654
 N269 N 0.11632 0.46201 0.08975
 H270 H 0.10553 0.36401 0.09752
 N271 N 0.63783 0.99745 0.62222
 N272 N 0.67461 0.96994 0.65128
 C273 C 0.66920 0.90873 0.64460
 C274 C 0.62598 0.90002 0.61118
 N275 N 0.60832 0.95609 0.59784
 H276 H 0.60726 0.85740 0.59905
 N277 N 0.89562 0.00481 0.14751
 N278 N 0.86740 0.03363 0.18222
 C279 C 0.85877 0.09153 0.16615
 C280 C 0.88229 0.09699 0.12009
 N281 N 0.90494 0.04214 0.11001
 H282 H 0.88331 0.13697 0.09640
 N283 N 0.38249 0.50254 0.64507
 N284 N 0.35261 0.53323 0.67758
 C285 C 0.34288 0.58934 0.65821
 C286 C 0.36698 0.59153 0.61229
 N287 N 0.39165 0.53694 0.60578
 H288 H 0.36776 0.62948 0.58655
   
