data_POSCAR
  _audit_creation_date              2014-09-24
  _audit_creation_method            'ToBaCCo'
  _symmetry_space_group_name_H-M    'P1'
  _symmetry_Int_Tables_number       1
  _symmetry_cell_setting            triclinic
  loop_
  _symmetry_equiv_pos_as_xyz
 x,y,z
_cell_length_a 38.5585
_cell_length_b 38.6179
_cell_length_c 11.5492
_cell_angle_alpha 90.010200
_cell_angle_beta 89.999500
_cell_angle_gamma 119.848400
loop_
  _atom_site_label
  _atom_site_type_symbol
  _atom_site_fract_x
  _atom_site_fract_y
  _atom_site_fract_z
C1 C 0.21350 0.49221 0.43945
 C2 C 0.21774 0.49901 0.56187
 C3 C 0.25322 0.50526 0.61642
 C4 C 0.28239 0.50016 0.55692
 C5 C 0.27672 0.49163 0.43639
 C6 C 0.24285 0.48761 0.38056
 H7 H 0.24073 0.48284 0.28762
 H8 H 0.25631 0.51051 0.70903
 C9 C 0.50116 -0.28183 0.44155
 C10 C 0.50264 -0.27922 0.56480
 C11 C 0.50145 -0.24758 0.62039
 C12 C 0.50193 -0.21592 0.55832
 C13 C 0.50284 -0.21733 0.43503
 C14 C 0.50090 -0.25053 0.37946
 H15 H 0.50059 -0.25094 0.28557
 H16 H 0.50160 -0.24724 0.71430
 C17 C 1.28213 0.78369 0.43869
 C18 C 1.27924 0.78384 0.56200
 C19 C 1.24719 0.75195 0.61873
 C20 C 1.21618 0.72074 0.55706
 C21 C 1.21786 0.72072 0.43465
 C22 C 1.25128 0.75124 0.37773
 H23 H 1.25204 0.75029 0.28399
 H24 H 1.24589 0.75194 0.71261
 C25 C 0.78414 0.50549 0.43830
 C26 C 0.78262 0.50028 0.56077
 C27 C 0.74925 0.49727 0.62094
 C28 C 0.71928 0.50202 0.56490
 C29 C 0.72148 0.50650 0.44215
 C30 C 0.75332 0.50758 0.38146
 H31 H 0.75424 0.51033 0.28779
 H32 H 0.74793 0.49376 0.71417
 C33 C 0.49316 0.27822 0.43723
 C34 C 0.49857 0.28200 0.55967
 C35 C 0.50205 0.25190 0.61964
 C36 C 0.49749 0.21732 0.56359
 C37 C 0.49255 0.21483 0.44100
 C38 C 0.49110 0.24536 0.38047
 H39 H 0.48812 0.24340 0.28685
 H40 H 0.50578 0.25415 0.71279
 C41 C 0.72126 0.21645 0.43824
 C42 C 0.71988 0.21797 0.56054
 C43 C 0.75013 0.25106 0.61969
 C44 C 0.78343 0.28174 0.56112
 C45 C 0.78438 0.27940 0.43785
 C46 C 0.75303 0.24757 0.37884
 H47 H 0.75379 0.24661 0.28499
 H48 H 0.74849 0.25158 0.71333
 O49 O 0.94563 0.41263 0.21437
 O50 O 0.90088 0.42167 0.10583
 C51 C 0.90958 0.40362 0.18552
 O52 O 1.05667 0.59213 0.19611
 O53 O 1.10085 0.58053 0.09327
 C54 C 1.09262 0.60043 0.16825
 O55 O 0.94506 0.53460 0.20602
 O56 O 0.90061 0.47939 0.10261
 C57 C 0.90908 0.50697 0.17942
 O58 O 1.05719 0.46742 0.20733
 O59 O 1.10107 0.52095 0.09669
 C60 C 1.09294 0.49434 0.17632
 Zr61 Zr 1.00111 0.45736 0.14737
 O62 O 1.00441 0.45814 0.33041
 O63 O 1.00067 0.40252 0.13651
 Zr64 Zr 1.00066 0.54483 0.14068
 O65 O 1.00493 0.54898 0.32348
 O66 O 0.99649 0.59742 0.13151
 O67 O 0.96533 0.48344 0.16835
 O68 O 1.03546 0.51857 0.16479
 O69 O 1.05645 0.46395 -0.20061
 O70 O 1.10091 0.51961 -0.09852
 C71 C 1.09251 0.49135 -0.17308
 O72 O 0.94352 0.52824 -0.22002
 O73 O 0.89966 0.47789 -0.10071
 C74 C 0.90769 0.50229 -0.18653
 O75 O 1.05521 0.58851 -0.21137
 O76 O 1.10011 0.57903 -0.10500
 C77 C 1.09133 0.59766 -0.18295
 O78 O 0.94437 0.41234 -0.21301
 O79 O 0.90004 0.41978 -0.09754
 C80 C 0.90838 0.40274 -0.18114
 Zr81 Zr 1.00034 0.45494 -0.14294
 O82 O 1.00441 0.45225 -0.32505
 O83 O 0.99622 0.39832 -0.12909
 Zr84 Zr 0.99974 0.54213 -0.15021
 O85 O 1.00385 0.54496 -0.33313
 O86 O 0.99449 0.59419 -0.14777
 Zr87 Zr 0.94045 0.46978 0.00073
 Zr88 Zr 1.06029 0.52984 -0.00266
 O89 O 1.03459 0.51570 -0.16908
 O90 O 0.96442 0.48054 -0.16850
 O91 O 1.03681 0.46756 0.00203
 O92 O 0.96509 0.53217 -0.00449
 O93 O 0.96552 0.43225 0.00333
 O94 O 1.03620 0.56832 -0.00624
 H95 H 1.05313 0.52792 0.23360
 H96 H 0.94677 0.54323 -0.00625
 H97 H 1.05198 0.52388 -0.23851
 H98 H 0.94739 0.40294 0.00407
 H99 H 1.02010 0.61767 0.08849
 H100 H 1.01899 0.61579 -0.11157
 H101 H 0.98398 0.51845 -0.36351
 H102 H 0.98789 0.46269 -0.35883
 H103 H 1.01964 0.40193 -0.08407
 H104 H 1.00097 0.39410 0.21739
 H105 H 0.98437 0.46483 0.35981
 H106 H 0.98365 0.52339 0.35528
 O107 O 0.40834 0.46389 0.20096
 O108 O 0.41956 0.51973 0.09986
 C109 C 0.40010 0.49166 0.17505
 O110 O 0.58867 0.53327 0.20955
 O111 O 0.57879 0.47869 0.10378
 C112 C 0.59776 0.50628 0.18077
 O113 O 0.52699 0.58344 0.22529
 O114 O 0.47723 0.57807 0.10455
 C115 C 0.50130 0.59376 0.19155
 O116 O 0.46229 0.40638 0.19152
 O117 O 0.51973 0.41954 0.09541
 C118 C 0.49059 0.39871 0.16663
 Zr119 Zr 0.45420 0.45418 0.13751
 O120 O 0.45113 0.44756 0.31982
 O121 O 0.39946 0.40061 0.11315
 Zr122 Zr 0.54141 0.54188 0.15244
 O123 O 0.54285 0.53819 0.33509
 O124 O 0.59314 0.59917 0.15754
 O125 O 0.47948 0.51530 0.16825
 O126 O 0.51500 0.48063 0.16696
 O127 O 0.46993 0.41404 -0.21674
 O128 O 0.52244 0.42219 -0.10333
 C129 C 0.49647 0.40456 -0.18524
 O130 O 0.53537 0.59179 -0.20053
 O131 O 0.47952 0.58009 -0.09824
 C132 C 0.50734 0.59971 -0.17389
 O133 O 0.59232 0.53660 -0.19772
 O134 O 0.58185 0.48164 -0.09303
 C135 C 0.60107 0.50927 -0.16956
 O136 O 0.41734 0.47355 -0.22700
 O137 O 0.42164 0.52233 -0.10443
 C138 C 0.40641 0.49872 -0.19248
 Zr139 Zr 0.45832 0.45858 -0.15195
 O140 O 0.45665 0.45453 -0.33452
 O141 O 0.40181 0.40576 -0.14598
 Zr142 Zr 0.54576 0.54619 -0.13805
 O143 O 0.55149 0.54903 -0.32066
 O144 O 0.59854 0.60232 -0.12116
 Zr145 Zr 0.46971 0.53007 0.00020
 Zr146 Zr 0.53023 0.47059 0.00031
 O147 O 0.51971 0.48554 -0.16653
 O148 O 0.48452 0.52040 -0.16815
 O149 O 0.46795 0.43179 -0.00841
 O150 O 0.53213 0.56773 0.00838
 O151 O 0.43222 0.46774 -0.00822
 O152 O 0.56856 0.53295 0.00817
 H153 H 0.52303 0.47098 0.23578
 H154 H 0.54311 0.59699 0.01221
 H155 H 0.52936 0.47789 -0.23611
 H156 H 0.40291 0.45677 -0.01216
 H157 H 0.61430 0.59772 0.11302
 H158 H 0.61946 0.59767 -0.08735
 H159 H 0.52598 0.54490 -0.35334
 H160 H 0.47954 0.47954 -0.36336
 H161 H 0.40574 0.38452 -0.11126
 H162 H 0.38916 0.39025 0.19167
 H163 H 0.45657 0.47333 0.35347
 H164 H 0.51583 0.53052 0.36399
 O165 O 0.53465 -0.05577 0.20330
 O166 O 0.47972 -0.09967 0.09782
 C167 C 0.50708 -0.09157 0.17511
 O168 O 0.46539 0.05553 0.20660
 O169 O 0.52063 0.10022 0.10338
 C170 C 0.49260 0.09154 0.17905
 O171 O 0.41532 -0.05601 0.22031
 O172 O 0.42141 -0.10004 0.10008
 C173 C 0.40528 -0.09185 0.18645
 O174 O 0.59207 0.05580 0.19812
 O175 O 0.58028 0.10031 0.09783
 C176 C 0.60023 0.09179 0.17210
 Zr177 Zr 0.54492 0.00013 0.14059
 O178 O 0.54985 0.00303 0.32339
 O179 O 0.59887 -0.00093 0.12104
 Zr180 Zr 0.45703 -0.00010 0.14878
 O181 O 0.45866 0.00446 0.33152
 O182 O 0.39957 -0.00560 0.14816
 O183 O 0.48352 -0.03553 0.16703
 O184 O 0.51823 0.03448 0.16732
 O185 O 0.58918 0.05665 -0.20769
 O186 O 0.57884 0.10070 -0.09990
 C187 C 0.59789 0.09251 -0.17805
 O188 O 0.40963 -0.05490 -0.20646
 O189 O 0.42066 -0.09923 -0.10287
 C190 C 0.40144 -0.09081 -0.17957
 O191 O 0.46482 0.05677 -0.20136
 O192 O 0.51911 0.10085 -0.09373
 C193 C 0.49189 0.09265 -0.17180
 O194 O 0.52889 -0.05484 -0.22403
 O195 O 0.47876 -0.09945 -0.10525
 C196 C 0.50327 -0.09085 -0.19124
 Zr197 Zr 0.54278 0.00073 -0.14959
 O198 O 0.54689 0.00558 -0.33210
 O199 O 0.59536 -0.00369 -0.14538
 Zr200 Zr 0.45504 0.00071 -0.14216
 O201 O 0.45420 0.00438 -0.32502
 O202 O 0.39866 -0.00257 -0.13052
 Zr203 Zr 0.47011 -0.05950 -0.00185
 Zr204 Zr 0.52955 0.06012 0.00106
 O205 O 0.51600 0.03526 -0.16653
 O206 O 0.48102 -0.03475 -0.16980
 O207 O 0.56840 0.03649 -0.00423
 O208 O 0.43232 -0.03471 0.00333
 O209 O 0.53260 -0.03474 -0.00592
 O210 O 0.46706 0.03624 0.00465
 H211 H 0.52733 0.05191 0.23661
 H212 H 0.40300 -0.05293 0.00559
 H213 H 0.52446 0.05281 -0.23556
 H214 H 0.54378 -0.05294 -0.00885
 H215 H 0.40170 0.01775 0.10643
 H216 H 0.40283 0.02243 -0.09415
 H217 H 0.45746 -0.01758 -0.35710
 H218 H 0.51936 -0.00977 -0.36265
 H219 H 0.61547 0.01904 -0.09910
 H220 H 0.60850 -0.00110 0.20047
 H221 H 0.52412 -0.01804 0.35521
 H222 H 0.46814 -0.01337 0.36129
 N223 N 1.17503 0.47783 0.26289
 C224 C 1.18340 0.49344 0.37189
 N225 N 1.16333 0.51171 0.41127
 N226 N 1.13493 0.51251 0.34781
 C227 C 1.12607 0.49587 0.24096
 N228 N 1.14679 0.47881 0.19886
 N229 N 0.50721 0.65866 0.43116
 C230 C 0.49997 0.68591 0.37877
 N231 N 0.49208 0.68167 0.26300
 N232 N 0.49165 0.65189 0.20334
 C233 C 0.49972 0.62541 0.25673
 N234 N 0.50751 0.62933 0.37167
 N235 N 0.31915 -0.18977 0.26033
 C236 C 0.31408 -0.18537 0.37513
 N237 N 0.33998 -0.15007 0.42575
 N238 N 0.36894 -0.12045 0.36565
 C239 C 0.37377 -0.12505 0.25177
 N240 N 0.34858 -0.16036 0.20005
 N241 N 0.85182 0.54048 0.35534
 C242 C 0.81588 0.50654 0.36474
 N243 N 0.81005 0.47319 0.30852
 N244 N 0.83950 0.47351 0.24723
 C245 C 0.87586 0.50712 0.24082
 N246 N 0.88139 0.54066 0.29523
 N247 N 0.52484 0.33469 0.30179
 C248 C 0.49203 0.30868 0.36291
 N249 N 0.45799 0.31065 0.35279
 N250 N 0.45733 0.33879 0.28776
 C251 C 0.49038 0.36541 0.22853
 N252 N 0.52406 0.36264 0.23590
 N253 N 0.68388 0.14632 0.37439
 C254 C 0.68969 0.18392 0.36868
 N255 N 0.66760 0.19171 0.29247
 N256 N 0.63965 0.16260 0.22770
 C257 C 0.63312 0.12473 0.23582
 N258 N 0.65588 0.11720 0.31005
 N259 N 0.50999 0.19252 -0.25701
 C260 C 0.49689 0.18625 -0.36887
 N261 N 0.48171 0.14882 -0.41235
 N262 N 0.47960 0.11918 -0.34859
 C263 C 0.49300 0.12565 -0.23798
 N264 N 0.50856 0.16298 -0.19327
 N265 N 0.68237 0.49026 -0.25539
 C266 C 0.68913 0.50324 -0.36731
 N267 N 0.66719 0.51893 -0.41050
 N268 N 0.63993 0.52153 -0.34641
 C269 C 0.63302 0.50819 -0.23577
 N270 N 0.65453 0.49218 -0.19138
 N271 N 0.80940 0.31846 -0.25947
 C272 C 0.81456 0.31287 -0.37336
 N273 N 0.85087 0.33733 -0.42125
 N274 N 0.88061 0.36561 -0.35972
 C275 C 0.87523 0.37116 -0.24697
 N276 N 0.83898 0.34727 -0.19780
 N277 N 0.49353 -0.18809 -0.26302
 C278 C 0.50141 -0.18452 -0.37877
 N279 N 0.50918 -0.14988 -0.43095
 N280 N 0.50987 -0.12007 -0.37133
 C281 C 0.50200 -0.12392 -0.25643
 N282 N 0.49348 -0.15858 -0.20325
 N283 N 0.32309 0.51552 -0.26975
 C284 C 0.31484 0.50158 -0.38050
 N285 N 0.33748 0.48721 -0.42741
 N286 N 0.36658 0.48644 -0.36782
 C287 C 0.37471 0.50045 -0.25804
 N288 N 0.35261 0.51526 -0.21008
 N289 N 1.19194 0.66881 -0.29224
 C290 C 1.18356 0.68836 -0.37575
 N291 N 1.14506 0.67914 -0.39140
 N292 N 1.11585 0.65056 -0.32887
 C293 C 1.12408 0.63045 -0.24705
 N294 N 1.16270 0.64020 -0.22944
 N295 N 0.80840 0.48743 -0.26268
 C296 C 0.81359 0.49921 -0.37561
 N297 N 0.84994 0.51142 -0.42405
 N298 N 0.87973 0.51233 -0.36375
 C299 C 0.87434 0.50052 -0.25182
 N300 N 0.83805 0.48773 -0.20225
 N301 N 0.48642 0.33751 -0.42359
 C302 C 0.49946 0.31385 -0.37633
 N303 N 0.51185 0.32064 -0.26388
 N304 N 0.51145 0.34976 -0.20271
 C305 C 0.49785 0.37280 -0.25090
 N306 N 0.48537 0.36614 -0.36240
 N307 N 0.66870 0.19354 -0.28525
 C308 C 0.68793 0.18546 -0.37058
 N309 N 0.67866 0.14707 -0.38774
 N310 N 0.65040 0.11770 -0.32502
 C311 C 0.63058 0.12559 -0.24148
 N312 N 0.64034 0.16410 -0.22227
 N313 N 1.19413 0.51793 -0.26880
 C314 C 1.18640 0.49590 -0.36730
 N315 N 1.14761 0.46994 -0.39446
 N316 N 1.11790 0.46775 -0.33042
 C317 C 1.12566 0.49121 -0.23566
 N318 N 1.16435 0.51602 -0.20505
 N319 N 0.53874 0.68881 -0.35453
 C320 C 0.50471 0.69099 -0.36015
 N321 N 0.47224 0.66446 -0.29887
 N322 N 0.47339 0.63593 -0.23695
 C323 C 0.50698 0.63287 -0.23460
 N324 N 0.53975 0.66005 -0.29359
 N325 N 0.33652 -0.19019 -0.30510
 C326 C 0.30942 -0.18435 -0.36407
 N327 N 0.31145 -0.14830 -0.35729
 N328 N 0.34055 -0.11859 -0.29731
 C329 C 0.36824 -0.12411 -0.24048
 N330 N 0.36538 -0.16059 -0.24403
 N331 N 0.47214 -0.19119 0.29992
 C332 C 0.50480 -0.18553 0.36002
 N333 N 0.53889 -0.14960 0.35357
 N334 N 0.53976 -0.11980 0.29318
 C335 C 0.50680 -0.12509 0.23551
 N336 N 0.47316 -0.16149 0.23844
 N337 N 0.33483 0.52466 0.30776
 C338 C 0.30730 0.49091 0.36202
 N339 N 0.30923 0.45698 0.34996
 N340 N 0.33858 0.45717 0.28876
 C341 C 0.36656 0.49108 0.23602
 N342 N 0.36392 0.52472 0.24539
 N343 N 1.14767 0.68341 0.37132
 C344 C 1.18545 0.68968 0.36330
 N345 N 1.19323 0.66820 0.28482
 N346 N 1.16390 0.64036 0.22026
 C347 C 1.12584 0.63336 0.23092
 N348 N 1.11837 0.65558 0.30719
 N349 N 0.52545 0.18961 0.31164
 C350 C 0.49217 0.18295 0.37019
 N351 N 0.45839 0.14695 0.36000
 N352 N 0.45846 0.11800 0.29756
 C353 C 0.49198 0.12432 0.24097
 N354 N 0.52538 0.16077 0.24809
 N355 N 0.66326 0.47344 0.31345
 C356 C 0.68984 0.50677 0.37151
 N357 N 0.68747 0.54051 0.36085
 N358 N 0.65836 0.54038 0.29856
 C359 C 0.63120 0.50683 0.24251
 N360 N 0.63440 0.47346 0.24999
 N361 N 0.81041 0.33816 0.31151
 C362 C 0.81623 0.31036 0.36615
 N363 N 0.85226 0.31235 0.35704
 N364 N 0.88199 0.34207 0.29894
 C365 C 0.87649 0.37039 0.24634
 N366 N 0.84001 0.36760 0.25209
   
