data_POSCAR
  _audit_creation_date              2014-09-24
  _audit_creation_method            'ToBaCCo'
  _symmetry_space_group_name_H-M    'P1'
  _symmetry_Int_Tables_number       1
  _symmetry_cell_setting            triclinic
  loop_
  _symmetry_equiv_pos_as_xyz
 x,y,z
_cell_length_a 14.3904
_cell_length_b 15.5037
_cell_length_c 15.1055
_cell_angle_alpha 89.055500
_cell_angle_beta 89.599800
_cell_angle_gamma 89.506700
loop_
  _atom_site_label
  _atom_site_type_symbol
  _atom_site_fract_x
  _atom_site_fract_y
  _atom_site_fract_z
C1 C 0.51159 0.98831 -0.69118
 C2 C 0.42162 1.00107 -0.65203
 C3 C 0.41760 1.03844 -0.56863
 C4 C 0.49545 1.07686 -0.53063
 C5 C 0.58005 1.07584 -0.57735
 C6 C 0.59206 1.02514 -0.65242
 C7 C 0.49046 1.10815 -0.43795
 C8 C 0.56881 1.10087 -0.38306
 C9 C 0.56036 1.10865 -0.29097
 C10 C 0.47380 1.12688 -0.25368
 C11 C 0.39535 1.13175 -0.30708
 C12 C 0.40438 1.12904 -0.39894
 H13 H 0.51929 0.95481 -0.75296
 H14 H 0.35189 1.03734 -0.53361
 H15 H 0.63943 1.10952 -0.55167
 H16 H 0.63549 1.08377 -0.41081
 H17 H 0.46578 1.12695 -0.18217
 H18 H 0.34214 1.13614 -0.43815
 C19 C -0.74169 1.48245 -0.06004
 C20 C -0.69592 1.40349 -0.04564
 C21 C -0.60020 1.40378 -0.02874
 C22 C -0.55308 1.48171 -0.01418
 C23 C -0.60360 1.55992 -0.02103
 C24 C -0.69684 1.56117 -0.04769
 C25 C -0.45215 1.48159 0.00943
 C26 C -0.39828 1.55671 -0.00257
 C27 C -0.30446 1.55727 0.02096
 C28 C -0.26173 1.48060 0.04944
 C29 C -0.31183 1.40417 0.05656
 C30 C -0.40768 1.40592 0.04177
 H31 H -0.81506 1.48260 -0.07648
 H32 H -0.56270 1.34348 -0.02818
 H33 H -0.57133 1.61931 -0.00288
 H34 H -0.42723 1.61410 -0.03327
 H35 H -0.18773 1.47965 0.06278
 H36 H -0.44614 1.34780 0.05559
 C37 C -0.01033 0.26913 0.48657
 C38 C -0.01771 0.31951 0.40779
 C39 C -0.02644 0.40880 0.41657
 C40 C -0.00951 0.44997 0.49799
 C41 C -0.00305 0.39791 0.57606
 C42 C -0.00734 0.30691 0.57127
 C43 C 0.00831 0.54598 0.49681
 C44 C -0.00501 0.59944 0.57172
 C45 C 0.01177 0.68994 0.56524
 C46 C 0.03910 0.72505 0.48343
 C47 C 0.05230 0.67386 0.40993
 C48 C 0.04072 0.58513 0.41728
 H49 H -0.01132 0.19951 0.48319
 H50 H -0.04076 0.44665 0.35736
 H51 H 0.00809 0.42741 0.63937
 H52 H -0.03007 0.57104 0.63297
 H53 H 0.04963 0.79410 0.47595
 H54 H 0.05868 0.54746 0.36000
 O55 O -0.24434 1.00285 -0.10657
 O56 O 0.22623 1.00044 -0.14070
 O57 O -0.01878 1.11614 -0.22225
 O58 O -0.01117 0.87890 -0.23401
 O59 O -0.00778 0.76769 -0.13090
 O60 O -0.01253 1.21459 -0.10897
 O61 O 0.10607 1.00621 -0.24092
 O62 O -0.13934 1.00426 -0.22249
 Zr63 Zr -0.01138 0.99453 -0.15815
 O64 O 0.07922 0.91103 -0.09553
 O65 O -0.08929 1.06849 -0.07139
 C66 C -0.22200 1.01066 -0.18954
 C67 C 0.19240 1.01235 -0.21925
 C68 C -0.01681 1.19446 -0.19300
 C69 C -0.01007 0.79710 -0.21116
 H70 H 0.10985 1.10853 -0.11846
 O71 O 0.07434 1.06745 -0.08135
 H72 H -0.13262 0.87828 -0.11958
 O73 O -0.09002 0.91167 -0.08243
 O74 O 0.25099 0.97361 0.09015
 O75 O -0.23443 0.96957 0.12533
 O76 O 0.12285 1.20521 0.00568
 O77 O 0.12383 0.76472 -0.02972
 O78 O -0.12240 0.76404 -0.00271
 O79 O -0.12618 1.20492 0.02332
 O80 O 0.01867 1.07509 0.23633
 O81 O 0.01893 0.84957 0.21624
 O82 O 0.00702 1.19268 0.14084
 O83 O 0.00889 0.75279 0.10255
 O84 O 0.23711 1.10136 -0.01193
 O85 O -0.23933 1.10056 0.02067
 O86 O -0.23826 0.86656 0.00729
 O87 O 0.23790 0.86779 -0.03492
 O88 O 0.15120 0.96677 0.21060
 O89 O -0.11697 0.95978 0.22911
 Zr90 Zr 0.16192 0.98440 -0.01638
 Zr91 Zr -0.16268 0.98392 0.00721
 Zr92 Zr -0.00148 1.13589 0.01016
 Zr93 Zr 0.00040 0.83371 -0.01184
 Zr94 Zr 0.01217 0.97031 0.15336
 O95 O -0.07807 0.89986 0.07840
 O96 O 0.09008 1.05553 0.07725
 C97 C 0.23465 0.96759 0.17374
 C98 C -0.20491 0.96039 0.20494
 C99 C 0.20842 1.18071 -0.00565
 C100 C 0.20938 0.78856 -0.03743
 C101 C -0.20847 0.78724 0.00468
 C102 C -0.21173 1.17977 0.02645
 C103 C 0.01481 1.15681 0.22011
 C104 C 0.01744 0.77224 0.18531
 H105 H -0.11555 1.08607 0.13211
 O106 O -0.07801 1.05359 0.08872
 H107 H 0.13309 0.86052 0.09593
 O108 O 0.09000 0.90056 0.06504
 C109 C 0.33402 0.98436 0.30802
 C110 C 0.32284 0.96021 0.22458
 H111 H 0.27108 1.00072 0.34426
 H112 H 0.38383 0.94524 0.18535
 C113 C -0.31630 1.01824 0.31263
 C114 C -0.28286 0.95036 0.26844
 H115 H -0.26815 1.07005 0.32527
 H116 H -0.32760 0.89550 0.25888
 C117 C -0.36266 1.08703 -0.23096
 C118 C -0.29581 1.03045 -0.25173
 H119 H -0.36400 1.11473 -0.16544
 H120 H -0.29198 1.00085 -0.31597
 C121 C 0.30576 1.11607 -0.26460
 C122 C 0.25670 1.04622 -0.28525
 H123 H 0.29164 1.14856 -0.20276
 H124 H 0.27038 1.01019 -0.34486
 C125 C 0.24992 1.32853 -0.04400
 C126 C 0.27747 1.24966 -0.01568
 H127 H 0.17735 1.33676 -0.06167
 H128 H 0.34869 1.23480 0.00126
 C129 C 0.24949 0.63689 -0.05605
 C130 C 0.27860 0.71842 -0.04513
 H131 H 0.17642 0.62766 -0.06998
 H132 H 0.35094 0.73409 -0.03661
 C133 C -0.24580 0.63411 0.01010
 C134 C -0.27619 0.71643 0.01035
 H135 H -0.17180 0.62104 0.00577
 H136 H -0.34929 0.73182 0.01785
 C137 C -0.25920 1.32341 0.07195
 C138 C -0.28241 1.24792 0.03635
 H139 H -0.19099 1.32952 0.10127
 H140 H -0.34968 1.23880 0.00646
 C141 C -0.01637 1.28415 0.32086
 C142 C 0.02056 1.20637 0.30350
 H143 H -0.04201 1.32277 0.26560
 H144 H 0.05311 1.17057 0.35719
 C145 C -0.00491 1.24642 -0.34960
 C146 C -0.01681 1.26513 -0.26267
 H147 H 0.00500 1.17916 -0.36584
 H148 H -0.02625 1.33125 -0.24245
 C149 C 0.00313 0.74943 -0.36523
 C150 C -0.01153 0.73015 -0.27997
 H151 H 0.01371 0.81708 -0.38166
 H152 H -0.01898 0.66380 -0.25802
 C153 C 0.07379 0.71754 0.32556
 C154 C 0.02672 0.70234 0.25135
 H155 H 0.11404 0.77625 0.32954
 H156 H -0.01458 0.64476 0.24468
   
