data_POSCAR
  _audit_creation_date              2014-09-24
  _audit_creation_method            'ToBaCCo'
  _symmetry_space_group_name_H-M    'P1'
  _symmetry_Int_Tables_number       1
  _symmetry_cell_setting            triclinic
  loop_
  _symmetry_equiv_pos_as_xyz
 x,y,z
_cell_length_a 38.3272
_cell_length_b 40.1924
_cell_length_c 19.6324
_cell_angle_alpha 89.780400
_cell_angle_beta 89.261900
_cell_angle_gamma 89.863700
loop_
  _atom_site_label
  _atom_site_type_symbol
  _atom_site_fract_x
  _atom_site_fract_y
  _atom_site_fract_z
C1 C 0.81270 0.17439 0.47093
 C2 C 0.81649 0.17694 0.53981
 C3 C 0.80252 0.20751 0.55927
 N4 N 0.79197 0.22417 0.50292
 C5 C 0.79811 0.20399 0.44902
 C6 C 0.80407 0.22190 0.62558
 C7 C 0.79298 0.25525 0.63691
 C8 C 0.80395 0.27563 0.68950
 C9 C 0.78408 0.30406 0.68710
 C10 C 0.76104 0.30042 0.63373
 N11 N 0.76692 0.27078 0.60290
 C12 C 0.73399 0.32322 0.61752
 C13 C 0.71664 0.32189 0.55409
 C14 C 0.68395 0.33512 0.54011
 C15 C 0.67877 0.33126 0.47162
 C16 C 0.70768 0.31445 0.44648
 N17 N 0.73076 0.30873 0.49683
 C18 C 0.71423 0.30711 0.37737
 C19 C 0.74001 0.28404 0.35701
 C20 C 0.75267 0.28030 0.29103
 C21 C 0.77497 0.25347 0.29187
 C22 C 0.77515 0.24146 0.35828
 N23 N 0.75368 0.26017 0.39757
 C24 C 0.79341 0.21283 0.37977
 H25 H 0.82112 0.15343 0.44045
 H26 H 0.83030 0.15876 0.56978
 H27 H 0.74576 0.25477 0.44724
 H28 H 0.82416 0.27101 0.72622
 H29 H 0.78635 0.32495 0.72135
 H30 H 0.66551 0.34632 0.57538
 H31 H 0.65613 0.33963 0.44405
 H32 H 0.78912 0.24369 0.24825
 H33 H 0.75104 0.26002 0.56644
 H34 H 0.74614 0.29502 0.24669
 C35 C 0.32167 0.67601 0.45504
 C36 C 0.32376 0.67593 0.52467
 C37 C 0.29279 0.68955 0.54959
 N38 N 0.27261 0.69930 0.49715
 C39 C 0.29025 0.69102 0.43949
 C40 C 0.28262 0.69171 0.61931
 C41 C 0.25639 0.71434 0.64171
 C42 C 0.23929 0.71309 0.70456
 C43 C 0.21715 0.74002 0.70744
 C44 C 0.22101 0.75693 0.64621
 N45 N 0.24506 0.74122 0.60653
 C46 C 0.20444 0.78739 0.63040
 C47 C 0.20310 0.80025 0.56341
 C48 C 0.19151 0.83180 0.54559
 C49 C 0.19135 0.83303 0.47593
 C50 C 0.20176 0.80191 0.45322
 N51 N 0.20913 0.78200 0.50676
 C52 C 0.20151 0.79142 0.38456
 C53 C 0.21699 0.76143 0.36233
 C54 C 0.21188 0.74697 0.29917
 C55 C 0.23306 0.71928 0.29621
 C56 C 0.25045 0.71769 0.35760
 N57 N 0.24063 0.74350 0.39742
 C58 C 0.27712 0.69487 0.37325
 H59 H 0.34134 0.66664 0.42002
 H60 H 0.34581 0.66697 0.55336
 H61 H 0.25243 0.75062 0.44246
 H62 H 0.24225 0.69464 0.74437
 H63 H 0.20031 0.74649 0.75006
 H64 H 0.18350 0.85194 0.57852
 H65 H 0.18373 0.85435 0.44573
 H66 H 0.23588 0.70264 0.25324
 H67 H 0.25582 0.75018 0.56115
 H68 H 0.19495 0.75565 0.25911
 C69 C 0.17574 0.17194 -0.55234
 C70 C 0.17063 0.17366 -0.48337
 C71 C 0.18658 0.20270 -0.46157
 N72 N 0.19993 0.21929 -0.51625
 C73 C 0.19307 0.20072 -0.57188
 C74 C 0.18529 0.21587 -0.39423
 C75 C 0.20382 0.24507 -0.37731
 C76 C 0.19823 0.26475 -0.31997
 C77 C 0.22639 0.28581 -0.31531
 C78 C 0.24846 0.27833 -0.36950
 N79 N 0.23431 0.25393 -0.40738
 C80 C 0.28246 0.29088 -0.37934
 C81 C 0.30029 0.28629 -0.44183
 C82 C 0.33612 0.28712 -0.45161
 C83 C 0.34190 0.28432 -0.52049
 C84 C 0.30934 0.28218 -0.55021
 N85 N 0.28399 0.28282 -0.50198
 C86 C 0.30265 0.28265 -0.62078
 C87 C 0.27252 0.26687 -0.64680
 C88 C 0.25922 0.27158 -0.71160
 C89 C 0.23071 0.25116 -0.71685
 C90 C 0.22707 0.23446 -0.65513
 N91 N 0.25265 0.24426 -0.61265
 C92 C 0.20102 0.21037 -0.64009
 H93 H 0.16727 0.15168 -0.58417
 H94 H 0.15579 0.15567 -0.45425
 H95 H 0.25803 0.23409 -0.56502
 H96 H 0.17688 0.26356 -0.28354
 H97 H 0.23066 0.30369 -0.27522
 H98 H 0.35598 0.28942 -0.41323
 H99 H 0.36712 0.28418 -0.54594
 H100 H 0.21414 0.24946 -0.76090
 H101 H 0.24735 0.24045 -0.44515
 H102 H 0.26842 0.28841 -0.75098
 C103 C -0.15468 0.79621 -0.52989
 C104 C -0.15802 0.79976 -0.46060
 C105 C -0.19190 0.79075 -0.44374
 N106 N -0.20938 0.78180 -0.50012
 C107 C -0.18686 0.78574 -0.55312
 C108 C -0.20727 0.79290 -0.37822
 C109 C -0.23699 0.77425 -0.35980
 C110 C -0.25810 0.78014 -0.30330
 C111 C -0.28192 0.75461 -0.30017
 C112 C -0.27437 0.73359 -0.35448
 N113 N -0.24715 0.74604 -0.39091
 C114 C -0.29055 0.70262 -0.36718
 C115 C -0.28481 0.68618 -0.43002
 C116 C -0.28489 0.65204 -0.43932
 C117 C -0.27883 0.64676 -0.50741
 C118 C -0.27575 0.67789 -0.53770
 N119 N -0.27862 0.70197 -0.49001
 C120 C -0.27233 0.68426 -0.60854
 C121 C -0.25617 0.71381 -0.63261
 C122 C -0.25965 0.72717 -0.69749
 C123 C -0.23823 0.75452 -0.70126
 C124 C -0.22198 0.75716 -0.63868
 N125 N -0.23341 0.73240 -0.59695
 C126 C -0.19604 0.78086 -0.62205
 H127 H -0.13111 0.80044 -0.55955
 H128 H -0.13774 0.80769 -0.42647
 H129 H -0.22374 0.72645 -0.54903
 H130 H -0.25635 0.80055 -0.26771
 H131 H -0.30220 0.75189 -0.26173
 H132 H -0.28804 0.63291 -0.40080
 H133 H -0.27659 0.62272 -0.53169
 H134 H -0.23535 0.77062 -0.74522
 H135 H -0.23362 0.73407 -0.43015
 H136 H -0.27619 0.71847 -0.73792
 O137 O -0.01695 0.95520 0.09997
 O138 O 0.04280 0.97374 -0.12015
 O139 O -0.06892 0.97638 -0.07150
 O140 O 0.04416 0.96552 0.09511
 O141 O -0.02172 0.96481 -0.13345
 O142 O 0.01831 0.99134 0.17780
 O143 O 0.05021 0.95243 -0.02136
 O144 O -0.06697 0.96781 0.05566
 C145 C -0.04788 0.94760 0.08825
 C146 C 0.05380 0.95043 -0.08386
 C147 C -0.05351 0.96048 -0.11907
 C148 C 0.04379 0.97243 0.15793
 O149 O 0.00575 1.04278 0.10454
 O150 O -0.03150 1.02795 -0.13905
 O151 O -0.05925 1.03685 0.06500
 O152 O 0.07007 1.01590 -0.05014
 O153 O 0.03049 1.03882 -0.11194
 O154 O -0.04443 1.00733 0.14696
 O155 O 0.05706 1.03120 0.06741
 O156 O -0.06250 1.04219 -0.05176
 Co157 Co -0.00430 0.99897 0.09865
 Co158 Co 0.00452 1.00126 -0.11445
 Co159 Co -0.05943 1.00499 -0.00002
 Co160 Co 0.05014 0.99230 0.02054
 O161 O -0.00416 1.00037 -0.00420
 C162 C 0.03654 1.05135 0.09575
 C163 C -0.05466 1.04560 -0.11271
 C164 C -0.06266 1.03044 0.12628
 C165 C 0.06043 1.03905 -0.08859
 O166 O 0.46626 0.49008 0.13952
 O167 O 0.54042 0.45299 -0.08645
 O168 O 0.43258 0.46009 -0.06042
 O169 O 0.55560 0.45993 0.04089
 O170 O 0.48166 0.44163 -0.09820
 O171 O 0.52807 0.47665 0.13046
 O172 O 0.57903 0.48765 -0.06625
 O173 O 0.44001 0.45978 0.06530
 C174 C 0.44920 0.46443 0.12498
 C175 C 0.57082 0.46203 -0.09636
 C176 C 0.44974 0.43861 -0.09193
 C177 C 0.54711 0.45544 0.10163
 O178 O 0.54022 0.53962 0.08283
 O179 O 0.46724 0.50400 -0.14198
 O180 O 0.43161 0.52544 0.06534
 O181 O 0.54910 0.54166 -0.03864
 O182 O 0.53012 0.51796 -0.13085
 O183 O 0.47993 0.55051 0.08179
 O184 O 0.58755 0.51499 0.05155
 O185 O 0.43188 0.52405 -0.06250
 Co186 Co 0.50319 0.51252 0.09957
 Co187 Co 0.50463 0.48065 -0.10557
 Co188 Co 0.44004 0.49262 0.00215
 Co189 Co 0.55018 0.50089 0.00350
 O190 O 0.49722 0.49528 -0.00330
 C191 C 0.57206 0.53446 0.09469
 C192 C 0.44185 0.52244 -0.12368
 C193 C 0.44771 0.55140 0.08020
 C194 C 0.54383 0.54266 -0.10166
 C195 C 0.32511 0.30007 0.33371
 C196 C 0.34515 0.32754 0.35308
 C197 C 0.36600 0.34807 0.30491
 C198 C 0.37483 0.38056 0.32411
 C199 C 0.39314 0.40143 0.27936
 C200 C 0.40333 0.39004 0.21448
 C201 C 0.39527 0.35729 0.19589
 C202 C 0.37705 0.33636 0.24076
 C203 C 0.42016 0.41208 0.16339
 C204 C 0.43702 0.44180 0.17911
 H205 H 0.34243 0.33700 0.40442
 H206 H 0.36675 0.39015 0.37336
 H207 H 0.39815 0.42670 0.29514
 H208 H 0.40293 0.34792 0.14622
 H209 H 0.37180 0.31117 0.22483
 H210 H 0.41891 0.40461 0.11048
 H211 H 0.32395 0.29446 0.28006
 H212 H 0.44138 0.44876 0.23146
 C213 C -0.17962 0.79907 0.32422
 C214 C -0.16319 0.82991 0.33219
 C215 C -0.14560 0.84806 0.27578
 C216 C -0.11601 0.86703 0.29043
 C217 C -0.09964 0.88608 0.23976
 C218 C -0.11295 0.88711 0.17335
 C219 C -0.14282 0.86843 0.15869
 C220 C -0.15882 0.84870 0.20924
 C221 C -0.09767 0.90979 0.12128
 C222 C -0.06213 0.91720 0.11984
 H223 H -0.16293 0.84180 0.38147
 H224 H -0.10566 0.86728 0.34153
 H225 H -0.07734 0.90101 0.25344
 H226 H -0.15392 0.86931 0.10825
 H227 H -0.18218 0.83503 0.19687
 H228 H -0.11504 0.92245 0.08659
 H229 H -0.18102 0.78955 0.27289
 H230 H -0.04459 0.90253 0.15075
 C231 C 0.71492 0.66147 0.34283
 C232 C 0.68734 0.63945 0.35570
 C233 C 0.67316 0.61631 0.30455
 C234 C 0.63972 0.60322 0.31607
 C235 C 0.62462 0.58210 0.26872
 C236 C 0.64263 0.57363 0.20837
 C237 C 0.67676 0.58532 0.19820
 C238 C 0.69196 0.60654 0.24578
 C239 C 0.62604 0.55303 0.15558
 C240 C 0.59018 0.55432 0.14550
 H241 H 0.67302 0.64137 0.40341
 H242 H 0.62498 0.60968 0.36162
 H243 H 0.59885 0.57239 0.27974
 H244 H 0.69140 0.57857 0.15272
 H245 H 0.71833 0.61502 0.23633
 H246 H 0.64233 0.53829 0.12170
 H247 H 0.72468 0.66320 0.29105
 H248 H 0.57422 0.57119 0.17545
 C249 C 0.18357 1.19554 0.30434
 C250 C 0.14893 1.18446 0.30738
 C251 C 0.13243 1.16365 0.25446
 C252 C 0.09613 1.15919 0.25699
 C253 C 0.07980 1.13685 0.21327
 C254 C 0.09955 1.11826 0.16579
 C255 C 0.13577 1.12351 0.16195
 C256 C 0.15209 1.14583 0.20577
 C257 C 0.08429 1.09131 0.12389
 C258 C 0.04879 1.08339 0.12248
 H259 H 0.13292 1.19129 0.35103
 H260 H 0.08037 1.17238 0.29436
 H261 H 0.05197 1.13361 0.21901
 H262 H 0.15174 1.10942 0.12635
 H263 H 0.18020 1.14788 0.20303
 H264 H 0.10235 1.07520 0.09665
 H265 H 0.19666 1.19497 0.25522
 H266 H 0.02956 1.09928 0.14657
 C267 C 0.72410 0.34685 -0.33239
 C268 C 0.70991 0.37810 -0.34713
 C269 C 0.69162 0.39823 -0.29522
 C270 C 0.70361 0.40095 -0.22807
 C271 C 0.68412 0.41868 -0.17946
 C272 C 0.65209 0.43307 -0.19702
 C273 C 0.64077 0.43121 -0.26462
 C274 C 0.66059 0.41426 -0.31341
 C275 C 0.63024 0.44956 -0.14487
 C276 C 0.59450 0.44365 -0.14164
 H277 H 0.70865 0.38663 -0.39941
 H278 H 0.72793 0.38944 -0.21319
 H279 H 0.69344 0.42027 -0.12772
 H280 H 0.61648 0.44278 -0.27961
 H281 H 0.65107 0.41268 -0.36503
 H282 H 0.64241 0.46529 -0.10734
 H283 H 0.72846 0.34086 -0.27938
 H284 H 0.58323 0.42512 -0.17466
 C285 C 0.18423 0.80463 -0.31523
 C286 C 0.19293 0.83660 -0.29416
 C287 C 0.16762 0.85886 -0.25949
 C288 C 0.14146 0.84688 -0.21493
 C289 C 0.11667 0.86871 -0.18678
 C290 C 0.11757 0.90283 -0.20305
 C291 C 0.14389 0.91467 -0.24703
 C292 C 0.16890 0.89300 -0.27425
 C293 C 0.09134 0.92670 -0.17642
 C294 C 0.07471 0.92316 -0.11321
 H295 H 0.21680 0.84747 -0.31431
 H296 H 0.14006 0.82075 -0.20180
 H297 H 0.09644 0.85871 -0.15371
 H298 H 0.14516 0.94084 -0.26029
 H299 H 0.18874 0.90282 -0.30857
 H300 H 0.08767 0.94967 -0.20456
 H301 H 0.16042 0.79298 -0.29717
 H302 H 0.08046 0.90191 -0.08118
 C303 C 0.29876 0.67151 -0.33092
 C304 C 0.31161 0.63943 -0.34365
 C305 C 0.33248 0.61991 -0.29469
 C306 C 0.33166 0.62598 -0.22419
 C307 C 0.35239 0.60720 -0.18041
 C308 C 0.37437 0.58206 -0.20586
 C309 C 0.37466 0.57552 -0.27615
 C310 C 0.35387 0.59426 -0.31994
 C311 C 0.39526 0.56253 -0.15703
 C312 C 0.42364 0.54239 -0.17514
 H313 H 0.30715 0.62818 -0.39278
 H314 H 0.31476 0.64470 -0.20207
 H315 H 0.35122 0.61234 -0.12629
 H316 H 0.39035 0.55571 -0.29767
 H317 H 0.35468 0.58883 -0.37396
 H318 H 0.38812 0.56456 -0.10359
 H319 H 0.29961 0.68080 -0.27944
 H320 H 0.43275 0.54094 -0.22739
 C321 C -0.18067 1.20431 -0.31935
 C322 C -0.18544 1.17027 -0.30735
 C323 C -0.16364 1.15078 -0.25994
 C324 C -0.15437 1.11819 -0.27806
 C325 C -0.13270 1.09920 -0.23644
 C326 C -0.12033 1.11224 -0.17500
 C327 C -0.13063 1.14440 -0.15546
 C328 C -0.15179 1.16372 -0.19793
 C329 C -0.09795 1.09207 -0.12980
 C330 C -0.07332 1.06965 -0.15572
 H331 H -0.20389 1.15663 -0.33776
 H332 H -0.16347 1.10759 -0.32526
 H333 H -0.12611 1.07411 -0.25189
 H334 H -0.12192 1.15470 -0.10772
 H335 H -0.15924 1.18846 -0.18165
 H336 H -0.10062 1.09523 -0.07519
 H337 H -0.16654 1.21783 -0.28129
 H338 H -0.06835 1.06882 -0.21013
 C339 C 0.68880 0.68785 -0.31488
 C340 C 0.66125 0.66596 -0.32722
 C341 C 0.64014 0.65015 -0.27233
 C342 C 0.60576 0.64073 -0.28608
 C343 C 0.58580 0.62356 -0.23742
 C344 C 0.60018 0.61460 -0.17426
 C345 C 0.63420 0.62509 -0.15961
 C346 C 0.65406 0.64261 -0.20814
 C347 C 0.58140 0.59287 -0.12455
 C348 C 0.55530 0.57084 -0.14418
 H349 H 0.65310 0.66197 -0.37919
 H350 H 0.59434 0.64651 -0.33494
 H351 H 0.55929 0.61718 -0.25005
 H352 H 0.64592 0.61864 -0.11140
 H353 H 0.68069 0.64904 -0.19622
 H354 H 0.59154 0.59082 -0.07342
 H355 H 0.69217 0.69589 -0.26287
 H356 H 0.54663 0.57067 -0.19634
 C357 C 0.16547 1.20013 -0.34246
 C358 C 0.16798 1.16607 -0.32938
 C359 C 0.14561 1.14856 -0.27917
 C360 C 0.15668 1.11775 -0.25356
 C361 C 0.13486 1.09904 -0.21085
 C362 C 0.10133 1.11077 -0.19337
 C363 C 0.09039 1.14175 -0.21847
 C364 C 0.11233 1.16059 -0.26078
 C365 C 0.07607 1.08996 -0.15511
 C366 C 0.08590 1.06368 -0.11294
 H367 H 0.18800 1.15174 -0.35562
 H368 H 0.18201 1.10779 -0.26787
 H369 H 0.14381 1.07482 -0.19430
 H370 H 0.06447 1.15105 -0.20655
 H371 H 0.10260 1.18382 -0.28114
 H372 H 0.04853 1.09481 -0.16246
 H373 H 0.15222 1.21502 -0.30436
 H374 H 0.11297 1.06014 -0.09967
 C375 C 0.29963 0.30836 -0.32205
 C376 C 0.32121 0.33588 -0.33273
 C377 C 0.34053 0.35249 -0.27790
 C378 C 0.37270 0.36724 -0.29409
 C379 C 0.39141 0.38418 -0.24460
 C380 C 0.37802 0.38718 -0.17788
 C381 C 0.34560 0.37279 -0.16176
 C382 C 0.32711 0.35525 -0.21114
 C383 C 0.39612 0.40758 -0.12672
 C384 C 0.43231 0.41117 -0.12705
 H385 H 0.32577 0.34463 -0.38433
 H386 H 0.38334 0.36575 -0.34539
 H387 H 0.41575 0.39591 -0.25940
 H388 H 0.33448 0.37533 -0.11103
 H389 H 0.30194 0.34485 -0.19757
 H390 H 0.38043 0.42131 -0.09007
 H391 H 0.29451 0.29971 -0.27062
 H392 H 0.44823 0.39532 -0.15943
 C393 C -0.19180 0.81472 -0.32591
 C394 C -0.18037 0.84683 -0.34111
 C395 C -0.16302 0.86821 -0.29095
 C396 C -0.13791 0.89093 -0.31439
 C397 C -0.11995 0.91078 -0.26856
 C398 C -0.12710 0.90855 -0.19828
 C399 C -0.15333 0.88692 -0.17494
 C400 C -0.17100 0.86664 -0.22084
 C401 C -0.10779 0.92906 -0.14933
 C402 C -0.07265 0.93638 -0.16003
 H403 H -0.18195 0.85577 -0.39313
 H404 H -0.13174 0.89291 -0.36827
 H405 H -0.10069 0.92809 -0.28831
 H406 H -0.15967 0.88530 -0.12110
 H407 H -0.19108 0.85013 -0.20142
 H408 H -0.12113 0.93791 -0.10388
 H409 H -0.19059 0.80549 -0.27413
 H410 H -0.05872 0.92492 -0.20225
 C411 C 0.29072 0.67289 0.31884
 C412 C 0.32211 0.67981 0.28518
 C413 C 0.33961 0.65605 0.23834
 C414 C 0.37589 0.65801 0.22948
 C415 C 0.39385 0.63466 0.18971
 C416 C 0.37573 0.60892 0.15691
 C417 C 0.33923 0.60774 0.16386
 C418 C 0.32130 0.63107 0.20389
 C419 C 0.39379 0.58176 0.11912
 C420 C 0.42948 0.58150 0.10391
 H421 H 0.33603 0.70216 0.29920
 H422 H 0.39059 0.67708 0.25530
 H423 H 0.42191 0.63654 0.18704
 H424 H 0.32454 0.58837 0.13902
 H425 H 0.29319 0.62932 0.20774
 H426 H 0.37856 0.56009 0.10586
 H427 H 0.27665 0.65014 0.30928
 H428 H 0.44540 0.60303 0.11381
 C429 C -0.19181 1.19095 0.32597
 C430 C -0.15667 1.18195 0.32502
 C431 C -0.14226 1.15640 0.27878
 C432 C -0.11404 1.13710 0.30080
 C433 C -0.10036 1.11188 0.25966
 C434 C -0.11456 1.10572 0.19526
 C435 C -0.14207 1.12572 0.17231
 C436 C -0.15600 1.15076 0.21380
 C437 C -0.09986 1.08004 0.14956
 C438 C -0.08203 1.05212 0.17322
 H439 H -0.13998 1.19142 0.36465
 H440 H -0.10278 1.14130 0.35037
 H441 H -0.07828 1.09778 0.27794
 H442 H -0.15290 1.12187 0.12226
 H443 H -0.17707 1.16588 0.19444
 H444 H -0.10302 1.08338 0.09516
 H445 H -0.20914 1.18221 0.28688
 H446 H -0.08078 1.04681 0.22722
 C447 C 0.69633 0.32668 0.32402
 C448 C 0.66110 0.32231 0.30956
 C449 C 0.64248 0.34257 0.25813
 C450 C 0.60634 0.34727 0.26544
 C451 C 0.58821 0.36770 0.22005
 C452 C 0.60594 0.38374 0.16600
 C453 C 0.64172 0.37759 0.15656
 C454 C 0.65988 0.35732 0.20217
 C455 C 0.58828 0.40761 0.11995
 C456 C 0.55965 0.42668 0.14092
 H457 H 0.64614 0.30488 0.34035
 H458 H 0.59219 0.33567 0.30731
 H459 H 0.56039 0.37087 0.22758
 H460 H 0.65588 0.38918 0.11469
 H461 H 0.68746 0.35326 0.19320
 H462 H 0.60070 0.41334 0.07141
 H463 H 0.71189 0.34436 0.29529
 H464 H 0.54865 0.42324 0.19148
 C465 C 0.18416 0.81262 0.33318
 C466 C 0.15024 0.82436 0.34357
 C467 C 0.13419 0.85058 0.30136
 C468 C 0.10720 0.86984 0.32993
 C469 C 0.09190 0.89556 0.29269
 C470 C 0.10334 0.90243 0.22579
 C471 C 0.12995 0.88279 0.19689
 C472 C 0.14526 0.85712 0.23414
 C473 C 0.08683 0.92808 0.18272
 C474 C 0.06387 0.95256 0.20652
 H475 H 0.13623 0.81642 0.38911
 H476 H 0.09805 0.86509 0.38150
 H477 H 0.07080 0.90940 0.31625
 H478 H 0.13878 0.88717 0.14498
 H479 H 0.16527 0.84225 0.20956
 H480 H 0.09221 0.92685 0.12844
 H481 H 0.19889 0.81909 0.28773
 H482 H 0.05905 0.95616 0.26035
   
