data_POSCAR
  _audit_creation_date              2014-09-24
  _audit_creation_method            'ToBaCCo'
  _symmetry_space_group_name_H-M    'P1'
  _symmetry_Int_Tables_number       1
  _symmetry_cell_setting            triclinic
  loop_
  _symmetry_equiv_pos_as_xyz
 x,y,z
_cell_length_a 48.3021
_cell_length_b 49.8301
_cell_length_c 50.8215
_cell_angle_alpha 87.969300
_cell_angle_beta 87.889000
_cell_angle_gamma 91.150600
loop_
  _atom_site_label
  _atom_site_type_symbol
  _atom_site_fract_x
  _atom_site_fract_y
  _atom_site_fract_z
N1 N 0.17255 0.22435 0.18914
 N2 N 0.17844 0.20698 0.20826
 C3 C 0.15804 0.20708 0.22710
 C4 C 0.13844 0.22531 0.21927
 C5 C 0.14824 0.23577 0.19518
 H6 H 0.15720 0.19441 0.24483
 H7 H 0.13812 0.25043 0.18287
 Cu8 Cu 0.21181 0.18458 0.20700
 Cu9 Cu 0.19627 0.23080 0.15713
 Cu10 Cu 0.24930 0.18920 0.14991
 N11 N 0.24598 0.16470 0.20157
 N12 N 0.26107 0.16746 0.17954
 C13 C 0.28350 0.15206 0.18118
 C14 C 0.28228 0.13854 0.20531
 C15 C 0.25816 0.14696 0.21788
 H16 H 0.29913 0.15007 0.16562
 H17 H 0.25001 0.14059 0.23726
 N18 N 0.24311 0.21770 0.12411
 N19 N 0.22238 0.23414 0.12700
 C20 C 0.22300 0.25203 0.10649
 C21 C 0.24541 0.24638 0.08993
 C22 C 0.25763 0.22449 0.10170
 H23 H 0.20825 0.26785 0.10390
 H24 H 0.27588 0.21440 0.09453
 H25 H 0.20196 0.19079 0.16818
 H26 H 0.22569 0.21605 0.18237
 N27 N 0.65342 0.71243 0.71223
 N28 N 0.65596 0.69348 0.73057
 C29 C 0.63612 0.69646 0.74962
 C30 C 0.62053 0.71848 0.74251
 C31 C 0.63206 0.72797 0.71877
 H32 H 0.63320 0.68365 0.76715
 H33 H 0.62538 0.74511 0.70720
 Cu34 Cu 0.68513 0.66712 0.72708
 Cu35 Cu 0.67808 0.71635 0.68147
 Cu36 Cu 0.72978 0.66981 0.67405
 N37 N 0.71360 0.64036 0.72224
 N38 N 0.73114 0.64157 0.70176
 C39 C 0.74869 0.62093 0.70371
 C40 C 0.74166 0.60600 0.72661
 C41 C 0.71933 0.61888 0.73777
 H42 H 0.76523 0.61711 0.68951
 H43 H 0.70826 0.61302 0.75602
 N44 N 0.72458 0.70003 0.64835
 N45 N 0.70470 0.71754 0.65154
 C46 C 0.70612 0.73577 0.63144
 C47 C 0.72796 0.72967 0.61459
 C48 C 0.73922 0.70681 0.62583
 H49 H 0.69214 0.75226 0.62926
 H50 H 0.75682 0.69606 0.61818
 H51 H 0.68820 0.67592 0.67959
 H52 H 0.71231 0.69794 0.69754
 N53 N 0.36406 0.77139 0.70477
 N54 N 0.35881 0.79011 0.72171
 C55 C 0.37829 0.78980 0.73998
 C56 C 0.39674 0.76979 0.73412
 C57 C 0.38709 0.75853 0.71165
 H58 H 0.37888 0.80306 0.75632
 H59 H 0.39614 0.74214 0.70115
 Cu60 Cu 0.32710 0.81301 0.71807
 Cu61 Cu 0.34073 0.76557 0.67499
 Cu62 Cu 0.27987 0.80169 0.67243
 N63 N 0.29565 0.83601 0.71391
 N64 N 0.27673 0.83137 0.69657
 C65 C 0.25723 0.85032 0.69829
 C66 C 0.26463 0.86771 0.71773
 C67 C 0.28901 0.85801 0.72710
 H68 H 0.23944 0.85157 0.68602
 H69 H 0.30105 0.86654 0.74239
 N70 N 0.28785 0.77111 0.64965
 N71 N 0.31113 0.75771 0.65065
 C72 C 0.31063 0.73816 0.63311
 C73 C 0.28609 0.73935 0.62021
 C74 C 0.27202 0.76049 0.63111
 H75 H 0.32692 0.72392 0.62992
 H76 H 0.25181 0.76752 0.62604
 H77 H 0.32192 0.80313 0.67175
 H78 H 0.30496 0.77724 0.69474
 N79 N 0.85235 0.27386 0.22513
 N80 N 0.84577 0.29325 0.24097
 C81 C 0.86316 0.29348 0.26095
 C82 C 0.88182 0.27326 0.25764
 C83 C 0.87447 0.26104 0.23463
 H84 H 0.86271 0.30770 0.27655
 H85 H 0.88445 0.24439 0.22538
 Cu86 Cu 0.81588 0.31719 0.23386
 Cu87 Cu 0.83162 0.26764 0.19321
 Cu88 Cu 0.78168 0.31486 0.17832
 N89 N 0.79199 0.34596 0.22343
 N90 N 0.77757 0.34445 0.20210
 C91 C 0.76175 0.36629 0.19991
 C92 C 0.76683 0.38234 0.22097
 C93 C 0.78624 0.36896 0.23536
 H94 H 0.74795 0.37032 0.18404
 H95 H 0.79520 0.37536 0.25336
 N96 N 0.78913 0.28362 0.15674
 N97 N 0.80802 0.26557 0.16204
 C98 C 0.80828 0.24740 0.14290
 C99 C 0.78868 0.25463 0.12484
 C100 C 0.77705 0.27753 0.13426
 H101 H 0.82202 0.23058 0.14190
 H102 H 0.76116 0.28913 0.12503
 H103 H 0.82244 0.30744 0.18765
 H104 H 0.79527 0.28529 0.20451
 N105 N 0.82957 0.72328 0.29581
 N106 N 0.82519 0.70425 0.27888
 C107 C 0.84598 0.70548 0.26026
 C108 C 0.86413 0.72621 0.26604
 C109 C 0.85306 0.73690 0.28857
 H110 H 0.84811 0.69200 0.24414
 H111 H 0.86192 0.75327 0.29911
 Cu112 Cu 0.79309 0.67859 0.28303
 Cu113 Cu 0.80541 0.72926 0.32693
 Cu114 Cu 0.75092 0.68728 0.33612
 N115 N 0.76008 0.65553 0.29097
 N116 N 0.74370 0.65926 0.31172
 C117 C 0.72285 0.64095 0.31258
 C118 C 0.72615 0.62475 0.29141
 C119 C 0.75006 0.63446 0.27793
 H120 H 0.70643 0.63921 0.32763
 H121 H 0.75949 0.62681 0.26017
 N122 N 0.75813 0.71535 0.36058
 N123 N 0.77924 0.73211 0.35671
 C124 C 0.77922 0.74979 0.37621
 C125 C 0.75676 0.74347 0.39318
 C126 C 0.74392 0.72155 0.38280
 H127 H 0.79448 0.76569 0.37798
 H128 H 0.72555 0.71103 0.39083
 H129 H 0.79959 0.68829 0.32134
 H130 H 0.77828 0.71166 0.30139
 N131 N 0.34273 0.21170 -0.23071
 N132 N 0.33804 0.18860 -0.24191
 C133 C 0.35522 0.18690 -0.26322
 C134 C 0.37174 0.20982 -0.26553
 C135 C 0.36327 0.22522 -0.24456
 H136 H 0.35586 0.17009 -0.27612
 H137 H 0.37155 0.24460 -0.23955
 Cu138 Cu 0.30971 0.16198 -0.22867
 Cu139 Cu 0.32237 0.22235 -0.19823
 Cu140 Cu 0.26998 0.18052 -0.17763
 N141 N 0.27592 0.14211 -0.21744
 N142 N 0.26009 0.14945 -0.19752
 C143 C 0.23827 0.13226 -0.19430
 C144 C 0.24068 0.11304 -0.21309
 C145 C 0.26486 0.11984 -0.22751
 H146 H 0.22184 0.13348 -0.17939
 H147 H 0.27370 0.10960 -0.24412
 N148 N 0.28004 0.21147 -0.15773
 N149 N 0.30000 0.22837 -0.16604
 C150 C 0.30188 0.24830 -0.14879
 C151 C 0.28201 0.24331 -0.12869
 C152 C 0.26872 0.21984 -0.13500
 H153 H 0.31670 0.26487 -0.15059
 H154 H 0.25186 0.20977 -0.12380
 H155 H 0.31817 0.18181 -0.19403
 H156 H 0.29425 0.19837 -0.21727
 N157 N 0.64790 0.27665 -0.20509
 N158 N 0.65558 0.29492 -0.22330
 C159 C 0.63603 0.29656 -0.24148
 C160 C 0.61491 0.27828 -0.23401
 C161 C 0.62310 0.26613 -0.21084
 H162 H 0.63715 0.31013 -0.25857
 H163 H 0.61203 0.25042 -0.19929
 Cu164 Cu 0.69018 0.31493 -0.22114
 Cu165 Cu 0.67145 0.26681 -0.17637
 Cu166 Cu 0.72856 0.30802 -0.16688
 N167 N 0.71765 0.34164 -0.21248
 N168 N 0.73295 0.33922 -0.19166
 C169 C 0.75000 0.36103 -0.19109
 C170 C 0.74473 0.37786 -0.21264
 C171 C 0.72413 0.36490 -0.22561
 H172 H 0.76478 0.36450 -0.17603
 H173 H 0.71448 0.37199 -0.24335
 N174 N 0.71946 0.27515 -0.14449
 N175 N 0.69757 0.25973 -0.14852
 C176 C 0.69697 0.23861 -0.13136
 C177 C 0.71930 0.24065 -0.11553
 C178 C 0.73329 0.26413 -0.12425
 H179 H 0.68154 0.22254 -0.13052
 H180 H 0.75227 0.27225 -0.11680
 H181 H 0.68731 0.30618 -0.17394
 H182 H 0.71010 0.28194 -0.19133
 N183 N 0.15407 0.78738 0.27640
 N184 N 0.16586 0.80464 0.25902
 C185 C 0.15006 0.80669 0.23782
 C186 C 0.12711 0.79001 0.24202
 C187 C 0.13023 0.77796 0.26675
 H188 H 0.15472 0.81948 0.22053
 H189 H 0.11628 0.76354 0.27698
 Cu190 Cu 0.20054 0.82321 0.26554
 Cu191 Cu 0.17056 0.77896 0.31037
 Cu192 Cu 0.23311 0.81133 0.32140
 N193 N 0.23532 0.84155 0.27246
 N194 N 0.24870 0.83537 0.29380
 C195 C 0.27180 0.85074 0.29437
 C196 C 0.27269 0.86802 0.27260
 C197 C 0.24926 0.86163 0.25890
 H198 H 0.28598 0.85068 0.31036
 H199 H 0.24250 0.87121 0.24091
 N200 N 0.21449 0.78656 0.34726
 N201 N 0.19095 0.77362 0.34335
 C202 C 0.18367 0.75885 0.36548
 C203 C 0.20351 0.76333 0.38398
 C204 C 0.22249 0.78091 0.37179
 H205 H 0.16495 0.74666 0.36828
 H206 H 0.24067 0.78927 0.38052
 H207 H 0.19135 0.81511 0.31261
 H208 H 0.21036 0.78709 0.29713
 N209 N 0.45670 0.40491 0.48295
 N210 N 0.43347 0.40752 0.49684
 C211 C 0.43236 0.38945 0.51711
 C212 C 0.45598 0.37447 0.51587
 C213 C 0.47112 0.38472 0.49390
 H214 H 0.41564 0.38741 0.53184
 H215 H 0.49122 0.37839 0.48673
 Cu216 Cu 0.40671 0.43432 0.48782
 Cu217 Cu 0.46632 0.42878 0.45232
 Cu218 Cu 0.42227 0.48228 0.44185
 N219 N 0.38507 0.46648 0.48513
 N220 N 0.39106 0.48543 0.46706
 C221 C 0.37252 0.50518 0.46938
 C222 C 0.35404 0.49804 0.49010
 C223 C 0.36267 0.47345 0.49960
 H224 H 0.37241 0.52316 0.45686
 H225 H 0.35315 0.46145 0.51576
 N226 N 0.45486 0.47553 0.41863
 N227 N 0.47184 0.45542 0.42255
 C228 C 0.49121 0.45587 0.40267
 C229 C 0.48596 0.47722 0.38548
 C230 C 0.46284 0.48911 0.39619
 H231 H 0.50725 0.44122 0.40035
 H232 H 0.45220 0.50606 0.38776
 H233 H 0.44559 0.46024 0.46811
 H234 H 0.42702 0.44064 0.44329
 N235 N -0.02141 -0.09281 0.98601
 N236 N -0.04419 -0.08450 0.99779
 C237 C -0.04918 -0.09917 1.02029
 C238 C -0.02844 -0.11767 1.02279
 C239 C -0.01113 -0.11308 1.00063
 H240 H -0.06672 -0.09672 1.03378
 H241 H 0.00736 -0.12379 0.99530
 Cu242 Cu -0.06547 -0.05547 0.98274
 Cu243 Cu -0.00714 -0.07703 0.95235
 Cu244 Cu -0.03904 -0.01952 0.93007
 N245 N -0.07978 -0.02062 0.97257
 N246 N -0.06900 -0.00638 0.95233
 C247 C -0.08272 0.01675 0.94979
 C248 C -0.10330 0.01692 0.96934
 C249 C -0.10087 -0.00712 0.98352
 H250 H -0.07851 0.03209 0.93449
 H251 H -0.11343 -0.01432 1.00046
 N252 N -0.00848 -0.03603 0.91033
 N253 N 0.00392 -0.05790 0.91875
 C254 C 0.02385 -0.06409 0.90082
 C255 C 0.02380 -0.04531 0.88012
 C256 C 0.00305 -0.02781 0.88685
 H257 H 0.03731 -0.08110 0.90250
 H258 H -0.00320 -0.01032 0.87558
 H259 H -0.02199 -0.03990 0.96157
 H260 H -0.04331 -0.06042 0.93930
 N261 N 1.02252 0.60743 0.96985
 N262 N 1.04149 0.60166 0.98693
 C263 C 1.04329 0.62162 1.00397
 C264 C 1.02459 0.64105 0.99691
 C265 C 1.01186 0.63145 0.97516
 H266 H 1.05743 0.62201 1.01996
 H267 H 0.99581 0.64115 0.96425
 Cu268 Cu 1.06231 0.56872 0.98545
 Cu269 Cu 1.01259 0.58222 0.94341
 Cu270 Cu 1.05854 0.53588 0.92637
 N271 N 1.08929 0.54206 0.97403
 N272 N 1.08835 0.52985 0.95143
 C273 C 1.11076 0.51429 0.94885
 C274 C 1.12657 0.51718 0.97084
 C275 C 1.11234 0.53487 0.98629
 H276 H 1.11552 0.50238 0.93196
 H277 H 1.11879 0.54256 1.00478
 N278 N 1.02246 0.53809 0.91025
 N279 N 1.00427 0.55595 0.91746
 C280 C 0.98180 0.55374 0.90280
 C281 C 0.98624 0.53377 0.88515
 C282 C 1.01231 0.52416 0.89036
 H283 H 0.96392 0.56641 0.90407
 H284 H 1.02334 0.50865 0.88024
 H285 H 1.03907 0.54459 0.96066
 H286 H 1.06164 0.57222 0.94555
 N287 N 0.51828 0.09733 0.47039
 N288 N 0.53791 0.09017 0.48631
 C289 C 0.54205 0.11001 0.50332
 C290 C 0.52417 0.13061 0.49723
 C291 C 0.50966 0.12189 0.47627
 H292 H 0.55718 0.10963 0.51849
 H293 H 0.49385 0.13278 0.46612
 Cu294 Cu 0.55602 0.05545 0.48295
 Cu295 Cu 0.50507 0.07413 0.44363
 Cu296 Cu 0.54470 0.02454 0.42361
 N297 N 0.57826 0.02508 0.47021
 N298 N 0.57394 0.01377 0.44755
 C299 C 0.59181 -0.00630 0.44435
 C300 C 0.60836 -0.00772 0.46583
 C301 C 0.59932 0.01254 0.48191
 H302 H 0.59262 -0.01918 0.42767
 H303 H 0.60732 0.01767 0.50072
 N304 N 0.50881 0.03107 0.40862
 N305 N 0.49276 0.05021 0.41697
 C306 C 0.47030 0.05143 0.40211
 C307 C 0.47255 0.03226 0.38326
 C308 C 0.49729 0.01961 0.38795
 H309 H 0.45420 0.06610 0.40383
 H310 H 0.50676 0.00392 0.37678
 H311 H 0.52881 0.03440 0.45956
 H312 H 0.55321 0.05996 0.44354
 N313 N -0.02652 0.10426 0.53906
 N314 N -0.04493 0.10039 0.52109
 C315 C -0.04267 0.12040 0.50268
 C316 C -0.02160 0.13776 0.50942
 C317 C -0.01186 0.12698 0.53265
 H318 H -0.05538 0.12203 0.48567
 H319 H 0.00489 0.13491 0.54382
 Cu320 Cu -0.06979 0.06944 0.52270
 Cu321 Cu -0.02269 0.07908 0.56886
 Cu322 Cu -0.07149 0.02712 0.57570
 N323 N -0.09961 0.04329 0.52921
 N324 N -0.09977 0.02623 0.54953
 C325 C -0.12244 0.01017 0.54913
 C326 C -0.13730 0.01774 0.52741
 C327 C -0.12232 0.03887 0.51529
 H328 H -0.12796 -0.00537 0.56387
 H329 H -0.12760 0.05018 0.49769
 N330 N -0.04128 0.03165 0.60011
 N331 N -0.02259 0.05136 0.59753
 C332 C -0.00504 0.04914 0.61745
 C333 C -0.01327 0.02705 0.63331
 C334 C -0.03626 0.01652 0.62180
 H335 H 0.01210 0.06284 0.62043
 H336 H -0.04848 -0.00086 0.62887
 H337 H -0.03968 0.04549 0.55262
 H338 H -0.06418 0.06810 0.57002
 N339 N 0.46693 0.60480 0.05223
 N340 N 0.45081 0.59787 0.03322
 C341 C 0.45214 0.61740 0.01413
 C342 C 0.47013 0.63746 0.02183
 C343 C 0.47907 0.62877 0.04602
 H344 H 0.44082 0.61703 -0.00382
 H345 H 0.49346 0.63912 0.05816
 Cu346 Cu 0.42929 0.56414 0.03542
 Cu347 Cu 0.47096 0.58200 0.08317
 Cu348 Cu 0.44399 0.51941 0.08700
 N349 N 0.40996 0.52903 0.04143
 N350 N 0.41555 0.51197 0.06093
 C351 C 0.39871 0.49018 0.05985
 C352 C 0.38163 0.49376 0.03885
 C353 C 0.38934 0.51860 0.02757
 H354 H 0.39857 0.47302 0.07349
 H355 H 0.38058 0.52842 0.01061
 N356 N 0.47299 0.53110 0.11033
 N357 N 0.48389 0.55549 0.10807
 C358 C 0.50429 0.55794 0.12510
 C359 C 0.50611 0.53400 0.13918
 C360 C 0.48593 0.51724 0.12942
 H361 H 0.51699 0.57583 0.12708
 H362 H 0.48152 0.49645 0.13521
 H363 H 0.45924 0.54442 0.05638
 H364 H 0.42864 0.55641 0.07583
 N365 N 0.53011 -0.08585 0.01366
 N366 N 0.55122 -0.07563 -0.00069
 C367 C 0.55638 -0.09167 -0.02108
 C368 C 0.53749 -0.11298 -0.01934
 C369 C 0.52115 -0.10861 0.00299
 H370 H 0.57256 -0.08817 -0.03615
 H371 H 0.50391 -0.12090 0.01090
 Cu372 Cu 0.56946 -0.04213 0.00871
 Cu373 Cu 0.51532 -0.06894 0.04499
 Cu374 Cu 0.54801 -0.01017 0.06268
 N375 N 0.58796 -0.00917 0.01931
 N376 N 0.57918 0.00319 0.04036
 C377 C 0.59541 0.02498 0.04363
 C378 C 0.61554 0.02646 0.02366
 C379 C 0.61028 0.00442 0.00849
 H380 H 0.59316 0.03850 0.05972
 H381 H 0.62205 -0.00155 -0.00874
 N382 N 0.51614 -0.02664 0.08283
 N383 N 0.50341 -0.04889 0.07603
 C384 C 0.48227 -0.05467 0.09353
 C385 C 0.48190 -0.03528 0.11227
 C386 C 0.50362 -0.01780 0.10486
 H387 H 0.46827 -0.07182 0.09290
 H388 H 0.50971 0.00017 0.11462
 H389 H 0.52773 -0.03025 0.03384
 H390 H 0.55209 -0.05022 0.05401
 N391 N 1.01538 0.38849 0.52477
 N392 N 1.03575 0.39469 0.50764
 C393 C 1.03627 0.37648 0.48867
 C394 C 1.01511 0.35779 0.49441
 C395 C 1.00232 0.36602 0.51741
 H396 H 1.05101 0.37685 0.47211
 H397 H 0.98476 0.35633 0.52791
 Cu398 Cu 1.05952 0.42629 0.51108
 Cu399 Cu 1.00748 0.41077 0.55465
 Cu400 Cu 1.05551 0.45516 0.57235
 N401 N 1.08744 0.45207 0.52291
 N402 N 1.08606 0.46285 0.54628
 C403 C 1.10793 0.47972 0.54834
 C404 C 1.12392 0.47930 0.52520
 C405 C 1.11043 0.46149 0.50963
 H406 H 1.11178 0.49146 0.56536
 H407 H 1.11682 0.45602 0.48995
 N408 N 1.01867 0.45305 0.58936
 N409 N 0.99957 0.43592 0.58219
 C410 C 0.97680 0.43798 0.59800
 C411 C 0.98200 0.45723 0.61619
 C412 C 1.00883 0.46643 0.61015
 H413 H 0.95817 0.42569 0.59709
 H414 H 1.02065 0.48119 0.62037
 H415 H 1.03673 0.44866 0.53835
 H416 H 1.05742 0.41999 0.55081
 C417 C 0.34773 -0.02020 0.24253
 C418 C 0.36297 0.00351 0.24615
 C419 C 0.34920 0.02787 0.24869
 C420 C 0.32016 0.02854 0.24743
 C421 C 0.30514 0.00458 0.24434
 C422 C 0.31867 -0.01986 0.24197
 C423 C 0.39340 0.00270 0.24661
 C424 C 0.40894 -0.00020 0.22306
 C425 C 0.43794 -0.00148 0.22330
 C426 C 0.45114 -0.00014 0.24730
 C427 C 0.43589 0.00231 0.27106
 C428 C 0.40684 0.00388 0.27059
 H429 H 0.35864 -0.03876 0.24002
 H430 H 0.36110 0.04614 0.25148
 H431 H 0.39840 -0.00085 0.20463
 H432 H 0.39450 0.00518 0.28870
 H433 H 0.28274 0.00499 0.24357
 H434 H 0.47354 -0.00117 0.24747
 C435 C 0.15370 -0.03581 0.73337
 C436 C 0.14336 -0.01143 0.74196
 C437 C 0.16162 0.00965 0.74741
 C438 C 0.19042 0.00658 0.74427
 C439 C 0.20053 -0.01788 0.73553
 C440 C 0.18234 -0.03936 0.73040
 C441 C 0.11338 -0.00702 0.74295
 C442 C 0.09755 -0.01187 0.76638
 C443 C 0.06902 -0.00649 0.76731
 C444 C 0.05678 0.00375 0.74450
 C445 C 0.07255 0.00839 0.72091
 C446 C 0.10090 0.00320 0.72043
 H447 H 0.13942 -0.05191 0.72882
 H448 H 0.15314 0.02867 0.75297
 H449 H 0.10776 -0.01895 0.78383
 H450 H 0.11337 0.00711 0.70246
 H451 H 0.22266 -0.01986 0.73223
 H452 H 0.03502 0.00862 0.74536
 C453 C 0.65086 0.47005 0.23846
 C454 C 0.63770 0.49210 0.24931
 C455 C 0.65278 0.51612 0.25243
 C456 C 0.68110 0.51812 0.24455
 C457 C 0.69390 0.49577 0.23378
 C458 C 0.67908 0.47153 0.23117
 C459 C 0.60771 0.49018 0.25574
 C460 C 0.59772 0.48490 0.28173
 C461 C 0.56914 0.48134 0.28735
 C462 C 0.55072 0.48277 0.26651
 C463 C 0.56047 0.48836 0.24053
 C464 C 0.58911 0.49176 0.23528
 H465 H 0.63909 0.45161 0.23597
 H466 H 0.64211 0.53325 0.26006
 H467 H 0.61220 0.48331 0.29747
 H468 H 0.59722 0.49497 0.21524
 H469 H 0.71550 0.49737 0.22730
 H470 H 0.52870 0.47932 0.27033
 C471 C 0.85892 0.47535 0.77028
 C472 C 0.87335 0.49603 0.75587
 C473 C 0.85856 0.51624 0.74306
 C474 C 0.82951 0.51641 0.74511
 C475 C 0.81521 0.49510 0.75908
 C476 C 0.82987 0.47419 0.77134
 C477 C 0.90397 0.49640 0.75410
 C478 C 0.91803 0.49660 0.72942
 C479 C 0.94716 0.49627 0.72769
 C480 C 0.96201 0.49690 0.75086
 C481 C 0.94829 0.49717 0.77564
 C482 C 0.91914 0.49635 0.77713
 H483 H 0.87040 0.45951 0.77983
 H484 H 0.86978 0.53231 0.73209
 H485 H 0.90618 0.49687 0.71175
 H486 H 0.90806 0.49573 0.79605
 H487 H 0.79282 0.49467 0.76022
 H488 H 0.98447 0.49711 0.74960
 C489 C 0.27368 0.36294 -0.04796
 C490 C 0.26254 0.37648 -0.02644
 C491 C 0.25324 0.36200 -0.00362
 C492 C 0.25546 0.33403 -0.00178
 C493 C 0.26641 0.32052 -0.02356
 C494 C 0.27512 0.33481 -0.04696
 C495 C 0.25980 0.40580 -0.02778
 C496 C 0.23478 0.41699 -0.03523
 C497 C 0.23113 0.44479 -0.03473
 C498 C 0.25317 0.46144 -0.02728
 C499 C 0.27832 0.45044 -0.01959
 C500 C 0.28151 0.42245 -0.02002
 H501 H 0.28050 0.37427 -0.06571
 H502 H 0.24448 0.37264 0.01287
 H503 H 0.21791 0.40393 -0.04077
 H504 H 0.30077 0.41344 -0.01455
 H505 H 0.26788 0.29892 -0.02239
 H506 H 0.25083 0.48302 -0.02738
 C507 C 0.76289 0.15818 -0.01729
 C508 C 0.76704 0.13985 0.00375
 C509 C 0.77650 0.14918 0.02763
 C510 C 0.78135 0.17669 0.03083
 C511 C 0.77793 0.19476 0.00933
 C512 C 0.76850 0.18582 -0.01471
 C513 C 0.76300 0.11072 0.00036
 C514 C 0.78595 0.09391 0.00129
 C515 C 0.78272 0.06622 -0.00226
 C516 C 0.75635 0.05546 -0.00640
 C517 C 0.73318 0.07184 -0.00707
 C518 C 0.73654 0.09964 -0.00382
 H519 H 0.75647 0.15056 -0.03583
 H520 H 0.77963 0.13500 0.04387
 H521 H 0.80620 0.10245 0.00489
 H522 H 0.71880 0.11257 -0.00457
 H523 H 0.78276 0.21591 0.01112
 H524 H 0.75380 0.03404 -0.00898
 C525 C 0.21190 0.65820 0.48416
 C526 C 0.22334 0.64738 0.50700
 C527 C 0.22867 0.66388 0.52803
 C528 C 0.22276 0.69142 0.52633
 C529 C 0.21080 0.70195 0.50349
 C530 C 0.20585 0.68556 0.48200
 C531 C 0.22848 0.61843 0.50927
 C532 C 0.25354 0.60802 0.49975
 C533 C 0.25804 0.58027 0.50150
 C534 C 0.23656 0.56297 0.51183
 C535 C 0.21129 0.57330 0.52107
 C536 C 0.20768 0.60110 0.52025
 H537 H 0.20786 0.64525 0.46797
 H538 H 0.23681 0.65499 0.54581
 H539 H 0.26958 0.62153 0.49123
 H540 H 0.18827 0.60928 0.52735
 H541 H 0.20554 0.72297 0.50259
 H542 H 0.23934 0.54148 0.51252
 C543 C 0.74515 0.85545 0.48310
 C544 C 0.73563 0.86710 0.50635
 C545 C 0.72811 0.85072 0.52852
 C546 C 0.73064 0.82276 0.52790
 C547 C 0.73968 0.81121 0.50434
 C548 C 0.74664 0.82744 0.48171
 C549 C 0.73697 0.89643 0.50872
 C550 C 0.71343 0.91222 0.50576
 C551 C 0.71504 0.94006 0.50975
 C552 C 0.74034 0.95168 0.51664
 C553 C 0.76400 0.93601 0.51922
 C554 C 0.76204 0.90840 0.51547
 H555 H 0.75146 0.86823 0.46614
 H556 H 0.72140 0.85990 0.54664
 H557 H 0.69394 0.90268 0.50119
 H558 H 0.78006 0.89606 0.51799
 H559 H 0.74145 0.78967 0.50369
 H560 H 0.74139 0.97294 0.52038
 C561 C -0.01047 0.23712 0.32845
 C562 C 0.01308 0.23783 0.34374
 C563 C 0.03928 0.23383 0.33197
 C564 C 0.04213 0.22907 0.30499
 C565 C 0.01832 0.22828 0.28983
 C566 C -0.00796 0.23284 0.30124
 C567 C 0.01007 0.24099 0.37240
 C568 C -0.00164 0.21987 0.38825
 C569 C -0.00378 0.22181 0.41565
 C570 C 0.00457 0.24579 0.42703
 C571 C 0.01536 0.26763 0.41126
 C572 C 0.01885 0.26474 0.38394
 H573 H -0.03064 0.23949 0.33799
 H574 H 0.05740 0.23402 0.34394
 H575 H -0.00835 0.20157 0.37923
 H576 H 0.02764 0.28117 0.37159
 H577 H 0.02005 0.22396 0.26912
 H578 H 0.00259 0.24744 0.44815
 C579 C -0.02787 0.74298 0.15926
 C580 C -0.00147 0.75134 0.14945
 C581 C 0.01979 0.75596 0.16689
 C582 C 0.01487 0.75230 0.19428
 C583 C -0.01169 0.74394 0.20380
 C584 C -0.03333 0.73954 0.18649
 C585 C 0.00488 0.75232 0.12086
 C586 C 0.00418 0.77659 0.10595
 C587 C 0.01161 0.77717 0.07887
 C588 C 0.01955 0.75337 0.06707
 C589 C 0.01943 0.72891 0.08167
 C590 C 0.01252 0.72867 0.10866
 H591 H -0.04407 0.73894 0.14565
 H592 H 0.04030 0.76117 0.15879
 H593 H -0.00145 0.79487 0.11555
 H594 H 0.01292 0.70999 0.12025
 H595 H -0.01518 0.74026 0.22479
 H596 H 0.02587 0.75403 0.04638
 C597 C 0.48047 0.25453 0.65496
 C598 C 0.50587 0.25767 0.64064
 C599 C 0.52950 0.26663 0.65317
 C600 C 0.52815 0.27238 0.67992
 C601 C 0.50256 0.26993 0.69394
 C602 C 0.47874 0.26071 0.68181
 C603 C 0.50787 0.25335 0.61214
 C604 C 0.50428 0.27511 0.59447
 C605 C 0.50879 0.27230 0.56723
 C606 C 0.51739 0.24750 0.55802
 C607 C 0.52038 0.22520 0.57550
 C608 C 0.51594 0.22848 0.60265
 H609 H 0.46215 0.24816 0.64501
 H610 H 0.54902 0.26907 0.64201
 H611 H 0.49903 0.29439 0.60223
 H612 H 0.51892 0.21178 0.61643
 H613 H 0.50103 0.27528 0.71441
 H614 H 0.52192 0.24582 0.53714
 C615 C 0.48144 0.76730 0.85039
 C616 C 0.50175 0.75636 0.86628
 C617 C 0.52460 0.74378 0.85471
 C618 C 0.52762 0.74253 0.82726
 C619 C 0.50668 0.75294 0.81149
 C620 C 0.48332 0.76500 0.82299
 C621 C 0.49748 0.75543 0.89508
 C622 C 0.48907 0.73111 0.90781
 C623 C 0.48384 0.72959 0.93506
 C624 C 0.48685 0.75294 0.94956
 C625 C 0.49569 0.77742 0.93714
 C626 C 0.50078 0.77860 0.90966
 H627 H 0.46343 0.77635 0.85952
 H628 H 0.54005 0.73501 0.86715
 H629 H 0.48643 0.71334 0.89636
 H630 H 0.50671 0.79740 0.89947
 H631 H 0.50834 0.75135 0.79035
 H632 H 0.48201 0.75228 0.97055
 C633 C 0.11180 0.23181 0.23224
 C634 C 0.10454 0.22363 0.25688
 C635 C 0.07708 0.23003 0.26820
 C636 C 0.06998 0.22386 0.29339
 H637 H 0.11867 0.21211 0.26863
 H638 H 0.06259 0.24012 0.25566
 H639 H 0.09768 0.24391 0.22101
 H640 H 0.08528 0.21534 0.30614
 C641 C 0.59661 0.73040 0.75603
 C642 C 0.58674 0.72242 0.77995
 C643 C 0.56257 0.73589 0.79150
 C644 C 0.55220 0.72933 0.81566
 H645 H 0.59629 0.70621 0.79084
 H646 H 0.55344 0.75188 0.77997
 H647 H 0.58683 0.74687 0.74567
 H648 H 0.56256 0.71445 0.82763
 C649 C 0.42130 0.76150 0.74846
 C650 C 0.42921 0.77340 0.77021
 C651 C 0.45337 0.76399 0.78444
 C652 C 0.46030 0.77486 0.80706
 H653 H 0.41765 0.78998 0.77790
 H654 H 0.46480 0.74731 0.77678
 H655 H 0.43304 0.74490 0.74099
 H656 H 0.44751 0.79047 0.81509
 C657 C -0.09658 0.26814 0.27447
 C658 C -0.07717 0.24981 0.27058
 C659 C -0.05453 0.24758 0.28917
 C660 C -0.03222 0.23290 0.28417
 H661 H -0.07732 0.23735 0.25354
 H662 H -0.05548 0.25960 0.30651
 H663 H -0.09528 0.28059 0.29150
 H664 H -0.03077 0.22229 0.26592
 C665 C -0.10929 0.73520 0.25317
 C666 C -0.09925 0.72645 0.23026
 C667 C -0.07182 0.73645 0.22000
 C668 C -0.06132 0.73013 0.19635
 H669 H -0.11091 0.71204 0.21938
 H670 H -0.06010 0.74964 0.23215
 H671 H -0.09736 0.75003 0.26334
 H672 H -0.07385 0.71837 0.18354
 C673 C 0.39287 0.21484 0.71521
 C674 C 0.40948 0.23669 0.71445
 C675 C 0.43303 0.23969 0.69511
 C676 C 0.45254 0.25867 0.69789
 H677 H 0.40674 0.25193 0.72894
 H678 H 0.43538 0.22523 0.67980
 H679 H 0.39633 0.19972 0.70069
 H680 H 0.45048 0.27179 0.71440
 C681 C 0.59046 0.27229 0.75346
 C682 C 0.58421 0.28293 0.72995
 C683 C 0.55822 0.27501 0.71790
 C684 C 0.55362 0.28122 0.69267
 H685 H 0.59835 0.29687 0.71923
 H686 H 0.54312 0.26294 0.72965
 H687 H 0.57619 0.25774 0.76325
 H688 H 0.56973 0.29162 0.68060
 C689 C 0.10481 0.78681 0.22325
 C690 C 0.08198 0.77165 0.22834
 C691 C 0.06060 0.76961 0.20844
 C692 C 0.03711 0.75536 0.21349
 H693 H 0.07899 0.76080 0.24711
 H694 H 0.06412 0.78033 0.18968
 H695 H 0.10732 0.79771 0.20443
 H696 H 0.03368 0.74591 0.23292
 C697 C 0.30198 0.11810 0.21373
 C698 C 0.29590 0.09953 0.23272
 C699 C 0.31433 0.07665 0.23662
 C700 C 0.30475 0.05382 0.24850
 H701 H 0.27615 0.09971 0.24355
 H702 H 0.33479 0.07745 0.22709
 H703 H 0.32115 0.11677 0.20211
 H704 H 0.28347 0.05274 0.25614
 C705 C 0.75459 0.58175 0.73780
 C706 C 0.77777 0.57137 0.72761
 C707 C 0.79027 0.54768 0.74039
 C708 C 0.81499 0.53893 0.73201
 H709 H 0.78797 0.58067 0.71017
 H710 H 0.77962 0.53814 0.75747
 H711 H 0.74488 0.57248 0.75552
 H712 H 0.82591 0.54982 0.71580
 C713 C 0.75722 0.40407 0.77867
 C714 C 0.77940 0.41521 0.78923
 C715 C 0.79135 0.44066 0.77763
 C716 C 0.81572 0.45055 0.78493
 H717 H 0.78928 0.40517 0.80553
 H718 H 0.78076 0.45047 0.76164
 H719 H 0.74810 0.41423 0.76197
 H720 H 0.82687 0.43953 0.79981
 C721 C 0.29218 -0.11121 0.26801
 C722 C 0.28968 -0.09153 0.24979
 C723 C 0.30905 -0.06837 0.24914
 C724 C 0.30179 -0.04456 0.23903
 H725 H 0.27219 -0.09117 0.23705
 H726 H 0.32823 -0.07021 0.25939
 H727 H 0.30918 -0.11012 0.28134
 H728 H 0.28150 -0.04260 0.23078
 C729 C 0.25183 -0.10927 0.72653
 C730 C 0.22800 -0.09999 0.71767
 C731 C 0.21720 -0.07475 0.72775
 C732 C 0.19275 -0.06519 0.72087
 H733 H 0.21674 -0.11056 0.70301
 H734 H 0.22957 -0.06390 0.74139
 H735 H 0.26222 -0.09826 0.74150
 H736 H 0.17964 -0.07697 0.70859
 C737 C 0.75454 0.40809 0.22757
 C738 C 0.73110 0.41661 0.21731
 C739 C 0.71876 0.44169 0.22594
 C740 C 0.69258 0.44754 0.22080
 H741 H 0.72033 0.40452 0.20345
 H742 H 0.73080 0.45476 0.23794
 H743 H 0.76441 0.41972 0.24236
 H744 H 0.68008 0.43329 0.21048
 C745 C 0.70747 0.60196 0.28612
 C746 C 0.71176 0.58505 0.26669
 C747 C 0.69267 0.56186 0.26404
 C748 C 0.69808 0.54309 0.24656
 H749 H 0.72966 0.58779 0.25329
 H750 H 0.67481 0.55957 0.27750
 H751 H 0.68963 0.59865 0.29949
 H752 H 0.71687 0.54525 0.23426
 C753 C 0.22095 0.09060 0.78361
 C754 C 0.22571 0.07107 0.76679
 C755 C 0.20513 0.04924 0.76405
 C756 C 0.21043 0.02887 0.74832
 H757 H 0.24484 0.07109 0.75497
 H758 H 0.18569 0.04983 0.77530
 H759 H 0.20196 0.09006 0.79568
 H760 H 0.23065 0.02811 0.73839
 C761 C 0.25504 0.26012 0.06505
 C762 C 0.24393 0.28273 0.05583
 C763 C 0.25469 0.29587 0.03104
 C764 C 0.24518 0.31961 0.02277
 H765 H 0.22706 0.29182 0.06669
 H766 H 0.27105 0.28627 0.01996
 H767 H 0.27220 0.25146 0.05419
 H768 H 0.22991 0.32946 0.03506
 C769 C 0.73719 0.74436 0.58993
 C770 C 0.72585 0.76761 0.58248
 C771 C 0.73437 0.78242 0.55785
 C772 C 0.72336 0.80631 0.55208
 H773 H 0.70984 0.77624 0.59477
 H774 H 0.74987 0.77396 0.54483
 H775 H 0.75358 0.73599 0.57783
 H776 H 0.70901 0.81479 0.56628
 C777 C 0.74776 0.75638 0.41755
 C778 C 0.75832 0.77976 0.42500
 C779 C 0.74815 0.79131 0.44969
 C780 C 0.75648 0.81567 0.45678
 H781 H 0.77423 0.79041 0.41295
 H782 H 0.73313 0.77974 0.46197
 H783 H 0.73139 0.74632 0.42954
 H784 H 0.77014 0.82775 0.44350
 C785 C 0.27520 0.25847 -0.10505
 C786 C 0.28611 0.28254 -0.10008
 C787 C 0.27685 0.29603 -0.07603
 C788 C 0.28546 0.32087 -0.07063
 H789 H 0.30126 0.29229 -0.11368
 H790 H 0.26172 0.28555 -0.06295
 H791 H 0.25980 0.24937 -0.09125
 H792 H 0.29924 0.33185 -0.08468
 C793 C 0.72559 0.22057 -0.09475
 C794 C 0.74513 0.22367 -0.07716
 C795 C 0.74857 0.20252 -0.05649
 C796 C 0.76560 0.20595 -0.03669
 H797 H 0.75791 0.24181 -0.07756
 H798 H 0.73597 0.18435 -0.05704
 H799 H 0.71269 0.20247 -0.09352
 H800 H 0.77686 0.22492 -0.03579
 C801 C 0.20505 0.75375 0.41152
 C802 C 0.19319 0.73098 0.42135
 C803 C 0.19971 0.72173 0.44825
 C804 C 0.19511 0.69632 0.45683
 H805 H 0.18072 0.71851 0.40913
 H806 H 0.21086 0.73551 0.46025
 H807 H 0.21872 0.76504 0.42371
 H808 H 0.18564 0.68233 0.44380
 C809 C 0.27790 0.72118 0.59949
 C810 C 0.25536 0.72442 0.58533
 C811 C 0.24920 0.70553 0.56452
 C812 C 0.22854 0.70958 0.54810
 H813 H 0.24179 0.74109 0.58874
 H814 H 0.26257 0.68853 0.56209
 H815 H 0.29149 0.70465 0.59540
 H816 H 0.21646 0.72759 0.54972
 C817 C 0.78154 0.24267 0.09983
 C818 C 0.79148 0.21958 0.09127
 C819 C 0.78311 0.21008 0.06551
 C820 C 0.79021 0.18610 0.05667
 H821 H 0.80550 0.20792 0.10300
 H822 H 0.77018 0.22295 0.05376
 H823 H 0.76713 0.25363 0.08786
 H824 H 0.80158 0.17253 0.06920
 C825 C 0.46253 0.35295 0.53509
 C826 C 0.48356 0.33623 0.53198
 C827 C 0.48774 0.31480 0.55211
 C828 C 0.50542 0.29495 0.54794
 H829 H 0.49714 0.33789 0.51451
 H830 H 0.47510 0.31472 0.57017
 H831 H 0.44877 0.35038 0.55238
 H832 H 0.51656 0.29440 0.52905
 C833 C -0.02661 0.86164 0.04417
 C834 C -0.00615 0.84399 0.04480
 C835 C -0.00592 0.82186 0.06488
 C836 C 0.01213 0.80208 0.06209
 H837 H 0.01017 0.84503 0.02959
 H838 H -0.02156 0.82084 0.08074
 H839 H -0.04302 0.86041 0.05932
 H840 H 0.02641 0.80294 0.04508
 C841 C 0.01889 0.66675 0.00918
 C842 C 0.02822 0.67286 0.03269
 C843 C 0.02145 0.69867 0.04423
 C844 C 0.02682 0.70348 0.06927
 H845 H 0.04036 0.65865 0.04372
 H846 H 0.01108 0.71351 0.03225
 H847 H 0.00597 0.68079 -0.00124
 H848 H 0.03549 0.68772 0.08150
 C849 C 0.52021 0.15692 0.50888
 C850 C 0.52957 0.16399 0.53210
 C851 C 0.52235 0.19060 0.54187
 C852 C 0.52854 0.19857 0.56586
 H853 H 0.54159 0.15027 0.54385
 H854 H 0.51057 0.20363 0.52918
 H855 H 0.50767 0.17091 0.49793
 H856 H 0.53868 0.18478 0.57918
 C857 C -0.01088 0.16210 0.49489
 C858 C -0.01972 0.16932 0.47111
 C859 C -0.00814 0.19317 0.45650
 C860 C -0.01530 0.19864 0.43173
 H861 H -0.03533 0.15732 0.46195
 H862 H 0.00693 0.20571 0.46581
 H863 H 0.00511 0.17398 0.50373
 H864 H -0.02917 0.18482 0.42238
 C865 C 0.47847 0.66312 1.00843
 C866 C 0.47084 0.67032 0.98428
 C867 C 0.48000 0.69652 0.97244
 C868 C 0.47450 0.70356 0.94762
 H869 H 0.45803 0.65700 0.97324
 H870 H 0.49204 0.70992 0.98411
 H871 H 0.49166 0.67658 1.01897
 H872 H 0.46390 0.68926 0.93568
 C873 C 0.53550 0.86480 0.96224
 C874 C 0.51692 0.84462 0.96600
 C875 C 0.51523 0.82233 0.94772
 C876 C 0.49809 0.80132 0.95352
 H877 H 0.50278 0.84419 0.98304
 H878 H 0.52856 0.82279 0.93010
 H879 H 0.54982 0.86500 0.94531
 H880 H 0.48612 0.80094 0.97202
 C881 C 0.00717 0.33384 0.48007
 C882 C 0.01984 0.32670 0.45762
 C883 C 0.01104 0.30184 0.44517
 C884 C 0.02342 0.29334 0.42306
 H885 H 0.03682 0.33876 0.44871
 H886 H -0.00612 0.29032 0.45447
 H887 H -0.00977 0.32142 0.48863
 H888 H 0.03943 0.30583 0.41300
 C889 C 0.32958 0.51206 0.50030
 C890 C 0.32097 0.53554 0.49044
 C891 C 0.29530 0.54698 0.50140
 C892 C 0.28482 0.56971 0.49157
 H893 H 0.33224 0.54585 0.47411
 H894 H 0.28471 0.53631 0.51789
 H895 H 0.31776 0.50212 0.51652
 H896 H 0.29637 0.58115 0.47613
 C897 C 0.87609 0.03799 -0.02717
 C898 C 0.85315 0.03404 -0.01198
 C899 C 0.83159 0.05443 -0.01085
 C900 C 0.80618 0.04774 -0.00129
 H901 H 0.84938 0.01498 -0.00142
 H902 H 0.83599 0.07436 -0.01942
 H903 H 0.87915 0.05667 -0.03859
 H904 H 0.80176 0.02713 0.00540
 C905 C 0.63849 0.04652 0.02124
 C906 C 0.65869 0.04591 0.00263
 C907 C 0.68325 0.06395 0.00328
 C908 C 0.70603 0.05882 -0.01121
 H909 H 0.65816 0.03078 -0.01213
 H910 H 0.68370 0.07969 0.01747
 H911 H 0.63947 0.06147 0.03618
 H912 H 0.70577 0.04174 -0.02386
 C913 C 0.14950 0.49467 0.51770
 C914 C 0.15812 0.51570 0.53101
 C915 C 0.18279 0.53157 0.52175
 C916 C 0.18819 0.55562 0.53147
 H917 H 0.14630 0.52202 0.54815
 H918 H 0.19570 0.52415 0.50583
 H919 H 0.16088 0.48922 0.49996
 H920 H 0.17393 0.56353 0.54608
 C921 C 0.15371 0.50591 -0.02328
 C922 C 0.16585 0.48714 -0.03756
 C923 C 0.19324 0.47712 -0.03060
 C924 C 0.20412 0.45581 -0.04207
 H925 H 0.15558 0.47897 -0.05420
 H926 H 0.20423 0.48688 -0.01524
 H927 H 0.16399 0.51331 -0.00628
 H928 H 0.19209 0.44508 -0.05609
 C929 C 0.63045 0.97265 0.46966
 C930 C 0.64788 0.97343 0.48942
 C931 C 0.67031 0.95387 0.49149
 C932 C 0.69071 0.95759 0.50812
 H933 H 0.64622 0.98903 0.50367
 H934 H 0.67084 0.93715 0.47843
 H935 H 0.63287 0.95736 0.45514
 H936 H 0.69063 0.97541 0.51978
 C937 C 0.83618 1.00665 0.51898
 C938 C 0.82574 0.98321 0.52870
 C939 C 0.79903 0.97269 0.52021
 C940 C 0.79066 0.94763 0.52707
 H941 H 0.83707 0.97144 0.54287
 H942 H 0.78646 0.98535 0.50790
 H943 H 0.82526 1.01782 0.50405
 H944 H 0.80438 0.93471 0.53793
 C945 C 0.35988 0.47480 0.03090
 C946 C 0.34196 0.48101 0.01229
 C947 C 0.32035 0.46161 0.00501
 C948 C 0.30087 0.46881 -0.01178
 H949 H 0.34292 0.50066 0.00246
 H950 H 0.32009 0.44158 0.01401
 H951 H 0.35834 0.45527 0.04102
 H952 H 0.30068 0.48945 -0.01929
 C953 C 0.49951 0.48506 0.35981
 C954 C 0.52326 0.47484 0.35076
 C955 C 0.53417 0.48268 0.32402
 C956 C 0.55898 0.47496 0.31483
 H957 H 0.53429 0.46048 0.36270
 H958 H 0.52147 0.49509 0.31159
 H959 H 0.48921 0.49993 0.34776
 H960 H 0.57242 0.46410 0.32789
 C961 C 0.04223 -0.04444 0.85624
 C962 C 0.03854 -0.02712 0.83602
 C963 C 0.05716 -0.02597 0.81236
 C964 C 0.05159 -0.00956 0.79189
 H965 H 0.02140 -0.01346 0.83674
 H966 H 0.07504 -0.03871 0.81169
 H967 H 0.05903 -0.05849 0.85523
 H968 H 0.03274 0.00190 0.79288
 C969 C -0.00137 0.01676 0.65781
 C970 C 0.02312 0.02530 0.66595
 C971 C 0.03418 0.01428 0.69055
 C972 C 0.06030 0.01957 0.69676
 H973 H 0.03534 0.04015 0.65427
 H974 H 0.02105 0.00107 0.70323
 H975 H -0.01298 0.00125 0.66923
 H976 H 0.07368 0.03138 0.68298
 C977 C 0.52650 0.52865 0.15935
 C978 C 0.52390 0.50858 0.17741
 C979 C 0.54471 0.50592 0.19774
 C980 C 0.54036 0.48997 0.21924
 H981 H 0.50613 0.49493 0.17779
 H982 H 0.56335 0.51837 0.19560
 H983 H 0.54377 0.54281 0.16011
 H984 H 0.52074 0.47909 0.22209
 C985 C 0.46234 -0.03391 0.13514
 C986 C 0.46687 -0.01740 0.15475
 C987 C 0.44769 -0.01627 0.17784
 C988 C 0.45532 -0.00302 0.19890
 H989 H 0.48548 -0.00487 0.15424
 H990 H 0.42789 -0.02689 0.17793
 H991 H 0.44428 -0.04721 0.13616
 H992 H 0.47596 0.00598 0.19887
 C993 C 0.96336 0.46389 0.63852
 C994 C 0.97123 0.47976 0.65765
 C995 C 0.95316 0.48328 0.68119
 C996 C 0.96291 0.49524 0.70221
 H997 H 0.99171 0.48908 0.65673
 H998 H 0.93250 0.47436 0.68192
 H999 H 0.94301 0.45425 0.63993
 H1000 H 0.98425 0.50253 0.70144
 C1001 C 0.96741 0.52682 0.86421
 C1002 C 0.97508 0.51232 0.84370
 C1003 C 0.95633 0.50900 0.82178
 C1004 C 0.96517 0.49819 0.79936
 H1005 H 0.99570 0.50420 0.84233
 H1006 H 0.93576 0.51716 0.82348
 H1007 H 0.94700 0.53548 0.86490
 H1008 H 0.98642 0.49165 0.79766
 C1009 C 0.45370 0.02887 0.36140
 C1010 C 0.46012 0.01407 0.34075
 C1011 C 0.44219 0.01327 0.31795
 C1012 C 0.45128 0.00224 0.29574
 H1013 H 0.47947 0.00346 0.33996
 H1014 H 0.42234 0.02295 0.31897
 H1015 H 0.43472 0.04010 0.36167
 H1016 H 0.47191 -0.00599 0.29508
   
