data_POSCAR
  _audit_creation_date              2014-09-24
  _audit_creation_method            'ToBaCCo'
  _symmetry_space_group_name_H-M    'P1'
  _symmetry_Int_Tables_number       1
  _symmetry_cell_setting            triclinic
  loop_
  _symmetry_equiv_pos_as_xyz
 x,y,z
_cell_length_a 19.1563
_cell_length_b 20.5931
_cell_length_c 20.3715
_cell_angle_alpha 73.174800
_cell_angle_beta 92.952000
_cell_angle_gamma 99.797600
loop_
  _atom_site_label
  _atom_site_type_symbol
  _atom_site_fract_x
  _atom_site_fract_y
  _atom_site_fract_z
O1 O 0.63769 0.52899 0.04057
 O2 O 0.44914 0.46099 0.05448
 O3 O 0.55926 0.41222 0.03707
 O4 O 0.52595 0.57710 0.05476
 O5 O 0.51702 0.61664 -0.05801
 O6 O 0.54967 0.45187 -0.07550
 O7 O 0.43700 0.50226 -0.05767
 O8 O 0.62867 0.56940 -0.07200
 Cu9 Cu 0.54449 0.49057 0.05798
 Cu10 Cu 0.53217 0.53820 -0.07746
 C11 C 0.66502 0.56239 -0.01723
 C12 C 0.41054 0.47106 0.00129
 C13 C 0.55850 0.40358 -0.02218
 C14 C 0.51668 0.62509 0.00122
 O15 O -0.07547 0.56397 0.51665
 O16 O -0.08207 0.37674 0.54996
 O17 O -0.06903 0.45948 0.62470
 O18 O -0.08724 0.47686 0.44122
 O19 O 0.02896 0.49548 0.42871
 O20 O 0.04751 0.47438 0.61702
 O21 O 0.03411 0.39262 0.53758
 O22 O 0.04084 0.57863 0.50748
 Cu23 Cu -0.09003 0.46862 0.53373
 Cu24 Cu 0.04959 0.48739 0.52168
 C25 C -0.01570 0.60306 0.50770
 C26 C -0.02529 0.35309 0.54849
 C27 C -0.00836 0.46267 0.65266
 C28 C -0.03315 0.48674 0.40400
 O29 O 0.52944 0.05856 0.54789
 O30 O 0.49594 0.04902 0.37298
 O31 O 0.43016 0.08888 0.45865
 O32 O 0.59252 0.01099 0.46504
 O33 O 0.52768 -0.09188 0.50209
 O34 O 0.36702 -0.01451 0.49877
 O35 O 0.43038 -0.05349 0.41104
 O36 O 0.46737 -0.04527 0.58830
 Cu37 Cu 0.51857 0.06204 0.45723
 Cu38 Cu 0.44215 -0.06187 0.50421
 C39 C 0.50375 0.00894 0.59792
 C40 C 0.45674 -0.00284 0.36192
 C41 C 0.37109 0.05035 0.47757
 C42 C 0.58721 -0.05421 0.48433
 C43 C 0.50518 -0.10037 -0.12199
 C44 C 0.50625 -0.03000 -0.15342
 C45 C 0.50284 0.01394 -0.11301
 C46 C 0.50204 -0.01071 -0.04118
 C47 C 0.50403 -0.08102 -0.01048
 C48 C 0.50382 -0.12654 -0.05012
 C49 C 0.49957 0.03652 0.00177
 C50 C 0.46857 0.01113 0.06713
 C51 C 0.47027 0.05323 0.11019
 C52 C 0.49771 0.12349 0.08546
 C53 C 0.52561 0.15127 0.01880
 C54 C 0.52850 0.10685 -0.02157
 H55 H 0.50766 -0.13374 -0.15374
 H56 H 0.50016 0.06740 -0.13845
 H57 H 0.50689 -0.10083 0.04466
 H58 H 0.44409 -0.04210 0.08581
 H59 H 0.49602 0.15616 0.11806
 H60 H 0.55373 0.12763 -0.07119
 C61 C -0.08123 0.57223 1.11567
 C62 C -0.08539 0.59195 1.04397
 C63 C -0.03487 0.57639 1.00658
 C64 C 0.01227 0.53177 1.03935
 C65 C 0.01474 0.51048 1.11195
 C66 C -0.03156 0.53165 1.15020
 C67 C 0.05158 0.50211 0.99670
 C68 C 0.11922 0.48635 1.01524
 C69 C 0.15691 0.46123 0.97321
 C70 C 0.12767 0.45331 0.91068
 C71 C 0.05861 0.46623 0.89257
 C72 C 0.02090 0.48924 0.93640
 H73 H -0.12094 0.58317 1.14514
 H74 H -0.03763 0.59330 0.95117
 H75 H 0.04822 0.47371 1.13868
 H76 H 0.14373 0.49492 1.06177
 H77 H 0.15697 0.43395 0.87840
 H78 H -0.03303 0.49709 0.92293
 C79 C -0.13676 -0.16572 0.49035
 C80 C -0.06330 -0.16561 0.49652
 C81 C -0.01883 -0.10611 0.50310
 C82 C -0.04533 -0.04547 0.49942
 C83 C -0.11917 -0.04631 0.49068
 C84 C -0.16559 -0.10660 0.48847
 C85 C 0.00397 0.01782 0.50572
 C86 C -0.02128 0.06773 0.52890
 C87 C 0.02296 0.12859 0.53215
 C88 C 0.09515 0.13753 0.51645
 C89 C 0.12281 0.08745 0.49622
 C90 C 0.07668 0.02896 0.48903
 H91 H -0.17170 -0.21157 0.48647
 H92 H 0.03688 -0.10813 0.51230
 H93 H -0.14095 -0.00025 0.48591
 H94 H -0.07581 0.05994 0.54450
 H95 H 0.13053 0.18282 0.52113
 H96 H 0.09793 -0.00665 0.46885
 N97 N -0.15579 0.63894 0.94328
 N98 N -0.22298 0.62935 0.92375
 C99 C -0.26018 0.59274 0.98058
 C100 C -0.21456 0.58169 1.03528
 N101 N -0.14962 0.61090 1.01029
 H102 H -0.22662 0.54862 1.08671
 N103 N 0.23860 0.41334 1.06107
 N104 N 0.30765 0.41608 1.07068
 C105 C 0.33827 0.44932 1.00937
 C106 C 0.28586 0.46584 0.96130
 N107 N 0.22451 0.44294 0.99603
 H108 H 0.29185 0.49737 0.90855
 N109 N 0.03662 -0.22192 0.48819
 N110 N 0.05127 -0.28303 0.49043
 C111 C -0.01067 -0.32667 0.49941
 C112 C -0.06422 -0.29005 0.50248
 N113 N -0.03226 -0.22461 0.49553
 H114 H -0.12009 -0.30970 0.51096
 N115 N -0.07236 0.17320 0.57181
 N116 N -0.08745 0.23203 0.57680
 C117 C -0.02892 0.27932 0.55742
 C118 C 0.02257 0.24771 0.54038
 N119 N -0.00659 0.18127 0.54988
 H120 H 0.07429 0.27205 0.51912
 N121 N 0.54768 0.06139 -0.25566
 N122 N 0.54890 0.07324 -0.32299
 C123 C 0.51526 0.01544 -0.33643
 C124 C 0.49344 -0.03250 -0.27533
 N125 N 0.51473 -0.00165 -0.22615
 H126 H 0.46429 -0.08401 -0.26752
 N127 N 0.40634 -0.03718 0.20342
 N128 N 0.40206 -0.05479 0.27123
 C129 C 0.44242 -0.00350 0.29106
 C130 C 0.47094 0.04613 0.23386
 N131 N 0.44725 0.02340 0.18003
 H132 H 0.50846 0.09227 0.23216
 N133 N 0.50224 -0.22608 0.05095
 N134 N 0.50492 -0.29272 0.06710
 C135 C 0.50777 -0.30789 0.00742
 C136 C 0.50701 -0.24885 -0.04567
 N137 N 0.50374 -0.19854 -0.01654
 H138 H 0.51055 -0.24347 -0.09983
 N139 N 0.56345 0.25458 -0.07518
 N140 N 0.57293 0.32240 -0.08854
 C141 C 0.56396 0.33569 -0.02886
 C142 C 0.54857 0.27411 0.02138
 N143 N 0.54824 0.22433 -0.00950
 H144 H 0.53451 0.26713 0.07397
 N145 N -0.28749 -0.16750 0.49787
 N146 N -0.35341 -0.15586 0.49784
 C147 C -0.35001 -0.08761 0.48635
 C148 C -0.27940 -0.05763 0.47920
 N149 N -0.24177 -0.10941 0.48689
 H150 H -0.25823 -0.00369 0.47033
 N151 N 0.23960 0.15716 0.46529
 N152 N 0.30620 0.14944 0.45990
 C153 C 0.30675 0.08134 0.47510
 C154 C 0.23810 0.04747 0.48963
 N155 N 0.19766 0.09665 0.48285
 H156 H 0.21990 -0.00747 0.50548
 N157 N -0.10198 0.45999 1.24690
 N158 N -0.10540 0.44921 1.31390
 C159 C -0.04525 0.48358 1.33293
 C160 C -0.00399 0.51570 1.27484
 N161 N -0.04158 0.49924 1.22229
 H162 H 0.04534 0.55121 1.27044
 N163 N -0.04548 0.43474 0.82864
 N164 N -0.06492 0.43363 0.76577
 C165 C -0.00578 0.45246 0.72729
 C166 C 0.05139 0.46475 0.76919
 N167 N 0.02392 0.45331 0.83214
 H168 H 0.10627 0.48379 0.75466
   
