data_POSCAR
  _audit_creation_date              2014-09-24
  _audit_creation_method            'ToBaCCo'
  _symmetry_space_group_name_H-M    'P1'
  _symmetry_Int_Tables_number       1
  _symmetry_cell_setting            triclinic
  loop_
  _symmetry_equiv_pos_as_xyz
 x,y,z
_cell_length_a 43.8986
_cell_length_b 43.2131
_cell_length_c 44.2676
_cell_angle_alpha 90.127200
_cell_angle_beta 89.226000
_cell_angle_gamma 90.574700
loop_
  _atom_site_label
  _atom_site_type_symbol
  _atom_site_fract_x
  _atom_site_fract_y
  _atom_site_fract_z
C1 C 0.19085 1.23738 0.18460
 N2 N 0.17792 1.22598 0.21041
 C3 C 0.18991 1.20116 0.22472
 N4 N 0.21521 1.18765 0.21274
 C5 C 0.22854 1.19876 0.18705
 N6 N 0.21622 1.22359 0.17317
 C7 C 0.81819 0.77373 0.19556
 N8 N 0.83164 0.78651 0.22018
 C9 C 0.82144 0.81342 0.23243
 N10 N 0.79733 0.82763 0.21963
 C11 C 0.78339 0.81512 0.19519
 N12 N 0.79394 0.78821 0.18328
 C13 C 0.79846 1.22281 -0.19069
 N14 N 0.81183 1.21023 -0.21569
 C15 C 0.79973 1.18472 -0.22925
 N16 N 0.77389 1.17176 -0.21735
 C17 C 0.76024 1.18389 -0.19235
 N18 N 0.77268 1.20938 -0.17920
 C19 C 0.19204 0.77189 -0.20039
 N20 N 0.18204 0.78559 -0.22597
 C21 C 0.19726 0.81015 -0.23833
 N22 N 0.22291 0.82085 -0.22473
 C23 C 0.23314 0.80751 -0.19908
 N24 N 0.21751 0.78314 -0.18698
 C25 C 0.51922 1.04607 -0.01019
 H26 H 0.50347 1.05604 0.00597
 C27 C 0.53829 1.06549 -0.02731
 H28 H 0.53647 1.09031 -0.02459
 C29 C 0.54122 1.00174 -0.03289
 H30 H 0.54249 0.97680 -0.03452
 C31 C 0.56076 1.02027 -0.05039
 H32 H 0.57720 1.00933 -0.06528
 N33 N 0.52099 1.01482 -0.01330
 C34 C 0.47154 1.00809 0.06753
 H35 H 0.48783 0.99333 0.07829
 C36 C 0.45090 1.02483 0.08531
 H37 H 0.45206 1.02330 0.10968
 C38 C 0.44976 1.02764 0.02285
 H39 H 0.44929 1.02828 -0.00157
 C40 C 0.42877 1.04472 0.03971
 H41 H 0.41201 1.05828 0.02803
 Zn42 Zn 0.49754 0.98761 0.01127
 N43 N 0.47087 1.01014 0.03687
 C44 C 0.54329 0.97943 0.05379
 N45 N 0.52547 0.96409 0.03371
 C46 C 0.52920 0.93338 0.02823
 C47 C 0.55130 0.91679 0.04360
 C48 C 0.56528 0.96366 0.07003
 C49 C 0.46917 0.96739 -0.04267
 C50 C 0.44819 0.95015 -0.05938
 C51 C 0.43546 0.92104 -0.01435
 C52 C 0.45624 0.93920 0.00158
 N53 N 0.47267 0.96174 -0.01272
 H54 H 0.54038 1.00403 0.05717
 H55 H 0.51568 0.92183 0.01131
 H56 H 0.55438 0.89257 0.03821
 H57 H 0.57858 0.97631 0.08644
 H58 H 0.48179 0.98605 -0.05340
 H59 H 0.44496 0.95593 -0.08289
 H60 H 0.42304 0.90295 -0.00247
 H61 H 0.45910 0.93556 0.02554
 C62 C 0.42923 1.04359 0.07140
 C63 C 0.55960 1.05264 -0.04759
 C64 C 0.43075 0.92672 -0.04520
 C65 C 0.56974 0.93188 0.06492
 C66 C -0.01906 0.54799 1.03245
 H67 H 0.00555 0.54939 1.03269
 C68 C -0.03629 0.56880 1.04949
 H69 H -0.02469 0.58636 1.06264
 C70 C -0.06390 0.52408 1.01389
 H71 H -0.07455 0.50686 0.99969
 C72 C -0.08205 0.54448 1.03060
 H73 H -0.10660 0.54237 1.02947
 N74 N -0.03300 0.52605 1.01530
 C75 C 0.03297 0.45209 1.00455
 H76 H 0.03401 0.45033 0.98018
 C77 C 0.04937 0.43154 1.02221
 H78 H 0.06283 0.41384 1.01118
 C79 C 0.01296 0.47651 1.04838
 H80 H -0.00161 0.49374 1.05854
 C81 C 0.02903 0.45648 1.06691
 H82 H 0.02708 0.45900 1.09119
 Zn83 Zn -0.00743 0.49986 0.99217
 N84 N 0.01535 0.47412 1.01780
 C85 C 0.04957 0.52396 0.97121
 N86 N 0.01877 0.52576 0.96894
 C87 C 0.00567 0.54763 0.95147
 C88 C 0.02370 0.56882 0.93533
 C89 C 0.06848 0.54465 0.95540
 C90 C -0.04850 0.45174 0.98066
 C91 C -0.06481 0.43032 0.96345
 C92 C -0.04413 0.45420 0.91823
 C93 C -0.02815 0.47515 0.93633
 N94 N -0.03067 0.47360 0.96695
 H95 H 0.05958 0.50681 0.98563
 H96 H -0.01890 0.54892 0.95054
 H97 H 0.01276 0.58649 0.92213
 H98 H 0.09294 0.54273 0.95738
 H99 H -0.04962 0.45068 1.00506
 H100 H -0.07830 0.41269 0.97488
 H101 H -0.04197 0.45592 0.89390
 H102 H -0.01344 0.49231 0.92586
 C103 C 0.04748 0.43353 1.05386
 C104 C -0.06824 0.56721 1.04874
 C105 C -0.06263 0.43126 0.93177
 C106 C 0.05558 0.56764 0.93731
 C107 C 1.04861 -0.00457 0.54740
 H108 H 1.04961 0.02035 0.54960
 C109 C 1.06499 -0.02311 0.56708
 H110 H 1.07841 -0.01220 0.58454
 C111 C 1.02856 -0.04894 0.52284
 H112 H 1.01394 -0.05895 0.50593
 C113 C 1.04458 -0.06834 0.54202
 H114 H 1.04255 -0.09317 0.53919
 N115 N 1.03091 -0.01767 0.52578
 C116 C 1.01956 0.05179 0.45578
 H117 H 0.99495 0.05237 0.45496
 C118 C 1.03698 0.06868 0.43487
 H119 H 1.02550 0.08206 0.41789
 C120 C 1.06416 0.03197 0.47789
 H121 H 1.07466 0.01715 0.49428
 C122 C 1.08249 0.04859 0.45746
 H123 H 1.10701 0.04684 0.45882
 Zn124 Zn 1.00767 0.00909 0.50160
 N125 N 1.03329 0.03384 0.47667
 C126 C 0.98584 0.06535 0.52727
 N127 N 0.98414 0.03392 0.52810
 C128 C 0.96653 0.01899 0.54905
 C129 C 0.94941 0.03573 0.57010
 C130 C 0.96904 0.08304 0.54791
 C131 C 0.95128 -0.01215 0.47762
 C132 C 0.93302 -0.02809 0.45705
 C133 C 0.97861 -0.04721 0.43253
 C134 C 0.99597 -0.03093 0.45354
 N135 N 0.98216 -0.01396 0.47559
 H136 H 1.00038 0.07679 0.51079
 H137 H 0.96605 -0.00605 0.54952
 H138 H 0.93594 0.02334 0.58689
 H139 H 0.97043 0.10804 0.54671
 H140 H 0.94071 0.00195 0.49491
 H141 H 0.90848 -0.02654 0.45914
 H142 H 0.99010 -0.06011 0.41483
 H143 H 1.02058 -0.03145 0.45210
 C144 C 1.06891 0.06702 0.43535
 C145 C 1.06298 -0.05548 0.56464
 C146 C 0.94667 -0.04584 0.43404
 C147 C 0.95052 0.06823 0.56974
 C148 C 0.19087 0.27410 1.14247
 C149 C 0.17699 0.29796 1.12664
 C150 C 0.14964 0.31059 1.13714
 C151 C 0.13650 0.29954 1.16418
 C152 C 0.15038 0.27577 1.18018
 C153 C 0.17762 0.26237 1.16937
 N154 N 0.13533 0.33396 1.11952
 N155 N 0.10950 0.34508 1.12676
 C156 C 0.09493 0.36796 1.10875
 C157 C 0.06580 0.37787 1.11720
 C158 C 0.05047 0.39934 1.09956
 C159 C 0.06413 0.41138 1.07309
 C160 C 0.09360 0.40166 1.06490
 C161 C 0.10886 0.38012 1.08253
 H162 H 0.21184 0.26470 1.13331
 H163 H 0.18735 0.30633 1.10584
 H164 H 0.11538 0.30904 1.17282
 H165 H 0.13940 0.26766 1.20078
 H166 H 0.05478 0.36858 1.13729
 H167 H 0.02765 0.40598 1.10629
 H168 H 0.10494 0.41082 1.04492
 H169 H 0.13144 0.37290 1.07558
 C170 C -0.14455 0.73190 1.19487
 C171 C -0.13159 0.70617 1.18075
 C172 C -0.14351 0.69459 1.15385
 C173 C -0.16929 0.70852 1.14151
 C174 C -0.18245 0.73420 1.15566
 C175 C -0.16995 0.74665 1.18232
 N176 N -0.12824 0.66956 1.13901
 N177 N -0.13660 0.65890 1.11358
 C178 C -0.12032 0.63462 1.09854
 C179 C -0.12961 0.62500 1.06987
 C180 C -0.11307 0.60269 1.05385
 C181 C -0.08688 0.58960 1.06633
 C182 C -0.07804 0.59881 1.09545
 C183 C -0.09456 0.62112 1.11140
 H184 H -0.13423 0.74042 1.21540
 H185 H -0.11175 0.69558 1.19048
 H186 H -0.17897 0.69988 1.12074
 H187 H -0.20203 0.74461 1.14524
 H188 H -0.14936 0.63530 1.05967
 H189 H -0.12028 0.59636 1.03136
 H190 H -0.05828 0.58880 1.10589
 H191 H -0.08697 0.62805 1.13359
 C192 C -0.20229 0.26185 0.84957
 C193 C -0.18887 0.28707 0.86426
 C194 C -0.16147 0.29986 0.85351
 C195 C -0.14771 0.28744 0.82741
 C196 C -0.16111 0.26227 0.81256
 C197 C -0.18850 0.24885 0.82357
 N198 N -0.14782 0.32490 0.86991
 N199 N -0.12220 0.33674 0.86227
 C200 C -0.10836 0.36132 0.87918
 C201 C -0.07937 0.37202 0.87054
 C202 C -0.06466 0.39503 0.88733
 C203 C -0.07882 0.40784 0.91311
 C204 C -0.10822 0.39740 0.92140
 C205 C -0.12285 0.37433 0.90463
 H206 H -0.22338 0.25248 0.85886
 H207 H -0.19970 0.29647 0.88436
 H208 H -0.12650 0.29700 0.81862
 H209 H -0.14970 0.25318 0.79264
 H210 H -0.06793 0.36211 0.85103
 H211 H -0.04188 0.40221 0.88055
 H212 H -0.11994 0.40710 0.94085
 H213 H -0.14535 0.36655 0.91170
 C214 C 0.14892 0.73324 0.79896
 C215 C 0.13233 0.70890 0.81218
 C216 C 0.14121 0.69645 0.83979
 C217 C 0.16723 0.70842 0.85401
 C218 C 0.18390 0.73270 0.84081
 C219 C 0.17484 0.74555 0.81320
 N220 N 0.12317 0.67214 0.85313
 N221 N 0.12946 0.66055 0.87869
 C222 C 0.11122 0.63661 0.89237
 C223 C 0.11886 0.62603 0.92109
 C224 C 0.10102 0.60342 0.93556
 C225 C 0.07516 0.59087 0.92144
 C226 C 0.06777 0.60127 0.89237
 C227 C 0.08562 0.62395 0.87795
 H228 H 0.14130 0.74249 0.77768
 H229 H 0.11231 0.69988 0.80100
 H230 H 0.17459 0.69916 0.87539
 H231 H 0.20373 0.74156 0.85242
 H232 H 0.13848 0.63568 0.93247
 H233 H 0.10709 0.59629 0.95811
 H234 H 0.04826 0.59178 0.88071
 H235 H 0.07932 0.63167 0.85567
 C236 C 1.14960 0.20306 0.26355
 C237 C 1.13516 0.19056 0.28914
 C238 C 1.14644 0.16397 0.30278
 C239 C 1.17284 0.15019 0.29086
 C240 C 1.18745 0.16269 0.26535
 C241 C 1.17588 0.18918 0.25107
 N242 N 1.13023 0.15100 0.32812
 N243 N 1.13825 0.12587 0.34050
 C244 C 1.12159 0.11247 0.36533
 C245 C 1.13034 0.08358 0.37620
 C246 C 1.11360 0.06904 0.39930
 C247 C 1.08777 0.08331 0.41207
 C248 C 1.07947 0.11271 0.40156
 C249 C 1.09617 0.12714 0.37836
 H250 H 1.13991 0.22350 0.25350
 H251 H 1.11482 0.20139 0.29814
 H252 H 1.18205 0.12962 0.30107
 H253 H 1.20761 0.15125 0.25669
 H254 H 1.14983 0.07200 0.36628
 H255 H 1.12038 0.04623 0.40651
 H256 H 1.06001 0.12454 0.41122
 H257 H 1.08904 0.14959 0.37045
 C258 C 1.20102 -0.14886 0.72351
 C259 C 1.18865 -0.13293 0.69919
 C260 C 1.16100 -0.14253 0.68678
 C261 C 1.14612 -0.16890 0.69846
 C262 C 1.15844 -0.18495 0.72272
 C263 C 1.18587 -0.17489 0.73598
 N264 N 1.14800 -0.12450 0.66317
 N265 N 1.12217 -0.13115 0.65204
 C266 C 1.10854 -0.11268 0.62915
 C267 C 1.07952 -0.12083 0.61899
 C268 C 1.06488 -0.10252 0.59776
 C269 C 1.07912 -0.07565 0.58623
 C270 C 1.10853 -0.06780 0.59612
 C271 C 1.12313 -0.08613 0.61741
 H272 H 1.22223 -0.14034 0.73278
 H273 H 1.20037 -0.11266 0.69033
 H274 H 1.12474 -0.17687 0.68917
 H275 H 1.14603 -0.20491 0.73136
 H276 H 1.06800 -0.14115 0.62797
 H277 H 1.04208 -0.10898 0.59097
 H278 H 1.12028 -0.04751 0.58737
 H279 H 1.14563 -0.07940 0.62486
 C280 C 0.86133 -0.18780 0.27062
 C281 C 0.87638 -0.17417 0.29495
 C282 C 0.86670 -0.14585 0.30675
 C283 C 0.84136 -0.13135 0.29418
 C284 C 0.82619 -0.14492 0.26986
 C285 C 0.83608 -0.17328 0.25751
 N286 N 0.88339 -0.13207 0.33098
 N287 N 0.87630 -0.10600 0.34234
 C288 C 0.89349 -0.09199 0.36611
 C289 C 0.88500 -0.06282 0.37686
 C290 C 0.90199 -0.04797 0.39921
 C291 C 0.92785 -0.06215 0.41124
 C292 C 0.93603 -0.09170 0.40070
 C293 C 0.91904 -0.10649 0.37833
 H294 H 0.86975 -0.20964 0.26202
 H295 H 0.89589 -0.18557 0.30447
 H296 H 0.83342 -0.10942 0.30296
 H297 H 0.80688 -0.13292 0.26064
 H298 H 0.86542 -0.05137 0.36755
 H299 H 0.89531 -0.02507 0.40654
 H300 H 0.95556 -0.10341 0.40980
 H301 H 0.92600 -0.12912 0.37048
 C302 C 0.80172 0.14477 0.73140
 C303 C 0.81662 0.13083 0.70691
 C304 C 0.84419 0.14291 0.69580
 C305 C 0.85659 0.16964 0.70913
 C306 C 0.84170 0.18376 0.73358
 C307 C 0.81416 0.17135 0.74534
 N308 N 0.85941 0.12712 0.67154
 N309 N 0.88524 0.13589 0.66115
 C310 C 0.90058 0.11945 0.63736
 C311 C 0.92963 0.12937 0.62801
 C312 C 0.94574 0.11304 0.60577
 C313 C 0.93295 0.08642 0.59243
 C314 C 0.90351 0.07685 0.60152
 C315 C 0.88748 0.09317 0.62379
 H316 H 0.78058 0.13443 0.73948
 H317 H 0.80683 0.11024 0.69678
 H318 H 0.87789 0.17946 0.70086
 H319 H 0.85211 0.20418 0.74344
 H320 H 0.94001 0.14954 0.63836
 H321 H 0.96849 0.12080 0.59957
 H322 H 0.89283 0.05675 0.59136
 H323 H 0.86497 0.08510 0.63051
 C324 C 0.27033 1.19586 0.14797
 C325 C 0.29488 1.18060 0.13441
 C326 C 0.30504 1.15254 0.14602
 C327 C 0.29072 1.14005 0.17189
 C328 C 0.26621 1.15535 0.18559
 C329 C 0.25551 1.18329 0.17358
 N330 N 0.32925 1.13685 0.13055
 N331 N 0.33882 1.11054 0.13886
 C332 C 0.36250 1.09480 0.12259
 C333 C 0.37101 1.06523 0.13189
 C334 C 0.39301 1.04870 0.11559
 C335 C 0.40690 1.06157 0.08963
 C336 C 0.39873 1.09155 0.08073
 C337 C 0.37672 1.10801 0.09700
 H338 H 0.26281 1.21737 0.13816
 H339 H 0.30575 1.19045 0.11448
 H340 H 0.29821 1.11836 0.18130
 H341 H 0.25536 1.14500 0.20527
 H342 H 0.36016 1.05477 0.15153
 H343 H 0.39856 1.02554 0.12286
 H344 H 0.40937 1.10231 0.06115
 H345 H 0.37067 1.13091 0.08942
 C346 C 0.71937 1.14282 -0.19284
 C347 C 0.69464 1.12744 -0.17919
 C348 C 0.68306 1.13745 -0.15129
 C349 C 0.69607 1.16360 -0.13740
 C350 C 0.72072 1.17908 -0.15106
 C351 C 0.73292 1.16864 -0.17878
 N352 N 0.65890 1.12006 -0.13709
 N353 N 0.64855 1.12690 -0.11095
 C354 C 0.62507 1.10900 -0.09626
 C355 C 0.61624 1.11682 -0.06678
 C356 C 0.59462 1.09886 -0.05113
 C357 C 0.58133 1.07269 -0.06482
 C358 C 0.58980 1.06528 -0.09472
 C359 C 0.61151 1.08323 -0.11031
 H360 H 0.72808 1.13419 -0.21422
 H361 H 0.68480 1.10733 -0.19012
 H362 H 0.68748 1.17183 -0.11583
 H363 H 0.73053 1.19889 -0.13960
 H364 H 0.62663 1.13656 -0.05568
 H365 H 0.58897 1.10498 -0.02801
 H366 H 0.57967 1.04557 -0.10607
 H367 H 0.61787 1.07678 -0.13316
 C368 C 0.28112 0.83956 -0.19926
 C369 C 0.30603 0.85257 -0.18430
 C370 C 0.31019 0.84707 -0.15350
 C371 C 0.28960 0.82754 -0.13793
 C372 C 0.26499 0.81410 -0.15295
 C373 C 0.26023 0.82030 -0.18369
 N374 N 0.33493 0.86209 -0.13837
 N375 N 0.33613 0.86312 -0.10968
 C376 C 0.36050 0.87818 -0.09407
 C377 C 0.35697 0.88413 -0.06320
 C378 C 0.37972 0.89978 -0.04737
 C379 C 0.40689 0.90929 -0.06206
 C380 C 0.41058 0.90265 -0.09306
 C381 C 0.38751 0.88744 -0.10898
 H382 H 0.27817 0.84463 -0.22298
 H383 H 0.32178 0.86752 -0.19657
 H384 H 0.29244 0.82278 -0.11414
 H385 H 0.24929 0.79943 -0.14030
 H386 H 0.33618 0.87721 -0.05150
 H387 H 0.37563 0.90500 -0.02375
 H388 H 0.43134 0.90906 -0.10504
 H389 H 0.39084 0.88280 -0.13283
 C390 C 0.75319 0.86298 0.18616
 C391 C 0.72937 0.87840 0.17223
 C392 C 0.70916 0.86230 0.15360
 C393 C 0.71314 0.83043 0.14882
 C394 C 0.73730 0.81505 0.16231
 C395 C 0.75756 0.83117 0.18117
 N396 N 0.68535 0.87899 0.13929
 N397 N 0.66306 0.86545 0.12655
 C398 C 0.63991 0.88247 0.11151
 C399 C 0.61278 0.86742 0.10373
 C400 C 0.58983 0.88345 0.08895
 C401 C 0.59389 0.91483 0.08116
 C402 C 0.62142 0.92972 0.08879
 C403 C 0.64409 0.91379 0.10400
 H404 H 0.76851 0.87609 0.20040
 H405 H 0.72659 0.90299 0.17598
 H406 H 0.69788 0.81755 0.13434
 H407 H 0.74004 0.79053 0.15811
 H408 H 0.60928 0.84327 0.10942
 H409 H 0.56882 0.87131 0.08394
 H410 H 0.62577 0.95358 0.08258
 H411 H 0.66507 0.92582 0.10944
   
