data_POSCAR
  _audit_creation_date              2014-09-24
  _audit_creation_method            'ToBaCCo'
  _symmetry_space_group_name_H-M    'P1'
  _symmetry_Int_Tables_number       1
  _symmetry_cell_setting            triclinic
  loop_
  _symmetry_equiv_pos_as_xyz
 x,y,z
_cell_length_a 46.0744
_cell_length_b 31.1627
_cell_length_c 19.7771
_cell_angle_alpha 89.937500
_cell_angle_beta 89.958000
_cell_angle_gamma 90.054900
loop_
  _atom_site_label
  _atom_site_type_symbol
  _atom_site_fract_x
  _atom_site_fract_y
  _atom_site_fract_z
O1 O 0.71274 0.24109 0.43505
 O2 O 0.76094 0.19707 0.56631
 O3 O 0.71263 0.24093 0.56722
 O4 O 0.76108 0.19716 0.43618
 O5 O 0.78599 0.25778 0.43555
 O6 O 0.73725 0.30175 0.56591
 O7 O 0.78567 0.25785 0.56764
 O8 O 0.73768 0.30168 0.43582
 Cu9 Cu 0.73424 0.21306 0.50116
 Cu10 Cu 0.76425 0.28577 0.50127
 C11 C 0.71682 0.27908 0.41371
 C12 C 0.78171 0.21976 0.58866
 C13 C 0.71641 0.27907 0.58818
 C14 C 0.78200 0.21978 0.41429
 O15 O 0.26290 0.69799 0.56626
 O16 O 0.21401 0.74222 0.43640
 O17 O 0.26220 0.69813 0.43620
 O18 O 0.21450 0.74206 0.56850
 O19 O 0.23928 0.80279 0.56667
 O20 O 0.28728 0.75861 0.43509
 O21 O 0.23905 0.80273 0.43654
 O22 O 0.28757 0.75878 0.56726
 Cu23 Cu 0.23579 0.71411 0.50197
 Cu24 Cu 0.26591 0.78671 0.50136
 C25 C 0.28380 0.72061 0.58825
 C26 C 0.21806 0.78019 0.41492
 C27 C 0.28307 0.72066 0.41381
 C28 C 0.21851 0.78015 0.58929
 O29 O 0.26198 0.30262 -0.56844
 O30 O 0.21321 0.25889 -0.43763
 O31 O 0.26166 0.30266 -0.43839
 O32 O 0.21341 0.25911 -0.56984
 O33 O 0.23768 0.19805 -0.56794
 O34 O 0.28647 0.24201 -0.43779
 O35 O 0.23803 0.19826 -0.43788
 O36 O 0.28625 0.24155 -0.56998
 Cu37 Cu 0.23498 0.28683 -0.50361
 Cu38 Cu 0.26469 0.21396 -0.50339
 C39 C 0.28264 0.27974 -0.59095
 C40 C 0.21717 0.22094 -0.41604
 C41 C 0.28252 0.28001 -0.41649
 C42 C 0.21702 0.22088 -0.59052
 O43 O -0.23865 0.80202 -0.56369
 O44 O -0.28684 0.75819 -0.43206
 O45 O -0.23851 0.80205 -0.43355
 O46 O -0.28699 0.75790 -0.56422
 O47 O -0.26206 0.69736 -0.56346
 O48 O -0.21381 0.74132 -0.43222
 O49 O -0.26225 0.69739 -0.43338
 O50 O -0.21373 0.74147 -0.56433
 Cu51 Cu -0.26535 0.78603 -0.49843
 Cu52 Cu -0.23536 0.71339 -0.49833
 C53 C -0.21775 0.77947 -0.58565
 C54 C -0.28303 0.72007 -0.41098
 C55 C -0.21773 0.77939 -0.41125
 C56 C -0.28297 0.71990 -0.58543
 N57 N 0.03043 1.07698 -0.07276
 N58 N 0.05152 1.10480 -0.08444
 N59 N -0.03061 1.04610 -0.11794
 N60 N -0.05217 1.05162 -0.16088
 N61 N -0.03048 1.07662 -0.07222
 N62 N -0.05176 1.10414 -0.08337
 N63 N 0.03059 1.04641 -0.11839
 N64 N 0.05198 1.05219 -0.16178
 C65 C 0.06484 1.08864 -0.13992
 C66 C -0.06515 1.08785 -0.13863
 N67 N -0.03024 0.92350 -0.07162
 N68 N -0.05143 0.89576 -0.08264
 N69 N 0.03075 0.95422 -0.11798
 N70 N 0.05227 0.94864 -0.16106
 N71 N 0.03068 0.92377 -0.07202
 N72 N 0.05196 0.89627 -0.08312
 N73 N -0.03045 0.95395 -0.11756
 N74 N -0.05198 0.94817 -0.16049
 Mn75 Mn 0.00007 1.00017 -0.11868
 C76 C -0.06486 0.91184 -0.13805
 C77 C 0.06529 0.91245 -0.13863
 N78 N -0.03031 1.07679 0.07394
 N79 N -0.05156 1.10432 0.08526
 N80 N 0.03091 1.04665 0.11928
 N81 N 0.05254 1.05245 0.16197
 N82 N 0.03058 1.07715 0.07340
 N83 N 0.05173 1.10495 0.08427
 N84 N -0.03032 1.04635 0.11992
 N85 N -0.05177 1.05195 0.16319
 Mn86 Mn 0.00005 1.07742 0.00059
 C87 C -0.06481 1.08814 0.14090
 C88 C 0.06530 1.08886 0.13945
 N89 N 0.03085 0.92390 0.07411
 N90 N 0.05202 0.89624 0.08550
 N91 N -0.03018 0.95419 0.12030
 N92 N -0.05165 0.94849 0.16351
 N93 N -0.03006 0.92367 0.07457
 N94 N -0.05126 0.89599 0.08598
 N95 N 0.03103 0.95447 0.11976
 N96 N 0.05251 0.94884 0.16287
 Mn97 Mn 0.00030 0.92317 0.00126
 Mn98 Mn 0.00037 1.00042 0.12054
 Cl99 Cl 0.00020 1.00029 0.00093
 C100 C 0.06541 0.91249 0.14081
 C101 C -0.06459 0.91215 0.14143
 N102 N 0.46962 0.42321 -0.07502
 N103 N 0.44842 0.39562 -0.08666
 N104 N 0.53091 0.45370 -0.11971
 N105 N 0.55251 0.44795 -0.16255
 N106 N 0.53050 0.42308 -0.07405
 N107 N 0.55157 0.39522 -0.08523
 N108 N 0.46969 0.45378 -0.12078
 N109 N 0.44833 0.44820 -0.16425
 C110 C 0.43527 0.41189 -0.14228
 C111 C 0.56519 0.41144 -0.14034
 N112 N 0.53071 0.57630 -0.07353
 N113 N 0.55193 0.60402 -0.08435
 N114 N 0.46976 0.54598 -0.12046
 N115 N 0.44834 0.55177 -0.16374
 N116 N 0.46985 0.57640 -0.07456
 N117 N 0.44875 0.60415 -0.08599
 N118 N 0.53103 0.54587 -0.11939
 N119 N 0.55271 0.55161 -0.16202
 Mn120 Mn 0.50035 0.49983 -0.12083
 C121 C 0.56554 0.58792 -0.13947
 C122 C 0.43545 0.58811 -0.14154
 N123 N 0.53002 0.42284 0.07211
 N124 N 0.55121 0.39521 0.08349
 N125 N 0.46881 0.45336 0.11696
 N126 N 0.44715 0.44760 0.15967
 N127 N 0.46913 0.42290 0.07114
 N128 N 0.44793 0.39514 0.08208
 N129 N 0.53003 0.45324 0.11804
 N130 N 0.55143 0.44753 0.16135
 Mn131 Mn 0.49982 0.42248 -0.00146
 C132 C 0.56443 0.41130 0.13914
 C133 C 0.43434 0.41125 0.13722
 N134 N 0.46933 0.57610 0.07158
 N135 N 0.44821 0.60387 0.08276
 N136 N 0.53018 0.54541 0.11836
 N137 N 0.55150 0.55104 0.16192
 N138 N 0.53023 0.57599 0.07261
 N139 N 0.55140 0.60364 0.08437
 N140 N 0.46899 0.54550 0.11728
 N141 N 0.44743 0.55122 0.16021
 Mn142 Mn 0.50003 0.57672 -0.00097
 Mn143 Mn 0.49950 0.49937 0.11838
 Cl144 Cl 0.49993 0.49960 -0.00123
 C145 C 0.43468 0.58765 0.13798
 C146 C 0.56453 0.58739 0.14002
 C147 C 0.34214 0.33334 0.27944
 N148 N 0.34316 0.29078 0.29404
 N149 N 0.32356 0.27313 0.33519
 C150 C 0.30203 0.29730 0.36262
 N151 N 0.30072 0.33969 0.34682
 N152 N 0.32052 0.35742 0.30641
 C153 C 0.36509 0.35369 0.23911
 N154 N 0.37040 0.39632 0.24564
 N155 N 0.39231 0.41466 0.21248
 C156 C 0.40946 0.39115 0.17086
 N157 N 0.40395 0.34861 0.16349
 N158 N 0.38225 0.33012 0.19743
 C159 C -0.15696 0.83485 0.28395
 N160 N -0.15798 0.79159 0.29198
 N161 N -0.17773 0.77369 0.33251
 C162 C -0.19733 0.79842 0.36581
 N163 N -0.19655 0.84159 0.35693
 N164 N -0.17665 0.85949 0.31701
 C165 C -0.13387 0.85509 0.24388
 N166 N -0.12740 0.89715 0.25325
 N167 N -0.10547 0.91533 0.21996
 C168 C -0.08942 0.89224 0.17549
 N169 N -0.09608 0.85028 0.16536
 N170 N -0.11782 0.83194 0.19931
 C171 C 0.65640 0.66458 0.28403
 N172 N 0.65744 0.70785 0.29193
 N173 N 0.67711 0.72571 0.33256
 C174 C 0.69664 0.70096 0.36608
 N175 N 0.69584 0.65779 0.35734
 N176 N 0.67600 0.63992 0.31733
 C177 C 0.63342 0.64439 0.24367
 N178 N 0.62691 0.60232 0.25299
 N179 N 0.60511 0.58417 0.21934
 C180 C 0.58924 0.60728 0.17454
 N181 N 0.59593 0.64925 0.16447
 N182 N 0.61755 0.66757 0.19878
 C183 C 0.15749 1.16702 0.28069
 N184 N 0.15646 1.20960 0.29492
 N185 N 0.17608 1.22734 0.33580
 C186 C 0.19762 1.20323 0.36331
 N187 N 0.19893 1.16082 0.34787
 N188 N 0.17912 1.14300 0.30772
 C189 C 0.13453 1.14659 0.24065
 N190 N 0.12922 1.10397 0.24756
 N191 N 0.10731 1.08557 0.21464
 C192 C 0.09015 1.10901 0.17293
 N193 N 0.09566 1.15154 0.16520
 N194 N 0.11736 1.17009 0.19889
 C195 C 0.65697 0.33308 -0.28284
 N196 N 0.67875 0.35700 -0.30967
 N197 N 0.69852 0.33914 -0.34990
 C198 C 0.69702 0.29678 -0.36565
 N199 N 0.67532 0.27276 -0.33837
 N200 N 0.65575 0.29054 -0.29740
 C201 C 0.63410 0.35355 -0.24255
 N202 N 0.61686 0.33004 -0.20083
 N203 N 0.59526 0.34863 -0.16683
 C204 C 0.58993 0.39122 -0.17418
 N205 N 0.60716 0.41467 -0.21586
 N206 N 0.62897 0.39622 -0.24908
 C207 C 0.15786 0.83552 -0.28031
 N208 N 0.17745 0.86019 -0.31383
 N209 N 0.19733 0.84231 -0.35369
 C210 C 0.19820 0.79912 -0.36206
 N211 N 0.17871 0.77436 -0.32828
 N212 N 0.15898 0.79224 -0.28780
 C213 C 0.13476 0.85571 -0.24039
 N214 N 0.11877 0.83255 -0.19557
 N215 N 0.09696 0.85081 -0.16184
 C216 C 0.09020 0.89268 -0.17245
 N217 N 0.10619 0.91577 -0.21715
 N218 N 0.12817 0.89768 -0.25023
 C219 C 0.34355 0.66637 -0.28378
 N220 N 0.32175 0.64246 -0.31041
 N221 N 0.30188 0.66039 -0.35029
 C222 C 0.30329 0.70281 -0.36588
 N223 N 0.32501 0.72680 -0.33882
 N224 N 0.34468 0.70895 -0.29818
 C225 C 0.36649 0.64589 -0.24374
 N226 N 0.38359 0.66934 -0.20175
 N227 N 0.40521 0.65077 -0.16784
 C228 C 0.41074 0.60827 -0.17557
 N229 N 0.39367 0.58488 -0.21755
 N230 N 0.37182 0.60330 -0.25068
 C231 C -0.15765 1.16462 -0.28070
 N232 N -0.15875 1.20789 -0.28858
 N233 N -0.17846 1.22570 -0.32917
 C234 C -0.19795 1.20088 -0.36269
 N235 N -0.19711 1.15770 -0.35394
 N236 N -0.17724 1.13989 -0.31396
 C237 C -0.13457 1.14450 -0.24063
 N238 N -0.12804 1.10248 -0.25006
 N239 N -0.10608 1.08443 -0.21688
 C240 C -0.09006 1.10760 -0.17247
 N241 N -0.09677 1.14951 -0.16227
 N242 N -0.11856 1.16773 -0.19611
 C243 C 0.65768 0.66610 -0.28132
 N244 N 0.65650 0.70863 -0.29600
 N245 N 0.67604 0.72640 -0.33717
 C246 C 0.69766 0.70237 -0.36453
 N247 N 0.69913 0.66002 -0.34865
 N248 N 0.67939 0.64216 -0.30821
 C249 C 0.63478 0.64564 -0.24101
 N250 N 0.62951 0.60300 -0.24765
 N251 N 0.60761 0.58460 -0.21459
 C252 C 0.59042 0.60805 -0.17299
 N253 N 0.59589 0.65059 -0.16550
 N254 N 0.61758 0.66914 -0.19934
 C255 C 0.15664 1.16600 -0.28446
 N256 N 0.15754 1.20922 -0.29311
 N257 N 0.17718 1.22699 -0.33408
 C258 C 0.19679 1.20217 -0.36722
 N259 N 0.19612 1.15905 -0.35773
 N260 N 0.17632 1.14128 -0.31738
 C261 C 0.13369 1.14582 -0.24383
 N262 N 0.12738 1.10365 -0.25253
 N263 N 0.10561 1.08546 -0.21874
 C264 C 0.08956 1.10863 -0.17438
 N265 N 0.09605 1.15071 -0.16491
 N266 N 0.11764 1.16907 -0.19938
 C267 C 0.34322 0.33502 -0.28589
 N268 N 0.32363 0.35976 -0.31907
 N269 N 0.30377 0.34198 -0.35910
 C270 C 0.30294 0.29883 -0.36799
 N271 N 0.32246 0.27399 -0.33459
 N272 N 0.34216 0.29177 -0.29393
 C273 C 0.36623 0.35513 -0.24558
 N274 N 0.38212 0.33188 -0.20082
 N275 N 0.40379 0.35013 -0.16660
 C276 C 0.41051 0.39208 -0.17665
 N277 N 0.39462 0.41527 -0.22132
 N278 N 0.37278 0.39719 -0.25487
 C279 C -0.15712 0.83457 -0.28050
 N280 N -0.17673 0.85926 -0.31373
 N281 N -0.19657 0.84143 -0.35379
 C282 C -0.19735 0.79828 -0.36266
 N283 N -0.17783 0.77349 -0.32918
 N284 N -0.15815 0.79131 -0.28851
 C285 C -0.13409 0.85476 -0.24030
 N286 N -0.11803 0.83156 -0.19578
 N287 N -0.09631 0.84990 -0.16182
 C288 C -0.08972 0.89190 -0.17188
 N289 N -0.10579 0.91503 -0.21628
 N290 N -0.12768 0.89686 -0.24958
 C291 C 0.34299 0.66532 0.28161
 N292 N 0.32327 0.64073 0.31484
 N293 N 0.30365 0.65863 0.35537
 C294 C 0.30320 0.70175 0.36472
 N295 N 0.32282 0.72644 0.33123
 N296 N 0.34229 0.70855 0.29010
 C297 C 0.36582 0.64501 0.24100
 N298 N 0.38199 0.66820 0.19659
 N299 N 0.40357 0.64977 0.16234
 C300 C 0.40992 0.60766 0.17200
 N301 N 0.39373 0.58454 0.21628
 N302 N 0.37197 0.60281 0.24986
 C303 C -0.15715 1.16481 0.28387
 N304 N -0.17678 1.14004 0.31707
 N305 N -0.19669 1.15779 0.35703
 C306 C -0.19753 1.20095 0.36583
 N307 N -0.17799 1.22581 0.33240
 N308 N -0.15824 1.20807 0.29183
 C309 C -0.13408 1.14474 0.24367
 N310 N -0.11813 1.16801 0.19892
 N311 N -0.09639 1.14982 0.16485
 C312 C -0.08966 1.10790 0.17503
 N313 N -0.10562 1.08470 0.21968
 N314 N -0.12753 1.10272 0.25309
 C315 C 0.65645 0.33423 0.28243
 N316 N 0.65741 0.29097 0.29061
 N317 N 0.67702 0.27315 0.33145
 C318 C 0.69654 0.29795 0.36491
 N319 N 0.69583 0.34110 0.35587
 N320 N 0.67606 0.35892 0.31565
 C321 C 0.63348 0.35440 0.24208
 N322 N 0.62701 0.39645 0.25135
 N323 N 0.60517 0.41457 0.21787
 C324 C 0.58921 0.39144 0.17329
 N325 N 0.59586 0.34949 0.16324
 N326 N 0.61752 0.33120 0.19739
 C327 C 0.15741 0.83536 0.28427
 N328 N 0.15833 0.79211 0.29261
 N329 N 0.17800 0.77430 0.33330
 C330 C 0.19763 0.79908 0.36646
 N331 N 0.19695 0.84223 0.35728
 N332 N 0.17711 0.86005 0.31721
 C333 C 0.13443 0.85553 0.24391
 N334 N 0.12807 0.89765 0.25287
 N335 N 0.10625 0.91578 0.21933
 C336 C 0.09019 0.89261 0.17499
 N337 N 0.09672 0.85059 0.16525
 N338 N 0.11837 0.83228 0.19946
   
