data_POSCAR
  _audit_creation_date              2014-09-24
  _audit_creation_method            'ToBaCCo'
  _symmetry_space_group_name_H-M    'P1'
  _symmetry_Int_Tables_number       1
  _symmetry_cell_setting            triclinic
  loop_
  _symmetry_equiv_pos_as_xyz
 x,y,z
_cell_length_a 25.4719
_cell_length_b 26.0563
_cell_length_c 25.0177
_cell_angle_alpha 90.198100
_cell_angle_beta 90.047100
_cell_angle_gamma 90.035800
loop_
  _atom_site_label
  _atom_site_type_symbol
  _atom_site_fract_x
  _atom_site_fract_y
  _atom_site_fract_z
O1 O 0.32890 0.39348 0.05004
 O2 O 0.40306 0.31776 -0.05122
 O3 O 0.34900 0.40359 -0.05239
 O4 O 0.39762 0.31939 0.05226
 O5 O 0.32992 0.26739 0.04141
 O6 O 0.28012 0.35376 -0.06614
 O7 O 0.33312 0.26876 -0.06288
 O8 O 0.26105 0.34210 0.03718
 Cu9 Cu 0.37608 0.36372 0.00065
 Cu10 Cu 0.29415 0.30342 -0.01343
 C11 C 0.28210 0.37962 0.06104
 C12 C 0.38016 0.27987 -0.07388
 C13 C 0.30755 0.39307 -0.07795
 C14 C 0.37314 0.27880 0.06440
 O15 O 0.67431 0.60834 0.05385
 O16 O 0.60169 0.68439 -0.04644
 O17 O 0.65129 0.59738 -0.04706
 O18 O 0.60785 0.68428 0.05693
 O19 O 0.67645 0.73475 0.04452
 O20 O 0.72090 0.64565 -0.06286
 O21 O 0.67243 0.73209 -0.05894
 O22 O 0.74341 0.65780 0.04010
 Cu23 Cu 0.62709 0.63878 0.00573
 Cu24 Cu 0.71060 0.69682 -0.00997
 C25 C 0.72169 0.62083 0.06389
 C26 C 0.62528 0.72128 -0.06972
 C27 C 0.69193 0.60712 -0.07395
 C28 C 0.63313 0.72478 0.06779
 O29 O 0.67440 0.39386 0.94730
 O30 O 0.60242 0.31696 1.04736
 O31 O 0.65098 0.40441 1.04802
 O32 O 0.60868 0.31722 0.94382
 O33 O 0.67775 0.26744 0.95628
 O34 O 0.72104 0.35685 1.06398
 O35 O 0.67347 0.26979 1.05994
 O36 O 0.74387 0.34497 0.96120
 Cu37 Cu 0.62736 0.36279 0.99517
 Cu38 Cu 0.71134 0.30555 1.01108
 C39 C 0.72189 0.38180 0.93740
 C40 C 0.62630 0.28032 1.07077
 C41 C 0.69170 0.39510 1.07497
 C42 C 0.63446 0.27712 0.93276
 O43 O 0.32829 0.60558 0.94872
 O44 O 0.40158 0.68245 1.05000
 O45 O 0.34916 0.59556 1.05101
 O46 O 0.39621 0.68050 0.94656
 O47 O 0.32802 0.73172 0.95771
 O48 O 0.27966 0.64438 1.06501
 O49 O 0.33093 0.73030 1.06186
 O50 O 0.25988 0.65610 0.96171
 Cu51 Cu 0.37530 0.63596 0.99808
 Cu52 Cu 0.29262 0.69506 1.01234
 C53 C 0.28129 0.61886 0.93781
 C54 C 0.37816 0.71995 1.07274
 C55 C 0.30773 0.60548 1.07670
 C56 C 0.37136 0.72092 0.93473
 O57 O 0.05529 0.32255 0.39988
 O58 O -0.03435 0.41958 0.34704
 O59 O -0.04380 0.34400 0.41367
 O60 O 0.06146 0.39618 0.32814
 O61 O 0.03997 0.34128 0.26429
 O62 O -0.06524 0.28808 0.35078
 O63 O -0.05757 0.36436 0.28402
 O64 O 0.03497 0.26827 0.33505
 Cu65 Cu 0.01235 0.37549 0.37893
 Cu66 Cu -0.01420 0.30991 0.30218
 C67 C 0.06057 0.27934 0.37695
 C68 C -0.06128 0.40825 0.30618
 C69 C -0.07292 0.30784 0.39661
 C70 C 0.06778 0.37845 0.28113
 O71 O 0.05558 0.67747 0.59906
 O72 O -0.03450 0.58030 0.65194
 O73 O -0.04322 0.65426 0.58342
 O74 O 0.06164 0.60302 0.67005
 O75 O 0.03980 0.65809 0.73355
 O76 O -0.06526 0.71038 0.64583
 O77 O -0.05796 0.63594 0.71439
 O78 O 0.03465 0.73183 0.66353
 Cu79 Cu 0.01267 0.62385 0.61934
 Cu80 Cu -0.01441 0.68975 0.69556
 C81 C 0.06068 0.72075 0.62201
 C82 C -0.06163 0.59193 0.69258
 C83 C -0.07278 0.69011 0.60015
 C84 C 0.06766 0.62082 0.71706
 O85 O 1.05604 0.60729 0.31844
 O86 O 0.94363 0.67213 0.38186
 O87 O 0.95408 0.59934 0.31027
 O88 O 1.04316 0.67804 0.39344
 O89 O 1.04300 0.73862 0.33186
 O90 O 0.95701 0.65849 0.24731
 O91 O 0.94424 0.73017 0.31757
 O92 O 1.05952 0.66850 0.25771
 Cu93 Cu 0.99954 0.63274 0.35695
 Cu94 Cu 1.00180 0.70437 0.28177
 C95 C 1.07672 0.62699 0.27714
 C96 C 0.92563 0.71291 0.36090
 C97 C 0.93972 0.61608 0.26493
 C98 C 1.05528 0.72292 0.37818
 O99 O 1.05333 0.39225 0.68057
 O100 O 0.93959 0.32847 0.61770
 O101 O 0.95162 0.40102 0.68924
 O102 O 1.03945 0.32160 0.60556
 O103 O 1.03931 0.26112 0.66723
 O104 O 0.95437 0.34184 0.75218
 O105 O 0.94029 0.27037 0.68190
 O106 O 1.05654 0.33102 0.74131
 Cu107 Cu 0.99631 0.36721 0.64226
 Cu108 Cu 0.99839 0.29560 0.71739
 C109 C 1.07404 0.37240 0.72184
 C110 C 0.92132 0.28787 0.63882
 C111 C 0.93743 0.38441 0.73466
 C112 C 1.05172 0.27679 0.62094
 O113 O 0.38640 0.05192 0.31726
 O114 O 0.31027 -0.04744 0.38697
 O115 O 0.38752 -0.04741 0.31695
 O116 O 0.31245 0.05211 0.39005
 O117 O 0.25380 0.05308 0.32492
 O118 O 0.32771 -0.04702 0.25294
 O119 O 0.25166 -0.04653 0.32179
 O120 O 0.32666 0.05256 0.25311
 Cu121 Cu 0.35518 0.00208 0.35943
 Cu122 Cu 0.28407 0.00305 0.28172
 C123 C 0.36921 0.06882 0.27303
 C124 C 0.26767 -0.06337 0.36626
 C125 C 0.37050 -0.06370 0.27222
 C126 C 0.27022 0.06934 0.36982
 O127 O 0.62098 0.04499 0.68118
 O128 O 0.69233 -0.05734 0.60994
 O129 O 0.61656 -0.05416 0.68086
 O130 O 0.69657 0.04297 0.60868
 O131 O 0.75505 0.04156 0.67385
 O132 O 0.67697 -0.05658 0.74422
 O133 O 0.75184 -0.05930 0.67418
 O134 O 0.68090 0.04296 0.74506
 Cu135 Cu 0.65086 -0.00560 0.63844
 Cu136 Cu 0.72224 -0.00801 0.71555
 C137 C 0.63860 0.06068 0.72586
 C138 C 0.73399 -0.07588 0.63010
 C139 C 0.63335 -0.07156 0.72515
 C140 C 0.73924 0.05904 0.62936
 O141 O 0.31024 1.04969 0.61377
 O142 O 0.38574 0.94999 0.68375
 O143 O 0.31251 0.95012 0.61018
 O144 O 0.38939 1.04922 0.68188
 O145 O 0.33027 1.04958 0.74646
 O146 O 0.25411 0.95007 0.67544
 O147 O 0.32621 0.95014 0.74803
 O148 O 0.25231 1.04978 0.67950
 Cu149 Cu 0.35542 0.99988 0.64073
 Cu150 Cu 0.28490 1.00002 0.71881
 C151 C 0.26800 1.06616 0.63479
 C152 C 0.36846 0.93341 0.72810
 C153 C 0.27023 0.93333 0.63061
 C154 C 0.37312 1.06573 0.72673
 O155 O 0.61581 0.95745 0.31776
 O156 O 0.69148 1.05064 0.39810
 O157 O 0.61603 1.05704 0.32378
 O158 O 0.68967 0.95183 0.39025
 O159 O 0.74878 0.95367 0.32567
 O160 O 0.67816 1.06126 0.26248
 O161 O 0.75255 1.05202 0.33549
 O162 O 0.67617 0.96135 0.25451
 Cu163 Cu 0.64697 1.00453 0.36373
 Cu164 Cu 0.71969 1.00811 0.28804
 C165 C 0.63352 0.94338 0.27258
 C166 C 0.73630 1.06467 0.38152
 C167 C 0.63438 1.07624 0.28102
 C168 C 0.73171 0.93485 0.36906
 C169 C 0.83909 0.76603 0.46499
 C170 C 0.83305 0.75906 0.52034
 C171 C 0.80409 0.79502 0.54994
 C172 C 0.77925 0.83652 0.52424
 C173 C 0.78208 0.84145 0.46850
 C174 C 0.81333 0.80701 0.43928
 H175 H 0.81717 0.81180 0.39651
 H176 H 0.79915 0.78950 0.59253
 C177 C 0.14038 0.21155 0.47579
 C178 C 0.13343 0.20384 0.53059
 C179 C 0.16963 0.17404 0.55860
 C180 C 0.21057 0.14859 0.53131
 C181 C 0.21432 0.15246 0.47542
 C182 C 0.18032 0.18569 0.44808
 H183 H 0.18377 0.19012 0.40521
 H184 H 0.16305 0.16722 0.60073
 C185 C 0.14158 0.78917 0.52442
 C186 C 0.13495 0.79680 0.46957
 C187 C 0.17084 0.82712 0.44185
 C188 C 0.21115 0.85323 0.46943
 C189 C 0.21462 0.84944 0.52536
 C190 C 0.18086 0.81576 0.55251
 H191 H 0.18407 0.81145 0.59542
 H192 H 0.16444 0.83376 0.39964
 C193 C 0.83637 0.23327 0.53428
 C194 C 0.83638 0.23659 0.47829
 C195 C 0.82006 0.19412 0.44783
 C196 C 0.80077 0.14982 0.47326
 C197 C 0.79341 0.14956 0.52894
 C198 C 0.81269 0.19084 0.55936
 H199 H 0.81061 0.18938 0.60254
 H200 H 0.82408 0.19480 0.40475
 C201 C 0.47104 0.84692 0.77698
 C202 C 0.52619 0.84579 0.77669
 C203 C 0.55227 0.81116 0.81042
 C204 C 0.52386 0.77869 0.84474
 C205 C 0.46896 0.78023 0.84515
 C206 C 0.44270 0.81394 0.81105
 H207 H 0.40022 0.81505 0.81170
 H208 H 0.59475 0.81023 0.81078
 C209 C 0.47222 0.15550 0.22495
 C210 C 0.52741 0.15741 0.22632
 C211 C 0.55358 0.19194 0.19250
 C212 C 0.52526 0.22360 0.15723
 C213 C 0.47040 0.22152 0.15603
 C214 C 0.44405 0.18789 0.19010
 H215 H 0.40160 0.18631 0.18875
 H216 H 0.59605 0.19332 0.19263
 C217 C 0.53573 0.14689 0.77770
 C218 C 0.48048 0.14852 0.77729
 C219 C 0.45434 0.18423 0.81014
 C220 C 0.48263 0.21756 0.84382
 C221 C 0.53755 0.21532 0.84457
 C222 C 0.56393 0.18042 0.81147
 H223 H 0.60639 0.17907 0.81244
 H224 H 0.41187 0.18548 0.81012
 C225 C 0.53223 0.85584 0.22015
 C226 C 0.47711 0.85351 0.22068
 C227 C 0.45126 0.81751 0.18789
 C228 C 0.47994 0.78424 0.15447
 C229 C 0.53488 0.78702 0.15388
 C230 C 0.56084 0.82253 0.18668
 H231 H 0.60330 0.82437 0.18593
 H232 H 0.40880 0.81589 0.18788
 C233 C 0.76733 0.47816 0.84078
 C234 C 0.75560 0.52935 0.82949
 C235 C 0.78971 0.55839 0.79838
 C236 C 0.83419 0.53613 0.77533
 C237 C 0.84444 0.48326 0.78283
 C238 C 0.81147 0.45515 0.81706
 H239 H 0.81932 0.41493 0.82423
 H240 H 0.78098 0.59846 0.79106
 C241 C 0.23446 0.47278 0.16133
 C242 C 0.24272 0.52514 0.17179
 C243 C 0.20761 0.55197 0.20436
 C244 C 0.16598 0.52622 0.22947
 C245 C 0.16049 0.47293 0.22359
 C246 C 0.19351 0.44658 0.18781
 H247 H 0.18824 0.40576 0.18163
 H248 H 0.21379 0.59255 0.21153
 C249 C 0.76743 0.52433 0.16019
 C250 C 0.75544 0.47315 0.17113
 C251 C 0.78974 0.44354 0.20140
 C252 C 0.83468 0.46528 0.22414
 C253 C 0.84524 0.51819 0.21714
 C254 C 0.81205 0.54686 0.18360
 H255 H 0.82014 0.58708 0.17667
 H256 H 0.78081 0.40343 0.20832
 C257 C 0.23351 0.52550 0.83762
 C258 C 0.24134 0.47306 0.82719
 C259 C 0.20589 0.44647 0.79463
 C260 C 0.16441 0.47250 0.76951
 C261 C 0.15942 0.52584 0.77534
 C262 C 0.19272 0.55196 0.81109
 H263 H 0.18781 0.59282 0.81720
 H264 H 0.21174 0.40586 0.78742
 N265 N 0.25186 0.40598 0.10045
 N266 N 0.26712 0.44718 0.12290
 N267 N 0.75187 0.59303 0.10184
 N268 N 0.73513 0.55224 0.12358
 N269 N 0.75187 0.40977 0.89945
 N270 N 0.73510 0.45054 0.87769
 N271 N 0.25117 0.59224 0.89842
 N272 N 0.26639 0.55102 0.87602
 N273 N 0.09493 0.24237 0.39958
 N274 N 0.10516 0.24538 0.44915
 N275 N 0.09529 0.75784 0.59988
 N276 N 0.10649 0.75481 0.55057
 N277 N 0.88660 0.74224 0.38788
 N278 N 0.87416 0.73310 0.43613
 N279 N 0.88239 0.25832 0.61176
 N280 N 0.86841 0.26838 0.56413
 N281 N 0.39791 0.10627 0.24428
 N282 N 0.44502 0.11788 0.25582
 N283 N 0.61059 0.09825 0.75588
 N284 N 0.56283 0.10916 0.74629
 N285 N 0.39682 0.89588 0.75702
 N286 N 0.44402 0.88446 0.74592
 N287 N 0.60571 0.90671 0.24121
 N288 N 0.55879 0.89364 0.25189
 N289 N 0.40711 0.24815 0.88851
 N290 N 0.45624 0.25147 0.88041
 N291 N 0.59885 0.75183 0.89182
 N292 N 0.55019 0.74655 0.88245
 N293 N 0.40475 0.75216 0.11023
 N294 N 0.45397 0.74976 0.11811
 N295 N 0.60017 0.24986 0.10953
 N296 N 0.55163 0.25541 0.11926
 N297 N 0.23631 0.10243 0.60751
 N298 N 0.24425 0.11361 0.55883
 N299 N 0.76907 0.08645 0.41457
 N300 N 0.80281 0.10179 0.44598
 N301 N 0.76191 0.88480 0.60247
 N302 N 0.75131 0.87469 0.55393
 N303 N 0.23607 0.90027 0.39354
 N304 N 0.24452 0.88861 0.44203
 N305 N 0.11582 0.39803 0.74870
 N306 N 0.12516 0.44518 0.74003
 N307 N 0.11814 0.60104 0.25019
 N308 N 0.12705 0.55384 0.25893
 N309 N 0.90410 0.44546 0.28436
 N310 N 0.86957 0.43115 0.25095
 N311 N 0.90359 0.55496 0.71465
 N312 N 0.86911 0.56974 0.74785
 N313 N 0.70172 0.57835 0.88457
 N314 N 0.70644 0.55040 0.84516
 N315 N 0.29559 0.42167 0.88098
 N316 N 0.28984 0.44928 0.84151
 N317 N 0.29636 0.57663 0.11772
 N318 N 0.29115 0.54871 0.15700
 N319 N 0.70136 0.42414 0.11627
 N320 N 0.70610 0.45248 0.15537
 N321 N 0.88638 0.70324 0.57131
 N322 N 0.84685 0.71075 0.54382
 N323 N 0.88678 0.29357 0.42555
 N324 N 0.84792 0.28493 0.45358
 N325 N 0.07058 0.24405 0.58627
 N326 N 0.08210 0.21172 0.55222
 N327 N 0.07336 0.75578 0.41313
 N328 N 0.08396 0.78812 0.44748
 N329 N 0.60330 0.89191 0.75488
 N330 N 0.55517 0.88227 0.74514
 N331 N 0.39980 0.89943 0.24218
 N332 N 0.44789 0.88997 0.25198
 N333 N 0.60527 0.11379 0.25162
 N334 N 0.55626 0.12124 0.25846
 N335 N 0.40317 0.10243 0.75635
 N336 N 0.45124 0.11178 0.74620
 N337 N 0.61087 0.76023 0.10500
 N338 N 0.56295 0.75419 0.11802
 N339 N 0.39559 0.24517 0.10331
 N340 N 0.44290 0.25267 0.11802
 N341 N 0.61286 0.24183 0.89492
 N342 N 0.56516 0.24794 0.88107
 N343 N 0.39371 0.75517 0.89639
 N344 N 0.44131 0.74842 0.88237
 N345 N 0.76089 0.89449 0.39407
 N346 N 0.75352 0.88221 0.44273
 N347 N 0.23905 0.89635 0.60261
 N348 N 0.24814 0.88427 0.55413
 N349 N 0.23928 0.10621 0.39812
 N350 N 0.24814 0.11787 0.44677
 N351 N 0.76934 0.09848 0.60375
 N352 N 0.76630 0.10726 0.55375
 N353 N 0.90183 0.58852 0.23397
 N354 N 0.88727 0.54313 0.24560
 N355 N 0.90013 0.41236 0.76587
 N356 N 0.88588 0.45780 0.75412
 N357 N 0.10548 0.59793 0.75212
 N358 N 0.12068 0.55204 0.74370
 N359 N 0.10593 0.40126 0.24644
 N360 N 0.12147 0.44701 0.25507
   
