data_POSCAR
  _audit_creation_date              2014-09-24
  _audit_creation_method            'ToBaCCo'
  _symmetry_space_group_name_H-M    'P1'
  _symmetry_Int_Tables_number       1
  _symmetry_cell_setting            triclinic
  loop_
  _symmetry_equiv_pos_as_xyz
 x,y,z
_cell_length_a 44.8428
_cell_length_b 43.7132
_cell_length_c 45.0110
_cell_angle_alpha 90.527000
_cell_angle_beta 88.216000
_cell_angle_gamma 84.981800
loop_
  _atom_site_label
  _atom_site_type_symbol
  _atom_site_fract_x
  _atom_site_fract_y
  _atom_site_fract_z
N1 N 0.58749 0.67333 0.62258
 N2 N 0.57685 0.65941 0.64588
 C3 C 0.55081 0.67470 0.65523
 C4 C 0.54467 0.69916 0.63648
 C5 C 0.56827 0.69751 0.61592
 H6 H 0.53714 0.66837 0.67402
 H7 H 0.57153 0.71321 0.59790
 Cu8 Cu 0.59763 0.62235 0.66152
 Cu9 Cu 0.62614 0.66007 0.60370
 Cu10 Cu 0.66557 0.59631 0.63310
 N11 N 0.62042 0.58679 0.67780
 N12 N 0.64752 0.57766 0.66754
 C13 C 0.65878 0.55387 0.68372
 C14 C 0.63733 0.54740 0.70506
 C15 C 0.61323 0.56868 0.70050
 H16 H 0.68065 0.54184 0.67971
 H17 H 0.59227 0.57110 0.71320
 N18 N 0.68013 0.61823 0.59826
 N19 N 0.66561 0.64317 0.58770
 C20 C 0.68167 0.65334 0.56459
 C21 C 0.70721 0.63356 0.56019
 C22 C 0.70545 0.61149 0.58175
 H23 H 0.67496 0.67318 0.55142
 H24 H 0.72163 0.59212 0.58520
 H25 H 0.62623 0.61424 0.61465
 H26 H 0.64418 0.63964 0.64113
 N27 N 0.91172 0.33297 0.09961
 N28 N 0.92144 0.34230 0.12511
 C29 C 0.94544 0.32356 0.13255
 C30 C 0.95147 0.30171 0.11020
 C31 C 0.92960 0.30848 0.08956
 H32 H 0.95795 0.32586 0.15249
 H33 H 0.92631 0.29611 0.06920
 Cu34 Cu 0.90241 0.37873 0.14541
 Cu35 Cu 0.87553 0.35202 0.08225
 Cu36 Cu 0.83974 0.41547 0.11936
 N37 N 0.88228 0.41453 0.16586
 N38 N 0.85717 0.42807 0.15613
 C39 C 0.84735 0.45127 0.17480
 C40 C 0.86763 0.45258 0.19718
 C41 C 0.88961 0.42909 0.19076
 H42 H 0.82732 0.46648 0.17197
 H43 H 0.90920 0.42293 0.20355
 N44 N 0.82560 0.39921 0.08184
 N45 N 0.83862 0.37440 0.06830
 C46 C 0.82273 0.36800 0.04445
 C47 C 0.79900 0.39016 0.04262
 C48 C 0.80149 0.40964 0.06658
 H49 H 0.82800 0.34875 0.02938
 H50 H 0.78631 0.42938 0.07286
 H51 H 0.87891 0.39551 0.09949
 H52 H 0.85583 0.36977 0.12160
 N53 N 0.41282 0.18145 -0.12194
 N54 N 0.42346 0.16874 -0.14711
 C55 C 0.44643 0.18405 -0.15728
 C56 C 0.45057 0.20727 -0.13716
 C57 C 0.42901 0.20486 -0.11493
 H58 H 0.45960 0.17840 -0.17742
 H59 H 0.42516 0.21936 -0.09534
 Cu60 Cu 0.40699 0.13267 -0.16337
 Cu61 Cu 0.37816 0.16739 -0.10069
 Cu62 Cu 0.34767 0.10382 -0.12997
 N63 N 0.39012 0.09664 -0.17922
 N64 N 0.36621 0.08618 -0.16669
 C65 C 0.35848 0.06209 -0.18269
 C66 C 0.37895 0.05686 -0.20614
 C67 C 0.39876 0.07915 -0.20327
 H68 H 0.33967 0.04899 -0.17741
 H69 H 0.41769 0.08263 -0.21795
 N70 N 0.33214 0.12491 -0.09302
 N71 N 0.34310 0.14975 -0.08248
 C72 C 0.32703 0.15950 -0.05789
 C73 C 0.30526 0.13959 -0.05249
 C74 C 0.30923 0.11784 -0.07502
 H75 H 0.33117 0.17927 -0.04451
 H76 H 0.29604 0.09859 -0.07822
 H77 H 0.38536 0.12204 -0.11459
 H78 H 0.35962 0.14783 -0.13700
 N79 N 0.08359 0.81722 0.38092
 N80 N 0.07651 0.82718 0.35438
 C81 C 0.05434 0.81149 0.34417
 C82 C 0.04684 0.79075 0.36570
 C83 C 0.06576 0.79523 0.38880
 H84 H 0.04422 0.81535 0.32290
 H85 H 0.06699 0.78281 0.40946
 Cu86 Cu 0.09634 0.86017 0.33581
 Cu87 Cu 0.11678 0.83201 0.40216
 Cu88 Cu 0.14781 0.89555 0.37316
 N89 N 0.10954 0.89927 0.32314
 N90 N 0.13070 0.91225 0.33687
 C91 C 0.13678 0.93787 0.32233
 C92 C 0.11799 0.94140 0.29863
 C93 C 0.10093 0.91657 0.29980
 H94 H 0.15329 0.95309 0.32874
 H95 H 0.08405 0.91113 0.28443
 N96 N 0.16183 0.87514 0.40967
 N97 N 0.15061 0.85035 0.42021
 C98 C 0.16585 0.84086 0.44424
 C99 C 0.18736 0.86093 0.44927
 C100 C 0.18408 0.88248 0.42711
 H101 H 0.16150 0.82101 0.45731
 H102 H 0.19746 0.90162 0.42362
 H103 H 0.10906 0.87586 0.38540
 H104 H 0.13975 0.85011 0.36677
 C105 C 0.12295 0.14853 0.11844
 C106 C 0.14877 0.13390 0.10443
 C107 C 0.16283 0.10768 0.11656
 C108 C 0.15150 0.09602 0.14313
 C109 C 0.12596 0.11044 0.15695
 C110 C 0.11177 0.13705 0.14469
 C111 C 0.10431 0.17393 0.11133
 N112 N 0.08255 0.17839 0.13291
 C113 C 0.08687 0.15604 0.15345
 C114 C 0.11948 0.09353 0.18160
 N115 N 0.14077 0.06964 0.18331
 C116 C 0.16050 0.07095 0.15996
 C117 C 0.18690 0.09813 0.09800
 N118 N 0.18792 0.11817 0.07519
 C119 C 0.16483 0.14021 0.07901
 H120 H 0.10650 0.18828 0.09204
 H121 H 0.07267 0.15357 0.17302
 H122 H 0.10073 0.09823 0.19719
 H123 H 0.17953 0.05445 0.15523
 H124 H 0.20276 0.07838 0.10109
 H125 H 0.15998 0.15925 0.06420
 C126 C 0.37083 0.85325 0.60738
 C127 C 0.34437 0.86732 0.59595
 C128 C 0.33017 0.89331 0.60974
 C129 C 0.34197 0.90525 0.63546
 C130 C 0.36807 0.89134 0.64674
 C131 C 0.38246 0.86506 0.63274
 C132 C 0.38987 0.82834 0.59812
 N133 N 0.41249 0.82462 0.61748
 C134 C 0.40808 0.84681 0.63882
 C135 C 0.37490 0.90840 0.67104
 N136 N 0.35333 0.93196 0.67505
 C137 C 0.33304 0.93025 0.65344
 C138 C 0.30563 0.90250 0.59336
 N139 N 0.30445 0.88248 0.57027
 C140 C 0.32791 0.86080 0.57175
 H141 H 0.38735 0.81384 0.57889
 H142 H 0.42272 0.84970 0.65713
 H143 H 0.39414 0.90405 0.68483
 H144 H 0.31367 0.94642 0.65060
 H145 H 0.28963 0.92209 0.59805
 H146 H 0.33283 0.84195 0.55609
 C147 C 0.89779 0.63932 0.39912
 C148 C 0.87310 0.62575 0.41145
 C149 C 0.86230 0.60097 0.39724
 C150 C 0.87568 0.58976 0.37027
 C151 C 0.90001 0.60316 0.35808
 C152 C 0.91097 0.62827 0.37247
 C153 C 0.91337 0.66332 0.40825
 N154 N 0.93534 0.66726 0.38756
 C155 C 0.93395 0.64612 0.36552
 C156 C 0.90863 0.58736 0.33220
 N157 N 0.88987 0.56500 0.32829
 C158 C 0.86954 0.56640 0.35133
 C159 C 0.83859 0.59223 0.41433
 N160 N 0.83457 0.61138 0.43831
 C161 C 0.85540 0.63208 0.43668
 H162 H 0.90887 0.67714 0.42823
 H163 H 0.94883 0.64371 0.34606
 H164 H 0.92688 0.59206 0.31708
 H165 H 0.85177 0.55133 0.35417
 H166 H 0.82495 0.57367 0.40947
 H167 H 0.85760 0.65021 0.45281
 C168 C 0.60973 0.34895 -0.10743
 C169 C 0.63608 0.35974 -0.09703
 C170 C 0.64761 0.38488 -0.11017
 C171 C 0.63321 0.39922 -0.13422
 C172 C 0.60719 0.38856 -0.14448
 C173 C 0.59552 0.36310 -0.13117
 C174 C 0.59325 0.32528 -0.09869
 N175 N 0.56967 0.32455 -0.11681
 C176 C 0.57095 0.34743 -0.13685
 C177 C 0.59786 0.40711 -0.16756
 N178 N 0.61783 0.42841 -0.17171
 C179 C 0.63962 0.42369 -0.15160
 C180 C 0.67274 0.39076 -0.09504
 N181 N 0.67696 0.36948 -0.07347
 C182 C 0.65471 0.35037 -0.07451
 H183 H 0.59830 0.30944 -0.08082
 H184 H 0.55501 0.35242 -0.15411
 H185 H 0.57827 0.40504 -0.18065
 H186 H 0.65854 0.43727 -0.14964
 H187 H 0.68699 0.40906 -0.09943
 H188 H 0.65197 0.33147 -0.05958
 C189 C 0.01333 0.24912 0.13422
 C190 C 0.02056 0.23163 0.10829
 N191 N 0.00452 0.23734 0.08358
 C192 C -0.01847 0.25981 0.08355
 C193 C -0.02542 0.27797 0.10931
 N194 N -0.00912 0.27205 0.13400
 N195 N 0.02862 0.24264 0.15929
 C196 C 0.05091 0.21946 0.15956
 C197 C 0.05868 0.20240 0.13343
 N198 N 0.04330 0.20899 0.10834
 H199 H -0.03062 0.26369 0.06337
 H200 H 0.06286 0.21472 0.17976
 C201 C 0.48504 0.75739 0.61331
 C202 C 0.47093 0.76637 0.64068
 N203 N 0.48076 0.75289 0.66603
 C204 C 0.50415 0.73085 0.66529
 C205 C 0.51876 0.72229 0.63801
 N206 N 0.50881 0.73588 0.61262
 N207 N 0.47463 0.77021 0.58786
 C208 C 0.45077 0.79171 0.58855
 C209 C 0.43701 0.80125 0.61597
 N210 N 0.44755 0.78831 0.64144
 H211 H 0.51161 0.72058 0.68586
 H212 H 0.44301 0.80174 0.56799
 C213 C 0.99797 0.73278 0.38976
 C214 C 0.98379 0.72643 0.36334
 N215 N 0.99024 0.74196 0.33833
 C216 C 1.01034 0.76352 0.33844
 C217 C 1.02528 0.76945 0.36472
 N218 N 1.01857 0.75375 0.38975
 N219 N 0.99079 0.71799 0.41504
 C220 C 0.97010 0.69701 0.41505
 C221 C 0.95641 0.69004 0.38845
 N222 N 0.96368 0.70496 0.36316
 H223 H 1.01494 0.77525 0.31799
 H224 H 0.96485 0.68537 0.43542
 C225 C 0.50445 0.26162 -0.11339
 C226 C 0.51580 0.27140 -0.14078
 N227 N 0.50595 0.25984 -0.16642
 C228 C 0.48520 0.23893 -0.16593
 C229 C 0.47337 0.22951 -0.13855
 N230 N 0.48329 0.24122 -0.11289
 N231 N 0.51499 0.27244 -0.08774
 C232 C 0.53640 0.29264 -0.08823
 C233 C 0.54745 0.30290 -0.11561
 N234 N 0.53674 0.29203 -0.14128
 H235 H 0.47767 0.23016 -0.18670
 H236 H 0.54436 0.30103 -0.06750
 C237 C 0.14266 0.00121 0.24784
 C238 C 0.11567 0.01179 0.23485
 N239 N 0.09008 -0.00095 0.24270
 C240 C 0.09022 -0.02382 0.26299
 C241 C 0.11709 -0.03405 0.27646
 N242 N 0.14270 -0.02116 0.26857
 N243 N 0.16846 0.01314 0.23917
 C244 C 0.16849 0.03520 0.21806
 C245 C 0.14143 0.04625 0.20542
 N246 N 0.11559 0.03428 0.21425
 H247 H 0.06950 -0.03357 0.26887
 H248 H 0.18930 0.04440 0.21149
 C249 C 0.61436 0.49683 -0.23625
 C250 C 0.64144 0.47972 -0.23043
 N251 N 0.66662 0.48501 -0.24636
 C252 C 0.66602 0.50670 -0.26786
 C253 C 0.63901 0.52445 -0.27339
 N254 N 0.61385 0.51895 -0.25723
 N255 N 0.58893 0.49080 -0.22108
 C256 C 0.58939 0.46842 -0.20027
 C257 C 0.61660 0.45169 -0.19394
 N258 N 0.64205 0.45785 -0.20919
 H259 H 0.68660 0.51027 -0.27997
 H260 H 0.56887 0.46407 -0.18838
 C261 C 0.35264 0.99988 0.74138
 C262 C 0.37965 0.98775 0.72753
 N263 N 0.40580 0.99857 0.73534
 C264 C 0.40620 1.02101 0.75641
 C265 C 0.37927 1.03284 0.77071
 N266 N 0.35308 1.02185 0.76284
 N267 N 0.32641 0.98970 0.73291
 C268 C 0.32595 0.96791 0.71120
 C269 C 0.35300 0.95534 0.69764
 N270 N 0.37925 0.96558 0.70628
 H271 H 0.42738 1.02914 0.76226
 H272 H 0.30477 0.96007 0.70493
 C273 C 0.89241 0.50239 0.25709
 C274 C 0.86496 0.51538 0.26934
 N275 N 0.83898 0.50795 0.25763
 C276 C 0.83917 0.48806 0.23420
 C277 C 0.86659 0.47455 0.22223
 N278 N 0.89260 0.48205 0.23409
 N279 N 0.91841 0.51055 0.26820
 C280 C 0.91822 0.53113 0.29107
 C281 C 0.89078 0.54375 0.30376
 N282 N 0.86476 0.53544 0.29256
 H283 H 0.81812 0.48247 0.22535
 H284 H 0.93923 0.53715 0.29965
 C285 C 0.25174 0.11483 0.00503
 C286 C 0.24053 0.14301 0.01799
 N287 N 0.25087 0.16943 0.00800
 C288 C 0.27193 0.16898 -0.01444
 C289 C 0.28281 0.14086 -0.02786
 N290 N 0.27232 0.11441 -0.01778
 N291 N 0.24207 0.08833 0.01564
 C292 C 0.22164 0.08873 0.03866
 C293 C 0.20996 0.11695 0.05134
 N294 N 0.21970 0.14346 0.04056
 H295 H 0.27971 0.19040 -0.02204
 H296 H 0.21416 0.06733 0.04662
 C297 C 0.76790 0.60862 0.50519
 C298 C 0.77539 0.63677 0.49363
 N299 N 0.76031 0.66329 0.50376
 C300 C 0.73805 0.66295 0.52496
 C301 C 0.73088 0.63484 0.53697
 N302 N 0.74612 0.60831 0.52678
 N303 N 0.78227 0.58202 0.49437
 C304 C 0.80382 0.58229 0.47247
 C305 C 0.81175 0.61045 0.46121
 N306 N 0.79734 0.63709 0.47220
 H307 H 0.72642 0.68443 0.53268
 H308 H 0.81501 0.56081 0.46424
 C309 C 0.74547 0.36585 -0.01217
 C310 C 0.73114 0.39414 -0.02063
 N311 N 0.73906 0.42052 -0.00818
 C312 C 0.76068 0.41993 0.01239
 C313 C 0.77542 0.39169 0.02054
 N314 N 0.76746 0.36529 0.00792
 N315 N 0.73685 0.33940 -0.02385
 C316 C 0.71450 0.33993 -0.04363
 C317 C 0.70044 0.36822 -0.05252
 N318 N 0.70924 0.39471 -0.04082
 H319 H 0.76658 0.44130 0.02195
 H320 H 0.70805 0.31855 -0.05269
 C321 C 0.24036 0.88575 0.50440
 C322 C 0.25150 0.85759 0.51626
 N323 N 0.24112 0.83116 0.50647
 C324 C 0.22013 0.83159 0.48527
 C325 C 0.20941 0.85969 0.47287
 N326 N 0.21989 0.88614 0.48278
 N327 N 0.25008 0.91225 0.51482
 C328 C 0.27052 0.91187 0.53654
 C329 C 0.28220 0.88367 0.54802
 N330 N 0.27238 0.85715 0.53747
 H331 H 0.21238 0.81016 0.47776
 H332 H 0.27807 0.93328 0.54435
   
