data_POSCAR
  _audit_creation_date              2014-09-24
  _audit_creation_method            'ToBaCCo'
  _symmetry_space_group_name_H-M    'P1'
  _symmetry_Int_Tables_number       1
  _symmetry_cell_setting            triclinic
  loop_
  _symmetry_equiv_pos_as_xyz
 x,y,z
_cell_length_a 36.3136
_cell_length_b 36.1421
_cell_length_c 27.6466
_cell_angle_alpha 90.004200
_cell_angle_beta 90.001600
_cell_angle_gamma 90.383000
loop_
  _atom_site_label
  _atom_site_type_symbol
  _atom_site_fract_x
  _atom_site_fract_y
  _atom_site_fract_z
O1 O 0.04709 0.31861 -0.03539
 O2 O -0.02412 0.30931 0.05990
 O3 O 0.04811 0.31175 0.05796
 O4 O -0.02627 0.31797 -0.03282
 O5 O -0.02410 0.25728 -0.04220
 O6 O 0.04773 0.25085 0.05031
 O7 O -0.02348 0.24862 0.05000
 O8 O 0.04782 0.25770 -0.04265
 Cu9 Cu 0.01119 0.32066 0.01302
 Cu10 Cu 0.01215 0.24759 0.00276
 C11 C 0.06019 0.28938 -0.05406
 C12 C -0.03626 0.27722 0.07037
 C13 C 0.06053 0.28017 0.06929
 C14 C -0.03848 0.28833 -0.05172
 O15 O 0.45522 0.81045 0.53887
 O16 O 0.53043 0.80667 0.44919
 O17 O 0.45822 0.80902 0.44547
 O18 O 0.52746 0.80544 0.54357
 O19 O 0.52285 0.74442 0.54417
 O20 O 0.45629 0.74785 0.44523
 O21 O 0.52779 0.74557 0.45111
 O22 O 0.45187 0.74934 0.53851
 Cu23 Cu 0.49331 0.81413 0.49429
 Cu24 Cu 0.48938 0.74070 0.49466
 C25 C 0.44038 0.78049 0.55311
 C26 C 0.54217 0.77537 0.43554
 C27 C 0.44520 0.77872 0.42938
 C28 C 0.53684 0.77412 0.56031
 O29 O 1.03195 0.69674 0.03588
 O30 O 0.95641 0.69336 -0.05340
 O31 O 1.02818 0.69941 -0.05856
 O32 O 0.95949 0.69170 0.03966
 O33 O 0.95511 0.75270 0.04075
 O34 O 1.02505 0.76037 -0.05400
 O35 O 0.95383 0.75448 -0.05211
 O36 O 1.02676 0.75755 0.03946
 Cu37 Cu 0.99466 0.68909 -0.00922
 Cu38 Cu 0.98993 0.76238 -0.00608
 C39 C 1.04222 0.72784 0.05265
 C40 C 0.94207 0.72347 -0.06733
 C41 C 1.03832 0.73135 -0.07268
 C42 C 0.94475 0.72109 0.05545
 O43 O 0.54806 0.18973 0.55524
 O44 O 0.47501 0.18826 0.46125
 O45 O 0.54751 0.18620 0.46176
 O46 O 0.47510 0.18820 0.55531
 O47 O 0.47675 0.24936 0.55425
 O48 O 0.54760 0.24737 0.45978
 O49 O 0.47594 0.24942 0.46105
 O50 O 0.54822 0.25087 0.55296
 Cu51 Cu 0.51130 0.18187 0.50870
 Cu52 Cu 0.51217 0.25531 0.50683
 C53 C 0.56095 0.22077 0.56913
 C54 C 0.46286 0.21899 0.44581
 C55 C 0.56021 0.21655 0.44558
 C56 C 0.46323 0.21920 0.56988
 O57 O 0.68463 0.03605 -0.03817
 O58 O 0.68229 -0.03939 0.05209
 O59 O 0.68675 0.03348 0.05560
 O60 O 0.68106 -0.03663 -0.04183
 O61 O 0.74179 -0.04069 -0.04117
 O62 O 0.74747 0.03153 0.05083
 O63 O 0.74314 -0.04030 0.05190
 O64 O 0.74523 0.03108 -0.04204
 Cu65 Cu 0.67745 -0.00135 0.00717
 Cu66 Cu 0.75046 -0.00491 0.00470
 C67 C 0.71554 0.04651 -0.05493
 C68 C 0.71249 -0.05284 0.06687
 C69 C 0.71835 0.04511 0.06853
 C70 C 0.71068 -0.05109 -0.05700
 O71 O 0.18397 0.46288 0.53761
 O72 O 0.18392 0.53571 0.44424
 O73 O 0.19062 0.46325 0.44459
 O74 O 0.18208 0.53582 0.53874
 O75 O 0.24280 0.54037 0.54114
 O76 O 0.25122 0.46706 0.45080
 O77 O 0.24466 0.53904 0.44801
 O78 O 0.24449 0.46843 0.54338
 Cu79 Cu 0.17898 0.49915 0.49082
 Cu80 Cu 0.25181 0.50418 0.49627
 C81 C 0.21445 0.45284 0.55552
 C82 C 0.21423 0.54991 0.43066
 C83 C 0.22260 0.45219 0.43298
 C84 C 0.21133 0.55079 0.55513
 O85 O 0.32048 1.03754 0.03767
 O86 O 0.31022 0.96694 -0.05845
 O87 O 0.31286 1.03990 -0.05525
 O88 O 0.31503 0.96462 0.03568
 O89 O 0.25441 0.96765 0.04121
 O90 O 0.25231 1.04221 -0.04779
 O91 O 0.24970 0.97005 -0.05113
 O92 O 0.25990 1.03926 0.04493
 Cu93 Cu 0.32082 1.00187 -0.01082
 Cu94 Cu 0.24808 1.00512 -0.00255
 C95 C 0.29170 1.05086 0.05686
 C96 C 0.27813 0.95618 -0.07041
 C97 C 0.28207 1.05427 -0.06605
 C98 C 0.28467 0.95299 0.05304
 O99 O 0.82142 0.46338 0.45910
 O100 O 0.81278 0.53781 0.55015
 O101 O 0.81994 0.46507 0.55237
 O102 O 0.81341 0.53562 0.45583
 O103 O 0.75295 0.52809 0.45500
 O104 O 0.75925 0.45966 0.55202
 O105 O 0.75222 0.53139 0.54759
 O106 O 0.76080 0.45693 0.45917
 Cu107 Cu 0.82308 0.50130 0.50454
 Cu108 Cu 0.75026 0.49336 0.50345
 C109 C 0.79237 0.44701 0.44479
 C110 C 0.78081 0.54763 0.56338
 C111 C 0.79053 0.44985 0.56763
 C112 C 0.78183 0.54397 0.43951
 C113 C 0.31340 0.33043 0.32867
 C114 C 0.34142 0.30514 0.32680
 C115 C 0.32555 0.27137 0.31515
 N116 N 0.28910 0.27552 0.30752
 C117 C 0.28151 0.31153 0.31614
 C118 C 0.34291 0.23653 0.31660
 C119 C 0.33058 0.20756 0.28578
 C120 C 0.33987 0.17054 0.28933
 C121 C 0.32278 0.15248 0.25162
 C122 C 0.30468 0.17895 0.22455
 N123 N 0.30920 0.21238 0.24608
 C124 C 0.28598 0.17309 0.18008
 C125 C 0.25808 0.19797 0.16487
 C126 C 0.24171 0.19886 0.11954
 C127 C 0.21289 0.22283 0.12222
 C128 C 0.21231 0.23637 0.16896
 N129 N 0.24003 0.22120 0.19499
 C130 C 0.18483 0.25941 0.18890
 C131 C 0.19022 0.27548 0.23464
 C132 C 0.16325 0.28437 0.26798
 C133 C 0.18054 0.30356 0.30475
 C134 C 0.21745 0.30575 0.29247
 N135 N 0.22325 0.28754 0.25058
 C136 C 0.24528 0.32548 0.31688
 H137 H 0.31676 0.35925 0.33784
 H138 H 0.37025 0.31129 0.33260
 H139 H 0.24792 0.28704 0.23114
 H140 H 0.35673 0.15714 0.31604
 H141 H 0.32238 0.12294 0.24715
 H142 H 0.24877 0.18403 0.08722
 H143 H 0.19459 0.22870 0.09262
 H144 H 0.16760 0.31288 0.33770
 H145 H 0.30087 0.23776 0.23197
 H146 H 0.13453 0.27640 0.26730
 C147 C 0.78922 0.76663 0.11147
 C148 C 0.76332 0.79389 0.11348
 C149 C 0.74965 0.79403 0.16029
 N150 N 0.76652 0.76755 0.18665
 C151 C 0.79114 0.75108 0.15715
 C152 C 0.72543 0.82048 0.18035
 C153 C 0.70998 0.81452 0.22655
 C154 C 0.70050 0.84152 0.25973
 C155 C 0.68359 0.82369 0.29786
 C156 C 0.68330 0.78633 0.28687
 N157 N 0.70045 0.78084 0.24406
 C158 C 0.66629 0.75799 0.31413
 C159 C 0.68191 0.72222 0.31539
 C160 C 0.66636 0.69097 0.33631
 C161 C 0.69246 0.66389 0.33460
 C162 C 0.72350 0.67935 0.31342
 N163 N 0.71672 0.71483 0.30108
 C164 C 0.75774 0.66121 0.30794
 C165 C 0.78301 0.67027 0.27057
 C166 C 0.81049 0.64712 0.25386
 C167 C 0.82702 0.66464 0.21540
 C168 C 0.80942 0.69824 0.20939
 N169 N 0.78241 0.70118 0.24292
 C170 C 0.81669 0.72366 0.17142
 H171 H 0.80442 0.75902 0.07946
 H172 H 0.75609 0.81122 0.08336
 H173 H 0.76551 0.72374 0.24798
 H174 H 0.70700 0.87069 0.25837
 H175 H 0.67468 0.83669 0.33099
 H176 H 0.63933 0.68730 0.35159
 H177 H 0.68852 0.63581 0.34703
 H178 H 0.84759 0.65230 0.19239
 H179 H 0.70219 0.75574 0.22551
 H180 H 0.81641 0.61921 0.26528
 C181 C 0.80996 0.16576 0.16514
 C182 C 0.83841 0.19072 0.16657
 C183 C 0.82562 0.22176 0.19041
 N184 N 0.79039 0.21605 0.20456
 C185 C 0.78051 0.18196 0.18875
 C186 C 0.84609 0.25492 0.19731
 C187 C 0.83894 0.27976 0.23586
 C188 C 0.86417 0.30508 0.25423
 C189 C 0.84768 0.32228 0.29275
 C190 C 0.81278 0.30702 0.29734
 N191 N 0.80780 0.28095 0.26277
 C192 C 0.78785 0.31555 0.33501
 C193 C 0.75950 0.29097 0.34986
 C194 C 0.74384 0.29037 0.39550
 C195 C 0.71551 0.26532 0.39406
 C196 C 0.71479 0.25091 0.34762
 N197 N 0.74207 0.26637 0.32093
 C198 C 0.68713 0.22754 0.32803
 C199 C 0.69162 0.21230 0.28145
 C200 C 0.66377 0.20427 0.24884
 C201 C 0.68006 0.18727 0.20982
 C202 C 0.71736 0.18548 0.21974
 N203 N 0.72437 0.20182 0.26278
 C204 C 0.74412 0.16766 0.19128
 H205 H 0.81156 0.13905 0.14815
 H206 H 0.86563 0.18586 0.15234
 H207 H 0.74972 0.20235 0.28064
 H208 H 0.89256 0.30907 0.24373
 H209 H 0.86121 0.34167 0.31675
 H210 H 0.75197 0.30601 0.42705
 H211 H 0.69772 0.25934 0.42422
 H212 H 0.66616 0.17916 0.17689
 H213 H 0.78363 0.26649 0.25613
 H214 H 0.63509 0.21177 0.25124
 C215 C 0.16866 0.80839 0.15843
 C216 C 0.19775 0.83259 0.15576
 C217 C 0.22857 0.81354 0.17131
 N218 N 0.21910 0.77834 0.18280
 C219 C 0.18254 0.77501 0.17444
 C220 C 0.26536 0.82678 0.17113
 C221 C 0.29239 0.80801 0.19799
 C222 C 0.32969 0.80637 0.18790
 C223 C 0.34605 0.78883 0.22658
 C224 C 0.31820 0.78031 0.25898
 N225 N 0.28553 0.79109 0.24063
 C226 C 0.32236 0.76518 0.30560
 C227 C 0.29429 0.74221 0.32493
 C228 C 0.29128 0.73044 0.37250
 C229 C 0.26251 0.70583 0.37405
 C230 C 0.24907 0.70274 0.32737
 N231 N 0.26836 0.72523 0.29750
 C232 C 0.22152 0.67737 0.31228
 C233 C 0.19742 0.68520 0.27316
 C234 C 0.16653 0.66465 0.26050
 C235 C 0.14981 0.68273 0.22276
 C236 C 0.17070 0.71410 0.21299
 N237 N 0.19894 0.71581 0.24493
 C238 C 0.16212 0.74162 0.17812
 H239 H 0.14037 0.81500 0.15014
 H240 H 0.19555 0.86091 0.14413
 H241 H 0.21698 0.73787 0.24916
 H242 H 0.34355 0.81487 0.15518
 H243 H 0.37476 0.78146 0.22895
 H244 H 0.30754 0.73828 0.40343
 H245 H 0.25256 0.69211 0.40625
 H246 H 0.12371 0.67463 0.20731
 H247 H 0.26033 0.79067 0.25885
 H248 H 0.15500 0.64081 0.27854
 C249 C 0.81653 0.21727 0.88875
 C250 C 0.79026 0.19026 0.88712
 C251 C 0.76787 0.19768 0.84773
 N252 N 0.77926 0.22949 0.82619
 C253 C 0.80962 0.24102 0.85068
 C254 C 0.73665 0.17622 0.83378
 C255 C 0.71196 0.18820 0.79753
 C256 C 0.67505 0.17858 0.79504
 C257 C 0.66129 0.19407 0.75354
 C258 C 0.68989 0.21374 0.73215
 N259 N 0.72075 0.20991 0.75931
 C260 C 0.68821 0.23263 0.68725
 C261 C 0.71775 0.25532 0.67194
 C262 C 0.72715 0.26290 0.62452
 C263 C 0.75332 0.29038 0.62582
 C264 C 0.76016 0.29777 0.67423
 N265 N 0.73849 0.27604 0.70234
 C266 C 0.78272 0.32645 0.69297
 C267 C 0.79564 0.32398 0.74107
 C268 C 0.80664 0.35306 0.77054
 C269 C 0.82125 0.33772 0.81177
 C270 C 0.81768 0.29982 0.80695
 N271 N 0.80144 0.29157 0.76436
 C272 C 0.82993 0.27377 0.84090
 H273 H 0.83697 0.21959 0.91681
 H274 H 0.78764 0.16894 0.91404
 H275 H 0.79811 0.26508 0.74991
 H276 H 0.65910 0.16291 0.82101
 H277 H 0.63337 0.19050 0.74114
 H278 H 0.71693 0.24953 0.59217
 H279 H 0.76583 0.30255 0.59426
 H280 H 0.83172 0.35276 0.84276
 H281 H 0.74718 0.21852 0.74970
 H282 H 0.80263 0.38224 0.76511
 C283 C 0.25608 0.70898 0.60652
 C284 C 0.28404 0.73451 0.60703
 C285 C 0.28650 0.74788 0.65395
 N286 N 0.26103 0.73075 0.68215
 C287 C 0.24269 0.70661 0.65326
 C288 C 0.31358 0.77287 0.67184
 C289 C 0.30792 0.79120 0.71642
 C290 C 0.33469 0.80567 0.74683
 C291 C 0.31675 0.82532 0.78236
 C292 C 0.27937 0.82119 0.77375
 N293 N 0.27434 0.80017 0.73374
 C294 C 0.25039 0.83817 0.79954
 C295 C 0.21429 0.82446 0.79412
 C296 C 0.18212 0.84469 0.79651
 C297 C 0.15363 0.81950 0.79478
 C298 C 0.16955 0.78497 0.79089
 N299 N 0.20657 0.78803 0.78971
 C300 C 0.15073 0.75089 0.79225
 C301 C 0.16248 0.72078 0.76353
 C302 C 0.14610 0.68611 0.76177
 C303 C 0.16416 0.66637 0.72655
 C304 C 0.19170 0.68916 0.70811
 N305 N 0.18967 0.72254 0.73014
 C306 C 0.21599 0.68063 0.66950
 H307 H 0.24653 0.69423 0.57487
 H308 H 0.29997 0.74206 0.57570
 H309 H 0.20397 0.74635 0.72023
 H310 H 0.36398 0.80129 0.74560
 H311 H 0.33017 0.84040 0.81112
 H312 H 0.17933 0.87444 0.79754
 H313 H 0.12456 0.82588 0.79507
 H314 H 0.15581 0.63924 0.71471
 H315 H 0.24931 0.79551 0.71613
 H316 H 0.12243 0.67626 0.78169
 C317 C 0.21745 0.24714 0.88762
 C318 C 0.24398 0.22036 0.88791
 C319 C 0.25223 0.21281 0.84014
 N320 N 0.23269 0.23511 0.81062
 C321 C 0.21114 0.25606 0.83955
 C322 C 0.27456 0.18357 0.82371
 C323 C 0.29498 0.18679 0.78014
 C324 C 0.31617 0.15918 0.75943
 C325 C 0.33265 0.17415 0.71923
 C326 C 0.32197 0.21077 0.71675
 N327 N 0.29892 0.21827 0.75390
 C328 C 0.33363 0.23617 0.68088
 C329 C 0.31135 0.26632 0.66609
 C330 C 0.31782 0.28803 0.62564
 C331 C 0.29024 0.31322 0.62323
 C332 C 0.26714 0.30644 0.66202
 N333 N 0.27959 0.27706 0.68765
 C334 C 0.23418 0.32592 0.67145
 C335 C 0.20872 0.31374 0.70637
 C336 C 0.17091 0.31666 0.70226
 C337 C 0.15615 0.30264 0.74429
 C338 C 0.18546 0.29245 0.77339
 N339 N 0.21745 0.29828 0.74928
 C340 C 0.18337 0.27970 0.82163
 H341 H 0.20493 0.25836 0.91966
 H342 H 0.25614 0.20830 0.91989
 H343 H 0.24396 0.29544 0.76335
 H344 H 0.32027 0.13120 0.77157
 H345 H 0.34959 0.15907 0.69397
 H346 H 0.33877 0.28545 0.59840
 H347 H 0.28718 0.33275 0.59417
 H348 H 0.12715 0.29841 0.75068
 H349 H 0.28923 0.24433 0.76335
 H350 H 0.15551 0.32629 0.67127
 C351 C 0.75693 0.79251 0.88488
 C352 C 0.78525 0.76781 0.88271
 C353 C 0.78770 0.75619 0.83501
 N354 N 0.76197 0.77364 0.80799
 C355 C 0.74341 0.79619 0.83837
 C356 C 0.81491 0.73251 0.81544
 C357 C 0.80929 0.71590 0.76974
 C358 C 0.83615 0.70308 0.73851
 C359 C 0.81832 0.68418 0.70202
 C360 C 0.78091 0.68724 0.71089
 N361 N 0.77575 0.70689 0.75195
 C362 C 0.75207 0.67010 0.68469
 C363 C 0.71594 0.68347 0.68965
 C364 C 0.68362 0.66315 0.68572
 C365 C 0.65530 0.68809 0.68780
 C366 C 0.67139 0.72255 0.69392
 N367 N 0.70838 0.71972 0.69570
 C368 C 0.65250 0.75636 0.69491
 C369 C 0.66343 0.78511 0.72665
 C370 C 0.64584 0.81869 0.73231
 C371 C 0.66361 0.83710 0.76919
 C372 C 0.69207 0.81460 0.78484
 N373 N 0.69092 0.78259 0.75948
 C374 C 0.71643 0.82205 0.82385
 H375 H 0.74728 0.80590 0.91741
 H376 H 0.80141 0.75966 0.91348
 H377 H 0.70618 0.75903 0.76663
 H378 H 0.86540 0.70801 0.73998
 H379 H 0.83188 0.67036 0.67249
 H380 H 0.68049 0.63343 0.68396
 H381 H 0.62618 0.68159 0.68644
 H382 H 0.65443 0.86296 0.78412
 H383 H 0.75071 0.71026 0.76988
 H384 H 0.62144 0.82840 0.71412
 C385 C 0.30288 0.13993 0.09496
 C386 C 0.32763 0.10559 0.10075
 C387 C 0.29432 0.08050 0.09015
 C388 C 0.26963 0.11440 0.08371
 C389 C 0.28482 0.07837 0.14410
 C390 C 0.31811 0.10416 0.15544
 C391 C 0.29287 0.13839 0.14930
 C392 C 0.25990 0.11258 0.13803
 H393 H 0.31097 0.16505 0.07432
 H394 H 0.35561 0.10245 0.08516
 H395 H 0.24961 0.11851 0.05384
 H396 H 0.27742 0.05281 0.16425
 H397 H 0.34035 0.09791 0.18151
 H398 H 0.23173 0.11529 0.15316
 C399 C 0.73215 0.61672 0.61871
 C400 C 0.76055 0.61658 0.57730
 C401 C 0.77576 0.57982 0.59630
 C402 C 0.74749 0.57964 0.63755
 C403 C 0.80392 0.60054 0.62788
 C404 C 0.78835 0.63784 0.60940
 C405 C 0.76004 0.63767 0.65112
 C406 C 0.77550 0.60072 0.66981
 H407 H 0.70287 0.62236 0.61045
 H408 H 0.75460 0.62288 0.53878
 H409 H 0.73073 0.55542 0.64915
 H410 H 0.83353 0.59362 0.63140
 H411 H 0.80464 0.66197 0.59646
 H412 H 0.78158 0.59425 0.70822
 C413 C 0.69491 0.89069 0.16556
 C414 C 0.72753 0.91613 0.15026
 C415 C 0.71263 0.91633 0.09834
 C416 C 0.67994 0.89161 0.11302
 C417 C 0.73555 0.88221 0.08547
 C418 C 0.75067 0.88163 0.13769
 C419 C 0.71831 0.85635 0.15277
 C420 C 0.70297 0.85705 0.10068
 H421 H 0.67642 0.89551 0.19677
 H422 H 0.73754 0.94073 0.17053
 H423 H 0.65076 0.89600 0.10267
 H424 H 0.75234 0.87884 0.05221
 H425 H 0.77996 0.87750 0.14773
 H426 H 0.69243 0.83281 0.08012
 C427 C 0.19648 0.39071 0.65211
 C428 C 0.22600 0.42106 0.64262
 C429 C 0.21600 0.42041 0.58870
 C430 C 0.18629 0.39064 0.59753
 C431 C 0.24486 0.39047 0.57906
 C432 C 0.25494 0.39085 0.63335
 C433 C 0.22554 0.36052 0.64216
 C434 C 0.21536 0.36026 0.58816
 H435 H 0.17651 0.39164 0.68245
 H436 H 0.23024 0.44636 0.66475
 H437 H 0.15789 0.39099 0.58272
 H438 H 0.26488 0.39064 0.54870
 H439 H 0.28336 0.39121 0.64816
 H440 H 0.21112 0.33513 0.56570
 C441 C 0.91738 0.24724 0.17108
 C442 C 0.91815 0.23509 0.11739
 C443 C 0.93452 0.27299 0.10376
 C444 C 0.93413 0.28536 0.15687
 C445 C 0.89585 0.28874 0.09569
 C446 C 0.87912 0.25089 0.10976
 C447 C 0.87847 0.26277 0.16348
 C448 C 0.89478 0.30093 0.14929
 H449 H 0.92612 0.23005 0.20225
 H450 H 0.92773 0.20781 0.10408
 H451 H 0.95702 0.29972 0.17591
 H452 H 0.88728 0.30583 0.06433
 H453 H 0.85649 0.23715 0.08941
 H454 H 0.88502 0.32850 0.16120
 C455 C 0.37282 0.74531 0.62872
 C456 C 0.37307 0.75868 0.57563
 C457 C 0.40799 0.78139 0.58624
 C458 C 0.40810 0.76824 0.63897
 C459 C 0.38470 0.81514 0.59973
 C460 C 0.34934 0.79239 0.58970
 C461 C 0.34898 0.77883 0.64270
 C462 C 0.38421 0.80200 0.65305
 H463 H 0.36798 0.71634 0.64058
 H464 H 0.36868 0.74085 0.54340
 H465 H 0.43256 0.75830 0.65911
 H466 H 0.38986 0.84396 0.58749
 H467 H 0.32536 0.80306 0.56919
 H468 H 0.39102 0.82207 0.68198
 C469 C 0.08971 0.74584 0.15735
 C470 C 0.08551 0.76621 0.10838
 C471 C 0.07221 0.72987 0.08521
 C472 C 0.07603 0.70934 0.13356
 C473 C 0.11179 0.71987 0.07115
 C474 C 0.12546 0.75614 0.09466
 C475 C 0.12955 0.73603 0.14379
 C476 C 0.11632 0.69955 0.11998
 H477 H 0.08069 0.75659 0.19301
 H478 H 0.07287 0.79385 0.10354
 H479 H 0.05542 0.68994 0.14921
 H480 H 0.12061 0.70918 0.03535
 H481 H 0.14564 0.77483 0.07676
 H482 H 0.12924 0.67192 0.12320
 C483 C 0.64106 0.19382 0.63054
 C484 C 0.60109 0.20022 0.64847
 C485 C 0.59329 0.22258 0.60243
 C486 C 0.63266 0.21629 0.58410
 C487 C 0.60547 0.25851 0.62766
 C488 C 0.61388 0.23634 0.67404
 C489 C 0.65357 0.22977 0.65584
 C490 C 0.64507 0.25233 0.60961
 H491 H 0.65592 0.16709 0.63167
 H492 H 0.58265 0.17881 0.66431
 H493 H 0.64023 0.20801 0.54674
 H494 H 0.59058 0.28523 0.62659
 H495 H 0.60581 0.24549 0.71085
 H496 H 0.66040 0.27539 0.59226
 C497 C 0.71390 0.13909 0.91267
 C498 C 0.68762 0.10674 0.89914
 C499 C 0.71804 0.07919 0.91237
 C500 C 0.74416 0.11105 0.92602
 C501 C 0.73257 0.07949 0.86024
 C502 C 0.70236 0.10765 0.84641
 C503 C 0.72855 0.13995 0.86045
 C504 C 0.75874 0.11170 0.87348
 H505 H 0.70635 0.16370 0.93443
 H506 H 0.65821 0.10433 0.90970
 H507 H 0.76144 0.11218 0.95915
 H508 H 0.74009 0.05464 0.83891
 H509 H 0.68550 0.10463 0.81317
 H510 H 0.78816 0.11314 0.86266
 C511 C 0.20444 0.60255 0.32360
 C512 C 0.23744 0.58438 0.34965
 C513 C 0.21442 0.58154 0.39605
 C514 C 0.18120 0.59909 0.37061
 C515 C 0.22816 0.61972 0.41260
 C516 C 0.25117 0.62289 0.36584
 C517 C 0.21791 0.64117 0.34050
 C518 C 0.19496 0.63780 0.38706
 H519 H 0.19571 0.59406 0.28676
 H520 H 0.25491 0.56210 0.33454
 H521 H 0.15233 0.58892 0.37262
 H522 H 0.23849 0.62670 0.44922
 H523 H 0.28041 0.63192 0.36386
 H524 H 0.17747 0.65990 0.40258
 C525 C 0.22970 0.88927 0.86754
 C526 C 0.25732 0.88792 0.90981
 C527 C 0.27299 0.92556 0.89394
 C528 C 0.24551 0.92723 0.85183
 C529 C 0.30164 0.90638 0.86179
 C530 C 0.28561 0.86826 0.87716
 C531 C 0.25810 0.86988 0.83460
 C532 C 0.27401 0.90766 0.81898
 H533 H 0.20017 0.88314 0.87399
 H534 H 0.25060 0.87997 0.94761
 H535 H 0.22905 0.95175 0.84148
 H536 H 0.33134 0.91365 0.85970
 H537 H 0.30170 0.84378 0.88863
 H538 H 0.28083 0.91573 0.78127
 C539 C 0.75813 0.37307 0.38125
 C540 C 0.77755 0.37733 0.43061
 C541 C 0.79459 0.41391 0.41302
 C542 C 0.77521 0.40990 0.36398
 C543 C 0.82862 0.39350 0.39396
 C544 C 0.81148 0.35636 0.41133
 C545 C 0.79205 0.35197 0.36224
 C546 C 0.80904 0.38887 0.34430
 H547 H 0.72880 0.36518 0.37599
 H548 H 0.76439 0.37283 0.46639
 H549 H 0.76036 0.43227 0.34475
 H550 H 0.85765 0.40240 0.39925
 H551 H 0.82632 0.33413 0.43083
 H552 H 0.82158 0.39441 0.30840
 C553 C 0.11431 0.31014 0.84303
 C554 C 0.09052 0.27667 0.85952
 C555 C 0.09186 0.29122 0.91161
 C556 C 0.11507 0.32473 0.89575
 C557 C 0.12694 0.26901 0.92186
 C558 C 0.12581 0.25423 0.86951
 C559 C 0.14957 0.28740 0.85303
 C560 C 0.15058 0.30245 0.90534
 H561 H 0.10771 0.32940 0.81314
 H562 H 0.06557 0.26609 0.84073
 H563 H 0.11032 0.35383 0.90683
 H564 H 0.13206 0.25207 0.95465
 H565 H 0.13016 0.22496 0.85887
 H566 H 0.17486 0.31422 0.92442
 C567 C 0.63229 0.75974 0.39978
 C568 C 0.61001 0.79569 0.40674
 C569 C 0.57420 0.77315 0.40186
 C570 C 0.59608 0.73732 0.39513
 C571 C 0.57364 0.77962 0.34701
 C572 C 0.61000 0.80206 0.35123
 C573 C 0.63223 0.76599 0.34464
 C574 C 0.59596 0.74376 0.33982
 H575 H 0.65652 0.75150 0.42166
 H576 H 0.61555 0.81717 0.43456
 H577 H 0.59021 0.71055 0.41335
 H578 H 0.54916 0.78782 0.32559
 H579 H 0.61331 0.82921 0.33308
 H580 H 0.58987 0.72251 0.31189
 C581 C 0.85109 0.71117 0.89623
 C582 C 0.88638 0.68920 0.88479
 C583 C 0.90973 0.72289 0.89955
 C584 C 0.87488 0.74482 0.91156
 C585 C 0.90954 0.73746 0.84747
 C586 C 0.88557 0.70377 0.83212
 C587 C 0.85041 0.72616 0.84391
 C588 C 0.87432 0.75961 0.85914
 H589 H 0.82728 0.69956 0.91649
 H590 H 0.89164 0.66015 0.89565
 H591 H 0.87067 0.76180 0.94454
 H592 H 0.93389 0.74825 0.82757
 H593 H 0.89209 0.68454 0.80220
 H594 H 0.86938 0.78881 0.84868
 C595 C 0.38675 0.25729 0.39282
 C596 C 0.39153 0.22458 0.42791
 C597 C 0.43150 0.22037 0.41087
 C598 C 0.42699 0.25305 0.37588
 C599 C 0.41939 0.19286 0.37150
 C600 C 0.37877 0.19739 0.38804
 C601 C 0.37437 0.23017 0.35252
 C602 C 0.41459 0.22569 0.33587
 H603 H 0.37400 0.28319 0.40597
 H604 H 0.38224 0.22397 0.46617
 H605 H 0.44699 0.27608 0.37074
 H606 H 0.43302 0.16625 0.36301
 H607 H 0.35862 0.17482 0.39513
 H608 H 0.42414 0.22626 0.29774
 C609 C 0.68776 0.86220 0.89628
 C610 C 0.72015 0.87863 0.92578
 C611 C 0.70965 0.91745 0.90829
 C612 C 0.67727 0.90158 0.87900
 C613 C 0.73544 0.91382 0.86461
 C614 C 0.74595 0.87475 0.88175
 C615 C 0.71353 0.85810 0.85245
 C616 C 0.70331 0.89733 0.83471
 H617 H 0.66816 0.84076 0.90942
 H618 H 0.72714 0.87109 0.96360
 H619 H 0.64899 0.91303 0.87798
 H620 H 0.75502 0.93541 0.85180
 H621 H 0.77488 0.86504 0.88287
 H622 H 0.69774 0.90646 0.79712
 C623 C 0.19932 0.38014 0.35320
 C624 C 0.20764 0.38243 0.40809
 C625 C 0.22697 0.41983 0.39993
 C626 C 0.21858 0.41806 0.34560
 C627 C 0.26404 0.40043 0.39203
 C628 C 0.24479 0.36266 0.40000
 C629 C 0.23656 0.36040 0.34543
 C630 C 0.25567 0.39816 0.33722
 H631 H 0.17196 0.37439 0.33704
 H632 H 0.18778 0.37616 0.43755
 H633 H 0.20778 0.44120 0.32347
 H634 H 0.29083 0.40890 0.40807
 H635 H 0.25563 0.33977 0.42255
 H636 H 0.27512 0.40503 0.30754
 C637 C 0.27116 0.10829 0.83219
 C638 C 0.30567 0.09569 0.86088
 C639 C 0.28072 0.08583 0.90384
 C640 C 0.24640 0.09773 0.87556
 C641 C 0.28514 0.12492 0.92489
 C642 C 0.31019 0.13539 0.88153
 C643 C 0.27593 0.14773 0.85309
 C644 C 0.25076 0.13715 0.89620
 H645 H 0.26453 0.10109 0.79413
 H646 H 0.32819 0.07826 0.84643
 H647 H 0.22013 0.08196 0.87303
 H648 H 0.29088 0.13158 0.96339
 H649 H 0.33649 0.15109 0.88406
 H650 H 0.22673 0.15184 0.91154
 C651 C 0.75421 0.58910 0.33379
 C652 C 0.79248 0.57557 0.35116
 C653 C 0.77782 0.57421 0.40324
 C654 C 0.73978 0.58743 0.38641
 C655 C 0.79029 0.61431 0.41208
 C656 C 0.80477 0.61632 0.35953
 C657 C 0.76646 0.62938 0.34226
 C658 C 0.75230 0.62782 0.39496
 H659 H 0.73923 0.57883 0.30141
 H660 H 0.80922 0.55381 0.33355
 H661 H 0.71284 0.57555 0.39766
 H662 H 0.80519 0.62439 0.44464
 H663 H 0.83188 0.62843 0.34951
 H664 H 0.73618 0.64931 0.41412
 C665 C 0.07875 0.73809 0.81494
 C666 C 0.07750 0.70673 0.85334
 C667 C 0.06587 0.73515 0.89159
 C668 C 0.06661 0.76639 0.85392
 C669 C 0.10620 0.74284 0.90494
 C670 C 0.11837 0.71467 0.86616
 C671 C 0.11926 0.74592 0.82805
 C672 C 0.10736 0.77413 0.86700
 H673 H 0.06759 0.73625 0.77764
 H674 H 0.06501 0.67890 0.84814
 H675 H 0.04505 0.78770 0.84906
 H676 H 0.11730 0.74464 0.94230
 H677 H 0.13995 0.69342 0.87139
 H678 H 0.11901 0.80180 0.87549
 C679 C 0.65084 0.20615 0.40852
 C680 C 0.62675 0.23923 0.42388
 C681 C 0.59210 0.21659 0.41163
 C682 C 0.61579 0.18343 0.39676
 C683 C 0.59232 0.23138 0.35961
 C684 C 0.62735 0.25425 0.37156
 C685 C 0.65152 0.22135 0.35633
 C686 C 0.61665 0.19824 0.34416
 H687 H 0.67486 0.19533 0.42882
 H688 H 0.63070 0.25605 0.45711
 H689 H 0.61072 0.15421 0.40736
 H690 H 0.56792 0.24167 0.33965
 H691 H 0.63216 0.28357 0.36127
 H692 H 0.61121 0.17964 0.31307
 C693 C 0.86805 0.29072 0.92241
 C694 C 0.89733 0.26027 0.92848
 C695 C 0.92782 0.28870 0.91743
 C696 C 0.89897 0.31936 0.91163
 C697 C 0.92574 0.27952 0.86329
 C698 C 0.89503 0.25102 0.87403
 C699 C 0.86564 0.28137 0.86822
 C700 C 0.89630 0.31003 0.85685
 H701 H 0.84421 0.29517 0.94680
 H702 H 0.89796 0.23964 0.95824
 H703 H 0.90102 0.34764 0.92710
 H704 H 0.94974 0.27505 0.83917
 H705 H 0.89364 0.22270 0.85855
 H706 H 0.89659 0.33060 0.82706
 C707 C 0.35626 0.78974 0.38605
 C708 C 0.37920 0.75701 0.40518
 C709 C 0.41462 0.77862 0.39351
 C710 C 0.39206 0.81144 0.37485
 C711 C 0.41595 0.76162 0.34267
 C712 C 0.38020 0.73980 0.35409
 C713 C 0.35714 0.77233 0.33507
 C714 C 0.39275 0.79440 0.32337
 H715 H 0.33173 0.80172 0.40402
 H716 H 0.37379 0.74168 0.43928
 H717 H 0.39727 0.84098 0.38366
 H718 H 0.44085 0.75017 0.32501
 H719 H 0.37528 0.71015 0.34566
 H720 H 0.39970 0.81147 0.29133
 C721 C 0.25666 0.89878 0.15039
 C722 C 0.29352 0.91891 0.13997
 C723 C 0.28350 0.92035 0.08610
 C724 C 0.24668 0.90061 0.09615
 C725 C 0.30239 0.88308 0.07714
 C726 C 0.31233 0.88102 0.13170
 C727 C 0.27517 0.86107 0.14155
 C728 C 0.26544 0.86303 0.08738
 H729 H 0.23800 0.90558 0.18089
 H730 H 0.30514 0.94222 0.16134
 H731 H 0.21941 0.90865 0.08148
 H732 H 0.32134 0.87688 0.04674
 H733 H 0.34018 0.87549 0.14621
 H734 H 0.25376 0.84002 0.06551
 C735 C 0.75593 0.38253 0.64362
 C736 C 0.77616 0.41945 0.65403
 C737 C 0.79212 0.41856 0.60272
 C738 C 0.77210 0.38190 0.59200
 C739 C 0.82608 0.39754 0.62054
 C740 C 0.81012 0.39784 0.67252
 C741 C 0.78963 0.36091 0.66203
 C742 C 0.80601 0.36045 0.61047
 H743 H 0.72678 0.37640 0.65295
 H744 H 0.76386 0.44397 0.67184
 H745 H 0.75632 0.37541 0.55864
 H746 H 0.85506 0.40404 0.61074
 H747 H 0.82828 0.40643 0.70272
 H748 H 0.81950 0.33673 0.59233
 C749 C 0.73787 0.13448 0.10539
 C750 C 0.75877 0.09749 0.10822
 C751 C 0.72203 0.07652 0.10324
 C752 C 0.70099 0.11317 0.10020
 C753 C 0.71748 0.07556 0.15840
 C754 C 0.75427 0.09694 0.16381
 C755 C 0.73358 0.13403 0.16079
 C756 C 0.69657 0.11277 0.15605
 H757 H 0.74637 0.15878 0.08339
 H758 H 0.78456 0.09113 0.08840
 H759 H 0.67890 0.11958 0.07381
 H760 H 0.70900 0.05101 0.17990
 H761 H 0.77615 0.08999 0.19028
 H762 H 0.67038 0.11683 0.17588
 C763 C 0.18772 0.63815 0.59879
 C764 C 0.22036 0.62150 0.57045
 C765 C 0.20962 0.58289 0.58901
 C766 C 0.17699 0.59898 0.61723
 C767 C 0.23499 0.58780 0.63301
 C768 C 0.24572 0.62664 0.61471
 C769 C 0.21309 0.64355 0.64289
 C770 C 0.20261 0.60454 0.66182
 H771 H 0.16827 0.65903 0.58448
 H772 H 0.22779 0.62858 0.53269
 H773 H 0.14868 0.58726 0.61822
 H774 H 0.25443 0.56676 0.64697
 H775 H 0.27465 0.63672 0.61370
 H776 H 0.19686 0.59577 0.69954
 C777 C 0.89026 0.70582 0.15983
 C778 C 0.89402 0.68475 0.11107
 C779 C 0.91283 0.71908 0.08917
 C780 C 0.90966 0.73997 0.13729
 C781 C 0.87548 0.73416 0.07254
 C782 C 0.85614 0.69989 0.09466
 C783 C 0.85255 0.72075 0.14288
 C784 C 0.87202 0.75505 0.12102
 H785 H 0.89728 0.69477 0.19610
 H786 H 0.90351 0.65580 0.10695
 H787 H 0.93199 0.75639 0.15459
 H788 H 0.86962 0.74599 0.03631
 H789 H 0.83396 0.68346 0.07705
 H790 H 0.86357 0.78435 0.12513
 C791 C 0.40322 0.20523 0.66961
 C792 C 0.40470 0.18925 0.61749
 C793 C 0.43089 0.22092 0.60297
 C794 C 0.43005 0.23671 0.65449
 C795 C 0.39816 0.24510 0.58836
 C796 C 0.37151 0.21356 0.60299
 C797 C 0.37008 0.22945 0.65459
 C798 C 0.39696 0.26093 0.64028
 H799 H 0.40665 0.18921 0.70353
 H800 H 0.40826 0.15962 0.60813
 H801 H 0.45446 0.24608 0.67544
 H802 H 0.39633 0.26161 0.55458
 H803 H 0.34733 0.20416 0.58159
 H804 H 0.39435 0.29063 0.64990
 C805 C 0.12450 0.23615 0.14159
 C806 C 0.09042 0.25976 0.15428
 C807 C 0.09197 0.27701 0.10360
 C808 C 0.12565 0.25361 0.09056
 C809 C 0.11698 0.30843 0.12187
 C810 C 0.11603 0.29115 0.17312
 C811 C 0.14992 0.26733 0.16018
 C812 C 0.15106 0.28494 0.10932
 H813 H 0.12766 0.20625 0.14966
 H814 H 0.06512 0.24953 0.17258
 H815 H 0.12939 0.23826 0.05613
 H816 H 0.11362 0.33826 0.11350
 H817 H 0.11063 0.30834 0.20550
 H818 H 0.17605 0.29559 0.09069
 C819 C 0.61252 0.73651 0.61608
 C820 C 0.57129 0.73696 0.62968
 C821 C 0.56628 0.77136 0.59768
 C822 C 0.60721 0.77090 0.58389
 C823 C 0.57433 0.79701 0.64075
 C824 C 0.57974 0.76251 0.67340
 C825 C 0.62080 0.76191 0.65977
 C826 C 0.61584 0.79635 0.62737
 H827 H 0.62789 0.71182 0.60377
 H828 H 0.55274 0.71243 0.63050
 H829 H 0.61826 0.77447 0.54671
 H830 H 0.55838 0.82203 0.65044
 H831 H 0.56860 0.75892 0.71050
 H832 H 0.63449 0.82078 0.62591
   
