data_POSCAR
  _audit_creation_date              2014-09-24
  _audit_creation_method            'ToBaCCo'
  _symmetry_space_group_name_H-M    'P1'
  _symmetry_Int_Tables_number       1
  _symmetry_cell_setting            triclinic
  loop_
  _symmetry_equiv_pos_as_xyz
 x,y,z
_cell_length_a 53.6746
_cell_length_b 52.7695
_cell_length_c 22.2838
_cell_angle_alpha 90.384800
_cell_angle_beta 90.099000
_cell_angle_gamma 119.641200
loop_
  _atom_site_label
  _atom_site_type_symbol
  _atom_site_fract_x
  _atom_site_fract_y
  _atom_site_fract_z
C1 C 0.18162 0.48795 0.49294
 C2 C 0.18910 0.47827 0.44067
 C3 C 0.20494 0.46368 0.44656
 C4 C 0.21622 0.46194 0.50290
 C5 C 0.20821 0.47205 0.55424
 C6 C 0.18982 0.48384 0.55036
 C7 C 0.23782 0.45169 0.50790
 C8 C 0.24395 0.44326 0.56380
 C9 C 0.26713 0.43822 0.57033
 C10 C 0.28322 0.43951 0.52010
 C11 C 0.27723 0.44705 0.46407
 C12 C 0.25482 0.45326 0.45811
 H13 H 0.16668 0.49600 0.48855
 H14 H 0.20973 0.45524 0.40660
 H15 H 0.21733 0.47229 0.59753
 H16 H 0.23159 0.44138 0.60337
 H17 H 0.30166 0.43645 0.52533
 H18 H 0.25230 0.46122 0.41527
 C19 C 0.51278 -0.30128 0.50380
 C20 C 0.52285 -0.28550 0.45013
 C21 C 0.53772 -0.25472 0.45371
 C22 C 0.54049 -0.24010 0.50896
 C23 C 0.52986 -0.25695 0.56132
 C24 C 0.51683 -0.28742 0.55978
 C25 C 0.55254 -0.20764 0.51247
 C26 C 0.56313 -0.19254 0.56758
 C27 C 0.56876 -0.16379 0.57515
 C28 C 0.56664 -0.14884 0.52564
 C29 C 0.55753 -0.16275 0.46972
 C30 C 0.55037 -0.19208 0.46329
 H31 H 0.50437 -0.32462 0.50266
 H32 H 0.54603 -0.24222 0.41321
 H33 H 0.53016 -0.24670 0.60362
 H34 H 0.56586 -0.20326 0.60616
 H35 H 0.57035 -0.12682 0.53142
 H36 H 0.54126 -0.20297 0.42102
 C37 C 1.30644 0.82075 0.52932
 C38 C 1.29505 0.81848 0.47138
 C39 C 1.26550 0.79877 0.46296
 C40 C 1.24835 0.77964 0.50896
 C41 C 1.26107 0.78234 0.56591
 C42 C 1.28977 0.80314 0.57624
 C43 C 1.21783 0.75629 0.49635
 C44 C 1.19779 0.74226 0.54319
 C45 C 1.17016 0.71841 0.53104
 C46 C 1.16150 0.71189 0.47060
 C47 C 1.18067 0.72552 0.42396
 C48 C 1.20890 0.74652 0.43685
 H49 H 1.32820 0.83740 0.53974
 H50 H 1.25607 0.79750 0.41967
 H51 H 1.24935 0.76815 0.60250
 H52 H 1.20417 0.74857 0.58917
 H53 H 1.13978 0.69543 0.45905
 H54 H 1.22363 0.75453 0.39970
 C55 C 0.82964 0.53786 0.52397
 C56 C 0.82382 0.54328 0.46580
 C57 C 0.80125 0.54908 0.45658
 C58 C 0.78250 0.54662 0.50389
 C59 C 0.78872 0.54032 0.56203
 C60 C 0.81238 0.53645 0.57196
 C61 C 0.75563 0.54829 0.49156
 C62 C 0.73932 0.55097 0.53887
 C63 C 0.71198 0.54788 0.52815
 C64 C 0.70294 0.54611 0.46825
 C65 C 0.71913 0.54485 0.42084
 C66 C 0.74470 0.54494 0.43235
 H67 H 0.84756 0.53424 0.53205
 H68 H 0.79810 0.55444 0.41167
 H69 H 0.77495 0.53710 0.59978
 H70 H 0.74682 0.55350 0.58451
 H71 H 0.68305 0.54576 0.45770
 H72 H 0.75507 0.54137 0.39442
 C73 C 0.48116 0.29632 0.49742
 C74 C 0.47813 0.28228 0.44243
 C75 C 0.46698 0.25218 0.44125
 C76 C 0.45640 0.23533 0.49365
 C77 C 0.45866 0.24989 0.54871
 C78 C 0.47220 0.28070 0.55155
 C79 C 0.44430 0.20293 0.48972
 C80 C 0.44701 0.18703 0.53770
 C81 C 0.44071 0.15784 0.52946
 C82 C 0.43106 0.14474 0.47250
 C83 C 0.42819 0.16011 0.42480
 C84 C 0.43324 0.18840 0.43451
 H85 H 0.48881 0.31955 0.49716
 H86 H 0.46700 0.24226 0.39868
 H87 H 0.45090 0.23739 0.58939
 H88 H 0.45662 0.19811 0.57951
 H89 H 0.42638 0.12258 0.46413
 H90 H 0.43001 0.19942 0.39710
 C91 C 0.69922 0.18170 0.47849
 C92 C 0.71462 0.19964 0.43080
 C93 C 0.74356 0.22044 0.43884
 C94 C 0.75778 0.22268 0.49382
 C95 C 0.74203 0.20293 0.54001
 C96 C 0.71268 0.18277 0.53312
 C97 C 0.78880 0.24520 0.50309
 C98 C 0.79994 0.25493 0.56162
 C99 C 0.82923 0.27485 0.57123
 C100 C 0.84694 0.28682 0.52112
 C101 C 0.83569 0.28030 0.46291
 C102 C 0.80729 0.25828 0.45383
 H103 H 0.67664 0.16628 0.47216
 H104 H 0.75440 0.23484 0.40193
 H105 H 0.75254 0.20249 0.58106
 H106 H 0.78608 0.24681 0.60018
 H107 H 0.86901 0.30394 0.52720
 H108 H 0.79973 0.25263 0.40814
 N109 N 0.97315 0.53415 0.07204
 N110 N 0.95280 0.53955 0.09053
 N111 N 1.03739 0.55288 0.08829
 N112 N 1.06059 0.57035 0.11923
 N113 N 1.03194 0.56746 0.04781
 N114 N 1.05103 0.59558 0.05131
 N115 N 0.97840 0.51951 0.11277
 N116 N 0.96169 0.51430 0.15961
 C117 C 0.94572 0.52673 0.14514
 C118 C 1.06907 0.59681 0.09541
 N119 N 1.04061 0.48157 0.05582
 N120 N 1.06173 0.47591 0.06571
 N121 N 0.98362 0.46786 0.11735
 N122 N 0.96730 0.45568 0.16435
 N123 N 0.98165 0.44789 0.07917
 N124 N 0.96386 0.42148 0.09932
 N125 N 1.04249 0.50176 0.09323
 N126 N 1.06504 0.51076 0.12841
 Mn127 Mn 1.01045 0.51052 0.10334
 C128 C 1.07715 0.49487 0.11047
 C129 C 0.95497 0.42676 0.15255
 N130 N 1.01985 0.55814 -0.07991
 N131 N 1.03764 0.58436 -0.10131
 N132 N 0.95814 0.50429 -0.09233
 N133 N 0.93523 0.49540 -0.12651
 N134 N 0.96083 0.52500 -0.05535
 N135 N 0.93987 0.53093 -0.06412
 N136 N 1.01681 0.53781 -0.11828
 N137 N 1.03226 0.54948 -0.16652
 Mn138 Mn 0.99646 0.54656 -0.00389
 C139 C 1.04530 0.57848 -0.15550
 C140 C 0.92375 0.51183 -0.10798
 N141 N 0.96981 0.43862 -0.04790
 N142 N 0.95292 0.41016 -0.05442
 N143 N 1.02234 0.48660 -0.11331
 N144 N 1.04107 0.49503 -0.15721
 N145 N 1.02858 0.47296 -0.07198
 N146 N 1.05167 0.47151 -0.08711
 N147 N 0.96338 0.45271 -0.08781
 N148 N 0.94168 0.43428 -0.12165
 Mn149 Mn 1.00525 0.45997 0.00371
 Mn150 Mn 0.99004 0.49524 -0.10334
 Cl151 Cl 1.00052 0.50306 -0.00004
 C152 C 0.93495 0.40790 -0.09947
 C153 C 1.05917 0.48544 -0.14055
 N154 N 0.47559 0.43765 0.06491
 N155 N 0.47206 0.41153 0.07670
 N156 N 0.46020 0.48297 0.11555
 N157 N 0.44787 0.48891 0.16017
 N158 N 0.44092 0.46349 0.07905
 N159 N 0.41477 0.45558 0.09823
 N160 N 0.49480 0.45728 0.10126
 N161 N 0.50509 0.44526 0.13805
 C162 C 0.49102 0.41679 0.12198
 C163 C 0.41956 0.47187 0.14886
 N164 N 0.52405 0.55815 0.06294
 N165 N 0.52771 0.58431 0.07602
 N166 N 0.54412 0.51351 0.09120
 N167 N 0.56113 0.50786 0.12398
 N168 N 0.55850 0.53207 0.04863
 N169 N 0.58608 0.54009 0.05229
 N170 N 0.50976 0.53966 0.10569
 N171 N 0.50298 0.55246 0.14842
 Mn172 Mn 0.50224 0.49840 0.10383
 C173 C 0.51416 0.58024 0.12944
 C174 C 0.58715 0.52436 0.09926
 N175 N 0.43230 0.46095 -0.04974
 N176 N 0.40431 0.44951 -0.05727
 N177 N 0.48106 0.45411 -0.10698
 N178 N 0.48833 0.44157 -0.14936
 N179 N 0.46720 0.43563 -0.06390
 N180 N 0.46428 0.40972 -0.07642
 N181 N 0.44624 0.47983 -0.09218
 N182 N 0.42822 0.48221 -0.12883
 Mn183 Mn 0.45369 0.44905 0.00769
 C184 C 0.40223 0.46359 -0.10599
 C185 C 0.47783 0.41396 -0.12986
 N186 N 0.54997 0.53011 -0.08052
 N187 N 0.57605 0.53890 -0.10149
 N188 N 0.49596 0.53648 -0.10176
 N189 N 0.48565 0.54853 -0.13830
 N190 N 0.51548 0.55614 -0.06586
 N191 N 0.51908 0.58229 -0.07766
 N192 N 0.53054 0.51084 -0.11713
 N193 N 0.54272 0.50596 -0.16352
 Mn194 Mn 0.53739 0.54453 -0.00879
 Mn195 Mn 0.48840 0.49533 -0.10490
 Cl196 Cl 0.49542 0.49684 -0.00059
 C197 C 0.57108 0.52333 -0.15326
 C198 C 0.49993 0.57703 -0.12257
 N199 N 0.44515 -0.02934 0.07430
 N200 N 0.42066 -0.05092 0.09424
 N201 N 0.48556 0.03780 0.08339
 N202 N 0.48602 0.05891 0.11616
 N203 N 0.46524 0.02877 0.04246
 N204 N 0.45092 0.04310 0.04747
 N205 N 0.46513 -0.02072 0.11584
 N206 N 0.45498 -0.03635 0.16475
 C207 C 0.42729 -0.05520 0.15068
 C208 C 0.46478 0.06245 0.09239
 N209 N 0.56192 0.04706 0.05542
 N210 N 0.58770 0.06994 0.06405
 N211 N 0.52299 -0.00981 0.12338
 N212 N 0.51855 -0.02631 0.17065
 N213 N 0.54110 -0.01167 0.08654
 N214 N 0.54944 -0.02962 0.10795
 N215 N 0.54325 0.04854 0.09115
 N216 N 0.55565 0.07246 0.12416
 Mn217 Mn 0.50428 0.01402 0.10381
 C218 C 0.58327 0.08592 0.10632
 C219 C 0.53517 -0.03852 0.16069
 N220 N 0.46380 0.01355 -0.08281
 N221 N 0.45464 0.03064 -0.10526
 N222 N 0.46124 -0.04686 -0.08693
 N223 N 0.44859 -0.07103 -0.11921
 N224 N 0.44278 -0.04512 -0.05100
 N225 N 0.41696 -0.06800 -0.05859
 N226 N 0.48169 0.01143 -0.11989
 N227 N 0.48497 0.02670 -0.16866
 Mn228 Mn 0.45394 -0.00810 -0.00442
 C229 C 0.46807 0.03863 -0.15900
 C230 C 0.42107 -0.08429 -0.10052
 N231 N 0.53968 -0.02689 -0.03921
 N232 N 0.55410 -0.04111 -0.04505
 N233 N 0.53974 0.02208 -0.11263
 N234 N 0.55080 0.03557 -0.16345
 N235 N 0.55946 0.03139 -0.07029
 N236 N 0.58441 0.05171 -0.09121
 N237 N 0.51899 -0.03619 -0.07939
 N238 N 0.51839 -0.05731 -0.11232
 Mn239 Mn 0.55087 0.01007 0.00825
 Mn240 Mn 0.50036 -0.01246 -0.10006
 Cl241 Cl 0.50239 0.00091 0.00186
 C242 C 0.53991 -0.06064 -0.08963
 C243 C 0.57852 0.05426 -0.14931
 C244 C 1.15447 0.49046 0.28058
 C245 C 1.15597 0.46479 0.28721
 C246 C 1.16962 0.46152 0.33831
 C247 C 1.18008 0.48305 0.38421
 C248 C 1.17947 0.50920 0.37468
 C249 C 1.16684 0.51302 0.32330
 C250 C 1.13803 0.49306 0.23016
 C251 C 1.13569 0.51831 0.22552
 C252 C 1.11763 0.51951 0.18185
 C253 C 1.10113 0.49538 0.14416
 C254 C 1.10493 0.47082 0.14663
 C255 C 1.12335 0.46950 0.19013
 C256 C 1.16518 0.53852 0.31540
 C257 C 1.14995 0.54118 0.26710
 C258 C 1.14232 0.44230 0.24432
 C259 C 1.12616 0.44454 0.19688
 H260 H 1.17497 0.55620 0.34785
 H261 H 1.14840 0.56083 0.26363
 H262 H 1.14329 0.42237 0.24864
 H263 H 1.11514 0.42625 0.16620
 H264 H 1.16965 0.44120 0.34464
 H265 H 1.18860 0.52661 0.40789
 H266 H 1.11498 0.53858 0.17984
 H267 H 1.09220 0.45213 0.11782
 C268 C 0.51354 0.66301 0.29647
 C269 C 0.49183 0.65289 0.33960
 C270 C 0.49425 0.67099 0.38785
 C271 C 0.51865 0.69897 0.39519
 C272 C 0.53930 0.70958 0.34877
 C273 C 0.53705 0.69142 0.29989
 C274 C 0.51233 0.64289 0.24869
 C275 C 0.53471 0.65236 0.20694
 C276 C 0.53451 0.63230 0.16457
 C277 C 0.51249 0.60294 0.16546
 C278 C 0.48975 0.59423 0.20613
 C279 C 0.48954 0.61403 0.24781
 C280 C 0.55854 0.70047 0.25597
 C281 C 0.55738 0.68131 0.21033
 C282 C 0.46867 0.62430 0.33537
 C283 C 0.46759 0.60515 0.29033
 H284 H 0.57679 0.72233 0.25776
 H285 H 0.57476 0.68901 0.17838
 H286 H 0.45168 0.61636 0.36832
 H287 H 0.44981 0.58298 0.28975
 H288 H 0.47709 0.66290 0.42045
 H289 H 0.55830 0.73083 0.35283
 H290 H 0.55216 0.63903 0.13354
 H291 H 0.47266 0.57170 0.20669
 C292 C 0.35007 -0.13106 0.33001
 C293 C 0.32068 -0.14057 0.32571
 C294 C 0.30237 -0.15729 0.37229
 C295 C 0.31319 -0.16473 0.42337
 C296 C 0.34296 -0.15524 0.42528
 C297 C 0.36135 -0.13830 0.37951
 C298 C 0.36954 -0.11285 0.28212
 C299 C 0.39904 -0.10278 0.28750
 C300 C 0.41761 -0.08450 0.24334
 C301 C 0.40691 -0.07644 0.19372
 C302 C 0.37717 -0.08738 0.18785
 C303 C 0.35837 -0.10540 0.23248
 C304 C 0.39092 -0.12838 0.38256
 C305 C 0.40948 -0.11080 0.33746
 C306 C 0.31024 -0.13282 0.27518
 C307 C 0.32874 -0.11563 0.22931
 H308 H 0.39987 -0.13394 0.42054
 H309 H 0.43220 -0.10326 0.34194
 H310 H 0.28759 -0.14001 0.27113
 H311 H 0.31979 -0.11005 0.19136
 H312 H 0.28003 -0.16318 0.36925
 H313 H 0.35210 -0.16173 0.46131
 H314 H 0.44047 -0.07628 0.24790
 H315 H 0.36886 -0.08109 0.14987
 C316 C 0.87148 0.53391 0.32130
 C317 C 0.86533 0.55687 0.31957
 C318 C 0.84946 0.55993 0.36647
 C319 C 0.83991 0.54020 0.41466
 C320 C 0.84574 0.51692 0.41449
 C321 C 0.86170 0.51383 0.36843
 C322 C 0.88901 0.53115 0.27356
 C323 C 0.89586 0.50873 0.27673
 C324 C 0.91370 0.50703 0.23317
 C325 C 0.92462 0.52743 0.18646
 C326 C 0.91682 0.54923 0.18252
 C327 C 0.89920 0.55138 0.22659
 C328 C 0.86839 0.49126 0.36917
 C329 C 0.88529 0.48881 0.32416
 C330 C 0.87558 0.57649 0.27144
 C331 C 0.89216 0.57375 0.22570
 H332 H 0.86086 0.47561 0.40532
 H333 H 0.89036 0.47136 0.32685
 H334 H 0.87095 0.59426 0.26937
 H335 H 0.89985 0.58952 0.18978
 H336 H 0.84512 0.57792 0.36619
 H337 H 0.83787 0.50116 0.45047
 H338 H 0.91949 0.49008 0.23619
 H339 H 0.92533 0.56508 0.14678
 C340 C 0.49105 0.33461 0.28770
 C341 C 0.51222 0.34477 0.33281
 C342 C 0.50888 0.32677 0.38160
 C343 C 0.48440 0.29898 0.38589
 C344 C 0.46413 0.28856 0.33873
 C345 C 0.46720 0.30643 0.28977
 C346 C 0.49292 0.35454 0.23963
 C347 C 0.47080 0.34505 0.19671
 C348 C 0.47124 0.36502 0.15475
 C349 C 0.49326 0.39431 0.15675
 C350 C 0.51604 0.40299 0.19795
 C351 C 0.51586 0.38328 0.23985
 C352 C 0.44615 0.29727 0.24454
 C353 C 0.44792 0.31626 0.19879
 C354 C 0.53555 0.37326 0.32977
 C355 C 0.53736 0.39221 0.28401
 H356 H 0.42771 0.27552 0.24550
 H357 H 0.43079 0.30861 0.16583
 H358 H 0.55211 0.38127 0.36407
 H359 H 0.55526 0.41430 0.28430
 H360 H 0.52468 0.33477 0.41749
 H361 H 0.44507 0.26732 0.34204
 H362 H 0.45362 0.35825 0.12323
 H363 H 0.53318 0.42549 0.19939
 C364 C 0.66600 0.16832 0.27013
 C365 C 0.69342 0.17116 0.27292
 C366 C 0.71083 0.18460 0.32342
 C367 C 0.70048 0.19418 0.37143
 C368 C 0.67372 0.19280 0.36628
 C369 C 0.65628 0.17972 0.31585
 C370 C 0.64615 0.15082 0.22138
 C371 C 0.61804 0.14615 0.22140
 C372 C 0.59821 0.12668 0.17959
 C373 C 0.60606 0.11130 0.13901
 C374 C 0.63478 0.11757 0.13690
 C375 C 0.65490 0.13714 0.17862
 C376 C 0.62852 0.17593 0.31232
 C377 C 0.60973 0.15947 0.26576
 C378 C 0.70199 0.15858 0.22737
 C379 C 0.68304 0.14183 0.18106
 H380 H 0.62088 0.18482 0.34707
 H381 H 0.58813 0.15616 0.26591
 H382 H 0.72312 0.16073 0.22884
 H383 H 0.69015 0.13160 0.14818
 H384 H 0.73127 0.18527 0.32780
 H385 H 0.66572 0.20006 0.40345
 H386 H 0.57618 0.12209 0.18121
 H387 H 0.64094 0.10576 0.10588
 C388 C 0.45430 0.10962 -0.33605
 C389 C 0.44530 0.12947 -0.31908
 C390 C 0.44175 0.14635 -0.36340
 C391 C 0.44602 0.14255 -0.42476
 C392 C 0.45557 0.12269 -0.44006
 C393 C 0.45983 0.10641 -0.39623
 C394 C 0.45786 0.09166 -0.29008
 C395 C 0.46747 0.07232 -0.30736
 C396 C 0.47089 0.05534 -0.26381
 C397 C 0.46424 0.05704 -0.20344
 C398 C 0.45436 0.07632 -0.18661
 C399 C 0.45145 0.09401 -0.22991
 C400 C 0.46945 0.08686 -0.41171
 C401 C 0.47334 0.07019 -0.36795
 C402 C 0.43950 0.13158 -0.25825
 C403 C 0.44235 0.11403 -0.21452
 H404 H 0.47393 0.08435 -0.45809
 H405 H 0.48076 0.05533 -0.38173
 H406 H 0.43244 0.14671 -0.24438
 H407 H 0.43744 0.11620 -0.16828
 H408 H 0.43416 0.16116 -0.35031
 H409 H 0.46075 0.12047 -0.48607
 H410 H 0.47836 0.04044 -0.27713
 H411 H 0.44940 0.07784 -0.14005
 C412 C 0.65367 0.53649 -0.33257
 C413 C 0.64354 0.52211 -0.38778
 C414 C 0.66304 0.52627 -0.43318
 C415 C 0.69292 0.54449 -0.42442
 C416 C 0.70274 0.55814 -0.36758
 C417 C 0.68312 0.55454 -0.32191
 C418 C 0.63292 0.53264 -0.28521
 C419 C 0.64275 0.54763 -0.23028
 C420 C 0.62264 0.54447 -0.18611
 C421 C 0.59306 0.52625 -0.19698
 C422 C 0.58385 0.51096 -0.25187
 C423 C 0.60355 0.51424 -0.29618
 C424 C 0.69224 0.56888 -0.26602
 C425 C 0.67242 0.56559 -0.22116
 C426 C 0.61399 0.50369 -0.39679
 C427 C 0.59433 0.49974 -0.35165
 H428 H 0.71489 0.58295 -0.25704
 H429 H 0.68040 0.57726 -0.17903
 H430 H 0.60598 0.49233 -0.43921
 H431 H 0.57169 0.48543 -0.36046
 H432 H 0.65472 0.51409 -0.47466
 H433 H 0.72538 0.57262 -0.35947
 H434 H 0.62992 0.55624 -0.14390
 H435 H 0.56119 0.49684 -0.26082
 C436 C 0.86811 0.31743 -0.26683
 C437 C 0.83967 0.31032 -0.27873
 C438 C 0.82557 0.29332 -0.32963
 C439 C 0.84058 0.28545 -0.37097
 C440 C 0.86876 0.29185 -0.35660
 C441 C 0.88247 0.30750 -0.30446
 C442 C 0.88393 0.33749 -0.21682
 C443 C 0.91265 0.34519 -0.20617
 C444 C 0.92844 0.36635 -0.16240
 C445 C 0.91610 0.38077 -0.13193
 C446 C 0.88716 0.37240 -0.14174
 C447 C 0.87077 0.35036 -0.18371
 C448 C 0.91084 0.31479 -0.29103
 C449 C 0.92560 0.33310 -0.24230
 C450 C 0.82661 0.32211 -0.24193
 C451 C 0.84201 0.34207 -0.19570
 H452 H 0.92200 0.30694 -0.31943
 H453 H 0.94771 0.33884 -0.23446
 H454 H 0.80469 0.31685 -0.25057
 H455 H 0.83152 0.35162 -0.17011
 H456 H 0.80413 0.28910 -0.34017
 H457 H 0.88029 0.28515 -0.38685
 H458 H 0.95096 0.37339 -0.15568
 H459 H 0.87788 0.38389 -0.11863
 C460 C 0.56685 -0.12424 -0.25888
 C461 C 0.54659 -0.15357 -0.27033
 C462 C 0.54916 -0.16718 -0.32229
 C463 C 0.57106 -0.15135 -0.36392
 C464 C 0.59187 -0.12229 -0.35073
 C465 C 0.58990 -0.10862 -0.29803
 C466 C 0.56250 -0.10893 -0.20776
 C467 C 0.58190 -0.07916 -0.19813
 C468 C 0.57598 -0.06395 -0.15355
 C469 C 0.55031 -0.07813 -0.12094
 C470 C 0.53162 -0.10812 -0.12953
 C471 C 0.53771 -0.12374 -0.17265
 C472 C 0.60950 -0.07918 -0.28546
 C473 C 0.60566 -0.06475 -0.23615
 C474 C 0.52306 -0.16812 -0.23183
 C475 C 0.51858 -0.15339 -0.18407
 H476 H 0.62748 -0.06695 -0.31501
 H477 H 0.62080 -0.04181 -0.22918
 H478 H 0.50733 -0.19077 -0.24017
 H479 H 0.49951 -0.16509 -0.15702
 H480 H 0.53277 -0.18936 -0.33282
 H481 H 0.60865 -0.11002 -0.38288
 H482 H 0.58993 -0.04064 -0.14800
 H483 H 0.51159 -0.11881 -0.10512
 C484 C 0.31182 0.44225 -0.26900
 C485 C 0.30681 0.46524 -0.28327
 C486 C 0.28949 0.46234 -0.33291
 C487 C 0.27832 0.43726 -0.36961
 C488 C 0.28276 0.41401 -0.35380
 C489 C 0.29938 0.41632 -0.30310
 C490 C 0.33224 0.44629 -0.22043
 C491 C 0.33820 0.42377 -0.20773
 C492 C 0.35949 0.42867 -0.16516
 C493 C 0.37547 0.45623 -0.13774
 C494 C 0.36884 0.47832 -0.14976
 C495 C 0.34698 0.47338 -0.19069
 C496 C 0.30514 0.39393 -0.28774
 C497 C 0.32405 0.39751 -0.24057
 C498 C 0.32072 0.49140 -0.25009
 C499 C 0.34065 0.49548 -0.20491
 H500 H 0.29553 0.37375 -0.31338
 H501 H 0.32844 0.37997 -0.23121
 H502 H 0.31701 0.50927 -0.26069
 H503 H 0.35173 0.51639 -0.18197
 H504 H 0.28660 0.48049 -0.34593
 H505 H 0.27446 0.39487 -0.38258
 H506 H 0.36518 0.41193 -0.15687
 H507 H 0.38152 0.49967 -0.12915
 C508 C 1.11735 0.66057 -0.33368
 C509 C 1.11696 0.65021 -0.39188
 C510 C 1.13415 0.66966 -0.43589
 C511 C 1.15226 0.69969 -0.42295
 C512 C 1.15269 0.70958 -0.36338
 C513 C 1.13498 0.69012 -0.31889
 C514 C 1.09904 0.63991 -0.28731
 C515 C 1.09889 0.65009 -0.22896
 C516 C 1.08111 0.63015 -0.18522
 C517 C 1.06409 0.60031 -0.19988
 C518 C 1.06486 0.59068 -0.25854
 C519 C 1.08206 0.61029 -0.30236
 C520 C 1.13442 0.69954 -0.25989
 C521 C 1.11661 0.67992 -0.21584
 C522 C 1.09962 0.62040 -0.40513
 C523 C 1.08253 0.60075 -0.36105
 H524 H 1.14781 0.72229 -0.24765
 H525 H 1.11684 0.68816 -0.17107
 H526 H 1.09930 0.61216 -0.44997
 H527 H 1.06951 0.57791 -0.37307
 H528 H 1.13435 0.66073 -0.47968
 H529 H 1.16585 0.73243 -0.35181
 H530 H 1.08074 0.63771 -0.14007
 H531 H 1.05183 0.56782 -0.27048
 C532 C 0.84496 0.51984 -0.26876
 C533 C 0.84536 0.54656 -0.27423
 C534 C 0.83197 0.55104 -0.32409
 C535 C 0.81895 0.52921 -0.36843
 C536 C 0.81737 0.50206 -0.36060
 C537 C 0.83052 0.49729 -0.31104
 C538 C 0.86201 0.51628 -0.22093
 C539 C 0.86339 0.49042 -0.21865
 C540 C 0.88217 0.48840 -0.17786
 C541 C 0.89984 0.51213 -0.14020
 C542 C 0.89698 0.53726 -0.14031
 C543 C 0.87832 0.53961 -0.18137
 C544 C 0.83118 0.47115 -0.30519
 C545 C 0.84734 0.46777 -0.25970
 C546 C 0.86077 0.56887 -0.23197
 C547 C 0.87695 0.56544 -0.18630
 H548 H 0.81997 0.45357 -0.33736
 H549 H 0.84812 0.44765 -0.25804
 H550 H 0.86115 0.58952 -0.23546
 H551 H 0.88929 0.58356 -0.15593
 H552 H 0.83355 0.57212 -0.33084
 H553 H 0.80762 0.48545 -0.39532
 H554 H 0.88419 0.46894 -0.17772
 H555 H 0.91067 0.55566 -0.11163
 C556 C 0.48081 0.33209 -0.29539
 C557 C 0.45799 0.30328 -0.29790
 C558 C 0.45605 0.28519 -0.34664
 C559 C 0.47623 0.29630 -0.39383
 C560 C 0.49999 0.32476 -0.38756
 C561 C 0.50216 0.34275 -0.33934
 C562 C 0.48160 0.35206 -0.24778
 C563 C 0.50367 0.38126 -0.24777
 C564 C 0.50292 0.40084 -0.20635
 C565 C 0.48030 0.39160 -0.16524
 C566 C 0.45908 0.36195 -0.16338
 C567 C 0.45945 0.34206 -0.20538
 C568 C 0.52467 0.37170 -0.33596
 C569 C 0.52537 0.39068 -0.29097
 C570 C 0.43679 0.29371 -0.25327
 C571 C 0.43751 0.31275 -0.20786
 H572 H 0.54138 0.38004 -0.36955
 H573 H 0.54260 0.41313 -0.29104
 H574 H 0.41907 0.27153 -0.25437
 H575 H 0.42033 0.30465 -0.17537
 H576 H 0.43756 0.26354 -0.34998
 H577 H 0.51680 0.33328 -0.42094
 H578 H 0.51943 0.42361 -0.20759
 H579 H 0.44153 0.35481 -0.13193
 C580 C 0.65948 0.12598 -0.32782
 C581 C 0.68204 0.15373 -0.31209
 C582 C 0.70008 0.17204 -0.35732
 C583 C 0.69576 0.16255 -0.41776
 C584 C 0.67382 0.13403 -0.43186
 C585 C 0.65530 0.11594 -0.38745
 C586 C 0.63937 0.10732 -0.28128
 C587 C 0.61603 0.08020 -0.29783
 C588 C 0.59626 0.06311 -0.25411
 C589 C 0.60003 0.07259 -0.19396
 C590 C 0.62396 0.09944 -0.17753
 C591 C 0.64351 0.11719 -0.22142
 C592 C 0.63219 0.08829 -0.40188
 C593 C 0.61276 0.07080 -0.35787
 C594 C 0.68560 0.16282 -0.25169
 C595 C 0.66679 0.14479 -0.20708
 H596 H 0.62878 0.08034 -0.44779
 H597 H 0.59493 0.04982 -0.37104
 H598 H 0.70296 0.18414 -0.23883
 H599 H 0.67024 0.15271 -0.16115
 H600 H 0.71674 0.19394 -0.34578
 H601 H 0.67072 0.12605 -0.47773
 H602 H 0.57802 0.04229 -0.26678
 H603 H 0.62681 0.10680 -0.13121
 C604 C 1.14544 0.49383 -0.30342
 C605 C 1.15590 0.47427 -0.29871
 C606 C 1.17265 0.47262 -0.34529
 C607 C 1.17824 0.48976 -0.39754
 C608 C 1.16919 0.51081 -0.39870
 C609 C 1.15247 0.51257 -0.35255
 C610 C 1.12544 0.49357 -0.25782
 C611 C 1.11380 0.51206 -0.26460
 C612 C 1.09296 0.50999 -0.22427
 C613 C 1.08361 0.48954 -0.17756
 C614 C 1.09639 0.47206 -0.16952
 C615 C 1.11717 0.47377 -0.21013
 C616 C 1.14148 0.53178 -0.35613
 C617 C 1.12239 0.53147 -0.31293
 C618 C 1.14802 0.45554 -0.24913
 C619 C 1.12900 0.45532 -0.20558
 H620 H 1.14694 0.54650 -0.39368
 H621 H 1.11371 0.54601 -0.31827
 H622 H 1.15601 0.44038 -0.24479
 H623 H 1.12294 0.44004 -0.16891
 H624 H 1.17892 0.45605 -0.34277
 H625 H 1.17466 0.52565 -0.43602
 H626 H 1.08341 0.52374 -0.23030
 H627 H 1.08925 0.45629 -0.13360
 C628 C 0.50073 0.65962 -0.28834
 C629 C 0.52299 0.68867 -0.28608
 C630 C 0.52680 0.70705 -0.33464
 C631 C 0.50942 0.69608 -0.38676
 C632 C 0.48615 0.66722 -0.38617
 C633 C 0.48179 0.64897 -0.33742
 C634 C 0.49832 0.63942 -0.24038
 C635 C 0.47678 0.61009 -0.24436
 C636 C 0.47628 0.59034 -0.20229
 C637 C 0.49763 0.59945 -0.15755
 C638 C 0.51821 0.62921 -0.15198
 C639 C 0.51872 0.64935 -0.19371
 C640 C 0.45967 0.61980 -0.33824
 C641 C 0.45714 0.60068 -0.29232
 C642 C 0.54208 0.69823 -0.23697
 C643 C 0.54006 0.67887 -0.19173
 H644 H 0.44474 0.61144 -0.37563
 H645 H 0.44032 0.57811 -0.29554
 H646 H 0.55933 0.72063 -0.23455
 H647 H 0.55582 0.68691 -0.15581
 H648 H 0.54502 0.72896 -0.33386
 H649 H 0.47156 0.65869 -0.42413
 H650 H 0.46019 0.56751 -0.20657
 H651 H 0.53466 0.63637 -0.11755
 C652 C 0.33714 -0.16673 -0.26177
 C653 C 0.31032 -0.16818 -0.26596
 C654 C 0.29304 -0.18128 -0.31678
 C655 C 0.30296 -0.19196 -0.36356
 C656 C 0.32892 -0.19215 -0.35677
 C657 C 0.34626 -0.17929 -0.30621
 C658 C 0.35715 -0.14933 -0.21321
 C659 C 0.38487 -0.14577 -0.21234
 C660 C 0.40506 -0.12618 -0.17123
 C661 C 0.39791 -0.10974 -0.13211
 C662 C 0.36951 -0.11500 -0.13056
 C663 C 0.34909 -0.13452 -0.17180
 C664 C 0.37350 -0.17675 -0.30157
 C665 C 0.39249 -0.16027 -0.25533
 C666 C 0.30237 -0.15452 -0.22160
 C667 C 0.32143 -0.13798 -0.17528
 H668 H 0.38065 -0.18655 -0.33538
 H669 H 0.41375 -0.15785 -0.25475
 H670 H 0.28170 -0.15562 -0.22408
 H671 H 0.31487 -0.12685 -0.14340
 H672 H 0.27321 -0.18080 -0.32249
 H673 H 0.33656 -0.20026 -0.39310
 H674 H 0.42686 -0.12233 -0.17233
 H675 H 0.36391 -0.10234 -0.10065
 C676 C 0.54455 -0.11435 0.33234
 C677 C 0.56252 -0.12612 0.32078
 C678 C 0.56599 -0.14302 0.36503
 C679 C 0.55208 -0.14744 0.42062
 C680 C 0.53377 -0.13593 0.43092
 C681 C 0.52986 -0.11942 0.38694
 C682 C 0.54154 -0.09576 0.28707
 C683 C 0.52379 -0.08383 0.29919
 C684 C 0.52158 -0.06556 0.25695
 C685 C 0.53717 -0.05886 0.20307
 C686 C 0.55464 -0.07127 0.19110
 C687 C 0.55689 -0.08982 0.23313
 C688 C 0.51198 -0.10743 0.39699
 C689 C 0.50892 -0.08999 0.35374
 C690 C 0.57712 -0.12016 0.26583
 C691 C 0.57441 -0.10227 0.22282
 H692 H 0.50047 -0.11133 0.43887
 H693 H 0.49509 -0.08096 0.36339
 H694 H 0.59104 -0.12909 0.25628
 H695 H 0.58629 -0.09796 0.18137
 H696 H 0.58016 -0.15185 0.35727
 H697 H 0.52287 -0.13958 0.47359
 H698 H 0.50798 -0.05623 0.26654
 H699 H 0.56662 -0.06630 0.14962
 C700 C 0.33606 0.46111 0.32266
 C701 C 0.34565 0.47813 0.37529
 C702 C 0.32604 0.47355 0.42087
 C703 C 0.29704 0.45234 0.41394
 C704 C 0.28745 0.43599 0.36037
 C705 C 0.30706 0.44006 0.31464
 C706 C 0.35696 0.46488 0.27586
 C707 C 0.34774 0.44711 0.22416
 C708 C 0.36809 0.44986 0.18119
 C709 C 0.39732 0.47019 0.19017
 C710 C 0.40591 0.48840 0.24137
 C711 C 0.38593 0.48568 0.28455
 C712 C 0.29848 0.42317 0.26169
 C713 C 0.31849 0.42656 0.21732
 C714 C 0.37473 0.49907 0.38177
 C715 C 0.39454 0.50287 0.33701
 H716 H 0.27619 0.40688 0.25487
 H717 H 0.31103 0.41278 0.17762
 H718 H 0.38229 0.51242 0.42205
 H719 H 0.41687 0.51905 0.34396
 H720 H 0.33327 0.48628 0.46204
 H721 H 0.26504 0.41964 0.35527
 H722 H 0.36133 0.43584 0.14180
 H723 H 0.42834 0.50424 0.24858
 C724 C 1.14498 0.68450 0.25674
 C725 C 1.13636 0.70337 0.28210
 C726 C 1.14965 0.71858 0.33510
 C727 C 1.17140 0.71503 0.36215
 C728 C 1.18100 0.69748 0.33441
 C729 C 1.16747 0.68167 0.28217
 C730 C 1.12847 0.66541 0.20606
 C731 C 1.13509 0.64426 0.18526
 C732 C 1.11678 0.62334 0.14356
 C733 C 1.09213 0.62352 0.12281
 C734 C 1.08694 0.64613 0.14023
 C735 C 1.10475 0.66683 0.18317
 C736 C 1.17464 0.66160 0.25732
 C737 C 1.15859 0.64306 0.20987
 C738 C 1.11345 0.70523 0.25610
 C739 C 1.09800 0.68737 0.20723
 H740 H 1.19199 0.65931 0.27642
 H741 H 1.16397 0.62694 0.19382
 H742 H 1.10678 0.71989 0.27496
 H743 H 1.07984 0.68874 0.18990
 H744 H 1.14217 0.73195 0.35710
 H745 H 1.19744 0.69445 0.35606
 H746 H 1.12054 0.60569 0.13040
 H747 H 1.06759 0.64585 0.12512
 C748 C 0.43325 0.12371 0.25790
 C749 C 0.45318 0.15286 0.27183
 C750 C 0.44934 0.16560 0.32370
 C751 C 0.42657 0.14902 0.36297
 C752 C 0.40601 0.12026 0.34713
 C753 C 0.40921 0.10749 0.29434
 C754 C 0.43906 0.10915 0.20752
 C755 C 0.41997 0.07952 0.19560
 C756 C 0.42719 0.06494 0.15207
 C757 C 0.45383 0.07954 0.12310
 C758 C 0.47227 0.10938 0.13384
 C759 C 0.46487 0.12443 0.17574
 C760 C 0.38996 0.07826 0.27934
 C761 C 0.39514 0.06456 0.23051
 C762 C 0.47774 0.16799 0.23629
 C763 C 0.48361 0.15394 0.18932
 H764 H 0.37122 0.06558 0.30674
 H765 H 0.38023 0.04173 0.22167
 H766 H 0.49322 0.19051 0.24659
 H767 H 0.50343 0.16600 0.16474
 H768 H 0.46552 0.18756 0.33641
 H769 H 0.38859 0.10743 0.37759
 H770 H 0.41337 0.04173 0.14469
 H771 H 0.49297 0.12038 0.11200
 C772 C 0.67482 0.53438 0.25671
 C773 C 0.66978 0.50961 0.28944
 C774 C 0.68636 0.51304 0.34065
 C775 C 0.70739 0.54097 0.35962
 C776 C 0.71318 0.56548 0.32513
 C777 C 0.69677 0.56232 0.27354
 C778 C 0.65513 0.53130 0.20736
 C779 C 0.65869 0.55632 0.17764
 C780 C 0.63775 0.55367 0.13605
 C781 C 0.61312 0.52642 0.12628
 C782 C 0.61081 0.50140 0.15361
 C783 C 0.63162 0.50370 0.19452
 C784 C 0.70060 0.58664 0.24073
 C785 C 0.68191 0.58369 0.19353
 C786 C 0.64702 0.48215 0.27273
 C787 C 0.62820 0.47925 0.22609
 H788 H 0.71755 0.60827 0.25302
 H789 H 0.68500 0.60313 0.17090
 H790 H 0.64302 0.46290 0.29746
 H791 H 0.61019 0.45784 0.21625
 H792 H 0.68168 0.49432 0.36810
 H793 H 0.72910 0.58703 0.34066
 H794 H 0.63928 0.57300 0.11577
 H795 H 0.59173 0.48042 0.14621
 C796 C 0.88369 0.34120 0.32553
 C797 C 0.87772 0.35087 0.37957
 C798 C 0.86194 0.33054 0.42353
 C799 C 0.85203 0.30065 0.41415
 C800 C 0.85752 0.29102 0.35924
 C801 C 0.87369 0.31140 0.31476
 C802 C 0.90103 0.36279 0.27977
 C803 C 0.90765 0.35341 0.22604
 C804 C 0.92494 0.37429 0.18344
 C805 C 0.93547 0.40421 0.19480
 C806 C 0.92807 0.41302 0.24844
 C807 C 0.91102 0.39250 0.29112
 C808 C 0.88040 0.30278 0.26007
 C809 C 0.89713 0.32341 0.21656
 C810 C 0.88780 0.38073 0.38893
 C811 C 0.90415 0.40121 0.34535
 H812 H 0.87286 0.27992 0.25101
 H813 H 0.90200 0.31583 0.17529
 H814 H 0.88318 0.38835 0.43046
 H815 H 0.91170 0.42408 0.35443
 H816 H 0.85723 0.33794 0.46532
 H817 H 0.84974 0.26798 0.35184
 H818 H 0.93052 0.36734 0.14218
 H819 H 0.93594 0.43596 0.25754
   
