data_POSCAR
  _audit_creation_date              2014-09-24
  _audit_creation_method            'ToBaCCo'
  _symmetry_space_group_name_H-M    'P1'
  _symmetry_Int_Tables_number       1
  _symmetry_cell_setting            triclinic
  loop_
  _symmetry_equiv_pos_as_xyz
 x,y,z
_cell_length_a 24.5605
_cell_length_b 24.9622
_cell_length_c 24.7057
_cell_angle_alpha 90.191700
_cell_angle_beta 90.500600
_cell_angle_gamma 89.712800
loop_
  _atom_site_label
  _atom_site_type_symbol
  _atom_site_fract_x
  _atom_site_fract_y
  _atom_site_fract_z
Si1 Si 0.25310 0.25678 0.25398
 Si2 Si 0.75399 0.75047 0.24575
 Si3 Si 0.74707 0.24434 0.74767
 Si4 Si 0.24672 0.75070 0.75140
 C5 C 0.07870 0.08638 0.02538
 H6 H 0.08118 0.08843 -0.01827
 C7 C 0.10955 0.12119 0.05749
 H8 H 0.13653 0.14915 0.03798
 C9 C 0.04203 0.04569 0.10331
 H10 H 0.01566 0.01633 0.12119
 C11 C 0.07224 0.07954 0.13691
 H12 H 0.06979 0.07383 0.18015
 N13 N 0.04608 0.04932 0.04863
 C14 C 0.02815 -0.08003 -0.06898
 H15 H -0.01570 -0.08402 -0.06943
 C16 C 0.06000 -0.11349 -0.10126
 H17 H 0.04019 -0.14363 -0.12600
 C18 C 0.10686 -0.03708 -0.03440
 H19 H 0.12507 -0.00808 -0.00734
 C20 C 0.14029 -0.06957 -0.06622
 H21 H 0.18384 -0.06524 -0.06204
 Zn22 Zn 0.00527 0.00348 0.00277
 N23 N 0.05181 -0.04179 -0.03752
 C24 C -0.03209 0.04233 -0.09893
 N25 N -0.03670 0.04719 -0.04436
 C26 C -0.07066 0.08416 -0.02208
 C27 C -0.10419 0.11576 -0.05504
 C28 C -0.06479 0.07314 -0.13338
 C29 C -0.01744 -0.07714 0.07803
 C30 C -0.04974 -0.10973 0.11031
 C31 C -0.12963 -0.06949 0.06960
 C32 C -0.09581 -0.03759 0.03824
 N33 N -0.04082 -0.04087 0.04401
 H34 H -0.00305 0.01454 -0.11599
 H35 H -0.07223 0.08848 0.02146
 H36 H -0.13095 0.14487 -0.03634
 H37 H -0.05927 0.06889 -0.17651
 H38 H 0.02647 -0.08034 0.08040
 H39 H -0.03017 -0.13846 0.13691
 H40 H -0.17308 -0.06669 0.06297
 H41 H -0.11372 -0.01052 0.00906
 C42 C 0.11689 -0.10712 -0.10206
 C43 C 0.10575 0.11902 0.11425
 C44 C -0.10682 -0.10478 0.10801
 C45 C -0.10336 0.10897 -0.11160
 C46 C 0.06823 0.58322 0.52861
 H47 H 0.07056 0.58512 0.48494
 C48 C 0.09945 0.61790 0.56041
 H49 H 0.12648 0.64559 0.54058
 C50 C 0.03211 0.54257 0.60682
 H51 H 0.00599 0.51304 0.62484
 C52 C 0.06257 0.57656 0.64020
 H53 H 0.06041 0.57104 0.68349
 N54 N 0.03594 0.54604 0.55209
 C55 C 0.02404 0.41756 0.43288
 H56 H -0.01963 0.41228 0.43102
 C57 C 0.05786 0.38621 0.40041
 H58 H 0.03975 0.35624 0.37419
 C59 C 0.10038 0.46189 0.47081
 H60 H 0.11698 0.49056 0.49919
 C61 C 0.13570 0.43157 0.43888
 H62 H 0.17896 0.43718 0.44433
 Zn63 Zn -0.00325 0.49950 0.50544
 N64 N 0.04558 0.45563 0.46603
 C65 C -0.03756 0.53899 0.40277
 N66 N -0.04433 0.54296 0.45720
 C67 C -0.07959 0.57917 0.47871
 C68 C -0.11027 0.61273 0.44506
 C69 C -0.06726 0.57192 0.36764
 C70 C -0.02648 0.41851 0.58022
 C71 C -0.05888 0.38415 0.61050
 C72 C -0.13854 0.42270 0.56771
 C73 C -0.10461 0.45638 0.53835
 N74 N -0.04968 0.45406 0.54533
 H75 H -0.00910 0.51031 0.38629
 H76 H -0.08418 0.58159 0.52216
 H77 H -0.13923 0.64007 0.46320
 H78 H -0.06219 0.56631 0.32459
 H79 H 0.01735 0.41731 0.58494
 H80 H -0.03946 0.35738 0.63922
 H81 H -0.18203 0.42728 0.56260
 H82 H -0.12243 0.48449 0.51013
 C83 C 0.11451 0.39447 0.40130
 C84 C 0.09624 0.61576 0.61720
 C85 C -0.11585 0.38494 0.60373
 C86 C -0.10337 0.61056 0.38858
 C87 C 0.57101 0.07181 0.52196
 H88 H 0.57225 0.07501 0.47833
 C89 C 0.60392 0.10471 0.55406
 H90 H 0.62984 0.13367 0.53459
 C91 C 0.53351 0.03181 0.59984
 H92 H 0.50498 0.00437 0.61763
 C93 C 0.56572 0.06393 0.63349
 H94 H 0.56043 0.06090 0.67673
 N95 N 0.53773 0.03527 0.54515
 C96 C 0.51924 -0.08834 0.42087
 H97 H 0.47538 -0.09101 0.41759
 C98 C 0.55215 -0.11976 0.38741
 H99 H 0.53306 -0.14712 0.35907
 C100 C 0.59690 -0.05103 0.46365
 H101 H 0.61430 -0.02519 0.49429
 C102 C 0.63127 -0.08193 0.43134
 H103 H 0.67465 -0.07972 0.43867
 Zn104 Zn 0.49572 -0.00888 0.49846
 N105 N 0.54201 -0.05347 0.45677
 C106 C 0.45924 0.03493 0.39832
 N107 N 0.45455 0.03730 0.45305
 C108 C 0.42147 0.07400 0.47702
 C109 C 0.39102 0.10986 0.44565
 C110 C 0.42950 0.06996 0.36542
 C111 C 0.47283 -0.09020 0.57251
 C112 C 0.44070 -0.12218 0.60556
 C113 C 0.36065 -0.08053 0.56670
 C114 C 0.39432 -0.04934 0.53440
 N115 N 0.44936 -0.05347 0.53908
 H116 H 0.48605 0.00593 0.37985
 H117 H 0.41854 0.07512 0.52068
 H118 H 0.36389 0.13772 0.46568
 H119 H 0.43271 0.06542 0.32207
 H120 H 0.51672 -0.09398 0.57409
 H121 H 0.46042 -0.15113 0.63180
 H122 H 0.31707 -0.07678 0.56141
 H123 H 0.37630 -0.02177 0.50574
 C124 C 0.60918 -0.11515 0.39065
 C125 C 0.60329 0.09969 0.61077
 C126 C 0.38371 -0.11592 0.60489
 C127 C 0.39572 0.10924 0.38892
 C128 C 0.54175 0.60003 0.03296
 H129 H 0.51181 0.61744 0.00598
 C130 C 0.57509 0.63366 0.06379
 H131 H 0.56843 0.67637 0.06096
 C132 C 0.58416 0.52334 0.07083
 H133 H 0.58695 0.48017 0.07370
 C134 C 0.61845 0.55550 0.10237
 H135 H 0.64692 0.53648 0.13000
 N136 N 0.54641 0.54594 0.03731
 C137 C 0.54065 0.39896 -0.03802
 H138 H 0.51361 0.38247 -0.00825
 C139 C 0.57179 0.36435 -0.06984
 H140 H 0.56844 0.32180 -0.06292
 C141 C 0.58079 0.47441 -0.07908
 H142 H 0.58442 0.51748 -0.08197
 C143 C 0.61268 0.44125 -0.11181
 H144 H 0.64130 0.45933 -0.13927
 Zn145 Zn 0.49995 0.50001 -0.00313
 N146 N 0.54444 0.45291 -0.04423
 C147 C 0.45716 0.53599 -0.10416
 N148 N 0.45384 0.54076 -0.04945
 C149 C 0.41690 0.57429 -0.02636
 C150 C 0.38393 0.60721 -0.05854
 C151 C 0.42497 0.56814 -0.13787
 C152 C 0.45970 0.46620 0.09858
 C153 C 0.42829 0.43505 0.13306
 C154 C 0.38550 0.39476 0.05475
 C155 C 0.41768 0.42677 0.02175
 N156 N 0.45509 0.46040 0.04401
 H157 H 0.48477 0.50728 -0.12194
 H158 H 0.41374 0.57606 0.01727
 H159 H 0.35496 0.63373 -0.03920
 H160 H 0.42811 0.56247 -0.18108
 H161 H 0.48770 0.49500 0.11563
 H162 H 0.43231 0.44140 0.17620
 H163 H 0.35597 0.36836 0.03602
 H164 H 0.41350 0.42426 -0.02182
 C165 C 0.60694 0.38524 -0.10914
 C166 C 0.61514 0.61167 0.09839
 C167 C 0.39215 0.39683 0.11136
 C168 C 0.38918 0.60616 -0.11522
 C169 C 0.20751 -0.20532 -0.20346
 C170 C 0.23823 -0.15485 -0.18434
 C171 C 0.20907 -0.12182 -0.15157
 C172 C 0.15125 -0.14193 -0.13951
 C173 C 0.12577 -0.14982 -0.19605
 C174 C 0.15457 -0.18297 -0.22893
 C175 C 0.18871 -0.23166 -0.15048
 C176 C 0.15951 -0.19879 -0.11750
 H177 H 0.27889 -0.14423 -0.19660
 H178 H 0.22527 -0.08350 -0.13871
 H179 H 0.08893 -0.12973 -0.20989
 H180 H 0.14097 -0.19075 -0.26992
 H181 H 0.19708 -0.27276 -0.13929
 H182 H 0.14373 -0.21212 -0.07893
 C183 C 0.21028 0.30111 0.30065
 C184 C 0.15833 0.32340 0.27362
 C185 C 0.12772 0.35512 0.30636
 C186 C 0.15097 0.36162 0.36407
 C187 C 0.15925 0.30421 0.38467
 C188 C 0.19014 0.27282 0.35185
 C189 C 0.23984 0.35112 0.32205
 C190 C 0.20906 0.38286 0.35478
 H191 H 0.14690 0.31631 0.23180
 H192 H 0.09108 0.37506 0.29179
 H193 H 0.14245 0.28955 0.42229
 H194 H 0.19928 0.23153 0.36190
 H195 H 0.28081 0.36218 0.31089
 H196 H 0.22422 0.42102 0.36930
 C197 C 0.70786 -0.20691 0.29111
 C198 C 0.73527 -0.15572 0.31251
 C199 C 0.70301 -0.12479 0.34436
 C200 C 0.64571 -0.14787 0.35332
 C201 C 0.62329 -0.15566 0.29537
 C202 C 0.65546 -0.18666 0.26323
 C203 C 0.68784 -0.23555 0.34217
 C204 C 0.65562 -0.20485 0.37447
 H205 H 0.77590 -0.14317 0.30192
 H206 H 0.71647 -0.08589 0.35862
 H207 H 0.58633 -0.13690 0.28006
 H208 H 0.64497 -0.19446 0.22128
 H209 H 0.69756 -0.27669 0.35225
 H210 H 0.63840 -0.21993 0.41173
 C211 C 0.70229 0.28858 -0.20730
 C212 C 0.73125 0.31056 -0.15654
 C213 C 0.69929 0.34190 -0.12462
 C214 C 0.64074 0.34892 -0.14573
 C215 C 0.64694 0.36976 -0.20396
 C216 C 0.67920 0.33857 -0.23578
 C217 C 0.65173 0.26008 -0.18546
 C218 C 0.61947 0.29136 -0.15382
 H219 H 0.77343 0.30243 -0.14622
 H220 H 0.71436 0.36008 -0.08747
 H221 H 0.62635 0.40513 -0.21957
 H222 H 0.68615 0.34821 -0.27785
 H223 H 0.64054 0.21936 -0.19563
 H224 H 0.58073 0.27686 -0.13937
 C225 C -0.20569 0.20137 -0.20795
 C226 C -0.15360 0.22970 -0.18848
 C227 C -0.12027 0.19874 -0.15716
 C228 C -0.14145 0.14182 -0.14767
 C229 C -0.19901 0.14981 -0.12460
 C230 C -0.23216 0.18109 -0.15573
 C231 C -0.18516 0.15019 -0.23610
 C232 C -0.15221 0.11899 -0.20482
 H233 H -0.14348 0.27071 -0.19814
 H234 H -0.08210 0.21351 -0.14056
 H235 H -0.21328 0.13112 -0.08779
 H236 H -0.27393 0.18916 -0.14452
 H237 H -0.19709 0.13786 -0.27649
 H238 H -0.13848 0.08008 -0.21892
 C239 C -0.20015 0.70644 0.29024
 C240 C -0.22719 0.65474 0.30990
 C241 C -0.19468 0.62367 0.34183
 C242 C -0.13750 0.64647 0.35164
 C243 C -0.11479 0.65646 0.29454
 C244 C -0.14763 0.68734 0.26263
 C245 C -0.18011 0.73426 0.34232
 C246 C -0.14724 0.70333 0.37403
 H247 H -0.26847 0.64314 0.29970
 H248 H -0.20840 0.58595 0.35852
 H249 H -0.07494 0.64363 0.28096
 H250 H -0.13577 0.69875 0.22218
 H251 H -0.18921 0.77543 0.35292
 H252 H -0.12827 0.71890 0.41061
 C253 C 0.29879 0.21069 0.29663
 C254 C 0.32200 0.23686 0.34830
 C255 C 0.35492 0.20410 0.37817
 C256 C 0.36151 0.14731 0.35439
 C257 C 0.30311 0.12690 0.34667
 C258 C 0.27053 0.15977 0.31673
 C259 C 0.34934 0.19002 0.26662
 C260 C 0.38220 0.15749 0.29661
 H261 H 0.31470 0.27812 0.35995
 H262 H 0.37576 0.21814 0.41440
 H263 H 0.28851 0.08960 0.36357
 H264 H 0.22831 0.15012 0.30860
 H265 H 0.36016 0.20163 0.22597
 H266 H 0.42104 0.14373 0.28120
 C267 C 0.29092 0.70662 -0.20802
 C268 C 0.34088 0.68480 -0.23850
 C269 C 0.37398 0.65240 -0.20860
 C270 C 0.35442 0.64342 -0.15025
 C271 C 0.34881 0.70058 -0.12737
 C272 C 0.31562 0.73317 -0.15704
 C273 C 0.26284 0.65603 -0.18630
 C274 C 0.29578 0.62341 -0.15643
 H275 H 0.35122 0.69514 -0.27961
 H276 H 0.41222 0.63788 -0.22469
 H277 H 0.37035 0.71489 -0.09165
 H278 H 0.30921 0.77452 -0.14538
 H279 H 0.22046 0.64625 -0.19302
 H280 H 0.28125 0.58654 -0.13855
 C281 C -0.20187 -0.20337 0.20265
 C282 C -0.15051 -0.18235 0.23164
 C283 C -0.11977 -0.14901 0.20110
 C284 C -0.14235 -0.13981 0.14349
 C285 C -0.14954 -0.19622 0.11971
 C286 C -0.18039 -0.22924 0.15040
 C287 C -0.23160 -0.15240 0.18350
 C288 C -0.20073 -0.11914 0.15318
 H289 H -0.13960 -0.19146 0.27315
 H290 H -0.08365 -0.12966 0.21732
 H291 H -0.13159 -0.20920 0.08184
 H292 H -0.18819 -0.27023 0.13832
 H293 H -0.27283 -0.14179 0.19449
 H294 H -0.21599 -0.08024 0.14068
 C295 C -0.21005 0.28839 0.70142
 C296 C -0.18934 0.34011 0.72828
 C297 C -0.15888 0.37138 0.69544
 C298 C -0.15137 0.34873 0.63813
 C299 C -0.12808 0.29196 0.64673
 C300 C -0.15839 0.26081 0.67991
 C301 C -0.24016 0.30747 0.65013
 C302 C -0.20970 0.33850 0.61697
 H303 H -0.19763 0.35155 0.76972
 H304 H -0.14162 0.40910 0.70906
 H305 H -0.09180 0.27675 0.62703
 H306 H -0.14700 0.21974 0.68855
 H307 H -0.28122 0.29583 0.63920
 H308 H -0.22517 0.35109 0.57779
 C309 C 0.28853 -0.20811 0.70648
 C310 C 0.30532 -0.23559 0.65312
 C311 C 0.33631 -0.20479 0.62023
 C312 C 0.34833 -0.14873 0.64273
 C313 C 0.29206 -0.12455 0.65546
 C314 C 0.26103 -0.15549 0.68804
 C315 C 0.34293 -0.18964 0.73183
 C316 C 0.37364 -0.15857 0.69904
 H317 H 0.29445 -0.27603 0.64167
 H318 H 0.35110 -0.21917 0.58150
 H319 H 0.27839 -0.08512 0.64284
 H320 H 0.22120 -0.14198 0.70056
 H321 H 0.35605 -0.19825 0.77279
 H322 H 0.41150 -0.14088 0.71308
 C323 C 0.29730 0.30089 0.20898
 C324 C 0.35041 0.31945 0.23640
 C325 C 0.38244 0.35022 0.20458
 C326 C 0.35842 0.36091 0.14773
 C327 C 0.34821 0.30429 0.12490
 C328 C 0.31611 0.27334 0.15656
 C329 C 0.26967 0.35296 0.18978
 C330 C 0.30144 0.38409 0.15797
 H331 H 0.36324 0.30787 0.27673
 H332 H 0.42255 0.36266 0.21809
 H333 H 0.36620 0.28891 0.08798
 H334 H 0.30657 0.23238 0.14563
 H335 H 0.22854 0.36473 0.19999
 H336 H 0.28722 0.42197 0.14150
 C337 C 0.20590 0.21399 0.20969
 C338 C 0.18384 0.24246 0.15883
 C339 C 0.14989 0.21195 0.12780
 C340 C 0.14117 0.15494 0.14975
 C341 C 0.19874 0.13175 0.15696
 C342 C 0.23237 0.16238 0.18800
 C343 C 0.15453 0.19488 0.23888
 C344 C 0.12062 0.16463 0.20776
 H345 H 0.19271 0.28362 0.14853
 H346 H 0.12967 0.22782 0.09203
 H347 H 0.21207 0.09430 0.13883
 H348 H 0.27420 0.15068 0.19581
 H349 H 0.14401 0.20585 0.27989
 H350 H 0.08127 0.15214 0.22257
 C351 C 0.19984 0.70987 0.71051
 C352 C 0.17692 0.73810 0.65968
 C353 C 0.14185 0.70790 0.62969
 C354 C 0.13278 0.65123 0.65213
 C355 C 0.19006 0.62725 0.65832
 C356 C 0.22483 0.65750 0.68848
 C357 C 0.14853 0.69150 0.74072
 C358 C 0.11360 0.66147 0.71044
 H359 H 0.18567 0.77901 0.64851
 H360 H 0.12093 0.72395 0.59439
 H361 H 0.20241 0.58949 0.64014
 H362 H 0.26651 0.64482 0.69514
 H363 H 0.13881 0.70237 0.78193
 H364 H 0.07455 0.64920 0.72619
 C365 C 0.70172 0.19828 0.70452
 C366 C 0.64845 0.22428 0.68429
 C367 C 0.61647 0.19129 0.65388
 C368 C 0.64005 0.13477 0.64594
 C369 C 0.69724 0.14376 0.62263
 C370 C 0.72902 0.17708 0.65284
 C371 C 0.68336 0.14743 0.73406
 C372 C 0.65172 0.11420 0.70368
 H373 H 0.63658 0.26526 0.69279
 H374 H 0.57772 0.20431 0.63691
 H375 H 0.71233 0.12429 0.58636
 H376 H 0.77039 0.18608 0.64132
 H377 H 0.69570 0.13689 0.77482
 H378 H 0.63947 0.07544 0.71887
 C379 C 0.71044 0.70662 0.19892
 C380 C 0.74012 0.65676 0.17699
 C381 C 0.70942 0.62602 0.14300
 C382 C 0.65099 0.64713 0.13411
 C383 C 0.62782 0.65359 0.19132
 C384 C 0.65868 0.68447 0.22499
 C385 C 0.68990 0.73572 0.14789
 C386 C 0.65948 0.70485 0.11393
 H387 H 0.78221 0.64690 0.18600
 H388 H 0.72606 0.59092 0.12292
 H389 H 0.59014 0.63528 0.20428
 H390 H 0.64699 0.69213 0.26649
 H391 H 0.69995 0.77661 0.13773
 H392 H 0.64609 0.71978 0.07485
   
