data_POSCAR
  _audit_creation_date              2014-09-24
  _audit_creation_method            'ToBaCCo'
  _symmetry_space_group_name_H-M    'P1'
  _symmetry_Int_Tables_number       1
  _symmetry_cell_setting            triclinic
  loop_
  _symmetry_equiv_pos_as_xyz
 x,y,z
_cell_length_a 33.0085
_cell_length_b 32.6208
_cell_length_c 33.5776
_cell_angle_alpha 89.893100
_cell_angle_beta 89.957800
_cell_angle_gamma 90.189900
loop_
  _atom_site_label
  _atom_site_type_symbol
  _atom_site_fract_x
  _atom_site_fract_y
  _atom_site_fract_z
C1 C 0.59581 0.65236 0.62691
 N2 N 0.59647 0.62322 0.65582
 C3 C 0.62542 0.59376 0.65547
 N4 N 0.65365 0.59348 0.62606
 C5 C 0.65303 0.62254 0.59711
 N6 N 0.62412 0.65200 0.59760
 C7 C 0.90612 0.34703 0.12535
 N8 N 0.90506 0.37625 0.15408
 C9 C 0.87580 0.40534 0.15359
 N10 N 0.84756 0.40525 0.12426
 C11 C 0.84852 0.37615 0.09546
 N12 N 0.87777 0.34702 0.09606
 C13 C 0.40210 0.15339 -0.12453
 N14 N 0.40137 0.12523 -0.15423
 C15 C 0.37184 0.09620 -0.15517
 N16 N 0.34308 0.09530 -0.12628
 C17 C 0.34374 0.12341 -0.09654
 N18 N 0.37325 0.15245 -0.09572
 C19 C 0.09558 0.84532 0.37498
 N20 N 0.12520 0.84558 0.40298
 C21 C 0.15462 0.87471 0.40203
 N22 N 0.15439 0.90371 0.37299
 C23 C 0.12482 0.90356 0.34489
 N24 N 0.09547 0.87432 0.34595
 N25 N 0.07739 0.18957 0.10931
 N26 N 0.06229 0.17370 0.14217
 C27 C 0.02983 0.19578 0.15342
 C28 C 0.02444 0.22692 0.12610
 C29 C 0.05500 0.22217 0.09849
 H30 H 0.01141 0.18972 0.17942
 H31 H 0.06053 0.24114 0.07259
 Cu32 Cu 0.08638 0.12569 0.16693
 Cu33 Cu 0.12502 0.16693 0.08323
 Cu34 Cu 0.16779 0.08045 0.12609
 N35 N 0.11015 0.07671 0.19015
 N36 N 0.14226 0.05939 0.17430
 C37 C 0.15261 0.02650 0.19629
 C38 C 0.12542 0.02303 0.22733
 C39 C 0.09886 0.05523 0.22264
 H40 H 0.17782 0.00640 0.19010
 H41 H 0.07334 0.06241 0.24155
 N42 N 0.18922 0.10634 0.07732
 N43 N 0.17323 0.13956 0.06127
 C44 C 0.19489 0.15004 0.02877
 C45 C 0.22564 0.12200 0.02414
 C46 C 0.22130 0.09471 0.05527
 H47 H 0.18879 0.17602 0.00967
 H48 H 0.24028 0.06852 0.06143
 H49 H 0.11629 0.10747 0.10300
 H50 H 0.15035 0.14075 0.13344
 N51 N 0.42403 0.81207 0.60705
 N52 N 0.43859 0.82849 0.63982
 C53 C 0.47081 0.80654 0.65201
 C54 C 0.47658 0.77493 0.62539
 C55 C 0.44653 0.77927 0.59722
 H56 H 0.48876 0.81297 0.67820
 H57 H 0.44137 0.75984 0.57165
 Cu58 Cu 0.41380 0.87682 0.66323
 Cu59 Cu 0.37673 0.83404 0.57988
 Cu60 Cu 0.33258 0.92072 0.62070
 N61 N 0.38926 0.92584 0.68548
 N62 N 0.35720 0.94259 0.66895
 C63 C 0.34579 0.97527 0.69061
 C64 C 0.37221 0.97916 0.72220
 C65 C 0.39946 0.94749 0.71812
 H66 H 0.32019 0.99470 0.68396
 H67 H 0.42449 0.94066 0.73776
 N68 N 0.31216 0.89402 0.57203
 N69 N 0.32874 0.86077 0.55675
 C70 C 0.30743 0.84934 0.52440
 C71 C 0.27621 0.87677 0.51912
 C72 C 0.28002 0.90472 0.54963
 H73 H 0.31392 0.82294 0.50609
 H74 H 0.26039 0.93054 0.55526
 H75 H 0.38456 0.89387 0.59868
 H76 H 0.35041 0.86072 0.62931
 N77 N 0.92091 0.69010 0.39293
 N78 N 0.93697 0.67365 0.36089
 C79 C 0.96979 0.69571 0.35009
 C80 C 0.97447 0.72732 0.37693
 C81 C 0.94305 0.72297 0.40373
 H82 H 0.98907 0.68926 0.32484
 H83 H 0.93678 0.74229 0.42911
 Cu84 Cu 0.91376 0.62471 0.33686
 Cu85 Cu 0.87251 0.66785 0.41821
 Cu86 Cu 0.82939 0.58176 0.37491
 N87 N 0.88878 0.57683 0.31251
 N88 N 0.85557 0.56045 0.32735
 C89 C 0.84454 0.52817 0.30488
 C90 C 0.87239 0.52414 0.27452
 C91 C 0.90008 0.55535 0.28013
 H92 H 0.81837 0.50893 0.31031
 H93 H 0.92634 0.56182 0.26187
 N94 N 0.80735 0.60781 0.42312
 N95 N 0.82353 0.64086 0.43938
 C96 C 0.80161 0.65128 0.47166
 C97 C 0.77048 0.62336 0.47587
 C98 C 0.77488 0.59623 0.44477
 H99 H 0.80791 0.67698 0.49099
 H100 H 0.75583 0.57002 0.43848
 H101 H 0.88051 0.60801 0.39978
 H102 H 0.84885 0.64158 0.36727
 N103 N 0.57918 0.30953 -0.10701
 N104 N 0.56271 0.32658 -0.13860
 C105 C 0.52968 0.30481 -0.14916
 C106 C 0.52527 0.27276 -0.12266
 C107 C 0.55708 0.27655 -0.09629
 H108 H 0.51008 0.31173 -0.17406
 H109 H 0.56366 0.25677 -0.07126
 Cu110 Cu 0.58579 0.37577 -0.16252
 Cu111 Cu 0.62801 0.33122 -0.08219
 Cu112 Cu 0.67096 0.41764 -0.12533
 N113 N 0.61083 0.42376 -0.18685
 N114 N 0.64434 0.43971 -0.17234
 C115 C 0.65545 0.47205 -0.19482
 C116 C 0.62735 0.47659 -0.22485
 C117 C 0.59941 0.44560 -0.21903
 H118 H 0.68193 0.49091 -0.18968
 H119 H 0.57299 0.43944 -0.23709
 N120 N 0.69347 0.39091 -0.07766
 N121 N 0.67738 0.35772 -0.06144
 C122 C 0.69957 0.34693 -0.02945
 C123 C 0.73079 0.37476 -0.02538
 C124 C 0.72615 0.40221 -0.05628
 H125 H 0.69333 0.32111 -0.01014
 H126 H 0.74512 0.42852 -0.06253
 H127 H 0.62002 0.39132 -0.09993
 H128 H 0.65100 0.35803 -0.13327
 C129 C -0.03963 0.26483 0.15912
 C130 C -0.03119 0.31156 0.15858
 C131 C -0.06353 0.31652 0.12599
 C132 C -0.07239 0.27024 0.12655
 C133 C -0.03153 0.31094 0.09319
 C134 C 0.00125 0.30550 0.12578
 C135 C -0.00755 0.25919 0.12633
 C136 C -0.03990 0.26419 0.09377
 H137 H -0.04286 0.24569 0.18631
 H138 H -0.02772 0.33125 0.18531
 H139 H -0.10300 0.25604 0.12685
 H140 H -0.02850 0.33023 0.06608
 H141 H 0.03188 0.31964 0.12545
 H142 H -0.04313 0.24434 0.06714
 C143 C 0.54022 0.73701 0.65960
 C144 C 0.53152 0.69032 0.65958
 C145 C 0.56406 0.68481 0.62723
 C146 C 0.57316 0.73106 0.62727
 C147 C 0.53228 0.69035 0.59424
 C148 C 0.49934 0.69628 0.62656
 C149 C 0.50843 0.74254 0.62658
 C150 C 0.54096 0.73701 0.59426
 H151 H 0.54336 0.75641 0.68655
 H152 H 0.52786 0.67082 0.68648
 H153 H 0.60387 0.74502 0.62755
 H154 H 0.52934 0.67081 0.56736
 H155 H 0.46863 0.68233 0.62625
 H156 H 0.54452 0.75658 0.56739
 C157 C 1.01253 0.79168 0.34407
 C158 C 1.01925 0.82469 0.37655
 C159 C 1.06479 0.81507 0.37602
 C160 C 1.05854 0.78255 0.34353
 C161 C 1.05931 0.78264 0.40892
 C162 C 1.01330 0.79184 0.40943
 C163 C 1.00699 0.75925 0.37694
 C164 C 1.05257 0.74969 0.37642
 H165 H 0.99292 0.79505 0.31743
 H166 H 1.00585 0.85586 0.37658
 H167 H 1.07748 0.77902 0.31643
 H168 H 1.07877 0.77907 0.43565
 H169 H 0.99450 0.79554 0.43660
 H170 H 1.06590 0.71850 0.37636
 C171 C 0.48690 0.20749 -0.09069
 C172 C 0.44092 0.21676 -0.09014
 C173 C 0.43470 0.18517 -0.12355
 C174 C 0.48026 0.17551 -0.12410
 C175 C 0.44048 0.21853 -0.15546
 C176 C 0.44712 0.25053 -0.12205
 C177 C 0.49268 0.24088 -0.12262
 C178 C 0.48646 0.20931 -0.15601
 H179 H 0.50617 0.20305 -0.06397
 H180 H 0.42191 0.21962 -0.06300
 H181 H 0.49354 0.14431 -0.12497
 H182 H 0.42104 0.22275 -0.18210
 H183 H 0.43384 0.28173 -0.12121
 H184 H 0.50555 0.20657 -0.18310
 C185 C 0.12419 -0.05543 0.25096
 C186 C 0.15762 -0.06132 0.28283
 C187 C 0.12455 -0.06607 0.31476
 C188 C 0.09111 -0.06066 0.28332
 C189 C 0.12520 -0.01973 0.32297
 C190 C 0.15826 -0.01453 0.29054
 C191 C 0.12485 -0.00907 0.25911
 C192 C 0.09179 -0.01387 0.29111
 H193 H 0.12379 -0.06976 0.22100
 H194 H 0.18469 -0.08117 0.27972
 H195 H 0.06341 -0.07983 0.28048
 H196 H 0.12562 -0.00535 0.35290
 H197 H 0.18587 0.00481 0.29317
 H198 H 0.06464 0.00581 0.29442
 C199 C 0.59438 0.54121 -0.26193
 C200 C 0.62801 0.57357 -0.26946
 C201 C 0.62626 0.56366 -0.31416
 C202 C 0.59262 0.53179 -0.30709
 C203 C 0.65909 0.53066 -0.30934
 C204 C 0.66081 0.54017 -0.26420
 C205 C 0.62718 0.50822 -0.25707
 C206 C 0.62545 0.49836 -0.30179
 H207 H 0.56780 0.54520 -0.24206
 H208 H 0.62905 0.60482 -0.25646
 H209 H 0.56457 0.52865 -0.32507
 H210 H 0.68577 0.52644 -0.32905
 H211 H 0.68895 0.54351 -0.24640
 H212 H 0.62439 0.46708 -0.31472
 C213 C 0.37097 1.00004 0.79919
 C214 C 0.40436 1.03270 0.80616
 C215 C 0.37130 1.06517 0.81224
 C216 C 0.33789 1.03290 0.80568
 C217 C 0.37173 1.07570 0.76759
 C218 C 0.40481 1.04279 0.76111
 C219 C 0.37142 1.01055 0.75453
 C220 C 0.33834 1.04304 0.76059
 H221 H 0.37067 0.96858 0.81185
 H222 H 0.43151 1.02876 0.82526
 H223 H 0.31033 1.02904 0.82429
 H224 H 0.37206 1.10716 0.75494
 H225 H 0.43233 1.04655 0.74241
 H226 H 0.31111 1.04716 0.74164
 C227 C 0.90607 0.46004 0.23760
 C228 C 0.87291 0.42722 0.23025
 C229 C 0.87451 0.43708 0.18549
 C230 C 0.90767 0.46947 0.19242
 C231 C 0.84124 0.46961 0.19027
 C232 C 0.83964 0.46012 0.23545
 C233 C 0.87281 0.49254 0.24240
 C234 C 0.87440 0.50241 0.19763
 H235 H 0.93272 0.45643 0.25743
 H236 H 0.87233 0.39595 0.24333
 H237 H 0.93566 0.47298 0.17437
 H238 H 0.81454 0.47334 0.17052
 H239 H 0.81156 0.45638 0.25331
 H240 H 0.87501 0.53369 0.18456
 C241 C 0.24761 0.12298 -0.05266
 C242 C 0.28071 0.15630 -0.05808
 C243 C 0.31224 0.12240 -0.06465
 C244 C 0.27954 0.08907 -0.05965
 C245 C 0.32172 0.12106 -0.01985
 C246 C 0.28978 0.15497 -0.01287
 C247 C 0.25711 0.12166 -0.00785
 C248 C 0.28866 0.08773 -0.01442
 H249 H 0.21679 0.12377 -0.06582
 H250 H 0.27775 0.18451 -0.07638
 H251 H 0.27555 0.06193 -0.07918
 H252 H 0.35255 0.12030 -0.00668
 H253 H 0.29367 0.18206 0.00672
 H254 H 0.29180 0.05945 0.00372
 C255 C 0.70705 0.58874 0.51388
 C256 C 0.71640 0.58885 0.55907
 C257 C 0.68419 0.62227 0.56491
 C258 C 0.67446 0.62215 0.52014
 C259 C 0.71615 0.65611 0.55889
 C260 C 0.74875 0.62269 0.55264
 C261 C 0.73904 0.62259 0.50787
 C262 C 0.70685 0.65600 0.51371
 H263 H 0.70343 0.56094 0.49519
 H264 H 0.72012 0.56118 0.57800
 H265 H 0.64356 0.62195 0.50712
 H266 H 0.71956 0.68381 0.57776
 H267 H 0.77965 0.62292 0.56567
 H268 H 0.70325 0.68362 0.49469
 C269 C 0.75274 0.37521 0.05129
 C270 C 0.78558 0.34201 0.05749
 C271 C 0.81733 0.37604 0.06331
 C272 C 0.78488 0.40926 0.05752
 C273 C 0.82695 0.37629 0.01851
 C274 C 0.79476 0.34224 0.01226
 C275 C 0.76234 0.37545 0.00648
 C276 C 0.79413 0.40950 0.01231
 H277 H 0.72188 0.37476 0.06444
 H278 H 0.78239 0.31425 0.07643
 H279 H 0.78101 0.43687 0.07639
 H280 H 0.85782 0.37672 0.00538
 H281 H 0.79848 0.31468 -0.00671
 H282 H 0.79755 0.43736 -0.00644
 C283 C 0.23850 0.84172 0.45669
 C284 C 0.19241 0.84193 0.46527
 C285 C 0.18701 0.87500 0.43300
 C286 C 0.23269 0.87478 0.42406
 C287 C 0.19270 0.90918 0.46398
 C288 C 0.19851 0.87611 0.49662
 C289 C 0.24420 0.87590 0.48771
 C290 C 0.23881 0.90897 0.45548
 H291 H 0.25751 0.81387 0.45380
 H292 H 0.17307 0.81430 0.46911
 H293 H 0.24640 0.87424 0.39387
 H294 H 0.17351 0.93691 0.46665
 H295 H 0.18478 0.87667 0.52680
 H296 H 0.25826 0.93654 0.45179
   
