data_POSCAR
  _audit_creation_date              2014-09-24
  _audit_creation_method            'ToBaCCo'
  _symmetry_space_group_name_H-M    'P1'
  _symmetry_Int_Tables_number       1
  _symmetry_cell_setting            triclinic
  loop_
  _symmetry_equiv_pos_as_xyz
 x,y,z
_cell_length_a 29.0410
_cell_length_b 29.0798
_cell_length_c 72.8543
_cell_angle_alpha 87.415600
_cell_angle_beta 91.437900
_cell_angle_gamma 120.081900
loop_
  _atom_site_label
  _atom_site_type_symbol
  _atom_site_fract_x
  _atom_site_fract_y
  _atom_site_fract_z
C1 C 0.01645 0.09316 0.52444
 H2 H 0.05442 0.09473 0.52394
 C3 C 0.01021 0.12740 0.53556
 H4 H 0.04341 0.15539 0.54372
 C5 C -0.07312 0.05499 0.51426
 H6 H -0.10521 0.02706 0.50578
 C7 C -0.08108 0.08867 0.52524
 H8 H -0.11947 0.08639 0.52532
 N9 N -0.02500 0.05755 0.51422
 C10 C 0.01155 -0.06845 0.50646
 H11 H 0.01361 -0.06787 0.49164
 C12 C 0.01582 -0.10742 0.51707
 H13 H 0.02158 -0.13676 0.51045
 C14 C -0.00123 -0.03272 0.53323
 H15 H -0.00949 -0.00467 0.53948
 C16 C 0.00288 -0.07089 0.54433
 H17 H -0.00157 -0.07161 0.55908
 Zn18 Zn -0.01025 0.01457 0.49953
 N19 N 0.00301 -0.03222 0.51465
 C20 C 0.09524 0.05893 0.48519
 N21 N 0.04966 0.06145 0.48512
 C22 C 0.04545 0.09972 0.47504
 C23 C 0.08771 0.13686 0.46417
 C24 C 0.13862 0.09546 0.47447
 C25 C -0.11431 -0.06682 0.49213
 C26 C -0.15603 -0.10340 0.48132
 C27 C -0.10277 -0.05953 0.45427
 C28 C -0.06212 -0.02393 0.46558
 N29 N -0.06842 -0.02828 0.48414
 H30 H 0.09809 0.02884 0.49357
 H31 H 0.00898 0.10116 0.47545
 H32 H 0.08380 0.16696 0.45611
 H33 H 0.17473 0.09320 0.47447
 H34 H -0.11780 -0.07007 0.50694
 H35 H -0.19192 -0.13463 0.48786
 H36 H -0.09671 -0.05625 0.43953
 H37 H -0.02494 0.00593 0.45951
 C38 C 0.01095 -0.10887 0.53617
 C39 C -0.03897 0.12509 0.53600
 C40 C -0.14995 -0.10003 0.46220
 C41 C 0.13465 0.13467 0.46385
 C42 C 1.11240 0.04196 0.14210
 H43 H 1.11403 0.07990 0.14248
 C44 C 1.14785 0.03656 0.13110
 H45 H 1.17683 0.07038 0.12291
 C46 C 1.07282 -0.04842 0.15243
 H47 H 1.04384 -0.08118 0.16091
 C48 C 1.10768 -0.05555 0.14156
 H49 H 1.10525 -0.09395 0.14158
 N50 N 1.07551 -0.00029 0.15233
 C51 C 0.94820 0.03527 0.15947
 H52 H 0.94698 0.03598 0.17428
 C53 C 0.91027 0.04020 0.14869
 H54 H 0.87994 0.04512 0.15518
 C55 C 0.98736 0.02511 0.13290
 H56 H 1.01631 0.01758 0.12679
 C57 C 0.95030 0.02994 0.12164
 H58 H 0.95134 0.02675 0.10691
 Zn59 Zn 1.03072 0.01315 0.16680
 N60 N 0.98560 0.02767 0.15146
 C61 C 1.07311 0.11705 0.18109
 N62 N 1.07589 0.07167 0.18120
 C63 C 1.11311 0.06659 0.19138
 C64 C 1.14880 0.10768 0.20234
 C65 C 1.10819 0.15927 0.19190
 C66 C 0.94842 -0.09150 0.17426
 C67 C 0.91072 -0.13418 0.18510
 C68 C 0.95153 -0.08337 0.21208
 C69 C 0.98834 -0.04168 0.20077
 N70 N 0.98607 -0.04633 0.18221
 H71 H 1.04387 0.12062 0.17264
 H72 H 1.11479 0.03031 0.19101
 H73 H 1.17802 0.10305 0.21051
 H74 H 1.10568 0.19520 0.19189
 H75 H 0.94678 -0.09370 0.15946
 H76 H 0.88015 -0.16955 0.17867
 H77 H 0.95294 -0.07886 0.22680
 H78 H 1.01748 -0.00506 0.20682
 C79 C 0.91111 0.03699 0.12961
 C80 C 1.14541 -0.01262 0.13078
 C81 C 0.91205 -0.12977 0.20418
 C82 C 1.14626 0.15436 0.20265
 C83 C 0.04607 0.94786 0.85791
 H84 H 0.00959 0.90993 0.85744
 C85 C 0.08841 0.95296 0.86881
 H86 H 0.08454 0.91891 0.87683
 C87 C 0.09581 1.03852 0.84790
 H88 H 0.09861 1.07151 0.83957
 C89 C 0.13927 1.04536 0.85866
 H90 H 0.17539 1.08376 0.85872
 N91 N 0.05023 0.99039 0.84789
 C92 C -0.11378 0.95468 0.84089
 H93 H -0.11750 0.95443 0.82608
 C94 C -0.15535 0.94944 0.85172
 H95 H -0.19138 0.94471 0.84522
 C96 C -0.06118 0.96408 0.86743
 H97 H -0.02391 0.97147 0.87350
 C98 C -0.10170 0.95893 0.87875
 H99 H -0.09552 0.96172 0.89348
 Zn100 Zn -0.00986 0.97734 0.83348
 N101 N -0.06776 0.96209 0.84886
 C102 C -0.07312 0.87394 0.81872
 N103 N -0.02495 0.91949 0.81876
 C104 C 0.01628 0.92521 0.80853
 C105 C 0.00974 0.88460 0.79740
 C106 C -0.08138 0.83218 0.80773
 C107 C 0.01185 1.08216 0.82659
 C108 C 0.01582 1.12530 0.81599
 C109 C 0.00248 1.07567 0.78872
 C110 C -0.00133 1.03350 0.79980
 N111 N 0.00323 1.03736 0.81838
 H112 H -0.10503 0.86987 0.82721
 H113 H 0.05430 0.96160 0.80903
 H114 H 0.04276 0.88972 0.78923
 H115 H -0.11982 0.79609 0.80765
 H116 H 0.01415 1.08372 0.84141
 H117 H 0.02159 1.16040 0.82263
 H118 H -0.00228 1.07182 0.77397
 H119 H -0.00966 0.99716 0.79354
 C120 C -0.14898 0.95212 0.87082
 C121 C 0.13536 1.00213 0.86922
 C122 C 0.01059 1.12173 0.79689
 C123 C -0.03951 0.83774 0.79696
 C124 C 0.36556 -0.00609 -0.00973
 C125 C 0.36699 -0.00550 0.00909
 C126 C 0.41320 -0.00527 0.01458
 N127 N 0.43967 -0.00598 -0.00028
 C128 C 0.41078 -0.00654 -0.01517
 C129 C 0.42914 -0.00567 0.03305
 C130 C 0.47705 -0.00381 0.03876
 C131 C 0.49007 -0.00861 0.05693
 C132 C 0.53909 -0.00496 0.05688
 C133 C 0.55477 0.00154 0.03867
 N134 N 0.51719 0.00322 0.02775
 C135 C 0.60257 0.00503 0.03281
 C136 C 0.61384 -0.00000 0.01447
 C137 C 0.65830 -0.00194 0.00908
 C138 C 0.65323 -0.00984 -0.00944
 C139 C 0.60612 -0.01189 -0.01488
 N140 N 0.58219 -0.00598 -0.00022
 C141 C 0.58758 -0.01699 -0.03323
 C142 C 0.54252 -0.01360 -0.03914
 C143 C 0.53111 -0.00722 -0.05737
 C144 C 0.48575 -0.00356 -0.05746
 C145 C 0.47017 -0.00822 -0.03930
 N146 N 0.50460 -0.01519 -0.02826
 C147 C 0.42487 -0.00622 -0.03364
 H148 H 0.33467 -0.00622 -0.01839
 H149 H 0.33734 -0.00521 0.01772
 H150 H 0.50046 -0.02445 -0.01429
 H151 H 0.46654 -0.01449 0.06903
 H152 H 0.56026 -0.00792 0.06891
 H153 H 0.69073 0.00127 0.01763
 H154 H 0.68146 -0.01299 -0.01797
 H155 H 0.46664 0.00226 -0.06958
 H156 H 0.52075 0.01264 0.01380
 H157 H 0.55376 -0.00435 -0.06938
 C158 C -0.02995 0.34039 0.67641
 C159 C -0.03102 0.34159 0.65758
 C160 C -0.03132 0.38767 0.65195
 N161 N -0.03079 0.41425 0.66676
 C162 C -0.02997 0.38559 0.68174
 C163 C -0.03303 0.40355 0.63343
 C164 C -0.03154 0.45142 0.62756
 C165 C -0.03737 0.46451 0.60943
 C166 C -0.03360 0.51355 0.60927
 C167 C -0.02600 0.52915 0.62733
 N168 N -0.02381 0.49150 0.63833
 C169 C -0.02194 0.57697 0.63301
 C170 C -0.02571 0.58825 0.65142
 C171 C -0.02706 0.63278 0.65672
 C172 C -0.03347 0.62787 0.67542
 C173 C -0.03523 0.58077 0.68102
 N174 N -0.03064 0.55668 0.66631
 C175 C -0.03858 0.56254 0.69954
 C176 C -0.03479 0.51752 0.70550
 C177 C -0.02646 0.50653 0.72361
 C178 C -0.02276 0.46123 0.72375
 C179 C -0.02936 0.44527 0.70574
 N180 N -0.03761 0.47937 0.69477
 C181 C -0.02773 0.40003 0.70016
 H182 H -0.02921 0.30968 0.68517
 H183 H -0.03138 0.31194 0.64902
 H184 H -0.04831 0.47495 0.68103
 H185 H -0.04396 0.44105 0.59750
 H186 H -0.03714 0.53480 0.59724
 H187 H -0.02436 0.66521 0.64802
 H188 H -0.03575 0.65622 0.68393
 H189 H -0.01557 0.44247 0.73578
 H190 H -0.01359 0.49500 0.65211
 H191 H -0.02224 0.52943 0.73549
 C192 C 0.36755 0.37174 0.32433
 C193 C 0.36590 0.37134 0.34313
 C194 C 0.41113 0.41711 0.34863
 N195 N 0.44023 0.44508 0.33378
 C196 C 0.41389 0.41757 0.31890
 C197 C 0.42502 0.43129 0.36710
 C198 C 0.47030 0.47871 0.37280
 C199 C 0.48566 0.49004 0.39099
 C200 C 0.53107 0.53909 0.39093
 C201 C 0.54271 0.55646 0.37270
 N202 N 0.50490 0.51988 0.36177
 C203 C 0.58789 0.60480 0.36683
 C204 C 0.60665 0.61784 0.34853
 C205 C 0.65385 0.66278 0.34316
 C206 C 0.65912 0.65953 0.32469
 C207 C 0.61469 0.61299 0.31926
 N208 N 0.58286 0.58765 0.33388
 C209 C 0.60363 0.59625 0.30095
 C210 C 0.55588 0.55177 0.29501
 C211 C 0.54046 0.54213 0.27676
 C212 C 0.49141 0.49673 0.27664
 C213 C 0.47812 0.47938 0.29482
 N214 N 0.51812 0.51277 0.30589
 C215 C 0.43009 0.43347 0.30045
 H216 H 0.33795 0.34162 0.31567
 H217 H 0.33486 0.34079 0.35176
 H218 H 0.52145 0.50728 0.31989
 H219 H 0.46637 0.46538 0.40310
 H220 H 0.55357 0.55914 0.40297
 H221 H 0.68200 0.69436 0.35170
 H222 H 0.69167 0.68856 0.31620
 H223 H 0.46805 0.47877 0.26450
 H224 H 0.50094 0.52469 0.34777
 H225 H 0.56182 0.56594 0.26475
 C226 C -0.04552 0.16013 0.54762
 C227 C -0.04886 0.19014 0.55767
 C228 C -0.05062 0.22644 0.57004
 C229 C -0.06830 0.20941 0.58811
 C230 C -0.06631 0.24555 0.60057
 C231 C -0.04659 0.29890 0.59503
 C232 C -0.02965 0.31581 0.57688
 C233 C -0.03162 0.27964 0.56441
 C234 C -0.04209 0.33643 0.60816
 C235 C -0.03799 0.36730 0.61947
 H236 H -0.08269 0.16847 0.59265
 H237 H -0.07934 0.23211 0.61459
 H238 H -0.01418 0.35702 0.57247
 H239 H -0.01748 0.29332 0.55051
 C240 C 0.87134 0.82895 0.21562
 C241 C 0.83720 0.79589 0.22560
 C242 C 0.79661 0.75811 0.23794
 C243 C 0.81021 0.75031 0.25593
 C244 C 0.77056 0.71615 0.26834
 C245 C 0.71711 0.68966 0.26282
 C246 C 0.70351 0.69692 0.24477
 C247 C 0.74320 0.73113 0.23235
 C248 C 0.67637 0.65620 0.27587
 C249 C 0.64293 0.62878 0.28711
 H250 H 0.85133 0.77121 0.26044
 H251 H 0.78149 0.71091 0.28228
 H252 H 0.66227 0.67670 0.24038
 H253 H 0.73221 0.73713 0.21850
 C254 C 0.17884 0.00759 -0.11936
 C255 C 0.21390 0.01020 -0.10946
 C256 C 0.25414 0.01130 -0.09725
 C257 C 0.26164 0.03323 -0.07995
 C258 C 0.29802 0.03095 -0.06754
 C259 C 0.32703 0.00671 -0.07237
 C260 C 0.32013 -0.01454 -0.08977
 C261 C 0.28371 -0.01227 -0.10219
 C262 C 0.36238 0.00216 -0.05919
 C263 C 0.39113 -0.00177 -0.04778
 H264 H 0.23874 0.05122 -0.07595
 H265 H 0.30293 0.04734 -0.05410
 H266 H 0.34226 -0.03351 -0.09361
 H267 H 0.27796 -0.02967 -0.11549
 C268 C 0.01117 0.84927 0.54741
 C269 C 0.00993 0.81418 0.55724
 C270 C 0.00711 0.77253 0.56944
 C271 C 0.03384 0.78527 0.58635
 C272 C 0.02855 0.74482 0.59876
 C273 C -0.00351 0.69144 0.59433
 C274 C -0.02975 0.67864 0.57732
 C275 C -0.02447 0.71914 0.56491
 C276 C -0.01048 0.65008 0.60749
 C277 C -0.01602 0.61634 0.61889
 H278 H 0.05809 0.82639 0.59005
 H279 H 0.04889 0.75514 0.61189
 H280 H -0.05474 0.63747 0.57378
 H281 H -0.04558 0.70884 0.55191
 C282 C 0.18256 0.19648 0.21417
 C283 C 0.21351 0.23036 0.22417
 C284 C 0.25079 0.26916 0.23650
 C285 C 0.23396 0.27354 0.25386
 C286 C 0.27080 0.30856 0.26637
 C287 C 0.32463 0.33932 0.26158
 C288 C 0.34138 0.33552 0.24413
 C289 C 0.30451 0.30046 0.23161
 C290 C 0.36266 0.37336 0.27484
 C291 C 0.39377 0.40103 0.28628
 H292 H 0.19260 0.24928 0.25782
 H293 H 0.25747 0.31108 0.27985
 H294 H 0.38294 0.35903 0.24032
 H295 H 0.31801 0.29712 0.21827
 C296 C 0.81302 -0.04871 -0.11836
 C297 C 0.78078 -0.04803 -0.10842
 C298 C 0.74402 -0.04571 -0.09614
 C299 C 0.73811 -0.06720 -0.07817
 C300 C 0.70496 -0.06219 -0.06582
 C301 C 0.67759 -0.03563 -0.07135
 C302 C 0.68296 -0.01467 -0.08938
 C303 C 0.71617 -0.01967 -0.10175
 C304 C 0.64521 -0.02884 -0.05834
 C305 C 0.61878 -0.02324 -0.04711
 H306 H 0.75970 -0.08712 -0.07365
 H307 H 0.70119 -0.07843 -0.05189
 H308 H 0.66205 0.00604 -0.09379
 H309 H 0.72070 -0.00262 -0.11557
 C310 C 0.18152 -0.01839 0.11923
 C311 C 0.21235 -0.02122 0.10921
 C312 C 0.24952 -0.02254 0.09686
 C313 C 0.23301 -0.04178 0.07920
 C314 C 0.26985 -0.03965 0.06671
 C315 C 0.32337 -0.01822 0.07180
 C316 C 0.33979 0.00034 0.08954
 C317 C 0.30292 -0.00178 0.10204
 C318 C 0.36147 -0.01384 0.05858
 C319 C 0.39268 -0.01003 0.04717
 H320 H 0.19191 -0.05757 0.07501
 H321 H 0.25678 -0.05396 0.05300
 H322 H 0.38111 0.01712 0.09359
 H323 H 0.31618 0.01354 0.11562
 C324 C 0.81347 0.86399 0.45184
 C325 C 0.78105 0.83076 0.44196
 C326 C 0.74408 0.79126 0.42975
 C327 C 0.73524 0.80672 0.41213
 C328 C 0.70205 0.76828 0.39979
 C329 C 0.67756 0.71418 0.40500
 C330 C 0.68581 0.69868 0.42270
 C331 C 0.71905 0.73717 0.43505
 C332 C 0.64530 0.67480 0.39196
 C333 C 0.61898 0.64256 0.38071
 H334 H 0.75465 0.84840 0.40785
 H335 H 0.69606 0.78068 0.38612
 H336 H 0.66716 0.65695 0.42684
 H337 H 0.72587 0.72476 0.44860
 C338 C 0.01034 0.16362 0.78567
 C339 C 0.00865 0.19726 0.77587
 C340 C 0.00520 0.23579 0.76369
 C341 C -0.02637 0.25744 0.76833
 C342 C -0.03238 0.29227 0.75592
 C343 C -0.00688 0.30547 0.73884
 C344 C 0.02522 0.28434 0.73431
 C345 C 0.03123 0.24958 0.74670
 C346 C -0.01468 0.33935 0.72568
 C347 C -0.02093 0.36713 0.71428
 H348 H -0.04693 0.24680 0.78138
 H349 H -0.05738 0.30829 0.75954
 H350 H 0.04500 0.29419 0.72112
 H351 H 0.05547 0.23283 0.74293
 C352 C 0.87024 0.03767 0.11823
 C353 C 0.83596 0.03674 0.10830
 C354 C 0.79521 0.03418 0.09602
 C355 C 0.74152 0.00438 0.10110
 C356 C 0.70182 -0.00074 0.08867
 C357 C 0.71569 0.02387 0.07112
 C358 C 0.76939 0.05416 0.06614
 C359 C 0.80905 0.05929 0.07855
 C360 C 0.67505 0.01699 0.05802
 C361 C 0.64171 0.01134 0.04672
 H362 H 0.73036 -0.01547 0.11453
 H363 H 0.66040 -0.02436 0.09265
 H364 H 0.78054 0.07323 0.05258
 H365 H 0.85041 0.08215 0.07443
 C366 C 0.17810 0.17262 0.45248
 C367 C 0.21317 0.20499 0.44263
 C368 C 0.25347 0.24400 0.43048
 C369 C 0.26112 0.22932 0.41327
 C370 C 0.29763 0.26781 0.40091
 C371 C 0.32663 0.32117 0.40571
 C372 C 0.31957 0.33578 0.42302
 C373 C 0.28301 0.29726 0.43539
 C374 C 0.36217 0.36088 0.39258
 C375 C 0.39109 0.39337 0.38121
 H376 H 0.23825 0.18833 0.40928
 H377 H 0.30268 0.25613 0.38753
 H378 H 0.34169 0.37696 0.42685
 H379 H 0.27714 0.30910 0.44862
 C380 C -0.04639 0.79601 0.78533
 C381 C -0.05008 0.76252 0.77527
 C382 C -0.05235 0.72421 0.76291
 C383 C -0.03264 0.69050 0.76842
 C384 C -0.03133 0.65596 0.75595
 C385 C -0.04967 0.65507 0.73792
 C386 C -0.07005 0.68823 0.73250
 C387 C -0.07137 0.72274 0.74496
 C388 C -0.04601 0.62159 0.72478
 C389 C -0.04263 0.59440 0.71348
 H390 H -0.01748 0.69159 0.78223
 H391 H -0.01535 0.63059 0.76026
 H392 H -0.08416 0.68798 0.71857
 H393 H -0.08634 0.74888 0.74051
   
