data_POSCAR
  _audit_creation_date              2014-09-24
  _audit_creation_method            'ToBaCCo'
  _symmetry_space_group_name_H-M    'P1'
  _symmetry_Int_Tables_number       1
  _symmetry_cell_setting            triclinic
  loop_
  _symmetry_equiv_pos_as_xyz
 x,y,z
_cell_length_a 62.7620
_cell_length_b 36.9601
_cell_length_c 21.1000
_cell_angle_alpha 90.485300
_cell_angle_beta 89.920300
_cell_angle_gamma 90.165200
loop_
  _atom_site_label
  _atom_site_type_symbol
  _atom_site_fract_x
  _atom_site_fract_y
  _atom_site_fract_z
C1 C 0.74811 0.25022 0.46958
 C2 C 0.75140 0.25578 0.53285
 C3 C 0.73529 0.27460 0.57287
 C4 C 0.77091 0.24263 0.56513
 C5 C 0.76281 0.22798 0.43035
 C6 C 0.72970 0.26654 0.43637
 C7 C 0.74106 0.30475 0.60959
 C8 C 0.72573 0.32380 0.64453
 C9 C 0.70394 0.31334 0.64354
 C10 C 0.69874 0.28161 0.60833
 C11 C 0.71415 0.26260 0.57409
 C12 C 0.79131 0.25099 0.54191
 C13 C 0.80944 0.23684 0.57086
 C14 C 0.80755 0.21456 0.62431
 C15 C 0.78713 0.20748 0.64888
 C16 C 0.76901 0.22136 0.61957
 C17 C 0.76724 0.19189 0.44591
 C18 C 0.78197 0.17193 0.41028
 C19 C 0.79250 0.18779 0.35862
 C20 C 0.78747 0.22349 0.34195
 C21 C 0.77266 0.24331 0.37725
 C22 C 0.71515 0.24425 0.40404
 C23 C 0.69729 0.25917 0.37484
 C24 C 0.69384 0.29672 0.37674
 C25 C 0.70873 0.31908 0.40789
 C26 C 0.72652 0.30412 0.43738
 H27 H 0.75739 0.31431 0.60954
 H28 H 0.73114 0.34807 0.66849
 H29 H 0.68294 0.26992 0.60876
 H30 H 0.70952 0.23842 0.54812
 H31 H 0.79317 0.26807 0.50081
 H32 H 0.82491 0.24272 0.55057
 H33 H 0.75345 0.21495 0.63874
 H34 H 0.75954 0.17945 0.48623
 H35 H 0.78563 0.14451 0.42424
 H36 H 0.79516 0.23617 0.30185
 H37 H 0.76931 0.27099 0.36420
 H38 H 0.71743 0.21521 0.40247
 H39 H 0.68623 0.24138 0.35038
 H40 H 0.70641 0.34808 0.41035
 H41 H 0.73774 0.32177 0.46151
 H42 H 0.78512 0.19117 0.69085
 C43 C 0.24753 0.74791 0.46930
 C44 C 0.24787 0.74758 0.53378
 C45 C 0.22931 0.75988 0.57145
 C46 C 0.26682 0.73506 0.56914
 C47 C 0.26532 0.73255 0.43168
 C48 C 0.22940 0.76370 0.43409
 C49 C 0.23122 0.79014 0.61144
 C50 C 0.21334 0.80396 0.64266
 C51 C 0.19327 0.78738 0.63512
 C52 C 0.19165 0.75614 0.59683
 C53 C 0.20951 0.74255 0.56521
 C54 C 0.28655 0.75246 0.56203
 C55 C 0.30463 0.73919 0.59250
 C56 C 0.30331 0.70818 0.63061
 C57 C 0.28334 0.69137 0.63869
 C58 C 0.26525 0.70487 0.60859
 C59 C 0.27091 0.69603 0.43783
 C60 C 0.28871 0.68231 0.40612
 C61 C 0.30121 0.70487 0.36766
 C62 C 0.29527 0.74124 0.36041
 C63 C 0.27736 0.75490 0.39186
 C64 C 0.21720 0.74193 0.39315
 C65 C 0.19927 0.75610 0.36302
 C66 C 0.19344 0.79244 0.37267
 C67 C 0.20603 0.81438 0.41256
 C68 C 0.22385 0.80015 0.44294
 H69 H 0.24641 0.80386 0.61655
 H70 H 0.21512 0.82833 0.67100
 H71 H 0.17654 0.74231 0.59100
 H72 H 0.20786 0.71886 0.53503
 H73 H 0.28797 0.77612 0.53235
 H74 H 0.31964 0.75322 0.58624
 H75 H 0.25012 0.69109 0.61444
 H76 H 0.26169 0.67837 0.46812
 H77 H 0.29301 0.65425 0.41288
 H78 H 0.30449 0.75907 0.33044
 H79 H 0.27322 0.78314 0.38658
 H80 H 0.22130 0.71377 0.38571
 H81 H 0.19001 0.73873 0.33191
 H82 H 0.20184 0.84239 0.42120
 H83 H 0.23320 0.81741 0.47402
 H84 H 0.28177 0.66717 0.66687
 C85 C 0.25180 0.24924 -0.53236
 C86 C 0.24835 0.25505 -0.46930
 C87 C 0.22913 0.24025 -0.43745
 C88 C 0.26357 0.27575 -0.42900
 C89 C 0.27166 0.26093 -0.56465
 C90 C 0.23525 0.23211 -0.57278
 C91 C 0.21442 0.26365 -0.40887
 C92 C 0.19618 0.24994 -0.37934
 C93 C 0.19241 0.21225 -0.37633
 C94 C 0.20758 0.18901 -0.40496
 C95 C 0.22561 0.20287 -0.43521
 C96 C 0.27135 0.30974 -0.44768
 C97 C 0.28667 0.32774 -0.41121
 C98 C 0.29386 0.31269 -0.35433
 C99 C 0.28528 0.27972 -0.33385
 C100 C 0.27032 0.26131 -0.37104
 C101 C 0.29171 0.24914 -0.54444
 C102 C 0.31027 0.26134 -0.57443
 C103 C 0.30930 0.28571 -0.62582
 C104 C 0.28883 0.29690 -0.64582
 C105 C 0.27040 0.28445 -0.61604
 C106 C 0.23968 0.20008 -0.60596
 C107 C 0.22391 0.18320 -0.64247
 C108 C 0.20323 0.19814 -0.64708
 C109 C 0.19934 0.23125 -0.61492
 C110 C 0.21513 0.24790 -0.57841
 H111 H 0.21702 0.29262 -0.40975
 H112 H 0.18563 0.26914 -0.35657
 H113 H 0.20527 0.16001 -0.40652
 H114 H 0.23685 0.18440 -0.45707
 H115 H 0.26581 0.32209 -0.49095
 H116 H 0.29294 0.35341 -0.42732
 H117 H 0.26437 0.23535 -0.35531
 H118 H 0.29298 0.23040 -0.50545
 H119 H 0.32523 0.25048 -0.55807
 H120 H 0.28671 0.31673 -0.68257
 H121 H 0.25505 0.29413 -0.63197
 H122 H 0.25522 0.18760 -0.60215
 H123 H 0.22787 0.15751 -0.66423
 H124 H 0.18436 0.24535 -0.61917
 H125 H 0.21166 0.27328 -0.55455
 H126 H 0.29068 0.26767 -0.29012
 C127 C -0.24556 0.73743 -0.46519
 C128 C -0.24412 0.73406 -0.52961
 C129 C -0.22533 0.74782 -0.56525
 C130 C -0.26154 0.71683 -0.56734
 C131 C -0.26257 0.71848 -0.42937
 C132 C -0.23031 0.75973 -0.42720
 C133 C -0.22828 0.77024 -0.61762
 C134 C -0.21079 0.78509 -0.64922
 C135 C -0.18969 0.77804 -0.62931
 C136 C -0.18700 0.75413 -0.57787
 C137 C -0.20454 0.73907 -0.54682
 C138 C -0.28273 0.72789 -0.55970
 C139 C -0.29912 0.71088 -0.59334
 C140 C -0.29485 0.68269 -0.63741
 C141 C -0.27325 0.67274 -0.64618
 C142 C -0.25692 0.68954 -0.61164
 C143 C -0.26464 0.68078 -0.43299
 C144 C -0.28090 0.66314 -0.40007
 C145 C -0.29568 0.68284 -0.36283
 C146 C -0.29312 0.72083 -0.35893
 C147 C -0.27669 0.73828 -0.39131
 C148 C -0.22156 0.74570 -0.37131
 C149 C -0.20714 0.76611 -0.33539
 C150 C -0.20102 0.80080 -0.35500
 C151 C -0.21000 0.81518 -0.41019
 C152 C -0.22481 0.79509 -0.44536
 H153 H -0.24420 0.77677 -0.63353
 H154 H -0.21413 0.80137 -0.69031
 H155 H -0.17145 0.74812 -0.55877
 H156 H -0.20188 0.72124 -0.50715
 H157 H -0.28667 0.74950 -0.52677
 H158 H -0.31515 0.71928 -0.58203
 H159 H -0.24061 0.68103 -0.61928
 H160 H -0.25375 0.66504 -0.46191
 H161 H -0.28230 0.63418 -0.40661
 H162 H -0.30329 0.73731 -0.32908
 H163 H -0.27511 0.76741 -0.38729
 H164 H -0.22567 0.71868 -0.35592
 H165 H -0.20034 0.75448 -0.29305
 H166 H -0.20567 0.84208 -0.42570
 H167 H -0.23185 0.80706 -0.48699
 H168 H -0.26855 0.65273 -0.68105
 O169 O -0.03112 0.94026 0.11633
 O170 O -0.05418 0.97220 0.05397
 C171 C -0.05021 0.94913 0.09834
 O172 O 0.02768 1.07117 0.11335
 O173 O 0.05189 1.03698 0.05806
 C174 C 0.04706 1.06223 0.09860
 O175 O -0.03171 1.06692 0.11489
 O176 O -0.05449 1.03280 0.05405
 C177 C -0.05066 1.05708 0.09741
 O178 O 0.02917 0.93912 0.11538
 O179 O 0.05235 0.97495 0.05974
 C180 C 0.04831 0.94990 0.10058
 Zr181 Zr -0.00095 0.95804 0.08289
 O182 O 0.00046 0.95869 0.18312
 O183 O -0.00272 0.90083 0.08238
 Zr184 Zr -0.00171 1.04964 0.08169
 O185 O -0.00025 1.05016 0.18194
 O186 O -0.00446 1.10672 0.08088
 O187 O -0.02043 1.00340 0.09349
 O188 O 0.01699 1.00457 0.09530
 O189 O 0.03089 0.93741 -0.10452
 O190 O 0.05336 0.97292 -0.04492
 C191 C 0.04979 0.94732 -0.08590
 O192 O -0.03037 1.06413 -0.11615
 O193 O -0.05382 1.03064 -0.05692
 C194 C -0.04953 1.05373 -0.10107
 O195 O 0.02967 1.06913 -0.10794
 O196 O 0.05252 1.03515 -0.04855
 C197 C 0.04870 1.05955 -0.09067
 O198 O -0.02905 0.94051 -0.11719
 O199 O -0.05336 0.97124 -0.05591
 C200 C -0.04845 0.94897 -0.10145
 Zr201 Zr 0.00044 0.95690 -0.07708
 O202 O 0.00393 0.95415 -0.17675
 O203 O -0.00187 0.89976 -0.07421
 Zr204 Zr -0.00041 1.04854 -0.07835
 O205 O 0.00263 1.04822 -0.17829
 O206 O -0.00324 1.10562 -0.07749
 Zr207 Zr -0.03234 1.00228 0.00014
 Zr208 Zr 0.03092 1.00432 0.00456
 O209 O 0.01853 1.00311 -0.08807
 O210 O -0.01878 1.00203 -0.09146
 O211 O 0.01881 0.95103 0.00433
 O212 O -0.01966 1.05505 0.00031
 O213 O -0.01877 0.95029 0.00151
 O214 O 0.01791 1.05680 0.00292
 H215 H 0.02630 1.00529 0.13319
 H216 H -0.02951 1.07595 -0.00077
 H217 H 0.02841 1.00281 -0.12472
 H218 H -0.02837 0.92896 0.00060
 H219 H 0.00734 1.11624 0.05472
 H220 H 0.00910 1.11555 -0.05389
 H221 H -0.00903 1.03306 -0.19561
 H222 H -0.00604 0.97191 -0.19494
 H223 H 0.01063 0.89077 -0.05066
 H224 H 0.00975 0.89170 0.05849
 H225 H -0.01160 0.97347 0.19863
 H226 H -0.01228 1.03539 0.19768
 O227 O 0.53016 0.44570 -0.12680
 O228 O 0.55335 0.47667 -0.06233
 C229 C 0.54924 0.45521 -0.10985
 O230 O 0.46759 0.56810 -0.10549
 O231 O 0.44525 0.53053 -0.05030
 C232 C 0.44872 0.55701 -0.08889
 O233 O 0.52743 0.56967 -0.11298
 O234 O 0.55175 0.53691 -0.05644
 C235 C 0.54682 0.56089 -0.09836
 O236 O 0.47116 0.43743 -0.12099
 O237 O 0.44705 0.46790 -0.05896
 C238 C 0.45183 0.44504 -0.10369
 Zr239 Zr 0.50036 0.45792 -0.08605
 O240 O 0.49983 0.45481 -0.18615
 O241 O 0.50246 0.40100 -0.08031
 Zr242 Zr 0.49815 0.54935 -0.07784
 O243 O 0.49583 0.55208 -0.17778
 O244 O 0.49914 0.60653 -0.07121
 O245 O 0.51812 0.50536 -0.09483
 O246 O 0.48081 0.50265 -0.09366
 O247 O 0.47113 0.43056 0.10195
 O248 O 0.44705 0.46485 0.04718
 C249 C 0.45176 0.43908 0.08601
 O250 O 0.52790 0.56404 0.11841
 O251 O 0.55205 0.53435 0.05518
 C252 C 0.54726 0.55644 0.10109
 O253 O 0.46790 0.56251 0.11370
 O254 O 0.44557 0.52679 0.05408
 C255 C 0.44902 0.55139 0.09689
 O256 O 0.53099 0.43814 0.10781
 O257 O 0.55341 0.47391 0.04948
 C258 C 0.54988 0.44950 0.09197
 Zr259 Zr 0.50066 0.45371 0.07306
 O260 O 0.49853 0.45027 0.17294
 O261 O 0.50413 0.39687 0.06558
 Zr262 Zr 0.49845 0.54507 0.08179
 O263 O 0.49627 0.54178 0.18173
 O264 O 0.49938 0.60227 0.08748
 Zr265 Zr 0.53130 0.50389 -0.00295
 Zr266 Zr 0.46780 0.49920 -0.00213
 O267 O 0.48112 0.49771 0.08928
 O268 O 0.51859 0.50053 0.08952
 O269 O 0.48158 0.44738 -0.00712
 O270 O 0.51675 0.55510 0.00228
 O271 O 0.51942 0.45064 -0.00759
 O272 O 0.47914 0.55289 0.00291
 H273 H 0.47113 0.50326 -0.13067
 H274 H 0.52586 0.57702 0.00399
 H275 H 0.47156 0.49600 0.12653
 H276 H 0.52971 0.43038 -0.00999
 H277 H 0.48669 0.61437 -0.04588
 H278 H 0.48730 0.61153 0.06235
 H279 H 0.50896 0.52858 0.19678
 H280 H 0.50934 0.46692 0.19095
 H281 H 0.49275 0.38784 0.03708
 H282 H 0.50318 0.39200 -0.12461
 H283 H 0.49602 0.47910 -0.20154
 H284 H 0.50773 0.53775 -0.19575
 C285 C 0.36611 0.31441 0.34699
 C286 C 0.36541 0.32881 0.28515
 C287 C 0.34560 0.32780 0.25320
 C288 C 0.32753 0.31253 0.28181
 C289 C 0.32812 0.29898 0.34408
 C290 C 0.34791 0.29994 0.37568
 C291 C 0.34375 0.34229 0.19269
 C292 C 0.36088 0.35940 0.16412
 C293 C 0.38084 0.36212 0.19457
 C294 C 0.38348 0.34489 0.25451
 C295 C 0.40409 0.34408 0.28132
 C296 C 0.42134 0.36062 0.25174
 C297 C 0.41869 0.37959 0.19542
 C298 C 0.39831 0.38112 0.16659
 C299 C 0.39610 0.40260 0.11186
 C300 C 0.41344 0.42108 0.08644
 C301 C 0.43371 0.41859 0.11371
 C302 C 0.43624 0.39758 0.16825
 H303 H 0.38032 0.31510 0.37557
 H304 H 0.31310 0.31070 0.25397
 H305 H 0.34944 0.29127 0.42424
 H306 H 0.32872 0.34103 0.16746
 H307 H 0.35807 0.36960 0.11720
 H308 H 0.40752 0.33016 0.32475
 H309 H 0.43687 0.35913 0.27396
 H310 H 0.38104 0.40677 0.08865
 H311 H 0.41083 0.43766 0.04519
 H312 H 0.45175 0.39602 0.19063
 C313 C -0.13376 0.79633 0.31566
 C314 C -0.13579 0.82956 0.28357
 C315 C -0.15645 0.84459 0.27907
 C316 C -0.17401 0.82764 0.30776
 C317 C -0.17185 0.79480 0.34077
 C318 C -0.15134 0.77946 0.34347
 C319 C -0.15957 0.87673 0.24627
 C320 C -0.14270 0.89406 0.21658
 C321 C -0.12178 0.88026 0.21949
 C322 C -0.11814 0.84814 0.25534
 C323 C -0.09696 0.83610 0.26277
 C324 C -0.07998 0.85420 0.23501
 C325 C -0.08335 0.88460 0.19774
 C326 C -0.10430 0.89786 0.18865
 C327 C -0.10686 0.92792 0.14821
 C328 C -0.08935 0.94428 0.11926
 C329 C -0.06865 0.93161 0.12970
 C330 C -0.06580 0.90168 0.16916
 H331 H -0.11887 0.78207 0.31895
 H332 H -0.18919 0.84135 0.30606
 H333 H -0.14865 0.75344 0.36498
 H334 H -0.17532 0.88855 0.24303
 H335 H -0.14659 0.91884 0.19281
 H336 H -0.09285 0.81306 0.29108
 H337 H -0.06400 0.84403 0.24242
 H338 H -0.12219 0.93908 0.13673
 H339 H -0.09214 0.96702 0.08836
 H340 H -0.04991 0.89121 0.17695
 C341 C 0.67451 0.61221 0.27057
 C342 C 0.65442 0.62869 0.26238
 C343 C 0.65152 0.66358 0.28909
 C344 C 0.66829 0.68141 0.32057
 C345 C 0.68835 0.66491 0.32876
 C346 C 0.69098 0.62985 0.30302
 C347 C 0.63183 0.68075 0.28439
 C348 C 0.61470 0.66370 0.25518
 C349 C 0.61667 0.62884 0.22799
 C350 C 0.63707 0.61163 0.22943
 C351 C 0.63953 0.57832 0.19693
 C352 C 0.62261 0.56207 0.16510
 C353 C 0.60243 0.57776 0.16558
 C354 C 0.59902 0.61098 0.19813
 C355 C 0.57797 0.62466 0.20006
 C356 C 0.56130 0.60670 0.16928
 C357 C 0.56495 0.57467 0.13513
 C358 C 0.58560 0.56030 0.13368
 H359 H 0.67788 0.58514 0.25419
 H360 H 0.66556 0.70884 0.33679
 H361 H 0.70549 0.61471 0.30993
 H362 H 0.62954 0.70762 0.30423
 H363 H 0.60018 0.67910 0.25330
 H364 H 0.65455 0.56443 0.19373
 H365 H 0.62533 0.53669 0.14025
 H366 H 0.57371 0.64883 0.22592
 H367 H 0.54548 0.61827 0.17168
 H368 H 0.58855 0.53520 0.10829
 C369 C 0.17540 1.13870 0.23378
 C370 C 0.15366 1.14423 0.24861
 C371 C 0.14888 1.16873 0.29853
 C372 C 0.16519 1.18613 0.33254
 C373 C 0.18683 1.18039 0.31788
 C374 C 0.19154 1.15631 0.26769
 C375 C 0.12779 1.17573 0.31498
 C376 C 0.11116 1.15938 0.28241
 C377 C 0.11495 1.13485 0.23202
 C378 C 0.13655 1.12648 0.21571
 C379 C 0.14029 1.10030 0.16782
 C380 C 0.12358 1.08311 0.13657
 C381 C 0.10248 1.09158 0.15090
 C382 C 0.09783 1.11791 0.19818
 C383 C 0.07615 1.12628 0.20938
 C384 C 0.05993 1.10846 0.17661
 C385 C 0.06458 1.08176 0.13122
 C386 C 0.08597 1.07368 0.11823
 H387 H 0.18057 1.12142 0.19545
 H388 H 0.16070 1.20307 0.37243
 H389 H 0.20775 1.15182 0.25214
 H390 H 0.12403 1.19427 0.35349
 H391 H 0.09545 1.16621 0.29897
 H392 H 0.15603 1.09191 0.15388
 H393 H 0.12725 1.06296 0.10055
 H394 H 0.07105 1.14669 0.24272
 H395 H 0.04359 1.11567 0.18733
 H396 H 0.08985 1.05330 0.08280
 C397 C 0.67751 0.37637 -0.24283
 C398 C 0.65583 0.37331 -0.26024
 C399 C 0.65090 0.35019 -0.31197
 C400 C 0.66688 0.33058 -0.34346
 C401 C 0.68852 0.33302 -0.32542
 C402 C 0.69340 0.35691 -0.27473
 C403 C 0.62994 0.34659 -0.33269
 C404 C 0.61357 0.36497 -0.30264
 C405 C 0.61743 0.38786 -0.24995
 C406 C 0.63891 0.39217 -0.22827
 C407 C 0.64265 0.41476 -0.17501
 C408 C 0.62602 0.43192 -0.14324
 C409 C 0.60500 0.42761 -0.16329
 C410 C 0.60043 0.40602 -0.21757
 C411 C 0.57891 0.40320 -0.23682
 C412 C 0.56270 0.41970 -0.20229
 C413 C 0.56712 0.43995 -0.14743
 C414 C 0.58844 0.44438 -0.12881
 H415 H 0.68283 0.39340 -0.20430
 H416 H 0.66216 0.31490 -0.38465
 H417 H 0.70938 0.35958 -0.25630
 H418 H 0.62607 0.32907 -0.37255
 H419 H 0.59795 0.36005 -0.32181
 H420 H 0.65832 0.41942 -0.15587
 H421 H 0.62967 0.44857 -0.10210
 H422 H 0.57386 0.38831 -0.27819
 H423 H 0.54648 0.41620 -0.21879
 H424 H 0.59214 0.46027 -0.08679
 C425 C 0.13658 0.81992 -0.34046
 C426 C 0.13738 0.83625 -0.27954
 C427 C 0.15717 0.83603 -0.24718
 C428 C 0.17508 0.81930 -0.27435
 C429 C 0.17401 0.80336 -0.33478
 C430 C 0.15459 0.80393 -0.36741
 C431 C 0.15909 0.85279 -0.18807
 C432 C 0.14197 0.87080 -0.16081
 C433 C 0.12196 0.87218 -0.19121
 C434 C 0.11940 0.85336 -0.25031
 C435 C 0.09891 0.85191 -0.27780
 C436 C 0.08166 0.86915 -0.24975
 C437 C 0.08413 0.88911 -0.19392
 C438 C 0.10433 0.89134 -0.16409
 C439 C 0.10608 0.91320 -0.10887
 C440 C 0.08843 0.93132 -0.08403
 C441 C 0.06843 0.92826 -0.11296
 C442 C 0.06642 0.90703 -0.16794
 H443 H 0.12248 0.81993 -0.36948
 H444 H 0.18995 0.81881 -0.24829
 H445 H 0.15338 0.79273 -0.41487
 H446 H 0.17413 0.85243 -0.16285
 H447 H 0.14487 0.88283 -0.11496
 H448 H 0.09551 0.83696 -0.32063
 H449 H 0.06622 0.86714 -0.27251
 H450 H 0.12090 0.91749 -0.08427
 H451 H 0.09050 0.94767 -0.04160
 H452 H 0.05107 0.90484 -0.19125
 C453 C 0.36043 0.67788 -0.34480
 C454 C 0.35980 0.66227 -0.28374
 C455 C 0.33996 0.66199 -0.25154
 C456 C 0.32182 0.67760 -0.27894
 C457 C 0.32274 0.69295 -0.33943
 C458 C 0.34222 0.69280 -0.37195
 C459 C 0.33820 0.64590 -0.19226
 C460 C 0.35557 0.62911 -0.16463
 C461 C 0.37567 0.62830 -0.19481
 C462 C 0.37802 0.64639 -0.25417
 C463 C 0.39853 0.64838 -0.28154
 C464 C 0.41602 0.63235 -0.25312
 C465 C 0.41379 0.61309 -0.19700
 C466 C 0.39357 0.61038 -0.16726
 C467 C 0.39209 0.58926 -0.11171
 C468 C 0.40995 0.57213 -0.08670
 C469 C 0.42994 0.57552 -0.11568
 C470 C 0.43174 0.59623 -0.17074
 H471 H 0.37458 0.67818 -0.37370
 H472 H 0.30693 0.67779 -0.25288
 H473 H 0.34335 0.70356 -0.41942
 H474 H 0.32312 0.64588 -0.16716
 H475 H 0.35278 0.61755 -0.11868
 H476 H 0.40175 0.66284 -0.32461
 H477 H 0.43146 0.63473 -0.27585
 H478 H 0.37731 0.58472 -0.08703
 H479 H 0.40807 0.55621 -0.04415
 H480 H 0.44708 0.59867 -0.19406
 C481 C -0.13625 1.20262 -0.31275
 C482 C -0.13666 1.16680 -0.28932
 C483 C -0.15607 1.14727 -0.29448
 C484 C -0.17395 1.16282 -0.32320
 C485 C -0.17327 1.19827 -0.34617
 C486 C -0.15425 1.21795 -0.34056
 C487 C -0.15764 1.11230 -0.27083
 C488 C -0.14053 1.09637 -0.24044
 C489 C -0.12090 1.11468 -0.23326
 C490 C -0.11867 1.14993 -0.26021
 C491 C -0.09849 1.16690 -0.25775
 C492 C -0.08125 1.15058 -0.22844
 C493 C -0.08344 1.11708 -0.19926
 C494 C -0.10333 1.09875 -0.20060
 C495 C -0.10488 1.06549 -0.16805
 C496 C -0.08742 1.05112 -0.13629
 C497 C -0.06775 1.06910 -0.13601
 C498 C -0.06584 1.10199 -0.16805
 H499 H -0.12244 1.21988 -0.30917
 H500 H -0.18847 1.14706 -0.32801
 H501 H -0.15334 1.24564 -0.35674
 H502 H -0.17238 1.09712 -0.27523
 H503 H -0.14316 1.06921 -0.22408
 H504 H -0.09533 1.19271 -0.27913
 H505 H -0.06606 1.16464 -0.22792
 H506 H -0.11946 1.05018 -0.16483
 H507 H -0.08937 1.02564 -0.11188
 H508 H -0.05074 1.11635 -0.16746
 C509 C 0.67272 0.61170 -0.27862
 C510 C 0.65335 0.62968 -0.26520
 C511 C 0.65119 0.66566 -0.28675
 C512 C 0.66805 0.68305 -0.31807
 C513 C 0.68740 0.66513 -0.33062
 C514 C 0.68927 0.62900 -0.31078
 C515 C 0.63212 0.68422 -0.27745
 C516 C 0.61494 0.66777 -0.24784
 C517 C 0.61625 0.63203 -0.22511
 C518 C 0.63601 0.61310 -0.23198
 C519 C 0.63788 0.57854 -0.20451
 C520 C 0.62099 0.56271 -0.17242
 C521 C 0.60141 0.58021 -0.16747
 C522 C 0.59857 0.61482 -0.19466
 C523 C 0.57802 0.63049 -0.19086
 C524 C 0.56131 0.61290 -0.16002
 C525 C 0.56448 0.57931 -0.13150
 C526 C 0.58459 0.56309 -0.13556
 H527 H 0.67560 0.58404 -0.26563
 H528 H 0.66549 0.71022 -0.33529
 H529 H 0.70389 0.61403 -0.31758
 H530 H 0.63038 0.71183 -0.29362
 H531 H 0.60095 0.68426 -0.24214
 H532 H 0.65244 0.56320 -0.20559
 H533 H 0.62325 0.53626 -0.15163
 H534 H 0.57416 0.65601 -0.21220
 H535 H 0.54586 0.62585 -0.15805
 H536 H 0.58709 0.53670 -0.11474
 C537 C 0.13705 1.20402 -0.31048
 C538 C 0.13728 1.16933 -0.28271
 C539 C 0.15659 1.14965 -0.28560
 C540 C 0.17449 1.16369 -0.31705
 C541 C 0.17411 1.19812 -0.34515
 C542 C 0.15508 1.21809 -0.34059
 C543 C 0.15811 1.11601 -0.25667
 C544 C 0.14098 1.10153 -0.22390
 C545 C 0.12133 1.11990 -0.21961
 C546 C 0.11918 1.15371 -0.25151
 C547 C 0.09894 1.17036 -0.25210
 C548 C 0.08150 1.15484 -0.22190
 C549 C 0.08356 1.12267 -0.18844
 C550 C 0.10362 1.10514 -0.18563
 C551 C 0.10516 1.07368 -0.14823
 C552 C 0.08741 1.05960 -0.11722
 C553 C 0.06742 1.07615 -0.12214
 C554 C 0.06564 1.10788 -0.15768
 H555 H 0.12327 1.22130 -0.30913
 H556 H 0.18908 1.14813 -0.31656
 H557 H 0.15360 1.24433 -0.36247
 H558 H 0.17281 1.10071 -0.25900
 H559 H 0.14354 1.07522 -0.20381
 H560 H 0.09587 1.19509 -0.27707
 H561 H 0.06623 1.16839 -0.22439
 H562 H 0.11991 1.05951 -0.14094
 H563 H 0.08941 1.03521 -0.08975
 H564 H 0.05034 1.12127 -0.16105
 C565 C 0.32483 0.35453 -0.21870
 C566 C 0.34462 0.36291 -0.24756
 C567 C 0.34727 0.35372 -0.31252
 C568 C 0.33042 0.33840 -0.34723
 C569 C 0.31101 0.33052 -0.31785
 C570 C 0.30839 0.33833 -0.25339
 C571 C 0.36677 0.35944 -0.34246
 C572 C 0.38402 0.37326 -0.30905
 C573 C 0.38225 0.38294 -0.24439
 C574 C 0.36196 0.37936 -0.21402
 C575 C 0.35959 0.39304 -0.15172
 C576 C 0.37654 0.40899 -0.11967
 C577 C 0.39667 0.41087 -0.14746
 C578 C 0.39998 0.39702 -0.20954
 C579 C 0.42102 0.39742 -0.23382
 C580 C 0.43777 0.41230 -0.19884
 C581 C 0.43417 0.42754 -0.13881
 C582 C 0.41356 0.42661 -0.11336
 H583 H 0.32174 0.35917 -0.16906
 H584 H 0.33259 0.33158 -0.39693
 H585 H 0.29351 0.33195 -0.22984
 H586 H 0.36882 0.35268 -0.39220
 H587 H 0.39843 0.37712 -0.33595
 H588 H 0.34456 0.39290 -0.12701
 H589 H 0.37390 0.41961 -0.07225
 H590 H 0.42517 0.38579 -0.27915
 H591 H 0.45358 0.41236 -0.21951
 H592 H 0.41063 0.43798 -0.06672
 C593 C -0.17164 0.84541 -0.21863
 C594 C -0.15298 0.85879 -0.24831
 C595 C -0.15059 0.85240 -0.31436
 C596 C -0.16664 0.83463 -0.34904
 C597 C -0.18488 0.82149 -0.31871
 C598 C -0.18720 0.82682 -0.25337
 C599 C -0.13205 0.86324 -0.34538
 C600 C -0.11540 0.87917 -0.31203
 C601 C -0.11687 0.88585 -0.24618
 C602 C -0.13640 0.87734 -0.21453
 C603 C -0.13879 0.88810 -0.15053
 C604 C -0.12241 0.90539 -0.11787
 C605 C -0.10278 0.91161 -0.14686
 C606 C -0.09956 0.90133 -0.21110
 C607 C -0.07895 0.90617 -0.23707
 C608 C -0.06249 0.92126 -0.20113
 C609 C -0.06598 0.93248 -0.13847
 C610 C -0.08622 0.92774 -0.11167
 H611 H -0.17438 0.84780 -0.16836
 H612 H -0.16464 0.82989 -0.39950
 H613 H -0.20114 0.81654 -0.22906
 H614 H -0.13023 0.85875 -0.39594
 H615 H -0.10170 0.88685 -0.33970
 H616 H -0.15344 0.88438 -0.12468
 H617 H -0.12504 0.91339 -0.06893
 H618 H -0.07483 0.89764 -0.28447
 H619 H -0.04695 0.92448 -0.22283
 H620 H -0.08897 0.93583 -0.06280
 C621 C 0.35806 0.69594 0.30884
 C622 C 0.35794 0.66149 0.27881
 C623 C 0.33832 0.64233 0.27688
 C624 C 0.31999 0.65669 0.30558
 C625 C 0.32053 0.69047 0.33596
 C626 C 0.33964 0.71007 0.33679
 C627 C 0.33702 0.60882 0.24652
 C628 C 0.35470 0.59379 0.21718
 C629 C 0.37465 0.61158 0.21759
 C630 C 0.37646 0.64552 0.25038
 C631 C 0.39675 0.66202 0.25447
 C632 C 0.41460 0.64628 0.22677
 C633 C 0.41298 0.61386 0.19288
 C634 C 0.39294 0.59625 0.18704
 C635 C 0.39202 0.56415 0.15013
 C636 C 0.41020 0.54998 0.12154
 C637 C 0.43004 0.56704 0.12846
 C638 C 0.43131 0.59903 0.16439
 H639 H 0.37204 0.71286 0.31123
 H640 H 0.30514 0.64164 0.30376
 H641 H 0.34046 0.73625 0.36015
 H642 H 0.32209 0.59400 0.24524
 H643 H 0.35221 0.56764 0.19560
 H644 H 0.39952 0.68696 0.27990
 H645 H 0.42986 0.65986 0.23157
 H646 H 0.37746 0.54950 0.14129
 H647 H 0.40862 0.52530 0.09384
 H648 H 0.44652 0.61275 0.16943
 C649 C -0.17714 1.11356 0.27218
 C650 C -0.15748 1.13074 0.25814
 C651 C -0.15473 1.16700 0.27923
 C652 C -0.17116 1.18526 0.31103
 C653 C -0.19052 1.16799 0.32398
 C654 C -0.19331 1.13194 0.30481
 C655 C -0.13555 1.18501 0.26882
 C656 C -0.11869 1.16767 0.23914
 C657 C -0.12041 1.13149 0.21769
 C658 C -0.14039 1.11318 0.22495
 C659 C -0.14264 1.07824 0.19800
 C660 C -0.12587 1.06148 0.16623
 C661 C -0.10601 1.07830 0.16150
 C662 C -0.10289 1.11326 0.18825
 C663 C -0.08216 1.12831 0.18552
 C664 C -0.06551 1.10985 0.15619
 C665 C -0.06878 1.07583 0.12813
 C666 C -0.08914 1.06021 0.13069
 H667 H -0.18041 1.08578 0.25964
 H668 H -0.16872 1.21293 0.32702
 H669 H -0.20814 1.11799 0.31461
 H670 H -0.13346 1.21285 0.28427
 H671 H -0.10460 1.18387 0.23234
 H672 H -0.15740 1.06335 0.19943
 H673 H -0.12840 1.03478 0.14587
 H674 H -0.07806 1.15394 0.20692
 H675 H -0.04994 1.12254 0.15525
 H676 H -0.09176 1.03365 0.10992
 C677 C 0.63666 0.31113 0.32558
 C678 C 0.63805 0.34279 0.28833
 C679 C 0.65849 0.35863 0.28032
 C680 C 0.67648 0.34370 0.30958
 C681 C 0.67474 0.31251 0.34642
 C682 C 0.65471 0.29636 0.35391
 C683 C 0.66096 0.38924 0.24296
 C684 C 0.64366 0.40436 0.21221
 C685 C 0.62297 0.38963 0.21813
 C686 C 0.62001 0.35897 0.25830
 C687 C 0.59909 0.34579 0.26757
 C688 C 0.58173 0.36144 0.23782
 C689 C 0.58444 0.39046 0.19684
 C690 C 0.60509 0.40481 0.18580
 C691 C 0.60697 0.43350 0.14210
 C692 C 0.58912 0.44756 0.11188
 C693 C 0.56869 0.43382 0.12401
 C694 C 0.56651 0.40515 0.16662
 H695 H 0.62194 0.29677 0.33326
 H696 H 0.69200 0.35604 0.30269
 H697 H 0.65294 0.27230 0.38243
 H698 H 0.67652 0.40159 0.23703
 H699 H 0.64708 0.42812 0.18482
 H700 H 0.59547 0.32360 0.29854
 H701 H 0.56598 0.35044 0.24669
 H702 H 0.62201 0.44543 0.12922
 H703 H 0.59144 0.46940 0.07866
 H704 H 0.55085 0.39397 0.17606
 C705 C 0.13694 0.80267 0.31164
 C706 C 0.13738 0.83739 0.28361
 C707 C 0.15704 0.85645 0.28429
 C708 C 0.17511 0.84166 0.31328
 C709 C 0.17429 0.80753 0.34140
 C710 C 0.15510 0.78810 0.33986
 C711 C 0.15866 0.89026 0.25611
 C712 C 0.14128 0.90567 0.22631
 C713 C 0.12132 0.88795 0.22398
 C714 C 0.11915 0.85371 0.25462
 C715 C 0.09881 0.83725 0.25594
 C716 C 0.08127 0.85331 0.22761
 C717 C 0.08326 0.88605 0.19576
 C718 C 0.10337 0.90362 0.19273
 C719 C 0.10472 0.93605 0.15779
 C720 C 0.08687 0.95057 0.12846
 C721 C 0.06693 0.93357 0.13260
 C722 C 0.06524 0.90124 0.16653
 H723 H 0.12290 0.78586 0.31213
 H724 H 0.19000 0.85661 0.31324
 H725 H 0.15405 0.76167 0.36144
 H726 H 0.17361 0.90503 0.25687
 H727 H 0.14402 0.93202 0.20655
 H728 H 0.09577 0.81207 0.27960
 H729 H 0.06596 0.83974 0.23028
 H730 H 0.11938 0.95073 0.15110
 H731 H 0.08880 0.97553 0.10245
 H732 H 0.04996 0.88758 0.16948
   
