data_POSCAR
  _audit_creation_date              2014-09-24
  _audit_creation_method            'ToBaCCo'
  _symmetry_space_group_name_H-M    'P1'
  _symmetry_Int_Tables_number       1
  _symmetry_cell_setting            triclinic
  loop_
  _symmetry_equiv_pos_as_xyz
 x,y,z
_cell_length_a 27.8523
_cell_length_b 27.9117
_cell_length_c 66.7882
_cell_angle_alpha 85.038400
_cell_angle_beta 92.501300
_cell_angle_gamma 120.113400
loop_
  _atom_site_label
  _atom_site_type_symbol
  _atom_site_fract_x
  _atom_site_fract_y
  _atom_site_fract_z
C1 C 0.00867 0.10314 0.52571
 H2 H 0.04784 0.10400 0.52505
 C3 C 0.00350 0.13875 0.53769
 H4 H 0.03872 0.16704 0.54637
 C5 C -0.08490 0.06563 0.51496
 H6 H -0.11890 0.03748 0.50588
 C7 C -0.09187 0.10073 0.52681
 H8 H -0.13142 0.09934 0.52696
 N9 N -0.03522 0.06730 0.51477
 C10 C 0.00103 -0.06417 0.50616
 H11 H 0.00378 -0.06146 0.48996
 C12 C 0.00307 -0.10742 0.51766
 H13 H 0.00797 -0.13784 0.51032
 C14 C -0.01234 -0.03006 0.53551
 H15 H -0.02035 -0.00116 0.54239
 C16 C -0.01045 -0.07254 0.54753
 H17 H -0.01621 -0.07563 0.56363
 Zn18 Zn -0.02071 0.02359 0.49868
 N19 N -0.00705 -0.02689 0.51520
 C20 C 0.08919 0.07179 0.48266
 N21 N 0.04134 0.07377 0.48265
 C22 C 0.03633 0.11434 0.47161
 C23 C 0.08024 0.15472 0.45973
 C24 C 0.13431 0.11156 0.47094
 C25 C -0.12906 -0.06111 0.49116
 C26 C -0.17177 -0.10017 0.47968
 C27 C -0.11681 -0.05279 0.44982
 C28 C -0.07517 -0.01479 0.46185
 N29 N -0.08169 -0.01992 0.48215
 H30 H 0.09259 0.03978 0.49184
 H31 H -0.00196 0.11527 0.47212
 H32 H 0.07576 0.18679 0.45098
 H33 H 0.17234 0.10991 0.47097
 H34 H -0.13258 -0.06498 0.50736
 H35 H -0.20853 -0.13385 0.48711
 H36 H -0.11026 -0.04919 0.43374
 H37 H -0.03671 0.01714 0.45500
 C38 C -0.00350 -0.11201 0.53851
 C39 C -0.04714 0.13759 0.53826
 C40 C -0.16516 -0.09649 0.45883
 C41 C 0.12965 0.15337 0.45939
 C42 C 1.13751 0.05938 0.13971
 H43 H 1.13870 0.09867 0.13994
 C44 C 1.17518 0.05530 0.12792
 H45 H 1.20541 0.09149 0.11895
 C46 C 1.09696 -0.03569 0.15133
 H47 H 1.06677 -0.07075 0.16066
 C48 C 1.13405 -0.04159 0.13970
 H49 H 1.13214 -0.08136 0.13995
 N50 N 1.09917 0.01422 0.15097
 C51 C 0.96564 0.04922 0.15861
 H52 H 0.96509 0.04957 0.17478
 C53 C 0.92413 0.05215 0.14695
 H54 H 0.89181 0.05535 0.15412
 C55 C 1.00601 0.04060 0.12956
 H56 H 1.03661 0.03396 0.12288
 C57 C 0.96540 0.04349 0.11738
 H58 H 0.96543 0.03985 0.10136
 Zn59 Zn 1.05227 0.02671 0.16667
 N60 N 1.00510 0.04291 0.14981
 C61 C 1.09710 0.13387 0.18203
 N62 N 1.09928 0.08616 0.18237
 C63 C 1.13764 0.07936 0.19361
 C64 C 1.17536 0.12113 0.20541
 C65 C 1.13424 0.17688 0.19367
 C66 C 0.96559 -0.08251 0.17477
 C67 C 0.92411 -0.12696 0.18644
 C68 C 0.96553 -0.07691 0.21600
 C69 C 1.00611 -0.03340 0.20380
 N70 N 1.00512 -0.03668 0.18356
 H71 H 1.06690 0.13873 0.17271
 H72 H 1.13879 0.04124 0.19337
 H73 H 1.20559 0.11518 0.21437
 H74 H 1.13235 0.21475 0.19343
 H75 H 0.96497 -0.08345 0.15860
 H76 H 0.89174 -0.16252 0.17928
 H77 H 0.96562 -0.07320 0.23202
 H78 H 1.03676 0.00389 0.21047
 C79 C 0.92358 0.04837 0.12618
 C80 C 1.17345 0.00441 0.12789
 C81 C 0.92365 -0.12367 0.20721
 C82 C 1.17365 0.17029 0.20546
 C83 C 0.03582 0.92101 0.86161
 H84 H -0.00244 0.88172 0.86107
 C85 C 0.07968 0.92463 0.87353
 H86 H 0.07521 0.88808 0.88229
 C87 C 0.08863 1.01653 0.85060
 H88 H 0.09202 1.05193 0.84143
 C89 C 0.13370 1.02196 0.86237
 H90 H 0.17170 1.06172 0.86239
 N91 N 0.04081 0.96660 0.85058
 C92 C -0.12959 0.93078 0.84196
 H93 H -0.13308 0.93117 0.82576
 C94 C -0.17232 0.92707 0.85342
 H95 H -0.20907 0.92399 0.84602
 C96 C -0.07577 0.93839 0.87130
 H97 H -0.03732 0.94498 0.87817
 C98 C -0.11744 0.93469 0.88330
 H99 H -0.11104 0.93764 0.89938
 Zn100 Zn -0.02119 0.95463 0.83450
 N101 N -0.08223 0.93702 0.85100
 C102 C -0.08525 0.84834 0.81818
 N103 N -0.03559 0.89643 0.81840
 C104 C 0.00836 0.90458 0.80750
 C105 C 0.00328 0.86382 0.79553
 C106 C -0.09213 0.80629 0.80634
 C107 C 0.00048 1.06413 0.82703
 C108 C 0.00254 1.10943 0.81554
 C109 C -0.01078 1.06111 0.78565
 C110 C -0.01270 1.01673 0.79767
 N111 N -0.00752 1.01880 0.81799
 H112 H -0.11930 0.84242 0.82724
 H113 H 0.04751 0.94295 0.80819
 H114 H 0.03855 0.87082 0.78688
 H115 H -0.13166 0.76806 0.80616
 H116 H 0.00314 1.06413 0.84324
 H117 H 0.00737 1.14473 0.82288
 H118 H -0.01645 1.05847 0.76955
 H119 H -0.02064 0.97983 0.79079
 C120 C -0.16574 0.92998 0.87426
 C121 C 0.12904 0.97549 0.87392
 C122 C -0.00391 1.10750 0.79469
 C123 C -0.04734 0.81425 0.79493
 O124 O 0.54727 -0.05043 0.02223
 O125 O 0.44296 -0.06142 -0.01605
 O126 O 0.53504 -0.06463 -0.01610
 O127 O 0.45229 -0.05319 0.02253
 O128 O 0.49726 0.03819 0.01668
 O129 O 0.58088 0.02669 -0.02211
 O130 O 0.48892 0.02995 -0.02190
 O131 O 0.59224 0.04089 0.01621
 Cu132 Cu 0.48989 -0.06661 0.00374
 Cu133 Cu 0.54446 0.04311 -0.00337
 C134 C 0.58745 -0.00268 0.02563
 C135 C 0.44832 -0.01732 -0.02533
 C136 C 0.57196 -0.02114 -0.02560
 C137 C 0.46036 -0.00583 0.02606
 O138 O -0.08616 0.50717 0.64683
 O139 O -0.08623 0.40575 0.68632
 O140 O -0.08924 0.49783 0.68592
 O141 O -0.08927 0.41203 0.64723
 O142 O 0.00252 0.45753 0.64718
 O143 O 0.00254 0.54415 0.68600
 O144 O 0.00556 0.45221 0.68624
 O145 O 0.00562 0.55255 0.64694
 Cu146 Cu -0.09696 0.45107 0.66657
 Cu147 Cu 0.01328 0.50622 0.66659
 C148 C -0.03999 0.54717 0.64030
 C149 C -0.04007 0.41194 0.69286
 C150 C -0.04356 0.53560 0.69244
 C151 C -0.04360 0.41995 0.64073
 O152 O 0.54791 0.59868 0.31137
 O153 O 0.44375 0.50520 0.34966
 O154 O 0.53593 0.60052 0.34972
 O155 O 0.45287 0.50643 0.31106
 O156 O 0.49775 0.45996 0.31682
 O157 O 0.58168 0.55497 0.35564
 O158 O 0.48961 0.45971 0.35542
 O159 O 0.59279 0.55226 0.31729
 Cu160 Cu 0.49062 0.55740 0.32988
 Cu161 Cu 0.54509 0.50217 0.33688
 C162 C 0.58802 0.59110 0.30792
 C163 C 0.44907 0.46638 0.35890
 C164 C 0.57287 0.59391 0.35918
 C165 C 0.46084 0.46713 0.30748
 C166 C -0.05401 0.24473 0.57424
 N167 N -0.01673 0.29978 0.57141
 N168 N -0.01459 0.33515 0.58408
 C169 C -0.04958 0.31650 0.60002
 N170 N -0.08692 0.26147 0.60283
 N171 N -0.08905 0.22610 0.59016
 C172 C -0.05409 0.20638 0.56124
 C173 C -0.05225 0.17459 0.55060
 C174 C -0.04644 0.35419 0.61402
 C175 C -0.04448 0.38490 0.62606
 C176 C 0.79396 0.76221 0.24242
 N177 N 0.79761 0.72314 0.25488
 N178 N 0.75593 0.68905 0.26726
 C179 C 0.70940 0.69304 0.26759
 N180 N 0.70571 0.73205 0.25511
 N181 N 0.74738 0.76614 0.24273
 C182 C 0.83973 0.80062 0.22973
 C183 C 0.87816 0.83425 0.21932
 C184 C 0.66540 0.65740 0.28141
 C185 C 0.62940 0.62735 0.29334
 C186 C 0.25388 -0.01976 -0.09050
 N187 N 0.29662 0.02847 -0.08442
 N188 N 0.33526 0.02795 -0.07205
 C189 C 0.33233 -0.02077 -0.06540
 N190 N 0.28962 -0.06898 -0.07150
 N191 N 0.25099 -0.06847 -0.08387
 C192 C 0.21126 -0.01956 -0.10332
 C193 C 0.17443 -0.02078 -0.11383
 C194 C 0.37302 -0.02122 -0.05157
 C195 C 0.40727 -0.02039 -0.03971
 C196 C -0.01822 0.75452 0.57377
 N197 N -0.06782 0.71900 0.58268
 N198 N -0.07373 0.67641 0.59513
 C199 C -0.03022 0.66802 0.59903
 N200 N 0.01936 0.70348 0.59010
 N201 N 0.02528 0.74607 0.57765
 C202 C -0.01154 0.80149 0.56098
 C203 C -0.00699 0.84104 0.55056
 C204 C -0.03567 0.62383 0.61318
 C205 C -0.03875 0.58797 0.62539
 C206 C 0.28522 0.28806 0.24121
 N207 N 0.33165 0.28635 0.24702
 N208 N 0.36768 0.32216 0.25959
 C209 C 0.35833 0.36078 0.26673
 N210 N 0.31193 0.36254 0.26090
 N211 N 0.27590 0.32672 0.24833
 C212 C 0.24555 0.24810 0.22827
 C213 C 0.21245 0.21336 0.21770
 C214 C 0.39601 0.39820 0.28080
 C215 C 0.42646 0.42960 0.29286
 C216 C 0.72816 -0.05610 -0.09151
 N217 N 0.73030 -0.00639 -0.09186
 N218 N 0.69881 0.00105 -0.07944
 C219 C 0.66429 -0.04099 -0.06626
 N220 N 0.66207 -0.09073 -0.06594
 N221 N 0.69356 -0.09817 -0.07836
 C222 C 0.76430 -0.06302 -0.10414
 C223 C 0.79625 -0.06732 -0.11444
 C224 C 0.63180 -0.03260 -0.05236
 C225 C 0.60459 -0.02654 -0.04033
 C226 C 0.28496 -0.00186 0.09220
 N227 N 0.33089 0.04643 0.08608
 N228 N 0.36690 0.04657 0.07354
 C229 C 0.35804 -0.00162 0.06674
 N230 N 0.31215 -0.04992 0.07289
 N231 N 0.27614 -0.05005 0.08543
 C232 C 0.24531 -0.00153 0.10512
 C233 C 0.21223 0.00013 0.11567
 C234 C 0.39567 -0.00148 0.05271
 C235 C 0.42606 -0.00253 0.04066
 C236 C 0.72988 0.78508 0.42507
 N237 N 0.69531 0.79265 0.41194
 N238 N 0.66365 0.75371 0.39953
 C239 C 0.66566 0.70608 0.39984
 N240 N 0.70016 0.69847 0.41299
 N241 N 0.73182 0.73741 0.42540
 C242 C 0.76621 0.82816 0.43768
 C243 C 0.79832 0.86442 0.44797
 C244 C 0.63299 0.66519 0.38594
 C245 C 0.60564 0.63192 0.37391
 C246 C -0.01854 0.22628 0.75941
 N247 N 0.02492 0.27833 0.75562
 N248 N 0.01904 0.31502 0.74316
 C249 C -0.03045 0.30081 0.73414
 N250 N -0.07393 0.24879 0.73796
 N251 N -0.06806 0.21210 0.75042
 C252 C -0.01189 0.18598 0.77221
 C253 C -0.00737 0.15097 0.78263
 C254 C -0.03585 0.33956 0.71999
 C255 C -0.03889 0.37235 0.70778
 C256 C 0.79375 0.03263 0.09103
 N257 N 0.74696 -0.01781 0.09088
 N258 N 0.70522 -0.02548 0.07851
 C259 C 0.70905 0.01706 0.06590
 N260 N 0.75581 0.06752 0.06607
 N261 N 0.79755 0.07519 0.07843
 C262 C 0.83958 0.04006 0.10370
 C263 C 0.87805 0.04490 0.11409
 C264 C 0.66497 0.00860 0.05211
 C265 C 0.62891 0.00257 0.04020
 C266 C 0.25462 0.27386 0.42395
 N267 N 0.25177 0.31974 0.41738
 N268 N 0.29043 0.35901 0.40504
 C269 C 0.33312 0.35357 0.39892
 N270 N 0.33600 0.30772 0.40552
 N271 N 0.29734 0.26845 0.41785
 C272 C 0.21196 0.23092 0.43672
 C273 C 0.17509 0.19518 0.44720
 C274 C 0.37382 0.39482 0.38512
 C275 C 0.40806 0.42832 0.37327
 C276 C -0.05389 0.70030 0.75898
 N277 N -0.01496 0.68464 0.76128
 N278 N -0.01282 0.65141 0.74861
 C279 C -0.04948 0.63297 0.73320
 N280 N -0.08848 0.64856 0.73091
 N281 N -0.09061 0.68179 0.74359
 C282 C -0.05410 0.73854 0.77197
 C283 C -0.05235 0.77216 0.78260
 C284 C -0.04637 0.59846 0.71918
 C285 C -0.04442 0.56975 0.70712
   
