data_POSCAR
  _audit_creation_date              2014-09-24
  _audit_creation_method            'ToBaCCo'
  _symmetry_space_group_name_H-M    'P1'
  _symmetry_Int_Tables_number       1
  _symmetry_cell_setting            triclinic
  loop_
  _symmetry_equiv_pos_as_xyz
 x,y,z
_cell_length_a 31.6231
_cell_length_b 31.5740
_cell_length_c 31.5038
_cell_angle_alpha 90.100400
_cell_angle_beta 90.086000
_cell_angle_gamma 89.896000
loop_
  _atom_site_label
  _atom_site_type_symbol
  _atom_site_fract_x
  _atom_site_fract_y
  _atom_site_fract_z
C1 C 0.53977 1.00207 -0.41060
 C2 C 0.50128 1.00220 -0.38884
 C3 C 0.46281 1.00158 -0.41063
 C4 C 0.46234 1.00098 -0.45548
 C5 C 0.50116 1.00067 -0.47804
 C6 C 0.54011 1.00113 -0.45554
 C7 C 0.57820 1.00062 -0.47858
 C8 C 0.57807 0.99963 -0.52277
 C9 C 0.53986 0.99926 -0.54573
 C10 C 0.50103 0.99988 -0.52315
 C11 C 0.42412 1.00068 -0.47833
 C12 C 0.42397 1.00013 -0.52252
 C13 C 0.46204 0.99970 -0.54561
 C14 C 0.46230 0.99907 -0.59054
 C15 C 0.50073 0.99829 -0.61237
 C16 C 0.53930 0.99827 -0.59066
 H17 H 0.60851 1.00092 -0.46256
 H18 H 0.60831 0.99923 -0.53887
 H19 H 0.39392 1.00092 -0.46219
 H20 H 0.39363 0.99998 -0.53850
 H21 H 0.50118 1.00278 -0.35436
 H22 H 0.50061 0.99765 -0.64687
 C23 C -0.46177 1.59040 -0.00222
 C24 C -0.50013 1.61235 -0.00253
 C25 C -0.53871 1.59085 -0.00228
 C26 C -0.53929 1.54603 -0.00150
 C27 C -0.50046 1.52340 -0.00140
 C28 C -0.46151 1.54565 -0.00186
 C29 C -0.42341 1.52261 -0.00196
 C30 C -0.42352 1.47850 -0.00168
 C31 C -0.46173 1.45581 -0.00109
 C32 C -0.50056 1.47843 -0.00083
 C33 C -0.57750 1.52323 -0.00082
 C34 C -0.57757 1.47913 -0.00001
 C35 C -0.53947 1.45613 -0.00003
 C36 C -0.53913 1.41138 0.00071
 C37 C -0.50073 1.38950 0.00023
 C38 C -0.46225 1.41106 -0.00078
 H39 H -0.39312 1.53853 -0.00234
 H40 H -0.39332 1.46230 -0.00183
 H41 H -0.60775 1.53937 -0.00083
 H42 H -0.60784 1.46317 0.00055
 H43 H -0.49985 1.64676 -0.00297
 H44 H -0.50080 1.35511 0.00062
 C45 C -0.00022 0.40928 0.46257
 C46 C -0.00079 0.38763 0.50119
 C47 C -0.00156 0.40944 0.53980
 C48 C -0.00156 0.45425 0.54021
 C49 C -0.00121 0.47663 0.50117
 C50 C -0.00064 0.45409 0.46213
 C51 C -0.00052 0.47697 0.42382
 C52 C -0.00098 0.52105 0.42383
 C53 C -0.00141 0.54398 0.46211
 C54 C -0.00142 0.52162 0.50115
 C55 C -0.00190 0.47729 0.57850
 C56 C -0.00185 0.52137 0.57848
 C57 C -0.00164 0.54421 0.54016
 C58 C -0.00166 0.58903 0.53965
 C59 C -0.00185 0.61060 0.50098
 C60 C -0.00181 0.58871 0.46246
 H61 H -0.00014 0.46091 0.39343
 H62 H -0.00092 0.53706 0.39346
 H63 H -0.00212 0.46134 0.60890
 H64 H -0.00205 0.53747 0.60885
 H65 H -0.00063 0.35319 0.50120
 H66 H -0.00201 0.64501 0.50076
 O67 O -0.10863 1.00145 -0.05723
 O68 O 0.10912 0.99880 -0.05710
 O69 O -0.00142 1.05749 -0.10875
 O70 O 0.00182 0.94279 -0.10908
 O71 O 0.00200 0.89105 -0.05734
 O72 O -0.00151 1.10914 -0.05673
 O73 O 0.05743 0.99880 -0.10898
 O74 O -0.05702 1.00155 -0.10904
 Zr75 Zr 0.00023 1.00011 -0.07442
 O76 O 0.03875 0.96170 -0.03827
 O77 O -0.03821 1.03844 -0.03810
 C78 C -0.09600 1.00221 -0.09636
 C79 C 0.09643 0.99815 -0.09626
 C80 C -0.00221 1.09652 -0.09590
 C81 C 0.00262 0.90374 -0.09644
 H82 H 0.05633 1.05648 -0.05592
 O83 O 0.03835 1.03835 -0.03788
 H84 H -0.05584 0.94372 -0.05632
 O85 O -0.03783 0.96180 -0.03814
 O86 O 0.10922 1.00151 0.05788
 O87 O -0.10851 0.99838 0.05776
 O88 O 0.05716 1.10914 0.00216
 O89 O 0.05780 0.89105 -0.00139
 O90 O -0.05658 0.89093 0.00144
 O91 O -0.05720 1.10902 -0.00088
 O92 O 0.00168 1.05727 0.10974
 O93 O -0.00089 0.94257 0.10942
 O94 O 0.00146 1.10902 0.05802
 O95 O -0.00079 0.89092 0.05740
 O96 O 0.10899 1.05750 0.00204
 O97 O -0.10873 1.05727 -0.00106
 O98 O -0.10840 0.94258 0.00155
 O99 O 0.10932 0.94281 -0.00123
 O100 O 0.05762 1.00140 0.10970
 O101 O -0.05681 0.99839 0.10964
 Zr102 Zr 0.07477 1.00012 0.00037
 Zr103 Zr -0.07418 0.99996 0.00029
 Zr104 Zr 0.00008 1.07457 0.00055
 Zr105 Zr 0.00051 0.92550 0.00012
 Zr106 Zr 0.00037 0.99996 0.07508
 O107 O -0.03793 0.96155 0.03871
 O108 O 0.03860 1.03845 0.03898
 C109 C 0.09660 1.00214 0.09702
 C110 C -0.09581 0.99762 0.09691
 C111 C 0.09619 1.09653 0.00286
 C112 C 0.09675 0.90375 -0.00204
 C113 C -0.09560 0.90355 0.00214
 C114 C -0.09615 1.09632 -0.00167
 C115 C 0.00224 1.09632 0.09711
 C116 C -0.00149 0.90355 0.09656
 H117 H -0.05608 1.05623 0.05692
 O118 O -0.03799 1.03819 0.03876
 H119 H 0.05675 0.94371 0.05666
 O120 O 0.03864 0.96180 0.03859
 C121 C 0.42592 0.99929 0.38590
 C122 C 0.39451 0.99956 0.36413
 C123 C 0.35782 0.99993 0.33703
 C124 C 0.33619 1.03786 0.32935
 C125 C 0.30196 1.03865 0.30119
 C126 C 0.28894 1.00145 0.28028
 C127 C 0.31055 0.96336 0.28869
 C128 C 0.34477 0.96266 0.31683
 C129 C 0.25370 1.00251 0.24902
 C130 C 0.22412 0.96932 0.24708
 C131 C 0.19175 0.96979 0.21678
 C132 C 0.18850 1.00339 0.18804
 C133 C 0.21754 1.03672 0.18993
 C134 C 0.24991 1.03634 0.22021
 C135 C 0.15585 1.00328 0.15614
 C136 C 0.12871 1.00293 0.12922
 H137 H 0.34604 1.06691 0.34478
 H138 H 0.28564 1.06834 0.29581
 H139 H 0.30169 0.93432 0.27270
 H140 H 0.36147 0.93317 0.32233
 H141 H 0.22587 0.94310 0.26913
 H142 H 0.16939 0.94385 0.21565
 H143 H 0.21542 1.06281 0.16772
 H144 H 0.27251 1.06205 0.22047
 C145 C -0.42450 0.99708 0.38563
 C146 C -0.39337 0.99587 0.36358
 C147 C -0.35716 0.99429 0.33597
 C148 C -0.32296 1.02163 0.34245
 C149 C -0.28873 1.02121 0.31436
 C150 C -0.28830 0.99339 0.27938
 C151 C -0.32264 0.96571 0.27348
 C152 C -0.35680 0.96621 0.30156
 C153 C -0.25277 0.99387 0.24855
 C154 C -0.23713 0.95584 0.23119
 C155 C -0.20472 0.95646 0.20105
 C156 C -0.18749 0.99503 0.18785
 C157 C -0.20251 1.03300 0.20522
 C158 C -0.23490 1.03246 0.23539
 C159 C -0.15491 0.99574 0.15598
 C160 C -0.12785 0.99649 0.12907
 H161 H -0.32292 1.04351 0.36899
 H162 H -0.26255 1.04254 0.32006
 H163 H -0.32358 0.94436 0.24656
 H164 H -0.38323 0.94508 0.29609
 H165 H -0.24984 0.92560 0.24106
 H166 H -0.19326 0.92687 0.18788
 H167 H -0.18949 1.06305 0.19513
 H168 H -0.24661 1.06229 0.24769
 C169 C -0.42392 1.00295 -0.38695
 C170 C -0.39263 1.00382 -0.36501
 C171 C -0.35618 1.00489 -0.33760
 C172 C -0.34985 1.03948 -0.31050
 C173 C -0.31581 1.03968 -0.28214
 C174 C -0.28763 1.00518 -0.28042
 C175 C -0.29393 0.97080 -0.30823
 C176 C -0.32800 0.97068 -0.33660
 C177 C -0.25256 1.00460 -0.24897
 C178 C -0.24251 0.96716 -0.22692
 C179 C -0.21036 0.96687 -0.19642
 C180 C -0.18777 1.00391 -0.18752
 C181 C -0.19727 1.04124 -0.20947
 C182 C -0.22945 1.04162 -0.23999
 C183 C -0.15520 1.00364 -0.15553
 C184 C -0.12811 1.00314 -0.12857
 H185 H -0.37163 1.06601 -0.31082
 H186 H -0.31219 1.06635 -0.26080
 H187 H -0.27249 0.94402 -0.30806
 H188 H -0.33262 0.94372 -0.35741
 H189 H -0.26009 0.93831 -0.23263
 H190 H -0.20336 0.93783 -0.17952
 H191 H -0.17992 1.07008 -0.20291
 H192 H -0.23608 1.07080 -0.25676
 C193 C 0.42451 1.00141 -0.38561
 C194 C 0.39327 1.00117 -0.36371
 C195 C 0.35676 1.00084 -0.33647
 C196 C 0.34437 1.03787 -0.31540
 C197 C 0.31028 1.03716 -0.28720
 C198 C 0.28815 0.99930 -0.27960
 C199 C 0.30052 0.96234 -0.30138
 C200 C 0.33461 0.96314 -0.32960
 C201 C 0.25303 0.99819 -0.24832
 C202 C 0.24884 0.96380 -0.22028
 C203 C 0.21659 0.96334 -0.18996
 C204 C 0.18807 0.99718 -0.18727
 C205 C 0.19173 1.03136 -0.21525
 C206 C 0.22397 1.03190 -0.24557
 C207 C 0.15554 0.99718 -0.15535
 C208 C 0.12848 0.99745 -0.12842
 H209 H 0.36146 1.06717 -0.32027
 H210 H 0.30194 1.06600 -0.27053
 H211 H 0.28379 0.93284 -0.29664
 H212 H 0.34395 0.93427 -0.34572
 H213 H 0.27103 0.93766 -0.22117
 H214 H 0.21415 0.93680 -0.16836
 H215 H 0.16978 1.05769 -0.21350
 H216 H 0.22604 1.05857 -0.26702
 C217 C 0.42256 1.38657 0.00209
 C218 C 0.39139 1.36469 0.00334
 C219 C 0.35511 1.33733 0.00489
 C220 C 0.32451 1.33890 -0.02720
 C221 C 0.29051 1.31064 -0.02679
 C222 C 0.28672 1.28040 0.00576
 C223 C 0.31735 1.27952 0.03820
 C224 C 0.35131 1.30777 0.03770
 C225 C 0.25171 1.24911 0.00532
 C226 C 0.23134 1.23745 0.04323
 C227 C 0.19934 1.20695 0.04288
 C228 C 0.18729 1.18771 0.00469
 C229 C 0.20710 1.19932 -0.03321
 C230 C 0.23908 1.22982 -0.03295
 C231 C 0.15500 1.15568 0.00440
 C232 C 0.12810 1.12869 0.00386
 H233 H 0.32718 1.36164 -0.05277
 H234 H 0.26717 1.31245 -0.05190
 H235 H 0.31566 1.25627 0.06335
 H236 H 0.37498 1.30610 0.06255
 H237 H 0.24001 1.25208 0.07310
 H238 H 0.18412 1.19827 0.07239
 H239 H 0.19810 1.18453 -0.06293
 H240 H 0.25454 1.23765 -0.06255
 C241 C 0.42509 0.61460 -0.00298
 C242 C 0.39385 0.63654 -0.00372
 C243 C 0.35741 0.66386 -0.00472
 C244 C 0.35125 0.69121 -0.03908
 C245 C 0.31712 0.71939 -0.03926
 C246 C 0.28870 0.72064 -0.00495
 C247 C 0.29486 0.69261 0.02921
 C248 C 0.32902 0.66442 0.02930
 C249 C 0.25350 0.75185 -0.00436
 C250 C 0.24321 0.77359 0.03328
 C251 C 0.21097 0.80393 0.03358
 C252 C 0.18857 0.81295 -0.00367
 C253 C 0.19830 0.79127 -0.04120
 C254 C 0.23056 0.76092 -0.04158
 C255 C 0.15599 0.84481 -0.00342
 C256 C 0.12887 0.87168 -0.00296
 H257 H 0.37320 0.69121 -0.06546
 H258 H 0.31359 0.74093 -0.06573
 H259 H 0.27323 0.69246 0.05582
 H260 H 0.33353 0.64339 0.05607
 H261 H 0.26067 0.76778 0.06229
 H262 H 0.20378 0.82063 0.06277
 H263 H 0.18107 0.79794 -0.07019
 H264 H 0.23740 0.74437 -0.07091
 C265 C -0.42337 0.61511 -0.00207
 C266 C -0.39203 0.63679 -0.00180
 C267 C -0.35542 0.66377 -0.00135
 C268 C -0.33322 0.67059 0.03650
 C269 C -0.29909 0.69868 0.03745
 C270 C -0.28676 0.72035 0.00050
 C271 C -0.30893 0.71280 -0.03753
 C272 C -0.34305 0.68473 -0.03839
 C273 C -0.25169 0.75155 0.00178
 C274 C -0.22260 0.75418 -0.03187
 C275 C -0.19044 0.78449 -0.03121
 C276 C -0.18690 0.81255 0.00304
 C277 C -0.21542 0.80996 0.03685
 C278 C -0.24759 0.77966 0.03627
 C279 C -0.15450 0.84448 0.00311
 C280 C -0.12754 0.87141 0.00286
 H281 H -0.34257 0.65456 0.06537
 H282 H -0.28233 0.70342 0.06707
 H283 H -0.30060 0.72941 -0.06636
 H284 H -0.36021 0.67989 -0.06780
 H285 H -0.22461 0.73267 -0.05860
 H286 H -0.16846 0.78619 -0.05751
 H287 H -0.21305 0.83163 0.06345
 H288 H -0.26982 0.77883 0.06236
 C289 C -0.42403 1.38595 -0.00177
 C290 C -0.39289 1.36390 -0.00277
 C291 C -0.35659 1.33641 -0.00409
 C292 C -0.35273 1.30652 -0.03669
 C293 C -0.31863 1.27831 -0.03707
 C294 C -0.28793 1.27957 -0.00472
 C295 C -0.29180 1.31011 0.02765
 C296 C -0.32594 1.33833 0.02794
 C297 C -0.25269 1.24841 -0.00422
 C298 C -0.23978 1.22952 0.03411
 C299 C -0.20757 1.19915 0.03443
 C300 C -0.18781 1.18727 -0.00348
 C301 C -0.20013 1.20612 -0.04173
 C302 C -0.23236 1.23650 -0.04213
 C303 C -0.15531 1.15533 -0.00314
 C304 C -0.12824 1.12842 -0.00261
 H305 H -0.37642 1.30459 -0.06150
 H306 H -0.31687 1.25481 -0.06209
 H307 H -0.26841 1.31222 0.05269
 H308 H -0.32865 1.36135 0.05334
 H309 H -0.25520 1.23755 0.06372
 H310 H -0.19836 1.18465 0.06419
 H311 H -0.18495 1.19723 -0.07125
 H312 H -0.24124 1.25083 -0.07206
 C313 C 0.00089 1.38566 0.42618
 C314 C 0.00198 1.36384 0.39477
 C315 C 0.00333 1.33663 0.35815
 C316 C 0.03769 1.30928 0.35225
 C317 C 0.03813 1.28111 0.31799
 C318 C 0.00410 1.27987 0.28920
 C319 C -0.03004 1.30794 0.29507
 C320 C -0.03040 1.33611 0.32936
 C321 C 0.00372 1.24860 0.25396
 C322 C -0.03368 1.22684 0.24349
 C323 C -0.03378 1.19639 0.21125
 C324 C 0.00343 1.18730 0.18903
 C325 C 0.04072 1.20899 0.19893
 C326 C 0.04090 1.23945 0.23120
 C327 C 0.00336 1.15534 0.15645
 C328 C 0.00302 1.12841 0.12931
 H329 H 0.06383 1.30924 0.37452
 H330 H 0.06458 1.25954 0.31468
 H331 H -0.05644 1.30810 0.27314
 H332 H -0.05716 1.35715 0.33367
 H333 H -0.06265 1.23272 0.26082
 H334 H -0.06278 1.17968 0.20390
 H335 H 0.06967 1.20226 0.18183
 H336 H 0.07005 1.25601 0.23819
 C337 C -0.00245 1.38596 -0.42380
 C338 C -0.00335 1.36424 -0.39239
 C339 C -0.00448 1.33712 -0.35580
 C340 C -0.03917 1.31047 -0.34932
 C341 C -0.03943 1.28232 -0.31515
 C342 C -0.00488 1.28039 -0.28702
 C343 C 0.02959 1.30777 -0.29345
 C344 C 0.02976 1.33593 -0.32765
 C345 C -0.00433 1.24907 -0.25193
 C346 C 0.03290 1.22656 -0.24230
 C347 C 0.03312 1.19605 -0.21022
 C348 C -0.00380 1.18766 -0.18733
 C349 C -0.04090 1.21012 -0.19638
 C350 C -0.04121 1.24064 -0.22849
 C351 C -0.00362 1.15565 -0.15491
 C352 C -0.00316 1.12867 -0.12792
 H353 H -0.06572 1.31095 -0.37110
 H354 H -0.06616 1.26127 -0.31141
 H355 H 0.05640 1.30740 -0.27203
 H356 H 0.05679 1.35642 -0.33241
 H357 H 0.06162 1.23188 -0.26017
 H358 H 0.06198 1.17875 -0.20352
 H359 H -0.06962 1.20393 -0.17876
 H360 H -0.07021 1.25779 -0.23483
 C361 C -0.00132 0.61272 -0.42399
 C362 C -0.00091 0.63460 -0.39261
 C363 C -0.00034 0.66187 -0.35601
 C364 C -0.03758 0.68174 -0.34259
 C365 C -0.03668 0.71017 -0.30855
 C366 C 0.00157 0.71917 -0.28753
 C367 C 0.03874 0.69857 -0.30090
 C368 C 0.03776 0.67012 -0.33494
 C369 C 0.00280 0.75077 -0.25260
 C370 C 0.03619 0.78006 -0.24981
 C371 C 0.03667 0.81070 -0.21773
 C372 C 0.00386 0.81244 -0.18803
 C373 C -0.02929 0.78322 -0.19029
 C374 C -0.02985 0.75257 -0.22235
 C375 C 0.00383 0.84460 -0.15565
 C376 C 0.00348 0.87162 -0.12861
 H377 H -0.06718 0.67580 -0.35888
 H378 H -0.06571 0.72594 -0.29939
 H379 H 0.06856 0.70444 -0.28502
 H380 H 0.06679 0.65494 -0.34513
 H381 H 0.06146 0.77987 -0.27295
 H382 H 0.06240 0.83327 -0.21634
 H383 H -0.05479 0.78424 -0.16738
 H384 H -0.05570 0.73014 -0.22336
 C385 C -0.00235 0.61351 0.42398
 C386 C -0.00291 0.63530 0.39262
 C387 C -0.00366 0.66248 0.35606
 C388 C 0.03211 0.66605 0.33023
 C389 C 0.03215 0.69433 0.29614
 C390 C -0.00364 0.71946 0.28749
 C391 C -0.03967 0.71514 0.31328
 C392 C -0.03961 0.68687 0.34735
 C393 C -0.00304 0.75093 0.25254
 C394 C -0.03886 0.75706 0.22669
 C395 C -0.03861 0.78763 0.19464
 C396 C -0.00260 0.81244 0.18803
 C397 C 0.03327 0.80639 0.21335
 C398 C 0.03310 0.77584 0.24539
 C399 C -0.00254 0.84444 0.15560
 C400 C -0.00223 0.87140 0.12859
 H401 H 0.06013 0.64734 0.33674
 H402 H 0.06015 0.69657 0.27654
 H403 H -0.06748 0.73444 0.30781
 H404 H -0.06737 0.68455 0.36733
 H405 H -0.06697 0.73805 0.23110
 H406 H -0.06651 0.79200 0.17512
 H407 H 0.06127 0.82553 0.20857
 H408 H 0.06094 0.77231 0.26514
   
