data_POSCAR
  _audit_creation_date              2014-09-24
  _audit_creation_method            'ToBaCCo'
  _symmetry_space_group_name_H-M    'P1'
  _symmetry_Int_Tables_number       1
  _symmetry_cell_setting            triclinic
  loop_
  _symmetry_equiv_pos_as_xyz
 x,y,z
_cell_length_a 57.0217
_cell_length_b 56.9859
_cell_length_c 19.5601
_cell_angle_alpha 89.963200
_cell_angle_beta 90.019600
_cell_angle_gamma 119.978600
loop_
  _atom_site_label
  _atom_site_type_symbol
  _atom_site_fract_x
  _atom_site_fract_y
  _atom_site_fract_z
O1 O 0.20876 0.46313 0.43488
 O2 O 0.25491 0.46316 0.56693
 O3 O 0.20906 0.46326 0.56758
 O4 O 0.25466 0.46321 0.43422
 O5 O 0.27691 0.50789 0.43417
 O6 O 0.23146 0.50793 0.56739
 O7 O 0.27725 0.50780 0.56651
 O8 O 0.23107 0.50781 0.43501
 Cu9 Cu 0.22961 0.45871 0.50095
 Cu10 Cu 0.25640 0.51232 0.50079
 C11 C 0.21181 0.48548 0.41298
 C12 C 0.27430 0.48550 0.58867
 C13 C 0.21223 0.48563 0.58961
 C14 C 0.27382 0.48557 0.41199
 O15 O 0.53700 -0.25513 0.43334
 O16 O 0.53692 -0.20913 0.56565
 O17 O 0.53689 -0.25506 0.56606
 O18 O 0.53685 -0.20930 0.43294
 O19 O 0.49221 -0.23174 0.43304
 O20 O 0.49228 -0.27738 0.56585
 O21 O 0.49228 -0.23152 0.56542
 O22 O 0.49239 -0.27749 0.43352
 Cu23 Cu 0.54139 -0.22992 0.49951
 Cu24 Cu 0.48784 -0.25676 0.49946
 C25 C 0.51469 -0.27448 0.41137
 C26 C 0.51456 -0.21223 0.58750
 C27 C 0.51457 -0.27437 0.58812
 C28 C 0.51449 -0.21248 0.41086
 O29 O 1.25428 0.79116 0.43521
 O30 O 1.20814 0.74506 0.56731
 O31 O 1.25412 0.79088 0.56790
 O32 O 1.20842 0.74529 0.43460
 O33 O 1.23074 0.72294 0.43469
 O34 O 1.27630 0.76838 0.56783
 O35 O 1.23034 0.72263 0.56704
 O36 O 1.27653 0.76874 0.43546
 Cu37 Cu 1.22901 0.77035 0.50129
 Cu38 Cu 1.25570 0.74343 0.50130
 C39 C 1.27353 0.78805 0.41336
 C40 C 1.21104 0.72564 0.58914
 C41 C 1.27329 0.78766 0.58998
 C42 C 1.21156 0.72609 0.41245
 O43 O 0.79121 0.53705 0.43495
 O44 O 0.74498 0.53707 0.56664
 O45 O 0.79081 0.53693 0.56764
 O46 O 0.74533 0.53703 0.43393
 O47 O 0.72305 0.49235 0.43399
 O48 O 0.76837 0.49225 0.56756
 O49 O 0.72261 0.49243 0.56633
 O50 O 0.76886 0.49238 0.43519
 Cu51 Cu 0.77032 0.54150 0.50082
 Cu52 Cu 0.74349 0.48789 0.50080
 C53 C 0.78815 0.51469 0.41316
 C54 C 0.72556 0.51474 0.58838
 C55 C 0.78760 0.51454 0.58979
 C56 C 0.72618 0.51468 0.41170
 O57 O 0.46322 0.25443 0.43515
 O58 O 0.46320 0.20819 0.56705
 O59 O 0.46332 0.25417 0.56785
 O60 O 0.46327 0.20855 0.43434
 O61 O 0.50792 0.23093 0.43439
 O62 O 0.50797 0.27638 0.56775
 O63 O 0.50781 0.23043 0.56674
 O64 O 0.50787 0.27673 0.43538
 Cu65 Cu 0.45877 0.22910 0.50112
 Cu66 Cu 0.51235 0.25584 0.50109
 C67 C 0.48557 0.27373 0.41334
 C68 C 0.48551 0.21109 0.58884
 C69 C 0.48569 0.27333 0.58996
 C70 C 0.48561 0.21173 0.41216
 O71 O 0.79187 0.25493 0.56712
 O72 O 0.74564 0.20866 0.43548
 O73 O 0.79147 0.25456 0.43442
 O74 O 0.74593 0.20908 0.56818
 O75 O 0.72371 0.23155 0.56798
 O76 O 0.76908 0.27685 0.43433
 O77 O 0.72333 0.23102 0.43560
 O78 O 0.76963 0.27732 0.56667
 Cu79 Cu 0.77096 0.22956 0.50134
 Cu80 Cu 0.74421 0.25642 0.50116
 C81 C 0.78897 0.27436 0.58878
 C82 C 0.72634 0.21171 0.41365
 C83 C 0.78826 0.27372 0.41210
 C84 C 0.72677 0.21230 0.59028
 N85 N 0.97140 0.44408 -0.07432
 N86 N 0.95114 0.41921 -0.08442
 N87 N 1.02838 0.48905 -0.12112
 N88 N 1.04874 0.49630 -0.16387
 N89 N 1.02839 0.47259 -0.07418
 N90 N 1.04875 0.46811 -0.08388
 N91 N 0.97142 0.46059 -0.12117
 N92 N 0.95117 0.44748 -0.16422
 C93 C 0.93864 0.42169 -0.14071
 C94 C 1.06130 0.48311 -0.14004
 N95 N 1.02843 0.55598 -0.07416
 N96 N 1.04872 0.58085 -0.08415
 N97 N 0.97145 0.51105 -0.12105
 N98 N 0.95107 0.50382 -0.16376
 N99 N 0.97144 0.52749 -0.07407
 N100 N 0.95106 0.53195 -0.08370
 N101 N 1.02840 0.53951 -0.12107
 N102 N 1.04868 0.55264 -0.16403
 Mn103 Mn 0.99991 0.50005 -0.12186
 C104 C 1.06123 0.57841 -0.14041
 C105 C 0.93850 0.51698 -0.13986
 N106 N 1.02841 0.47253 0.07329
 N107 N 1.04870 0.46796 0.08338
 N108 N 0.97143 0.46051 0.12010
 N109 N 0.95111 0.44738 0.16292
 N110 N 0.97142 0.44405 0.07316
 N111 N 0.95108 0.41920 0.08295
 N112 N 1.02837 0.48898 0.12018
 N113 N 1.04861 0.49610 0.16324
 Mn114 Mn 0.99991 0.45800 -0.00051
 C115 C 1.06117 0.48288 0.13971
 C116 C 0.93855 0.42163 0.13915
 N117 N 0.97140 0.52742 0.07339
 N118 N 0.95114 0.53204 0.08357
 N119 N 1.02836 0.53940 0.12023
 N120 N 1.04866 0.55249 0.16312
 N121 N 1.02839 0.55590 0.07333
 N122 N 1.04872 0.58074 0.08322
 N123 N 0.97142 0.51093 0.12023
 N124 N 0.95120 0.50381 0.16335
 Mn125 Mn 0.99991 0.54201 -0.00038
 Mn126 Mn 0.99989 0.49995 0.12092
 Cl127 Cl 0.99991 0.50000 -0.00046
 C128 C 0.93867 0.51708 0.13989
 C129 C 1.06122 0.57826 0.13945
 N130 N 0.47265 0.44429 0.07319
 N131 N 0.46808 0.41942 0.08345
 N132 N 0.46061 0.48928 0.11978
 N133 N 0.44750 0.49649 0.16265
 N134 N 0.44413 0.47280 0.07294
 N135 N 0.41929 0.46827 0.08284
 N136 N 0.48911 0.46081 0.11999
 N137 N 0.49625 0.44772 0.16316
 C138 C 0.48302 0.42191 0.13978
 C139 C 0.42175 0.48326 0.13900
 N140 N 0.52742 0.55619 0.07264
 N141 N 0.53201 0.58107 0.08269
 N142 N 0.53948 0.51124 0.11968
 N143 N 0.55260 0.50404 0.16255
 N144 N 0.55592 0.52767 0.07268
 N145 N 0.58076 0.53216 0.08248
 N146 N 0.51097 0.53971 0.11956
 N147 N 0.50385 0.55285 0.16258
 Mn148 Mn 0.50004 0.50026 0.12049
 C149 C 0.51708 0.57863 0.13899
 C150 C 0.57833 0.51721 0.13874
 N151 N 0.44406 0.47272 -0.07453
 N152 N 0.41920 0.46815 -0.08453
 N153 N 0.48901 0.46067 -0.12131
 N154 N 0.49625 0.44752 -0.16396
 N155 N 0.47259 0.44423 -0.07427
 N156 N 0.46816 0.41940 -0.08381
 N157 N 0.46052 0.48917 -0.12149
 N158 N 0.44738 0.49631 -0.16450
 Mn159 Mn 0.45805 0.45820 -0.00067
 C160 C 0.42162 0.48309 -0.14086
 C161 C 0.48312 0.42179 -0.13997
 N162 N 0.55590 0.52759 -0.07480
 N163 N 0.58076 0.53218 -0.08491
 N164 N 0.51091 0.53960 -0.12170
 N165 N 0.50369 0.55271 -0.16461
 N166 N 0.52737 0.55609 -0.07486
 N167 N 0.53188 0.58094 -0.08480
 N168 N 0.53941 0.51110 -0.12160
 N169 N 0.55252 0.50394 -0.16461
 Mn170 Mn 0.54197 0.54220 -0.00109
 Mn171 Mn 0.49996 0.50013 -0.12228
 Cl172 Cl 0.50001 0.50020 -0.00089
 C173 C 0.57830 0.51721 -0.14113
 C174 C 0.51690 0.57848 -0.14099
 N175 N 0.44410 -0.02865 0.07363
 N176 N 0.41923 -0.04893 0.08370
 N177 N 0.48904 0.02831 0.12064
 N178 N 0.49625 0.04863 0.16350
 N179 N 0.47262 0.02837 0.07368
 N180 N 0.46814 0.04874 0.08349
 N181 N 0.46056 -0.02866 0.12053
 N182 N 0.44743 -0.04893 0.16357
 C183 C 0.42167 -0.06144 0.14001
 C184 C 0.48309 0.06123 0.13973
 N185 N 0.55592 0.02833 0.07392
 N186 N 0.58078 0.04860 0.08411
 N187 N 0.51095 -0.02870 0.12057
 N188 N 0.50372 -0.04907 0.16334
 N189 N 0.52740 -0.02870 0.07366
 N190 N 0.53188 -0.04907 0.08340
 N191 N 0.53942 0.02828 0.12077
 N192 N 0.55252 0.04849 0.16391
 Mn193 Mn 0.49999 -0.00020 0.12136
 C194 C 0.57830 0.06105 0.14046
 C195 C 0.51690 -0.06164 0.13956
 N196 N 0.47267 0.02849 -0.07381
 N197 N 0.46809 0.04878 -0.08388
 N198 N 0.46063 -0.02851 -0.12077
 N199 N 0.44751 -0.04886 -0.16356
 N200 N 0.44417 -0.02854 -0.07383
 N201 N 0.41935 -0.04889 -0.08357
 N202 N 0.48914 0.02848 -0.12066
 N203 N 0.49629 0.04877 -0.16367
 Mn204 Mn 0.45808 -0.00008 -0.00008
 C205 C 0.48305 0.06131 -0.14014
 C206 C 0.42177 -0.06143 -0.13976
 N207 N 0.52745 -0.02863 -0.07380
 N208 N 0.53200 -0.04894 -0.08386
 N209 N 0.53952 0.02842 -0.12054
 N210 N 0.55266 0.04883 -0.16321
 N211 N 0.55595 0.02840 -0.07355
 N212 N 0.58078 0.04877 -0.08314
 N213 N 0.51102 -0.02856 -0.12073
 N214 N 0.50388 -0.04881 -0.16378
 Mn215 Mn 0.54200 -0.00015 0.00005
 Mn216 Mn 0.50008 -0.00004 -0.12142
 Cl217 Cl 0.50004 -0.00012 -0.00003
 C218 C 0.51708 -0.06140 -0.14019
 C219 C 0.57838 0.06138 -0.13928
 C220 C 1.15200 0.48573 0.27913
 C221 C 1.15069 0.46121 0.29704
 C222 C 1.17056 0.46113 0.33884
 C223 C 1.19222 0.48558 0.36336
 C224 C 1.19406 0.51013 0.34319
 C225 C 1.17416 0.51019 0.30165
 C226 C 1.12955 0.48574 0.24070
 C227 C 1.11969 0.50283 0.26118
 C228 C 1.09769 0.50205 0.22774
 C229 C 1.08510 0.48423 0.17286
 C230 C 1.09520 0.46746 0.15137
 C231 C 1.11716 0.46812 0.18520
 H232 H 1.16855 0.44187 0.35340
 H233 H 1.21054 0.52933 0.36090
 H234 H 1.09036 0.51525 0.24539
 H235 H 1.08590 0.45358 0.10908
 H236 H 1.17591 0.52941 0.28784
 H237 H 1.12855 0.51635 0.30434
 H238 H 1.13374 0.44203 0.28093
 H239 H 1.12448 0.45487 0.16797
 C240 C 0.51447 0.66666 0.27887
 C241 C 0.53899 0.68949 0.29811
 C242 C 0.53911 0.70936 0.34028
 C243 C 0.51464 0.70689 0.36411
 C244 C 0.49008 0.68454 0.34214
 C245 C 0.49003 0.66466 0.30028
 C246 C 0.51438 0.64421 0.24019
 C247 C 0.53225 0.64946 0.18528
 C248 C 0.53285 0.62814 0.15132
 C249 C 0.51577 0.60123 0.17214
 C250 C 0.49769 0.59599 0.22642
 C251 C 0.49696 0.61722 0.25995
 H252 H 0.55845 0.72628 0.35560
 H253 H 0.47078 0.68192 0.35865
 H254 H 0.54694 0.63274 0.10951
 H255 H 0.48425 0.57544 0.24352
 H256 H 0.47081 0.64748 0.28533
 H257 H 0.54575 0.67006 0.16865
 H258 H 0.55814 0.69148 0.28274
 H259 H 0.48323 0.61255 0.30263
 C260 C 0.33361 -0.15222 0.27946
 C261 C 0.31047 -0.15083 0.29732
 C262 C 0.29051 -0.17067 0.33913
 C263 C 0.29323 -0.19239 0.36372
 C264 C 0.31587 -0.19431 0.34360
 C265 C 0.33585 -0.17443 0.30205
 C266 C 0.35609 -0.12979 0.24101
 C267 C 0.38302 -0.11999 0.26152
 C268 C 0.40426 -0.09800 0.22807
 C269 C 0.39907 -0.08536 0.17316
 C270 C 0.37222 -0.09541 0.15164
 C271 C 0.35090 -0.11736 0.18548
 H272 H 0.27330 -0.16861 0.35365
 H273 H 0.31854 -0.21083 0.36137
 H274 H 0.42476 -0.09072 0.24574
 H275 H 0.36767 -0.08607 0.10933
 H276 H 0.35327 -0.17624 0.28828
 H277 H 0.38765 -0.12888 0.30471
 H278 H 0.30830 -0.13383 0.28116
 H279 H 0.33035 -0.12463 0.16823
 C280 C 0.84797 0.51438 0.27958
 C281 C 0.84930 0.53891 0.29738
 C282 C 0.82944 0.53901 0.33911
 C283 C 0.80776 0.51457 0.36367
 C284 C 0.80590 0.49001 0.34365
 C285 C 0.82580 0.48993 0.30218
 C286 C 0.87040 0.51434 0.24112
 C287 C 0.88024 0.49722 0.26160
 C288 C 0.90221 0.49797 0.22809
 C289 C 0.91478 0.51578 0.17314
 C290 C 0.90471 0.53258 0.15167
 C291 C 0.88278 0.53196 0.18556
 H292 H 0.83146 0.55828 0.35356
 H293 H 0.78941 0.47082 0.36141
 H294 H 0.90951 0.48475 0.24572
 H295 H 0.91399 0.54646 0.10932
 H296 H 0.82404 0.47070 0.28846
 H297 H 0.87139 0.48370 0.30479
 H298 H 0.86626 0.55808 0.28121
 H299 H 0.87547 0.54522 0.16832
 C300 C 0.48584 0.33390 0.27967
 C301 C 0.46134 0.31070 0.29743
 C302 C 0.46125 0.29071 0.33918
 C303 C 0.48568 0.29347 0.36381
 C304 C 0.51021 0.31619 0.34382
 C305 C 0.51028 0.33619 0.30233
 C306 C 0.48585 0.35637 0.24116
 C307 C 0.50292 0.38334 0.26163
 C308 C 0.50215 0.40456 0.22807
 C309 C 0.48436 0.39933 0.17309
 C310 C 0.46761 0.37246 0.15164
 C311 C 0.46827 0.35115 0.18557
 H312 H 0.44200 0.27346 0.35360
 H313 H 0.52939 0.31890 0.36163
 H314 H 0.51532 0.42508 0.24570
 H315 H 0.45376 0.36787 0.10927
 H316 H 0.52949 0.35367 0.28864
 H317 H 0.51642 0.38799 0.30484
 H318 H 0.44217 0.30848 0.28122
 H319 H 0.45505 0.33058 0.16835
 C320 C 0.66623 0.15182 0.28014
 C321 C 0.66393 0.17399 0.30271
 C322 C 0.68391 0.19392 0.34416
 C323 C 0.70662 0.19208 0.36419
 C324 C 0.70939 0.17040 0.33965
 C325 C 0.68943 0.15051 0.29794
 C326 C 0.64378 0.12938 0.24169
 C327 C 0.64902 0.11701 0.18614
 C328 C 0.62773 0.09506 0.15225
 C329 C 0.60086 0.08495 0.17372
 C330 C 0.59563 0.09752 0.22867
 C331 C 0.61684 0.11950 0.26217
 H332 H 0.68120 0.21040 0.36189
 H333 H 0.72664 0.16839 0.35411
 H334 H 0.63231 0.08578 0.10991
 H335 H 0.57512 0.09019 0.24631
 H336 H 0.69165 0.13355 0.28180
 H337 H 0.66957 0.12434 0.16890
 H338 H 0.64647 0.17574 0.28898
 H339 H 0.61218 0.12835 0.30536
 C340 C 0.48574 0.15216 -0.27953
 C341 C 0.51018 0.17461 -0.30095
 C342 C 0.51014 0.19453 -0.34251
 C343 C 0.48558 0.19241 -0.36419
 C344 C 0.46111 0.17040 -0.34039
 C345 C 0.46123 0.15055 -0.29852
 C346 C 0.48581 0.12973 -0.24104
 C347 C 0.46796 0.11708 -0.18609
 C348 C 0.46734 0.09512 -0.15226
 C349 C 0.48438 0.08526 -0.17324
 C350 C 0.50243 0.09812 -0.22756
 C351 C 0.50319 0.12014 -0.26096
 H352 H 0.52943 0.21122 -0.35902
 H353 H 0.44177 0.16802 -0.35551
 H354 H 0.45327 0.08561 -0.11042
 H355 H 0.51584 0.09099 -0.24478
 H356 H 0.44207 0.13338 -0.28315
 H357 H 0.45450 0.12419 -0.16931
 H358 H 0.52940 0.17658 -0.28620
 H359 H 0.51690 0.12922 -0.30368
 C360 C 0.66639 0.51451 -0.28035
 C361 C 0.66439 0.49006 -0.30172
 C362 C 0.68437 0.49010 -0.34316
 C363 C 0.70681 0.51468 -0.36476
 C364 C 0.70926 0.53915 -0.34103
 C365 C 0.68930 0.53904 -0.29927
 C366 C 0.64390 0.51445 -0.24194
 C367 C 0.64910 0.53230 -0.18700
 C368 C 0.62777 0.53292 -0.15321
 C369 C 0.60090 0.51588 -0.17422
 C370 C 0.59570 0.49783 -0.22854
 C371 C 0.61695 0.49707 -0.26191
 H372 H 0.68176 0.47080 -0.35963
 H373 H 0.72624 0.55851 -0.35609
 H374 H 0.63234 0.54699 -0.11136
 H375 H 0.57518 0.48442 -0.24579
 H376 H 0.69129 0.55821 -0.28394
 H377 H 0.66967 0.54576 -0.17018
 H378 H 0.64715 0.47083 -0.28702
 H379 H 0.61232 0.48336 -0.30461
 C380 C 0.84790 0.33358 -0.27999
 C381 C 0.82547 0.33559 -0.30145
 C382 C 0.80554 0.31560 -0.34288
 C383 C 0.80765 0.29313 -0.36438
 C384 C 0.82966 0.29067 -0.34056
 C385 C 0.84951 0.31064 -0.29881
 C386 C 0.87031 0.35607 -0.24156
 C387 C 0.87990 0.38304 -0.26159
 C388 C 0.90190 0.40430 -0.22821
 C389 C 0.91472 0.39908 -0.17382
 C390 C 0.90487 0.37219 -0.15275
 C391 C 0.88293 0.35085 -0.18655
 H392 H 0.78886 0.31822 -0.35942
 H393 H 0.83203 0.27367 -0.35555
 H394 H 0.90902 0.42483 -0.24551
 H395 H 0.91435 0.36761 -0.11085
 H396 H 0.86667 0.30864 -0.28341
 H397 H 0.87084 0.38768 -0.30435
 H398 H 0.82349 0.35285 -0.28682
 H399 H 0.87582 0.33028 -0.16968
 C400 C 0.51423 -0.15236 -0.27909
 C401 C 0.53874 -0.15107 -0.29669
 C402 C 0.53884 -0.17097 -0.33830
 C403 C 0.51443 -0.19264 -0.36295
 C404 C 0.48988 -0.19446 -0.34308
 C405 C 0.48980 -0.17452 -0.30173
 C406 C 0.51421 -0.12987 -0.24082
 C407 C 0.49717 -0.11997 -0.26156
 C408 C 0.49796 -0.09793 -0.22825
 C409 C 0.51572 -0.08535 -0.17326
 C410 C 0.53244 -0.09550 -0.15154
 C411 C 0.53177 -0.11749 -0.18522
 H412 H 0.55810 -0.16898 -0.35264
 H413 H 0.47071 -0.21093 -0.36091
 H414 H 0.48481 -0.09058 -0.24608
 H415 H 0.54627 -0.08621 -0.10915
 H416 H 0.47058 -0.17624 -0.28816
 H417 H 0.48370 -0.12882 -0.30479
 H418 H 0.55790 -0.13412 -0.28048
 H419 H 0.54497 -0.12485 -0.16779
 C420 C 0.33347 0.48577 -0.27985
 C421 C 0.33545 0.51022 -0.30130
 C422 C 0.31547 0.51016 -0.34279
 C423 C 0.29304 0.48558 -0.36437
 C424 C 0.29060 0.46111 -0.34052
 C425 C 0.31057 0.46124 -0.29871
 C426 C 0.35597 0.48586 -0.24146
 C427 C 0.35080 0.46802 -0.18645
 C428 C 0.37215 0.46740 -0.15273
 C429 C 0.39901 0.48442 -0.17387
 C430 C 0.40418 0.50246 -0.22826
 C431 C 0.38291 0.50322 -0.26156
 H432 H 0.31806 0.52946 -0.35935
 H433 H 0.27363 0.44174 -0.35555
 H434 H 0.36761 0.45334 -0.11082
 H435 H 0.42469 0.51586 -0.24561
 H436 H 0.30859 0.44207 -0.28331
 H437 H 0.33025 0.45456 -0.16954
 H438 H 0.35268 0.52945 -0.28665
 H439 H 0.38752 0.51692 -0.30432
 C440 C 1.15212 0.66653 -0.27932
 C441 C 1.17455 0.66449 -0.30068
 C442 C 1.19448 0.68445 -0.34218
 C443 C 1.19238 0.70692 -0.36387
 C444 C 1.17039 0.70942 -0.34011
 C445 C 1.15054 0.68947 -0.29828
 C446 C 1.12969 0.64403 -0.24094
 C447 C 1.11704 0.64924 -0.18602
 C448 C 1.09506 0.62790 -0.15231
 C449 C 1.08519 0.60101 -0.17340
 C450 C 1.09804 0.59581 -0.22770
 C451 C 1.12008 0.61707 -0.26098
 H452 H 1.21115 0.68182 -0.35867
 H453 H 1.16803 0.72641 -0.35522
 H454 H 1.08556 0.63247 -0.11047
 H455 H 1.09091 0.57528 -0.24500
 H456 H 1.13338 0.69149 -0.28296
 H457 H 1.12416 0.66981 -0.16916
 H458 H 1.17651 0.64723 -0.28594
 H459 H 1.12916 0.61244 -0.30369
 C460 C 0.84722 0.51405 -0.27651
 C461 C 0.84860 0.53861 -0.29421
 C462 C 0.82873 0.53877 -0.33578
 C463 C 0.80702 0.51436 -0.36027
 C464 C 0.80507 0.48976 -0.34013
 C465 C 0.82497 0.48961 -0.29882
 C466 C 0.86973 0.51397 -0.23869
 C467 C 0.87957 0.49693 -0.25989
 C468 C 0.90171 0.49775 -0.22716
 C469 C 0.91444 0.51554 -0.17232
 C470 C 0.90434 0.53222 -0.15010
 C471 C 0.88224 0.53153 -0.18320
 H472 H 0.83081 0.55806 -0.35034
 H473 H 0.78854 0.47059 -0.35784
 H474 H 0.90904 0.48462 -0.24532
 H475 H 0.91375 0.54608 -0.10780
 H476 H 0.82319 0.47037 -0.28513
 H477 H 0.87059 0.48346 -0.30307
 H478 H 0.86563 0.55776 -0.27822
 H479 H 0.87493 0.54472 -0.16547
 C480 C 0.48613 0.33344 -0.27643
 C481 C 0.51055 0.33561 -0.29872
 C482 C 0.51043 0.31556 -0.34001
 C483 C 0.48585 0.29293 -0.36014
 C484 C 0.46144 0.29025 -0.33567
 C485 C 0.46159 0.31027 -0.29411
 C486 C 0.48619 0.35603 -0.23864
 C487 C 0.46863 0.35098 -0.18315
 C488 C 0.46792 0.37238 -0.15010
 C489 C 0.48459 0.39917 -0.17237
 C490 C 0.50238 0.40423 -0.22719
 C491 C 0.50321 0.38290 -0.25988
 H492 H 0.52959 0.31820 -0.35771
 H493 H 0.44217 0.27305 -0.35021
 H494 H 0.45406 0.36794 -0.10780
 H495 H 0.51549 0.42469 -0.24539
 H496 H 0.44245 0.30816 -0.27813
 H497 H 0.45545 0.33047 -0.16539
 H498 H 0.52978 0.35306 -0.28504
 H499 H 0.51668 0.38740 -0.30306
 C500 C 0.66671 0.15269 -0.27592
 C501 C 0.66455 0.17497 -0.29825
 C502 C 0.68458 0.19487 -0.33959
 C503 C 0.70719 0.19289 -0.35974
 C504 C 0.70986 0.17114 -0.33523
 C505 C 0.68985 0.15127 -0.29363
 C506 C 0.64412 0.13018 -0.23809
 C507 C 0.64916 0.11762 -0.18260
 C508 C 0.62777 0.09552 -0.14950
 C509 C 0.60099 0.08545 -0.17173
 C510 C 0.59594 0.09822 -0.22655
 C511 C 0.61726 0.12037 -0.25928
 H512 H 0.68196 0.21142 -0.35731
 H513 H 0.72704 0.16903 -0.34979
 H514 H 0.63220 0.08608 -0.10721
 H515 H 0.57550 0.09091 -0.24471
 H516 H 0.69195 0.13422 -0.27762
 H517 H 0.66965 0.12491 -0.16487
 H518 H 0.64712 0.17678 -0.28455
 H519 H 0.61278 0.12937 -0.30246
 C520 C 1.15254 0.48606 -0.27692
 C521 C 1.17477 0.51050 -0.29927
 C522 C 1.19470 0.51038 -0.34052
 C523 C 1.19277 0.48579 -0.36056
 C524 C 1.17106 0.46137 -0.33607
 C525 C 1.15118 0.46151 -0.29455
 C526 C 1.13003 0.48612 -0.23908
 C527 C 1.11753 0.46854 -0.18356
 C528 C 1.09545 0.46785 -0.15040
 C529 C 1.08535 0.48455 -0.17259
 C530 C 1.09805 0.50235 -0.22746
 C531 C 1.12018 0.50317 -0.26025
 H532 H 1.21122 0.52956 -0.35824
 H533 H 1.16900 0.44209 -0.35055
 H534 H 1.08606 0.45399 -0.10808
 H535 H 1.09072 0.51548 -0.24559
 H536 H 1.13416 0.44235 -0.27853
 H537 H 1.12484 0.45535 -0.16583
 H538 H 1.17654 0.52974 -0.28563
 H539 H 1.12914 0.51665 -0.30345
 C540 C 0.51420 0.66668 -0.27949
 C541 C 0.53875 0.68952 -0.29858
 C542 C 0.53891 0.70945 -0.34063
 C543 C 0.51447 0.70703 -0.36447
 C544 C 0.48988 0.68470 -0.34254
 C545 C 0.48978 0.66475 -0.30081
 C546 C 0.51407 0.64416 -0.24113
 C547 C 0.53188 0.64932 -0.18616
 C548 C 0.53251 0.62794 -0.15258
 C549 C 0.51551 0.60108 -0.17384
 C550 C 0.49747 0.59593 -0.22816
 C551 C 0.49671 0.61722 -0.26133
 H552 H 0.55828 0.72635 -0.35592
 H553 H 0.47060 0.68213 -0.35907
 H554 H 0.54656 0.63246 -0.11071
 H555 H 0.48410 0.57542 -0.24556
 H556 H 0.47055 0.64757 -0.28594
 H557 H 0.54533 0.66987 -0.16922
 H558 H 0.55788 0.69145 -0.28324
 H559 H 0.48303 0.61265 -0.30409
 C560 C 0.33347 -0.15264 -0.27668
 C561 C 0.31030 -0.15126 -0.29426
 C562 C 0.29025 -0.17114 -0.33574
 C563 C 0.29293 -0.19288 -0.36025
 C564 C 0.31558 -0.19482 -0.34026
 C565 C 0.33565 -0.17489 -0.29905
 C566 C 0.35605 -0.13013 -0.23885
 C567 C 0.38292 -0.12028 -0.26005
 C568 C 0.40423 -0.09816 -0.22725
 C569 C 0.39917 -0.08546 -0.17234
 C570 C 0.37239 -0.09557 -0.15012
 C571 C 0.35100 -0.11764 -0.18329
 H572 H 0.27304 -0.16907 -0.35018
 H573 H 0.31822 -0.21136 -0.35800
 H574 H 0.42468 -0.09082 -0.24541
 H575 H 0.36794 -0.08619 -0.10777
 H576 H 0.35311 -0.17668 -0.28546
 H577 H 0.38741 -0.12924 -0.30328
 H578 H 0.30818 -0.13422 -0.27822
 H579 H 0.33051 -0.12496 -0.16554
 C580 C 0.51403 -0.15282 0.27701
 C581 C 0.48961 -0.17508 0.29934
 C582 C 0.48975 -0.19498 0.34076
 C583 C 0.51433 -0.19301 0.36099
 C584 C 0.53873 -0.17127 0.33652
 C585 C 0.53858 -0.15141 0.29484
 C586 C 0.51395 -0.13033 0.23898
 C587 C 0.53153 -0.11783 0.18350
 C588 C 0.53220 -0.09576 0.15019
 C589 C 0.51548 -0.08568 0.17220
 C590 C 0.49768 -0.09839 0.22703
 C591 C 0.49688 -0.12051 0.25997
 H592 H 0.47058 -0.21152 0.35844
 H593 H 0.55800 -0.16918 0.35114
 H594 H 0.54606 -0.08636 0.10790
 H595 H 0.48452 -0.09108 0.24503
 H596 H 0.55771 -0.13437 0.27884
 H597 H 0.54474 -0.12513 0.16592
 H598 H 0.47038 -0.17689 0.28555
 H599 H 0.48339 -0.12947 0.30314
 C600 C 0.33363 0.48600 0.27737
 C601 C 0.31060 0.46143 0.29561
 C602 C 0.29068 0.46128 0.33757
 C603 C 0.29334 0.48571 0.36189
 C604 C 0.31584 0.51030 0.34125
 C605 C 0.33578 0.51043 0.29956
 C606 C 0.35613 0.48610 0.23910
 C607 C 0.38304 0.50326 0.25973
 C608 C 0.40431 0.50250 0.22656
 C609 C 0.39916 0.48464 0.17184
 C610 C 0.37233 0.46781 0.15018
 C611 C 0.35099 0.46845 0.18373
 H612 H 0.27358 0.44199 0.35250
 H613 H 0.31845 0.52948 0.35881
 H614 H 0.42479 0.51573 0.24430
 H615 H 0.36782 0.45390 0.10799
 H616 H 0.35312 0.52968 0.28546
 H617 H 0.38762 0.51680 0.30281
 H618 H 0.30851 0.44228 0.27972
 H619 H 0.33045 0.45516 0.16644
 C620 C 1.15212 0.66631 0.27784
 C621 C 1.17436 0.66410 0.30009
 C622 C 1.19419 0.68402 0.34179
 C623 C 1.19216 0.70658 0.36236
 C624 C 1.17044 0.70931 0.33796
 C625 C 1.15065 0.68940 0.29601
 C626 C 1.12970 0.64383 0.23957
 C627 C 1.11724 0.64902 0.18415
 C628 C 1.09524 0.62768 0.15059
 C629 C 1.08519 0.60084 0.17230
 C630 C 1.09787 0.59564 0.22707
 C631 C 1.11991 0.61689 0.26025
 H632 H 1.21072 0.68136 0.35940
 H633 H 1.16831 0.72645 0.35284
 H634 H 1.08587 0.63223 0.10836
 H635 H 1.09058 0.57514 0.24485
 H636 H 1.13363 0.69153 0.28006
 H637 H 1.12452 0.66957 0.16682
 H638 H 1.17621 0.64672 0.28605
 H639 H 1.12884 0.61229 0.30336
 C640 C 0.48599 0.15226 0.27767
 C641 C 0.51042 0.17451 0.29994
 C642 C 0.51031 0.19435 0.34157
 C643 C 0.48574 0.19234 0.36206
 C644 C 0.46132 0.17062 0.33763
 C645 C 0.46145 0.15082 0.29574
 C646 C 0.48606 0.12982 0.23951
 C647 C 0.46845 0.11736 0.18405
 C648 C 0.46777 0.09533 0.15061
 C649 C 0.48451 0.08524 0.17247
 C650 C 0.50234 0.09791 0.22728
 C651 C 0.50314 0.11998 0.26034
 H652 H 0.52948 0.21088 0.35921
 H653 H 0.44205 0.16850 0.35244
 H654 H 0.45389 0.08596 0.10835
 H655 H 0.51551 0.09058 0.24517
 H656 H 0.44230 0.13379 0.27977
 H657 H 0.45522 0.12467 0.16661
 H658 H 0.52964 0.17635 0.28598
 H659 H 0.51664 0.12892 0.30349
 C660 C 0.66644 0.51433 0.27684
 C661 C 0.66427 0.48988 0.29909
 C662 C 0.68419 0.48999 0.34084
 C663 C 0.70670 0.51457 0.36147
 C664 C 0.70940 0.53901 0.33706
 C665 C 0.68949 0.53889 0.29505
 C666 C 0.64394 0.51426 0.23861
 C667 C 0.64908 0.53191 0.18320
 C668 C 0.62773 0.53258 0.14971
 C669 C 0.60092 0.51580 0.17150
 C670 C 0.59578 0.49793 0.22627
 C671 C 0.61704 0.49713 0.25937
 H672 H 0.68156 0.47079 0.35846
 H673 H 0.72650 0.55829 0.35198
 H674 H 0.63224 0.54649 0.10748
 H675 H 0.57530 0.48473 0.24410
 H676 H 0.69159 0.55805 0.27910
 H677 H 0.66961 0.54517 0.16582
 H678 H 0.64691 0.47064 0.28502
 H679 H 0.61248 0.48360 0.30249
 C680 C 0.84761 0.33348 0.27721
 C681 C 0.82534 0.33565 0.29938
 C682 C 0.80554 0.31572 0.34114
 C683 C 0.80762 0.29320 0.36186
 C684 C 0.82935 0.29050 0.33752
 C685 C 0.84912 0.31042 0.29550
 C686 C 0.87002 0.35599 0.23898
 C687 C 0.88252 0.35084 0.18363
 C688 C 0.90453 0.37220 0.15015
 C689 C 0.91456 0.39904 0.17189
 C690 C 0.90184 0.40419 0.22659
 C691 C 0.87979 0.38291 0.25968
 H692 H 0.78899 0.31836 0.35869
 H693 H 0.83152 0.27339 0.35251
 H694 H 0.91394 0.36769 0.10797
 H695 H 0.90911 0.42468 0.24438
 H696 H 0.86616 0.30831 0.27962
 H697 H 0.87527 0.33030 0.16629
 H698 H 0.82346 0.35302 0.28524
 H699 H 0.87082 0.38748 0.30275
   
