data_POSCAR
  _audit_creation_date              2014-09-24
  _audit_creation_method            'ToBaCCo'
  _symmetry_space_group_name_H-M    'P1'
  _symmetry_Int_Tables_number       1
  _symmetry_cell_setting            triclinic
  loop_
  _symmetry_equiv_pos_as_xyz
 x,y,z
_cell_length_a 33.4201
_cell_length_b 42.1628
_cell_length_c 35.1077
_cell_angle_alpha 90.016400
_cell_angle_beta 90.088200
_cell_angle_gamma 84.433500
loop_
  _atom_site_label
  _atom_site_type_symbol
  _atom_site_fract_x
  _atom_site_fract_y
  _atom_site_fract_z
C1 C 1.22534 0.22571 0.19770
 C2 C 1.24747 0.24932 0.17469
 C3 C 1.26878 0.26867 0.19643
 C4 C 1.26587 0.26240 0.23977
 C5 C 1.25771 0.20764 0.22219
 C6 C 1.27866 0.22654 0.24444
 C7 C 1.19947 0.24659 0.22577
 C8 C 1.22037 0.26583 0.24772
 H9 H 1.24561 0.25093 0.14394
 H10 H 1.28325 0.27785 0.25777
 H11 H 1.26210 0.18184 0.22343
 H12 H 1.16709 0.24682 0.22738
 C13 C 0.72822 -0.27494 0.19496
 C14 C 0.74956 -0.25111 0.17161
 C15 C 0.77063 -0.23143 0.19309
 C16 C 0.76841 -0.23767 0.23644
 C17 C 0.76116 -0.29263 0.21920
 C18 C 0.78186 -0.27336 0.24120
 C19 C 0.70231 -0.25432 0.22324
 C20 C 0.72310 -0.23485 0.24491
 H21 H 0.74719 -0.24948 0.14089
 H22 H 0.78564 -0.22195 0.25422
 H23 H 0.76553 -0.31840 0.22106
 H24 H 0.67004 -0.25460 0.22545
 C25 C 0.72279 0.22839 -0.30903
 C26 C 0.74441 0.25134 -0.32932
 C27 C 0.76831 0.26955 -0.30501
 C28 C 0.76572 0.26088 -0.26432
 C29 C 0.75331 0.20886 -0.28794
 C30 C 0.77663 0.22627 -0.26260
 C31 C 0.69926 0.24705 -0.28042
 C32 C 0.72258 0.26515 -0.25580
 H33 H 0.74164 0.25509 -0.35980
 H34 H 0.78426 0.27463 -0.24528
 H35 H 0.75579 0.18301 -0.28879
 H36 H 0.66673 0.24898 -0.27921
 C37 C 1.22859 -0.27469 -0.30263
 C38 C 1.25066 -0.25113 -0.32569
 C39 C 1.27175 -0.23167 -0.30391
 C40 C 1.26872 -0.23776 -0.26061
 C41 C 1.26093 -0.29263 -0.27796
 C42 C 1.28165 -0.27351 -0.25578
 C43 C 1.20255 -0.25381 -0.27474
 C44 C 1.22326 -0.23448 -0.25284
 H45 H 1.24893 -0.24961 -0.35645
 H46 H 1.28592 -0.22218 -0.24260
 H47 H 1.26540 -0.31841 -0.27650
 H48 H 1.17018 -0.25365 -0.27315
 C49 C 0.22929 0.22575 0.80429
 C50 C 0.25044 0.24798 0.82618
 C51 C 0.27278 0.26827 0.80336
 C52 C 0.26968 0.26229 0.76231
 C53 C 0.20326 0.24656 0.77614
 C54 C 0.22414 0.26576 0.75419
 C55 C 0.26134 0.20747 0.77956
 C56 C 0.28225 0.22640 0.75732
 H57 H 0.24862 0.24957 0.85695
 H58 H 0.28692 0.27759 0.74401
 H59 H 0.17088 0.24679 0.77445
 H60 H 0.26543 0.18168 0.77810
 C61 C 0.72240 0.72809 0.80874
 C62 C 0.74411 0.75100 0.82912
 C63 C 0.76807 0.76918 0.80490
 C64 C 0.76545 0.76052 0.76420
 C65 C 0.69894 0.74681 0.78008
 C66 C 0.72231 0.76488 0.75555
 C67 C 0.75288 0.70853 0.78771
 C68 C 0.77627 0.72590 0.76247
 H69 H 0.74133 0.75475 0.85959
 H70 H 0.78403 0.77423 0.74522
 H71 H 0.66639 0.74884 0.77881
 H72 H 0.75533 0.68268 0.78858
 C73 C 0.72854 0.22501 0.30484
 C74 C 0.74983 0.24892 0.32818
 C75 C 0.77087 0.26857 0.30672
 C76 C 0.76864 0.26224 0.26337
 C77 C 0.70259 0.24555 0.27644
 C78 C 0.72335 0.26500 0.25478
 C79 C 0.76150 0.20731 0.28072
 C80 C 0.78216 0.22656 0.25873
 H81 H 0.74749 0.25059 0.35890
 H82 H 0.78585 0.27795 0.24561
 H83 H 0.67033 0.24522 0.27414
 H84 H 0.76590 0.18154 0.27890
 C85 C 0.22579 0.72542 0.30233
 C86 C 0.24806 0.74902 0.32529
 C87 C 0.26930 0.76835 0.30352
 C88 C 0.26621 0.76203 0.26018
 C89 C 0.19982 0.74630 0.27426
 C90 C 0.22066 0.76551 0.25227
 C91 C 0.25802 0.70729 0.27780
 C92 C 0.27891 0.72614 0.25550
 H93 H 0.24626 0.75069 0.35603
 H94 H 0.28354 0.77745 0.24215
 H95 H 0.16743 0.74657 0.27269
 H96 H 0.26232 0.68150 0.27655
 N97 N 1.07032 0.02190 0.03894
 N98 N 1.09739 0.04239 0.04334
 N99 N 1.03472 -0.03978 0.06504
 N100 N 1.04144 -0.06100 0.09252
 N101 N 1.06303 -0.04371 0.03909
 N102 N 1.08989 -0.06749 0.04838
 N103 N 1.04221 0.02624 0.06497
 N104 N 1.04922 0.04999 0.08776
 C105 C 1.08380 0.05969 0.07391
 C106 C 1.07563 -0.07835 0.08142
 N107 N 0.92045 -0.02257 0.03779
 N108 N 0.89270 -0.04246 0.04311
 N109 N 0.95643 0.03885 0.06440
 N110 N 0.95291 0.06157 0.09020
 N111 N 0.92832 0.04364 0.03825
 N112 N 0.90471 0.06998 0.04585
 N113 N 0.94833 -0.02666 0.06426
 N114 N 0.94020 -0.04910 0.08841
 Mn115 Mn 0.99536 -0.00039 0.06500
 C116 C 0.90551 -0.05878 0.07485
 C117 C 0.92088 0.08096 0.07825
 N118 N 1.06349 -0.04362 -0.04289
 N119 N 1.09017 -0.06770 -0.05134
 N120 N 1.04325 0.02628 -0.06911
 N121 N 1.05070 0.05016 -0.09148
 N122 N 1.07089 0.02181 -0.04255
 N123 N 1.09804 0.04228 -0.04617
 N124 N 1.03570 -0.03967 -0.06944
 N125 N 1.04258 -0.06120 -0.09651
 Mn126 Mn 1.06722 -0.01100 -0.00187
 C127 C 1.07631 -0.07870 -0.08450
 C128 C 1.08504 0.05973 -0.07679
 N129 N 0.92896 0.04384 -0.04470
 N130 N 0.90525 0.07007 -0.05273
 N131 N 0.94923 -0.02670 -0.07079
 N132 N 0.94127 -0.04909 -0.09522
 N133 N 0.92099 -0.02258 -0.04475
 N134 N 0.89326 -0.04242 -0.05059
 N135 N 0.95727 0.03898 -0.07057
 N136 N 0.95358 0.06143 -0.09674
 Mn137 Mn 0.92404 0.01072 -0.00336
 Mn138 Mn 0.99635 -0.00033 -0.07034
 Cl139 Cl 0.99561 -0.00032 -0.00265
 C140 C 0.92142 0.08089 -0.08518
 C141 C 0.90632 -0.05875 -0.08224
 N142 N 1.07126 0.52153 0.54293
 N143 N 1.09836 0.54202 0.54665
 N144 N 1.03606 0.46002 0.56952
 N145 N 1.04315 0.43860 0.59671
 N146 N 1.06385 0.45612 0.54305
 N147 N 1.09072 0.43218 0.55169
 N148 N 1.04365 0.52593 0.56944
 N149 N 1.05104 0.54979 0.59188
 C150 C 1.08534 0.55940 0.57729
 C151 C 1.07699 0.42121 0.58487
 N152 N 0.92132 0.47735 0.54462
 N153 N 0.89346 0.45764 0.55043
 N154 N 0.95769 0.53878 0.57077
 N155 N 0.95394 0.56112 0.59711
 N156 N 0.92940 0.54375 0.54483
 N157 N 0.90566 0.56992 0.55295
 N158 N 0.94959 0.47313 0.57069
 N159 N 0.94155 0.45081 0.59511
 Mn160 Mn 0.99674 0.49942 0.57046
 C161 C 0.90651 0.44129 0.58210
 C162 C 0.92178 0.58062 0.58553
 N163 N 1.06325 0.45629 0.46104
 N164 N 1.09005 0.43248 0.45175
 N165 N 1.04253 0.52631 0.43536
 N166 N 1.04960 0.55005 0.41260
 N167 N 1.07066 0.52190 0.46144
 N168 N 1.09782 0.54232 0.45708
 N169 N 1.03493 0.46031 0.43503
 N170 N 1.04156 0.43913 0.40751
 Mn171 Mn 1.06756 0.48887 0.50213
 C172 C 1.07572 0.42171 0.41865
 C173 C 1.08425 0.55967 0.42651
 N174 N 0.92867 0.54376 0.46187
 N175 N 0.90497 0.57005 0.45423
 N176 N 0.94856 0.47351 0.43566
 N177 N 0.94041 0.45108 0.41146
 N178 N 0.92072 0.47756 0.46208
 N179 N 0.89297 0.45767 0.45669
 N180 N 0.95675 0.53901 0.43578
 N181 N 0.95314 0.56172 0.40998
 Mn182 Mn 0.92439 0.51075 0.50335
 Mn183 Mn 0.99564 0.49974 0.43513
 Cl184 Cl 0.99595 0.49962 0.50278
 C185 C 0.92107 0.58107 0.42187
 C186 C 0.90574 0.44139 0.42494
 N187 N 0.57489 0.02027 0.54086
 N188 N 0.60063 0.04198 0.54352
 N189 N 0.54034 -0.04158 0.56799
 N190 N 0.54747 -0.06279 0.59543
 N191 N 0.56839 -0.04543 0.54177
 N192 N 0.59556 -0.06906 0.55091
 N193 N 0.54707 0.02462 0.56720
 N194 N 0.55299 0.04959 0.58842
 C195 C 0.58666 0.05997 0.57339
 C196 C 0.58170 -0.07997 0.58410
 N197 N 0.42568 -0.02510 0.54193
 N198 N 0.39809 -0.04502 0.54754
 N199 N 0.46113 0.03667 0.56775
 N200 N 0.45737 0.05950 0.59345
 N201 N 0.43285 0.04111 0.54174
 N202 N 0.40894 0.06729 0.54924
 N203 N 0.45380 -0.02900 0.56819
 N204 N 0.44595 -0.05141 0.59254
 Mn205 Mn 0.50056 -0.00239 0.56815
 C206 C 0.41118 -0.06119 0.57923
 C207 C 0.42504 0.07858 0.58148
 N208 N 0.56768 -0.04582 0.45965
 N209 N 0.59428 -0.06992 0.45097
 N210 N 0.54642 0.02393 0.43321
 N211 N 0.55325 0.04782 0.41060
 N212 N 0.57446 0.01971 0.45941
 N213 N 0.60128 0.04038 0.45532
 N214 N 0.53943 -0.04208 0.43353
 N215 N 0.54584 -0.06377 0.40660
 Mn216 Mn 0.57167 -0.01293 0.50042
 C217 C 0.57981 -0.08114 0.41817
 C218 C 0.58766 0.05766 0.42478
 N219 N 0.43236 0.04080 0.45896
 N220 N 0.40828 0.06686 0.45126
 N221 N 0.45303 -0.02958 0.43320
 N222 N 0.44478 -0.05191 0.40884
 N223 N 0.42512 -0.02553 0.45954
 N224 N 0.39725 -0.04529 0.45394
 N225 N 0.46039 0.03619 0.43281
 N226 N 0.45624 0.05876 0.40678
 Mn227 Mn 0.42841 0.00794 0.50056
 Mn228 Mn 0.49981 -0.00293 0.43282
 Cl229 Cl 0.50000 -0.00265 0.50049
 C230 C 0.42394 0.07789 0.41874
 C231 C 0.40999 -0.06157 0.42218
 N232 N 0.57403 0.51959 0.04013
 N233 N 0.60079 0.54032 0.04427
 N234 N 0.53943 0.45767 0.06602
 N235 N 0.54592 0.43593 0.09288
 N236 N 0.56764 0.45401 0.03992
 N237 N 0.59429 0.42992 0.04856
 N238 N 0.54605 0.52374 0.06632
 N239 N 0.55286 0.54763 0.08896
 C240 C 0.58719 0.55757 0.07482
 C241 C 0.57990 0.41862 0.08131
 N242 N 0.42505 0.47375 0.03993
 N243 N 0.39724 0.45399 0.04559
 N244 N 0.45998 0.53566 0.06666
 N245 N 0.45570 0.55820 0.09273
 N246 N 0.43184 0.54013 0.04052
 N247 N 0.40754 0.56605 0.04828
 N248 N 0.45302 0.46983 0.06631
 N249 N 0.44487 0.44758 0.09076
 Mn250 Mn 0.49962 0.49669 0.06669
 C251 C 0.41008 0.43783 0.07742
 C252 C 0.42319 0.57717 0.08083
 N253 N 0.56814 0.45435 -0.04220
 N254 N 0.59539 0.43078 -0.05126
 N255 N 0.54639 0.52434 -0.06768
 N256 N 0.55226 0.54925 -0.08903
 N257 N 0.57426 0.52011 -0.04132
 N258 N 0.59998 0.54182 -0.04405
 N259 N 0.54003 0.45807 -0.06844
 N260 N 0.54719 0.43684 -0.09584
 Mn261 Mn 0.57133 0.48690 -0.00086
 C262 C 0.58152 0.41978 -0.08444
 C263 C 0.58594 0.55971 -0.07401
 N264 N 0.43219 0.54033 -0.04224
 N265 N 0.40854 0.56673 -0.04934
 N266 N 0.45340 0.47028 -0.06877
 N267 N 0.44558 0.44788 -0.09319
 N268 N 0.42541 0.47400 -0.04246
 N269 N 0.39800 0.45389 -0.04805
 N270 N 0.46041 0.53601 -0.06824
 N271 N 0.45687 0.55913 -0.09355
 Mn272 Mn 0.42802 0.50717 -0.00109
 Mn273 Mn 0.50003 0.49712 -0.06867
 Cl274 Cl 0.49963 0.49689 -0.00098
 C275 C 0.42470 0.57824 -0.08135
 C276 C 0.41101 0.43783 -0.07984
 C277 C 1.16262 0.15948 0.13755
 N278 N 1.14377 0.17855 0.16441
 N279 N 1.16321 0.20018 0.18243
 C280 C 1.20228 0.20364 0.17434
 N281 N 1.22108 0.18471 0.14717
 N282 N 1.20155 0.16308 0.12900
 C283 C 1.14170 0.13427 0.11984
 N284 N 1.15918 0.11595 0.09150
 N285 N 1.14055 0.09229 0.07663
 C286 C 1.10396 0.08600 0.08978
 N287 N 1.08645 0.10434 0.11803
 N288 N 1.10498 0.12808 0.13277
 C289 C 1.16525 0.65937 0.63785
 N290 N 1.14647 0.67897 0.66419
 N291 N 1.16620 0.70050 0.68197
 C292 C 1.20547 0.70330 0.67419
 N293 N 1.22421 0.68389 0.64745
 N294 N 1.20439 0.66233 0.62950
 C295 C 1.14403 0.63419 0.62081
 N296 N 1.16120 0.61538 0.59279
 N297 N 1.14225 0.59162 0.57867
 C298 C 1.10573 0.58574 0.59234
 N299 N 1.08853 0.60457 0.62028
 N300 N 1.10736 0.62842 0.63424
 C301 C 0.66005 0.16523 0.62971
 N302 N 0.64157 0.18344 0.65753
 N303 N 0.66103 0.20489 0.67583
 C304 C 0.69978 0.20917 0.66711
 N305 N 0.71796 0.19130 0.63857
 N306 N 0.69843 0.16980 0.62017
 C307 C 0.63995 0.13911 0.61310
 N308 N 0.65785 0.12042 0.58529
 N309 N 0.64061 0.09533 0.57232
 C310 C 0.60510 0.08793 0.58696
 N311 N 0.58710 0.10670 0.61457
 N312 N 0.60424 0.13184 0.62741
 C313 C 0.66549 0.65830 0.13607
 N314 N 0.64673 0.67753 0.16279
 N315 N 0.66621 0.69932 0.18040
 C316 C 0.70520 0.70277 0.17203
 N317 N 0.72390 0.68371 0.14494
 N318 N 0.70433 0.66190 0.12718
 C319 C 0.64462 0.63288 0.11899
 N320 N 0.66198 0.61440 0.09075
 N321 N 0.64344 0.59048 0.07648
 C322 C 0.60711 0.58409 0.09017
 N323 N 0.58971 0.60259 0.11832
 N324 N 0.60815 0.62660 0.13245
 C325 C 0.82750 -0.15714 0.14374
 N326 N 0.80141 -0.17310 0.12332
 N327 N 0.78363 -0.19678 0.13906
 C328 C 0.79101 -0.20537 0.17589
 N329 N 0.81699 -0.18930 0.19642
 N330 N 0.83504 -0.16571 0.18058
 C331 C 0.84737 -0.13122 0.12604
 N332 N 0.87835 -0.11875 0.14383
 N333 N 0.89674 -0.09564 0.12744
 C334 C 0.88468 -0.08399 0.09278
 N335 N 0.85357 -0.09631 0.07504
 N336 N 0.83535 -0.11958 0.09132
 C337 C 0.82738 0.34265 0.65008
 N338 N 0.80394 0.32566 0.62799
 N339 N 0.78539 0.30197 0.64270
 C340 C 0.78910 0.29429 0.68023
 N341 N 0.81258 0.31136 0.70249
 N342 N 0.83153 0.33498 0.68764
 C343 C 0.84765 0.36882 0.63306
 N344 N 0.87791 0.38173 0.65155
 N345 N 0.89659 0.40483 0.63532
 C346 C 0.88551 0.41607 0.60017
 N347 N 0.85509 0.40332 0.58183
 N348 N 0.83667 0.38006 0.59790
 C349 C 0.33148 -0.15869 0.64758
 N350 N 0.30517 -0.17415 0.62682
 N351 N 0.28646 -0.19744 0.64231
 C352 C 0.29311 -0.20608 0.67921
 N353 N 0.31933 -0.19051 0.70008
 N354 N 0.33831 -0.16732 0.68449
 C355 C 0.35208 -0.13311 0.63011
 N356 N 0.38325 -0.12103 0.64807
 N357 N 0.40211 -0.09812 0.63179
 C358 C 0.39031 -0.08633 0.59713
 N359 N 0.35905 -0.09829 0.57926
 N360 N 0.34037 -0.12135 0.59540
 C361 C 0.32903 0.34132 0.14718
 N362 N 0.30243 0.32592 0.12669
 N363 N 0.28356 0.30281 0.14243
 C364 C 0.29027 0.29425 0.17937
 N365 N 0.31676 0.30977 0.20000
 N366 N 0.33591 0.33279 0.18415
 C367 C 0.34996 0.36668 0.12933
 N368 N 0.38134 0.37869 0.14705
 N369 N 0.40049 0.40132 0.13045
 C370 C 0.38882 0.41293 0.09565
 N371 N 0.35734 0.40104 0.07801
 N372 N 0.33838 0.37827 0.09449
 C373 C 0.84712 0.17439 -0.18379
 N374 N 0.83568 0.20580 -0.17728
 N375 N 0.81426 0.22335 -0.20336
 C376 C 0.80288 0.20986 -0.23642
 N377 N 0.81477 0.17858 -0.24263
 N378 N 0.83675 0.16135 -0.21715
 C379 C 0.86979 0.15375 -0.15588
 N380 N 0.89905 0.13182 -0.16863
 N381 N 0.91608 0.10949 -0.14545
 C382 C 0.90398 0.10766 -0.10874
 N383 N 0.87480 0.12970 -0.09567
 N384 N 0.85804 0.15243 -0.11886
 C385 C 0.85147 0.67745 0.32444
 N386 N 0.86120 0.67415 0.28703
 N387 N 0.84038 0.69132 0.26060
 C388 C 0.80955 0.71297 0.27061
 N389 N 0.80028 0.71688 0.30810
 N390 N 0.82084 0.69936 0.33459
 C391 C 0.87148 0.65522 0.35233
 N392 N 0.85482 0.65029 0.38691
 N393 N 0.87091 0.62721 0.40992
 C394 C 0.90426 0.60838 0.39907
 N395 N 0.92117 0.61379 0.36489
 N396 N 0.90503 0.63662 0.34191
 C397 C 0.35115 0.17545 0.32424
 N398 N 0.35942 0.17289 0.28647
 N399 N 0.33773 0.19071 0.26118
 C400 C 0.30745 0.21230 0.27269
 N401 N 0.29964 0.21545 0.31055
 N402 N 0.32108 0.19730 0.33590
 C403 C 0.37203 0.15257 0.35100
 N404 N 0.35694 0.14758 0.38623
 N405 N 0.37379 0.12426 0.40847
 C406 C 0.40636 0.10520 0.39624
 N407 N 0.42171 0.11058 0.36135
 N408 N 0.40480 0.13368 0.33912
 C409 C 0.35379 0.67663 -0.17501
 N410 N 0.32289 0.69789 -0.16380
 N411 N 0.30147 0.71567 -0.18948
 C412 C 0.31014 0.71268 -0.22717
 N413 N 0.34126 0.69171 -0.23824
 N414 N 0.36292 0.67427 -0.21261
 C415 C 0.37441 0.65389 -0.14809
 N416 N 0.40776 0.63551 -0.15949
 N417 N 0.42423 0.61214 -0.13743
 C418 C 0.40781 0.60602 -0.10323
 N419 N 0.37471 0.62464 -0.09140
 N420 N 0.35830 0.64822 -0.11348
 C421 C 1.16229 -0.16990 -0.17770
 N422 N 1.14229 -0.18454 -0.20512
 N423 N 1.16195 -0.20508 -0.22877
 C424 C 1.20242 -0.21163 -0.22618
 N425 N 1.22262 -0.19688 -0.19883
 N426 N 1.20283 -0.17640 -0.17488
 C427 C 1.13999 -0.14696 -0.15248
 N428 N 1.15746 -0.13546 -0.12110
 N429 N 1.13680 -0.11417 -0.09883
 C430 C 1.09813 -0.10361 -0.10730
 N431 N 1.08071 -0.11514 -0.13859
 N432 N 1.10122 -0.13658 -0.16066
 C433 C 1.16032 0.33072 0.32346
 N434 N 1.13995 0.31608 0.29628
 N435 N 1.15927 0.29544 0.27247
 C436 C 1.19977 0.28876 0.27462
 N437 N 1.22032 0.30351 0.30174
 N438 N 1.20088 0.32408 0.32584
 C439 C 1.13841 0.35376 0.34907
 N440 N 1.15637 0.36512 0.38027
 N441 N 1.13610 0.38633 0.40296
 C442 C 1.09730 0.39700 0.39513
 N443 N 1.07939 0.38563 0.36399
 N444 N 1.09952 0.36426 0.34150
 C445 C 0.66353 -0.17192 0.32280
 N446 N 0.64287 -0.18662 0.29589
 N447 N 0.66206 -0.20666 0.27135
 C448 C 0.70267 -0.21261 0.27250
 N449 N 0.72350 -0.19783 0.29937
 N450 N 0.70421 -0.17785 0.32419
 C451 C 0.64180 -0.14932 0.34883
 N452 N 0.66022 -0.13760 0.37954
 N453 N 0.64014 -0.11640 0.40236
 C454 C 0.60110 -0.10615 0.39509
 N455 N 0.58271 -0.11794 0.36450
 N456 N 0.60265 -0.13928 0.34190
 C457 C 0.66593 0.32777 -0.17853
 N458 N 0.64464 0.31040 -0.20218
 N459 N 0.66330 0.28993 -0.22655
 C460 C 0.70405 0.28610 -0.22869
 N461 N 0.72554 0.30343 -0.20484
 N462 N 0.70678 0.32384 -0.18008
 C463 C 0.64436 0.35115 -0.15308
 N464 N 0.66313 0.36432 -0.12353
 N465 N 0.64289 0.38578 -0.10107
 C466 C 0.60336 0.39495 -0.10761
 N467 N 0.58471 0.38181 -0.13715
 N468 N 0.60478 0.36017 -0.15931
 C469 C 1.16552 0.15977 -0.13664
 N470 N 1.20478 0.16241 -0.12838
 N471 N 1.22472 0.18399 -0.14608
 C472 C 1.20598 0.20382 -0.17248
 N473 N 1.16657 0.20135 -0.18015
 N474 N 1.14673 0.17977 -0.16262
 C475 C 1.14415 0.13453 -0.11985
 N476 N 1.10738 0.12895 -0.13334
 N477 N 1.08842 0.10510 -0.11956
 C478 C 1.10558 0.08607 -0.09174
 N479 N 1.14221 0.09175 -0.07802
 N480 N 1.16128 0.11551 -0.09195
 C481 C 1.16321 0.65924 0.36261
 N482 N 1.20219 0.66281 0.37111
 N483 N 1.22167 0.68442 0.35290
 C484 C 1.20278 0.70336 0.32573
 N485 N 1.16367 0.69993 0.31770
 N486 N 1.14427 0.67832 0.33576
 C487 C 1.14229 0.63407 0.38039
 N488 N 1.10548 0.62794 0.36753
 N489 N 1.08692 0.60427 0.38233
 C490 C 1.10448 0.58593 0.41060
 N491 N 1.14116 0.59215 0.42370
 N492 N 1.15983 0.61575 0.40875
 C493 C 0.66591 0.15835 0.36375
 N494 N 0.70479 0.16192 0.37264
 N495 N 0.72434 0.18370 0.35486
 C496 C 0.70557 0.20276 0.32777
 N497 N 0.66654 0.19935 0.31941
 N498 N 0.64708 0.17759 0.33702
 C499 C 0.64507 0.13295 0.38080
 N500 N 0.60855 0.12672 0.36731
 N501 N 0.59012 0.10271 0.38139
 C502 C 0.60759 0.08417 0.40950
 N503 N 0.64397 0.09050 0.42321
 N504 N 0.66250 0.11443 0.40899
 C505 C 0.65953 0.66481 -0.13050
 N506 N 0.69782 0.66950 -0.12063
 N507 N 0.71738 0.69104 -0.13886
 C508 C 0.69931 0.70886 -0.16754
 N509 N 0.66065 0.70444 -0.17662
 N510 N 0.64117 0.68295 -0.15848
 C511 C 0.63938 0.63869 -0.11394
 N512 N 0.60372 0.63135 -0.12842
 N513 N 0.58653 0.60626 -0.11553
 C514 C 0.60442 0.58762 -0.08770
 N515 N 0.63988 0.59509 -0.07292
 N516 N 0.65718 0.62012 -0.08593
 C517 C 0.82734 -0.15774 -0.15010
 N518 N 0.80391 -0.17470 -0.12803
 N519 N 0.78530 -0.19839 -0.14276
 C520 C 0.78894 -0.20610 -0.18028
 N521 N 0.81241 -0.18906 -0.20251
 N522 N 0.83141 -0.16544 -0.18765
 C523 C 0.84763 -0.13151 -0.13308
 N524 N 0.87779 -0.11856 -0.15159
 N525 N 0.89643 -0.09538 -0.13540
 C526 C 0.88542 -0.08410 -0.10028
 N527 N 0.85510 -0.09690 -0.08192
 N528 N 0.83672 -0.12024 -0.09795
 C529 C 0.82773 0.34296 0.35601
 N530 N 0.80167 0.32703 0.37642
 N531 N 0.78388 0.30331 0.36069
 C532 C 0.79124 0.29466 0.32389
 N533 N 0.81718 0.31070 0.30338
 N534 N 0.83524 0.33433 0.31921
 C535 C 0.84760 0.36890 0.37371
 N536 N 0.87854 0.38136 0.35595
 N537 N 0.89694 0.40449 0.37235
 C538 C 0.88492 0.41617 0.40698
 N539 N 0.85384 0.40386 0.42469
 N540 N 0.83561 0.38056 0.40839
 C541 C 0.32921 -0.15859 0.35265
 N542 N 0.33605 -0.16719 0.31571
 N543 N 0.31703 -0.19034 0.29990
 C544 C 0.29071 -0.20594 0.32055
 N545 N 0.28403 -0.19732 0.35747
 N546 N 0.30278 -0.17408 0.37316
 C547 C 0.35002 -0.13307 0.37045
 N548 N 0.33845 -0.12140 0.40525
 N549 N 0.35733 -0.09851 0.42166
 C550 C 0.38872 -0.08658 0.40401
 N551 N 0.40037 -0.09827 0.36927
 N552 N 0.38130 -0.12101 0.35273
 C553 C 0.33197 0.33978 -0.14852
 N554 N 0.33490 0.33382 -0.18651
 N555 N 0.31583 0.31069 -0.20224
 C556 C 0.29345 0.29242 -0.18052
 N557 N 0.29091 0.29834 -0.14249
 N558 N 0.30960 0.32160 -0.12684
 C559 C 0.35240 0.36548 -0.13091
 N560 N 0.34231 0.37585 -0.09524
 N561 N 0.36076 0.39905 -0.07905
 C562 C 0.39027 0.41255 -0.09781
 N563 N 0.40048 0.40213 -0.13343
 N564 N 0.38176 0.37912 -0.14977
 C565 C 1.16043 -0.16951 0.17654
 N566 N 1.20100 -0.17614 0.17421
 N567 N 1.22047 -0.19674 0.19831
 C568 C 1.19999 -0.21155 0.22535
 N569 N 1.15949 -0.20488 0.22745
 N570 N 1.14012 -0.18421 0.20365
 C571 C 1.13847 -0.14642 0.15095
 N572 N 1.09957 -0.13595 0.15845
 N573 N 1.07940 -0.11455 0.13598
 C574 C 1.09727 -0.10309 0.10492
 N575 N 1.13608 -0.11372 0.09716
 N576 N 1.15638 -0.13498 0.11983
 C577 C 1.16334 0.33037 0.67871
 N578 N 1.20390 0.32388 0.67610
 N579 N 1.22364 0.30339 0.70014
 C580 C 1.20339 0.28862 0.72738
 N581 N 1.16291 0.29519 0.72976
 N582 N 1.14330 0.31572 0.70602
 C583 C 1.14102 0.35330 0.65335
 N584 N 1.10220 0.36359 0.66134
 N585 N 1.08161 0.38492 0.63913
 C586 C 1.09899 0.39645 0.60787
 N587 N 1.13772 0.38598 0.59959
 N588 N 1.15846 0.36479 0.62201
 C589 C 0.66583 -0.17222 0.67833
 N590 N 0.70668 -0.17627 0.67996
 N591 N 0.72538 -0.19677 0.70470
 C592 C 0.70383 -0.21407 0.72846
 N593 N 0.66308 -0.21012 0.72624
 N594 N 0.64448 -0.18956 0.70189
 C595 C 0.64433 -0.14875 0.65287
 N596 N 0.60480 -0.13960 0.65904
 N597 N 0.58479 -0.11790 0.63685
 C598 C 0.60347 -0.10484 0.60733
 N599 N 0.64296 -0.11415 0.60086
 N600 N 0.66312 -0.13566 0.62334
 C601 C 0.66371 0.32774 0.17662
 N602 N 0.70440 0.32191 0.17542
 N603 N 0.72371 0.30199 0.20032
 C604 C 0.70289 0.28715 0.22707
 N605 N 0.66226 0.29298 0.22802
 N606 N 0.64306 0.31297 0.20340
 C607 C 0.64195 0.35034 0.15056
 N608 N 0.60279 0.36029 0.15736
 N609 N 0.58283 0.38167 0.13478
 C610 C 0.60122 0.39357 0.10432
 N611 N 0.64028 0.38340 0.09717
 N612 N 0.66039 0.36216 0.11998
 C613 C 0.85167 0.17742 0.17558
 N614 N 0.86138 0.17403 0.21301
 N615 N 0.84059 0.19118 0.23942
 C616 C 0.80981 0.21289 0.22938
 N617 N 0.80057 0.21689 0.19187
 N618 N 0.82109 0.19939 0.16540
 C619 C 0.87160 0.15519 0.14770
 N620 N 0.85486 0.15028 0.11309
 N621 N 0.87087 0.12718 0.09010
 C622 C 0.90419 0.10831 0.10100
 N623 N 0.92117 0.11370 0.13521
 N624 N 0.90513 0.13655 0.15816
 C625 C 0.84707 0.67392 0.68410
 N626 N 0.83650 0.66090 0.71737
 N627 N 0.81441 0.67815 0.74270
 C628 C 0.80261 0.70944 0.73645
 N629 N 0.81418 0.72291 0.70348
 N630 N 0.83571 0.70534 0.67755
 C631 C 0.86984 0.65325 0.65632
 N632 N 0.85845 0.65217 0.61914
 N633 N 0.87532 0.62951 0.59595
 C634 C 0.90424 0.60729 0.60918
 N635 N 0.91597 0.60887 0.64606
 N636 N 0.89883 0.63113 0.66923
 C637 C 0.35364 0.17602 0.67643
 N638 N 0.36261 0.17333 0.71407
 N639 N 0.34120 0.19089 0.73973
 C640 C 0.31053 0.21232 0.72869
 N641 N 0.30201 0.21561 0.69096
 N642 N 0.32316 0.19772 0.66524
 C643 C 0.37421 0.15336 0.64935
 N644 N 0.35831 0.14814 0.61447
 N645 N 0.37484 0.12481 0.59209
 C646 C 0.40786 0.10601 0.60386
 N647 N 0.42402 0.11167 0.63836
 N648 N 0.40744 0.13477 0.66073
 C649 C 0.35055 0.67468 0.17549
 N650 N 0.35924 0.67232 0.21322
 N651 N 0.33784 0.69026 0.23855
 C652 C 0.30742 0.71180 0.22712
 N653 N 0.29917 0.71474 0.18930
 N654 N 0.32034 0.69647 0.16391
 C655 C 0.37126 0.65173 0.14871
 N656 N 0.35597 0.64667 0.11353
 N657 N 0.37278 0.62337 0.09125
 C658 C 0.40551 0.60440 0.10340
 N659 N 0.42104 0.60985 0.13825
 N660 N 0.40417 0.63293 0.16052
   
