data_POSCAR
  _audit_creation_date              2014-09-24
  _audit_creation_method            'ToBaCCo'
  _symmetry_space_group_name_H-M    'P1'
  _symmetry_Int_Tables_number       1
  _symmetry_cell_setting            triclinic
  loop_
  _symmetry_equiv_pos_as_xyz
 x,y,z
_cell_length_a 26.7384
_cell_length_b 27.3205
_cell_length_c 26.1184
_cell_angle_alpha 90.611200
_cell_angle_beta 89.986600
_cell_angle_gamma 90.677000
loop_
  _atom_site_label
  _atom_site_type_symbol
  _atom_site_fract_x
  _atom_site_fract_y
  _atom_site_fract_z
O1 O 0.55192 0.09258 0.04269
 O2 O 0.44333 -0.03229 -0.08965
 O3 O 0.59452 -0.02701 -0.05511
 O4 O 0.40081 0.06000 0.03616
 O5 O 0.52853 -0.01853 -0.09679
 O6 O 0.46673 0.10043 0.02725
 O7 O 0.41146 0.03096 -0.05259
 O8 O 0.58439 0.05726 -0.02353
 C9 C 0.57774 0.09501 0.00239
 C10 C 0.41866 0.00666 -0.09239
 C11 C 0.57439 -0.01899 -0.09666
 C12 C 0.42090 0.09934 0.02532
 O13 O 0.44564 0.03285 0.10640
 O14 O 0.54710 -0.09413 -0.02713
 O15 O 0.59638 0.02426 0.06993
 O16 O 0.39733 -0.05855 -0.01920
 O17 O 0.46182 -0.09987 -0.01060
 O18 O 0.53061 0.01762 0.11279
 O19 O 0.41054 -0.02972 0.06935
 O20 O 0.58195 -0.05977 0.03867
 Co21 Co 0.49847 0.05550 0.06658
 Co22 Co 0.49529 -0.05587 -0.05031
 Co23 Co 0.57933 -0.00122 0.00755
 Co24 Co 0.41467 0.00056 0.00838
 O25 O 0.49697 -0.00027 0.00805
 C26 C 0.41943 -0.00575 0.10912
 C27 C 0.57339 -0.09725 0.01268
 C28 C 0.57648 0.01696 0.11187
 C29 C 0.41595 -0.09863 -0.01010
 O30 O -0.10348 0.46115 -0.02110
 O31 O 0.04351 0.53686 0.09121
 O32 O -0.02027 0.41329 0.04695
 O33 O -0.05071 0.62229 0.00209
 O34 O 0.04260 0.44738 0.08311
 O35 O -0.09821 0.55465 -0.01010
 O36 O -0.02932 0.56528 0.07063
 O37 O -0.05443 0.39999 -0.03736
 C38 C -0.09748 0.41606 -0.02840
 C39 C 0.00298 0.55757 0.10395
 C40 C 0.00685 0.41769 0.08495
 C41 C -0.09459 0.60149 -0.00391
 O42 O -0.04367 0.55728 -0.09708
 O43 O 0.09183 0.44944 -0.00680
 O44 O 0.02420 0.43181 -0.08292
 O45 O 0.05072 0.60200 0.02803
 O46 O 0.09433 0.54160 0.00047
 O47 O -0.04638 0.46602 -0.10575
 O48 O 0.01709 0.59184 -0.05656
 O49 O 0.04712 0.37971 -0.01076
 Co50 Co -0.06699 0.50907 -0.05397
 Co51 Co 0.06280 0.49473 0.03816
 Co52 Co 0.00412 0.42845 -0.01584
 Co53 Co -0.00756 0.57361 0.00551
 O54 O -0.00237 0.50147 -0.00633
 C55 C -0.00772 0.58717 -0.09656
 C56 C 0.09044 0.40223 -0.00685
 C57 C -0.00758 0.44142 -0.11689
 C58 C 0.09219 0.58576 0.01373
 O59 O -0.00491 -0.09287 0.44784
 O60 O 0.09227 0.05698 0.54807
 O61 O 0.06431 -0.03693 0.43134
 O62 O -0.00742 -0.05774 0.60601
 O63 O 0.09557 0.03348 0.45533
 O64 O 0.00581 -0.09887 0.53765
 O65 O 0.06633 0.00000 0.60170
 O66 O -0.01265 -0.05162 0.37791
 C67 C -0.01455 -0.09368 0.40030
 C68 C 0.09971 0.02896 0.58590
 C69 C 0.10131 -0.00871 0.43581
 C70 C 0.00719 -0.09600 0.58490
 O71 O -0.08403 -0.05342 0.55443
 O72 O 0.00805 0.08634 0.44299
 O73 O -0.05807 0.01855 0.42327
 O74 O 0.00654 0.07239 0.60044
 O75 O 0.00760 0.10769 0.52790
 O76 O -0.09135 -0.04205 0.46237
 O77 O -0.06719 0.01615 0.59241
 O78 O 0.02723 0.03608 0.38618
 Co79 Co -0.03980 -0.06532 0.50111
 Co80 Co 0.04740 0.06523 0.49417
 Co81 Co 0.00207 -0.01013 0.43051
 Co82 Co -0.00039 0.00689 0.59114
 O83 O 0.00296 0.00218 0.50736
 C84 C -0.09769 -0.01699 0.58097
 C85 C 0.01860 0.07922 0.39755
 C86 C -0.09607 -0.00552 0.43436
 C87 C 0.00241 0.11000 0.57471
 N88 N -0.33013 0.17860 -0.05519
 C89 C -0.33142 0.21738 -0.02242
 N90 N -0.36487 0.21716 0.01659
 N91 N -0.39562 0.17900 0.02305
 C92 C -0.39391 0.13977 -0.00925
 N93 N -0.36087 0.14043 -0.04874
 C94 C -0.29402 0.25528 -0.02544
 C95 C -0.26078 0.28540 -0.02684
 C96 C -0.21943 0.31928 -0.02770
 N97 N -0.22630 0.36774 -0.01885
 N98 N -0.18739 0.39873 -0.01878
 C99 C -0.14038 0.38217 -0.02735
 N100 N -0.13369 0.33364 -0.03612
 N101 N -0.17255 0.30271 -0.03619
 N102 N 0.37616 0.77750 0.00750
 C103 C 0.32574 0.78261 0.00521
 N104 N 0.30647 0.82766 -0.00121
 N105 N 0.33644 0.86649 -0.00563
 C106 C 0.38690 0.86183 -0.00379
 N107 N 0.40633 0.81655 0.00310
 C108 C 0.29212 0.74157 0.00853
 C109 C 0.25995 0.71045 0.01060
 C110 C 0.21800 0.67743 0.01267
 N111 N 0.17307 0.69437 0.02841
 N112 N 0.13301 0.66503 0.02856
 C113 C 0.13646 0.61776 0.01271
 N114 N 0.18153 0.60074 -0.00308
 N115 N 0.22169 0.63019 -0.00327
 N116 N 0.31043 0.17387 0.00344
 C117 C 0.33008 0.21945 -0.00119
 N118 N 0.38045 0.22597 0.00190
 N119 N 0.41014 0.18774 0.00956
 C120 C 0.39019 0.14202 0.01455
 N121 N 0.33991 0.13589 0.01117
 C122 C 0.29658 0.25959 -0.00674
 C123 C 0.26381 0.28925 -0.01002
 C124 C 0.22044 0.31945 -0.01234
 N125 N 0.22364 0.36883 -0.00674
 N126 N 0.18222 0.39562 -0.00579
 C127 C 0.13644 0.37379 -0.01016
 N128 N 0.13354 0.32447 -0.01587
 N129 N 0.17481 0.29779 -0.01691
 N130 N -0.33382 0.81870 0.06455
 C131 C -0.33731 0.78048 0.03115
 N132 N -0.37285 0.78096 -0.00583
 N133 N -0.40342 0.81888 -0.00981
 C134 C -0.39940 0.85765 0.02296
 N135 N -0.36439 0.85664 0.06058
 C136 C -0.29905 0.74417 0.02981
 C137 C -0.26473 0.71613 0.02660
 C138 C -0.22167 0.68577 0.02093
 N139 N -0.22642 0.63738 0.00951
 N140 N -0.18592 0.61023 0.00175
 C141 C -0.13946 0.63073 0.00489
 N142 N -0.13494 0.67914 0.01633
 N143 N -0.17535 0.70620 0.02411
 N144 N -0.04887 -0.36197 0.20265
 C145 C -0.00768 -0.34980 0.23036
 N146 N 0.03599 -0.37277 0.22008
 N147 N 0.03865 -0.40587 0.18227
 C148 C -0.00231 -0.41710 0.15349
 N149 N -0.04619 -0.39490 0.16485
 C150 C -0.00888 -0.30805 0.26426
 C151 C -0.01044 -0.27111 0.28995
 C152 C -0.01249 -0.22581 0.31832
 N153 N -0.00948 -0.22539 0.37012
 N154 N -0.01072 -0.18318 0.39613
 C155 C -0.01505 -0.13999 0.37128
 N156 N -0.01824 -0.14051 0.31942
 N157 N -0.01701 -0.18274 0.29340
 N158 N -0.04151 0.39041 0.75722
 C159 C -0.00183 0.36143 0.74704
 N160 N 0.03768 0.36221 0.77954
 N161 N 0.03720 0.39032 0.82147
 C162 C -0.00287 0.41861 0.83237
 N163 N -0.04195 0.41867 0.79914
 C164 C -0.00522 0.32380 0.70856
 C165 C -0.00766 0.28875 0.68031
 C166 C -0.00944 0.24373 0.65173
 N167 N -0.00330 0.24269 0.60017
 N168 N -0.00120 0.19998 0.57503
 C169 C -0.00508 0.15709 0.60074
 N170 N -0.01165 0.15843 0.65223
 N171 N -0.01384 0.20100 0.67724
 N172 N -0.03428 0.31172 0.16003
 C173 C 0.00117 0.31041 0.19708
 N174 N 0.03597 0.34689 0.19976
 N175 N 0.03604 0.38292 0.16571
 C176 C 0.00107 0.38391 0.12802
 N177 N -0.03421 0.34773 0.12600
 C178 C 0.00369 0.26939 0.23104
 C179 C 0.00637 0.23485 0.25934
 C180 C 0.00966 0.19445 0.29403
 N181 N 0.00117 0.20180 0.34461
 N182 N 0.00428 0.16483 0.37718
 C183 C 0.01602 0.11916 0.36045
 N184 N 0.02460 0.11172 0.30971
 N185 N 0.02148 0.14884 0.27703
 N186 N -0.01592 -0.36064 0.77940
 C187 C 0.02171 -0.32696 0.78141
 N188 N 0.05043 -0.32365 0.82410
 N189 N 0.04160 -0.35286 0.86369
 C190 C 0.00345 -0.38619 0.86221
 N191 N -0.02476 -0.38990 0.81899
 C192 C 0.02693 -0.29106 0.74195
 C193 C 0.02929 -0.25856 0.71112
 C194 C 0.02931 -0.21717 0.67770
 N195 N 0.02615 -0.17159 0.69820
 N196 N 0.02103 -0.13295 0.66818
 C197 C 0.01897 -0.13842 0.61652
 N198 N 0.02281 -0.18410 0.59585
 N199 N 0.02782 -0.22290 0.62601
 N200 N 0.37346 -0.00201 0.77976
 C201 C 0.34169 0.03624 0.77843
 N202 N 0.33821 0.06617 0.82000
 N203 N 0.36514 0.05772 0.86186
 C204 C 0.39611 0.01865 0.86384
 N205 N 0.40037 -0.01052 0.82159
 C206 C 0.30615 0.03972 0.73748
 C207 C 0.27346 0.03954 0.70567
 C208 C 0.23140 0.03567 0.67168
 N209 N 0.19661 0.00021 0.67980
 N210 N 0.15546 -0.00240 0.65132
 C211 C 0.14755 0.03029 0.61351
 N212 N 0.18268 0.06566 0.60495
 N213 N 0.22398 0.06834 0.63366
 N214 N -0.31313 0.01444 0.19481
 C215 C -0.33345 0.01421 0.24227
 N216 N -0.38402 0.01337 0.24726
 N217 N -0.41327 0.01324 0.20579
 C218 C -0.39275 0.01379 0.15816
 N219 N -0.34222 0.01434 0.15354
 C220 C -0.30085 0.01530 0.28593
 C221 C -0.26982 0.01596 0.31943
 C222 C -0.22917 0.01570 0.35531
 N223 N -0.22582 -0.02036 0.39036
 N224 N -0.18423 -0.02534 0.41785
 C225 C -0.14454 0.00543 0.41109
 N226 N -0.14835 0.04202 0.37660
 N227 N -0.18995 0.04702 0.34918
 N228 N 0.37160 0.00289 0.24090
 C229 C 0.33767 -0.03438 0.24189
 N230 N 0.33259 -0.06385 0.20005
 N231 N 0.36025 -0.05603 0.15839
 C232 C 0.39380 -0.01832 0.15707
 N233 N 0.39925 0.01073 0.19926
 C234 C 0.30289 -0.03817 0.28367
 C235 C 0.27163 -0.03868 0.31701
 C236 C 0.23211 -0.03587 0.35420
 N237 N 0.19391 -0.06900 0.35335
 N238 N 0.15328 -0.06198 0.38200
 C239 C 0.14941 -0.02151 0.41237
 N240 N 0.18813 0.01110 0.41381
 N241 N 0.22874 0.00404 0.38523
 N242 N -0.31673 -0.01804 0.81819
 C243 C -0.33789 -0.01561 0.77123
 N244 N -0.38844 -0.01298 0.76735
 N245 N -0.41687 -0.01324 0.80941
 C246 C -0.39552 -0.01594 0.85653
 N247 N -0.34501 -0.01831 0.86005
 C248 C -0.30612 -0.01570 0.72695
 C249 C -0.27538 -0.01546 0.69318
 C250 C -0.23453 -0.01407 0.65759
 N251 N -0.22096 -0.05477 0.63098
 N252 N -0.17831 -0.05532 0.60442
 C253 C -0.14767 -0.01529 0.60409
 N254 N -0.16178 0.02549 0.63020
 N255 N -0.20437 0.02607 0.65652
   
