data_POSCAR
  _audit_creation_date              2014-09-24
  _audit_creation_method            'ToBaCCo'
  _symmetry_space_group_name_H-M    'P1'
  _symmetry_Int_Tables_number       1
  _symmetry_cell_setting            triclinic
  loop_
  _symmetry_equiv_pos_as_xyz
 x,y,z
_cell_length_a 23.2170
_cell_length_b 23.2761
_cell_length_c 23.2922
_cell_angle_alpha 91.286600
_cell_angle_beta 91.267100
_cell_angle_gamma 88.713000
loop_
  _atom_site_label
  _atom_site_type_symbol
  _atom_site_fract_x
  _atom_site_fract_y
  _atom_site_fract_z
C1 C 0.03879 0.42183 0.16875
 H2 H 0.07354 0.45148 0.16420
 C3 C 0.04194 0.36713 0.14233
 H4 H 0.07883 0.35506 0.11667
 C5 C -0.05014 0.39970 0.21023
 H6 H -0.08513 0.41125 0.23820
 C7 C -0.04878 0.34501 0.18465
 H8 H -0.08324 0.31567 0.19239
 N9 N -0.00665 0.43687 0.20234
 C10 C -0.01920 0.62246 0.23604
 H11 H -0.02685 0.61944 0.28151
 C12 C -0.01839 0.67618 0.21105
 H13 H -0.02588 0.71461 0.23719
 C14 C 0.00138 0.57593 0.14690
 H15 H 0.00957 0.53669 0.12244
 C16 C 0.00266 0.62922 0.12004
 H17 H 0.01164 0.63103 0.07469
 Zn18 Zn -0.00600 0.50596 0.24765
 N19 N -0.00863 0.57379 0.20417
 C20 C 0.10102 0.54888 0.28494
 N21 N 0.06347 0.50566 0.29247
 C22 C 0.07814 0.46009 0.32586
 C23 C 0.13272 0.45668 0.35271
 C24 C 0.15562 0.54720 0.31096
 C25 C -0.12261 0.51960 0.26115
 C26 C -0.17598 0.51894 0.28716
 C27 C -0.12734 0.49740 0.37724
 C28 C -0.07446 0.49854 0.34939
 N29 N -0.07333 0.50866 0.29210
 H30 H 0.08975 0.58397 0.25711
 H31 H 0.04819 0.42557 0.33012
 H32 H 0.14457 0.41986 0.37839
 H33 H 0.18533 0.58143 0.30376
 H34 H -0.12036 0.52744 0.21566
 H35 H -0.21494 0.52668 0.26177
 H36 H -0.12836 0.48831 0.42261
 H37 H -0.03474 0.49017 0.37313
 C38 C -0.00677 0.67976 0.15274
 C39 C -0.00203 0.32812 0.15106
 C40 C -0.17852 0.50713 0.34550
 C41 C 0.17197 0.50048 0.34457
 C42 C 0.04643 0.57807 0.82914
 H43 H 0.08138 0.54713 0.83525
 C44 C 0.04902 0.63257 0.85579
 H45 H 0.08567 0.64346 0.88316
 C46 C -0.04267 0.60345 0.78369
 H47 H -0.07745 0.59324 0.75402
 C48 C -0.04182 0.65796 0.80942
 H49 H -0.07642 0.68865 0.80027
 N50 N 0.00111 0.56473 0.79358
 C51 C -0.00565 0.37994 0.75955
 H52 H -0.01097 0.38307 0.71345
 C53 C -0.00653 0.32646 0.78482
 H54 H -0.01256 0.28818 0.75822
 C55 C 0.00871 0.42635 0.85039
 H56 H 0.01435 0.46556 0.87545
 C57 C 0.00812 0.37326 0.87760
 H58 H 0.01352 0.37142 0.92384
 Zn59 Zn 0.00188 0.49573 0.74869
 N60 N 0.00238 0.42839 0.79224
 C61 C 0.10952 0.45245 0.71358
 N62 N 0.06923 0.49480 0.70397
 C63 C 0.08002 0.53914 0.66887
 C64 C 0.13346 0.54220 0.64240
 C65 C 0.16309 0.45381 0.68798
 C66 C -0.11416 0.48471 0.73797
 C67 C -0.16926 0.48446 0.71348
 C68 C -0.12774 0.50077 0.62097
 C69 C -0.07293 0.50063 0.64748
 N70 N -0.06753 0.49345 0.70517
 H71 H 0.10133 0.41856 0.74294
 H72 H 0.04793 0.57305 0.66306
 H73 H 0.14231 0.57813 0.61543
 H74 H 0.19510 0.42041 0.69692
 H75 H -0.10840 0.47909 0.78373
 H76 H -0.20596 0.47828 0.74053
 H77 H -0.13206 0.50735 0.57513
 H78 H -0.03512 0.50713 0.62233
 C79 C 0.00058 0.32297 0.84424
 C80 C 0.00466 0.67300 0.84515
 C81 C -0.17633 0.49306 0.65460
 C82 C 0.17553 0.49936 0.65272
 C83 C 0.16964 0.04761 0.42231
 H84 H 0.16333 0.08250 0.45317
 C85 C 0.14308 0.05006 0.36777
 H86 H 0.11556 0.08654 0.35676
 C87 C 0.21559 -0.04118 0.39718
 H88 H 0.24545 -0.07576 0.40749
 C89 C 0.18995 -0.04047 0.34264
 H90 H 0.19935 -0.07499 0.31204
 N91 N 0.20542 0.00252 0.43576
 C92 C 0.23978 -0.00361 0.62027
 H93 H 0.28604 -0.00861 0.61701
 C94 C 0.21460 -0.00461 0.67378
 H95 H 0.24142 -0.01041 0.71196
 C96 C 0.14843 0.01004 0.57413
 H97 H 0.12315 0.01541 0.53500
 C98 C 0.12129 0.00930 0.62725
 H99 H 0.07487 0.01434 0.62923
 Zn100 Zn 0.25037 0.00358 0.50467
 N101 N 0.20679 0.00411 0.57195
 C102 C 0.28540 0.11101 0.54758
 N103 N 0.29513 0.07067 0.50543
 C104 C 0.33065 0.08108 0.46128
 C105 C 0.35761 0.13415 0.45829
 C106 C 0.31146 0.16423 0.54628
 C107 C 0.26154 -0.11203 0.51592
 C108 C 0.28643 -0.16684 0.51636
 C109 C 0.37901 -0.12504 0.50024
 C110 C 0.35219 -0.07050 0.50018
 N111 N 0.29425 -0.06539 0.50716
 H112 H 0.25567 0.10311 0.58129
 H113 H 0.33653 0.04894 0.42753
 H114 H 0.38501 0.14270 0.42257
 H115 H 0.30251 0.19629 0.57955
 H116 H 0.21559 -0.10650 0.52140
 H117 H 0.25973 -0.20371 0.52248
 H118 H 0.42498 -0.12942 0.49380
 H119 H 0.37726 -0.03270 0.49371
 C120 C 0.15496 0.00205 0.67741
 C121 C 0.15405 0.00580 0.32747
 C122 C 0.34547 -0.17352 0.50794
 C123 C 0.34729 0.17622 0.50099
 C124 C 0.83082 0.03841 0.57537
 H125 H 0.83443 0.07345 0.54601
 C126 C 0.85698 0.04194 0.63014
 H127 H 0.88157 0.07936 0.64268
 C128 C 0.79167 -0.05165 0.59680
 H129 H 0.76467 -0.08727 0.58496
 C130 C 0.81709 -0.04989 0.65154
 H131 H 0.81026 -0.08456 0.68074
 N132 N 0.79840 -0.00773 0.55999
 C133 C 0.76413 -0.02068 0.37468
 H134 H 0.71867 -0.02905 0.37778
 C135 C 0.78911 -0.01955 0.32095
 H136 H 0.76285 -0.02754 0.28266
 C137 C 0.85322 0.00138 0.42104
 H138 H 0.87762 0.01004 0.46023
 C139 C 0.88010 0.00303 0.36778
 H140 H 0.92545 0.01274 0.36606
 Zn141 Zn 0.75260 -0.00735 0.49122
 N142 N 0.79598 -0.00956 0.42325
 C143 C 0.71385 0.09904 0.44841
 N144 N 0.70731 0.06175 0.49194
 C145 C 0.67503 0.07662 0.53830
 C146 C 0.64855 0.13125 0.54233
 C147 C 0.68813 0.15367 0.45068
 C148 C 0.73947 -0.12372 0.47689
 C149 C 0.71382 -0.17713 0.47818
 C150 C 0.62385 -0.12925 0.50250
 C151 C 0.65133 -0.07631 0.50067
 N152 N 0.70843 -0.07478 0.48886
 H153 H 0.74078 0.08758 0.41263
 H154 H 0.67159 0.04687 0.57303
 H155 H 0.62392 0.14331 0.57984
 H156 H 0.69466 0.18322 0.41624
 H157 H 0.78483 -0.12117 0.46784
 H158 H 0.73933 -0.21582 0.46965
 H159 H 0.57868 -0.13059 0.51298
 H160 H 0.62754 -0.03687 0.50996
 C161 C 0.84742 -0.00698 0.31726
 C162 C 0.84926 -0.00238 0.66880
 C163 C 0.65574 -0.18009 0.49176
 C164 C 0.65587 0.17031 0.49832
 C165 C 0.57610 0.17012 0.95309
 H166 H 0.54540 0.16452 0.91790
 C167 C 0.63081 0.14361 0.95056
 H168 H 0.64211 0.11683 0.91370
 C169 C 0.60071 0.21435 1.04276
 H170 H 0.59015 0.24353 1.07776
 C171 C 0.65541 0.18872 1.04199
 H172 H 0.68589 0.19746 1.07684
 N173 N 0.56233 0.20509 0.99862
 C174 C 0.37722 0.24009 1.00440
 H175 H 0.38050 0.28621 1.00960
 C176 C 0.32351 0.21498 1.00527
 H177 H 0.28526 0.24186 1.01116
 C178 C 0.42352 0.14900 0.99049
 H179 H 0.46280 0.12381 0.98507
 C180 C 0.37024 0.12191 0.99108
 H181 H 0.36843 0.07559 0.98589
 Zn182 Zn 0.49344 0.25037 0.99750
 N183 N 0.42571 0.20719 0.99663
 C184 C 0.45087 0.28623 0.89019
 N185 N 0.49330 0.29514 0.93053
 C186 C 0.53829 0.32969 0.92013
 C187 C 0.54192 0.35640 0.86706
 C188 C 0.45279 0.31208 0.83696
 C189 C 0.48137 0.26165 1.11306
 C190 C 0.48159 0.28638 1.16789
 C191 C 0.50032 0.37825 1.12632
 C192 C 0.49966 0.35161 1.07176
 N193 N 0.49112 0.29407 1.06652
 H194 H 0.41645 0.25727 0.89810
 H195 H 0.57224 0.33491 0.95226
 H196 H 0.57834 0.38296 0.85852
 H197 H 0.41931 0.30375 0.80490
 H198 H 0.47475 0.21599 1.10746
 H199 H 0.47477 0.25987 1.20468
 H200 H 0.50810 0.42386 1.13080
 H201 H 0.50698 0.37646 1.03406
 C202 C 0.31985 0.15545 0.99842
 C203 C 0.67096 0.15376 0.99522
 C204 C 0.49172 0.34496 1.17471
 C205 C 0.49898 0.34685 0.82496
 C206 C 0.42150 0.82907 0.96267
 H207 H 0.45146 0.83332 0.92818
 C208 C 0.36682 0.85575 0.95914
 H209 H 0.35505 0.88131 0.92220
 C210 C 0.39862 0.78815 1.05142
 H211 H 0.40992 0.76034 1.08650
 C212 C 0.34392 0.81400 1.04966
 H213 H 0.31427 0.80661 1.08391
 N214 N 0.43619 0.79571 1.00824
 C215 C 0.62217 0.76311 1.02231
 H216 H 0.61942 0.71774 1.03067
 C217 C 0.67585 0.78845 1.02121
 H218 H 0.71453 0.76269 1.02921
 C219 C 0.57501 0.85162 1.00008
 H220 H 0.53555 0.87568 0.99132
 C221 C 0.62822 0.87880 0.99846
 H222 H 0.62976 0.92401 0.98867
 Zn223 Zn 0.50553 0.75056 1.00835
 N224 N 0.57322 0.79449 1.01102
 C225 C 0.54954 0.71288 0.90221
 N226 N 0.50589 0.70536 0.93929
 C227 C 0.46023 0.67209 0.92424
 C228 C 0.45705 0.64558 0.86963
 C229 C 0.54811 0.68717 0.84763
 C230 C 0.51852 0.73821 1.12474
 C231 C 0.51806 0.71266 1.17817
 C232 C 0.49762 0.62184 1.13046
 C233 C 0.49852 0.64925 1.07748
 N234 N 0.50807 0.70667 1.07586
 H235 H 0.58474 0.74058 0.91378
 H236 H 0.42538 0.66783 0.95382
 H237 H 0.42007 0.62013 0.85741
 H238 H 0.58262 0.69448 0.81826
 H239 H 0.52591 0.78378 1.12210
 H240 H 0.52549 0.73851 1.21679
 H241 H 0.48907 0.57634 1.13186
 H242 H 0.49052 0.62505 1.03806
 C243 C 0.67907 0.84657 1.00854
 C244 C 0.32745 0.84749 1.00284
 C245 C 0.50695 0.65416 1.18122
 C246 C 0.50119 0.65389 0.83079
 B247 B 1.00051 1.06089 0.03544
 B248 B 0.99988 1.05973 -0.03682
 B249 B 1.05920 1.03735 -0.00014
 B250 B 1.03782 1.00229 0.05785
 B251 B 0.96525 1.00284 0.05689
 B252 B 0.94174 1.03837 -0.00175
 B253 B 1.00161 0.94256 -0.03786
 B254 B 1.00221 0.94358 0.03449
 B255 B 0.94279 0.96596 -0.00231
 B256 B 0.96424 1.00117 -0.06032
 B257 B 1.03674 1.00059 -0.05921
 B258 B 1.06036 0.96503 -0.00073
 B259 B 0.55861 0.49782 0.46701
 B260 B 0.55924 0.49876 0.53928
 B261 B 0.53567 0.55708 0.50341
 B262 B 0.49920 0.53422 0.44416
 B263 B 0.50017 0.46192 0.44351
 B264 B 0.53726 0.43983 0.50232
 B265 B 0.44172 0.49982 0.53775
 B266 B 0.44109 0.49886 0.46541
 B267 B 0.46467 0.44055 0.50131
 B268 B 0.50118 0.46336 0.56059
 B269 B 0.50018 0.53576 0.56133
 B270 B 0.46317 0.55769 0.50243
 C271 C 1.00086 1.27335 0.12903
 C272 C 1.00173 1.22448 0.11052
 C273 C 1.00140 1.16743 0.08847
 C274 C 1.00077 1.11955 0.06761
 C275 C 0.99646 0.73560 0.12773
 C276 C 0.99894 0.78317 0.10859
 C277 C 1.00127 0.83902 0.08644
 C278 C 1.00245 0.88600 0.06587
 C279 C 1.00026 1.26740 -0.13015
 C280 C 0.99984 1.21989 -0.11080
 C281 C 0.99940 1.16410 -0.08866
 C282 C 0.99929 1.11715 -0.06814
 C283 C 1.00687 0.73063 -0.13137
 C284 C 1.00665 0.77940 -0.11289
 C285 C 1.00490 0.83635 -0.09093
 C286 C 1.00310 0.88414 -0.07008
 C287 C 1.13079 1.00791 0.26980
 C288 C 1.11254 1.00759 0.22099
 C289 C 1.09081 1.00572 0.16401
 C290 C 1.07007 1.00383 0.11621
 C291 C 1.12948 1.00150 -0.26700
 C292 C 1.11032 1.00091 -0.21944
 C293 C 1.08843 1.00029 -0.16360
 C294 C 1.06805 1.00007 -0.11660
 C295 C 0.87121 0.99638 0.26449
 C296 C 0.89059 0.99911 0.21704
 C297 C 0.91299 1.00168 0.16132
 C298 C 0.93373 1.00300 0.11442
 C299 C 0.87192 1.00103 -0.27314
 C300 C 0.88989 1.00205 -0.22412
 C301 C 0.91145 1.00188 -0.16692
 C302 C 0.93207 1.00137 -0.11897
 C303 C 1.26713 1.13119 -0.00111
 C304 C 1.21958 1.11165 -0.00054
 C305 C 1.16374 1.08933 0.00009
 C306 C 1.11672 1.06871 0.00034
 C307 C 0.72888 1.13071 -0.00701
 C308 C 0.77791 1.11262 -0.00678
 C309 C 0.83513 1.09107 -0.00503
 C310 C 0.88314 1.07047 -0.00322
 C311 C 1.27273 0.86998 -0.00034
 C312 C 1.22392 0.88894 -0.00147
 C313 C 1.16693 0.91150 -0.00141
 C314 C 1.11908 0.93270 -0.00094
 C315 C 0.73484 0.87186 0.00478
 C316 C 0.78237 0.89126 0.00187
 C317 C 0.83818 0.91369 -0.00091
 C318 C 0.88517 0.93446 -0.00238
 C319 C 0.76603 0.50393 0.37155
 C320 C 0.71873 0.50143 0.39155
 C321 C 0.66315 0.49901 0.41455
 C322 C 0.61629 0.49774 0.43559
 C323 C 0.22961 0.49747 0.36870
 C324 C 0.27826 0.49681 0.38800
 C325 C 0.33503 0.49738 0.41104
 C326 C 0.38267 0.49825 0.43265
 C327 C 0.77165 0.49468 0.63212
 C328 C 0.72293 0.49610 0.61331
 C329 C 0.66580 0.49752 0.59171
 C330 C 0.61776 0.49839 0.57130
 C331 C 0.23227 0.50239 0.62942
 C332 C 0.28039 0.50307 0.61107
 C333 C 0.33665 0.50239 0.58934
 C334 C 0.38389 0.50125 0.56892
 C335 C 0.50419 0.62853 0.23675
 C336 C 0.50205 0.60891 0.28411
 C337 C 0.50004 0.58633 0.33973
 C338 C 0.49901 0.56554 0.38659
 C339 C 0.49830 0.63044 0.77304
 C340 C 0.49776 0.61178 0.72429
 C341 C 0.49849 0.58945 0.66741
 C342 C 0.49947 0.56830 0.61972
 C343 C 0.49434 0.36955 0.23176
 C344 C 0.49640 0.38807 0.28038
 C345 C 0.49845 0.40950 0.33734
 C346 C 0.49968 0.42988 0.38522
 C347 C 0.50254 0.37047 0.76863
 C348 C 0.50364 0.38916 0.72085
 C349 C 0.50338 0.41128 0.66499
 C350 C 0.50249 0.43199 0.61807
 C351 C 0.63017 0.76441 0.49575
 C352 C 0.61055 0.71709 0.49883
 C353 C 0.58792 0.66151 0.50178
 C354 C 0.56706 0.61467 0.50337
 C355 C 0.63243 0.22809 0.50204
 C356 C 0.61369 0.27685 0.50327
 C357 C 0.59122 0.33374 0.50327
 C358 C 0.56993 0.38144 0.50276
 C359 C 0.37031 0.76946 0.50628
 C360 C 0.38899 0.72084 0.50494
 C361 C 0.41055 0.66387 0.50359
 C362 C 0.43102 0.61598 0.50277
 C363 C 0.37124 0.23251 0.49812
 C364 C 0.39013 0.28027 0.49760
 C365 C 0.41242 0.33613 0.49848
 C366 C 0.43324 0.38305 0.49977
   
