data_POSCAR
  _audit_creation_date              2014-09-24
  _audit_creation_method            'ToBaCCo'
  _symmetry_space_group_name_H-M    'P1'
  _symmetry_Int_Tables_number       1
  _symmetry_cell_setting            triclinic
  loop_
  _symmetry_equiv_pos_as_xyz
 x,y,z
_cell_length_a 43.2307
_cell_length_b 45.9789
_cell_length_c 41.5365
_cell_angle_alpha 87.887900
_cell_angle_beta 93.131500
_cell_angle_gamma 91.125800
loop_
  _atom_site_label
  _atom_site_type_symbol
  _atom_site_fract_x
  _atom_site_fract_y
  _atom_site_fract_z
C1 C 0.19886 0.17075 0.18484
 C2 C 0.18674 0.16121 0.21403
 C3 C 0.16765 0.17915 0.23112
 C4 C 0.16067 0.20713 0.21749
 C5 C 0.17267 0.21693 0.18813
 C6 C 0.19220 0.19878 0.17203
 C7 C 0.21727 0.15232 0.16811
 C8 C 0.23020 0.16173 0.13895
 C9 C 0.22399 0.19021 0.12683
 C10 C 0.20467 0.20844 0.14278
 C11 C 0.19684 0.23584 0.12932
 C12 C 0.17626 0.25364 0.14433
 C13 C 0.16485 0.24433 0.17418
 H14 H 0.19118 0.13903 0.22236
 H15 H 0.14670 0.22190 0.22996
 H16 H 0.22258 0.13102 0.17877
 H17 H 0.23268 0.19780 0.10396
 H18 H 0.20621 0.24310 0.10665
 H19 H 0.14884 0.25784 0.18584
 C20 C -0.22014 0.80152 0.22274
 C21 C -0.20749 0.81491 0.25032
 C22 C -0.17670 0.80974 0.26194
 C23 C -0.15928 0.78952 0.24594
 C24 C -0.17219 0.77500 0.21906
 C25 C -0.20261 0.78135 0.20719
 C26 C -0.24933 0.80962 0.20931
 C27 C -0.26101 0.79863 0.17965
 C28 C -0.24409 0.77685 0.16563
 C29 C -0.21515 0.76822 0.17915
 C30 C -0.19793 0.74765 0.16411
 C31 C -0.16780 0.74091 0.17592
 C32 C -0.15491 0.75483 0.20325
 H33 H -0.22102 0.83119 0.26109
 H34 H -0.13589 0.78447 0.25478
 H35 H -0.26132 0.82666 0.22061
 H36 H -0.25319 0.76665 0.14392
 H37 H -0.20748 0.73762 0.14243
 H38 H -0.13148 0.74991 0.21213
 C39 C -0.17924 0.16838 -0.18756
 C40 C -0.15917 0.15563 -0.20808
 C41 C -0.13731 0.17265 -0.22437
 C42 C -0.13515 0.20272 -0.21957
 C43 C -0.15476 0.21572 -0.19854
 C44 C -0.17729 0.19854 -0.18293
 C45 C -0.20125 0.15128 -0.17175
 C46 C -0.22212 0.16374 -0.15142
 C47 C -0.22033 0.19416 -0.14747
 C48 C -0.19771 0.21146 -0.16254
 C49 C -0.19467 0.24134 -0.15691
 C50 C -0.17127 0.25844 -0.17108
 C51 C -0.15182 0.24544 -0.19238
 H52 H -0.16091 0.13244 -0.21195
 H53 H -0.11805 0.21582 -0.23196
 H54 H -0.20281 0.12829 -0.17657
 H55 H -0.23535 0.20432 -0.13130
 H56 H -0.21026 0.25121 -0.14109
 H57 H -0.13353 0.25818 -0.20326
 C58 C 0.25329 0.79315 -0.23797
 C59 C 0.23436 0.80984 -0.25966
 C60 C 0.20439 0.79995 -0.27010
 C61 C 0.19385 0.77266 -0.25762
 C62 C 0.21255 0.75581 -0.23573
 C63 C 0.24259 0.76584 -0.22638
 C64 C 0.28210 0.80419 -0.22631
 C65 C 0.30097 0.78791 -0.20385
 C66 C 0.29093 0.75970 -0.19433
 C67 C 0.26151 0.74908 -0.20444
 C68 C 0.24999 0.72283 -0.19124
 C69 C 0.21937 0.71353 -0.19878
 C70 C 0.20113 0.72966 -0.22191
 H71 H 0.24268 0.83133 -0.26687
 H72 H 0.17137 0.76387 -0.26534
 H73 H 0.28892 0.82612 -0.23363
 H74 H 0.30537 0.74635 -0.17784
 H75 H 0.26438 0.71031 -0.17383
 H76 H 0.17743 0.72279 -0.22775
 C77 C 0.17124 1.23155 0.79498
 C78 C 0.15792 1.22022 0.76656
 C79 C 0.16788 1.19374 0.75495
 C80 C 0.19351 1.18000 0.77128
 C81 C 0.20655 1.19081 0.80035
 C82 C 0.19469 1.21624 0.81272
 C83 C 0.16056 1.25756 0.80636
 C84 C 0.17128 1.26773 0.83661
 C85 C 0.19350 1.25131 0.85522
 C86 C 0.20588 1.22612 0.84306
 C87 C 0.22910 1.21052 0.86076
 C88 C 0.24169 1.18570 0.84812
 C89 C 0.23045 1.17602 0.81790
 H90 H 0.13969 1.23227 0.75339
 H91 H 0.20177 1.15961 0.76303
 H92 H 0.14231 1.26893 0.79239
 H93 H 0.20225 1.25881 0.87849
 H94 H 0.23775 1.21783 0.88414
 H95 H 0.23981 1.15652 0.80855
 C96 C 0.79448 0.78006 0.76636
 C97 C 0.80614 0.79381 0.73880
 C98 C 0.79503 0.82104 0.72682
 C99 C 0.77000 0.83304 0.74218
 C100 C 0.75781 0.81917 0.76958
 C101 C 0.77066 0.79297 0.78221
 C102 C 0.80709 0.75389 0.77869
 C103 C 0.79765 0.74100 0.80798
 C104 C 0.77400 0.75439 0.82400
 C105 C 0.75992 0.77982 0.81085
 C106 C 0.73534 0.79236 0.82589
 C107 C 0.72159 0.81805 0.81288
 C108 C 0.73340 0.83150 0.78499
 H109 H 0.82374 0.78277 0.72658
 H110 H 0.76091 0.85402 0.73428
 H111 H 0.82600 0.74477 0.76650
 H112 H 0.76576 0.74454 0.84611
 H113 H 0.72654 0.78180 0.84737
 H114 H 0.72375 0.85182 0.77540
 C115 C 0.17586 0.77522 1.24327
 C116 C 0.15879 0.79183 1.26350
 C117 C 0.16867 0.82010 1.27111
 C118 C 0.19632 0.83152 1.25919
 C119 C 0.21398 0.81494 1.23954
 C120 C 0.20359 0.78676 1.23131
 C121 C 0.16474 0.74788 1.23363
 C122 C 0.18066 0.73158 1.21170
 C123 C 0.20921 0.74301 1.20118
 C124 C 0.22052 0.77043 1.21052
 C125 C 0.24806 0.78216 1.19856
 C126 C 0.25856 0.81030 1.20656
 C127 C 0.24132 0.82648 1.22717
 H128 H 0.13717 0.78326 1.27236
 H129 H 0.20389 0.85341 1.26508
 H130 H 0.14240 0.74060 1.24164
 H131 H 0.22309 0.73065 1.18585
 H132 H 0.26120 0.76949 1.18275
 H133 H 0.24872 0.84844 1.23287
 C134 C 0.79684 1.24705 1.22599
 C135 C 0.80960 1.23346 1.25429
 C136 C 0.79682 1.20718 1.26699
 C137 C 0.77004 1.19538 1.25076
 C138 C 0.75698 1.20883 1.22248
 C139 C 0.77033 1.23483 1.21015
 C140 C 0.81109 1.27202 1.21256
 C141 C 0.79899 1.28518 1.18354
 C142 C 0.77157 1.27357 1.16884
 C143 C 0.75775 1.24813 1.18138
 C144 C 0.73249 1.23499 1.16463
 C145 C 0.71987 1.20843 1.17598
 C146 C 0.73173 1.19583 1.20535
 H147 H 0.82925 1.24400 1.26655
 H148 H 0.76022 1.17467 1.25869
 H149 H 0.83245 1.28028 1.22396
 H150 H 0.76140 1.28379 1.14696
 H151 H 0.72323 1.24493 1.14215
 H152 H 0.72225 1.17519 1.21408
 O153 O 0.52937 0.97253 0.94697
 O154 O 0.45791 0.96661 1.06350
 O155 O 0.55591 0.98194 1.04587
 O156 O 0.46519 0.95066 0.96689
 O157 O 0.51571 0.96456 1.06968
 O158 O 0.47428 0.98283 0.93196
 O159 O 0.45016 0.94395 1.01962
 O160 O 0.54574 0.95770 0.99393
 C161 C 0.54321 0.95367 0.96459
 C162 C 0.44747 0.94487 1.04907
 C163 C 0.54418 0.96431 1.06567
 C164 C 0.46682 0.95721 0.93821
 O165 O 0.48038 1.03456 0.95676
 O166 O 0.51836 1.02221 1.06545
 O167 O 0.57628 1.00532 0.98936
 O168 O 0.42810 0.99886 1.02018
 O169 O 0.45940 1.02231 1.05466
 O170 O 0.53751 1.02859 0.96392
 O171 O 0.43978 1.00672 0.96422
 O172 O 0.54066 1.03219 1.02095
 Co173 Co 0.50451 1.00317 0.95516
 Co174 Co 0.48877 0.99381 1.05792
 Co175 Co 0.54033 0.99468 1.00643
 Co176 Co 0.44954 0.97626 0.99309
 O177 O 0.49397 0.99087 1.00564
 C178 C 0.45154 1.03139 0.95704
 C179 C 0.53548 1.03857 1.04906
 C180 C 0.56670 1.02393 0.96629
 C181 C 0.43353 1.01931 1.03962
 O182 O 0.03611 0.49184 0.04513
 O183 O 0.02324 0.53464 -0.07375
 O184 O -0.00142 0.44945 -0.03213
 O185 O 0.04639 0.54346 0.02412
 O186 O 0.02227 0.48011 -0.06438
 O187 O 0.01760 0.53982 0.06257
 O188 O 0.04985 0.54556 -0.03119
 O189 O 0.01557 0.45390 0.02409
 C190 C 0.03762 0.46560 0.03977
 C191 C 0.04770 0.54434 -0.06084
 C192 C 0.01867 0.45481 -0.05267
 C193 C 0.04211 0.54971 0.05225
 O194 O -0.03702 0.52987 0.03957
 O195 O -0.03803 0.48127 -0.06581
 O196 O -0.04025 0.47744 0.03561
 O197 O -0.00801 0.56926 -0.04029
 O198 O -0.03531 0.53657 -0.06773
 O199 O -0.01256 0.49089 0.07726
 O200 O -0.01251 0.56690 0.01813
 O201 O -0.05591 0.47449 -0.01931
 Co202 Co -0.00091 0.50972 0.04038
 Co203 Co -0.00638 0.50830 -0.06219
 Co204 Co -0.01879 0.46760 0.00131
 Co205 Co 0.01737 0.55285 -0.00726
 O206 O -0.00104 0.51067 -0.00907
 C207 C -0.03546 0.55668 0.03289
 C208 C -0.05919 0.47182 -0.04876
 C209 C -0.03369 0.47327 0.06544
 C210 C -0.03072 0.56240 -0.05943
 O211 O 1.06877 0.01687 0.46798
 O212 O 0.94758 0.03973 0.52810
 O213 O 0.98281 0.05720 0.45652
 O214 O 1.03167 0.02566 0.56185
 O215 O 0.93965 0.03758 0.46748
 O216 O 1.05312 0.03988 0.51866
 O217 O 0.97612 0.01658 0.56573
 O218 O 1.03464 0.04775 0.46087
 C219 C 1.06089 0.04028 0.45466
 C220 C 0.95812 0.03719 0.55682
 C221 C 0.95439 0.05866 0.45615
 C222 C 1.04853 0.04363 0.54740
 O223 O 1.07960 -0.00873 0.52454
 O224 O 0.94078 -0.01835 0.47127
 O225 O 1.02386 -0.00853 0.43969
 O226 O 0.98406 -0.03819 0.54474
 O227 O 0.94145 -0.01661 0.53213
 O228 O 1.04193 -0.03095 0.48356
 O229 O 1.03864 -0.03011 0.54281
 O230 O 0.96895 0.00254 0.43422
 Co231 Co 1.04561 0.00442 0.50201
 Co232 Co 0.94780 0.01053 0.49979
 Co233 Co 1.00244 0.02351 0.45166
 Co234 Co 1.00702 -0.00504 0.54917
 O235 O 0.99879 0.00938 0.49944
 C236 C 1.06786 -0.02647 0.54573
 C237 C 0.94956 -0.01688 0.44292
 C238 C 1.03563 -0.03099 0.45372
 C239 C 0.95539 -0.03820 0.54434
 C240 C 1.11348 0.16689 0.29807
 C241 C 1.12770 0.14400 0.31680
 C242 C 1.15659 0.13432 0.30731
 C243 C 1.17015 0.14684 0.28002
 C244 C 1.15517 0.16869 0.26053
 C245 C 1.12692 0.17890 0.27065
 C246 C 1.17173 0.11178 0.32472
 C247 C 1.15812 0.09748 0.35049
 C248 C 1.12877 0.10541 0.36020
 C249 C 1.11392 0.12987 0.34397
 C250 C 1.08566 0.13917 0.35524
 C251 C 1.07149 0.12426 0.38021
 C252 C 1.08466 0.09935 0.39484
 C253 C 1.11359 0.08958 0.38539
 C254 C 1.12549 0.06379 0.40089
 C255 C 1.10890 0.04821 0.42406
 C256 C 1.08014 0.05785 0.43268
 C257 C 1.06850 0.08377 0.41843
 H258 H 1.09133 0.17543 0.30316
 H259 H 1.19283 0.13952 0.27444
 H260 H 1.11379 0.19507 0.25650
 H261 H 1.19411 0.10460 0.31789
 H262 H 1.17134 0.08021 0.36237
 H263 H 1.07374 0.15806 0.34527
 H264 H 1.04956 0.13200 0.38771
 H265 H 1.14707 0.05453 0.39503
 H266 H 1.11829 0.02817 0.43469
 H267 H 1.04618 0.09141 0.42494
 C268 C 0.83046 -0.14678 0.33630
 C269 C 0.86152 -0.13657 0.33646
 C270 C 0.88007 -0.14589 0.31184
 C271 C 0.86797 -0.16517 0.28861
 C272 C 0.83661 -0.17414 0.28784
 C273 C 0.81829 -0.16486 0.31235
 C274 C 0.91034 -0.13514 0.30980
 C275 C 0.92217 -0.11428 0.33072
 C276 C 0.90442 -0.10396 0.35533
 C277 C 0.87435 -0.11662 0.35945
 C278 C 0.85820 -0.10903 0.38648
 C279 C 0.87036 -0.08884 0.40797
 C280 C 0.89862 -0.07475 0.40295
 C281 C 0.91589 -0.08170 0.37628
 C282 C 0.94358 -0.06556 0.37132
 C283 C 0.95392 -0.04410 0.39249
 C284 C 0.93733 -0.03821 0.41947
 C285 C 0.90966 -0.05363 0.42452
 H286 H 0.81449 -0.14029 0.35360
 H287 H 0.88254 -0.17115 0.26958
 H288 H 0.79433 -0.17193 0.31353
 H289 H 0.92481 -0.14236 0.29125
 H290 H 0.94569 -0.10707 0.32745
 H291 H 0.83630 -0.11894 0.39223
 H292 H 0.85721 -0.08384 0.42850
 H293 H 0.95743 -0.06854 0.35095
 H294 H 0.97532 -0.03239 0.38799
 H295 H 0.89648 -0.04897 0.44515
 C296 C 0.91499 0.11851 0.74083
 C297 C 0.91325 0.12657 0.70753
 C298 C 0.89609 0.15166 0.69766
 C299 C 0.88146 0.16781 0.72037
 C300 C 0.88239 0.15868 0.75289
 C301 C 0.89952 0.13420 0.76296
 C302 C 0.89258 0.15988 0.66505
 C303 C 0.90408 0.14281 0.64171
 C304 C 0.92023 0.11700 0.65016
 C305 C 0.92661 0.10980 0.68364
 C306 C 0.94586 0.08594 0.69206
 C307 C 0.95674 0.06849 0.66872
 C308 C 0.94842 0.07369 0.63615
 C309 C 0.93012 0.09804 0.62630
 C310 C 0.92153 0.10173 0.59303
 C311 C 0.93068 0.08206 0.57075
 C312 C 0.94879 0.05809 0.58065
 C313 C 0.95792 0.05429 0.61341
 H314 H 0.92682 0.09942 0.75039
 H315 H 0.86777 0.18653 0.71247
 H316 H 0.90032 0.12676 0.78805
 H317 H 0.87993 0.17929 0.65739
 H318 H 0.90014 0.15062 0.61709
 H319 H 0.95328 0.08034 0.71664
 H320 H 0.97122 0.05024 0.67636
 H321 H 0.90697 0.11910 0.58350
 H322 H 0.92331 0.08560 0.54558
 H323 H 0.97197 0.03585 0.62141
 C324 C 1.13396 -0.16655 0.68791
 C325 C 1.14689 -0.14545 0.66666
 C326 C 1.17960 -0.14357 0.66641
 C327 C 1.19824 -0.16197 0.68664
 C328 C 1.18525 -0.18254 0.70827
 C329 C 1.15269 -0.18462 0.70813
 C330 C 1.19378 -0.12325 0.64602
 C331 C 1.17629 -0.10414 0.62627
 C332 C 1.14361 -0.10465 0.62590
 C333 C 1.12862 -0.12604 0.64595
 C334 C 1.09590 -0.12735 0.64454
 C335 C 1.07840 -0.10829 0.62468
 C336 C 1.09262 -0.08696 0.60558
 C337 C 1.12540 -0.08462 0.60596
 C338 C 1.13850 -0.06211 0.58649
 C339 C 1.11981 -0.04328 0.56722
 C340 C 1.08752 -0.04610 0.56663
 C341 C 1.07408 -0.06792 0.58602
 H342 H 1.10938 -0.16935 0.69015
 H343 H 1.22309 -0.16057 0.68458
 H344 H 1.14115 -0.19918 0.72482
 H345 H 1.21882 -0.12189 0.64551
 H346 H 1.18928 -0.08930 0.61132
 H347 H 1.08289 -0.14308 0.65837
 H348 H 1.05335 -0.11021 0.62439
 H349 H 1.16307 -0.05820 0.58569
 H350 H 1.13077 -0.02641 0.55269
 H351 H 1.04906 -0.07019 0.58586
 C352 C 0.26319 1.09405 1.10864
 C353 C 0.28895 1.10493 1.09217
 C354 C 0.29444 1.13542 1.09121
 C355 C 0.27417 1.15412 1.10527
 C356 C 0.24911 1.14302 1.12250
 C357 C 0.24399 1.11269 1.12379
 C358 C 0.32076 1.14706 1.07717
 C359 C 0.34286 1.12896 1.06602
 C360 C 0.33884 1.09842 1.06744
 C361 C 0.31030 1.08644 1.07816
 C362 C 0.30418 1.05642 1.07465
 C363 C 0.32626 1.03830 1.06348
 C364 C 0.35561 1.04917 1.05665
 C365 C 0.36243 1.07938 1.05872
 C366 C 0.39314 1.08907 1.05379
 C367 C 0.41605 1.06942 1.04760
 C368 C 0.40893 1.03978 1.04519
 C369 C 0.37854 1.02982 1.04887
 H370 H 0.25797 1.07110 1.11142
 H371 H 0.27950 1.17725 1.10476
 H372 H 0.22450 1.10308 1.13587
 H373 H 0.32489 1.17040 1.07583
 H374 H 0.36272 1.13954 1.05580
 H375 H 0.28217 1.04638 1.07984
 H376 H 0.32069 1.01533 1.06140
 H377 H 0.40054 1.11145 1.05614
 H378 H 0.43952 1.07742 1.04469
 H379 H 0.37315 1.00675 1.04730
 C380 C 0.36123 0.80864 0.86157
 C381 C 0.37744 0.83214 0.84696
 C382 C 0.36919 0.83989 0.81435
 C383 C 0.34611 0.82395 0.79705
 C384 C 0.32913 0.80151 0.81237
 C385 C 0.33732 0.79403 0.84475
 C386 C 0.38300 0.86432 0.79970
 C387 C 0.40291 0.88257 0.81749
 C388 C 0.41081 0.87627 0.85040
 C389 C 0.39992 0.84938 0.86443
 C390 C 0.41137 0.84085 0.89571
 C391 C 0.42982 0.85948 0.91422
 C392 C 0.43716 0.88738 0.90243
 C393 C 0.42851 0.89612 0.87015
 C394 C 0.43632 0.92497 0.85982
 C395 C 0.45030 0.94464 0.88139
 C396 C 0.45719 0.93601 0.91361
 C397 C 0.45184 0.90700 0.92345
 H398 H 0.36498 0.80227 0.88669
 H399 H 0.34065 0.82991 0.77195
 H400 H 0.32426 0.77775 0.85802
 H401 H 0.37720 0.87020 0.77461
 H402 H 0.41192 0.90148 0.80478
 H403 H 0.40649 0.81971 0.90656
 H404 H 0.43730 0.85240 0.93855
 H405 H 0.43040 0.93345 0.83579
 H406 H 0.45440 0.96695 0.87323
 H407 H 0.45752 0.90000 0.94826
 C408 C 0.68872 0.83095 1.11241
 C409 C 0.66727 0.84661 1.12914
 C410 C 0.66678 0.84164 1.16293
 C411 C 0.68953 0.82457 1.17948
 C412 C 0.71288 0.81145 1.16290
 C413 C 0.71096 0.81370 1.12895
 C414 C 0.64411 0.85441 1.18015
 C415 C 0.62235 0.87270 1.16464
 C416 C 0.62325 0.87990 1.13136
 C417 C 0.64667 0.86726 1.11354
 C418 C 0.64997 0.87689 1.08123
 C419 C 0.63116 0.89825 1.06680
 C420 C 0.60762 0.91008 1.08349
 C421 C 0.60244 0.90034 1.11557
 C422 C 0.57659 0.91153 1.13036
 C423 C 0.55750 0.93218 1.11418
 C424 C 0.56404 0.94276 1.08325
 C425 C 0.58914 0.93165 1.06812
 H426 H 0.68911 0.83177 1.08647
 H427 H 0.68890 0.82157 1.20544
 H428 H 0.72805 0.80408 1.11474
 H429 H 0.64335 0.85046 1.20599
 H430 H 0.60604 0.88211 1.17979
 H431 H 0.66799 0.86937 1.06684
 H432 H 0.63505 0.90553 1.04219
 H433 H 0.57006 0.90424 1.15403
 H434 H 0.53778 0.94013 1.12601
 H435 H 0.59387 0.93935 1.04387
 C436 C 0.74107 1.09866 0.88844
 C437 C 0.71135 1.10864 0.89462
 C438 C 0.70418 1.13775 0.88507
 C439 C 0.72650 1.15621 0.87105
 C440 C 0.75590 1.14587 0.86454
 C441 C 0.76266 1.11679 0.87364
 C442 C 0.67455 1.14814 0.88896
 C443 C 0.65157 1.13006 0.90132
 C444 C 0.65758 1.10092 0.91126
 C445 C 0.68837 1.09050 0.90924
 C446 C 0.69531 1.06245 0.92231
 C447 C 0.67282 1.04479 0.93593
 C448 C 0.64237 1.05399 0.93651
 C449 C 0.63406 1.08197 0.92375
 C450 C 0.60241 1.08954 0.92370
 C451 C 0.58042 1.07045 0.93676
 C452 C 0.58924 1.04341 0.95045
 C453 C 0.62019 1.03526 0.95000
 H454 H 0.74827 1.07667 0.89399
 H455 H 0.72005 1.17816 0.86343
 H456 H 0.78523 1.10793 0.87033
 H457 H 0.66888 1.17040 0.88185
 H458 H 0.62938 1.13985 0.90354
 H459 H 0.71827 1.05369 0.92324
 H460 H 0.67934 1.02352 0.94592
 H461 H 0.59381 1.10984 0.91336
 H462 H 0.55652 1.07712 0.93662
 H463 H 0.62708 1.01414 0.96014
 C464 C 0.14478 0.30514 0.07793
 C465 C 0.14018 0.33109 0.09421
 C466 C 0.14864 0.33125 0.12770
 C467 C 0.16097 0.30629 0.14392
 C468 C 0.16490 0.28070 0.12736
 C469 C 0.15682 0.28054 0.09426
 C470 C 0.14417 0.35613 0.14499
 C471 C 0.13024 0.38051 0.13019
 C472 C 0.12033 0.38109 0.09720
 C473 C 0.12640 0.35635 0.07868
 C474 C 0.11789 0.35742 0.04534
 C475 C 0.10148 0.38052 0.03116
 C476 C 0.09321 0.40367 0.04936
 C477 C 0.10354 0.40507 0.08228
 C478 C 0.09541 0.42993 0.09903
 C479 C 0.07575 0.45095 0.08435
 C480 C 0.06369 0.44782 0.05273
 C481 C 0.07356 0.42487 0.03501
 H482 H 0.13858 0.30269 0.05272
 H483 H 0.16732 0.30670 0.16951
 H484 H 0.15899 0.26093 0.08095
 H485 H 0.15089 0.35653 0.17050
 H486 H 0.12712 0.39847 0.14552
 H487 H 0.12313 0.34049 0.02939
 H488 H 0.09453 0.37989 0.00573
 H489 H 0.10288 0.43332 0.12378
 H490 H 0.06847 0.46874 0.09841
 H491 H 0.06483 0.42292 0.01028
 C492 C -0.14643 0.33813 -0.17553
 C493 C -0.14683 0.34615 -0.14295
 C494 C -0.15914 0.32557 -0.12060
 C495 C -0.16820 0.29752 -0.13018
 C496 C -0.16562 0.28928 -0.16210
 C497 C -0.15560 0.31022 -0.18480
 C498 C -0.16141 0.33266 -0.08850
 C499 C -0.15046 0.35929 -0.07754
 C500 C -0.13607 0.37985 -0.09823
 C501 C -0.13453 0.37333 -0.13158
 C502 C -0.11926 0.39348 -0.15205
 C503 C -0.10428 0.41812 -0.14008
 C504 C -0.10441 0.42410 -0.10745
 C505 C -0.12151 0.40589 -0.08630
 C506 C -0.12207 0.41394 -0.05373
 C507 C -0.10368 0.43698 -0.04213
 C508 C -0.08439 0.45299 -0.06254
 C509 C -0.08616 0.44738 -0.09554
 H510 H -0.13888 0.35276 -0.19449
 H511 H -0.17586 0.28165 -0.11223
 H512 H -0.15442 0.30491 -0.20988
 H513 H -0.17122 0.31716 -0.07140
 H514 H -0.15252 0.36255 -0.05223
 H515 H -0.11724 0.39026 -0.17737
 H516 H -0.09169 0.43224 -0.15647
 H517 H -0.13573 0.40241 -0.03631
 H518 H -0.10333 0.44120 -0.01663
 H519 H -0.07178 0.45998 -0.11172
 C520 C 0.19622 0.66576 -0.12759
 C521 C 0.17430 0.64608 -0.14170
 C522 C 0.16907 0.64792 -0.17574
 C523 C 0.18464 0.66909 -0.19444
 C524 C 0.20543 0.68902 -0.17984
 C525 C 0.21130 0.68680 -0.14634
 C526 C 0.14773 0.62913 -0.19093
 C527 C 0.13028 0.60939 -0.17307
 C528 C 0.13349 0.60758 -0.13902
 C529 C 0.15664 0.62550 -0.12315
 C530 C 0.16084 0.62273 -0.08921
 C531 C 0.14179 0.60468 -0.07116
 C532 C 0.11787 0.58850 -0.08606
 C533 C 0.11376 0.58907 -0.12022
 C534 C 0.08925 0.57189 -0.13396
 C535 C 0.06882 0.55638 -0.11458
 C536 C 0.07213 0.55714 -0.08089
 C537 C 0.09736 0.57250 -0.06681
 H538 H 0.20167 0.66618 -0.10202
 H539 H 0.18015 0.67041 -0.22039
 H540 H 0.22683 0.70217 -0.13426
 H541 H 0.14394 0.63012 -0.21696
 H542 H 0.11412 0.59603 -0.18685
 H543 H 0.17852 0.63454 -0.07558
 H544 H 0.14540 0.60391 -0.04511
 H545 H 0.08453 0.57059 -0.15958
 H546 H 0.04970 0.54444 -0.12615
 H547 H 0.10029 0.57312 -0.04074
 C548 C -0.10339 0.71033 0.13011
 C549 C -0.11594 0.68308 0.12054
 C550 C -0.14518 0.67437 0.13185
 C551 C -0.16185 0.69319 0.15007
 C552 C -0.14942 0.72044 0.15841
 C553 C -0.11990 0.72858 0.14880
 C554 C -0.15765 0.64696 0.12487
 C555 C -0.14143 0.62760 0.10749
 C556 C -0.11239 0.63532 0.09540
 C557 C -0.10024 0.66405 0.10068
 C558 C -0.07314 0.67306 0.08538
 C559 C -0.05746 0.65422 0.06701
 C560 C -0.06762 0.62547 0.06378
 C561 C -0.09512 0.61542 0.07797
 C562 C -0.10348 0.58561 0.07502
 C563 C -0.08480 0.56666 0.05938
 C564 C -0.05762 0.57687 0.04564
 C565 C -0.04971 0.60650 0.04722
 H566 H -0.08065 0.71798 0.12404
 H567 H -0.18452 0.68662 0.15799
 H568 H -0.10982 0.74949 0.15517
 H569 H -0.18006 0.64021 0.13332
 H570 H -0.15271 0.60690 0.10316
 H571 H -0.06378 0.69491 0.08654
 H572 H -0.03665 0.66209 0.05583
 H573 H -0.12355 0.57595 0.08574
 H574 H -0.09128 0.54380 0.05871
 H575 H -0.02851 0.61464 0.03702
 C576 C 1.10162 0.16886 0.70085
 C577 C 1.11609 0.15096 0.67949
 C578 C 1.14886 0.14978 0.68184
 C579 C 1.16598 0.16361 0.70690
 C580 C 1.15119 0.18055 0.72884
 C581 C 1.11884 0.18352 0.72471
 C582 C 1.16435 0.13475 0.65918
 C583 C 1.14800 0.12079 0.63427
 C584 C 1.11528 0.12005 0.63203
 C585 C 1.09910 0.13428 0.65590
 C586 C 1.06666 0.13014 0.65650
 C587 C 1.05061 0.11239 0.63474
 C588 C 1.06594 0.09924 0.61062
 C589 C 1.09821 0.10409 0.60786
 C590 C 1.11208 0.09236 0.58120
 C591 C 1.09512 0.07439 0.56007
 C592 C 1.06410 0.06735 0.56508
 C593 C 1.04937 0.08044 0.58982
 H594 H 1.07699 0.17236 0.69941
 H595 H 1.19100 0.16200 0.70845
 H596 H 1.10617 0.19595 0.74111
 H597 H 1.18944 0.13389 0.66061
 H598 H 1.16167 0.10937 0.61803
 H599 H 1.05321 0.13899 0.67479
 H600 H 1.02592 0.10884 0.63691
 H601 H 1.13597 0.09668 0.57614
 H602 H 1.10677 0.06467 0.54078
 H603 H 1.02513 0.07542 0.59333
 C604 C 0.80803 -0.12736 0.65640
 C605 C 0.83966 -0.13142 0.65087
 C606 C 0.85572 -0.15252 0.67062
 C607 C 0.84078 -0.16832 0.69501
 C608 C 0.80942 -0.16378 0.70090
 C609 C 0.79337 -0.14310 0.68084
 C610 C 0.88694 -0.15748 0.66650
 C611 C 0.90304 -0.14136 0.64381
 C612 C 0.88851 -0.11938 0.62414
 C613 C 0.85608 -0.11484 0.62711
 C614 C 0.84131 -0.09354 0.60664
 C615 C 0.85779 -0.07627 0.58522
 C616 C 0.88962 -0.07941 0.58321
 C617 C 0.90545 -0.10132 0.60211
 C618 C 0.93781 -0.10353 0.59883
 C619 C 0.95374 -0.08387 0.57901
 C620 C 0.93807 -0.06153 0.56155
 C621 C 0.90583 -0.06004 0.56305
 H622 H 0.79383 -0.11200 0.64247
 H623 H 0.85461 -0.18296 0.71059
 H624 H 0.76899 -0.13938 0.68313
 H625 H 0.89929 -0.17384 0.68134
 H626 H 0.92708 -0.14660 0.64255
 H627 H 0.81691 -0.08936 0.60672
 H628 H 0.84552 -0.05979 0.57049
 H629 H 0.95178 -0.11962 0.61188
 H630 H 0.97864 -0.08564 0.57819
 H631 H 0.89337 -0.04295 0.54947
 C632 C 1.12035 -0.11727 0.29409
 C633 C 1.11111 -0.12615 0.32518
 C634 C 1.12219 -0.15304 0.33861
 C635 C 1.14040 -0.17082 0.32067
 C636 C 1.14913 -0.16160 0.28992
 C637 C 1.13920 -0.13468 0.27695
 C638 C 1.11545 -0.16178 0.37003
 C639 C 1.09909 -0.14383 0.38901
 C640 C 1.08780 -0.11677 0.37681
 C641 C 1.09224 -0.10874 0.34375
 C642 C 1.07749 -0.08369 0.33025
 C643 C 1.06102 -0.06578 0.34896
 C644 C 1.05919 -0.07170 0.38195
 C645 C 1.07233 -0.09731 0.39648
 C646 C 1.07064 -0.10158 0.43033
 C647 C 1.05757 -0.08068 0.44886
 C648 C 1.04526 -0.05520 0.43425
 C649 C 1.04526 -0.05141 0.40064
 H650 H 1.11427 -0.09656 0.28275
 H651 H 1.14850 -0.19151 0.33091
 H652 H 1.14592 -0.12718 0.25326
 H653 H 1.12360 -0.18241 0.38036
 H654 H 1.09511 -0.15204 0.41309
 H655 H 1.07784 -0.07756 0.30498
 H656 H 1.05043 -0.04653 0.33763
 H657 H 1.08057 -0.12011 0.44343
 H658 H 1.05796 -0.08408 0.47483
 H659 H 1.03600 -0.03169 0.38902
 C660 C 0.80882 0.15709 0.33978
 C661 C 0.84118 0.15933 0.34665
 C662 C 0.85812 0.17937 0.32747
 C663 C 0.84333 0.19555 0.30196
 C664 C 0.81127 0.19233 0.29437
 C665 C 0.79432 0.17315 0.31426
 C666 C 0.89004 0.18274 0.33318
 C667 C 0.90589 0.16586 0.35675
 C668 C 0.89040 0.14463 0.37565
 C669 C 0.85738 0.14185 0.37115
 C670 C 0.84180 0.12116 0.39069
 C671 C 0.85791 0.10271 0.41251
 C672 C 0.89013 0.10408 0.41593
 C673 C 0.90690 0.12547 0.39820
 C674 C 0.93963 0.12598 0.40302
 C675 C 0.95486 0.10511 0.42298
 C676 C 0.93814 0.08319 0.43906
 C677 C 0.90571 0.08342 0.43624
 H678 H 0.79387 0.14294 0.35343
 H679 H 0.85765 0.20921 0.28684
 H680 H 0.76943 0.17080 0.31085
 H681 H 0.90309 0.19833 0.31885
 H682 H 0.93050 0.16981 0.35917
 H683 H 0.81701 0.11824 0.38941
 H684 H 0.84495 0.08668 0.42637
 H685 H 0.95434 0.14165 0.39110
 H686 H 0.97996 0.10561 0.42495
 H687 H 0.89250 0.06669 0.44881
 C688 C 0.13675 0.34130 -0.16289
 C689 C 0.12794 0.34275 -0.13078
 C690 C 0.13492 0.31880 -0.10929
 C691 C 0.15155 0.29511 -0.11945
 C692 C 0.15885 0.29333 -0.15189
 C693 C 0.15131 0.31685 -0.17329
 C694 C 0.12411 0.31808 -0.07820
 C695 C 0.10493 0.33975 -0.06867
 C696 C 0.09720 0.36382 -0.08944
 C697 C 0.11104 0.36649 -0.11983
 C698 C 0.10775 0.39287 -0.13809
 C699 C 0.09029 0.41539 -0.12761
 C700 C 0.07420 0.41192 -0.09948
 C701 C 0.07663 0.38568 -0.08055
 C702 C 0.05751 0.38195 -0.05414
 C703 C 0.03807 0.40404 -0.04595
 C704 C 0.03757 0.43082 -0.06322
 C705 C 0.05550 0.43448 -0.09024
 H706 H 0.13119 0.35805 -0.18102
 H707 H 0.15623 0.27689 -0.10268
 H708 H 0.15711 0.31663 -0.19833
 H709 H 0.12956 0.30003 -0.06145
 H710 H 0.09722 0.33765 -0.04441
 H711 H 0.11945 0.39713 -0.16010
 H712 H 0.08876 0.43546 -0.14211
 H713 H 0.05645 0.36184 -0.03999
 H714 H 0.02382 0.40030 -0.02549
 H715 H 0.05461 0.45478 -0.10437
 C716 C -0.16770 0.33286 0.11714
 C717 C -0.14986 0.35386 0.13428
 C718 C -0.14827 0.35142 0.16841
 C719 C -0.16581 0.32984 0.18449
 C720 C -0.18383 0.30936 0.16705
 C721 C -0.18404 0.31099 0.13325
 C722 C -0.12879 0.37019 0.18621
 C723 C -0.10999 0.39068 0.17080
 C724 C -0.11106 0.39408 0.13683
 C725 C -0.13272 0.37649 0.11851
 C726 C -0.13704 0.38237 0.08503
 C727 C -0.11943 0.40342 0.06953
 C728 C -0.09642 0.41902 0.08658
 C729 C -0.09161 0.41466 0.12042
 C730 C -0.06705 0.43064 0.13604
 C731 C -0.04818 0.44991 0.11851
 C732 C -0.05348 0.45401 0.08514
 C733 C -0.07799 0.43881 0.06960
 H734 H -0.16840 0.33189 0.09123
 H735 H -0.16514 0.32894 0.21062
 H736 H -0.19622 0.29477 0.11891
 H737 H -0.12746 0.36854 0.21235
 H738 H -0.09535 0.40414 0.18619
 H739 H -0.15460 0.37155 0.07015
 H740 H -0.12350 0.40713 0.04371
 H741 H -0.06127 0.42805 0.16154
 H742 H -0.02926 0.46137 0.13102
 H743 H -0.08257 0.44197 0.04380
 C744 C -0.15878 0.67162 -0.18632
 C745 C -0.15059 0.66871 -0.15298
 C746 C -0.16132 0.68997 -0.13259
 C747 C -0.18045 0.71253 -0.14523
 C748 C -0.18718 0.71596 -0.17869
 C749 C -0.17627 0.69495 -0.19884
 C750 C -0.15188 0.68928 -0.09990
 C751 C -0.13074 0.66887 -0.08732
 C752 C -0.11920 0.64746 -0.10678
 C753 C -0.13100 0.64618 -0.13953
 C754 C -0.12302 0.62233 -0.15766
 C755 C -0.10294 0.60122 -0.14480
 C756 C -0.08920 0.60352 -0.11384
 C757 C -0.09662 0.62695 -0.09452
 C758 C -0.08046 0.62928 -0.06409
 C759 C -0.05854 0.60873 -0.05318
 C760 C -0.05242 0.58501 -0.07188
 C761 C -0.06789 0.58251 -0.10215
 H762 H -0.15079 0.65701 -0.20365
 H763 H -0.18774 0.72883 -0.12917
 H764 H -0.18160 0.69620 -0.22463
 H765 H -0.16014 0.70529 -0.08404
 H766 H -0.12441 0.66991 -0.06191
 H767 H -0.13270 0.61889 -0.18171
 H768 H -0.09764 0.58318 -0.15953
 H769 H -0.08367 0.64712 -0.04856
 H770 H -0.04674 0.61111 -0.02970
 H771 H -0.06290 0.56438 -0.11692
 C772 C 0.12928 0.66541 0.20221
 C773 C 0.13435 0.65744 0.17040
 C774 C 0.15799 0.67268 0.15415
 C775 C 0.17402 0.69624 0.16834
 C776 C 0.16721 0.70551 0.19912
 C777 C 0.14529 0.68887 0.21612
 C778 C 0.16498 0.66502 0.12326
 C779 C 0.14846 0.64305 0.10762
 C780 C 0.12365 0.62807 0.12205
 C781 C 0.11647 0.63535 0.15400
 C782 C 0.09089 0.62117 0.16794
 C783 C 0.07247 0.60118 0.15108
 C784 C 0.07892 0.59412 0.11984
 C785 C 0.10505 0.60683 0.10513
 C786 C 0.11104 0.59813 0.07374
 C787 C 0.09101 0.57901 0.05722
 C788 C 0.06448 0.56769 0.07132
 C789 C 0.05889 0.57484 0.10292
 H790 H 0.11310 0.65398 0.21715
 H791 H 0.19025 0.70844 0.15394
 H792 H 0.14057 0.69345 0.24071
 H793 H 0.18325 0.67642 0.11078
 H794 H 0.15523 0.63903 0.08366
 H795 H 0.08377 0.62570 0.19165
 H796 H 0.05265 0.59141 0.16252
 H797 H 0.13083 0.60577 0.06103
 H798 H 0.09607 0.57353 0.03293
 H799 H 0.03854 0.56591 0.11413
 C800 C 0.28316 1.13981 0.91379
 C801 C 0.31226 1.13524 0.90079
 C802 C 0.31827 1.14967 0.87092
 C803 C 0.29518 1.16605 0.85393
 C804 C 0.26625 1.16940 0.86670
 C805 C 0.26067 1.15675 0.89700
 C806 C 0.34715 1.14745 0.85796
 C807 C 0.37031 1.13097 0.87375
 C808 C 0.36516 1.11516 0.90282
 C809 C 0.33540 1.11675 0.91616
 C810 C 0.32934 1.09886 0.94357
 C811 C 0.35115 1.07947 0.95689
 C812 C 0.38027 1.07784 0.94426
 C813 C 0.38829 1.09664 0.91808
 C814 C 0.41907 1.09575 0.90805
 C815 C 0.44003 1.07547 0.92180
 C816 C 0.43095 1.05530 0.94564
 C817 C 0.40124 1.05701 0.95724
 H818 H 0.27715 1.13086 0.93701
 H819 H 0.29970 1.17636 0.83070
 H820 H 0.23851 1.15949 0.90741
 H821 H 0.35192 1.15854 0.83523
 H822 H 0.39168 1.13001 0.86169
 H823 H 0.30730 1.09832 0.95449
 H824 H 0.34507 1.06545 0.97723
 H825 H 0.42771 1.11047 0.88972
 H826 H 0.46307 1.07485 0.91285
 H827 H 0.39426 1.04178 0.97614
 C828 C 0.33208 0.85547 1.19688
 C829 C 0.33726 0.85329 1.16366
 C830 C 0.31715 0.83460 1.14546
 C831 C 0.29221 0.82002 1.15974
 C832 C 0.28662 0.82353 1.19229
 C833 C 0.30720 0.84091 1.21077
 C834 C 0.32154 0.83103 1.11287
 C835 C 0.34489 0.84623 1.09747
 C836 C 0.36479 0.86605 1.11404
 C837 C 0.36110 0.86945 1.14778
 C838 C 0.38070 0.88957 1.16426
 C839 C 0.40223 0.90665 1.14825
 C840 C 0.40549 0.90422 1.11528
 C841 C 0.38752 0.88337 1.09778
 C842 C 0.39259 0.88135 1.06451
 C843 C 0.41305 0.90045 1.04912
 C844 C 0.42933 0.92209 1.06625
 C845 C 0.42609 0.92324 1.09956
 H846 H 0.34660 0.86840 1.21288
 H847 H 0.27640 0.80676 1.14508
 H848 H 0.30394 0.84343 1.23618
 H849 H 0.30642 0.81657 1.09890
 H850 H 0.34618 0.84238 1.07218
 H851 H 0.37955 0.89330 1.18958
 H852 H 0.41616 0.92233 1.16181
 H853 H 0.38080 0.86563 1.04944
 H854 H 0.41536 0.89881 1.02341
 H855 H 0.43887 0.93965 1.11319
 C856 C 0.67900 1.17334 1.10404
 C857 C 0.65326 1.15897 1.11765
 C858 C 0.64890 1.16297 1.15081
 C859 C 0.67024 1.17954 1.16956
 C860 C 0.69609 1.19271 1.15585
 C861 C 0.69995 1.18983 1.12288
 C862 C 0.62354 1.15006 1.16533
 C863 C 0.60269 1.13252 1.14801
 C864 C 0.60656 1.12681 1.11528
 C865 C 0.63218 1.14036 1.09978
 C866 C 0.63641 1.13412 1.06725
 C867 C 0.61716 1.11448 1.05082
 C868 C 0.59262 1.10054 1.06582
 C869 C 0.58633 1.10711 1.09791
 C870 C 0.56047 1.09301 1.11153
 C871 C 0.54327 1.07182 1.09494
 C872 C 0.55085 1.06412 1.06407
 C873 C 0.57492 1.07930 1.04919
 H874 H 0.68389 1.17216 1.07899
 H875 H 0.66686 1.18205 1.19498
 H876 H 0.71983 1.19973 1.11171
 H877 H 0.61994 1.15325 1.19058
 H878 H 0.58415 1.12314 1.16143
 H879 H 0.65500 1.14346 1.05386
 H880 H 0.62188 1.10979 1.02618
 H881 H 0.55309 1.09739 1.13518
 H882 H 0.52438 1.06085 1.10681
 H883 H 0.58081 1.07372 1.02515
 C884 C 0.64630 0.85701 0.82310
 C885 C 0.64537 0.85869 0.85702
 C886 C 0.66940 0.84500 0.87628
 C887 C 0.69385 0.83149 0.86192
 C888 C 0.69497 0.83103 0.82825
 C889 C 0.67063 0.84347 0.80914
 C890 C 0.66925 0.84526 0.90981
 C891 C 0.64624 0.85943 0.92487
 C892 C 0.62243 0.87439 0.90690
 C893 C 0.62189 0.87390 0.87239
 C894 C 0.59853 0.88946 0.85440
 C895 C 0.57738 0.90602 0.86936
 C896 C 0.57819 0.90746 0.90284
 C897 C 0.59993 0.89089 0.92222
 C898 C 0.59872 0.89231 0.95616
 C899 C 0.57877 0.91131 0.96989
 C900 C 0.55922 0.92938 0.95045
 C901 C 0.55811 0.92638 0.91695
 H902 H 0.62865 0.86591 0.80651
 H903 H 0.71252 0.82203 0.87707
 H904 H 0.67029 0.84269 0.78309
 H905 H 0.68741 0.83464 0.92468
 H906 H 0.64836 0.85891 0.95082
 H907 H 0.59643 0.89010 0.82845
 H908 H 0.56053 0.91833 0.85444
 H909 H 0.61328 0.87954 0.97285
 H910 H 0.57962 0.91264 0.99588
 H911 H 0.54264 0.93987 0.90165
   
