data_POSCAR
  _audit_creation_date              2014-09-24
  _audit_creation_method            'ToBaCCo'
  _symmetry_space_group_name_H-M    'P1'
  _symmetry_Int_Tables_number       1
  _symmetry_cell_setting            triclinic
  loop_
  _symmetry_equiv_pos_as_xyz
 x,y,z
_cell_length_a 55.9706
_cell_length_b 55.9437
_cell_length_c 54.2452
_cell_angle_alpha 89.923300
_cell_angle_beta 89.928100
_cell_angle_gamma 86.969400
loop_
  _atom_site_label
  _atom_site_type_symbol
  _atom_site_fract_x
  _atom_site_fract_y
  _atom_site_fract_z
O1 O -0.01818 0.28234 0.02523
 O2 O 0.02629 0.28042 -0.02489
 O3 O -0.02027 0.28245 -0.02277
 O4 O 0.02829 0.27982 0.02312
 O5 O 0.02833 0.24039 0.02295
 O6 O -0.01998 0.24301 -0.02291
 O7 O 0.02661 0.24102 -0.02499
 O8 O -0.01815 0.24291 0.02504
 Cu9 Cu 0.00402 0.28520 0.00016
 Cu10 Cu 0.00422 0.23789 -0.00002
 C11 C -0.02576 0.26298 0.03377
 C12 C 0.03416 0.26041 -0.03356
 C13 C -0.02844 0.26313 -0.03069
 C14 C 0.03655 0.25962 0.03096
 O15 O 0.47067 0.77775 0.52814
 O16 O 0.51639 0.77855 0.47969
 O17 O 0.46992 0.77778 0.48024
 O18 O 0.51718 0.77681 0.52776
 O19 O 0.51926 0.73735 0.52668
 O20 O 0.47191 0.73830 0.47991
 O21 O 0.51846 0.73909 0.47867
 O22 O 0.47277 0.73826 0.52790
 Cu23 Cu 0.49337 0.78167 0.50401
 Cu24 Cu 0.49582 0.73430 0.50319
 C25 C 0.46387 0.75797 0.53638
 C26 C 0.52524 0.75906 0.47079
 C27 C 0.46275 0.75811 0.47206
 C28 C 0.52625 0.75683 0.53538
 O29 O 1.01906 0.72724 0.02769
 O30 O 0.97352 0.72839 -0.02120
 O31 O 1.02010 0.72798 -0.02030
 O32 O 0.97251 0.72835 0.02666
 O33 O 0.97104 0.76783 0.02682
 O34 O 1.01875 0.76740 -0.01978
 O35 O 0.97210 0.76786 -0.02102
 O36 O 1.01750 0.76667 0.02831
 Cu37 Cu 0.99649 0.72404 0.00316
 Cu38 Cu 0.99476 0.77139 0.00357
 C39 C 1.02604 0.74670 0.03655
 C40 C 0.96488 0.74829 -0.02939
 C41 C 1.02765 0.74765 -0.02810
 C42 C 0.96356 0.74819 0.03471
 O43 O 0.52677 0.21790 0.52616
 O44 O 0.48328 0.21790 0.47559
 O45 O 0.52963 0.21857 0.47824
 O46 O 0.48019 0.21861 0.52344
 O47 O 0.47815 0.25808 0.52303
 O48 O 0.52759 0.25804 0.47856
 O49 O 0.48137 0.25738 0.47511
 O50 O 0.52463 0.25737 0.52649
 Cu51 Cu 0.50518 0.21429 0.50091
 Cu52 Cu 0.50272 0.26167 0.50084
 C53 C 0.53319 0.23754 0.53502
 C54 C 0.47495 0.23755 0.46656
 C55 C 0.53700 0.23839 0.47061
 C56 C 0.47064 0.23844 0.53087
 O57 O 0.71428 -0.02237 0.02425
 O58 O 0.71545 0.02348 -0.02425
 O59 O 0.71676 -0.02308 -0.02377
 O60 O 0.71407 0.02415 0.02359
 O61 O 0.75351 0.02300 0.02461
 O62 O 0.75616 -0.02488 -0.02162
 O63 O 0.75487 0.02164 -0.02329
 O64 O 0.75367 -0.02345 0.02641
 Cu65 Cu 0.71119 0.00064 -0.00021
 Cu66 Cu 0.75850 -0.00111 0.00169
 C67 C 0.73370 -0.03062 0.03383
 C68 C 0.73529 0.03046 -0.03219
 C69 C 0.73696 -0.03205 -0.03080
 C70 C 0.73341 0.03175 0.03209
 O71 O 0.22185 0.47917 0.51849
 O72 O 0.22191 0.52286 0.46783
 O73 O 0.22406 0.47648 0.47057
 O74 O 0.22067 0.52578 0.51587
 O75 O 0.26008 0.52486 0.51739
 O76 O 0.26345 0.47627 0.47181
 O77 O 0.26130 0.52293 0.46963
 O78 O 0.26126 0.47839 0.51991
 Cu79 Cu 0.21818 0.50113 0.49309
 Cu80 Cu 0.26547 0.50049 0.49482
 C81 C 0.24148 0.47127 0.52789
 C82 C 0.24156 0.53042 0.46009
 C83 C 0.24440 0.46808 0.46330
 C84 C 0.23986 0.53375 0.52439
 O85 O 0.27411 1.02163 0.01978
 O86 O 0.27439 0.97668 -0.02969
 O87 O 0.27378 1.02328 -0.02829
 O88 O 0.27377 0.97511 0.01819
 O89 O 0.23432 0.97718 0.01798
 O90 O 0.23436 1.02520 -0.02825
 O91 O 0.23494 0.97869 -0.03001
 O92 O 0.23470 1.02375 0.01973
 Cu93 Cu 0.27795 0.99901 -0.00499
 Cu94 Cu 0.23064 1.00142 -0.00512
 C95 C 0.25441 1.03045 0.02832
 C96 C 0.25477 0.96994 -0.03832
 C97 C 0.25402 1.03249 -0.03631
 C98 C 0.25399 0.96786 0.02598
 O99 O 0.78273 0.52007 0.52461
 O100 O 0.78243 0.47348 0.47712
 O101 O 0.78133 0.52002 0.47669
 O102 O 0.78225 0.47349 0.52511
 O103 O 0.74280 0.47547 0.52546
 O104 O 0.74188 0.52169 0.47745
 O105 O 0.74296 0.47530 0.47735
 O106 O 0.74327 0.52207 0.52529
 Cu107 Cu 0.78614 0.49656 0.50086
 Cu108 Cu 0.73878 0.49877 0.50150
 C109 C 0.76313 0.52917 0.53302
 C110 C 0.76274 0.46650 0.46894
 C111 C 0.76135 0.52878 0.46878
 C112 C 0.76258 0.46653 0.53355
 C113 C 0.25101 0.25823 0.24445
 C114 C 0.26966 0.24153 0.24363
 C115 C 0.27030 0.22160 0.22546
 C116 C 0.29018 0.24257 0.26090
 C117 C 0.24830 0.27586 0.26490
 C118 C 0.23258 0.25992 0.22475
 C119 C 0.25103 0.20664 0.22340
 C120 C 0.25136 0.18851 0.20568
 C121 C 0.27107 0.18482 0.18977
 C122 C 0.29059 0.19949 0.19230
 C123 C 0.29025 0.21761 0.21004
 C124 C 0.29722 0.22250 0.27519
 C125 C 0.31547 0.22387 0.29263
 C126 C 0.32703 0.24534 0.29601
 C127 C 0.32053 0.26514 0.28105
 C128 C 0.30242 0.26370 0.26351
 C129 C 0.24569 0.30040 0.25960
 C130 C 0.24353 0.31715 0.27866
 C131 C 0.24371 0.30966 0.30342
 C132 C 0.24585 0.28501 0.30867
 C133 C 0.24805 0.26827 0.28959
 C134 C 0.23919 0.26198 0.19989
 C135 C 0.22173 0.26369 0.18151
 C136 C 0.19733 0.26361 0.18766
 C137 C 0.19078 0.26191 0.21261
 C138 C 0.20824 0.26016 0.23097
 H139 H 0.23567 0.20909 0.23547
 H140 H 0.23626 0.17725 0.20456
 H141 H 0.30594 0.19731 0.18018
 H142 H 0.30532 0.22891 0.21137
 H143 H 0.28809 0.20600 0.27336
 H144 H 0.32004 0.20837 0.30398
 H145 H 0.29768 0.27921 0.25223
 H146 H 0.24564 0.30661 0.24068
 H147 H 0.24150 0.33598 0.27402
 H148 H 0.24618 0.27870 0.32755
 H149 H 0.24966 0.24938 0.29406
 H150 H 0.25787 0.26229 0.19474
 H151 H 0.22734 0.26482 0.16245
 H152 H 0.17212 0.26221 0.21795
 H153 H 0.20278 0.25884 0.25007
 H154 H 0.32946 0.28174 0.28293
 C155 C 0.75585 0.74323 0.25475
 C156 C 0.73790 0.76069 0.25482
 C157 C 0.73821 0.78150 0.23773
 C158 C 0.71710 0.75937 0.27172
 C159 C 0.75790 0.72460 0.27429
 C160 C 0.77430 0.74178 0.23503
 C161 C 0.75850 0.79515 0.23598
 C162 C 0.75953 0.81335 0.21843
 C163 C 0.74012 0.81856 0.20256
 C164 C 0.71938 0.80563 0.20512
 C165 C 0.71843 0.78728 0.22258
 C166 C 0.71097 0.77842 0.28767
 C167 C 0.69229 0.77663 0.30460
 C168 C 0.67926 0.75581 0.30572
 C169 C 0.68498 0.73710 0.28911
 C170 C 0.70365 0.73890 0.27223
 C171 C 0.76037 0.70034 0.26778
 C172 C 0.76285 0.68270 0.28595
 C173 C 0.76306 0.68899 0.31103
 C174 C 0.76080 0.71334 0.31752
 C175 C 0.75834 0.73098 0.29931
 C176 C 0.76768 0.74117 0.21009
 C177 C 0.78515 0.73967 0.19168
 C178 C 0.80956 0.73845 0.19788
 C179 C 0.81612 0.73872 0.22289
 C180 C 0.79864 0.74030 0.24128
 H181 H 0.77375 0.79137 0.24790
 H182 H 0.77554 0.82334 0.21722
 H183 H 0.70419 0.80918 0.19308
 H184 H 0.70256 0.77706 0.22371
 H185 H 0.72110 0.79439 0.28748
 H186 H 0.68847 0.79128 0.31726
 H187 H 0.70780 0.72420 0.25970
 H188 H 0.76031 0.69507 0.24857
 H189 H 0.76494 0.66413 0.28037
 H190 H 0.76072 0.71872 0.33668
 H191 H 0.75691 0.74963 0.30471
 H192 H 0.74898 0.74174 0.20491
 H193 H 0.77957 0.73907 0.17259
 H194 H 0.83478 0.73806 0.22821
 H195 H 0.80409 0.74065 0.26042
 H196 H 0.67496 0.72106 0.28912
 C197 C 0.74825 0.23708 0.25347
 C198 C 0.76353 0.25525 0.25252
 C199 C 0.78318 0.25536 0.23404
 C200 C 0.76123 0.27580 0.26983
 C201 C 0.73073 0.23494 0.27387
 C202 C 0.74803 0.21859 0.23389
 C203 C 0.79977 0.23575 0.23192
 C204 C 0.81751 0.23549 0.21376
 C205 C 0.81912 0.25491 0.19746
 C206 C 0.80287 0.27481 0.20010
 C207 C 0.78514 0.27506 0.21829
 C208 C 0.78111 0.28234 0.28349
 C209 C 0.77886 0.30098 0.30058
 C210 C 0.75669 0.31346 0.30427
 C211 C 0.73695 0.30732 0.29008
 C212 C 0.73925 0.28880 0.27286
 C213 C 0.70645 0.23274 0.26845
 C214 C 0.68977 0.23084 0.28740
 C215 C 0.69706 0.23091 0.31219
 C216 C 0.72147 0.23267 0.31759
 C217 C 0.73817 0.23458 0.29859
 C218 C 0.74516 0.22513 0.20903
 C219 C 0.74495 0.20761 0.19074
 C220 C 0.74735 0.18321 0.19701
 C221 C 0.74984 0.17672 0.22196
 C222 C 0.75009 0.19426 0.24023
 H223 H 0.79886 0.22057 0.24424
 H224 H 0.83004 0.22012 0.21255
 H225 H 0.80346 0.28995 0.18770
 H226 H 0.77254 0.29037 0.21968
 H227 H 0.79824 0.27262 0.28133
 H228 H 0.79433 0.30523 0.31138
 H229 H 0.72383 0.28444 0.26205
 H230 H 0.70039 0.23275 0.24949
 H231 H 0.67116 0.22910 0.28265
 H232 H 0.72760 0.23291 0.33651
 H233 H 0.75689 0.23585 0.30316
 H234 H 0.74310 0.24382 0.20381
 H235 H 0.74319 0.21317 0.17168
 H236 H 0.75133 0.15807 0.22737
 H237 H 0.75207 0.18887 0.25933
 H238 H 0.71977 0.31693 0.29222
 C239 C 0.25576 0.76457 0.25074
 C240 C 0.23788 0.74896 0.25164
 C241 C 0.21738 0.75056 0.23417
 C242 C 0.23844 0.72929 0.27000
 C243 C 0.27419 0.76511 0.27042
 C244 C 0.25783 0.78190 0.23017
 C245 C 0.20422 0.77233 0.23033
 C246 C 0.18581 0.77394 0.21292
 C247 C 0.17990 0.75371 0.19934
 C248 C 0.19252 0.73174 0.20386
 C249 C 0.21106 0.73019 0.22112
 C250 C 0.22038 0.72838 0.28786
 C251 C 0.22160 0.71062 0.30604
 C252 C 0.24061 0.69317 0.30623
 C253 C 0.25829 0.69371 0.28787
 C254 C 0.25728 0.71171 0.26998
 C255 C 0.29855 0.76364 0.26419
 C256 C 0.31599 0.76489 0.28248
 C257 C 0.30938 0.76773 0.30736
 C258 C 0.28495 0.76931 0.31354
 C259 C 0.26752 0.76816 0.29523
 C260 C 0.25833 0.77418 0.20555
 C261 C 0.26044 0.79066 0.18638
 C262 C 0.26238 0.81511 0.19151
 C263 C 0.26220 0.82271 0.21621
 C264 C 0.26003 0.80625 0.23534
 H265 H 0.20835 0.78814 0.24065
 H266 H 0.17610 0.79099 0.21017
 H267 H 0.18846 0.71589 0.19357
 H268 H 0.22089 0.71319 0.22386
 H269 H 0.20569 0.74179 0.28807
 H270 H 0.20768 0.71043 0.31992
 H271 H 0.27128 0.71210 0.25620
 H272 H 0.30406 0.76142 0.24515
 H273 H 0.33467 0.76339 0.27719
 H274 H 0.27930 0.77193 0.33249
 H275 H 0.24881 0.76999 0.30036
 H276 H 0.25720 0.75539 0.20119
 H277 H 0.26091 0.78423 0.16756
 H278 H 0.26339 0.84145 0.22073
 H279 H 0.25977 0.81254 0.25422
 H280 H 0.27315 0.68050 0.28773
 C281 C 0.76559 0.25249 0.74800
 C282 C 0.74779 0.23674 0.74812
 C283 C 0.72730 0.23921 0.73069
 C284 C 0.74793 0.21643 0.76589
 C285 C 0.78391 0.25243 0.76779
 C286 C 0.76760 0.27069 0.72822
 C287 C 0.71395 0.26106 0.72819
 C288 C 0.69511 0.26335 0.71132
 C289 C 0.68897 0.24370 0.69699
 C290 C 0.70192 0.22167 0.70002
 C291 C 0.72089 0.21945 0.71673
 C292 C 0.72770 0.21288 0.78048
 C293 C 0.72799 0.19445 0.79790
 C294 C 0.74851 0.17911 0.80106
 C295 C 0.76852 0.18231 0.78592
 C296 C 0.76815 0.20064 0.76839
 C297 C 0.80829 0.25092 0.76163
 C298 C 0.82567 0.25067 0.78008
 C299 C 0.81900 0.25214 0.80505
 C300 C 0.79455 0.25408 0.81115
 C301 C 0.77717 0.25432 0.79268
 C302 C 0.76815 0.26405 0.70326
 C303 C 0.77004 0.28137 0.68486
 C304 C 0.77161 0.30563 0.69110
 C305 C 0.77149 0.31213 0.71613
 C306 C 0.76958 0.29482 0.73449
 H307 H 0.71816 0.27637 0.73926
 H308 H 0.68517 0.28041 0.70967
 H309 H 0.69768 0.20628 0.68909
 H310 H 0.73085 0.20240 0.71847
 H311 H 0.71182 0.22468 0.77866
 H312 H 0.71210 0.19218 0.80887
 H313 H 0.78378 0.20273 0.75696
 H314 H 0.81383 0.24968 0.74252
 H315 H 0.84436 0.24956 0.77480
 H316 H 0.78886 0.25507 0.83022
 H317 H 0.75844 0.25591 0.79778
 H318 H 0.76708 0.24546 0.69805
 H319 H 0.76993 0.27583 0.66575
 H320 H 0.77310 0.33060 0.72154
 H321 H 0.76944 0.30029 0.75364
 H322 H 0.78467 0.17097 0.78796
 C323 C 0.22978 0.73866 0.74749
 C324 C 0.24706 0.75498 0.74784
 C325 C 0.26765 0.75320 0.73044
 C326 C 0.24619 0.77521 0.76574
 C327 C 0.21186 0.73743 0.76762
 C328 C 0.22805 0.72108 0.72708
 C329 C 0.28143 0.73162 0.72777
 C330 C 0.30020 0.72982 0.71078
 C331 C 0.30586 0.74969 0.69646
 C332 C 0.29254 0.77148 0.69971
 C333 C 0.27362 0.77321 0.71656
 C334 C 0.26640 0.77978 0.77994
 C335 C 0.26551 0.79834 0.79721
 C336 C 0.24440 0.81273 0.80060
 C337 C 0.22435 0.80846 0.78598
 C338 C 0.22531 0.79004 0.76858
 C339 C 0.18741 0.73755 0.76199
 C340 C 0.17044 0.73633 0.78079
 C341 C 0.17764 0.73484 0.80558
 C342 C 0.20219 0.73440 0.81116
 C343 C 0.21914 0.73553 0.79234
 C344 C 0.22720 0.72864 0.70238
 C345 C 0.22552 0.71199 0.68336
 C346 C 0.22438 0.68746 0.68867
 C347 C 0.22487 0.68000 0.71344
 C348 C 0.22662 0.69665 0.73243
 H349 H 0.27754 0.71613 0.73876
 H350 H 0.31045 0.71294 0.70898
 H351 H 0.29643 0.78704 0.68882
 H352 H 0.26332 0.79006 0.71844
 H353 H 0.28272 0.76866 0.77798
 H354 H 0.28119 0.80112 0.80831
 H355 H 0.20970 0.78727 0.75738
 H356 H 0.18144 0.73889 0.74302
 H357 H 0.15166 0.73693 0.77595
 H358 H 0.20828 0.73283 0.83006
 H359 H 0.23797 0.73485 0.79704
 H360 H 0.22774 0.74747 0.69785
 H361 H 0.22477 0.71833 0.66449
 H362 H 0.22430 0.66122 0.71812
 H363 H 0.22717 0.69044 0.75136
 H364 H 0.20799 0.81953 0.78786
 C365 C 0.26220 0.24556 0.75036
 C366 C 0.24603 0.26468 0.75063
 C367 C 0.24745 0.28467 0.73265
 C368 C 0.22612 0.26636 0.76882
 C369 C 0.26298 0.22728 0.77030
 C370 C 0.27999 0.24192 0.73016
 C371 C 0.26884 0.29634 0.72931
 C372 C 0.27035 0.31424 0.71148
 C373 C 0.25038 0.32113 0.69694
 C374 C 0.22876 0.31000 0.70093
 C375 C 0.22731 0.29197 0.71864
 C376 C 0.22291 0.28666 0.78385
 C377 C 0.20474 0.28804 0.80157
 C378 C 0.18925 0.26922 0.80446
 C379 C 0.19218 0.24915 0.78894
 C380 C 0.21036 0.24778 0.77124
 C381 C 0.26240 0.20294 0.76430
 C382 C 0.26337 0.18557 0.78283
 C383 C 0.26507 0.19219 0.80773
 C384 C 0.26595 0.21659 0.81368
 C385 C 0.26503 0.23396 0.79512
 C386 C 0.27272 0.24142 0.70541
 C387 C 0.28965 0.23806 0.68659
 C388 C 0.31414 0.23487 0.69220
 C389 C 0.32129 0.23498 0.71703
 C390 C 0.30437 0.23839 0.73582
 H391 H 0.28444 0.29141 0.74035
 H392 H 0.28711 0.32281 0.70913
 H393 H 0.21312 0.31483 0.68990
 H394 H 0.21062 0.28329 0.72101
 H395 H 0.23484 0.30121 0.78222
 H396 H 0.20315 0.30363 0.81339
 H397 H 0.21222 0.23218 0.75946
 H398 H 0.26107 0.19741 0.74525
 H399 H 0.26308 0.16691 0.77762
 H400 H 0.26711 0.22226 0.83269
 H401 H 0.26596 0.25263 0.80011
 H402 H 0.25394 0.24357 0.70068
 H403 H 0.28355 0.23766 0.66767
 H404 H 0.34003 0.23286 0.72194
 H405 H 0.31033 0.23862 0.75480
 H406 H 0.18028 0.23456 0.79036
 C407 C 0.73799 0.75638 0.75242
 C408 C 0.75558 0.73858 0.75229
 C409 C 0.75683 0.72005 0.73272
 C410 C 0.77430 0.73663 0.77172
 C411 C 0.73682 0.77536 0.77148
 C412 C 0.71883 0.75788 0.73349
 C413 C 0.75583 0.69586 0.73921
 C414 C 0.75531 0.67831 0.72097
 C415 C 0.75596 0.68462 0.69589
 C416 C 0.75780 0.70882 0.68947
 C417 C 0.75834 0.72637 0.70774
 C418 C 0.76822 0.73553 0.79681
 C419 C 0.78608 0.73456 0.81484
 C420 C 0.81037 0.73429 0.80809
 C421 C 0.81638 0.73475 0.78293
 C422 C 0.79851 0.73585 0.76494
 C423 C 0.75588 0.79030 0.77508
 C424 C 0.75436 0.80808 0.79317
 C425 C 0.73367 0.81134 0.80780
 C426 C 0.71456 0.79647 0.80391
 C427 C 0.71609 0.77874 0.78585
 C428 C 0.71562 0.77865 0.71913
 C429 C 0.69782 0.78041 0.70112
 C430 C 0.68272 0.76148 0.69725
 C431 C 0.68576 0.74078 0.71192
 C432 C 0.70359 0.73904 0.72997
 H433 H 0.75485 0.69064 0.75841
 H434 H 0.75436 0.65977 0.72649
 H435 H 0.75821 0.71426 0.67032
 H436 H 0.75947 0.74494 0.70241
 H437 H 0.74964 0.73553 0.80242
 H438 H 0.78092 0.73378 0.83406
 H439 H 0.80358 0.73659 0.74568
 H440 H 0.77185 0.78822 0.76383
 H441 H 0.76922 0.81950 0.79549
 H442 H 0.69853 0.79830 0.81509
 H443 H 0.70120 0.76739 0.78328
 H444 H 0.72717 0.79339 0.72164
 H445 H 0.69615 0.79645 0.68993
 H446 H 0.67416 0.72605 0.70965
 H447 H 0.70548 0.72305 0.74122
 H448 H 0.83490 0.73477 0.77716
 C449 C 0.23294 0.05801 0.05676
 C450 C 0.23315 0.07515 0.07551
 C451 C 0.25481 0.08246 0.08530
 C452 C 0.27639 0.07188 0.07603
 C453 C 0.27620 0.05482 0.05723
 C454 C 0.25449 0.04763 0.04726
 C455 C 0.25385 0.10074 0.10528
 C456 C 0.27283 0.11226 0.11330
 C457 C 0.27153 0.13050 0.13320
 C458 C 0.29244 0.13487 0.14635
 C459 C 0.29226 0.15227 0.16483
 C460 C 0.27117 0.16594 0.17045
 C461 C 0.25024 0.16169 0.15718
 C462 C 0.25040 0.14423 0.13873
 H463 H 0.21581 0.05299 0.04972
 H464 H 0.21624 0.08282 0.08233
 H465 H 0.29355 0.07631 0.08327
 H466 H 0.29321 0.04718 0.05063
 H467 H 0.23656 0.10479 0.11365
 H468 H 0.29032 0.10817 0.10549
 H469 H 0.30899 0.12466 0.14239
 H470 H 0.30863 0.15488 0.17486
 H471 H 0.23383 0.17228 0.16065
 H472 H 0.23411 0.14205 0.12848
 C473 C 0.78553 0.55607 0.56046
 C474 C 0.78613 0.57436 0.57788
 C475 C 0.76486 0.58521 0.58726
 C476 C 0.74284 0.57759 0.57850
 C477 C 0.74224 0.55925 0.56103
 C478 C 0.76359 0.54829 0.55183
 C479 C 0.76654 0.60478 0.60548
 C480 C 0.74894 0.61139 0.62124
 C481 C 0.75116 0.63045 0.63994
 C482 C 0.73674 0.63012 0.66109
 C483 C 0.73835 0.64764 0.67925
 C484 C 0.75431 0.66604 0.67655
 C485 C 0.76844 0.66666 0.65516
 C486 C 0.76685 0.64912 0.63700
 H487 H 0.80232 0.54808 0.55368
 H488 H 0.80332 0.57999 0.58415
 H489 H 0.72603 0.58598 0.58465
 H490 H 0.72505 0.55383 0.55456
 H491 H 0.78354 0.61306 0.60675
 H492 H 0.73276 0.60163 0.62162
 H493 H 0.72428 0.61615 0.66367
 H494 H 0.72687 0.64696 0.69529
 H495 H 0.78092 0.68060 0.65256
 H496 H 0.77771 0.65049 0.62061
 C497 C 0.71128 0.94141 0.06023
 C498 C 0.71036 0.92483 0.07944
 C499 C 0.73102 0.91784 0.09284
 C500 C 0.75273 0.92805 0.08662
 C501 C 0.75366 0.94454 0.06726
 C502 C 0.73294 0.95145 0.05390
 C503 C 0.72876 0.90047 0.11340
 C504 C 0.74736 0.88880 0.12455
 C505 C 0.74480 0.87118 0.14480
 C506 C 0.76422 0.85505 0.15001
 C507 C 0.76273 0.83810 0.16882
 C508 C 0.74178 0.83693 0.18296
 C509 C 0.72243 0.85324 0.17803
 C510 C 0.72394 0.87030 0.15929
 H511 H 0.69496 0.94636 0.05033
 H512 H 0.69337 0.91743 0.08385
 H513 H 0.76899 0.92383 0.09677
 H514 H 0.77057 0.95216 0.06301
 H515 H 0.71076 0.89656 0.11876
 H516 H 0.76531 0.89121 0.11801
 H517 H 0.78055 0.85538 0.13930
 H518 H 0.77787 0.82562 0.17203
 H519 H 0.70623 0.85303 0.18895
 H520 H 0.70886 0.88289 0.15662
 C521 C 0.21960 0.44413 0.55572
 C522 C 0.21914 0.42782 0.57521
 C523 C 0.24020 0.42065 0.58785
 C524 C 0.26183 0.43043 0.58063
 C525 C 0.26230 0.44668 0.56102
 C526 C 0.24118 0.45373 0.54837
 C527 C 0.23845 0.40354 0.60869
 C528 C 0.25724 0.39126 0.61881
 C529 C 0.25502 0.37379 0.63925
 C530 C 0.27365 0.35636 0.64300
 C531 C 0.27224 0.33940 0.66182
 C532 C 0.25217 0.33955 0.67741
 C533 C 0.23371 0.35724 0.67401
 C534 C 0.23516 0.37429 0.65526
 H535 H 0.20299 0.44920 0.54641
 H536 H 0.20221 0.42075 0.58042
 H537 H 0.27839 0.42603 0.59022
 H538 H 0.27918 0.45395 0.55596
 H539 H 0.22062 0.40027 0.61511
 H540 H 0.27492 0.39291 0.61117
 H541 H 0.28923 0.35566 0.63110
 H542 H 0.28667 0.32587 0.66389
 H543 H 0.21827 0.35809 0.68608
 H544 H 0.22084 0.38793 0.65373
 C545 C 0.94901 0.28584 0.06488
 C546 C 0.93250 0.28669 0.08425
 C547 C 0.92288 0.26568 0.09316
 C548 C 0.93053 0.24362 0.08254
 C549 C 0.94713 0.24276 0.06321
 C550 C 0.95651 0.26386 0.05412
 C551 C 0.90564 0.26754 0.11397
 C552 C 0.88935 0.25129 0.11848
 C553 C 0.87180 0.25295 0.13912
 C554 C 0.85976 0.23240 0.14542
 C555 C 0.84283 0.23300 0.16440
 C556 C 0.83742 0.25424 0.17753
 C557 C 0.84933 0.27487 0.17118
 C558 C 0.86626 0.27430 0.15216
 H559 H 0.95597 0.30242 0.05842
 H560 H 0.92709 0.30389 0.09222
 H561 H 0.92420 0.22693 0.08939
 H562 H 0.95270 0.22551 0.05548
 H563 H 0.90637 0.28320 0.12552
 H564 H 0.88866 0.23584 0.10658
 H565 H 0.86345 0.21577 0.13558
 H566 H 0.83367 0.21689 0.16850
 H567 H 0.84566 0.29149 0.18102
 H568 H 0.87451 0.29077 0.14765
 C569 C 0.43391 0.77978 0.56353
 C570 C 0.41662 0.78014 0.58211
 C571 C 0.41039 0.75889 0.59367
 C572 C 0.42212 0.73713 0.58632
 C573 C 0.43937 0.73677 0.56759
 C574 C 0.44546 0.75810 0.55602
 C575 C 0.39206 0.76061 0.61353
 C576 C 0.38094 0.74190 0.62281
 C577 C 0.36216 0.74430 0.64216
 C578 C 0.34612 0.72599 0.64475
 C579 C 0.32795 0.72764 0.66247
 C580 C 0.32547 0.74766 0.67805
 C581 C 0.34177 0.76577 0.67584
 C582 C 0.36003 0.76406 0.65824
 H583 H 0.43817 0.79655 0.55503
 H584 H 0.40804 0.79717 0.58744
 H585 H 0.41845 0.72037 0.59509
 H586 H 0.44813 0.71980 0.56236
 H587 H 0.38684 0.77844 0.61988
 H588 H 0.38460 0.72423 0.61522
 H589 H 0.34744 0.71048 0.63279
 H590 H 0.31555 0.71347 0.66368
 H591 H 0.34059 0.78114 0.68799
 H592 H 0.37255 0.77812 0.65764
 C593 C 0.05316 0.72409 0.06441
 C594 C 0.07007 0.72342 0.08335
 C595 C 0.07754 0.74461 0.09402
 C596 C 0.06743 0.76665 0.08538
 C597 C 0.05061 0.76736 0.06629
 C598 C 0.04318 0.74608 0.05553
 C599 C 0.09536 0.74264 0.11435
 C600 C 0.10747 0.76099 0.12294
 C601 C 0.12560 0.75860 0.14293
 C602 C 0.14206 0.77653 0.14543
 C603 C 0.15954 0.77505 0.16383
 C604 C 0.16094 0.75558 0.18023
 C605 C 0.14427 0.73780 0.17805
 C606 C 0.12668 0.73935 0.15974
 H607 H 0.04797 0.70727 0.05674
 H608 H 0.07738 0.70618 0.08969
 H609 H 0.07204 0.78345 0.09340
 H610 H 0.04325 0.78466 0.06019
 H611 H 0.09925 0.72491 0.12174
 H612 H 0.10506 0.77839 0.11436
 H613 H 0.14158 0.79165 0.13290
 H614 H 0.17227 0.78893 0.16494
 H615 H 0.14463 0.72284 0.19076
 H616 H 0.11385 0.72558 0.15920
 C617 C 0.56198 0.21535 0.56316
 C618 C 0.57873 0.21480 0.58222
 C619 C 0.58483 0.23596 0.59398
 C620 C 0.57342 0.25781 0.58641
 C621 C 0.55670 0.25837 0.56721
 C622 C 0.55083 0.23715 0.55536
 C623 C 0.60275 0.23408 0.61417
 C624 C 0.61402 0.25266 0.62345
 C625 C 0.63263 0.25009 0.64292
 C626 C 0.64891 0.26817 0.64550
 C627 C 0.66705 0.26624 0.66320
 C628 C 0.66926 0.24616 0.67877
 C629 C 0.65266 0.22832 0.67663
 C630 C 0.63443 0.23031 0.65906
 H631 H 0.55785 0.19866 0.55447
 H632 H 0.58706 0.19770 0.58771
 H633 H 0.57698 0.27450 0.59534
 H634 H 0.54824 0.27542 0.56178
 H635 H 0.60764 0.21622 0.62070
 H636 H 0.61070 0.27033 0.61568
 H637 H 0.64784 0.28368 0.63350
 H638 H 0.67967 0.28022 0.66436
 H639 H 0.65363 0.21293 0.68878
 H640 H 0.62172 0.21644 0.65848
 C641 C 0.71387 0.05858 0.94005
 C642 C 0.71398 0.07629 0.92188
 C643 C 0.73558 0.08363 0.91207
 C644 C 0.75724 0.07317 0.92112
 C645 C 0.75720 0.05559 0.93949
 C646 C 0.73549 0.04800 0.94922
 C647 C 0.73478 0.10285 0.89324
 C648 C 0.75182 0.10512 0.87612
 C649 C 0.75053 0.12423 0.85714
 C650 C 0.76172 0.12000 0.83429
 C651 C 0.76090 0.13767 0.81600
 C652 C 0.74915 0.16013 0.82032
 C653 C 0.73830 0.16446 0.84339
 C654 C 0.73897 0.14675 0.86160
 H655 H 0.69676 0.05339 0.94703
 H656 H 0.69706 0.08421 0.91536
 H657 H 0.77426 0.07888 0.91446
 H658 H 0.77423 0.04804 0.94610
 H659 H 0.71887 0.11474 0.89272
 H660 H 0.76655 0.09182 0.87499
 H661 H 0.77086 0.10285 0.83046
 H662 H 0.76925 0.13363 0.79838
 H663 H 0.72965 0.18175 0.84758
 H664 H 0.73088 0.15095 0.87930
 C665 C 0.22179 0.55026 0.42358
 C666 C 0.22147 0.56693 0.40437
 C667 C 0.24035 0.58217 0.40138
 C668 C 0.26000 0.57996 0.41751
 C669 C 0.26056 0.56293 0.43644
 C670 C 0.24134 0.54807 0.43979
 C671 C 0.23933 0.59975 0.38099
 C672 C 0.24782 0.62159 0.38312
 C673 C 0.24575 0.63956 0.36311
 C674 C 0.24229 0.66386 0.36919
 C675 C 0.24024 0.68126 0.35068
 C676 C 0.24222 0.67468 0.32576
 C677 C 0.24615 0.65041 0.31966
 C678 C 0.24775 0.63297 0.33815
 H679 H 0.20683 0.53889 0.42560
 H680 H 0.20625 0.56819 0.39202
 H681 H 0.27508 0.59112 0.41529
 H682 H 0.27588 0.56157 0.44863
 H683 H 0.22978 0.59517 0.36443
 H684 H 0.25505 0.62710 0.40062
 H685 H 0.24091 0.66936 0.38830
 H686 H 0.23750 0.69991 0.35582
 H687 H 0.24779 0.64495 0.30055
 H688 H 0.25098 0.61441 0.33293
 C689 C 0.27684 0.94015 0.93439
 C690 C 0.27729 0.92287 0.91580
 C691 C 0.25610 0.91664 0.90416
 C692 C 0.23435 0.92846 0.91140
 C693 C 0.23390 0.94568 0.93013
 C694 C 0.25513 0.95170 0.94185
 C695 C 0.25782 0.89822 0.88437
 C696 C 0.23909 0.88704 0.87528
 C697 C 0.24113 0.86826 0.85587
 C698 C 0.22203 0.85324 0.85271
 C699 C 0.22304 0.83531 0.83475
 C700 C 0.24322 0.83198 0.81946
 C701 C 0.26223 0.84714 0.82235
 C702 C 0.26117 0.86518 0.84021
 H703 H 0.29354 0.94437 0.94300
 H704 H 0.29432 0.91425 0.91055
 H705 H 0.21764 0.92486 0.90255
 H706 H 0.21690 0.95443 0.93528
 H707 H 0.27563 0.89307 0.87790
 H708 H 0.22149 0.89081 0.88300
 H709 H 0.20631 0.85525 0.86435
 H710 H 0.20818 0.82379 0.83308
 H711 H 0.27780 0.84528 0.81049
 H712 H 0.27594 0.87681 0.84126
 C713 C 0.78471 0.43657 0.44192
 C714 C 0.78523 0.41972 0.42296
 C715 C 0.76413 0.41398 0.41089
 C716 C 0.74234 0.42564 0.41824
 C717 C 0.74181 0.44243 0.43735
 C718 C 0.76301 0.44815 0.44931
 C719 C 0.76603 0.39638 0.39042
 C720 C 0.74740 0.38572 0.38050
 C721 C 0.75003 0.36780 0.36040
 C722 C 0.73214 0.35139 0.35733
 C723 C 0.73416 0.33391 0.33896
 C724 C 0.75410 0.33254 0.32317
 C725 C 0.77172 0.34930 0.32580
 C726 C 0.76966 0.36685 0.34409
 H727 H 0.80138 0.44056 0.45074
 H728 H 0.80228 0.41116 0.41765
 H729 H 0.72570 0.42233 0.40910
 H730 H 0.72483 0.45124 0.44248
 H731 H 0.78391 0.39135 0.38403
 H732 H 0.72967 0.38904 0.38807
 H733 H 0.71674 0.35184 0.36947
 H734 H 0.72037 0.32113 0.33744
 H735 H 0.78701 0.34899 0.31352
 H736 H 0.78334 0.37975 0.34509
 C737 C 0.06053 0.23782 0.93774
 C738 C 0.07761 0.23727 0.91889
 C739 C 0.08598 0.25853 0.90911
 C740 C 0.07651 0.28052 0.91849
 C741 C 0.05948 0.28110 0.93739
 C742 C 0.05125 0.25977 0.94736
 C743 C 0.10420 0.25671 0.88907
 C744 C 0.11652 0.27509 0.88083
 C745 C 0.13478 0.27279 0.86097
 C746 C 0.13996 0.29324 0.84737
 C747 C 0.15742 0.29206 0.82890
 C748 C 0.17032 0.27040 0.82376
 C749 C 0.16527 0.24993 0.83750
 C750 C 0.14776 0.25109 0.85594
 H751 H 0.05469 0.22097 0.94478
 H752 H 0.08443 0.22006 0.91200
 H753 H 0.08181 0.29744 0.91128
 H754 H 0.05271 0.29840 0.94409
 H755 H 0.10753 0.23924 0.88085
 H756 H 0.11313 0.29279 0.88839
 H757 H 0.13035 0.31020 0.85096
 H758 H 0.16068 0.30810 0.81850
 H759 H 0.17528 0.23310 0.83440
 H760 H 0.14497 0.23512 0.86658
 C761 C 0.55038 0.78190 0.44182
 C762 C 0.56766 0.78281 0.42332
 C763 C 0.57853 0.76173 0.41350
 C764 C 0.57181 0.73955 0.42290
 C765 C 0.55446 0.73864 0.44145
 C766 C 0.54355 0.75981 0.45110
 C767 C 0.59698 0.76403 0.39403
 C768 C 0.60577 0.74595 0.37990
 C769 C 0.62429 0.74903 0.36073
 C770 C 0.63960 0.72933 0.35439
 C771 C 0.65739 0.73151 0.33656
 C772 C 0.66009 0.75343 0.32442
 C773 C 0.64445 0.77305 0.33040
 C774 C 0.62669 0.77088 0.34830
 H775 H 0.54237 0.79858 0.44886
 H776 H 0.57250 0.80015 0.41658
 H777 H 0.58002 0.72281 0.41643
 H778 H 0.54970 0.72135 0.44833
 H779 H 0.60357 0.78169 0.39133
 H780 H 0.59991 0.72805 0.38262
 H781 H 0.63802 0.71227 0.36356
 H782 H 0.66931 0.71612 0.33258
 H783 H 0.64571 0.79001 0.32098
 H784 H 0.61466 0.78623 0.35196
 C785 C 0.93576 0.77037 0.94245
 C786 C 0.91758 0.77057 0.92477
 C787 C 0.90943 0.74906 0.91545
 C788 C 0.91966 0.72726 0.92448
 C789 C 0.93782 0.72706 0.94216
 C790 C 0.94607 0.74860 0.95137
 C791 C 0.88971 0.75011 0.89713
 C792 C 0.88577 0.73230 0.88133
 C793 C 0.86616 0.73333 0.86292
 C794 C 0.86851 0.71887 0.84185
 C795 C 0.85042 0.71915 0.82410
 C796 C 0.82940 0.73372 0.82717
 C797 C 0.82682 0.74788 0.84848
 C798 C 0.84496 0.74769 0.86620
 H799 H 0.94161 0.78729 0.94924
 H800 H 0.90987 0.78761 0.91831
 H801 H 0.91339 0.71028 0.91843
 H802 H 0.94521 0.70997 0.94882
 H803 H 0.87883 0.76665 0.89599
 H804 H 0.89806 0.71671 0.88085
 H805 H 0.88449 0.70742 0.83902
 H806 H 0.85277 0.70775 0.80806
 H807 H 0.81086 0.75935 0.85132
 H808 H 0.84212 0.75853 0.88254
 C809 C 0.44857 0.21552 0.43827
 C810 C 0.43260 0.21497 0.41856
 C811 C 0.42539 0.23602 0.40589
 C812 C 0.43477 0.25776 0.41334
 C813 C 0.45066 0.25832 0.43321
 C814 C 0.45776 0.23720 0.44585
 C815 C 0.40861 0.23414 0.38485
 C816 C 0.39659 0.25286 0.37428
 C817 C 0.37933 0.25045 0.35376
 C818 C 0.36215 0.26920 0.34952
 C819 C 0.34533 0.26762 0.33066
 C820 C 0.34537 0.24726 0.31553
 C821 C 0.36281 0.22867 0.31941
 C822 C 0.37973 0.23029 0.33819
 H823 H 0.45369 0.19890 0.44759
 H824 H 0.42583 0.19795 0.41319
 H825 H 0.43032 0.27436 0.40379
 H826 H 0.45764 0.27528 0.43845
 H827 H 0.40533 0.21624 0.37866
 H828 H 0.39827 0.27064 0.38161
 H829 H 0.36152 0.28500 0.36107
 H830 H 0.33197 0.28215 0.32822
 H831 H 0.36354 0.21299 0.30769
 H832 H 0.39320 0.21584 0.34011
 C833 C 0.76036 0.93803 0.94328
 C834 C 0.76166 0.92059 0.92488
 C835 C 0.74092 0.91377 0.91283
 C836 C 0.71874 0.92505 0.91947
 C837 C 0.71744 0.94245 0.93796
 C838 C 0.73823 0.94915 0.95003
 C839 C 0.74349 0.89541 0.89315
 C840 C 0.72529 0.88340 0.88420
 C841 C 0.72825 0.86521 0.86447
 C842 C 0.70852 0.86084 0.84954
 C843 C 0.71036 0.84359 0.83097
 C844 C 0.73195 0.83011 0.82711
 C845 C 0.75168 0.83435 0.84217
 C846 C 0.74986 0.85167 0.86071
 H847 H 0.77674 0.94282 0.95218
 H848 H 0.77899 0.91234 0.92006
 H849 H 0.70235 0.92101 0.91026
 H850 H 0.70015 0.95089 0.94256
 H851 H 0.76132 0.89168 0.88588
 H852 H 0.70734 0.88709 0.89103
 H853 H 0.69166 0.87094 0.85214
 H854 H 0.69491 0.84093 0.81950
 H855 H 0.76838 0.82388 0.83999
 H856 H 0.76522 0.85389 0.87241
 C857 C 0.26839 0.44016 0.43561
 C858 C 0.26996 0.42253 0.41738
 C859 C 0.24925 0.41294 0.40781
 C860 C 0.22679 0.42156 0.41676
 C861 C 0.22522 0.43926 0.43497
 C862 C 0.24600 0.44881 0.44456
 C863 C 0.25186 0.39495 0.38778
 C864 C 0.23522 0.37937 0.38234
 C865 C 0.23803 0.36165 0.36207
 C866 C 0.22540 0.34066 0.36329
 C867 C 0.22735 0.32370 0.34438
 C868 C 0.24176 0.32752 0.32366
 C869 C 0.25419 0.34866 0.32229
 C870 C 0.25231 0.36558 0.34122
 H871 H 0.28476 0.44718 0.44251
 H872 H 0.28746 0.41637 0.41068
 H873 H 0.21037 0.41518 0.40936
 H874 H 0.20769 0.44567 0.44133
 H875 H 0.26867 0.39397 0.37786
 H876 H 0.21938 0.37870 0.39373
 H877 H 0.21406 0.33733 0.37899
 H878 H 0.21727 0.30775 0.34579
 H879 H 0.26551 0.35207 0.30661
 H880 H 0.26174 0.38185 0.33918
 C881 C 0.23199 0.06092 0.93677
 C882 C 0.23168 0.07876 0.91875
 C883 C 0.25308 0.08707 0.90938
 C884 C 0.27496 0.07690 0.91825
 C885 C 0.27530 0.05901 0.93631
 C886 C 0.25381 0.05072 0.94581
 C887 C 0.25169 0.10556 0.88975
 C888 C 0.26949 0.11985 0.88438
 C889 C 0.26775 0.13825 0.86465
 C890 C 0.28242 0.15779 0.86595
 C891 C 0.28147 0.17538 0.84759
 C892 C 0.26596 0.17367 0.82739
 C893 C 0.25147 0.15397 0.82594
 C894 C 0.25241 0.13640 0.84427
 H895 H 0.21501 0.05507 0.94348
 H896 H 0.21459 0.08614 0.91211
 H897 H 0.29186 0.08225 0.91099
 H898 H 0.29248 0.05153 0.94260
 H899 H 0.23480 0.10807 0.88015
 H900 H 0.28556 0.11899 0.89548
 H901 H 0.29461 0.15950 0.88127
 H902 H 0.29316 0.19013 0.84902
 H903 H 0.23925 0.15220 0.81067
 H904 H 0.24137 0.12124 0.84212
 C905 C 0.73844 0.55611 0.43976
 C906 C 0.73746 0.57342 0.42120
 C907 C 0.75848 0.58256 0.41185
 C908 C 0.78068 0.57371 0.42121
 C909 C 0.78168 0.55629 0.43977
 C910 C 0.76055 0.54733 0.44926
 C911 C 0.75638 0.60060 0.39184
 C912 C 0.77316 0.61614 0.38680
 C913 C 0.77032 0.63446 0.36710
 C914 C 0.78269 0.65554 0.36909
 C915 C 0.78029 0.67330 0.35098
 C916 C 0.76564 0.67020 0.33032
 C917 C 0.75358 0.64891 0.32811
 C918 C 0.75596 0.63119 0.34622
 H919 H 0.72181 0.54952 0.44657
 H920 H 0.72014 0.57977 0.41419
 H921 H 0.79733 0.57978 0.41397
 H922 H 0.79899 0.54975 0.44659
 H923 H 0.73964 0.60187 0.38182
 H924 H 0.78891 0.61653 0.39831
 H925 H 0.79410 0.65837 0.38483
 H926 H 0.79014 0.68933 0.35298
 H927 H 0.74211 0.64604 0.31245
 H928 H 0.74675 0.61487 0.34358
 C929 C 0.05451 0.76926 0.94532
 C930 C 0.07257 0.76921 0.92753
 C931 C 0.08232 0.74762 0.91781
 C932 C 0.07401 0.72592 0.92669
 C933 C 0.05596 0.72592 0.94452
 C934 C 0.04587 0.74760 0.95404
 C935 C 0.10147 0.74850 0.89900
 C936 C 0.10622 0.73100 0.88255
 C937 C 0.12486 0.73229 0.86325
 C938 C 0.12264 0.71883 0.84165
 C939 C 0.13975 0.71965 0.82293
 C940 C 0.15960 0.73378 0.82555
 C941 C 0.16209 0.74691 0.84737
 C942 C 0.14496 0.74615 0.86607
 H943 H 0.04736 0.78634 0.95221
 H944 H 0.07882 0.78615 0.92118
 H945 H 0.08162 0.70888 0.92028
 H946 H 0.05002 0.70885 0.95088
 H947 H 0.11096 0.76483 0.89786
 H948 H 0.09516 0.71570 0.88212
 H949 H 0.10750 0.70779 0.83916
 H950 H 0.13757 0.70901 0.80650
 H951 H 0.17718 0.75801 0.84988
 H952 H 0.14772 0.75618 0.88276
 C953 C 0.56388 0.26072 0.44298
 C954 C 0.58166 0.26128 0.42497
 C955 C 0.59265 0.24000 0.41579
 C956 C 0.58534 0.21798 0.42497
 C957 C 0.56746 0.21741 0.44300
 C958 C 0.55647 0.23878 0.45213
 C959 C 0.61065 0.24166 0.39588
 C960 C 0.62730 0.22430 0.39058
 C961 C 0.64497 0.22645 0.37041
 C962 C 0.66703 0.21339 0.37189
 C963 C 0.68404 0.21493 0.35311
 C964 C 0.67918 0.22935 0.33229
 C965 C 0.65696 0.24217 0.33066
 C966 C 0.64001 0.24068 0.34943
 H967 H 0.55575 0.27752 0.44955
 H968 H 0.58680 0.27847 0.41810
 H969 H 0.59288 0.20117 0.41789
 H970 H 0.56204 0.20022 0.44955
 H971 H 0.61068 0.25843 0.38589
 H972 H 0.62893 0.20843 0.40202
 H973 H 0.67117 0.20207 0.38769
 H974 H 0.70085 0.20455 0.35471
 H975 H 0.65273 0.25351 0.31490
 H976 H 0.62293 0.25041 0.34719
 C977 C 0.94283 0.28600 0.94144
 C978 C 0.92459 0.28670 0.92383
 C979 C 0.91535 0.26546 0.91511
 C980 C 0.92430 0.24346 0.92489
 C981 C 0.94253 0.24276 0.94247
 C982 C 0.95209 0.26401 0.95085
 C983 C 0.89608 0.26698 0.89637
 C984 C 0.89188 0.24907 0.88081
 C985 C 0.87297 0.25052 0.86168
 C986 C 0.87523 0.23516 0.84129
 C987 C 0.85777 0.23573 0.82291
 C988 C 0.83751 0.25156 0.82462
 C989 C 0.83503 0.26672 0.84521
 C990 C 0.85253 0.26619 0.86359
 H991 H 0.94973 0.30270 0.94761
 H992 H 0.91784 0.30389 0.91680
 H993 H 0.91707 0.22674 0.91936
 H994 H 0.94906 0.22554 0.94956
 H995 H 0.88599 0.28394 0.89457
 H996 H 0.90353 0.23300 0.88106
 H997 H 0.89064 0.22271 0.83952
 H998 H 0.85997 0.22353 0.80749
 H999 H 0.81964 0.27916 0.84700
 H1000 H 0.84972 0.27779 0.87937
 C1001 C 0.43450 0.73644 0.44547
 C1002 C 0.41624 0.73630 0.42797
 C1003 C 0.40675 0.75776 0.41769
 C1004 C 0.41561 0.77954 0.42566
 C1005 C 0.43385 0.77968 0.44328
 C1006 C 0.44353 0.75812 0.45332
 C1007 C 0.38722 0.75664 0.39936
 C1008 C 0.38240 0.77362 0.38235
 C1009 C 0.36338 0.77184 0.36355
 C1010 C 0.36555 0.78406 0.34113
 C1011 C 0.34809 0.78268 0.32286
 C1012 C 0.32790 0.76924 0.32677
 C1013 C 0.32548 0.75736 0.34941
 C1014 C 0.34298 0.75867 0.36764
 H1015 H 0.44146 0.71951 0.45293
 H1016 H 0.40960 0.71931 0.42232
 H1017 H 0.40826 0.79651 0.41874
 H1018 H 0.44028 0.79670 0.44910
 H1019 H 0.37744 0.74045 0.39907
 H1020 H 0.39367 0.78872 0.38103
 H1021 H 0.38092 0.79455 0.33764
 H1022 H 0.35023 0.79237 0.30578
 H1023 H 0.31014 0.74684 0.35293
 H1024 H 0.34027 0.74962 0.38497
 C1025 C 0.23196 0.94034 0.05327
 C1026 C 0.23167 0.92194 0.07067
 C1027 C 0.25311 0.91126 0.07982
 C1028 C 0.27497 0.91904 0.07076
 C1029 C 0.27526 0.93747 0.05334
 C1030 C 0.25376 0.94837 0.04446
 C1031 C 0.25180 0.89181 0.09829
 C1032 C 0.26954 0.88572 0.11407
 C1033 C 0.26760 0.86707 0.13331
 C1034 C 0.28191 0.86820 0.15444
 C1035 C 0.28032 0.85129 0.17326
 C1036 C 0.26451 0.83270 0.17123
 C1037 C 0.25060 0.83119 0.14980
 C1038 C 0.25216 0.84813 0.13099
 H1039 H 0.21507 0.94827 0.04673
 H1040 H 0.21459 0.91615 0.07716
 H1041 H 0.29189 0.91076 0.07671
 H1042 H 0.29235 0.94308 0.04672
 H1043 H 0.23494 0.88329 0.09984
 H1044 H 0.28554 0.89575 0.11414
 H1045 H 0.29418 0.88241 0.15655
 H1046 H 0.29160 0.85267 0.18935
 H1047 H 0.23823 0.81709 0.14773
 H1048 H 0.24141 0.84616 0.11464
 C1049 C 0.74078 0.44094 0.56296
 C1050 C 0.74054 0.42353 0.58140
 C1051 C 0.76196 0.41248 0.59014
 C1052 C 0.78379 0.41952 0.58029
 C1053 C 0.78404 0.43703 0.56185
 C1054 C 0.76253 0.44791 0.55297
 C1055 C 0.76065 0.39447 0.61010
 C1056 C 0.77793 0.37754 0.61474
 C1057 C 0.77599 0.35944 0.63454
 C1058 C 0.78904 0.33742 0.63238
 C1059 C 0.78757 0.31989 0.65065
 C1060 C 0.77321 0.32415 0.67163
 C1061 C 0.76045 0.34634 0.67397
 C1062 C 0.76188 0.36383 0.65572
 H1063 H 0.72387 0.44901 0.55663
 H1064 H 0.72349 0.41860 0.58880
 H1065 H 0.80073 0.41197 0.58705
 H1066 H 0.80110 0.44214 0.55465
 H1067 H 0.74412 0.39452 0.62048
 H1068 H 0.79350 0.37592 0.60289
 H1069 H 0.80026 0.33369 0.61642
 H1070 H 0.79793 0.30312 0.64852
 H1071 H 0.74915 0.35013 0.68986
 H1072 H 0.75217 0.38085 0.65849
 C1073 C 0.71072 0.06002 0.06058
 C1074 C 0.71017 0.07798 0.07850
 C1075 C 0.73148 0.08708 0.08719
 C1076 C 0.75338 0.07830 0.07710
 C1077 C 0.75393 0.06034 0.05925
 C1078 C 0.73263 0.05091 0.05088
 C1079 C 0.73015 0.10609 0.10621
 C1080 C 0.74827 0.11012 0.12156
 C1081 C 0.74724 0.12899 0.14072
 C1082 C 0.76325 0.12684 0.16057
 C1083 C 0.76324 0.14437 0.17886
 C1084 C 0.74728 0.16457 0.17760
 C1085 C 0.73140 0.16690 0.15760
 C1086 C 0.73141 0.14936 0.13929
 H1087 H 0.69399 0.05321 0.05442
 H1088 H 0.69305 0.08463 0.08577
 H1089 H 0.77014 0.08546 0.08257
 H1090 H 0.77110 0.05393 0.05191
 H1091 H 0.71324 0.11618 0.10829
 H1092 H 0.76430 0.09844 0.12099
 H1093 H 0.77583 0.11150 0.16196
 H1094 H 0.77597 0.14228 0.19382
 H1095 H 0.71883 0.18223 0.15618
 H1096 H 0.71929 0.15210 0.12392
 C1097 C 0.26008 0.56276 0.55140
 C1098 C 0.25932 0.58132 0.56859
 C1099 C 0.23739 0.59097 0.57762
 C1100 C 0.21606 0.58194 0.56863
 C1101 C 0.21681 0.56336 0.55133
 C1102 C 0.23884 0.55350 0.54260
 C1103 C 0.23769 0.61068 0.59589
 C1104 C 0.21972 0.61613 0.61164
 C1105 C 0.22091 0.63499 0.63075
 C1106 C 0.20680 0.63335 0.65203
 C1107 C 0.20782 0.65041 0.67075
 C1108 C 0.22283 0.66967 0.66850
 C1109 C 0.23651 0.67167 0.64692
 C1110 C 0.23552 0.65458 0.62821
 H1111 H 0.27736 0.55567 0.54498
 H1112 H 0.27601 0.58805 0.57504
 H1113 H 0.19877 0.58937 0.57453
 H1114 H 0.20013 0.55676 0.54476
 H1115 H 0.25411 0.61996 0.59736
 H1116 H 0.20418 0.60542 0.61181
 H1117 H 0.19517 0.61863 0.65433
 H1118 H 0.19673 0.64862 0.68695
 H1119 H 0.24828 0.68627 0.64466
 H1120 H 0.24608 0.65696 0.61176
 C1121 C 0.93411 0.77033 0.06225
 C1122 C 0.91571 0.77067 0.07968
 C1123 C 0.90713 0.74924 0.08873
 C1124 C 0.91703 0.72735 0.07959
 C1125 C 0.93543 0.72700 0.06214
 C1126 C 0.94421 0.74849 0.05332
 C1127 C 0.88746 0.75056 0.10706
 C1128 C 0.88318 0.73279 0.12281
 C1129 C 0.86394 0.73454 0.14160
 C1130 C 0.86627 0.72028 0.16284
 C1131 C 0.84864 0.72152 0.18110
 C1132 C 0.82815 0.73691 0.17837
 C1133 C 0.82556 0.75085 0.15689
 C1134 C 0.84322 0.74964 0.13864
 H1135 H 0.94037 0.78721 0.05575
 H1136 H 0.90826 0.78777 0.08623
 H1137 H 0.91038 0.71046 0.08547
 H1138 H 0.94267 0.70989 0.05543
 H1139 H 0.87708 0.76738 0.10844
 H1140 H 0.89502 0.71686 0.12310
 H1141 H 0.88191 0.70828 0.16542
 H1142 H 0.85092 0.71025 0.19726
 H1143 H 0.80999 0.76292 0.15431
 H1144 H 0.84037 0.76034 0.12218
 C1145 C 0.44007 0.26079 0.55694
 C1146 C 0.42115 0.26137 0.57375
 C1147 C 0.41238 0.24009 0.58296
 C1148 C 0.42270 0.21806 0.57458
 C1149 C 0.44167 0.21748 0.55771
 C1150 C 0.45060 0.23885 0.54876
 C1151 C 0.39222 0.24183 0.60077
 C1152 C 0.38703 0.22428 0.61647
 C1153 C 0.36769 0.22691 0.63516
 C1154 C 0.36934 0.21276 0.65652
 C1155 C 0.35189 0.21518 0.67493
 C1156 C 0.33224 0.23169 0.67226
 C1157 C 0.33021 0.24539 0.65056
 C1158 C 0.34768 0.24298 0.63216
 H1159 H 0.44643 0.27760 0.55034
 H1160 H 0.41344 0.27857 0.57972
 H1161 H 0.41601 0.20125 0.58061
 H1162 H 0.44924 0.20029 0.55158
 H1163 H 0.38229 0.25892 0.60193
 H1164 H 0.39829 0.20797 0.61698
 H1165 H 0.38438 0.20002 0.65916
 H1166 H 0.35372 0.20403 0.69122
 H1167 H 0.31532 0.25830 0.64798
 H1168 H 0.34529 0.25364 0.61561
 C1169 C 0.06519 0.23618 0.05831
 C1170 C 0.08298 0.23500 0.07636
 C1171 C 0.09190 0.25596 0.08611
 C1172 C 0.08240 0.27827 0.07759
 C1173 C 0.06459 0.27946 0.05951
 C1174 C 0.05577 0.25843 0.04970
 C1175 C 0.11029 0.25372 0.10573
 C1176 C 0.12511 0.27099 0.11127
 C1177 C 0.14341 0.26852 0.13097
 C1178 C 0.16338 0.28263 0.12976
 C1179 C 0.18093 0.28099 0.14808
 C1180 C 0.17876 0.26533 0.16814
 C1181 C 0.15862 0.25143 0.16953
 C1182 C 0.14108 0.25306 0.15122
 H1183 H 0.05874 0.21964 0.05120
 H1184 H 0.08982 0.21759 0.08273
 H1185 H 0.08819 0.29486 0.08517
 H1186 H 0.05754 0.29688 0.05343
 H1187 H 0.11226 0.23667 0.11516
 H1188 H 0.12477 0.28718 0.10030
 H1189 H 0.16546 0.29490 0.11454
 H1190 H 0.19604 0.29223 0.14671
 H1191 H 0.15649 0.23914 0.18471
 H1192 H 0.12560 0.24246 0.15329
 C1193 C 0.55571 0.73402 0.56234
 C1194 C 0.57307 0.73310 0.58081
 C1195 C 0.58027 0.75412 0.59205
 C1196 C 0.56946 0.77624 0.58443
 C1197 C 0.55209 0.77716 0.56588
 C1198 C 0.54499 0.75606 0.55466
 C1199 C 0.59856 0.75182 0.61186
 C1200 C 0.61054 0.77007 0.62080
 C1201 C 0.62880 0.76712 0.64051
 C1202 C 0.63340 0.78689 0.65532
 C1203 C 0.65068 0.78501 0.67388
 C1204 C 0.66397 0.76333 0.67788
 C1205 C 0.65954 0.74357 0.66292
 C1206 C 0.64222 0.74543 0.64437
 H1207 H 0.55064 0.71741 0.55412
 H1208 H 0.58095 0.71581 0.58632
 H1209 H 0.57390 0.79290 0.59290
 H1210 H 0.54402 0.79441 0.56051
 H1211 H 0.60228 0.73405 0.61928
 H1212 H 0.60678 0.78803 0.61398
 H1213 H 0.62343 0.80383 0.65264
 H1214 H 0.65351 0.80050 0.68524
 H1215 H 0.66987 0.72679 0.66517
 H1216 H 0.63988 0.73003 0.63278
   
