data_POSCAR
  _audit_creation_date              2014-09-24
  _audit_creation_method            'ToBaCCo'
  _symmetry_space_group_name_H-M    'P1'
  _symmetry_Int_Tables_number       1
  _symmetry_cell_setting            triclinic
  loop_
  _symmetry_equiv_pos_as_xyz
 x,y,z
_cell_length_a 27.0760
_cell_length_b 27.0955
_cell_length_c 27.1404
_cell_angle_alpha 85.723500
_cell_angle_beta 92.930900
_cell_angle_gamma 94.740000
loop_
  _atom_site_label
  _atom_site_type_symbol
  _atom_site_fract_x
  _atom_site_fract_y
  _atom_site_fract_z
C1 C 0.61058 0.54743 0.01285
 C2 C 0.59821 0.59605 0.01810
 C3 C 0.54891 0.60852 0.01845
 C4 C 0.51013 0.56976 0.01715
 C5 C 0.52141 0.52017 0.01197
 C6 C 0.57168 0.50878 0.01053
 C7 C 0.58168 0.45850 0.01154
 C8 C 0.54370 0.42090 0.00966
 C9 C 0.49379 0.43150 0.00829
 C10 C 0.48235 0.48139 0.01064
 C11 C 0.46092 0.57834 0.02600
 C12 C 0.42298 0.54068 0.02442
 C13 C 0.43217 0.49230 0.01399
 C14 C 0.39323 0.45353 0.01193
 C15 C 0.40601 0.40452 0.00977
 C16 C 0.45516 0.39309 0.00761
 H17 H 0.61906 0.44714 0.01563
 H18 H 0.55410 0.38311 0.01091
 H19 H 0.45126 0.61399 0.03628
 H20 H 0.38659 0.54977 0.03359
 H21 H 0.62767 0.62573 0.01711
 H22 H 0.37707 0.37453 0.00727
 C23 C -0.00984 0.60805 0.44841
 C24 C -0.01328 0.59537 0.39935
 C25 C -0.01141 0.54614 0.38684
 C26 C -0.00950 0.50782 0.42577
 C27 C -0.00607 0.52035 0.47588
 C28 C -0.00588 0.57062 0.48717
 C29 C -0.00299 0.58210 0.53697
 C30 C -0.00007 0.54506 0.57505
 C31 C -0.00120 0.49489 0.56495
 C32 C -0.00393 0.48239 0.51495
 C33 C -0.01478 0.45718 0.41632
 C34 C -0.01196 0.42014 0.45445
 C35 C -0.00528 0.43194 0.50397
 C36 C -0.00191 0.39448 0.54298
 C37 C 0.00079 0.40746 0.59199
 C38 C 0.00048 0.45683 0.60354
 H39 H -0.00335 0.61989 0.54717
 H40 H 0.00291 0.55630 0.61257
 H41 H -0.02253 0.44532 0.37938
 H42 H -0.01624 0.38200 0.44465
 H43 H -0.01415 0.62523 0.37046
 H44 H 0.00268 0.37851 0.62173
 C45 C 0.54417 -0.01506 0.60598
 C46 C 0.59266 -0.02158 0.59304
 C47 C 0.60669 -0.01785 0.54373
 C48 C 0.56948 -0.01197 0.50526
 C49 C 0.51966 -0.00739 0.51727
 C50 C 0.50687 -0.00890 0.56757
 C51 C 0.45651 -0.00789 0.57794
 C52 C 0.42029 -0.00163 0.54037
 C53 C 0.43222 0.00102 0.49050
 C54 C 0.48218 -0.00258 0.47875
 C55 C 0.57997 -0.01414 0.45516
 C56 C 0.54372 -0.00789 0.41765
 C57 C 0.49456 -0.00209 0.42853
 C58 C 0.45731 0.00382 0.39049
 C59 C 0.40864 0.00909 0.40276
 C60 C 0.39541 0.00679 0.45200
 H61 H 0.44401 -0.01303 0.61527
 H62 H 0.38262 0.00050 0.55102
 H63 H 0.61619 -0.02177 0.44412
 H64 H 0.55472 -0.00830 0.37994
 H65 H 0.62142 -0.02406 0.62226
 H66 H 0.38017 0.01308 0.37344
 O67 O 0.46715 -0.00413 -0.07547
 O68 O 0.45627 -0.00738 0.05945
 O69 O 0.45548 0.06175 -0.01205
 O70 O 0.46810 -0.07308 -0.00339
 O71 O 0.54951 -0.05906 0.00643
 O72 O 0.53689 0.07573 -0.00224
 O73 O 0.53769 0.00662 0.06930
 O74 O 0.54855 0.00986 -0.06566
 Cu75 Cu 0.45354 -0.00706 -0.00898
 Cu76 Cu 0.55138 0.00974 0.00279
 C77 C 0.50975 0.00301 -0.09331
 C78 C 0.49508 -0.00074 0.08712
 C79 C 0.49398 0.09146 -0.00797
 C80 C 0.51097 -0.08882 0.00304
 O81 O -0.05906 0.54963 0.98750
 O82 O 0.07556 0.53622 0.99337
 O83 O 0.00648 0.53738 0.92301
 O84 O 0.00988 0.54846 1.05760
 O85 O -0.00458 0.46704 1.06979
 O86 O -0.00796 0.45597 0.93519
 O87 O 0.06108 0.45481 1.00555
 O88 O -0.07349 0.46821 0.99967
 Cu89 Cu 0.00969 0.55112 0.98909
 Cu90 Cu -0.00765 0.45329 1.00369
 C91 C -0.08897 0.51125 0.99304
 C92 C 0.09103 0.49321 1.00039
 C93 C -0.00114 0.49475 0.90640
 C94 C 0.00288 0.50969 1.08639
 O95 O -0.00754 -0.05897 0.44950
 O96 O -0.00271 0.07552 0.46273
 O97 O 0.06264 0.01255 0.45017
 O98 O -0.07261 0.00372 0.46287
 O99 O -0.06138 -0.00964 0.54391
 O100 O 0.07372 -0.00080 0.53123
 O101 O 0.00842 0.06221 0.54379
 O102 O 0.00362 -0.07239 0.53055
 Cu103 Cu -0.00613 0.00959 0.44812
 Cu104 Cu 0.00727 -0.00646 0.54556
 C105 C -0.00276 -0.08837 0.48774
 C106 C 0.00339 0.09154 0.50552
 C107 C 0.09098 0.00711 0.48855
 C108 C -0.08979 -0.00441 0.50559
 C109 C -0.23686 0.52835 0.99870
 C110 C -0.25170 0.55718 1.03507
 C111 C -0.30193 0.56329 1.03970
 C112 C -0.33857 0.53995 1.00847
 C113 C -0.32292 0.51195 0.97113
 C114 C -0.27253 0.50594 0.96657
 C115 C -0.18496 0.52179 0.99492
 C116 C -0.14124 0.51677 0.99323
 H117 H -0.22441 0.57482 1.06009
 H118 H -0.31220 0.58521 1.06881
 H119 H -0.34954 0.49566 0.94463
 H120 H -0.26140 0.48407 0.93781
 C121 C 0.23959 0.47580 1.00607
 C122 C 0.27214 0.50780 0.97789
 C123 C 0.32285 0.50079 0.97989
 C124 C 0.34206 0.46188 1.01064
 C125 C 0.30846 0.42938 1.03804
 C126 C 0.25787 0.43654 1.03600
 C127 C 0.18730 0.48265 1.00391
 C128 C 0.14340 0.48775 1.00230
 H129 H 0.25827 0.53790 0.95399
 H130 H 0.34680 0.52502 0.95624
 H131 H 0.32146 0.39911 1.06229
 H132 H 0.23299 0.41142 1.05786
 C133 C -0.00693 -0.23692 0.47110
 C134 C -0.05003 -0.26189 0.45155
 C135 C -0.05108 -0.31255 0.44456
 C136 C -0.00912 -0.33869 0.45737
 C137 C 0.03412 -0.31346 0.47669
 C138 C 0.03513 -0.26279 0.48369
 C139 C -0.00559 -0.18461 0.47744
 C140 C -0.00438 -0.14069 0.48235
 H141 H -0.08268 -0.24215 0.44148
 H142 H -0.08453 -0.33144 0.42916
 H143 H 0.06700 -0.33302 0.48610
 H144 H 0.06874 -0.24375 0.49859
 C145 C 0.00182 0.23972 0.52158
 C146 C -0.03713 0.25633 0.54627
 C147 C -0.03858 0.30684 0.55274
 C148 C -0.00119 0.34125 0.53430
 C149 C 0.03791 0.32443 0.50968
 C150 C 0.03931 0.27385 0.50322
 C151 C 0.00330 0.18761 0.51552
 C152 C 0.00379 0.14379 0.51082
 H153 H -0.06626 0.23021 0.56069
 H154 H -0.06879 0.31918 0.57213
 H155 H 0.06739 0.35044 0.49584
 H156 H 0.06970 0.26134 0.48420
 C157 C 0.52428 -0.00387 -0.24139
 C158 C 0.50427 0.03035 -0.27642
 C159 C 0.51022 0.02648 -0.32685
 C160 C 0.53578 -0.01219 -0.34317
 C161 C 0.55648 -0.04581 -0.30722
 C162 C 0.55041 -0.04187 -0.25691
 C163 C 0.51856 -0.00005 -0.18941
 C164 C 0.51430 0.00203 -0.14563
 H165 H 0.48457 0.06037 -0.26475
 H166 H 0.49614 0.05472 -0.35298
 H167 H 0.57650 -0.07598 -0.31807
 H168 H 0.56620 -0.06849 -0.23008
 C169 C 0.48060 0.00104 0.23576
 C170 C 0.48613 -0.04162 0.26736
 C171 C 0.47926 -0.04057 0.31798
 C172 C 0.46715 0.00327 0.33741
 C173 C 0.46158 0.04588 0.30558
 C174 C 0.46844 0.04481 0.25499
 C175 C 0.48631 -0.00024 0.18347
 C176 C 0.49057 -0.00081 0.13953
 H177 H 0.49526 -0.07574 0.25282
 H178 H 0.48292 -0.07397 0.34198
 H179 H 0.45170 0.07981 0.31995
 H180 H 0.46385 0.07794 0.23083
 C181 C 0.52700 -0.23773 0.01209
 C182 C 0.49703 -0.26926 -0.01754
 C183 C 0.50375 -0.32003 -0.01513
 C184 C 0.54031 -0.34038 0.01747
 C185 C 0.57065 -0.30783 0.04659
 C186 C 0.56378 -0.25713 0.04411
 C187 C 0.52078 -0.18529 0.00897
 C188 C 0.51607 -0.14128 0.00632
 H189 H 0.46890 -0.25451 -0.04303
 H190 H 0.48135 -0.34308 -0.04004
 H191 H 0.59907 -0.32174 0.07226
 H192 H 0.58732 -0.23303 0.06713
 C193 C 0.47751 0.23933 -0.00324
 C194 C 0.45686 0.25474 0.03875
 C195 C 0.45013 0.30489 0.04242
 C196 C 0.46428 0.34023 0.00423
 C197 C 0.48480 0.32463 -0.03796
 C198 C 0.49154 0.27438 -0.04159
 C199 C 0.48389 0.18747 -0.00671
 C200 C 0.48872 0.14376 -0.00818
 H201 H 0.44578 0.22795 0.06859
 H202 H 0.43385 0.31622 0.07501
 H203 H 0.49526 0.35134 -0.06807
 H204 H 0.50741 0.26286 -0.07432
 C205 C -0.23906 -0.01247 0.52188
 C206 C -0.26816 0.02168 0.49548
 C207 C -0.31912 0.01970 0.50222
 C208 C -0.34204 -0.01702 0.53506
 C209 C -0.31193 -0.05058 0.56212
 C210 C -0.26100 -0.04851 0.55524
 C211 C -0.18648 -0.00983 0.51562
 C212 C -0.14236 -0.00746 0.51079
 H213 H -0.25136 0.05029 0.47017
 H214 H -0.34034 0.04791 0.48281
 H215 H -0.32797 -0.07923 0.58786
 H216 H -0.23871 -0.07496 0.57610
 C217 C 0.24021 0.00985 0.47398
 C218 C 0.26705 0.05205 0.45324
 C219 C 0.31788 0.05134 0.44680
 C220 C 0.34227 0.00851 0.46138
 C221 C 0.31518 -0.03371 0.48209
 C222 C 0.26439 -0.03296 0.48854
 C223 C 0.18766 0.00989 0.47928
 C224 C 0.14353 0.00910 0.48354
 H225 H 0.24862 0.08526 0.44163
 H226 H 0.33820 0.08399 0.43022
 H227 H 0.33333 -0.06729 0.49276
 H228 H 0.24389 -0.06589 0.50435
 C229 C -0.00252 0.52507 1.23431
 C230 C 0.02832 0.50050 1.26925
 C231 C 0.02515 0.50690 1.31964
 C232 C -0.00944 0.53760 1.33604
 C233 C -0.03966 0.56271 1.30015
 C234 C -0.03644 0.55618 1.24989
 C235 C 0.00061 0.51888 1.18238
 C236 C 0.00224 0.51438 1.13865
 H237 H 0.05521 0.47683 1.25752
 H238 H 0.05093 0.48905 1.34561
 H239 H -0.06682 0.58655 1.31099
 H240 H -0.06046 0.57545 1.22314
 C241 C -0.00020 0.48018 0.75800
 C242 C -0.04075 0.49215 0.72654
 C243 C -0.04026 0.48530 0.67601
 C244 C 0.00096 0.46672 0.65650
 C245 C 0.04150 0.45477 0.68820
 C246 C 0.04097 0.46163 0.73870
 C247 C -0.00109 0.48592 0.81022
 C248 C -0.00142 0.49019 0.85409
 H249 H -0.07289 0.50629 0.74114
 H250 H -0.07215 0.49396 0.65216
 H251 H 0.07335 0.43994 0.67381
 H252 H 0.07245 0.45207 0.76274
   
