data_POSCAR
  _audit_creation_date              2014-09-24
  _audit_creation_method            'ToBaCCo'
  _symmetry_space_group_name_H-M    'P1'
  _symmetry_Int_Tables_number       1
  _symmetry_cell_setting            triclinic
  loop_
  _symmetry_equiv_pos_as_xyz
 x,y,z
_cell_length_a 18.9789
_cell_length_b 22.1232
_cell_length_c 18.8743
_cell_angle_alpha 92.186800
_cell_angle_beta 90.490500
_cell_angle_gamma 89.941100
loop_
  _atom_site_label
  _atom_site_type_symbol
  _atom_site_fract_x
  _atom_site_fract_y
  _atom_site_fract_z
C1 C 1.27732 0.26588 0.24806
 C2 C 0.74664 -0.25006 0.25034
 C3 C 0.76446 0.23580 -0.25175
 C4 C 1.25104 -0.24817 -0.24971
 C5 C 0.22583 0.26431 0.74831
 C6 C 0.75430 0.74732 0.75282
 C7 C 0.73055 0.22989 0.24893
 C8 C 0.24589 0.74994 0.25214
 N9 N 1.12806 0.07821 0.09750
 N10 N 1.16993 0.12397 0.11532
 N11 N 1.09932 -0.05491 0.13731
 N12 N 1.11399 -0.10314 0.17422
 N13 N 1.14787 -0.04726 0.08944
 N14 N 1.19694 -0.08901 0.09247
 N15 N 1.07914 0.07197 0.14528
 N16 N 1.08680 0.11317 0.19739
 C17 C 1.14305 0.14586 0.17735
 C18 C 1.17542 -0.12344 0.14530
 N19 N 0.90075 -0.07855 0.08380
 N20 N 0.85406 -0.11983 0.10184
 N21 N 0.92833 0.05446 0.13778
 N22 N 0.91648 0.10517 0.17514
 N23 N 0.88152 0.04780 0.08629
 N24 N 0.83759 0.09386 0.08651
 N25 N 0.94905 -0.07174 0.13388
 N26 N 0.93702 -0.10819 0.18603
 Mn27 Mn 1.01385 -0.00002 0.13939
 C28 C 0.87852 -0.13865 0.16531
 C29 C 0.85970 0.12885 0.14213
 N30 N 1.15068 -0.04589 -0.06137
 N31 N 1.19848 -0.08896 -0.06722
 N32 N 1.08587 0.07569 -0.10539
 N33 N 1.09951 0.11745 -0.15186
 N34 N 1.13167 0.07955 -0.05292
 N35 N 1.17704 0.12339 -0.06168
 N36 N 1.10375 -0.05144 -0.11271
 N37 N 1.11816 -0.09898 -0.15471
 Mn38 Mn 1.13988 0.01620 0.01814
 C39 C 1.17761 -0.12168 -0.12543
 C40 C 1.15606 0.14722 -0.12275
 N41 N 0.88385 0.04907 -0.06473
 N42 N 0.83116 0.08697 -0.07358
 N43 N 0.95325 -0.06811 -0.12039
 N44 N 0.94268 -0.10468 -0.17637
 N45 N 0.90484 -0.07673 -0.07225
 N46 N 0.85994 -0.11902 -0.09488
 N47 N 0.93353 0.05801 -0.11127
 N48 N 0.91552 0.10215 -0.15337
 Mn49 Mn 0.89216 -0.01520 0.00833
 Mn50 Mn 1.01917 0.00379 -0.11338
 Cl51 Cl 1.01600 0.00097 0.01301
 C52 C 0.85154 0.11997 -0.12857
 C53 C 0.88507 -0.13672 -0.15940
 N54 N 1.10470 0.57838 0.56408
 N55 N 1.15007 0.62073 0.58646
 N56 N 1.07961 0.44740 0.60555
 N57 N 1.09842 0.40431 0.64808
 N58 N 1.12584 0.45264 0.55483
 N59 N 1.17797 0.41373 0.56197
 N60 N 1.05504 0.57239 0.61149
 N61 N 1.06481 0.61010 0.66620
 C62 C 1.12326 0.64060 0.64989
 C63 C 1.15969 0.38371 0.62015
 N64 N 0.88077 0.41634 0.56565
 N65 N 0.84141 0.37041 0.58584
 N66 N 0.90564 0.55176 0.61544
 N67 N 0.89068 0.59922 0.65743
 N68 N 0.85461 0.54174 0.56921
 N69 N 0.80373 0.58165 0.57810
 N70 N 0.93239 0.42607 0.61143
 N71 N 0.93052 0.38727 0.66242
 Mn72 Mn 0.99311 0.49971 0.61132
 C73 C 0.87453 0.35221 0.64590
 C74 C 0.82673 0.61710 0.63311
 N75 N 1.11832 0.45223 0.40085
 N76 N 1.16804 0.41203 0.38429
 N77 N 1.04604 0.57352 0.36278
 N78 N 1.05530 0.61076 0.31067
 N79 N 1.09804 0.57888 0.40915
 N80 N 1.14372 0.62006 0.38954
 N81 N 1.06671 0.44827 0.35404
 N82 N 1.07955 0.40607 0.30485
 Mn83 Mn 1.11273 0.51556 0.48218
 C84 C 1.14248 0.38355 0.32419
 C85 C 1.11572 0.64002 0.32844
 N86 N 0.84811 0.54382 0.41837
 N87 N 0.79832 0.58560 0.41695
 N88 N 0.91837 0.42777 0.35917
 N89 N 0.90933 0.38792 0.30617
 N90 N 0.87355 0.41809 0.41015
 N91 N 0.83221 0.37176 0.39267
 N92 N 0.89551 0.55363 0.36980
 N93 N 0.87931 0.60202 0.33413
 Mn94 Mn 0.86348 0.47932 0.49073
 Mn95 Mn 0.98145 0.50109 0.36104
 Cl96 Cl 0.98787 0.49894 0.48626
 C97 C 0.81847 0.62148 0.36418
 C98 C 0.85607 0.35299 0.32803
 N99 N 0.62392 0.03911 0.57989
 N100 N 0.68009 0.07338 0.58578
 N101 N 0.55156 -0.07443 0.63177
 N102 N 0.56452 -0.10938 0.68539
 N103 N 0.59735 -0.08457 0.58065
 N104 N 0.64342 -0.12636 0.59968
 N105 N 0.57953 0.05068 0.63163
 N106 N 0.60508 0.09415 0.67473
 C107 C 0.66787 0.10753 0.64449
 C108 C 0.62103 -0.14223 0.66472
 N109 N 0.35322 -0.04443 0.58848
 N110 N 0.30358 -0.08530 0.59201
 N111 N 0.42767 0.07422 0.64076
 N112 N 0.42041 0.11484 0.69359
 N113 N 0.37684 0.08002 0.59384
 N114 N 0.33448 0.12502 0.61302
 N115 N 0.40244 -0.05192 0.63658
 N116 N 0.38766 -0.09954 0.67406
 Mn117 Mn 0.49034 0.00001 0.63615
 C118 C 0.32551 -0.11920 0.64525
 C119 C 0.36276 0.14701 0.67484
 N120 N 0.58863 -0.08415 0.42495
 N121 N 0.63422 -0.12513 0.40163
 N122 N 0.56418 0.05121 0.38404
 N123 N 0.57949 0.09826 0.34568
 N124 N 0.61495 0.04104 0.42991
 N125 N 0.66561 0.08128 0.42452
 N126 N 0.54053 -0.07417 0.37612
 N127 N 0.55229 -0.10859 0.31873
 Mn128 Mn 0.60641 -0.02280 0.50364
 C129 C 0.61014 -0.14069 0.33596
 C130 C 0.64308 0.11651 0.37194
 N131 N 0.36894 0.07833 0.44381
 N132 N 0.32629 0.12444 0.43673
 N133 N 0.39106 -0.05408 0.38521
 N134 N 0.37531 -0.10240 0.34463
 N135 N 0.34564 -0.04711 0.43703
 N136 N 0.29729 -0.09004 0.43247
 N137 N 0.41304 0.07297 0.39089
 N138 N 0.40089 0.11605 0.34545
 Mn139 Mn 0.36084 0.01663 0.51573
 Mn140 Mn 0.47710 -0.00071 0.38311
 Cl141 Cl 0.48389 -0.00190 0.50978
 C142 C 0.34706 0.14804 0.37597
 C143 C 0.31627 -0.12414 0.37463
 N144 N 0.64541 0.54145 0.07417
 N145 N 0.69633 0.58144 0.08115
 N146 N 0.56680 0.42767 0.11653
 N147 N 0.56994 0.38955 0.16825
 N148 N 0.61706 0.41689 0.07030
 N149 N 0.65640 0.37076 0.09066
 N150 N 0.59498 0.55293 0.11985
 N151 N 0.61053 0.60165 0.15961
 C152 C 0.67415 0.61844 0.13444
 C153 C 0.62483 0.35353 0.15135
 N154 N 0.37316 0.45562 0.05851
 N155 N 0.32151 0.41633 0.06433
 N156 N 0.44470 0.57543 0.11634
 N157 N 0.43416 0.61194 0.17202
 N158 N 0.39413 0.58118 0.06886
 N159 N 0.34757 0.62216 0.09226
 N160 N 0.41961 0.45042 0.10983
 N161 N 0.40150 0.40683 0.15150
 Mn162 Mn 0.50665 0.50202 0.11608
 C163 C 0.34037 0.38610 0.12239
 C164 C 0.37425 0.64144 0.15652
 N165 N 0.62325 0.41930 -0.08481
 N166 N 0.66619 0.37475 -0.10402
 N167 N 0.60249 0.55516 -0.12442
 N168 N 0.61977 0.60238 -0.16127
 N169 N 0.65056 0.54446 -0.07604
 N170 N 0.70197 0.58460 -0.07865
 N171 N 0.57819 0.43001 -0.13598
 N172 N 0.58847 0.39262 -0.19082
 Mn173 Mn 0.63474 0.47977 -0.00410
 C174 C 0.64275 0.35816 -0.16983
 C175 C 0.68197 0.62039 -0.13202
 N176 N 0.40085 0.58123 -0.08609
 N177 N 0.35514 0.62226 -0.10635
 N178 N 0.43085 0.45131 -0.14199
 N179 N 0.41860 0.40890 -0.19123
 N180 N 0.37963 0.45466 -0.09561
 N181 N 0.33064 0.41364 -0.11272
 N182 N 0.45277 0.57597 -0.13164
 N183 N 0.44353 0.61313 -0.18382
 Mn184 Mn 0.38588 0.51816 -0.01371
 Mn185 Mn 0.51618 0.50349 -0.13376
 Cl186 Cl 0.51064 0.50093 -0.00879
 C187 C 0.38332 0.64228 -0.16671
 C188 C 0.35639 0.38546 -0.17267
 C189 C 1.23122 0.22579 0.19921
 C190 C 1.17635 0.19399 0.22217
 H191 H 1.24982 0.21645 0.14571
 H192 H 1.15798 0.20106 0.27600
 C193 C 1.21649 0.71236 0.69165
 C194 C 1.15603 0.68339 0.70180
 H195 H 1.24457 0.70389 0.64245
 H196 H 1.12950 0.68973 0.75215
 C197 C 0.70713 0.19253 0.72182
 C198 C 0.71966 0.15197 0.66999
 H199 H 0.65681 0.19170 0.74864
 H200 H 0.77036 0.15173 0.64394
 C201 C 0.69502 0.70729 0.21256
 C202 C 0.71661 0.66933 0.16089
 H203 H 0.64316 0.70101 0.23488
 H204 H 0.76939 0.67340 0.14009
 C205 C 0.78374 -0.21082 0.19680
 C206 C 0.84310 -0.18043 0.21292
 H207 H 0.75855 -0.20417 0.14590
 H208 H 0.86694 -0.18535 0.26474
 C209 C 0.79389 0.27132 0.68681
 C210 C 0.85010 0.30718 0.69607
 H211 H 0.76353 0.27368 0.63806
 H212 H 0.87868 0.30609 0.74597
 C213 C 0.30375 -0.20561 0.71888
 C214 C 0.28367 -0.16976 0.66763
 H215 H 0.35411 -0.19765 0.74522
 H216 H 0.23204 -0.17556 0.64329
 C217 C 0.32291 0.30678 0.20582
 C218 C 0.29785 0.33867 0.15238
 H219 H 0.37581 0.31617 0.22565
 H220 H 0.24473 0.33166 0.13238
 C221 C 0.82097 0.19782 -0.21595
 C222 C 0.80550 0.16622 -0.15878
 H223 H 0.87127 0.19067 -0.24175
 H224 H 0.75411 0.17197 -0.13483
 C225 C 0.79823 0.70929 0.28911
 C226 C 0.77650 0.67303 0.34021
 H227 H 0.85021 0.70214 0.26690
 H228 H 0.72381 0.67830 0.36121
 C229 C 0.32618 0.22334 0.28592
 C230 C 0.30708 0.19685 0.34477
 H231 H 0.37417 0.20840 0.25968
 H232 H 0.25805 0.20947 0.37032
 C233 C 0.28729 0.71042 -0.19872
 C234 C 0.34873 0.68372 -0.21427
 H235 H 0.26073 0.70003 -0.15000
 H236 H 0.37432 0.69180 -0.26411
 C237 C 1.19812 -0.20742 -0.21060
 C238 C 1.21834 -0.17325 -0.15393
 H239 H 1.14783 -0.19831 -0.23572
 H240 H 1.26975 -0.18048 -0.13029
 C241 C 1.23663 0.30762 0.29983
 C242 C 1.17807 0.33647 0.28037
 H243 H 1.26064 0.31985 0.35071
 H244 H 1.15490 0.32593 0.22875
 C245 C 0.70774 -0.20870 0.30270
 C246 C 0.64759 -0.18073 0.28545
 H247 H 0.73086 -0.20021 0.35487
 H248 H 0.62536 -0.18706 0.23263
 C249 C 0.73241 0.28123 -0.19919
 C250 C 0.67554 0.31307 -0.21713
 H251 H 0.75712 0.28935 -0.14769
 H252 H 0.65220 0.30620 -0.26944
 C253 C 1.17771 0.22118 -0.21435
 C254 C 1.19759 0.19412 -0.15558
 H255 H 1.12856 0.20748 -0.24001
 H256 H 1.24768 0.20559 -0.13066
 C257 C 1.21172 0.71013 0.30057
 C258 C 1.14737 0.68115 0.28454
 H259 H 1.23960 0.69802 0.34848
 H260 H 1.12062 0.69017 0.23510
 C261 C 0.67258 0.19506 0.28581
 C262 C 0.68649 0.16577 0.34550
 H263 H 0.62398 0.18511 0.25709
 H264 H 0.73662 0.17329 0.37229
 C265 C 0.70317 0.70642 -0.20918
 C266 C 0.72503 0.67046 -0.15739
 H267 H 0.65080 0.69976 -0.23148
 H268 H 0.77804 0.67532 -0.13620
 C269 C 0.79197 -0.21054 -0.19356
 C270 C 0.85038 -0.18005 -0.20953
 H271 H 0.76822 -0.20235 -0.14202
 H272 H 0.87321 -0.18634 -0.26170
 C273 C 0.76714 0.27413 0.30090
 C274 C 0.82422 0.30513 0.28244
 H275 H 0.74313 0.28437 0.35190
 H276 H 0.84686 0.29713 0.23049
 C277 C 0.29669 -0.21097 0.28979
 C278 C 0.27777 -0.17454 0.34953
 H279 H 0.34555 -0.20019 0.26358
 H280 H 0.22869 -0.18378 0.37595
 C281 C 0.26573 0.30619 -0.19868
 C282 C 0.32207 0.33775 -0.21743
 H283 H 0.24231 0.31657 -0.14743
 H284 H 0.34464 0.32880 -0.26928
 C285 C 1.19533 -0.20953 0.22113
 C286 C 1.21440 -0.17271 0.16607
 H287 H 1.14660 -0.19909 0.24882
 H288 H 1.26420 -0.18082 0.13962
 C289 C 1.17933 0.30529 0.70563
 C290 C 1.20313 0.33685 0.65158
 H291 H 1.12674 0.31475 0.72535
 H292 H 1.25597 0.32983 0.63174
 C293 C 0.71642 -0.21385 0.69850
 C294 C 0.65695 -0.18344 0.71349
 H295 H 0.74115 -0.20761 0.64772
 H296 H 0.63367 -0.18763 0.76527
 C297 C 0.69829 0.26600 0.18861
 C298 C 0.65239 0.31065 0.20290
 H299 H 0.71333 0.25747 0.13405
 H300 H 0.63429 0.31737 0.25695
 C301 C 0.78363 0.18203 0.22387
 C302 C 0.82239 0.18353 0.16548
 H303 H 0.79049 0.14282 0.25618
 H304 H 0.81967 0.22060 0.12998
 C305 C 0.80621 0.70486 0.71513
 C306 C 0.78427 0.66710 0.66254
 H307 H 0.85870 0.69936 0.73712
 H308 H 0.73098 0.67112 0.64214
 C309 C 0.27228 0.22493 0.69928
 C310 C 0.32903 0.19410 0.72106
 H311 H 0.25251 0.21535 0.64595
 H312 H 0.34883 0.20122 0.77469
 C313 C 0.27876 0.71186 0.19669
 C314 C 0.34311 0.68189 0.20607
 H315 H 0.24937 0.70135 0.14816
 H316 H 0.37093 0.68924 0.25604
   
