data_POSCAR
  _audit_creation_date              2014-09-24
  _audit_creation_method            'ToBaCCo'
  _symmetry_space_group_name_H-M    'P1'
  _symmetry_Int_Tables_number       1
  _symmetry_cell_setting            triclinic
  loop_
  _symmetry_equiv_pos_as_xyz
 x,y,z
_cell_length_a 45.2936
_cell_length_b 42.1270
_cell_length_c 44.1762
_cell_angle_alpha 89.105100
_cell_angle_beta 93.926400
_cell_angle_gamma 95.788200
loop_
  _atom_site_label
  _atom_site_type_symbol
  _atom_site_fract_x
  _atom_site_fract_y
  _atom_site_fract_z
N1 N 0.19941 1.24658 0.15162
 N2 N 0.18595 1.25012 0.17655
 C3 C 0.16487 1.27016 0.17106
 C4 C 0.16498 1.27992 0.14083
 C5 C 0.18744 1.26437 0.12934
 H6 H 0.15040 1.27658 0.18792
 H7 H 0.19437 1.26528 0.10641
 Cu8 Cu 0.19631 1.22727 0.21354
 Cu9 Cu 0.23061 1.21818 0.14973
 Cu10 Cu 0.24138 1.16860 0.21196
 N11 N 0.19781 1.19527 0.24543
 N12 N 0.21527 1.17227 0.24482
 C13 C 0.21055 1.15264 0.26872
 C14 C 0.18870 1.16382 0.28527
 C15 C 0.18135 1.19113 0.26962
 H16 H 0.22171 1.13138 0.27306
 H17 H 0.16464 1.20650 0.27460
 N18 N 0.26525 1.16894 0.17620
 N19 N 0.26101 1.18777 0.15248
 C20 C 0.27999 1.18199 0.13158
 C21 C 0.29707 1.15831 0.14256
 C22 C 0.28710 1.15068 0.17100
 H23 H 0.28125 1.19414 0.10992
 H24 H 0.29472 1.13267 0.18649
 H25 H 0.21125 1.18684 0.18094
 H26 H 0.24351 1.21499 0.19560
 N27 N 0.81825 0.74793 0.17421
 N28 N 0.84015 0.74878 0.19537
 C29 C 0.85662 0.72463 0.19130
 C30 C 0.84463 0.70755 0.16611
 C31 C 0.82025 0.72315 0.15570
 H32 H 0.87625 0.72024 0.20542
 H33 H 0.80501 0.71684 0.13633
 Cu34 Cu 0.84623 0.78141 0.22618
 Cu35 Cu 0.78905 0.77919 0.17293
 Cu36 Cu 0.79300 0.82942 0.23496
 N37 N 0.84553 0.80588 0.26285
 N38 N 0.82444 0.82437 0.26656
 C39 C 0.83054 0.84017 0.29288
 C40 C 0.85719 0.83133 0.30642
 C41 C 0.86579 0.80921 0.28657
 H42 H 0.81728 0.85799 0.30058
 H43 H 0.88577 0.79714 0.28843
 N44 N 0.76307 0.83110 0.20061
 N45 N 0.76178 0.81255 0.17666
 C46 C 0.74051 0.82142 0.15630
 C47 C 0.72793 0.84693 0.16795
 C48 C 0.74278 0.85217 0.19615
 H49 H 0.73532 0.81081 0.13421
 H50 H 0.73958 0.87050 0.21208
 H51 H 0.81360 0.81519 0.19747
 H52 H 0.79281 0.78296 0.21948
 N53 N 0.78180 1.25877 -0.21403
 N54 N 0.80158 1.25864 -0.23440
 C55 C 0.82336 1.28227 -0.22844
 C56 C 0.81688 1.29828 -0.20293
 C57 C 0.79012 1.28281 -0.19455
 H58 H 0.84291 1.28669 -0.24121
 H59 H 0.77849 1.28740 -0.17474
 Cu60 Cu 0.79838 1.22601 -0.26521
 Cu61 Cu 0.74836 1.22580 -0.21323
 Cu62 Cu 0.75776 1.15670 -0.25233
 N63 N 0.80398 1.18779 -0.28686
 N64 N 0.78823 1.16054 -0.28189
 C65 C 0.79789 1.13779 -0.29877
 C66 C 0.82138 1.15148 -0.31492
 C67 C 0.82435 1.18342 -0.30668
 H68 H 0.78909 1.11298 -0.29833
 H69 H 0.84036 1.20225 -0.31393
 N70 N 0.72807 1.15839 -0.22168
 N71 N 0.72432 1.18481 -0.20735
 C72 C 0.70351 1.17827 -0.18725
 C73 C 0.69354 1.14612 -0.18884
 C74 C 0.70954 1.13433 -0.21108
 H75 H 0.69664 1.19565 -0.17214
 H76 H 0.70848 1.10982 -0.21829
 H77 H 0.77671 1.19385 -0.22491
 H78 H 0.74789 1.20286 -0.25502
 N79 N 0.17335 0.74032 -0.16592
 N80 N 0.15292 0.74507 -0.18762
 C81 C 0.12758 0.72688 -0.18206
 C82 C 0.13244 0.71007 -0.15523
 C83 C 0.16180 0.71917 -0.14580
 H84 H 0.10695 0.72671 -0.19594
 H85 H 0.17386 0.71127 -0.12558
 Cu86 Cu 0.16114 0.77588 -0.22001
 Cu87 Cu 0.21281 0.76331 -0.16382
 Cu88 Cu 0.22464 0.82555 -0.21469
 N89 N 0.16640 0.81408 -0.24515
 N90 N 0.19112 0.83331 -0.24294
 C91 C 0.18848 0.85814 -0.26208
 C92 C 0.16046 0.85449 -0.27732
 C93 C 0.14715 0.82600 -0.26584
 H94 H 0.20576 0.87748 -0.26433
 H95 H 0.12495 0.81489 -0.27151
 N96 N 0.25568 0.81362 -0.18431
 N97 N 0.25115 0.78953 -0.16521
 C98 C 0.27518 0.78891 -0.14564
 C99 C 0.29591 0.81400 -0.15246
 C100 C 0.28279 0.82902 -0.17732
 H101 H 0.27680 0.77233 -0.12686
 H102 H 0.29151 0.85077 -0.18823
 H103 H 0.19700 0.80374 -0.18372
 H104 H 0.21483 0.77712 -0.20903
 C105 C 0.48854 1.01520 0.03399
 C106 C 0.51211 0.99661 0.05118
 C107 C 0.52903 0.98132 0.03279
 C108 C 0.52095 0.98600 -0.00129
 C109 C 0.50662 1.03750 0.01276
 C110 C 0.52368 1.02248 -0.00565
 C111 C 0.47084 0.99050 0.01313
 C112 C 0.48754 0.97538 -0.00531
 H113 H 0.51587 0.99584 0.07554
 H114 H 0.53459 0.97339 -0.01620
 H115 H 0.50629 1.06316 0.01294
 H116 H 0.44687 0.98553 0.01286
 C117 C -0.00884 0.46231 1.03118
 C118 C 0.01099 0.48980 1.01752
 C119 C -0.00401 0.51055 0.99997
 C120 C -0.03791 0.50226 0.99784
 C121 C -0.03107 0.47931 1.04837
 C122 C -0.04593 0.50065 1.03119
 C123 C -0.02739 0.44703 1.00407
 C124 C -0.04257 0.46765 0.98669
 H125 H 0.03498 0.49246 1.02144
 H126 H -0.05005 0.51913 0.98339
 H127 H -0.03361 0.47661 1.07236
 H128 H -0.02875 0.42175 0.99931
 C129 C 1.03677 0.05044 0.48639
 C130 C 1.01727 0.06962 0.50486
 C131 C 0.99885 0.05157 0.52299
 C132 C 1.00168 0.01556 0.52107
 C133 C 1.05326 0.03108 0.51071
 C134 C 1.03501 0.01258 0.52873
 C135 C 1.01503 0.02579 0.46933
 C136 C 0.99676 0.00766 0.48726
 H137 H 1.01880 0.09539 0.50453
 H138 H 0.98675 0.00057 0.53562
 H139 H 1.07724 0.03190 0.51337
 H140 H 1.01448 0.02262 0.44499
 C141 C 0.13055 0.32818 1.07884
 C142 C 0.10786 0.34152 1.09339
 C143 C 0.10474 0.33366 1.12438
 C144 C 0.12368 0.31353 1.13989
 C145 C 0.14615 0.30040 1.12520
 C146 C 0.14920 0.30811 1.09443
 C147 C 0.08273 0.34594 1.13993
 C148 C 0.06357 0.36590 1.12548
 C149 C 0.06562 0.37455 1.09463
 C150 C 0.08827 0.36233 1.07834
 C151 C 0.09070 0.37152 1.04766
 C152 C 0.07195 0.39205 1.03341
 C153 C 0.04985 0.40414 1.04893
 C154 C 0.04603 0.39535 1.07960
 C155 C 0.02263 0.40777 1.09383
 C156 C 0.00468 0.42880 1.07860
 C157 C 0.00932 0.43846 1.04858
 C158 C 0.03162 0.42521 1.03383
 H159 H 0.13458 0.33259 1.05535
 H160 H 0.12054 0.30817 1.16355
 H161 H 0.16607 0.29878 1.08195
 H162 H 0.08029 0.34008 1.16367
 H163 H 0.04750 0.37441 1.13941
 H164 H 0.10713 0.36351 1.03386
 H165 H 0.07488 0.39862 1.00989
 H166 H 0.01737 0.40165 1.11672
 H167 H -0.01288 0.43695 1.09080
 H168 H 0.03502 0.43174 1.01038
 C169 C -0.11045 0.63748 1.15905
 C170 C -0.11641 0.62861 1.12832
 C171 C -0.13786 0.64458 1.11075
 C172 C -0.15115 0.66982 1.12320
 C173 C -0.14356 0.67943 1.15325
 C174 C -0.12369 0.66243 1.17110
 C175 C -0.14561 0.63557 1.08077
 C176 C -0.13237 0.61122 1.06765
 C177 C -0.11017 0.59530 1.08386
 C178 C -0.10173 0.60458 1.11455
 C179 C -0.07819 0.59031 1.13023
 C180 C -0.06355 0.56760 1.11668
 C181 C -0.07187 0.55777 1.08712
 C182 C -0.09551 0.57099 1.07027
 C183 C -0.10317 0.55936 1.04050
 C184 C -0.08748 0.53626 1.02805
 C185 C -0.06376 0.52391 1.04474
 C186 C -0.05617 0.53496 1.07429
 H187 H -0.09584 0.62553 1.17462
 H188 H -0.16680 0.68244 1.10921
 H189 H -0.11819 0.66831 1.19470
 H190 H -0.16209 0.64753 1.06721
 H191 H -0.13953 0.60599 1.04435
 H192 H -0.06979 0.59679 1.15290
 H193 H -0.04537 0.55764 1.12956
 H194 H -0.12128 0.56740 1.02631
 H195 H -0.09414 0.52795 1.00530
 H196 H -0.03736 0.52648 1.08733
 C197 C -0.11401 0.34819 0.82841
 C198 C -0.12505 0.36686 0.85066
 C199 C -0.15630 0.36466 0.85272
 C200 C -0.17522 0.34283 0.83477
 C201 C -0.16364 0.32325 0.81410
 C202 C -0.13299 0.32682 0.81060
 C203 C -0.16847 0.38379 0.87311
 C204 C -0.15032 0.40448 0.89221
 C205 C -0.11901 0.40629 0.89226
 C206 C -0.10617 0.38699 0.87125
 C207 C -0.07491 0.38726 0.87249
 C208 C -0.05684 0.40464 0.89420
 C209 C -0.06899 0.42313 0.91506
 C210 C -0.10007 0.42544 0.91369
 C211 C -0.11080 0.44616 0.93450
 C212 C -0.09173 0.46155 0.95719
 C213 C -0.06161 0.45671 0.95976
 C214 C -0.05020 0.43842 0.93806
 H215 H -0.09081 0.34938 0.82416
 H216 H -0.19900 0.34088 0.83714
 H217 H -0.12332 0.31234 0.79464
 H218 H -0.19236 0.38248 0.87459
 H219 H -0.16159 0.41786 0.90763
 H220 H -0.06358 0.37310 0.85783
 H221 H -0.03304 0.40313 0.89499
 H222 H -0.13382 0.45065 0.93415
 H223 H -0.10080 0.47598 0.97365
 H224 H -0.02666 0.43525 0.93976
 C225 C 0.06660 0.65041 0.86071
 C226 C 0.07201 0.64351 0.89203
 C227 C 0.09722 0.66025 0.90744
 C228 C 0.11627 0.68214 0.89196
 C229 C 0.11107 0.68803 0.86088
 C230 C 0.08583 0.67235 0.84551
 C231 C 0.10362 0.65495 0.93825
 C232 C 0.08618 0.63256 0.95420
 C233 C 0.06143 0.61427 0.93989
 C234 C 0.05375 0.62035 0.90846
 C235 C 0.02836 0.60278 0.89452
 C236 C 0.01163 0.57937 0.91030
 C237 C 0.01952 0.57230 0.94054
 C238 C 0.04438 0.58979 0.95589
 C239 C 0.05158 0.58141 0.98650
 C240 C 0.03540 0.55627 1.00071
 C241 C 0.01136 0.53868 0.98522
 C242 C 0.00306 0.54726 0.95533
 H243 H 0.04799 0.63901 0.84713
 H244 H 0.13531 0.69464 0.90435
 H245 H 0.08123 0.67647 0.82148
 H246 H 0.12265 0.66805 0.95019
 H247 H 0.09293 0.63018 0.97788
 H248 H 0.02081 0.60638 0.87119
 H249 H -0.00746 0.56626 0.89850
 H250 H 0.06992 0.59324 1.00010
 H251 H 0.04189 0.55044 1.02404
 H252 H -0.01547 0.53357 0.94316
 C253 C 1.17051 0.10627 0.34812
 C254 C 1.14709 0.11975 0.36133
 C255 C 1.13866 0.14901 0.34903
 C256 C 1.15295 0.16374 0.32453
 C257 C 1.17566 0.14974 0.31105
 C258 C 1.18443 0.12099 0.32355
 C259 C 1.11571 0.16346 0.36097
 C260 C 1.10002 0.14895 0.38416
 C261 C 1.10672 0.11921 0.39652
 C262 C 1.13140 0.10497 0.38579
 C263 C 1.13943 0.07643 0.39981
 C264 C 1.12337 0.06174 0.42275
 C265 C 1.09842 0.07451 0.43239
 C266 C 1.08957 0.10328 0.41931
 C267 C 1.06316 0.11419 0.42874
 C268 C 1.04676 0.09760 0.45056
 C269 C 1.05626 0.06991 0.46458
 C270 C 1.08187 0.05818 0.45463
 H271 H 1.17830 0.08401 0.35576
 H272 H 1.14573 0.18604 0.31586
 H273 H 1.20189 0.10925 0.31427
 H274 H 1.10950 0.18614 0.35202
 H275 H 1.08288 0.16198 0.39217
 H276 H 1.15826 0.06482 0.39375
 H277 H 1.13035 0.03982 0.43275
 H278 H 1.05382 0.13479 0.41888
 H279 H 1.02596 0.10620 0.45564
 H280 H 1.08855 0.03567 0.46347
 C281 C 1.15242 -0.07491 0.67177
 C282 C 1.12355 -0.08177 0.65763
 C283 C 1.10743 -0.11104 0.66530
 C284 C 1.11960 -0.13190 0.68681
 C285 C 1.14822 -0.12462 0.70098
 C286 C 1.16439 -0.09586 0.69289
 C287 C 1.07921 -0.11949 0.65141
 C288 C 1.06668 -0.09979 0.62967
 C289 C 1.08178 -0.07038 0.62114
 C290 C 1.11036 -0.06085 0.63594
 C291 C 1.12469 -0.03058 0.62879
 C292 C 1.11209 -0.01071 0.60735
 C293 C 1.08486 -0.02013 0.59189
 C294 C 1.06921 -0.05005 0.59843
 C295 C 1.04183 -0.05843 0.58158
 C296 C 1.03074 -0.03798 0.55933
 C297 C 1.04639 -0.00852 0.55308
 C298 C 1.07334 0.00032 0.56971
 H299 H 1.16668 -0.05373 0.66679
 H300 H 1.10655 -0.15397 0.69215
 H301 H 1.18654 -0.08903 0.70282
 H302 H 1.06668 -0.14178 0.65725
 H303 H 1.04481 -0.10824 0.62024
 H304 H 1.14567 -0.02119 0.63966
 H305 H 1.12400 0.01228 0.60262
 H306 H 1.02866 -0.08087 0.58450
 H307 H 1.01015 -0.04573 0.54644
 H308 H 1.08546 0.02329 0.56544
 C309 C 0.91964 -0.14936 0.36468
 C310 C 0.90964 -0.12419 0.38078
 C311 C 0.88001 -0.11704 0.37397
 C312 C 0.86233 -0.13256 0.35011
 C313 C 0.87349 -0.15569 0.33256
 C314 C 0.90195 -0.16468 0.34113
 C315 C 0.86838 -0.09380 0.39046
 C316 C 0.88585 -0.07651 0.41281
 C317 C 0.91611 -0.08120 0.41906
 C318 C 0.92819 -0.10548 0.40277
 C319 C 0.95881 -0.10911 0.40777
 C320 C 0.97730 -0.08887 0.42684
 C321 C 0.96604 -0.06470 0.44229
 C322 C 0.93512 -0.06128 0.43979
 C323 C 0.92488 -0.03723 0.45741
 C324 C 0.94488 -0.01595 0.47451
 C325 C 0.97542 -0.01809 0.47457
 C326 C 0.98583 -0.04306 0.45932
 H327 H 0.94114 -0.15780 0.36955
 H328 H 0.84007 -0.12589 0.34500
 H329 H 0.91132 -0.18311 0.32927
 H330 H 0.84558 -0.08851 0.38570
 H331 H 0.87523 -0.05859 0.42391
 H332 H 0.96964 -0.12648 0.39616
 H333 H 1.00087 -0.09177 0.42900
 H334 H 0.90168 -0.03385 0.45807
 H335 H 0.93656 0.00317 0.48651
 H336 H 1.00959 -0.04485 0.45981
 C337 C 0.85041 0.08927 0.63884
 C338 C 0.87606 0.10599 0.62739
 C339 C 0.88304 0.13826 0.63604
 C340 C 0.86461 0.15313 0.65447
 C341 C 0.83920 0.13637 0.66577
 C342 C 0.83250 0.10416 0.65774
 C343 C 0.90852 0.15572 0.62643
 C344 C 0.92778 0.14176 0.60889
 C345 C 0.92206 0.10966 0.59972
 C346 C 0.89519 0.09184 0.60807
 C347 C 0.88816 0.06078 0.59633
 C348 C 0.90682 0.04749 0.57739
 C349 C 0.93366 0.06411 0.57009
 C350 C 0.94201 0.09511 0.58177
 C351 C 0.97024 0.11016 0.57529
 C352 C 0.98856 0.09575 0.55676
 C353 C 0.97956 0.06586 0.54384
 C354 C 0.95220 0.04993 0.55105
 H355 H 0.84385 0.06445 0.63414
 H356 H 0.87086 0.17781 0.66044
 H357 H 0.81324 0.09013 0.66581
 H358 H 0.91383 0.18052 0.63275
 H359 H 0.94666 0.15720 0.60215
 H360 H 0.86786 0.04636 0.60071
 H361 H 0.90026 0.02377 0.56855
 H362 H 0.97921 0.13281 0.58472
 H363 H 1.01012 0.10809 0.55288
 H364 H 0.94497 0.02671 0.54144
 C365 C 0.34328 1.13356 0.08026
 C366 C 0.36353 1.11458 0.09597
 C367 C 0.36161 1.11075 0.12775
 C368 C 0.34012 1.12514 0.14279
 C369 C 0.32012 1.14362 0.12678
 C370 C 0.32207 1.14773 0.09544
 C371 C 0.38106 1.09250 0.14445
 C372 C 0.40230 1.07755 0.13038
 C373 C 0.40497 1.08014 0.09875
 C374 C 0.38540 1.09917 0.08128
 C375 C 0.38822 1.10201 0.04968
 C376 C 0.40906 1.08660 0.03553
 C377 C 0.42801 1.06773 0.05211
 C378 C 0.42644 1.06423 0.08392
 C379 C 0.44624 1.04455 0.09939
 C380 C 0.46644 1.02906 0.08388
 C381 C 0.46796 1.03270 0.05236
 C382 C 0.44838 1.05208 0.03680
 H383 H 0.34296 1.13790 0.05618
 H384 H 0.33917 1.12199 0.16709
 H385 H 0.30685 1.16159 0.08227
 H386 H 0.37979 1.08963 0.16878
 H387 H 0.41631 1.06400 0.14513
 H388 H 0.37455 1.11596 0.03497
 H389 H 0.41024 1.08939 0.01118
 H390 H 0.44655 1.04020 0.12347
 H391 H 0.48024 1.01379 0.09703
 H392 H 0.44883 1.05468 0.01236
 C393 C 0.63907 1.08033 -0.15917
 C394 C 0.63112 1.09333 -0.13181
 C395 C 0.64432 1.12429 -0.12385
 C396 C 0.66429 1.14126 -0.14259
 C397 C 0.67193 1.12807 -0.16955
 C398 C 0.65912 1.09744 -0.17758
 C399 C 0.63769 1.13830 -0.09713
 C400 C 0.61838 1.12226 -0.07776
 C401 C 0.60468 1.09131 -0.08435
 C402 C 0.61078 1.07675 -0.11205
 C403 C 0.59621 1.04625 -0.11910
 C404 C 0.57659 1.03040 -0.09978
 C405 C 0.57081 1.04400 -0.07251
 C406 C 0.58488 1.07454 -0.06425
 C407 C 0.57866 1.08690 -0.03601
 C408 C 0.55896 1.06998 -0.01732
 C409 C 0.54466 1.04012 -0.02586
 C410 C 0.55093 1.02715 -0.05344
 H411 H 0.63043 1.05693 -0.16699
 H412 H 0.67425 1.16471 -0.13572
 H413 H 0.66443 1.08657 -0.19831
 H414 H 0.64763 1.16203 -0.09102
 H415 H 0.61449 1.13515 -0.05782
 H416 H 0.59926 1.03393 -0.13964
 H417 H 0.56588 1.00709 -0.10627
 H418 H 0.58883 1.10942 -0.02735
 H419 H 0.55536 1.08023 0.00428
 H420 H 0.54007 1.00408 -0.06035
 C421 C 0.35232 0.82749 -0.08544
 C422 C 0.37247 0.85254 -0.09578
 C423 C 0.36863 0.86222 -0.12657
 C424 C 0.34433 0.84878 -0.14531
 C425 C 0.32347 0.82548 -0.13400
 C426 C 0.32831 0.81440 -0.10418
 C427 C 0.38856 0.88588 -0.13830
 C428 C 0.41155 0.90126 -0.11988
 C429 C 0.41526 0.89396 -0.08862
 C430 C 0.39558 0.86892 -0.07645
 C431 C 0.39873 0.86211 -0.04505
 C432 C 0.41901 0.88028 -0.02587
 C433 C 0.43746 0.90549 -0.03715
 C434 C 0.43692 0.91193 -0.06879
 C435 C 0.45734 0.93699 -0.07891
 C436 C 0.47541 0.95638 -0.05823
 C437 C 0.47375 0.95129 -0.02707
 C438 C 0.45560 0.92518 -0.01669
 H439 H 0.35409 0.81762 -0.06285
 H440 H 0.34139 0.85704 -0.16856
 H441 H 0.31299 0.79619 -0.09468
 H442 H 0.38601 0.89308 -0.16193
 H443 H 0.42544 0.91969 -0.13072
 H444 H 0.38500 0.84362 -0.03415
 H445 H 0.41975 0.87496 -0.00175
 H446 H 0.45941 0.94278 -0.10255
 H447 H 0.48947 0.97648 -0.06658
 H448 H 0.45467 0.92107 0.00756
 C449 C 0.67876 0.91366 0.15176
 C450 C 0.66138 0.90334 0.12522
 C451 C 0.66652 0.87368 0.11284
 C452 C 0.68814 0.85538 0.12670
 C453 C 0.70503 0.86601 0.15309
 C454 C 0.70005 0.89535 0.16528
 C455 C 0.64999 0.86234 0.08674
 C456 C 0.62826 0.87961 0.07265
 C457 C 0.62209 0.90918 0.08412
 C458 C 0.63907 0.92132 0.11077
 C459 C 0.63312 0.95097 0.12219
 C460 C 0.61111 0.96796 0.10857
 C461 C 0.59409 0.95632 0.08296
 C462 C 0.59937 0.92697 0.07005
 C463 C 0.58143 0.91672 0.04372
 C464 C 0.55901 0.93458 0.03142
 C465 C 0.55363 0.96308 0.04488
 C466 C 0.57159 0.97398 0.07039
 H467 H 0.67661 0.93578 0.16285
 H468 H 0.69155 0.83269 0.11700
 H469 H 0.71281 0.90466 0.18534
 H470 H 0.65382 0.83972 0.07711
 H471 H 0.61655 0.86894 0.05272
 H472 H 0.64498 0.96193 0.14188
 H473 H 0.60724 0.99049 0.11838
 H474 H 0.58390 0.89492 0.03218
 H475 H 0.54534 0.92560 0.01171
 H476 H 0.56810 0.99646 0.08053
   
