data_POSCAR
  _audit_creation_date              2014-09-24
  _audit_creation_method            'ToBaCCo'
  _symmetry_space_group_name_H-M    'P1'
  _symmetry_Int_Tables_number       1
  _symmetry_cell_setting            triclinic
  loop_
  _symmetry_equiv_pos_as_xyz
 x,y,z
_cell_length_a 23.1825
_cell_length_b 23.4602
_cell_length_c 22.9809
_cell_angle_alpha 89.998800
_cell_angle_beta 90.112700
_cell_angle_gamma 90.125300
loop_
  _atom_site_label
  _atom_site_type_symbol
  _atom_site_fract_x
  _atom_site_fract_y
  _atom_site_fract_z
C1 C 0.44862 1.00086 -0.53182
 C2 C 0.44847 1.00057 -0.47070
 C3 C 0.50079 1.00062 -0.44043
 C4 C 0.55337 1.00066 -0.47014
 C5 C 0.55354 1.00038 -0.53138
 C6 C 0.50113 1.00064 -0.56162
 H7 H 0.50121 1.00062 -0.60895
 H8 H 0.50045 1.00060 -0.39314
 C9 C -0.52956 1.44880 0.00023
 C10 C -0.46874 1.44871 -0.00003
 C11 C -0.43895 1.50083 0.00007
 C12 C -0.46832 1.55313 0.00022
 C13 C -0.52923 1.55319 0.00005
 C14 C -0.55894 1.50101 0.00016
 H15 H -0.60578 1.50104 0.00019
 H16 H -0.39208 1.50057 0.00004
 C17 C -0.00020 0.44555 0.46941
 C18 C -0.00049 0.44553 0.53083
 C19 C -0.00042 0.49765 0.56070
 C20 C -0.00033 0.54962 0.53074
 C21 C -0.00053 0.54963 0.46954
 C22 C -0.00035 0.49767 0.43956
 H23 H -0.00032 0.49793 0.39227
 H24 H -0.00044 0.49788 0.60798
 O25 O -0.14839 1.00174 -0.07906
 O26 O 0.14795 0.99794 -0.07887
 O27 O -0.00214 1.07621 -0.14940
 O28 O 0.00151 0.92334 -0.14936
 O29 O 0.00156 0.85274 -0.07930
 O30 O -0.00201 1.14686 -0.07940
 O31 O 0.07674 0.99786 -0.14917
 O32 O -0.07736 1.00175 -0.14927
 Zr33 Zr -0.00025 0.99980 -0.10138
 O34 O 0.05212 0.94784 -0.05232
 O35 O -0.05249 1.05179 -0.05239
 C36 C -0.13050 1.00269 -0.13248
 C37 C 0.12992 0.99697 -0.13231
 C38 C -0.00295 1.12894 -0.13287
 C39 C 0.00238 0.87062 -0.13278
 H40 H 0.07654 1.07583 -0.07709
 O41 O 0.05194 1.05167 -0.05206
 H42 H -0.07699 0.92380 -0.07716
 O43 O -0.05232 0.94796 -0.05210
 O44 O 0.14817 1.00215 0.07929
 O45 O -0.14815 0.99754 0.07917
 O46 O 0.07909 1.14705 0.00197
 O47 O 0.07887 0.85283 -0.00162
 O48 O -0.07934 0.85262 0.00192
 O49 O -0.07906 1.14683 -0.00174
 O50 O 0.00203 1.07625 0.14965
 O51 O -0.00186 0.92336 0.14964
 O52 O 0.00201 1.14689 0.07963
 O53 O -0.00204 0.85275 0.07960
 O54 O 0.14885 1.07676 0.00193
 O55 O -0.14895 1.07637 -0.00168
 O56 O -0.14909 0.92292 0.00180
 O57 O 0.14873 0.92332 -0.00152
 O58 O 0.07717 1.00199 0.14953
 O59 O -0.07693 0.99768 0.14946
 Zr60 Zr 0.10144 0.99997 0.00019
 Zr61 Zr -0.10168 0.99969 0.00008
 Zr62 Zr -0.00003 1.10109 0.00012
 Zr63 Zr -0.00020 0.89856 0.00014
 Zr64 Zr 0.00004 0.99982 0.10164
 O65 O -0.05243 0.94772 0.05260
 O66 O 0.05235 1.05194 0.05265
 C67 C 0.13030 1.00307 0.13272
 C68 C -0.13011 0.99664 0.13262
 C69 C 0.13227 1.12947 0.00277
 C70 C 0.13209 0.87057 -0.00238
 C71 C -0.13253 0.87021 0.00267
 C72 C -0.13228 1.12912 -0.00254
 C73 C 0.00291 1.12898 0.13310
 C74 C -0.00283 0.87064 0.13307
 H75 H -0.07664 1.07563 0.07734
 O76 O -0.05207 1.05153 0.05232
 H77 H 0.07665 0.92402 0.07744
 O78 O 0.05201 0.94811 0.05239
 C79 C 0.22707 1.01261 0.33123
 C80 C 0.26594 0.96160 0.34858
 C81 C 0.31662 1.00311 0.35611
 C82 C 0.27860 1.05411 0.33959
 C83 C 0.24515 1.00434 0.26748
 C84 C 0.29586 1.04580 0.27507
 C85 C 0.28320 0.95340 0.28404
 C86 C 0.33449 0.99486 0.29228
 C87 C 0.35979 1.00225 0.40224
 C88 C 0.39953 1.00153 0.43579
 C89 C 0.20585 1.00457 0.21794
 C90 C 0.17246 1.00421 0.17796
 H91 H 0.18228 1.01997 0.34644
 H92 H 0.25411 0.92716 0.37948
 H93 H 0.27711 1.09535 0.36320
 H94 H 0.30776 1.08024 0.24419
 H95 H 0.28475 0.91214 0.26044
 H96 H 0.37923 0.98749 0.27688
 C97 C -0.30988 0.99097 0.26260
 C98 C -0.30953 0.94779 0.31347
 C99 C -0.31490 0.99755 0.35656
 C100 C -0.31582 1.04072 0.30629
 C101 C -0.24411 0.99585 0.26767
 C102 C -0.24938 1.04564 0.31072
 C103 C -0.24302 0.95263 0.31787
 C104 C -0.24911 1.00246 0.36182
 C105 C -0.35772 0.99866 0.40284
 C106 C -0.39734 0.99956 0.43638
 C107 C -0.20521 0.99539 0.21795
 C108 C -0.17208 0.99561 0.17787
 H109 H -0.33436 0.98626 0.22131
 H110 H -0.33467 0.90751 0.31536
 H111 H -0.34617 1.07706 0.30225
 H112 H -0.22423 1.08592 0.30874
 H113 H -0.21263 0.91632 0.32176
 H114 H -0.22476 1.00717 0.40318
 C115 C -0.29771 1.04242 -0.27372
 C116 C -0.28053 1.05494 -0.33755
 C117 C -0.31543 1.00262 -0.35704
 C118 C -0.33321 0.99015 -0.29389
 C119 C -0.24474 1.00380 -0.26777
 C120 C -0.27966 0.95151 -0.28727
 C121 C -0.22675 1.01628 -0.33084
 C122 C -0.26248 0.96392 -0.35115
 C123 C -0.35819 1.00181 -0.40357
 C124 C -0.39769 1.00118 -0.43743
 C125 C -0.20581 1.00404 -0.21792
 C126 C -0.17259 1.00373 -0.17778
 H127 H -0.31178 1.07452 -0.24125
 H128 H -0.28126 1.09732 -0.35901
 H129 H -0.37754 0.97933 -0.27932
 H130 H -0.27898 0.90912 -0.26582
 H131 H -0.18237 1.02710 -0.34521
 H132 H -0.24848 0.93184 -0.38366
 C133 C 0.22498 1.00320 -0.33097
 C134 C 0.27420 1.04717 -0.33997
 C135 C 0.31467 0.99805 -0.35627
 C136 C 0.26628 0.95407 -0.34809
 C137 C 0.24403 0.99636 -0.26726
 C138 C 0.28452 0.94728 -0.28356
 C139 C 0.29246 1.04027 -0.27550
 C140 C 0.33353 0.99121 -0.29248
 C141 C 0.35734 0.99909 -0.40270
 C142 C 0.39667 0.99988 -0.43659
 C143 C 0.20510 0.99588 -0.21756
 C144 C 0.17192 0.99604 -0.17753
 H145 H 0.17972 1.00812 -0.34599
 H146 H 0.27035 1.08809 -0.36390
 H147 H 0.25596 0.91884 -0.37866
 H148 H 0.28840 0.90635 -0.25963
 H149 H 0.30285 1.07552 -0.24498
 H150 H 0.37874 0.98629 -0.27727
 C151 C 0.27366 1.29390 -0.04031
 C152 C 0.29118 1.33357 0.01057
 C153 C 0.35457 1.31612 0.00203
 C154 C 0.33766 1.27701 -0.04890
 C155 C 0.26656 1.24470 0.00324
 C156 C 0.32990 1.22709 -0.00531
 C157 C 0.28348 1.28383 0.05414
 C158 C 0.34754 1.26694 0.04564
 C159 C 0.40117 1.35880 0.00130
 C160 C 0.43561 1.39754 0.00074
 C161 C 0.21727 1.20506 0.00360
 C162 C 0.17756 1.17158 0.00350
 H163 H 0.24280 1.30481 -0.07557
 H164 H 0.27561 1.37783 0.01712
 H165 H 0.36047 1.27441 -0.09124
 H166 H 0.34534 1.18280 -0.01186
 H167 H 0.26067 1.28645 0.09648
 H168 H 0.37843 1.25610 0.08088
 C169 C 0.28782 0.72244 -0.05598
 C170 C 0.35084 0.73867 -0.04028
 C171 C 0.35481 0.68534 -0.00165
 C172 C 0.29248 0.66856 -0.01739
 C173 C 0.26654 0.75609 -0.00283
 C174 C 0.27059 0.70274 0.03573
 C175 C 0.32882 0.77302 0.01291
 C176 C 0.33352 0.71898 0.05151
 C177 C 0.40154 0.64299 -0.00096
 C178 C 0.43601 0.60441 -0.00043
 C179 C 0.21712 0.79537 -0.00319
 C180 C 0.17735 0.82862 -0.00309
 H181 H 0.26848 0.72404 -0.10018
 H182 H 0.38434 0.75318 -0.07142
 H183 H 0.27789 0.62514 -0.02991
 H184 H 0.23714 0.68815 0.06689
 H185 H 0.34328 0.81647 0.02544
 H186 H 0.35285 0.71737 0.09571
 C187 C -0.32149 0.76246 -0.03435
 C188 C -0.31800 0.69866 -0.05147
 C189 C -0.35489 0.68359 0.00192
 C190 C -0.35913 0.74673 0.01911
 C191 C -0.26693 0.75508 0.00312
 C192 C -0.30378 0.74006 0.05655
 C193 C -0.26284 0.69194 -0.01402
 C194 C -0.30028 0.67633 0.03936
 C195 C -0.40136 0.64076 0.00122
 C196 C -0.43548 0.60172 0.00069
 C197 C -0.21760 0.79469 0.00348
 C198 C -0.17784 0.82812 0.00338
 H199 H -0.32968 0.79828 -0.06480
 H200 H -0.32437 0.68141 -0.09601
 H201 H -0.39916 0.76892 0.03264
 H202 H -0.29736 0.75732 0.10108
 H203 H -0.22287 0.66965 -0.02757
 H204 H -0.29199 0.64053 0.06982
 C205 C -0.30921 1.25024 0.04742
 C206 C -0.30402 1.31591 0.04254
 C207 C -0.35375 1.31579 -0.00189
 C208 C -0.35967 1.25073 0.00296
 C209 C -0.26618 1.24422 -0.00306
 C210 C -0.31585 1.24400 -0.04753
 C211 C -0.26040 1.30928 -0.00789
 C212 C -0.31068 1.30971 -0.05234
 C213 C -0.40010 1.35853 -0.00115
 C214 C -0.43428 1.39735 -0.00057
 C215 C -0.21707 1.20457 -0.00340
 C216 C -0.17747 1.17113 -0.00328
 H217 H -0.30805 1.22549 0.08858
 H218 H -0.29962 1.34578 0.07976
 H219 H -0.40091 1.22701 0.00743
 H220 H -0.32016 1.21410 -0.08473
 H221 H -0.21921 1.33310 -0.01236
 H222 H -0.31178 1.33446 -0.09350
 C223 C 0.05107 1.28719 0.28114
 C224 C 0.00399 1.33258 0.29197
 C225 C 0.00203 1.31487 0.35639
 C226 C 0.04916 1.27005 0.34625
 C227 C 0.00347 1.24335 0.26820
 C228 C 0.00151 1.22544 0.33255
 C229 C -0.04359 1.28819 0.27840
 C230 C -0.04561 1.27104 0.34347
 C231 C 0.00113 1.35781 0.40268
 C232 C 0.00043 1.39701 0.43658
 C233 C 0.00390 1.20392 0.21873
 C234 C 0.00376 1.17068 0.17873
 H235 H 0.09073 1.29356 0.25492
 H236 H 0.00500 1.37715 0.27574
 H237 H 0.08716 1.26291 0.37476
 H238 H 0.00051 1.18083 0.34863
 H239 H -0.08162 1.29540 0.24992
 H240 H -0.08527 1.26472 0.36970
 C241 C -0.03880 1.29861 -0.27072
 C242 C 0.01530 1.33009 -0.29355
 C243 C -0.00246 1.31482 -0.35618
 C244 C -0.05661 1.28391 -0.33398
 C245 C -0.00367 1.24328 -0.26799
 C246 C -0.02145 1.22783 -0.33055
 C247 C 0.05047 1.27420 -0.29020
 C248 C 0.03275 1.25952 -0.35354
 C249 C -0.00165 1.35777 -0.40247
 C250 C -0.00103 1.39698 -0.43637
 C251 C -0.00400 1.20386 -0.21851
 C252 C -0.00381 1.17063 -0.17851
 H253 H -0.06811 1.31437 -0.23617
 H254 H 0.03052 1.37262 -0.27881
 H255 H -0.10059 1.28818 -0.35263
 H256 H -0.03666 1.18526 -0.34514
 H257 H 0.09446 1.26996 -0.27155
 H258 H 0.06205 1.24383 -0.38813
 C259 C -0.04026 0.75760 -0.31808
 C260 C 0.01014 0.74788 -0.36127
 C261 C 0.00161 0.68328 -0.35477
 C262 C -0.04874 0.69232 -0.31237
 C263 C 0.00291 0.75558 -0.26725
 C264 C -0.00560 0.69098 -0.26092
 C265 C 0.05330 0.74662 -0.30960
 C266 C 0.04474 0.68137 -0.30389
 C267 C 0.00082 0.64012 -0.40085
 C268 C 0.00021 0.60097 -0.43479
 C269 C 0.00329 0.79539 -0.21811
 C270 C 0.00315 0.82884 -0.17831
 H271 H -0.07531 0.78938 -0.32326
 H272 H 0.01655 0.77080 -0.40303
 H273 H -0.09080 0.66967 -0.31411
 H274 H -0.01202 0.66794 -0.21922
 H275 H 0.09535 0.76930 -0.30778
 H276 H 0.07980 0.64962 -0.29862
 C277 C -0.02178 0.77038 0.33009
 C278 C -0.05670 0.71398 0.33273
 C279 C -0.00251 0.68334 0.35511
 C280 C 0.03245 0.73897 0.35325
 C281 C -0.00364 0.75560 0.26755
 C282 C 0.05052 0.72495 0.28995
 C283 C -0.03855 0.69995 0.26950
 C284 C 0.01560 0.66874 0.29252
 C285 C -0.00174 0.64017 0.40117
 C286 C -0.00112 0.60100 0.43509
 C287 C -0.00393 0.79541 0.21841
 C288 C -0.00371 0.82886 0.17861
 H289 H -0.03724 0.81270 0.34490
 H290 H -0.10075 0.70916 0.35096
 H291 H 0.06153 0.75462 0.38823
 H292 H 0.09458 0.72974 0.27172
 H293 H -0.06763 0.68423 0.23456
 H294 H 0.03106 0.62646 0.27755
   
