data_POSCAR
  _audit_creation_date              2014-09-24
  _audit_creation_method            'ToBaCCo'
  _symmetry_space_group_name_H-M    'P1'
  _symmetry_Int_Tables_number       1
  _symmetry_cell_setting            triclinic
  loop_
  _symmetry_equiv_pos_as_xyz
 x,y,z
_cell_length_a 46.9592
_cell_length_b 26.2530
_cell_length_c 18.7331
_cell_angle_alpha 90.090000
_cell_angle_beta 89.904800
_cell_angle_gamma 90.048900
loop_
  _atom_site_label
  _atom_site_type_symbol
  _atom_site_fract_x
  _atom_site_fract_y
  _atom_site_fract_z
O1 O 0.73490 0.30480 0.56806
 O2 O 0.78469 0.25974 0.42981
 O3 O 0.73493 0.30445 0.42852
 O4 O 0.78447 0.25986 0.56717
 O5 O 0.76308 0.18486 0.56778
 O6 O 0.71337 0.22963 0.42946
 O7 O 0.76311 0.18497 0.42865
 O8 O 0.71345 0.22987 0.56758
 Cu9 Cu 0.76177 0.28986 0.49834
 Cu10 Cu 0.73614 0.19978 0.49836
 C11 C 0.71560 0.27511 0.59104
 C12 C 0.78269 0.21445 0.40643
 C13 C 0.71555 0.27477 0.40588
 C14 C 0.78246 0.21456 0.59031
 O15 O 0.23495 0.80810 0.57146
 O16 O 0.28456 0.76295 0.43282
 O17 O 0.23499 0.80790 0.43187
 O18 O 0.28456 0.76320 0.57017
 O19 O 0.26294 0.68842 0.57137
 O20 O 0.21350 0.73301 0.43242
 O21 O 0.26310 0.68801 0.43235
 O22 O 0.21324 0.73346 0.57050
 Cu23 Cu 0.26179 0.79318 0.50158
 Cu24 Cu 0.23606 0.70317 0.50173
 C25 C 0.21545 0.77867 0.59415
 C26 C 0.28254 0.71759 0.40978
 C27 C 0.21573 0.77816 0.40889
 C28 C 0.28246 0.71799 0.59350
 O29 O 0.26294 0.31339 -0.57328
 O30 O 0.21355 0.26848 -0.43395
 O31 O 0.26318 0.31360 -0.43411
 O32 O 0.21324 0.26836 -0.57191
 O33 O 0.23501 0.19384 -0.57358
 O34 O 0.28455 0.23865 -0.43484
 O35 O 0.23495 0.19357 -0.43401
 O36 O 0.28467 0.23883 -0.57224
 Cu37 Cu 0.23612 0.29850 -0.50330
 Cu38 Cu 0.26183 0.20859 -0.50373
 C39 C 0.28254 0.28405 -0.59564
 C40 C 0.21569 0.22323 -0.41077
 C41 C 0.28256 0.28397 -0.41165
 C42 C 0.21547 0.22324 -0.59587
 O43 O -0.26487 0.69229 -0.56869
 O44 O -0.21541 0.73654 -0.42948
 O45 O -0.26500 0.69143 -0.42911
 O46 O -0.21527 0.73746 -0.56688
 O47 O -0.23678 0.81229 -0.56659
 O48 O -0.28669 0.76602 -0.42921
 O49 O -0.23704 0.81125 -0.42755
 O50 O -0.28638 0.76710 -0.56723
 Cu51 Cu -0.23811 0.70680 -0.49866
 Cu52 Cu -0.26385 0.79671 -0.49752
 C53 C -0.28416 0.72205 -0.59128
 C54 C -0.21756 0.78164 -0.40557
 C55 C -0.28450 0.72072 -0.40611
 C56 C -0.21729 0.78290 -0.58938
 O57 O -0.03925 0.91266 0.13182
 O58 O -0.07072 0.95844 0.06343
 C59 C -0.06486 0.92602 0.11350
 O60 O 0.04045 1.09478 0.12301
 O61 O 0.07187 1.04490 0.06007
 C62 C 0.06604 1.08064 0.10565
 O63 O -0.03954 1.08920 0.13031
 O64 O -0.07081 1.04197 0.06299
 C65 C -0.06508 1.07511 0.11235
 O66 O 0.04061 0.90767 0.12424
 O67 O 0.07200 0.95712 0.06054
 C68 C 0.06618 0.92169 0.10653
 Zr69 Zr 0.00067 0.93630 0.09072
 O70 O 0.00339 0.93706 0.20347
 O71 O -0.00250 0.85585 0.09056
 Zr72 Zr 0.00051 1.06507 0.09035
 O73 O 0.00192 1.06027 0.20288
 O74 O -0.00245 1.14549 0.09354
 O75 O -0.02474 1.00065 0.10449
 O76 O 0.02539 1.00090 0.10348
 O77 O 0.04066 0.90686 -0.12305
 O78 O 0.07199 0.95680 -0.06004
 C79 C 0.06622 0.92117 -0.10582
 O80 O -0.03957 1.08836 -0.12981
 O81 O -0.07085 1.04162 -0.06195
 C82 C -0.06511 1.07444 -0.11161
 O83 O 0.04032 1.09347 -0.12424
 O84 O 0.07180 1.04419 -0.06111
 C85 C 0.06591 1.07951 -0.10709
 O86 O -0.03932 0.91097 -0.12889
 O87 O -0.07070 0.95793 -0.06150
 C88 C -0.06489 0.92474 -0.11074
 Zr89 Zr 0.00065 0.93556 -0.08931
 O90 O 0.00375 0.93507 -0.20207
 O91 O -0.00250 0.85508 -0.08840
 Zr92 Zr 0.00047 1.06464 -0.08986
 O93 O 0.00353 1.06455 -0.20262
 O94 O -0.00289 1.14507 -0.08923
 Zr95 Zr -0.04171 1.00019 0.00055
 Zr96 Zr 0.04305 1.00065 0.00018
 O97 O 0.02520 1.00018 -0.10288
 O98 O -0.02474 0.99991 -0.10367
 O99 O 0.02617 0.92614 0.00062
 O100 O -0.02431 1.07402 0.00034
 O101 O -0.02415 0.92653 0.00092
 O102 O 0.02596 1.07494 0.00003
 H103 H 0.03825 1.00110 0.14537
 H104 H -0.03730 1.10373 0.00037
 H105 H 0.03795 1.00006 -0.14507
 H106 H -0.03713 0.89677 0.00130
 H107 H 0.01179 1.15899 0.05953
 H108 H 0.01344 1.15863 -0.06185
 H109 H -0.01215 1.04309 -0.22108
 H110 H -0.01210 0.95593 -0.22072
 H111 H 0.01366 0.84184 -0.06017
 H112 H 0.01346 0.84249 0.06157
 H113 H -0.00994 0.96353 0.22080
 H114 H 0.00179 1.09585 0.22064
 O115 O 0.45988 0.41068 0.12851
 O116 O 0.42861 0.45797 0.06155
 C117 C 0.43433 0.42469 0.11056
 O118 O 0.54039 0.59324 0.12287
 O119 O 0.57184 0.54318 0.06017
 C120 C 0.56599 0.57898 0.10569
 O121 O 0.46074 0.58899 0.13070
 O122 O 0.42935 0.54247 0.06304
 C123 C 0.43517 0.57537 0.11264
 O124 O 0.53989 0.40469 0.12110
 O125 O 0.57158 0.45541 0.06034
 C126 C 0.56556 0.41918 0.10490
 Zr127 Zr 0.50012 0.43569 0.09037
 O128 O 0.50276 0.44093 0.20303
 O129 O 0.49788 0.35564 0.09999
 Zr130 Zr 0.50037 0.56393 0.09015
 O131 O 0.50165 0.55818 0.20262
 O132 O 0.49770 0.64436 0.09409
 O133 O 0.47471 0.49994 0.10380
 O134 O 0.52517 0.49969 0.10340
 O135 O 0.54009 0.40613 -0.12436
 O136 O 0.57153 0.45512 -0.06049
 C137 C 0.56567 0.41983 -0.10666
 O138 O 0.46099 0.58888 -0.13073
 O139 O 0.42947 0.54237 -0.06351
 C140 C 0.43539 0.57525 -0.11288
 O141 O 0.54062 0.59256 -0.12380
 O142 O 0.57182 0.54252 -0.06098
 C143 C 0.56614 0.57813 -0.10667
 O144 O 0.46023 0.41100 -0.12983
 O145 O 0.42876 0.45795 -0.06265
 C146 C 0.43463 0.42491 -0.11205
 Zr147 Zr 0.50030 0.43509 -0.08996
 O148 O 0.50346 0.43513 -0.20273
 O149 O 0.49708 0.35459 -0.09016
 Zr150 Zr 0.50060 0.56405 -0.08989
 O151 O 0.50387 0.56420 -0.20262
 O152 O 0.49752 0.64453 -0.08835
 Zr153 Zr 0.45784 0.49969 -0.00032
 Zr154 Zr 0.54285 0.49938 0.00014
 O155 O 0.52512 0.49941 -0.10302
 O156 O 0.47512 0.49965 -0.10428
 O157 O 0.52557 0.42509 0.00023
 O158 O 0.47563 0.57328 0.00004
 O159 O 0.47544 0.42597 0.00006
 O160 O 0.52600 0.57384 0.00019
 H161 H 0.53814 0.49956 0.14507
 H162 H 0.46283 0.60326 0.00015
 H163 H 0.53787 0.49928 -0.14521
 H164 H 0.46253 0.39611 -0.00013
 H165 H 0.51175 0.65785 0.05961
 H166 H 0.51409 0.65783 -0.06164
 H167 H 0.48828 0.54268 -0.22138
 H168 H 0.48745 0.45560 -0.22137
 H169 H 0.51373 0.34091 -0.06417
 H170 H 0.50060 0.34163 0.05156
 H171 H 0.48610 0.46070 0.21986
 H172 H 0.50207 0.59361 0.22093
 C173 C 0.34348 0.33905 0.26735
 N174 N 0.32043 0.36782 0.28442
 N175 N 0.30036 0.34971 0.32794
 C176 C 0.30248 0.30200 0.35543
 N177 N 0.32531 0.27298 0.33725
 N178 N 0.34550 0.29126 0.29433
 C179 C 0.36662 0.36012 0.22370
 N180 N 0.39266 0.33770 0.22358
 N181 N 0.41418 0.35808 0.18704
 C182 C 0.41037 0.40136 0.14870
 N183 N 0.38424 0.42349 0.14813
 N184 N 0.36279 0.40340 0.18531
 C185 C -0.15504 0.83999 0.27263
 N186 N -0.15169 0.79405 0.30464
 N187 N -0.17190 0.77536 0.34711
 C188 C -0.19613 0.80208 0.35958
 N189 N -0.19957 0.84797 0.32737
 N190 N -0.17943 0.86649 0.28437
 C191 C -0.13202 0.86146 0.22889
 N192 N -0.13649 0.90301 0.18727
 N193 N -0.11520 0.92319 0.14951
 C194 C -0.08865 0.90283 0.15259
 N195 N -0.08423 0.86131 0.19418
 N196 N -0.10554 0.84088 0.23138
 C197 C 0.65531 0.66749 0.26428
 N198 N 0.65175 0.71321 0.29699
 N199 N 0.67140 0.73110 0.34166
 C200 C 0.69525 0.70375 0.35570
 N201 N 0.69893 0.65813 0.32269
 N202 N 0.67935 0.64040 0.27758
 C203 C 0.63273 0.64639 0.21890
 N204 N 0.63731 0.60386 0.17916
 N205 N 0.61624 0.58314 0.14137
 C206 C 0.58978 0.60399 0.14241
 N207 N 0.58527 0.64667 0.18181
 N208 N 0.60638 0.66761 0.21911
 C209 C 0.15576 1.16888 0.26335
 N210 N 0.15338 1.21644 0.29122
 N211 N 0.17313 1.23451 0.33555
 C212 C 0.19584 1.20547 0.35433
 N213 N 0.19830 1.15800 0.32600
 N214 N 0.17868 1.14012 0.28113
 C215 C 0.13306 1.14781 0.21822
 N216 N 0.13725 1.10424 0.18051
 N217 N 0.11610 1.08363 0.14290
 C218 C 0.08992 1.10557 0.14220
 N219 N 0.08579 1.14927 0.17963
 N220 N 0.10701 1.17015 0.21665
 C221 C 0.65495 0.33058 -0.26511
 N222 N 0.65132 0.28474 -0.29748
 N223 N 0.67100 0.26656 -0.34197
 C224 C 0.69495 0.29372 -0.35617
 N225 N 0.69868 0.33945 -0.32352
 N226 N 0.67908 0.35748 -0.27858
 C227 C 0.63236 0.35196 -0.21988
 N228 N 0.63702 0.39446 -0.18015
 N229 N 0.61596 0.41538 -0.14241
 C230 C 0.58943 0.39476 -0.14354
 N231 N 0.58483 0.35213 -0.18296
 N232 N 0.60593 0.33099 -0.22018
 C233 C 0.15585 0.83314 -0.26449
 N234 N 0.17873 0.86197 -0.28283
 N235 N 0.19830 0.84406 -0.32792
 C236 C 0.19584 0.79648 -0.35590
 N237 N 0.17318 0.76738 -0.33656
 N238 N 0.15348 0.78547 -0.29202
 C239 C 0.13320 0.85424 -0.21914
 N240 N 0.10718 0.83173 -0.21700
 N241 N 0.08598 0.85260 -0.17979
 C242 C 0.09011 0.89646 -0.14273
 N243 N 0.11625 0.91861 -0.14403
 N244 N 0.13738 0.89800 -0.18185
 C245 C 0.34491 0.66173 -0.26919
 N246 N 0.32049 0.63512 -0.28022
 N247 N 0.30025 0.65343 -0.32287
 C248 C 0.30362 0.69923 -0.35542
 N249 N 0.32786 0.72610 -0.34360
 N250 N 0.34817 0.70761 -0.30146
 C251 C 0.36804 0.64030 -0.22612
 N252 N 0.39454 0.66090 -0.22919
 N253 N 0.41595 0.64032 -0.19273
 C254 C 0.41159 0.59863 -0.15139
 N255 N 0.38503 0.57827 -0.14775
 N256 N 0.36366 0.59859 -0.18475
 C257 C -0.15548 1.15909 -0.27048
 N258 N -0.17969 1.13206 -0.28243
 N259 N -0.19977 1.15007 -0.32579
 C260 C -0.19647 1.19594 -0.35821
 N261 N -0.17243 1.22318 -0.34551
 N262 N -0.15227 1.20502 -0.30265
 C263 C -0.13244 1.13810 -0.22655
 N264 N -0.10608 1.15924 -0.22881
 N265 N -0.08472 1.13914 -0.19168
 C266 C -0.08899 1.09738 -0.15039
 N267 N -0.11543 1.07647 -0.14752
 N268 N -0.13676 1.09633 -0.18521
 C269 C 0.65589 0.66578 -0.26523
 N270 N 0.65357 0.71355 -0.29222
 N271 N 0.67327 0.73177 -0.33662
 C272 C 0.69588 0.70270 -0.35637
 N273 N 0.69828 0.65501 -0.32895
 N274 N 0.67871 0.63696 -0.28400
 C275 C 0.63323 0.64464 -0.22000
 N276 N 0.63731 0.60079 -0.18303
 N277 N 0.61614 0.58028 -0.14522
 C278 C 0.59008 0.60264 -0.14360
 N279 N 0.58606 0.64657 -0.18031
 N280 N 0.60729 0.66732 -0.21751
 C281 C 0.15511 1.16789 -0.26675
 N282 N 0.15154 1.21377 -0.29880
 N283 N 0.17120 1.23189 -0.34337
 C284 C 0.19505 1.20462 -0.35798
 N285 N 0.19871 1.15882 -0.32569
 N286 N 0.17913 1.14086 -0.28067
 C287 C 0.13255 1.14666 -0.22130
 N288 N 0.13716 1.10415 -0.18177
 N289 N 0.11612 1.08345 -0.14374
 C290 C 0.08966 1.10431 -0.14436
 N291 N 0.08511 1.14694 -0.18360
 N292 N 0.10620 1.16786 -0.22111
 C293 C 0.34455 0.33967 -0.27201
 N294 N 0.32033 0.36658 -0.28389
 N295 N 0.30028 0.34851 -0.32743
 C296 C 0.30363 0.30268 -0.36009
 N297 N 0.32767 0.27554 -0.34745
 N298 N 0.34780 0.29377 -0.30442
 C299 C 0.36752 0.36077 -0.22783
 N300 N 0.39391 0.33976 -0.22992
 N301 N 0.41520 0.36000 -0.19250
 C302 C 0.41084 0.40174 -0.15109
 N303 N 0.38438 0.42253 -0.14842
 N304 N 0.36312 0.40254 -0.18639
 C305 C -0.15543 0.83766 -0.26679
 N306 N -0.15211 0.79184 -0.29937
 N307 N -0.17232 0.77340 -0.34196
 C308 C -0.19653 0.80025 -0.35394
 N309 N -0.19996 0.84595 -0.32100
 N310 N -0.17982 0.86423 -0.27791
 C311 C -0.13232 0.85918 -0.22354
 N312 N -0.13668 0.90102 -0.18224
 N313 N -0.11530 0.92150 -0.14528
 C314 C -0.08875 0.90115 -0.14890
 N315 N -0.08443 0.85932 -0.19014
 N316 N -0.10585 0.83860 -0.22656
 C317 C 0.34477 0.66138 0.27092
 N318 N 0.32047 0.63456 0.28273
 N319 N 0.30033 0.65281 0.32597
 C320 C 0.30367 0.69874 0.35839
 N321 N 0.32780 0.72578 0.34583
 N322 N 0.34801 0.70737 0.30309
 C323 C 0.36783 0.64009 0.22715
 N324 N 0.39427 0.66095 0.22960
 N325 N 0.41565 0.64051 0.19262
 C326 C 0.41133 0.59871 0.15133
 N327 N 0.38482 0.57809 0.14827
 N328 N 0.36347 0.59828 0.18580
 C329 C -0.15606 1.15973 0.26997
 N330 N -0.15416 1.20757 0.29705
 N331 N -0.17445 1.22576 0.33978
 C332 C -0.19727 1.19659 0.35767
 N333 N -0.19927 1.14882 0.33008
 N334 N -0.17910 1.13081 0.28674
 C335 C -0.13285 1.13881 0.22636
 N336 N -0.10682 1.16136 0.22656
 N337 N -0.08528 1.14123 0.18981
 C338 C -0.08906 1.09808 0.15095
 N339 N -0.11516 1.07579 0.15013
 N340 N -0.13664 1.09564 0.18751
 C341 C 0.65477 0.32997 0.26281
 N342 N 0.67886 0.35696 0.27618
 N343 N 0.69850 0.33903 0.32085
 C344 C 0.69484 0.29329 0.35336
 N345 N 0.67091 0.26604 0.33930
 N346 N 0.65119 0.28413 0.29506
 C347 C 0.63217 0.35126 0.21769
 N348 N 0.60580 0.33003 0.21752
 N349 N 0.58471 0.35109 0.18037
 C350 C 0.58929 0.39391 0.14147
 N351 N 0.61576 0.41477 0.14082
 N352 N 0.63680 0.39393 0.17846
 C353 C 0.15545 0.83307 0.26448
 N354 N 0.15180 0.78725 0.29669
 N355 N 0.17138 0.76924 0.34137
 C356 C 0.19521 0.79659 0.35593
 N357 N 0.19897 0.84230 0.32340
 N358 N 0.17947 0.86015 0.27828
 C359 C 0.13290 0.85428 0.21925
 N360 N 0.13750 0.89688 0.17984
 N361 N 0.11644 0.91763 0.14219
 C362 C 0.08997 0.89674 0.14311
 N363 N 0.08545 0.85398 0.18217
 N364 N 0.10655 0.83302 0.21929
   
