data_POSCAR
  _audit_creation_date              2014-09-24
  _audit_creation_method            'ToBaCCo'
  _symmetry_space_group_name_H-M    'P1'
  _symmetry_Int_Tables_number       1
  _symmetry_cell_setting            triclinic
  loop_
  _symmetry_equiv_pos_as_xyz
 x,y,z
_cell_length_a 25.7034
_cell_length_b 25.6414
_cell_length_c 43.2427
_cell_angle_alpha 87.105300
_cell_angle_beta 87.252800
_cell_angle_gamma 91.023000
loop_
  _atom_site_label
  _atom_site_type_symbol
  _atom_site_fract_x
  _atom_site_fract_y
  _atom_site_fract_z
O1 O 0.04656 0.54854 1.02548
 O2 O 0.03771 0.45497 0.96419
 O3 O 0.03828 0.55668 0.96579
 O4 O 0.04475 0.44713 1.02375
 O5 O -0.04089 0.44690 1.03082
 O6 O -0.04731 0.55535 0.97202
 O7 O -0.04792 0.45306 0.97073
 O8 O -0.03913 0.54771 1.03179
 Cu9 Cu 0.05038 0.50201 0.99409
 Cu10 Cu -0.05245 0.50062 1.00182
 C11 C 0.00531 0.56415 1.03916
 C12 C -0.00647 0.43738 0.95723
 C13 C -0.00558 0.57523 0.95912
 C14 C 0.00304 0.42846 1.03728
 O15 O 0.54419 -0.03812 0.53134
 O16 O 0.45188 -0.04674 0.46937
 O17 O 0.55298 -0.04548 0.47175
 O18 O 0.44283 -0.03790 0.52886
 O19 O 0.44553 0.04803 0.52273
 O20 O 0.55345 0.04032 0.46408
 O21 O 0.45286 0.03918 0.46300
 O22 O 0.54752 0.04756 0.52410
 Cu23 Cu 0.49778 -0.05063 0.50108
 Cu24 Cu 0.50005 0.05242 0.49296
 C25 C 0.56245 0.00603 0.53809
 C26 C 0.43639 -0.00533 0.45563
 C27 C 0.57174 -0.00388 0.45797
 C28 C 0.42505 0.00634 0.53543
 C29 C 0.01993 -0.02092 0.24795
 C30 C -0.02272 0.02102 0.74689
 C31 C 0.01577 -0.32384 0.10963
 C32 C -0.03208 -0.34856 0.10446
 C33 C -0.03544 -0.38507 0.08168
 C34 C 0.00904 -0.39799 0.06372
 C35 C 0.05704 -0.37394 0.06922
 C36 C 0.06033 -0.33714 0.09184
 C37 C 0.01885 -0.28337 0.13280
 N38 N 0.06260 -0.25326 0.13426
 N39 N 0.06461 -0.21540 0.15418
 C40 C 0.02304 -0.20619 0.17359
 N41 N -0.02051 -0.23667 0.17236
 N42 N -0.02257 -0.27442 0.15238
 C43 C 0.02409 -0.16210 0.19445
 C44 C -0.01667 -0.15577 0.21663
 C45 C -0.01794 -0.11196 0.23458
 C46 C 0.02078 -0.07206 0.23015
 C47 C 0.06355 -0.08093 0.20942
 C48 C 0.06494 -0.12489 0.19166
 H49 H -0.06720 -0.33917 0.11769
 H50 H -0.07296 -0.40306 0.07808
 H51 H 0.09203 -0.38307 0.05578
 H52 H 0.09782 -0.31897 0.09528
 H53 H -0.04797 -0.18461 0.22006
 H54 H -0.04961 -0.11014 0.25175
 H55 H 0.09519 -0.05242 0.20613
 H56 H 0.09747 -0.12890 0.17516
 C57 C 0.00952 0.29893 0.10386
 C58 C 0.04891 0.30720 0.08037
 C59 C 0.04732 0.34997 0.05914
 C60 C 0.00566 0.38456 0.06053
 C61 C -0.03377 0.37635 0.08401
 C62 C -0.03151 0.33425 0.10573
 C63 C 0.01062 0.25278 0.12564
 N64 N -0.01192 0.25346 0.15469
 N65 N -0.01124 0.21139 0.17408
 C66 C 0.01145 0.16686 0.16500
 N67 N 0.03384 0.16622 0.13595
 N68 N 0.03366 0.20839 0.11671
 C69 C 0.01154 0.11964 0.18599
 C70 C 0.01175 0.07019 0.17368
 C71 C 0.01311 0.02514 0.19305
 C72 C 0.01698 0.02810 0.22545
 C73 C 0.01425 0.07822 0.23765
 C74 C 0.01160 0.12330 0.21822
 H75 H 0.08110 0.28068 0.07850
 H76 H 0.07812 0.35535 0.04121
 H77 H -0.06619 0.40265 0.08564
 H78 H -0.06249 0.32860 0.12352
 H79 H 0.00993 0.06624 0.14893
 H80 H 0.01050 -0.01157 0.18207
 H81 H 0.01512 0.08239 0.26242
 H82 H 0.01081 0.16105 0.22836
 C83 C 0.28972 0.01422 0.59772
 C84 C 0.30911 -0.03425 0.58925
 C85 C 0.35349 -0.03675 0.56946
 C86 C 0.37947 0.00915 0.55754
 C87 C 0.36044 0.05764 0.56621
 C88 C 0.31613 0.06014 0.58613
 C89 C 0.24208 0.01664 0.61833
 N90 N 0.22547 0.06282 0.62889
 N91 N 0.18281 0.06472 0.64754
 C92 C 0.15481 0.02054 0.65632
 N93 N 0.17136 -0.02556 0.64567
 N94 N 0.21403 -0.02747 0.62709
 C95 C 0.10813 0.02213 0.67778
 C96 C 0.07779 -0.02326 0.68514
 C97 C 0.03562 -0.02271 0.70666
 C98 C 0.02353 0.02266 0.72251
 C99 C 0.05155 0.06912 0.71309
 C100 C 0.09372 0.06863 0.69143
 H101 H 0.28993 -0.07042 0.59781
 H102 H 0.36706 -0.07473 0.56322
 H103 H 0.37956 0.09373 0.55743
 H104 H 0.30232 0.09812 0.59219
 H105 H 0.08675 -0.05951 0.67444
 H106 H 0.01309 -0.05848 0.71167
 H107 H 0.04114 0.10613 0.72231
 H108 H 0.11525 0.10474 0.68556
 C109 C -0.32117 0.01280 0.60416
 C110 C -0.33854 0.05880 0.58923
 C111 C -0.37757 0.05680 0.56782
 C112 C -0.40011 0.00864 0.56069
 C113 C -0.38321 -0.03724 0.57613
 C114 C -0.34437 -0.03514 0.59756
 C115 C -0.27844 0.01448 0.62602
 N116 N -0.26285 -0.02993 0.64103
 N117 N -0.22378 -0.02881 0.66014
 C118 C -0.19849 0.01677 0.66506
 N119 N -0.21418 0.06125 0.65014
 N120 N -0.25331 0.06013 0.63103
 C121 C -0.15451 0.01774 0.68606
 C122 C -0.12647 0.06426 0.68992
 C123 C -0.08482 0.06489 0.70952
 C124 C -0.07094 0.01949 0.72681
 C125 C -0.09773 -0.02758 0.72155
 C126 C -0.13929 -0.02823 0.70190
 H127 H -0.32167 0.09644 0.59385
 H128 H -0.38947 0.09305 0.55656
 H129 H -0.39954 -0.07513 0.57148
 H130 H -0.33210 -0.07136 0.60866
 H131 H -0.13626 0.10022 0.67753
 H132 H -0.06327 0.10120 0.71129
 H133 H -0.08614 -0.06449 0.73198
 H134 H -0.15907 -0.06512 0.69885
 C135 C -0.01165 -0.29260 0.89642
 C136 C -0.05765 -0.31531 0.91044
 C137 C -0.05579 -0.35933 0.93079
 C138 C -0.00778 -0.38170 0.93777
 C139 C 0.03817 -0.35913 0.92341
 C140 C 0.03622 -0.31526 0.90302
 C141 C -0.01337 -0.24542 0.87518
 N142 N 0.03089 -0.22530 0.86041
 N143 N 0.02956 -0.18299 0.84134
 C144 C -0.01606 -0.15879 0.83624
 N145 N -0.06035 -0.17883 0.85105
 N146 N -0.05903 -0.22123 0.87012
 C147 C -0.01739 -0.11223 0.81450
 C148 C -0.06379 -0.08520 0.81033
 C149 C -0.06502 -0.04243 0.78900
 C150 C -0.02049 -0.02668 0.77023
 C151 C 0.02672 -0.05176 0.77628
 C152 C 0.02803 -0.09429 0.79766
 H153 H -0.09522 -0.29900 0.90579
 H154 H -0.09210 -0.37543 0.94126
 H155 H 0.07594 -0.37504 0.92805
 H156 H 0.07244 -0.29889 0.89262
 H157 H -0.09926 -0.09700 0.82354
 H158 H -0.10127 -0.02204 0.78672
 H159 H 0.06318 -0.03853 0.76475
 H160 H 0.06488 -0.11310 0.80094
 C161 C -0.01381 0.31757 0.89105
 C162 C 0.03439 0.33793 0.89939
 C163 C 0.03661 0.37742 0.92039
 C164 C -0.00931 0.39749 0.93371
 C165 C -0.05758 0.37774 0.92508
 C166 C -0.05981 0.33828 0.90393
 C167 C -0.01580 0.27439 0.86952
 N168 N -0.06193 0.25670 0.85954
 N169 N -0.06350 0.21745 0.84052
 C170 C -0.01904 0.19410 0.83074
 N171 N 0.02703 0.21184 0.84070
 N172 N 0.02861 0.25112 0.85965
 C173 C -0.02056 0.15027 0.80964
 C174 C 0.02487 0.12301 0.80220
 C175 C 0.02368 0.08200 0.78219
 C176 C -0.02247 0.06808 0.76793
 C177 C -0.06854 0.09376 0.77694
 C178 C -0.06741 0.13468 0.79710
 H179 H 0.07061 0.32313 0.88985
 H180 H 0.07445 0.39173 0.92652
 H181 H -0.09367 0.39237 0.93491
 H182 H -0.09761 0.32355 0.89802
 H183 H 0.06146 0.13299 0.81205
 H184 H 0.05928 0.06119 0.77760
 H185 H -0.10594 0.08194 0.76892
 H186 H -0.10347 0.15387 0.80299
 C187 C -0.29908 -0.01133 0.39168
 C188 C -0.33432 0.02976 0.38948
 C189 C -0.37630 0.03230 0.41112
 C190 C -0.38447 -0.00689 0.43484
 C191 C -0.34995 -0.04864 0.43656
 C192 C -0.30729 -0.05051 0.41540
 C193 C -0.25307 -0.01266 0.36995
 N194 N -0.20875 -0.03563 0.37903
 N195 N -0.16669 -0.03586 0.35986
 C196 C -0.16737 -0.01361 0.33072
 N197 N -0.21184 0.00898 0.32149
 N198 N -0.25380 0.00972 0.34081
 C199 C -0.12027 -0.01364 0.30980
 C200 C -0.12394 -0.01369 0.27757
 C201 C -0.07898 -0.01604 0.25819
 C202 C -0.02895 -0.01844 0.27043
 C203 C -0.02599 -0.01469 0.30284
 C204 C -0.07093 -0.01364 0.32217
 H205 H -0.32872 0.06058 0.37150
 H206 H -0.40254 0.06477 0.40922
 H207 H -0.35531 -0.07925 0.45468
 H208 H -0.28081 -0.08273 0.41752
 H209 H -0.16162 -0.01306 0.26738
 H210 H -0.08317 -0.01687 0.23341
 H211 H 0.01063 -0.01189 0.31385
 H212 H -0.06697 -0.01183 0.34692
 C213 C 0.32398 -0.01567 0.38538
 C214 C 0.33765 -0.06042 0.40306
 C215 C 0.37463 -0.05715 0.42557
 C216 C 0.39853 -0.00900 0.43107
 C217 C 0.38531 0.03565 0.41319
 C218 C 0.34859 0.03233 0.39052
 C219 C 0.28323 -0.01875 0.36239
 N220 N 0.27375 0.02288 0.34294
 N221 N 0.23575 0.02078 0.32313
 C222 C 0.20552 -0.02302 0.32197
 N223 N 0.21525 -0.06478 0.34126
 N224 N 0.25336 -0.06273 0.36100
 C225 C 0.16123 -0.02419 0.30129
 C226 C 0.12436 -0.06536 0.30417
 C227 C 0.08032 -0.06421 0.28650
 C228 C 0.07103 -0.02136 0.26576
 C229 C 0.11053 0.01775 0.26128
 C230 C 0.15442 0.01672 0.27914
 H231 H 0.31959 -0.09803 0.39965
 H232 H 0.38398 -0.09230 0.43895
 H233 H 0.40317 0.07329 0.41680
 H234 H 0.33894 0.06759 0.37736
 H235 H 0.12874 -0.09800 0.32065
 H236 H 0.05212 -0.09613 0.28983
 H237 H 0.10837 0.04954 0.24411
 H238 H 0.18298 0.04829 0.27564
   
