data_POSCAR
  _audit_creation_date              2014-09-24
  _audit_creation_method            'ToBaCCo'
  _symmetry_space_group_name_H-M    'P1'
  _symmetry_Int_Tables_number       1
  _symmetry_cell_setting            triclinic
  loop_
  _symmetry_equiv_pos_as_xyz
 x,y,z
_cell_length_a 25.0889
_cell_length_b 26.0691
_cell_length_c 11.4564
_cell_angle_alpha 89.343600
_cell_angle_beta 89.938300
_cell_angle_gamma 90.674800
loop_
  _atom_site_label
  _atom_site_type_symbol
  _atom_site_fract_x
  _atom_site_fract_y
  _atom_site_fract_z
C1 C 0.73526 0.30084 0.54254
 C2 C 0.73890 0.29846 0.41862
 C3 C 0.77196 0.26261 0.36686
 C4 C 0.79929 0.22541 0.43211
 C5 C 0.79379 0.22517 0.55635
 C6 C 0.76320 0.26385 0.60863
 H7 H 0.75990 0.26427 0.70314
 H8 H 0.77666 0.26458 0.27283
 C9 C 0.22631 0.79604 0.58059
 C10 C 0.22972 0.79829 0.45765
 C11 C 0.25205 0.75749 0.39715
 C12 C 0.27437 0.71574 0.45681
 C13 C 0.27761 0.71597 0.58068
 C14 C 0.25117 0.75529 0.64052
 H15 H 0.25190 0.75533 0.73508
 H16 H 0.25127 0.75791 0.30248
 C17 C 0.25915 0.30891 -0.57440
 C18 C 0.27084 0.30144 -0.45492
 C19 C 0.25417 0.25644 -0.39802
 C20 C 0.22174 0.21987 -0.45322
 C21 C 0.20865 0.22673 -0.57424
 C22 C 0.22851 0.27146 -0.63249
 H23 H 0.22392 0.27582 -0.72542
 H24 H 0.26311 0.25191 -0.30578
 C25 C -0.20733 0.76927 -0.55551
 C26 C -0.20982 0.77364 -0.43304
 C27 C -0.24448 0.74127 -0.36935
 C28 C -0.27879 0.70535 -0.42371
 C29 C -0.27882 0.70378 -0.54891
 C30 C -0.24098 0.73377 -0.61102
 H31 H -0.23886 0.73073 -0.70525
 H32 H -0.24154 0.74304 -0.27578
 O33 O -0.06389 0.96872 0.23839
 O34 O 0.05327 0.97298 -0.23054
 O35 O -0.10715 0.95945 -0.11238
 O36 O 0.09718 0.96333 0.12175
 O37 O -0.03464 0.93577 -0.19223
 O38 O 0.02398 0.93606 0.19857
 O39 O 0.08641 0.94368 -0.07479
 O40 O -0.09207 0.93692 0.08217
 C41 C -0.08844 0.93356 0.18880
 C42 C 0.08085 0.93999 -0.18078
 C43 C -0.08207 0.92696 -0.16989
 C44 C 0.07137 0.92865 0.17514
 O45 O 0.06353 1.03149 0.22405
 O46 O -0.07616 1.03068 -0.21491
 O47 O -0.10063 1.03916 0.14412
 O48 O 0.08965 1.04663 -0.13754
 O49 O 0.01238 1.06639 -0.20336
 O50 O -0.02510 1.06501 0.20631
 O51 O 0.08563 1.06730 0.06537
 O52 O -0.09748 1.06232 -0.05341
 Co53 Co -0.00101 1.00048 0.19490
 Co54 Co -0.01075 1.00135 -0.18816
 Co55 Co -0.09070 0.99971 0.01425
 Co56 Co 0.08096 1.00516 -0.00526
 O57 O -0.00532 1.00177 0.00374
 C58 C 0.08472 1.06869 0.17290
 C59 C -0.09857 1.06540 -0.16032
 C60 C -0.07284 1.07338 0.19086
 C61 C 0.06056 1.07589 -0.19751
 O62 O 0.44197 0.45365 0.20976
 O63 O 0.55783 0.46925 -0.27741
 O64 O 0.40682 0.45847 -0.12122
 O65 O 0.57248 0.42828 0.09774
 O66 O 0.48438 0.42594 -0.15969
 O67 O 0.53915 0.46625 0.24583
 O68 O 0.57923 0.43799 -0.10827
 O69 O 0.38425 0.48085 0.08033
 C70 C 0.39715 0.45061 0.16305
 C71 C 0.59125 0.44297 -0.21524
 C72 C 0.43472 0.42110 -0.15462
 C73 C 0.56287 0.42903 0.20382
 O74 O 0.52965 0.56452 0.21199
 O75 O 0.45951 0.50658 -0.27710
 O76 O 0.41954 0.58007 0.02893
 O77 O 0.60368 0.53993 -0.08236
 O78 O 0.53615 0.55564 -0.19011
 O79 O 0.42916 0.55151 0.20137
 O80 O 0.59895 0.52831 0.13107
 O81 O 0.43816 0.56041 -0.15510
 Co82 Co 0.48612 0.50859 0.19681
 Co83 Co 0.51140 0.49103 -0.16735
 Co84 Co 0.41839 0.51831 -0.03860
 Co85 Co 0.58087 0.48546 0.00867
 O86 O 0.49675 0.50242 0.00628
 C87 C 0.57911 0.56238 0.19578
 C88 C 0.43429 0.54605 -0.25666
 C89 C 0.41464 0.58622 0.13402
 C90 C 0.58151 0.56762 -0.15750
 C91 C 0.28592 0.35216 0.36081
 C92 C 0.27421 0.36891 0.25229
 C93 C 0.30807 0.40805 0.19110
 C94 C 0.36060 0.41133 0.21131
 H95 H 0.23896 0.35517 0.20779
 H96 H 0.28978 0.43334 0.12753
 H97 H 0.31870 0.37078 0.40522
 H98 H 0.37894 0.38382 0.26982
 C99 C -0.17089 0.80270 0.37382
 C100 C -0.18570 0.82430 0.27235
 C101 C -0.15213 0.86139 0.20595
 C102 C -0.11653 0.89305 0.25595
 H103 H -0.22437 0.81522 0.23570
 H104 H -0.16071 0.86568 0.11369
 H105 H -0.13158 0.81097 0.40751
 H106 H -0.11025 0.89183 0.34939
 C107 C 0.68591 0.67393 0.38217
 C108 C 0.63491 0.66288 0.40999
 C109 C 0.59881 0.63090 0.33757
 C110 C 0.61564 0.59772 0.25702
 H111 H 0.61722 0.67971 0.48655
 H112 H 0.55669 0.63255 0.35785
 H113 H 0.69911 0.66445 0.29509
 H114 H 0.65776 0.59357 0.23983
 C115 C 0.18216 1.18725 0.36249
 C116 C 0.16084 1.19274 0.25488
 C117 C 0.13468 1.15057 0.18953
 C118 C 0.11106 1.10968 0.24024
 H119 H 0.16209 1.22911 0.20910
 H120 H 0.13274 1.15502 0.09549
 H121 H 0.17962 1.14965 0.40266
 H122 H 0.10978 1.10607 0.33439
 C123 C 0.70380 0.33630 -0.39510
 C124 C 0.68912 0.38302 -0.43457
 C125 C 0.64920 0.41615 -0.37743
 C126 C 0.63294 0.41081 -0.26657
 H127 H 0.70527 0.39820 -0.51534
 H128 H 0.63257 0.44662 -0.43065
 H129 H 0.69192 0.32482 -0.30784
 H130 H 0.65097 0.38281 -0.20920
 C131 C 0.19602 0.83571 -0.35506
 C132 C 0.16985 0.82576 -0.25500
 C133 C 0.13814 0.86439 -0.19315
 C134 C 0.11062 0.90158 -0.24722
 H135 H 0.17249 0.78836 -0.21368
 H136 H 0.13562 0.86025 -0.09908
 H137 H 0.19318 0.87366 -0.39353
 H138 H 0.10977 0.90404 -0.34162
 C139 C 0.30581 0.67945 -0.35095
 C140 C 0.34529 0.64900 -0.38852
 C141 C 0.37240 0.61385 -0.30755
 C142 C 0.40505 0.57669 -0.34374
 H143 H 0.36126 0.65162 -0.47556
 H144 H 0.36582 0.61911 -0.21492
 H145 H 0.29706 0.67803 -0.25813
 H146 H 0.41058 0.56950 -0.43590
 C147 C -0.18351 1.18784 -0.36820
 C148 C -0.17682 1.13840 -0.39725
 C149 C -0.14644 1.10009 -0.32919
 C150 C -0.12955 1.10570 -0.21923
 H151 H -0.19313 1.12429 -0.47826
 H152 H -0.13772 1.06476 -0.37402
 H153 H -0.17433 1.19941 -0.28007
 H154 H -0.13998 1.13902 -0.16917
 C155 C 0.69249 0.66850 -0.35527
 C156 C 0.68615 0.66938 -0.23831
 C157 C 0.65654 0.62860 -0.17526
 C158 C 0.60903 0.61174 -0.21193
 H159 H 0.70333 0.69872 -0.18416
 H160 H 0.67359 0.61351 -0.09529
 H161 H 0.67560 0.63554 -0.39868
 H162 H 0.59062 0.62952 -0.28758
 C163 C 0.20289 1.17959 -0.38027
 C164 C 0.15273 1.16179 -0.38118
 C165 C 0.13430 1.12409 -0.29253
 C166 C 0.08231 1.11664 -0.27414
 H167 H 0.12396 1.17765 -0.44179
 H168 H 0.16323 1.10208 -0.24342
 H169 H 0.22749 1.16825 -0.30663
 H170 H 0.05399 1.13930 -0.32352
 C171 C 0.29652 0.34250 -0.38565
 C172 C 0.33586 0.33382 -0.30953
 C173 C 0.35997 0.37704 -0.24642
 C174 C 0.40875 0.37459 -0.20002
 H175 H 0.35160 0.29555 -0.29790
 H176 H 0.33877 0.41308 -0.24561
 H177 H 0.28372 0.38156 -0.40149
 H178 H 0.43176 0.33985 -0.20749
 C179 C -0.17577 0.81123 -0.36964
 C180 C -0.19343 0.83656 -0.27614
 C181 C -0.16247 0.87653 -0.21472
 C182 C -0.10952 0.88308 -0.22354
 H183 H -0.23419 0.83073 -0.24724
 H184 H -0.18511 0.90200 -0.16003
 H185 H -0.13655 0.81981 -0.40352
 H186 H -0.08561 0.85713 -0.27395
 C187 C 0.28976 0.67077 0.38887
 C188 C 0.32581 0.67478 0.30383
 C189 C 0.35264 0.62882 0.26226
 C190 C 0.38785 0.63191 0.17568
 H191 H 0.33936 0.71230 0.27351
 H192 H 0.34412 0.59202 0.30394
 H193 H 0.27801 0.63313 0.42186
 H194 H 0.39419 0.66787 0.12897
 C195 C -0.16631 1.19186 0.37319
 C196 C -0.17647 1.17432 0.26532
 C197 C -0.14712 1.13209 0.21154
 C198 C -0.09718 1.11940 0.23913
 H199 H -0.21249 1.18529 0.22010
 H200 H -0.16848 1.11017 0.14635
 H201 H -0.13314 1.17591 0.42071
 H202 H -0.07367 1.14268 0.29790
 C203 C 0.70758 0.32917 0.33529
 C204 C 0.65465 0.33188 0.34001
 C205 C 0.62689 0.36323 0.25323
 C206 C 0.58370 0.38935 0.28217
 H207 H 0.63263 0.31398 0.41137
 H208 H 0.64563 0.36979 0.16888
 H209 H 0.72869 0.34684 0.26221
 H210 H 0.56753 0.38601 0.36980
 C211 C 0.20947 0.84261 0.39065
 C212 C 0.17033 0.83736 0.31298
 C213 C 0.14786 0.88259 0.25438
 C214 C 0.09708 0.88234 0.22042
 H215 H 0.15245 0.79987 0.29867
 H216 H 0.17160 0.91754 0.24743
 H217 H 0.22471 0.88052 0.41121
 H218 H 0.07232 0.84861 0.23648
   
