data_POSCAR
  _audit_creation_date              2014-09-24
  _audit_creation_method            'ToBaCCo'
  _symmetry_space_group_name_H-M    'P1'
  _symmetry_Int_Tables_number       1
  _symmetry_cell_setting            triclinic
  loop_
  _symmetry_equiv_pos_as_xyz
 x,y,z
_cell_length_a 26.2241
_cell_length_b 26.1933
_cell_length_c 64.9350
_cell_angle_alpha 88.270500
_cell_angle_beta 92.587900
_cell_angle_gamma 118.940800
loop_
  _atom_site_label
  _atom_site_type_symbol
  _atom_site_fract_x
  _atom_site_fract_y
  _atom_site_fract_z
C1 C 0.00962 0.11264 0.52614
 H2 H 0.05253 0.11655 0.52551
 C3 C 0.00075 0.14950 0.53880
 H4 H 0.03745 0.18214 0.54766
 C5 C -0.08941 0.06666 0.51459
 H6 H -0.12425 0.03505 0.50489
 C7 C -0.10039 0.10231 0.52721
 H8 H -0.14415 0.09645 0.52741
 N9 N -0.03527 0.07173 0.51456
 C10 C 0.01459 -0.06274 0.50586
 H11 H 0.01566 -0.06345 0.48924
 C12 C 0.02427 -0.10263 0.51789
 H13 H 0.03282 -0.13398 0.51041
 C14 C -0.00099 -0.02302 0.53573
 H15 H -0.01205 0.00712 0.54265
 C16 C 0.00818 -0.06215 0.54829
 H17 H 0.00534 -0.06065 0.56483
 Zn18 Zn -0.01668 0.02499 0.49797
 N19 N 0.00231 -0.02395 0.51491
 C20 C 0.09735 0.07458 0.48112
 N21 N 0.04693 0.07723 0.48210
 C22 C 0.04025 0.12035 0.47233
 C23 C 0.08560 0.16373 0.46128
 C24 C 0.14359 0.11660 0.46982
 C25 C -0.13161 -0.06246 0.48863
 C26 C -0.17835 -0.10112 0.47607
 C27 C -0.11717 -0.06213 0.44670
 C28 C -0.07238 -0.02308 0.45978
 N29 N -0.08023 -0.02392 0.48032
 H30 H 0.10209 0.04043 0.48923
 H31 H -0.00021 0.12150 0.47346
 H32 H 0.07981 0.19814 0.45376
 H33 H 0.18372 0.11448 0.46919
 H34 H -0.13605 -0.06377 0.50515
 H35 H -0.21741 -0.13209 0.48367
 H36 H -0.10889 -0.05812 0.43041
 H37 H -0.03088 0.00735 0.45349
 C38 C 0.02041 -0.10305 0.53940
 C39 C -0.05501 0.14431 0.53964
 C40 C -0.17193 -0.10259 0.45458
 C41 C 0.13805 0.16222 0.46000
 C42 C 1.11048 -0.00195 0.14334
 H43 H 1.11616 0.04138 0.14533
 C44 C 1.14667 -0.01030 0.13038
 H45 H 1.18058 0.02716 0.12264
 C46 C 1.06055 -0.10270 0.15177
 H47 H 1.02751 -0.13845 0.16035
 C48 C 1.09568 -0.11313 0.13880
 H49 H 1.08826 -0.15725 0.13723
 N50 N 1.06794 -0.04787 0.15351
 C51 C 0.93891 0.00774 0.16380
 H52 H 0.93763 0.00606 0.18045
 C53 C 0.90016 0.02037 0.15215
 H54 H 0.86916 0.02846 0.15995
 C55 C 0.97845 -0.00439 0.13340
 H56 H 1.00792 -0.01545 0.12609
 C57 C 0.94050 0.00787 0.12119
 H58 H 0.94229 0.00744 0.10458
 Zn59 Zn 1.02271 -0.02925 0.17064
 N60 N 0.97691 -0.00447 0.15431
 C61 C 1.07603 0.08157 0.19095
 N62 N 1.07597 0.03013 0.18845
 C63 C 1.11695 0.01932 0.19806
 C64 C 1.16104 0.06152 0.21046
 C65 C 1.11884 0.12471 0.20362
 C66 C 0.92969 -0.14261 0.17637
 C67 C 0.88595 -0.18831 0.18735
 C68 C 0.92628 -0.13292 0.21857
 C69 C 0.96999 -0.08891 0.20706
 N70 N 0.97052 -0.09415 0.18632
 H71 H 1.04351 0.08956 0.18296
 H72 H 1.11592 -0.02189 0.19571
 H73 H 1.19391 0.05263 0.21777
 H74 H 1.11905 0.16579 0.20539
 H75 H 0.93023 -0.14510 0.15978
 H76 H 0.85429 -0.22655 0.17905
 H77 H 0.92525 -0.12600 0.23485
 H78 H 1.00180 -0.04932 0.21460
 C79 C 0.90010 0.01966 0.13054
 C80 C 1.13922 -0.06657 0.12777
 C81 C 0.88284 -0.18333 0.20872
 C82 C 1.16240 0.11500 0.21325
 C83 C 0.06092 0.97644 0.86536
 H84 H 0.01875 0.93817 0.86700
 C85 C 0.10849 0.98232 0.87758
 H86 H 0.10300 0.94849 0.88869
 C87 C 0.11984 1.06662 0.84851
 H88 H 0.12404 1.09887 0.83696
 C89 C 0.16905 1.07350 0.86008
 H90 H 0.21108 1.11131 0.85755
 N91 N 0.06708 1.01872 0.85144
 C92 C -0.11494 0.97801 0.84395
 H93 H -0.12157 0.97344 0.82740
 C94 C -0.16109 0.96919 0.85616
 H95 H -0.20246 0.95862 0.84852
 C96 C -0.05116 1.00192 0.87328
 H97 H -0.00805 1.01567 0.87992
 C98 C -0.09560 0.99471 0.88604
 H99 H -0.08559 1.00056 0.90242
 Zn100 Zn -0.00021 1.00500 0.83538
 N101 N -0.06166 0.99257 0.85269
 C102 C -0.07315 0.89095 0.81841
 N103 N -0.01955 0.93912 0.81895
 C104 C 0.02437 0.94225 0.80772
 C105 C 0.01510 0.89635 0.79502
 C106 C -0.08471 0.84442 0.80557
 C107 C 0.02921 1.12138 0.82767
 C108 C 0.03261 1.16872 0.81614
 C109 C 0.00467 1.10939 0.78560
 C110 C 0.00217 1.06329 0.79770
 N111 N 0.01365 1.06985 0.81837
 H112 H -0.10722 0.88846 0.82779
 H113 H 0.06686 0.98066 0.80870
 H114 H 0.05129 0.89973 0.78659
 H115 H -0.12827 0.80752 0.80487
 H116 H 0.03737 1.12511 0.84419
 H117 H 0.04459 1.20920 0.82389
 H118 H -0.00725 1.10235 0.76935
 H119 H -0.01148 1.02156 0.79069
 C120 C -0.15216 0.97746 0.87768
 C121 C 0.16322 1.03115 0.87490
 C122 C 0.01897 1.16270 0.79486
 C123 C -0.04031 0.84672 0.79354
 C124 C 0.37010 -0.02317 0.00055
 C125 C 0.40604 -0.00069 -0.01650
 C126 C 0.46365 0.00903 -0.01440
 C127 C 0.48407 -0.00729 0.00367
 C128 C 0.44752 -0.02871 0.02059
 C129 C 0.39097 -0.03539 0.01932
 C130 C 0.54232 -0.00455 0.00431
 C131 C 0.57683 0.00825 0.02266
 C132 C 0.63033 0.00790 0.02326
 C133 C 0.64988 -0.00396 0.00514
 C134 C 0.61666 -0.01611 -0.01339
 C135 C 0.56279 -0.01682 -0.01356
 H136 H 0.32511 -0.03266 -0.00077
 H137 H 0.49296 0.02934 -0.02691
 H138 H 0.46286 -0.04039 0.03475
 H139 H 0.56194 0.01790 0.03655
 H140 H 0.69120 -0.00395 0.00551
 H141 H 0.53660 -0.02715 -0.02773
 C142 C -0.02105 0.64544 0.66478
 C143 C -0.03544 0.61191 0.68299
 C144 C -0.03606 0.55798 0.68321
 C145 C -0.02087 0.53809 0.66580
 C146 C -0.00531 0.57329 0.64787
 C147 C -0.00620 0.62653 0.64713
 C148 C -0.02265 0.48011 0.66635
 C149 C -0.03841 0.44543 0.64859
 C150 C -0.04266 0.38978 0.64930
 C151 C -0.03305 0.36795 0.66825
 C152 C -0.01732 0.40164 0.68618
 C153 C -0.01054 0.45820 0.68489
 H154 H -0.02130 0.68666 0.66431
 H155 H -0.04834 0.53149 0.69708
 H156 H 0.00705 0.55924 0.63437
 H157 H -0.04765 0.46149 0.63415
 H158 H -0.03971 0.32381 0.66914
 H159 H 0.00436 0.48518 0.69849
 C160 C 0.63202 0.64099 0.33128
 C161 C 0.61589 0.60198 0.31491
 C162 C 0.56926 0.54533 0.31710
 C163 C 0.53545 0.52806 0.33485
 C164 C 0.55275 0.56841 0.35111
 C165 C 0.60176 0.62430 0.34972
 C166 C 0.48173 0.46906 0.33605
 C167 C 0.45690 0.44395 0.35509
 C168 C 0.40443 0.39091 0.35602
 C169 C 0.37881 0.36002 0.33778
 C170 C 0.40390 0.38257 0.31876
 C171 C 0.45360 0.43770 0.31795
 H172 H 0.66730 0.68508 0.32940
 H173 H 0.56010 0.51515 0.30472
 H174 H 0.52846 0.55680 0.36501
 H175 H 0.47785 0.46493 0.36944
 H176 H 0.33912 0.31851 0.33833
 H177 H 0.46903 0.45588 0.30291
 C178 C -0.04527 0.23573 0.58524
 C179 C -0.08381 0.25506 0.57895
 C180 C -0.11452 0.23976 0.56011
 C181 C -0.10499 0.20319 0.54724
 C182 C -0.06548 0.18246 0.55342
 C183 C -0.03555 0.19905 0.57283
 O184 O -0.01969 0.25594 0.60350
 C185 C -0.04256 0.28877 0.60889
 C186 C -0.08216 0.28967 0.59447
 C187 C -0.11103 0.32162 0.59709
 C188 C -0.09837 0.35404 0.61526
 C189 C -0.05713 0.35430 0.63031
 C190 C -0.02908 0.32085 0.62695
 H191 H -0.14430 0.25587 0.55538
 H192 H -0.12762 0.19199 0.53234
 H193 H -0.00572 0.18364 0.57827
 H194 H -0.14223 0.32152 0.58558
 H195 H -0.12109 0.37845 0.61765
 H196 H 0.00322 0.32058 0.63787
 C197 C 0.79030 0.72351 0.25252
 C198 C 0.73645 0.69498 0.24266
 C199 C 0.72770 0.70249 0.22178
 C200 C 0.77629 0.74153 0.21064
 C201 C 0.83266 0.77184 0.22040
 C202 C 0.83942 0.76157 0.24168
 O203 O 0.78866 0.71323 0.27269
 C204 C 0.73250 0.67751 0.27562
 C205 C 0.69873 0.66468 0.25771
 C206 C 0.63847 0.62992 0.25735
 C207 C 0.61186 0.60798 0.27625
 C208 C 0.64556 0.62149 0.29502
 C209 C 0.70694 0.65638 0.29459
 H210 H 0.68465 0.68047 0.21444
 H211 H 0.76923 0.74957 0.19461
 H212 H 0.88137 0.78335 0.24977
 H213 H 0.61274 0.62096 0.24309
 H214 H 0.56481 0.58214 0.27633
 H215 H 0.73384 0.66763 0.30863
 C216 C 0.26117 0.03763 -0.08001
 C217 C 0.30293 0.03092 -0.08984
 C218 C 0.30348 0.02799 -0.11119
 C219 C 0.25861 0.03116 -0.12284
 C220 C 0.21407 0.03595 -0.11295
 C221 C 0.21572 0.03984 -0.09126
 O222 O 0.26743 0.03772 -0.05962
 C223 C 0.31375 0.03025 -0.05647
 C224 C 0.33681 0.02537 -0.07443
 C225 C 0.38255 0.01286 -0.07462
 C226 C 0.40523 0.00477 -0.05556
 C227 C 0.38298 0.01050 -0.03664
 C228 C 0.33681 0.02430 -0.03735
 H229 H 0.33657 0.02234 -0.11858
 H230 H 0.25711 0.02753 -0.13946
 H231 H 0.18167 0.04275 -0.08340
 H232 H 0.39894 0.00759 -0.08895
 H233 H 0.43889 -0.00779 -0.05573
 H234 H 0.31849 0.02960 -0.02351
 C235 C -0.00286 0.78593 0.58148
 C236 C 0.04079 0.77281 0.57790
 C237 C 0.07872 0.79796 0.56177
 C238 C 0.07143 0.83839 0.54893
 C239 C 0.02706 0.85305 0.55253
 C240 C -0.01076 0.82585 0.56901
 O241 O -0.03371 0.75823 0.59772
 C242 C -0.00893 0.72706 0.60465
 C243 C 0.03686 0.73426 0.59313
 C244 C 0.06959 0.70644 0.59811
 C245 C 0.05475 0.67025 0.61575
 C246 C 0.00789 0.66261 0.62797
 C247 C -0.02463 0.69116 0.62206
 H248 H 0.11297 0.78727 0.55926
 H249 H 0.10102 0.85912 0.53649
 H250 H -0.04550 0.83542 0.57206
 H251 H 0.10577 0.71302 0.58893
 H252 H 0.08062 0.64941 0.62015
 H253 H -0.06105 0.68591 0.63082
 C254 C 0.24578 0.22631 0.25455
 C255 C 0.30213 0.24230 0.24969
 C256 C 0.31558 0.21943 0.23302
 C257 C 0.26900 0.17799 0.22095
 C258 C 0.21051 0.16083 0.22561
 C259 C 0.19877 0.18587 0.24252
 O260 O 0.24256 0.25127 0.27159
 C261 C 0.29807 0.28370 0.27759
 C262 C 0.33620 0.27996 0.26464
 C263 C 0.39625 0.30932 0.26821
 C264 C 0.41795 0.34381 0.28590
 C265 C 0.37961 0.34799 0.29968
 C266 C 0.31869 0.31751 0.29536
 H267 H 0.36026 0.23227 0.22965
 H268 H 0.27830 0.15900 0.20802
 H269 H 0.15447 0.17274 0.24656
 H270 H 0.42532 0.30530 0.25786
 H271 H 0.46456 0.36617 0.28913
 H272 H 0.28835 0.31987 0.30555
 C273 C 0.76764 -0.01062 -0.07826
 C274 C 0.71129 -0.05013 -0.08393
 C275 C 0.69692 -0.08100 -0.10221
 C276 C 0.74251 -0.07098 -0.11512
 C277 C 0.80179 -0.03108 -0.10952
 C278 C 0.81367 -0.00048 -0.09064
 O279 O 0.77215 0.01495 -0.06044
 C280 C 0.71741 -0.00934 -0.05464
 C281 C 0.67841 -0.04967 -0.06840
 C282 C 0.61893 -0.08091 -0.06510
 C283 C 0.59892 -0.07005 -0.04689
 C284 C 0.63827 -0.02797 -0.03252
 C285 C 0.69849 0.00276 -0.03664
 H286 H 0.65217 -0.11203 -0.10636
 H287 H 0.73120 -0.09662 -0.12899
 H288 H 0.85718 0.03208 -0.08582
 H289 H 0.58905 -0.11291 -0.07604
 H290 H 0.55291 -0.09505 -0.04392
 H291 H 0.72985 0.03572 -0.02629
 C292 C 0.23118 -0.05146 0.08239
 C293 C 0.25018 -0.09085 0.08765
 C294 C 0.23383 -0.12446 0.10561
 C295 C 0.19674 -0.11682 0.11868
 C296 C 0.17678 -0.07613 0.11361
 C297 C 0.19415 -0.04349 0.09502
 O298 O 0.25251 -0.02284 0.06495
 C299 C 0.28580 -0.04454 0.05904
 C300 C 0.28596 -0.08637 0.07231
 C301 C 0.31880 -0.11399 0.06906
 C302 C 0.35289 -0.09762 0.05147
 C303 C 0.35369 -0.05419 0.03761
 C304 C 0.31932 -0.02757 0.04158
 H305 H 0.24964 -0.15491 0.10955
 H306 H 0.18473 -0.14163 0.13295
 H307 H 0.17935 -0.01262 0.09044
 H308 H 0.31832 -0.14682 0.07970
 H309 H 0.37827 -0.11904 0.04860
 H310 H 0.31959 0.00644 0.03161
 C311 C 0.75004 0.79932 0.41094
 C312 C 0.69337 0.77655 0.41667
 C313 C 0.67863 0.79198 0.43483
 C314 C 0.72409 0.83242 0.44762
 C315 C 0.78382 0.85808 0.44205
 C316 C 0.79582 0.84057 0.42306
 O317 O 0.75527 0.77690 0.39363
 C318 C 0.70055 0.73950 0.38820
 C319 C 0.66083 0.73789 0.40165
 C320 C 0.60111 0.70167 0.39877
 C321 C 0.58169 0.66545 0.38140
 C322 C 0.62201 0.66507 0.36752
 C323 C 0.68243 0.70317 0.37113
 H324 H 0.63361 0.77333 0.43908
 H325 H 0.71149 0.84530 0.46133
 H326 H 0.83963 0.85515 0.41816
 H327 H 0.57052 0.70145 0.40947
 H328 H 0.53523 0.63806 0.37881
 H329 H 0.71487 0.70370 0.36127
 C330 C 0.02303 0.26196 0.75054
 C331 C -0.00058 0.29232 0.75949
 C332 C -0.01654 0.28414 0.77994
 C333 C -0.00842 0.24249 0.79160
 C334 C 0.01531 0.20994 0.78272
 C335 C 0.03180 0.22057 0.76187
 O336 O 0.03289 0.27451 0.73067
 C337 C 0.01482 0.31342 0.72698
 C338 C -0.00600 0.32585 0.74411
 C339 C -0.02948 0.36340 0.74351
 C340 C -0.03198 0.38892 0.72445
 C341 C -0.01099 0.37678 0.70643
 C342 C 0.01324 0.33869 0.70789
 H343 H -0.03580 0.30799 0.78656
 H344 H -0.02259 0.23425 0.80733
 H345 H 0.05000 0.19670 0.75456
 H346 H -0.04645 0.37179 0.75714
 H347 H -0.05192 0.41675 0.72366
 H348 H 0.02975 0.32839 0.69455
 C349 C 0.78946 0.00253 0.08826
 C350 C 0.77634 0.04549 0.09317
 C351 C 0.80162 0.08117 0.11025
 C352 C 0.84208 0.07224 0.12265
 C353 C 0.85664 0.02848 0.11772
 C354 C 0.82939 -0.00698 0.10029
 O355 O 0.76167 -0.02612 0.07130
 C356 C 0.73042 -0.00063 0.06527
 C357 C 0.73763 0.04345 0.07806
 C358 C 0.70966 0.07656 0.07417
 C359 C 0.67342 0.06404 0.05628
 C360 C 0.66594 0.01911 0.04274
 C361 C 0.69451 -0.01400 0.04759
 H362 H 0.79094 0.11493 0.11380
 H363 H 0.86281 0.10003 0.13585
 H364 H 0.83881 -0.04125 0.09620
 H365 H 0.71620 0.11134 0.08435
 H366 H 0.65247 0.09028 0.05272
 H367 H 0.68935 -0.04904 0.03780
 C368 C 0.25471 0.24100 0.42119
 C369 C 0.27186 0.29807 0.42588
 C370 C 0.24856 0.31346 0.44186
 C371 C 0.20535 0.26817 0.45333
 C372 C 0.18674 0.20898 0.44875
 C373 C 0.21247 0.19526 0.43264
 O374 O 0.27936 0.23581 0.40453
 C375 C 0.31269 0.29075 0.39858
 C376 C 0.30987 0.33050 0.41118
 C377 C 0.33895 0.39019 0.40722
 C378 C 0.37169 0.40969 0.38939
 C379 C 0.37459 0.36958 0.37586
 C380 C 0.34513 0.30919 0.38079
 H381 H 0.26210 0.35865 0.44505
 H382 H 0.18580 0.27903 0.46562
 H383 H 0.19809 0.15042 0.42856
 H384 H 0.33534 0.42054 0.41721
 H385 H 0.39286 0.45586 0.38572
 H386 H 0.34623 0.27735 0.37083
 C387 C -0.03238 0.76400 0.74799
 C388 C -0.07238 0.70770 0.75307
 C389 C -0.10316 0.69361 0.77113
 C390 C -0.09222 0.73941 0.78445
 C391 C -0.05157 0.79820 0.77943
 C392 C -0.02158 0.81016 0.76076
 O393 O -0.00678 0.76822 0.73039
 C394 C -0.03126 0.71338 0.72418
 C395 C -0.07194 0.67458 0.73740
 C396 C -0.10303 0.61498 0.73365
 C397 C -0.09149 0.59465 0.71558
 C398 C -0.04884 0.63378 0.70182
 C399 C -0.01847 0.69413 0.70636
 H400 H -0.13400 0.64889 0.77496
 H401 H -0.11484 0.72873 0.79879
 H402 H 0.00898 0.85417 0.75609
 H403 H -0.13525 0.58523 0.74417
 H404 H -0.11624 0.54853 0.71228
 H405 H 0.01507 0.72538 0.69656
   
