data_POSCAR
  _audit_creation_date              2014-09-24
  _audit_creation_method            'ToBaCCo'
  _symmetry_space_group_name_H-M    'P1'
  _symmetry_Int_Tables_number       1
  _symmetry_cell_setting            triclinic
  loop_
  _symmetry_equiv_pos_as_xyz
 x,y,z
_cell_length_a 44.4300
_cell_length_b 33.5043
_cell_length_c 33.4807
_cell_angle_alpha 90.224400
_cell_angle_beta 90.022800
_cell_angle_gamma 90.028800
loop_
  _atom_site_label
  _atom_site_type_symbol
  _atom_site_fract_x
  _atom_site_fract_y
  _atom_site_fract_z
C1 C 0.22521 0.22873 0.23549
 C2 C 0.22140 0.27054 0.24162
 C3 C 0.24197 0.29149 0.26555
 C4 C 0.26651 0.27255 0.28348
 C5 C 0.27010 0.23062 0.27929
 C6 C 0.24974 0.20979 0.25451
 H7 H 0.25145 0.17759 0.25286
 H8 H 0.23992 0.32367 0.26819
 C9 C 0.76893 0.27481 0.21770
 C10 C 0.76745 0.23238 0.21864
 C11 C 0.74517 0.21348 0.24133
 C12 C 0.72502 0.23540 0.26489
 C13 C 0.72683 0.27757 0.26536
 C14 C 0.74876 0.29661 0.24194
 H15 H 0.74892 0.32894 0.24117
 H16 H 0.74456 0.18113 0.24239
 C17 C 0.72943 0.73269 0.72785
 C18 C 0.72820 0.77480 0.72849
 C19 C 0.75003 0.79640 0.74972
 C20 C 0.77350 0.77702 0.77022
 C21 C 0.77371 0.73455 0.77111
 C22 C 0.75187 0.71307 0.74966
 H23 H 0.75225 0.68071 0.75013
 H24 H 0.74929 0.82873 0.74871
 C25 C 0.27707 0.77640 0.73527
 C26 C 0.27625 0.73440 0.73187
 C27 C 0.25333 0.71317 0.75126
 C28 C 0.23181 0.73235 0.77574
 C29 C 0.23363 0.77468 0.78025
 C30 C 0.25614 0.79579 0.75976
 H31 H 0.25669 0.82811 0.76164
 H32 H 0.25355 0.68088 0.74915
 O33 O 1.02750 -0.04843 -0.00292
 O34 O 0.97051 0.01169 0.04928
 O35 O 0.96903 -0.04499 -0.00311
 O36 O 1.02901 0.01049 0.04929
 O37 O 1.02851 0.05575 0.00163
 O38 O 0.97181 -0.00257 -0.05326
 O39 O 0.96999 0.05427 -0.00083
 O40 O 1.03023 -0.00313 -0.05043
 Cu41 Cu 0.99917 -0.02226 0.02804
 Cu42 Cu 1.00048 0.03053 -0.03060
 C43 C 1.03848 -0.03628 -0.03570
 C44 C 0.95996 0.04273 0.03276
 C45 C 0.96022 -0.03323 -0.03722
 C46 C 1.03836 0.04330 0.03494
 O47 O 0.47037 0.48685 0.46252
 O48 O 0.53017 0.53907 0.51832
 O49 O 0.52905 0.48539 0.46153
 O50 O 0.47179 0.54084 0.51846
 O51 O 0.47125 0.49340 0.56401
 O52 O 0.52782 0.43724 0.50626
 O53 O 0.53004 0.49114 0.56327
 O54 O 0.46938 0.43990 0.50855
 Cu55 Cu 0.50051 0.51776 0.48563
 Cu56 Cu 0.49978 0.46067 0.54012
 C57 C 0.45935 0.45471 0.47632
 C58 C 0.54022 0.52415 0.55049
 C59 C 0.53796 0.45160 0.47387
 C60 C 0.46157 0.52651 0.55081
 O61 O 0.03311 0.50761 -0.04900
 O62 O -0.02847 0.45413 0.00297
 O63 O -0.02548 0.50662 -0.05377
 O64 O 0.03006 0.45014 0.00328
 O65 O 0.02993 0.49605 0.05065
 O66 O -0.02614 0.55368 -0.00755
 O67 O -0.02858 0.50107 0.04933
 O68 O 0.03248 0.55343 -0.00155
 Cu69 Cu 0.00240 0.47503 -0.02880
 Cu70 Cu 0.00191 0.53070 0.02734
 C71 C 0.04334 0.53980 -0.03383
 C72 C -0.03909 0.46880 0.03515
 C73 C -0.03553 0.53955 -0.04066
 C74 C 0.03948 0.46299 0.03668
 O75 O 0.53070 0.99259 0.43310
 O76 O 0.47368 0.93640 0.48949
 O77 O 0.47219 0.99056 0.43370
 O78 O 0.53233 0.93837 0.48830
 O79 O 0.53134 0.98505 0.53494
 O80 O 0.47181 1.03776 0.47980
 O81 O 0.47281 0.98388 0.53530
 O82 O 0.53032 1.03964 0.47936
 Cu83 Cu 0.50225 0.95972 0.45654
 Cu84 Cu 0.50157 1.01630 0.51199
 C85 C 0.54024 1.02578 0.44653
 C86 C 0.46340 0.95057 0.52200
 C87 C 0.46177 1.02319 0.44733
 C88 C 0.54206 0.95271 0.52102
 C89 C 1.21580 0.17237 0.18972
 C90 C 1.19618 0.14820 0.16778
 C91 C 1.16527 0.15613 0.16724
 C92 C 1.15414 0.18822 0.18995
 C93 C 1.17368 0.21209 0.21246
 C94 C 1.20502 0.20506 0.21235
 C95 C 1.14515 0.12946 0.14412
 C96 C 1.11993 0.14236 0.12645
 C97 C 1.10014 0.11589 0.10259
 C98 C 1.08400 0.13207 0.07052
 C99 C 1.06453 0.10821 0.04794
 C100 C 1.06030 0.06779 0.05755
 C101 C 1.07630 0.05160 0.08988
 C102 C 1.09614 0.07536 0.11209
 H103 H 1.23964 0.16592 0.18793
 H104 H 1.20527 0.12349 0.15066
 H105 H 1.13021 0.19411 0.19145
 H106 H 1.16386 0.23482 0.23140
 H107 H 1.15235 0.09889 0.13959
 H108 H 1.11441 0.17384 0.12751
 H109 H 1.08653 0.16328 0.06284
 H110 H 1.05231 0.12166 0.02346
 H111 H 1.07337 0.02063 0.09814
 H112 H 1.10769 0.06222 0.13728
 C113 C 0.70594 0.71416 0.66247
 C114 C 0.68536 0.69207 0.63989
 C115 C 0.66653 0.66379 0.65812
 C116 C 0.66868 0.65833 0.69978
 C117 C 0.68941 0.68036 0.72231
 C118 C 0.70799 0.70864 0.70387
 C119 C 0.64450 0.64200 0.63269
 C120 C 0.62973 0.60894 0.64405
 C121 C 0.60735 0.58773 0.61864
 C122 C 0.59910 0.54862 0.62890
 C123 C 0.57754 0.52780 0.60663
 C124 C 0.56368 0.54568 0.57350
 C125 C 0.57186 0.58480 0.56316
 C126 C 0.59326 0.60573 0.58557
 H127 H 0.72028 0.73564 0.64764
 H128 H 0.68415 0.69712 0.60799
 H129 H 0.65412 0.63783 0.71543
 H130 H 0.69055 0.67595 0.75431
 H131 H 0.64126 0.65334 0.60282
 H132 H 0.63472 0.59569 0.67267
 H133 H 0.60935 0.53409 0.65435
 H134 H 0.57168 0.49773 0.61546
 H135 H 0.56131 0.59961 0.53809
 H136 H 0.59801 0.63620 0.57722
 C137 C -0.20348 0.28170 0.15419
 C138 C -0.18206 0.30101 0.13067
 C139 C -0.16743 0.33536 0.14463
 C140 C -0.17478 0.35017 0.18279
 C141 C -0.19619 0.33079 0.20642
 C142 C -0.21040 0.29557 0.19295
 C143 C -0.14381 0.35368 0.11931
 C144 C -0.13567 0.39214 0.12222
 C145 C -0.11107 0.41060 0.09864
 C146 C -0.09883 0.44665 0.11253
 C147 C -0.07551 0.46533 0.09192
 C148 C -0.06390 0.44855 0.05660
 C149 C -0.07635 0.41272 0.04222
 C150 C -0.09976 0.39393 0.06294
 H151 H -0.21515 0.25635 0.14140
 H152 H -0.17706 0.28918 0.10125
 H153 H -0.16338 0.37588 0.19525
 H154 H -0.20033 0.34235 0.23616
 H155 H -0.13298 0.33442 0.09770
 H156 H -0.14697 0.41120 0.14362
 H157 H -0.10717 0.46032 0.13974
 H158 H -0.06655 0.49301 0.10379
 H159 H -0.06809 0.39925 0.01490
 H160 H -0.10907 0.36682 0.05043
 C161 C 0.31773 0.82801 0.73166
 C162 C 0.33864 0.85027 0.70992
 C163 C 0.34081 0.84600 0.66825
 C164 C 0.32092 0.81966 0.64861
 C165 C 0.30012 0.79730 0.67041
 C166 C 0.29862 0.80094 0.71212
 C167 C 0.36352 0.87019 0.64659
 C168 C 0.37341 0.86150 0.60966
 C169 C 0.39646 0.88524 0.58809
 C170 C 0.41072 0.86797 0.55483
 C171 C 0.43240 0.88912 0.53332
 C172 C 0.44033 0.92816 0.54459
 C173 C 0.42589 0.94569 0.57760
 C174 C 0.40406 0.92464 0.59897
 H175 H 0.31681 0.83138 0.76383
 H176 H 0.35340 0.87063 0.72579
 H177 H 0.32090 0.81650 0.61648
 H178 H 0.28510 0.77715 0.65473
 H179 H 0.37334 0.89493 0.66282
 H180 H 0.36542 0.83478 0.59486
 H181 H 0.40517 0.83784 0.54552
 H182 H 0.44306 0.87479 0.50796
 H183 H 0.43123 0.97592 0.58674
 H184 H 0.39301 0.93978 0.62345
 C185 C -0.20392 0.72007 -0.16182
 C186 C -0.18294 0.70054 -0.13773
 C187 C -0.16312 0.67223 -0.15410
 C188 C -0.16486 0.66385 -0.19538
 C189 C -0.18601 0.68322 -0.21939
 C190 C -0.20536 0.71190 -0.20292
 C191 C -0.14051 0.65342 -0.12736
 C192 C -0.12533 0.62005 -0.13671
 C193 C -0.10256 0.60074 -0.11060
 C194 C -0.09267 0.56237 -0.12116
 C195 C -0.07098 0.54277 -0.09844
 C196 C -0.05851 0.56101 -0.06438
 C197 C -0.06822 0.59947 -0.05364
 C198 C -0.08991 0.61929 -0.07660
 H199 H -0.21879 0.74200 -0.14852
 H200 H -0.18210 0.70776 -0.10618
 H201 H -0.14955 0.64329 -0.20974
 H202 H -0.18662 0.67684 -0.25112
 H203 H -0.13722 0.66722 -0.09846
 H204 H -0.13034 0.60484 -0.16444
 H205 H -0.10180 0.54737 -0.14722
 H206 H -0.06406 0.51313 -0.10760
 H207 H -0.05887 0.61440 -0.02771
 H208 H -0.09619 0.64917 -0.06772
 C209 C 0.30043 1.21929 0.33989
 C210 C 0.32270 1.19835 0.36039
 C211 C 0.33732 1.16584 0.34255
 C212 C 0.32938 1.15483 0.30337
 C213 C 0.30717 1.17594 0.28268
 C214 C 0.29258 1.20901 0.30034
 C215 C 0.36118 1.14517 0.36548
 C216 C 0.36919 1.10703 0.35920
 C217 C 0.39281 1.08623 0.38264
 C218 C 0.40590 1.05157 0.36660
 C219 C 0.42822 1.03098 0.38757
 C220 C 0.43786 1.04455 0.42522
 C221 C 0.42445 1.07886 0.44161
 C222 C 0.40208 1.09935 0.42074
 H223 H 0.28868 1.24272 0.35578
 H224 H 0.32819 1.20724 0.39069
 H225 H 0.34075 1.13069 0.28808
 H226 H 0.30241 1.16726 0.25213
 H227 H 0.37196 1.16229 0.38888
 H228 H 0.35829 1.09007 0.33573
 H229 H 0.39901 1.04054 0.33754
 H230 H 0.43802 1.00456 0.37415
 H231 H 0.43111 1.08981 0.47079
 H232 H 0.39191 1.12495 0.43507
 C233 C 1.22118 -0.17227 -0.16964
 C234 C 1.20061 -0.14788 -0.14966
 C235 C 1.16963 -0.15223 -0.15629
 C236 C 1.15955 -0.18095 -0.18401
 C237 C 1.18022 -0.20484 -0.20466
 C238 C 1.21123 -0.20104 -0.19729
 C239 C 1.14860 -0.12534 -0.13509
 C240 C 1.12131 -0.13706 -0.12287
 C241 C 1.10089 -0.11044 -0.10026
 C242 C 1.08214 -0.12682 -0.07091
 C243 C 1.06241 -0.10251 -0.04928
 C244 C 1.06050 -0.06144 -0.05730
 C245 C 1.07900 -0.04509 -0.08708
 C246 C 1.09916 -0.06930 -0.10821
 H247 H 1.24499 -0.16860 -0.16364
 H248 H 1.20888 -0.12575 -0.12868
 H249 H 1.13580 -0.18422 -0.19052
 H250 H 1.17204 -0.22608 -0.22660
 H251 H 1.15667 -0.09587 -0.12702
 H252 H 1.11448 -0.16783 -0.12718
 H253 H 1.08295 -0.15847 -0.06450
 H254 H 1.04819 -0.11603 -0.02680
 H255 H 1.07788 -0.01359 -0.09405
 H256 H 1.11286 -0.05598 -0.13133
 C257 C 0.71701 0.33273 0.31443
 C258 C 0.69740 0.35596 0.33742
 C259 C 0.66628 0.34905 0.33618
 C260 C 0.65495 0.31947 0.31031
 C261 C 0.67452 0.29674 0.28679
 C262 C 0.70579 0.30258 0.28923
 C263 C 0.64613 0.37388 0.36114
 C264 C 0.62074 0.35960 0.37729
 C265 C 0.60059 0.38409 0.40263
 C266 C 0.58389 0.36548 0.43283
 C267 C 0.56403 0.38756 0.45659
 C268 C 0.56000 0.42860 0.44998
 C269 C 0.57656 0.44720 0.41951
 C270 C 0.59675 0.42523 0.39616
 H271 H 0.74101 0.33798 0.31665
 H272 H 0.70659 0.37890 0.35679
 H273 H 0.63097 0.31438 0.30769
 H274 H 0.66523 0.27458 0.26664
 H275 H 0.65338 0.40396 0.36825
 H276 H 0.61521 0.32830 0.37358
 H277 H 0.58629 0.33376 0.43813
 H278 H 0.55141 0.37233 0.47962
 H279 H 0.57384 0.47875 0.41360
 H280 H 0.60872 0.44029 0.37244
 C281 C 0.82703 -0.21059 -0.21615
 C282 C 0.84972 -0.18806 -0.19809
 C283 C 0.84253 -0.15462 -0.17482
 C284 C 0.81229 -0.14292 -0.17129
 C285 C 0.78958 -0.16490 -0.19013
 C286 C 0.79652 -0.19979 -0.21192
 C287 C 0.86702 -0.13197 -0.15539
 C288 C 0.86422 -0.11640 -0.11870
 C289 C 0.88923 -0.09541 -0.09849
 C290 C 0.89262 -0.09920 -0.05703
 C291 C 0.91608 -0.07963 -0.03716
 C292 C 0.93609 -0.05507 -0.05833
 C293 C 0.93238 -0.05078 -0.09977
 C294 C 0.90929 -0.07095 -0.11972
 H295 H 0.83351 -0.23586 -0.23445
 H296 H 0.87296 -0.19708 -0.20188
 H297 H 0.80623 -0.11658 -0.15425
 H298 H 0.76645 -0.15548 -0.18618
 H299 H 0.88857 -0.13075 -0.17047
 H300 H 0.84373 -0.12146 -0.10191
 H301 H 0.87726 -0.11768 -0.04008
 H302 H 0.91824 -0.08315 -0.00515
 H303 H 0.94741 -0.03192 -0.11679
 H304 H 0.90679 -0.06676 -0.15160
 C305 C 0.31964 0.29713 0.28685
 C306 C 0.34210 0.32049 0.30446
 C307 C 0.33546 0.34502 0.33733
 C308 C 0.30562 0.34709 0.35128
 C309 C 0.28307 0.32411 0.33330
 C310 C 0.29006 0.29834 0.30151
 C311 C 0.36003 0.36816 0.35620
 C312 C 0.36088 0.37556 0.39554
 C313 C 0.38639 0.39612 0.41521
 C314 C 0.39349 0.38623 0.45476
 C315 C 0.41743 0.40491 0.47437
 C316 C 0.43442 0.43449 0.45506
 C317 C 0.42701 0.44491 0.41565
 C318 C 0.40328 0.42582 0.39582
 H319 H 0.32535 0.27786 0.26192
 H320 H 0.36484 0.31876 0.29294
 H321 H 0.29964 0.36663 0.37585
 H322 H 0.26028 0.32574 0.34469
 H323 H 0.37902 0.37638 0.33770
 H324 H 0.34338 0.36356 0.41456
 H325 H 0.38065 0.36367 0.47040
 H326 H 0.42241 0.39648 0.50486
 H327 H 0.43959 0.46777 0.40009
 H328 H 0.39787 0.43485 0.36566
 C329 C 0.19674 0.67569 -0.22458
 C330 C 0.17515 0.65200 -0.20580
 C331 C 0.16649 0.65968 -0.16629
 C332 C 0.17980 0.69205 -0.14594
 C333 C 0.20142 0.71582 -0.16473
 C334 C 0.20999 0.70846 -0.20461
 C335 C 0.14291 0.63407 -0.14815
 C336 C 0.13882 0.63036 -0.10865
 C337 C 0.11448 0.60606 -0.09064
 C338 C 0.10448 0.61625 -0.05224
 C339 C 0.08144 0.59469 -0.03399
 C340 C 0.06805 0.56196 -0.05352
 C341 C 0.07845 0.55109 -0.09167
 C342 C 0.10145 0.57291 -0.11011
 H343 H 0.20219 0.66910 -0.25544
 H344 H 0.16511 0.62752 -0.22234
 H345 H 0.17344 0.69965 -0.11571
 H346 H 0.21196 0.73933 -0.14743
 H347 H 0.12848 0.61771 -0.16848
 H348 H 0.15316 0.64665 -0.08821
 H349 H 0.11428 0.64137 -0.03645
 H350 H 0.07415 0.60373 -0.00446
 H351 H 0.06875 0.52583 -0.10733
 H352 H 0.10919 0.56331 -0.13922
 C353 C 0.70331 1.21804 0.33173
 C354 C 0.68287 1.19683 0.35526
 C355 C 0.66242 1.17000 0.33770
 C356 C 0.66247 1.16545 0.29583
 C357 C 0.68298 1.18655 0.27239
 C358 C 0.70344 1.21311 0.29010
 C359 C 0.64099 1.14834 0.36387
 C360 C 0.62695 1.11451 0.35295
 C361 C 0.60529 1.09248 0.37849
 C362 C 0.59735 1.05343 0.36734
 C363 C 0.57643 1.03170 0.38954
 C364 C 0.56289 1.04855 0.42354
 C365 C 0.57078 1.08761 0.43486
 C366 C 0.59159 1.10947 0.41250
 H367 H 0.71907 1.23825 0.34598
 H368 H 0.68319 1.20119 0.38733
 H369 H 0.64645 1.14629 0.28082
 H370 H 0.68260 1.18266 0.24025
 H371 H 0.63786 1.16013 0.39368
 H372 H 0.63219 1.10113 0.32433
 H373 H 0.60733 1.03963 0.34119
 H374 H 0.57083 1.00169 0.37998
 H375 H 0.56050 1.10158 0.46069
 H376 H 0.59624 1.13979 0.42169
 C377 C 0.17876 0.31919 0.24127
 C378 C 0.15817 0.34330 0.22108
 C379 C 0.15728 0.34376 0.17916
 C380 C 0.17789 0.31980 0.15779
 C381 C 0.19839 0.29554 0.17805
 C382 C 0.19885 0.29488 0.21992
 C383 C 0.13525 0.37044 0.15921
 C384 C 0.12655 0.36599 0.12107
 C385 C 0.10409 0.39187 0.10093
 C386 C 0.09117 0.37800 0.06526
 C387 C 0.07023 0.40110 0.04465
 C388 C 0.06169 0.43887 0.05911
 C389 C 0.07469 0.45306 0.09469
 C390 C 0.09580 0.42992 0.11534
 H391 H 0.17900 0.31938 0.27362
 H392 H 0.14283 0.36166 0.23832
 H393 H 0.17886 0.32023 0.12555
 H394 H 0.21422 0.27768 0.16109
 H395 H 0.12494 0.39332 0.17749
 H396 H 0.13507 0.34105 0.10389
 H397 H 0.09722 0.34901 0.05328
 H398 H 0.06071 0.38922 0.01729
 H399 H 0.06876 0.48219 0.10639
 H400 H 0.10580 0.44238 0.14205
 C401 C 0.67403 0.79207 0.71779
 C402 C 0.65154 0.81298 0.69751
 C403 C 0.65896 0.83854 0.66590
 C404 C 0.68941 0.84371 0.65560
 C405 C 0.71191 0.82323 0.67626
 C406 C 0.70434 0.79700 0.70721
 C407 C 0.63466 0.86037 0.64513
 C408 C 0.63603 0.86951 0.60625
 C409 C 0.61158 0.89082 0.58525
 C410 C 0.60640 0.88255 0.54473
 C411 C 0.58362 0.90237 0.52394
 C412 C 0.56602 0.93156 0.54310
 C413 C 0.57159 0.94038 0.58350
 C414 C 0.59406 0.92009 0.60445
 H415 H 0.66784 0.77217 0.74186
 H416 H 0.62827 0.80884 0.70621
 H417 H 0.69592 0.86405 0.63209
 H418 H 0.73523 0.82751 0.66789
 H419 H 0.61440 0.86702 0.66187
 H420 H 0.65489 0.85910 0.58855
 H421 H 0.61982 0.86038 0.52924
 H422 H 0.58000 0.89515 0.49275
 H423 H 0.55845 0.96282 0.59900
 H424 H 0.59804 0.92789 0.63541
 C425 C 0.82129 0.21151 0.21386
 C426 C 0.84413 0.18864 0.19660
 C427 C 0.83750 0.16129 0.16603
 C428 C 0.80738 0.15593 0.15411
 C429 C 0.78444 0.17836 0.17189
 C430 C 0.79136 0.20690 0.20125
 C431 C 0.86233 0.13832 0.14776
 C432 C 0.86260 0.12818 0.10901
 C433 C 0.88802 0.10661 0.09034
 C434 C 0.89479 0.11359 0.05005
 C435 C 0.91854 0.09342 0.03147
 C436 C 0.93558 0.06524 0.05269
 C437 C 0.92854 0.05791 0.09292
 C438 C 0.90506 0.07844 0.11161
 H439 H 0.82694 0.23305 0.23689
 H440 H 0.86711 0.19288 0.20656
 H441 H 0.80152 0.13422 0.13137
 H442 H 0.76141 0.17418 0.16214
 H443 H 0.88186 0.13221 0.16612
 H444 H 0.84450 0.13810 0.08975
 H445 H 0.88180 0.13494 0.03300
 H446 H 0.92326 0.09945 0.00034
 H447 H 0.94115 0.03619 0.10999
 H448 H 0.89990 0.07159 0.14242
 C449 C 0.33056 0.71960 0.71741
 C450 C 0.35286 0.69909 0.69635
 C451 C 0.34508 0.66939 0.66862
 C452 C 0.31449 0.66096 0.66175
 C453 C 0.29214 0.68205 0.68229
 C454 C 0.29996 0.71179 0.71011
 C455 C 0.36929 0.64874 0.64645
 C456 C 0.36744 0.61033 0.63551
 C457 C 0.39206 0.58966 0.61413
 C458 C 0.39707 0.54899 0.62130
 C459 C 0.42005 0.52861 0.60130
 C460 C 0.43798 0.54836 0.57300
 C461 C 0.43266 0.58896 0.56539
 C462 C 0.41002 0.60949 0.58588
 H463 H 0.33722 0.74166 0.73941
 H464 H 0.37628 0.70606 0.70212
 H465 H 0.30781 0.63878 0.63988
 H466 H 0.26871 0.67557 0.67605
 H467 H 0.38996 0.66507 0.64120
 H468 H 0.34812 0.59279 0.64450
 H469 H 0.38333 0.53306 0.64270
 H470 H 0.42345 0.49724 0.60749
 H471 H 0.44603 0.60490 0.54361
 H472 H 0.40620 0.64061 0.57897
   
