data_POSCAR
  _audit_creation_date              2014-09-24
  _audit_creation_method            'ToBaCCo'
  _symmetry_space_group_name_H-M    'P1'
  _symmetry_Int_Tables_number       1
  _symmetry_cell_setting            triclinic
  loop_
  _symmetry_equiv_pos_as_xyz
 x,y,z
_cell_length_a 38.9283
_cell_length_b 41.6876
_cell_length_c 47.2397
_cell_angle_alpha 89.918400
_cell_angle_beta 89.974000
_cell_angle_gamma 90.036200
loop_
  _atom_site_label
  _atom_site_type_symbol
  _atom_site_fract_x
  _atom_site_fract_y
  _atom_site_fract_z
Zr1 Zr 0.24809 0.24795 0.29943
 O2 O 0.27365 0.27295 0.33227
 O3 O 0.21544 0.21726 0.32227
 O4 O 0.21406 0.27721 0.32276
 O5 O 0.31332 0.19266 0.28879
 O6 O 0.18604 0.30644 0.28897
 O7 O 0.28136 0.21792 0.32269
 O8 O 0.18501 0.19151 0.28776
 O9 O 0.20317 0.24910 0.27508
 O10 O 0.24883 0.20653 0.27451
 O11 O 0.25080 0.29088 0.27607
 O12 O 0.29451 0.24992 0.27627
 Zr13 Zr 0.25198 0.25194 0.20079
 Zr14 Zr 0.20706 0.29064 0.25026
 Zr15 Zr 0.29322 0.20933 0.25000
 Zr16 Zr 0.20523 0.20859 0.24922
 O17 O 0.34741 0.21324 0.24953
 O18 O 0.15151 0.21691 0.24833
 O19 O 0.24959 0.20859 0.22383
 O20 O 0.20607 0.25001 0.22422
 O21 O 0.25142 0.29377 0.22528
 O22 O 0.29658 0.25077 0.22542
 C23 C 0.19256 0.19728 0.31372
 C24 C 0.30514 0.19850 0.31468
 C25 C 0.19220 0.29857 0.31482
 O26 O 0.15297 0.28685 0.24757
 O27 O 0.19059 0.31089 0.21166
 O28 O 0.22122 0.28438 0.17770
 C29 C 0.19896 0.30526 0.18580
 O30 O 0.31733 0.30806 0.28913
 Zr31 Zr 0.29501 0.29138 0.25082
 O32 O 0.28455 0.28227 0.17771
 O33 O 0.21178 0.34110 0.25310
 O34 O 0.28685 0.34164 0.25233
 O35 O 0.34906 0.28514 0.24958
 O36 O 0.31243 0.31072 0.21202
 C37 C 0.30570 0.30389 0.18606
 O38 O 0.22452 0.22849 0.16811
 O39 O 0.28878 0.15873 0.25038
 O40 O 0.28348 0.22050 0.17735
 O41 O 0.31045 0.19038 0.21115
 O42 O 0.21124 0.15803 0.24972
 O43 O 0.18677 0.18857 0.21076
 C44 C 0.30396 0.19799 0.18529
 H45 H 0.24899 0.18648 0.28576
 H46 H 0.18576 0.25008 0.21160
 H47 H 0.31789 0.25051 0.21398
 H48 H 0.25113 0.30977 0.28874
 H49 H 0.13998 0.19629 0.25273
 H50 H 0.14376 0.30897 0.24862
 H51 H 0.18821 0.35000 0.25205
 H52 H 0.30897 0.35218 0.24770
 H53 H 0.18839 0.14848 0.25363
 H54 H 0.31246 0.15006 0.25116
 H55 H 0.35656 0.19109 0.24861
 H56 H 0.35943 0.30633 0.24536
 H57 H 0.16684 0.17452 0.21479
 H58 H 0.23351 0.23669 0.14982
 H59 H 0.26483 0.26446 0.35052
 H60 H 0.33292 0.32624 0.28499
 Zr61 Zr 0.75206 0.75239 0.29939
 O62 O 0.72666 0.72761 0.33253
 O63 O 0.78485 0.78319 0.32188
 O64 O 0.78617 0.72329 0.32283
 O65 O 0.68663 0.80743 0.28851
 O66 O 0.81412 0.69387 0.28919
 O67 O 0.71878 0.78251 0.32252
 O68 O 0.81516 0.80869 0.28707
 O69 O 0.79688 0.75112 0.27490
 O70 O 0.75118 0.79364 0.27417
 O71 O 0.74933 0.70929 0.27637
 O72 O 0.70558 0.75017 0.27638
 Zr73 Zr 0.74784 0.74766 0.20078
 Zr74 Zr 0.79298 0.70940 0.25042
 Zr75 Zr 0.70671 0.79058 0.24979
 Zr76 Zr 0.79468 0.79145 0.24874
 O77 O 0.65252 0.78661 0.24946
 O78 O 0.84841 0.78325 0.24762
 O79 O 0.75024 0.79118 0.22348
 O80 O 0.79382 0.74986 0.22406
 O81 O 0.74855 0.70601 0.22559
 O82 O 0.70333 0.74896 0.22555
 C83 C 0.80777 0.80305 0.31311
 C84 C 0.69489 0.80178 0.31442
 C85 C 0.80801 0.70189 0.31499
 O86 O 0.84707 0.71328 0.24761
 O87 O 0.80950 0.68899 0.21194
 O88 O 0.77869 0.71518 0.17786
 C89 C 0.80108 0.69445 0.18605
 O90 O 0.68291 0.69206 0.28977
 Zr91 Zr 0.70505 0.70854 0.25126
 O92 O 0.71521 0.71711 0.17805
 O93 O 0.78834 0.65895 0.25361
 O94 O 0.71330 0.65830 0.25312
 O95 O 0.65099 0.71473 0.25017
 O96 O 0.68746 0.68891 0.21268
 C97 C 0.69408 0.69554 0.18664
 O98 O 0.77510 0.77092 0.16779
 O99 O 0.71108 0.84118 0.24981
 O100 O 0.71623 0.77893 0.17720
 O101 O 0.68938 0.80927 0.21086
 O102 O 0.78855 0.84201 0.24896
 O103 O 0.81288 0.81130 0.21006
 C104 C 0.69579 0.80150 0.18504
 H105 H 0.75103 0.81374 0.28529
 H106 H 0.81408 0.74975 0.21139
 H107 H 0.68198 0.74913 0.21417
 H108 H 0.74908 0.69048 0.28918
 H109 H 0.85992 0.80391 0.25181
 H110 H 0.85632 0.69118 0.24881
 H111 H 0.81192 0.65008 0.25258
 H112 H 0.69118 0.64769 0.24865
 H113 H 0.81138 0.85161 0.25274
 H114 H 0.68739 0.84983 0.25059
 H115 H 0.64335 0.80875 0.24840
 H116 H 0.64062 0.69350 0.24615
 H117 H 0.83274 0.82549 0.21391
 H118 H 0.76605 0.76256 0.14960
 H119 H 0.73554 0.73623 0.35068
 H120 H 0.66731 0.67384 0.28581
 Zr121 Zr 0.75202 0.24725 -0.29946
 O122 O 0.72675 0.27207 -0.33260
 O123 O 0.78448 0.21615 -0.32194
 O124 O 0.78632 0.27606 -0.32304
 O125 O 0.68620 0.19261 -0.28829
 O126 O 0.81455 0.30543 -0.28952
 O127 O 0.71846 0.21724 -0.32243
 O128 O 0.81464 0.19056 -0.28714
 O129 O 0.79691 0.24835 -0.27507
 O130 O 0.75087 0.20610 -0.27412
 O131 O 0.74968 0.29044 -0.27654
 O132 O 0.70560 0.24982 -0.27636
 Zr133 Zr 0.74804 0.25236 -0.20084
 Zr134 Zr 0.79337 0.29017 -0.25068
 Zr135 Zr 0.70648 0.20950 -0.24967
 Zr136 Zr 0.79444 0.20812 -0.24880
 O137 O 0.65232 0.21378 -0.24923
 O138 O 0.84824 0.21605 -0.24788
 O139 O 0.75006 0.20875 -0.22344
 O140 O 0.79395 0.24980 -0.22422
 O141 O 0.74902 0.29392 -0.22577
 O142 O 0.70347 0.25121 -0.22552
 C143 C 0.80723 0.19614 -0.31318
 C144 C 0.69445 0.19811 -0.31423
 C145 C 0.80833 0.29736 -0.31529
 O146 O 0.84743 0.28600 -0.24795
 O147 O 0.81011 0.31065 -0.21231
 O148 O 0.77916 0.28477 -0.17808
 C149 C 0.80169 0.30534 -0.18638
 O150 O 0.68338 0.30806 -0.28984
 Zr151 Zr 0.70544 0.29154 -0.25133
 O152 O 0.71566 0.28314 -0.17812
 O153 O 0.78913 0.34063 -0.25402
 O154 O 0.71411 0.34172 -0.25331
 O155 O 0.65134 0.28564 -0.25016
 O156 O 0.68803 0.31136 -0.21277
 C157 C 0.69463 0.30477 -0.18672
 O158 O 0.77521 0.22908 -0.16786
 O159 O 0.71044 0.15887 -0.24955
 O160 O 0.71628 0.22133 -0.17713
 O161 O 0.68911 0.19103 -0.21065
 O162 O 0.78790 0.15760 -0.24881
 O163 O 0.81263 0.18833 -0.21012
 C164 C 0.69565 0.19885 -0.18487
 H165 H 0.75053 0.18595 -0.28517
 H166 H 0.81424 0.24984 -0.21159
 H167 H 0.68214 0.25120 -0.21410
 H168 H 0.74954 0.30921 -0.28940
 H169 H 0.85958 0.19531 -0.25205
 H170 H 0.85686 0.30805 -0.24925
 H171 H 0.81279 0.34937 -0.25306
 H172 H 0.69208 0.35248 -0.24882
 H173 H 0.81065 0.14785 -0.25263
 H174 H 0.68668 0.15036 -0.25026
 H175 H 0.64298 0.19170 -0.24808
 H176 H 0.64113 0.30693 -0.24617
 H177 H 0.83239 0.17405 -0.21398
 H178 H 0.76625 0.23755 -0.14967
 H179 H 0.73552 0.26333 -0.35075
 H180 H 0.66794 0.32638 -0.28589
 Zr181 Zr 0.24694 0.75377 -0.29954
 O182 O 0.27247 0.72940 -0.33277
 O183 O 0.21403 0.78462 -0.32196
 O184 O 0.21301 0.72456 -0.32308
 O185 O 0.31213 0.80908 -0.28841
 O186 O 0.18518 0.69478 -0.28952
 O187 O 0.28019 0.78426 -0.32253
 O188 O 0.18363 0.80974 -0.28712
 O189 O 0.20209 0.75208 -0.27509
 O190 O 0.24761 0.79483 -0.27418
 O191 O 0.24983 0.71053 -0.27660
 O192 O 0.29339 0.75160 -0.27648
 Zr193 Zr 0.25105 0.74830 -0.20086
 Zr194 Zr 0.20614 0.71021 -0.25068
 Zr195 Zr 0.29205 0.79180 -0.24976
 Zr196 Zr 0.20409 0.79223 -0.24880
 O197 O 0.34626 0.78809 -0.24943
 O198 O 0.15039 0.78371 -0.24784
 O199 O 0.24848 0.79197 -0.22348
 O200 O 0.20511 0.75048 -0.22421
 O201 O 0.25055 0.70684 -0.22581
 O202 O 0.29558 0.75003 -0.22561
 C203 C 0.19104 0.80438 -0.31319
 C204 C 0.30400 0.80363 -0.31438
 C205 C 0.19129 0.70296 -0.31530
 O206 O 0.15204 0.71381 -0.24795
 O207 O 0.18960 0.68943 -0.21227
 O208 O 0.22023 0.71548 -0.17808
 C209 C 0.19790 0.69469 -0.18632
 O210 O 0.31633 0.69366 -0.28998
 Zr211 Zr 0.29408 0.70979 -0.25145
 O212 O 0.28381 0.71772 -0.17821
 O213 O 0.21103 0.65981 -0.25399
 O214 O 0.28603 0.65953 -0.25348
 O215 O 0.34810 0.71629 -0.25032
 O216 O 0.31175 0.68996 -0.21292
 C217 C 0.30508 0.69634 -0.18686
 O218 O 0.22368 0.77118 -0.16781
 O219 O 0.28744 0.84238 -0.24959
 O220 O 0.28253 0.77960 -0.17719
 O221 O 0.30929 0.81030 -0.21075
 O222 O 0.21003 0.84281 -0.24879
 O223 O 0.18566 0.81170 -0.21011
 C224 C 0.30291 0.80232 -0.18495
 H225 H 0.24770 0.81502 -0.28523
 H226 H 0.18482 0.75018 -0.21157
 H227 H 0.31692 0.75022 -0.21422
 H228 H 0.25019 0.69181 -0.28947
 H229 H 0.13879 0.80434 -0.25199
 H230 H 0.14288 0.69168 -0.24922
 H231 H 0.18749 0.65081 -0.25300
 H232 H 0.30819 0.64899 -0.24902
 H233 H 0.18718 0.85235 -0.25260
 H234 H 0.31108 0.85116 -0.25035
 H235 H 0.35534 0.81026 -0.24827
 H236 H 0.35859 0.69509 -0.24635
 H237 H 0.16572 0.82579 -0.21396
 H238 H 0.23276 0.76271 -0.14965
 H239 H 0.26355 0.73815 -0.35088
 H240 H 0.33204 0.67552 -0.28606
 Zr241 Zr 1.25190 1.25184 0.80039
 O242 O 1.22640 1.22685 0.83334
 O243 O 1.28478 1.28212 0.82316
 O244 O 1.28607 1.22283 0.82374
 O245 O 1.18651 1.30686 0.78964
 O246 O 1.31425 1.19373 0.79000
 O247 O 1.21871 1.28187 0.82358
 O248 O 1.31541 1.30768 0.78859
 O249 O 1.29673 1.25072 0.77591
 O250 O 1.25104 1.29325 0.77536
 O251 O 1.24932 1.20881 0.77734
 O252 O 1.20541 1.24983 0.77745
 Zr253 Zr 1.24756 1.24743 0.70180
 Zr254 Zr 1.29290 1.20914 0.75130
 Zr255 Zr 1.20659 1.29027 0.75089
 Zr256 Zr 1.29456 1.29119 0.74997
 O257 O 1.15239 1.28642 0.75047
 O258 O 1.34829 1.28305 0.74845
 O259 O 1.25013 1.29091 0.72461
 O260 O 1.29359 1.24970 0.72508
 O261 O 1.24838 1.20579 0.72662
 O262 O 1.20311 1.24865 0.72664
 C263 C 1.30805 1.30169 0.81462
 C264 C 1.19480 1.30110 0.81552
 C265 C 1.30809 1.20167 0.81581
 O266 O 1.34697 1.21305 0.74829
 O267 O 1.30930 1.18880 0.71277
 O268 O 1.27849 1.21514 0.67877
 C269 C 1.30086 1.19436 0.68690
 O270 O 1.18278 1.19227 0.79107
 Zr271 Zr 1.20495 1.20823 0.75241
 O272 O 1.21511 1.21636 0.67927
 O273 O 1.28832 1.15868 0.75443
 O274 O 1.21298 1.15797 0.75470
 O275 O 1.15089 1.21430 0.75096
 O276 O 1.18780 1.18807 0.71408
 C277 C 1.19439 1.19450 0.68805
 O278 O 1.27455 1.27079 0.66872
 O279 O 1.21105 1.34086 0.75108
 O280 O 1.21578 1.27868 0.67829
 O281 O 1.18924 1.30916 0.71200
 O282 O 1.28840 1.34173 0.75077
 O283 O 1.31263 1.31150 0.71144
 C284 C 1.19549 1.30137 0.68616
 H285 H 1.25098 1.31326 0.78661
 H286 H 1.31382 1.24967 0.71237
 H287 H 1.18178 1.24875 0.71524
 H288 H 1.24913 1.18998 0.79012
 H289 H 1.35980 1.30365 0.75289
 H290 H 1.35625 1.19096 0.74951
 H291 H 1.31192 1.14985 0.75344
 H292 H 1.19075 1.14739 0.75052
 H293 H 1.31121 1.35125 0.75483
 H294 H 1.18738 1.34954 0.75194
 H295 H 1.14327 1.30858 0.74957
 H296 H 1.14059 1.19298 0.74720
 H297 H 1.33227 1.32590 0.71542
 H298 H 1.26546 1.26239 0.65056
 H299 H 1.23526 1.23533 0.85155
 H300 H 1.16698 1.17416 0.78728
 Zr301 Zr 0.74842 0.74870 0.80045
 O302 O 0.77412 0.77414 0.83295
 O303 O 0.71577 0.71867 0.82377
 O304 O 0.71434 0.77792 0.82366
 O305 O 0.81384 0.69367 0.78998
 O306 O 0.68584 0.80655 0.78975
 O307 O 0.78183 0.71902 0.82381
 O308 O 0.68491 0.69269 0.78966
 O309 O 0.70342 0.74945 0.77622
 O310 O 0.74919 0.70700 0.77591
 O311 O 0.75074 0.79147 0.77690
 O312 O 0.79474 0.75050 0.77724
 Zr313 Zr 0.75205 0.75193 0.70182
 Zr314 Zr 0.70698 0.79075 0.75111
 Zr315 Zr 0.79346 0.70975 0.75114
 Zr316 Zr 0.70549 0.70868 0.75074
 O317 O 0.84765 0.71367 0.75039
 O318 O 0.65173 0.71668 0.74937
 O319 O 0.74974 0.70872 0.72513
 O320 O 0.70619 0.74987 0.72537
 O321 O 0.75131 0.79386 0.72615
 O322 O 0.79667 0.75110 0.72641
 C323 C 0.69244 0.69901 0.81557
 C324 C 0.80572 0.69973 0.81583
 C325 C 0.69219 0.79892 0.81562
 O326 O 0.65290 0.78670 0.74844
 O327 O 0.69030 0.81061 0.71244
 O328 O 0.72090 0.78390 0.67858
 C329 C 0.69857 0.80475 0.68660
 O330 O 0.81735 0.80824 0.79008
 Zr331 Zr 0.79493 0.79182 0.75172
 O332 O 0.78425 0.78277 0.67873
 O333 O 0.71147 0.84124 0.75365
 O334 O 0.78682 0.84208 0.75346
 O335 O 0.84899 0.78585 0.75003
 O336 O 0.81174 0.81152 0.71307
 C337 C 0.80498 0.80477 0.68715
 O338 O 0.72485 0.72812 0.66918
 O339 O 0.78908 0.65916 0.75195
 O340 O 0.78376 0.72050 0.67847
 O341 O 0.81062 0.69047 0.71237
 O342 O 0.71173 0.65816 0.75215
 O343 O 0.68723 0.68786 0.71255
 C344 C 0.80419 0.69796 0.68648
 H345 H 0.74936 0.68713 0.78740
 H346 H 0.68587 0.74972 0.71277
 H347 H 0.81793 0.75090 0.71490
 H348 H 0.75097 0.81045 0.78947
 H349 H 0.64030 0.69612 0.75413
 H350 H 0.64358 0.80879 0.74944
 H351 H 0.68784 0.85002 0.75268
 H352 H 0.80899 0.85265 0.74903
 H353 H 0.68897 0.64867 0.75645
 H354 H 0.81277 0.65053 0.75277
 H355 H 0.85681 0.69152 0.74971
 H356 H 0.85920 0.80716 0.74597
 H357 H 0.66767 0.67344 0.71680
 H358 H 0.73379 0.73631 0.65087
 H359 H 0.76541 0.76587 0.85132
 H360 H 0.83305 0.82636 0.78599
 Zr361 Zr 1.25177 0.74842 0.19960
 O362 O 1.22646 0.77375 0.16678
 O363 O 1.28437 0.71805 0.17666
 O364 O 1.28616 0.77730 0.17632
 O365 O 1.18589 0.69380 0.21020
 O366 O 1.31464 0.80606 0.21011
 O367 O 1.21832 0.71874 0.17633
 O368 O 1.31482 0.69213 0.21110
 O369 O 1.29663 0.74914 0.22402
 O370 O 1.25056 0.70691 0.22447
 O371 O 1.24959 0.79137 0.22281
 O372 O 1.20531 0.75065 0.22259
 Zr373 Zr 1.24755 0.75241 0.29818
 Zr374 Zr 1.29319 0.79064 0.24879
 Zr375 Zr 1.20615 0.71007 0.24900
 Zr376 Zr 1.29411 0.70856 0.24980
 O377 O 1.15199 0.71428 0.24951
 O378 O 1.34792 0.71633 0.25131
 O379 O 1.24970 0.70903 0.27521
 O380 O 1.29354 0.74995 0.27485
 O381 O 1.24872 0.79417 0.27353
 O382 O 1.20306 0.75161 0.27341
 C383 C 1.30750 0.69830 0.18510
 C384 C 1.19423 0.69963 0.18434
 C385 C 1.30839 0.79827 0.18429
 O386 O 1.34722 0.78636 0.25173
 O387 O 1.30977 0.81071 0.28737
 O388 O 1.27874 0.78440 0.32129
 C389 C 1.30127 0.80508 0.31322
 O390 O 1.18318 0.80843 0.20922
 Zr391 Zr 1.20524 0.79214 0.24780
 O392 O 1.21540 0.78357 0.32089
 O393 O 1.28907 0.84114 0.24581
 O394 O 1.21372 0.84235 0.24568
 O395 O 1.15113 0.78642 0.24931
 O396 O 1.18831 0.81223 0.28623
 C397 C 1.19486 0.80562 0.31224
 O398 O 1.27438 0.72872 0.33112
 O399 O 1.21014 0.65945 0.24860
 O400 O 1.21554 0.72128 0.32162
 O401 O 1.18869 0.69112 0.28785
 O402 O 1.28752 0.65807 0.24882
 O403 O 1.31200 0.68795 0.28824
 C404 C 1.19506 0.69876 0.31370
 H405 H 1.25032 0.68695 0.21314
 H406 H 1.31378 0.74979 0.28754
 H407 H 1.18174 0.75159 0.28484
 H408 H 1.24956 0.81026 0.21009
 H409 H 1.35924 0.69569 0.24678
 H410 H 1.35670 0.80839 0.25057
 H411 H 1.31275 0.84980 0.24682
 H412 H 1.19160 0.85306 0.24994
 H413 H 1.31024 0.64843 0.24470
 H414 H 1.18639 0.65094 0.24776
 H415 H 1.14267 0.69217 0.25034
 H416 H 1.14103 0.80779 0.25316
 H417 H 1.33152 0.67344 0.28420
 H418 H 1.26539 0.73708 0.34934
 H419 H 1.23522 0.76530 0.14852
 H420 H 1.16754 0.82662 0.21311
 Zr421 Zr 0.74880 1.25170 0.19964
 O422 O 0.77448 1.22695 0.16672
 O423 O 0.71585 1.28194 0.17682
 O424 O 0.71481 1.22254 0.17624
 O425 O 0.81400 1.30699 0.21055
 O426 O 0.68667 1.19321 0.20995
 O427 O 0.78202 1.28198 0.17652
 O428 O 0.68506 1.30726 0.21135
 O429 O 0.70391 1.25028 0.22405
 O430 O 0.74945 1.29301 0.22469
 O431 O 0.75147 1.20860 0.22273
 O432 O 0.79522 1.24978 0.22270
 Zr433 Zr 0.75287 1.24693 0.29831
 Zr434 Zr 0.70781 1.20863 0.24870
 Zr435 Zr 0.79384 1.29012 0.24927
 Zr436 Zr 0.70588 1.29067 0.25000
 O437 O 0.84805 1.28648 0.24977
 O438 O 0.65217 1.28229 0.25140
 O439 O 0.75022 1.29046 0.27546
 O440 O 0.70692 1.24911 0.27491
 O441 O 0.75226 1.20536 0.27349
 O442 O 0.79738 1.24844 0.27355
 C443 C 0.69249 1.30140 0.18533
 C444 C 0.80585 1.30130 0.18464
 C445 C 0.69285 1.20124 0.18414
 O446 O 0.65372 1.21232 0.25152
 O447 O 0.69123 1.18814 0.28719
 O448 O 0.72186 1.21445 0.32127
 C449 C 0.69952 1.19365 0.31310
 O450 O 0.81807 1.19227 0.20917
 Zr451 Zr 0.79576 1.20809 0.24778
 O452 O 0.78541 1.21593 0.32091
 O453 O 0.71261 1.15820 0.24561
 O454 O 0.78788 1.15781 0.24553
 O455 O 0.84979 1.21443 0.24926
 O456 O 0.81299 1.18793 0.28614
 C457 C 0.80632 1.19424 0.31218
 O458 O 0.72573 1.27005 0.33136
 O459 O 0.78918 1.34070 0.24909
 O460 O 0.78447 1.27829 0.32187
 O461 O 0.81102 1.30896 0.28820
 O462 O 0.71189 1.34124 0.24926
 O463 O 0.68760 1.31078 0.28849
 C464 C 0.80472 1.30108 0.31403
 H465 H 0.74948 1.31306 0.21345
 H466 H 0.68664 1.24896 0.28757
 H467 H 0.81868 1.24860 0.28498
 H468 H 0.75177 1.18980 0.20996
 H469 H 0.64059 1.30285 0.24695
 H470 H 0.64451 1.19021 0.25028
 H471 H 0.68904 1.14926 0.24655
 H472 H 0.81011 1.14730 0.24977
 H473 H 0.68908 1.35069 0.24514
 H474 H 0.81282 1.34949 0.24828
 H475 H 0.85710 1.30867 0.25073
 H476 H 0.86019 1.19315 0.25306
 H477 H 0.66792 1.32511 0.28447
 H478 H 0.73482 1.26162 0.34953
 H479 H 0.76563 1.23547 0.14850
 H480 H 0.83392 1.17421 0.21302
 N481 N 0.56110 1.03383 0.03054
 N482 N 0.58471 1.05569 0.03626
 N483 N 0.53714 0.96638 0.05019
 N484 N 0.54418 0.94506 0.07005
 N485 N 0.56109 0.96635 0.03059
 N486 N 0.58509 0.94501 0.03661
 N487 N 0.53706 1.03382 0.05008
 N488 N 0.54362 1.05563 0.06956
 C489 C 0.57308 1.06932 0.06042
 C490 C 0.57381 0.93164 0.06101
 N491 N 0.43903 0.96628 0.03067
 N492 N 0.41565 0.94418 0.03632
 N493 N 0.46297 1.03374 0.05018
 N494 N 0.45586 1.05494 0.07007
 N495 N 0.43896 1.03375 0.03064
 N496 N 0.41488 1.05496 0.03674
 N497 N 0.46310 0.96632 0.05017
 N498 N 0.45679 0.94428 0.06956
 Mn499 Mn 0.50006 1.00007 0.05038
 C500 C 0.42745 0.93045 0.06040
 C501 C 0.42615 1.06828 0.06112
 N502 N 0.56095 0.96626 -0.03060
 N503 N 0.58449 0.94437 -0.03635
 N504 N 0.53707 1.03371 -0.05019
 N505 N 0.54403 1.05515 -0.06997
 N506 N 0.56106 1.03372 -0.03063
 N507 N 0.58499 1.05517 -0.03661
 N508 N 0.53688 0.96628 -0.05009
 N509 N 0.54334 0.94445 -0.06958
 Mn510 Mn 0.56139 1.00004 -0.00003
 C511 C 0.57278 0.93074 -0.06048
 C512 C 0.57364 1.06861 -0.06093
 N513 N 0.43899 1.03385 -0.03055
 N514 N 0.41556 1.05586 -0.03622
 N515 N 0.46277 0.96637 -0.05011
 N516 N 0.45556 0.94520 -0.07001
 N517 N 0.43882 0.96637 -0.03051
 N518 N 0.41465 0.94519 -0.03658
 N519 N 0.46302 1.03381 -0.05009
 N520 N 0.45664 1.05576 -0.06953
 Mn521 Mn 0.43861 1.00006 0.00007
 Mn522 Mn 0.49994 1.00004 -0.05035
 Cl523 Cl 0.50000 1.00005 0.00002
 C524 C 0.42728 1.06954 -0.06035
 C525 C 0.42582 0.93188 -0.06100
 N526 N 1.06105 0.53391 0.53070
 N527 N 1.08468 0.55572 0.53657
 N528 N 1.03717 0.46634 0.55030
 N529 N 1.04435 0.44521 0.57029
 N530 N 1.06119 0.46636 0.53074
 N531 N 1.08536 0.44524 0.53696
 N532 N 1.03697 0.53383 0.55021
 N533 N 1.04354 0.55554 0.56981
 C534 C 1.07306 0.56925 0.56079
 C535 C 1.07413 0.43193 0.56141
 N536 N 0.93894 0.46607 0.53074
 N537 N 0.91542 0.44413 0.53655
 N538 N 0.96278 0.53361 0.55029
 N539 N 0.95551 0.55459 0.57033
 N540 N 0.93875 0.53361 0.53076
 N541 N 0.91448 0.55460 0.53706
 N542 N 0.96301 0.46614 0.55025
 N543 N 0.95655 0.44427 0.56978
 Mn544 Mn 0.99998 0.49998 0.55047
 C545 C 0.92711 0.43050 0.56072
 C546 C 0.92567 0.56781 0.56152
 N547 N 1.06111 0.46628 0.46941
 N548 N 1.08486 0.44464 0.46345
 N549 N 1.03705 0.53375 0.44984
 N550 N 1.04415 0.55493 0.42986
 N551 N 1.06107 0.53381 0.46938
 N552 N 1.08517 0.55504 0.46315
 N553 N 1.03701 0.46628 0.44992
 N554 N 1.04369 0.44468 0.43027
 Mn555 Mn 1.06143 0.50009 0.50006
 C556 C 1.07328 0.43111 0.43922
 C557 C 1.07388 0.56831 0.43872
 N558 N 0.93883 0.53375 0.46942
 N559 N 0.91518 0.55551 0.46354
 N560 N 0.96282 0.46626 0.44988
 N561 N 0.95563 0.44519 0.42989
 N562 N 0.93879 0.46620 0.46944
 N563 N 0.91460 0.44509 0.46320
 N564 N 0.96291 0.53374 0.44990
 N565 N 0.95632 0.55546 0.43029
 Mn566 Mn 0.93851 0.49991 0.50009
 Mn567 Mn 0.99995 0.50000 0.44969
 Cl568 Cl 0.99997 0.50000 0.50008
 C569 C 0.92680 0.56910 0.43930
 C570 C 0.92583 0.43186 0.43874
 N571 N 1.06166 0.53483 0.02980
 N572 N 1.08516 0.55675 0.03555
 N573 N 1.03828 0.46720 0.04948
 N574 N 1.04581 0.44630 0.06955
 N575 N 1.06224 0.46741 0.02988
 N576 N 1.08673 0.44664 0.03615
 N577 N 1.03768 0.53459 0.04939
 N578 N 1.04417 0.55633 0.06894
 C579 C 1.07351 0.57019 0.05975
 C580 C 1.07573 0.43334 0.06066
 N581 N 0.94010 0.46649 0.03009
 N582 N 0.91634 0.44488 0.03612
 N583 N 0.96359 0.53404 0.04969
 N584 N 0.95600 0.55471 0.06990
 N585 N 0.93958 0.53393 0.03016
 N586 N 0.91501 0.55453 0.03659
 N587 N 0.96416 0.46662 0.04960
 N588 N 0.95745 0.44511 0.06937
 Mn589 Mn 1.00094 0.50061 0.04976
 C590 C 0.92790 0.43146 0.06041
 C591 C 0.92600 0.56765 0.06113
 N592 N 1.06199 0.46741 -0.03128
 N593 N 1.08564 0.44564 -0.03698
 N594 N 1.03778 0.53474 -0.05096
 N595 N 1.04533 0.55529 -0.07135
 N596 N 1.06181 0.53486 -0.03143
 N597 N 1.08633 0.55550 -0.03808
 N598 N 1.03793 0.46731 -0.05078
 N599 N 1.04451 0.44549 -0.07024
 Mn600 Mn 1.06224 0.50113 -0.00075
 C601 C 1.07401 0.43194 -0.06108
 C602 C 1.07531 0.56842 -0.06273
 N603 N 0.93967 0.53417 -0.03098
 N604 N 0.91602 0.55599 -0.03656
 N605 N 0.96383 0.46696 -0.05075
 N606 N 0.95640 0.44621 -0.07093
 N607 N 0.93992 0.46675 -0.03110
 N608 N 0.91558 0.44586 -0.03745
 N609 N 0.96365 0.53436 -0.05058
 N610 N 0.95699 0.55629 -0.06998
 Mn611 Mn 0.93951 0.50033 -0.00047
 Mn612 Mn 1.00079 0.50085 -0.05099
 Cl613 Cl 1.00087 0.50073 -0.00061
 C614 C 0.92755 0.56980 -0.06068
 C615 C 0.92661 0.43290 -0.06205
 N616 N 0.56023 1.03325 0.53103
 N617 N 0.58410 1.05475 0.53709
 N618 N 0.53649 0.96567 0.55057
 N619 N 0.54397 0.94474 0.57063
 N620 N 0.56045 0.96580 0.53096
 N621 N 0.58487 0.94497 0.53721
 N622 N 0.53621 1.03309 0.55059
 N623 N 0.54306 1.05445 0.57041
 C624 C 0.57265 1.06805 0.56144
 C625 C 0.57383 0.93169 0.56171
 N626 N 0.43820 0.96532 0.53121
 N627 N 0.41399 0.94423 0.53759
 N628 N 0.46205 1.03279 0.55073
 N629 N 0.45460 1.05359 0.57087
 N630 N 0.43806 1.03279 0.53117
 N631 N 0.41365 1.05358 0.53752
 N632 N 0.46228 0.96535 0.55071
 N633 N 0.45510 0.94431 0.57079
 Mn634 Mn 0.49927 0.99922 0.55085
 C635 C 0.42527 0.93100 0.56206
 C636 C 0.42472 1.06670 0.56204
 N637 N 0.56041 0.96586 0.46973
 N638 N 0.58443 0.94456 0.46360
 N639 N 0.53637 1.03330 0.45018
 N640 N 0.54402 1.05386 0.42984
 N641 N 0.56036 1.03333 0.46975
 N642 N 0.58495 1.05391 0.46317
 N643 N 0.53634 0.96585 0.45023
 N644 N 0.54331 0.94457 0.43038
 Mn645 Mn 0.56066 0.99957 0.50038
 C646 C 0.57302 0.93119 0.43927
 C647 C 0.57401 1.06690 0.43852
 N648 N 0.43812 1.03305 0.46992
 N649 N 0.41421 1.05451 0.46393
 N650 N 0.46220 0.96575 0.45030
 N651 N 0.45479 0.94498 0.43013
 N652 N 0.43822 0.96559 0.46990
 N653 N 0.41387 0.94473 0.46353
 N654 N 0.46219 1.03316 0.45039
 N655 N 0.45532 1.05467 0.43067
 Mn656 Mn 0.43785 0.99918 0.50054
 Mn657 Mn 0.49926 0.99952 0.45008
 Cl658 Cl 0.49926 0.99937 0.50046
 C659 C 0.42567 1.06807 0.43965
 C660 C 0.42497 0.93172 0.43896
 N661 N 0.93935 1.03389 0.52965
 N662 N 0.91516 1.04073 0.54828
 N663 N 0.96401 1.05626 0.47056
 N664 N 0.95717 1.07887 0.45184
 N665 N 0.94005 1.03406 0.47029
 N666 N 0.91622 1.04098 0.45139
 N667 N 0.96342 1.05597 0.52987
 N668 N 0.95636 1.07839 0.54863
 C669 C 0.92655 1.06824 0.56015
 C670 C 0.92765 1.06867 0.43984
 N671 N 1.06189 1.03414 0.47128
 N672 N 1.08600 1.04110 0.45259
 N673 N 1.03723 1.05596 0.53044
 N674 N 1.04407 1.07842 0.54924
 N675 N 1.06120 1.03379 0.53060
 N676 N 1.08504 1.04059 0.54952
 N677 N 1.03781 1.05620 0.47116
 N678 N 1.04479 1.07872 0.45242
 Mn679 Mn 1.00063 1.05636 0.50051
 C680 C 1.07455 1.06866 0.44081
 C681 C 1.07359 1.06816 0.56118
 N682 N 0.94009 0.96492 0.47017
 N683 N 0.91626 0.95801 0.45126
 N684 N 0.96335 0.94260 0.52962
 N685 N 0.95615 0.92007 0.54832
 N686 N 0.93939 0.96477 0.52949
 N687 N 0.91519 0.95793 0.54810
 N688 N 0.96414 0.94283 0.47034
 N689 N 0.95740 0.92033 0.45157
 Mn690 Mn 0.93937 0.99941 0.49990
 C691 C 0.92785 0.93046 0.43962
 C692 C 0.92640 0.93031 0.55988
 N693 N 1.06124 0.96464 0.53048
 N694 N 1.08504 0.95759 0.54940
 N695 N 1.03794 0.94283 0.47091
 N696 N 1.04504 0.92053 0.45203
 N697 N 1.06192 0.96500 0.47112
 N698 N 1.08604 0.95839 0.45238
 N699 N 1.03718 0.94254 0.53023
 N700 N 1.04387 0.91991 0.54894
 Mn701 Mn 1.06192 0.99940 0.50087
 Mn702 Mn 1.00065 0.94244 0.50028
 Cl703 Cl 1.00064 0.99940 0.50039
 C704 C 1.07343 0.92994 0.56095
 C705 C 1.07476 0.93089 0.44045
 N706 N 0.56083 0.53338 0.03069
 N707 N 0.58471 0.55480 0.03673
 N708 N 0.53636 0.46604 0.04991
 N709 N 0.54266 0.44417 0.06941
 N710 N 0.56051 0.46602 0.03048
 N711 N 0.58398 0.44412 0.03628
 N712 N 0.53669 0.53335 0.05012
 N713 N 0.54343 0.55474 0.06989
 C714 C 0.57308 0.56818 0.06095
 C715 C 0.57209 0.43045 0.06034
 N716 N 0.43861 0.46654 0.03005
 N717 N 0.41474 0.44498 0.03578
 N718 N 0.46288 0.53366 0.04983
 N719 N 0.45652 0.55549 0.06930
 N720 N 0.43893 0.53388 0.03025
 N721 N 0.41554 0.55590 0.03591
 N722 N 0.46255 0.46637 0.04963
 N723 N 0.45569 0.44469 0.06918
 Mn724 Mn 0.49961 0.49986 0.05012
 C725 C 0.42618 0.43130 0.05996
 C726 C 0.42727 0.56939 0.06006
 N727 N 0.56085 0.46645 -0.03054
 N728 N 0.58472 0.44502 -0.03654
 N729 N 0.53710 0.53397 -0.04984
 N730 N 0.54346 0.55621 -0.06900
 N731 N 0.56105 0.53379 -0.03027
 N732 N 0.58445 0.55593 -0.03561
 N733 N 0.53693 0.46667 -0.05013
 N734 N 0.54382 0.44540 -0.06997
 Mn735 Mn 0.56118 0.49991 0.00009
 C736 C 0.57331 0.43182 -0.06091
 C737 C 0.57271 0.56991 -0.05957
 N738 N 0.43915 0.53415 -0.03077
 N739 N 0.41523 0.55551 -0.03689
 N740 N 0.46312 0.46685 -0.05034
 N741 N 0.45689 0.44492 -0.06975
 N742 N 0.43896 0.46679 -0.03092
 N743 N 0.41555 0.44479 -0.03662
 N744 N 0.46328 0.53416 -0.05021
 N745 N 0.45649 0.55552 -0.07005
 Mn746 Mn 0.43854 0.50034 -0.00034
 Mn747 Mn 0.50011 0.50041 -0.05038
 Cl748 Cl 0.49986 0.50013 -0.00013
 C749 C 0.42683 0.56893 -0.06115
 C750 C 0.42749 0.43115 -0.06063
 C751 C 0.32148 1.18007 0.16373
 C752 C 0.33674 1.16452 0.14627
 C753 C 0.35514 1.14567 0.12659
 C754 C 0.37117 1.12899 0.11046
 C755 C 0.39022 1.10871 0.09237
 C756 C 0.40660 1.09068 0.07767
 C757 C 0.82164 0.67982 0.66494
 C758 C 0.83678 0.66409 0.64747
 C759 C 0.85498 0.64507 0.62770
 C760 C 0.87083 0.62831 0.61145
 C761 C 0.88971 0.60801 0.59316
 C762 C 0.90603 0.59006 0.57827
 C763 C 0.67826 0.81932 0.16341
 C764 C 0.66300 0.83486 0.14593
 C765 C 0.64461 0.85376 0.12625
 C766 C 0.62861 0.87051 0.11014
 C767 C 0.60961 0.89093 0.09211
 C768 C 0.59328 0.90908 0.07747
 C769 C 1.17801 0.31937 0.66453
 C770 C 1.16285 0.33507 0.64704
 C771 C 1.14464 0.35413 0.62728
 C772 C 1.12880 0.37097 0.61108
 C773 C 1.10995 0.39141 0.59287
 C774 C 1.09368 0.40950 0.57807
 C775 C 0.67809 1.18115 -0.16318
 C776 C 0.66278 1.16568 -0.14566
 C777 C 0.64437 1.14681 -0.12597
 C778 C 0.62835 1.13003 -0.10988
 C779 C 0.60934 1.10955 -0.09191
 C780 C 0.59304 1.09130 -0.07733
 C781 C 1.17751 0.68076 0.33530
 C782 C 1.16235 0.66510 0.35283
 C783 C 1.14417 0.64610 0.37265
 C784 C 1.12837 0.62930 0.38892
 C785 C 1.10958 0.60888 0.40720
 C786 C 1.09336 0.59078 0.42204
 C787 C 0.32045 0.82008 -0.16328
 C788 C 0.33580 0.83558 -0.14582
 C789 C 0.35433 0.85443 -0.12619
 C790 C 0.37048 0.87112 -0.11013
 C791 C 0.38968 0.89144 -0.09214
 C792 C 0.40617 0.90948 -0.07751
 C793 C 0.82210 0.31913 0.33568
 C794 C 0.83720 0.33487 0.35317
 C795 C 0.85537 0.35400 0.37290
 C796 C 0.87118 0.37087 0.38908
 C797 C 0.89001 0.39135 0.40728
 C798 C 0.90627 0.40944 0.42208
 C799 C 1.18166 0.32357 0.16435
 C800 C 1.16646 0.33918 0.14687
 C801 C 1.14801 0.35784 0.12704
 C802 C 1.13183 0.37419 0.11072
 C803 C 1.11249 0.39397 0.09238
 C804 C 1.09577 0.41151 0.07745
 C805 C 0.68102 0.82275 0.66510
 C806 C 0.66556 0.83813 0.64763
 C807 C 0.64679 0.85657 0.62786
 C808 C 0.63034 0.87277 0.61162
 C809 C 0.61075 0.89243 0.59337
 C810 C 0.59389 0.90990 0.57850
 C811 C 1.18204 0.67785 -0.16698
 C812 C 1.16672 0.66211 -0.14956
 C813 C 1.14806 0.64337 -0.12979
 C814 C 1.13173 0.62704 -0.11347
 C815 C 1.11222 0.60736 -0.09501
 C816 C 1.09541 0.58999 -0.07989
 C817 C 0.68192 1.17535 0.33448
 C818 C 0.66638 1.15980 0.35188
 C819 C 0.64748 1.14128 0.37162
 C820 C 0.63094 1.12511 0.38791
 C821 C 0.61121 1.10561 0.40632
 C822 C 0.59424 1.08836 0.42141
 C823 C 0.81857 0.67619 0.16470
 C824 C 0.83402 0.66068 0.14732
 C825 C 0.85280 0.64219 0.12760
 C826 C 0.86927 0.62603 0.11136
 C827 C 0.88892 0.60650 0.09304
 C828 C 0.90584 0.58919 0.07808
 C829 C 0.31825 1.17610 0.66550
 C830 C 0.33358 1.16054 0.64808
 C831 C 0.35220 1.14195 0.62835
 C832 C 0.36851 1.12565 0.61211
 C833 C 0.38797 1.10594 0.59382
 C834 C 0.40473 1.08845 0.57890
 C835 C 0.81931 0.32364 -0.16513
 C836 C 0.83483 0.33921 -0.14783
 C837 C 0.85367 0.35779 -0.12821
 C838 C 0.87015 0.37405 -0.11205
 C839 C 0.88976 0.39372 -0.09383
 C840 C 0.90660 0.41117 -0.07893
 C841 C 0.31874 0.82316 0.33470
 C842 C 0.33407 0.83855 0.35222
 C843 C 0.35264 0.85695 0.37212
 C844 C 0.36890 0.87309 0.38852
 C845 C 0.38828 0.89265 0.40698
 C846 C 0.40500 0.91004 0.42202
 C847 C 1.17475 1.17890 0.33458
 C848 C 1.15983 1.16231 0.35137
 C849 C 1.14238 1.14208 0.37035
 C850 C 1.12731 1.12454 0.38627
 C851 C 1.10939 1.10420 0.40485
 C852 C 1.09370 1.08741 0.42101
 C853 C 0.67380 0.68218 -0.16299
 C854 C 0.65833 0.66737 -0.14523
 C855 C 0.64038 0.64910 -0.12501
 C856 C 0.62504 0.63252 -0.10844
 C857 C 0.60700 0.61193 -0.09009
 C858 C 0.59145 0.59329 -0.07548
 C859 C 0.82514 1.17762 0.66614
 C860 C 0.84022 1.16105 0.64945
 C861 C 0.85793 1.14095 0.63056
 C862 C 0.87323 1.12358 0.61467
 C863 C 0.89141 1.10346 0.59610
 C864 C 0.90726 1.08685 0.57995
 C865 C 0.32618 0.68121 0.16386
 C866 C 0.34166 0.66625 0.14623
 C867 C 0.35963 0.64789 0.12610
 C868 C 0.37498 0.63136 0.10953
 C869 C 0.39301 0.61091 0.09108
 C870 C 0.40855 0.59248 0.07629
 C871 C 1.17453 0.82107 0.66799
 C872 C 1.15928 0.83739 0.65116
 C873 C 1.14142 0.85724 0.63208
 C874 C 1.12609 0.87446 0.61602
 C875 C 1.10799 0.89450 0.59725
 C876 C 1.09233 0.91114 0.58094
 C877 C 0.67367 0.31854 0.16414
 C878 C 0.65807 0.33356 0.14659
 C879 C 0.63997 0.35198 0.12653
 C880 C 0.62453 0.36855 0.10999
 C881 C 0.60641 0.38900 0.09153
 C882 C 0.59082 0.40741 0.07669
 C883 C 0.82596 0.82133 0.33378
 C884 C 0.84129 0.83773 0.35043
 C885 C 0.85927 0.85767 0.36927
 C886 C 0.87473 0.87496 0.38511
 C887 C 0.89300 0.89506 0.40363
 C888 C 0.90881 0.91171 0.41978
 C889 C 0.32682 0.31881 -0.16422
 C890 C 0.34232 0.33382 -0.14665
 C891 C 0.36026 0.35225 -0.12657
 C892 C 0.37554 0.36887 -0.11002
 C893 C 0.39346 0.38942 -0.09160
 C894 C 0.40890 0.40795 -0.07684
 C895 C 1.17636 0.31823 -0.16302
 C896 C 1.16086 0.33348 -0.14554
 C897 C 1.14266 0.35232 -0.12580
 C898 C 1.12706 0.36926 -0.10965
 C899 C 1.10869 0.39010 -0.09167
 C900 C 1.09291 0.40874 -0.07718
 C901 C 0.67643 0.81908 0.33588
 C902 C 0.66089 0.83439 0.35337
 C903 C 0.64260 0.85317 0.37321
 C904 C 0.62689 0.86992 0.38953
 C905 C 0.60832 0.89038 0.40784
 C906 C 0.59232 0.90858 0.42268
 C907 C 0.82434 0.68289 -0.16262
 C908 C 0.83999 0.66785 -0.14508
 C909 C 0.85837 0.64921 -0.12529
 C910 C 0.87412 0.63239 -0.10912
 C911 C 0.89265 0.61163 -0.09115
 C912 C 0.90854 0.59301 -0.07670
 C913 C 0.32348 1.18119 0.33622
 C914 C 0.33884 1.16582 0.35379
 C915 C 0.35688 1.14691 0.37371
 C916 C 0.37237 1.13001 0.39008
 C917 C 0.39068 1.10933 0.40840
 C918 C 0.40651 1.09093 0.42320
 C919 C 1.17568 0.68273 0.16280
 C920 C 1.16015 0.66771 0.14519
 C921 C 1.14196 0.64914 0.12525
 C922 C 1.12640 0.63241 0.10890
 C923 C 1.10809 0.61179 0.09068
 C924 C 1.09236 0.59329 0.07601
 C925 C 0.67588 1.18079 0.66440
 C926 C 0.66029 1.16543 0.64698
 C927 C 0.64197 1.14656 0.62722
 C928 C 0.62627 1.12972 0.61097
 C929 C 0.60776 1.10913 0.59273
 C930 C 0.59182 1.09081 0.57795
 C931 C 0.82439 0.31859 0.16321
 C932 C 0.84003 0.33391 0.14576
 C933 C 0.85844 0.35275 0.12601
 C934 C 0.87424 0.36958 0.10980
 C935 C 0.89284 0.39021 0.09163
 C936 C 0.90880 0.40859 0.07690
 C937 C 0.32080 0.81954 0.66618
 C938 C 0.33643 0.83491 0.64867
 C939 C 0.35488 0.85370 0.62879
 C940 C 0.37074 0.87037 0.61241
 C941 C 0.38953 0.89067 0.59394
 C942 C 0.40573 0.90867 0.57892
 C943 C 0.32674 1.18482 -0.16260
 C944 C 0.34219 1.16956 -0.14503
 C945 C 0.36012 1.15051 -0.12520
 C946 C 0.37538 1.13329 -0.10898
 C947 C 0.39329 1.11207 -0.09093
 C948 C 0.40870 1.09310 -0.07642
 C949 C 0.82647 0.68481 0.33665
 C950 C 0.84177 0.66932 0.35421
 C951 C 0.85956 0.65001 0.37404
 C952 C 0.87474 0.63266 0.39027
 C953 C 0.89262 0.61139 0.40841
 C954 C 0.90806 0.59250 0.42304
 C955 C 0.67427 1.18434 0.16252
 C956 C 0.65882 1.16904 0.14499
 C957 C 0.64081 1.14995 0.12522
 C958 C 0.62546 1.13275 0.10906
 C959 C 0.60740 1.11159 0.09103
 C960 C 0.59185 1.09273 0.07652
 C961 C 1.17298 0.68579 0.66299
 C962 C 1.15779 0.67017 0.64547
 C963 C 1.14007 0.65067 0.62573
 C964 C 1.12496 0.63318 0.60959
 C965 C 1.10714 0.61174 0.59155
 C966 C 1.09175 0.59274 0.57699
 C967 C 0.67358 0.81591 -0.16286
 C968 C 0.65814 0.83122 -0.14534
 C969 C 0.64020 0.85026 -0.12552
 C970 C 0.62490 0.86741 -0.10930
 C971 C 0.60693 0.88852 -0.09120
 C972 C 0.59145 0.90735 -0.07663
 C973 C 1.17379 0.31577 0.33643
 C974 C 1.15851 0.33130 0.35395
 C975 C 1.14071 0.35060 0.37378
 C976 C 1.12552 0.36790 0.39002
 C977 C 1.10760 0.38907 0.40821
 C978 C 1.09211 0.40786 0.42289
 C979 C 0.32712 0.81508 0.16272
 C980 C 0.34260 0.83030 0.14513
 C981 C 0.36052 0.84932 0.12526
 C982 C 0.37575 0.86654 0.10902
 C983 C 0.39360 0.88779 0.09094
 C984 C 0.40895 0.90681 0.07643
 C985 C 0.82684 0.31431 0.66299
 C986 C 0.84219 0.32975 0.64542
 C987 C 0.86004 0.34907 0.62562
 C988 C 0.87524 0.36648 0.60945
 C989 C 0.89311 0.38788 0.59141
 C990 C 0.90850 0.40692 0.57687
 C991 C 1.17694 1.17566 0.66734
 C992 C 1.16178 1.15918 0.65065
 C993 C 1.14360 1.13948 0.63175
 C994 C 1.12775 1.12256 0.61585
 C995 C 1.10896 1.10298 0.59725
 C996 C 1.09280 1.08670 0.58106
 C997 C 0.67612 0.67766 0.16551
 C998 C 0.66084 0.66244 0.14795
 C999 C 0.64273 0.64421 0.12783
 C1000 C 0.62704 0.62804 0.11121
 C1001 C 0.60844 0.60825 0.09260
 C1002 C 0.59237 0.59047 0.07758
 C1003 C 1.17761 0.82446 0.33308
 C1004 C 1.16264 0.84088 0.34994
 C1005 C 1.14466 0.86045 0.36909
 C1006 C 1.12896 0.87721 0.38521
 C1007 C 1.11026 0.89657 0.40406
 C1008 C 1.09410 0.91264 0.42043
 C1009 C 0.67674 0.32273 -0.16560
 C1010 C 0.66147 0.33797 -0.14803
 C1011 C 0.64333 0.35617 -0.12790
 C1012 C 0.62759 0.37228 -0.11126
 C1013 C 0.60889 0.39196 -0.09262
 C1014 C 0.59272 0.40964 -0.07757
 C1015 C 0.82392 1.17550 0.33296
 C1016 C 0.83920 1.15916 0.34974
 C1017 C 0.85753 1.13966 0.36879
 C1018 C 0.87347 1.12292 0.38483
 C1019 C 0.89232 1.10349 0.40358
 C1020 C 0.90849 1.08726 0.41988
 C1021 C 0.32315 0.67836 -0.16577
 C1022 C 0.33853 0.66308 -0.14826
 C1023 C 0.35678 0.64479 -0.12820
 C1024 C 0.37258 0.62861 -0.11160
 C1025 C 0.39130 0.60885 -0.09297
 C1026 C 0.40746 0.59113 -0.07789
 C1027 C 0.82227 0.82337 0.66615
 C1028 C 0.83737 0.83969 0.64927
 C1029 C 0.85558 0.85924 0.63023
 C1030 C 0.87152 0.87605 0.61428
 C1031 C 0.89050 0.89555 0.59571
 C1032 C 0.90688 0.91179 0.57960
 C1033 C 0.32353 0.32164 0.16473
 C1034 C 0.33867 0.33675 0.14698
 C1035 C 0.35661 0.35491 0.12667
 C1036 C 0.37218 0.37107 0.10994
 C1037 C 0.39071 0.39092 0.09130
 C1038 C 0.40680 0.40882 0.07635
   
