data_POSCAR
  _audit_creation_date              2014-09-24
  _audit_creation_method            'ToBaCCo'
  _symmetry_space_group_name_H-M    'P1'
  _symmetry_Int_Tables_number       1
  _symmetry_cell_setting            triclinic
  loop_
  _symmetry_equiv_pos_as_xyz
 x,y,z
_cell_length_a 48.7563
_cell_length_b 18.5476
_cell_length_c 21.3015
_cell_angle_alpha 90.579600
_cell_angle_beta 90.066700
_cell_angle_gamma 90.699100
loop_
  _atom_site_label
  _atom_site_type_symbol
  _atom_site_fract_x
  _atom_site_fract_y
  _atom_site_fract_z
C1 C 0.68405 0.32699 0.50229
 C2 C 0.69655 0.31523 0.56098
 C3 C 0.72239 0.28157 0.56121
 C4 C 0.73414 0.25243 0.50589
 C5 C 0.71971 0.26071 0.44901
 C6 C 0.69552 0.30030 0.44674
 C7 C 0.76098 0.21276 0.50770
 C8 C 0.77682 0.20240 0.45277
 C9 C 0.80103 0.16138 0.45321
 C10 C 0.81040 0.13505 0.51101
 C11 C 0.79629 0.14944 0.56677
 C12 C 0.77119 0.18513 0.56451
 H13 H 0.66417 0.35187 0.49896
 H14 H 0.73364 0.28035 0.60472
 H15 H 0.72691 0.23688 0.40573
 H16 H 0.77006 0.22438 0.40887
 H17 H 0.83010 0.10892 0.51382
 H18 H 0.76005 0.19088 0.60797
 C19 C 0.18618 0.82625 0.49837
 C20 C 0.19881 0.81112 0.55626
 C21 C 0.22399 0.77413 0.55554
 C22 C 0.23581 0.74987 0.49871
 C23 C 0.22123 0.76109 0.44246
 C24 C 0.19706 0.80086 0.44172
 C25 C 0.26341 0.71446 0.49701
 C26 C 0.27924 0.71656 0.44170
 C27 C 0.30389 0.67972 0.43727
 C28 C 0.31436 0.64494 0.48966
 C29 C 0.30060 0.64689 0.54789
 C30 C 0.27444 0.67936 0.54994
 H31 H 0.16656 0.85289 0.49701
 H32 H 0.23492 0.76757 0.59922
 H33 H 0.22862 0.73967 0.39835
 H34 H 0.27266 0.74650 0.40123
 H35 H 0.33454 0.62196 0.48509
 H36 H 0.26240 0.67536 0.59227
 C37 C 0.31510 0.34637 -0.48229
 C38 C 0.30147 0.35198 -0.53991
 C39 C 0.27363 0.33152 -0.54353
 C40 C 0.25993 0.29989 -0.49181
 C41 C 0.27478 0.29224 -0.43530
 C42 C 0.30179 0.31782 -0.43009
 C43 C 0.23047 0.27510 -0.49702
 C44 C 0.21368 0.26751 -0.44309
 C45 C 0.18601 0.24349 -0.44735
 C46 C 0.17503 0.23246 -0.50806
 C47 C 0.19116 0.23989 -0.56166
 C48 C 0.21880 0.25893 -0.55620
 H49 H 0.33651 0.36196 -0.47801
 H50 H 0.26289 0.34113 -0.58696
 H51 H 0.26579 0.26668 -0.39476
 H52 H 0.22241 0.27893 -0.39771
 H53 H 0.15345 0.22082 -0.51511
 H54 H 0.23081 0.26133 -0.59876
 C55 C -0.17657 0.76209 -0.49974
 C56 C -0.18948 0.75859 -0.55870
 C57 C -0.21836 0.75826 -0.56091
 C58 C -0.23427 0.76331 -0.50556
 C59 C -0.22035 0.77307 -0.44773
 C60 C -0.19172 0.76981 -0.44448
 C61 C -0.26494 0.75275 -0.50764
 C62 C -0.27933 0.72965 -0.45382
 C63 C -0.30746 0.71457 -0.45611
 C64 C -0.32151 0.71908 -0.51301
 C65 C -0.30808 0.74276 -0.56740
 C66 C -0.28001 0.76130 -0.56390
 H67 H -0.15440 0.76371 -0.49644
 H68 H -0.22816 0.74917 -0.60581
 H69 H -0.23145 0.78133 -0.40446
 H70 H -0.26894 0.72079 -0.40981
 H71 H -0.34305 0.70419 -0.51451
 H72 H -0.27024 0.78269 -0.60530
 O73 O -0.03002 0.85994 0.11803
 O74 O -0.06395 0.91282 0.06059
 C75 C -0.05562 0.87128 0.10515
 O76 O 0.03492 1.13553 0.11393
 O77 O 0.06701 1.07993 0.05221
 C78 C 0.06012 1.12420 0.09670
 O79 O -0.04130 1.10257 0.12377
 O80 O -0.06917 1.02868 0.06390
 C81 C -0.06504 1.07407 0.10972
 O82 O 0.04609 0.87802 0.10631
 O83 O 0.07246 0.95747 0.04984
 C84 C 0.06952 0.90653 0.09082
 Zr85 Zr 0.00598 0.90457 0.07815
 O86 O 0.01054 0.90156 0.17699
 O87 O 0.00793 0.79072 0.07245
 Zr88 Zr -0.00229 1.08616 0.08239
 O89 O 0.00126 1.09286 0.18127
 O90 O -0.01048 1.19792 0.07880
 O91 O -0.02196 0.98670 0.09428
 O92 O 0.02540 1.00331 0.09061
 O93 O 0.04381 0.88440 -0.11503
 O94 O 0.07121 0.96186 -0.05759
 C95 C 0.06751 0.91323 -0.10092
 O96 O -0.04459 1.10670 -0.10953
 O97 O -0.07066 1.03118 -0.04874
 C98 C -0.06787 1.07760 -0.09336
 O99 O 0.03125 1.13832 -0.11021
 O100 O 0.06533 1.08206 -0.05579
 C101 C 0.05691 1.12663 -0.09808
 O102 O -0.03296 0.86741 -0.11866
 O103 O -0.06528 0.91495 -0.05266
 C104 C -0.05820 0.87666 -0.10119
 Zr105 Zr 0.00410 0.90637 -0.07865
 O106 O 0.00547 0.89574 -0.17746
 O107 O 0.00610 0.79270 -0.07173
 Zr108 Zr -0.00459 1.08837 -0.07446
 O109 O -0.00407 1.09805 -0.17337
 O110 O -0.01237 1.20000 -0.06452
 Zr111 Zr -0.03991 0.98160 0.00420
 Zr112 Zr 0.04147 1.01085 -0.00082
 O113 O 0.02281 1.00581 -0.09000
 O114 O -0.02424 0.98909 -0.08779
 O115 O 0.03035 0.90054 -0.00204
 O116 O -0.02818 1.09121 0.00581
 O117 O -0.01854 0.88388 0.00073
 O118 O 0.02065 1.10991 0.00264
 H119 H 0.03778 1.00639 0.12746
 H120 H -0.04285 1.12773 0.00768
 H121 H 0.03391 1.01025 -0.12871
 H122 H -0.02961 0.83868 0.00028
 H123 H 0.00609 1.22244 0.06219
 H124 H 0.00475 1.22372 -0.04956
 H125 H -0.01493 1.05716 -0.19087
 H126 H 0.00170 0.94404 -0.19444
 H127 H 0.02540 0.78021 -0.06299
 H128 H 0.02457 0.77842 0.04825
 H129 H -0.00479 0.92893 0.19568
 H130 H -0.00822 1.04996 0.19844
 O131 O 0.46402 0.40343 0.13278
 O132 O 0.43311 0.45146 0.06435
 C133 C 0.43916 0.41894 0.11606
 O134 O 0.53971 0.64924 0.09697
 O135 O 0.56984 0.57502 0.04584
 C136 C 0.56438 0.62847 0.08343
 O137 O 0.46259 0.63702 0.10611
 O138 O 0.43249 0.56495 0.05053
 C139 C 0.43795 0.61391 0.09268
 O140 O 0.54038 0.39040 0.12102
 O141 O 0.57010 0.45136 0.05671
 C142 C 0.56492 0.40826 0.10297
 Zr143 Zr 0.50179 0.42225 0.08638
 O144 O 0.50491 0.42139 0.18531
 O145 O 0.49792 0.30842 0.08808
 Zr146 Zr 0.50117 0.60508 0.06972
 O147 O 0.50438 0.62451 0.16754
 O148 O 0.49740 0.71705 0.05396
 O149 O 0.47775 0.51427 0.09116
 O150 O 0.52508 0.51643 0.08931
 O151 O 0.53973 0.36602 -0.10320
 O152 O 0.56994 0.44083 -0.05057
 C153 C 0.56438 0.39015 -0.09116
 O154 O 0.46161 0.60120 -0.12922
 O155 O 0.43188 0.54747 -0.06031
 C156 C 0.43708 0.58198 -0.11164
 O157 O 0.53868 0.61870 -0.12330
 O158 O 0.56930 0.55966 -0.06076
 C159 C 0.56344 0.60121 -0.10729
 O160 O 0.46231 0.36690 -0.10575
 O161 O 0.43237 0.43405 -0.04716
 C162 C 0.43767 0.38654 -0.09034
 Zr163 Zr 0.50100 0.40109 -0.06961
 O164 O 0.50230 0.37367 -0.16607
 O165 O 0.49895 0.28976 -0.04896
 Zr166 Zr 0.50029 0.58415 -0.08654
 O167 O 0.50263 0.58268 -0.18566
 O168 O 0.49611 0.69761 -0.08901
 Zr169 Zr 0.46044 0.50100 0.00098
 Zr170 Zr 0.54193 0.50536 -0.00111
 O171 O 0.52383 0.49257 -0.09064
 O172 O 0.47680 0.48952 -0.09010
 O173 O 0.52638 0.39933 0.00889
 O174 O 0.47637 0.60606 -0.00912
 O175 O 0.47702 0.39755 0.01037
 O176 O 0.52557 0.60961 -0.01039
 H177 H 0.53739 0.52184 0.12609
 H178 H 0.46301 0.64562 -0.01302
 H179 H 0.53509 0.48914 -0.12920
 H180 H 0.46383 0.35686 0.01497
 H181 H 0.51438 0.73358 0.03285
 H182 H 0.51419 0.71930 -0.07834
 H183 H 0.49435 0.53643 -0.19998
 H184 H 0.49550 0.41601 -0.18888
 H185 H 0.51784 0.27401 -0.03970
 H186 H 0.51573 0.28821 0.07492
 H187 H 0.50460 0.47234 0.19934
 H188 H 0.49223 0.58904 0.18845
 C189 C 0.35353 0.39452 0.30189
 C190 C 0.33078 0.34808 0.29527
 C191 C 0.31282 0.33736 0.34561
 C192 C 0.31714 0.37365 0.40322
 C193 C 0.33876 0.42440 0.40780
 C194 C 0.35692 0.43412 0.35790
 C195 C 0.37498 0.39732 0.25289
 C196 C 0.40249 0.38714 0.26959
 C197 C 0.42312 0.39035 0.22437
 C198 C 0.41675 0.40483 0.16141
 C199 C 0.38908 0.41357 0.14443
 C200 C 0.36834 0.40925 0.18975
 H201 H 0.29657 0.29742 0.34056
 H202 H 0.34221 0.45490 0.45074
 H203 H 0.44418 0.38393 0.23930
 H204 H 0.38350 0.42523 0.09643
 H205 H 0.37403 0.47145 0.36349
 H206 H 0.40805 0.37681 0.31789
 H207 H 0.32783 0.31693 0.25247
 H208 H 0.34722 0.41715 0.17587
 C209 C -0.13728 0.77421 0.28281
 C210 C -0.13033 0.73028 0.33365
 C211 C -0.14789 0.72310 0.38480
 C212 C -0.17348 0.75754 0.38595
 C213 C -0.18163 0.79552 0.33217
 C214 C -0.16352 0.80497 0.28184
 C215 C -0.11633 0.79255 0.23436
 C216 C -0.08851 0.79850 0.25149
 C217 C -0.06879 0.82039 0.20830
 C218 C -0.07633 0.83859 0.14697
 C219 C -0.10398 0.83191 0.12901
 C220 C -0.12377 0.80846 0.17213
 H221 H -0.14134 0.68997 0.42348
 H222 H -0.20099 0.82351 0.33098
 H223 H -0.04775 0.82652 0.22411
 H224 H -0.11035 0.84591 0.08201
 H225 H -0.16961 0.83971 0.24393
 H226 H -0.08190 0.78921 0.29919
 H227 H -0.11091 0.70268 0.33493
 H228 H -0.14489 0.80369 0.15684
 C229 C 0.64486 0.73135 0.26092
 C230 C 0.63315 0.75736 0.31697
 C231 C 0.64883 0.76491 0.37149
 C232 C 0.67657 0.74529 0.37215
 C233 C 0.68872 0.72253 0.31558
 C234 C 0.67309 0.71603 0.26054
 C235 C 0.62697 0.71409 0.20567
 C236 C 0.63213 0.65340 0.16741
 C237 C 0.61273 0.62939 0.12328
 C238 C 0.58742 0.66411 0.11757
 C239 C 0.58320 0.72808 0.15189
 C240 C 0.60288 0.75327 0.19481
 H241 H 0.63891 0.78408 0.41381
 H242 H 0.71001 0.70661 0.31438
 H243 H 0.61683 0.58081 0.09665
 H244 H 0.56415 0.75704 0.14767
 H245 H 0.68301 0.69713 0.21816
 H246 H 0.65032 0.62145 0.17404
 H247 H 0.61148 0.76871 0.31994
 H248 H 0.59860 0.80186 0.22144
 C249 C 0.14490 1.21239 0.26938
 C250 C 0.14759 1.28064 0.29794
 C251 C 0.16409 1.29025 0.35103
 C252 C 0.17809 1.23184 0.37638
 C253 C 0.17644 1.16423 0.34661
 C254 C 0.16006 1.15462 0.29313
 C255 C 0.12426 1.19965 0.21939
 C256 C 0.13056 1.15820 0.16603
 C257 C 0.11000 1.13864 0.12316
 C258 C 0.08258 1.15847 0.13378
 C259 C 0.07665 1.20344 0.18536
 C260 C 0.09732 1.22412 0.22756
 H261 H 0.16505 1.34256 0.37399
 H262 H 0.18679 1.11837 0.36636
 H263 H 0.11540 1.10495 0.08338
 H264 H 0.05583 1.21983 0.19491
 H265 H 0.15801 1.10124 0.27245
 H266 H 0.15126 1.13935 0.15843
 H267 H 0.13626 1.32601 0.28025
 H268 H 0.09192 1.25586 0.26861
 C269 C 0.64861 0.34861 -0.27497
 C270 C 0.67059 0.30090 -0.27376
 C271 C 0.68739 0.29257 -0.32655
 C272 C 0.68256 0.33205 -0.38206
 C273 C 0.66162 0.38417 -0.38023
 C274 C 0.64473 0.39160 -0.32776
 C275 C 0.62816 0.34961 -0.22401
 C276 C 0.63502 0.37428 -0.16350
 C277 C 0.61453 0.38254 -0.11795
 C278 C 0.58696 0.36555 -0.13231
 C279 C 0.58065 0.33637 -0.19184
 C280 C 0.60100 0.32909 -0.23733
 H281 H 0.70267 0.25084 -0.32476
 H282 H 0.65795 0.41961 -0.41924
 H283 H 0.62001 0.40573 -0.07271
 H284 H 0.55967 0.32348 -0.20484
 H285 H 0.62816 0.42998 -0.32886
 H286 H 0.65592 0.39049 -0.15256
 H287 H 0.67378 0.26707 -0.23332
 H288 H 0.59542 0.30950 -0.28376
 C289 C 0.15332 0.85658 -0.27871
 C290 C 0.17091 0.79743 -0.28077
 C291 C 0.18736 0.78496 -0.33355
 C292 C 0.18563 0.82982 -0.38662
 C293 C 0.16863 0.89084 -0.38263
 C294 C 0.15293 0.90432 -0.32915
 C295 C 0.13375 0.86632 -0.22659
 C296 C 0.13374 0.93075 -0.19166
 C297 C 0.11299 0.94389 -0.14799
 C298 C 0.09146 0.89367 -0.13977
 C299 C 0.09195 0.82827 -0.17357
 C300 C 0.11313 0.81437 -0.21613
 H301 H 0.19975 0.73693 -0.33427
 H302 H 0.16746 0.92891 -0.42068
 H303 H 0.11304 0.99501 -0.12303
 H304 H 0.07561 0.78876 -0.16823
 H305 H 0.13960 0.95066 -0.32819
 H306 H 0.14938 0.97164 -0.19945
 H307 H 0.17145 0.76002 -0.24209
 H308 H 0.11269 0.76465 -0.24323
 C309 C 0.34954 0.59954 -0.29366
 C310 C 0.35323 0.56182 -0.35021
 C311 C 0.33559 0.57232 -0.40075
 C312 C 0.31409 0.62268 -0.39694
 C313 C 0.30879 0.65438 -0.33751
 C314 C 0.32641 0.64300 -0.28658
 C315 C 0.37132 0.59886 -0.24519
 C316 C 0.36541 0.58425 -0.18208
 C317 C 0.38663 0.58147 -0.13769
 C318 C 0.41404 0.59450 -0.15559
 C319 C 0.41963 0.61175 -0.21843
 C320 C 0.39856 0.61341 -0.26268
 H321 H 0.33937 0.54152 -0.44319
 H322 H 0.29272 0.69343 -0.33111
 H323 H 0.38165 0.56758 -0.08972
 H324 H 0.44047 0.62145 -0.23411
 H325 H 0.32306 0.67224 -0.24305
 H326 H 0.34452 0.57293 -0.16761
 H327 H 0.37037 0.52571 -0.35590
 H328 H 0.40357 0.62577 -0.31097
 C329 C -0.15679 1.11875 -0.26583
 C330 C -0.16090 1.06096 -0.30805
 C331 C -0.17737 1.06933 -0.36119
 C332 C -0.19033 1.13524 -0.37223
 C333 C -0.18752 1.19142 -0.32783
 C334 C -0.17069 1.18344 -0.27534
 C335 C -0.13603 1.11364 -0.21567
 C336 C -0.13646 1.05555 -0.17414
 C337 C -0.11514 1.04704 -0.13116
 C338 C -0.09251 1.09484 -0.13053
 C339 C -0.09265 1.15457 -0.17052
 C340 C -0.11439 1.16427 -0.21229
 H341 H -0.17922 1.02528 -0.39477
 H342 H -0.19705 1.24300 -0.33564
 H343 H -0.11579 1.00110 -0.10040
 H344 H -0.07561 1.19258 -0.17082
 H345 H -0.16786 1.22847 -0.24311
 H346 H -0.15301 1.01602 -0.17587
 H347 H -0.15018 1.01074 -0.30169
 H348 H -0.11362 1.20936 -0.24418
 C349 C 0.64474 0.66832 -0.29276
 C350 C 0.65973 0.73309 -0.29666
 C351 C 0.67625 0.74661 -0.34886
 C352 C 0.67743 0.69631 -0.39842
 C353 C 0.66271 0.63108 -0.39415
 C354 C 0.64672 0.61681 -0.34124
 C355 C 0.62578 0.65599 -0.24011
 C356 C 0.62848 0.59505 -0.20240
 C357 C 0.60908 0.58029 -0.15600
 C358 C 0.58618 0.62482 -0.14806
 C359 C 0.58391 0.68688 -0.18478
 C360 C 0.60379 0.70286 -0.22995
 H361 H 0.68735 0.79742 -0.35167
 H362 H 0.66335 0.59178 -0.43208
 H363 H 0.61125 0.53200 -0.12854
 H364 H 0.56646 0.72200 -0.17958
 H365 H 0.63508 0.56678 -0.33911
 H366 H 0.64530 0.55825 -0.20971
 H367 H 0.65840 0.77335 -0.25963
 H368 H 0.60137 0.75003 -0.25892
 C369 C 0.13491 1.20797 -0.28719
 C370 C 0.12899 1.17476 -0.34495
 C371 C 0.14600 1.18526 -0.39661
 C372 C 0.16946 1.23093 -0.39300
 C373 C 0.17561 1.26259 -0.33365
 C374 C 0.15865 1.25076 -0.28150
 C375 C 0.11573 1.19817 -0.23404
 C376 C 0.08758 1.20782 -0.24374
 C377 C 0.06869 1.18963 -0.19736
 C378 C 0.07746 1.16031 -0.14023
 C379 C 0.10580 1.15450 -0.12901
 C380 C 0.12483 1.17378 -0.17548
 H381 H 0.14084 1.15509 -0.43869
 H382 H 0.19270 1.29936 -0.32700
 H383 H 0.04708 1.19464 -0.20799
 H384 H 0.11321 1.13222 -0.08549
 H385 H 0.16359 1.27694 -0.23717
 H386 H 0.08010 1.22715 -0.28831
 H387 H 0.11117 1.13970 -0.35002
 H388 H 0.14648 1.16602 -0.16700
 C389 C 0.35077 0.32093 -0.26377
 C390 C 0.33780 0.38375 -0.28428
 C391 C 0.32090 0.38170 -0.33708
 C392 C 0.31643 0.31678 -0.36983
 C393 C 0.32838 0.25329 -0.34831
 C394 C 0.34559 0.25539 -0.29567
 C395 C 0.37144 0.32607 -0.21293
 C396 C 0.36661 0.36923 -0.15969
 C397 C 0.38772 0.38457 -0.11721
 C398 C 0.41423 0.35765 -0.12742
 C399 C 0.41854 0.31041 -0.17839
 C400 C 0.39730 0.29463 -0.22067
 H401 H 0.31194 0.43119 -0.35363
 H402 H 0.32524 0.20291 -0.37364
 H403 H 0.38357 0.42071 -0.07822
 H404 H 0.43867 0.28865 -0.18761
 H405 H 0.35530 0.20626 -0.28065
 H406 H 0.34676 0.39342 -0.15225
 H407 H 0.34175 0.43517 -0.26125
 H408 H 0.40162 0.26156 -0.26158
 C409 C -0.14270 0.79050 -0.27767
 C410 C -0.13989 0.73084 -0.31819
 C411 C -0.15676 0.72268 -0.37069
 C412 C -0.17699 0.77360 -0.38367
 C413 C -0.18120 0.83061 -0.34100
 C414 C -0.16413 0.83908 -0.28836
 C415 C -0.12155 0.80566 -0.22894
 C416 C -0.09372 0.79651 -0.24367
 C417 C -0.07330 0.81625 -0.20083
 C418 C -0.08012 0.84581 -0.14199
 C419 C -0.10799 0.85197 -0.12594
 C420 C -0.12853 0.83270 -0.16926
 H421 H -0.15346 0.67763 -0.40244
 H422 H -0.19666 0.87063 -0.35019
 H423 H -0.05209 0.81097 -0.21505
 H424 H -0.11393 0.87356 -0.08061
 H425 H -0.16672 0.88572 -0.25807
 H426 H -0.08761 0.77693 -0.28958
 H427 H -0.12398 0.69168 -0.31045
 H428 H -0.14982 0.83963 -0.15639
 C429 C 0.35317 0.67378 0.27115
 C430 C 0.34115 0.61034 0.29468
 C431 C 0.32461 0.61278 0.34799
 C432 C 0.31948 0.67872 0.37810
 C433 C 0.33054 0.74260 0.35349
 C434 C 0.34749 0.74009 0.30059
 C435 C 0.37317 0.66914 0.21914
 C436 C 0.36795 0.62364 0.16737
 C437 C 0.38850 0.60985 0.12352
 C438 C 0.41483 0.64069 0.13095
 C439 C 0.41947 0.68992 0.18056
 C440 C 0.39879 0.70416 0.22417
 H441 H 0.31611 0.56311 0.36640
 H442 H 0.32681 0.79392 0.37646
 H443 H 0.38412 0.57200 0.08569
 H444 H 0.43949 0.71460 0.18767
 H445 H 0.35646 0.78969 0.28317
 H446 H 0.34824 0.59666 0.16210
 H447 H 0.34541 0.55849 0.27325
 H448 H 0.40339 0.73908 0.26396
 C449 C -0.15010 1.12663 0.29090
 C450 C -0.15256 1.07325 0.33666
 C451 C -0.16880 1.08450 0.38967
 C452 C -0.18365 1.14889 0.39767
 C453 C -0.18205 1.20084 0.34970
 C454 C -0.16508 1.19027 0.29756
 C455 C -0.13039 1.11738 0.23890
 C456 C -0.13095 1.05451 0.20169
 C457 C -0.11041 1.04226 0.15725
 C458 C -0.08861 1.09189 0.15034
 C459 C -0.08853 1.15573 0.18640
 C460 C -0.10941 1.16872 0.22984
 H461 H -0.17010 1.04168 0.42376
 H462 H -0.19241 1.25194 0.35394
 H463 H -0.11097 0.99243 0.13033
 H464 H -0.07200 1.19488 0.18199
 H465 H -0.16333 1.23228 0.26278
 H466 H -0.14699 1.01428 0.20797
 H467 H -0.14118 1.02360 0.33237
 H468 H -0.10851 1.21730 0.25847
 C469 C 0.64933 0.33315 0.27816
 C470 C 0.65661 0.26315 0.29587
 C471 C 0.67267 0.25245 0.34935
 C472 C 0.68119 0.31151 0.38652
 C473 C 0.67455 0.38154 0.36790
 C474 C 0.65897 0.39233 0.31384
 C475 C 0.62959 0.34461 0.22653
 C476 C 0.63447 0.39770 0.18124
 C477 C 0.61408 0.41493 0.13784
 C478 C 0.58816 0.38104 0.14035
 C479 C 0.58388 0.32531 0.18362
 C480 C 0.60445 0.30694 0.22596
 H481 H 0.67750 0.19800 0.36314
 H482 H 0.68102 0.42778 0.39595
 H483 H 0.61822 0.45695 0.10424
 H484 H 0.56426 0.29749 0.18625
 H485 H 0.65339 0.44676 0.30150
 H486 H 0.65382 0.42702 0.18052
 H487 H 0.64941 0.21678 0.26898
 H488 H 0.60016 0.26595 0.26055
 C489 C 0.15277 0.83925 0.27054
 C490 C 0.15836 0.89607 0.31300
 C491 C 0.17302 0.88372 0.36818
 C492 C 0.18264 0.81449 0.38172
 C493 C 0.17782 0.75816 0.33836
 C494 C 0.16292 0.77034 0.28344
 C495 C 0.13432 0.85070 0.21623
 C496 C 0.11267 0.80188 0.20420
 C497 C 0.09256 0.81779 0.15997
 C498 C 0.09379 0.88258 0.12635
 C499 C 0.11658 0.92875 0.13481
 C500 C 0.13656 0.91330 0.17981
 H501 H 0.17666 0.92819 0.40062
 H502 H 0.18485 0.70419 0.34786
 H503 H 0.07530 0.78092 0.15431
 H504 H 0.11814 0.97884 0.10948
 H505 H 0.15895 0.72563 0.25147
 H506 H 0.11031 0.75347 0.23176
 H507 H 0.15048 0.94950 0.30472
 H508 H 0.15324 0.95144 0.18763
   
