data_POSCAR
  _audit_creation_date              2014-09-24
  _audit_creation_method            'ToBaCCo'
  _symmetry_space_group_name_H-M    'P1'
  _symmetry_Int_Tables_number       1
  _symmetry_cell_setting            triclinic
  loop_
  _symmetry_equiv_pos_as_xyz
 x,y,z
_cell_length_a 27.3155
_cell_length_b 27.1120
_cell_length_c 62.8379
_cell_angle_alpha 92.524000
_cell_angle_beta 85.956700
_cell_angle_gamma 120.369800
loop_
  _atom_site_label
  _atom_site_type_symbol
  _atom_site_fract_x
  _atom_site_fract_y
  _atom_site_fract_z
C1 C -0.01526 0.01215 0.53970
 H2 H -0.00085 -0.01502 0.54545
 C3 C -0.01251 0.05626 0.55276
 H4 H 0.00235 0.06143 0.56869
 C5 C -0.04757 0.04166 0.51149
 H6 H -0.05862 0.03722 0.49504
 C7 C -0.04598 0.08617 0.52415
 H8 H -0.05664 0.11546 0.51745
 N9 N -0.03177 0.00613 0.51936
 C10 C 0.04582 -0.09297 0.51328
 H11 H 0.07875 -0.06579 0.50168
 C12 C 0.05240 -0.13199 0.52488
 H13 H 0.09071 -0.13438 0.52208
 C14 C -0.04542 -0.12509 0.53023
 H15 H -0.08365 -0.12232 0.53206
 C16 C -0.04044 -0.16409 0.54224
 H17 H -0.07469 -0.19025 0.55364
 Zn18 Zn -0.01854 -0.04277 0.50052
 N19 N -0.00254 -0.09021 0.51625
 C20 C 0.09382 0.04283 0.48950
 N21 N 0.04247 0.00590 0.48160
 C22 C 0.03148 0.00970 0.46114
 C23 C 0.07241 0.05300 0.44795
 C24 C 0.13635 0.08643 0.47672
 C25 C -0.13278 -0.09628 0.48577
 C26 C -0.17691 -0.13763 0.47375
 C27 C -0.11448 -0.17200 0.46026
 C28 C -0.07197 -0.13003 0.47233
 N29 N -0.08156 -0.09331 0.48474
 H30 H 0.10083 0.03995 0.50602
 H31 H -0.01012 -0.01886 0.45535
 H32 H 0.06243 0.05647 0.43190
 H33 H 0.17640 0.11670 0.48339
 H34 H -0.13986 -0.06736 0.49615
 H35 H -0.21743 -0.13957 0.47588
 H36 H -0.10257 -0.19754 0.44992
 H37 H -0.03057 -0.12637 0.47175
 C38 C 0.00875 -0.16837 0.53957
 C39 C -0.02669 0.09471 0.54485
 C40 C -0.16894 -0.17748 0.46071
 C41 C 0.12516 0.09266 0.45585
 C42 C 1.03161 0.01823 0.12727
 H43 H 1.00539 0.03326 0.12131
 C44 C 1.07598 0.02038 0.11414
 H45 H 1.08249 0.03558 0.09796
 C46 C 1.05776 -0.01598 0.15597
 H47 H 1.05165 -0.02792 0.17256
 C48 C 1.10237 -0.01507 0.14328
 H49 H 1.13021 -0.02692 0.15014
 N50 N 1.02370 0.00082 0.14784
 C51 C 0.92167 0.07537 0.15358
 H52 H 0.94713 0.10805 0.16492
 C53 C 0.88317 0.08159 0.14199
 H54 H 0.87945 0.11935 0.14449
 C55 C 0.89332 -0.01491 0.13726
 H56 H 0.89735 -0.05262 0.13566
 C57 C 0.85479 -0.01036 0.12534
 H58 H 0.83015 -0.04440 0.11425
 Zn59 Zn 0.97282 0.01178 0.16664
 N60 N 0.92602 0.02764 0.15093
 C61 C 1.05434 0.12508 0.17691
 N62 N 1.01875 0.07225 0.18515
 C63 C 1.02196 0.06000 0.20559
 C64 C 1.06286 0.10138 0.21848
 C65 C 1.09557 0.16803 0.18937
 C66 C 0.91901 -0.10559 0.17977
 C67 C 0.87808 -0.15275 0.19164
 C68 C 0.84578 -0.09233 0.20916
 C69 C 0.88670 -0.04678 0.19688
 N70 N 0.92254 -0.05390 0.18268
 H71 H 1.05216 0.13315 0.16040
 H72 H 0.99478 0.01727 0.21162
 H73 H 1.06567 0.09052 0.23456
 H74 H 1.12470 0.20940 0.18243
 H75 H 0.94706 -0.11057 0.16800
 H76 H 0.87510 -0.19385 0.18888
 H77 H 0.81878 -0.08498 0.22072
 H78 H 0.89017 -0.00527 0.19867
 C79 C 0.84885 0.03812 0.12771
 C80 C 1.11260 0.00458 0.12224
 C81 C 0.84060 -0.14645 0.20654
 C82 C 1.10091 0.15585 0.21028
 C83 C 0.07578 0.98671 0.86514
 H84 H 0.03354 0.94950 0.86566
 C85 C 0.11722 0.98844 0.87732
 H86 H 0.10607 0.95275 0.88756
 C87 C 0.14100 1.07813 0.85094
 H88 H 0.15019 1.11221 0.84020
 C89 C 0.18412 1.08155 0.86285
 H90 H 0.22637 1.11861 0.86124
 N91 N 0.08820 1.03093 0.85225
 C92 C -0.08556 0.98905 0.84339
 H93 H -0.08965 0.97845 0.82657
 C94 C -0.13087 0.98813 0.85558
 H95 H -0.16924 0.97654 0.84768
 C96 C -0.02808 1.02253 0.87309
 H97 H 0.01249 1.03731 0.87977
 C98 C -0.07154 1.02373 0.88570
 H99 H -0.06391 1.03683 0.90222
 Zn100 Zn 0.02875 1.01718 0.83491
 N101 N -0.03553 1.00575 0.85230
 C102 C -0.03482 0.90404 0.81586
 N103 N 0.01606 0.95288 0.81788
 C104 C 0.06439 0.95884 0.80782
 C105 C 0.06304 0.91504 0.79502
 C106 C -0.03836 0.85932 0.80274
 C107 C 0.06149 1.13092 0.82596
 C108 C 0.06526 1.17441 0.81355
 C109 C 0.04083 1.11065 0.78300
 C110 C 0.03822 1.06873 0.79589
 N111 N 0.04755 1.07916 0.81702
 H112 H -0.07264 0.89962 0.82430
 H113 H 0.10441 0.99784 0.80995
 H114 H 0.10267 0.92068 0.78780
 H115 H -0.07945 0.82144 0.80087
 H116 H 0.06722 1.13754 0.84292
 H117 H 0.07449 1.21478 0.82100
 H118 H 0.03168 1.10115 0.76634
 H119 H 0.02579 1.02690 0.78920
 C120 C -0.12403 1.00708 0.87704
 C121 C 0.17254 1.03583 0.87604
 C122 C 0.05333 1.16382 0.79192
 C123 C 0.01112 0.86451 0.79204
 O124 O 0.48380 0.08415 0.02085
 O125 O 0.58724 0.08173 -0.01981
 O126 O 0.49291 0.08479 -0.02048
 O127 O 0.58183 0.08880 0.02148
 O128 O 0.53619 -0.00545 0.02190
 O129 O 0.44489 -0.00946 -0.01954
 O130 O 0.53836 -0.01264 -0.01965
 O131 O 0.43852 -0.01006 0.02190
 Cu132 Cu 0.54117 0.09430 0.00045
 Cu133 Cu 0.48488 -0.01879 0.00124
 C134 C 0.44320 0.03714 0.02823
 C135 C 0.58013 0.03381 -0.02668
 C136 C 0.45320 0.03721 -0.02700
 C137 C 0.57486 0.04260 0.02872
 O138 O 0.06511 0.46456 0.64568
 O139 O 0.06593 0.56942 0.68556
 O140 O 0.07223 0.47658 0.68691
 O141 O 0.06904 0.56272 0.64441
 O142 O -0.02464 0.51685 0.64756
 O143 O -0.02142 0.42487 0.68865
 O144 O -0.02767 0.51804 0.68922
 O145 O -0.02863 0.41887 0.64751
 Cu146 Cu 0.07740 0.52301 0.66540
 Cu147 Cu -0.03493 0.46488 0.66853
 C148 C 0.01772 0.42389 0.63969
 C149 C 0.01890 0.56130 0.69420
 C150 C 0.02639 0.43546 0.69482
 C151 C 0.02208 0.55564 0.63896
 O152 O 0.50709 0.55896 0.31518
 O153 O 0.40548 0.45804 0.35591
 O154 O 0.50281 0.55431 0.35667
 O155 O 0.40665 0.46816 0.31496
 O156 O 0.44715 0.41527 0.31159
 O157 O 0.54626 0.50432 0.35265
 O158 O 0.44983 0.40879 0.35254
 O159 O 0.54840 0.50690 0.31131
 Cu160 Cu 0.45136 0.51503 0.33610
 Cu161 Cu 0.50218 0.45379 0.33160
 C162 C 0.54528 0.55001 0.30631
 C163 C 0.41042 0.41597 0.36111
 C164 C 0.54137 0.54467 0.36169
 C165 C 0.40974 0.42658 0.30633
 C166 C 0.00121 0.24211 0.58284
 C167 C -0.05092 0.20813 0.57297
 C168 C -0.05948 0.16080 0.56021
 C169 C -0.01742 0.14556 0.55769
 C170 C 0.03392 0.17891 0.56763
 C171 C 0.04333 0.22664 0.57997
 C172 C 0.00845 0.29190 0.59651
 C173 C 0.05946 0.32986 0.60628
 C174 C 0.06301 0.37382 0.61976
 C175 C 0.01584 0.38090 0.62392
 C176 C -0.03441 0.34471 0.61363
 C177 C -0.03828 0.30079 0.59989
 C178 C -0.09468 0.22073 0.57631
 C179 C -0.08876 0.26560 0.58969
 H180 H -0.13462 0.19473 0.56881
 H181 H -0.12434 0.27281 0.59211
 H182 H -0.09948 0.13477 0.55275
 H183 H 0.06719 0.16818 0.56572
 H184 H 0.10237 0.40139 0.62739
 H185 H -0.07088 0.35040 0.61646
 H186 H 0.08350 0.25026 0.58732
 H187 H 0.09695 0.32618 0.60385
 C188 C 0.71453 0.71551 0.24631
 C189 C 0.70264 0.75587 0.23811
 C190 C 0.74304 0.79923 0.22456
 C191 C 0.79641 0.80454 0.21944
 C192 C 0.80795 0.76422 0.22747
 C193 C 0.76762 0.72020 0.24065
 C194 C 0.67063 0.67068 0.26115
 C195 C 0.67755 0.62759 0.26973
 C196 C 0.63635 0.58809 0.28406
 C197 C 0.58726 0.59051 0.29032
 C198 C 0.57930 0.63242 0.28150
 C199 C 0.62024 0.67205 0.26689
 C200 C 0.65109 0.75368 0.24385
 C201 C 0.61103 0.71304 0.25809
 H202 H 0.64200 0.78461 0.23756
 H203 H 0.57227 0.71382 0.26232
 H204 H 0.73300 0.82937 0.21817
 H205 H 0.84893 0.76757 0.22405
 H206 H 0.64351 0.55604 0.29054
 H207 H 0.54121 0.63428 0.28601
 H208 H 0.77942 0.69116 0.24659
 H209 H 0.71445 0.62367 0.26567
 C210 C 0.29791 0.03340 -0.08652
 C211 C 0.29782 0.08504 -0.08900
 C212 C 0.25775 0.08609 -0.10158
 C213 C 0.21758 0.03625 -0.11185
 C214 C 0.21948 -0.01418 -0.11006
 C215 C 0.25893 -0.01572 -0.09761
 C216 C 0.33905 0.03320 -0.07197
 C217 C 0.33985 -0.01679 -0.06730
 C218 C 0.37742 -0.01520 -0.05296
 C219 C 0.41552 0.03624 -0.04303
 C220 C 0.41575 0.08646 -0.04785
 C221 C 0.37748 0.08519 -0.06197
 C222 C 0.33724 0.13510 -0.07873
 C223 C 0.37653 0.13528 -0.06566
 H224 H 0.33756 0.17477 -0.08074
 H225 H 0.40594 0.17510 -0.05800
 H226 H 0.25681 0.12534 -0.10285
 H227 H 0.19015 -0.05286 -0.11833
 H228 H 0.37632 -0.05456 -0.04953
 H229 H 0.44463 0.12642 -0.04012
 H230 H 0.25792 -0.05587 -0.09685
 H231 H 0.31122 -0.05777 -0.07421
 C232 C 0.02257 0.71294 0.57895
 C233 C -0.03005 0.69832 0.57072
 C234 C -0.03364 0.73621 0.55727
 C235 C 0.01416 0.78978 0.55230
 C236 C 0.06636 0.80397 0.56035
 C237 C 0.07067 0.76613 0.57342
 C238 C 0.02421 0.67183 0.59370
 C239 C 0.07465 0.68165 0.60230
 C240 C 0.07367 0.64328 0.61662
 C241 C 0.02248 0.59409 0.62285
 C242 C -0.02785 0.58309 0.61398
 C243 C -0.02727 0.62126 0.59938
 C244 C -0.07911 0.64663 0.57637
 C245 C -0.07786 0.60921 0.59055
 H246 H -0.11941 0.63544 0.57005
 H247 H -0.11720 0.57030 0.59471
 H248 H -0.07408 0.72412 0.55087
 H249 H 0.10377 0.84520 0.55707
 H250 H 0.11326 0.65280 0.62312
 H251 H -0.06757 0.54491 0.61848
 H252 H 0.11176 0.77999 0.57939
 H253 H 0.11530 0.71875 0.59828
 C254 C 0.23667 0.27865 0.24824
 C255 C 0.22534 0.22169 0.24604
 C256 C 0.18094 0.18208 0.23370
 C257 C 0.14786 0.19838 0.22311
 C258 C 0.16021 0.25519 0.22471
 C259 C 0.20388 0.29487 0.23717
 C260 C 0.28293 0.31892 0.26235
 C261 C 0.29498 0.37523 0.26681
 C262 C 0.33686 0.41025 0.28075
 C263 C 0.36834 0.39045 0.29045
 C264 C 0.35759 0.33490 0.28578
 C265 C 0.31470 0.29884 0.27212
 C266 C 0.25837 0.20455 0.25611
 C267 C 0.30243 0.24243 0.26870
 H268 H 0.24999 0.16106 0.25426
 H269 H 0.32663 0.22699 0.27619
 H270 H 0.17242 0.13848 0.23211
 H271 H 0.13535 0.26869 0.21657
 H272 H 0.34433 0.45298 0.28409
 H273 H 0.38121 0.31894 0.29339
 H274 H 0.21120 0.33787 0.23790
 H275 H 0.27189 0.39275 0.26006
 C276 C 0.74533 0.01788 -0.08537
 C277 C 0.80317 0.05735 -0.08224
 C278 C 0.84586 0.05298 -0.09447
 C279 C 0.83240 0.01095 -0.11064
 C280 C 0.77458 -0.02622 -0.11435
 C281 C 0.73180 -0.02319 -0.10183
 C282 C 0.70113 0.02202 -0.07109
 C283 C 0.64283 -0.01921 -0.07115
 C284 C 0.60364 -0.01467 -0.05692
 C285 C 0.62131 0.03156 -0.04260
 C286 C 0.67903 0.07336 -0.04261
 C287 C 0.71911 0.06815 -0.05632
 C288 C 0.81822 0.10159 -0.06714
 C289 C 0.77708 0.10751 -0.05476
 H290 H 0.86258 0.13241 -0.06495
 H291 H 0.79095 0.14261 -0.04337
 H292 H 0.88979 0.08448 -0.09194
 H293 H 0.76172 -0.05973 -0.12634
 H294 H 0.55925 -0.04763 -0.05706
 H295 H 0.69306 0.10850 -0.03122
 H296 H 0.68842 -0.05333 -0.10536
 H297 H 0.62682 -0.05603 -0.08163
 C298 C 0.25985 0.02706 0.08405
 C299 C 0.22426 -0.02469 0.09511
 C300 C 0.17679 -0.03154 0.10780
 C301 C 0.16309 0.01188 0.10916
 C302 C 0.19793 0.06276 0.09798
 C303 C 0.24576 0.07046 0.08565
 C304 C 0.30996 0.03258 0.07060
 C305 C 0.34947 0.08313 0.05975
 C306 C 0.39379 0.08512 0.04657
 C307 C 0.39979 0.03682 0.04379
 C308 C 0.36199 -0.01300 0.05516
 C309 C 0.31762 -0.01532 0.06861
 C310 C 0.23552 -0.06971 0.09308
 C311 C 0.28075 -0.06538 0.07991
 H312 H 0.20825 -0.10937 0.10149
 H313 H 0.28695 -0.10187 0.07854
 H314 H 0.14960 -0.07125 0.11621
 H315 H 0.18841 0.09706 0.09895
 H316 H 0.42255 0.12418 0.03807
 H317 H 0.36673 -0.05036 0.05339
 H318 H 0.27063 0.11039 0.07734
 H319 H 0.34673 0.12146 0.06109
 C320 C 0.70512 0.69652 0.42216
 C321 C 0.70074 0.74396 0.42989
 C322 C 0.74173 0.78508 0.44319
 C323 C 0.78879 0.78085 0.44888
 C324 C 0.79080 0.73170 0.44154
 C325 C 0.75009 0.69067 0.42854
 C326 C 0.66211 0.65500 0.40723
 C327 C 0.66397 0.60741 0.39817
 C328 C 0.62429 0.57130 0.38370
 C329 C 0.58156 0.58144 0.37788
 C330 C 0.57865 0.62811 0.38713
 C331 C 0.61860 0.66494 0.40161
 C332 C 0.65603 0.75080 0.42394
 C333 C 0.61582 0.71212 0.41016
 H334 H 0.65231 0.78698 0.42988
 H335 H 0.58242 0.71970 0.40591
 H336 H 0.73809 0.82206 0.44773
 H337 H 0.82246 0.72249 0.44643
 H338 H 0.62755 0.53563 0.37686
 H339 H 0.54586 0.63651 0.38277
 H340 H 0.75478 0.65455 0.42374
 H341 H 0.69607 0.59755 0.40177
 C342 C 0.04424 0.28684 0.75369
 C343 C -0.00051 0.22924 0.75437
 C344 C 0.00310 0.18955 0.76678
 C345 C 0.05027 0.20640 0.77897
 C346 C 0.09367 0.26379 0.77889
 C347 C 0.09095 0.30357 0.76635
 C348 C 0.03983 0.32724 0.73943
 C349 C 0.08387 0.38419 0.73631
 C350 C 0.07875 0.41935 0.72215
 C351 C 0.02939 0.39908 0.71093
 C352 C -0.01529 0.34289 0.71426
 C353 C -0.01005 0.30666 0.72808
 C354 C -0.04869 0.21157 0.74275
 C355 C -0.05363 0.24959 0.73008
 H356 H -0.08319 0.16758 0.74346
 H357 H -0.09173 0.23373 0.72138
 H358 H -0.03126 0.14543 0.76719
 H359 H 0.13025 0.27770 0.78831
 H360 H 0.11387 0.46259 0.71986
 H361 H -0.05327 0.32661 0.70542
 H362 H 0.12574 0.34707 0.76685
 H363 H 0.12310 0.40209 0.74427
 C364 C 0.73067 0.04913 0.08870
 C365 C 0.71669 -0.00334 0.09798
 C366 C 0.75444 -0.00595 0.11129
 C367 C 0.80713 0.04273 0.11519
 C368 C 0.82054 0.09491 0.10626
 C369 C 0.78287 0.09822 0.09324
 C370 C 0.68994 0.04951 0.07396
 C371 C 0.69949 0.09945 0.06403
 C372 C 0.66150 0.09711 0.04973
 C373 C 0.61302 0.04500 0.04487
 C374 C 0.60232 -0.00475 0.05508
 C375 C 0.64012 -0.00284 0.06959
 C376 C 0.66578 -0.05327 0.09355
 C377 C 0.62852 -0.05310 0.07955
 H378 H 0.65504 -0.09342 0.10071
 H379 H 0.59019 -0.09309 0.07636
 H380 H 0.74298 -0.04635 0.11842
 H381 H 0.86105 0.13303 0.10881
 H382 H 0.67076 0.13626 0.04216
 H383 H 0.56474 -0.04519 0.05162
 H384 H 0.79605 0.13933 0.08656
 H385 H 0.73616 0.14068 0.06694
 C386 C 0.24477 0.23716 0.41762
 C387 C 0.26268 0.20346 0.42755
 C388 C 0.22381 0.15703 0.44035
 C389 C 0.16662 0.14229 0.44280
 C390 C 0.14875 0.17506 0.43267
 C391 C 0.18722 0.22202 0.42033
 C392 C 0.28753 0.28626 0.40405
 C393 C 0.27497 0.32440 0.39448
 C394 C 0.31553 0.36772 0.38110
 C395 C 0.36938 0.37388 0.37684
 C396 C 0.38301 0.33756 0.38696
 C397 C 0.34288 0.29441 0.40065
 C398 C 0.31884 0.21540 0.42423
 C399 C 0.35783 0.25934 0.41082
 H400 H 0.33256 0.18955 0.43176
 H401 H 0.40043 0.26601 0.40839
 H402 H 0.23763 0.13133 0.44793
 H403 H 0.10479 0.16455 0.43448
 H404 H 0.30413 0.39545 0.37360
 H405 H 0.42493 0.34265 0.38407
 H406 H 0.17083 0.24530 0.41283
 H407 H 0.23409 0.32138 0.39700
 C408 C 0.00953 0.72952 0.75204
 C409 C 0.04899 0.78756 0.74752
 C410 C 0.04772 0.83094 0.76012
 C411 C 0.00936 0.81787 0.77799
 C412 C -0.02902 0.76015 0.78267
 C413 C -0.02924 0.71657 0.76984
 C414 C 0.01150 0.68457 0.73780
 C415 C -0.02906 0.62591 0.73964
 C416 C -0.02609 0.58594 0.72563
 C417 C 0.01791 0.60324 0.70973
 C418 C 0.05883 0.66135 0.70787
 C419 C 0.05520 0.70212 0.72141
 C420 C 0.09027 0.80212 0.73071
 C421 C 0.09396 0.76030 0.71818
 H422 H 0.12082 0.84660 0.72737
 H423 H 0.12707 0.77380 0.70552
 H424 H 0.07705 0.87513 0.75594
 H425 H -0.05828 0.74839 0.79657
 H426 H -0.05840 0.54126 0.72722
 H427 H 0.09220 0.67509 0.69527
 H428 H -0.05928 0.67310 0.77440
 H429 H -0.06405 0.61015 0.75146
   
