data_POSCAR
  _audit_creation_date              2014-09-24
  _audit_creation_method            'ToBaCCo'
  _symmetry_space_group_name_H-M    'P1'
  _symmetry_Int_Tables_number       1
  _symmetry_cell_setting            triclinic
  loop_
  _symmetry_equiv_pos_as_xyz
 x,y,z
_cell_length_a 59.4909
_cell_length_b 59.3269
_cell_length_c 35.2650
_cell_angle_alpha 90.134900
_cell_angle_beta 89.858000
_cell_angle_gamma 87.263300
loop_
  _atom_site_label
  _atom_site_type_symbol
  _atom_site_fract_x
  _atom_site_fract_y
  _atom_site_fract_z
C1 C 0.00406 0.27292 0.00434
 C2 C 0.00579 0.27212 0.04292
 C3 C -0.01416 0.26922 0.06776
 C4 C 0.02792 0.27341 0.06205
 C5 C 0.02425 0.27156 -0.02075
 C6 C -0.01814 0.27429 -0.01493
 C7 C -0.01761 0.28291 0.09991
 C8 C -0.03627 0.28035 0.12338
 C9 C -0.05225 0.26428 0.11496
 C10 C -0.04825 0.25005 0.08318
 C11 C -0.02929 0.25233 0.06034
 C12 C 0.04214 0.29103 0.05414
 C13 C 0.06344 0.29132 0.07068
 C14 C 0.07070 0.27428 0.09599
 C15 C 0.05621 0.25690 0.10451
 C16 C 0.03497 0.25658 0.08783
 C17 C 0.04096 0.25421 -0.01638
 C18 C 0.05967 0.25288 -0.04043
 C19 C 0.06179 0.26862 -0.06981
 C20 C 0.04474 0.28547 -0.07496
 C21 C 0.02619 0.28701 -0.05053
 C22 C -0.02279 0.25848 -0.04310
 C23 C -0.04361 0.25927 -0.06122
 C24 C -0.06014 0.27613 -0.05184
 C25 C -0.05549 0.29194 -0.02359
 C26 C -0.03457 0.29118 -0.00552
 H27 H -0.00594 0.29580 0.10665
 H28 H -0.03843 0.29142 0.14775
 H29 H -0.05913 0.23663 0.07600
 H30 H -0.02642 0.24081 0.03676
 H31 H 0.03687 0.30436 0.03472
 H32 H 0.07430 0.30484 0.06359
 H33 H 0.02427 0.24280 0.09417
 H34 H 0.03941 0.24157 0.00544
 H35 H 0.07214 0.23920 -0.03655
 H36 H 0.04589 0.29761 -0.09770
 H37 H 0.01334 0.30031 -0.05480
 H38 H -0.01040 0.24522 -0.05055
 H39 H -0.04681 0.24632 -0.08189
 H40 H -0.06799 0.30500 -0.01573
 H41 H -0.03121 0.30369 0.01588
 H42 H 0.06140 0.24313 0.12302
 C43 C 0.48969 0.76967 0.47090
 C44 C 0.48979 0.77194 0.50944
 C45 C 0.46843 0.77206 0.53127
 C46 C 0.51087 0.77313 0.53195
 C47 C 0.51076 0.76574 0.44857
 C48 C 0.46806 0.77006 0.44967
 C49 C 0.46114 0.79123 0.55202
 C50 C 0.44064 0.79160 0.57155
 C51 C 0.42745 0.77261 0.57141
 C52 C 0.43494 0.75331 0.55088
 C53 C 0.45528 0.75305 0.53103
 C54 C 0.52759 0.78813 0.52245
 C55 C 0.54741 0.78864 0.54376
 C56 C 0.55069 0.77436 0.57529
 C57 C 0.53366 0.75992 0.58530
 C58 C 0.51403 0.75925 0.56385
 C59 C 0.52691 0.74884 0.45896
 C60 C 0.54718 0.74615 0.43903
 C61 C 0.55140 0.75975 0.40756
 C62 C 0.53489 0.77611 0.39625
 C63 C 0.51473 0.77902 0.41657
 C64 C 0.46240 0.75126 0.42817
 C65 C 0.44117 0.75049 0.41139
 C66 C 0.42525 0.76871 0.41547
 C67 C 0.43126 0.78777 0.43613
 C68 C 0.45250 0.78853 0.45278
 H69 H 0.47113 0.80602 0.55245
 H70 H 0.43514 0.80668 0.58701
 H71 H 0.42491 0.73859 0.54942
 H72 H 0.46073 0.73809 0.51521
 H73 H 0.52528 0.79946 0.49860
 H74 H 0.55986 0.80049 0.53587
 H75 H 0.50137 0.74763 0.57195
 H76 H 0.52397 0.73795 0.48289
 H77 H 0.55962 0.73340 0.44823
 H78 H 0.53778 0.78716 0.37255
 H79 H 0.50246 0.79206 0.40791
 H80 H 0.47413 0.73679 0.42565
 H81 H 0.43711 0.73527 0.39651
 H82 H 0.41937 0.80202 0.43974
 H83 H 0.45664 0.80331 0.46894
 H84 H 0.53565 0.74889 0.60962
 C85 C 0.99252 0.73910 -0.02941
 C86 C 0.98989 0.73973 0.00898
 C87 C 1.00936 0.74012 0.03531
 C88 C 0.96719 0.73986 0.02630
 C89 C 0.97293 0.73958 -0.05566
 C90 C 1.01510 0.73732 -0.04709
 C91 C 1.01182 0.72391 0.06414
 C92 C 1.03007 0.72412 0.08908
 C93 C 1.04630 0.74039 0.08545
 C94 C 1.04345 0.75704 0.05731
 C95 C 1.02504 0.75702 0.03275
 C96 C 0.95415 0.72083 0.02380
 C97 C 0.93198 0.72177 0.03724
 C98 C 0.92250 0.74192 0.05274
 C99 C 0.93569 0.76081 0.05563
 C100 C 0.95803 0.75967 0.04317
 C101 C 0.95615 0.75704 -0.05380
 C102 C 0.93739 0.75686 -0.07757
 C103 C 0.93536 0.73950 -0.10435
 C104 C 0.95263 0.72266 -0.10745
 C105 C 0.97117 0.72260 -0.08315
 C106 C 1.02428 0.75647 -0.06286
 C107 C 1.04547 0.75497 -0.08007
 C108 C 1.05754 0.73397 -0.08315
 C109 C 1.04781 0.71469 -0.06831
 C110 C 1.02699 0.71643 -0.04977
 H111 H 0.99973 0.71095 0.06707
 H112 H 1.03173 0.71129 0.11085
 H113 H 1.05518 0.77035 0.05468
 H114 H 1.02291 0.77035 0.01201
 H115 H 0.96101 0.70545 0.01072
 H116 H 0.92202 0.70707 0.03423
 H117 H 0.96789 0.77451 0.04512
 H118 H 0.95758 0.77085 -0.03398
 H119 H 0.92472 0.77053 -0.07544
 H120 H 0.95155 0.70928 -0.12822
 H121 H 0.98399 0.70908 -0.08549
 H122 H 1.01504 0.77264 -0.06159
 H123 H 1.05175 0.77016 -0.09223
 H124 H 1.05651 0.69826 -0.07044
 H125 H 1.01993 0.70143 -0.03811
 H126 H 0.92865 0.77650 0.06739
 C127 C 0.50680 0.24212 0.50476
 C128 C 0.50745 0.24140 0.54343
 C129 C 0.52883 0.24283 0.56481
 C130 C 0.48661 0.24001 0.56659
 C131 C 0.48509 0.24410 0.48401
 C132 C 0.52765 0.24140 0.48129
 C133 C 0.53393 0.22739 0.59400
 C134 C 0.55359 0.22896 0.61517
 C135 C 0.56862 0.24582 0.60724
 C136 C 0.56335 0.26157 0.57849
 C137 C 0.54351 0.26021 0.55772
 C138 C 0.47130 0.22311 0.56001
 C139 C 0.45154 0.22244 0.58145
 C140 C 0.44694 0.23850 0.61021
 C141 C 0.46265 0.25483 0.61757
 C142 C 0.48224 0.25565 0.59590
 C143 C 0.46891 0.26134 0.49286
 C144 C 0.44803 0.26222 0.47480
 C145 C 0.44323 0.24635 0.44678
 C146 C 0.45973 0.22957 0.43697
 C147 C 0.48051 0.22852 0.45541
 C148 C 0.53028 0.25767 0.45302
 C149 C 0.54987 0.25750 0.43116
 C150 C 0.56731 0.24114 0.43720
 C151 C 0.56445 0.22443 0.46483
 C152 C 0.54472 0.22450 0.48652
 H153 H 0.52267 0.21406 0.60033
 H154 H 0.55721 0.21681 0.63748
 H155 H 0.57426 0.27522 0.57259
 H156 H 0.53951 0.27282 0.53632
 H157 H 0.47466 0.21048 0.53824
 H158 H 0.44015 0.20915 0.57585
 H159 H 0.49390 0.26870 0.60168
 H160 H 0.47230 0.27385 0.51423
 H161 H 0.43558 0.27530 0.48279
 H162 H 0.45640 0.21679 0.41606
 H163 H 0.49281 0.21515 0.44811
 H164 H 0.51725 0.27074 0.44825
 H165 H 0.55155 0.27040 0.40978
 H166 H 0.57717 0.21109 0.46939
 H167 H 0.54277 0.21139 0.50742
 H168 H 0.45960 0.26723 0.63982
 C169 C 0.73612 0.00800 -0.02830
 C170 C 0.73950 0.00743 0.00996
 C171 C 0.73912 -0.01408 0.03154
 C172 C 0.74350 0.02820 0.03221
 C173 C 0.73476 0.02943 -0.05012
 C174 C 0.73431 -0.01304 -0.05057
 C175 C 0.72058 -0.02776 0.02952
 C176 C 0.72042 -0.04802 0.04963
 C177 C 0.73879 -0.05494 0.07284
 C178 C 0.75696 -0.04068 0.07575
 C179 C 0.75715 -0.02054 0.05528
 C180 C 0.73041 0.03328 0.06457
 C181 C 0.73329 0.05316 0.08493
 C182 C 0.74937 0.06833 0.07328
 C183 C 0.76273 0.06306 0.04135
 C184 C 0.76011 0.04299 0.02136
 C185 C 0.74892 0.03200 -0.08148
 C186 C 0.74869 0.05233 -0.10139
 C187 C 0.73410 0.07069 -0.09042
 C188 C 0.71948 0.06772 -0.05952
 C189 C 0.71967 0.04729 -0.03981
 C190 C 0.75284 -0.02835 -0.05442
 C191 C 0.75114 -0.04799 -0.07602
 C192 C 0.73067 -0.05280 -0.09386
 C193 C 0.71210 -0.03743 -0.08925
 C194 C 0.71402 -0.01757 -0.06841
 H195 H 0.70609 -0.02267 0.01250
 H196 H 0.70561 -0.05772 0.04712
 H197 H 0.77129 -0.04524 0.09354
 H198 H 0.77150 -0.01006 0.05769
 H199 H 0.71755 0.02209 0.07352
 H200 H 0.72240 0.05694 0.10897
 H201 H 0.77080 0.03916 -0.00293
 H202 H 0.76064 0.01838 -0.09003
 H203 H 0.76039 0.05338 -0.12466
 H204 H 0.70791 0.08132 -0.05032
 H205 H 0.70825 0.04552 -0.01615
 H206 H 0.76863 -0.02503 -0.04075
 H207 H 0.76578 -0.05945 -0.07754
 H208 H 0.69608 -0.04058 -0.10234
 H209 H 0.69956 -0.00586 -0.06567
 H210 H 0.77524 0.07449 0.03189
 C211 C 0.22126 0.49525 0.48654
 C212 C 0.22209 0.49416 0.52514
 C213 C 0.22190 0.47209 0.54499
 C214 C 0.22355 0.51451 0.54963
 C215 C 0.21944 0.51691 0.46548
 C216 C 0.22239 0.47433 0.46341
 C217 C 0.20387 0.45793 0.54043
 C218 C 0.20392 0.43715 0.55897
 C219 C 0.22176 0.43032 0.58297
 C220 C 0.23974 0.44465 0.58775
 C221 C 0.23971 0.46540 0.56905
 C222 C 0.20977 0.51685 0.58195
 C223 C 0.21164 0.53517 0.60646
 C224 C 0.22708 0.55171 0.59888
 C225 C 0.24103 0.54936 0.56671
 C226 C 0.23944 0.53079 0.54254
 C227 C 0.23465 0.52085 0.43602
 C228 C 0.23336 0.54117 0.41603
 C229 C 0.21658 0.55791 0.42481
 C230 C 0.20128 0.55386 0.45415
 C231 C 0.20255 0.53349 0.47409
 C232 C 0.24198 0.46021 0.46305
 C233 C 0.24255 0.43986 0.44297
 C234 C 0.22342 0.43329 0.42318
 C235 C 0.20392 0.44756 0.42338
 C236 C 0.20352 0.46811 0.44287
 H237 H 0.18976 0.46298 0.52252
 H238 H 0.18991 0.42641 0.55473
 H239 H 0.25409 0.43979 0.60515
 H240 H 0.25376 0.47614 0.57288
 H241 H 0.19757 0.50440 0.58831
 H242 H 0.20089 0.53653 0.63127
 H243 H 0.25086 0.52895 0.51866
 H244 H 0.24785 0.50832 0.42897
 H245 H 0.24588 0.54379 0.39444
 H246 H 0.18825 0.56649 0.46160
 H247 H 0.19040 0.53067 0.49629
 H248 H 0.25668 0.46482 0.47885
 H249 H 0.25766 0.42898 0.44401
 H250 H 0.18897 0.44274 0.40851
 H251 H 0.18826 0.47884 0.44300
 H252 H 0.25359 0.56150 0.56080
 C253 C 0.27789 0.99216 -0.01447
 C254 C 0.27636 0.99234 0.02411
 C255 C 0.27261 1.01368 0.04599
 C256 C 0.27731 0.97077 0.04547
 C257 C 0.27462 0.97104 -0.03580
 C258 C 0.28074 1.01304 -0.03689
 C259 C 0.28552 1.01783 0.07828
 C260 C 0.28259 1.03825 0.09806
 C261 C 0.26659 1.05501 0.08579
 C262 C 0.25332 1.05042 0.05400
 C263 C 0.25603 1.02990 0.03477
 C264 C 0.29579 0.95540 0.04100
 C265 C 0.29575 0.93414 0.05783
 C266 C 0.27743 0.92795 0.07997
 C267 C 0.25921 0.94370 0.08550
 C268 C 0.25924 0.96499 0.06850
 C269 C 0.25337 0.96187 -0.03623
 C270 C 0.25005 0.94181 -0.05564
 C271 C 0.26804 0.93013 -0.07421
 C272 C 0.28940 0.93959 -0.07395
 C273 C 0.29252 0.96004 -0.05526
 C274 C 0.26663 1.01803 -0.06783
 C275 C 0.26813 1.03828 -0.08756
 C276 C 0.28396 1.05411 -0.07681
 C277 C 0.29860 1.04858 -0.04657
 C278 C 0.29713 1.02824 -0.02704
 H279 H 0.29828 1.00545 0.08765
 H280 H 0.29346 1.04087 0.12198
 H281 H 0.24071 1.06275 0.04390
 H282 H 0.24531 1.02681 0.01071
 H283 H 0.31002 0.95970 0.02369
 H284 H 0.30998 0.92237 0.05311
 H285 H 0.24480 0.97662 0.07209
 H286 H 0.23935 0.97033 -0.02152
 H287 H 0.23338 0.93519 -0.05544
 H288 H 0.30365 0.93172 -0.08873
 H289 H 0.30898 0.96710 -0.05539
 H290 H 0.25390 1.00653 -0.07608
 H291 H 0.25638 1.04135 -0.11041
 H292 H 0.31111 1.06016 -0.03761
 H293 H 0.30853 1.02455 -0.00373
 H294 H 0.24455 0.93945 0.10165
 C295 C 0.76718 0.50615 0.46773
 C296 C 0.77126 0.50547 0.50572
 C297 C 0.77145 0.52640 0.52876
 C298 C 0.77525 0.48371 0.52586
 C299 C 0.76298 0.48527 0.44626
 C300 C 0.76625 0.52769 0.44625
 C301 C 0.79087 0.53169 0.54873
 C302 C 0.79152 0.55200 0.56879
 C303 C 0.77259 0.56703 0.57008
 C304 C 0.75296 0.56146 0.55072
 C305 C 0.75242 0.54130 0.53022
 C306 C 0.79224 0.46809 0.51371
 C307 C 0.79517 0.44717 0.53152
 C308 C 0.78146 0.44156 0.56221
 C309 C 0.76473 0.45746 0.57486
 C310 C 0.76178 0.47838 0.55695
 C311 C 0.74419 0.47276 0.45473
 C312 C 0.74063 0.45270 0.43529
 C313 C 0.75603 0.44462 0.40769
 C314 C 0.77461 0.45742 0.39870
 C315 C 0.77792 0.47772 0.41762
 C316 C 0.74769 0.53334 0.42311
 C317 C 0.74639 0.55384 0.40360
 C318 C 0.76380 0.56900 0.40665
 C319 C 0.78245 0.56319 0.42950
 C320 C 0.78381 0.54263 0.44877
 H321 H 0.80569 0.52037 0.54789
 H322 H 0.80686 0.55601 0.58330
 H323 H 0.73825 0.57290 0.55041
 H324 H 0.73727 0.53742 0.51507
 H325 H 0.80307 0.47204 0.49016
 H326 H 0.80816 0.43526 0.52117
 H327 H 0.74855 0.49021 0.56667
 H328 H 0.73239 0.47851 0.47651
 H329 H 0.72611 0.44319 0.44241
 H330 H 0.78645 0.45184 0.37688
 H331 H 0.79239 0.48732 0.41058
 H332 H 0.73395 0.52209 0.42082
 H333 H 0.73148 0.55796 0.38705
 H334 H 0.79607 0.57456 0.43233
 H335 H 0.79852 0.53841 0.46581
 H336 H 0.75343 0.45367 0.59777
 O337 O 0.25711 0.20660 0.27510
 O338 O 0.25106 0.26587 0.30643
 O339 O 0.22481 0.23796 0.27405
 O340 O 0.28327 0.23481 0.30768
 O341 O 0.29513 0.24445 0.25084
 O342 O 0.23631 0.25045 0.21868
 O343 O 0.26425 0.27689 0.25122
 O344 O 0.26728 0.21789 0.21822
 Cu345 Cu 0.25289 0.23513 0.29644
 Cu346 Cu 0.26689 0.24849 0.22903
 C347 C 0.26294 0.20219 0.24114
 C348 C 0.25692 0.28143 0.28433
 C349 C 0.22057 0.24509 0.24084
 C350 C 0.29915 0.23905 0.28504
 O351 O 0.73355 0.78189 0.20801
 O352 O 0.73832 0.72574 0.25311
 O353 O 0.76491 0.74951 0.21345
 O354 O 0.70718 0.75775 0.24987
 O355 O 0.69396 0.74228 0.19798
 O356 O 0.75190 0.73518 0.16041
 O357 O 0.72558 0.71046 0.20067
 O358 O 0.71973 0.76646 0.15656
 Cu359 Cu 0.73727 0.75541 0.23627
 Cu360 Cu 0.72151 0.73707 0.17364
 C361 C 0.72571 0.78367 0.17458
 C362 C 0.73282 0.70853 0.23438
 C363 C 0.76826 0.74090 0.18087
 C364 C 0.69078 0.75110 0.23052
 O365 O 0.79752 0.23839 0.27471
 O366 O 0.74766 0.23188 0.33541
 O367 O 0.76926 0.20674 0.28528
 O368 O 0.77641 0.26336 0.32512
 O369 O 0.75421 0.27823 0.28072
 O370 O 0.74806 0.22170 0.23963
 O371 O 0.72599 0.24637 0.29000
 O372 O 0.77570 0.25334 0.22983
 Cu373 Cu 0.77485 0.23361 0.30974
 Cu374 Cu 0.74875 0.25146 0.25564
 C375 C 0.79503 0.24689 0.24186
 C376 C 0.72831 0.23793 0.32290
 C377 C 0.75776 0.20462 0.25533
 C378 C 0.76655 0.28041 0.30974
 O379 O 0.20691 0.74310 0.23441
 O380 O 0.26215 0.74462 0.28323
 O381 O 0.23666 0.77325 0.24503
 O382 O 0.23096 0.71506 0.27707
 O383 O 0.24762 0.70210 0.22487
 O384 O 0.25448 0.76086 0.19347
 O385 O 0.27878 0.73110 0.23133
 O386 O 0.22458 0.73105 0.18251
 Cu387 Cu 0.23244 0.74517 0.26518
 Cu388 Cu 0.25303 0.72996 0.20288
 C389 C 0.20658 0.73713 0.19972
 C390 C 0.27987 0.73807 0.26522
 C391 C 0.24657 0.77704 0.21401
 C392 C 0.23827 0.69866 0.25666
 O393 O 0.77899 0.27771 0.69545
 O394 O 0.77433 0.21886 0.72716
 O395 O 0.75019 0.24691 0.68522
 O396 O 0.80399 0.24943 0.73516
 O397 O 0.78625 0.26175 0.78684
 O398 O 0.73209 0.25868 0.73691
 O399 O 0.75653 0.23110 0.77879
 O400 O 0.76091 0.28968 0.74702
 Cu401 Cu 0.77870 0.24696 0.70561
 Cu402 Cu 0.75716 0.26148 0.76764
 C403 C 0.77057 0.29370 0.71583
 C404 C 0.76459 0.21499 0.75841
 C405 C 0.73201 0.25244 0.70240
 C406 C 0.80436 0.25613 0.76929
 O407 O 0.28551 0.72871 0.76208
 O408 O 0.23238 0.72939 0.81553
 O409 O 0.25062 0.70419 0.76078
 O410 O 0.26723 0.75428 0.81441
 O411 O 0.24919 0.77617 0.77276
 O412 O 0.23608 0.72651 0.71621
 O413 O 0.21555 0.74953 0.77027
 O414 O 0.26996 0.75234 0.72032
 Cu415 Cu 0.26041 0.72684 0.79264
 Cu416 Cu 0.24099 0.75336 0.74060
 C417 C 0.28692 0.74070 0.73252
 C418 C 0.21491 0.73941 0.80194
 C419 C 0.24115 0.70692 0.72871
 C420 C 0.26082 0.77377 0.80274
 O421 O 0.25996 0.27888 0.76961
 O422 O 0.26556 0.21948 0.80026
 O423 O 0.28780 0.24482 0.75513
 O424 O 0.23797 0.25349 0.81596
 O425 O 0.21615 0.24419 0.76838
 O426 O 0.26635 0.23470 0.70760
 O427 O 0.24359 0.20982 0.75310
 O428 O 0.23856 0.26890 0.72192
 Cu429 Cu 0.26497 0.25020 0.79002
 Cu430 Cu 0.23896 0.23845 0.73299
 C431 C 0.24845 0.28395 0.74030
 C432 C 0.25548 0.20456 0.78184
 C433 C 0.28564 0.23820 0.72113
 C434 C 0.21860 0.25027 0.80265
 O435 O 0.73083 0.77077 0.67683
 O436 O 0.78036 0.75721 0.73693
 O437 O 0.75601 0.73437 0.69080
 O438 O 0.75564 0.79337 0.72362
 O439 O 0.73267 0.78521 0.77040
 O440 O 0.73347 0.72607 0.73809
 O441 O 0.75781 0.74935 0.78447
 O442 O 0.70844 0.76224 0.72416
 Cu443 Cu 0.75788 0.76475 0.70216
 Cu444 Cu 0.73083 0.75484 0.75897
 C445 C 0.71120 0.76871 0.69023
 C446 C 0.77747 0.75130 0.77114
 C447 C 0.74485 0.72016 0.70893
 C448 C 0.74432 0.79926 0.75285
 C449 C 0.26373 0.07638 0.10304
 C450 C 0.27369 0.08279 0.13705
 C451 C 0.27121 0.10617 0.15107
 N452 N 0.27576 0.11096 0.18784
 N453 N 0.27384 0.13214 0.20059
 C454 C 0.26750 0.14932 0.17692
 N455 N 0.26317 0.14455 0.14010
 N456 N 0.26491 0.12337 0.12744
 C457 C 0.26570 0.17284 0.19017
 C458 C 0.26473 0.17854 0.22851
 H459 H 0.28284 0.07064 0.15463
 H460 H 0.26436 0.18605 0.16902
 H461 H 0.25270 0.08886 0.08911
 H462 H 0.26453 0.16537 0.24973
 C463 C 0.77416 0.58886 0.58999
 C464 C 0.75561 0.60032 0.60661
 C465 C 0.75716 0.62281 0.62380
 N466 N 0.73996 0.63163 0.64533
 N467 N 0.74084 0.65226 0.66013
 C468 C 0.75891 0.66489 0.65370
 N469 N 0.77607 0.65611 0.63204
 N470 N 0.77525 0.63543 0.61745
 C471 C 0.75979 0.68801 0.66860
 C472 C 0.74471 0.69661 0.69592
 H473 H 0.73954 0.59253 0.60758
 H474 H 0.77278 0.69851 0.65787
 H475 H 0.79060 0.59581 0.59256
 H476 H 0.73254 0.68576 0.70832
 C477 C 0.73975 0.92466 0.09335
 C478 C 0.72435 0.90766 0.08980
 C479 C 0.72658 0.88640 0.11124
 N480 N 0.71370 0.86903 0.10167
 N481 N 0.71560 0.84954 0.12031
 C482 C 0.73037 0.84672 0.14942
 N483 N 0.74311 0.86417 0.15928
 N484 N 0.74129 0.88365 0.14048
 C485 C 0.73275 0.82508 0.16980
 C486 C 0.72321 0.80574 0.15585
 H487 H 0.71082 0.90899 0.06947
 H488 H 0.74282 0.82418 0.19535
 H489 H 0.75387 0.92149 0.11230
 H490 H 0.71411 0.80653 0.12927
 C491 C 0.22134 0.40792 0.60133
 C492 C 0.23392 0.40186 0.63343
 C493 C 0.23362 0.37912 0.64994
 N494 N 0.24579 0.37409 0.68158
 N495 N 0.24602 0.35343 0.69639
 C496 C 0.23409 0.33704 0.68007
 N497 N 0.22190 0.34209 0.64850
 N498 N 0.22166 0.36274 0.63372
 C499 C 0.23458 0.31397 0.69526
 C500 C 0.24690 0.30752 0.72737
 H501 H 0.24413 0.41402 0.64728
 H502 H 0.22529 0.30154 0.68008
 H503 H 0.21016 0.39585 0.58953
 H504 H 0.25607 0.31989 0.74287
 C505 C 0.92950 0.26307 0.13773
 C506 C 0.91079 0.25034 0.13007
 C507 C 0.89158 0.24987 0.15631
 N508 N 0.87119 0.24423 0.14320
 N509 N 0.85360 0.24367 0.16655
 C510 C 0.85582 0.24851 0.20397
 N511 N 0.87629 0.25387 0.21721
 N512 N 0.89384 0.25466 0.19377
 C513 C 0.83655 0.24757 0.23000
 C514 C 0.81451 0.24896 0.21671
 H515 H 0.90893 0.24184 0.10323
 H516 H 0.83974 0.24636 0.26018
 H517 H 0.92865 0.27343 0.16314
 H518 H 0.81136 0.25203 0.18687
 C519 C 0.40574 0.77353 0.59195
 C520 C 0.39681 0.75445 0.60801
 C521 C 0.37509 0.75528 0.62801
 N522 N 0.36928 0.73740 0.64917
 N523 N 0.34960 0.73774 0.66728
 C524 C 0.33492 0.75591 0.66467
 N525 N 0.34064 0.77373 0.64324
 N526 N 0.36040 0.77345 0.62531
 C527 C 0.31309 0.75636 0.68443
 C528 C 0.30855 0.74068 0.71243
 H529 H 0.40637 0.73846 0.60719
 H530 H 0.30063 0.76962 0.67755
 H531 H 0.39714 0.78986 0.59620
 H532 H 0.32153 0.72825 0.72076
 C533 C 0.06578 0.73982 0.11157
 C534 C 0.08686 0.74679 0.10044
 C535 C 0.10671 0.74524 0.12534
 N536 N 0.12745 0.74740 0.11016
 N537 N 0.14569 0.74601 0.13196
 C538 C 0.14392 0.74257 0.16990
 N539 N 0.12314 0.74065 0.18522
 N540 N 0.10485 0.74187 0.16332
 C541 C 0.16418 0.74109 0.19401
 C542 C 0.18551 0.73760 0.17797
 H543 H 0.08936 0.75239 0.07160
 H544 H 0.16230 0.74236 0.22450
 H545 H 0.06393 0.73214 0.13917
 H546 H 0.18698 0.73500 0.14762
 C547 C 0.58935 0.24691 0.62989
 C548 C 0.60931 0.25436 0.61473
 C549 C 0.63013 0.25449 0.63695
 N550 N 0.65007 0.25688 0.61909
 N551 N 0.66914 0.25682 0.63876
 C552 C 0.66894 0.25452 0.67707
 N553 N 0.64897 0.25238 0.69501
 N554 N 0.62990 0.25228 0.67529
 C555 C 0.68990 0.25448 0.69900
 C556 C 0.71082 0.25183 0.68137
 H557 H 0.61010 0.25908 0.58513
 H558 H 0.68884 0.25607 0.72956
 H559 H 0.58933 0.24010 0.65838
 H560 H 0.71178 0.24899 0.65103
 C561 C 0.73387 0.09195 0.89174
 C562 C 0.74693 0.09728 0.86016
 C563 C 0.74733 0.12038 0.84503
 N564 N 0.75968 0.12448 0.81359
 N565 N 0.76076 0.14536 0.80010
 C566 C 0.74956 0.16295 0.81765
 N567 N 0.73719 0.15886 0.84906
 N568 N 0.73608 0.13797 0.86251
 C569 C 0.75096 0.18622 0.80378
 C570 C 0.76279 0.19152 0.77103
 H571 H 0.75740 0.08460 0.84576
 H572 H 0.74247 0.19960 0.82009
 H573 H 0.72289 0.10530 0.90355
 H574 H 0.77093 0.17819 0.75419
 C575 C 0.21512 0.58001 0.40521
 C576 C 0.22486 0.58388 0.36985
 C577 C 0.22446 0.60644 0.35247
 N578 N 0.23426 0.60933 0.31812
 N579 N 0.23462 0.62976 0.30253
 C580 C 0.22518 0.64806 0.32077
 N581 N 0.21531 0.64515 0.35503
 N582 N 0.21495 0.62474 0.37060
 C583 C 0.22598 0.67089 0.30481
 C584 C 0.23621 0.67538 0.27015
 H585 H 0.23310 0.57013 0.35419
 H586 H 0.21872 0.68475 0.32156
 H587 H 0.20569 0.59378 0.41910
 H588 H 0.24334 0.66163 0.25302
 C589 C 0.26378 0.90976 0.90732
 C590 C 0.28029 0.89417 0.89387
 C591 C 0.27407 0.87347 0.87427
 N592 N 0.28869 0.85521 0.87291
 N593 N 0.28308 0.83636 0.85537
 C594 C 0.26273 0.83521 0.83827
 N595 N 0.24825 0.85356 0.83923
 N596 N 0.25376 0.87230 0.85708
 C597 C 0.25638 0.81481 0.81808
 C598 C 0.26715 0.79377 0.82413
 H599 H 0.29792 0.89613 0.89969
 H600 H 0.24228 0.81631 0.79871
 H601 H 0.24638 0.90526 0.90478
 H602 H 0.28013 0.79182 0.84553
 C603 C 0.75229 0.42293 0.38863
 C604 C 0.77003 0.40783 0.37877
 C605 C 0.76626 0.38554 0.36230
 N606 N 0.78297 0.36917 0.36312
 N607 N 0.77976 0.34879 0.34872
 C608 C 0.75978 0.34410 0.33267
 N609 N 0.74316 0.36056 0.33143
 N610 N 0.74629 0.38088 0.34614
 C611 C 0.75609 0.32168 0.31657
 C612 C 0.76987 0.30287 0.32585
 H613 H 0.78713 0.41180 0.38561
 H614 H 0.74177 0.31980 0.29809
 H615 H 0.73515 0.41784 0.38545
 H616 H 0.78320 0.30447 0.34643
 C617 C 0.08118 0.26739 0.90386
 C618 C 0.10256 0.25940 0.91499
 C619 C 0.12179 0.25813 0.88870
 N620 N 0.14291 0.25434 0.90240
 N621 N 0.16052 0.25292 0.87900
 C622 C 0.15766 0.25508 0.84095
 N623 N 0.13651 0.25871 0.82720
 N624 N 0.11890 0.26028 0.85065
 C625 C 0.17697 0.25312 0.81483
 C626 C 0.19903 0.25334 0.82792
 H627 H 0.10559 0.25468 0.94424
 H628 H 0.17375 0.25170 0.78471
 H629 H 0.07882 0.27415 0.87556
 H630 H 0.20216 0.25593 0.85783
 C631 C 0.57359 0.75731 0.38859
 C632 C 0.57705 0.76262 0.35056
 C633 C 0.59963 0.76104 0.33330
 N634 N 0.60203 0.76177 0.29504
 N635 N 0.62243 0.76055 0.27921
 C636 C 0.64118 0.75876 0.30113
 N637 N 0.63877 0.75822 0.33937
 N638 N 0.61839 0.75927 0.35517
 C639 C 0.66387 0.75756 0.28439
 C640 C 0.66778 0.75336 0.24597
 H641 H 0.56288 0.76749 0.33267
 H642 H 0.67803 0.75906 0.30335
 H643 H 0.58764 0.75036 0.40502
 H644 H 0.65380 0.75051 0.22722
 C645 C 0.91577 0.73892 0.87000
 C646 C 0.89417 0.74643 0.88118
 C647 C 0.87470 0.74590 0.85558
 N648 N 0.85357 0.74928 0.86970
 N649 N 0.83578 0.74934 0.84681
 C650 C 0.83847 0.74614 0.80889
 N651 N 0.85961 0.74285 0.79474
 N652 N 0.87740 0.74264 0.81766
 C653 C 0.81904 0.74722 0.78306
 C654 C 0.79693 0.74729 0.79631
 H655 H 0.89124 0.75222 0.90999
 H656 H 0.82224 0.74836 0.75288
 H657 H 0.91816 0.73108 0.84241
 H658 H 0.79374 0.74501 0.82628
 C659 C 0.42051 0.24701 0.42995
 C660 C 0.41609 0.23873 0.39383
 C661 C 0.39305 0.23851 0.37900
 N662 N 0.38950 0.23452 0.34164
 N663 N 0.36864 0.23416 0.32803
 C664 C 0.35060 0.23758 0.35139
 N665 N 0.35416 0.24136 0.38877
 N666 N 0.37500 0.24187 0.40233
 C667 C 0.32748 0.23727 0.33705
 C668 C 0.32251 0.23799 0.29849
 H669 H 0.42978 0.23277 0.37558
 H670 H 0.31391 0.23752 0.35762
 H671 H 0.40683 0.25492 0.44629
 H672 H 0.33593 0.23898 0.27784
 C673 C 0.72790 0.92754 0.88459
 C674 C 0.74555 0.91306 0.87170
 C675 C 0.74139 0.89219 0.85080
 N676 N 0.75806 0.88204 0.82964
 N677 N 0.75473 0.86282 0.81134
 C678 C 0.73465 0.85294 0.81379
 N679 N 0.71802 0.86301 0.83516
 N680 N 0.72128 0.88235 0.85318
 C681 C 0.73120 0.83110 0.79545
 C682 C 0.74553 0.82247 0.76710
 H683 H 0.76287 0.91739 0.87497
 H684 H 0.71725 0.82144 0.80494
 H685 H 0.71099 0.92376 0.87604
 H686 H 0.75850 0.83277 0.75576
 C687 C 0.22299 0.41112 0.40414
 C688 C 0.24196 0.40074 0.38712
 C689 C 0.24167 0.37791 0.37091
 N690 N 0.25824 0.37047 0.34683
 N691 N 0.25848 0.34958 0.33279
 C692 C 0.24227 0.33531 0.34264
 N693 N 0.22580 0.34270 0.36694
 N694 N 0.22543 0.36365 0.38070
 C695 C 0.24277 0.31197 0.32851
 C696 C 0.25559 0.30504 0.29712
 H697 H 0.25735 0.40970 0.38495
 H698 H 0.23245 0.30003 0.34279
 H699 H 0.20706 0.40306 0.40246
 H700 H 0.26458 0.31730 0.28105
 C701 C 0.28532 0.07540 0.90592
 C702 C 0.27212 0.08316 0.87539
 C703 C 0.27252 0.10650 0.86149
 N704 N 0.25946 0.11298 0.83161
 N705 N 0.25894 0.13422 0.81941
 C706 C 0.27143 0.14981 0.83670
 N707 N 0.28456 0.14332 0.86652
 N708 N 0.28510 0.12205 0.87871
 C709 C 0.27053 0.17346 0.82415
 C710 C 0.25727 0.18082 0.79366
 H711 H 0.26073 0.07235 0.86116
 H712 H 0.28029 0.18538 0.83960
 H713 H 0.29721 0.08685 0.91759
 H714 H 0.24771 0.16884 0.77796
 C715 C 0.76270 0.59124 0.38765
 C716 C 0.74993 0.59588 0.35521
 C717 C 0.74872 0.61834 0.33753
 N718 N 0.73778 0.62147 0.30410
 N719 N 0.73634 0.64175 0.28790
 C720 C 0.74572 0.65967 0.30460
 N721 N 0.75660 0.65656 0.33809
 N722 N 0.75809 0.63627 0.35424
 C723 C 0.74411 0.68222 0.28727
 C724 C 0.73467 0.68598 0.25157
 H725 H 0.74092 0.58265 0.34169
 H726 H 0.75068 0.69618 0.30294
 H727 H 0.77299 0.60425 0.39897
 H728 H 0.72859 0.67195 0.23547
 C729 C 0.07852 0.73156 0.89844
 C730 C 0.09242 0.74943 0.89149
 C731 C 0.11353 0.74617 0.87014
 N732 N 0.13176 0.75769 0.88019
 N733 N 0.15083 0.75534 0.86039
 C734 C 0.15221 0.74171 0.82940
 N735 N 0.13388 0.73044 0.81900
 N736 N 0.11492 0.73248 0.83921
 C737 C 0.17296 0.73973 0.80677
 C738 C 0.19396 0.73979 0.82398
 H739 H 0.08890 0.76578 0.90442
 H740 H 0.17176 0.73727 0.77641
 H741 H 0.08494 0.71471 0.89090
 H742 H 0.19511 0.73932 0.85464
 C743 C 0.58787 0.24187 0.41361
 C744 C 0.60882 0.23250 0.42458
 C745 C 0.62908 0.23469 0.40104
 N746 N 0.64948 0.22695 0.41399
 N747 N 0.66796 0.22909 0.39310
 C748 C 0.66669 0.23905 0.35846
 N749 N 0.64630 0.24670 0.34548
 N750 N 0.62784 0.24458 0.36636
 C751 C 0.68684 0.24170 0.33494
 C752 C 0.70844 0.23504 0.34701
 H753 H 0.61078 0.22414 0.45168
 H754 H 0.68453 0.24932 0.30724
 H755 H 0.58671 0.25139 0.38745
 H756 H 0.71090 0.22757 0.37477
 C757 C 0.91752 0.27719 0.92975
 C758 C 0.91406 0.26851 0.89357
 C759 C 0.89175 0.26828 0.87595
 N760 N 0.88982 0.25998 0.84034
 N761 N 0.86974 0.25914 0.82399
 C762 C 0.85081 0.26654 0.84268
 N763 N 0.85271 0.27488 0.87834
 N764 N 0.87283 0.27573 0.89472
 C765 C 0.82856 0.26549 0.82484
 C766 C 0.82623 0.25728 0.78809
 H767 H 0.92819 0.26169 0.87711
 H768 H 0.81383 0.27132 0.84083
 H769 H 0.90356 0.28561 0.94469
 H770 H 0.84104 0.25165 0.77211
 C771 C 0.40202 0.76806 0.40033
 C772 C 0.39583 0.75351 0.37141
 C773 C 0.37250 0.75262 0.35771
 N774 N 0.36804 0.73950 0.32737
 N775 N 0.34710 0.73836 0.31447
 C776 C 0.32976 0.75022 0.33148
 N777 N 0.33418 0.76327 0.36201
 N778 N 0.35517 0.76445 0.37489
 C779 C 0.30659 0.74930 0.31680
 C780 C 0.30224 0.73832 0.28280
 H781 H 0.40844 0.74268 0.35743
 H782 H 0.29298 0.75805 0.33211
 H783 H 0.38937 0.77990 0.41195
 H784 H 0.31612 0.73032 0.26707
 C785 C 0.27745 0.90460 0.09474
 C786 C 0.26372 0.89787 0.12435
 C787 C 0.26325 0.87416 0.13636
 N788 N 0.25075 0.86864 0.16688
 N789 N 0.24981 0.84722 0.17772
 C790 C 0.26127 0.83048 0.15837
 N791 N 0.27374 0.83599 0.12780
 N792 N 0.27472 0.85743 0.11701
 C793 C 0.26009 0.80671 0.16981
 C794 C 0.24852 0.80060 0.20229
 H795 H 0.25314 0.91017 0.13956
 H796 H 0.26850 0.79382 0.15236
 H797 H 0.28904 0.89217 0.08186
 H798 H 0.24052 0.81358 0.22006
 C799 C 0.78448 0.41872 0.57891
 C800 C 0.77619 0.41287 0.61444
 C801 C 0.77815 0.38959 0.62881
 N802 N 0.76965 0.38476 0.66342
 N803 N 0.77070 0.36368 0.67642
 C804 C 0.78029 0.34661 0.65527
 N805 N 0.78887 0.35145 0.62072
 N806 N 0.78782 0.37254 0.60771
 C807 C 0.78094 0.32313 0.66875
 C808 C 0.77158 0.31726 0.70340
 H809 H 0.76796 0.42551 0.63248
 H810 H 0.78841 0.31011 0.65046
 H811 H 0.79386 0.40597 0.56251
 H812 H 0.76409 0.33028 0.72166
 C813 C 0.75169 0.09023 0.09261
 C814 C 0.74721 0.09348 0.13113
 C815 C 0.74822 0.11578 0.14917
 N816 N 0.74873 0.11754 0.18753
 N817 N 0.74933 0.13769 0.20420
 C818 C 0.74921 0.15682 0.18309
 N819 N 0.74848 0.15506 0.14476
 N820 N 0.74806 0.13491 0.12809
 C821 C 0.74974 0.17920 0.20093
 C822 C 0.75596 0.18207 0.23864
 H823 H 0.74337 0.07926 0.14881
 H824 H 0.74626 0.19389 0.18332
 H825 H 0.75780 0.10408 0.07614
 H826 H 0.76100 0.16750 0.25562
 C827 C 0.22882 0.57069 0.62571
 C828 C 0.23434 0.59218 0.61414
 C829 C 0.23559 0.61105 0.64103
 N830 N 0.23591 0.63248 0.62786
 N831 N 0.23718 0.64976 0.65180
 C832 C 0.23831 0.64625 0.68982
 N833 N 0.23817 0.62479 0.70300
 N834 N 0.23673 0.60750 0.67906
 C835 C 0.24041 0.66522 0.71633
 C836 C 0.23650 0.68747 0.70465
 H837 H 0.23681 0.59559 0.58431
 H838 H 0.24535 0.66163 0.74532
 H839 H 0.22417 0.56804 0.65503
 H840 H 0.23046 0.69087 0.67617
 C841 C 0.89862 0.74394 0.06412
 C842 C 0.88809 0.72674 0.08300
 C843 C 0.86437 0.72929 0.09459
 N844 N 0.85719 0.71870 0.12611
 N845 N 0.83579 0.72121 0.13722
 C846 C 0.82073 0.73412 0.11684
 N847 N 0.82782 0.74437 0.08492
 N848 N 0.84929 0.74213 0.07412
 C849 C 0.79716 0.73717 0.12917
 C850 C 0.79153 0.73725 0.16748
 H851 H 0.89785 0.71178 0.09178
 H852 H 0.78432 0.74106 0.10816
 H853 H 0.88949 0.75997 0.05984
 H854 H 0.80478 0.73595 0.18851
 C855 C 0.42630 0.23853 0.63362
 C856 C 0.40614 0.22993 0.62128
 C857 C 0.38562 0.23181 0.64470
 N858 N 0.36564 0.22576 0.63028
 N859 N 0.34690 0.22786 0.65106
 C860 C 0.34750 0.23605 0.68704
 N861 N 0.36749 0.24194 0.70149
 N862 N 0.38619 0.23989 0.68072
 C863 C 0.32710 0.23884 0.71045
 C864 C 0.30570 0.23459 0.69699
 H865 H 0.40495 0.22269 0.59321
 H866 H 0.32904 0.24488 0.73922
 H867 H 0.42660 0.24711 0.66077
 H868 H 0.30354 0.22876 0.66816
 C869 C 0.09380 0.27449 0.11137
 C870 C 0.10045 0.26324 0.14448
 C871 C 0.12393 0.26210 0.15744
 N872 N 0.12930 0.25178 0.19070
 N873 N 0.15058 0.25009 0.20243
 C874 C 0.16727 0.25860 0.18125
 N875 N 0.16190 0.26892 0.14798
 N876 N 0.14061 0.27064 0.13628
 C877 C 0.19085 0.25661 0.19361
 C878 C 0.19704 0.24709 0.22834
 H879 H 0.08821 0.25501 0.16168
 H880 H 0.20361 0.26291 0.17498
 H881 H 0.10596 0.28412 0.09622
 H882 H 0.18425 0.24119 0.24732
 C883 C 0.57119 0.77427 0.59908
 C884 C 0.59205 0.78123 0.58657
 C885 C 0.61221 0.77910 0.61082
 N886 N 0.63274 0.78368 0.59664
 N887 N 0.65112 0.78124 0.61813
 C888 C 0.64961 0.77418 0.65465
 N889 N 0.62908 0.76976 0.66885
 N890 N 0.61075 0.77215 0.64738
 C891 C 0.66963 0.77081 0.67881
 C892 C 0.69149 0.77364 0.66585
 H893 H 0.59403 0.78731 0.55792
 H894 H 0.66702 0.76528 0.70768
 H895 H 0.57009 0.76699 0.62714
 H896 H 0.69429 0.77904 0.63697
   
