data_POSCAR
  _audit_creation_date              2014-09-24
  _audit_creation_method            'ToBaCCo'
  _symmetry_space_group_name_H-M    'P1'
  _symmetry_Int_Tables_number       1
  _symmetry_cell_setting            triclinic
  loop_
  _symmetry_equiv_pos_as_xyz
 x,y,z
_cell_length_a 12.6459
_cell_length_b 11.8932
_cell_length_c 11.8745
_cell_angle_alpha 90.955100
_cell_angle_beta 90.312800
_cell_angle_gamma 89.659400
loop_
  _atom_site_label
  _atom_site_type_symbol
  _atom_site_fract_x
  _atom_site_fract_y
  _atom_site_fract_z
O1 O 0.20319 0.13511 0.07407
 O2 O -0.20152 -0.10767 0.09289
 O3 O -0.11189 0.23701 0.05961
 O4 O 0.12206 -0.20685 0.08352
 O5 O -0.17174 0.09306 0.14126
 O6 O 0.17943 -0.04750 0.13868
 O7 O -0.05481 -0.18116 0.14303
 O8 O 0.05707 0.20382 0.12722
 C9 C 0.15105 0.19031 0.14544
 C10 C -0.14999 -0.16925 0.15913
 C11 C -0.16365 0.19692 0.13803
 C12 C 0.17361 -0.14883 0.15430
 O13 O 0.19779 -0.13298 -0.07671
 O14 O -0.19419 0.14065 -0.08309
 O15 O 0.13386 0.21257 -0.08807
 O16 O -0.13022 -0.20450 -0.07388
 O17 O -0.19090 -0.04705 -0.12754
 O18 O 0.17726 0.05041 -0.14471
 O19 O 0.05043 -0.19393 -0.13710
 O20 O -0.04587 0.18907 -0.15285
 Co21 Co 0.17141 0.00229 -0.00239
 Co22 Co -0.17108 0.01839 0.00661
 Co23 Co 0.00817 0.18938 -0.01276
 Co24 Co -0.00260 -0.17680 0.00303
 O25 O 0.00111 0.00764 -0.00117
 C26 C 0.14640 -0.18595 -0.15049
 C27 C -0.14304 0.18408 -0.16115
 C28 C 0.18080 0.15192 -0.15878
 C29 C -0.18357 -0.14831 -0.14345
 O30 O 0.44237 0.29559 0.37423
 O31 O 0.55493 0.68040 0.35590
 O32 O 0.32030 0.54677 0.36107
 O33 O 0.67136 0.40641 0.35841
 O34 O 0.37819 0.70635 0.41508
 O35 O 0.61159 0.26298 0.44111
 O36 O 0.70164 0.60734 0.40633
 O37 O 0.29641 0.36453 0.42747
 C38 C 0.34836 0.30899 0.35622
 C39 C 0.65011 0.66866 0.33991
 C40 C 0.32642 0.64798 0.34475
 C41 C 0.66269 0.30267 0.36204
 O42 O 0.54647 0.31205 0.65372
 O43 O 0.44963 0.69477 0.63598
 O44 O 0.32270 0.45107 0.64524
 O45 O 0.69126 0.54739 0.62674
 O46 O 0.63031 0.70472 0.57291
 O47 O 0.36653 0.28849 0.59007
 O48 O 0.69458 0.35960 0.58296
 O49 O 0.30224 0.63390 0.57574
 Co50 Co 0.49186 0.31088 0.51389
 Co51 Co 0.50273 0.67680 0.49594
 Co52 Co 0.32847 0.49800 0.50256
 Co53 Co 0.67114 0.48154 0.49290
 O54 O 0.49890 0.49247 0.50113
 C55 C 0.64368 0.31678 0.66153
 C56 C 0.35364 0.68704 0.64937
 C57 C 0.31987 0.34974 0.66042
 C58 C 0.68383 0.64867 0.64248
 C59 C 0.19798 0.24910 0.24210
 C60 C 0.30129 0.24993 0.25981
 H61 H 0.14568 0.29440 0.29924
 H62 H 0.35357 0.20463 0.20266
 C63 C 0.80132 0.76269 0.24860
 C64 C 0.69880 0.73669 0.25040
 H65 H 0.85347 0.72755 0.31184
 H66 H 0.64665 0.77181 0.18715
 C67 C 0.80258 0.24201 0.74847
 C68 C 0.69822 0.25914 0.75198
 H69 H 0.84945 0.27383 0.67992
 H70 H 0.65138 0.22738 0.82058
 C71 C 0.19758 0.75239 0.75571
 C72 C 0.30249 0.74894 0.74303
 H73 H 0.14718 0.70762 0.69624
 H74 H 0.35290 0.79370 0.80250
 C75 C 0.24097 0.19294 0.75938
 C76 C 0.25724 0.30775 0.74594
 H77 H 0.28076 0.13379 0.70310
 H78 H 0.21794 0.36767 0.80174
 C79 C 0.75406 0.80469 0.76105
 C80 C 0.74621 0.69580 0.73790
 H81 H 0.71192 0.86352 0.70804
 H82 H 0.78836 0.63700 0.79093
 C83 C 0.23756 0.80374 0.24667
 C84 C 0.26250 0.69514 0.25220
 H85 H 0.26903 0.86172 0.30962
 H86 H 0.23100 0.63710 0.18932
 C87 C 0.78494 0.26673 0.20805
 C88 C 0.71574 0.22945 0.28942
 H89 H 0.79549 0.35655 0.19811
 H90 H 0.70434 0.13987 0.29998
   
