data_POSCAR
  _audit_creation_date              2014-09-24
  _audit_creation_method            'ToBaCCo'
  _symmetry_space_group_name_H-M    'P1'
  _symmetry_Int_Tables_number       1
  _symmetry_cell_setting            triclinic
  loop_
  _symmetry_equiv_pos_as_xyz
 x,y,z
_cell_length_a 31.6808
_cell_length_b 33.5927
_cell_length_c 34.0052
_cell_angle_alpha 90.032700
_cell_angle_beta 90.037800
_cell_angle_gamma 90.128400
loop_
  _atom_site_label
  _atom_site_type_symbol
  _atom_site_fract_x
  _atom_site_fract_y
  _atom_site_fract_z
C1 C 0.27457 0.33022 0.01527
 C2 C 0.27941 0.33519 -0.02602
 C3 C 0.30796 0.30998 -0.04588
 C4 C 0.33193 0.28063 -0.02633
 C5 C 0.32667 0.27656 0.01502
 C6 C 0.29736 0.30049 0.03481
 H7 H 0.29504 0.29833 0.06658
 H8 H 0.30958 0.31159 -0.07765
 C9 C 0.72182 0.66756 0.02186
 C10 C 0.72299 0.66995 -0.01947
 C11 C 0.69730 0.69747 -0.03897
 C12 C 0.66875 0.72211 -0.01839
 C13 C 0.66852 0.72007 0.02359
 C14 C 0.69530 0.69308 0.04278
 H15 H 0.69517 0.69152 0.07465
 H16 H 0.69723 0.69694 -0.07084
 C17 C 0.73050 0.32739 0.97915
 C18 C 0.72735 0.32817 1.02089
 C19 C 0.69950 0.30110 1.03918
 C20 C 0.67441 0.27458 1.01747
 C21 C 0.67795 0.27395 0.97598
 C22 C 0.70663 0.29979 0.95759
 H23 H 0.70872 0.29996 0.92575
 H24 H 0.69695 0.30058 1.07095
 C25 C 0.26976 0.67410 0.98176
 C26 C 0.27429 0.66915 1.02306
 C27 C 0.30236 0.69465 1.04325
 C28 C 0.32696 0.72370 1.02394
 C29 C 0.32230 0.72760 0.98253
 C30 C 0.29290 0.70382 0.96245
 H31 H 0.29101 0.70586 0.93064
 H32 H 0.30342 0.69319 1.07505
 C33 C 0.02002 0.28566 0.33931
 C34 C -0.02462 0.28804 0.33998
 C35 C -0.04522 0.31348 0.31353
 C36 C -0.02245 0.33773 0.28742
 C37 C 0.02223 0.33522 0.28668
 C38 C 0.04267 0.30900 0.31243
 H39 H 0.07680 0.30681 0.31161
 H40 H -0.07933 0.31594 0.31471
 C41 C 0.01880 0.71370 0.65974
 C42 C -0.02619 0.71273 0.65779
 C43 C -0.04801 0.68848 0.68500
 C44 C -0.02698 0.66436 0.71276
 C45 C 0.01796 0.66504 0.71339
 C46 C 0.03977 0.69013 0.68755
 H47 H 0.07400 0.69052 0.68839
 H48 H -0.08215 0.68772 0.68409
 C49 C 0.98047 0.71302 0.33542
 C50 C 1.02512 0.71285 0.33480
 C51 C 1.04624 0.68650 0.30942
 C52 C 1.02426 0.65927 0.28515
 C53 C 0.97918 0.66082 0.28524
 C54 C 0.95835 0.68769 0.31010
 H55 H 0.92412 0.68839 0.31025
 H56 H 1.08041 0.68592 0.31048
 C57 C 0.97682 0.28319 0.66855
 C58 C 1.02182 0.28367 0.66733
 C59 C 1.04345 0.31061 0.69208
 C60 C 1.02199 0.33674 0.71718
 C61 C 0.97738 0.33530 0.71891
 C62 C 0.95557 0.30821 0.69492
 H63 H 0.92134 0.30786 0.69550
 H64 H 1.07765 0.31145 0.69207
 C65 C 0.33233 0.02440 0.28392
 C66 C 0.33229 -0.01799 0.28226
 C67 C 0.30497 -0.03891 0.30784
 C68 C 0.28069 -0.01957 0.33694
 C69 C 0.28146 0.02279 0.33815
 C70 C 0.30658 0.04373 0.31133
 H71 H 0.30577 0.07602 0.31157
 H72 H 0.30654 -0.07111 0.30834
 C73 C 0.67375 0.01625 0.72170
 C74 C 0.67335 -0.02595 0.72083
 C75 C 0.69966 -0.04583 0.69398
 C76 C 0.72556 -0.02480 0.66770
 C77 C 0.72611 0.01724 0.66898
 C78 C 0.70072 0.03717 0.69634
 H79 H 0.70015 0.06946 0.69629
 H80 H 0.69927 -0.07809 0.69280
 C81 C 0.32864 0.97694 0.72037
 C82 C 0.33122 1.01933 0.72002
 C83 C 0.30469 1.04029 0.69391
 C84 C 0.27734 1.02087 0.66733
 C85 C 0.27536 0.97866 0.66828
 C86 C 0.30018 0.95764 0.69514
 H87 H 0.29855 0.92537 0.69525
 H88 H 0.30627 1.07248 0.69336
 C89 C 0.67552 0.98236 0.27564
 C90 C 0.67158 1.02415 0.27793
 C91 C 0.69592 1.04511 0.30558
 C92 C 0.72393 1.02565 0.33156
 C93 C 0.72794 0.98350 0.32845
 C94 C 0.70421 0.96273 0.30020
 H95 H 0.70577 0.93048 0.29929
 H96 H 0.69328 1.07726 0.30621
 O97 O 0.90233 0.83961 0.45790
 O98 O 0.84826 0.89661 0.53538
 O99 O 0.90107 0.83699 0.53309
 O100 O 0.84889 0.89867 0.45791
 O101 O 0.79527 0.85647 0.45638
 O102 O 0.84659 0.79572 0.53287
 O103 O 0.79400 0.85534 0.53247
 O104 O 0.84891 0.79713 0.45629
 Cu105 Cu 0.88029 0.87254 0.49625
 Cu106 Cu 0.81581 0.82194 0.49424
 C107 C 0.88516 0.80821 0.44465
 C108 C 0.81192 0.88578 0.54710
 C109 C 0.88286 0.80570 0.54540
 C110 C 0.81327 0.88796 0.44436
 O111 O 0.15057 0.10002 0.54063
 O112 O 0.09466 0.15773 0.46476
 O113 O 0.15056 0.10115 0.46387
 O114 O 0.09537 0.15730 0.54168
 O115 O 0.14669 0.20180 0.54171
 O116 O 0.20179 0.14576 0.46495
 O117 O 0.14584 0.20240 0.46559
 O118 O 0.20169 0.14473 0.54098
 Cu119 Cu 0.11757 0.12456 0.50270
 Cu120 Cu 0.17912 0.17814 0.50329
 C121 C 0.18577 0.11251 0.55372
 C122 C 0.11071 0.19003 0.45229
 C123 C 0.18588 0.11388 0.45135
 C124 C 0.11168 0.18922 0.55494
 O125 O 0.15620 0.89908 0.46236
 O126 O 0.09865 0.84078 0.53679
 O127 O 0.15360 0.89787 0.53841
 O128 O 0.10067 0.84130 0.45963
 O129 O 0.15118 0.79620 0.46173
 O130 O 0.20628 0.85478 0.53739
 O131 O 0.15066 0.79718 0.53797
 O132 O 0.20646 0.85352 0.46105
 Cu133 Cu 0.12195 0.87410 0.49907
 Cu134 Cu 0.18381 0.82096 0.49965
 C135 C 0.19107 0.88621 0.44918
 C136 C 0.11507 0.80918 0.55039
 C137 C 0.18922 0.88611 0.55082
 C138 C 0.11666 0.80885 0.44752
 O139 O 0.89941 0.16324 0.54045
 O140 O 0.84585 0.10507 0.46318
 O141 O 0.89906 0.16447 0.46466
 O142 O 0.84684 0.10361 0.54034
 O143 O 0.79251 0.14470 0.53999
 O144 O 0.84575 0.20686 0.46581
 O145 O 0.79287 0.14758 0.46384
 O146 O 0.84535 0.20474 0.54234
 Cu147 Cu 0.87803 0.12968 0.50204
 Cu148 Cu 0.81372 0.18018 0.50319
 C149 C 0.88155 0.19400 0.55424
 C150 C 0.81028 0.11652 0.45011
 C151 C 0.88152 0.19618 0.45280
 C152 C 0.81066 0.11367 0.55290
 O153 O 0.53766 0.84618 0.90421
 O154 O 0.45767 0.90042 0.84698
 O155 O 0.45613 0.84763 0.90223
 O156 O 0.54049 0.89964 0.84773
 O157 O 0.53891 0.85276 0.80227
 O158 O 0.45858 0.79848 0.85898
 O159 O 0.45722 0.85187 0.80320
 O160 O 0.54037 0.79980 0.85810
 Cu161 Cu 0.49822 0.87846 0.87968
 Cu162 Cu 0.49878 0.82095 0.82614
 C163 C 0.55234 0.81371 0.89096
 C164 C 0.44346 0.88511 0.81548
 C165 C 0.44362 0.81389 0.89007
 C166 C 0.55360 0.88539 0.81531
 O167 O 0.53764 0.15177 0.09415
 O168 O 0.45618 0.10039 0.15255
 O169 O 0.45579 0.15305 0.09673
 O170 O 0.53871 0.09921 0.15137
 O171 O 0.53889 0.14645 0.19655
 O172 O 0.46031 0.20254 0.13944
 O173 O 0.45766 0.14945 0.19577
 O174 O 0.54201 0.19869 0.13962
 Cu175 Cu 0.49700 0.12117 0.11930
 Cu176 Cu 0.49994 0.17917 0.17222
 C177 C 0.55344 0.18402 0.10694
 C178 C 0.44304 0.11621 0.18417
 C179 C 0.44461 0.18729 0.10855
 C180 C 0.55218 0.11324 0.18380
 O181 O 0.54274 0.09510 0.84530
 O182 O 0.46125 0.15179 0.89877
 O183 O 0.46163 0.09548 0.84473
 O184 O 0.54398 0.15012 0.89892
 O185 O 0.54475 0.19594 0.85243
 O186 O 0.46066 0.14269 0.79945
 O187 O 0.46309 0.19831 0.85304
 O188 O 0.54250 0.14082 0.79850
 Cu189 Cu 0.50209 0.11863 0.87680
 Cu190 Cu 0.50277 0.17409 0.82125
 C191 C 0.55591 0.10821 0.81253
 C192 C 0.44868 0.18504 0.88531
 C193 C 0.44771 0.10951 0.81262
 C194 C 0.55862 0.18228 0.88476
 O195 O 0.45838 0.85006 0.10108
 O196 O 0.54315 0.90299 0.15433
 O197 O 0.54083 0.84820 0.10123
 O198 O 0.46140 0.90565 0.15607
 O199 O 0.45707 0.85761 0.20031
 O200 O 0.54039 0.80297 0.14832
 O201 O 0.53882 0.85869 0.20221
 O202 O 0.45888 0.80289 0.14617
 Cu203 Cu 0.50072 0.88137 0.12343
 Cu204 Cu 0.49869 0.82590 0.17888
 C205 C 0.44493 0.81686 0.11402
 C206 C 0.55483 0.89011 0.18768
 C207 C 0.55442 0.81584 0.11572
 C208 C 0.44597 0.89146 0.18756
 O209 O 0.90124 0.54154 0.84189
 O210 O 0.84935 0.46377 0.90116
 O211 O 0.90289 0.46379 0.84349
 O212 O 0.84806 0.54166 0.89982
 O213 O 0.79438 0.53852 0.85841
 O214 O 0.85053 0.46286 0.80065
 O215 O 0.79669 0.46164 0.85847
 O216 O 0.84801 0.54016 0.80002
 Cu217 Cu 0.88071 0.50289 0.87587
 Cu218 Cu 0.81713 0.50067 0.82509
 C219 C 0.88346 0.55418 0.81082
 C220 C 0.81429 0.44948 0.88974
 C221 C 0.88612 0.45014 0.81232
 C222 C 0.81173 0.55306 0.88887
 O223 O 0.09793 0.53322 0.16082
 O224 O 0.15284 0.45854 0.10014
 O225 O 0.09956 0.45635 0.15762
 O226 O 0.15122 0.53654 0.10142
 O227 O 0.20479 0.53577 0.14288
 O228 O 0.15187 0.45790 0.20051
 O229 O 0.20601 0.45879 0.14228
 O230 O 0.15229 0.53537 0.20156
 Cu231 Cu 0.12013 0.49639 0.12563
 Cu232 Cu 0.18406 0.49690 0.17603
 C233 C 0.11566 0.54678 0.19158
 C234 C 0.18867 0.44586 0.11112
 C235 C 0.11669 0.44383 0.18901
 C236 C 0.18711 0.54952 0.11226
 O237 O 0.84709 0.53662 0.10007
 O238 O 0.90388 0.46285 0.15998
 O239 O 0.85006 0.45878 0.10152
 O240 O 0.90108 0.53978 0.15694
 O241 O 0.84917 0.53786 0.20019
 O242 O 0.79721 0.45858 0.14372
 O243 O 0.85035 0.46069 0.20165
 O244 O 0.79449 0.53553 0.14266
 Cu245 Cu 0.88076 0.49940 0.12519
 Cu246 Cu 0.81749 0.49816 0.17632
 C247 C 0.81116 0.54882 0.11135
 C248 C 0.88679 0.44945 0.19104
 C249 C 0.81474 0.44505 0.11296
 C250 C 0.88401 0.55229 0.18835
 O251 O 0.15041 0.54363 0.89644
 O252 O 0.09857 0.46438 0.83910
 O253 O 0.15347 0.46552 0.89647
 O254 O 0.09692 0.54105 0.83809
 O255 O 0.15039 0.54341 0.79638
 O256 O 0.20550 0.46628 0.85340
 O257 O 0.15082 0.46592 0.79602
 O258 O 0.20414 0.54336 0.85500
 Cu259 Cu 0.11971 0.50355 0.87200
 Cu260 Cu 0.18300 0.50492 0.82094
 C261 C 0.18620 0.55668 0.88567
 C262 C 0.11553 0.45221 0.80753
 C263 C 0.18912 0.45282 0.88477
 C264 C 0.11400 0.55473 0.80715
 C265 C 0.26766 0.39892 0.04271
 C266 C 0.25236 0.35975 0.04013
 C267 C 0.21643 0.34879 0.06176
 C268 C 0.19523 0.37706 0.08459
 C269 C 0.21064 0.41615 0.08712
 C270 C 0.24715 0.42685 0.06638
 H271 H 0.29559 0.40772 0.02651
 H272 H 0.20440 0.31862 0.06024
 H273 H 0.16712 0.36841 0.10061
 H274 H 0.25935 0.45696 0.06809
 C275 C 0.78940 0.63618 0.04446
 C276 C 0.74514 0.63672 0.04399
 C277 C 0.72273 0.60856 0.06622
 C278 C 0.74424 0.58002 0.08826
 C279 C 0.78852 0.57882 0.08794
 C280 C 0.81096 0.60698 0.06568
 H281 H 0.80729 0.65876 0.02909
 H282 H 0.68854 0.60881 0.06655
 H283 H 0.72627 0.55861 0.10523
 H284 H 0.84515 0.60707 0.06558
 C285 C 0.73936 0.39858 0.95932
 C286 C 0.75258 0.35880 0.95649
 C287 C 0.78618 0.34902 0.93141
 C288 C 0.80690 0.37881 0.91010
 C289 C 0.79360 0.41846 0.91303
 C290 C 0.75966 0.42823 0.93755
 H291 H 0.71318 0.40654 0.97821
 H292 H 0.79656 0.31844 0.92875
 H293 H 0.83293 0.37093 0.89100
 H294 H 0.74899 0.45876 0.93985
 C295 C 0.26488 0.60577 0.95322
 C296 C 0.24811 0.64425 0.95674
 C297 C 0.21136 0.65418 0.93588
 C298 C 0.19074 0.62544 0.91297
 C299 C 0.20761 0.58703 0.90952
 C300 C 0.24499 0.57746 0.92941
 H301 H 0.29346 0.59779 0.96882
 H302 H 0.19823 0.68383 0.93810
 H303 H 0.16195 0.63323 0.89762
 H304 H 0.25832 0.54789 0.92702
 C305 C 0.07690 0.27696 0.38938
 C306 C 0.04415 0.26020 0.36698
 C307 C 0.03434 0.21969 0.37174
 C308 C 0.05587 0.19676 0.39956
 C309 C 0.08826 0.21375 0.42236
 C310 C 0.09888 0.25394 0.41665
 H311 H 0.08494 0.30816 0.38630
 H312 H 0.00970 0.20595 0.35428
 H313 H 0.04731 0.16575 0.40311
 H314 H 0.12361 0.26787 0.43386
 C315 C 0.07800 0.72217 0.61185
 C316 C 0.04548 0.73937 0.63414
 C317 C 0.03787 0.78041 0.63069
 C318 C 0.06062 0.80328 0.60358
 C319 C 0.09227 0.78573 0.58041
 C320 C 0.10131 0.74515 0.58542
 H321 H 0.08449 0.69060 0.61405
 H322 H 0.01340 0.79442 0.64807
 H323 H 0.05334 0.83462 0.60062
 H324 H 0.12552 0.73085 0.56798
 C325 C 0.92355 0.76278 0.34983
 C326 C 0.95575 0.73754 0.36350
 C327 C 0.96340 0.73497 0.40412
 C328 C 0.94029 0.75822 0.43043
 C329 C 0.90853 0.78358 0.41665
 C330 C 0.90000 0.78562 0.37630
 H331 H 0.91696 0.76502 0.31866
 H332 H 0.98733 0.71505 0.41542
 H333 H 0.94701 0.75627 0.46159
 H334 H 0.87553 0.80517 0.36533
 C335 C 0.95728 0.26750 0.59882
 C336 C 0.95071 0.26146 0.63924
 C337 C 0.91932 0.23457 0.65151
 C338 C 0.89603 0.21293 0.62375
 C339 C 0.90388 0.21807 0.58353
 C340 C 0.93435 0.24560 0.57119
 H341 H 0.98077 0.28862 0.58873
 H342 H 0.91358 0.22972 0.68254
 H343 H 0.87252 0.19171 0.63360
 H344 H 0.94057 0.24991 0.54018
 C345 C 0.38342 0.08009 0.27324
 C346 C 0.35766 0.05010 0.25721
 C347 C 0.35758 0.04417 0.21628
 C348 C 0.38493 0.06605 0.19223
 C349 C 0.41168 0.09512 0.20858
 C350 C 0.40991 0.10255 0.24916
 H351 H 0.38407 0.08523 0.30469
 H352 H 0.33742 0.02170 0.20319
 H353 H 0.38546 0.06002 0.16094
 H354 H 0.43029 0.12466 0.26256
 C355 C 0.65825 0.06802 0.77268
 C356 C 0.64356 0.03950 0.74569
 C357 C 0.59991 0.03414 0.74068
 C358 C 0.57139 0.05652 0.76277
 C359 C 0.58615 0.08468 0.78989
 C360 C 0.62964 0.09042 0.79481
 H361 H 0.69181 0.07273 0.77671
 H362 H 0.58798 0.01279 0.71951
 H363 H 0.53783 0.05206 0.75855
 H364 H 0.64135 0.11224 0.81562
 C365 C 0.35725 0.95755 0.78686
 C366 C 0.35492 0.95125 0.74608
 C367 C 0.37947 0.92108 0.72901
 C368 C 0.40722 0.89879 0.75191
 C369 C 0.41140 0.90656 0.79227
 C370 C 0.38581 0.93580 0.80970
 H371 H 0.33811 0.98027 0.80069
 H372 H 0.37818 0.91568 0.69762
 H373 H 0.42656 0.87646 0.73772
 H374 H 0.38813 0.94203 0.84088
 C375 C 0.65359 0.94764 0.21360
 C376 C 0.64543 0.95793 0.25283
 C377 C 0.60840 0.94429 0.27098
 C378 C 0.57940 0.92125 0.24994
 C379 C 0.58662 0.91242 0.21020
 C380 C 0.62382 0.92581 0.19208
 H381 H 0.68259 0.95706 0.19953
 H382 H 0.60198 0.95162 0.30142
 H383 H 0.55080 0.91122 0.26433
 H384 H 0.63002 0.91892 0.16150
 C385 C 0.36659 0.21586 0.96064
 C386 C 0.36020 0.25643 0.95154
 C387 C 0.38234 0.27232 0.91909
 C388 C 0.41051 0.24901 0.89752
 C389 C 0.41759 0.20905 0.90757
 C390 C 0.39520 0.19268 0.93928
 H391 H 0.34841 0.20133 0.98337
 H392 H 0.37939 0.30339 0.91113
 H393 H 0.42746 0.26264 0.87335
 H394 H 0.39936 0.16174 0.94730
 C395 C 0.59737 0.74980 0.97121
 C396 C 0.63992 0.74561 0.95956
 C397 C 0.65260 0.76388 0.92400
 C398 C 0.62412 0.78613 0.90164
 C399 C 0.58261 0.79117 0.91455
 C400 C 0.56937 0.77304 0.94942
 H401 H 0.58496 0.73399 0.99637
 H402 H 0.68490 0.76194 0.91381
 H403 H 0.63463 0.79986 0.87453
 H404 H 0.53693 0.77581 0.95911
 C405 C 0.36320 0.78784 0.03734
 C406 C 0.35554 0.74742 0.04639
 C407 C 0.37682 0.73108 0.07911
 C408 C 0.40521 0.75381 0.10113
 C409 C 0.41345 0.79364 0.09127
 C410 C 0.39205 0.81046 0.05920
 H411 H 0.34589 0.80265 0.01422
 H412 H 0.37304 0.70005 0.08697
 H413 H 0.42142 0.73980 0.12550
 H414 H 0.39722 0.84130 0.05124
 C415 C 0.60014 0.25136 0.03003
 C416 C 0.64336 0.24980 0.03928
 C417 C 0.65673 0.22599 0.07091
 C418 C 0.62744 0.20414 0.09285
 C419 C 0.58452 0.20544 0.08312
 C420 C 0.57101 0.22888 0.05148
 H421 H 0.58892 0.27027 0.00648
 H422 H 0.68983 0.22456 0.07873
 H423 H 0.63818 0.18632 0.11742
 H424 H 0.53781 0.23047 0.04400
 C425 C 0.27221 0.07774 0.62221
 C426 C 0.25387 0.04398 0.64008
 C427 C 0.21188 0.03422 0.63007
 C428 C 0.18974 0.05638 0.60210
 C429 C 0.20868 0.08934 0.58385
 C430 C 0.24998 0.09999 0.59450
 H431 H 0.30461 0.08613 0.62819
 H432 H 0.19544 0.01018 0.64468
 H433 H 0.15762 0.04788 0.59505
 H434 H 0.26553 0.12519 0.58089
 C435 C 0.78810 0.03973 0.37082
 C436 C 0.74607 0.04852 0.36015
 C437 C 0.72640 0.08121 0.37865
 C438 C 0.74733 0.10323 0.40756
 C439 C 0.78867 0.09350 0.41882
 C440 C 0.80893 0.06166 0.39996
 H441 H 0.80566 0.01675 0.35579
 H442 H 0.69397 0.08892 0.37217
 H443 H 0.73075 0.12757 0.42155
 H444 H 0.84111 0.05391 0.40741
 C445 C 0.79238 0.95066 0.63632
 C446 C 0.74815 0.95255 0.63685
 C447 C 0.72502 0.93163 0.60832
 C448 C 0.74580 0.90970 0.57928
 C449 C 0.79010 0.90879 0.57797
 C450 C 0.81324 0.92958 0.60667
 H451 H 0.81075 0.96499 0.65910
 H452 H 0.69084 0.93236 0.60855
 H453 H 0.72724 0.89390 0.55751
 H454 H 0.84741 0.92872 0.60670
 C455 C 0.25753 0.96755 0.40519
 C456 C 0.25871 0.95685 0.36501
 C457 C 0.23860 0.92102 0.35367
 C458 C 0.21683 0.89780 0.38113
 C459 C 0.21440 0.90997 0.42039
 C460 C 0.23490 0.94481 0.43233
 H461 H 0.27507 0.99289 0.41613
 H462 H 0.23834 0.91149 0.32324
 H463 H 0.20120 0.87074 0.37161
 H464 H 0.23411 0.95398 0.46288
 C465 C 0.03868 0.40733 0.73567
 C466 C 0.04708 0.36648 0.73960
 C467 C 0.07964 0.35413 0.76489
 C468 C 0.10259 0.38214 0.78671
 C469 C 0.09319 0.42274 0.78347
 C470 C 0.06126 0.43519 0.75780
 H471 H 0.01431 0.41759 0.71579
 H472 H 0.08676 0.32280 0.76820
 H473 H 0.12718 0.37216 0.80652
 H474 H 0.05374 0.46645 0.75500
 C475 C 0.08679 0.64114 0.24561
 C476 C 0.04767 0.63085 0.26293
 C477 C 0.03324 0.59129 0.25808
 C478 C 0.05500 0.56436 0.23428
 C479 C 0.09299 0.57543 0.21641
 C480 C 0.10927 0.61363 0.22289
 H481 H 0.09941 0.67101 0.24808
 H482 H 0.00551 0.58060 0.27331
 H483 H 0.04265 0.53449 0.23052
 H484 H 0.13880 0.62253 0.20942
 C485 C 0.96485 0.40728 0.26301
 C486 C 0.95384 0.36670 0.26297
 C487 C 0.91974 0.35383 0.23972
 C488 C 0.89764 0.38091 0.21633
 C489 C 0.90976 0.42101 0.21550
 C490 C 0.94341 0.43412 0.23890
 H491 H 0.99022 0.41813 0.28151
 H492 H 0.91052 0.32276 0.23943
 H493 H 0.87145 0.37055 0.19852
 H494 H 0.95265 0.46520 0.23888
 C495 C 0.96059 0.63380 0.77786
 C496 C 0.94884 0.63969 0.73825
 C497 C 0.91270 0.61951 0.72424
 C498 C 0.89096 0.59253 0.74809
 C499 C 0.90455 0.58499 0.78666
 C500 C 0.93914 0.60643 0.80152
 H501 H 0.98639 0.65044 0.79077
 H502 H 0.90250 0.62256 0.69400
 H503 H 0.86432 0.57654 0.73581
 H504 H 0.94975 0.60198 0.83147
 C505 C 0.72411 0.60835 0.94008
 C506 C 0.74609 0.64047 0.95671
 C507 C 0.78952 0.64456 0.94989
 C508 C 0.81117 0.61566 0.92833
 C509 C 0.78922 0.58334 0.91188
 C510 C 0.74546 0.58017 0.91745
 H511 H 0.69045 0.60513 0.94473
 H512 H 0.80661 0.66998 0.96136
 H513 H 0.84484 0.61891 0.92382
 H514 H 0.72799 0.55545 0.90495
 C515 C 0.27584 0.38404 0.92011
 C516 C 0.25668 0.36426 0.95210
 C517 C 0.21428 0.37365 0.96082
 C518 C 0.19244 0.40248 0.93924
 C519 C 0.21203 0.42229 0.90783
 C520 C 0.25389 0.41258 0.89841
 H521 H 0.30852 0.37862 0.91251
 H522 H 0.19709 0.35762 0.98324
 H523 H 0.15992 0.40876 0.94679
 H524 H 0.27002 0.42743 0.87446
 C525 C 0.27204 0.61994 0.07643
 C526 C 0.25220 0.63949 0.04471
 C527 C 0.20994 0.62927 0.03612
 C528 C 0.18877 0.60002 0.05782
 C529 C 0.20902 0.58059 0.08909
 C530 C 0.25082 0.59099 0.09818
 H531 H 0.30471 0.62592 0.08380
 H532 H 0.19236 0.64500 0.01378
 H533 H 0.15631 0.59308 0.05048
 H534 H 0.26749 0.57639 0.12194
 C535 C 0.79207 0.36657 0.03568
 C536 C 0.75008 0.35572 0.04450
 C537 C 0.73089 0.37322 0.07767
 C538 C 0.75215 0.40170 0.10004
 C539 C 0.79331 0.41347 0.09014
 C540 C 0.81325 0.39531 0.05798
 H541 H 0.80915 0.35222 0.01209
 H542 H 0.69850 0.36652 0.08542
 H543 H 0.73585 0.41516 0.12466
 H544 H 0.84529 0.40322 0.05007
 C545 C 0.96429 0.73807 0.59007
 C546 C 0.95016 0.73429 0.62927
 C547 C 0.91123 0.75222 0.63925
 C548 C 0.88872 0.77470 0.61170
 C549 C 0.90480 0.78025 0.57381
 C550 C 0.94253 0.76167 0.56308
 H551 H 0.99196 0.72239 0.57983
 H552 H 0.89893 0.75059 0.66890
 H553 H 0.85948 0.78888 0.62036
 H554 H 0.95487 0.76498 0.53358
 C555 C 0.91658 0.24103 0.35672
 C556 C 0.94959 0.26604 0.36920
 C557 C 0.95824 0.26950 0.40959
 C558 C 0.93572 0.24680 0.43684
 C559 C 0.90353 0.22120 0.42418
 C560 C 0.89361 0.21875 0.38411
 H561 H 0.90927 0.23810 0.32573
 H562 H 0.98294 0.28924 0.41994
 H563 H 0.94356 0.24901 0.46775
 H564 H 0.86877 0.19900 0.37403
 C565 C 0.03322 0.21939 0.63352
 C566 C 0.04543 0.25901 0.64152
 C567 C 0.08169 0.27398 0.62250
 C568 C 0.10339 0.25105 0.59496
 C569 C 0.08969 0.21241 0.58566
 C570 C 0.05472 0.19660 0.60559
 H571 H 0.00723 0.20567 0.64912
 H572 H 0.09217 0.30433 0.62708
 H573 H 0.13031 0.26410 0.58013
 H574 H 0.04399 0.16655 0.59969
 C575 C 0.04265 0.77951 0.36474
 C576 C 0.05054 0.73847 0.36156
 C577 C 0.08179 0.72134 0.38541
 C578 C 0.10384 0.74446 0.41270
 C579 C 0.09475 0.78514 0.41706
 C580 C 0.06415 0.80254 0.39262
 H581 H 0.01922 0.79355 0.34619
 H582 H 0.08834 0.68975 0.38368
 H583 H 0.12721 0.73022 0.43118
 H584 H 0.05684 0.83392 0.39507
 C585 C 0.61923 0.92024 0.72895
 C586 C 0.64435 0.95013 0.74598
 C587 C 0.64064 0.95754 0.78655
 C588 C 0.61116 0.93659 0.80923
 C589 C 0.58564 0.90710 0.79197
 C590 C 0.59040 0.89882 0.75171
 H591 H 0.62121 0.91405 0.69774
 H592 H 0.66021 0.97987 0.80059
 H593 H 0.60845 0.94335 0.84027
 H594 H 0.57107 0.87638 0.73752
 C595 C 0.34731 0.92374 0.24043
 C596 C 0.36035 0.95988 0.25804
 C597 C 0.40258 0.97217 0.25229
 C598 C 0.42975 0.95059 0.22809
 C599 C 0.41616 0.91517 0.21057
 C600 C 0.37506 0.90150 0.21726
 H601 H 0.31524 0.91300 0.24364
 H602 H 0.41539 0.99775 0.26752
 H603 H 0.46196 0.96077 0.22420
 H604 H 0.36433 0.87387 0.20416
 C605 C 0.64153 0.04403 0.21214
 C606 C 0.64088 0.04665 0.25338
 C607 C 0.61156 0.07212 0.27136
 C608 C 0.58314 0.09407 0.24864
 C609 C 0.58298 0.09053 0.20747
 C610 C 0.61231 0.06515 0.18941
 H611 H 0.66509 0.02623 0.19742
 H612 H 0.61060 0.07492 0.30309
 H613 H 0.56075 0.11334 0.26332
 H614 H 0.61326 0.06238 0.15768
 C615 C 0.34823 0.07826 0.76025
 C616 C 0.36019 0.04144 0.74342
 C617 C 0.40210 0.02848 0.74923
 C618 C 0.42997 0.05012 0.77284
 C619 C 0.41744 0.08625 0.78953
 C620 C 0.37671 0.10055 0.78271
 H621 H 0.31640 0.08947 0.75711
 H622 H 0.41406 0.00225 0.73461
 H623 H 0.46180 0.03925 0.77710
 H624 H 0.36673 0.12861 0.79534
 C625 C 0.64024 0.78713 0.04369
 C626 C 0.64169 0.74567 0.04891
 C627 C 0.61633 0.72804 0.07799
 C628 C 0.58896 0.75115 0.10048
 C629 C 0.58595 0.79229 0.09399
 C630 C 0.61208 0.81019 0.06563
 H631 H 0.66002 0.80141 0.02187
 H632 H 0.61683 0.69613 0.08251
 H633 H 0.56908 0.73658 0.12204
 H634 H 0.61059 0.84194 0.06034
 C635 C 0.39919 0.26492 0.04118
 C636 C 0.35655 0.25359 0.03961
 C637 C 0.34267 0.22083 0.06179
 C638 C 0.37148 0.19878 0.08408
 C639 C 0.41406 0.21017 0.08547
 C640 C 0.42770 0.24354 0.06426
 H641 H 0.41030 0.29036 0.02455
 H642 H 0.30981 0.21190 0.06104
 H643 H 0.36058 0.17309 0.10047
 H644 H 0.46051 0.25264 0.06513
 C645 C 0.64489 0.20817 0.95773
 C646 C 0.65004 0.24912 0.95082
 C647 C 0.62682 0.26719 0.92055
 C648 C 0.59799 0.24514 0.89845
 C649 C 0.59139 0.20461 0.90646
 C650 C 0.61539 0.18619 0.93606
 H651 H 0.66297 0.19345 0.98049
 H652 H 0.63007 0.29876 0.91477
 H653 H 0.57988 0.26015 0.87589
 H654 H 0.61120 0.15488 0.94258
 C655 C 0.39561 0.73825 0.95804
 C656 C 0.35308 0.74988 0.95827
 C657 C 0.34017 0.78219 0.93506
 C658 C 0.36981 0.80347 0.91293
 C659 C 0.41227 0.79180 0.91292
 C660 C 0.42499 0.75895 0.93527
 H661 H 0.40595 0.71311 0.97547
 H662 H 0.30741 0.79133 0.93479
 H663 H 0.35968 0.82880 0.89565
 H664 H 0.45772 0.74969 0.93546
 C665 C 0.73578 0.95816 0.39718
 C666 C 0.75038 0.95923 0.35822
 C667 C 0.78571 0.93644 0.34764
 C668 C 0.80685 0.91372 0.37595
 C669 C 0.79209 0.91264 0.41479
 C670 C 0.75632 0.93474 0.42522
 H671 H 0.70832 0.97525 0.40571
 H672 H 0.79718 0.93676 0.31764
 H673 H 0.83430 0.89656 0.36749
 H674 H 0.74452 0.93403 0.45511
 C675 C 0.26588 0.95668 0.59865
 C676 C 0.25299 0.95492 0.63809
 C677 C 0.21945 0.92979 0.64881
 C678 C 0.19829 0.90751 0.62018
 C679 C 0.21123 0.90938 0.58084
 C680 C 0.24522 0.93384 0.57018
 H681 H 0.29199 0.97563 0.59004
 H682 H 0.20937 0.92798 0.67918
 H683 H 0.17209 0.88862 0.62869
 H684 H 0.25544 0.93547 0.53982
 C685 C 0.27566 0.07622 0.38879
 C686 C 0.25578 0.04694 0.36582
 C687 C 0.21212 0.04076 0.36996
 C688 C 0.18915 0.06243 0.39783
 C689 C 0.20931 0.09131 0.42120
 C690 C 0.25267 0.09828 0.41602
 H691 H 0.30930 0.08144 0.38617
 H692 H 0.19606 0.01869 0.35214
 H693 H 0.15568 0.05669 0.40102
 H694 H 0.26911 0.12024 0.43368
 C695 C 0.72495 0.06080 0.60983
 C696 C 0.74834 0.04133 0.63906
 C697 C 0.79224 0.04658 0.64052
 C698 C 0.81272 0.06951 0.61198
 C699 C 0.78932 0.08892 0.58263
 C700 C 0.74523 0.08471 0.58202
 H701 H 0.69094 0.05754 0.60868
 H702 H 0.81057 0.03332 0.66392
 H703 H 0.84669 0.07292 0.61338
 H704 H 0.72656 0.09944 0.55967
 C705 C 0.95937 0.63432 0.21851
 C706 C 0.95223 0.63599 0.25923
 C707 C 0.92004 0.61257 0.27573
 C708 C 0.89677 0.58646 0.25230
 C709 C 0.90558 0.58298 0.21200
 C710 C 0.93665 0.60754 0.19516
 H711 H 0.98357 0.65266 0.20514
 H712 H 0.91395 0.61346 0.30706
 H713 H 0.87304 0.56784 0.26603
 H714 H 0.94374 0.60568 0.16406
 C715 C 0.92005 0.38563 0.72698
 C716 C 0.95255 0.36298 0.74385
 C717 C 0.96186 0.36793 0.78396
 C718 C 0.94032 0.39631 0.80631
 C719 C 0.90832 0.41946 0.78918
 C720 C 0.89798 0.41342 0.74946
 H721 H 0.91239 0.38248 0.69608
 H722 H 0.98627 0.35029 0.79780
 H723 H 0.94860 0.40006 0.83699
 H724 H 0.87352 0.43089 0.73547
 C725 C 0.07559 0.65063 0.76212
 C726 C 0.04361 0.63667 0.73691
 C727 C 0.03635 0.59550 0.73398
 C728 C 0.05926 0.56895 0.75718
 C729 C 0.09059 0.58301 0.78276
 C730 C 0.09904 0.62390 0.78487
 H731 H 0.08190 0.68223 0.76461
 H732 H 0.01246 0.58401 0.71417
 H733 H 0.05262 0.53742 0.75513
 H734 H 0.12329 0.63509 0.80448
 C735 C 0.08161 0.38317 0.27658
 C736 C 0.04861 0.36040 0.26052
 C737 C 0.04021 0.36303 0.22004
 C738 C 0.06277 0.38976 0.19655
 C739 C 0.09489 0.41347 0.21294
 C740 C 0.10469 0.40929 0.25299
 H741 H 0.08866 0.38166 0.30772
 H742 H 0.01547 0.34517 0.20686
 H743 H 0.05486 0.39213 0.16565
 H744 H 0.12919 0.42726 0.26642
   
