data_POSCAR
  _audit_creation_date              2014-09-24
  _audit_creation_method            'ToBaCCo'
  _symmetry_space_group_name_H-M    'P1'
  _symmetry_Int_Tables_number       1
  _symmetry_cell_setting            triclinic
  loop_
  _symmetry_equiv_pos_as_xyz
 x,y,z
_cell_length_a 60.5365
_cell_length_b 30.2915
_cell_length_c 28.2581
_cell_angle_alpha 89.952200
_cell_angle_beta 89.992800
_cell_angle_gamma 89.841900
loop_
  _atom_site_label
  _atom_site_type_symbol
  _atom_site_fract_x
  _atom_site_fract_y
  _atom_site_fract_z
C1 C 0.69530 0.29718 0.49117
 C2 C 0.70603 0.29395 0.53534
 C3 C 0.72760 0.27591 0.53618
 C4 C 0.73750 0.25810 0.49507
 C5 C 0.72564 0.26018 0.45220
 C6 C 0.70495 0.28072 0.44975
 C7 C 0.75994 0.23677 0.49673
 C8 C 0.77325 0.23473 0.45575
 C9 C 0.79395 0.21320 0.45563
 C10 C 0.80182 0.19603 0.49885
 C11 C 0.78926 0.19877 0.54041
 C12 C 0.76822 0.21811 0.53890
 H13 H 0.67972 0.31453 0.48809
 H14 H 0.73646 0.27419 0.56918
 H15 H 0.73216 0.24530 0.42035
 H16 H 0.76792 0.25178 0.42418
 H17 H 0.81755 0.17914 0.50054
 H18 H 0.75834 0.21755 0.57074
 C19 C 0.19723 0.80526 0.50221
 C20 C 0.20513 0.78876 0.54572
 C21 C 0.22535 0.76523 0.54540
 C22 C 0.23839 0.76167 0.50403
 C23 C 0.23016 0.78033 0.46182
 C24 C 0.20940 0.80072 0.46037
 C25 C 0.26065 0.73940 0.50506
 C26 C 0.27017 0.72212 0.46337
 C27 C 0.29157 0.70442 0.46356
 C28 C 0.30295 0.70042 0.50646
 C29 C 0.29382 0.71572 0.54927
 C30 C 0.27291 0.73642 0.54755
 H31 H 0.18090 0.81970 0.49988
 H32 H 0.23140 0.75102 0.57783
 H33 H 0.23984 0.77991 0.42970
 H34 H 0.26131 0.72300 0.43020
 H35 H 0.31863 0.68323 0.50607
 H36 H 0.26678 0.75237 0.57905
 C37 C 0.30337 0.29762 -0.50408
 C38 C 0.29419 0.28222 -0.54635
 C39 C 0.27329 0.26242 -0.54546
 C40 C 0.26067 0.26033 -0.50336
 C41 C 0.27020 0.27744 -0.46147
 C42 C 0.29178 0.29440 -0.46135
 C43 C 0.23796 0.23988 -0.50343
 C44 C 0.22812 0.22397 -0.46128
 C45 C 0.20659 0.20589 -0.46100
 C46 C 0.19591 0.20010 -0.50484
 C47 C 0.20552 0.21419 -0.54721
 C48 C 0.22592 0.23574 -0.54601
 H49 H 0.31952 0.31297 -0.50447
 H50 H 0.26737 0.24802 -0.57797
 H51 H 0.26125 0.27732 -0.42845
 H52 H 0.23686 0.22704 -0.42833
 H53 H 0.18016 0.18340 -0.50671
 H54 H 0.23234 0.24839 -0.57895
 C55 C -0.19595 0.79795 -0.49363
 C56 C -0.20683 0.79444 -0.53756
 C57 C -0.22837 0.77645 -0.53787
 C58 C -0.23806 0.75882 -0.49640
 C59 C -0.22595 0.76099 -0.45382
 C60 C -0.20535 0.78169 -0.45193
 C61 C -0.26065 0.73815 -0.49730
 C62 C -0.27342 0.73516 -0.45557
 C63 C -0.29428 0.71531 -0.45576
 C64 C -0.30318 0.70008 -0.49834
 C65 C -0.29108 0.70296 -0.54053
 C66 C -0.26972 0.72105 -0.53958
 H67 H -0.18048 0.81556 -0.49097
 H68 H -0.23733 0.77482 -0.57072
 H69 H -0.23217 0.74622 -0.42169
 H70 H -0.26761 0.74876 -0.42252
 H71 H -0.31956 0.68575 -0.49844
 H72 H -0.26023 0.72065 -0.57194
 O73 O -0.03058 0.93072 0.09283
 O74 O -0.05490 0.96772 0.04474
 C75 C -0.05048 0.94193 0.08017
 O76 O 0.03147 1.08548 0.07748
 O77 O 0.05574 1.04094 0.03736
 C78 C 0.05134 1.07282 0.06653
 O79 O -0.03044 1.08140 0.08273
 O80 O -0.05492 1.03967 0.04006
 C81 C -0.05036 1.06925 0.07178
 O82 O 0.03156 0.92557 0.08831
 O83 O 0.05576 0.96505 0.04244
 C84 C 0.05143 0.93679 0.07568
 Zr85 Zr 0.00050 0.94856 0.06379
 O86 O 0.00283 0.94964 0.13852
 O87 O -0.00057 0.87888 0.06281
 Zr88 Zr 0.00047 1.06034 0.05595
 O89 O 0.00292 1.06776 0.13019
 O90 O -0.00216 1.12969 0.04814
 O91 O -0.01901 1.00512 0.06949
 O92 O 0.01957 1.00487 0.06853
 O93 O 0.03116 0.91558 -0.07653
 O94 O 0.05558 0.96034 -0.03742
 C95 C 0.05108 0.92832 -0.06627
 O96 O -0.03091 1.07084 -0.09179
 O97 O -0.05507 1.03471 -0.04281
 C98 C -0.05077 1.06005 -0.07866
 O99 O 0.03124 1.07557 -0.08812
 O100 O 0.05560 1.03627 -0.04228
 C101 C 0.05115 1.06437 -0.07560
 O102 O -0.03081 0.92027 -0.08052
 O103 O -0.05508 0.96282 -0.03793
 C104 C -0.05067 0.93291 -0.06944
 Zr105 Zr 0.00026 0.94153 -0.05495
 O106 O 0.00246 0.93525 -0.12941
 O107 O -0.00196 0.87210 -0.04811
 Zr108 Zr 0.00024 1.05327 -0.06284
 O109 O 0.00248 1.05158 -0.13753
 O110 O -0.00242 1.12296 -0.06496
 Zr111 Zr -0.03241 1.00112 0.00080
 Zr112 Zr 0.03331 1.00075 0.00024
 O113 O 0.01932 0.99675 -0.06784
 O114 O -0.01929 0.99691 -0.06817
 O115 O 0.02025 0.93649 0.00486
 O116 O -0.01900 1.06491 -0.00382
 O117 O -0.01900 0.93717 0.00518
 O118 O 0.02023 1.06525 -0.00420
 H119 H 0.02940 1.00644 0.09649
 H120 H -0.02933 1.09031 -0.00550
 H121 H 0.02908 0.99498 -0.09593
 H122 H -0.02922 0.91173 0.00702
 H123 H 0.01136 1.14000 0.03193
 H124 H 0.01105 1.13517 -0.05016
 H125 H -0.00806 1.02903 -0.14872
 H126 H -0.00903 0.95454 -0.14335
 H127 H 0.00980 0.86270 -0.02593
 H128 H -0.00068 0.86952 0.09640
 H129 H -0.00807 0.97146 0.15009
 H130 H -0.00708 1.04580 0.14462
 O131 O 0.47010 0.41921 0.08139
 O132 O 0.44533 0.46125 0.03948
 C133 C 0.45010 0.43143 0.07090
 O134 O 0.53143 0.57503 0.08799
 O135 O 0.55566 0.53671 0.04099
 C136 C 0.55130 0.56430 0.07483
 O137 O 0.46934 0.56943 0.09314
 O138 O 0.44504 0.53301 0.04480
 C139 C 0.44946 0.55828 0.08058
 O140 O 0.53206 0.41574 0.07524
 O141 O 0.55603 0.46083 0.03518
 C142 C 0.55185 0.42865 0.06415
 Zr143 Zr 0.50086 0.44084 0.05449
 O144 O 0.50364 0.43335 0.12870
 O145 O 0.49858 0.37148 0.04673
 Zr146 Zr 0.50037 0.55252 0.06322
 O147 O 0.50316 0.55007 0.13782
 O148 O 0.49747 0.62217 0.06577
 O149 O 0.48115 0.49576 0.06872
 O150 O 0.51973 0.49632 0.06721
 O151 O 0.53129 0.42708 -0.09014
 O152 O 0.55560 0.46621 -0.04435
 C153 C 0.55118 0.43833 -0.07781
 O154 O 0.46848 0.58165 -0.08066
 O155 O 0.44457 0.53870 -0.03783
 C156 C 0.44871 0.56886 -0.06922
 O157 O 0.53046 0.58634 -0.07809
 O158 O 0.55522 0.54208 -0.03898
 C159 C 0.55046 0.57391 -0.06802
 O160 O 0.46912 0.43110 -0.09274
 O161 O 0.44491 0.46675 -0.04331
 C162 C 0.44925 0.44163 -0.07930
 Zr163 Zr 0.50024 0.44889 -0.06426
 O164 O 0.50221 0.45133 -0.13899
 O165 O 0.49794 0.37919 -0.06693
 Zr166 Zr 0.49975 0.56057 -0.05556
 O167 O 0.50163 0.56797 -0.12993
 O168 O 0.49696 0.62986 -0.04756
 Zr169 Zr 0.46754 0.50024 0.00023
 Zr170 Zr 0.53326 0.50118 -0.00125
 O171 O 0.51902 0.50558 -0.06909
 O172 O 0.48041 0.50512 -0.06890
 O173 O 0.52045 0.43659 -0.00599
 O174 O 0.48069 0.56426 0.00489
 O175 O 0.48124 0.43661 -0.00506
 O176 O 0.51990 0.56538 0.00403
 H177 H 0.52970 0.49450 0.09495
 H178 H 0.47029 0.58950 0.00713
 H179 H 0.52866 0.50754 -0.09736
 H180 H 0.47105 0.41112 -0.00675
 H181 H 0.51091 0.63470 0.05111
 H182 H 0.51039 0.64017 -0.03103
 H183 H 0.49061 0.54782 -0.14399
 H184 H 0.49128 0.47340 -0.14991
 H185 H 0.51151 0.36696 -0.05244
 H186 H 0.51190 0.36148 0.02949
 H187 H 0.49291 0.45384 0.14338
 H188 H 0.49234 0.52813 0.14927
 C189 C 0.30718 0.31320 0.32659
 C190 C 0.33009 0.30684 0.32532
 C191 C 0.34103 0.28993 0.36503
 C192 C 0.32925 0.28048 0.40630
 C193 C 0.30634 0.28794 0.40844
 C194 C 0.29535 0.30366 0.36787
 C195 C 0.34273 0.32020 0.28466
 C196 C 0.35409 0.33224 0.25213
 C197 C 0.36835 0.34704 0.21599
 C198 C 0.38136 0.36001 0.18689
 C199 C 0.39792 0.37561 0.15447
 C200 C 0.41934 0.35843 0.15730
 C201 C 0.43614 0.37579 0.12912
 C202 C 0.43177 0.41069 0.09754
 C203 C 0.41000 0.42691 0.09385
 C204 C 0.39320 0.40957 0.12235
 H205 H 0.29858 0.32660 0.29615
 H206 H 0.35876 0.28499 0.36445
 H207 H 0.33811 0.26792 0.43680
 H208 H 0.27775 0.31017 0.36867
 H209 H 0.42318 0.33221 0.18210
 H210 H 0.45264 0.36236 0.13278
 H211 H 0.40606 0.45370 0.06988
 H212 H 0.37668 0.42323 0.12004
 C213 C -0.16186 0.82138 0.37617
 C214 C -0.17386 0.83551 0.33684
 C215 C -0.19694 0.83585 0.33848
 C216 C -0.20798 0.82225 0.37960
 C217 C -0.19606 0.80829 0.42012
 C218 C -0.17272 0.80789 0.41714
 C219 C -0.16198 0.84971 0.29544
 C220 C -0.15054 0.86112 0.26275
 C221 C -0.13566 0.87392 0.22686
 C222 C -0.12189 0.88450 0.19823
 C223 C -0.10439 0.89685 0.16641
 C224 C -0.10850 0.92483 0.12796
 C225 C -0.09105 0.93870 0.09908
 C226 C -0.06923 0.92493 0.10854
 C227 C -0.06540 0.89620 0.14683
 C228 C -0.08285 0.88231 0.17548
 H229 H -0.14396 0.82049 0.37511
 H230 H -0.20641 0.84700 0.30820
 H231 H -0.22580 0.82467 0.37978
 H232 H -0.16253 0.79552 0.44569
 H233 H -0.12510 0.93648 0.12076
 H234 H -0.09463 0.96085 0.06996
 H235 H -0.04886 0.88498 0.15522
 H236 H -0.07946 0.86081 0.20530
 C237 C 0.67554 0.63595 0.37181
 C238 C 0.67643 0.66278 0.33151
 C239 C 0.68912 0.70134 0.33208
 C240 C 0.70038 0.71368 0.37324
 C241 C 0.69893 0.68768 0.41441
 C242 C 0.68671 0.64828 0.41297
 C243 C 0.66302 0.65219 0.29102
 C244 C 0.65094 0.64329 0.25850
 C245 C 0.63585 0.63263 0.22219
 C246 C 0.62219 0.62326 0.19283
 C247 C 0.60501 0.61168 0.15988
 C248 C 0.60908 0.58153 0.12338
 C249 C 0.59176 0.56738 0.09436
 C250 C 0.57009 0.58302 0.10174
 C251 C 0.56635 0.61437 0.13761
 C252 C 0.58368 0.62851 0.16644
 H253 H 0.66579 0.60601 0.37178
 H254 H 0.68983 0.72244 0.30115
 H255 H 0.70951 0.74438 0.37345
 H256 H 0.68554 0.62734 0.44394
 H257 H 0.62550 0.56810 0.11813
 H258 H 0.59522 0.54309 0.06723
 H259 H 0.54992 0.62714 0.14430
 H260 H 0.58034 0.65172 0.19472
 C261 C 0.18097 1.22867 0.32992
 C262 C 0.17199 1.18672 0.32211
 C263 C 0.17451 1.15371 0.35634
 C264 C 0.18561 1.16268 0.39852
 C265 C 0.19438 1.20486 0.40712
 C266 C 0.19220 1.23768 0.37215
 C267 C 0.15923 1.17762 0.28029
 C268 C 0.14781 1.16860 0.24674
 C269 C 0.13355 1.15654 0.20944
 C270 C 0.12059 1.14515 0.17949
 C271 C 0.10416 1.13045 0.14630
 C272 C 0.08311 1.14957 0.14707
 C273 C 0.06615 1.13195 0.11952
 C274 C 0.06999 1.09477 0.09081
 C275 C 0.09145 1.07682 0.08876
 C276 C 0.10840 1.09447 0.11654
 H277 H 0.17901 1.25453 0.30374
 H278 H 0.16766 1.12112 0.35068
 H279 H 0.18736 1.13658 0.42449
 H280 H 0.19871 1.27049 0.37797
 H281 H 0.07959 1.17722 0.17021
 H282 H 0.04986 1.14667 0.12185
 H283 H 0.09496 1.04811 0.06718
 H284 H 0.12459 1.07914 0.11597
 C285 C 0.66074 0.31977 -0.37855
 C286 C 0.67262 0.33305 -0.33878
 C287 C 0.69570 0.33375 -0.34033
 C288 C 0.70686 0.32113 -0.38165
 C289 C 0.69508 0.30768 -0.42248
 C290 C 0.67173 0.30723 -0.41976
 C291 C 0.66072 0.34579 -0.29685
 C292 C 0.64949 0.35608 -0.26339
 C293 C 0.63500 0.36785 -0.22634
 C294 C 0.62163 0.37790 -0.19660
 C295 C 0.60461 0.39011 -0.16349
 C296 C 0.60873 0.42127 -0.12805
 C297 C 0.59151 0.43586 -0.09889
 C298 C 0.56990 0.41965 -0.10513
 C299 C 0.56613 0.38738 -0.13996
 C300 C 0.58336 0.37279 -0.16890
 H301 H 0.64285 0.31863 -0.37759
 H302 H 0.70508 0.34429 -0.30973
 H303 H 0.72466 0.32368 -0.38159
 H304 H 0.66165 0.29526 -0.44860
 H305 H 0.62510 0.43503 -0.12368
 H306 H 0.59500 0.46074 -0.07246
 H307 H 0.54977 0.37403 -0.14562
 H308 H 0.57998 0.34872 -0.19629
 C309 C 0.18348 0.77679 -0.32996
 C310 C 0.16974 0.81382 -0.32672
 C311 C 0.16763 0.84214 -0.36541
 C312 C 0.17912 0.83370 -0.40722
 C313 C 0.19316 0.79644 -0.41160
 C314 C 0.19511 0.76815 -0.37183
 C315 C 0.15732 0.82293 -0.28436
 C316 C 0.14619 0.83217 -0.25037
 C317 C 0.13229 0.84450 -0.21248
 C318 C 0.11961 0.85603 -0.18197
 C319 C 0.10345 0.87074 -0.14805
 C320 C 0.10784 0.90667 -0.11839
 C321 C 0.09107 0.92429 -0.08991
 C322 C 0.06964 0.90631 -0.09112
 C323 C 0.06568 0.86915 -0.11971
 C324 C 0.08246 0.85156 -0.14793
 H325 H 0.18506 0.75433 -0.30029
 H326 H 0.15714 0.87113 -0.36319
 H327 H 0.17755 0.85786 -0.43522
 H328 H 0.20485 0.73823 -0.37307
 H329 H 0.12400 0.92198 -0.11842
 H330 H 0.09468 0.95297 -0.06842
 H331 H 0.04943 0.85438 -0.12140
 H332 H 0.07883 0.82390 -0.17092
 C333 C 0.30506 0.69591 -0.32177
 C334 C 0.32801 0.69075 -0.32206
 C335 C 0.33972 0.69640 -0.36416
 C336 C 0.32859 0.70591 -0.40617
 C337 C 0.30530 0.70978 -0.40723
 C338 C 0.29379 0.70563 -0.36380
 C339 C 0.33980 0.67790 -0.28002
 C340 C 0.35080 0.66624 -0.24671
 C341 C 0.36496 0.65187 -0.21014
 C342 C 0.37813 0.63928 -0.18111
 C343 C 0.39508 0.62417 -0.14926
 C344 C 0.41630 0.64197 -0.15297
 C345 C 0.43356 0.62481 -0.12586
 C346 C 0.42989 0.58945 -0.09453
 C347 C 0.40832 0.57266 -0.08984
 C348 C 0.39104 0.58980 -0.11726
 H349 H 0.29582 0.69138 -0.28931
 H350 H 0.35754 0.69299 -0.36467
 H351 H 0.33852 0.71111 -0.43748
 H352 H 0.27596 0.70720 -0.36228
 H353 H 0.41964 0.66842 -0.17779
 H354 H 0.44989 0.63872 -0.13024
 H355 H 0.40490 0.54552 -0.06600
 H356 H 0.37469 0.57559 -0.11433
 C357 C -0.17885 1.12860 -0.37193
 C358 C -0.17879 1.15593 -0.33203
 C359 C -0.19076 1.19555 -0.33256
 C360 C -0.20209 1.20854 -0.37345
 C361 C -0.20139 1.18218 -0.41439
 C362 C -0.19007 1.14159 -0.41284
 C363 C -0.16488 1.14493 -0.29240
 C364 C -0.15231 1.13571 -0.26080
 C365 C -0.13663 1.12483 -0.22567
 C366 C -0.12253 1.11539 -0.19728
 C367 C -0.10491 1.10387 -0.16532
 C368 C -0.10889 1.07677 -0.12612
 C369 C -0.09137 1.06340 -0.09711
 C370 C -0.06959 1.07681 -0.10712
 C371 C -0.06588 1.10481 -0.14608
 C372 C -0.08342 1.11819 -0.17490
 H373 H -0.16964 1.09787 -0.37193
 H374 H -0.19072 1.21708 -0.30196
 H375 H -0.21053 1.24011 -0.37382
 H376 H -0.18948 1.12041 -0.44367
 H377 H -0.12546 1.06540 -0.11844
 H378 H -0.09485 1.04188 -0.06743
 H379 H -0.04938 1.11582 -0.15486
 H380 H -0.08014 1.13911 -0.20522
 C381 C 0.65973 0.71679 -0.36511
 C382 C 0.66912 0.69172 -0.32854
 C383 C 0.69079 0.67597 -0.33292
 C384 C 0.70294 0.68485 -0.37390
 C385 C 0.69342 0.70909 -0.41112
 C386 C 0.67177 0.72521 -0.40635
 C387 C 0.65605 0.68016 -0.28782
 C388 C 0.64465 0.66973 -0.25469
 C389 C 0.63064 0.65679 -0.21725
 C390 C 0.61801 0.64514 -0.18674
 C391 C 0.60203 0.63053 -0.15243
 C392 C 0.58103 0.64985 -0.15175
 C393 C 0.56451 0.63260 -0.12268
 C394 C 0.56878 0.59572 -0.09371
 C395 C 0.59022 0.57758 -0.09318
 C396 C 0.60671 0.59481 -0.12254
 H397 H 0.64297 0.72911 -0.36214
 H398 H 0.69814 0.65608 -0.30514
 H399 H 0.71950 0.67155 -0.37725
 H400 H 0.66417 0.74403 -0.43465
 H401 H 0.57722 0.67744 -0.17482
 H402 H 0.54822 0.64742 -0.12397
 H403 H 0.59404 0.54905 -0.07153
 H404 H 0.62289 0.57945 -0.12298
 C405 C 0.19625 1.17048 -0.33517
 C406 C 0.17317 1.17172 -0.33363
 C407 C 0.16132 1.18451 -0.37369
 C408 C 0.17232 1.19566 -0.41530
 C409 C 0.19566 1.19432 -0.41812
 C410 C 0.20743 1.18182 -0.37688
 C411 C 0.16119 1.15932 -0.29169
 C412 C 0.14984 1.14904 -0.25842
 C413 C 0.13523 1.13705 -0.22171
 C414 C 0.12178 1.12672 -0.19230
 C415 C 0.10468 1.11409 -0.15963
 C416 C 0.08336 1.13121 -0.16536
 C417 C 0.06607 1.11606 -0.13702
 C418 C 0.06986 1.08346 -0.10243
 C419 C 0.09151 1.06743 -0.09589
 C420 C 0.10880 1.08259 -0.12444
 H421 H 0.20560 1.16030 -0.30433
 H422 H 0.14343 1.18605 -0.37276
 H423 H 0.16230 1.20705 -0.44456
 H424 H 0.22523 1.17871 -0.37691
 H425 H 0.07999 1.15552 -0.19259
 H426 H 0.04965 1.12921 -0.14296
 H427 H 0.09501 1.04224 -0.06970
 H428 H 0.12522 1.06897 -0.11982
 C429 C 0.30311 0.34648 -0.34125
 C430 C 0.32513 0.33375 -0.33398
 C431 C 0.33583 0.30734 -0.36750
 C432 C 0.32480 0.29427 -0.40843
 C433 C 0.30284 0.30743 -0.41662
 C434 C 0.29196 0.33324 -0.38235
 C435 C 0.33740 0.34870 -0.29341
 C436 C 0.34901 0.36049 -0.26117
 C437 C 0.36397 0.37354 -0.22552
 C438 C 0.37775 0.38421 -0.19695
 C439 C 0.39527 0.39658 -0.16520
 C440 C 0.41683 0.38239 -0.17462
 C441 C 0.43430 0.39628 -0.14608
 C442 C 0.43047 0.42465 -0.10752
 C443 C 0.40864 0.43806 -0.09768
 C444 C 0.39116 0.42413 -0.12642
 H445 H 0.29470 0.36707 -0.31559
 H446 H 0.35284 0.29723 -0.36225
 H447 H 0.33347 0.27382 -0.43383
 H448 H 0.27509 0.34403 -0.38790
 H449 H 0.42022 0.36114 -0.20460
 H450 H 0.45086 0.38532 -0.15474
 H451 H 0.40510 0.45994 -0.06834
 H452 H 0.37453 0.43539 -0.11883
 C453 C -0.15949 0.79176 -0.36144
 C454 C -0.17095 0.80845 -0.32232
 C455 C -0.19391 0.81377 -0.32452
 C456 C -0.20529 0.80341 -0.36617
 C457 C -0.19376 0.78796 -0.40615
 C458 C -0.17080 0.78151 -0.40304
 C459 C -0.15876 0.82247 -0.28131
 C460 C -0.14761 0.83488 -0.24861
 C461 C -0.13347 0.84990 -0.21240
 C462 C -0.12041 0.86282 -0.18338
 C463 C -0.10365 0.87808 -0.15127
 C464 C -0.10797 0.91232 -0.11930
 C465 C -0.09091 0.92936 -0.09135
 C466 C -0.06928 0.91250 -0.09540
 C467 C -0.06532 0.87728 -0.12675
 C468 C -0.08237 0.86028 -0.15442
 H469 H -0.14172 0.78763 -0.36016
 H470 H -0.20292 0.82697 -0.29455
 H471 H -0.22294 0.80909 -0.36774
 H472 H -0.16155 0.76921 -0.43310
 H473 H -0.12438 0.92648 -0.11672
 H474 H -0.09452 0.95645 -0.06758
 H475 H -0.04893 0.86334 -0.13066
 H476 H -0.07882 0.83387 -0.17915
 C477 C 0.30299 0.65279 0.34321
 C478 C 0.32515 0.66458 0.33653
 C479 C 0.33592 0.69022 0.37050
 C480 C 0.32481 0.70351 0.41129
 C481 C 0.30270 0.69126 0.41891
 C482 C 0.29176 0.66624 0.38418
 C483 C 0.33747 0.64953 0.29605
 C484 C 0.34915 0.63767 0.26391
 C485 C 0.36420 0.62456 0.22842
 C486 C 0.37804 0.61392 0.19993
 C487 C 0.39558 0.60170 0.16808
 C488 C 0.41707 0.61630 0.17714
 C489 C 0.43452 0.60292 0.14814
 C490 C 0.43073 0.57465 0.10952
 C491 C 0.40896 0.56080 0.10011
 C492 C 0.39151 0.57419 0.12931
 H493 H 0.29452 0.63282 0.31717
 H494 H 0.35303 0.69960 0.36568
 H495 H 0.33352 0.72342 0.43702
 H496 H 0.27477 0.65624 0.38925
 H497 H 0.42040 0.63757 0.20710
 H498 H 0.45102 0.61428 0.15642
 H499 H 0.40544 0.53907 0.07069
 H500 H 0.37494 0.56264 0.12201
 C501 C -0.19237 1.19683 0.32726
 C502 C -0.16953 1.19058 0.32938
 C503 C -0.15860 1.19429 0.37268
 C504 C -0.17046 1.20294 0.41403
 C505 C -0.19370 1.20797 0.41311
 C506 C -0.20435 1.20570 0.36854
 C507 C -0.15720 1.17831 0.28785
 C508 C -0.14610 1.16698 0.25459
 C509 C -0.13211 1.15279 0.21764
 C510 C -0.11925 1.14020 0.18798
 C511 C -0.10277 1.12494 0.15510
 C512 C -0.08150 1.14263 0.15732
 C513 C -0.06465 1.12532 0.12916
 C514 C -0.06882 1.08993 0.09821
 C515 C -0.09045 1.07321 0.09503
 C516 C -0.10731 1.09052 0.12352
 H517 H -0.20103 1.19372 0.29388
 H518 H -0.14084 1.18998 0.37464
 H519 H -0.16111 1.20658 0.44638
 H520 H -0.22212 1.20803 0.36541
 H521 H -0.07777 1.16913 0.18176
 H522 H -0.04825 1.13916 0.13240
 H523 H -0.09423 1.04601 0.07158
 H524 H -0.12371 1.07641 0.12173
 C525 C 0.69384 0.31008 0.32134
 C526 C 0.67096 0.30399 0.31866
 C527 C 0.65943 0.28798 0.35798
 C528 C 0.67058 0.27911 0.40020
 C529 C 0.69347 0.28618 0.40368
 C530 C 0.70507 0.30108 0.36358
 C531 C 0.65891 0.31669 0.27687
 C532 C 0.64794 0.32815 0.24342
 C533 C 0.63405 0.34231 0.20623
 C534 C 0.62127 0.35487 0.17637
 C535 C 0.60488 0.37029 0.14333
 C536 C 0.58402 0.35058 0.14299
 C537 C 0.56702 0.36855 0.11566
 C538 C 0.57063 0.40660 0.08814
 C539 C 0.59194 0.42516 0.08710
 C540 C 0.60893 0.40717 0.11473
 H541 H 0.70290 0.32286 0.29125
 H542 H 0.64170 0.28334 0.35636
 H543 H 0.66127 0.26730 0.43037
 H544 H 0.72265 0.30735 0.36545
 H545 H 0.58067 0.32209 0.16505
 H546 H 0.55087 0.35335 0.11717
 H547 H 0.59526 0.45454 0.06645
 H548 H 0.62501 0.42279 0.11489
 C549 C 0.17744 0.86829 0.37041
 C550 C 0.17738 0.83979 0.33145
 C551 C 0.18914 0.79999 0.33348
 C552 C 0.20037 0.78809 0.37485
 C553 C 0.19980 0.81576 0.41479
 C554 C 0.18856 0.85637 0.41185
 C555 C 0.16378 0.84984 0.29106
 C556 C 0.15154 0.85819 0.25862
 C557 C 0.13628 0.86820 0.22239
 C558 C 0.12252 0.87718 0.19307
 C559 C 0.10529 0.88864 0.16016
 C560 C 0.08401 0.87179 0.16675
 C561 C 0.06661 0.88616 0.13809
 C562 C 0.07025 0.91777 0.10241
 C563 C 0.09189 0.93333 0.09494
 C564 C 0.10926 0.91894 0.12375
 H565 H 0.16838 0.89918 0.36924
 H566 H 0.18907 0.77756 0.30363
 H567 H 0.20868 0.75642 0.37632
 H568 H 0.18803 0.87847 0.44194
 H569 H 0.08075 0.84842 0.19492
 H570 H 0.05022 0.87338 0.14477
 H571 H 0.09529 0.95770 0.06786
 H572 H 0.12566 0.93233 0.11845
   
