data_POSCAR
  _audit_creation_date              2014-09-24
  _audit_creation_method            'ToBaCCo'
  _symmetry_space_group_name_H-M    'P1'
  _symmetry_Int_Tables_number       1
  _symmetry_cell_setting            triclinic
  loop_
  _symmetry_equiv_pos_as_xyz
 x,y,z
_cell_length_a 39.4203
_cell_length_b 38.2873
_cell_length_c 38.6500
_cell_angle_alpha 90.328400
_cell_angle_beta 89.978400
_cell_angle_gamma 89.374300
loop_
  _atom_site_label
  _atom_site_type_symbol
  _atom_site_fract_x
  _atom_site_fract_y
  _atom_site_fract_z
N1 N 0.18408 1.25560 0.16398
 N2 N 0.16118 1.25549 0.18876
 C3 C 0.13787 1.28071 0.18250
 C4 C 0.14697 1.29731 0.15238
 C5 C 0.17623 1.28086 0.14116
 H6 H 0.11560 1.28602 0.19811
 H7 H 0.19024 1.28627 0.11776
 Cu8 Cu 0.16291 1.22134 0.22588
 Cu9 Cu 0.22119 1.22182 0.16202
 Cu10 Cu 0.22395 1.15880 0.22581
 N11 N 0.16425 1.18463 0.26051
 N12 N 0.18816 1.16037 0.26043
 C13 C 0.18212 1.13753 0.28601
 C14 C 0.15299 1.14824 0.30288
 C15 C 0.14210 1.17801 0.28616
 H16 H 0.19711 1.11432 0.29122
 H17 H 0.11926 1.19299 0.29158
 N18 N 0.25794 1.16148 0.18860
 N19 N 0.25685 1.18555 0.16426
 C20 C 0.28235 1.17953 0.14170
 C21 C 0.30015 1.15046 0.15250
 C22 C 0.28416 1.13951 0.18214
 H23 H 0.28702 1.19445 0.11854
 H24 H 0.29053 1.11662 0.19717
 H25 H 0.19540 1.18271 0.18759
 H26 H 0.22317 1.21139 0.21443
 N27 N 0.81287 0.74345 0.16354
 N28 N 0.83436 0.74221 0.18955
 C29 C 0.85772 0.71700 0.18334
 C30 C 0.85020 0.70176 0.15189
 C31 C 0.82175 0.71904 0.13992
 H32 H 0.87890 0.71069 0.20005
 H33 H 0.80894 0.71469 0.11555
 Cu34 Cu 0.83036 0.77433 0.22847
 Cu35 Cu 0.77605 0.77767 0.16143
 Cu36 Cu 0.77445 0.84132 0.22543
 N37 N 0.83253 0.81312 0.26097
 N38 N 0.81046 0.83913 0.25986
 C39 C 0.81826 0.86276 0.28446
 C40 C 0.84660 0.85071 0.30172
 C41 C 0.85522 0.81931 0.28628
 H42 H 0.80487 0.88720 0.28887
 H43 H 0.87673 0.80268 0.29241
 N44 N 0.74029 0.83890 0.18828
 N45 N 0.74091 0.81458 0.16388
 C46 C 0.71544 0.82079 0.14145
 C47 C 0.69813 0.85026 0.15238
 C48 C 0.71438 0.86123 0.18198
 H49 H 0.71045 0.80571 0.11829
 H50 H 0.70839 0.88433 0.19711
 H51 H 0.80305 0.81472 0.18870
 H52 H 0.77164 0.78866 0.21366
 N53 N 0.81122 1.25704 -0.16037
 N54 N 0.83515 1.25670 -0.18412
 C55 C 0.85693 1.28280 -0.17754
 C56 C 0.84590 1.30018 -0.14826
 C57 C 0.81695 1.28332 -0.13789
 H58 H 0.87950 1.28832 -0.19238
 H59 H 0.80171 1.28921 -0.11529
 Cu60 Cu 0.83608 1.22117 -0.22022
 Cu61 Cu 0.77545 1.22230 -0.15936
 Cu62 Cu 0.77711 1.15869 -0.22388
 N63 N 0.83700 1.18564 -0.25633
 N64 N 0.81375 1.16125 -0.25769
 C65 C 0.82085 1.13930 -0.28414
 C66 C 0.84996 1.15077 -0.30002
 C67 C 0.85973 1.18003 -0.28187
 H68 H 0.80647 1.11630 -0.29073
 H69 H 0.88212 1.19544 -0.28642
 N70 N 0.74220 1.16068 -0.18728
 N71 N 0.74159 1.18491 -0.16278
 C72 C 0.71578 1.17841 -0.14097
 C73 C 0.69953 1.14889 -0.15242
 C74 C 0.71677 1.13814 -0.18166
 H75 H 0.70979 1.19335 -0.11789
 H76 H 0.71170 1.11510 -0.19703
 H77 H 0.80259 1.18277 -0.18377
 H78 H 0.77564 1.21123 -0.21176
 N79 N 0.18935 0.74237 -0.16324
 N80 N 0.16498 0.74372 -0.18647
 C81 C 0.14255 0.71827 -0.18000
 C82 C 0.15363 0.70017 -0.15138
 C83 C 0.18325 0.71604 -0.14120
 H84 H 0.11945 0.71376 -0.19437
 H85 H 0.19863 0.70954 -0.11894
 Cu86 Cu 0.16423 0.77980 -0.22166
 Cu87 Cu 0.22597 0.77620 -0.16207
 Cu88 Cu 0.22472 0.84062 -0.22500
 N89 N 0.16354 0.81584 -0.25686
 N90 N 0.18745 0.83955 -0.25812
 C91 C 0.18045 0.86206 -0.28388
 C92 C 0.15074 0.85165 -0.29943
 C93 C 0.14051 0.82244 -0.28180
 H94 H 0.19535 0.88471 -0.29024
 H95 H 0.11766 0.80770 -0.28629
 N96 N 0.26023 0.83725 -0.18921
 N97 N 0.26070 0.81275 -0.16526
 C98 C 0.28679 0.81863 -0.14354
 C99 C 0.30337 0.84804 -0.15451
 C100 C 0.28602 0.85934 -0.18333
 H101 H 0.29260 0.80349 -0.12073
 H102 H 0.29112 0.88262 -0.19808
 H103 H 0.19928 0.81671 -0.18491
 H104 H 0.22498 0.78787 -0.21411
 Si105 Si 0.49988 1.00043 -0.00229
 Si106 Si 0.00234 0.49981 0.99808
 Si107 Si 1.00008 -0.00045 0.49936
 C108 C 0.06073 0.42368 1.06231
 C109 C 0.08959 0.43289 1.08198
 C110 C 0.10706 0.40702 1.10156
 C111 C 0.09557 0.37210 1.10133
 C112 C 0.06647 0.36298 1.08192
 C113 C 0.04903 0.38883 1.06232
 C114 C 0.02012 0.37904 1.04295
 C115 C 0.00877 0.34471 1.04296
 C116 C 0.02577 0.31945 1.06218
 C117 C 0.05430 0.32833 1.08149
 C118 C 0.13589 0.41686 1.12098
 C119 C 0.14715 0.45124 1.12102
 C120 C 0.13006 0.47651 1.10186
 C121 C 0.10158 0.46759 1.08252
 C122 C 0.11403 0.34539 1.12038
 C123 C 0.12946 0.32292 1.13570
 C124 C 0.04302 0.44985 1.04194
 C125 C 0.02753 0.47069 1.02468
 H126 H 0.00600 0.39774 1.02760
 H127 H -0.01332 0.33766 1.02794
 H128 H 0.01684 0.29282 1.06213
 H129 H 0.06663 0.30775 1.09606
 H130 H 0.14999 0.39814 1.13633
 H131 H 0.16924 0.45832 1.13601
 H132 H 0.13890 0.50318 1.10199
 H133 H 0.08910 0.48815 1.06805
 C134 C -0.05751 0.57562 1.06223
 C135 C -0.08606 0.56556 1.08185
 C136 C -0.10493 0.59112 1.10079
 C137 C -0.09516 0.62660 1.09988
 C138 C -0.06652 0.63663 1.08031
 C139 C -0.04760 0.61105 1.06149
 C140 C -0.01902 0.62169 1.04218
 C141 C -0.00944 0.65660 1.04143
 C142 C -0.02800 0.68162 1.05973
 C143 C -0.05624 0.67191 1.07899
 C144 C -0.13338 0.58043 1.12022
 C145 C -0.14296 0.54550 1.12088
 C146 C -0.12455 0.52054 1.10230
 C147 C -0.09640 0.53030 1.08297
 C148 C -0.11467 0.65286 1.11877
 C149 C -0.13074 0.67501 1.13411
 C150 C -0.03859 0.54977 1.04229
 C151 C -0.02257 0.52906 1.02514
 H152 H -0.00373 0.60319 1.02755
 H153 H 0.01251 0.66425 1.02656
 H154 H -0.02047 0.70871 1.05906
 H155 H -0.06985 0.69235 1.09280
 H156 H -0.14851 0.59890 1.13507
 H157 H -0.16479 0.53777 1.13589
 H158 H -0.13212 0.49345 1.10285
 H159 H -0.08286 0.50995 1.06895
 C160 C -0.06513 0.42852 0.93863
 C161 C -0.07255 0.43283 0.90307
 C162 C -0.09212 0.40741 0.88533
 C163 C -0.10409 0.37783 0.90324
 C164 C -0.09733 0.37395 0.93901
 C165 C -0.07778 0.39936 0.95675
 C166 C -0.07117 0.39480 0.99247
 C167 C -0.08357 0.36600 1.01014
 C168 C -0.10269 0.34116 0.99279
 C169 C -0.10957 0.34495 0.95764
 C170 C -0.09911 0.41218 0.84975
 C171 C -0.08710 0.44124 0.83219
 C172 C -0.06794 0.46607 0.84954
 C173 C -0.06066 0.46204 0.88458
 C174 C -0.12243 0.35085 0.88474
 C175 C -0.13715 0.32797 0.86956
 C176 C -0.04369 0.45336 0.95651
 C177 C -0.02553 0.47288 0.97229
 H178 H -0.05648 0.41343 1.00715
 H179 H -0.07829 0.36295 1.03746
 H180 H -0.11229 0.31885 1.00664
 H181 H -0.12464 0.32498 0.94530
 H182 H -0.11396 0.39360 0.83517
 H183 H -0.09272 0.44449 0.80498
 H184 H -0.05868 0.48858 0.83577
 H185 H -0.04570 0.48206 0.89700
 C186 C 0.06402 0.57251 0.93469
 C187 C 0.05159 0.60731 0.93300
 C188 C 0.07042 0.63303 0.91517
 C189 C 0.10146 0.62377 0.89890
 C190 C 0.11367 0.58887 0.90021
 C191 C 0.09488 0.56316 0.91818
 C192 C 0.10760 0.52848 0.91922
 C193 C 0.13804 0.51943 0.90298
 C194 C 0.15641 0.54456 0.88541
 C195 C 0.14448 0.57892 0.88395
 C196 C 0.05759 0.66771 0.91411
 C197 C 0.02699 0.67666 0.93009
 C198 C 0.00847 0.65146 0.94733
 C199 C 0.02051 0.61716 0.94887
 C200 C 0.12070 0.65023 0.88088
 C201 C 0.13607 0.67274 0.86608
 C202 C 0.04525 0.54677 0.95414
 C203 C 0.02881 0.52677 0.97107
 H204 H 0.09414 0.50804 0.93251
 H205 H 0.14741 0.49278 0.90401
 H206 H 0.18005 0.53738 0.87284
 H207 H 0.15964 0.59753 0.86995
 H208 H 0.07101 0.68824 0.90094
 H209 H 0.01756 0.70330 0.92901
 H210 H -0.01534 0.65851 0.95960
 H211 H 0.00510 0.59851 0.96250
 C212 C 1.06518 0.05887 0.42635
 C213 C 1.08371 0.08876 0.43626
 C214 C 1.10264 0.10725 0.41111
 C215 C 1.10286 0.09576 0.37622
 C216 C 1.08474 0.06553 0.36643
 C217 C 1.06593 0.04697 0.39159
 C218 C 1.04817 0.01671 0.38123
 C219 C 1.04886 0.00520 0.34697
 C220 C 1.06710 0.02345 0.32233
 C221 C 1.08490 0.05327 0.33180
 C222 C 1.12095 0.13708 0.42161
 C223 C 1.12056 0.14832 0.45597
 C224 C 1.10204 0.13023 0.48055
 C225 C 1.08377 0.10077 0.47095
 C226 C 1.12139 0.11511 0.35026
 C227 C 1.13641 0.13087 0.32822
 C228 C 1.04482 0.04058 0.45159
 C229 C 1.02735 0.02478 0.47157
 H230 H 1.03371 0.00154 0.39946
 H231 H 1.03517 -0.01802 0.33953
 H232 H 1.06754 0.01441 0.29574
 H233 H 1.09880 0.06650 0.31170
 H234 H 1.13577 0.15196 0.40343
 H235 H 1.13473 0.17117 0.46357
 H236 H 1.10184 0.13906 0.50721
 H237 H 1.06980 0.08750 0.49099
 C238 C 1.06054 -0.06338 0.57450
 C239 C 1.05129 -0.05975 0.60976
 C240 C 1.07035 -0.07739 0.63565
 C241 C 1.09844 -0.09873 0.62610
 C242 C 1.10754 -0.10254 0.59082
 C243 C 1.08852 -0.08480 0.56493
 C244 C 1.09811 -0.08894 0.52985
 C245 C 1.12574 -0.11001 0.52059
 C246 C 1.14434 -0.12735 0.54589
 C247 C 1.13545 -0.12377 0.58065
 C248 C 1.06075 -0.07315 0.67074
 C249 C 1.03303 -0.05221 0.67998
 C250 C 1.01428 -0.03509 0.65466
 C251 C 1.02320 -0.03868 0.61993
 C252 C 1.11782 -0.11678 0.65262
 C253 C 1.13352 -0.13167 0.67498
 C254 C 1.04158 -0.04440 0.54835
 C255 C 1.02538 -0.02768 0.52772
 H256 H 1.08436 -0.07599 0.50926
 H257 H 1.13274 -0.11288 0.49363
 H258 H 1.16579 -0.14367 0.53856
 H259 H 1.15069 -0.13778 0.59939
 H260 H 1.07452 -0.08596 0.69140
 H261 H 1.02602 -0.04929 0.70694
 H262 H 0.99270 -0.01894 0.66195
 H263 H 1.00778 -0.02488 0.60120
 C264 C 0.93606 -0.06112 0.42583
 C265 C 0.91659 -0.09031 0.43555
 C266 C 0.89766 -0.10875 0.41016
 C267 C 0.89839 -0.09790 0.37520
 C268 C 0.91765 -0.06850 0.36554
 C269 C 0.93645 -0.05000 0.39094
 C270 C 0.95534 -0.02055 0.38069
 C271 C 0.95574 -0.00978 0.34632
 C272 C 0.93749 -0.02797 0.32146
 C273 C 0.91859 -0.05699 0.33080
 C274 C 0.87836 -0.13783 0.42050
 C275 C 0.87780 -0.14844 0.45493
 C276 C 0.89633 -0.13042 0.47974
 C277 C 0.91554 -0.10165 0.47031
 C278 C 0.87946 -0.11692 0.34909
 C279 C 0.86394 -0.13233 0.32700
 C280 C 0.95604 -0.04259 0.45142
 C281 C 0.97320 -0.02645 0.47158
 H282 H 0.96987 -0.00545 0.39908
 H283 H 0.97029 0.01282 0.33896
 H284 H 0.93789 -0.01952 0.29478
 H285 H 0.90474 -0.07022 0.31053
 H286 H 0.86350 -0.15264 0.40213
 H287 H 0.86290 -0.17075 0.46239
 H288 H 0.89579 -0.13876 0.50645
 H289 H 0.92948 -0.08841 0.49053
 C290 C 0.94012 0.06599 0.57272
 C291 C 0.95381 0.06994 0.60637
 C292 C 0.93500 0.08816 0.63228
 C293 C 0.90267 0.10250 0.62433
 C294 C 0.88930 0.09918 0.59047
 C295 C 0.90810 0.08085 0.56459
 C296 C 0.89420 0.07773 0.53098
 C297 C 0.86259 0.09230 0.52315
 C298 C 0.84419 0.11019 0.54846
 C299 C 0.85727 0.11368 0.58178
 C300 C 0.94910 0.09147 0.66582
 C301 C 0.98092 0.07732 0.67348
 C302 C 0.99938 0.05966 0.64810
 C303 C 0.98611 0.05590 0.61491
 C304 C 0.88313 0.12026 0.65114
 C305 C 0.86730 0.13471 0.67388
 C306 C 0.95864 0.04563 0.54702
 C307 C 0.97466 0.02788 0.52689
 H308 H 0.90762 0.06411 0.51044
 H309 H 0.85234 0.08970 0.49730
 H310 H 0.81965 0.12145 0.54224
 H311 H 0.84205 0.12786 0.60058
 H312 H 0.93575 0.10504 0.68643
 H313 H 0.99132 0.08012 0.69925
 H314 H 1.02413 0.04876 0.65415
 H315 H 1.00150 0.04201 0.59605
 C316 C 0.42634 1.06351 0.06042
 C317 C 0.39227 1.06350 0.04881
 C318 C 0.36682 1.08158 0.06809
 C319 C 0.37559 1.09966 0.09883
 C320 C 0.40969 1.09978 0.11036
 C321 C 0.43515 1.08163 0.09109
 C322 C 0.46902 1.08200 0.10316
 C323 C 0.47753 1.09980 0.13343
 C324 C 0.45266 1.11755 0.15227
 C325 C 0.41908 1.11764 0.14098
 C326 C 0.33291 1.08104 0.05603
 C327 C 0.32441 1.06320 0.02578
 C328 C 0.34930 1.04557 0.00689
 C329 C 0.38287 1.04564 0.01814
 C330 C 0.34945 1.11798 0.11851
 C331 C 0.32724 1.13294 0.13435
 C332 C 0.45199 1.04424 0.04102
 C333 C 0.47217 1.02744 0.02425
 H334 H 0.48924 1.06858 0.08935
 H335 H 0.50357 1.09981 0.14232
 H336 H 0.45940 1.13132 0.17578
 H337 H 0.40062 1.13182 0.15650
 H338 H 0.31262 1.09437 0.06980
 H339 H 0.29835 1.06308 0.01693
 H340 H 0.34259 1.03178 -0.01661
 H341 H 0.40131 1.03163 0.00248
 C342 C 0.57301 1.06249 -0.06408
 C343 C 0.60514 1.06802 -0.04874
 C344 C 0.63072 1.08579 -0.06740
 C345 C 0.62397 1.09805 -0.10124
 C346 C 0.59179 1.09262 -0.11652
 C347 C 0.56623 1.07475 -0.09788
 C348 C 0.53433 1.06946 -0.11373
 C349 C 0.52786 1.08147 -0.14708
 C350 C 0.55283 1.09895 -0.16530
 C351 C 0.58448 1.10456 -0.15031
 C352 C 0.66272 1.09079 -0.05159
 C353 C 0.66925 1.07859 -0.01833
 C354 C 0.64421 1.06130 -0.00005
 C355 C 0.61248 1.05603 -0.01493
 C356 C 0.65022 1.11616 -0.12019
 C357 C 0.67247 1.13112 -0.13529
 C358 C 0.54741 1.04340 -0.04524
 C359 C 0.52731 1.02686 -0.02875
 H360 H 0.51411 1.05602 -0.10054
 H361 H 0.50333 1.07717 -0.15884
 H362 H 0.54768 1.10820 -0.19121
 H363 H 0.60310 1.11829 -0.16549
 H364 H 0.68303 1.10411 -0.06474
 H365 H 0.69388 1.08260 -0.00667
 H366 H 0.64939 1.05187 0.02579
 H367 H 0.59383 1.04251 0.00038
 C368 C 0.42793 0.93694 -0.06478
 C369 C 0.43652 0.92062 -0.09658
 C370 C 0.41149 0.90196 -0.11540
 C371 C 0.37803 0.89979 -0.10228
 C372 C 0.36946 0.91615 -0.07044
 C373 C 0.39449 0.93473 -0.05162
 C374 C 0.38531 0.95089 -0.01986
 C375 C 0.35233 0.94885 -0.00713
 C376 C 0.32784 0.93073 -0.02556
 C377 C 0.33616 0.91449 -0.05684
 C378 C 0.42064 0.88593 -0.14718
 C379 C 0.45356 0.88833 -0.16006
 C380 C 0.47801 0.90659 -0.14167
 C381 C 0.46974 0.92259 -0.11026
 C382 C 0.35226 0.88102 -0.12149
 C383 C 0.33028 0.86577 -0.13688
 C384 C 0.45313 0.95656 -0.04569
 C385 C 0.47288 0.97351 -0.02901
 H386 H 0.40346 0.96521 -0.00450
 H387 H 0.34576 0.96141 0.01717
 H388 H 0.30224 0.92921 -0.01556
 H389 H 0.31620 0.90069 -0.07019
 H390 H 0.40248 0.87145 -0.16241
 H391 H 0.46012 0.87596 -0.18445
 H392 H 0.50354 0.90839 -0.15179
 H393 H 0.48961 0.93650 -0.09686
 C394 C 0.57292 0.93821 0.06099
 C395 C 0.60755 0.94128 0.05181
 C396 C 0.63282 0.92315 0.07106
 C397 C 0.62332 0.90193 0.09927
 C398 C 0.58869 0.89884 0.10841
 C399 C 0.56341 0.91706 0.08920
 C400 C 0.52897 0.91364 0.09882
 C401 C 0.51975 0.89281 0.12666
 C402 C 0.54446 0.87500 0.14546
 C403 C 0.57857 0.87787 0.13654
 C404 C 0.66728 0.92678 0.06148
 C405 C 0.67648 0.94763 0.03365
 C406 C 0.65175 0.96526 0.01475
 C407 C 0.61766 0.96223 0.02361
 C408 C 0.64923 0.88329 0.11873
 C409 C 0.67126 0.86806 0.13439
 C410 C 0.54736 0.95723 0.04148
 C411 C 0.52729 0.97381 0.02457
 H412 H 0.50887 0.92700 0.08496
 H413 H 0.49329 0.89048 0.13369
 H414 H 0.53716 0.85887 0.16707
 H415 H 0.59688 0.86354 0.15193
 H416 H 0.68746 0.91359 0.07537
 H417 H 0.70294 0.95008 0.02668
 H418 H 0.65901 0.98136 -0.00690
 H419 H 0.59939 0.97641 0.00806
   
