data_POSCAR
  _audit_creation_date              2014-09-24
  _audit_creation_method            'ToBaCCo'
  _symmetry_space_group_name_H-M    'P1'
  _symmetry_Int_Tables_number       1
  _symmetry_cell_setting            triclinic
  loop_
  _symmetry_equiv_pos_as_xyz
 x,y,z
_cell_length_a 45.4828
_cell_length_b 45.4602
_cell_length_c 45.5431
_cell_angle_alpha 89.931100
_cell_angle_beta 89.950300
_cell_angle_gamma 90.012800
loop_
  _atom_site_label
  _atom_site_type_symbol
  _atom_site_fract_x
  _atom_site_fract_y
  _atom_site_fract_z
C1 C 0.25008 0.27228 0.22771
 C2 C 0.27198 0.27212 0.20600
 C3 C 0.29373 0.25030 0.20606
 C4 C 0.29376 0.22848 0.22781
 C5 C 0.27203 0.22831 0.24969
 C6 C 0.25007 0.25030 0.24968
 C7 C 0.22819 0.29402 0.22787
 C8 C 0.20643 0.29397 0.24966
 C9 C 0.20637 0.27220 0.27146
 C10 C 0.22809 0.25030 0.27164
 C11 C 0.22824 0.22839 0.29336
 C12 C 0.25004 0.20662 0.29332
 C13 C 0.27185 0.20657 0.27158
 H14 H 0.27215 0.28891 0.18906
 H15 H 0.31070 0.21168 0.22766
 H16 H 0.22804 0.31097 0.21109
 H17 H 0.18942 0.27236 0.28823
 H18 H 0.21146 0.22822 0.31029
 H19 H 0.28863 0.18961 0.27174
 C20 C 0.74964 -0.27209 0.22766
 C21 C 0.72769 -0.27198 0.20603
 C22 C 0.70584 -0.25022 0.20614
 C23 C 0.70580 -0.22842 0.22788
 C24 C 0.72759 -0.22821 0.24967
 C25 C 0.74963 -0.25013 0.24960
 C26 C 0.77160 -0.29376 0.22776
 C27 C 0.79343 -0.29368 0.24948
 C28 C 0.79345 -0.27191 0.27125
 C29 C 0.77165 -0.25008 0.27147
 C30 C 0.77147 -0.22819 0.29317
 C31 C 0.74960 -0.20650 0.29319
 C32 C 0.72775 -0.20649 0.27153
 H33 H 0.72761 -0.28880 0.18914
 H34 H 0.68883 -0.21164 0.22785
 H35 H 0.77170 -0.31068 0.21096
 H36 H 0.81040 -0.27196 0.28801
 H37 H 0.78829 -0.22800 0.31004
 H38 H 0.71091 -0.18960 0.27175
 C39 C 0.75020 0.27248 0.77213
 C40 C 0.72830 0.27229 0.79384
 C41 C 0.70650 0.25047 0.79380
 C42 C 0.70647 0.22868 0.77204
 C43 C 0.72822 0.22855 0.75017
 C44 C 0.75021 0.25053 0.75018
 C45 C 0.77211 0.29421 0.77198
 C46 C 0.79390 0.29421 0.75019
 C47 C 0.79394 0.27245 0.72839
 C48 C 0.77220 0.25056 0.72823
 C49 C 0.77203 0.22868 0.70653
 C50 C 0.75022 0.20692 0.70657
 C51 C 0.72840 0.20685 0.72830
 H52 H 0.72820 0.28909 0.81074
 H53 H 0.68955 0.21185 0.77212
 H54 H 0.77220 0.31112 0.78878
 H55 H 0.81087 0.27256 0.71159
 H56 H 0.78883 0.22854 0.68960
 H57 H 0.71161 0.18990 0.72813
 C58 C 0.24949 -0.27291 0.77284
 C59 C 0.27135 -0.27274 0.79456
 C60 C 0.29315 -0.25097 0.79447
 C61 C 0.29329 -0.22920 0.77268
 C62 C 0.27161 -0.22902 0.75079
 C63 C 0.24958 -0.25096 0.75083
 C64 C 0.22755 -0.29461 0.77272
 C65 C 0.20581 -0.29456 0.75091
 C66 C 0.20587 -0.27281 0.72906
 C67 C 0.22765 -0.25095 0.72886
 C68 C 0.22792 -0.22909 0.70710
 C69 C 0.24977 -0.20736 0.70711
 C70 C 0.27153 -0.20732 0.72886
 H71 H 0.27144 -0.28950 0.81153
 H72 H 0.31027 -0.21244 0.77280
 H73 H 0.22738 -0.31150 0.78958
 H74 H 0.18898 -0.27289 0.71224
 H75 H 0.21117 -0.22892 0.69016
 H76 H 0.28835 -0.19040 0.72867
 C77 C 0.75017 -0.27241 0.77252
 C78 C 0.72830 -0.27226 0.79425
 C79 C 0.70652 -0.25048 0.79419
 C80 C 0.70641 -0.22868 0.77244
 C81 C 0.72812 -0.22849 0.75054
 C82 C 0.75012 -0.25044 0.75054
 C83 C 0.77208 -0.29412 0.77236
 C84 C 0.79384 -0.29406 0.75053
 C85 C 0.79383 -0.27229 0.72871
 C86 C 0.77207 -0.25042 0.72855
 C87 C 0.77185 -0.22853 0.70682
 C88 C 0.75001 -0.20681 0.70687
 C89 C 0.72823 -0.20677 0.72863
 H90 H 0.72817 -0.28904 0.81120
 H91 H 0.68945 -0.21191 0.77259
 H92 H 0.77221 -0.31104 0.78920
 H93 H 0.81073 -0.27237 0.71187
 H94 H 0.78861 -0.22835 0.68986
 H95 H 0.71142 -0.18985 0.72847
 C96 C 0.25008 0.27183 0.77178
 C97 C 0.27203 0.27170 0.79339
 C98 C 0.29382 0.24993 0.79327
 C99 C 0.29386 0.22812 0.77156
 C100 C 0.27207 0.22792 0.74978
 C101 C 0.25006 0.24986 0.74985
 C102 C 0.22815 0.29352 0.77168
 C103 C 0.20635 0.29344 0.74998
 C104 C 0.20627 0.27169 0.72822
 C105 C 0.22803 0.24983 0.72799
 C106 C 0.22817 0.22794 0.70631
 C107 C 0.25002 0.20622 0.70630
 C108 C 0.27188 0.20620 0.72794
 H109 H 0.27221 0.28848 0.81030
 H110 H 0.31083 0.21137 0.77167
 H111 H 0.22801 0.31046 0.78843
 H112 H 0.18928 0.27182 0.71152
 H113 H 0.21134 0.22775 0.68945
 H114 H 0.28870 0.18928 0.72773
 C115 C 0.24983 -0.27259 0.22759
 C116 C 0.27180 -0.27248 0.20595
 C117 C 0.29368 -0.25075 0.20608
 C118 C 0.29375 -0.22898 0.22785
 C119 C 0.27194 -0.22878 0.24965
 C120 C 0.24986 -0.25066 0.24955
 C121 C 0.22783 -0.29422 0.22766
 C122 C 0.20598 -0.29413 0.24939
 C123 C 0.20597 -0.27240 0.27120
 C124 C 0.22781 -0.25061 0.27144
 C125 C 0.22800 -0.22876 0.29316
 C126 C 0.24991 -0.20710 0.29319
 C127 C 0.27180 -0.20710 0.27153
 H128 H 0.27188 -0.28927 0.18903
 H129 H 0.31075 -0.21222 0.22783
 H130 H 0.22771 -0.31111 0.21084
 H131 H 0.18899 -0.27245 0.28795
 H132 H 0.21116 -0.22855 0.31003
 H133 H 0.28866 -0.19022 0.27176
 C134 C 0.75076 0.27293 0.22791
 C135 C 0.72894 0.27271 0.20616
 C136 C 0.70723 0.25085 0.20620
 C137 C 0.70714 0.22904 0.22795
 C138 C 0.72880 0.22893 0.24986
 C139 C 0.75073 0.25095 0.24988
 C140 C 0.77261 0.29471 0.22809
 C141 C 0.79431 0.29472 0.24992
 C142 C 0.79432 0.27294 0.27174
 C143 C 0.77263 0.25100 0.27188
 C144 C 0.77243 0.22910 0.29360
 C145 C 0.75066 0.20729 0.29352
 C146 C 0.72893 0.20719 0.27175
 H147 H 0.72880 0.28949 0.18921
 H148 H 0.69023 0.21221 0.22777
 H149 H 0.77272 0.31164 0.21126
 H150 H 0.81119 0.27307 0.28859
 H151 H 0.78915 0.22897 0.31057
 H152 H 0.71217 0.19021 0.27189
 O153 O 0.27431 0.02805 0.47132
 O154 O 0.27433 -0.02929 0.52855
 O155 O 0.27433 -0.02924 0.47135
 O156 O 0.27430 0.02800 0.52850
 O157 O 0.22568 0.02797 0.52854
 O158 O 0.22570 -0.02927 0.47139
 O159 O 0.22570 -0.02932 0.52859
 O160 O 0.22568 0.02802 0.47136
 Cu161 Cu 0.27922 -0.00062 0.49993
 Cu162 Cu 0.22078 -0.00066 0.49997
 C163 C 0.24999 0.03771 0.46168
 C164 C 0.25002 -0.03897 0.53823
 C165 C 0.25002 -0.03891 0.46173
 C166 C 0.24998 0.03764 0.53816
 O167 O 0.77439 0.02864 0.52860
 O168 O 0.77423 -0.02859 0.47139
 O169 O 0.77439 0.02870 0.47141
 O170 O 0.77427 -0.02865 0.52858
 O171 O 0.72564 -0.02855 0.52864
 O172 O 0.72576 0.02880 0.47147
 O173 O 0.72561 -0.02849 0.47145
 O174 O 0.72576 0.02874 0.52865
 Cu175 Cu 0.77923 0.00001 0.49999
 Cu176 Cu 0.72079 0.00013 0.50006
 C177 C 0.75010 0.03835 0.53827
 C178 C 0.74990 -0.03820 0.46176
 C179 C 0.75010 0.03843 0.46179
 C180 C 0.74994 -0.03827 0.53827
 O181 O 0.47213 0.27466 0.02800
 O182 O 0.52944 0.27470 -0.02922
 O183 O 0.47218 0.27462 -0.02919
 O184 O 0.52940 0.27476 0.02797
 O185 O 0.52946 0.22611 0.02807
 O186 O 0.47224 0.22597 -0.02908
 O187 O 0.52950 0.22605 -0.02912
 O188 O 0.47220 0.22601 0.02810
 Cu189 Cu 0.50078 0.27960 -0.00062
 Cu190 Cu 0.50086 0.22113 -0.00050
 C191 C 0.46249 0.25033 0.03770
 C192 C 0.53914 0.25038 -0.03883
 C193 C 0.46255 0.25027 -0.03878
 C194 C 0.53908 0.25046 0.03766
 O195 O 0.52847 0.77371 0.02965
 O196 O 0.47122 0.77357 -0.02752
 O197 O 0.47120 0.77360 0.02966
 O198 O 0.52848 0.77368 -0.02754
 O199 O 0.52855 0.72503 -0.02745
 O200 O 0.47128 0.72495 0.02975
 O201 O 0.47130 0.72492 -0.02743
 O202 O 0.52855 0.72506 0.02974
 Cu203 Cu 0.49983 0.77855 0.00106
 Cu204 Cu 0.49993 0.72008 0.00116
 C205 C 0.53817 0.74941 0.03934
 C206 C 0.46159 0.74922 -0.03713
 C207 C 0.46156 0.74927 0.03935
 C208 C 0.53818 0.74936 -0.03715
 O209 O 0.02815 0.47229 0.27381
 O210 O -0.02912 0.52958 0.27374
 O211 O -0.02910 0.47229 0.27386
 O212 O 0.02815 0.52957 0.27371
 O213 O 0.02816 0.52954 0.22515
 O214 O -0.02910 0.47226 0.22530
 O215 O -0.02912 0.52955 0.22519
 O216 O 0.02815 0.47226 0.22525
 Cu217 Cu -0.00048 0.50094 0.27868
 Cu218 Cu -0.00048 0.50091 0.22032
 C219 C 0.03782 0.46261 0.24954
 C220 C -0.03879 0.53923 0.24945
 C221 C -0.03875 0.46260 0.24961
 C222 C 0.03783 0.53921 0.24940
 O223 O 0.02808 0.52878 0.77493
 O224 O -0.02924 0.47151 0.77477
 O225 O 0.02801 0.47150 0.77481
 O226 O -0.02920 0.52881 0.77487
 O227 O -0.02911 0.52896 0.72631
 O228 O 0.02809 0.47165 0.72625
 O229 O -0.02916 0.47166 0.72621
 O230 O 0.02816 0.52893 0.72637
 Cu231 Cu -0.00060 0.50014 0.77975
 Cu232 Cu -0.00050 0.50032 0.72138
 C233 C 0.03780 0.53851 0.75068
 C234 C -0.03887 0.46191 0.75046
 C235 C 0.03771 0.46191 0.75051
 C236 C -0.03881 0.53856 0.75060
 C237 C 0.36544 0.24858 0.09527
 C238 C 0.36242 0.22536 0.12001
 C239 C 0.35766 0.25030 0.14224
 C240 C 0.36032 0.27353 0.11785
 C241 C 0.39861 0.25031 0.10141
 C242 C 0.39384 0.27526 0.12364
 C243 C 0.39594 0.22708 0.12580
 C244 C 0.39082 0.25203 0.14839
 C245 C 0.33486 0.25029 0.16498
 C246 C 0.31611 0.25029 0.18370
 C247 C 0.42142 0.25030 0.07868
 C248 C 0.44018 0.25031 0.05997
 H249 H 0.35525 0.24717 0.07317
 H250 H 0.34925 0.20484 0.11877
 H251 H 0.34542 0.29263 0.11483
 H252 H 0.40701 0.29578 0.12489
 H253 H 0.41084 0.20798 0.12883
 H254 H 0.40101 0.25344 0.17048
 C255 C 0.59608 0.74593 0.13599
 C256 C 0.62197 0.72386 0.13785
 C257 C 0.64300 0.74964 0.14371
 C258 C 0.61747 0.77171 0.14221
 C259 C 0.60204 0.74955 0.10297
 C260 C 0.62307 0.77533 0.10884
 C261 C 0.62757 0.72748 0.10448
 C262 C 0.64896 0.75326 0.11069
 C263 C 0.66582 0.74968 0.16640
 C264 C 0.68460 0.74972 0.18506
 C265 C 0.57923 0.74950 0.08027
 C266 C 0.56048 0.74946 0.06159
 H267 H 0.57409 0.74292 0.14615
 H268 H 0.62177 0.70269 0.15002
 H269 H 0.61357 0.78990 0.15799
 H270 H 0.62328 0.79650 0.09667
 H271 H 0.63147 0.70929 0.08871
 H272 H 0.67095 0.75627 0.10054
 C273 C 0.59795 0.26007 -0.13459
 C274 C 0.62696 0.27789 -0.13338
 C275 C 0.64380 0.25043 -0.14354
 C276 C 0.61515 0.23260 -0.14510
 C277 C 0.60293 0.25042 -0.10264
 C278 C 0.61977 0.22296 -0.11279
 C279 C 0.63159 0.26825 -0.10107
 C280 C 0.64878 0.24078 -0.11158
 C281 C 0.66657 0.25043 -0.16631
 C282 C 0.68531 0.25044 -0.18504
 C283 C 0.58016 0.25041 -0.07986
 C284 C 0.56144 0.25039 -0.06112
 H285 H 0.57679 0.26799 -0.14381
 H286 H 0.63017 0.30048 -0.14210
 H287 H 0.60864 0.21795 -0.16346
 H288 H 0.61657 0.20037 -0.10408
 H289 H 0.63810 0.28290 -0.08272
 H290 H 0.66994 0.23286 -0.10237
 C291 C 0.37512 0.77376 -0.10523
 C292 C 0.38097 0.77264 -0.13873
 C293 C 0.35695 0.74906 -0.14169
 C294 C 0.35076 0.75017 -0.10854
 C295 C 0.39781 0.74911 -0.10084
 C296 C 0.37380 0.72553 -0.10380
 C297 C 0.40401 0.74800 -0.13399
 C298 C 0.37964 0.72441 -0.13730
 C299 C 0.33420 0.74903 -0.16444
 C300 C 0.31549 0.74902 -0.18316
 C301 C 0.42058 0.74913 -0.07809
 C302 C 0.43930 0.74917 -0.05939
 H303 H 0.37352 0.79405 -0.09179
 H304 H 0.38366 0.79202 -0.15335
 H305 H 0.32861 0.75107 -0.09832
 H306 H 0.37110 0.70615 -0.08919
 H307 H 0.42616 0.74710 -0.14421
 H308 H 0.38125 0.70412 -0.15074
 C309 C 0.11231 0.38241 0.22211
 C310 C 0.14448 0.38686 0.23236
 C311 C 0.14254 0.35788 0.24964
 C312 C 0.11072 0.35308 0.23939
 C313 C 0.10164 0.39878 0.24962
 C314 C 0.09970 0.36980 0.26690
 C315 C 0.13345 0.40358 0.25987
 C316 C 0.13186 0.37424 0.27715
 C317 C 0.16532 0.33510 0.24965
 C318 C 0.18405 0.31636 0.24965
 C319 C 0.07885 0.42156 0.24959
 C320 C 0.06012 0.44030 0.24956
 H321 H 0.10402 0.38602 0.19947
 H322 H 0.16314 0.39362 0.21816
 H323 H 0.10163 0.33206 0.23097
 H324 H 0.08103 0.36303 0.28111
 H325 H 0.14254 0.42460 0.26829
 H326 H 0.14016 0.37063 0.29979
 C327 C 0.12876 0.60207 0.77119
 C328 C 0.14845 0.61017 0.74461
 C329 C 0.14290 0.64290 0.75092
 C330 C 0.12357 0.63514 0.77750
 C331 C 0.10183 0.60215 0.75084
 C332 C 0.09629 0.63488 0.75715
 C333 C 0.12117 0.60991 0.72426
 C334 C 0.11598 0.64298 0.73057
 C335 C 0.16577 0.66560 0.75094
 C336 C 0.18457 0.68429 0.75094
 C337 C 0.07896 0.57945 0.75079
 C338 C 0.06016 0.56076 0.75074
 H339 H 0.13376 0.58499 0.78790
 H340 H 0.17015 0.60027 0.73945
 H341 H 0.12481 0.64577 0.79940
 H342 H 0.07459 0.64478 0.76230
 H343 H 0.11994 0.59928 0.70236
 H344 H 0.11098 0.66006 0.71386
 C345 C -0.10718 0.62559 0.22471
 C346 C -0.14071 0.61968 0.22595
 C347 C -0.14371 0.64377 0.24939
 C348 C -0.11053 0.65003 0.24815
 C349 C -0.10271 0.60297 0.24940
 C350 C -0.10571 0.62706 0.27284
 C351 C -0.13588 0.59671 0.25064
 C352 C -0.13923 0.62115 0.27408
 C353 C -0.16654 0.66649 0.24940
 C354 C -0.18533 0.68519 0.24943
 C355 C -0.07988 0.58023 0.24941
 C356 C -0.06111 0.56152 0.24943
 H357 H -0.09375 0.62716 0.20440
 H358 H -0.15536 0.61690 0.20667
 H359 H -0.10036 0.67221 0.24713
 H360 H -0.09106 0.62984 0.29212
 H361 H -0.14606 0.57453 0.25166
 H362 H -0.15267 0.61958 0.29438
 C363 C -0.13125 0.39961 0.73252
 C364 C -0.12658 0.36728 0.72285
 C365 C -0.14344 0.35699 0.75024
 C366 C -0.14847 0.38896 0.75992
 C367 C -0.10261 0.39798 0.75031
 C368 C -0.11947 0.38769 0.77771
 C369 C -0.09759 0.36601 0.74064
 C370 C -0.11480 0.35537 0.76803
 C371 C -0.16619 0.33417 0.75021
 C372 C -0.18491 0.31541 0.75019
 C373 C -0.07987 0.42081 0.75036
 C374 C -0.06115 0.43959 0.75040
 H375 H -0.13777 0.41805 0.71792
 H376 H -0.12975 0.35863 0.70029
 H377 H -0.16964 0.39815 0.76785
 H378 H -0.11630 0.39634 0.80027
 H379 H -0.07641 0.35682 0.73271
 H380 H -0.10829 0.33692 0.78264
 C381 C 0.27633 0.10875 0.37802
 C382 C 0.25528 0.10977 0.35130
 C383 C 0.25001 0.14263 0.35714
 C384 C 0.27106 0.14197 0.38350
 C385 C 0.25000 0.10164 0.39796
 C386 C 0.24473 0.13451 0.40380
 C387 C 0.22895 0.10231 0.37160
 C388 C 0.22369 0.13552 0.37708
 C389 C 0.25001 0.16545 0.33440
 C390 C 0.25002 0.18421 0.31568
 C391 C 0.24998 0.07882 0.42070
 C392 C 0.24998 0.06004 0.43941
 H393 H 0.29797 0.09750 0.37865
 H394 H 0.25962 0.09985 0.32946
 H395 H 0.28837 0.15853 0.38814
 H396 H 0.24039 0.14443 0.42563
 H397 H 0.21164 0.08574 0.36695
 H398 H 0.20204 0.14678 0.37644
 C399 C 0.75452 0.09620 0.63490
 C400 C 0.77620 0.12245 0.63634
 C401 C 0.75022 0.14306 0.64277
 C402 C 0.72854 0.11717 0.64168
 C403 C 0.75020 0.10216 0.60197
 C404 C 0.72422 0.12277 0.60840
 C405 C 0.77188 0.12806 0.60306
 C406 C 0.74590 0.14902 0.60984
 C407 C 0.75022 0.16584 0.66550
 C408 C 0.75022 0.18457 0.68421
 C409 C 0.75017 0.07937 0.57924
 C410 C 0.75015 0.06064 0.56054
 H411 H 0.75807 0.07423 0.64495
 H412 H 0.79758 0.12258 0.64809
 H413 H 0.71072 0.11294 0.65781
 H414 H 0.70284 0.12265 0.59666
 H415 H 0.78970 0.13228 0.58693
 H416 H 0.74235 0.17099 0.59979
 C417 C 0.24674 -0.09662 0.63514
 C418 C 0.22438 -0.12225 0.63733
 C419 C 0.24995 -0.14357 0.64310
 C420 C 0.27230 -0.11829 0.64127
 C421 C 0.25000 -0.10274 0.60212
 C422 C 0.27556 -0.12406 0.60790
 C423 C 0.22764 -0.12802 0.60396
 C424 C 0.25320 -0.14969 0.61009
 C425 C 0.24990 -0.16630 0.66593
 C426 C 0.24985 -0.18501 0.68470
 C427 C 0.25002 -0.07999 0.57931
 C428 C 0.25002 -0.06127 0.56055
 H429 H 0.24409 -0.07454 0.64519
 H430 H 0.20334 -0.12175 0.64968
 H431 H 0.29067 -0.11454 0.65686
 H432 H 0.29660 -0.12455 0.59554
 H433 H 0.20927 -0.13177 0.58837
 H434 H 0.25586 -0.17177 0.60004
 C435 C 0.73278 -0.09967 0.36887
 C436 C 0.76037 -0.11098 0.35241
 C437 C 0.74965 -0.14270 0.35705
 C438 C 0.72205 -0.13174 0.37315
 C439 C 0.74973 -0.10189 0.39795
 C440 C 0.73900 -0.13361 0.40259
 C441 C 0.77732 -0.11285 0.38185
 C442 C 0.76659 -0.14492 0.38613
 C443 C 0.74961 -0.16543 0.33427
 C444 C 0.74960 -0.18414 0.31554
 C445 C 0.74978 -0.07917 0.42074
 C446 C 0.74983 -0.06047 0.43948
 H447 H 0.71888 -0.08081 0.36202
 H448 H 0.76916 -0.10192 0.33153
 H449 H 0.69932 -0.13976 0.36932
 H450 H 0.73021 -0.14267 0.42347
 H451 H 0.80005 -0.10484 0.38568
 H452 H 0.78050 -0.16378 0.39298
 C453 C 0.59689 0.75909 -0.13291
 C454 C 0.62589 0.77692 -0.13172
 C455 C 0.64273 0.74946 -0.14190
 C456 C 0.61408 0.73163 -0.14344
 C457 C 0.60191 0.74943 -0.10097
 C458 C 0.61875 0.72198 -0.11114
 C459 C 0.63056 0.76727 -0.09942
 C460 C 0.64775 0.73981 -0.10995
 C461 C 0.66546 0.74947 -0.16469
 C462 C 0.68417 0.74949 -0.18343
 C463 C 0.57917 0.74941 -0.07817
 C464 C 0.56046 0.74939 -0.05944
 H465 H 0.57572 0.76701 -0.14209
 H466 H 0.62909 0.79951 -0.14044
 H467 H 0.60756 0.71698 -0.16180
 H468 H 0.61555 0.69939 -0.10243
 H469 H 0.63708 0.78192 -0.08106
 H470 H 0.66892 0.73189 -0.10077
 C471 C 0.37604 0.27476 -0.10674
 C472 C 0.38182 0.27364 -0.14025
 C473 C 0.35781 0.25004 -0.14314
 C474 C 0.35168 0.25116 -0.10998
 C475 C 0.39874 0.25012 -0.10240
 C476 C 0.37474 0.22653 -0.10529
 C477 C 0.40488 0.24900 -0.13555
 C478 C 0.38051 0.22540 -0.13880
 C479 C 0.33501 0.24999 -0.16582
 C480 C 0.31624 0.24996 -0.18447
 C481 C 0.42153 0.25017 -0.07970
 C482 C 0.44027 0.25021 -0.06102
 H483 H 0.37446 0.29506 -0.09330
 H484 H 0.38447 0.29300 -0.15488
 H485 H 0.32955 0.25205 -0.09973
 H486 H 0.37208 0.20716 -0.09066
 H487 H 0.42701 0.24811 -0.14581
 H488 H 0.38209 0.20511 -0.15224
 C489 C 0.36447 0.74748 0.09672
 C490 C 0.36140 0.72425 0.12145
 C491 C 0.35658 0.74919 0.14366
 C492 C 0.35930 0.77243 0.11929
 C493 C 0.39762 0.74921 0.10294
 C494 C 0.39280 0.77415 0.12516
 C495 C 0.39490 0.72597 0.12732
 C496 C 0.38973 0.75092 0.14989
 C497 C 0.33373 0.74919 0.16633
 C498 C 0.31493 0.74921 0.18499
 C499 C 0.42046 0.74922 0.08026
 C500 C 0.43924 0.74924 0.06159
 H501 H 0.35434 0.74607 0.07459
 H502 H 0.34822 0.70373 0.12018
 H503 H 0.34440 0.79152 0.11624
 H504 H 0.40597 0.79467 0.12644
 H505 H 0.40980 0.70687 0.13037
 H506 H 0.39986 0.75233 0.17201
 C507 C 0.59668 0.24699 0.13440
 C508 C 0.62256 0.22492 0.13635
 C509 C 0.64356 0.25071 0.14229
 C510 C 0.61803 0.27278 0.14070
 C511 C 0.60277 0.25061 0.10141
 C512 C 0.62377 0.27640 0.10735
 C513 C 0.62829 0.22854 0.10300
 C514 C 0.64965 0.25433 0.10930
 C515 C 0.66627 0.25075 0.16506
 C516 C 0.68494 0.25079 0.18380
 C517 C 0.58005 0.25056 0.07864
 C518 C 0.56135 0.25051 0.05992
 H519 H 0.57464 0.24398 0.14446
 H520 H 0.62232 0.20376 0.14853
 H521 H 0.61408 0.29097 0.15645
 H522 H 0.62401 0.29756 0.09517
 H523 H 0.63225 0.21035 0.08725
 H524 H 0.67168 0.25734 0.09924
 C525 C -0.10697 0.62500 0.72590
 C526 C -0.14052 0.61918 0.72713
 C527 C -0.14346 0.64328 0.75056
 C528 C -0.11027 0.64946 0.74934
 C529 C -0.10257 0.60239 0.75061
 C530 C -0.10552 0.62649 0.77404
 C531 C -0.13576 0.59621 0.75183
 C532 C -0.13906 0.62067 0.77527
 C533 C -0.16623 0.66605 0.75054
 C534 C -0.18497 0.68478 0.75053
 C535 C -0.07981 0.57961 0.75062
 C536 C -0.06108 0.56086 0.75062
 H537 H -0.09352 0.62653 0.70561
 H538 H -0.15516 0.61643 0.70785
 H539 H -0.10005 0.67161 0.74831
 H540 H -0.09087 0.62924 0.79333
 H541 H -0.14599 0.57406 0.75286
 H542 H -0.15251 0.61915 0.79556
 C543 C -0.13109 0.40018 0.23204
 C544 C -0.12638 0.36785 0.22243
 C545 C -0.14317 0.35760 0.24988
 C546 C -0.14823 0.38958 0.25950
 C547 C -0.10241 0.39863 0.24978
 C548 C -0.11920 0.38838 0.27723
 C549 C -0.09736 0.36665 0.24016
 C550 C -0.11450 0.35604 0.26762
 C551 C -0.16587 0.33475 0.24992
 C552 C -0.18456 0.31595 0.24993
 C553 C -0.07970 0.42148 0.24972
 C554 C -0.06101 0.44026 0.24967
 H555 H -0.13765 0.41859 0.21742
 H556 H -0.12960 0.35914 0.19989
 H557 H -0.16940 0.39875 0.26745
 H558 H -0.11599 0.39708 0.29977
 H559 H -0.07618 0.35748 0.23221
 H560 H -0.10794 0.33763 0.28224
 C561 C 0.11212 0.38181 0.72279
 C562 C 0.14430 0.38626 0.73298
 C563 C 0.14241 0.35724 0.75021
 C564 C 0.11058 0.35244 0.74001
 C565 C 0.10150 0.39811 0.75036
 C566 C 0.09961 0.36909 0.76759
 C567 C 0.13333 0.40291 0.76056
 C568 C 0.13179 0.37353 0.77778
 C569 C 0.16519 0.33449 0.75011
 C570 C 0.18394 0.31577 0.75005
 C571 C 0.07872 0.42087 0.75044
 C572 C 0.05999 0.43961 0.75048
 H573 H 0.10377 0.38547 0.70018
 H574 H 0.16293 0.39306 0.71875
 H575 H 0.10149 0.33143 0.73157
 H576 H 0.08097 0.36229 0.78182
 H577 H 0.14243 0.42392 0.76900
 H578 H 0.14014 0.36987 0.80039
 C579 C 0.12880 0.60271 0.26961
 C580 C 0.14847 0.61076 0.24299
 C581 C 0.14297 0.64349 0.24927
 C582 C 0.12366 0.63580 0.27588
 C583 C 0.10186 0.60281 0.24929
 C584 C 0.09636 0.63555 0.25556
 C585 C 0.12117 0.61050 0.22267
 C586 C 0.11603 0.64359 0.22895
 C587 C 0.16586 0.66615 0.24928
 C588 C 0.18470 0.68479 0.24931
 C589 C 0.07898 0.58013 0.24932
 C590 C 0.06018 0.56146 0.24935
 H591 H 0.13380 0.58565 0.28633
 H592 H 0.17016 0.60082 0.23782
 H593 H 0.12494 0.64646 0.29776
 H594 H 0.07467 0.64548 0.26073
 H595 H 0.11989 0.59984 0.20079
 H596 H 0.11103 0.66066 0.21222
 C597 C 0.74665 -0.09601 0.63508
 C598 C 0.72432 -0.12166 0.63725
 C599 C 0.74991 -0.14296 0.64297
 C600 C 0.77224 -0.11766 0.64115
 C601 C 0.74988 -0.10209 0.60205
 C602 C 0.77547 -0.12339 0.60777
 C603 C 0.72755 -0.12738 0.60387
 C604 C 0.75314 -0.14904 0.60995
 C605 C 0.74993 -0.16572 0.66575
 C606 C 0.74996 -0.18444 0.68449
 C607 C 0.74988 -0.07932 0.57927
 C608 C 0.74990 -0.06058 0.56054
 H609 H 0.74399 -0.07395 0.64515
 H610 H 0.70329 -0.12121 0.64963
 H611 H 0.79061 -0.11392 0.65673
 H612 H 0.79650 -0.12385 0.59539
 H613 H 0.70918 -0.13113 0.58829
 H614 H 0.75580 -0.17110 0.59987
 C615 C 0.23308 -0.10037 0.36887
 C616 C 0.26069 -0.11166 0.35243
 C617 C 0.24998 -0.14338 0.35706
 C618 C 0.22237 -0.13244 0.37314
 C619 C 0.25001 -0.10259 0.39796
 C620 C 0.23930 -0.13431 0.40259
 C621 C 0.27762 -0.11353 0.38188
 C622 C 0.26691 -0.14560 0.38615
 C623 C 0.24994 -0.16608 0.33429
 C624 C 0.24993 -0.18477 0.31555
 C625 C 0.25003 -0.07987 0.42073
 C626 C 0.25003 -0.06118 0.43946
 H627 H 0.21917 -0.08151 0.36202
 H628 H 0.26949 -0.10260 0.33155
 H629 H 0.19965 -0.14048 0.36929
 H630 H 0.23050 -0.14337 0.42347
 H631 H 0.30035 -0.10549 0.38573
 H632 H 0.28082 -0.16446 0.39300
 C633 C 0.77668 0.10942 0.37824
 C634 C 0.75569 0.11047 0.35149
 C635 C 0.75047 0.14334 0.35732
 C636 C 0.77147 0.14264 0.38372
 C637 C 0.75030 0.10236 0.39813
 C638 C 0.74509 0.13523 0.40396
 C639 C 0.72931 0.10306 0.37173
 C640 C 0.72409 0.13628 0.37721
 C641 C 0.75056 0.16615 0.33459
 C642 C 0.75062 0.18491 0.31588
 C643 C 0.75021 0.07954 0.42085
 C644 C 0.75015 0.06077 0.43955
 H645 H 0.79831 0.09812 0.37892
 H646 H 0.76005 0.10055 0.32965
 H647 H 0.78880 0.15918 0.38839
 H648 H 0.74073 0.14515 0.42580
 H649 H 0.71197 0.08653 0.36706
 H650 H 0.70247 0.14758 0.37653
 C651 C 0.25430 0.09548 0.63474
 C652 C 0.27597 0.12173 0.63618
 C653 C 0.24998 0.14234 0.64259
 C654 C 0.22831 0.11644 0.64151
 C655 C 0.24998 0.10143 0.60181
 C656 C 0.22399 0.12203 0.60823
 C657 C 0.27166 0.12733 0.60290
 C658 C 0.24567 0.14829 0.60967
 C659 C 0.24998 0.16511 0.66530
 C660 C 0.24999 0.18385 0.68398
 C661 C 0.24997 0.07865 0.57910
 C662 C 0.24997 0.05993 0.56041
 H663 H 0.25785 0.07351 0.64479
 H664 H 0.29734 0.12187 0.64793
 H665 H 0.21049 0.11221 0.65764
 H666 H 0.20262 0.12190 0.59647
 H667 H 0.28948 0.13155 0.58677
 H668 H 0.24212 0.17026 0.59961
   
