data_POSCAR
  _audit_creation_date              2014-09-24
  _audit_creation_method            'ToBaCCo'
  _symmetry_space_group_name_H-M    'P1'
  _symmetry_Int_Tables_number       1
  _symmetry_cell_setting            triclinic
  loop_
  _symmetry_equiv_pos_as_xyz
 x,y,z
_cell_length_a 26.1958
_cell_length_b 26.2336
_cell_length_c 26.1725
_cell_angle_alpha 90.096800
_cell_angle_beta 90.050300
_cell_angle_gamma 90.024200
loop_
  _atom_site_label
  _atom_site_type_symbol
  _atom_site_fract_x
  _atom_site_fract_y
  _atom_site_fract_z
O1 O 0.57248 0.12555 0.00013
 O2 O 0.62833 0.05830 0.00007
 C3 C 0.61831 0.10676 0.00109
 O4 O 0.42425 -0.00050 0.12411
 O5 O 0.36882 0.00246 0.05637
 C6 C 0.37852 0.00057 0.10498
 O7 O 0.56646 0.00403 0.12761
 O8 O 0.62548 -0.00212 0.06354
 C9 C 0.61334 0.00180 0.11162
 O10 O 0.43037 0.12811 -0.01113
 O11 O 0.37180 0.06315 -0.00863
 C12 C 0.38383 0.11105 -0.01184
 Zr13 Zr 0.50060 0.08933 -0.00378
 O14 O 0.49420 0.14645 0.05316
 O15 O 0.50904 0.14606 -0.06058
 Zr16 Zr 0.49645 0.00073 0.08834
 O17 O 0.49023 0.05872 0.14436
 O18 O 0.49994 -0.05524 0.14648
 O19 O 0.54445 0.05144 0.05052
 O20 O 0.45377 0.05272 0.04763
 O21 O 0.43060 0.00163 -0.13248
 O22 O 0.37184 -0.00009 -0.06763
 C23 C 0.38401 0.00224 -0.11564
 O24 O 0.56748 -0.13062 -0.00223
 O25 O 0.62594 -0.06570 0.00182
 C26 C 0.61401 -0.11366 -0.00117
 O27 O 0.42535 -0.12785 0.00458
 O28 O 0.36929 -0.06103 -0.00177
 C29 C 0.37952 -0.10919 0.00329
 O30 O 0.57264 -0.01015 -0.12875
 O31 O 0.62852 -0.00524 -0.06135
 C32 C 0.61842 -0.00990 -0.10972
 Zr33 Zr 0.50078 -0.00323 -0.09311
 O34 O 0.49445 -0.06104 -0.14931
 O35 O 0.50975 0.05230 -0.15105
 Zr36 Zr 0.49700 -0.09179 -0.00092
 O37 O 0.49029 -0.14833 -0.05844
 O38 O 0.50110 -0.14934 0.05549
 Zr39 Zr 0.57562 -0.00270 -0.00037
 Zr40 Zr 0.42190 0.00019 -0.00428
 O41 O 0.45405 -0.05355 -0.05461
 O42 O 0.54479 -0.05563 -0.05286
 O43 O 0.45538 0.05100 -0.05696
 O44 O 0.54097 -0.05299 0.05177
 O45 O 0.54552 0.04874 -0.05424
 O46 O 0.45084 -0.05171 0.05000
 H47 H 0.43071 0.07494 0.06777
 H48 H 0.56282 -0.07434 0.07404
 H49 H 0.43087 -0.07482 -0.07567
 H50 H 0.56924 0.06903 -0.07555
 H51 H 0.47005 -0.07792 0.14232
 H52 H 0.47660 -0.14017 0.08270
 H53 H 0.52121 -0.14658 -0.08003
 H54 H 0.52156 -0.08638 -0.14258
 H55 H 0.48157 0.07713 -0.14747
 H56 H 0.48318 0.13931 -0.08729
 H57 H 0.52386 0.14310 0.07633
 H58 H 0.51868 0.08289 0.13891
 O59 O -0.00083 0.57024 -0.13188
 O60 O -0.00153 0.62718 -0.06537
 C61 C -0.00178 0.61635 -0.11375
 O62 O -0.12757 0.42649 -0.00314
 O63 O -0.06044 0.37047 -0.00453
 C64 C -0.10891 0.38063 -0.00304
 O65 O -0.12926 0.56880 -0.01097
 O66 O -0.06397 0.62679 -0.00538
 C67 C -0.11197 0.61516 -0.00971
 O68 O 0.00737 0.42786 -0.13106
 O69 O 0.00326 0.37120 -0.06480
 C70 C 0.00649 0.38160 -0.11326
 Zr71 Zr 0.00225 0.49924 -0.09392
 O72 O -0.05303 0.49256 -0.15263
 O73 O 0.06093 0.50553 -0.14917
 Zr74 Zr -0.09099 0.49825 -0.00600
 O75 O -0.14606 0.49122 -0.06489
 O76 O -0.14997 0.50373 0.04903
 O77 O -0.05190 0.54441 -0.05740
 O78 O -0.05020 0.45408 -0.05664
 O79 O 0.12916 0.43046 -0.00470
 O80 O 0.06380 0.37238 -0.00316
 C81 C 0.11192 0.38411 -0.00541
 O82 O -0.00181 0.57137 0.12519
 O83 O -0.00358 0.62783 0.05846
 C84 C -0.00228 0.61736 0.10687
 O85 O -0.00918 0.42920 0.12537
 O86 O -0.00265 0.37172 0.05960
 C87 C -0.00804 0.38300 0.10764
 O88 O 0.12680 0.57228 0.00517
 O89 O 0.06006 0.62848 -0.00126
 C90 C 0.10824 0.61813 0.00388
 Zr91 Zr 0.09042 0.50068 -0.00019
 O92 O 0.14495 0.49479 0.05930
 O93 O 0.14991 0.50788 -0.05438
 Zr94 Zr -0.00280 0.49986 0.08779
 O95 O 0.05425 0.49421 0.14491
 O96 O -0.05963 0.50558 0.14492
 Zr97 Zr -0.00124 0.57609 -0.00323
 Zr98 Zr 0.00076 0.42282 -0.00281
 O99 O 0.05090 0.45550 0.05083
 O100 O 0.05017 0.54618 0.05109
 O101 O 0.05427 0.45444 -0.05400
 O102 O -0.05443 0.54336 0.04732
 O103 O 0.05275 0.54450 -0.05367
 O104 O -0.05378 0.45347 0.04797
 H105 H -0.07072 0.43101 -0.07854
 H106 H -0.07674 0.56585 0.06798
 H107 H 0.07152 0.43233 0.07246
 H108 H 0.07440 0.56762 -0.07428
 H109 H -0.14588 0.47500 0.07311
 H110 H -0.08692 0.48110 0.13598
 H111 H 0.07565 0.52522 0.14299
 H112 H 0.13929 0.52364 0.08300
 H113 H 0.14383 0.48213 -0.08133
 H114 H 0.08448 0.47648 -0.14427
 H115 H -0.07753 0.52093 -0.14847
 H116 H -0.14081 0.51982 -0.08889
 O117 O 0.12327 0.00282 0.42342
 O118 O 0.05568 0.00432 0.36777
 C119 C 0.10426 0.00300 0.37762
 O120 O -0.00048 -0.12703 0.56792
 O121 O 0.00196 -0.06103 0.62538
 C122 C 0.00059 -0.10925 0.61424
 O123 O 0.00272 -0.12604 0.42528
 O124 O -0.00413 -0.05971 0.36880
 C125 C 0.00017 -0.10788 0.37925
 O126 O 0.12648 0.00984 0.56576
 O127 O 0.06195 0.00323 0.62451
 C128 C 0.10976 0.00811 0.61239
 Zr129 Zr 0.08732 0.00498 0.49544
 O130 O 0.14659 -0.04972 0.49970
 O131 O 0.14200 0.06402 0.48844
 Zr132 Zr -0.00003 -0.08898 0.49687
 O133 O 0.05936 -0.14357 0.50089
 O134 O -0.05496 -0.14805 0.49190
 O135 O 0.04997 -0.04870 0.45006
 O136 O 0.05169 -0.04867 0.54053
 O137 O -0.00249 0.12947 0.56984
 O138 O -0.00226 0.06287 0.62643
 C139 C -0.00131 0.11122 0.61592
 O140 O -0.13317 0.00068 0.42934
 O141 O -0.06849 0.00009 0.37046
 C142 C -0.11653 0.00108 0.38265
 O143 O -0.12945 -0.00891 0.57158
 O144 O -0.06232 -0.00158 0.62741
 C145 C -0.11050 -0.00758 0.61739
 O146 O -0.01392 0.12985 0.42737
 O147 O -0.00880 0.06417 0.36964
 C148 C -0.01346 0.11211 0.38102
 Zr149 Zr -0.00657 0.09224 0.49832
 O150 O -0.06519 0.14724 0.50618
 O151 O 0.04838 0.15104 0.49127
 Zr152 Zr -0.09393 -0.00156 0.49971
 O153 O -0.15171 0.05432 0.50796
 O154 O -0.15040 -0.05905 0.49440
 Zr155 Zr -0.00520 0.00202 0.42071
 Zr156 Zr -0.00141 0.00120 0.57445
 O157 O -0.05611 0.05148 0.54392
 O158 O -0.05884 0.05247 0.45335
 O159 O 0.04844 0.05579 0.54263
 O160 O -0.05457 -0.05197 0.45386
 O161 O 0.04572 0.05576 0.45213
 O162 O -0.05279 -0.05300 0.54416
 H163 H 0.07438 -0.06929 0.56266
 H164 H -0.07581 -0.07394 0.43151
 H165 H -0.07766 0.07166 0.56757
 H166 H 0.06568 0.07793 0.42893
 H167 H -0.07828 -0.14447 0.52139
 H168 H -0.14153 -0.08577 0.51947
 H169 H -0.14999 0.07707 0.47792
 H170 H -0.09060 0.14072 0.47898
 H171 H 0.07315 0.14707 0.51953
 H172 H 0.13670 0.08796 0.51718
 H173 H 0.14135 -0.07436 0.47155
 H174 H 0.08214 -0.13794 0.47131
 C175 C -0.25889 0.21678 0.00255
 C176 C -0.31023 0.23197 0.00976
 C177 C -0.34935 0.19568 0.00994
 C178 C -0.33886 0.14372 0.00277
 C179 C -0.28793 0.12834 -0.00369
 C180 C -0.24837 0.16436 -0.00384
 C181 C -0.21846 0.25749 0.00158
 C182 C -0.16606 0.24721 -0.00565
 C183 C -0.13029 0.28694 -0.00695
 C184 C -0.14589 0.33784 -0.00120
 C185 C -0.19786 0.34817 0.00646
 C186 C -0.23390 0.30884 0.00788
 C187 C -0.32265 0.28342 0.01633
 C188 C -0.28533 0.32101 0.01538
 H189 H -0.36200 0.29490 0.02197
 H190 H -0.29701 0.36034 0.02035
 H191 H -0.38839 0.20829 0.01541
 H192 H -0.27866 0.08848 -0.00928
 H193 H -0.09041 0.27777 -0.01283
 H194 H -0.21062 0.38719 0.01138
 H195 H -0.21001 0.15050 -0.00937
 H196 H -0.15202 0.20886 -0.01054
 C197 C 0.26104 0.77778 0.01557
 C198 C 0.25004 0.82524 -0.00769
 C199 C 0.28809 0.86324 -0.01045
 C200 C 0.33725 0.85389 0.00895
 C201 C 0.34718 0.80733 0.03317
 C202 C 0.30980 0.76999 0.03671
 C203 C 0.22086 0.73717 0.01549
 C204 C 0.22943 0.68836 0.03601
 C205 C 0.19232 0.65071 0.03259
 C206 C 0.14524 0.66040 0.00910
 C207 C 0.13529 0.70946 -0.01001
 C208 C 0.17306 0.74775 -0.00746
 C209 C 0.20159 0.83383 -0.02886
 C210 C 0.16393 0.79598 -0.02866
 H211 H 0.19287 0.87016 -0.04649
 H212 H 0.12736 0.80434 -0.04614
 H213 H 0.27999 0.89922 -0.02910
 H214 H 0.38441 0.79943 0.04940
 H215 H 0.20077 0.61351 0.04840
 H216 H 0.09898 0.71732 -0.02829
 H217 H 0.32045 0.73516 0.05564
 H218 H 0.26475 0.67786 0.05425
 C219 C 0.26745 0.22688 -0.01887
 C220 C 0.25431 0.17681 -0.00362
 C221 C 0.29189 0.13834 -0.00262
 C222 C 0.34263 0.14944 -0.01619
 C223 C 0.35483 0.19879 -0.03262
 C224 C 0.31798 0.23684 -0.03417
 C225 C 0.22729 0.26747 -0.01720
 C226 C 0.23768 0.31857 -0.02967
 C227 C 0.19992 0.35553 -0.02593
 C228 C 0.15041 0.34299 -0.00991
 C229 C 0.13909 0.29192 0.00176
 C230 C 0.17736 0.25419 -0.00132
 C231 C 0.20405 0.16586 0.01122
 C232 C 0.16639 0.20364 0.01216
 H233 H 0.19375 0.12754 0.02270
 H234 H 0.12824 0.19325 0.02430
 H235 H 0.28194 0.10028 0.01001
 H236 H 0.39337 0.20837 -0.04414
 H237 H 0.20982 0.39438 -0.03582
 H238 H 0.10099 0.28173 0.01427
 H239 H 0.33029 0.27382 -0.04706
 H240 H 0.27480 0.33126 -0.04193
 C241 C -0.26908 0.77107 -0.01170
 C242 C -0.25590 0.82089 0.00452
 C243 C -0.29375 0.85905 0.00754
 C244 C -0.34487 0.84769 -0.00445
 C245 C -0.35739 0.79809 -0.02017
 C246 C -0.32032 0.76046 -0.02382
 C247 C -0.22824 0.73123 -0.01412
 C248 C -0.23793 0.68121 -0.03099
 C249 C -0.19970 0.64456 -0.03024
 C250 C -0.15039 0.65644 -0.01306
 C251 C -0.13948 0.70681 0.00192
 C252 C -0.17816 0.74424 0.00158
 C253 C -0.20530 0.83184 0.01832
 C254 C -0.16738 0.79428 0.01725
 H255 H -0.19498 0.86987 0.03085
 H256 H -0.12906 0.80454 0.02904
 H257 H -0.28359 0.89717 0.01999
 H258 H -0.39628 0.78804 -0.03006
 H259 H -0.20914 0.60640 -0.04302
 H260 H -0.10141 0.71659 0.01495
 H261 H -0.33303 0.72326 -0.03579
 H262 H -0.27479 0.66915 -0.04470
 C263 C 0.00037 -0.25953 0.21663
 C264 C 0.00734 -0.31075 0.23214
 C265 C 0.00638 -0.35017 0.19608
 C266 C -0.00136 -0.33997 0.14405
 C267 C -0.00790 -0.28921 0.12844
 C268 C -0.00714 -0.24944 0.16421
 C269 C 0.00110 -0.21869 0.25697
 C270 C -0.00595 -0.16643 0.24628
 C271 C -0.00575 -0.13021 0.28570
 C272 C 0.00147 -0.14522 0.33667
 C273 C 0.00913 -0.19705 0.34737
 C274 C 0.00886 -0.23356 0.30835
 C275 C 0.01516 -0.32264 0.28363
 C276 C 0.01595 -0.28489 0.32090
 H277 H 0.02061 -0.36187 0.29538
 H278 H 0.02196 -0.29615 0.36028
 H279 H 0.01187 -0.38910 0.20881
 H280 H -0.01392 -0.28015 0.08852
 H281 H -0.01175 -0.09048 0.27626
 H282 H 0.01501 -0.20940 0.38645
 H283 H -0.01256 -0.21122 0.15009
 H284 H -0.01197 -0.15280 0.20789
 C285 C 0.00710 0.26222 0.77920
 C286 C 0.01088 0.31366 0.76353
 C287 C 0.01140 0.35296 0.79975
 C288 C 0.00801 0.34271 0.85253
 C289 C 0.00529 0.29129 0.86802
 C290 C 0.00478 0.25172 0.83197
 C291 C 0.00539 0.22158 0.73861
 C292 C 0.00086 0.16906 0.74943
 C293 C -0.00121 0.13306 0.70984
 C294 C 0.00110 0.14852 0.65854
 C295 C 0.00589 0.20065 0.64765
 C296 C 0.00796 0.23694 0.68684
 C297 C 0.01369 0.32602 0.71162
 C298 C 0.01233 0.28851 0.67414
 H299 H 0.01674 0.36546 0.69969
 H300 H 0.01440 0.30016 0.63447
 H301 H 0.01402 0.39191 0.78612
 H302 H 0.00291 0.28126 0.90810
 H303 H -0.00486 0.09308 0.71946
 H304 H 0.00797 0.21338 0.60831
 H305 H 0.00223 0.21323 0.84619
 H306 H -0.00131 0.15507 0.78809
 C307 C -0.02165 0.26609 0.22230
 C308 C -0.00141 0.25365 0.17368
 C309 C 0.00194 0.29133 0.13541
 C310 C -0.01392 0.34153 0.14548
 C311 C -0.03496 0.35305 0.19338
 C312 C -0.03898 0.31608 0.23108
 C313 C -0.02258 0.22592 0.26290
 C314 C -0.04063 0.23551 0.31264
 C315 C -0.03825 0.19808 0.35008
 C316 C -0.01826 0.14973 0.33922
 C317 C -0.00169 0.13894 0.28926
 C318 C -0.00329 0.17687 0.25119
 C319 C 0.01614 0.20405 0.16409
 C320 C 0.01519 0.16651 0.20197
 H321 H 0.03148 0.19426 0.12690
 H322 H 0.02984 0.12897 0.19278
 H323 H 0.01816 0.28194 0.09847
 H324 H -0.04837 0.39115 0.20206
 H325 H -0.05198 0.20731 0.38802
 H326 H 0.01389 0.10166 0.28043
 H327 H -0.05530 0.32793 0.26694
 H328 H -0.05614 0.27182 0.32398
 C329 C -0.00177 -0.26107 0.77624
 C330 C -0.00550 -0.31256 0.76034
 C331 C -0.00589 -0.35184 0.79648
 C332 C -0.00253 -0.34119 0.84893
 C333 C 0.00081 -0.29015 0.86485
 C334 C 0.00120 -0.25055 0.82905
 C335 C -0.00101 -0.22036 0.73590
 C336 C 0.00280 -0.16784 0.74707
 C337 C 0.00342 -0.13166 0.70778
 C338 C 0.00032 -0.14692 0.65643
 C339 C -0.00348 -0.19911 0.64515
 C340 C -0.00417 -0.23560 0.68408
 C341 C -0.00864 -0.32486 0.70840
 C342 C -0.00800 -0.28722 0.67111
 H343 H -0.01154 -0.36430 0.69632
 H344 H -0.01046 -0.29878 0.63140
 H345 H -0.00868 -0.39100 0.78345
 H346 H 0.00349 -0.28072 0.90507
 H347 H 0.00638 -0.09166 0.71770
 H348 H -0.00605 -0.21168 0.60574
 H349 H 0.00402 -0.21211 0.84347
 H350 H 0.00535 -0.15393 0.78579
 C351 C 0.26728 0.01249 0.76858
 C352 C 0.25407 -0.00315 0.81861
 C353 C 0.29188 -0.00576 0.85693
 C354 C 0.34297 0.00617 0.84560
 C355 C 0.35551 0.02176 0.79596
 C356 C 0.31844 0.02501 0.75811
 C357 C 0.22649 0.01395 0.72847
 C358 C 0.23628 0.02933 0.67794
 C359 C 0.19800 0.02798 0.64121
 C360 C 0.14855 0.01159 0.65349
 C361 C 0.13768 -0.00226 0.70422
 C362 C 0.17639 -0.00135 0.74171
 C363 C 0.20351 -0.01681 0.82968
 C364 C 0.16558 -0.01613 0.79203
 H365 H 0.19321 -0.02883 0.86790
 H366 H 0.12724 -0.02767 0.80242
 H367 H 0.28171 -0.01804 0.89512
 H368 H 0.39440 0.03170 0.78606
 H369 H 0.20748 0.03973 0.60271
 H370 H 0.09955 -0.01480 0.71428
 H371 H 0.33109 0.03698 0.72087
 H372 H 0.27328 0.04228 0.66557
 C373 C -0.27421 0.00480 0.22620
 C374 C -0.25953 -0.00030 0.17444
 C375 C -0.29700 -0.00077 0.13553
 C376 C -0.34944 0.00320 0.14771
 C377 C -0.36294 0.00832 0.19966
 C378 C -0.32631 0.00917 0.23790
 C379 C -0.23381 0.00477 0.26671
 C380 C -0.24540 0.01005 0.31892
 C381 C -0.20712 0.00893 0.35555
 C382 C -0.15577 0.00266 0.34172
 C383 C -0.14340 -0.00195 0.28956
 C384 C -0.18215 -0.00096 0.25200
 C385 C -0.20762 -0.00533 0.16214
 C386 C -0.16983 -0.00579 0.20005
 H387 H -0.19603 -0.00930 0.12260
 H388 H -0.13035 -0.01008 0.18848
 H389 H -0.28510 -0.00482 0.09605
 H390 H -0.40239 0.01173 0.21164
 H391 H -0.21819 0.01311 0.39520
 H392 H -0.10389 -0.00663 0.27822
 H393 H -0.34015 0.01299 0.27644
 H394 H -0.28376 0.01508 0.33276
 C395 C 0.25494 -0.00010 0.21421
 C396 C 0.30607 -0.00839 0.22968
 C397 C 0.34544 -0.00840 0.19367
 C398 C 0.33544 -0.00015 0.14169
 C399 C 0.28476 0.00759 0.12600
 C400 C 0.24492 0.00768 0.16178
 C401 C 0.21420 0.00028 0.25467
 C402 C 0.16193 0.00839 0.24420
 C403 C 0.12589 0.00899 0.28381
 C404 C 0.14116 0.00166 0.33471
 C405 C 0.19297 -0.00691 0.34515
 C406 C 0.22923 -0.00762 0.30602
 C407 C 0.31804 -0.01639 0.28112
 C408 C 0.28047 -0.01600 0.31845
 H409 H 0.35723 -0.02283 0.29280
 H410 H 0.29179 -0.02216 0.35781
 H411 H 0.38428 -0.01485 0.20651
 H412 H 0.27587 0.01403 0.08611
 H413 H 0.08613 0.01564 0.27460
 H414 H 0.20549 -0.01310 0.38415
 H415 H 0.20674 0.01409 0.14773
 H416 H 0.14822 0.01452 0.20582
 C417 C -0.26269 -0.02209 0.77751
 C418 C -0.25196 0.00122 0.82518
 C419 C -0.29011 0.00375 0.86315
 C420 C -0.33917 -0.01578 0.85351
 C421 C -0.34888 -0.03997 0.80674
 C422 C -0.31136 -0.04338 0.76945
 C423 C -0.22244 -0.02165 0.73691
 C424 C -0.23063 -0.04246 0.68800
 C425 C -0.19365 -0.03835 0.65024
 C426 C -0.14707 -0.01388 0.65994
 C427 C -0.13735 0.00528 0.70919
 C428 C -0.17500 0.00201 0.74760
 C429 C -0.20375 0.02283 0.83396
 C430 C -0.16613 0.02321 0.79604
 H431 H -0.19524 0.04050 0.87045
 H432 H -0.12981 0.04115 0.80451
 H433 H -0.28223 0.02248 0.89927
 H434 H -0.38607 -0.05620 0.79862
 H435 H -0.20186 -0.05432 0.61292
 H436 H -0.10139 0.02421 0.71709
 H437 H -0.32185 -0.06220 0.73437
 H438 H -0.26556 -0.06146 0.67751
   
