data_POSCAR
  _audit_creation_date              2014-09-24
  _audit_creation_method            'ToBaCCo'
  _symmetry_space_group_name_H-M    'P1'
  _symmetry_Int_Tables_number       1
  _symmetry_cell_setting            triclinic
  loop_
  _symmetry_equiv_pos_as_xyz
 x,y,z
_cell_length_a 36.3094
_cell_length_b 43.9887
_cell_length_c 21.4310
_cell_angle_alpha 91.388500
_cell_angle_beta 92.028300
_cell_angle_gamma 92.115600
loop_
  _atom_site_label
  _atom_site_type_symbol
  _atom_site_fract_x
  _atom_site_fract_y
  _atom_site_fract_z
C1 C 0.68682 0.31091 0.49080
 C2 C 0.69908 0.30160 0.55026
 C3 C 0.72193 0.27635 0.55298
 C4 C 0.72953 0.25882 0.49907
 C5 C 0.71449 0.26786 0.44103
 C6 C 0.69472 0.29445 0.43655
 C7 C 0.75327 0.23151 0.50360
 C8 C 0.77171 0.22037 0.45116
 C9 C 0.79301 0.19414 0.45404
 C10 C 0.79753 0.18035 0.51242
 C11 C 0.78093 0.19172 0.56562
 C12 C 0.75803 0.21647 0.56061
 H13 H 0.66895 0.32989 0.48570
 H14 H 0.73504 0.27124 0.59723
 H15 H 0.71819 0.25475 0.39859
 H16 H 0.76866 0.23166 0.40742
 H17 H 0.81615 0.16188 0.51822
 H18 H 0.74399 0.22354 0.60183
 C19 C 0.21470 0.82591 0.49500
 C20 C 0.22067 0.81332 0.55403
 C21 C 0.24071 0.78641 0.55665
 C22 C 0.24986 0.77036 0.50133
 C23 C 0.23821 0.78194 0.44314
 C24 C 0.22127 0.80990 0.43968
 C25 C 0.27056 0.74132 0.50342
 C26 C 0.29054 0.73182 0.45128
 C27 C 0.30878 0.70432 0.45103
 C28 C 0.30870 0.68697 0.50476
 C29 C 0.29282 0.69710 0.56000
 C30 C 0.27163 0.72330 0.55744
 H31 H 0.20448 0.84862 0.49146
 H32 H 0.24795 0.77749 0.60152
 H33 H 0.24140 0.76910 0.40016
 H34 H 0.29278 0.74591 0.41090
 H35 H 0.32082 0.66486 0.50315
 H36 H 0.25745 0.73023 0.59839
 C37 C 0.28559 0.32948 -0.48991
 C38 C 0.29197 0.31014 -0.54091
 C39 C 0.27797 0.27995 -0.54066
 C40 C 0.25606 0.26922 -0.49182
 C41 C 0.25102 0.28928 -0.44035
 C42 C 0.26658 0.31897 -0.43861
 C43 C 0.23943 0.23721 -0.49475
 C44 C 0.22685 0.22270 -0.44059
 C45 C 0.21012 0.19311 -0.44385
 C46 C 0.21069 0.17692 -0.50126
 C47 C 0.22239 0.19066 -0.55545
 C48 C 0.23517 0.22102 -0.55260
 H49 H 0.29652 0.35273 -0.48889
 H50 H 0.28534 0.26482 -0.57819
 H51 H 0.23503 0.28254 -0.40118
 H52 H 0.22861 0.23482 -0.39642
 H53 H 0.20160 0.15322 -0.50484
 H54 H 0.24176 0.23154 -0.59603
 C55 C -0.21751 0.82388 -0.50452
 C56 C -0.21574 0.80697 -0.56089
 C57 C -0.23098 0.77687 -0.56270
 C58 C -0.24308 0.76271 -0.50784
 C59 C -0.24021 0.77981 -0.45105
 C60 C -0.22896 0.81052 -0.44974
 C61 C -0.25752 0.73011 -0.50871
 C62 C -0.27933 0.71926 -0.45986
 C63 C -0.29133 0.68861 -0.45779
 C64 C -0.28320 0.66883 -0.50713
 C65 C -0.26409 0.67930 -0.55842
 C66 C -0.25032 0.70951 -0.55817
 H67 H -0.20935 0.84779 -0.50221
 H68 H -0.23182 0.76412 -0.60616
 H69 H -0.24652 0.76963 -0.40716
 H70 H -0.28816 0.73460 -0.42377
 H71 H -0.29293 0.64527 -0.50690
 H72 H -0.23412 0.71634 -0.59705
 N73 N -0.01690 0.97062 0.12306
 N74 N -0.03306 0.96551 0.17601
 N75 N 0.05221 0.95442 0.05184
 N76 N 0.07325 0.93245 0.07183
 N77 N 0.05668 0.97849 0.08958
 N78 N 0.08089 0.97307 0.13487
 N79 N -0.02170 0.94702 0.08462
 N80 N -0.04165 0.92522 0.11035
 C81 C -0.04867 0.93727 0.16738
 C82 C 0.09173 0.94460 0.12284
 N83 N 0.01837 0.96584 -0.12270
 N84 N 0.03371 0.95976 -0.17600
 N85 N -0.04415 0.93878 -0.04506
 N86 N -0.06507 0.91353 -0.04764
 N87 N -0.05514 0.95760 -0.08785
 N88 N -0.08403 0.94581 -0.12012
 N89 N 0.02946 0.94715 -0.07961
 N90 N 0.05278 0.92775 -0.10298
 Mn91 Mn 0.00404 0.94663 0.00284
 C92 C 0.05545 0.93628 -0.16319
 C93 C -0.09034 0.91852 -0.09389
 N94 N 0.04704 1.04323 0.08036
 N95 N 0.07532 1.05532 0.11380
 N96 N -0.03743 1.05372 0.07169
 N97 N -0.06388 1.07078 0.09254
 N98 N -0.02680 1.03477 0.11456
 N99 N -0.04596 1.03801 0.16512
 N100 N 0.03604 1.06218 0.03770
 N101 N 0.05635 1.08777 0.04172
 Mn102 Mn 0.01509 1.00689 0.10199
 C103 C 0.08130 1.08288 0.08855
 C104 C -0.06904 1.06042 0.15089
 N105 N -0.06480 1.02175 -0.09603
 N106 N -0.09409 1.02374 -0.13348
 N107 N 0.01357 1.05376 -0.09234
 N108 N 0.03393 1.07538 -0.11781
 N109 N 0.00867 1.03015 -0.13077
 N110 N 0.02519 1.03509 -0.18348
 N111 N -0.06041 1.04615 -0.05953
 N112 N -0.08647 1.06557 -0.07255
 Mn113 Mn -0.02329 0.99381 -0.10958
 Mn114 Mn -0.01212 1.05429 -0.01062
 Cl115 Cl -0.00393 1.00040 -0.00383
 C116 C -0.10786 1.05086 -0.11783
 C117 C 0.04107 1.06323 -0.17469
 N118 N 0.45359 0.44090 -0.03449
 N119 N 0.43023 0.41709 -0.03700
 N120 N 0.51616 0.46279 -0.11823
 N121 N 0.53482 0.45958 -0.16933
 N122 N 0.52625 0.44306 -0.07653
 N123 N 0.55204 0.42566 -0.09864
 N124 N 0.44366 0.46091 -0.07574
 N125 N 0.41326 0.45130 -0.10679
 C126 C 0.40472 0.42418 -0.08146
 C127 C 0.55703 0.43636 -0.15682
 N128 N 0.52407 0.55051 -0.08673
 N129 N 0.54381 0.57142 -0.11541
 N130 N 0.44235 0.52636 -0.08261
 N131 N 0.41713 0.53415 -0.12443
 N132 N 0.45169 0.54983 -0.04524
 N133 N 0.43305 0.57373 -0.06217
 N134 N 0.51455 0.52769 -0.12520
 N135 N 0.52735 0.53247 -0.18103
 Mn136 Mn 0.47906 0.49431 -0.10051
 C137 C 0.54592 0.55963 -0.17415
 C138 C 0.41075 0.56352 -0.11058
 N139 N 0.55424 0.44765 0.05241
 N140 N 0.57693 0.42534 0.06346
 N141 N 0.49096 0.46971 0.13172
 N142 N 0.47733 0.46516 0.18706
 N143 N 0.48180 0.44675 0.09323
 N144 N 0.46144 0.42607 0.12136
 N145 N 0.56327 0.47136 0.08904
 N146 N 0.59261 0.46598 0.12438
 Mn147 Mn 0.50398 0.44427 0.00855
 C148 C 0.60136 0.43749 0.10732
 C149 C 0.45865 0.43804 0.17980
 N150 N 0.48018 0.55468 0.08304
 N151 N 0.46152 0.57681 0.10834
 N152 N 0.56223 0.53637 0.08258
 N153 N 0.59308 0.54568 0.11261
 N154 N 0.55260 0.55609 0.04058
 N155 N 0.57658 0.57944 0.04148
 N156 N 0.49008 0.53527 0.12559
 N157 N 0.47870 0.54382 0.18080
 Mn158 Mn 0.50214 0.55293 -0.00197
 Mn159 Mn 0.52666 0.50319 0.10751
 Cl160 Cl 0.50284 0.49870 0.00348
 C161 C 0.46042 0.56945 0.16929
 C162 C 0.60215 0.57233 0.08581
 C163 C 0.34314 0.34303 0.41760
 C164 C 0.36151 0.35624 0.36806
 C165 C 0.35169 0.34704 0.30589
 C166 C 0.32342 0.32478 0.29454
 C167 C 0.30441 0.31240 0.34421
 C168 C 0.31376 0.32161 0.40629
 C169 C 0.36981 0.36064 0.25624
 C170 C 0.39684 0.38394 0.26813
 C171 C 0.40614 0.39336 0.33050
 C172 C 0.38888 0.37912 0.37998
 C173 C 0.43221 0.41723 0.34247
 C174 C 0.44884 0.43184 0.29319
 C175 C 0.44024 0.42251 0.23109
 C176 C 0.41436 0.39836 0.21876
 H177 H 0.35151 0.34982 0.46509
 H178 H 0.31539 0.31749 0.24718
 H179 H 0.28171 0.29621 0.33382
 H180 H 0.36237 0.35355 0.20849
 H181 H 0.39614 0.38636 0.42774
 H182 H 0.43952 0.42477 0.38996
 H183 H 0.46882 0.45030 0.30377
 H184 H 0.40743 0.39119 0.17090
 C185 C -0.16930 0.84271 0.39845
 C186 C -0.15066 0.85594 0.34944
 C187 C -0.15877 0.84593 0.28736
 C188 C -0.18591 0.82275 0.27571
 C189 C -0.20495 0.80982 0.32506
 C190 C -0.19730 0.81978 0.38762
 C191 C -0.13960 0.85933 0.23837
 C192 C -0.11289 0.88290 0.25123
 C193 C -0.10540 0.89293 0.31380
 C194 C -0.12395 0.87919 0.36231
 C195 C -0.07966 0.91684 0.32719
 C196 C -0.06156 0.93102 0.27910
 C197 C -0.06828 0.92127 0.21676
 C198 C -0.09379 0.89695 0.20289
 H199 H -0.16038 0.84975 0.44547
 H200 H -0.19272 0.81479 0.22831
 H201 H -0.22648 0.79284 0.31321
 H202 H -0.14564 0.85163 0.19053
 H203 H -0.11793 0.88692 0.41019
 H204 H -0.07376 0.92477 0.37490
 H205 H -0.04193 0.94960 0.29088
 H206 H -0.09928 0.88949 0.15478
 C207 C 0.72197 0.66962 0.32803
 C208 C 0.71098 0.64870 0.27983
 C209 C 0.71622 0.61731 0.28791
 C210 C 0.73480 0.60765 0.34192
 C211 C 0.74462 0.62850 0.39035
 C212 C 0.73666 0.65936 0.38497
 C213 C 0.70028 0.59593 0.24447
 C214 C 0.67783 0.60551 0.19466
 C215 C 0.67454 0.63694 0.18430
 C216 C 0.69180 0.65838 0.22631
 C217 C 0.65188 0.64635 0.13458
 C218 C 0.63016 0.62498 0.09902
 C219 C 0.63099 0.59392 0.11244
 C220 C 0.65633 0.58421 0.15815
 H221 H 0.71550 0.69337 0.32375
 H222 H 0.73945 0.58374 0.34854
 H223 H 0.75629 0.62024 0.43367
 H224 H 0.70305 0.57182 0.25207
 H225 H 0.68802 0.68246 0.21982
 H226 H 0.64937 0.67032 0.12547
 H227 H 0.61109 0.63297 0.06361
 H228 H 0.65745 0.56022 0.16830
 C229 C 0.19672 1.18337 0.33489
 C230 C 0.18519 1.16336 0.28523
 C231 C 0.19657 1.13292 0.28511
 C232 C 0.22116 1.12359 0.33204
 C233 C 0.23190 1.14342 0.38164
 C234 C 0.21860 1.17298 0.38482
 C235 C 0.18144 1.11177 0.24051
 C236 C 0.15434 1.12042 0.19701
 C237 C 0.14463 1.15122 0.19440
 C238 C 0.16045 1.17261 0.23816
 C239 C 0.11772 1.15971 0.15020
 C240 C 0.09873 1.13758 0.11223
 C241 C 0.10630 1.10668 0.11808
 C242 C 0.13517 1.09840 0.15875
 H243 H 0.18623 1.20612 0.33730
 H244 H 0.23049 1.10048 0.33222
 H245 H 0.24911 1.13516 0.41944
 H246 H 0.18918 1.08820 0.24198
 H247 H 0.15196 1.19599 0.23770
 H248 H 0.11020 1.18324 0.14697
 H249 H 0.07665 1.14447 0.08097
 H250 H 0.14139 1.07460 0.16298
 C251 C 0.67611 0.34680 -0.39483
 C252 C 0.65937 0.35992 -0.34326
 C253 C 0.65436 0.34297 -0.28893
 C254 C 0.66757 0.31351 -0.28637
 C255 C 0.68379 0.30036 -0.33824
 C256 C 0.68726 0.31636 -0.39439
 C257 C 0.63533 0.35543 -0.23891
 C258 C 0.62068 0.38446 -0.24328
 C259 C 0.62672 0.40163 -0.29725
 C260 C 0.64640 0.38945 -0.34637
 C261 C 0.61195 0.43041 -0.30231
 C262 C 0.59013 0.44170 -0.25559
 C263 C 0.58295 0.42464 -0.20246
 C264 C 0.59906 0.39626 -0.19573
 H265 H 0.68032 0.36064 -0.43522
 H266 H 0.66414 0.30016 -0.24499
 H267 H 0.69119 0.27685 -0.33502
 H268 H 0.63095 0.34220 -0.19759
 H269 H 0.65040 0.40253 -0.38803
 H270 H 0.61647 0.44390 -0.34318
 H271 H 0.57837 0.46376 -0.26160
 H272 H 0.59364 0.38295 -0.15492
 C273 C 0.17301 0.84429 -0.40056
 C274 C 0.15637 0.85814 -0.35012
 C275 C 0.17027 0.85425 -0.28877
 C276 C 0.20119 0.83637 -0.27953
 C277 C 0.21820 0.82282 -0.33064
 C278 C 0.20472 0.82688 -0.39253
 C279 C 0.15290 0.86826 -0.23827
 C280 C 0.12216 0.88638 -0.24922
 C281 C 0.10896 0.89024 -0.31139
 C282 C 0.12581 0.87590 -0.36100
 C283 C 0.07916 0.90863 -0.32357
 C284 C 0.06242 0.92341 -0.27483
 C285 C 0.07463 0.91980 -0.21261
 C286 C 0.10445 0.90099 -0.19973
 H287 H 0.15970 0.84633 -0.44619
 H288 H 0.21246 0.83308 -0.23280
 H289 H 0.24257 0.81009 -0.32105
 H290 H 0.16337 0.86526 -0.19089
 H291 H 0.11534 0.87892 -0.40844
 H292 H 0.06890 0.91179 -0.37099
 H293 H 0.03943 0.93755 -0.28607
 H294 H 0.11415 0.89824 -0.15187
 C295 C 0.33398 0.66725 -0.37523
 C296 C 0.34225 0.65118 -0.32157
 C297 C 0.31681 0.64929 -0.27353
 C298 C 0.28356 0.66448 -0.28002
 C299 C 0.27543 0.68076 -0.33414
 C300 C 0.30017 0.68173 -0.38354
 C301 C 0.32516 0.63220 -0.22036
 C302 C 0.35869 0.61711 -0.21536
 C303 C 0.38416 0.61980 -0.26372
 C304 C 0.37585 0.63684 -0.31603
 C305 C 0.41756 0.60506 -0.25977
 C306 C 0.42563 0.58720 -0.20896
 C307 C 0.40061 0.58383 -0.16107
 C308 C 0.36724 0.59905 -0.16364
 H309 H 0.35492 0.66918 -0.40986
 H310 H 0.26364 0.66349 -0.24358
 H311 H 0.24902 0.69129 -0.33800
 H312 H 0.30558 0.63043 -0.18346
 H313 H 0.39540 0.63855 -0.35307
 H314 H 0.43731 0.60704 -0.29636
 H315 H 0.45154 0.57569 -0.20713
 H316 H 0.34800 0.59641 -0.12646
 C317 C -0.21232 1.14741 -0.36427
 C318 C -0.19793 1.13485 -0.30939
 C319 C -0.18063 1.15408 -0.26233
 C320 C -0.18011 1.18572 -0.26943
 C321 C -0.19468 1.19805 -0.32413
 C322 C -0.20982 1.17896 -0.37268
 C323 C -0.16279 1.14133 -0.21045
 C324 C -0.16166 1.10959 -0.20554
 C325 C -0.18083 1.09053 -0.25097
 C326 C -0.19906 1.10327 -0.30223
 C327 C -0.17993 1.05890 -0.24617
 C328 C -0.15804 1.04618 -0.19967
 C329 C -0.13683 1.06478 -0.15675
 C330 C -0.14001 1.09653 -0.15814
 H331 H -0.22423 1.13263 -0.40151
 H332 H -0.16728 1.20085 -0.23369
 H333 H -0.19243 1.22243 -0.32989
 H334 H -0.14849 1.15605 -0.17543
 H335 H -0.21272 1.08854 -0.33796
 H336 H -0.19481 1.04398 -0.28011
 H337 H -0.15638 1.02165 -0.19911
 H338 H -0.12376 1.11108 -0.12526
 C339 C 0.65868 0.65479 -0.41544
 C340 C 0.64050 0.64177 -0.36546
 C341 C 0.64969 0.65194 -0.30362
 C342 C 0.67701 0.67506 -0.29305
 C343 C 0.69572 0.68737 -0.34310
 C344 C 0.68708 0.67714 -0.40479
 C345 C 0.63191 0.63846 -0.25350
 C346 C 0.60576 0.61442 -0.26452
 C347 C 0.59694 0.60416 -0.32654
 C348 C 0.61394 0.61818 -0.37654
 C349 C 0.57162 0.57968 -0.33763
 C350 C 0.55536 0.56523 -0.28781
 C351 C 0.56364 0.57527 -0.22602
 C352 C 0.58868 0.60008 -0.21460
 H353 H 0.65092 0.64717 -0.46271
 H354 H 0.68452 0.68312 -0.24597
 H355 H 0.71766 0.70433 -0.33330
 H356 H 0.63894 0.64625 -0.20601
 H357 H 0.60711 0.61024 -0.42403
 H358 H 0.56464 0.57152 -0.38484
 H359 H 0.53600 0.54626 -0.29775
 H360 H 0.59534 0.60785 -0.16700
 C361 C 0.16288 1.15783 -0.40391
 C362 C 0.14426 1.14435 -0.35516
 C363 C 0.15303 1.15356 -0.29281
 C364 C 0.18088 1.17609 -0.28063
 C365 C 0.20000 1.18916 -0.32973
 C366 C 0.19163 1.18009 -0.39260
 C367 C 0.13378 1.14003 -0.24408
 C368 C 0.10641 1.11705 -0.25745
 C369 C 0.09837 1.10770 -0.32028
 C370 C 0.11694 1.12164 -0.36852
 C371 C 0.07205 1.08428 -0.33416
 C372 C 0.05384 1.06995 -0.28633
 C373 C 0.06101 1.07914 -0.22378
 C374 C 0.08717 1.10292 -0.20939
 H375 H 0.15340 1.15149 -0.45102
 H376 H 0.18823 1.18340 -0.23302
 H377 H 0.22212 1.20555 -0.31744
 H378 H 0.14029 1.14716 -0.19603
 H379 H 0.11046 1.11448 -0.41660
 H380 H 0.06574 1.07685 -0.38206
 H381 H 0.03371 1.05179 -0.29846
 H382 H 0.09302 1.10991 -0.16110
 C383 C 0.28358 0.32774 -0.32568
 C384 C 0.29555 0.34834 -0.27736
 C385 C 0.28982 0.37977 -0.28382
 C386 C 0.27003 0.38978 -0.33629
 C387 C 0.25920 0.36928 -0.38483
 C388 C 0.26733 0.33839 -0.38111
 C389 C 0.30625 0.40087 -0.24027
 C390 C 0.32948 0.39103 -0.19173
 C391 C 0.33343 0.35954 -0.18300
 C392 C 0.31589 0.33834 -0.22531
 C393 C 0.35675 0.34988 -0.13438
 C394 C 0.37821 0.37115 -0.09803
 C395 C 0.37655 0.40237 -0.10962
 C396 C 0.35083 0.41222 -0.15460
 H397 H 0.29024 0.30397 -0.32283
 H398 H 0.26506 0.41373 -0.34167
 H399 H 0.24651 0.37784 -0.42707
 H400 H 0.30298 0.42503 -0.24663
 H401 H 0.32009 0.31424 -0.22002
 H402 H 0.35981 0.32585 -0.12653
 H403 H 0.39762 0.36302 -0.06331
 H404 H 0.34909 0.43630 -0.16341
 C405 C -0.20533 0.81831 -0.33915
 C406 C -0.19443 0.83842 -0.28943
 C407 C -0.20509 0.86903 -0.29075
 C408 C -0.22851 0.87845 -0.33928
 C409 C -0.23864 0.85849 -0.38897
 C410 C -0.22585 0.82873 -0.39064
 C411 C -0.19024 0.89022 -0.24602
 C412 C -0.16397 0.88141 -0.20123
 C413 C -0.15508 0.85046 -0.19723
 C414 C -0.17081 0.82904 -0.24090
 C415 C -0.12887 0.84185 -0.15200
 C416 C -0.10951 0.86397 -0.11460
 C417 C -0.11612 0.89495 -0.12202
 C418 C -0.14456 0.90340 -0.16333
 H419 H -0.19526 0.79541 -0.34028
 H420 H -0.23733 0.90170 -0.34056
 H421 H -0.25498 0.86676 -0.42784
 H422 H -0.19734 0.91391 -0.24857
 H423 H -0.16290 0.80552 -0.23941
 H424 H -0.12201 0.81821 -0.14772
 H425 H -0.08780 0.85697 -0.08273
 H426 H -0.15005 0.92728 -0.16870
 C427 C 0.36081 0.67693 0.40418
 C428 C 0.37624 0.66155 0.35416
 C429 C 0.36064 0.66379 0.29321
 C430 C 0.32982 0.68174 0.28366
 C431 C 0.31357 0.69600 0.33448
 C432 C 0.32839 0.69310 0.39550
 C433 C 0.37541 0.64729 0.24350
 C434 C 0.40455 0.62769 0.25478
 C435 C 0.41964 0.62537 0.31623
 C436 C 0.40599 0.64281 0.36507
 C437 C 0.44758 0.60503 0.32837
 C438 C 0.46027 0.58674 0.28038
 C439 C 0.44594 0.58894 0.21903
 C440 C 0.41833 0.60976 0.20618
 H441 H 0.37334 0.67525 0.45058
 H442 H 0.31743 0.68377 0.23729
 H443 H 0.28860 0.70824 0.32628
 H444 H 0.36349 0.64893 0.19664
 H445 H 0.41762 0.64090 0.41210
 H446 H 0.45928 0.60293 0.37523
 H447 H 0.48174 0.57104 0.29123
 H448 H 0.40703 0.61142 0.15894
 C449 C -0.18279 1.15071 0.39550
 C450 C -0.16501 1.13858 0.34404
 C451 C -0.15437 1.15765 0.29531
 C452 C -0.16228 1.18855 0.29864
 C453 C -0.17987 1.20060 0.35026
 C454 C -0.19008 1.18202 0.40029
 C455 C -0.13549 1.14561 0.24469
 C456 C -0.12664 1.11477 0.24294
 C457 C -0.13781 1.09571 0.29165
 C458 C -0.15726 1.10763 0.34132
 C459 C -0.12842 1.06514 0.29099
 C460 C -0.10694 1.05373 0.24388
 C461 C -0.09505 1.07245 0.19582
 C462 C -0.10574 1.10283 0.19458
 H463 H -0.19177 1.13524 0.43093
 H464 H -0.15421 1.20361 0.26182
 H465 H -0.18358 1.22487 0.35167
 H466 H -0.12699 1.16033 0.20754
 H467 H -0.16547 1.09296 0.37877
 H468 H -0.13682 1.05025 0.32788
 H469 H -0.09914 1.03022 0.24550
 H470 H -0.09636 1.11745 0.15789
 C471 C 0.69233 0.33526 0.35829
 C472 C 0.67754 0.34761 0.30361
 C473 C 0.65187 0.33013 0.26519
 C474 C 0.64291 0.29998 0.28080
 C475 C 0.65799 0.28778 0.33538
 C476 C 0.68202 0.30562 0.37519
 C477 C 0.63469 0.34345 0.21330
 C478 C 0.64247 0.37415 0.20018
 C479 C 0.66939 0.39106 0.23730
 C480 C 0.68700 0.37759 0.28825
 C481 C 0.67697 0.42171 0.22491
 C482 C 0.65627 0.43617 0.17921
 C483 C 0.62808 0.42016 0.14429
 C484 C 0.62231 0.38877 0.15303
 H485 H 0.71117 0.34895 0.38878
 H486 H 0.62351 0.28613 0.25174
 H487 H 0.64984 0.26484 0.34778
 H488 H 0.61425 0.33034 0.18478
 H489 H 0.70692 0.39088 0.31754
 H490 H 0.69771 0.43490 0.25258
 H491 H 0.66123 0.46033 0.17300
 H492 H 0.60038 0.37632 0.12663
 C493 C 0.17491 0.83753 0.37655
 C494 C 0.16428 0.85349 0.32379
 C495 C 0.18610 0.85317 0.27054
 C496 C 0.21839 0.83645 0.27150
 C497 C 0.22961 0.82143 0.32565
 C498 C 0.20833 0.82246 0.37920
 C499 C 0.17566 0.87015 0.21831
 C500 C 0.14448 0.88825 0.22010
 C501 C 0.12328 0.88862 0.27437
 C502 C 0.13283 0.87080 0.32501
 C503 C 0.09308 0.90728 0.27798
 C504 C 0.08393 0.92575 0.22861
 C505 C 0.10427 0.92552 0.17416
 C506 C 0.13431 0.90643 0.16941
 H507 H 0.15759 0.83774 0.41675
 H508 H 0.23556 0.83583 0.23120
 H509 H 0.25547 0.80992 0.32635
 H510 H 0.19226 0.86994 0.17723
 H511 H 0.11642 0.87120 0.36636
 H512 H 0.07669 0.90781 0.31926
 H513 H 0.06030 0.93995 0.23249
 H514 H 0.14991 0.90618 0.12722
   
