data_POSCAR
  _audit_creation_date              2014-09-24
  _audit_creation_method            'ToBaCCo'
  _symmetry_space_group_name_H-M    'P1'
  _symmetry_Int_Tables_number       1
  _symmetry_cell_setting            triclinic
  loop_
  _symmetry_equiv_pos_as_xyz
 x,y,z
_cell_length_a 43.4952
_cell_length_b 43.4742
_cell_length_c 45.0420
_cell_angle_alpha 89.993600
_cell_angle_beta 89.978200
_cell_angle_gamma 89.876500
loop_
  _atom_site_label
  _atom_site_type_symbol
  _atom_site_fract_x
  _atom_site_fract_y
  _atom_site_fract_z
O1 O 0.33280 0.37647 0.02841
 O2 O 0.37548 0.33431 -0.02943
 O3 O 0.33337 0.37666 -0.02957
 O4 O 0.37534 0.33422 0.02864
 O5 O 0.33929 0.29849 0.02866
 O6 O 0.29776 0.34053 -0.02995
 O7 O 0.34023 0.29778 -0.02867
 O8 O 0.29669 0.34081 0.02767
 Cu9 Cu 0.35786 0.35903 -0.00044
 Cu10 Cu 0.31486 0.31584 -0.00062
 C11 C 0.30737 0.36589 0.03771
 C12 C 0.36521 0.30872 -0.03864
 C13 C 0.30838 0.36582 -0.03969
 C14 C 0.36448 0.30910 0.03848
 O15 O 0.66608 0.62256 0.02907
 O16 O 0.62384 0.66528 -0.02869
 O17 O 0.66546 0.62238 -0.02910
 O18 O 0.62435 0.66548 0.02931
 O19 O 0.66080 0.70078 0.02874
 O20 O 0.70220 0.65736 -0.02899
 O21 O 0.66032 0.70056 -0.02904
 O22 O 0.70281 0.65760 0.02808
 Cu23 Cu 0.64126 0.64038 0.00021
 Cu24 Cu 0.68511 0.68271 -0.00033
 C25 C 0.69177 0.63270 0.03815
 C26 C 0.63493 0.69021 -0.03867
 C27 C 0.69098 0.63242 -0.03883
 C28 C 0.63558 0.69053 0.03889
 O29 O 0.66381 0.37831 0.97018
 O30 O 0.62146 0.33654 1.02844
 O31 O 0.66419 0.37823 1.02826
 O32 O 0.62114 0.33640 0.97032
 O33 O 0.65703 0.30035 0.96996
 O34 O 0.69945 0.34160 1.02812
 O35 O 0.65643 0.29960 1.02726
 O36 O 0.69963 0.34219 0.97049
 Cu37 Cu 0.63907 0.36105 0.99932
 Cu38 Cu 0.68174 0.31733 0.99900
 C39 C 0.68898 0.36735 0.96050
 C40 C 0.63162 0.31080 1.03750
 C41 C 0.68921 0.36699 1.03806
 C42 C 0.63185 0.31123 0.96031
 O43 O 0.33550 0.62245 0.97255
 O44 O 0.37799 0.66464 1.03044
 O45 O 0.33583 0.62241 1.03073
 O46 O 0.37780 0.66445 0.97234
 O47 O 0.34215 0.70073 0.97290
 O48 O 0.29966 0.65814 1.03035
 O49 O 0.34226 0.70086 1.03012
 O50 O 0.29939 0.65829 0.97309
 Cu51 Cu 0.36038 0.63985 1.00152
 Cu52 Cu 0.31726 0.68311 1.00165
 C53 C 0.31011 0.63313 0.96317
 C54 C 0.36747 0.69010 1.03986
 C55 C 0.31041 0.63296 1.04027
 C56 C 0.36723 0.68988 0.96292
 O57 O 0.02985 0.33893 0.37750
 O58 O -0.03232 0.37592 0.33472
 O59 O -0.03040 0.33625 0.37747
 O60 O 0.02711 0.37922 0.33407
 O61 O 0.03135 0.34006 0.30306
 O62 O -0.02910 0.29891 0.34425
 O63 O -0.02838 0.33941 0.30078
 O64 O 0.02988 0.29997 0.34599
 Cu65 Cu -0.00150 0.36134 0.35932
 Cu66 Cu 0.00105 0.31584 0.32016
 C67 C 0.03985 0.31277 0.36937
 C68 C -0.04038 0.36424 0.31011
 C69 C -0.03965 0.31026 0.36819
 C70 C 0.03900 0.36693 0.31120
 O71 O 0.02931 0.66251 0.62253
 O72 O -0.03084 0.62168 0.66465
 O73 O -0.03086 0.66257 0.62240
 O74 O 0.02929 0.62168 0.66492
 O75 O 0.02875 0.65879 0.69842
 O76 O -0.03065 0.69974 0.65581
 O77 O -0.03080 0.65886 0.69810
 O78 O 0.02894 0.69960 0.65606
 Cu79 Cu -0.00074 0.63836 0.64025
 Cu80 Cu -0.00095 0.68297 0.68043
 C81 C 0.03928 0.68806 0.63217
 C82 C -0.04096 0.63335 0.68860
 C83 C -0.04094 0.68822 0.63189
 C84 C 0.03913 0.63328 0.68900
 O85 O 0.96899 0.65964 0.37844
 O86 O 1.03038 0.61987 0.33675
 O87 O 1.02921 0.66044 0.37906
 O88 O 0.97025 0.61902 0.33581
 O89 O 0.97045 0.65641 0.30260
 O90 O 1.02825 0.69822 0.34628
 O91 O 1.03026 0.65758 0.30386
 O92 O 0.96934 0.69721 0.34538
 Cu93 Cu 0.99965 0.63595 0.36085
 Cu94 Cu 0.99949 0.68099 0.32109
 C95 C 0.95911 0.68542 0.36916
 C96 C 1.04081 0.63212 0.31323
 C97 C 1.03856 0.68654 0.37014
 C98 C 0.96049 0.63064 0.31171
 O99 O 0.97151 0.33775 0.62284
 O100 O 1.03081 0.38001 0.66477
 O101 O 1.03163 0.33850 0.62319
 O102 O 0.97063 0.37953 0.66430
 O103 O 0.97146 0.34340 0.69881
 O104 O 1.03160 0.30208 0.65736
 O105 O 1.03041 0.34376 0.69918
 O106 O 0.97181 0.30144 0.65716
 Cu107 Cu 1.00111 0.36260 0.64031
 Cu108 Cu 1.00133 0.31891 0.68145
 C109 C 0.96166 0.31232 0.63291
 C110 C 1.04038 0.36917 0.68929
 C111 C 1.04197 0.31322 0.63327
 C112 C 0.96103 0.36863 0.68876
 O113 O 0.37903 0.02838 0.33489
 O114 O 0.33607 -0.02984 0.37747
 O115 O 0.37719 -0.03109 0.33568
 O116 O 0.33784 0.03051 0.37755
 O117 O 0.30022 0.03042 0.34462
 O118 O 0.34099 -0.02871 0.30134
 O119 O 0.29962 -0.02924 0.34333
 O120 O 0.34096 0.03110 0.30252
 Cu121 Cu 0.36118 -0.00050 0.35990
 Cu122 Cu 0.31673 0.00097 0.31960
 C123 C 0.36727 0.03958 0.31144
 C124 C 0.31067 -0.03969 0.36739
 C125 C 0.36596 -0.04002 0.31114
 C126 C 0.31216 0.04071 0.36832
 O127 O 0.66200 -0.03020 0.62333
 O128 O 0.62169 0.03056 0.66511
 O129 O 0.66291 0.02996 0.62330
 O130 O 0.62108 -0.02962 0.66536
 O131 O 0.65777 -0.02954 0.69930
 O132 O 0.69998 0.02901 0.65683
 O133 O 0.65836 0.02966 0.69906
 O134 O 0.69912 -0.03020 0.65684
 Cu135 Cu 0.63820 0.00023 0.64088
 Cu136 Cu 0.68251 -0.00031 0.68139
 C137 C 0.68760 -0.04025 0.63284
 C138 C 0.63301 0.04014 0.68938
 C139 C 0.68875 0.03930 0.63279
 C140 C 0.63221 -0.03941 0.68967
 O141 O 0.37863 0.96810 0.66411
 O142 O 0.33881 1.02876 0.62163
 O143 O 0.37906 1.02818 0.66426
 O144 O 0.33843 0.96855 0.62129
 O145 O 0.30055 0.96933 0.65400
 O146 O 0.34142 1.02819 0.69721
 O147 O 0.30094 1.02835 0.65438
 O148 O 0.34095 0.96843 0.69702
 Cu149 Cu 0.36254 0.99835 0.63950
 Cu150 Cu 0.31727 0.99856 0.67905
 C151 C 0.36658 0.95809 0.68789
 C152 C 0.31294 1.03860 0.63069
 C153 C 0.36713 1.03826 0.68810
 C154 C 0.31238 0.95913 0.63019
 O155 O 0.66289 1.03118 0.37912
 O156 O 0.62049 0.97248 0.33632
 O157 O 0.66163 0.97102 0.37839
 O158 O 0.62119 1.03275 0.33759
 O159 O 0.65842 1.03309 0.30420
 O160 O 0.69782 0.97056 0.34397
 O161 O 0.65653 0.97378 0.30175
 O162 O 0.69990 1.03013 0.34556
 Cu163 Cu 0.63784 1.00183 0.36127
 Cu164 Cu 0.68185 1.00180 0.32051
 C165 C 0.68877 1.04051 0.36963
 C166 C 0.63118 0.96353 0.31152
 C167 C 0.68666 0.96035 0.36808
 C168 C 0.63305 1.04345 0.31397
 C169 C 0.80750 0.80813 0.51527
 C170 C 0.80785 0.80749 0.48507
 C171 C 0.83035 0.78824 0.46888
 C172 C 0.78864 0.82869 0.46683
 C173 C 0.78850 0.83082 0.53148
 C174 C 0.82883 0.78901 0.53347
 C175 C 0.86119 0.79737 0.46710
 C176 C 0.88220 0.77993 0.45075
 C177 C 0.87283 0.75268 0.43676
 C178 C 0.84210 0.74319 0.43913
 C179 C 0.82083 0.76122 0.45464
 C180 C 0.80274 0.84767 0.44562
 C181 C 0.78533 0.86821 0.42872
 C182 C 0.75337 0.87043 0.43273
 C183 C 0.73912 0.85111 0.45365
 C184 C 0.75656 0.83018 0.47029
 C185 C 0.76165 0.82144 0.54609
 C186 C 0.74408 0.84276 0.56201
 C187 C 0.75387 0.87340 0.56443
 C188 C 0.78093 0.88266 0.55002
 C189 C 0.79789 0.86160 0.53325
 C190 C 0.83030 0.75689 0.53018
 C191 C 0.85143 0.73955 0.54666
 C192 C 0.87090 0.75393 0.56733
 C193 C 0.86869 0.78592 0.57122
 C194 C 0.84800 0.80324 0.55442
 H195 H 0.86878 0.81825 0.47794
 H196 H 0.90584 0.78757 0.44922
 H197 H 0.83443 0.72233 0.42830
 H198 H 0.79704 0.75403 0.45581
 H199 H 0.82740 0.84704 0.44243
 H200 H 0.79707 0.88278 0.41287
 H201 H 0.74500 0.81517 0.48584
 H202 H 0.75427 0.79769 0.54497
 H203 H 0.72335 0.83519 0.57312
 H204 H 0.78877 0.90623 0.55155
 H205 H 0.81867 0.86907 0.52215
 H206 H 0.81513 0.74522 0.51486
 H207 H 0.85232 0.71488 0.54344
 H208 H 0.88339 0.79773 0.58689
 H209 H 0.84741 0.82792 0.55748
 H210 H 0.71448 0.85201 0.45702
 C211 C 0.19355 0.19337 0.51664
 C212 C 0.19281 0.19422 0.48644
 C213 C 0.16989 0.21331 0.47063
 C214 C 0.21174 0.17301 0.46793
 C215 C 0.21246 0.17024 0.53235
 C216 C 0.17261 0.21252 0.53526
 C217 C 0.13903 0.20413 0.46971
 C218 C 0.11762 0.22122 0.45352
 C219 C 0.12662 0.24819 0.43879
 C220 C 0.15737 0.25780 0.44037
 C221 C 0.17902 0.24011 0.45575
 C222 C 0.19729 0.15381 0.44714
 C223 C 0.21441 0.13300 0.43028
 C224 C 0.24643 0.13071 0.43389
 C225 C 0.26102 0.15028 0.45435
 C226 C 0.24387 0.17147 0.47096
 C227 C 0.23965 0.17901 0.54670
 C228 C 0.25727 0.15714 0.56186
 C229 C 0.24721 0.12654 0.56373
 C230 C 0.21982 0.11790 0.54957
 C231 C 0.20279 0.13952 0.53359
 C232 C 0.17087 0.24460 0.53175
 C233 C 0.14992 0.26194 0.54845
 C234 C 0.13090 0.24761 0.56956
 C235 C 0.13348 0.21570 0.57377
 C236 C 0.15398 0.19837 0.55675
 H237 H 0.13174 0.18341 0.48103
 H238 H 0.09399 0.21347 0.45259
 H239 H 0.16476 0.27843 0.42895
 H240 H 0.20283 0.24734 0.45624
 H241 H 0.17259 0.15446 0.44430
 H242 H 0.20240 0.11827 0.41477
 H243 H 0.25566 0.18660 0.48624
 H244 H 0.24726 0.20271 0.54595
 H245 H 0.27824 0.16424 0.57282
 H246 H 0.21175 0.09438 0.55071
 H247 H 0.18177 0.13252 0.52264
 H248 H 0.18564 0.25623 0.51604
 H249 H 0.14876 0.28656 0.54498
 H250 H 0.11913 0.20393 0.58979
 H251 H 0.15480 0.17372 0.56003
 H252 H 0.28570 0.14935 0.45740
 C253 C 0.18946 0.80770 0.48356
 C254 C 0.19050 0.80853 0.51373
 C255 C 0.16961 0.78958 0.53233
 C256 C 0.20985 0.83120 0.52950
 C257 C 0.20848 0.82859 0.46497
 C258 C 0.16663 0.78846 0.46788
 C259 C 0.15007 0.80402 0.55285
 C260 C 0.12963 0.78677 0.56991
 C261 C 0.12813 0.75466 0.56669
 C262 C 0.14806 0.74010 0.54649
 C263 C 0.16887 0.75740 0.52971
 C264 C 0.20056 0.86204 0.53133
 C265 C 0.21790 0.88310 0.54764
 C266 C 0.24525 0.87378 0.56157
 C267 C 0.25495 0.84307 0.55906
 C268 C 0.23702 0.82176 0.54359
 C269 C 0.24062 0.82946 0.46784
 C270 C 0.25796 0.85047 0.45135
 C271 C 0.24351 0.87050 0.43116
 C272 C 0.21147 0.86880 0.42760
 C273 C 0.19416 0.84815 0.44437
 C274 C 0.17571 0.76081 0.45441
 C275 C 0.15418 0.74281 0.43930
 C276 C 0.12367 0.75292 0.43657
 C277 C 0.11469 0.78074 0.44976
 C278 C 0.13594 0.79817 0.46575
 H279 H 0.15017 0.82878 0.55534
 H280 H 0.11457 0.79871 0.58522
 H281 H 0.14771 0.71536 0.54377
 H282 H 0.18434 0.74567 0.51465
 H283 H 0.17956 0.86958 0.52062
 H284 H 0.21009 0.90671 0.54925
 H285 H 0.24435 0.79797 0.54242
 H286 H 0.25228 0.81399 0.48296
 H287 H 0.28266 0.85095 0.45432
 H288 H 0.19962 0.88390 0.41227
 H289 H 0.16944 0.84796 0.44167
 H290 H 0.19937 0.75314 0.45583
 H291 H 0.16147 0.72147 0.42905
 H292 H 0.09121 0.78883 0.44781
 H293 H 0.12868 0.81952 0.47601
 H294 H 0.27588 0.83541 0.56982
 C295 C 0.81253 0.18881 0.48542
 C296 C 0.81220 0.18834 0.51562
 C297 C 0.83330 0.20770 0.53360
 C298 C 0.79299 0.16604 0.53209
 C299 C 0.79299 0.16781 0.46748
 C300 C 0.83481 0.20800 0.46893
 C301 C 0.85299 0.19375 0.55430
 C302 C 0.87327 0.21143 0.57112
 C303 C 0.87446 0.24351 0.56749
 C304 C 0.85446 0.25757 0.54703
 C305 C 0.83382 0.23985 0.53049
 C306 C 0.80213 0.13518 0.53431
 C307 C 0.78472 0.11445 0.55098
 C308 C 0.75745 0.12411 0.56487
 C309 C 0.74800 0.15487 0.56209
 C310 C 0.76601 0.17586 0.54628
 C311 C 0.76090 0.16712 0.47101
 C312 C 0.74307 0.14634 0.45473
 C313 C 0.75694 0.12646 0.43405
 C314 C 0.78892 0.12788 0.42993
 C315 C 0.80674 0.14824 0.44653
 C316 C 0.82511 0.23529 0.45519
 C317 C 0.84601 0.25313 0.43909
 C318 C 0.87649 0.24318 0.43560
 C319 C 0.88609 0.21568 0.44902
 C320 C 0.86549 0.19843 0.46600
 H321 H 0.85303 0.16903 0.55719
 H322 H 0.88838 0.19986 0.58663
 H323 H 0.85457 0.28228 0.54399
 H324 H 0.81821 0.25124 0.51534
 H325 H 0.82300 0.12735 0.52354
 H326 H 0.79234 0.09079 0.55279
 H327 H 0.75880 0.19967 0.54483
 H328 H 0.74964 0.18265 0.48634
 H329 H 0.71842 0.14606 0.45811
 H330 H 0.80033 0.11284 0.41423
 H331 H 0.83139 0.14829 0.44330
 H332 H 0.80145 0.24283 0.45716
 H333 H 0.83825 0.27425 0.42874
 H334 H 0.90958 0.20775 0.44655
 H335 H 0.87322 0.17732 0.47639
 H336 H 0.72714 0.16280 0.57280
 C337 C 0.51548 0.81166 0.81320
 C338 C 0.48422 0.81081 0.81365
 C339 C 0.46529 0.83077 0.79404
 C340 C 0.46752 0.79222 0.83593
 C341 C 0.53439 0.79280 0.83382
 C342 C 0.53213 0.83380 0.79415
 C343 C 0.44345 0.85074 0.80655
 C344 C 0.42620 0.87039 0.78855
 C345 C 0.43058 0.87064 0.75764
 C346 C 0.45198 0.85018 0.74504
 C347 C 0.46889 0.83015 0.76306
 C348 C 0.46509 0.80251 0.86534
 C349 C 0.44833 0.78556 0.88612
 C350 C 0.43458 0.75762 0.87795
 C351 C 0.43753 0.74706 0.84863
 C352 C 0.45340 0.76458 0.82760
 C353 C 0.53131 0.76067 0.83493
 C354 C 0.54828 0.74339 0.85538
 C355 C 0.56920 0.75786 0.87460
 C356 C 0.57299 0.78989 0.87273
 C357 C 0.55571 0.80716 0.85262
 C358 C 0.54655 0.82377 0.76803
 C359 C 0.56232 0.84470 0.75005
 C360 C 0.56488 0.87562 0.75864
 C361 C 0.55085 0.88549 0.78506
 C362 C 0.53416 0.86481 0.80246
 H363 H 0.44014 0.85161 0.83035
 H364 H 0.40993 0.88588 0.79896
 H365 H 0.45555 0.84954 0.72126
 H366 H 0.48485 0.81424 0.75282
 H367 H 0.47581 0.82389 0.87202
 H368 H 0.44641 0.79403 0.90865
 H369 H 0.45500 0.75647 0.80491
 H370 H 0.51573 0.74897 0.82002
 H371 H 0.54514 0.71870 0.85600
 H372 H 0.58889 0.80174 0.88723
 H373 H 0.55860 0.83188 0.85216
 H374 H 0.54525 0.79984 0.76146
 H375 H 0.57316 0.83663 0.72984
 H376 H 0.55251 0.90928 0.79200
 H377 H 0.52320 0.87281 0.82264
 H378 H 0.42693 0.72566 0.84187
 C379 C 0.51568 0.19003 0.18748
 C380 C 0.48439 0.18758 0.18663
 C381 C 0.46714 0.16534 0.20547
 C382 C 0.46583 0.20631 0.16548
 C383 C 0.53214 0.20874 0.16510
 C384 C 0.53524 0.17192 0.20830
 C385 C 0.47606 0.13429 0.20749
 C386 C 0.45995 0.11399 0.22580
 C387 C 0.43371 0.12398 0.24116
 C388 C 0.42388 0.15456 0.23808
 C389 C 0.44063 0.17513 0.22063
 C390 C 0.44552 0.19169 0.14585
 C391 C 0.42820 0.20888 0.12565
 C392 C 0.43098 0.24108 0.12454
 C393 C 0.45098 0.25574 0.14453
 C394 C 0.46792 0.23854 0.16506
 C395 C 0.54594 0.23660 0.17324
 C396 C 0.56157 0.25414 0.15206
 C397 C 0.56458 0.24338 0.12282
 C398 C 0.55116 0.21524 0.11485
 C399 C 0.53465 0.19824 0.13576
 C400 C 0.52910 0.17081 0.23894
 C401 C 0.54616 0.15133 0.25749
 C402 C 0.57019 0.13327 0.24586
 C403 C 0.57725 0.13571 0.21551
 C404 C 0.55995 0.15471 0.19698
 H405 H 0.49557 0.12575 0.19503
 H406 H 0.46754 0.09031 0.22744
 H407 H 0.40359 0.16266 0.24966
 H408 H 0.43299 0.19881 0.21906
 H409 H 0.44336 0.16687 0.14595
 H410 H 0.41301 0.19689 0.11056
 H411 H 0.48267 0.25040 0.18064
 H412 H 0.54427 0.24485 0.19587
 H413 H 0.57195 0.27570 0.15866
 H414 H 0.55315 0.20660 0.09238
 H415 H 0.52423 0.17666 0.12926
 H416 H 0.51061 0.18439 0.24833
 H417 H 0.54039 0.15022 0.28085
 H418 H 0.59559 0.12219 0.20578
 H419 H 0.56534 0.15513 0.17352
 H420 H 0.45331 0.28053 0.14451
 C421 C 0.48300 0.18823 0.81237
 C422 C 0.51427 0.18838 0.81200
 C423 C 0.53168 0.16659 0.79321
 C424 C 0.53249 0.20767 0.83280
 C425 C 0.46575 0.20650 0.83449
 C426 C 0.46473 0.16742 0.79301
 C427 C 0.53438 0.13566 0.80164
 C428 C 0.55168 0.11528 0.78443
 C429 C 0.56566 0.12537 0.75810
 C430 C 0.56249 0.15622 0.74940
 C431 C 0.54609 0.17687 0.76720
 C432 C 0.55396 0.19370 0.85178
 C433 C 0.57073 0.21127 0.87197
 C434 C 0.56630 0.24325 0.87380
 C435 C 0.54512 0.25734 0.85450
 C436 C 0.52865 0.23975 0.83395
 C437 C 0.45112 0.23389 0.82604
 C438 C 0.43512 0.25135 0.84705
 C439 C 0.43260 0.24095 0.87645
 C440 C 0.44679 0.21322 0.88472
 C441 C 0.46367 0.19633 0.86396
 C442 C 0.46845 0.16748 0.76202
 C443 C 0.45200 0.14684 0.74430
 C444 C 0.43093 0.12629 0.75717
 C445 C 0.42651 0.12701 0.78806
 C446 C 0.44329 0.14726 0.80577
 H447 H 0.52342 0.12750 0.82174
 H448 H 0.55378 0.09152 0.79141
 H449 H 0.57326 0.16443 0.72923
 H450 H 0.54425 0.20074 0.76055
 H451 H 0.55741 0.16904 0.85136
 H452 H 0.58680 0.19967 0.88654
 H453 H 0.51290 0.25116 0.81894
 H454 H 0.45251 0.24190 0.80331
 H455 H 0.42417 0.27260 0.84024
 H456 H 0.44518 0.20489 0.90733
 H457 H 0.47484 0.17517 0.87071
 H458 H 0.48409 0.18348 0.75155
 H459 H 0.45562 0.14713 0.72051
 H460 H 0.41050 0.11146 0.79869
 H461 H 0.43989 0.14676 0.82957
 H462 H 0.54147 0.28198 0.85511
 C463 C 0.48572 0.81310 0.18628
 C464 C 0.51700 0.81390 0.18664
 C465 C 0.53358 0.83617 0.20557
 C466 C 0.53590 0.79475 0.16618
 C467 C 0.46896 0.79414 0.16439
 C468 C 0.46679 0.83337 0.20564
 C469 C 0.53569 0.86711 0.19702
 C470 C 0.55183 0.88803 0.21462
 C471 C 0.56522 0.87847 0.24145
 C472 C 0.56266 0.84759 0.25020
 C473 C 0.54744 0.82643 0.23206
 C474 C 0.55731 0.80884 0.14726
 C475 C 0.57453 0.79131 0.12725
 C476 C 0.57060 0.75927 0.12560
 C477 C 0.54961 0.74508 0.14499
 C478 C 0.53272 0.76262 0.16532
 C479 C 0.45488 0.76666 0.17327
 C480 C 0.43888 0.74879 0.15264
 C481 C 0.43577 0.75886 0.12318
 C482 C 0.44948 0.78663 0.11446
 C483 C 0.46638 0.80394 0.13484
 C484 C 0.46994 0.83276 0.23666
 C485 C 0.45274 0.85278 0.25447
 C486 C 0.43152 0.87327 0.24162
 C487 C 0.42770 0.87311 0.21064
 C488 C 0.44521 0.85344 0.19286
 H489 H 0.52511 0.87489 0.17658
 H490 H 0.55350 0.91178 0.20753
 H491 H 0.57303 0.83974 0.27072
 H492 H 0.54602 0.80257 0.23884
 H493 H 0.56033 0.83355 0.14752
 H494 H 0.59048 0.80297 0.11264
 H495 H 0.51710 0.75110 0.18034
 H496 H 0.45660 0.75895 0.19608
 H497 H 0.42830 0.72752 0.15981
 H498 H 0.44741 0.79473 0.09180
 H499 H 0.47706 0.82519 0.12776
 H500 H 0.48571 0.81680 0.24710
 H501 H 0.45593 0.85207 0.27830
 H502 H 0.41160 0.88862 0.20002
 H503 H 0.44224 0.85429 0.16901
 H504 H 0.54636 0.72040 0.14456
 C505 C 0.80961 0.51618 0.81194
 C506 C 0.81033 0.48489 0.81127
 C507 C 0.79142 0.46604 0.83182
 C508 C 0.83264 0.46822 0.79234
 C509 C 0.82989 0.53508 0.79267
 C510 C 0.79104 0.53282 0.83435
 C511 C 0.80576 0.44486 0.85084
 C512 C 0.78847 0.42788 0.87113
 C513 C 0.75645 0.43185 0.87295
 C514 C 0.74200 0.45259 0.85346
 C515 C 0.75930 0.46925 0.83284
 C516 C 0.86357 0.46611 0.80088
 C517 C 0.88445 0.44949 0.78357
 C518 C 0.87486 0.43558 0.75703
 C519 C 0.84402 0.43821 0.74820
 C520 C 0.82289 0.45393 0.76609
 C521 C 0.82967 0.53166 0.76166
 C522 C 0.85013 0.54839 0.74399
 C523 C 0.87061 0.56942 0.75697
 C524 C 0.86995 0.57363 0.78789
 C525 C 0.84988 0.55657 0.80554
 C526 C 0.76330 0.54697 0.82619
 C527 C 0.74580 0.56272 0.84738
 C528 C 0.75650 0.56546 0.87663
 C529 C 0.78448 0.55171 0.88466
 C530 C 0.80142 0.53505 0.86375
 H531 H 0.83047 0.44189 0.85048
 H532 H 0.80032 0.41211 0.88583
 H533 H 0.71732 0.45585 0.85404
 H534 H 0.74764 0.48477 0.81777
 H535 H 0.87136 0.47699 0.82116
 H536 H 0.90817 0.44779 0.79070
 H537 H 0.79903 0.45530 0.75933
 H538 H 0.81379 0.51595 0.75114
 H539 H 0.84981 0.54496 0.72018
 H540 H 0.88545 0.58963 0.79858
 H541 H 0.85048 0.55973 0.82937
 H542 H 0.75511 0.54549 0.80353
 H543 H 0.72431 0.57337 0.84084
 H544 H 0.79301 0.55363 0.90717
 H545 H 0.82286 0.52429 0.87029
 H546 H 0.83617 0.42747 0.72789
 C547 C 0.18837 0.51669 0.18664
 C548 C 0.18573 0.48541 0.18570
 C549 C 0.20436 0.46695 0.16448
 C550 C 0.16358 0.46802 0.20458
 C551 C 0.17025 0.53620 0.20741
 C552 C 0.20755 0.53321 0.16463
 C553 C 0.18964 0.44734 0.14429
 C554 C 0.20679 0.43011 0.12400
 C555 C 0.23903 0.43232 0.12341
 C556 C 0.25377 0.45160 0.14398
 C557 C 0.23660 0.46844 0.16458
 C558 C 0.13255 0.47691 0.20694
 C559 C 0.11237 0.46054 0.22520
 C560 C 0.12244 0.43408 0.24020
 C561 C 0.15299 0.42433 0.23681
 C562 C 0.17344 0.44131 0.21940
 C563 C 0.16924 0.53006 0.23804
 C564 C 0.14963 0.54695 0.25658
 C565 C 0.13135 0.57080 0.24492
 C566 C 0.13376 0.57793 0.21460
 C567 C 0.15290 0.56080 0.19608
 C568 C 0.23583 0.54594 0.17311
 C569 C 0.25375 0.56181 0.15238
 C570 C 0.24295 0.56618 0.12334
 C571 C 0.21445 0.55387 0.11501
 C572 C 0.19707 0.53705 0.13541
 H573 H 0.16479 0.44566 0.14403
 H574 H 0.19476 0.41545 0.10845
 H575 H 0.27859 0.45345 0.14436
 H576 H 0.24847 0.48264 0.18062
 H577 H 0.12392 0.49657 0.19475
 H578 H 0.08872 0.46813 0.22707
 H579 H 0.19709 0.43367 0.21761
 H580 H 0.18295 0.51165 0.24742
 H581 H 0.14856 0.54116 0.27994
 H582 H 0.12007 0.59616 0.20487
 H583 H 0.15327 0.56616 0.17262
 H584 H 0.24408 0.54326 0.19564
 H585 H 0.27564 0.57132 0.15916
 H586 H 0.20584 0.55704 0.09266
 H587 H 0.17519 0.52748 0.12865
 H588 H 0.16120 0.40392 0.24812
 C589 C 0.81294 0.48208 0.18513
 C590 C 0.81330 0.51338 0.18517
 C591 C 0.79499 0.53106 0.16340
 C592 C 0.83413 0.53134 0.20483
 C593 C 0.83439 0.46427 0.20393
 C594 C 0.79342 0.46414 0.16426
 C595 C 0.80472 0.53317 0.13380
 C596 C 0.78767 0.55030 0.11336
 C597 C 0.76022 0.56473 0.12209
 C598 C 0.75031 0.56225 0.15165
 C599 C 0.76794 0.54601 0.17234
 C600 C 0.85418 0.55308 0.19239
 C601 C 0.87415 0.56992 0.21038
 C602 C 0.87466 0.56528 0.24126
 C603 C 0.85430 0.54380 0.25379
 C604 C 0.83396 0.52728 0.23578
 C605 C 0.82365 0.44956 0.22959
 C606 C 0.84395 0.43287 0.24749
 C607 C 0.87491 0.42970 0.23922
 C608 C 0.88544 0.44389 0.21315
 C609 C 0.86539 0.46147 0.19584
 C610 C 0.76144 0.46860 0.16291
 C611 C 0.74365 0.45230 0.14239
 C612 C 0.75739 0.43060 0.12340
 C613 C 0.78922 0.42547 0.12546
 C614 C 0.80703 0.44214 0.14557
 H615 H 0.82564 0.52179 0.12668
 H616 H 0.79563 0.55190 0.09062
 H617 H 0.72929 0.57340 0.15882
 H618 H 0.76028 0.54461 0.19518
 H619 H 0.85475 0.55677 0.16863
 H620 H 0.88955 0.58623 0.20000
 H621 H 0.81803 0.51142 0.24603
 H622 H 0.79970 0.45146 0.23595
 H623 H 0.83539 0.42197 0.26747
 H624 H 0.90929 0.44183 0.20651
 H625 H 0.87389 0.47262 0.17597
 H626 H 0.75022 0.48465 0.17777
 H627 H 0.71910 0.45645 0.14160
 H628 H 0.80052 0.40896 0.11112
 H629 H 0.83159 0.43815 0.14618
 H630 H 0.85385 0.53999 0.27754
 C631 C 0.18849 0.48569 0.81340
 C632 C 0.18890 0.51700 0.81378
 C633 C 0.20729 0.53394 0.83599
 C634 C 0.16846 0.53566 0.79429
 C635 C 0.16656 0.46888 0.79433
 C636 C 0.20742 0.46687 0.83414
 C637 C 0.19720 0.53594 0.86550
 C638 C 0.21419 0.55259 0.88631
 C639 C 0.24193 0.56663 0.87806
 C640 C 0.25223 0.56422 0.84861
 C641 C 0.23467 0.54848 0.82755
 C642 C 0.14815 0.55708 0.80697
 C643 C 0.12794 0.57391 0.78916
 C644 C 0.12743 0.56955 0.75824
 C645 C 0.14821 0.54857 0.74546
 C646 C 0.16881 0.53209 0.76329
 C647 C 0.17675 0.45455 0.76823
 C648 C 0.15593 0.43890 0.75008
 C649 C 0.12496 0.43641 0.75850
 C650 C 0.11494 0.45033 0.78490
 C651 C 0.13552 0.46688 0.80248
 C652 C 0.23944 0.47060 0.83596
 C653 C 0.25668 0.45348 0.85637
 C654 C 0.24233 0.43168 0.87477
 C655 C 0.21045 0.42725 0.87219
 C656 C 0.19320 0.44473 0.85220
 H657 H 0.17602 0.52489 0.87224
 H658 H 0.20592 0.55413 0.90895
 H659 H 0.27348 0.57508 0.84180
 H660 H 0.24261 0.54719 0.80479
 H661 H 0.14744 0.56037 0.83078
 H662 H 0.11223 0.58986 0.79973
 H663 H 0.18492 0.51644 0.75289
 H664 H 0.20070 0.45589 0.76178
 H665 H 0.16409 0.42813 0.72987
 H666 H 0.09111 0.44870 0.79171
 H667 H 0.12741 0.47781 0.82264
 H668 H 0.25113 0.48672 0.82158
 H669 H 0.28127 0.45710 0.85754
 H670 H 0.19869 0.41069 0.88607
 H671 H 0.16859 0.44127 0.85123
 H672 H 0.14868 0.54501 0.72167
 N673 N 0.30249 0.40736 0.07439
 C674 C 0.28989 0.38290 0.06021
 N675 N 0.26067 0.37457 0.06698
 N676 N 0.24456 0.39024 0.08709
 C677 C 0.25710 0.41472 0.10135
 N678 N 0.28643 0.42291 0.09465
 N679 N 0.69495 0.59608 0.07951
 C680 C 0.70931 0.61527 0.06023
 N681 N 0.74036 0.61785 0.06142
 N682 N 0.75656 0.60161 0.08103
 C683 C 0.74223 0.58257 0.10046
 N684 N 0.71111 0.58019 0.09946
 N685 N 0.69380 0.40881 0.92375
 C686 C 0.70617 0.38394 0.93754
 N687 N 0.73488 0.37465 0.92983
 N688 N 0.75074 0.38980 0.90923
 C689 C 0.73845 0.41471 0.89537
 N690 N 0.70962 0.42387 0.90300
 N691 N 0.26159 0.61915 0.93926
 C692 C 0.29260 0.61605 0.94084
 N693 N 0.30698 0.59668 0.92167
 N694 N 0.29089 0.58115 0.90146
 C695 C 0.25983 0.58405 0.90006
 N696 N 0.24547 0.60325 0.91938
 N697 N 0.08240 0.31188 0.40533
 C698 C 0.06265 0.29645 0.38739
 N699 N 0.06403 0.26529 0.38649
 N700 N 0.08426 0.25002 0.40306
 C701 C 0.10418 0.26536 0.42083
 N702 N 0.10301 0.29659 0.42158
 N703 N 0.07682 0.69195 0.59151
 C704 C 0.06284 0.70482 0.61545
 N705 N 0.07069 0.73381 0.62355
 N706 N 0.09157 0.74947 0.60816
 C707 C 0.10558 0.73673 0.58416
 N708 N 0.09785 0.70760 0.57620
 N709 N 0.91657 0.68777 0.40505
 C710 C 0.93618 0.70247 0.38640
 N711 N 0.93478 0.73357 0.38432
 N712 N 0.91467 0.74949 0.40048
 C713 C 0.89493 0.73485 0.41901
 N714 N 0.89610 0.70368 0.42090
 N715 N 0.93097 0.26597 0.62465
 C716 C 0.93851 0.29495 0.61622
 N717 N 0.92468 0.30724 0.59193
 N718 N 0.90407 0.29107 0.57661
 C719 C 0.89664 0.26195 0.58490
 N720 N 0.91051 0.24978 0.60924
 N721 N 0.41568 0.06250 0.29468
 C722 C 0.38449 0.06220 0.29405
 N723 N 0.36952 0.08240 0.27616
 N724 N 0.38519 0.10237 0.25963
 C725 C 0.41640 0.10246 0.26000
 N726 N 0.43137 0.08214 0.27779
 N727 N 0.61980 0.06407 0.73683
 C728 C 0.61624 0.06302 0.70692
 N729 N 0.59618 0.08274 0.69379
 N730 N 0.58039 0.10297 0.71002
 C731 C 0.58371 0.10377 0.73999
 N732 N 0.60366 0.08393 0.75310
 N733 N 0.40824 0.92052 0.69474
 C734 C 0.38264 0.93461 0.70542
 N735 N 0.37252 0.92721 0.73300
 N736 N 0.38761 0.90669 0.74943
 C737 C 0.41328 0.89259 0.73887
 N738 N 0.42322 0.89983 0.71113
 N739 N 0.61746 0.94089 0.26362
 C740 C 0.61397 0.94135 0.29356
 N741 N 0.59436 0.92105 0.30641
 N742 N 0.57898 0.90084 0.28986
 C743 C 0.58230 0.90056 0.25987
 N744 N 0.60173 0.92103 0.24706
 N745 N 0.37981 0.26026 0.93757
 C746 C 0.38255 0.29130 0.93912
 N747 N 0.40175 0.30581 0.91996
 N748 N 0.41750 0.28982 0.89978
 C749 C 0.41496 0.25873 0.89840
 N750 N 0.39591 0.24423 0.91772
 N751 N 0.59304 0.69519 0.92512
 C752 C 0.61815 0.70745 0.93849
 N753 N 0.62736 0.73610 0.93057
 N754 N 0.61189 0.75201 0.91018
 C755 C 0.58673 0.73983 0.89676
 N756 N 0.57767 0.71105 0.90459
 N757 N 0.40465 0.69345 0.08073
 C758 C 0.38488 0.70771 0.06187
 N759 N 0.38188 0.73875 0.06328
 N760 N 0.39823 0.75502 0.08269
 C761 C 0.41785 0.74078 0.10170
 N762 N 0.42065 0.70969 0.10048
 N763 N 0.61718 0.26245 0.06150
 C764 C 0.61436 0.29349 0.05985
 N765 N 0.59516 0.30810 0.07901
 N766 N 0.57950 0.29220 0.09928
 C767 C 0.58211 0.26110 0.10075
 N768 N 0.60116 0.24652 0.08144
 N769 N 0.31128 0.08150 0.59523
 C770 C 0.29620 0.06171 0.61341
 N771 N 0.26511 0.06334 0.61519
 N772 N 0.24957 0.08387 0.59919
 C773 C 0.26459 0.10382 0.58115
 N774 N 0.29575 0.10239 0.57955
 N775 N 0.69375 0.07497 0.41084
 C776 C 0.70535 0.06224 0.38565
 N777 N 0.73369 0.07099 0.37631
 N778 N 0.74992 0.09146 0.39166
 C779 C 0.73842 0.10421 0.41685
 N780 N 0.70994 0.09563 0.42609
 N781 N 0.68961 0.91739 0.59687
 C782 C 0.70453 0.93677 0.61557
 N783 N 0.73562 0.93515 0.61746
 N784 N 0.75130 0.91504 0.60105
 C785 C 0.73641 0.89553 0.58248
 N786 N 0.70526 0.89692 0.58080
 N787 N 0.26479 0.92880 0.37522
 C788 C 0.29363 0.93665 0.38374
 N789 N 0.30624 0.92242 0.40766
 N790 N 0.29049 0.90114 0.42255
 C791 C 0.26151 0.89339 0.41417
 N792 N 0.24901 0.90767 0.39020
 N793 N 0.08257 0.40636 0.69389
 C794 C 0.06274 0.38642 0.70693
 N795 N 0.06354 0.38293 0.73685
 N796 N 0.08326 0.39900 0.75323
 C797 C 0.10324 0.41879 0.74024
 N798 N 0.10267 0.42208 0.71025
 N799 N 0.07421 0.62816 0.26972
 C800 C 0.06514 0.61666 0.29629
 N801 N 0.07853 0.59047 0.30649
 N802 N 0.10006 0.57618 0.29050
 C803 C 0.10894 0.58751 0.26372
 N804 N 0.09560 0.61383 0.25373
 N805 N 0.93687 0.37689 0.26193
 C806 C 0.93671 0.38014 0.29189
 N807 N 0.91591 0.39944 0.30453
 N808 N 0.89585 0.41481 0.28779
 C809 C 0.89625 0.41185 0.25779
 N810 N 0.91713 0.39263 0.24516
 N811 N 0.92141 0.59175 0.69479
 C812 C 0.93552 0.61711 0.70583
 N813 N 0.92789 0.62703 0.73343
 N814 N 0.90710 0.61200 0.74952
 C815 C 0.89297 0.58658 0.73859
 N816 N 0.90046 0.57681 0.71085
 N817 N 0.69425 0.59093 0.92636
 C818 C 0.70704 0.61585 0.93971
 N819 N 0.73607 0.62414 0.93202
 N820 N 0.75183 0.60798 0.91200
 C821 C 0.73897 0.58322 0.89859
 N822 N 0.70985 0.57505 0.90598
 N823 N 0.30379 0.40832 0.92686
 C824 C 0.29231 0.38190 0.93851
 N825 N 0.26461 0.37167 0.92879
 N826 N 0.24887 0.38739 0.90844
 C827 C 0.26028 0.41385 0.89680
 N828 N 0.28812 0.42393 0.90634
 N829 N 0.30625 0.59140 0.07487
 C830 C 0.29391 0.61661 0.06153
 N831 N 0.26484 0.62523 0.06886
 N832 N 0.24861 0.60909 0.08850
 C833 C 0.26103 0.58402 0.10189
 N834 N 0.29019 0.57555 0.09488
 N835 N 0.73343 0.37176 0.06903
 C836 C 0.70577 0.38263 0.05975
 N837 N 0.69487 0.40916 0.07178
 N838 N 0.71105 0.42423 0.09226
 C839 C 0.73886 0.41348 0.10136
 N840 N 0.74969 0.38694 0.08932
 N841 N 0.92416 0.69205 0.59088
 C842 C 0.93664 0.70411 0.61596
 N843 N 0.92708 0.73229 0.62515
 N844 N 0.90610 0.74793 0.60978
 C845 C 0.89362 0.73597 0.58468
 N846 N 0.90299 0.70764 0.57560
 N847 N 0.93194 0.26429 0.37741
 C848 C 0.93881 0.29383 0.38463
 N849 N 0.92484 0.30672 0.40860
 N850 N 0.90466 0.29073 0.42463
 C851 C 0.89814 0.26111 0.41757
 N852 N 0.91215 0.24815 0.39372
 N853 N 0.07461 0.26944 0.62732
 C854 C 0.06469 0.29734 0.61771
 N855 N 0.07703 0.30918 0.59246
 N856 N 0.09838 0.29363 0.57738
 C857 C 0.10810 0.26556 0.58685
 N858 N 0.09578 0.25383 0.61214
 N859 N 0.07426 0.68977 0.41048
 C860 C 0.06012 0.70280 0.38668
 N861 N 0.06713 0.73229 0.37941
 N862 N 0.08724 0.74825 0.39545
 C863 C 0.10148 0.73516 0.41908
 N864 N 0.09479 0.70559 0.42625
 N865 N 0.61861 0.93706 0.73723
 C866 C 0.61507 0.93806 0.70731
 N867 N 0.59502 0.91838 0.69423
 N868 N 0.57926 0.89822 0.71051
 C869 C 0.58259 0.89744 0.74049
 N870 N 0.60249 0.91727 0.75354
 N871 N 0.40731 0.92195 0.30482
 C872 C 0.38232 0.93666 0.29359
 N873 N 0.37323 0.93012 0.26548
 N874 N 0.38870 0.90980 0.24911
 C875 C 0.41378 0.89510 0.26024
 N876 N 0.42268 0.90149 0.28849
 N877 N 0.62846 0.07698 0.27061
 C878 C 0.61722 0.06777 0.29724
 N879 N 0.59087 0.08080 0.30751
 N880 N 0.57620 0.10210 0.29155
 C881 C 0.58728 0.11110 0.26468
 N882 N 0.61375 0.09814 0.25464
 N883 N 0.37332 0.06916 0.73318
 C884 C 0.38334 0.06162 0.70560
 N885 N 0.40882 0.07569 0.69475
 N886 N 0.42374 0.09652 0.71096
 C887 C 0.41387 0.10393 0.73869
 N888 N 0.38834 0.08982 0.74943
 N889 N 0.59409 0.69594 0.07558
 C890 C 0.61908 0.70803 0.06182
 N891 N 0.62833 0.73678 0.06932
 N892 N 0.61303 0.75295 0.08967
 C893 C 0.58800 0.74095 0.10348
 N894 N 0.57890 0.71206 0.09607
 N895 N 0.37276 0.26280 0.06855
 C896 C 0.38139 0.29182 0.06126
 N897 N 0.40619 0.30429 0.07500
 N898 N 0.42176 0.28830 0.09531
 C899 C 0.41327 0.25916 0.10251
 N900 N 0.38845 0.24676 0.08870
 N901 N 0.62427 0.26543 0.92964
 C902 C 0.61496 0.29410 0.93748
 N903 N 0.58976 0.30631 0.92410
 N904 N 0.57444 0.29034 0.90363
 C905 C 0.58364 0.26152 0.89590
 N906 N 0.60887 0.24944 0.90934
 N907 N 0.40387 0.69277 0.92153
 C908 C 0.38441 0.70727 0.94053
 N909 N 0.38145 0.73831 0.93883
 N910 N 0.39757 0.75432 0.91902
 C911 C 0.41689 0.73983 0.89988
 N912 N 0.41963 0.70874 0.90139
 N913 N 0.73195 0.92770 0.37570
 C914 C 0.70331 0.93625 0.38439
 N915 N 0.69083 0.92274 0.40875
 N916 N 0.70650 0.90152 0.42390
 C917 C 0.73530 0.89312 0.41537
 N918 N 0.74764 0.90663 0.39092
 N919 N 0.31002 0.91686 0.59403
 C920 C 0.29526 0.93663 0.61254
 N921 N 0.26413 0.93566 0.61419
 N922 N 0.24827 0.91579 0.59777
 C923 C 0.26298 0.89586 0.57941
 N924 N 0.29416 0.89662 0.57794
 N925 N 0.26672 0.07271 0.37720
 C926 C 0.29567 0.06451 0.38519
 N927 N 0.30871 0.07841 0.40906
 N928 N 0.29327 0.09970 0.42438
 C929 C 0.26417 0.10778 0.41650
 N930 N 0.25128 0.09384 0.39258
 N931 N 0.73743 0.06259 0.61759
 C932 C 0.70632 0.06177 0.61549
 N933 N 0.69198 0.08158 0.59671
 N934 N 0.70820 0.10167 0.58079
 C935 C 0.73936 0.10228 0.58269
 N936 N 0.75367 0.08233 0.60133
 N937 N 0.93053 0.62381 0.26610
 C938 C 0.93767 0.61399 0.29386
 N939 N 0.92380 0.58831 0.30451
 N940 N 0.90353 0.57300 0.28797
 C941 C 0.89651 0.58268 0.26008
 N942 N 0.91042 0.60841 0.24953
 N943 N 0.93707 0.38228 0.73610
 C944 C 0.93813 0.38563 0.70616
 N945 N 0.91820 0.40538 0.69288
 N946 N 0.89776 0.42105 0.70901
 C947 C 0.89693 0.41791 0.73901
 N948 N 0.91699 0.39829 0.75225
 N949 N 0.06981 0.62691 0.73417
 C950 C 0.06256 0.61700 0.70649
 N951 N 0.07698 0.59168 0.69559
 N952 N 0.09788 0.57680 0.71184
 C953 C 0.10501 0.58657 0.73967
 N954 N 0.09054 0.61193 0.75046
 N955 N 0.08192 0.36947 0.27591
 C956 C 0.06134 0.38430 0.29352
 N957 N 0.06099 0.41552 0.29366
 N958 N 0.08037 0.43136 0.27662
 C959 C 0.10107 0.41656 0.25911
 N960 N 0.10161 0.38532 0.25921
   
