data_POSCAR
  _audit_creation_date              2014-09-24
  _audit_creation_method            'ToBaCCo'
  _symmetry_space_group_name_H-M    'P1'
  _symmetry_Int_Tables_number       1
  _symmetry_cell_setting            triclinic
  loop_
  _symmetry_equiv_pos_as_xyz
 x,y,z
_cell_length_a 44.4579
_cell_length_b 44.5140
_cell_length_c 44.4972
_cell_angle_alpha 89.891300
_cell_angle_beta 89.936900
_cell_angle_gamma 90.137300
loop_
  _atom_site_label
  _atom_site_type_symbol
  _atom_site_fract_x
  _atom_site_fract_y
  _atom_site_fract_z
C1 C 0.28222 0.47331 1.00006
 C2 C 0.26654 0.50060 1.00040
 C3 C 0.28243 0.52785 1.00066
 C4 C 0.31395 0.52783 1.00058
 C5 C 0.32956 0.50049 1.00024
 C6 C 0.31372 0.47325 0.99998
 C7 C 0.23351 0.50064 1.00045
 C8 C 0.21772 0.50030 1.02775
 C9 C 0.18620 0.50031 1.02780
 C10 C 0.17049 0.50067 1.00050
 C11 C 0.18623 0.50101 0.97320
 C12 C 0.21772 0.50099 0.97319
 H13 H 0.26992 0.45225 0.99986
 H14 H 0.27022 0.54893 1.00091
 H15 H 0.23001 0.50004 1.04880
 H16 H 0.22994 0.50123 0.95209
 H17 H 0.35397 0.50037 1.00017
 H18 H 0.14608 0.50067 1.00043
 C19 C 0.71854 0.47293 -0.00004
 C20 C 0.73436 0.50022 -0.00077
 C21 C 0.71861 0.52746 -0.00149
 C22 C 0.68711 0.52742 -0.00149
 C23 C 0.67136 0.50014 -0.00076
 C24 C 0.68704 0.47290 -0.00003
 C25 C 0.76739 0.50025 -0.00077
 C26 C 0.78321 0.49958 -0.02804
 C27 C 0.81473 0.49959 -0.02805
 C28 C 0.83040 0.50028 -0.00074
 C29 C 0.81464 0.50095 0.02652
 C30 C 0.78314 0.50094 0.02651
 H31 H 0.73072 0.45187 0.00052
 H32 H 0.73084 0.54856 -0.00205
 H33 H 0.77094 0.49905 -0.04910
 H34 H 0.77090 0.50145 0.04759
 H35 H 0.64696 0.50011 -0.00076
 H36 H 0.85481 0.50029 -0.00065
 C37 C 0.02731 0.21878 0.49634
 C38 C 0.00003 0.23453 0.49612
 C39 C -0.02729 0.21874 0.49527
 C40 C -0.02734 0.18729 0.49470
 C41 C -0.00005 0.17162 0.49485
 C42 C 0.02727 0.18733 0.49567
 C43 C 0.00007 0.26749 0.49728
 C44 C -0.00063 0.28432 0.47060
 C45 C -0.00062 0.31578 0.47179
 C46 C -0.00000 0.33036 0.49968
 C47 C 0.00065 0.31359 0.52633
 C48 C 0.00073 0.28217 0.52513
 H49 H 0.04843 0.23098 0.49712
 H50 H -0.04839 0.23092 0.49528
 H51 H -0.00116 0.27289 0.44910
 H52 H 0.00122 0.26915 0.54575
 H53 H -0.00008 0.14726 0.49450
 H54 H -0.00007 0.35472 0.50070
 C55 C 1.02759 0.78205 0.50350
 C56 C 1.00030 0.76618 0.50367
 C57 C 0.97298 0.78183 0.50458
 C58 C 0.97293 0.81327 0.50526
 C59 C 1.00020 0.82909 0.50515
 C60 C 1.02756 0.81352 0.50428
 C61 C 1.00033 0.73322 0.50246
 C62 C 0.99955 0.71636 0.52912
 C63 C 0.99956 0.68491 0.52790
 C64 C 1.00026 0.67035 0.50000
 C65 C 1.00099 0.68715 0.47336
 C66 C 1.00108 0.71857 0.47459
 H67 H 1.04868 0.76987 0.50269
 H68 H 0.95189 0.76955 0.50455
 H69 H 0.99896 0.72777 0.55064
 H70 H 1.00164 0.73161 0.45400
 H71 H 1.00008 0.85347 0.50560
 H72 H 1.00018 0.64599 0.49896
 C73 C 0.49916 0.02508 0.21884
 C74 C 0.49988 -0.00281 0.23354
 C75 C 0.50068 -0.02941 0.21672
 C76 C 0.50073 -0.02811 0.18528
 C77 C 0.50007 -0.00022 0.17066
 C78 C 0.49932 0.02637 0.18741
 C79 C 0.49984 -0.00408 0.26652
 C80 C 0.47252 -0.00389 0.28230
 C81 C 0.47249 -0.00467 0.31376
 C82 C 0.49977 -0.00556 0.32945
 C83 C 0.52709 -0.00569 0.31374
 C84 C 0.52712 -0.00502 0.28227
 H85 H 0.49859 0.04564 0.23185
 H86 H 0.50125 -0.05097 0.22809
 H87 H 0.45143 -0.00304 0.27012
 H88 H 0.54824 -0.00499 0.27006
 H89 H 0.50019 0.00078 0.14630
 H90 H 0.49974 -0.00599 0.35382
 C91 C 0.50001 0.02805 0.78393
 C92 C 0.49940 0.00140 0.76718
 C93 C 0.49885 -0.02646 0.78194
 C94 C 0.49897 -0.02769 0.81340
 C95 C 0.49954 -0.00102 0.83008
 C96 C 0.50005 0.02684 0.81538
 C97 C 0.49941 0.00262 0.73420
 C98 C 0.52672 0.00342 0.71842
 C99 C 0.52673 0.00412 0.68696
 C100 C 0.49943 0.00413 0.67127
 C101 C 0.47212 0.00337 0.68699
 C102 C 0.47211 0.00258 0.71844
 H103 H 0.50046 0.04959 0.77251
 H104 H 0.49843 -0.04703 0.76890
 H105 H 0.54782 0.00330 0.73061
 H106 H 0.45100 0.00186 0.73065
 H107 H 0.49965 -0.00187 0.85446
 H108 H 0.49944 0.00460 0.64690
 C109 C 0.29513 0.02337 0.46510
 H110 H 0.29474 0.04084 0.48197
 C111 C 0.31720 0.02371 0.44281
 H112 H 0.33380 0.04155 0.44276
 C113 C 0.27511 -0.02221 0.44618
 H114 H 0.25916 -0.04046 0.44808
 C115 C 0.29688 -0.02279 0.42350
 H116 H 0.29705 -0.04126 0.40770
 N117 N 0.27478 0.00057 0.46650
 C118 C 0.20356 0.03535 0.52387
 H119 H 0.20386 0.01846 0.54139
 C120 C 0.18167 0.05774 0.52420
 H121 H 0.16514 0.05785 0.54207
 C122 C 0.22360 0.05423 0.47819
 H123 H 0.23948 0.05227 0.45991
 C124 C 0.20203 0.07701 0.47760
 H125 H 0.20194 0.09283 0.45909
 Zn126 Zn 0.24918 -0.00010 0.50039
 N127 N 0.22382 0.03388 0.50104
 C128 C 0.27515 0.02189 0.55464
 N129 N 0.27466 -0.00090 0.53432
 C130 C 0.29478 -0.02379 0.53573
 C131 C 0.31679 -0.02424 0.55803
 C132 C 0.29687 0.02236 0.57733
 C133 C 0.20331 -0.03531 0.47683
 C134 C 0.18125 -0.05763 0.47643
 C135 C 0.20125 -0.07704 0.52303
 C136 C 0.22301 -0.05433 0.52251
 N137 N 0.22350 -0.03395 0.49970
 H138 H 0.25939 0.04022 0.55272
 H139 H 0.29427 -0.04126 0.51886
 H140 H 0.33321 -0.04216 0.55808
 H141 H 0.29718 0.04083 0.59312
 H142 H 0.20383 -0.01840 0.45934
 H143 H 0.16479 -0.05766 0.45851
 H144 H 0.20097 -0.09290 0.54151
 H145 H 0.23884 -0.05247 0.54082
 C146 C 0.18043 0.07871 0.50061
 C147 C 0.31856 0.00018 0.42187
 C148 C 0.17974 -0.07865 0.49996
 C149 C 0.31833 -0.00072 0.57896
 C150 C 0.70406 0.02503 0.53394
 H151 H 0.70438 0.04134 0.51588
 C152 C 0.68199 0.02666 0.55617
 H153 H 0.66532 0.04432 0.55496
 C154 C 0.72424 -0.01902 0.55600
 H155 H 0.74026 -0.03722 0.55538
 C156 C 0.70249 -0.01827 0.57869
 H157 H 0.70240 -0.03564 0.59575
 N158 N 0.72447 0.00235 0.53412
 C159 C 0.79599 0.03342 0.47465
 H160 H 0.79574 0.01539 0.45838
 C161 C 0.81797 0.05577 0.47289
 H162 H 0.83464 0.05468 0.45517
 C163 C 0.77570 0.05532 0.51872
 H164 H 0.75967 0.05460 0.53697
 C165 C 0.79735 0.07813 0.51783
 H166 H 0.79734 0.09517 0.53516
 Zn167 Zn 0.75004 -0.00042 0.50031
 N168 N 0.77556 0.03347 0.49740
 C169 C 0.72435 0.01805 0.44462
 N170 N 0.72453 -0.00331 0.46651
 C171 C 0.70411 -0.02608 0.46670
 C172 C 0.68208 -0.02782 0.44447
 C173 C 0.70265 0.01720 0.42193
 C174 C 0.79597 -0.03403 0.52591
 C175 C 0.81798 -0.05624 0.52762
 C176 C 0.79743 -0.07866 0.48266
 C177 C 0.77575 -0.05599 0.48184
 N178 N 0.77557 -0.03417 0.50319
 H179 H 0.74038 0.03632 0.44523
 H180 H 0.70439 -0.04239 0.48476
 H181 H 0.66541 -0.04555 0.44568
 H182 H 0.70260 0.03456 0.40486
 H183 H 0.79568 -0.01602 0.54220
 H184 H 0.83464 -0.05507 0.54531
 H185 H 0.79748 -0.09568 0.46531
 H186 H 0.75974 -0.05534 0.46360
 C187 C 0.81913 0.07829 0.49492
 C188 C 0.68071 0.00457 0.57870
 C189 C 0.81921 -0.07872 0.50555
 C190 C 0.68086 -0.00573 0.42193
 C191 C 0.47467 0.20490 1.03793
 H192 H 0.45786 0.20497 1.02037
 C193 C 0.47361 0.18311 1.06045
 H194 H 0.45587 0.16640 1.05997
 C195 C 0.51945 0.22538 1.05836
 H196 H 0.53772 0.24137 1.05693
 C197 C 0.51929 0.20389 1.08130
 H198 H 0.53719 0.20396 1.09778
 N199 N 0.49745 0.22531 1.03713
 C200 C 0.46451 0.29487 0.97665
 H201 H 0.48187 0.29410 0.95961
 C202 C 0.44229 0.31691 0.97529
 H203 H 0.44277 0.33307 0.95708
 C204 C 0.44435 0.27603 1.02229
 H205 H 0.44578 0.26061 1.04101
 C206 C 0.42171 0.29774 1.02183
 H207 H 0.40545 0.29835 1.03995
 Zn208 Zn 0.49941 0.25008 1.00268
 N209 N 0.46532 0.27520 1.00003
 C210 C 0.47991 0.22208 0.94837
 N211 N 0.50184 0.22369 0.96960
 C212 C 0.52509 0.20393 0.96995
 C213 C 0.52671 0.18105 0.94868
 C214 C 0.48061 0.19942 0.92664
 C215 C 0.53366 0.29657 1.02655
 C216 C 0.55596 0.31865 1.02729
 C217 C 0.57713 0.29767 0.98193
 C218 C 0.55440 0.27593 0.98208
 N219 N 0.53317 0.27590 1.00411
 H220 H 0.46123 0.23756 0.94897
 H221 H 0.54196 0.20549 0.98739
 H222 H 0.54531 0.16542 0.94954
 H223 H 0.46240 0.19776 0.91059
 H224 H 0.51610 0.29640 1.04341
 H225 H 0.55532 0.33548 1.04481
 H226 H 0.59368 0.29756 0.96406
 H227 H 0.55322 0.25974 0.96407
 C228 C 0.42080 0.31890 0.99836
 C229 C 0.49639 0.18208 1.08226
 C230 C 0.57786 0.31966 1.00453
 C231 C 0.50396 0.17818 0.92700
 C232 C 0.47500 0.79482 -0.03811
 H233 H 0.45825 0.79462 -0.02046
 C234 C 0.47386 0.81670 -0.06055
 H235 H 0.45613 0.83332 -0.05991
 C236 C 0.51971 0.77463 -0.05886
 H237 H 0.53798 0.75873 -0.05759
 C238 C 0.51948 0.79621 -0.08173
 H239 H 0.53733 0.79629 -0.09830
 N240 N 0.49778 0.77452 -0.03752
 C241 C 0.46502 0.70460 0.02291
 H242 H 0.48246 0.70538 0.03983
 C243 C 0.44273 0.68252 0.02439
 H244 H 0.44326 0.66633 0.04256
 C245 C 0.44467 0.72354 -0.02252
 H246 H 0.44603 0.73901 -0.04121
 C247 C 0.42197 0.70178 -0.02194
 H248 H 0.40560 0.70119 -0.03994
 Zn249 Zn 0.49985 0.74962 -0.00317
 N250 N 0.46575 0.72435 -0.00041
 C251 C 0.48052 0.77729 0.05137
 N252 N 0.50238 0.77589 0.03001
 C253 C 0.52563 0.79577 0.02963
 C254 C 0.52734 0.81853 0.05102
 C255 C 0.48132 0.79983 0.07322
 C256 C 0.53402 0.70336 -0.02736
 C257 C 0.55630 0.68136 -0.02824
 C258 C 0.57757 0.70230 0.01710
 C259 C 0.55486 0.72396 0.01709
 N260 N 0.53359 0.72396 -0.00486
 H261 H 0.46184 0.76174 0.05079
 H262 H 0.54244 0.79438 0.01209
 H263 H 0.54594 0.83425 0.05015
 H264 H 0.46316 0.80131 0.08938
 H265 H 0.51644 0.70350 -0.04414
 H266 H 0.55561 0.66457 -0.04579
 H267 H 0.59414 0.70243 0.03490
 H268 H 0.55373 0.74009 0.03515
 C269 C 0.42110 0.68057 0.00149
 C270 C 0.49657 0.81792 -0.08248
 C271 C 0.57823 0.68036 -0.00556
 C272 C 0.50467 0.82117 0.07286
 C273 C 1.03590 0.47691 0.20508
 H274 H 1.01849 0.45991 0.20590
 C275 C 1.05816 0.47556 0.18300
 H276 H 1.05764 0.45740 0.16686
 C277 C 1.05618 0.52244 0.22385
 H278 H 1.05478 0.54112 0.23925
 C279 C 1.07885 0.52199 0.20209
 H280 H 1.09517 0.54008 0.20142
 N281 N 1.03513 0.50023 0.22474
 C282 C 0.97500 0.47001 0.29603
 H283 H 0.95817 0.48746 0.29446
 C284 C 0.97322 0.44865 0.31891
 H285 H 0.95455 0.44946 0.33452
 C286 C 1.02020 0.44847 0.27791
 H287 H 1.03895 0.44911 0.26245
 C288 C 1.01934 0.42665 0.30057
 H289 H 1.03751 0.41058 0.30224
 Zn290 Zn 1.00097 0.50288 0.24987
 N291 N 0.99833 0.46972 0.27628
 C292 C 0.94604 0.48247 0.22395
 N293 N 0.96733 0.50447 0.22402
 C294 C 0.96701 0.52697 0.20333
 C295 C 0.94485 0.52780 0.18118
 C296 C 0.92345 0.48241 0.20213
 C297 C 1.02568 0.53795 0.29504
 C298 C 1.02675 0.56040 0.31682
 C299 C 0.98120 0.58138 0.29602
 C300 C 0.98103 0.55850 0.27455
 N301 N 1.00296 0.53724 0.27464
 H302 H 0.94708 0.46441 0.24015
 H303 H 0.98461 0.54380 0.20353
 H304 H 0.94565 0.54536 0.16433
 H305 H 0.90686 0.46456 0.20220
 H306 H 1.04243 0.52036 0.29499
 H307 H 1.04443 0.55985 0.33352
 H308 H 0.96335 0.59789 0.29594
 H309 H 0.96281 0.55715 0.25857
 C310 C 0.99590 0.42694 0.32179
 C311 C 1.07973 0.49859 0.18095
 C312 C 1.00404 0.58225 0.31783
 C313 C 0.92292 0.50507 0.18011
 C314 C -0.03375 0.47367 0.79640
 H315 H -0.01619 0.45688 0.79619
 C316 C -0.05593 0.47282 0.81858
 H317 H -0.05520 0.45527 0.83545
 C318 C -0.05456 0.51812 0.77579
 H319 H -0.05346 0.53618 0.75957
 C320 C -0.07717 0.51816 0.79763
 H321 H -0.09371 0.53598 0.79758
 N322 N -0.03334 0.49616 0.77570
 C323 C 0.02510 0.46285 0.70468
 H324 H 0.04188 0.48049 0.70474
 C325 C 0.02618 0.44040 0.68290
 H326 H 0.04390 0.44102 0.66620
 C327 C -0.01963 0.44216 0.72516
 H328 H -0.03789 0.44345 0.74114
 C329 C -0.01946 0.41928 0.70368
 H330 H -0.03734 0.40273 0.70376
 Zn331 Zn 0.00035 0.49784 0.74984
 N332 N 0.00234 0.46348 0.72508
 C333 C 0.05548 0.47846 0.77585
 N334 N 0.03447 0.50060 0.77496
 C335 C 0.03525 0.52393 0.79461
 C336 C 0.05747 0.52536 0.81668
 C337 C 0.07812 0.47899 0.79760
 C338 C -0.02547 0.53062 0.70369
 C339 C -0.02716 0.55196 0.68080
 C340 C 0.01897 0.57411 0.69912
 C341 C 0.01974 0.55230 0.72178
 N342 N -0.00218 0.53099 0.72343
 H343 H 0.05408 0.45977 0.76046
 H344 H 0.01786 0.54087 0.79380
 H345 H 0.05695 0.54352 0.83282
 H346 H 0.09441 0.46096 0.79826
 H347 H -0.04233 0.51312 0.70527
 H348 H -0.04581 0.55109 0.66519
 H349 H 0.03717 0.59023 0.69744
 H350 H 0.03846 0.55172 0.73724
 C351 C 0.00343 0.41849 0.68188
 C352 C -0.07779 0.49551 0.81968
 C353 C -0.00443 0.57374 0.67790
 C354 C 0.07899 0.50240 0.81873
 C355 C 0.10527 0.13914 0.49725
 C356 C 0.11596 0.12582 0.47087
 C357 C 0.14096 0.10686 0.47181
 C358 C 0.05518 0.17104 0.49613
 C359 C 0.14509 0.11500 0.52550
 C360 C 0.12009 0.13397 0.52450
 C361 C 0.07824 0.15684 0.49660
 C362 C 0.15558 0.10091 0.49922
 H363 H 0.10455 0.12954 0.44969
 H364 H 0.14819 0.09603 0.45128
 H365 H 0.15606 0.11113 0.54686
 H366 H 0.11200 0.14417 0.54505
 C367 C 0.63873 0.60524 -0.00323
 C368 C 0.63240 0.61949 -0.03055
 C369 C 0.61338 0.64445 -0.03128
 C370 C 0.67079 0.55529 -0.00218
 C371 C 0.60747 0.64138 0.02280
 C372 C 0.62648 0.61643 0.02346
 C373 C 0.65653 0.57829 -0.00270
 C374 C 0.60039 0.65546 -0.00463
 H375 H 0.64177 0.61100 -0.05136
 H376 H 0.60862 0.65499 -0.05269
 H377 H 0.59750 0.64900 0.04364
 H378 H 0.63110 0.60546 0.04472
 C379 C 0.89474 -0.13880 0.50550
 C380 C 0.88367 -0.12735 0.47839
 C381 C 0.85856 -0.10851 0.47832
 C382 C 0.94495 -0.17053 0.50560
 C383 C 0.85510 -0.11300 0.53251
 C384 C 0.88022 -0.13186 0.53252
 C385 C 0.92184 -0.15642 0.50566
 C386 C 0.84421 -0.10079 0.50543
 H387 H 0.89484 -0.13244 0.45736
 H388 H 0.85105 -0.09914 0.45716
 H389 H 0.84435 -0.10775 0.55370
 H390 H 0.88860 -0.14061 0.55364
 C391 C 0.36144 0.39498 0.99947
 C392 C 0.36702 0.37985 0.97249
 C393 C 0.38565 0.35458 0.97219
 C394 C 0.32991 0.44529 0.99969
 C395 C 0.39267 0.35913 1.02600
 C396 C 0.37405 0.38438 1.02624
 C397 C 0.34396 0.42216 0.99953
 C398 C 0.39899 0.34413 0.99891
 H399 H 0.35737 0.38786 0.95163
 H400 H 0.38983 0.34334 0.95104
 H401 H 0.40294 0.35198 1.04687
 H402 H 0.37001 0.39602 1.04722
 C403 C 0.89453 0.13890 0.49470
 C404 C 0.88003 0.13181 0.46773
 C405 C 0.85496 0.11278 0.46782
 C406 C 0.94470 0.17094 0.49444
 C407 C 0.85841 0.10840 0.52201
 C408 C 0.88348 0.12742 0.52186
 C409 C 0.92161 0.15669 0.49445
 C410 C 0.84409 0.10054 0.49495
 H411 H 0.88840 0.14058 0.44657
 H412 H 0.84422 0.10742 0.44666
 H413 H 0.85091 0.09902 0.54321
 H414 H 0.89464 0.13263 0.54285
 C415 C 0.36134 0.60451 0.00077
 C416 C 0.37384 0.61514 -0.02610
 C417 C 0.39260 0.64038 -0.02598
 C418 C 0.32950 0.55424 0.00075
 C419 C 0.38594 0.64486 0.02789
 C420 C 0.36717 0.61960 0.02771
 C421 C 0.34369 0.57736 0.00082
 C422 C 0.39917 0.65534 0.00108
 H423 H 0.36961 0.60354 -0.04706
 H424 H 0.40278 0.64756 -0.04692
 H425 H 0.39030 0.65607 0.04903
 H426 H 0.35759 0.61157 0.04865
 C427 C 0.10421 -0.13899 0.50300
 C428 C 0.11919 -0.13377 0.47580
 C429 C 0.14430 -0.11482 0.47491
 C430 C 0.05399 -0.17094 0.50393
 C431 C 0.13996 -0.10680 0.52860
 C432 C 0.11484 -0.12573 0.52943
 C433 C 0.07710 -0.15671 0.50354
 C434 C 0.15474 -0.10080 0.50125
 H435 H 0.11115 -0.14393 0.45520
 H436 H 0.15540 -0.11092 0.45358
 H437 H 0.14714 -0.09602 0.54918
 H438 H 0.10331 -0.12950 0.55058
 C439 C 0.63850 0.39495 1.00188
 C440 C 0.62619 0.38369 0.97524
 C441 C 0.60714 0.35868 0.97600
 C442 C 0.67065 0.44499 1.00069
 C443 C 0.61312 0.35570 1.03006
 C444 C 0.63219 0.38072 1.02924
 C445 C 0.65635 0.42195 1.00126
 C446 C 0.60007 0.34462 1.00348
 H447 H 0.63080 0.39465 0.95395
 H448 H 0.59712 0.35101 0.95522
 H449 H 0.60838 0.34517 1.05151
 H450 H 0.64160 0.38925 1.05000
 C451 C 0.49833 0.10602 1.14180
 C452 C 0.52510 0.11732 1.12962
 C453 C 0.52461 0.14270 1.11109
 C454 C 0.49887 0.05491 1.17216
 C455 C 0.47057 0.14605 1.11746
 C456 C 0.47112 0.12066 1.13601
 C457 C 0.49859 0.07845 1.15874
 C458 C 0.49726 0.15708 1.10440
 H459 H 0.54627 0.10605 1.13382
 H460 H 0.54547 0.15033 1.10105
 H461 H 0.44922 0.15683 1.11300
 H462 H 0.45026 0.11211 1.14532
 C463 C -0.00302 0.63355 0.60188
 C464 C -0.01188 0.60360 0.59840
 C465 C -0.01251 0.58431 0.62316
 C466 C -0.00123 0.66833 0.55366
 C467 C 0.00454 0.62489 0.65520
 C468 C 0.00515 0.64421 0.63032
 C469 C -0.00199 0.65294 0.57598
 C470 C -0.00431 0.59470 0.65187
 H471 H -0.01808 0.59507 0.57647
 H472 H -0.01887 0.56108 0.61970
 H473 H 0.01077 0.63360 0.67703
 H474 H 0.01205 0.66737 0.63325
 C475 C 0.49827 0.89415 -0.14182
 C476 C 0.47109 0.87935 -0.13591
 C477 C 0.47061 0.85392 -0.11742
 C478 C 0.49866 0.94532 -0.17211
 C479 C 0.52468 0.85754 -0.11135
 C480 C 0.52509 0.88297 -0.12982
 C481 C 0.49846 0.92175 -0.15871
 C482 C 0.49736 0.84299 -0.10455
 H483 H 0.45019 0.88782 -0.14508
 H484 H 0.44929 0.84302 -0.11287
 H485 H 0.54557 0.84998 -0.10145
 H486 H 0.54624 0.89436 -0.13412
 C487 C 0.99704 0.36710 0.39780
 C488 C 1.00526 0.35648 0.36935
 C489 C 1.00474 0.37581 0.34448
 C490 C 0.99868 0.33233 0.44602
 C491 C 0.98768 0.41632 0.37653
 C492 C 0.98823 0.39702 0.40128
 C493 C 0.99800 0.34771 0.42369
 C494 C 0.99593 0.40597 0.34782
 H495 H 1.01213 0.33334 0.36642
 H496 H 1.01100 0.36713 0.32264
 H497 H 0.98136 0.43953 0.38000
 H498 H 0.98200 0.40553 0.42322
 C499 C 0.50333 0.89678 0.13288
 C500 C 0.51207 0.90049 0.10291
 C501 C 0.51268 0.87586 0.08355
 C502 C 0.50155 0.94475 0.16778
 C503 C 0.49583 0.84349 0.12410
 C504 C 0.49525 0.86823 0.14349
 C505 C 0.50231 0.92253 0.15235
 C506 C 0.50457 0.84706 0.09388
 H507 H 0.51820 0.92250 0.09442
 H508 H 0.51894 0.87950 0.06030
 H509 H 0.48968 0.82158 0.13277
 H510 H 0.48844 0.86512 0.16667
 C511 C 0.00156 0.35910 0.60590
 C512 C -0.02523 0.37112 0.61715
 C513 C -0.02476 0.38961 0.64250
 C514 C 0.00105 0.32881 0.55484
 C515 C 0.02930 0.38352 0.64591
 C516 C 0.02876 0.36502 0.62056
 C517 C 0.00132 0.34220 0.57836
 C518 C 0.00259 0.39641 0.65690
 H519 H -0.04639 0.36682 0.60588
 H520 H -0.04563 0.39952 0.65011
 H521 H 0.05064 0.38807 0.65670
 H522 H 0.04964 0.35584 0.61203
 C523 C 0.50245 0.10220 0.86745
 C524 C 0.49433 0.13064 0.85671
 C525 C 0.49495 0.15550 0.87595
 C526 C 0.50076 0.05405 0.83278
 C527 C 0.51190 0.12345 0.91661
 C528 C 0.51125 0.09871 0.89740
 C529 C 0.50146 0.07634 0.84812
 C530 C 0.50377 0.15216 0.90614
 H531 H 0.48748 0.13358 0.83354
 H532 H 0.48878 0.17733 0.86718
 H533 H 0.51823 0.11998 0.93985
 H534 H 0.51741 0.07678 0.90599
 C535 C 1.00207 0.64167 0.39378
 C536 C 1.02931 0.63582 0.37915
 C537 C 1.02988 0.61730 0.35380
 C538 C 1.00147 0.67196 0.44484
 C539 C 0.97580 0.61107 0.35718
 C540 C 0.97529 0.62957 0.38252
 C541 C 1.00178 0.65857 0.42132
 C542 C 1.00317 0.60433 0.34280
 H543 H 1.05018 0.64506 0.38768
 H544 H 1.05124 0.61281 0.34303
 H545 H 0.95492 0.60110 0.34957
 H546 H 0.95411 0.63381 0.39378
 C547 C 1.13916 0.49977 0.10467
 C548 C 1.13348 0.47279 0.11987
 C549 C 1.11483 0.47246 0.14520
 C550 C 1.17076 0.50004 0.05427
 C551 C 1.10799 0.52627 0.14060
 C552 C 1.12663 0.52654 0.11528
 C553 C 1.15667 0.49986 0.07745
 C554 C 1.10157 0.49916 0.15565
 H555 H 1.14308 0.45193 0.11186
 H556 H 1.11058 0.45129 0.15648
 H557 H 1.09778 0.54713 0.14775
 H558 H 1.13075 0.54753 0.10360
 C559 C 0.60497 0.00436 0.63881
 C560 C 0.61606 -0.02271 0.62741
 C561 C 0.64124 -0.02274 0.60856
 C562 C 0.55470 0.00442 0.67063
 C563 C 0.64472 0.03143 0.61296
 C564 C 0.61954 0.03139 0.63182
 C565 C 0.57782 0.00448 0.65646
 C566 C 0.65563 0.00439 0.60080
 H567 H 0.60486 -0.04375 0.63255
 H568 H 0.64878 -0.04387 0.59923
 H569 H 0.65551 0.05262 0.60767
 H570 H 0.61114 0.05248 0.64053
 C571 C -0.13789 0.49791 0.89535
 C572 C -0.12562 0.52458 0.88396
 C573 C -0.10675 0.52390 0.85882
 C574 C -0.16978 0.49897 0.94553
 C575 C -0.11283 0.46985 0.85599
 C576 C -0.13172 0.47059 0.88113
 C577 C -0.15558 0.49845 0.92244
 C578 C -0.09983 0.49647 0.84477
 H579 H -0.13012 0.54583 0.89489
 H580 H -0.09676 0.54471 0.85104
 H581 H -0.10819 0.44844 0.84548
 H582 H -0.14110 0.44981 0.88977
 C583 C 0.39424 -0.00313 0.36184
 C584 C 0.38338 -0.02952 0.37515
 C585 C 0.35821 -0.02859 0.39398
 C586 C 0.44453 -0.00423 0.33007
 C587 C 0.35427 0.02509 0.38572
 C588 C 0.37944 0.02411 0.36688
 C589 C 0.42139 -0.00378 0.34422
 C590 C 0.34360 -0.00120 0.39980
 H591 H 0.39477 -0.05070 0.37152
 H592 H 0.35084 -0.04914 0.40481
 H593 H 0.34331 0.04645 0.38949
 H594 H 0.38766 0.04467 0.35667
 C595 C 0.13834 0.50144 0.89494
 C596 C 0.12578 0.47463 0.88436
 C597 C 0.10717 0.47483 0.85907
 C598 C 0.16994 0.50127 0.94526
 C599 C 0.11409 0.52866 0.85443
 C600 C 0.13272 0.52841 0.87974
 C601 C 0.15585 0.50141 0.92213
 C602 C 0.10080 0.50191 0.84401
 H603 H 0.12985 0.45365 0.89604
 H604 H 0.09693 0.45393 0.85193
 H605 H 0.10988 0.54981 0.84315
 H606 H 0.14234 0.54930 0.88773
 C607 C 0.60523 -0.00582 0.36185
 C608 C 0.61975 -0.03280 0.36885
 C609 C 0.64490 -0.03274 0.38770
 C610 C 0.55503 -0.00600 0.33004
 C611 C 0.64147 0.02141 0.39208
 C612 C 0.61634 0.02129 0.37324
 C613 C 0.57813 -0.00603 0.34420
 C614 C 0.65582 -0.00566 0.39985
 H615 H 0.61135 -0.05392 0.36014
 H616 H 0.65565 -0.05390 0.39300
 H617 H 0.64902 0.04258 0.40140
 H618 H 0.60517 0.04229 0.36809
 C619 C 0.86281 0.50266 0.10456
 C620 C 0.87499 0.47600 0.11590
 C621 C 0.89386 0.47668 0.14099
 C622 C 0.83093 0.50161 0.05444
 C623 C 0.88797 0.53072 0.14389
 C624 C 0.86908 0.52998 0.11879
 C625 C 0.84512 0.50212 0.07751
 C626 C 0.90088 0.50411 0.15505
 H627 H 0.87041 0.45475 0.10495
 H628 H 0.90378 0.45587 0.14873
 H629 H 0.89268 0.55213 0.15442
 H630 H 0.85977 0.55075 0.11020
 C631 C 0.39392 0.00224 0.63898
 C632 C 0.37886 -0.02493 0.63394
 C633 C 0.35371 -0.02579 0.61512
 C634 C 0.44418 0.00308 0.67070
 C635 C 0.35819 0.02787 0.60685
 C636 C 0.38334 0.02867 0.62566
 C637 C 0.42106 0.00275 0.65657
 C638 C 0.34333 0.00054 0.60104
 H639 H 0.38686 -0.04553 0.64415
 H640 H 0.34255 -0.04710 0.61135
 H641 H 0.35104 0.04845 0.59602
 H642 H 0.39493 0.04980 0.62928
   
