data_POSCAR
  _audit_creation_date              2014-09-24
  _audit_creation_method            'ToBaCCo'
  _symmetry_space_group_name_H-M    'P1'
  _symmetry_Int_Tables_number       1
  _symmetry_cell_setting            triclinic
  loop_
  _symmetry_equiv_pos_as_xyz
 x,y,z
_cell_length_a 27.4584
_cell_length_b 27.5232
_cell_length_c 36.1719
_cell_angle_alpha 90.000300
_cell_angle_beta 90.000000
_cell_angle_gamma 90.000000
loop_
  _atom_site_label
  _atom_site_type_symbol
  _atom_site_fract_x
  _atom_site_fract_y
  _atom_site_fract_z
B1 B 0.27091 0.23227 0.28813
 B2 B 0.21292 0.22259 0.27673
 B3 B 0.23218 0.27881 0.28481
 B4 B 0.28952 0.28496 0.26880
 B5 B 0.30497 0.23006 0.24978
 B6 B 0.25701 0.19105 0.25532
 B7 B 0.22693 0.26610 0.21166
 B8 B 0.28494 0.27579 0.22300
 B9 B 0.26554 0.21950 0.21500
 B10 B 0.20827 0.21344 0.23101
 B11 B 0.19285 0.26832 0.24998
 B12 B 0.24079 0.30734 0.24449
 B13 B 0.73448 0.78057 0.21502
 B14 B 0.71508 0.72428 0.22301
 B15 B 0.77309 0.73397 0.21167
 B16 B 0.79175 0.78663 0.23102
 B17 B 0.74301 0.80902 0.25533
 B18 B 0.69505 0.77002 0.24980
 B19 B 0.76784 0.72126 0.28483
 B20 B 0.78710 0.77748 0.27674
 B21 B 0.72911 0.76780 0.28814
 B22 B 0.71050 0.71511 0.26881
 B23 B 0.75923 0.69273 0.24450
 B24 B 0.80717 0.73175 0.24999
 B25 B 0.73448 0.21945 -0.21499
 B26 B 0.71508 0.27574 -0.22299
 B27 B 0.77309 0.26605 -0.21165
 B28 B 0.79175 0.21339 -0.23100
 B29 B 0.74301 0.19101 -0.25531
 B30 B 0.69505 0.23001 -0.24978
 B31 B 0.76784 0.27877 -0.28480
 B32 B 0.78710 0.22254 -0.27672
 B33 B 0.72911 0.23222 -0.28812
 B34 B 0.71050 0.28491 -0.26879
 B35 B 0.75923 0.30730 -0.24448
 B36 B 0.80717 0.26828 -0.24996
 B37 B 0.26554 0.78052 -0.21498
 B38 B 0.28494 0.72423 -0.22297
 B39 B 0.22693 0.73392 -0.21163
 B40 B 0.20827 0.78658 -0.23098
 B41 B 0.25701 0.80897 -0.25529
 B42 B 0.30497 0.76997 -0.24976
 B43 B 0.23218 0.72121 -0.28479
 B44 B 0.21292 0.77744 -0.27670
 B45 B 0.27091 0.76775 -0.28810
 B46 B 0.28952 0.71506 -0.26878
 B47 B 0.24079 0.69268 -0.24447
 B48 B 0.19285 0.73170 -0.24995
 B49 B 1.22727 1.26839 0.78707
 B50 B 1.28565 1.27796 0.77749
 B51 B 1.26616 1.22185 0.78566
 B52 B 1.20964 1.21528 0.76798
 B53 B 1.19513 1.26978 0.74783
 B54 B 1.24272 1.30898 0.75432
 B55 B 1.27502 1.23317 0.71271
 B56 B 1.21662 1.22359 0.72224
 B57 B 1.23626 1.27976 0.71416
 B58 B 1.29270 1.28625 0.73183
 B59 B 1.30719 1.23178 0.75193
 B60 B 1.25961 1.19256 0.74549
 B61 B 0.77275 0.73169 0.78705
 B62 B 0.71437 0.72211 0.77746
 B63 B 0.73386 0.77822 0.78564
 B64 B 0.79038 0.78480 0.76796
 B65 B 0.80490 0.73030 0.74781
 B66 B 0.75731 0.69110 0.75430
 B67 B 0.72500 0.76690 0.71269
 B68 B 0.78340 0.77649 0.72222
 B69 B 0.76377 0.72032 0.71413
 B70 B 0.70732 0.71382 0.73180
 B71 B 0.69284 0.76830 0.75191
 B72 B 0.74041 0.80752 0.74547
 B73 B 1.23626 0.72026 0.28587
 B74 B 1.21662 0.77643 0.27778
 B75 B 1.27502 0.76685 0.28731
 B76 B 1.29270 0.71377 0.26820
 B77 B 1.24272 0.69104 0.24570
 B78 B 1.19513 0.73024 0.25220
 B79 B 1.26616 0.77817 0.21436
 B80 B 1.28566 0.72206 0.22254
 B81 B 1.22727 0.73163 0.21295
 B82 B 1.20964 0.78474 0.23204
 B83 B 1.25961 0.80747 0.25454
 B84 B 1.30718 0.76825 0.24810
 B85 B 0.77275 1.26834 0.21297
 B86 B 0.71437 1.27791 0.22256
 B87 B 0.73386 1.22180 0.21439
 B88 B 0.79038 1.21523 0.23206
 B89 B 0.80490 1.26973 0.25222
 B90 B 0.75730 1.30893 0.24573
 B91 B 0.72500 1.23312 0.28733
 B92 B 0.78340 1.22353 0.27780
 B93 B 0.76377 1.27971 0.28589
 B94 B 0.70732 1.28620 0.26822
 B95 B 0.69284 1.23172 0.24812
 B96 B 0.74041 1.19250 0.25456
 O97 O 0.44726 1.08980 0.03027
 O98 O 0.55275 0.91023 0.03028
 O99 O 0.40503 0.94136 0.02025
 O100 O 0.59499 1.05867 0.02024
 O101 O 0.46973 0.91721 0.04480
 O102 O 0.53028 1.08281 0.04479
 O103 O 0.58388 0.97824 0.04697
 O104 O 0.41613 1.02180 0.04697
 C105 C 0.42205 1.06579 0.05274
 C106 C 0.57796 0.93424 0.05275
 C107 C 0.42500 0.92027 0.04632
 C108 C 0.57501 1.07975 0.04631
 O109 O 0.55275 1.08979 -0.03025
 O110 O 0.44726 0.91022 -0.03025
 O111 O 0.40503 1.05867 -0.02022
 O112 O 0.59499 0.94135 -0.02022
 O113 O 0.53028 0.91721 -0.04477
 O114 O 0.46973 1.08281 -0.04477
 O115 O 0.58388 1.02179 -0.04695
 O116 O 0.41613 0.97822 -0.04695
 Co117 Co 0.50001 1.07837 0.00001
 Co118 Co 0.50001 0.92165 0.00001
 Co119 Co 0.41996 1.00001 0.00001
 Co120 Co 0.58005 1.00001 0.00001
 O121 O 0.50001 1.00001 0.00001
 C122 C 0.57796 1.06578 -0.05273
 C123 C 0.42205 0.93423 -0.05272
 C124 C 0.42500 1.07975 -0.04629
 C125 C 0.57501 0.92027 -0.04629
 O126 O 0.94610 0.59094 0.52891
 O127 O 1.05391 0.40909 0.52893
 O128 O 0.90587 0.44216 0.52172
 O129 O 1.09415 0.55787 0.52171
 O130 O 0.97113 0.41700 0.54522
 O131 O 1.02889 0.58303 0.54521
 O132 O 1.08374 0.47695 0.54667
 O133 O 0.91628 0.52309 0.54666
 C134 C 0.92104 0.56734 0.55166
 C135 C 1.07898 0.43271 0.55167
 C136 C 0.92653 0.42113 0.54757
 C137 C 1.07348 0.57889 0.54756
 O138 O 1.05391 0.59093 0.47110
 O139 O 0.94610 0.40908 0.47111
 O140 O 0.90587 0.55786 0.47830
 O141 O 1.09415 0.44215 0.47831
 O142 O 1.02889 0.41699 0.45481
 O143 O 0.97113 0.58303 0.45480
 O144 O 1.08374 0.52308 0.45336
 O145 O 0.91627 0.47693 0.45336
 Co146 Co 1.00001 0.57875 0.50001
 Co147 Co 1.00001 0.42127 0.50002
 Co148 Co 0.92021 0.50001 0.50001
 Co149 Co 1.07980 0.50001 0.50001
 O150 O 1.00001 0.50001 0.50001
 C151 C 1.07898 0.56732 0.44836
 C152 C 0.92104 0.43269 0.44837
 C153 C 0.92653 0.57889 0.45245
 C154 C 1.07348 0.42113 0.45246
 O155 O 1.03578 0.44543 0.06980
 O156 O 1.03579 0.55459 -0.06978
 O157 O 1.03086 0.40630 -0.04328
 O158 O 1.03087 0.59372 0.04330
 O159 O 1.06003 0.47228 -0.06316
 O160 O 1.06003 0.52774 0.06318
 O161 O 1.06128 0.58422 -0.01895
 O162 O 1.06128 0.41580 0.01897
 C163 C 1.06704 0.42130 0.05271
 C164 C 1.06704 0.57872 -0.05269
 C165 C 1.06380 0.42773 -0.06020
 C166 C 1.06381 0.57229 0.06023
 O167 O 0.96416 0.55459 0.06980
 O168 O 0.96416 0.44544 -0.06978
 O169 O 0.96908 0.40630 0.04330
 O170 O 0.96909 0.59373 -0.04328
 O171 O 0.93992 0.52775 -0.06316
 O172 O 0.93992 0.47228 0.06318
 O173 O 0.93867 0.58422 0.01898
 O174 O 0.93867 0.41580 -0.01896
 Co175 Co 0.99997 0.50001 0.05997
 Co176 Co 0.99997 0.50001 -0.05995
 Co177 Co 0.99997 0.42018 0.00001
 Co178 Co 0.99998 0.57984 0.00001
 O179 O 0.99997 0.50001 0.00001
 C180 C 0.93291 0.57872 0.05272
 C181 C 0.93291 0.42131 -0.05269
 C182 C 0.93615 0.42772 0.06022
 C183 C 0.93615 0.57230 -0.06020
 O184 O 0.56005 0.97232 0.56319
 O185 O 0.56005 1.02770 0.43683
 O186 O 0.56131 0.91579 0.48097
 O187 O 0.56131 1.08423 0.51906
 O188 O 0.53574 0.94540 0.43016
 O189 O 0.53574 1.05462 0.56986
 O190 O 0.53085 1.09362 0.45677
 O191 O 0.53085 0.90640 0.54325
 C192 C 0.56386 0.92780 0.56008
 C193 C 0.56386 1.07222 0.43994
 C194 C 0.56708 0.92135 0.44722
 C195 C 0.56709 1.07867 0.55280
 O196 O 0.43990 1.02771 0.56319
 O197 O 0.43990 0.97231 0.43683
 O198 O 0.43864 0.91579 0.51906
 O199 O 0.43864 1.08423 0.48096
 O200 O 0.46421 1.05461 0.43016
 O201 O 0.46421 0.94541 0.56987
 O202 O 0.46910 1.09363 0.54324
 O203 O 0.46910 0.90639 0.45678
 Co204 Co 0.49997 1.00002 0.55999
 Co205 Co 0.49997 1.00001 0.44003
 Co206 Co 0.49998 0.92019 0.50001
 Co207 Co 0.49998 1.07983 0.50001
 O208 O 0.49998 1.00001 0.50001
 C209 C 0.43609 1.07224 0.56008
 C210 C 0.43609 0.92779 0.43994
 C211 C 0.43287 0.92136 0.55281
 C212 C 0.43287 1.07867 0.44721
 O213 O 1.08889 1.04301 0.46136
 O214 O 0.91127 1.04298 0.53869
 O215 O 0.94042 1.02291 0.42840
 O216 O 1.05974 1.02283 0.57163
 O217 O 0.91661 1.05841 0.47565
 O218 O 1.08351 1.05838 0.52441
 O219 O 0.98016 1.06227 0.56334
 O220 O 1.02000 1.06236 0.43675
 C221 C 1.06385 1.07140 0.44162
 C222 C 0.93631 1.07133 0.55846
 C223 C 0.92114 1.05901 0.44183
 C224 C 1.07900 1.05895 0.55822
 O225 O 1.08888 0.95701 0.53866
 O226 O 0.91126 0.95705 0.46133
 O227 O 1.05973 0.97719 0.42840
 O228 O 0.94042 0.97711 0.57162
 O229 O 0.91661 0.94162 0.52438
 O230 O 1.08352 0.94163 0.47562
 O231 O 1.01999 0.93767 0.56328
 O232 O 0.98015 0.93775 0.43669
 Co233 Co 1.07865 1.00001 0.50001
 Co234 Co 0.92149 1.00001 0.50001
 Co235 Co 1.00008 1.00005 0.43941
 Co236 Co 1.00008 0.99997 0.56062
 O237 O 1.00008 1.00001 0.50001
 C238 C 1.06384 0.92862 0.55840
 C239 C 0.93630 0.92870 0.44157
 C240 C 1.07900 0.94107 0.44180
 C241 C 0.92113 0.94102 0.55820
 O242 O 0.58362 0.55867 -0.02388
 O243 O 0.41650 0.55869 0.02388
 O244 O 0.47943 0.56219 -0.06336
 O245 O 0.52071 0.56228 0.06332
 O246 O 0.41065 0.54225 -0.03905
 O247 O 0.58949 0.54229 0.03904
 O248 O 0.44074 0.52369 0.07126
 O249 O 0.55941 0.52360 -0.07125
 C250 C 0.57838 0.55973 -0.05762
 C251 C 0.42175 0.55980 0.05762
 C252 C 0.43541 0.57075 -0.05883
 C253 C 0.56473 0.57083 0.05880
 O254 O 0.58362 0.44135 0.02391
 O255 O 0.41650 0.44133 -0.02385
 O256 O 0.52071 0.43774 -0.06330
 O257 O 0.47943 0.43784 0.06339
 O258 O 0.41065 0.45778 0.03907
 O259 O 0.58950 0.45773 -0.03901
 O260 O 0.55941 0.47642 0.07127
 O261 O 0.44074 0.47633 -0.07124
 Co262 Co 0.57887 0.50001 0.00001
 Co263 Co 0.42127 0.50001 0.00001
 Co264 Co 0.50007 0.49997 -0.06056
 Co265 Co 0.50007 0.50005 0.06059
 O266 O 0.50007 0.50001 0.00001
 C267 C 0.57837 0.44029 0.05765
 C268 C 0.42175 0.44023 -0.05759
 C269 C 0.56473 0.42919 -0.05878
 C270 C 0.43541 0.42927 0.05886
 C271 C 0.33461 1.14195 0.13175
 C272 C 0.37026 1.16668 0.11157
 C273 C 0.39982 1.14147 0.08676
 C274 C 0.28530 1.19061 0.18209
 C275 C 0.35878 1.06630 0.10275
 C276 C 0.32921 1.09166 0.12763
 C277 C 0.30611 1.16803 0.15842
 C278 C 0.39413 1.09109 0.08183
 H279 H 0.37522 1.20549 0.11504
 H280 H 0.42669 1.16157 0.07105
 H281 H 0.35344 1.02755 0.09941
 H282 H 0.30218 1.07212 0.14359
 C283 C 0.83125 0.64374 0.62940
 C284 C 0.82785 0.59311 0.62654
 C285 C 0.85797 0.56783 0.60194
 C286 C 0.78236 0.69199 0.68040
 C287 C 0.89552 0.64381 0.58351
 C288 C 0.86538 0.66894 0.60803
 C289 C 0.80283 0.66969 0.65632
 C290 C 0.89200 0.59300 0.58003
 H291 H 0.80208 0.57317 0.64341
 H292 H 0.85426 0.52875 0.59975
 H293 H 0.92126 0.66425 0.56699
 H294 H 0.86887 0.70803 0.61048
 C295 C 0.66540 0.85811 0.13176
 C296 C 0.62977 0.83337 0.11158
 C297 C 0.60020 0.85857 0.08677
 C298 C 0.71472 0.80946 0.18211
 C299 C 0.64122 0.93376 0.10276
 C300 C 0.67080 0.90840 0.12764
 C301 C 0.69391 0.83204 0.15843
 C302 C 0.60588 0.90896 0.08184
 H303 H 0.62481 0.79456 0.11505
 H304 H 0.57334 0.83846 0.07106
 H305 H 0.64656 0.97251 0.09942
 H306 H 0.69783 0.92795 0.14361
 C307 C 1.16877 0.35633 0.62942
 C308 C 1.17217 0.40696 0.62655
 C309 C 1.14204 0.43223 0.60195
 C310 C 1.21766 0.30809 0.68042
 C311 C 1.10450 0.35624 0.58353
 C312 C 1.13464 0.33112 0.60806
 C313 C 1.19720 0.33038 0.65634
 C314 C 1.10801 0.40705 0.58005
 H315 H 1.19793 0.42690 0.64342
 H316 H 1.14575 0.47131 0.59976
 H317 H 1.07876 0.33580 0.56702
 H318 H 1.13115 0.29203 0.61051
 C319 C 0.66540 1.14191 -0.13174
 C320 C 0.62977 1.16665 -0.11156
 C321 C 0.60020 1.14145 -0.08674
 C322 C 0.71472 1.19056 -0.18208
 C323 C 0.64122 1.06627 -0.10273
 C324 C 0.67080 1.09163 -0.12762
 C325 C 0.69391 1.16799 -0.15841
 C326 C 0.60588 1.09107 -0.08182
 H327 H 0.62481 1.20546 -0.11503
 H328 H 0.57334 1.16156 -0.07104
 H329 H 0.64656 1.02752 -0.09940
 H330 H 0.69783 1.07208 -0.14358
 C331 C 1.16877 0.64370 0.37061
 C332 C 1.13464 0.66890 0.39197
 C333 C 1.10450 0.64378 0.41649
 C334 C 1.21766 0.69194 0.31960
 C335 C 1.14204 0.56780 0.39807
 C336 C 1.17217 0.59306 0.37347
 C337 C 1.19720 0.66964 0.34368
 C338 C 1.10801 0.59298 0.41998
 H339 H 1.13115 0.70800 0.38951
 H340 H 1.07875 0.66423 0.43301
 H341 H 1.14575 0.52872 0.40026
 H342 H 1.19793 0.57313 0.35661
 C343 C 0.33461 0.85808 -0.13173
 C344 C 0.37026 0.83335 -0.11155
 C345 C 0.39982 0.85855 -0.08673
 C346 C 0.28530 0.80941 -0.18207
 C347 C 0.35878 0.93373 -0.10272
 C348 C 0.32921 0.90836 -0.12761
 C349 C 0.30611 0.83199 -0.15840
 C350 C 0.39413 0.90894 -0.08181
 H351 H 0.37522 0.79454 -0.11502
 H352 H 0.42669 0.83845 -0.07103
 H353 H 0.35344 0.97248 -0.09939
 H354 H 0.30217 0.92790 -0.14357
 C355 C 0.83125 0.35629 0.37063
 C356 C 0.86538 0.33109 0.39199
 C357 C 0.89552 0.35622 0.41652
 C358 C 0.78237 0.30803 0.31962
 C359 C 0.85797 0.43219 0.39808
 C360 C 0.82784 0.40692 0.37349
 C361 C 0.80283 0.33033 0.34370
 C362 C 0.89200 0.40702 0.41999
 H363 H 0.86887 0.29199 0.38954
 H364 H 0.92127 0.33578 0.43303
 H365 H 0.85426 0.47127 0.40027
 H366 H 0.80208 0.42685 0.35662
 C367 C 1.16233 0.33788 0.12233
 C368 C 1.14581 0.38377 0.13328
 C369 C 1.11728 0.41187 0.10954
 C370 C 1.20532 0.28636 0.17514
 C371 C 1.12362 0.34982 0.06232
 C372 C 1.15204 0.32133 0.08644
 C373 C 1.18671 0.30779 0.14952
 C374 C 1.10480 0.39484 0.07413
 H375 H 1.15349 0.39719 0.16084
 H376 H 1.10343 0.44635 0.11944
 H377 H 1.11421 0.33559 0.03534
 H378 H 1.16454 0.28588 0.07755
 C379 C 0.66010 0.84101 0.62558
 C380 C 0.65945 0.89160 0.63027
 C381 C 0.63022 0.92072 0.60758
 C382 C 0.70236 0.78837 0.67747
 C383 C 0.60420 0.84880 0.57429
 C384 C 0.63335 0.81984 0.59697
 C385 C 0.68385 0.81093 0.65263
 C386 C 0.60113 0.89934 0.58010
 H387 H 0.67993 0.90832 0.65249
 H388 H 0.62858 0.95945 0.61268
 H389 H 0.58246 0.83131 0.55314
 H390 H 0.63346 0.78079 0.59315
 C391 C 1.16233 0.66214 -0.12231
 C392 C 1.14581 0.61625 -0.13326
 C393 C 1.11729 0.58815 -0.10952
 C394 C 1.20533 0.71366 -0.17511
 C395 C 1.12362 0.65020 -0.06230
 C396 C 1.15204 0.67870 -0.08642
 C397 C 1.18671 0.69223 -0.14950
 C398 C 1.10480 0.60518 -0.07411
 H399 H 1.15350 0.60283 -0.16082
 H400 H 1.10343 0.55367 -0.11942
 H401 H 1.11422 0.66443 -0.03532
 H402 H 1.16454 0.71414 -0.07753
 C403 C 0.66010 1.15901 0.37444
 C404 C 0.63336 1.18018 0.40305
 C405 C 0.60420 1.15122 0.42574
 C406 C 0.70236 1.21165 0.32255
 C407 C 0.63022 1.07930 0.39245
 C408 C 0.65945 1.10842 0.36975
 C409 C 0.68386 1.18909 0.34739
 C410 C 0.60113 1.10068 0.41992
 H411 H 0.63346 1.21923 0.40687
 H412 H 0.58246 1.16871 0.44688
 H413 H 0.62858 1.04057 0.38734
 H414 H 0.67993 1.09170 0.34753
 C415 C 0.83766 0.66217 0.12234
 C416 C 0.84795 0.67873 0.08645
 C417 C 0.87636 0.65022 0.06233
 C418 C 0.79469 0.71371 0.17515
 C419 C 0.88267 0.58817 0.10954
 C420 C 0.85416 0.61628 0.13329
 C421 C 0.81330 0.69227 0.14953
 C422 C 0.89516 0.60520 0.07414
 H423 H 0.83547 0.71418 0.07756
 H424 H 0.88577 0.66445 0.03535
 H425 H 0.89651 0.55368 0.11944
 H426 H 0.84647 0.60286 0.16085
 C427 C 0.33990 1.15905 0.62560
 C428 C 0.34055 1.10846 0.63030
 C429 C 0.36976 1.07934 0.60760
 C430 C 0.29767 1.21170 0.67749
 C431 C 0.39576 1.15124 0.57428
 C432 C 0.36662 1.18021 0.59698
 C433 C 0.31616 1.18914 0.65265
 C434 C 0.39883 1.10070 0.58010
 H435 H 0.32008 1.09175 0.65253
 H436 H 0.37140 1.04060 0.61271
 H437 H 0.41749 1.16872 0.55312
 H438 H 0.36652 1.21926 0.59314
 C439 C 0.83765 0.33785 -0.12232
 C440 C 0.84795 0.32130 -0.08643
 C441 C 0.87636 0.34981 -0.06231
 C442 C 0.79469 0.28631 -0.17513
 C443 C 0.88267 0.41186 -0.10952
 C444 C 0.85415 0.38375 -0.13326
 C445 C 0.81329 0.30776 -0.14951
 C446 C 0.89516 0.39483 -0.07411
 H447 H 0.83547 0.28584 -0.07754
 H448 H 0.88577 0.33557 -0.03532
 H449 H 0.89651 0.44635 -0.11942
 H450 H 0.84646 0.39717 -0.16082
 C451 C 0.33990 0.84098 0.37443
 C452 C 0.36662 0.81981 0.40304
 C453 C 0.39576 0.84878 0.42574
 C454 C 0.29766 0.78832 0.32253
 C455 C 0.36975 0.92069 0.39243
 C456 C 0.34054 0.89157 0.36973
 C457 C 0.31616 0.81089 0.34737
 C458 C 0.39883 0.89932 0.41992
 H459 H 0.36651 0.78077 0.40688
 H460 H 0.41749 0.83130 0.44690
 H461 H 0.37140 0.95942 0.38732
 H462 H 0.32007 0.90828 0.34750
 C463 C 1.13390 1.16012 0.36187
 C464 C 1.16183 1.13501 0.38792
 C465 C 1.13899 1.10934 0.41624
 C466 C 1.17989 1.19864 0.30532
 C467 C 1.06037 1.13700 0.39402
 C468 C 1.08332 1.16259 0.36562
 C469 C 1.15754 1.18129 0.33057
 C470 C 1.08791 1.10839 0.41857
 H471 H 1.20115 1.13354 0.38540
 H472 H 1.16118 1.08781 0.43480
 H473 H 1.02105 1.13753 0.39553
 H474 H 1.06156 1.18264 0.34583
 C475 C 0.63763 0.65633 -0.13731
 C476 C 0.59402 0.63226 -0.14420
 C477 C 0.57349 0.60335 -0.11694
 C478 C 0.68334 0.69755 -0.19294
 C479 C 0.63819 0.62523 -0.07441
 C480 C 0.65924 0.65398 -0.10216
 C481 C 0.66200 0.67934 -0.16753
 C482 C 0.59598 0.59840 -0.08220
 H483 H 0.57709 0.63389 -0.17124
 H484 H 0.54098 0.58306 -0.12372
 H485 H 0.65636 0.62153 -0.04799
 H486 H 0.69329 0.67257 -0.09676
 C487 C 0.86620 1.16007 0.63819
 C488 C 0.83829 1.13504 0.61207
 C489 C 0.86116 1.10935 0.58377
 C490 C 0.82014 1.19859 0.69469
 C491 C 0.93977 1.13686 0.60613
 C492 C 0.91679 1.16245 0.63451
 C493 C 0.84252 1.18124 0.66947
 C494 C 0.91225 1.10832 0.58152
 H495 H 0.79897 1.13363 0.61454
 H496 H 0.83898 1.08789 0.56516
 H497 H 0.97910 1.13732 0.60468
 H498 H 0.93854 1.18243 0.65435
 C499 C 0.36241 0.65635 0.13729
 C500 C 0.34076 0.65391 0.10216
 C501 C 0.36184 0.62519 0.07441
 C502 C 0.31669 0.69751 0.19293
 C503 C 0.42667 0.60353 0.11688
 C504 C 0.40610 0.63241 0.14415
 C505 C 0.33803 0.67932 0.16752
 C506 C 0.40412 0.59848 0.08217
 H507 H 0.30665 0.67241 0.09679
 H508 H 0.34363 0.62142 0.04801
 H509 H 0.45923 0.58332 0.12364
 H510 H 0.42307 0.63412 0.17117
 C511 C 1.13389 0.83990 0.63816
 C512 C 1.08331 0.83743 0.63441
 C513 C 1.06036 0.86302 0.60601
 C514 C 1.17989 0.80139 0.69470
 C515 C 1.13898 0.89067 0.58378
 C516 C 1.16182 0.86500 0.61210
 C517 C 1.15753 0.81873 0.66946
 C518 C 1.08790 0.89163 0.58146
 H519 H 1.06155 0.81739 0.65421
 H520 H 1.02104 0.86249 0.60450
 H521 H 1.16117 0.91219 0.56521
 H522 H 1.20114 0.86646 0.61462
 C523 C 0.63763 0.34369 0.13733
 C524 C 0.65923 0.34604 0.10218
 C525 C 0.63818 0.37479 0.07444
 C526 C 0.68334 0.30247 0.19296
 C527 C 0.57349 0.39667 0.11696
 C528 C 0.59402 0.36776 0.14423
 C529 C 0.66199 0.32068 0.16755
 C530 C 0.59598 0.40162 0.08222
 H531 H 0.69328 0.32744 0.09679
 H532 H 0.65635 0.37848 0.04801
 H533 H 0.54098 0.41696 0.12374
 H534 H 0.57709 0.36613 0.17127
 C535 C 0.86620 0.83996 0.36184
 C536 C 0.91679 0.83757 0.36552
 C537 C 0.93976 0.86317 0.39390
 C538 C 0.82014 0.80144 0.30533
 C539 C 0.86115 0.89069 0.41625
 C540 C 0.83829 0.86500 0.38795
 C541 C 0.84252 0.81879 0.33056
 C542 C 0.91224 0.89171 0.41851
 H543 H 0.93853 0.81759 0.34568
 H544 H 0.97909 0.86270 0.39535
 H545 H 0.83897 0.91215 0.43486
 H546 H 0.79896 0.86641 0.38548
 C547 C 0.36241 0.34367 -0.13726
 C548 C 0.40610 0.36762 -0.14412
 C549 C 0.42666 0.39650 -0.11685
 C550 C 0.31669 0.30252 -0.19291
 C551 C 0.36183 0.37483 -0.07438
 C552 C 0.34075 0.34611 -0.10213
 C553 C 0.33803 0.32070 -0.16749
 C554 C 0.40412 0.40154 -0.08214
 H555 H 0.42307 0.36591 -0.17115
 H556 H 0.45923 0.41670 -0.12361
 H557 H 0.34362 0.37861 -0.04798
 H558 H 0.30664 0.32762 -0.09676
 C559 C 1.16087 0.34175 -0.12590
 C560 C 1.13330 0.32009 -0.09795
 C561 C 1.10373 0.34868 -0.07527
 C562 C 1.20435 0.28982 -0.17773
 C563 C 1.13083 0.42118 -0.10728
 C564 C 1.16047 0.39244 -0.12997
 C565 C 1.18534 0.31211 -0.15293
 C566 C 1.10107 0.39938 -0.08040
 H567 H 1.13316 0.28097 -0.09461
 H568 H 1.08145 0.33083 -0.05462
 H569 H 1.12954 0.46004 -0.11187
 H570 H 1.18155 0.40956 -0.15168
 C571 C 0.66342 0.83898 0.37747
 C572 C 0.65327 0.82227 0.41336
 C573 C 0.62444 0.85039 0.43749
 C574 C 0.70730 0.78804 0.32467
 C575 C 0.61735 0.91237 0.39031
 C576 C 0.64626 0.88466 0.36655
 C577 C 0.68833 0.80926 0.35026
 C578 C 0.60506 0.89519 0.42573
 H579 H 0.66623 0.78699 0.42224
 H580 H 0.61523 0.83602 0.46447
 H581 H 0.60309 0.94669 0.38042
 H582 H 0.65379 0.89822 0.33901
 C583 C 0.83912 0.65831 -0.12591
 C584 C 0.86668 0.67996 -0.09795
 C585 C 0.89623 0.65135 -0.07527
 C586 C 0.79567 0.71025 -0.17775
 C587 C 0.86915 0.57886 -0.10730
 C588 C 0.83953 0.60762 -0.12999
 C589 C 0.81466 0.68795 -0.15295
 C590 C 0.89890 0.60066 -0.08041
 H591 H 0.86681 0.71908 -0.09460
 H592 H 0.91849 0.66920 -0.05461
 H593 H 0.87044 0.54001 -0.11190
 H594 H 0.81846 0.59050 -0.15171
 C595 C 0.33657 1.16107 0.37746
 C596 C 0.34673 1.17778 0.41335
 C597 C 0.37554 1.14966 0.43748
 C598 C 0.29271 1.21203 0.32465
 C599 C 0.38261 1.08766 0.39031
 C600 C 0.35371 1.11539 0.36655
 C601 C 0.31168 1.19080 0.35025
 C602 C 0.39490 1.10484 0.42572
 H603 H 0.33379 1.21307 0.42223
 H604 H 0.38476 1.16403 0.46446
 H605 H 0.39685 1.05333 0.38042
 H606 H 0.34617 1.10183 0.33900
 C607 C 1.16088 0.65827 0.12592
 C608 C 1.13331 0.67993 0.09797
 C609 C 1.10374 0.65134 0.07529
 C610 C 1.20435 0.71020 0.17775
 C611 C 1.13083 0.57884 0.10730
 C612 C 1.16046 0.60758 0.12999
 C613 C 1.18535 0.68791 0.15295
 C614 C 1.10107 0.60064 0.08043
 H615 H 1.13317 0.71905 0.09462
 H616 H 1.08147 0.66918 0.05464
 H617 H 1.12954 0.53998 0.11190
 H618 H 1.18155 0.59046 0.15171
 C619 C 0.66342 1.16104 0.62256
 C620 C 0.64626 1.11536 0.63347
 C621 C 0.61735 1.08765 0.60971
 C622 C 0.70730 1.21199 0.67536
 C623 C 0.62444 1.14964 0.56253
 C624 C 0.65327 1.17775 0.58667
 C625 C 0.68833 1.19076 0.64976
 C626 C 0.60506 1.10483 0.57430
 H627 H 0.65380 1.10181 0.66101
 H628 H 0.60309 1.05333 0.61960
 H629 H 0.61523 1.16401 0.53555
 H630 H 0.66623 1.21303 0.57778
 C631 C 0.83912 0.34172 0.12594
 C632 C 0.86667 0.32007 0.09797
 C633 C 0.89622 0.34867 0.07529
 C634 C 0.79567 0.28977 0.17777
 C635 C 0.86915 0.42116 0.10732
 C636 C 0.83953 0.39241 0.13002
 C637 C 0.81466 0.31207 0.15297
 C638 C 0.89889 0.39936 0.08043
 H639 H 0.86680 0.28095 0.09462
 H640 H 0.91848 0.33083 0.05463
 H641 H 0.87045 0.46002 0.11193
 H642 H 0.81846 0.40953 0.15174
 C643 C 0.33657 0.83896 0.62257
 C644 C 0.35371 0.88464 0.63348
 C645 C 0.38261 0.91236 0.60972
 C646 C 0.29271 0.78799 0.67537
 C647 C 0.37554 0.85037 0.56254
 C648 C 0.34673 0.82225 0.58668
 C649 C 0.31167 0.80922 0.64977
 C650 C 0.39490 0.89518 0.57430
 H651 H 0.34617 0.89820 0.66102
 H652 H 0.39685 0.94669 0.61960
 H653 H 0.38476 0.83600 0.53556
 H654 H 0.33378 0.78696 0.57780
 C655 C 0.33691 1.15051 -0.12830
 C656 C 0.38749 1.15779 -0.12799
 C657 C 0.41665 1.13436 -0.10169
 C658 C 0.28574 1.19456 -0.18034
 C659 C 0.34460 1.09618 -0.07605
 C660 C 0.31561 1.11950 -0.10237
 C661 C 0.30744 1.17417 -0.15587
 C662 C 0.39540 1.10348 -0.07531
 H663 H 0.40438 1.18161 -0.14810
 H664 H 0.45558 1.14071 -0.10174
 H665 H 0.32715 1.07247 -0.05617
 H666 H 0.27664 1.11334 -0.10247
 C667 C 0.83973 0.64880 0.36959
 C668 C 0.88993 0.65796 0.37129
 C669 C 0.91880 0.63458 0.39776
 C670 C 0.78855 0.69343 0.31803
 C671 C 0.84719 0.59263 0.42063
 C672 C 0.81852 0.61588 0.39414
 C673 C 0.81045 0.67273 0.34217
 C674 C 0.89756 0.60197 0.42288
 H675 H 0.90669 0.68332 0.35223
 H676 H 0.95740 0.64250 0.39894
 H677 H 0.82983 0.56749 0.43952
 H678 H 0.77983 0.60829 0.39289
 C679 C 0.66310 1.15048 0.12834
 C680 C 0.61252 1.15775 0.12803
 C681 C 0.58336 1.13433 0.10172
 C682 C 0.71427 1.19452 0.18039
 C683 C 0.65541 1.09618 0.07607
 C684 C 0.68440 1.11948 0.10239
 C685 C 0.69258 1.17413 0.15591
 C686 C 0.60461 1.10347 0.07534
 H687 H 0.59564 1.18156 0.14815
 H688 H 0.54443 1.14068 0.10178
 H689 H 0.67286 1.07248 0.05618
 H690 H 0.72338 1.11333 0.10249
 C691 C 1.16029 0.64878 0.63043
 C692 C 1.18150 0.61585 0.60589
 C693 C 1.15282 0.59261 0.57940
 C694 C 1.21147 0.69338 0.68201
 C695 C 1.08122 0.63458 0.60225
 C696 C 1.11009 0.65795 0.62873
 C697 C 1.18957 0.67269 0.65786
 C698 C 1.10246 0.60196 0.57713
 H699 H 1.22018 0.60825 0.60714
 H700 H 1.17017 0.56747 0.56051
 H701 H 1.04262 0.64251 0.60107
 H702 H 1.09333 0.68332 0.64779
 C703 C 0.66310 0.84954 -0.12831
 C704 C 0.68440 0.88054 -0.10237
 C705 C 0.65541 0.90384 -0.07605
 C706 C 0.71427 0.80550 -0.18036
 C707 C 0.58336 0.86569 -0.10170
 C708 C 0.61252 0.84227 -0.12801
 C709 C 0.69258 0.82589 -0.15589
 C710 C 0.60461 0.89655 -0.07531
 H711 H 0.72337 0.88669 -0.10247
 H712 H 0.67286 0.92754 -0.05616
 H713 H 0.54443 0.85934 -0.10176
 H714 H 0.59563 0.81846 -0.14813
 C715 C 1.16029 0.35125 0.36959
 C716 C 1.18150 0.38417 0.39414
 C717 C 1.15282 0.40741 0.42063
 C718 C 1.21147 0.30664 0.31802
 C719 C 1.08122 0.36544 0.39777
 C720 C 1.11009 0.34207 0.37129
 C721 C 1.18956 0.32733 0.34216
 C722 C 1.10246 0.39806 0.42289
 H723 H 1.22018 0.39176 0.39289
 H724 H 1.17018 0.43255 0.43952
 H725 H 1.04261 0.35752 0.39895
 H726 H 1.09333 0.31671 0.35223
 C727 C 0.33691 0.84952 0.12832
 C728 C 0.38749 0.84224 0.12802
 C729 C 0.41665 0.86567 0.10171
 C730 C 0.28574 0.80546 0.18037
 C731 C 0.34460 0.90384 0.07607
 C732 C 0.31561 0.88052 0.10239
 C733 C 0.30743 0.82586 0.15589
 C734 C 0.39540 0.89654 0.07534
 H735 H 0.40438 0.81842 0.14813
 H736 H 0.45558 0.85932 0.10177
 H737 H 0.32715 0.92755 0.05619
 H738 H 0.27664 0.88668 0.10249
 C739 C 0.83973 0.35122 0.63043
 C740 C 0.81851 0.38415 0.60588
 C741 C 0.84719 0.40739 0.57940
 C742 C 0.78855 0.30660 0.68200
 C743 C 0.91879 0.36544 0.60226
 C744 C 0.88992 0.34206 0.62873
 C745 C 0.81045 0.32730 0.65786
 C746 C 0.89756 0.39806 0.57714
 H747 H 0.77983 0.39173 0.60713
 H748 H 0.82983 0.43253 0.56051
 H749 H 0.95740 0.35752 0.60109
 H750 H 0.90669 0.31670 0.64779
 C751 C 1.13954 1.15600 0.63759
 C752 C 1.09670 1.13086 0.64517
 C753 C 1.07588 1.10162 0.61818
 C754 C 1.18554 1.19879 0.69259
 C755 C 1.13880 1.12491 0.57461
 C756 C 1.16012 1.15405 0.60206
 C757 C 1.16411 1.17996 0.66742
 C758 C 1.09731 1.09725 0.58300
 H759 H 1.08050 1.13216 0.67248
 H760 H 1.04382 1.08090 0.62542
 H761 H 1.15615 1.12180 0.54783
 H762 H 1.19354 1.17344 0.59606
 C763 C 0.63572 0.66004 0.13835
 C764 C 0.66336 0.63329 0.11306
 C765 C 0.64032 0.60720 0.08501
 C766 C 0.68200 0.70012 0.19435
 C767 C 0.56207 0.63736 0.10596
 C768 C 0.58522 0.66338 0.13410
 C769 C 0.65956 0.68217 0.16931
 C770 C 0.58925 0.60743 0.08210
 H771 H 0.70260 0.63103 0.11591
 H772 H 0.66230 0.58465 0.06702
 H773 H 0.52283 0.63893 0.10394
 H774 H 0.56364 0.68464 0.15326
 C775 C 1.13954 0.84402 0.36244
 C776 C 1.16012 0.84597 0.39797
 C777 C 1.13880 0.87511 0.42541
 C778 C 1.18554 0.80123 0.30743
 C779 C 1.07587 0.89839 0.38185
 C780 C 1.09669 0.86915 0.35486
 C781 C 1.16411 0.82007 0.33261
 C782 C 1.09731 0.90276 0.41703
 H783 H 1.19354 0.82658 0.40396
 H784 H 1.15615 0.87822 0.45219
 H785 H 1.04381 0.91912 0.37461
 H786 H 1.08049 0.86786 0.32755
 C787 C 0.63572 0.33999 -0.13833
 C788 C 0.66336 0.36673 -0.11303
 C789 C 0.64032 0.39282 -0.08499
 C790 C 0.68200 0.29990 -0.19432
 C791 C 0.56207 0.36267 -0.10594
 C792 C 0.58522 0.33665 -0.13408
 C793 C 0.65955 0.31786 -0.16929
 C794 C 0.58925 0.39259 -0.08208
 H795 H 0.70260 0.36898 -0.11589
 H796 H 0.66230 0.41536 -0.06699
 H797 H 0.52283 0.36110 -0.10392
 H798 H 0.56363 0.31539 -0.15324
 C799 C 0.86051 1.15601 0.36247
 C800 C 0.83987 1.15397 0.39798
 C801 C 0.86122 1.12486 0.42543
 C802 C 0.81449 1.19874 0.30745
 C803 C 0.92429 1.10179 0.38192
 C804 C 0.90344 1.13100 0.35492
 C805 C 0.83592 1.17992 0.33263
 C806 C 0.90280 1.09732 0.41707
 H807 H 0.80639 1.17326 0.40395
 H808 H 0.84383 1.12167 0.45219
 H809 H 0.95641 1.08115 0.37470
 H810 H 0.91968 1.13237 0.32763
 C811 C 0.36437 0.65997 -0.13836
 C812 C 0.41489 0.66322 -0.13419
 C813 C 0.43806 0.63720 -0.10606
 C814 C 0.31803 0.70007 -0.19432
 C815 C 0.35982 0.60720 -0.08498
 C816 C 0.33675 0.63329 -0.11301
 C817 C 0.34050 0.68211 -0.16930
 C818 C 0.41089 0.60735 -0.08214
 H819 H 0.43646 0.68442 -0.15339
 H820 H 0.47731 0.63870 -0.10411
 H821 H 0.33784 0.58471 -0.06694
 H822 H 0.29750 0.63110 -0.11581
 C823 C 0.86050 0.84402 0.63755
 C824 C 0.83987 0.84606 0.60204
 C825 C 0.86122 0.87517 0.57459
 C826 C 0.81448 0.80128 0.69257
 C827 C 0.92428 0.89824 0.61811
 C828 C 0.90343 0.86903 0.64510
 C829 C 0.83592 0.82010 0.66739
 C830 C 0.90279 0.90270 0.58295
 H831 H 0.80639 0.82676 0.59607
 H832 H 0.84383 0.87836 0.54783
 H833 H 0.95640 0.91888 0.62533
 H834 H 0.91967 0.86767 0.67239
 C835 C 0.36437 0.34006 0.13838
 C836 C 0.41488 0.33680 0.13421
 C837 C 0.43806 0.36283 0.10609
 C838 C 0.31803 0.29996 0.19434
 C839 C 0.35982 0.39283 0.08500
 C840 C 0.33675 0.36673 0.11303
 C841 C 0.34049 0.31792 0.16932
 C842 C 0.41089 0.39268 0.08216
 H843 H 0.43646 0.31560 0.15342
 H844 H 0.47731 0.36132 0.10413
 H845 H 0.33784 0.41532 0.06696
 H846 H 0.29750 0.36893 0.11583
   
