data_POSCAR
  _audit_creation_date              2014-09-24
  _audit_creation_method            'ToBaCCo'
  _symmetry_space_group_name_H-M    'P1'
  _symmetry_Int_Tables_number       1
  _symmetry_cell_setting            triclinic
  loop_
  _symmetry_equiv_pos_as_xyz
 x,y,z
_cell_length_a 19.1708
_cell_length_b 20.7105
_cell_length_c 20.5439
_cell_angle_alpha 72.122200
_cell_angle_beta 89.778700
_cell_angle_gamma 100.437100
loop_
  _atom_site_label
  _atom_site_type_symbol
  _atom_site_fract_x
  _atom_site_fract_y
  _atom_site_fract_z
O1 O 0.61455 0.52887 0.04176
 O2 O 0.42543 0.45516 0.05297
 O3 O 0.53765 0.41180 0.03528
 O4 O 0.49747 0.57231 0.05463
 O5 O 0.49780 0.61605 -0.05803
 O6 O 0.53712 0.45589 -0.07722
 O7 O 0.42234 0.50061 -0.05916
 O8 O 0.61390 0.57324 -0.07066
 Cu9 Cu 0.51999 0.48782 0.05748
 Cu10 Cu 0.51825 0.54051 -0.07784
 C11 C 0.64629 0.56448 -0.01574
 C12 C 0.39134 0.46591 -0.00081
 C13 C 0.54133 0.40572 -0.02421
 C14 C 0.49018 0.62122 0.00139
 O15 O -0.06914 0.56434 0.51081
 O16 O -0.07916 0.37557 0.54710
 O17 O -0.07224 0.45860 0.61896
 O18 O -0.09154 0.47673 0.43868
 O19 O 0.02448 0.49380 0.41793
 O20 O 0.04456 0.47542 0.60461
 O21 O 0.03733 0.39376 0.52808
 O22 O 0.04691 0.57972 0.49169
 Cu23 Cu -0.08943 0.46764 0.52995
 Cu24 Cu 0.04983 0.48800 0.50865
 C25 C -0.00833 0.60404 0.49628
 C26 C -0.02225 0.35288 0.54359
 C27 C -0.01176 0.46283 0.64340
 C28 C -0.03848 0.48573 0.39784
 O29 O 0.55199 0.06572 0.54879
 O30 O 0.51589 0.05299 0.37868
 O31 O 0.44977 0.09282 0.46606
 O32 O 0.60966 0.01445 0.46608
 O33 O 0.54220 -0.08869 0.51216
 O34 O 0.38399 -0.01121 0.51145
 O35 O 0.44984 -0.05107 0.42401
 O36 O 0.48532 -0.03762 0.59572
 Cu37 Cu 0.53819 0.06693 0.46042
 Cu38 Cu 0.45854 -0.05742 0.51573
 C39 C 0.52566 0.01616 0.60133
 C40 C 0.47768 -0.00102 0.37211
 C41 C 0.38951 0.05383 0.48803
 C42 C 0.60246 -0.05109 0.48904
 C43 C 0.50361 -0.10062 -0.11843
 C44 C 0.52414 -0.02905 -0.14835
 C45 C 0.52433 0.01424 -0.10774
 C46 C 0.49745 -0.01226 -0.03888
 C47 C 0.47229 -0.08430 -0.01153
 C48 C 0.48007 -0.12913 -0.04902
 C49 C 0.49773 0.03425 0.00482
 C50 C 0.49095 0.00640 0.07669
 C51 C 0.48916 0.04825 0.11822
 C52 C 0.50254 0.12021 0.08860
 C53 C 0.51311 0.15031 0.01719
 C54 C 0.50663 0.10678 -0.02413
 H55 H 0.50771 -0.13368 -0.14940
 H56 H 0.54467 0.06864 -0.13097
 H57 H 0.44663 -0.10631 0.03912
 H58 H 0.48857 -0.04798 0.10179
 H59 H 0.50401 0.15238 0.12137
 H60 H 0.50778 0.12993 -0.07875
 C61 C -0.09904 0.56845 1.11005
 C62 C -0.10241 0.58887 1.03874
 C63 C -0.05207 0.57415 0.99886
 C64 C -0.00437 0.53127 1.02938
 C65 C -0.00167 0.51077 1.10173
 C66 C -0.04828 0.53038 1.14203
 C67 C 0.03634 0.50304 0.98557
 C68 C 0.10177 0.48468 1.00431
 C69 C 0.13947 0.45754 0.96369
 C70 C 0.11383 0.45156 0.90148
 C71 C 0.04741 0.46771 0.88256
 C72 C 0.00879 0.49223 0.92527
 H73 H -0.13899 0.57849 1.14123
 H74 H -0.05437 0.59122 0.94379
 H75 H 0.03233 0.47558 1.12724
 H76 H 0.12437 0.49212 1.05030
 H77 H 0.14332 0.43065 0.87028
 H78 H -0.04349 0.50210 0.91138
 C79 C -0.12148 -0.16243 0.48458
 C80 C -0.04854 -0.16211 0.49067
 C81 C -0.00463 -0.10455 0.50152
 C82 C -0.03103 -0.04511 0.50083
 C83 C -0.10423 -0.04599 0.49150
 C84 C -0.15034 -0.10523 0.48668
 C85 C 0.01723 0.01705 0.51062
 C86 C -0.01108 0.06493 0.53389
 C87 C 0.03184 0.12565 0.53880
 C88 C 0.10560 0.13635 0.52487
 C89 C 0.13624 0.08813 0.50484
 C90 C 0.09164 0.02974 0.49624
 H91 H -0.15544 -0.20686 0.47694
 H92 H 0.05006 -0.10708 0.51202
 H93 H -0.12626 -0.00098 0.48869
 H94 H -0.06707 0.05568 0.54751
 H95 H 0.13941 0.18162 0.53110
 H96 H 0.11553 -0.00441 0.47649
 N97 N -0.17108 0.64451 0.94042
 N98 N -0.23836 0.63548 0.92517
 C99 C -0.27822 0.59493 0.98200
 C100 C -0.23503 0.57887 1.03589
 C101 C -0.16713 0.61013 1.00739
 H102 H -0.25001 0.54218 1.08644
 H103 H -0.12861 0.67037 0.90444
 H104 H -0.25584 0.65374 0.87597
 N105 N 0.21081 0.39897 1.05499
 N106 N 0.28285 0.40301 1.06544
 C107 C 0.31874 0.44098 1.00544
 C108 C 0.27146 0.45985 0.95526
 C109 C 0.20476 0.43417 0.98889
 H110 H 0.28390 0.49531 0.90377
 H111 H 0.17009 0.37859 1.09374
 H112 H 0.30381 0.38491 1.11306
 N113 N 0.05214 -0.21620 0.46908
 N114 N 0.06270 -0.28126 0.47013
 C115 C -0.00043 -0.32512 0.48663
 C116 C -0.05254 -0.28928 0.49603
 C117 C -0.01730 -0.22123 0.48531
 H118 H -0.10817 -0.31059 0.51112
 H119 H 0.09205 -0.17201 0.45638
 H120 H 0.11185 -0.29283 0.46072
 N121 N -0.06799 0.16888 0.58256
 N122 N -0.08245 0.22886 0.58280
 C123 C -0.02509 0.27859 0.55622
 C124 C 0.02841 0.24906 0.53855
 C125 C -0.00100 0.17915 0.55536
 H126 H 0.07984 0.27565 0.51314
 H127 H -0.10430 0.12224 0.60033
 H128 H -0.13122 0.23544 0.60002
 N129 N 0.58551 0.06265 -0.25288
 N130 N 0.58451 0.07544 -0.32350
 C131 C 0.54155 0.02110 -0.33434
 C132 C 0.51513 -0.02729 -0.27226
 C133 C 0.54331 0.00069 -0.22256
 H134 H 0.47761 -0.07526 -0.26439
 H135 H 0.61404 0.09625 -0.22930
 H136 H 0.61172 0.12007 -0.36030
 N137 N 0.43394 -0.04810 0.22208
 N138 N 0.43016 -0.06097 0.28918
 C139 C 0.46669 -0.00554 0.30332
 C140 C 0.49472 0.04487 0.24311
 C141 C 0.47303 0.01579 0.19264
 H142 H 0.52764 0.09488 0.23725
 H143 H 0.40932 -0.08248 0.19734
 H144 H 0.40343 -0.10704 0.32430
 N145 N 0.46160 -0.23607 0.05413
 N146 N 0.46521 -0.30195 0.06751
 C147 C 0.47460 -0.31434 0.00791
 C148 C 0.47609 -0.25438 -0.04570
 C149 C 0.46860 -0.20511 -0.01455
 H150 H 0.48643 -0.24742 -0.09942
 H151 H 0.45842 -0.21283 0.09220
 H152 H 0.46439 -0.33676 0.11675
 N153 N 0.55136 0.26062 -0.08078
 N154 N 0.56017 0.32789 -0.09125
 C155 C 0.54634 0.33851 -0.03155
 C156 C 0.52763 0.27549 0.01912
 C157 C 0.53061 0.22683 -0.01413
 H158 H 0.51057 0.26698 0.07182
 H159 H 0.55938 0.23918 -0.11935
 H160 H 0.57408 0.36559 -0.13886
 N161 N -0.27727 -0.16818 0.50440
 N162 N -0.34153 -0.15388 0.50589
 C163 C -0.33607 -0.08497 0.48935
 C164 C -0.26482 -0.05379 0.47647
 C165 C -0.22879 -0.10864 0.48687
 H166 H -0.24280 0.00084 0.46334
 H167 H -0.26743 -0.21841 0.51794
 H168 H -0.38825 -0.19115 0.51937
 N169 N 0.25888 0.16131 0.47324
 N170 N 0.32512 0.15229 0.46892
 C171 C 0.32510 0.08410 0.48607
 C172 C 0.25544 0.04809 0.50144
 C173 C 0.21482 0.09902 0.49279
 H174 H 0.23713 -0.00736 0.51769
 H175 H 0.24450 0.20964 0.46218
 H176 H 0.36948 0.19237 0.45473
 N177 N -0.11903 0.46005 1.24883
 N178 N -0.11701 0.45007 1.31521
 C179 C -0.05365 0.48245 1.32827
 C180 C -0.01264 0.51423 1.26662
 C181 C -0.05697 0.49889 1.21735
 H182 H 0.03893 0.54801 1.25826
 H183 H -0.16360 0.44290 1.22517
 H184 H -0.15955 0.42300 1.35078
 N185 N -0.05584 0.43071 0.82122
 N186 N -0.07073 0.42948 0.75905
 C187 C -0.01063 0.45224 0.71786
 C188 C 0.04595 0.46798 0.75630
 C189 C 0.01429 0.45425 0.82176
 H190 H 0.10088 0.48995 0.73854
 H191 H -0.09369 0.41613 0.86235
 H192 H -0.12195 0.41444 0.74496
   
