data_POSCAR
  _audit_creation_date              2014-09-24
  _audit_creation_method            'ToBaCCo'
  _symmetry_space_group_name_H-M    'P1'
  _symmetry_Int_Tables_number       1
  _symmetry_cell_setting            triclinic
  loop_
  _symmetry_equiv_pos_as_xyz
 x,y,z
_cell_length_a 39.0946
_cell_length_b 37.7231
_cell_length_c 38.8429
_cell_angle_alpha 90.261900
_cell_angle_beta 90.025000
_cell_angle_gamma 89.982200
loop_
  _atom_site_label
  _atom_site_type_symbol
  _atom_site_fract_x
  _atom_site_fract_y
  _atom_site_fract_z
C1 C 0.61063 0.65384 0.60924
 C2 C 0.64094 0.63956 0.59574
 C3 C 0.65581 0.61028 0.61105
 C4 C 0.64096 0.59535 0.64047
 C5 C 0.61099 0.60935 0.65371
 C6 C 0.59594 0.63904 0.63825
 C7 C 0.59033 0.68192 0.59954
 N8 N 0.56423 0.68482 0.62238
 C9 C 0.56745 0.65887 0.64622
 C10 C 0.60199 0.58910 0.68166
 N11 N 0.62620 0.56366 0.68615
 C12 C 0.65025 0.56742 0.66115
 C13 C 0.68432 0.60158 0.59203
 N14 N 0.68736 0.62528 0.56606
 C15 C 0.66113 0.64874 0.56815
 H16 H 0.59455 0.69938 0.57790
 H17 H 0.55020 0.65467 0.66761
 H18 H 0.57973 0.59297 0.69784
 H19 H 0.67260 0.55077 0.65793
 H20 H 0.70174 0.57983 0.59681
 H21 H 0.65679 0.67044 0.55053
 C22 C 0.89030 0.34380 0.10883
 C23 C 0.86094 0.35869 0.09401
 C24 C 0.84593 0.38830 0.10883
 C25 C 0.85967 0.40295 0.13906
 C26 C 0.88861 0.38819 0.15372
 C27 C 0.90378 0.35817 0.13873
 C28 C 0.91073 0.31559 0.09958
 N29 N 0.93580 0.31204 0.12360
 C30 C 0.93161 0.33787 0.14775
 C31 C 0.89680 0.40839 0.18216
 N32 N 0.87315 0.43451 0.18535
 C33 C 0.85022 0.43136 0.15929
 C34 C 0.81835 0.39739 0.08867
 N35 N 0.81596 0.37359 0.06251
 C36 C 0.84174 0.34973 0.06555
 H37 H 0.90729 0.29862 0.07728
 H38 H 0.94791 0.34199 0.16996
 H39 H 0.91818 0.40428 0.19942
 H40 H 0.82866 0.44884 0.15510
 H41 H 0.80096 0.41931 0.09297
 H42 H 0.84629 0.32772 0.04815
 C43 C 0.38910 0.15447 -0.10857
 C44 C 0.35914 0.13990 -0.09470
 C45 C 0.34438 0.11037 -0.10993
 C46 C 0.35898 0.09548 -0.13964
 C47 C 0.38861 0.10976 -0.15322
 C48 C 0.40354 0.13968 -0.13784
 C49 C 0.40924 0.18280 -0.09901
 N50 N 0.43501 0.18584 -0.12218
 C51 C 0.43173 0.15975 -0.14609
 C52 C 0.39747 0.08951 -0.18139
 N53 N 0.37349 0.06378 -0.18569
 C54 C 0.34974 0.06735 -0.16035
 C55 C 0.31623 0.10145 -0.09054
 N56 N 0.31330 0.12525 -0.06443
 C57 C 0.33923 0.14899 -0.06680
 H58 H 0.40517 0.20029 -0.07721
 H59 H 0.44876 0.15558 -0.16771
 H60 H 0.41946 0.09359 -0.19785
 H61 H 0.32763 0.05045 -0.15692
 H62 H 0.29897 0.07950 -0.09519
 H63 H 0.34355 0.17085 -0.04916
 C64 C 0.10929 0.84560 0.39056
 C65 C 0.13924 0.85984 0.40492
 C66 C 0.15469 0.88895 0.38989
 C67 C 0.14077 0.90374 0.35992
 C68 C 0.11120 0.88972 0.34582
 C69 C 0.09563 0.86016 0.36096
 C70 C 0.08847 0.81786 0.39997
 N71 N 0.06299 0.81475 0.37632
 C72 C 0.06727 0.84044 0.35228
 C73 C 0.10291 0.91000 0.31766
 N74 N 0.12715 0.93552 0.31392
 C75 C 0.15055 0.93173 0.33954
 C76 C 0.18269 0.89759 0.40971
 N77 N 0.18488 0.87400 0.43586
 C78 C 0.15859 0.85070 0.43313
 H79 H 0.09198 0.80083 0.42207
 H80 H 0.05076 0.84478 0.33030
 H81 H 0.08101 0.90620 0.30095
 H82 H 0.17269 0.94851 0.34350
 H83 H 0.20041 0.91915 0.40528
 H84 H 0.15371 0.82905 0.45067
 N85 N 0.08293 0.17829 0.10849
 N86 N 0.07193 0.16630 0.13824
 C87 C 0.04466 0.18559 0.14828
 C88 C 0.03790 0.21027 0.12308
 C89 C 0.06246 0.20489 0.09810
 H90 H 0.03039 0.18169 0.17180
 H91 H 0.06578 0.21994 0.07471
 Cu92 Cu 0.09335 0.12567 0.16010
 Cu93 Cu 0.12450 0.16042 0.08696
 Cu94 Cu 0.16403 0.08872 0.12591
 N95 N 0.11442 0.08385 0.18014
 N96 N 0.14323 0.07090 0.16794
 C97 C 0.15321 0.04348 0.18763
 C98 C 0.12889 0.03857 0.21289
 C99 C 0.10451 0.06437 0.20736
 H100 H 0.17582 0.02755 0.18328
 H101 H 0.08162 0.06883 0.22238
 N102 N 0.18107 0.11049 0.08320
 N103 N 0.16681 0.13869 0.06917
 C104 C 0.18533 0.14840 0.04152
 C105 C 0.21193 0.12470 0.03762
 C106 C 0.20845 0.10091 0.06425
 H107 H 0.17964 0.17066 0.02505
 H108 H 0.22509 0.07873 0.06972
 H109 H 0.11949 0.10928 0.10535
 H110 H 0.14677 0.14030 0.13101
 N111 N 0.41649 0.82063 0.60646
 N112 N 0.42974 0.83504 0.63432
 C113 C 0.45728 0.81607 0.64399
 C114 C 0.46185 0.78892 0.62050
 C115 C 0.43568 0.79262 0.59692
 H116 H 0.47311 0.82173 0.66619
 H117 H 0.43052 0.77561 0.57503
 Cu118 Cu 0.41051 0.87769 0.65494
 Cu119 Cu 0.37424 0.83793 0.58606
 Cu120 Cu 0.33610 0.91057 0.62511
 N121 N 0.38828 0.91824 0.67650
 N122 N 0.35812 0.92941 0.66619
 C123 C 0.34765 0.95594 0.68698
 C124 C 0.37297 0.96212 0.71102
 C125 C 0.39846 0.93797 0.70362
 H126 H 0.32388 0.97035 0.68426
 H127 H 0.42224 0.93463 0.71745
 N128 N 0.31774 0.88792 0.58325
 N129 N 0.33144 0.85929 0.56924
 C130 C 0.31235 0.84932 0.54198
 C131 C 0.28595 0.87329 0.53831
 C132 C 0.29015 0.89750 0.56469
 H133 H 0.31768 0.82688 0.52541
 H134 H 0.27402 0.92014 0.57009
 H135 H 0.37945 0.89010 0.60181
 H136 H 0.35542 0.85984 0.63114
 N137 N 0.91588 0.68111 0.39181
 N138 N 0.92622 0.66970 0.36151
 C139 C 0.95303 0.68941 0.35122
 C140 C 0.96019 0.71379 0.37680
 C141 C 0.93634 0.70778 0.40228
 H142 H 0.96686 0.68586 0.32735
 H143 H 0.93357 0.72233 0.42617
 Cu144 Cu 0.90515 0.62885 0.33931
 Cu145 Cu 0.87526 0.66228 0.41407
 Cu146 Cu 0.83709 0.58916 0.37597
 N147 N 0.88500 0.58594 0.32010
 N148 N 0.85744 0.57158 0.33352
 C149 C 0.84810 0.54340 0.31431
 C150 C 0.87149 0.53953 0.28795
 C151 C 0.89467 0.56677 0.29242
 H152 H 0.82647 0.52641 0.31958
 H153 H 0.91662 0.57237 0.27642
 N154 N 0.82024 0.61079 0.41897
 N155 N 0.83390 0.63959 0.43266
 C156 C 0.81541 0.64927 0.46042
 C157 C 0.78944 0.62493 0.46473
 C158 C 0.79329 0.60080 0.43822
 H159 H 0.82058 0.67204 0.47660
 H160 H 0.77705 0.57822 0.43295
 H161 H 0.88170 0.61144 0.39485
 H162 H 0.85229 0.64135 0.37052
 N163 N 0.58326 0.32118 -0.10735
 N164 N 0.57047 0.33486 -0.13565
 C165 C 0.54269 0.31607 -0.14512
 C166 C 0.53752 0.28979 -0.12106
 C167 C 0.56356 0.29382 -0.09735
 H168 H 0.52716 0.32119 -0.16759
 H169 H 0.56834 0.27742 -0.07510
 Cu170 Cu 0.59105 0.37627 -0.15691
 Cu171 Cu 0.62573 0.33831 -0.08698
 Cu172 Cu 0.66411 0.41073 -0.12589
 N173 N 0.61214 0.41765 -0.17770
 N174 N 0.64189 0.42951 -0.16681
 C175 C 0.65198 0.45645 -0.18703
 C176 C 0.62682 0.46220 -0.21128
 C177 C 0.60180 0.43737 -0.20461
 H178 H 0.67542 0.47134 -0.18385
 H179 H 0.57831 0.43354 -0.21885
 N180 N 0.68255 0.38804 -0.08422
 N181 N 0.66877 0.35954 -0.07029
 C182 C 0.68799 0.34951 -0.04323
 C183 C 0.71456 0.37330 -0.03960
 C184 C 0.71032 0.39746 -0.06580
 H185 H 0.68266 0.32714 -0.02677
 H186 H 0.72656 0.41996 -0.07117
 H187 H 0.62061 0.39014 -0.10326
 H188 H 0.64576 0.35962 -0.13152
 N189 N -0.01912 0.28202 0.15164
 C190 C -0.03918 0.28699 0.12347
 N191 N -0.03367 0.26643 0.09517
 N192 N -0.00887 0.24220 0.09492
 C193 C 0.01084 0.23710 0.12321
 N194 N 0.00519 0.25727 0.15163
 N195 N 0.52612 0.72550 0.65169
 C196 C 0.53803 0.71128 0.62185
 N197 N 0.52477 0.72266 0.59153
 N198 N 0.50023 0.74717 0.59110
 C199 C 0.48855 0.76162 0.62093
 N200 N 0.50201 0.75046 0.65121
 N201 N 1.03229 0.76948 0.40466
 C202 C 1.03766 0.79004 0.37652
 N203 N 1.01726 0.78532 0.34851
 N204 N 0.99277 0.76078 0.34851
 C205 C 0.98728 0.74057 0.37676
 N206 N 1.00732 0.74545 0.40491
 N207 N 0.47431 0.22436 -0.09158
 C208 C 0.46109 0.21244 -0.12182
 N209 N 0.47305 0.22610 -0.15176
 N210 N 0.49718 0.25102 -0.15147
 C211 C 0.51062 0.26271 -0.12127
 N212 N 0.49887 0.24885 -0.09133
 N213 N 0.15588 -0.01882 0.28411
 C214 C 0.12768 -0.03928 0.28899
 N215 N 0.09994 -0.03394 0.26853
 N216 N 0.10025 -0.00889 0.24447
 C217 C 0.12854 0.01123 0.23948
 N218 N 0.15642 0.00572 0.25955
 N219 N 0.59824 0.53343 -0.26875
 C220 C 0.62636 0.53874 -0.28866
 N221 N 0.65463 0.51864 -0.28286
 N222 N 0.65490 0.49450 -0.25793
 C223 C 0.62666 0.48903 -0.23838
 N224 N 0.59828 0.50877 -0.24431
 N225 N 0.34525 1.01830 0.78337
 C226 C 0.37333 1.03879 0.78897
 N227 N 0.40126 1.03381 0.76867
 N228 N 0.40125 1.00910 0.74406
 C229 C 0.37305 0.98899 0.73832
 N230 N 0.34499 0.99411 0.75826
 N231 N 0.90238 0.47553 0.22336
 C232 C 0.87271 0.46123 0.21159
 N233 N 0.84263 0.47278 0.22502
 N234 N 0.84226 0.49753 0.24961
 C235 C 0.87191 0.51205 0.26115
 N236 N 0.90196 0.50073 0.24750
 N237 N 0.27364 0.15601 -0.02690
 C238 C 0.28736 0.12511 -0.03848
 N239 N 0.27618 0.09409 -0.02496
 N240 N 0.25232 0.09398 -0.00048
 C241 C 0.23838 0.12484 0.01088
 N242 N 0.24934 0.15584 -0.00286
 N243 N 0.72687 0.65615 0.52875
 C244 C 0.71357 0.62520 0.54039
 N245 N 0.72540 0.59417 0.52715
 N246 N 0.74945 0.59410 0.50286
 C247 C 0.76295 0.62503 0.49143
 N248 N 0.75136 0.65605 0.50490
 N249 N 0.77880 0.40441 0.02277
 C250 C 0.79028 0.37348 0.03628
 N251 N 0.77684 0.34247 0.02467
 N252 N 0.75251 0.34242 0.00063
 C253 C 0.74124 0.37333 -0.01307
 N254 N 0.75492 0.40431 -0.00171
 N255 N 0.22369 0.84271 0.47365
 C256 C 0.21061 0.87379 0.46205
 N257 N 0.22236 0.90469 0.47565
 N258 N 0.24614 0.90449 0.50023
 C259 C 0.25945 0.87344 0.51160
 N260 N 0.24792 0.84256 0.49778
   
