data_POSCAR
  _audit_creation_date              2014-09-24
  _audit_creation_method            'ToBaCCo'
  _symmetry_space_group_name_H-M    'P1'
  _symmetry_Int_Tables_number       1
  _symmetry_cell_setting            triclinic
  loop_
  _symmetry_equiv_pos_as_xyz
 x,y,z
_cell_length_a 41.8508
_cell_length_b 41.9082
_cell_length_c 14.8123
_cell_angle_alpha 90.096500
_cell_angle_beta 90.016000
_cell_angle_gamma 119.886900
loop_
  _atom_site_label
  _atom_site_type_symbol
  _atom_site_fract_x
  _atom_site_fract_y
  _atom_site_fract_z
C1 C 0.15356 0.47857 0.49891
 C2 C 0.17160 0.48182 0.41629
 C3 C 0.20532 0.48201 0.41778
 C4 C 0.21890 0.47470 0.49745
 C5 C 0.19826 0.46820 0.57734
 C6 C 0.16643 0.47158 0.58023
 C7 C 0.25432 0.47356 0.49724
 C8 C 0.27474 0.47940 0.57755
 C9 C 0.30678 0.47666 0.57898
 C10 C 0.32046 0.47108 0.49786
 C11 C 0.30150 0.46625 0.41645
 C12 C 0.26796 0.46629 0.41713
 H13 H 0.12798 0.47891 0.49913
 H14 H 0.22140 0.48867 0.35678
 H15 H 0.20740 0.46099 0.63780
 H16 H 0.26622 0.48642 0.63974
 H17 H 0.34510 0.46882 0.49857
 H18 H 0.25276 0.46071 0.35475
 C19 C 0.51522 -0.33085 0.49973
 C20 C 0.51116 -0.31652 0.41726
 C21 C 0.51073 -0.28316 0.41882
 C22 C 0.51864 -0.26195 0.49814
 C23 C 0.52587 -0.27565 0.57776
 C24 C 0.52271 -0.31071 0.58082
 C25 C 0.51981 -0.22544 0.49778
 C26 C 0.51464 -0.21045 0.57826
 C27 C 0.51771 -0.17558 0.57961
 C28 C 0.52284 -0.15665 0.49828
 C29 C 0.52696 -0.17119 0.41674
 C30 C 0.52662 -0.20488 0.41742
 H31 H 0.51504 -0.35665 0.49992
 H32 H 0.50346 -0.27407 0.35815
 H33 H 0.53354 -0.25903 0.63786
 H34 H 0.50796 -0.22572 0.64066
 H35 H 0.52537 -0.12967 0.49888
 H36 H 0.53170 -0.21482 0.35488
 C37 C 1.32730 0.84344 0.50006
 C38 C 1.30867 0.82971 0.41765
 C39 C 1.27406 0.79714 0.41910
 C40 C 1.25947 0.77663 0.49914
 C41 C 1.27962 0.79098 0.57978
 C42 C 1.31223 0.82509 0.58152
 C43 C 1.22321 0.74087 0.49864
 C44 C 1.20257 0.72662 0.57872
 C45 C 1.16954 0.69242 0.58017
 C46 C 1.15552 0.67392 0.49776
 C47 C 1.17401 0.68870 0.41627
 C48 C 1.20852 0.72086 0.41796
 H49 H 1.35249 0.86968 0.50200
 H50 H 1.25860 0.78755 0.35746
 H51 H 1.27042 0.77593 0.64228
 H52 H 1.21242 0.74200 0.64041
 H53 H 1.12897 0.64908 0.49585
 H54 H 1.22360 0.72979 0.35540
 C55 C 0.84610 0.52273 0.50139
 C56 C 0.83184 0.52726 0.41991
 C57 C 0.79844 0.52757 0.42054
 C58 C 0.77784 0.52105 0.50078
 C59 C 0.79251 0.51546 0.58127
 C60 C 0.82715 0.51784 0.58269
 C61 C 0.74167 0.52070 0.50093
 C62 C 0.72791 0.52789 0.58084
 C63 C 0.69332 0.52596 0.58323
 C64 C 0.67377 0.51971 0.50167
 C65 C 0.68799 0.51509 0.42013
 C66 C 0.72084 0.51383 0.42111
 H67 H 0.87289 0.52475 0.50197
 H68 H 0.78879 0.53293 0.35800
 H69 H 0.77720 0.50899 0.64362
 H70 H 0.74406 0.53462 0.64164
 H71 H 0.64848 0.52069 0.50019
 H72 H 0.72979 0.50734 0.35888
 C73 C 0.48007 0.32211 0.49888
 C74 C 0.47419 0.30260 0.41782
 C75 C 0.47320 0.26866 0.41882
 C76 C 0.48036 0.25495 0.49861
 C77 C 0.48697 0.27565 0.57872
 C78 C 0.48500 0.30823 0.58090
 C79 C 0.48048 0.21907 0.49866
 C80 C 0.47362 0.19839 0.57869
 C81 C 0.47535 0.16565 0.58092
 C82 C 0.48104 0.15205 0.49916
 C83 C 0.48529 0.17064 0.41754
 C84 C 0.48682 0.20482 0.41862
 H85 H 0.47862 0.34712 0.49805
 H86 H 0.46693 0.25314 0.35683
 H87 H 0.49459 0.26695 0.63949
 H88 H 0.46729 0.20808 0.63965
 H89 H 0.47988 0.12572 0.49767
 H90 H 0.49307 0.22010 0.35632
 C91 C 0.67718 0.15250 0.50139
 C92 C 0.69552 0.16662 0.41950
 C93 C 0.72892 0.20020 0.41944
 C94 C 0.74313 0.22107 0.49941
 C95 C 0.72326 0.20647 0.58032
 C96 C 0.69138 0.17172 0.58237
 C97 C 0.77874 0.25736 0.49891
 C98 C 0.79961 0.27170 0.57871
 C99 C 0.83216 0.30629 0.58047
 C100 C 0.84538 0.32527 0.49844
 C101 C 0.82662 0.31046 0.41703
 C102 C 0.79263 0.27766 0.41857
 H103 H 0.65270 0.12560 0.50255
 H104 H 0.74361 0.20973 0.35657
 H105 H 0.73207 0.22188 0.64261
 H106 H 0.79032 0.25596 0.63989
 H107 H 0.87154 0.35054 0.49657
 H108 H 0.77729 0.26834 0.35629
 N109 N 0.96114 0.53823 0.09380
 N110 N 0.93568 0.54748 0.10829
 N111 N 1.03788 0.55408 0.16031
 N112 N 1.06525 0.57184 0.21774
 N113 N 1.03891 0.57615 0.09612
 N114 N 1.06733 0.60959 0.10778
 N115 N 0.96061 0.51634 0.15776
 N116 N 0.93494 0.51027 0.21792
 C117 C 0.91942 0.52959 0.18553
 C118 C 1.08342 0.60634 0.18396
 N119 N 1.03821 0.46372 0.10062
 N120 N 1.06658 0.45858 0.11280
 N121 N 0.96012 0.44737 0.16059
 N122 N 0.93252 0.42958 0.21731
 N123 N 0.96018 0.42501 0.09852
 N124 N 0.93225 0.39137 0.11065
 N125 N 1.03734 0.48532 0.16366
 N126 N 1.06471 0.49501 0.22136
 Mn127 Mn 0.99893 0.50074 0.16148
 C128 C 1.08272 0.47821 0.18848
 C129 C 0.91530 0.39476 0.18494
 N130 N 1.03937 0.57546 -0.09817
 N131 N 1.06545 0.60968 -0.11315
 N132 N 0.96197 0.51483 -0.16268
 N133 N 0.93438 0.50506 -0.21969
 N134 N 0.96166 0.53696 -0.10020
 N135 N 0.93352 0.54247 -0.11234
 N136 N 1.03931 0.55341 -0.16139
 N137 N 1.06514 0.57223 -0.22192
 Mn138 Mn 1.00029 0.55708 -0.00219
 C139 C 1.08137 0.60721 -0.19019
 C140 C 0.91686 0.52242 -0.18712
 N141 N 0.96138 0.42416 -0.09553
 N142 N 0.93552 0.38979 -0.11042
 N143 N 1.03906 0.48412 -0.15833
 N144 N 1.06432 0.48974 -0.21938
 N145 N 1.03891 0.46259 -0.09372
 N146 N 1.06432 0.45333 -0.10857
 N147 N 0.96185 0.44574 -0.16036
 N148 N 0.93654 0.42648 -0.22180
 Mn149 Mn 0.99969 0.44352 0.00262
 Mn150 Mn 1.00057 0.49956 -0.16173
 Cl151 Cl 0.99988 0.50022 -0.00010
 C152 C 0.92018 0.39171 -0.18905
 C153 C 1.08007 0.47066 -0.18677
 N154 N 0.46033 0.41846 0.08945
 N155 N 0.45188 0.38404 0.10383
 N156 N 0.44117 0.47721 0.15510
 N157 N 0.42125 0.48269 0.21559
 N158 N 0.42015 0.45586 0.08970
 N159 N 0.38536 0.44636 0.10372
 N160 N 0.48126 0.43992 0.15480
 N161 N 0.48752 0.42069 0.21556
 C162 C 0.46932 0.38599 0.18231
 C163 C 0.38659 0.46355 0.18214
 N164 N 0.53117 0.56964 0.10150
 N165 N 0.53559 0.60278 0.11442
 N166 N 0.54914 0.50929 0.16239
 N167 N 0.56705 0.49970 0.21961
 N168 N 0.57166 0.53207 0.10136
 N169 N 0.60547 0.53824 0.11465
 N170 N 0.50913 0.54665 0.16291
 N171 N 0.49848 0.56363 0.22034
 Mn172 Mn 0.49519 0.49329 0.15974
 C173 C 0.51510 0.59855 0.18885
 C174 C 0.60210 0.51787 0.18861
 N175 N 0.42289 0.45889 -0.10434
 N176 N 0.38913 0.45294 -0.11701
 N177 N 0.48540 0.44434 -0.16599
 N178 N 0.49624 0.42740 -0.22302
 N179 N 0.46337 0.42135 -0.10455
 N180 N 0.45915 0.38827 -0.11707
 N181 N 0.44539 0.48169 -0.16540
 N182 N 0.42749 0.49150 -0.22205
 Mn183 Mn 0.44132 0.43826 -0.00769
 C184 C 0.39249 0.47344 -0.19066
 C185 C 0.47974 0.39252 -0.19129
 N186 N 0.57430 0.53503 -0.09277
 N187 N 0.60909 0.54453 -0.10657
 N188 N 0.51340 0.55115 -0.15840
 N189 N 0.50766 0.57056 -0.21978
 N190 N 0.53412 0.57249 -0.09260
 N191 N 0.54272 0.60694 -0.10699
 N192 N 0.55339 0.51392 -0.15865
 N193 N 0.57343 0.50881 -0.21956
 Mn194 Mn 0.55317 0.55268 0.00460
 Mn195 Mn 0.49935 0.49773 -0.16307
 Cl196 Cl 0.49727 0.49550 -0.00161
 C197 C 0.60801 0.52778 -0.18558
 C198 C 0.52580 0.60520 -0.18618
 N199 N 0.42681 -0.04110 0.09592
 N200 N 0.39246 -0.06692 0.11104
 N201 N 0.48780 0.03595 0.16058
 N202 N 0.49759 0.06337 0.21809
 N203 N 0.46579 0.03651 0.09813
 N204 N 0.46034 0.06463 0.11088
 N205 N 0.44881 -0.04127 0.15894
 N206 N 0.42982 -0.06698 0.21954
 C207 C 0.39478 -0.08291 0.18798
 C208 C 0.48034 0.08105 0.18594
 N209 N 0.57842 0.03618 0.09302
 N210 N 0.61284 0.06202 0.10802
 N211 N 0.51797 -0.04146 0.15517
 N212 N 0.51160 -0.06720 0.21519
 N213 N 0.53979 -0.04120 0.09104
 N214 N 0.54865 -0.06692 0.10541
 N215 N 0.55672 0.03582 0.15753
 N216 N 0.57588 0.06134 0.21851
 Mn217 Mn 0.50280 -0.00278 0.15910
 C218 C 0.61075 0.07760 0.18614
 C219 C 0.53064 -0.08304 0.18267
 N220 N 0.46456 0.03694 -0.09601
 N221 N 0.45562 0.06259 -0.11019
 N222 N 0.44806 -0.04006 -0.16234
 N223 N 0.43007 -0.06736 -0.21977
 N224 N 0.42608 -0.04076 -0.09821
 N225 N 0.39245 -0.06890 -0.10984
 N226 N 0.48605 0.03703 -0.16063
 N227 N 0.49198 0.06247 -0.22122
 Mn228 Mn 0.44544 -0.00210 0.00002
 C229 C 0.47310 0.07838 -0.18818
 C230 C 0.39551 -0.08516 -0.18597
 N231 N 0.53866 -0.04054 -0.10306
 N232 N 0.54388 -0.06882 -0.11527
 N233 N 0.55505 0.03728 -0.16317
 N234 N 0.57279 0.06503 -0.21936
 N235 N 0.57746 0.03730 -0.10106
 N236 N 0.61106 0.06542 -0.11268
 N237 N 0.51674 -0.03991 -0.16555
 N238 N 0.50675 -0.06749 -0.22267
 Mn239 Mn 0.55896 -0.00206 -0.00518
 Mn240 Mn 0.50153 -0.00138 -0.16386
 Cl241 Cl 0.50217 -0.00208 -0.00234
 C242 C 0.52381 -0.08529 -0.19016
 C243 C 0.60760 0.08238 -0.18671
 N244 N 1.13972 0.47377 0.18802
 N245 N 1.16522 0.47583 0.25177
 C246 C 1.15536 0.48285 0.33328
 C247 C 1.12420 0.48647 0.32181
 C248 C 1.11531 0.48027 0.23106
 H249 H 1.10865 0.49144 0.37266
 H250 H 1.13944 0.46714 0.11991
 H251 H 1.18568 0.46925 0.23756
 N252 N 0.51800 0.65916 0.18864
 N253 N 0.51592 0.68252 0.25256
 C254 C 0.50967 0.66598 0.33421
 C255 C 0.50651 0.63142 0.32267
 C256 C 0.51224 0.62858 0.23168
 H257 H 0.50233 0.61126 0.37361
 H258 H 0.52430 0.66540 0.12044
 H259 H 0.52209 0.70936 0.23825
 N260 N 0.32966 -0.13311 0.19307
 N261 N 0.30554 -0.15771 0.25692
 C262 C 0.32409 -0.15138 0.33585
 C263 C 0.36038 -0.12314 0.32263
 C264 C 0.36254 -0.11270 0.23322
 H265 H 0.38270 -0.11138 0.37106
 H266 H 0.32275 -0.13114 0.12635
 H267 H 0.27775 -0.17592 0.24391
 N268 N 0.87382 0.55111 0.19980
 N269 N 0.85071 0.55056 0.26146
 C270 C 0.85245 0.53238 0.33476
 C271 C 0.87756 0.52060 0.31829
 C272 C 0.89047 0.53312 0.23240
 H273 H 0.88581 0.50554 0.36283
 H274 H 0.87842 0.56410 0.13718
 H275 H 0.83500 0.56343 0.25379
 N276 N 0.44838 0.31920 0.19807
 N277 N 0.44954 0.29715 0.26010
 C278 C 0.46820 0.31749 0.33263
 C279 C 0.47959 0.35415 0.31523
 C280 C 0.46638 0.35394 0.22966
 H281 H 0.49490 0.37772 0.35886
 H282 H 0.43493 0.31040 0.13596
 H283 H 0.43675 0.26861 0.25313
 N284 N 0.67740 0.12420 0.19960
 N285 N 0.69983 0.14767 0.26084
 C286 C 0.68001 0.14564 0.33468
 C287 C 0.64327 0.11987 0.31901
 C288 C 0.64292 0.10695 0.23296
 H289 H 0.62006 0.11125 0.36407
 H290 H 0.68580 0.11978 0.13667
 H291 H 0.72829 0.16386 0.25244
 N292 N 0.45723 0.12808 -0.19472
 N293 N 0.45810 0.15274 -0.25913
 C294 C 0.47096 0.14653 -0.33719
 C295 C 0.47894 0.11831 -0.32295
 C296 C 0.47006 0.10778 -0.23385
 H297 H 0.49012 0.10678 -0.37037
 H298 H 0.44808 0.12616 -0.12830
 H299 H 0.44852 0.17105 -0.24708
 N300 N 0.67394 0.54467 -0.19249
 N301 N 0.69780 0.54387 -0.25705
 C302 C 0.67867 0.53065 -0.33492
 C303 C 0.64239 0.52242 -0.32046
 C304 C 0.64072 0.53145 -0.23141
 H305 H 0.61961 0.51082 -0.36760
 H306 H 0.68113 0.55388 -0.12606
 H307 H 0.72572 0.55363 -0.24516
 N308 N 0.87022 0.32651 -0.19531
 N309 N 0.84541 0.30261 -0.25944
 C310 C 0.85149 0.32135 -0.33780
 C311 C 0.87984 0.35752 -0.32400
 C312 C 0.89054 0.35943 -0.23481
 H313 H 0.89138 0.37999 -0.37178
 H314 H 0.87227 0.31948 -0.12881
 H315 H 0.82713 0.27485 -0.24690
 N316 N 0.53364 -0.13916 -0.19495
 N317 N 0.53125 -0.16351 -0.25532
 C318 C 0.51826 -0.15777 -0.33344
 C319 C 0.51157 -0.12878 -0.32137
 C320 C 0.52198 -0.11767 -0.23318
 H321 H 0.50248 -0.11606 -0.37093
 H322 H 0.54418 -0.13666 -0.12978
 H323 H 0.54037 -0.18227 -0.24416
 N324 N 0.32837 0.46250 -0.19532
 N325 N 0.30598 0.46412 -0.25573
 C326 C 0.32445 0.47697 -0.33410
 C327 C 0.36042 0.48441 -0.32215
 C328 C 0.36155 0.47457 -0.23373
 H329 H 0.38213 0.49356 -0.37195
 H330 H 0.32060 0.45219 -0.12997
 H331 H 0.27802 0.45455 -0.24444
 N332 N 1.13222 0.67202 -0.19523
 N333 N 1.15707 0.69587 -0.25910
 C334 C 1.15049 0.67728 -0.33802
 C335 C 1.12184 0.64122 -0.32482
 C336 C 1.11141 0.63924 -0.23541
 H337 H 1.10983 0.61892 -0.37324
 H338 H 1.13039 0.67900 -0.12848
 H339 H 1.17562 0.72355 -0.24612
 N340 N 0.86337 0.53298 -0.19172
 N341 N 0.83917 0.53100 -0.25206
 C342 C 0.84476 0.51797 -0.33035
 C343 C 0.87348 0.51081 -0.31839
 C344 C 0.88461 0.52100 -0.23009
 H345 H 0.88607 0.50158 -0.36809
 H346 H 0.86595 0.54348 -0.12645
 H347 H 0.82066 0.54045 -0.24074
 N348 N 0.47762 0.33221 -0.19060
 N349 N 0.48013 0.30905 -0.25442
 C350 C 0.48600 0.32547 -0.33611
 C351 C 0.48853 0.35974 -0.32478
 C352 C 0.48283 0.36257 -0.23384
 H353 H 0.49244 0.37978 -0.37586
 H354 H 0.47156 0.32605 -0.12228
 H355 H 0.47455 0.28239 -0.24010
 N356 N 0.67163 0.13563 -0.19216
 N357 N 0.69349 0.15977 -0.25277
 C358 C 0.67446 0.15427 -0.33033
 C359 C 0.63870 0.12569 -0.31762
 C360 C 0.63825 0.11453 -0.22969
 H361 H 0.61666 0.11321 -0.36672
 H362 H 0.67990 0.13298 -0.12738
 H363 H 0.72148 0.17819 -0.24226
 N364 N 1.12872 0.45331 -0.19523
 N365 N 1.15306 0.45376 -0.26017
 C366 C 1.14743 0.46744 -0.33754
 C367 C 1.11985 0.47634 -0.32223
 C368 C 1.10912 0.46715 -0.23326
 H369 H 1.10879 0.48823 -0.36884
 H370 H 1.12646 0.44366 -0.12925
 H371 H 1.17072 0.44333 -0.24888
 N372 N 0.54234 0.67086 -0.19484
 N373 N 0.54131 0.69437 -0.25983
 C374 C 0.52755 0.67488 -0.33705
 C375 C 0.51923 0.63866 -0.32160
 C376 C 0.52881 0.63746 -0.23272
 H377 H 0.50743 0.61565 -0.36801
 H378 H 0.55211 0.67845 -0.12893
 H379 H 0.55133 0.72234 -0.24854
 N380 N 0.33132 -0.13815 -0.19295
 N381 N 0.30964 -0.16236 -0.25392
 C382 C 0.32893 -0.15713 -0.33093
 C383 C 0.36466 -0.12856 -0.31739
 C384 C 0.36483 -0.11720 -0.22965
 H385 H 0.38694 -0.11629 -0.36574
 H386 H 0.32286 -0.13538 -0.12848
 H387 H 0.28161 -0.18068 -0.24397
 N388 N 0.55117 -0.12940 0.19651
 N389 N 0.55023 -0.15269 0.25804
 C390 C 0.53231 -0.15058 0.33156
 C391 C 0.52111 -0.12503 0.31533
 C392 C 0.53369 -0.11226 0.22938
 H393 H 0.50637 -0.11642 0.36008
 H394 H 0.56407 -0.12504 0.13377
 H395 H 0.56267 -0.16879 0.25015
 N396 N 0.31942 0.44193 0.19620
 N397 N 0.29691 0.44261 0.25788
 C398 C 0.31682 0.46074 0.33138
 C399 C 0.35364 0.47233 0.31501
 C400 C 0.35402 0.45979 0.22901
 H401 H 0.37695 0.48744 0.35958
 H402 H 0.31103 0.42903 0.13335
 H403 H 0.26837 0.42994 0.25000
 N404 N 1.13707 0.67011 0.19091
 N405 N 1.16151 0.69154 0.25183
 C406 C 1.15601 0.67221 0.32877
 C407 C 1.12703 0.63672 0.31527
 C408 C 1.11571 0.63673 0.22761
 H409 H 1.11450 0.61449 0.36359
 H410 H 1.13447 0.67866 0.12649
 H411 H 1.18019 0.71945 0.24188
 N412 N 0.46983 0.13446 0.19169
 N413 N 0.47191 0.15860 0.25232
 C414 C 0.48510 0.15303 0.33036
 C415 C 0.49222 0.12430 0.31784
 C416 C 0.48186 0.11322 0.22953
 H417 H 0.50154 0.11170 0.36715
 H418 H 0.45921 0.13192 0.12658
 H419 H 0.46240 0.17706 0.24135
 N420 N 0.66639 0.52931 0.19426
 N421 N 0.68878 0.52780 0.25483
 C422 C 0.67023 0.51466 0.33302
 C423 C 0.63416 0.50695 0.32067
 C424 C 0.63309 0.51693 0.23225
 H425 H 0.61232 0.49754 0.37016
 H426 H 0.67424 0.53979 0.12906
 H427 H 0.71680 0.53766 0.24373
 N428 N 0.86260 0.33055 0.19121
 N429 N 0.83868 0.30857 0.25205
 C430 C 0.84393 0.32758 0.32959
 C431 C 0.87218 0.36348 0.31653
 C432 C 0.88336 0.36400 0.22846
 H433 H 0.88447 0.38560 0.36543
 H434 H 0.86536 0.32231 0.12646
 H435 H 0.82063 0.28052 0.24164
   
