data_POSCAR
  _audit_creation_date              2014-09-24
  _audit_creation_method            'ToBaCCo'
  _symmetry_space_group_name_H-M    'P1'
  _symmetry_Int_Tables_number       1
  _symmetry_cell_setting            triclinic
  loop_
  _symmetry_equiv_pos_as_xyz
 x,y,z
_cell_length_a 43.1383
_cell_length_b 44.4266
_cell_length_c 43.5649
_cell_angle_alpha 89.283100
_cell_angle_beta 91.418600
_cell_angle_gamma 89.939500
loop_
  _atom_site_label
  _atom_site_type_symbol
  _atom_site_fract_x
  _atom_site_fract_y
  _atom_site_fract_z
C1 C 0.20041 1.22525 0.18844
 C2 C 0.22389 1.20376 0.18535
 C3 C 0.22643 1.17986 0.20589
 C4 C 0.20544 1.17715 0.22986
 C5 C 0.18228 1.19839 0.23294
 C6 C 0.17973 1.22262 0.21205
 C7 C 0.19165 1.24991 0.17091
 N8 N 0.16600 1.26236 0.18328
 C9 C 0.15866 1.24579 0.20849
 C10 C 0.16461 1.18942 0.25728
 N11 N 0.17647 1.16315 0.26903
 C12 C 0.20145 1.15558 0.25237
 C13 C 0.25035 1.16190 0.19646
 N14 N 0.26233 1.17442 0.17068
 C15 C 0.24625 1.19997 0.16377
 H16 H 0.20300 1.25750 0.15038
 H17 H 0.13900 1.24992 0.22285
 H18 H 0.14433 1.20108 0.26511
 H19 H 0.21541 1.13551 0.25602
 H20 H 0.25779 1.14099 0.20728
 H21 H 0.25020 1.21446 0.14408
 C22 C 0.81015 0.76018 0.18363
 C23 C 0.78690 0.78218 0.18043
 C24 C 0.78567 0.80549 0.20113
 C25 C 0.80755 0.80704 0.22541
 C26 C 0.83034 0.78526 0.22865
 C27 C 0.83172 0.76174 0.20756
 C28 C 0.81792 0.73587 0.16607
 N29 N 0.84384 0.72272 0.17877
 C30 C 0.85228 0.73840 0.20419
 C31 C 0.84883 0.79285 0.25354
 N32 N 0.83782 0.81884 0.26550
 C33 C 0.81262 0.82763 0.24834
 C34 C 0.76146 0.82394 0.19190
 N35 N 0.74801 0.81239 0.16606
 C36 C 0.76337 0.78682 0.15898
 H37 H 0.80584 0.72905 0.14527
 H38 H 0.87239 0.73356 0.21882
 H39 H 0.86908 0.78046 0.26163
 H40 H 0.79910 0.84776 0.25209
 H41 H 0.75436 0.84420 0.20332
 H42 H 0.75801 0.77284 0.13937
 C43 C 0.78067 1.23542 -0.19207
 C44 C 0.75898 1.21206 -0.19484
 C45 C 0.76071 1.19207 -0.21883
 C46 C 0.78416 1.19517 -0.24038
 C47 C 0.80554 1.21821 -0.23761
 C48 C 0.80375 1.23853 -0.21333
 C49 C 0.78582 1.25683 -0.16999
 N50 N 0.81142 1.27291 -0.17730
 C51 C 0.82254 1.26186 -0.20390
 C52 C 0.82686 1.21441 -0.26021
 N53 N 0.81901 1.18966 -0.27664
 C54 C 0.79276 1.17777 -0.26469
 C55 C 0.73819 1.17062 -0.21452
 N56 N 0.72284 1.17710 -0.18859
 C57 C 0.73544 1.20246 -0.17637
 H58 H 0.77234 1.26000 -0.14963
 H59 H 0.84323 1.26929 -0.21525
 H60 H 0.84719 1.22817 -0.26386
 H61 H 0.78122 1.15743 -0.27208
 H62 H 0.73385 1.15116 -0.22871
 H63 H 0.72891 1.21274 -0.15511
 C64 C 0.20228 0.77584 -0.18004
 C65 C 0.22717 0.79585 -0.17628
 C66 C 0.23048 0.81983 -0.19652
 C67 C 0.20886 0.82417 -0.22078
 C68 C 0.18431 0.80445 -0.22440
 C69 C 0.18098 0.78016 -0.20391
 C70 C 0.19253 0.75140 -0.16310
 N71 N 0.16570 0.74086 -0.17615
 C72 C 0.15856 0.75838 -0.20109
 C73 C 0.16629 0.81476 -0.24879
 N74 N 0.17927 0.84040 -0.26014
 C75 C 0.20535 0.84623 -0.24311
 C76 C 0.25563 0.83633 -0.18634
 N77 N 0.26759 0.82290 -0.16042
 C78 C 0.25029 0.79820 -0.15413
 H79 H 0.20394 0.74270 -0.14247
 H80 H 0.13820 0.75577 -0.21587
 H81 H 0.14507 0.80435 -0.25698
 H82 H 0.22039 0.86545 -0.24637
 H83 H 0.26374 0.85708 -0.19657
 H84 H 0.25385 0.78343 -0.13439
 C85 C 0.52526 1.06173 -0.01164
 H86 H 0.50867 1.07013 0.00433
 C87 C 0.54327 1.08203 -0.02825
 H88 H 0.54014 1.10598 -0.02513
 C89 C 0.55047 1.02048 -0.03433
 H90 H 0.55344 0.99638 -0.03612
 C91 C 0.56888 1.03993 -0.05143
 H92 H 0.58622 1.03039 -0.06595
 N93 N 0.52894 1.03158 -0.01521
 C94 C 0.48002 1.01793 0.06494
 H95 H 0.49759 1.00327 0.07498
 C96 C 0.45862 1.03159 0.08387
 H97 H 0.46019 1.02760 0.10844
 C98 C 0.45568 1.03999 0.02079
 H99 H 0.45441 1.04264 -0.00393
 C100 C 0.43386 1.05415 0.03887
 H101 H 0.41573 1.06735 0.02761
 Zn102 Zn 0.50611 1.00313 0.00767
 N103 N 0.47839 1.02260 0.03402
 C104 C 0.55461 0.99508 0.05017
 N105 N 0.53534 0.97986 0.03076
 C106 C 0.53809 0.94963 0.02721
 C107 C 0.56071 0.93339 0.04399
 C108 C 0.57737 0.97981 0.06750
 C109 C 0.46375 0.95725 -0.00611
 C110 C 0.44387 0.93987 -0.02444
 C111 C 0.46140 0.96739 -0.06892
 C112 C 0.48099 0.98412 -0.04973
 N113 N 0.48188 0.97875 -0.01894
 H114 H 0.55223 1.01922 0.05216
 H115 H 0.52299 0.93804 0.01114
 H116 H 0.56191 0.90941 0.04053
 H117 H 0.59233 0.99254 0.08289
 H118 H 0.46446 0.95389 0.01854
 H119 H 0.42972 0.92334 -0.01308
 H120 H 0.46092 0.97234 -0.09336
 H121 H 0.49490 1.00185 -0.05945
 C122 C 0.43534 1.05019 0.07095
 C123 C 0.56518 1.07122 -0.04868
 C124 C 0.44229 0.94494 -0.05649
 C125 C 0.58089 0.94852 0.06459
 C126 C -0.00927 0.53811 1.03613
 H127 H 0.01569 0.53846 1.03918
 C128 C -0.02760 0.55737 1.05318
 H129 H -0.01626 0.57255 1.06905
 C130 C -0.05376 0.51911 1.01000
 H131 H -0.06385 0.50483 0.99255
 C132 C -0.07294 0.53801 1.02648
 H133 H -0.09773 0.53775 1.02182
 N134 N -0.02254 0.51937 1.01518
 C135 C 0.04835 0.45145 1.00029
 H136 H 0.04935 0.45318 0.97554
 C137 C 0.06731 0.43092 1.01630
 H138 H 0.08297 0.41686 1.00370
 C139 C 0.02649 0.46765 1.04666
 H140 H 0.01037 0.48189 1.05833
 C141 C 0.04495 0.44720 1.06362
 H142 H 0.04320 0.44652 1.08833
 Zn143 Zn 0.00406 0.49605 0.99100
 N144 N 0.02872 0.46953 1.01559
 C145 C 0.06073 0.52392 0.97514
 N146 N 0.02960 0.52332 0.96950
 C147 C 0.01572 0.54351 0.94990
 C148 C 0.03332 0.56505 0.93451
 C149 C 0.07921 0.54516 0.96045
 C150 C -0.03862 0.45129 0.97628
 C151 C -0.05618 0.43199 0.95779
 C152 C -0.03270 0.45442 0.91324
 C153 C -0.01581 0.47349 0.93265
 N154 N -0.01929 0.47179 0.96355
 H155 H 0.07127 0.50834 0.99151
 H156 H -0.00919 0.54299 0.94641
 H157 H 0.02116 0.58073 0.91942
 H158 H 0.10393 0.54524 0.96551
 H159 H -0.04033 0.44992 1.00100
 H160 H -0.07091 0.41593 0.96912
 H161 H -0.02949 0.45616 0.88868
 H162 H 0.00038 0.48931 0.92299
 C163 C 0.06566 0.42844 1.04831
 C164 C -0.05998 0.55743 1.04842
 C165 C -0.05350 0.43340 0.92559
 C166 C 0.06572 0.56617 0.93973
 C167 C 1.04341 -0.01674 0.53254
 H168 H 1.05570 -0.00163 0.51751
 C169 C 1.06000 -0.03441 0.55414
 H170 H 1.08502 -0.03302 0.55495
 C171 C 0.99590 -0.03709 0.54937
 H172 H 0.97087 -0.03792 0.54734
 C173 C 1.01149 -0.05520 0.57105
 H174 H 0.99828 -0.07002 0.58570
 N175 N 1.01196 -0.01869 0.53036
 C176 C 1.00735 0.05996 0.47675
 H177 H 0.98967 0.06971 0.49066
 C178 C 1.02419 0.07851 0.45720
 H179 H 1.01955 0.10249 0.45665
 C180 C 1.03372 0.01689 0.45926
 H181 H 1.03673 -0.00729 0.45975
 C182 C 1.05110 0.03463 0.43933
 H183 H 1.06721 0.02360 0.42455
 Zn184 Zn 0.98765 0.00406 0.50174
 N185 N 1.01246 0.02974 0.47756
 C186 C 0.97239 0.04624 0.54545
 N187 N 0.95965 0.02685 0.52485
 C188 C 0.92844 0.02297 0.52245
 C189 C 0.90871 0.03946 0.54089
 C190 C 0.95359 0.06341 0.56409
 C191 C 0.97228 -0.05216 0.47558
 C192 C 0.95813 -0.07142 0.45442
 C193 C 0.93193 -0.02848 0.43117
 C194 C 0.94677 -0.01004 0.45272
 N195 N 0.96635 -0.02211 0.47447
 H196 H 0.99735 0.04827 0.54742
 H197 H 0.91878 0.00678 0.50659
 H198 H 0.88391 0.03593 0.53863
 H199 H 0.96496 0.07817 0.58030
 H200 H 0.98851 -0.06130 0.49251
 H201 H 0.96358 -0.09507 0.45649
 H202 H 0.91648 -0.01827 0.41402
 H203 H 0.94289 0.01403 0.45197
 C204 C 1.04638 0.06597 0.43814
 C205 C 1.04390 -0.05402 0.57370
 C206 C 0.93769 -0.05966 0.43149
 C207 C 0.92107 0.06027 0.56196
 C208 C 0.14916 0.28641 1.17252
 C209 C 0.15670 0.30260 1.14600
 C210 C 0.13717 0.32712 1.13327
 N211 N 0.14492 0.34061 1.10644
 N212 N 0.12716 0.36227 1.09398
 C213 C 0.10097 0.37132 1.10788
 N214 N 0.09332 0.35799 1.13486
 N215 N 0.11107 0.33626 1.14732
 C216 C 0.08073 0.39468 1.09382
 C217 C 0.08621 0.40646 1.06459
 H218 H 0.17706 0.29691 1.13334
 H219 H 0.06049 0.40146 1.10616
 H220 H 0.12869 0.29297 1.18476
 H221 H 0.10569 0.39787 1.05212
 C222 C -0.13983 0.69891 1.16815
 C223 C -0.14839 0.68330 1.14159
 C224 C -0.12894 0.65928 1.12922
 N225 N -0.13812 0.64502 1.10320
 N226 N -0.12035 0.62390 1.09115
 C227 C -0.09270 0.61624 1.10468
 N228 N -0.08356 0.63043 1.13078
 N229 N -0.10134 0.65155 1.14283
 C230 C -0.07228 0.59372 1.09108
 C231 C -0.08070 0.57844 1.06434
 H232 H -0.16947 0.68896 1.12889
 H233 H -0.05016 0.58937 1.10249
 H234 H -0.11889 0.69206 1.18062
 H235 H -0.10378 0.58189 1.05454
 C236 C -0.17634 0.29508 0.84056
 C237 C -0.15012 0.31170 0.83270
 C238 C -0.13604 0.33386 0.85365
 N239 N -0.11178 0.35085 0.84441
 N240 N -0.09828 0.37041 0.86345
 C241 C -0.10851 0.37362 0.89247
 N242 N -0.13275 0.35661 0.90169
 N243 N -0.14629 0.33714 0.88265
 C244 C -0.09335 0.39434 0.91422
 C245 C -0.07004 0.41435 0.90543
 H246 H -0.13926 0.30852 0.81089
 H247 H -0.10149 0.39369 0.93745
 H248 H -0.18735 0.29993 0.86206
 H249 H -0.06462 0.41548 0.88127
 C250 C 0.14769 0.71766 0.83364
 C251 C 0.15558 0.69935 0.85899
 C252 C 0.13485 0.67546 0.87001
 N253 N 0.14444 0.65686 0.89330
 N254 N 0.12574 0.63550 0.90393
 C255 C 0.09671 0.63198 0.89172
 N256 N 0.08710 0.65062 0.86847
 N257 N 0.10583 0.67193 0.85777
 C258 C 0.07544 0.60900 0.90371
 C259 C 0.08506 0.58767 0.92589
 H260 H 0.17741 0.70227 0.87128
 H261 H 0.05203 0.60920 0.89436
 H262 H 0.12615 0.71319 0.82117
 H263 H 0.10936 0.58769 0.93288
 C264 C 1.16558 0.14605 0.29259
 C265 C 1.13967 0.15404 0.30938
 C266 C 1.12717 0.13439 0.33354
 N267 N 1.10183 0.14324 0.34891
 N268 N 1.08970 0.12548 0.37034
 C269 C 1.10245 0.09817 0.37720
 N270 N 1.12786 0.08935 0.36189
 N271 N 1.14000 0.10712 0.34045
 C272 C 1.08875 0.07793 0.40019
 C273 C 1.06257 0.08611 0.41640
 H274 H 1.12765 0.17500 0.30471
 H275 H 1.09962 0.05625 0.40410
 H276 H 1.17737 0.12510 0.29839
 H277 H 1.05333 0.10863 0.41304
 C278 C 1.16845 -0.14169 0.71631
 C279 C 1.14101 -0.14776 0.69977
 C280 C 1.12844 -0.12756 0.67551
 N281 N 1.10066 -0.13397 0.66193
 N282 N 1.08841 -0.11576 0.64037
 C283 C 1.10351 -0.09042 0.63149
 N284 N 1.13144 -0.08407 0.64492
 N285 N 1.14368 -0.10228 0.66658
 C286 C 1.08979 -0.06990 0.60803
 C287 C 1.05968 -0.07420 0.59642
 H288 H 1.12751 -0.16756 0.70493
 H289 H 1.10322 -0.05062 0.60089
 H290 H 1.18140 -0.12161 0.71046
 H291 H 1.04625 -0.09274 0.60550
 C292 C 0.84958 -0.16545 0.28978
 C293 C 0.87476 -0.17556 0.30794
 C294 C 0.88801 -0.15779 0.33333
 N295 N 0.87864 -0.12910 0.33839
 N296 N 0.89144 -0.11319 0.36113
 C297 C 0.91404 -0.12541 0.37966
 N298 N 0.92327 -0.15410 0.37465
 N299 N 0.91056 -0.16995 0.35187
 C300 C 0.92885 -0.10823 0.40468
 C301 C 0.92321 -0.07750 0.40878
 H302 H 0.88521 -0.19722 0.30395
 H303 H 0.94541 -0.12037 0.41909
 H304 H 0.83880 -0.14423 0.29541
 H305 H 0.90717 -0.06648 0.39270
 C306 C 0.83631 0.17866 0.70029
 C307 C 0.82809 0.15308 0.68356
 C308 C 0.84888 0.13999 0.66098
 N309 N 0.83945 0.11602 0.64416
 N310 N 0.85846 0.10328 0.62443
 C311 C 0.88764 0.11403 0.62087
 N312 N 0.89703 0.13802 0.63766
 N313 N 0.87801 0.15079 0.65731
 C314 C 0.90949 0.09961 0.60020
 C315 C 0.90063 0.07634 0.58047
 H316 H 0.80625 0.14186 0.68719
 H317 H 0.93290 0.10817 0.60074
 H318 H 0.85776 0.19006 0.69492
 H319 H 0.87623 0.07051 0.57915
 C320 C 0.28669 1.16291 0.15222
 C321 C 0.30367 1.13711 0.16025
 C322 C 0.32764 1.12499 0.14032
 N323 N 0.34382 1.10001 0.14918
 N324 N 0.36526 1.08854 0.13117
 C325 C 0.37129 1.10162 0.10360
 N326 N 0.35513 1.12659 0.09476
 N327 N 0.33372 1.13808 0.11278
 C328 C 0.39449 1.08901 0.08314
 C329 C 0.41248 1.06392 0.09140
 H330 H 0.29934 1.12522 0.18151
 H331 H 0.39758 1.10020 0.06124
 H332 H 0.29187 1.17481 0.13110
 H333 H 0.41039 1.05435 0.11425
 C334 C 0.69905 1.15838 -0.17598
 C335 C 0.68323 1.16594 -0.14958
 C336 C 0.66081 1.14542 -0.13540
 N337 N 0.64647 1.15358 -0.10940
 N338 N 0.62682 1.13489 -0.09575
 C339 C 0.62079 1.10732 -0.10762
 N340 N 0.63504 1.09920 -0.13367
 N341 N 0.65468 1.11789 -0.14732
 C342 C 0.59998 1.08595 -0.09235
 C343 C 0.58461 1.09302 -0.06554
 H344 H 0.68768 1.18715 -0.13844
 H345 H 0.59685 1.06413 -0.10271
 H346 H 0.69369 1.13734 -0.18722
 H347 H 0.58639 1.11568 -0.05677
 C348 C 0.29264 0.83334 -0.14100
 C349 C 0.31180 0.85721 -0.14935
 C350 C 0.33589 0.86915 -0.12832
 N351 N 0.35436 0.89199 -0.13773
 N352 N 0.37567 0.90364 -0.11867
 C353 C 0.37927 0.89289 -0.08947
 N354 N 0.36084 0.87000 -0.08009
 N355 N 0.33956 0.85832 -0.09915
 C356 C 0.40190 0.90621 -0.06773
 C357 C 0.42194 0.92938 -0.07648
 H358 H 0.30904 0.86778 -0.17173
 H359 H 0.40206 0.89745 -0.04451
 H360 H 0.29656 0.82223 -0.11896
 H361 H 0.42148 0.93608 -0.10050
 C362 C 0.72217 0.82441 0.14842
 C363 C 0.71041 0.85321 0.15314
 C364 C 0.68461 0.86590 0.13442
 N365 N 0.67589 0.89491 0.13841
 N366 N 0.65279 0.90692 0.12150
 C367 C 0.63747 0.89036 0.09997
 N368 N 0.64607 0.86129 0.09609
 N369 N 0.66924 0.84928 0.11297
 C370 C 0.61205 0.90345 0.08090
 C371 C 0.60441 0.93404 0.08226
 H372 H 0.72086 0.86745 0.17046
 H373 H 0.60008 0.88852 0.06528
 H374 H 0.71221 0.81089 0.13016
 H375 H 0.61809 0.94781 0.09787
   
