data_POSCAR
  _audit_creation_date              2014-09-24
  _audit_creation_method            'ToBaCCo'
  _symmetry_space_group_name_H-M    'P1'
  _symmetry_Int_Tables_number       1
  _symmetry_cell_setting            triclinic
  loop_
  _symmetry_equiv_pos_as_xyz
 x,y,z
_cell_length_a 38.6025
_cell_length_b 38.3184
_cell_length_c 16.2765
_cell_angle_alpha 89.583600
_cell_angle_beta 90.113800
_cell_angle_gamma 119.836600
loop_
  _atom_site_label
  _atom_site_type_symbol
  _atom_site_fract_x
  _atom_site_fract_y
  _atom_site_fract_z
C1 C 0.12794 0.42986 0.50399
 C2 C 0.14529 0.43156 0.42773
 C3 C 0.18342 0.43596 0.42319
 C4 C 0.20452 0.43738 0.49501
 C5 C 0.18569 0.43412 0.57211
 C6 C 0.14828 0.43191 0.57649
 C7 C 0.24702 0.44587 0.48930
 C8 C 0.27278 0.46258 0.55705
 C9 C 0.31245 0.47171 0.55300
 C10 C 0.32807 0.46623 0.48044
 C11 C 0.30397 0.45100 0.41110
 C12 C 0.26330 0.43983 0.41573
 H13 H 0.09934 0.42884 0.50682
 H14 H 0.19702 0.44029 0.36322
 H15 H 0.20005 0.43433 0.62927
 H16 H 0.26287 0.46952 0.61344
 H17 H 0.35930 0.47439 0.47765
 H18 H 0.24510 0.42694 0.36180
 C19 C 0.55755 -0.31020 0.49889
 C20 C 0.55160 -0.29438 0.42608
 C21 C 0.55291 -0.25736 0.42596
 C22 C 0.56097 -0.23493 0.49848
 C23 C 0.56774 -0.25093 0.57190
 C24 C 0.56507 -0.28893 0.57238
 C25 C 0.55784 -0.19748 0.49830
 C26 C 0.54440 -0.18708 0.56930
 C27 C 0.53768 -0.15457 0.56855
 C28 C 0.54339 -0.13223 0.49681
 C29 C 0.55613 -0.14210 0.42489
 C30 C 0.56425 -0.17405 0.42586
 H31 H 0.55488 -0.33979 0.49888
 H32 H 0.54573 -0.24718 0.36958
 H33 H 0.57398 -0.23466 0.62908
 H34 H 0.53751 -0.20500 0.62488
 H35 H 0.53679 -0.10781 0.49638
 H36 H 0.57454 -0.18093 0.36977
 C37 C 1.31465 0.86419 0.51546
 C38 C 1.30008 0.84364 0.44186
 C39 C 1.26237 0.80941 0.43872
 C40 C 1.23730 0.79584 0.50840
 C41 C 1.25242 0.81766 0.58287
 C42 C 1.29135 0.85100 0.58657
 C43 C 1.19705 0.75796 0.50344
 C44 C 1.17768 0.73648 0.57553
 C45 C 1.14181 0.69994 0.57146
 C46 C 1.12526 0.68323 0.49548
 C47 C 1.14395 0.70319 0.42285
 C48 C 1.17878 0.74100 0.42667
 H49 H 1.34458 0.89003 0.51791
 H50 H 1.25361 0.79323 0.38147
 H51 H 1.23479 0.80908 0.63845
 H52 H 1.19086 0.74678 0.63537
 H53 H 1.09857 0.65381 0.49273
 H54 H 1.19146 0.75609 0.36910
 C55 C 0.87509 0.55808 0.51320
 C56 C 0.85798 0.55639 0.43678
 C57 C 0.82298 0.55862 0.43160
 C58 C 0.80541 0.56447 0.50264
 C59 C 0.82384 0.56694 0.57944
 C60 C 0.85774 0.56255 0.58463
 C61 C 0.76710 0.56570 0.49661
 C62 C 0.74122 0.55605 0.56515
 C63 C 0.70464 0.55531 0.55778
 C64 C 0.69271 0.56255 0.48174
 C65 C 0.71719 0.57114 0.41309
 C66 C 0.75467 0.57418 0.42074
 H67 H 0.90115 0.55439 0.51737
 H68 H 0.80920 0.55433 0.37192
 H69 H 0.81187 0.57143 0.63578
 H70 H 0.74839 0.54777 0.62372
 H71 H 0.66351 0.55997 0.47512
 H72 H 0.77321 0.58220 0.36646
 C73 C 0.44205 0.31968 0.52467
 C74 C 0.44795 0.30729 0.44837
 C75 C 0.44554 0.26980 0.44052
 C76 C 0.43582 0.24351 0.50893
 C77 C 0.42939 0.25653 0.58571
 C78 C 0.43357 0.29485 0.59362
 C79 C 0.43470 0.20395 0.50093
 C80 C 0.44313 0.18623 0.56910
 C81 C 0.44376 0.15016 0.56060
 C82 C 0.43729 0.13209 0.48385
 C83 C 0.42993 0.14951 0.41544
 C84 C 0.42749 0.18455 0.42399
 H85 H 0.44570 0.34954 0.53091
 H86 H 0.45264 0.26215 0.38150
 H87 H 0.42194 0.23757 0.63983
 H88 H 0.45060 0.20084 0.62827
 H89 H 0.43956 0.10514 0.47653
 H90 H 0.42085 0.19676 0.37001
 C91 C 0.68211 0.12395 0.52118
 C92 C 0.69555 0.14287 0.44526
 C93 C 0.73373 0.17671 0.43802
 C94 C 0.75967 0.19111 0.50667
 C95 C 0.74557 0.17047 0.58259
 C96 C 0.70663 0.13810 0.59002
 C97 C 0.79992 0.22866 0.50058
 C98 C 0.81873 0.25156 0.57147
 C99 C 0.85551 0.28722 0.56604
 C100 C 0.87328 0.30160 0.48939
 C101 C 0.85479 0.28029 0.41817
 C102 C 0.81903 0.24347 0.42373
 H103 H 0.65181 0.09899 0.52736
 H104 H 0.74210 0.19208 0.37935
 H105 H 0.76401 0.17963 0.63698
 H106 H 0.80454 0.24293 0.63107
 H107 H 0.90075 0.33031 0.48468
 H108 H 0.80614 0.22733 0.36753
 O109 O 0.95288 0.49162 -0.15657
 O110 O 1.04759 0.53533 0.15853
 O111 O 0.92495 0.47931 0.09394
 O112 O 1.07544 0.55711 -0.09223
 O113 O 0.98091 0.52438 0.14176
 O114 O 1.01942 0.54676 -0.13941
 O115 O 1.06926 0.56894 0.04875
 O116 O 0.93202 0.50133 -0.04420
 C117 C 0.93582 0.50681 -0.11901
 C118 C 1.06533 0.56866 0.12399
 C119 C 0.94453 0.51033 0.13588
 C120 C 1.05570 0.56923 -0.13209
 O121 O 1.04722 0.49565 -0.16082
 O122 O 0.95326 0.44482 0.15619
 O123 O 0.92472 0.42880 -0.09387
 O124 O 1.07564 0.50213 0.08966
 O125 O 1.01970 0.45629 0.13757
 O126 O 0.98053 0.43975 -0.14293
 O127 O 1.06932 0.48410 -0.05131
 O128 O 0.93214 0.41402 0.04423
 Co129 Co 1.00002 0.49325 -0.13473
 Co130 Co 1.00033 0.49038 0.13332
 Co131 Co 0.93537 0.45932 -0.00004
 Co132 Co 1.06552 0.52460 -0.00120
 O133 O 1.00033 0.49189 -0.00068
 C134 C 1.06551 0.48064 -0.12658
 C135 C 0.93592 0.41247 0.11906
 C136 C 0.94413 0.41740 -0.13651
 C137 C 1.05599 0.47027 0.12995
 O138 O 0.46046 0.44138 -0.11055
 O139 O 0.46955 0.50691 0.15044
 O140 O 0.50781 0.43542 0.07545
 O141 O 0.44246 0.54567 -0.06989
 O142 O 0.51586 0.48087 0.16663
 O143 O 0.44107 0.49126 -0.10875
 O144 O 0.43357 0.49405 0.03942
 O145 O 0.51074 0.43454 -0.07933
 C146 C 0.47661 0.42052 -0.10913
 C147 C 0.43568 0.49036 0.11566
 C148 C 0.50528 0.44492 0.14765
 C149 C 0.43092 0.51733 -0.12343
 O150 O 0.51428 0.54727 -0.16467
 O151 O 0.57584 0.55208 0.10446
 O152 O 0.57752 0.50316 -0.07651
 O153 O 0.47660 0.56770 0.07265
 O154 O 0.53399 0.57798 0.09082
 O155 O 0.53388 0.49551 -0.17125
 O156 O 0.51769 0.58111 -0.05757
 O157 O 0.57780 0.49874 0.07767
 Co158 Co 0.48929 0.49510 -0.12764
 Co159 Co 0.52254 0.52787 0.11840
 Co160 Co 0.54024 0.47182 -0.00111
 Co161 Co 0.47666 0.53600 -0.01124
 O162 O 0.50960 0.50751 -0.00223
 C163 C 0.52573 0.58053 -0.13131
 C164 C 0.59389 0.53321 0.10654
 C165 C 0.56907 0.50519 -0.14985
 C166 C 0.50902 0.58802 0.10676
 O167 O 0.55981 0.02075 -0.10444
 O168 O 0.49773 -0.03340 0.16080
 O169 O 0.56584 0.07603 0.07715
 O170 O 0.45921 -0.10179 -0.05522
 O171 O 0.52204 0.03908 0.17187
 O172 O 0.51206 -0.04846 -0.09749
 O173 O 0.51057 -0.05730 0.05091
 O174 O 0.56527 0.07793 -0.07788
 C175 C 0.57980 0.05779 -0.10599
 C176 C 0.51459 -0.05072 0.12675
 C177 C 0.55733 0.06467 0.15030
 C178 C 0.48710 -0.08501 -0.10982
 O179 O 0.45440 -0.03335 -0.15356
 O180 O 0.45005 0.02600 0.11278
 O181 O 0.49608 0.07476 -0.07307
 O182 O 0.43767 -0.08870 0.08708
 O183 O 0.42581 -0.04211 0.10399
 O184 O 0.50425 0.03825 -0.16567
 O185 O 0.42213 -0.06294 -0.04394
 O186 O 0.50184 0.08142 0.08049
 Co187 Co 0.50643 -0.00497 -0.11921
 Co188 Co 0.47541 -0.00237 0.12753
 Co189 Co 0.52858 0.07043 0.00176
 Co190 Co 0.46787 -0.05752 0.00085
 O191 O 0.49462 0.00399 0.00582
 C192 C 0.42182 -0.05517 -0.11812
 C193 C 0.46800 0.06299 0.11171
 C194 C 0.49387 0.06359 -0.14569
 C195 C 0.41710 -0.07688 0.12154
 C196 C 1.12707 0.43403 0.35826
 C197 C 1.11106 0.43831 0.29873
 C198 C 1.09223 0.44629 0.23322
 C199 C 1.07584 0.45580 0.18236
 C200 C 0.54203 0.68381 0.35602
 C201 C 0.53338 0.66403 0.29465
 C202 C 0.52362 0.63962 0.22492
 C203 C 0.51617 0.61707 0.16838
 C204 C 0.32279 -0.14327 0.37285
 C205 C 0.34285 -0.13105 0.31182
 C206 C 0.36701 -0.11504 0.24186
 C207 C 0.38897 -0.09909 0.18463
 C208 C 0.87511 0.54951 0.36439
 C209 C 0.89011 0.54282 0.30611
 C210 C 0.90841 0.53353 0.24143
 C211 C 0.92464 0.52399 0.19031
 C212 C 0.45908 0.33475 0.37983
 C213 C 0.46887 0.35918 0.32503
 C214 C 0.48091 0.38884 0.26291
 C215 C 0.49172 0.41452 0.21046
 C216 C 0.66851 0.12825 0.37667
 C217 C 0.64409 0.11443 0.32255
 C218 C 0.61417 0.09716 0.26188
 C219 C 0.58817 0.08215 0.21105
 C220 C 0.45309 0.13348 -0.37494
 C221 C 0.46168 0.11760 -0.32066
 C222 C 0.47225 0.09834 -0.25944
 C223 C 0.48179 0.08206 -0.20779
 C224 C 0.67909 0.54533 -0.37736
 C225 C 0.65490 0.53643 -0.32301
 C226 C 0.62530 0.52586 -0.26210
 C227 C 0.59958 0.51660 -0.21100
 C228 C 0.87270 0.30976 -0.36570
 C229 C 0.88839 0.33115 -0.30737
 C230 C 0.90735 0.35845 -0.24255
 C231 C 0.92397 0.38402 -0.19123
 C232 C 0.52370 -0.14471 -0.35873
 C233 C 0.51271 -0.13516 -0.29842
 C234 C 0.50137 -0.12145 -0.22953
 C235 C 0.49357 -0.10669 -0.17292
 C236 C 0.33704 0.48576 -0.37538
 C237 C 0.35768 0.49592 -0.31524
 C238 C 0.38225 0.50567 -0.24587
 C239 C 0.40399 0.51206 -0.18834
 C240 C 1.12491 0.67843 -0.35893
 C241 C 1.10974 0.65752 -0.29955
 C242 C 1.09151 0.63011 -0.23447
 C243 C 1.07540 0.60383 -0.18404
 C244 C 0.87248 0.55748 -0.33732
 C245 C 0.88563 0.55003 -0.27657
 C246 C 0.90205 0.53790 -0.21230
 C247 C 0.91698 0.52494 -0.16478
 C248 C 0.43468 0.31095 -0.33147
 C249 C 0.43921 0.32983 -0.26965
 C250 C 0.44870 0.35721 -0.20468
 C251 C 0.45995 0.38441 -0.15654
 C252 C 0.68896 0.12235 -0.33098
 C253 C 0.66968 0.10865 -0.26914
 C254 C 0.64236 0.09190 -0.20360
 C255 C 0.61544 0.07680 -0.15463
 C256 C 1.13347 0.43688 -0.35066
 C257 C 1.11936 0.44360 -0.29041
 C258 C 1.10165 0.45406 -0.22558
 C259 C 1.08565 0.46504 -0.17629
 C260 C 0.56485 0.69203 -0.35581
 C261 C 0.56160 0.67160 -0.29601
 C262 C 0.55379 0.64355 -0.23127
 C263 C 0.54336 0.61644 -0.18167
 C264 C 0.31006 -0.12966 -0.33682
 C265 C 0.33027 -0.11236 -0.27761
 C266 C 0.35841 -0.09161 -0.21435
 C267 C 0.38571 -0.07432 -0.16641
 C268 C 0.55609 -0.12171 0.34968
 C269 C 0.55236 -0.10430 0.29096
 C270 C 0.54379 -0.08419 0.22740
 C271 C 0.53272 -0.06799 0.17820
 C272 C 0.32326 0.45038 0.33531
 C273 C 0.34411 0.45379 0.27688
 C274 C 0.37285 0.46209 0.21434
 C275 C 0.40023 0.47283 0.16620
 C276 C 1.12932 0.68194 0.34590
 C277 C 1.11610 0.66060 0.28616
 C278 C 1.09951 0.63194 0.22198
 C279 C 1.08445 0.60463 0.17320
 C280 C 0.43052 0.13367 0.33600
 C281 C 0.43463 0.11911 0.27407
 C282 C 0.44322 0.10072 0.20868
 C283 C 0.45330 0.08397 0.15997
 C284 C 0.70053 0.57081 0.33387
 C285 C 0.68201 0.56668 0.27165
 C286 C 0.65545 0.55794 0.20548
 C287 C 0.62905 0.54777 0.15590
 C288 C 0.87028 0.29960 0.33985
 C289 C 0.88402 0.31980 0.27864
 C290 C 0.90108 0.34795 0.21363
 C291 C 0.91653 0.37561 0.16545
   
