data_POSCAR
  _audit_creation_date              2014-09-24
  _audit_creation_method            'ToBaCCo'
  _symmetry_space_group_name_H-M    'P1'
  _symmetry_Int_Tables_number       1
  _symmetry_cell_setting            triclinic
  loop_
  _symmetry_equiv_pos_as_xyz
 x,y,z
_cell_length_a 16.9452
_cell_length_b 14.7983
_cell_length_c 14.6408
_cell_angle_alpha 92.215300
_cell_angle_beta 94.904000
_cell_angle_gamma 86.657900
loop_
  _atom_site_label
  _atom_site_type_symbol
  _atom_site_fract_x
  _atom_site_fract_y
  _atom_site_fract_z
C1 C -0.08490 0.54706 0.43916
 C2 C -0.00334 0.53950 0.42901
 C3 C 0.02956 0.61055 0.38708
 C4 C -0.01661 0.66238 0.32196
 C5 C -0.10070 0.65787 0.32030
 C6 C -0.13609 0.60376 0.38243
 C7 C 0.03636 0.44719 0.41524
 C8 C -0.00924 0.37928 0.37030
 C9 C 0.01803 0.32982 0.29407
 C10 C 0.09188 0.35150 0.26484
 C11 C 0.14536 0.40078 0.32415
 C12 C 0.11806 0.44142 0.40429
 H13 H -0.11017 0.49459 0.47534
 H14 H 0.09308 0.61192 0.39060
 H15 H -0.06956 0.37222 0.38662
 H16 H 0.15603 0.48652 0.44484
 H17 H -0.13839 0.68963 0.26688
 H18 H 0.10708 0.33169 0.19711
 C19 C -0.11167 0.49269 0.67366
 C20 C -0.03790 0.45168 0.69923
 C21 C -0.03136 0.37369 0.75279
 C22 C -0.09923 0.34512 0.79012
 C23 C -0.17297 0.39163 0.76712
 C24 C -0.17803 0.46460 0.70945
 C25 C 0.03016 0.50515 0.68907
 C26 C 0.02876 0.59537 0.72324
 C27 C 0.09780 0.64273 0.73139
 C28 C 0.16588 0.60288 0.69337
 C29 C 0.16514 0.51505 0.65307
 C30 C 0.09755 0.46571 0.65325
 H31 H -0.11651 0.55252 0.63248
 H32 H 0.02671 0.34388 0.77512
 H33 H -0.02282 0.62327 0.75603
 H34 H 0.09689 0.39681 0.62532
 H35 H -0.22689 0.37101 0.79331
 H36 H 0.22041 0.63821 0.69975
 C37 C 0.36226 -0.09652 0.59951
 C38 C 0.34305 -0.00633 0.61874
 C39 C 0.29949 0.01253 0.69268
 C40 C 0.23832 -0.04421 0.70581
 C41 C 0.23811 -0.13074 0.65899
 C42 C 0.30194 -0.15692 0.60364
 C43 C 0.30992 0.03961 0.53601
 C44 C 0.23653 0.01577 0.49031
 C45 C 0.21416 0.04185 0.40029
 C46 C 0.26437 0.09814 0.35969
 C47 C 0.33290 0.12775 0.40921
 C48 C 0.35629 0.09712 0.49614
 H49 H 0.40806 -0.11066 0.55271
 H50 H 0.30068 0.08044 0.72270
 H51 H 0.19971 -0.02802 0.52258
 H52 H 0.41158 0.11707 0.53231
 H53 H 0.18911 -0.17382 0.66283
 H54 H 0.25092 0.11858 0.29052
 C55 C 0.65584 -0.01023 0.45014
 C56 C 0.70550 0.04558 0.40798
 C57 C 0.70962 0.03829 0.31481
 C58 C 0.69346 -0.04475 0.27229
 C59 C 0.64360 -0.10325 0.31170
 C60 C 0.62535 -0.08768 0.40297
 C61 C 0.77360 0.08328 0.46268
 C62 C 0.81299 0.03067 0.53066
 C63 C 0.85027 0.07072 0.61005
 C64 C 0.84602 0.16706 0.61682
 C65 C 0.80828 0.21889 0.54300
 C66 C 0.79020 0.17371 0.45870
 H67 H 0.65178 0.00102 0.52288
 H68 H 0.74784 0.08294 0.28444
 H69 H 0.80479 -0.04103 0.52445
 H70 H 0.76024 0.21175 0.40259
 H71 H 0.62864 -0.16642 0.27671
 H72 H 0.85943 0.20010 0.68281
 C73 C 0.47298 0.22314 1.01335
 C74 C 0.43083 0.15994 0.95788
 C75 C 0.35122 0.14583 0.97244
 C76 C 0.31556 0.19305 1.04580
 C77 C 0.36101 0.25606 1.10047
 C78 C 0.43924 0.27053 1.08499
 C79 C 0.47463 0.11603 0.88358
 C80 C 0.54646 0.06929 0.91277
 C81 C 0.61853 0.08587 0.87633
 C82 C 0.61494 0.14593 0.80315
 C83 C 0.54106 0.18830 0.76935
 C84 C 0.47076 0.16457 0.80342
 H85 H 0.53359 0.23444 1.00057
 H86 H 0.31863 0.09748 0.92887
 H87 H 0.54924 0.03594 0.97766
 H88 H 0.41652 0.20470 0.78451
 H89 H 0.33650 0.29635 1.15526
 H90 H 0.66959 0.17118 0.78348
 C91 C 0.54647 0.79567 1.06725
 C92 C 0.56316 0.83716 0.98725
 C93 C 0.63785 0.82281 0.95573
 C94 C 0.69079 0.75488 0.99236
 C95 C 0.66648 0.69966 1.06119
 C96 C 0.59519 0.72401 1.10243
 C97 C 0.49526 0.86532 0.92347
 C98 C 0.43041 0.90875 0.96164
 C99 C 0.35383 0.88230 0.93524
 C100 C 0.34204 0.82330 0.85733
 C101 C 0.40761 0.78853 0.81036
 C102 C 0.48356 0.81383 0.84167
 H103 H 0.48826 0.80702 1.09256
 H104 H 0.65205 0.85939 0.89693
 H105 H 0.44172 0.95149 1.02255
 H106 H 0.53415 0.77820 0.81329
 H107 H 0.70431 0.64309 1.08681
 H108 H 0.28410 0.79795 0.83853
 B109 B 0.96326 1.05398 0.09220
 B110 B 0.97255 1.07036 -0.02119
 B111 B 1.05545 1.05048 0.05096
 B112 B 1.03175 0.97482 0.12949
 B113 B 0.93562 0.94391 0.09983
 B114 B 0.90076 1.00405 0.00707
 B115 B 1.02728 0.88838 -0.03993
 B116 B 1.01537 0.87516 0.07385
 B117 B 0.93516 0.89198 -0.00552
 B118 B 0.95555 0.96968 -0.08041
 B119 B 1.04848 0.99785 -0.05397
 B120 B 1.08700 0.94156 0.04073
 B121 B 0.58274 0.52891 0.42297
 B122 B 0.57012 0.52808 0.53715
 B123 B 0.52489 0.61280 0.47372
 B124 B 0.49336 0.56780 0.36867
 B125 B 0.51852 0.45565 0.36659
 B126 B 0.56848 0.42897 0.47172
 B127 B 0.41602 0.48497 0.50091
 B128 B 0.42301 0.49135 0.38696
 B129 B 0.47236 0.40526 0.44619
 B130 B 0.50368 0.44941 0.55324
 B131 B 0.47518 0.56172 0.55588
 B132 B 0.42723 0.58743 0.45266
 C133 C 0.97150 1.25290 0.25204
 C134 C 0.93462 1.19696 0.30579
 C135 C 0.91998 1.12118 0.25332
 C136 C 0.94653 1.13492 0.16849
 O137 O 0.97758 1.21609 0.16812
 H138 H 0.92932 1.20485 0.37877
 H139 H 0.90274 1.05940 0.28009
 C140 C 1.02188 0.70774 0.25456
 C141 C 1.10293 0.71097 0.24943
 C142 C 1.11224 0.76252 0.17639
 C143 C 1.03702 0.78837 0.13917
 O144 O 0.98357 0.75451 0.18784
 H145 H 1.15123 0.68357 0.29476
 H146 H 1.16836 0.78402 0.15919
 C147 C 0.90618 1.28137 -0.14078
 C148 C 0.85976 1.29129 -0.06850
 C149 C 0.88269 1.22179 -0.01489
 C150 C 0.94019 1.16952 -0.05790
 O151 O 0.95553 1.20767 -0.13510
 H152 H 0.81622 1.34525 -0.05393
 H153 H 0.85687 1.21166 0.04786
 C154 C 1.10458 0.70985 -0.19898
 C155 C 1.15925 0.69641 -0.12572
 C156 C 1.13327 0.75154 -0.05820
 C157 C 1.06800 0.80254 -0.09516
 O158 O 1.04796 0.77311 -0.18055
 H159 H 1.20704 0.64464 -0.11865
 H160 H 1.16121 0.75350 0.01016
 C161 C 1.14624 1.00921 0.34966
 C162 C 1.08996 0.95664 0.38134
 C163 C 1.03895 0.93779 0.30654
 C164 C 1.06792 0.97859 0.23409
 O165 O 1.13153 1.02283 0.26121
 H166 H 1.08554 0.93412 0.44999
 H167 H 0.98704 0.89855 0.30538
 C168 C 1.17299 0.99638 -0.24261
 C169 C 1.15538 1.08889 -0.23648
 C170 C 1.10978 1.10248 -0.16554
 C171 C 1.09910 1.01760 -0.13565
 O172 O 1.13684 0.95277 -0.18304
 H173 H 1.17761 1.14161 -0.27487
 H174 H 1.09187 1.16728 -0.13568
 C175 C 0.75577 0.91841 0.21623
 C176 C 0.76929 0.82898 0.19672
 C177 C 0.83821 0.82418 0.15763
 C178 C 0.86656 0.91032 0.15927
 O179 O 0.81491 0.96700 0.19619
 H180 H 0.73527 0.77287 0.21182
 H181 H 0.86025 0.76218 0.12780
 C182 C 0.87837 1.01449 -0.31600
 C183 C 0.87786 0.92038 -0.31960
 C184 C 0.90287 0.89300 -0.23470
 C185 C 0.91966 0.97043 -0.18410
 O186 O 0.90477 1.04467 -0.23295
 H187 H 0.86115 0.87435 -0.37599
 H188 H 0.90784 0.82385 -0.21315
 C189 C 1.23808 1.17620 0.06828
 C190 C 1.20797 1.20765 0.14835
 C191 C 1.13855 1.16870 0.15123
 C192 C 1.12594 1.11927 0.07121
 O193 O 1.18818 1.12189 0.02092
 H194 H 1.23526 1.24737 0.20446
 H195 H 1.10643 1.17043 0.21111
 C196 C 0.68939 1.07173 -0.06540
 C197 C 0.69198 1.09952 0.02550
 C198 C 0.76722 1.08207 0.05963
 C199 C 0.80717 1.03898 -0.00941
 O200 O 0.76007 1.03616 -0.08810
 H201 H 0.64550 1.13461 0.06159
 H202 H 0.79066 1.10473 0.12666
 C203 C 1.29425 0.90291 -0.00491
 C204 C 1.30785 0.91899 0.08861
 C205 C 1.23519 0.92923 0.12086
 C206 C 1.18131 0.92131 0.04530
 O207 O 1.21794 0.90437 -0.03067
 H208 H 1.36373 0.91755 0.13032
 H209 H 1.22535 0.93666 0.19191
 C210 C 0.76841 0.75404 -0.03310
 C211 C 0.82494 0.68287 -0.02838
 C212 C 0.89586 0.72200 -0.03346
 C213 C 0.87711 0.81425 -0.03733
 O214 O 0.80007 0.83237 -0.04209
 H215 H 0.81657 0.61290 -0.01463
 H216 H 0.95426 0.68878 -0.02198
 C217 C 0.78643 0.57354 0.36139
 C218 C 0.77890 0.48767 0.32354
 C219 C 0.70792 0.46229 0.34451
 C220 C 0.67097 0.53599 0.38714
 O221 O 0.72119 0.60287 0.40260
 H222 H 0.82406 0.44450 0.29312
 H223 H 0.68694 0.39499 0.33215
 C224 C 0.22277 0.42860 0.29701
 C225 C 0.22672 0.50147 0.24271
 C226 C 0.30041 0.53280 0.26388
 C227 C 0.33997 0.47365 0.32551
 O228 O 0.29058 0.41278 0.34801
 H229 H 0.17780 0.53589 0.20338
 H230 H 0.31817 0.59821 0.24565
 C231 C 0.74760 0.51297 0.68495
 C232 C 0.71144 0.57803 0.73853
 C233 C 0.64211 0.60069 0.68892
 C234 C 0.64185 0.54655 0.60942
 O235 O 0.70734 0.49564 0.60683
 H236 H 0.73096 0.60178 0.80709
 H237 H 0.59393 0.64089 0.71573
 C238 C 0.23572 0.47254 0.61481
 C239 C 0.25860 0.38209 0.61960
 C240 C 0.32627 0.37265 0.57625
 C241 C 0.33872 0.45755 0.54536
 O242 O 0.28425 0.51820 0.57114
 H243 H 0.23129 0.33011 0.65403
 H244 H 0.36392 0.31161 0.57368
 C245 C 0.55565 0.66268 0.15932
 C246 C 0.49580 0.61294 0.11924
 C247 C 0.46001 0.58114 0.18921
 C248 C 0.49891 0.61370 0.27004
 O249 O 0.55759 0.66488 0.25080
 H250 H 0.48069 0.60045 0.04666
 H251 H 0.41943 0.52799 0.17923
 C252 C 0.40361 0.70670 0.74886
 C253 C 0.37979 0.62620 0.77693
 C254 C 0.40496 0.56295 0.71451
 C255 C 0.44245 0.60818 0.65044
 O256 O 0.44175 0.69595 0.67320
 H257 H 0.35199 0.61414 0.83885
 H258 H 0.39601 0.49159 0.71692
 C259 C 0.48678 0.33213 0.14651
 C260 C 0.55288 0.37342 0.12440
 C261 C 0.57684 0.42288 0.20093
 C262 C 0.52580 0.40592 0.26677
 O263 O 0.46931 0.35369 0.23091
 H264 H 0.57783 0.37263 0.05875
 H265 H 0.62043 0.47309 0.20248
 C266 C 0.53848 0.28007 0.73233
 C267 C 0.56871 0.35164 0.78289
 C268 C 0.55080 0.42419 0.73000
 C269 C 0.51334 0.39287 0.64812
 O270 O 0.50067 0.30532 0.65331
 H271 H 0.59782 0.35128 0.85165
 H272 H 0.56162 0.49227 0.75200
 C273 C 0.59157 0.84425 0.45044
 C274 C 0.58302 0.84896 0.54321
 C275 C 0.56023 0.76700 0.56368
 C276 C 0.55251 0.71616 0.48297
 O277 O 0.57236 0.76359 0.41352
 H278 H 0.59496 0.90316 0.59310
 H279 H 0.55405 0.74901 0.63188
 C280 C 0.73887 0.27955 0.56166
 C281 C 0.67674 0.23360 0.58710
 C282 C 0.61292 0.26857 0.53786
 C283 C 0.63412 0.34601 0.49904
 O284 O 0.71299 0.34939 0.50909
 H285 H 0.67977 0.16816 0.61827
 H286 H 0.55677 0.23828 0.53310
 C287 C 0.30495 0.76784 0.54238
 C288 C 0.24306 0.71755 0.50741
 C289 C 0.27690 0.65284 0.45114
 C290 C 0.35771 0.66534 0.45896
 O291 O 0.37288 0.73821 0.51027
 H292 H 0.18147 0.72541 0.52207
 H293 H 0.24680 0.59617 0.41963
 C294 C 0.38122 0.19450 0.37702
 C295 C 0.45402 0.16966 0.34680
 C296 C 0.49888 0.24080 0.37093
 C297 C 0.45015 0.30465 0.41470
 O298 O 0.37867 0.27583 0.41690
 H299 H 0.47432 0.10402 0.31985
 H300 H 0.56025 0.24541 0.35736
   
