data_POSCAR
  _audit_creation_date              2014-09-24
  _audit_creation_method            'ToBaCCo'
  _symmetry_space_group_name_H-M    'P1'
  _symmetry_Int_Tables_number       1
  _symmetry_cell_setting            triclinic
  loop_
  _symmetry_equiv_pos_as_xyz
 x,y,z
_cell_length_a 48.8741
_cell_length_b 47.4873
_cell_length_c 47.9050
_cell_angle_alpha 82.119400
_cell_angle_beta 86.843200
_cell_angle_gamma 96.276200
loop_
  _atom_site_label
  _atom_site_type_symbol
  _atom_site_fract_x
  _atom_site_fract_y
  _atom_site_fract_z
C1 C 0.27709 0.48072 0.99352
 C2 C 0.26707 0.50627 0.99863
 C3 C 0.28518 0.52852 1.00639
 C4 C 0.31336 0.52556 1.00888
 C5 C 0.32294 0.49978 1.00343
 C6 C 0.30506 0.47752 0.99565
 C7 C 0.23787 0.51020 0.99474
 C8 C 0.22133 0.51834 1.01652
 C9 C 0.19342 0.52197 1.01298
 C10 C 0.18297 0.51876 0.98663
 C11 C 0.19932 0.51084 0.96474
 C12 C 0.22660 0.50598 0.96907
 H13 H 0.26325 0.46360 0.98731
 H14 H 0.27720 0.54821 1.01009
 H15 H 0.23012 0.52094 1.03642
 H16 H 0.23934 0.49988 0.95218
 H17 H 0.34453 0.49689 1.00491
 H18 H 0.16169 0.52176 0.98312
 C19 C 0.72221 0.47565 -0.00906
 C20 C 0.73919 0.49907 -0.00174
 C21 C 0.72803 0.52476 0.00099
 C22 C 0.70053 0.52752 -0.00469
 C23 C 0.68407 0.50411 -0.01231
 C24 C 0.69448 0.47799 -0.01423
 C25 C 0.76893 0.49728 0.00165
 C26 C 0.78527 0.48785 -0.01954
 C27 C 0.81389 0.48755 -0.01753
 C28 C 0.82577 0.49689 0.00624
 C29 C 0.80977 0.50637 0.02749
 C30 C 0.78129 0.50631 0.02524
 H31 H 0.73067 0.45577 -0.01085
 H32 H 0.74107 0.54293 0.00636
 H33 H 0.77560 0.48127 -0.03780
 H34 H 0.76886 0.51379 0.04152
 H35 H 0.66268 0.50609 -0.01611
 H36 H 0.84773 0.49698 0.00837
 C37 C 0.03101 0.22335 0.49335
 C38 C 0.00689 0.23636 0.48872
 C39 C -0.01709 0.22005 0.48240
 C40 C -0.01719 0.19072 0.48088
 C41 C 0.00708 0.17798 0.48560
 C42 C 0.03121 0.19406 0.49191
 C43 C 0.00638 0.26677 0.49167
 C44 C 0.00350 0.28693 0.46801
 C45 C 0.00288 0.31606 0.47070
 C46 C 0.00544 0.32446 0.49766
 C47 C 0.00816 0.30439 0.52141
 C48 C 0.00851 0.27553 0.51831
 H49 H 0.04938 0.23595 0.49856
 H50 H -0.03570 0.23019 0.47909
 H51 H 0.00167 0.27968 0.44763
 H52 H 0.01064 0.25990 0.53656
 H53 H 0.00714 0.15532 0.48469
 H54 H 0.00510 0.34669 0.50043
 C55 C 1.01409 0.77719 0.50986
 C56 C 0.98938 0.75881 0.51124
 C57 C 0.96397 0.76931 0.51539
 C58 C 0.96320 0.79820 0.51837
 C59 C 0.98803 0.81647 0.51666
 C60 C 1.01372 0.80636 0.51224
 C61 C 0.99043 0.72863 0.50784
 C62 C 0.98891 0.70764 0.53173
 C63 C 0.99281 0.67919 0.52884
 C64 C 0.99786 0.67233 0.50145
 C65 C 0.99879 0.69304 0.47742
 C66 C 0.99501 0.72124 0.48076
 H67 H 1.03348 0.76864 0.50642
 H68 H 0.94497 0.75500 0.51645
 H69 H 0.98552 0.71384 0.55248
 H70 H 0.99632 0.73761 0.46243
 H71 H 0.98715 0.83883 0.51855
 H72 H 1.00074 0.65059 0.49857
 C73 C 0.49764 0.02287 0.21953
 C74 C 0.50463 -0.00046 0.23798
 C75 C 0.50943 -0.02580 0.22747
 C76 C 0.50572 -0.02843 0.19908
 C77 C 0.49809 -0.00520 0.18100
 C78 C 0.49469 0.02081 0.19087
 C79 C 0.50525 0.00109 0.26854
 C80 C 0.48205 0.00827 0.28341
 C81 C 0.48184 0.00902 0.31261
 C82 C 0.50524 0.00251 0.32682
 C83 C 0.52861 -0.00474 0.31225
 C84 C 0.52850 -0.00537 0.28304
 H85 H 0.49431 0.04254 0.22764
 H86 H 0.51467 -0.04391 0.24167
 H87 H 0.46405 0.01300 0.27221
 H88 H 0.54633 -0.01108 0.27158
 H89 H 0.49565 -0.00719 0.15899
 H90 H 0.50522 0.00295 0.34937
 C91 C 0.48547 0.02739 0.77483
 C92 C 0.49190 0.00175 0.76607
 C93 C 0.49682 -0.02125 0.78616
 C94 C 0.49426 -0.01925 0.81526
 C95 C 0.48698 0.00643 0.82361
 C96 C 0.48308 0.02982 0.80361
 C97 C 0.49239 -0.00132 0.73590
 C98 C 0.51739 -0.00320 0.72074
 C99 C 0.51786 -0.00502 0.69173
 C100 C 0.49295 -0.00645 0.67849
 C101 C 0.46776 -0.00520 0.69350
 C102 C 0.46769 -0.00202 0.72218
 H103 H 0.48200 0.04524 0.75927
 H104 H 0.50193 -0.04082 0.77896
 H105 H 0.53644 -0.00217 0.73132
 H106 H 0.44844 -0.00075 0.73405
 H107 H 0.48511 0.00878 0.84580
 H108 H 0.49321 -0.00829 0.65618
 C109 C 0.29729 0.04488 0.47409
 H110 H 0.29902 0.05609 0.49222
 C111 C 0.31898 0.04863 0.45321
 H112 H 0.33723 0.06309 0.45530
 C113 C 0.27201 0.01102 0.45042
 H114 H 0.25410 -0.00435 0.44993
 C115 C 0.29308 0.01438 0.42887
 H116 H 0.29099 0.00162 0.41187
 N117 N 0.27471 0.02583 0.47268
 C118 C 0.20848 0.04182 0.53072
 H119 H 0.20614 0.02159 0.54460
 C120 C 0.18918 0.06105 0.53302
 H121 H 0.17223 0.05554 0.54905
 C122 C 0.23263 0.07253 0.49189
 H123 H 0.24910 0.07639 0.47532
 C124 C 0.21383 0.09257 0.49358
 H125 H 0.21612 0.11186 0.47829
 Zn126 Zn 0.24983 0.01691 0.50512
 N127 N 0.22931 0.04754 0.51005
 C128 C 0.27076 0.02295 0.55874
 N129 N 0.27119 0.00836 0.53621
 C130 C 0.28899 -0.01137 0.53378
 C131 C 0.30765 -0.01681 0.55426
 C132 C 0.28910 0.01815 0.57981
 C133 C 0.20379 -0.00942 0.48358
 C134 C 0.18182 -0.03036 0.48200
 C135 C 0.20209 -0.06246 0.51638
 C136 C 0.22345 -0.04065 0.51772
 N137 N 0.22382 -0.01471 0.50152
 H138 H 0.25680 0.03895 0.55999
 H139 H 0.28918 -0.02232 0.51540
 H140 H 0.32198 -0.03222 0.55149
 H141 H 0.28892 0.03046 0.59723
 H142 H 0.20444 0.01150 0.47117
 H143 H 0.16570 -0.02546 0.46811
 H144 H 0.20174 -0.08278 0.52985
 H145 H 0.23925 -0.04429 0.53225
 C146 C 0.19129 0.08650 0.51386
 C147 C 0.31732 0.03274 0.43057
 C148 C 0.18064 -0.05717 0.49877
 C149 C 0.30821 -0.00162 0.57745
 C150 C 0.70608 0.00311 0.51954
 H151 H 0.70761 0.01539 0.49864
 C152 C 0.68558 0.00708 0.53950
 H153 H 0.67153 0.02267 0.53373
 C154 C 0.72214 -0.03280 0.55181
 H155 H 0.73604 -0.04879 0.55624
 C156 C 0.70195 -0.02942 0.57255
 H157 H 0.70060 -0.04282 0.59289
 N158 N 0.72377 -0.01660 0.52590
 C159 C 0.79589 0.00940 0.46704
 H160 H 0.79655 -0.00964 0.45706
 C161 C 0.81740 0.03173 0.46120
 H162 H 0.83449 0.02975 0.44651
 C163 C 0.77333 0.03441 0.49928
 H164 H 0.75655 0.03507 0.51472
 C165 C 0.79423 0.05736 0.49385
 H166 H 0.79312 0.07551 0.50513
 Zn167 Zn 0.74844 -0.02183 0.49579
 N168 N 0.77459 0.01098 0.48601
 C169 C 0.73069 -0.01052 0.44010
 N170 N 0.72666 -0.02796 0.46535
 C171 C 0.70447 -0.04825 0.47113
 C172 C 0.68449 -0.05073 0.45165
 C173 C 0.71131 -0.01248 0.41983
 C174 C 0.78639 -0.05025 0.52627
 C175 C 0.80414 -0.07089 0.53281
 C176 C 0.78388 -0.09755 0.49805
 C177 C 0.76647 -0.07632 0.49216
 N178 N 0.76827 -0.05313 0.50606
 H179 H 0.74823 0.00579 0.43614
 H180 H 0.70164 -0.06156 0.49153
 H181 H 0.66646 -0.06632 0.45715
 H182 H 0.71430 0.00230 0.40030
 H183 H 0.78763 -0.03138 0.53669
 H184 H 0.81884 -0.06772 0.54852
 H185 H 0.78269 -0.11545 0.48622
 H186 H 0.75222 -0.07793 0.47583
 C187 C 0.81692 0.05597 0.47499
 C188 C 0.68310 -0.00950 0.56634
 C189 C 0.80342 -0.09468 0.51824
 C190 C 0.68741 -0.03220 0.42590
 C191 C 0.45107 0.20464 1.00607
 H192 H 0.43630 0.20247 0.99039
 C193 C 0.45069 0.18289 1.02887
 H194 H 0.43559 0.16418 1.03030
 C195 C 0.48865 0.23144 1.02319
 H196 H 0.50346 0.25037 1.02089
 C197 C 0.48879 0.21029 1.04657
 H198 H 0.50399 0.21308 1.06188
 N199 N 0.47034 0.22799 1.00316
 C200 C 0.43691 0.29171 0.94469
 H201 H 0.45048 0.29171 0.92607
 C202 C 0.41676 0.31036 0.94406
 H203 H 0.41482 0.32459 0.92476
 C204 C 0.42411 0.27418 0.99292
 H205 H 0.42764 0.26058 1.01208
 C206 C 0.40335 0.29224 0.99311
 H207 H 0.39102 0.29241 1.01256
 Zn208 Zn 0.47219 0.25480 0.96951
 N209 N 0.44086 0.27490 0.96913
 C210 C 0.44701 0.22065 0.93323
 N211 N 0.47179 0.23448 0.93804
 C212 C 0.49502 0.23250 0.92176
 C213 C 0.49414 0.21447 0.90096
 C214 C 0.44525 0.20220 0.91299
 C215 C 0.50133 0.30990 0.96552
 C216 C 0.52406 0.33052 0.96425
 C217 C 0.55368 0.29291 0.96804
 C218 C 0.53023 0.27287 0.96884
 N219 N 0.50464 0.28165 0.96748
 H220 H 0.42861 0.22337 0.94567
 H221 H 0.51444 0.24408 0.92542
 H222 H 0.51303 0.21218 0.88902
 H223 H 0.42547 0.19056 0.91032
 H224 H 0.48100 0.31669 0.96526
 H225 H 0.52066 0.35281 0.96280
 H226 H 0.57384 0.28557 0.96928
 H227 H 0.53242 0.25027 0.97098
 C228 C 0.40017 0.31132 0.96870
 C229 C 0.47004 0.18529 1.04923
 C230 C 0.55070 0.32222 0.96557
 C231 C 0.46915 0.19833 0.89709
 C232 C 0.50956 0.79778 0.00875
 H233 H 0.49744 0.79535 0.02871
 C234 C 0.50662 0.82046 -0.01221
 H235 H 0.49212 0.83535 -0.00817
 C236 C 0.54312 0.78115 -0.02053
 H237 H 0.55760 0.76605 -0.02357
 C238 C 0.54054 0.80335 -0.04230
 H239 H 0.55305 0.80500 -0.06195
 N240 N 0.52738 0.77855 0.00423
 C241 C 0.49578 0.69763 0.05494
 H242 H 0.51317 0.69382 0.06738
 C243 C 0.47354 0.67631 0.05604
 H244 H 0.47391 0.65611 0.06953
 C245 C 0.47479 0.72823 0.02136
 H246 H 0.47565 0.74818 0.00731
 C247 C 0.45188 0.70769 0.02221
 H248 H 0.43530 0.71214 0.00878
 Zn249 Zn 0.52895 0.74863 0.03440
 N250 N 0.49621 0.72280 0.03746
 C251 C 0.50930 0.76246 0.08633
 N252 N 0.53176 0.76590 0.06760
 C253 C 0.55382 0.78547 0.06958
 C254 C 0.55328 0.80346 0.09036
 C255 C 0.50766 0.78037 0.10699
 C256 C 0.55592 0.71238 0.00535
 C257 C 0.57502 0.69391 -0.00049
 C258 C 0.59929 0.70598 0.03965
 C259 C 0.57965 0.72446 0.04467
 N260 N 0.55847 0.72721 0.02756
 H261 H 0.49173 0.74726 0.08401
 H262 H 0.57109 0.78832 0.05393
 H263 H 0.57038 0.81992 0.09074
 H264 H 0.48897 0.77841 0.12070
 H265 H 0.53856 0.71449 -0.00754
 H266 H 0.57216 0.68214 -0.01813
 H267 H 0.61572 0.70361 0.05375
 H268 H 0.58094 0.73595 0.06261
 C269 C 0.45136 0.68111 0.03929
 C270 C 0.52205 0.82332 -0.03825
 C271 C 0.59693 0.69017 0.01694
 C272 C 0.52948 0.80174 0.10860
 C273 C 1.01781 0.52469 0.19327
 H274 H 0.99779 0.51225 0.19415
 C275 C 1.03737 0.52364 0.17127
 H276 H 1.03226 0.51015 0.15537
 C277 C 1.04841 0.55781 0.21271
 H278 H 1.05242 0.57156 0.22856
 C279 C 1.06885 0.55697 0.19130
 H280 H 1.08851 0.57002 0.19095
 N281 N 1.02352 0.54167 0.21335
 C282 C 1.00330 0.48596 0.26262
 H283 H 1.01637 0.48664 0.24355
 C284 C 1.00180 0.46232 0.28377
 H285 H 1.01370 0.44492 0.28066
 C286 C 0.97301 0.50835 0.29048
 H287 H 0.96224 0.52665 0.29306
 C288 C 0.97131 0.48541 0.31233
 H289 H 0.95892 0.48612 0.33161
 Zn290 Zn 0.99426 0.54279 0.24060
 N291 N 0.98921 0.50846 0.26646
 C292 C 0.93946 0.52772 0.22625
 N293 N 0.96225 0.54732 0.22080
 C294 C 0.96429 0.56866 0.19850
 C295 C 0.94351 0.56996 0.17968
 C296 C 0.91801 0.52842 0.20811
 C297 C 1.02286 0.56991 0.27969
 C298 C 1.02742 0.58850 0.29950
 C299 C 0.98977 0.61340 0.28229
 C300 C 0.98593 0.59426 0.26270
 N301 N 1.00216 0.57280 0.26209
 H302 H 0.93843 0.51070 0.24387
 H303 H 0.98280 0.58376 0.19451
 H304 H 0.94611 0.58641 0.16138
 H305 H 0.90057 0.51192 0.21213
 H306 H 1.03509 0.55230 0.27912
 H307 H 1.04352 0.58516 0.31383
 H308 H 0.97601 0.62969 0.28319
 H309 H 0.96925 0.59581 0.24887
 C310 C 0.98617 0.46220 0.30929
 C311 C 1.06326 0.53995 0.17006
 C312 C 1.01031 0.61017 0.30152
 C313 C 0.92034 0.54917 0.18392
 C314 C -0.01219 0.44583 0.81556
 H315 H 0.00916 0.44612 0.82026
 C316 C -0.03217 0.44508 0.83760
 H317 H -0.02567 0.44470 0.85888
 C318 C -0.04622 0.44683 0.78224
 H319 H -0.05147 0.44828 0.76049
 C320 C -0.06699 0.44630 0.80376
 H321 H -0.08813 0.44705 0.79834
 N322 N -0.01932 0.44719 0.78841
 C323 C 0.03614 0.41728 0.72768
 H324 H 0.05452 0.43036 0.73200
 C325 C 0.03794 0.39885 0.70757
 H326 H 0.05783 0.39757 0.69698
 C327 C -0.01230 0.40499 0.73439
 H328 H -0.03196 0.40829 0.74405
 C329 C -0.01138 0.38589 0.71463
 H330 H -0.03043 0.37457 0.70937
 Zn331 Zn 0.00990 0.45288 0.75943
 N332 N 0.01121 0.42074 0.73998
 C333 C 0.05621 0.43909 0.78963
 N334 N 0.04369 0.46072 0.77603
 C335 C 0.05330 0.48859 0.77651
 C336 C 0.07575 0.49566 0.79197
 C337 C 0.07895 0.44522 0.80520
 C338 C -0.01259 0.50382 0.73623
 C339 C -0.01511 0.52666 0.71502
 C340 C 0.02004 0.50993 0.68614
 C341 C 0.02217 0.48784 0.70792
 N342 N 0.00566 0.48479 0.73216
 H343 H 0.04784 0.41709 0.78934
 H344 H 0.04277 0.50542 0.76590
 H345 H 0.08246 0.51801 0.79282
 H346 H 0.08803 0.42774 0.81672
 H347 H -0.02511 0.50143 0.75590
 H348 H -0.02988 0.54148 0.71840
 H349 H 0.03323 0.51161 0.66692
 H350 H 0.03695 0.47294 0.70531
 C351 C 0.01387 0.38357 0.70016
 C352 C -0.05994 0.44600 0.83186
 C353 C 0.00111 0.52960 0.68941
 C354 C 0.08851 0.47385 0.80709
 C355 C 0.10145 0.15226 0.50642
 N356 N 0.10415 0.18047 0.49549
 N357 N 0.08187 0.19402 0.49133
 C358 C 0.05612 0.17977 0.49761
 N359 N 0.05355 0.15162 0.50861
 N360 N 0.07575 0.13819 0.51303
 C361 C 0.12557 0.13654 0.51000
 N362 N 0.12252 0.10987 0.52497
 N363 N 0.14367 0.09447 0.52682
 C364 C 0.16873 0.10498 0.51362
 N365 N 0.17186 0.13183 0.49878
 N366 N 0.15070 0.14737 0.49710
 C367 C 0.66324 0.60217 0.00117
 N368 N 0.65474 0.58393 -0.01688
 N369 N 0.66704 0.56062 -0.01898
 C370 C 0.68848 0.55460 -0.00325
 N371 N 0.69740 0.57313 0.01451
 N372 N 0.68491 0.59646 0.01678
 C373 C 0.64790 0.62662 0.00440
 N374 N 0.65230 0.64270 0.02547
 N375 N 0.63658 0.66336 0.02921
 C376 C 0.61591 0.66872 0.01202
 N377 N 0.61193 0.65281 -0.00921
 N378 N 0.62753 0.63220 -0.01290
 C379 C 0.88991 -0.16459 0.52692
 N380 N 0.89052 -0.18791 0.51342
 N381 N 0.91353 -0.20049 0.51147
 C382 C 0.93680 -0.19000 0.52270
 N383 N 0.93595 -0.16695 0.53651
 N384 N 0.91297 -0.15456 0.53864
 C385 C 0.86580 -0.14869 0.52690
 N386 N 0.86563 -0.12607 0.54137
 N387 N 0.84532 -0.10958 0.53931
 C388 C 0.82436 -0.11491 0.52259
 N389 N 0.82431 -0.13787 0.50844
 N390 N 0.84463 -0.15447 0.51057
 C391 C 0.33891 0.40403 0.97846
 N392 N 0.35181 0.43051 0.96832
 N393 N 0.34077 0.45379 0.97356
 C394 C 0.31623 0.45152 0.98885
 N395 N 0.30302 0.42503 0.99864
 N396 N 0.31429 0.40166 0.99372
 C397 C 0.35253 0.37875 0.97427
 N398 N 0.34633 0.35372 0.99203
 N399 N 0.36090 0.33185 0.98983
 C400 C 0.38198 0.33414 0.96960
 N401 N 0.38771 0.35901 0.95155
 N402 N 0.37338 0.38093 0.95392
 C403 C 0.91074 0.13810 0.46971
 N404 N 0.90917 0.16382 0.47871
 N405 N 0.93205 0.18096 0.48151
 C406 C 0.95734 0.17291 0.47565
 N407 N 0.95879 0.14730 0.46638
 N408 N 0.93596 0.13026 0.46340
 C409 C 0.88579 0.11808 0.46876
 N410 N 0.88747 0.09320 0.45818
 N411 N 0.86537 0.07388 0.45937
 C412 C 0.84075 0.07860 0.47134
 N413 N 0.83905 0.10370 0.48161
 N414 N 0.86112 0.12310 0.48030
 C415 C 0.36865 0.59128 0.02768
 N416 N 0.34216 0.59565 0.02313
 N417 N 0.32410 0.57434 0.01755
 C418 C 0.33191 0.54793 0.01591
 N419 N 0.35845 0.54375 0.02060
 N420 N 0.37639 0.56491 0.02647
 C421 C 0.38912 0.61475 0.03259
 N422 N 0.41376 0.60897 0.04229
 N423 N 0.43320 0.63011 0.04515
 C424 C 0.42886 0.65787 0.03816
 N425 N 0.40410 0.66366 0.02860
 N426 N 0.38454 0.64249 0.02599
 C427 C 0.08539 -0.13757 0.50483
 N428 N 0.06035 -0.12789 0.50613
 N429 N 0.03733 -0.14606 0.50874
 C430 C 0.03829 -0.17470 0.50987
 N431 N 0.06349 -0.18433 0.50842
 N432 N 0.08660 -0.16615 0.50612
 C433 C 0.11053 -0.11719 0.50223
 N434 N 0.13531 -0.12595 0.50844
 N435 N 0.15774 -0.10697 0.50711
 C436 C 0.15626 -0.07859 0.49919
 N437 N 0.13150 -0.06999 0.49271
 N438 N 0.10907 -0.08888 0.49432
 C439 C 0.63867 0.40940 0.96959
 N440 N 0.63350 0.43688 0.96285
 N441 N 0.65164 0.45846 0.96734
 C442 C 0.67579 0.45358 0.97874
 N443 N 0.68129 0.42603 0.98502
 N444 N 0.66302 0.40431 0.98058
 C445 C 0.61704 0.38610 0.96672
 N446 N 0.62032 0.35813 0.97462
 N447 N 0.59952 0.33761 0.97368
 C448 C 0.57469 0.34434 0.96498
 N449 N 0.57173 0.37229 0.95680
 N450 N 0.59244 0.39270 0.95764
 C451 C 0.47974 0.09165 1.13359
 N452 N 0.47304 0.06461 1.12796
 N453 N 0.47748 0.04213 1.14631
 C454 C 0.48858 0.04579 1.17113
 N455 N 0.49497 0.07288 1.17688
 N456 N 0.49074 0.09539 1.15842
 C457 C 0.47608 0.11631 1.11259
 N458 N 0.48779 0.14304 1.11514
 N459 N 0.48559 0.16508 1.09525
 C460 C 0.47143 0.16127 1.07215
 N461 N 0.45951 0.13455 1.06984
 N462 N 0.46186 0.11250 1.08961
 C463 C -0.00705 0.61672 0.59791
 N464 N -0.01323 0.64325 0.60152
 N465 N -0.01344 0.66349 0.57927
 C466 C -0.00760 0.65795 0.55257
 N467 N -0.00169 0.63126 0.54922
 N468 N -0.00133 0.61115 0.57137
 C469 C -0.00559 0.59434 0.62200
 N470 N 0.00513 0.57002 0.61768
 N471 N 0.00712 0.54959 0.63915
 C472 C -0.00167 0.55251 0.66585
 N473 N -0.01264 0.57680 0.67021
 N474 N -0.01447 0.59742 0.64868
 C475 C 0.50739 0.91392 -0.12406
 N476 N 0.51166 0.91185 -0.15193
 N477 N 0.50736 0.93335 -0.17161
 C478 C 0.49876 0.95780 -0.16421
 N479 N 0.49463 0.95967 -0.13626
 N480 N 0.49876 0.93819 -0.11663
 C481 C 0.51158 0.89036 -0.10207
 N482 N 0.50317 0.89128 -0.07478
 N483 N 0.50659 0.87001 -0.05460
 C484 C 0.51873 0.84703 -0.06084
 N485 N 0.52731 0.84620 -0.08817
 N486 N 0.52373 0.86744 -0.10844
 C487 C 0.99353 0.37613 0.40195
 N488 N 0.99669 0.34876 0.39843
 N489 N 0.99957 0.32929 0.42060
 C490 C 0.99969 0.33646 0.44716
 N491 N 0.99660 0.36395 0.45046
 N492 N 0.99348 0.38333 0.42838
 C493 C 0.99058 0.39785 0.37770
 N494 N 0.98246 0.42346 0.38189
 N495 N 0.98050 0.44361 0.36009
 C496 C 0.98677 0.43904 0.33323
 N497 N 0.99486 0.41335 0.32905
 N498 N 0.99660 0.39308 0.35086
 C499 C 0.51528 0.89532 0.16692
 N500 N 0.53370 0.90554 0.18440
 N501 N 0.53047 0.92956 0.19509
 C502 C 0.50897 0.94445 0.18828
 N503 N 0.49065 0.93424 0.17075
 N504 N 0.49365 0.91004 0.16044
 C505 C 0.51897 0.86946 0.15420
 N506 N 0.49703 0.85467 0.14448
 N507 N 0.50038 0.83243 0.13102
 C508 C 0.52583 0.82429 0.12643
 N509 N 0.54781 0.83901 0.13629
 N510 N 0.54441 0.86107 0.15013
 C511 C 0.01377 0.33284 0.60009
 N512 N -0.00103 0.30740 0.59796
 N513 N -0.00240 0.29798 0.57302
 C514 C 0.01065 0.31388 0.54930
 N515 N 0.02541 0.33929 0.55152
 N516 N 0.02709 0.34850 0.57645
 C517 C 0.01475 0.34406 0.62713
 N518 N 0.03483 0.36513 0.63055
 N519 N 0.03496 0.37687 0.65422
 C520 C 0.01488 0.36823 0.67533
 N521 N -0.00520 0.34702 0.67197
 N522 N -0.00516 0.33502 0.64837
 C523 C 0.47055 0.10564 0.83498
 N524 N 0.45668 0.08025 0.84719
 N525 N 0.46009 0.05627 0.83667
 C526 C 0.47722 0.05680 0.81328
 N527 N 0.49069 0.08230 0.80066
 N528 N 0.48754 0.10629 0.81142
 C529 C 0.46878 0.13126 0.84863
 N530 N 0.48894 0.15377 0.84347
 N531 N 0.48875 0.17557 0.85828
 C532 C 0.46827 0.17578 0.87861
 N533 N 0.44788 0.15348 0.88329
 N534 N 0.44820 0.13160 0.86871
 C535 C 1.01060 0.66625 0.39829
 N536 N 0.99610 0.68866 0.40109
 N537 N 0.99295 0.69785 0.42605
 C538 C 1.00393 0.68474 0.44914
 N539 N 1.01864 0.66256 0.44615
 N540 N 1.02198 0.65357 0.42123
 C541 C 1.01248 0.65421 0.37169
 N542 N 1.02879 0.63324 0.36916
 N543 N 1.02878 0.62009 0.34637
 C544 C 1.01237 0.62723 0.32519
 N545 N 0.99633 0.64859 0.32753
 N546 N 0.99642 0.66188 0.35033
 C547 C 1.14064 0.53528 0.07895
 N548 N 1.13122 0.53190 0.05341
 N549 N 1.14843 0.52825 0.03208
 C550 C 1.17581 0.52758 0.03535
 N551 N 1.18527 0.53126 0.06098
 N552 N 1.16803 0.53512 0.08235
 C553 C 1.12096 0.53747 0.10260
 N554 N 1.12953 0.54516 0.12727
 N555 N 1.11124 0.54630 0.14871
 C556 C 1.08378 0.53948 0.14633
 N557 N 1.07536 0.53185 0.12162
 N558 N 1.09356 0.53096 0.10017
 C559 C 0.59117 -0.00375 0.64162
 N560 N 0.56849 0.00581 0.63035
 N561 N 0.54539 0.00545 0.64645
 C562 C 0.54403 -0.00434 0.67452
 N563 N 0.56687 -0.01362 0.68596
 N564 N 0.59002 -0.01347 0.66975
 C565 C 0.61598 -0.00413 0.62305
 N566 N 0.63725 -0.01840 0.63194
 N567 N 0.65886 -0.01983 0.61412
 C568 C 0.66002 -0.00694 0.58683
 N569 N 0.63883 0.00754 0.57821
 N570 N 0.61724 0.00885 0.59591
 C571 C -0.13596 0.46385 0.91954
 N572 N -0.12574 0.47004 0.94401
 N573 N -0.14203 0.47742 0.96426
 C574 C -0.16933 0.47885 0.96108
 N575 N -0.17963 0.47228 0.93661
 N576 N -0.16325 0.46504 0.91618
 C577 C -0.11716 0.45721 0.89696
 N578 N -0.12555 0.45471 0.87075
 N579 N -0.10762 0.45049 0.85011
 C580 C -0.08067 0.44853 0.85495
 N581 N -0.07254 0.45068 0.88130
 N582 N -0.09037 0.45496 0.90184
 C583 C 0.41156 0.02620 0.35871
 N584 N 0.40939 0.01715 0.33315
 N585 N 0.43176 0.01220 0.31825
 C586 C 0.45712 0.01585 0.32844
 N587 N 0.45922 0.02505 0.35395
 N588 N 0.43690 0.03020 0.36876
 C589 C 0.38685 0.03004 0.37602
 N590 N 0.38935 0.04173 0.40019
 N591 N 0.36714 0.04343 0.41700
 C592 C 0.34156 0.03338 0.41041
 N593 N 0.33908 0.02195 0.38603
 N594 N 0.36128 0.02040 0.36911
 C595 C 0.16109 0.49898 0.89049
 N596 N 0.15615 0.52106 0.90450
 N597 N 0.16888 0.52514 0.92770
 C598 C 0.18727 0.50749 0.93766
 N599 N 0.19271 0.48571 0.92333
 N600 N 0.17970 0.48141 0.90023
 C601 C 0.14476 0.49319 0.86667
 N602 N 0.14274 0.46715 0.85775
 N603 N 0.12547 0.46116 0.83819
 C604 C 0.10972 0.48104 0.82670
 N605 N 0.11224 0.50722 0.83531
 N606 N 0.12931 0.51313 0.85497
 C607 C 0.59730 -0.02257 0.35739
 N608 N 0.60057 -0.01215 0.32941
 N609 N 0.57872 -0.00697 0.31485
 C610 C 0.55286 -0.01172 0.32782
 N611 N 0.54968 -0.02226 0.35576
 N612 N 0.57145 -0.02767 0.37023
 C613 C 0.62119 -0.02696 0.37407
 N614 N 0.61740 -0.04100 0.40088
 N615 N 0.63863 -0.04341 0.41693
 C616 C 0.66451 -0.03172 0.40691
 N617 N 0.66834 -0.01786 0.37996
 N618 N 0.64709 -0.01562 0.36380
 C619 C 0.85089 0.53282 0.09558
 N620 N 0.86272 0.53892 0.06885
 N621 N 0.84933 0.53096 0.04726
 C622 C 0.82344 0.51680 0.05147
 N623 N 0.81130 0.51116 0.07818
 N624 N 0.82487 0.51886 0.09989
 C625 C 0.86707 0.53944 0.11931
 N626 N 0.85957 0.52641 0.14608
 N627 N 0.87602 0.53022 0.16691
 C628 C 0.90046 0.54736 0.16178
 N629 N 0.90757 0.56080 0.13508
 N630 N 0.89127 0.55685 0.11426
 C631 C 0.39588 -0.00890 0.64954
 N632 N 0.39665 0.00325 0.67361
 N633 N 0.41925 0.00399 0.68803
 C634 C 0.44196 -0.00716 0.67874
 N635 N 0.44097 -0.01946 0.65480
 N636 N 0.41840 -0.02037 0.64054
 C637 C 0.37189 -0.00856 0.63242
 N638 N 0.37119 -0.02258 0.60959
 N639 N 0.35058 -0.02092 0.59266
 C640 C 0.32983 -0.00509 0.59776
 N641 N 0.33038 0.00872 0.62083
 N642 N 0.35100 0.00699 0.63788
   
