data_POSCAR
  _audit_creation_date              2014-09-24
  _audit_creation_method            'ToBaCCo'
  _symmetry_space_group_name_H-M    'P1'
  _symmetry_Int_Tables_number       1
  _symmetry_cell_setting            triclinic
  loop_
  _symmetry_equiv_pos_as_xyz
 x,y,z
_cell_length_a 40.3412
_cell_length_b 40.6004
_cell_length_c 40.3338
_cell_angle_alpha 89.800000
_cell_angle_beta 89.961700
_cell_angle_gamma 90.092900
loop_
  _atom_site_label
  _atom_site_type_symbol
  _atom_site_fract_x
  _atom_site_fract_y
  _atom_site_fract_z
C1 C 0.34226 0.38935 1.36995
 C2 C 0.36446 0.39039 1.34313
 C3 C 0.38784 0.36576 1.33947
 C4 C 0.38975 0.34017 1.36280
 C5 C 0.36824 0.33941 1.38933
 C6 C 0.34403 0.36392 1.39268
 C7 C 0.31505 0.40805 1.37814
 N8 N 0.29973 0.39435 1.40508
 C9 C 0.31780 0.36738 1.41410
 C10 C 0.37490 0.31123 1.40710
 N11 N 0.39997 0.29448 1.39195
 C12 C 0.40899 0.31232 1.36464
 C13 C 0.40435 0.37158 1.31021
 N14 N 0.39176 0.39927 1.29610
 C15 C 0.36740 0.41103 1.31608
 H16 H 0.30615 0.42881 1.36386
 H17 H 0.31242 0.35086 1.43448
 H18 H 0.36120 0.30314 1.42870
 H19 H 0.42836 0.30608 1.34724
 H20 H 0.42389 0.35660 1.29976
 H21 H 0.35222 0.43236 1.31075
 C22 C 1.15255 0.60665 0.87440
 C23 C 1.12901 0.60668 0.84889
 C24 C 1.10545 0.63139 0.84708
 C25 C 1.10521 0.65649 0.87102
 C26 C 1.12850 0.65634 0.89605
 C27 C 1.15253 0.63148 0.89757
 C28 C 1.17981 0.58728 0.88054
 N29 N 1.19691 0.59999 0.90672
 C30 C 1.18003 0.62713 0.91723
 C31 C 1.12388 0.68430 0.91442
 N32 N 1.09820 0.70199 0.90143
 C33 C 1.08681 0.68486 0.87461
 C34 C 1.08794 0.62659 0.81812
 N35 N 1.10059 0.59983 0.80235
 C36 C 1.12558 0.58749 0.82117
 H37 H 1.18750 0.56674 0.86539
 H38 H 1.18701 0.64297 0.93756
 H39 H 1.13947 0.69142 0.93495
 H40 H 1.06675 0.69214 0.85844
 H41 H 1.06870 0.64244 0.80838
 H42 H 1.14088 0.56658 0.81473
 C43 C 0.66102 -0.11364 0.13224
 C44 C 0.63687 -0.11259 0.15720
 C45 C 0.61171 -0.13566 0.15767
 C46 C 0.61052 -0.16020 0.13342
 C47 C 0.63409 -0.16109 0.10862
 C48 C 0.65971 -0.13758 0.10810
 C49 C 0.68919 -0.09546 0.12687
 N50 N 0.70563 -0.10763 0.09996
 C51 C 0.68729 -0.13349 0.08836
 C52 C 0.62739 -0.18837 0.08955
 N53 N 0.60055 -0.20446 0.10250
 C54 C 0.59020 -0.18699 0.12937
 C55 C 0.59261 -0.12961 0.18520
 N56 N 0.60566 -0.10343 0.20155
 C57 C 0.63285 -0.09292 0.18463
 H58 H 0.69679 -0.07504 0.14217
 H59 H 0.69367 -0.14928 0.06782
 H60 H 0.64228 -0.19660 0.06888
 H61 H 0.56927 -0.19288 0.14507
 H62 H 0.57131 -0.14380 0.19323
 H63 H 0.64856 -0.07250 0.19175
 C64 C -0.15854 1.11031 -0.37092
 C65 C -0.13567 1.10847 -0.34476
 C66 C -0.11176 1.13265 -0.34136
 C67 C -0.11024 1.15885 -0.36402
 C68 C -0.13252 1.16049 -0.38986
 C69 C -0.15707 1.13622 -0.39313
 C70 C -0.18601 1.09186 -0.37889
 N71 N -0.20179 1.10613 -0.40520
 C72 C -0.18382 1.13331 -0.41399
 C73 C -0.12622 1.18925 -0.40688
 N74 N -0.10072 1.20552 -0.39185
 C75 C -0.09098 1.18678 -0.36545
 C76 C -0.09451 1.12599 -0.31277
 N77 N -0.10736 1.09837 -0.29855
 C78 C -0.13254 1.08744 -0.31807
 H79 H -0.19468 1.07075 -0.36493
 H80 H -0.18952 1.15022 -0.43393
 H81 H -0.14052 1.19812 -0.42773
 H82 H -0.07116 1.19253 -0.34838
 H83 H -0.07432 1.14052 -0.30289
 H84 H -0.14831 1.06652 -0.31261
 C85 C 0.65718 0.60884 0.62817
 C86 C 0.63319 0.60836 0.65341
 C87 C 0.60859 0.63208 0.65394
 C88 C 0.60765 0.65664 0.62938
 C89 C 0.63104 0.65685 0.60449
 C90 C 0.65598 0.63288 0.60385
 C91 C 0.68504 0.59017 0.62226
 N92 N 0.70071 0.60232 0.59492
 C93 C 0.68296 0.62843 0.58353
 C94 C 0.62507 0.68398 0.58501
 N95 N 0.59854 0.70080 0.59740
 C96 C 0.58783 0.68387 0.62471
 C97 C 0.58958 0.62635 0.68165
 N98 N 0.60188 0.59970 0.69803
 C99 C 0.62868 0.58863 0.68091
 H100 H 0.69342 0.56950 0.63702
 H101 H 0.68983 0.64390 0.56272
 H102 H 0.64034 0.69132 0.56424
 H103 H 0.56724 0.69050 0.64047
 H104 H 0.56880 0.64113 0.68970
 H105 H 0.64382 0.56772 0.68782
 C106 C 0.83770 0.38734 0.13643
 C107 C 0.86159 0.38651 0.16169
 C108 C 0.88420 0.36103 0.16298
 C109 C 0.88325 0.33603 0.13908
 C110 C 0.85995 0.33704 0.11407
 C111 C 0.83677 0.36279 0.11290
 C112 C 0.81178 0.40829 0.12997
 N113 N 0.79458 0.39713 0.10307
 C114 C 0.81014 0.36918 0.09255
 C115 C 0.86481 0.30965 0.09468
 N116 N 0.89045 0.29165 0.10734
 C117 C 0.90167 0.30790 0.13471
 C118 C 0.90384 0.36613 0.19035
 N119 N 0.89377 0.39414 0.20579
 C120 C 0.86783 0.40671 0.18834
 H121 H 0.80549 0.42929 0.14509
 H122 H 0.80293 0.35408 0.07175
 H123 H 0.84979 0.30313 0.07350
 H124 H 0.92227 0.30058 0.15019
 H125 H 0.92353 0.35009 0.19876
 H126 H 0.85450 0.42901 0.19438
 C127 C 0.34346 0.11184 0.86545
 C128 C 0.36894 0.10823 0.84200
 C129 C 0.39441 0.13104 0.84066
 C130 C 0.39479 0.15778 0.86257
 C131 C 0.36958 0.16139 0.88543
 C132 C 0.34371 0.13834 0.88678
 C133 C 0.31481 0.09438 0.87161
 N134 N 0.29729 0.10978 0.89603
 C135 C 0.31515 0.13680 0.90528
 C136 C 0.37540 0.19020 0.90229
 N137 N 0.40359 0.20426 0.89023
 C138 C 0.41561 0.18448 0.86589
 C139 C 0.41446 0.12262 0.81451
 N140 N 0.40183 0.09528 0.79972
 C141 C 0.37395 0.08630 0.81649
 H142 H 0.30694 0.07286 0.85799
 H143 H 0.30843 0.15423 0.92432
 H144 H 0.36009 0.20016 0.92186
 H145 H 0.43733 0.18959 0.85096
 H146 H 0.43584 0.13638 0.80598
 H147 H 0.35808 0.06571 0.81030
 C148 C 0.15646 0.89279 0.37161
 C149 C 0.13351 0.89317 0.34560
 C150 C 0.10944 0.86901 0.34351
 C151 C 0.10815 0.84395 0.36759
 C152 C 0.13106 0.84354 0.39315
 C153 C 0.15554 0.86807 0.39507
 C154 C 0.18342 0.91222 0.37843
 N155 N 0.19952 0.89999 0.40555
 C156 C 0.18233 0.87277 0.41578
 C157 C 0.12496 0.81579 0.41179
 N158 N 0.09888 0.79927 0.39837
 C159 C 0.08854 0.81634 0.37120
 C160 C 0.09218 0.87454 0.31450
 N161 N 0.10550 0.90127 0.29896
 C162 C 0.13068 0.91283 0.31799
 H163 H 0.19137 0.93273 0.36322
 H164 H 0.18855 0.85715 0.43662
 H165 H 0.13924 0.80779 0.43303
 H166 H 0.06829 0.80928 0.35513
 H167 H 0.07245 0.85933 0.30469
 H168 H 0.14633 0.93367 0.31190
 Zn169 Zn 0.04210 0.98216 0.00753
 Zn170 Zn -0.02375 0.97365 -0.02557
 Zn171 Zn -0.01827 1.01000 0.03899
 Zn172 Zn 0.00871 1.04013 -0.02258
 O173 O 0.00212 1.00142 -0.00046
 O174 O 0.04516 0.94240 -0.01063
 O175 O -0.06219 0.96319 -0.00534
 O176 O 0.00481 0.99584 0.07421
 O177 O -0.00345 0.93518 -0.03484
 O178 O 0.05000 0.97586 0.05074
 O179 O -0.05760 0.99031 0.04192
 O180 O -0.00764 1.07506 -0.00116
 O181 O -0.03491 0.99149 -0.06493
 O182 O -0.02637 1.05298 0.04539
 O183 O -0.01068 1.04033 -0.06225
 O184 O 0.05160 1.04891 -0.03011
 O185 O 0.07639 1.00533 -0.00849
 C186 C 0.02533 0.92483 -0.02740
 C187 C -0.07381 0.97162 0.02266
 C188 C 0.03284 0.98184 0.07641
 C189 C -0.02161 1.07790 0.02688
 C190 C -0.02813 1.01936 -0.07769
 C191 C 0.07773 1.03275 -0.02363
 Zn192 Zn 0.47921 0.00811 0.46002
 Zn193 Zn 0.47503 -0.02707 0.52532
 Zn194 Zn 0.54001 -0.02061 0.48910
 Zn195 Zn 0.50933 0.03863 0.51924
 O196 O 0.50083 -0.00034 0.49857
 O197 O 0.43935 -0.01019 0.45909
 O198 O 0.49467 -0.06626 0.53393
 O199 O 0.54629 -0.02734 0.44563
 O200 O 0.43502 -0.03633 0.50709
 O201 O 0.50035 -0.00679 0.42431
 O202 O 0.54245 -0.06025 0.50758
 O203 O 0.55266 0.04638 0.52453
 O204 O 0.46675 -0.00846 0.56513
 O205 O 0.57554 0.00171 0.50339
 O206 O 0.49226 0.03963 0.55986
 O207 O 0.49321 0.07388 0.49767
 O208 O 0.47247 0.05090 0.45267
 C209 C 0.42290 -0.02782 0.47924
 C210 C 0.52286 -0.07734 0.52527
 C211 C 0.52804 -0.02105 0.42080
 C212 C 0.57811 0.02944 0.51755
 C213 C 0.47538 0.01929 0.57689
 C214 C 0.47872 0.07623 0.46985
 Zn215 Zn 0.98019 0.49273 0.54038
 Zn216 Zn 0.97669 0.52517 0.47326
 Zn217 Zn 1.04116 0.52057 0.50993
 Zn218 Zn 1.01088 0.46016 0.48206
 O219 O 1.00212 0.49973 0.50133
 O220 O 0.94017 0.51122 0.54047
 O221 O 0.99615 0.56418 0.46317
 O222 O 1.04743 0.52838 0.55304
 O223 O 0.93694 0.53505 0.49112
 O224 O 1.00152 0.50897 0.57575
 O225 O 1.04340 0.55984 0.49063
 O226 O 1.05425 0.45258 0.47675
 O227 O 0.96810 0.50486 0.43436
 O228 O 1.07681 0.49828 0.49606
 O229 O 0.99347 0.45710 0.44168
 O230 O 0.99484 0.42589 0.50502
 O231 O 0.97321 0.44999 0.54905
 C232 C 0.92429 0.52801 0.51917
 C233 C 1.02391 0.57607 0.47214
 C234 C 1.02945 0.52315 0.57833
 C235 C 1.07957 0.47011 0.48284
 C236 C 0.97637 0.47651 0.42390
 C237 C 0.97980 0.42422 0.53261
 Zn238 Zn 0.48817 0.53948 0.97719
 Zn239 Zn 0.46059 0.47809 1.00671
 Zn240 Zn 0.52685 0.47664 0.97284
 Zn241 Zn 0.51814 0.51134 1.03796
 O242 O 0.49852 0.50128 0.99859
 O243 O 0.44453 0.54505 0.97178
 O244 O 0.46084 0.43875 0.98743
 O245 O 0.53608 0.49620 0.93350
 O246 O 0.42410 0.49855 0.99200
 O247 O 0.50573 0.54141 0.93685
 O248 O 0.50972 0.43686 0.96261
 O249 O 0.55846 0.49393 1.04126
 O250 O 0.45354 0.47050 1.04994
 O251 O 0.56597 0.46879 0.99322
 O252 O 0.49548 0.49676 1.07324
 O253 O 0.52394 0.55457 1.04392
 O254 O 0.50296 0.57550 0.99787
 C255 C 0.42005 0.52646 0.97835
 C256 C 0.48198 0.42373 0.96979
 C257 C 0.52532 0.52288 0.92090
 C258 C 0.57633 0.47702 1.02181
 C259 C 0.46922 0.47967 1.07557
 C260 C 0.51744 0.57910 1.02551
 C261 C 1.20847 0.42417 0.44391
 C262 C 1.22140 0.39342 0.45282
 C263 C 1.25221 0.38375 0.44060
 C264 C 1.27034 0.40444 0.41898
 C265 C 1.25660 0.43557 0.41155
 N266 N 1.22664 0.44446 0.42408
 C267 C 1.17542 0.43496 0.45525
 N268 N 1.16992 0.46754 0.46081
 C269 C 1.13981 0.47919 0.47033
 C270 C 1.11280 0.45761 0.47398
 C271 C 1.11788 0.42396 0.46812
 C272 C 1.14915 0.41252 0.45896
 H273 H 1.26086 0.35950 0.44737
 H274 H 1.26956 0.45317 0.39614
 H275 H 1.13685 0.50537 0.47433
 H276 H 1.09769 0.40651 0.47054
 H277 H 1.20792 0.37694 0.46914
 H278 H 1.15242 0.38656 0.45394
 C279 C 0.28898 0.56743 0.94101
 C280 C 0.26901 0.54609 0.92251
 C281 C 0.23819 0.55682 0.91118
 C282 C 0.22662 0.58869 0.91878
 C283 C 0.24721 0.60879 0.93851
 N284 N 0.27748 0.59798 0.94848
 C285 C 0.32256 0.55748 0.95166
 N286 N 0.32996 0.52498 0.95562
 C287 C 0.36066 0.51458 0.96473
 C288 C 0.38628 0.53747 0.96968
 C289 C 0.37919 0.57106 0.96570
 C290 C 0.34730 0.58117 0.95707
 H291 H 0.22337 0.53974 0.89699
 H292 H 0.24024 0.63362 0.94492
 H293 H 0.36517 0.48844 0.96742
 H294 H 0.39826 0.58950 0.96942
 H295 H 0.27745 0.52159 0.91620
 H296 H 0.34225 0.60718 0.95394
 C297 C -0.20239 0.92560 0.06461
 C298 C -0.21965 0.90141 0.04692
 C299 C -0.25043 0.89039 0.05846
 C300 C -0.26444 0.90341 0.08775
 C301 C -0.24614 0.92806 0.10428
 N302 N -0.21627 0.93810 0.09256
 C303 C -0.16935 0.93763 0.05386
 N304 N -0.15568 0.92706 0.02487
 C305 C -0.12536 0.93748 0.01428
 C306 C -0.10687 0.95979 0.03339
 C307 C -0.12055 0.97090 0.06332
 C308 C -0.15163 0.95998 0.07355
 H309 H -0.26296 0.87183 0.04403
 H310 H -0.25476 0.93928 0.12686
 H311 H -0.11574 0.92827 -0.00896
 H312 H -0.10728 0.98814 0.07889
 H313 H -0.20943 0.89093 0.02448
 H314 H -0.16157 0.96894 0.09677
 C315 C 0.70677 0.07627 0.55638
 C316 C 0.71929 0.10744 0.54819
 C317 C 0.75014 0.11717 0.56031
 C318 C 0.76870 0.09613 0.58111
 C319 C 0.75532 0.06465 0.58788
 N320 N 0.72533 0.05571 0.57544
 C321 C 0.67376 0.06530 0.54508
 N322 N 0.66861 0.03280 0.53867
 C323 C 0.63855 0.02094 0.52917
 C324 C 0.61125 0.04218 0.52643
 C325 C 0.61598 0.07574 0.53318
 C326 C 0.64719 0.08741 0.54230
 H327 H 0.75851 0.14170 0.55413
 H328 H 0.76862 0.04680 0.60263
 H329 H 0.63587 -0.00516 0.52446
 H330 H 0.59555 0.09293 0.53146
 H331 H 0.70547 0.12417 0.53249
 H332 H 0.65020 0.11328 0.54800
 C333 C 0.43752 0.20320 0.42204
 C334 C 0.44502 0.21523 0.39032
 C335 C 0.43297 0.24588 0.38040
 C336 C 0.41298 0.26477 0.40183
 C337 C 0.40667 0.25176 0.43374
 N338 N 0.41904 0.22196 0.44286
 C339 C 0.44907 0.17057 0.43337
 N340 N 0.45615 0.16583 0.46605
 C341 C 0.46618 0.13618 0.47818
 C342 C 0.46886 0.10892 0.45704
 C343 C 0.46136 0.11322 0.42334
 C344 C 0.45164 0.14397 0.41140
 H345 H 0.43870 0.25396 0.35551
 H346 H 0.39250 0.26527 0.45186
 H347 H 0.47148 0.13383 0.50438
 H348 H 0.46302 0.09282 0.40619
 H349 H 0.46025 0.20124 0.37335
 H350 H 0.44541 0.14663 0.38543
 C351 C 0.93647 0.29768 0.58006
 C352 C 0.94406 0.28503 0.61149
 C353 C 0.93209 0.25409 0.62076
 C354 C 0.91203 0.23560 0.59900
 C355 C 0.90540 0.24937 0.56752
 N356 N 0.91781 0.27936 0.55898
 C357 C 0.94853 0.33028 0.56905
 N358 N 0.95585 0.33502 0.53643
 C359 C 0.96643 0.36454 0.52443
 C360 C 0.96945 0.39173 0.54563
 C361 C 0.96171 0.38748 0.57930
 C362 C 0.95146 0.35677 0.59114
 H363 H 0.93794 0.24541 0.64541
 H364 H 0.89109 0.23623 0.54921
 H365 H 0.97186 0.36686 0.49825
 H366 H 0.96360 0.40786 0.59645
 H367 H 0.95938 0.29871 0.62865
 H368 H 0.94512 0.35405 0.61708
 C369 C 0.06668 0.79470 -0.06600
 C370 C 0.08864 0.77623 -0.04657
 C371 C 0.09872 0.74525 -0.05715
 C372 C 0.08703 0.73195 -0.08725
 C373 C 0.06377 0.75095 -0.10523
 N374 N 0.05453 0.78131 -0.09438
 C375 C 0.05666 0.82839 -0.05624
 N376 N 0.02652 0.84030 -0.06567
 C377 C 0.01594 0.87096 -0.05706
 C378 C 0.03628 0.89165 -0.03796
 C379 C 0.06767 0.88001 -0.02865
 C380 C 0.07794 0.84862 -0.03776
 H381 H 0.11538 0.73190 -0.04110
 H382 H 0.05344 0.74243 -0.12833
 H383 H -0.00834 0.87904 -0.06501
 H384 H 0.08441 0.89514 -0.01423
 H385 H 0.09779 0.78535 -0.02311
 H386 H 0.10252 0.84060 -0.03074
 C387 C 0.56155 0.70626 1.06905
 C388 C 0.55381 0.71724 1.10094
 C389 C 0.56627 0.74730 1.11192
 C390 C 0.58724 0.76644 1.09148
 C391 C 0.59431 0.75426 1.05953
 N392 N 0.58132 0.72510 1.04927
 C393 C 0.54925 0.67414 1.05719
 N394 N 0.54282 0.64964 1.07944
 C395 C 0.53238 0.61928 1.06992
 C396 C 0.52746 0.61234 1.03624
 C397 C 0.53340 0.63740 1.01292
 C398 C 0.54465 0.66822 1.02328
 H399 H 0.56027 0.75461 1.13693
 H400 H 0.60951 0.76801 1.04230
 H401 H 0.52792 0.60065 1.08867
 H402 H 0.53006 0.63292 0.98667
 H403 H 0.53818 0.70275 1.11727
 H404 H 0.54951 0.68725 1.00503
 C405 C 0.42262 0.43837 1.20378
 C406 C 0.41472 0.45993 1.22976
 C407 C 0.40405 0.44710 1.26013
 C408 C 0.40177 0.41293 1.26473
 C409 C 0.40968 0.39227 1.23809
 N410 N 0.41952 0.40532 1.20862
 C411 C 0.43403 0.45053 1.17119
 N412 N 0.42548 0.43355 1.14343
 C413 C 0.43587 0.44276 1.11270
 C414 C 0.45684 0.47011 1.10872
 C415 C 0.46621 0.48781 1.13705
 C416 C 0.45466 0.47826 1.16828
 H417 H 0.39811 0.46374 1.28018
 H418 H 0.40770 0.36580 1.24061
 H419 H 0.42829 0.42831 1.09151
 H420 H 0.48240 0.50903 1.13504
 H421 H 0.41634 0.48637 1.22653
 H422 H 0.46252 0.49188 1.18992
 C423 C 0.56970 -0.06472 0.29193
 C424 C 0.54728 -0.07775 0.26879
 C425 C 0.55912 -0.09031 0.23894
 C426 C 0.59317 -0.08985 0.23198
 C427 C 0.61477 -0.07653 0.25570
 N428 N 0.60269 -0.06473 0.28479
 C429 C 0.55852 -0.05224 0.32443
 N430 N 0.57940 -0.05428 0.35086
 C431 C 0.57046 -0.04415 0.38169
 C432 C 0.53881 -0.03091 0.38722
 C433 C 0.51722 -0.02785 0.36011
 C434 C 0.52694 -0.03845 0.32876
 H435 H 0.54167 -0.10029 0.22123
 H436 H 0.64124 -0.07618 0.25146
 H437 H 0.58801 -0.04668 0.40182
 H438 H 0.49266 -0.01755 0.36316
 H439 H 0.52098 -0.07903 0.27389
 H440 H 0.50998 -0.03555 0.30820
 C441 C -0.07667 1.05816 -0.20633
 C442 C -0.09066 1.03733 -0.23037
 C443 C -0.10096 1.05055 -0.26071
 C444 C -0.09716 1.08432 -0.26732
 C445 C -0.08303 1.10418 -0.24267
 N446 N -0.07330 1.09080 -0.21340
 C447 C -0.06458 1.04624 -0.17372
 N448 N -0.04473 1.06666 -0.15583
 C449 C -0.03277 1.05848 -0.12549
 C450 C -0.04078 1.02798 -0.11106
 C451 C -0.06127 1.00641 -0.12891
 C452 C -0.07329 1.01543 -0.16018
 H453 H -0.11128 1.03427 -0.27923
 H454 H -0.08005 1.13039 -0.24640
 H455 H -0.01712 1.07596 -0.11268
 H456 H -0.06825 0.98272 -0.11862
 H457 H -0.09315 1.01112 -0.22635
 H458 H -0.08960 0.99863 -0.17298
 C459 C 1.07341 0.56653 0.70672
 C460 C 1.10638 0.56346 0.71736
 C461 C 1.11523 0.57432 0.74885
 C462 C 1.09142 0.58826 0.76990
 C463 C 1.05865 0.59069 0.75847
 N464 N 1.05053 0.57973 0.72767
 C465 C 1.06294 0.55538 0.67346
 N466 N 1.03133 0.54451 0.66891
 C467 C 1.02017 0.53383 0.63899
 C468 C 1.04126 0.53407 0.61125
 C469 C 1.07381 0.54560 0.61534
 C470 C 1.08472 0.55622 0.64629
 H471 H 1.14083 0.57220 0.75654
 H472 H 1.03950 0.60093 0.77412
 H473 H 0.99478 0.52545 0.63688
 H474 H 1.09086 0.54648 0.59460
 H475 H 1.12512 0.55237 0.70180
 H476 H 1.10974 0.56555 0.64866
 C477 C 0.79333 0.57114 0.55631
 C478 C 0.76966 0.58511 0.53492
 C479 C 0.73907 0.59508 0.54758
 C480 C 0.73172 0.59096 0.58137
 C481 C 0.75571 0.57625 0.60173
 N482 N 0.78540 0.56697 0.58890
 C483 C 0.82660 0.56039 0.54495
 N484 N 0.84476 0.54088 0.56554
 C485 C 0.87569 0.53028 0.55775
 C486 C 0.89043 0.53940 0.52753
 C487 C 0.87232 0.55959 0.50585
 C488 C 0.84051 0.57024 0.51446
 H489 H 0.72102 0.60572 0.53086
 H490 H 0.75127 0.57281 0.62795
 H491 H 0.88869 0.51477 0.57531
 H492 H 0.88281 0.56742 0.48238
 H493 H 0.77423 0.58809 0.50869
 H494 H 0.82758 0.58641 0.49756
 C495 C 0.70561 0.43622 1.06669
 C496 C 0.72459 0.45437 1.08930
 C497 C 0.75445 0.44165 1.10098
 C498 C 0.76610 0.41073 1.09017
 C499 C 0.74686 0.39419 1.06610
 N500 N 0.71760 0.40704 1.05542
 C501 C 0.67266 0.44774 1.05528
 N502 N 0.66051 0.43711 1.02565
 C503 C 0.63010 0.44622 1.01420
 C504 C 0.60978 0.46699 1.03317
 C505 C 0.62178 0.47792 1.06389
 C506 C 0.65298 0.46836 1.07502
 H507 H 0.76827 0.45659 1.11822
 H508 H 0.75412 0.37057 1.05637
 H509 H 0.62176 0.43704 0.99046
 H510 H 0.60696 0.49373 1.07956
 H511 H 0.71674 0.47834 1.09786
 H512 H 0.66106 0.47647 1.09921
 C513 C 0.20447 1.08091 -0.06767
 C514 C 0.21636 1.11259 -0.06086
 C515 C 0.24745 1.12215 -0.07260
 C516 C 0.26694 1.10039 -0.09163
 C517 C 0.25389 1.06867 -0.09756
 N518 N 0.22369 1.05988 -0.08540
 C519 C 0.17174 1.06964 -0.05569
 N520 N 0.16752 1.03734 -0.04755
 C521 C 0.13798 1.02520 -0.03676
 C522 C 0.11024 1.04591 -0.03428
 C523 C 0.11397 1.07922 -0.04290
 C524 C 0.14468 1.09121 -0.05342
 H525 H 0.25546 1.14697 -0.06734
 H526 H 0.26776 1.05040 -0.11110
 H527 H 0.13608 0.99928 -0.03066
 H528 H 0.09317 1.09599 -0.04149
 H529 H 0.20200 1.12976 -0.04626
 H530 H 0.14695 1.11687 -0.06042
 C531 C 0.29064 -0.06568 0.44095
 C532 C 0.27141 -0.04563 0.42021
 C533 C 0.24078 -0.05674 0.40906
 C534 C 0.22855 -0.08791 0.41861
 C535 C 0.24784 -0.10630 0.44131
 N536 N 0.27802 -0.09503 0.45140
 C537 C 0.32466 -0.05585 0.45065
 N538 N 0.33777 -0.06651 0.47993
 C539 C 0.36900 -0.05812 0.48978
 C540 C 0.38900 -0.03806 0.46948
 C541 C 0.37602 -0.02746 0.43899
 C542 C 0.34415 -0.03632 0.42950
 H543 H 0.22679 -0.04040 0.39322
 H544 H 0.23996 -0.13023 0.45001
 H545 H 0.37811 -0.06706 0.51337
 H546 H 0.39052 -0.01227 0.42226
 H547 H 0.27984 -0.02145 0.41255
 H548 H 0.33522 -0.02835 0.40549
 C549 C 0.56423 -0.20797 0.56307
 C550 C 0.58587 -0.22653 0.54343
 C551 C 0.59680 -0.25712 0.55456
 C552 C 0.58620 -0.26993 0.58535
 C553 C 0.56297 -0.25106 0.60340
 N554 N 0.55301 -0.22103 0.59209
 C555 C 0.55391 -0.17435 0.55313
 N556 N 0.52432 -0.16210 0.56375
 C557 C 0.51374 -0.13129 0.55541
 C558 C 0.53357 -0.11079 0.53541
 C559 C 0.56438 -0.12285 0.52480
 C560 C 0.57462 -0.15436 0.53362
 H561 H 0.61329 -0.27059 0.53848
 H562 H 0.55346 -0.25925 0.62704
 H563 H 0.48991 -0.12290 0.56434
 H564 H 0.58074 -0.10791 0.50964
 H565 H 0.59425 -0.21774 0.51950
 H566 H 0.59884 -0.16258 0.52566
 C567 C 1.06332 0.70686 0.43263
 C568 C 1.07826 0.72875 0.45498
 C569 C 1.08932 0.75935 0.44382
 C570 C 1.08555 0.76845 0.41044
 C571 C 1.06927 0.74633 0.38914
 N572 N 1.05881 0.71647 0.40058
 C573 C 1.05332 0.67332 0.44312
 N574 N 1.02681 0.65834 0.42857
 C575 C 1.01676 0.62741 0.43729
 C576 C 1.03409 0.60962 0.46166
 C577 C 1.06178 0.62452 0.47644
 C578 C 1.07140 0.65619 0.46731
 H579 H 1.10077 0.77590 0.46140
 H580 H 1.06575 0.75225 0.36323
 H581 H 0.99542 0.61675 0.42510
 H582 H 1.07604 0.61177 0.49524
 H583 H 1.08130 0.72242 0.48088
 H584 H 1.09319 0.66682 0.47872
 C585 C -0.07166 1.20326 0.07007
 C586 C -0.09247 1.22260 0.05018
 C587 C -0.10535 1.25194 0.06263
 C588 C -0.09733 1.26261 0.09491
 C589 C -0.07628 1.24218 0.11392
 N590 N -0.06453 1.21345 0.10133
 C591 C -0.05806 1.17162 0.05824
 N592 N -0.05354 1.14655 0.08028
 C593 C -0.04170 1.11662 0.07097
 C594 C -0.03323 1.11070 0.03774
 C595 C -0.03695 1.13649 0.01478
 C596 C -0.04947 1.16687 0.02487
 H597 H -0.12091 1.26641 0.04640
 H598 H -0.06975 1.24826 0.13912
 H599 H -0.03895 1.09749 0.08953
 H600 H -0.03066 1.13304 -0.01109
 H601 H -0.09923 1.21492 0.02541
 H602 H -0.05203 1.18648 0.00681
 C603 C 0.44360 0.29579 0.92150
 C604 C 0.46478 0.27182 0.90805
 C605 C 0.45163 0.24171 0.89761
 C606 C 0.41754 0.23526 0.90068
 C607 C 0.39734 0.25983 0.91433
 N608 N 0.41067 0.28888 0.92424
 C609 C 0.45548 0.32815 0.93367
 N610 N 0.43495 0.34576 0.95364
 C611 C 0.44309 0.37590 0.96558
 C612 C 0.47362 0.39043 0.95737
 C613 C 0.49533 0.37284 0.93679
 C614 C 0.48637 0.34176 0.92483
 H615 H 0.46823 0.22326 0.88776
 H616 H 0.37090 0.25622 0.91680
 H617 H 0.42548 0.38849 0.98131
 H618 H 0.51903 0.38322 0.92965
 H619 H 0.49122 0.27573 0.90614
 H620 H 0.50323 0.32915 0.90840
 C621 C 0.56541 0.56356 0.78987
 C622 C 0.54372 0.57913 0.76760
 C623 C 0.55562 0.59052 0.73722
 C624 C 0.58907 0.58634 0.72867
 C625 C 0.60969 0.56948 0.75111
 N626 N 0.59755 0.55879 0.78076
 C627 C 0.55427 0.55298 0.82325
 N628 N 0.56943 0.52712 0.83861
 C629 C 0.56057 0.51674 0.86955
 C630 C 0.53537 0.53306 0.88703
 C631 C 0.51978 0.55998 0.87170
 C632 C 0.52910 0.56997 0.84001
 H633 H 0.53857 0.60246 0.72035
 H634 H 0.63563 0.56566 0.74559
 H635 H 0.57340 0.49601 0.88052
 H636 H 0.50036 0.57348 0.88424
 H637 H 0.51774 0.58239 0.77340
 H638 H 0.51717 0.59130 0.82919
 C639 C 0.43785 0.05680 0.70913
 C640 C 0.45993 0.07177 0.73136
 C641 C 0.44825 0.08354 0.76158
 C642 C 0.41462 0.08037 0.76994
 C643 C 0.39365 0.06376 0.74771
 N644 N 0.40558 0.05272 0.71820
 C645 C 0.44860 0.04673 0.67560
 N646 N 0.43342 0.02092 0.66029
 C647 C 0.44172 0.01130 0.62903
 C648 C 0.46615 0.02850 0.61114
 C649 C 0.48179 0.05534 0.62645
 C650 C 0.47318 0.06446 0.65853
 H651 H 0.46552 0.09529 0.77832
 H652 H 0.36758 0.06068 0.75310
 H653 H 0.42891 -0.00941 0.61806
 H654 H 0.50071 0.06941 0.61361
 H655 H 0.48597 0.07452 0.72548
 H656 H 0.48508 0.08573 0.66941
 C657 C 0.07843 0.93761 0.20418
 C658 C 0.11151 0.93993 0.21469
 C659 C 0.12035 0.92803 0.24590
 C660 C 0.09640 0.91380 0.26678
 C661 C 0.06355 0.91217 0.25548
 N662 N 0.05546 0.92412 0.22498
 C663 C 0.06788 0.94973 0.17121
 N664 N 0.03622 0.96054 0.16705
 C665 C 0.02473 0.97155 0.13732
 C666 C 0.04547 0.97162 0.10932
 C667 C 0.07814 0.96039 0.11303
 C668 C 0.08943 0.94951 0.14384
 H669 H 0.14601 0.92959 0.25351
 H670 H 0.04429 0.90177 0.27101
 H671 H -0.00073 0.97970 0.13551
 H672 H 0.09491 0.95974 0.09206
 H673 H 0.13035 0.95119 0.19926
 H674 H 0.11449 0.94026 0.14588
 C675 C 0.93366 0.43150 0.29548
 C676 C 0.95370 0.41262 0.27436
 C677 C 0.94071 0.40071 0.24471
 C678 C 0.90781 0.40759 0.23577
 C679 C 0.88893 0.42748 0.25709
 N680 N 0.90210 0.43869 0.28600
 C681 C 0.94583 0.44320 0.32804
 N682 N 0.93281 0.47107 0.34152
 C683 C 0.94240 0.48257 0.37174
 C684 C 0.96609 0.46536 0.39049
 C685 C 0.97958 0.43646 0.37708
 C686 C 0.96958 0.42536 0.34603
 H687 H 0.95654 0.38631 0.22869
 H688 H 0.86347 0.43343 0.25132
 H689 H 0.93120 0.50483 0.38123
 H690 H 0.99778 0.42224 0.39067
 H691 H 0.97926 0.40726 0.28043
 H692 H 0.97979 0.40255 0.33675
   
