data_POSCAR
  _audit_creation_date              2014-09-24
  _audit_creation_method            'ToBaCCo'
  _symmetry_space_group_name_H-M    'P1'
  _symmetry_Int_Tables_number       1
  _symmetry_cell_setting            triclinic
  loop_
  _symmetry_equiv_pos_as_xyz
 x,y,z
_cell_length_a 49.2523
_cell_length_b 27.7080
_cell_length_c 21.5664
_cell_angle_alpha 89.883200
_cell_angle_beta 89.924400
_cell_angle_gamma 90.118900
loop_
  _atom_site_label
  _atom_site_type_symbol
  _atom_site_fract_x
  _atom_site_fract_y
  _atom_site_fract_z
C1 C 0.79977 0.19729 0.44483
 C2 C 0.81167 0.18465 0.50128
 C3 C 0.79976 0.19736 0.55772
 C4 C 0.77514 0.22350 0.55841
 C5 C 0.76279 0.23658 0.50132
 C6 C 0.77513 0.22342 0.44420
 C7 C 0.76252 0.23680 0.38825
 C8 C 0.73828 0.26259 0.38831
 C9 C 0.72577 0.27601 0.44427
 C10 C 0.73810 0.26295 0.50134
 C11 C 0.76255 0.23697 0.61437
 C12 C 0.73832 0.26277 0.61437
 C13 C 0.72574 0.27614 0.55842
 C14 C 0.70110 0.30230 0.55766
 C15 C 0.68924 0.31489 0.50112
 C16 C 0.70119 0.30211 0.44484
 H17 H 0.77132 0.22737 0.34388
 H18 H 0.72941 0.27198 0.34400
 H19 H 0.77139 0.22761 0.65873
 H20 H 0.72949 0.27222 0.65871
 H21 H 0.83067 0.16472 0.50129
 H22 H 0.67026 0.33482 0.50079
 C23 C 0.20025 0.79944 0.55762
 C24 C 0.18811 0.81150 0.50124
 C25 C 0.20024 0.79950 0.44482
 C26 C 0.22527 0.77473 0.44419
 C27 C 0.23784 0.76228 0.50125
 C28 C 0.22528 0.77470 0.55828
 C29 C 0.23804 0.76204 0.61425
 C30 C 0.26273 0.73762 0.61430
 C31 C 0.27556 0.72491 0.55834
 C32 C 0.26298 0.73735 0.50127
 C33 C 0.23804 0.76207 0.38824
 C34 C 0.26272 0.73762 0.38824
 C35 C 0.27551 0.72494 0.44419
 C36 C 0.30053 0.70020 0.44474
 C37 C 0.31273 0.68814 0.50104
 C38 C 0.30065 0.70013 0.55760
 H39 H 0.22902 0.77097 0.65857
 H40 H 0.27171 0.72872 0.65867
 H41 H 0.22904 0.77101 0.34392
 H42 H 0.27172 0.72870 0.34389
 H43 H 0.16883 0.83046 0.50127
 H44 H 0.33202 0.66919 0.50071
 C45 C 0.19930 0.19992 -0.44407
 C46 C 0.18712 0.18785 -0.50041
 C47 C 0.19924 0.19986 -0.55699
 C48 C 0.22436 0.22466 -0.55792
 C49 C 0.23698 0.23716 -0.50098
 C50 C 0.22443 0.22476 -0.44374
 C51 C 0.23733 0.23756 -0.38794
 C52 C 0.26204 0.26204 -0.38827
 C53 C 0.27479 0.27467 -0.44436
 C54 C 0.26219 0.26217 -0.50129
 C55 C 0.23718 0.23733 -0.61401
 C56 C 0.26190 0.26180 -0.61429
 C57 C 0.27477 0.27459 -0.55848
 C58 C 0.29990 0.29943 -0.55804
 C59 C 0.31203 0.31150 -0.50162
 C60 C 0.29986 0.29945 -0.44519
 H61 H 0.22838 0.22870 -0.34346
 H62 H 0.27109 0.27103 -0.34404
 H63 H 0.22816 0.22837 -0.65830
 H64 H 0.27088 0.27066 -0.65875
 H65 H 0.16777 0.16887 -0.50023
 H66 H 0.33136 0.33049 -0.50150
 C67 C -0.29997 0.69702 -0.44517
 C68 C -0.31180 0.68447 -0.50170
 C69 C -0.29977 0.69730 -0.55805
 C70 C -0.27509 0.72351 -0.55847
 C71 C -0.26284 0.73651 -0.50125
 C72 C -0.27530 0.72321 -0.44427
 C73 C -0.26280 0.73650 -0.38817
 C74 C -0.23853 0.76234 -0.38795
 C75 C -0.22587 0.77590 -0.44377
 C76 C -0.23811 0.76292 -0.50098
 C77 C -0.26236 0.73712 -0.61429
 C78 C -0.23809 0.76298 -0.61401
 C79 C -0.22562 0.77626 -0.55791
 C80 C -0.20095 0.80247 -0.55689
 C81 C -0.18917 0.81499 -0.50027
 C82 C -0.20124 0.80209 -0.44408
 H83 H -0.27172 0.72696 -0.34389
 H84 H -0.22974 0.77166 -0.34355
 H85 H -0.27111 0.72782 -0.65874
 H86 H -0.22914 0.77253 -0.65827
 H87 H -0.33082 0.66447 -0.50183
 H88 H -0.17017 0.83500 -0.49981
 O89 O -0.03784 0.91938 0.11642
 O90 O -0.06786 0.96158 0.05553
 C91 C -0.06219 0.93191 0.10016
 O92 O 0.03829 1.08807 0.11026
 O93 O 0.06829 1.04266 0.05338
 C94 C 0.06263 1.07498 0.09471
 O95 O -0.03789 1.08331 0.11527
 O96 O -0.06787 1.04024 0.05534
 C97 C -0.06222 1.07027 0.09947
 O98 O 0.03813 0.91399 0.11053
 O99 O 0.06820 0.95956 0.05348
 C100 C 0.06249 0.92717 0.09496
 Zr101 Zr 0.00019 0.93948 0.07832
 O102 O 0.00105 0.93130 0.17578
 O103 O -0.00097 0.86380 0.06704
 Zr104 Zr 0.00025 1.06215 0.07881
 O105 O 0.00276 1.06427 0.17674
 O106 O -0.00271 1.13833 0.07527
 O107 O -0.02367 1.00076 0.09106
 O108 O 0.02362 1.00085 0.09013
 O109 O 0.03823 0.91391 -0.10831
 O110 O 0.06827 0.95991 -0.05212
 C111 C 0.06258 0.92728 -0.09308
 O112 O -0.03780 1.08330 -0.11399
 O113 O -0.06784 1.04041 -0.05351
 C114 C -0.06215 1.07041 -0.09783
 O115 O 0.03841 1.08817 -0.10900
 O116 O 0.06840 1.04268 -0.05209
 C117 C 0.06275 1.07501 -0.09358
 O118 O -0.03794 0.91878 -0.11376
 O119 O -0.06790 0.96166 -0.05358
 C120 C -0.06227 0.93168 -0.09778
 Zr121 Zr 0.00018 0.93993 -0.07720
 O122 O 0.00306 0.93714 -0.17504
 O123 O -0.00270 0.86372 -0.07332
 Zr124 Zr 0.00029 1.06253 -0.07710
 O125 O 0.00307 1.06667 -0.17486
 O126 O -0.00277 1.13867 -0.07209
 Zr127 Zr -0.04011 1.00100 0.00083
 Zr128 Zr 0.04081 1.00120 0.00068
 O129 O 0.02361 1.00127 -0.08875
 O130 O -0.02371 1.00122 -0.08953
 O131 O 0.02471 0.93057 0.00058
 O132 O -0.02355 1.07101 0.00089
 O133 O -0.02377 0.93096 0.00073
 O134 O 0.02476 1.07176 0.00080
 H135 H 0.03558 1.00089 0.12701
 H136 H -0.03618 1.09880 0.00090
 H137 H 0.03550 1.00127 -0.12584
 H138 H -0.03649 0.90319 0.00086
 H139 H 0.01378 1.15066 0.05424
 H140 H 0.01432 1.15100 -0.05393
 H141 H -0.00918 1.04170 -0.19184
 H142 H -0.01017 0.96052 -0.19187
 H143 H 0.01290 0.85190 -0.04877
 H144 H -0.00172 0.85007 0.10945
 H145 H 0.00394 0.96379 0.19334
 H146 H -0.01088 1.04128 0.19317
 O147 O 0.53759 0.41780 -0.11611
 O148 O 0.56764 0.46020 -0.05564
 C149 C 0.56195 0.43049 -0.10009
 O150 O 0.46184 0.58637 -0.11072
 O151 O 0.43173 0.54092 -0.05365
 C152 C 0.43747 0.57327 -0.09516
 O153 O 0.53801 0.58182 -0.11532
 O154 O 0.56793 0.53892 -0.05499
 C155 C 0.56232 0.56892 -0.09928
 O156 O 0.46167 0.41231 -0.10967
 O157 O 0.43163 0.45786 -0.05300
 C158 C 0.43732 0.42545 -0.09424
 Zr159 Zr 0.49968 0.43787 -0.07771
 O160 O 0.49870 0.42960 -0.17510
 O161 O 0.50075 0.36220 -0.06589
 Zr162 Zr 0.49982 0.56048 -0.07902
 O163 O 0.49734 0.56240 -0.17697
 O164 O 0.50290 0.63669 -0.07611
 O165 O 0.52366 0.49918 -0.09077
 O166 O 0.47634 0.49915 -0.08998
 O167 O 0.46153 0.41242 0.10922
 O168 O 0.43157 0.45816 0.05251
 C169 C 0.43720 0.42570 0.09388
 O170 O 0.53786 0.58186 0.11375
 O171 O 0.56787 0.53891 0.05379
 C172 C 0.56220 0.56896 0.09787
 O173 O 0.46174 0.58682 0.10844
 O174 O 0.43170 0.54120 0.05188
 C175 C 0.43740 0.57366 0.09302
 O176 O 0.53772 0.41734 0.11444
 O177 O 0.56779 0.46016 0.05395
 C178 C 0.56207 0.43022 0.09833
 Zr179 Zr 0.49964 0.43840 0.07777
 O180 O 0.49676 0.43566 0.17563
 O181 O 0.50236 0.36220 0.07428
 Zr182 Zr 0.49974 0.56099 0.07686
 O183 O 0.49688 0.56498 0.17460
 O184 O 0.50299 0.63712 0.07160
 Zr185 Zr 0.54009 0.49951 -0.00053
 Zr186 Zr 0.45912 0.49953 -0.00058
 O187 O 0.47629 0.49971 0.08886
 O188 O 0.52363 0.49974 0.08977
 O189 O 0.47511 0.42894 0.00003
 O190 O 0.52361 0.56947 -0.00111
 O191 O 0.52362 0.42945 -0.00006
 O192 O 0.47531 0.57010 -0.00114
 H193 H 0.46440 0.49913 -0.12689
 H194 H 0.53627 0.59732 -0.00119
 H195 H 0.46440 0.49977 0.12593
 H196 H 0.53630 0.40171 -0.00010
 H197 H 0.48644 0.64902 -0.05515
 H198 H 0.48606 0.64945 0.05278
 H199 H 0.50923 0.54027 0.19174
 H200 H 0.51002 0.45909 0.19230
 H201 H 0.48667 0.35035 0.04999
 H202 H 0.50141 0.34842 -0.10821
 H203 H 0.49641 0.46220 -0.19288
 H204 H 0.51115 0.53979 -0.19321
 C205 C 0.35228 0.34018 0.19412
 C206 C 0.36011 0.30739 0.24973
 C207 C 0.34391 0.34057 0.29310
 C208 C 0.33573 0.37308 0.23845
 C209 C 0.37758 0.37119 0.20662
 C210 C 0.36136 0.40431 0.25004
 C211 C 0.38567 0.33870 0.26136
 C212 C 0.36924 0.37159 0.30528
 C213 C 0.32645 0.32448 0.34421
 C214 C 0.31338 0.31224 0.38890
 C215 C 0.39759 0.38918 0.16178
 C216 C 0.41516 0.40514 0.12861
 H217 H 0.34554 0.32751 0.14783
 H218 H 0.35941 0.26735 0.25013
 H219 H 0.31497 0.38699 0.22962
 H220 H 0.36205 0.44437 0.24973
 H221 H 0.40641 0.32475 0.27038
 H222 H 0.37606 0.38436 0.35147
 C223 C -0.14754 0.84814 0.19793
 C224 C -0.14020 0.81393 0.25245
 C225 C -0.15655 0.84627 0.29651
 C226 C -0.16426 0.88019 0.24295
 C227 C -0.12221 0.87850 0.21255
 C228 C -0.13858 0.91080 0.25665
 C229 C -0.11461 0.84459 0.26620
 C230 C -0.13120 0.87665 0.31082
 C231 C -0.17431 0.82918 0.34642
 C232 C -0.18749 0.81613 0.39047
 C233 C -0.10193 0.89693 0.16883
 C234 C -0.08423 0.91262 0.13588
 H235 H -0.15400 0.83668 0.15091
 H236 H -0.14108 0.77391 0.25124
 H237 H -0.18491 0.89455 0.23397
 H238 H -0.13770 0.95082 0.25794
 H239 H -0.09398 0.83017 0.27536
 H240 H -0.12464 0.88819 0.35775
 C241 C 0.64752 0.65245 0.19601
 C242 C 0.64008 0.68659 0.25040
 C243 C 0.65626 0.65409 0.29470
 C244 C 0.66406 0.62023 0.24126
 C245 C 0.62210 0.62218 0.21043
 C246 C 0.63829 0.58972 0.25477
 C247 C 0.61440 0.65602 0.26396
 C248 C 0.63081 0.62380 0.30880
 C249 C 0.67391 0.67102 0.34478
 C250 C 0.68698 0.68391 0.38900
 C251 C 0.60189 0.60389 0.16652
 C252 C 0.58423 0.58827 0.13351
 H253 H 0.65416 0.66398 0.14905
 H254 H 0.64102 0.72660 0.24912
 H255 H 0.68471 0.60576 0.23248
 H256 H 0.63735 0.54970 0.25614
 H257 H 0.59377 0.67054 0.27293
 H258 H 0.62409 0.61218 0.35568
 C259 C 0.13878 1.09573 0.24942
 C260 C 0.16397 1.12829 0.23842
 C261 C 0.15545 1.15919 0.29421
 C262 C 0.13058 1.12684 0.30581
 C263 C 0.12203 1.12913 0.20736
 C264 C 0.11363 1.16001 0.26325
 C265 C 0.14688 1.16147 0.19543
 C266 C 0.13873 1.19264 0.25220
 C267 C 0.17277 1.17500 0.34545
 C268 C 0.18575 1.18708 0.39013
 C269 C 0.10215 1.11137 0.16240
 C270 C 0.08462 1.09550 0.12926
 H271 H 0.13861 1.05568 0.24782
 H272 H 0.18489 1.11548 0.22884
 H273 H 0.12404 1.11275 0.35170
 H274 H 0.09273 1.17289 0.27305
 H275 H 0.15335 1.17547 0.14946
 H276 H 0.13892 1.23267 0.25392
 C277 C 0.62268 0.39391 -0.28042
 C278 C 0.65391 0.39889 -0.27655
 C279 C 0.65663 0.34577 -0.29589
 C280 C 0.62562 0.34064 -0.30032
 C281 C 0.62211 0.37762 -0.21228
 C282 C 0.62482 0.32451 -0.23162
 C283 C 0.65311 0.38287 -0.20761
 C284 C 0.65617 0.32936 -0.22780
 C285 C 0.67448 0.32878 -0.34562
 C286 C 0.68770 0.31580 -0.38959
 C287 C 0.60174 0.39586 -0.16872
 C288 C 0.58399 0.41137 -0.13585
 H289 H 0.60873 0.42063 -0.30169
 H290 H 0.66608 0.42930 -0.29552
 H291 H 0.61447 0.32310 -0.33892
 H292 H 0.61263 0.29413 -0.21266
 H293 H 0.66418 0.40048 -0.16894
 H294 H 0.67017 0.30263 -0.20675
 C295 C 0.13944 0.90531 -0.24631
 C296 C 0.16416 0.87194 -0.23488
 C297 C 0.15560 0.84148 -0.29103
 C298 C 0.13119 0.87462 -0.30306
 C299 C 0.12206 0.87230 -0.20483
 C300 C 0.11360 0.84185 -0.26107
 C301 C 0.14644 0.83916 -0.19248
 C302 C 0.13823 0.80842 -0.24960
 C303 C 0.17299 0.82531 -0.34197
 C304 C 0.18605 0.81302 -0.38646
 C305 C 0.10211 0.89045 -0.16027
 C306 C 0.08457 0.90657 -0.12740
 H307 H 0.13975 0.94535 -0.24451
 H308 H 0.18518 0.88407 -0.22475
 H309 H 0.12508 0.88904 -0.34902
 H310 H 0.09260 0.82967 -0.27142
 H311 H 0.15247 0.82484 -0.14642
 H312 H 0.13793 0.76840 -0.25152
 C313 C 0.37706 0.60857 -0.27410
 C314 C 0.34573 0.60662 -0.26993
 C315 C 0.34457 0.65882 -0.29391
 C316 C 0.37568 0.66092 -0.29864
 C317 C 0.37808 0.62814 -0.20751
 C318 C 0.37692 0.68034 -0.23149
 C319 C 0.34697 0.62592 -0.20253
 C320 C 0.34547 0.67853 -0.22738
 C321 C 0.32717 0.67498 -0.34491
 C322 C 0.31413 0.68727 -0.38948
 C323 C 0.39800 0.61000 -0.16280
 C324 C 0.41551 0.59391 -0.12975
 H325 H 0.39023 0.57960 -0.29294
 H326 H 0.33272 0.57647 -0.28630
 H327 H 0.38734 0.67543 -0.33865
 H328 H 0.38995 0.71046 -0.21516
 H329 H 0.33539 0.61134 -0.16246
 H330 H 0.33225 0.70749 -0.20878
 C331 C -0.12323 1.10470 -0.27750
 C332 C -0.15453 1.10195 -0.27257
 C333 C -0.15619 1.15452 -0.29503
 C334 C -0.12512 1.15742 -0.30053
 C335 C -0.12203 1.12320 -0.21045
 C336 C -0.12370 1.17576 -0.23292
 C337 C -0.15309 1.12019 -0.20469
 C338 C -0.15509 1.17315 -0.22803
 C339 C -0.17383 1.17121 -0.34521
 C340 C -0.18691 1.18399 -0.38944
 C341 C -0.10183 1.10514 -0.16647
 C342 C -0.08417 1.08964 -0.13344
 H343 H -0.10994 1.07637 -0.29745
 H344 H -0.16741 1.07180 -0.28941
 H345 H -0.11379 1.17289 -0.34044
 H346 H -0.11079 1.20590 -0.21612
 H347 H -0.16434 1.10466 -0.16471
 H348 H -0.16844 1.20148 -0.20831
 C349 C 0.64756 0.65229 -0.19881
 C350 C 0.66396 0.61996 -0.24410
 C351 C 0.65602 0.65371 -0.29766
 C352 C 0.63998 0.68632 -0.25333
 C353 C 0.62210 0.62202 -0.21249
 C354 C 0.61426 0.65576 -0.26614
 C355 C 0.63816 0.58945 -0.25687
 C356 C 0.63053 0.62343 -0.31103
 C357 C 0.67356 0.67054 -0.34810
 C358 C 0.68663 0.68345 -0.39240
 C359 C 0.60200 0.60382 -0.16817
 C360 C 0.58437 0.58823 -0.13494
 H361 H 0.65432 0.66390 -0.15206
 H362 H 0.68463 0.60550 -0.23565
 H363 H 0.64095 0.72634 -0.25243
 H364 H 0.59361 0.67028 -0.27478
 H365 H 0.63720 0.54942 -0.25786
 H366 H 0.62369 0.61174 -0.35769
 C367 C 0.15078 1.14895 -0.19520
 C368 C 0.16169 1.11762 -0.24939
 C369 C 0.15556 1.15911 -0.29460
 C370 C 0.14499 1.19076 -0.24139
 C371 C 0.12214 1.12904 -0.20731
 C372 C 0.11607 1.17050 -0.25260
 C373 C 0.13276 1.09749 -0.26058
 C374 C 0.12690 1.13914 -0.30637
 C375 C 0.17289 1.17500 -0.34605
 C376 C 0.18588 1.18714 -0.39091
 C377 C 0.10226 1.11128 -0.16201
 C378 C 0.08475 1.09545 -0.12853
 H379 H 0.16037 1.15278 -0.14892
 H380 H 0.18066 1.09605 -0.24865
 H381 H 0.15023 1.22931 -0.23405
 H382 H 0.09710 1.19208 -0.25347
 H383 H 0.12755 1.05892 -0.26804
 H384 H 0.11722 1.13523 -0.35255
 C385 C 0.36215 0.40455 -0.25093
 C386 C 0.37008 0.37155 -0.30571
 C387 C 0.34452 0.34106 -0.29368
 C388 C 0.33627 0.37385 -0.23949
 C389 C 0.37795 0.37122 -0.20692
 C390 C 0.35241 0.34074 -0.19456
 C391 C 0.38610 0.33844 -0.26119
 C392 C 0.36030 0.30766 -0.24972
 C393 C 0.32715 0.32517 -0.34480
 C394 C 0.31410 0.31299 -0.38933
 C395 C 0.39783 0.38902 -0.16199
 C396 C 0.41535 0.40492 -0.12883
 H397 H 0.36309 0.44459 -0.25096
 H398 H 0.37720 0.38407 -0.35190
 H399 H 0.31556 0.38820 -0.23120
 H400 H 0.34538 0.32832 -0.14827
 H401 H 0.40679 0.32406 -0.26968
 H402 H 0.35934 0.26764 -0.24980
 C403 C -0.11439 0.84525 -0.26432
 C404 C -0.13973 0.81380 -0.25074
 C405 C -0.15639 0.84623 -0.29417
 C406 C -0.13128 0.87741 -0.30831
 C407 C -0.12220 0.87833 -0.21009
 C408 C -0.13887 0.91073 -0.25357
 C409 C -0.14728 0.84717 -0.19565
 C410 C -0.16429 0.87933 -0.24002
 C411 C -0.17410 0.82921 -0.34411
 C412 C -0.18724 0.81624 -0.38814
 C413 C -0.10198 0.89670 -0.16627
 C414 C -0.08432 0.91236 -0.13332
 H415 H -0.09367 0.83143 -0.27393
 H416 H -0.14029 0.77375 -0.25008
 H417 H -0.12485 0.88966 -0.35513
 H418 H -0.13830 0.95079 -0.25430
 H419 H -0.15361 0.83499 -0.14874
 H420 H -0.18504 0.89309 -0.23059
 C421 C 0.35444 0.66304 0.19452
 C422 C 0.33596 0.63017 0.23507
 C423 C 0.34488 0.65851 0.29275
 C424 C 0.36300 0.69165 0.25316
 C425 C 0.37814 0.62815 0.20572
 C426 C 0.38695 0.65648 0.26349
 C427 C 0.36001 0.59504 0.24535
 C428 C 0.36861 0.62361 0.30363
 C429 C 0.32763 0.67447 0.34404
 C430 C 0.31467 0.68667 0.38872
 C431 C 0.39796 0.61024 0.16069
 C432 C 0.41544 0.59426 0.12753
 H433 H 0.34886 0.67900 0.14905
 H434 H 0.31477 0.61958 0.22403
 H435 H 0.36404 0.73155 0.25696
 H436 H 0.40812 0.66712 0.27474
 H437 H 0.35897 0.55512 0.24165
 H438 H 0.37428 0.60755 0.34900
 C439 C -0.14664 1.15524 0.19907
 C440 C -0.16429 1.12274 0.24197
 C441 C -0.15616 1.15430 0.29746
 C442 C -0.13886 1.18706 0.25549
 C443 C -0.12206 1.12284 0.21270
 C444 C -0.11403 1.15437 0.26828
 C445 C -0.13937 1.09010 0.25470
 C446 C -0.13155 1.12188 0.31079
 C447 C -0.17380 1.17104 0.34771
 C448 C -0.18689 1.18387 0.39195
 C449 C -0.10189 1.10481 0.16850
 C450 C -0.08425 1.08939 0.13526
 H451 H -0.15260 1.16871 0.15254
 H452 H -0.18518 1.10998 0.23172
 H453 H -0.13885 1.22711 0.25633
 H454 H -0.09317 1.16719 0.27872
 H455 H -0.13937 1.05004 0.25393
 H456 H -0.12551 1.10833 0.35723
 C457 C 0.64722 0.34685 0.19644
 C458 C 0.66402 0.37928 0.24091
 C459 C 0.65622 0.34582 0.29500
 C460 C 0.63978 0.31313 0.25148
 C461 C 0.62197 0.37736 0.21077
 C462 C 0.61427 0.34393 0.26494
 C463 C 0.63842 0.41002 0.25432
 C464 C 0.63094 0.37635 0.30901
 C465 C 0.67394 0.32907 0.34499
 C466 C 0.68711 0.31623 0.38902
 C467 C 0.60174 0.39546 0.16691
 C468 C 0.58408 0.41098 0.13393
 H469 H 0.65365 0.33498 0.14955
 H470 H 0.68470 0.39356 0.23160
 H471 H 0.64056 0.27310 0.25083
 H472 H 0.59361 0.32960 0.27442
 H473 H 0.63764 0.45006 0.25504
 H474 H 0.62441 0.38831 0.35580
 C475 C 0.14667 0.84033 0.19489
 C476 C 0.16389 0.87316 0.23801
 C477 C 0.15546 0.84173 0.29361
 C478 C 0.13859 0.80863 0.25144
 C479 C 0.12189 0.87251 0.20738
 C480 C 0.11356 0.84110 0.26306
 C481 C 0.13878 0.90556 0.24959
 C482 C 0.13066 0.87392 0.30578
 C483 C 0.17291 0.82551 0.34449
 C484 C 0.18601 0.81314 0.38891
 C485 C 0.10197 0.89059 0.16267
 C486 C 0.08446 0.90661 0.12959
 H487 H 0.15302 0.82677 0.14871
 H488 H 0.18481 0.88614 0.22831
 H489 H 0.13869 0.76858 0.25274
 H490 H 0.09266 0.82810 0.27294
 H491 H 0.13867 0.94563 0.24837
 H492 H 0.12421 0.88759 0.35185
   
