data_POSCAR
  _audit_creation_date              2014-09-24
  _audit_creation_method            'ToBaCCo'
  _symmetry_space_group_name_H-M    'P1'
  _symmetry_Int_Tables_number       1
  _symmetry_cell_setting            triclinic
  loop_
  _symmetry_equiv_pos_as_xyz
 x,y,z
_cell_length_a 17.5342
_cell_length_b 18.1900
_cell_length_c 17.8664
_cell_angle_alpha 86.554400
_cell_angle_beta 87.948800
_cell_angle_gamma 93.534200
loop_
  _atom_site_label
  _atom_site_type_symbol
  _atom_site_fract_x
  _atom_site_fract_y
  _atom_site_fract_z
O1 O 0.56516 0.51950 0.10899
 O2 O 0.36251 0.48856 0.06863
 O3 O 0.46537 0.40652 0.11940
 O4 O 0.46297 0.60261 0.05751
 O5 O 0.49715 0.57726 -0.05810
 O6 O 0.49111 0.38043 0.00234
 O7 O 0.39353 0.47357 -0.05015
 O8 O 0.59620 0.48952 -0.00570
 Cu9 Cu 0.46072 0.50687 0.10039
 Cu10 Cu 0.49802 0.47655 -0.03946
 C11 C 0.61521 0.50941 0.05836
 C12 C 0.34339 0.47845 0.00203
 C13 C 0.47766 0.35998 0.07106
 C14 C 0.48015 0.62319 -0.01056
 O15 O -0.08493 0.57134 0.50357
 O16 O -0.01794 0.38401 0.48814
 O17 O -0.01648 0.47887 0.59036
 O18 O -0.08847 0.47489 0.40033
 O19 O 0.02298 0.52415 0.35422
 O20 O 0.09486 0.52870 0.54468
 O21 O 0.09365 0.43214 0.44151
 O22 O 0.02606 0.61920 0.45532
 Cu23 Cu -0.06324 0.47245 0.50009
 Cu24 Cu 0.07078 0.53057 0.44430
 C25 C -0.04095 0.62733 0.48186
 C26 C 0.04950 0.37618 0.46263
 C27 C 0.05113 0.50465 0.60005
 C28 C -0.04512 0.49941 0.34495
 O29 O 0.51848 0.05704 0.62940
 O30 O 0.51882 0.05844 0.42237
 O31 O 0.41303 0.07164 0.52727
 O32 O 0.62033 0.04504 0.52466
 O33 O 0.59599 -0.07561 0.52512
 O34 O 0.38850 -0.04914 0.53957
 O35 O 0.48686 -0.06116 0.42930
 O36 O 0.49387 -0.06362 0.63548
 Cu37 Cu 0.51962 0.07020 0.52515
 Cu38 Cu 0.48929 -0.07450 0.53306
 C39 C 0.50697 -0.00395 0.66784
 C40 C 0.50212 -0.00089 0.39066
 C41 C 0.36551 0.01570 0.53445
 C42 C 0.64339 -0.01966 0.52376
 C43 C 0.49272 -0.07405 -0.12678
 C44 C 0.50426 -0.14623 -0.10040
 C45 C 0.51261 -0.16598 -0.02416
 C46 C 0.51769 -0.10949 0.02720
 C47 C 0.50545 -0.03571 0.00208
 C48 C 0.48914 -0.01853 -0.07435
 C49 C 0.46695 0.05253 -0.09472
 C50 C 0.47112 0.10816 -0.04466
 C51 C 0.49479 0.09433 0.02898
 C52 C 0.50795 0.02089 0.05392
 C53 C 0.53390 -0.12444 0.10309
 C54 C 0.53880 -0.06864 0.15289
 C55 C 0.52400 0.00409 0.13033
 C56 C 0.52713 0.06125 0.18112
 C57 C 0.52047 0.13397 0.15365
 C58 C 0.50369 0.15162 0.07878
 H59 H 0.44445 0.06587 -0.14897
 H60 H 0.45397 0.16187 -0.06417
 H61 H 0.54444 -0.17903 0.12557
 H62 H 0.55558 -0.08343 0.20914
 H63 H 0.50757 -0.18797 -0.14095
 H64 H 0.52876 0.17756 0.19185
 C65 C 0.05921 0.48812 0.81375
 C66 C 0.13622 0.48949 0.83243
 C67 C 0.15891 0.50395 0.90459
 C68 C 0.10305 0.52232 0.95868
 C69 C 0.02452 0.51299 0.94331
 C70 C 0.00236 0.49708 0.87028
 C71 C -0.07598 0.49320 0.85540
 C72 C -0.13115 0.49861 0.91228
 C73 C -0.11049 0.50879 0.98652
 C74 C -0.03189 0.52008 1.00117
 C75 C 0.12288 0.55173 1.02675
 C76 C 0.06843 0.55621 1.08428
 C77 C -0.00925 0.53734 1.07378
 C78 C -0.06466 0.53471 1.13355
 C79 C -0.14191 0.52084 1.11874
 C80 C -0.16604 0.50945 1.04606
 H81 H -0.09619 0.48581 0.79979
 H82 H -0.19009 0.49530 0.89653
 H83 H 0.18084 0.57137 1.03669
 H84 H 0.08876 0.57474 1.13668
 H85 H 0.17910 0.47731 0.79048
 H86 H -0.18367 0.51817 1.16503
 C87 C -0.05088 -0.16395 0.46815
 C88 C -0.12913 -0.15088 0.46935
 C89 C -0.15490 -0.07973 0.47276
 C90 C -0.10027 -0.01837 0.47049
 C91 C -0.02107 -0.03032 0.47319
 C92 C 0.00371 -0.10309 0.47138
 C93 C 0.08277 -0.11270 0.47182
 C94 C 0.13593 -0.05292 0.47354
 C95 C 0.11291 0.01921 0.47945
 C96 C 0.03364 0.03092 0.47646
 C97 C -0.12203 0.05463 0.46178
 C98 C -0.06897 0.11425 0.46487
 C99 C 0.00888 0.10381 0.47515
 C100 C 0.06274 0.16458 0.48071
 C101 C 0.14059 0.15162 0.48567
 C102 C 0.16668 0.08031 0.48576
 H103 H 0.10543 -0.16649 0.47106
 H104 H 0.19544 -0.06462 0.46915
 H105 H -0.18016 0.06695 0.45056
 H106 H -0.08997 0.16873 0.45734
 H107 H -0.17128 -0.19659 0.46641
 H108 H 0.18174 0.19758 0.49195
 C109 C -0.30394 0.52290 1.07413
 C110 C -0.24875 0.49366 1.03418
 H111 H -0.29026 0.55897 1.11843
 H112 H -0.26524 0.45685 0.99136
 C113 C 0.26631 0.47494 0.98692
 C114 C 0.24115 0.49722 0.91974
 H115 H 0.22635 0.46003 1.03364
 H116 H 0.28212 0.51111 0.87333
 C117 C -0.06695 -0.30193 0.48821
 C118 C -0.02660 -0.24056 0.45993
 H119 H -0.12129 -0.29759 0.51780
 H120 H 0.02632 -0.24680 0.42867
 C121 C 0.07737 0.30161 0.45687
 C122 C 0.03754 0.24094 0.48687
 H123 H 0.13125 0.29683 0.42656
 H124 H -0.01614 0.24734 0.51689
 C125 C 0.51030 -0.00506 -0.25387
 C126 C 0.48310 -0.06378 -0.20943
 H127 H 0.53673 0.04289 -0.22981
 H128 H 0.45762 -0.11107 -0.23579
 C129 C 0.49811 0.00008 0.30831
 C130 C 0.53878 0.05055 0.26307
 H131 H 0.45928 -0.04030 0.28496
 H132 H 0.57519 0.09187 0.28822
 C133 C 0.47848 -0.29914 -0.03580
 C134 C 0.51520 -0.24576 -0.00001
 H135 H 0.44675 -0.28675 -0.08530
 H136 H 0.54722 -0.26228 0.04804
 C137 C 0.47595 0.28164 0.09623
 C138 C 0.50108 0.23044 0.05232
 H139 H 0.45397 0.26633 0.15278
 H140 H 0.52203 0.24706 -0.00431
 C141 C -0.27369 -0.02844 0.52269
 C142 C -0.23950 -0.07353 0.47731
 H143 H -0.23961 0.00686 0.55704
 H144 H -0.27477 -0.10988 0.44492
 C145 C 0.28252 0.02475 0.53641
 C146 C 0.25093 0.07424 0.49045
 H147 H 0.24637 -0.01418 0.57217
 H148 H 0.28808 0.11392 0.45644
 C149 C -0.07399 0.49763 1.26906
 C150 C -0.04254 0.54203 1.21230
 H151 H -0.12041 0.45758 1.25969
 H152 H 0.00269 0.58236 1.22399
 C153 C 0.07857 0.50891 0.67642
 C154 C 0.03909 0.47521 0.73561
 H155 H 0.12980 0.54356 0.68428
 H156 H -0.01159 0.44042 0.72640
   
