data_POSCAR
  _audit_creation_date              2014-09-24
  _audit_creation_method            'ToBaCCo'
  _symmetry_space_group_name_H-M    'P1'
  _symmetry_Int_Tables_number       1
  _symmetry_cell_setting            triclinic
  loop_
  _symmetry_equiv_pos_as_xyz
 x,y,z
_cell_length_a 45.8968
_cell_length_b 44.0413
_cell_length_c 47.8265
_cell_angle_alpha 88.758700
_cell_angle_beta 90.748100
_cell_angle_gamma 90.897500
loop_
  _atom_site_label
  _atom_site_type_symbol
  _atom_site_fract_x
  _atom_site_fract_y
  _atom_site_fract_z
N1 N 0.20977 0.21519 0.22473
 N2 N 0.71984 0.70514 0.69973
 N3 N 0.30201 0.79147 0.70040
 N4 N 0.79839 0.29232 0.20555
 N5 N 0.78999 0.70997 0.29108
 N6 N 0.28170 0.22050 -0.20672
 N7 N 0.71140 0.28415 -0.22004
 N8 N 0.20075 0.78694 0.28960
 N9 N 0.45826 0.45146 0.45841
 N10 N -0.03841 -0.02034 0.94937
 N11 N 1.04090 0.53883 0.98574
 N12 N 0.51852 0.02955 0.46136
 N13 N -0.03214 0.03318 0.53070
 N14 N 0.47398 0.53902 0.03436
 N15 N 0.53702 -0.05190 0.03580
 N16 N 1.03861 0.45909 0.56011
 C17 C 0.42617 0.01376 0.20536
 H18 H 0.42898 0.03151 0.22038
 C19 C 0.44546 0.01230 0.18312
 H20 H 0.46267 0.02928 0.18121
 C21 C 0.40199 -0.03124 0.19101
 H22 H 0.38550 -0.04859 0.19435
 C23 C 0.42093 -0.03369 0.16859
 H24 H 0.41833 -0.05265 0.15468
 N25 N 0.40444 -0.00736 0.20853
 C26 C 0.32688 0.03090 0.23370
 H27 H 0.31578 0.00925 0.23594
 C28 C 0.31040 0.05711 0.23042
 H29 H 0.28687 0.05497 0.22964
 C30 C 0.37060 0.06003 0.23294
 H31 H 0.39400 0.06129 0.23487
 C32 C 0.35497 0.08687 0.22985
 H33 H 0.36690 0.10822 0.22947
 Zn34 Zn 0.37854 -0.00356 0.23900
 N35 N 0.35650 0.03265 0.23450
 C36 C 0.39659 0.02034 0.29113
 N37 N 0.40134 -0.00145 0.27208
 C38 C 0.42304 -0.02184 0.27582
 C39 C 0.44145 -0.02042 0.29924
 C40 C 0.41447 0.02259 0.31486
 C41 C 0.33448 -0.04371 0.21923
 C42 C 0.31420 -0.06763 0.22086
 C43 C 0.33164 -0.07902 0.26771
 C44 C 0.35161 -0.05489 0.26518
 N45 N 0.35264 -0.03772 0.24123
 H46 H 0.37898 0.03609 0.28792
 H47 H 0.42615 -0.03910 0.26043
 H48 H 0.45830 -0.03718 0.30186
 H49 H 0.41056 0.04034 0.32961
 H50 H 0.33534 -0.02940 0.20058
 H51 H 0.29947 -0.07120 0.20337
 H52 H 0.33111 -0.09228 0.28704
 H53 H 0.36594 -0.04962 0.28256
 C54 C 0.32437 0.08564 0.22821
 C55 C 0.44271 -0.01146 0.16413
 C56 C 0.31254 -0.08570 0.24540
 C57 C 0.43756 0.00234 0.31899
 C58 C 0.07357 -0.01769 0.71157
 H59 H 0.07120 -0.03588 0.72698
 C60 C 0.05297 -0.01451 0.69006
 H61 H 0.03500 -0.03066 0.68893
 C62 C 0.10059 0.02473 0.69407
 H63 H 0.11915 0.04000 0.69577
 C64 C 0.08061 0.02859 0.67201
 H65 H 0.08396 0.04691 0.65687
 N66 N 0.09688 0.00166 0.71311
 C67 C 0.17032 -0.04524 0.75146
 H68 H 0.17549 -0.03069 0.76883
 C69 C 0.18818 -0.06973 0.74582
 H70 H 0.20703 -0.07404 0.75909
 C71 C 0.13969 -0.05700 0.71280
 H72 H 0.12111 -0.05169 0.69963
 C73 C 0.15674 -0.08188 0.70660
 H74 H 0.15109 -0.09528 0.68856
 Zn75 Zn 0.12373 -0.00517 0.74285
 N76 N 0.14655 -0.03942 0.73506
 C77 C 0.10600 -0.03764 0.79200
 N78 N 0.10181 -0.01238 0.77569
 C79 C 0.08080 0.00783 0.78162
 C80 C 0.06308 0.00313 0.80486
 C81 C 0.08878 -0.04324 0.81549
 C82 C 0.17019 0.03406 0.72798
 C83 C 0.19038 0.05785 0.73122
 C84 C 0.16670 0.07081 0.77405
 C85 C 0.14719 0.04658 0.77018
 N86 N 0.14916 0.02883 0.74736
 H87 H 0.12264 -0.05357 0.78680
 H88 H 0.07767 0.02754 0.76808
 H89 H 0.04636 0.01944 0.80904
 H90 H 0.09302 -0.06318 0.82840
 H91 H 0.17144 0.01947 0.71014
 H92 H 0.20681 0.06171 0.71545
 H93 H 0.16489 0.08455 0.79244
 H94 H 0.13069 0.04185 0.78561
 C95 C 0.18132 -0.08856 0.72327
 C96 C 0.05635 0.00888 0.66988
 C97 C 0.18889 0.07649 0.75463
 C98 C 0.06674 -0.02282 0.82207
 C99 C 0.56699 0.48194 0.22119
 H100 H 0.56178 0.46640 0.23829
 C101 C 0.54757 0.48505 0.19860
 H102 H 0.52765 0.47158 0.19852
 C103 C 0.59987 0.51728 0.20018
 H104 H 0.62024 0.52978 0.20076
 C105 C 0.58120 0.52094 0.17713
 H106 H 0.58745 0.53644 0.16030
 N107 N 0.59253 0.49805 0.22167
 C108 C 0.67208 0.46105 0.25116
 H109 H 0.68144 0.48111 0.26056
 C110 C 0.68989 0.43651 0.24568
 H111 H 0.71293 0.43809 0.25071
 C112 C 0.63063 0.43417 0.23418
 H113 H 0.60748 0.43342 0.22978
 C114 C 0.64759 0.40908 0.22844
 H115 H 0.63724 0.38945 0.21913
 Zn116 Zn 0.61841 0.49241 0.25259
 N117 N 0.64306 0.45955 0.24516
 C118 C 0.60569 0.45975 0.30246
 N119 N 0.59660 0.48258 0.28500
 C120 C 0.57249 0.49879 0.29065
 C121 C 0.55661 0.49244 0.31485
 C122 C 0.59058 0.45277 0.32698
 C123 C 0.66249 0.53657 0.24060
 C124 C 0.67943 0.56273 0.24496
 C125 C 0.65148 0.57209 0.28623
 C126 C 0.63537 0.54555 0.28132
 N127 N 0.64091 0.52847 0.25868
 H128 H 0.62491 0.44713 0.29755
 H129 H 0.56575 0.51686 0.27642
 H130 H 0.53763 0.50581 0.31913
 H131 H 0.59810 0.43436 0.34043
 H132 H 0.66683 0.52247 0.22294
 H133 H 0.69658 0.56876 0.23043
 H134 H 0.64689 0.58511 0.30456
 H135 H 0.61847 0.53867 0.29570
 C136 C 0.67767 0.40999 0.23431
 C137 C 0.55456 0.50487 0.17618
 C138 C 0.67380 0.58102 0.26787
 C139 C 0.56582 0.46943 0.33359
 C140 C 0.93435 0.51825 0.73537
 H141 H 0.93671 0.53654 0.75001
 C142 C 0.95225 0.51754 0.71206
 H143 H 0.96865 0.53521 0.70923
 C144 C 0.91056 0.47254 0.72212
 H145 H 0.89442 0.45497 0.72621
 C146 C 0.92807 0.47088 0.69856
 H147 H 0.92499 0.45207 0.68455
 N148 N 0.91362 0.49632 0.73964
 C149 C 0.84392 0.53832 0.78497
 H150 H 0.84189 0.52291 0.80278
 C151 C 0.82425 0.56199 0.78116
 H152 H 0.80701 0.56413 0.79614
 C153 C 0.86783 0.55243 0.74297
 H154 H 0.88435 0.54830 0.72773
 C155 C 0.84880 0.57645 0.73844
 H156 H 0.85136 0.59073 0.71989
 Zn157 Zn 0.88963 0.50009 0.77114
 N158 N 0.86523 0.53405 0.76604
 C159 C 0.91137 0.52822 0.82044
 N160 N 0.91443 0.50484 0.80265
 C161 C 0.93622 0.48450 0.80620
 C162 C 0.95605 0.48718 0.82839
 C163 C 0.93057 0.53157 0.84311
 C164 C 0.84392 0.46036 0.75649
 C165 C 0.82425 0.43608 0.75992
 C166 C 0.84876 0.42263 0.80334
 C167 C 0.86794 0.44715 0.79907
 N168 N 0.86522 0.46542 0.77594
 H169 H 0.89418 0.54440 0.81704
 H170 H 0.93820 0.46621 0.79163
 H171 H 0.97298 0.47048 0.83101
 H172 H 0.92789 0.55034 0.85707
 H173 H 0.84201 0.47549 0.73846
 H174 H 0.80725 0.43265 0.74434
 H175 H 0.85175 0.40819 0.82170
 H176 H 0.88480 0.45171 0.81445
 C177 C 0.82656 0.58156 0.75761
 C178 C 0.94890 0.49387 0.69300
 C179 C 0.82626 0.41704 0.78378
 C180 C 0.95344 0.51107 0.84713
 C181 C 0.22613 0.42266 0.02543
 H182 H 0.24338 0.42363 0.04104
 C183 C 0.20449 0.44463 0.02478
 H184 H 0.20508 0.46224 0.04022
 C185 C 0.20418 0.39794 -0.01319
 H186 H 0.20420 0.37979 -0.02801
 C187 C 0.18193 0.41921 -0.01438
 H188 H 0.16500 0.41722 -0.03025
 N189 N 0.22554 0.39985 0.00669
 C190 C 0.26504 0.31831 0.04180
 H191 H 0.28141 0.31427 0.02630
 C192 C 0.26096 0.29756 0.06392
 H193 H 0.27470 0.27784 0.06547
 C194 C 0.22786 0.34953 0.05876
 H195 H 0.21489 0.36971 0.05657
 C196 C 0.22317 0.32947 0.08132
 H197 H 0.20655 0.33446 0.09634
 Zn198 Zn 0.25540 0.37068 0.00903
 N199 N 0.24870 0.34377 0.03971
 C200 C 0.30945 0.38362 0.03588
 N201 N 0.29151 0.39146 0.01412
 C202 C 0.29834 0.41507 -0.00352
 C203 C 0.32433 0.43154 0.00016
 C204 C 0.33570 0.39934 0.04022
 C205 C 0.23454 0.32553 -0.02677
 C206 C 0.23475 0.30606 -0.04944
 C207 C 0.27835 0.33177 -0.06583
 C208 C 0.27752 0.35051 -0.04265
 N209 N 0.25579 0.34713 -0.02371
 H210 H 0.30336 0.36535 0.05014
 H211 H 0.28346 0.42120 -0.02036
 H212 H 0.32942 0.45022 -0.01413
 H213 H 0.34931 0.39297 0.05797
 H214 H 0.21761 0.32317 -0.01130
 H215 H 0.21757 0.28910 -0.05149
 H216 H 0.29595 0.33461 -0.08057
 H217 H 0.29444 0.36748 -0.03971
 C218 C 0.23973 0.30301 0.08405
 C219 C 0.18194 0.44301 0.00469
 C220 C 0.25703 0.30890 -0.06922
 C221 C 0.34352 0.42359 0.02214
 C222 C 0.70355 0.08229 -0.00747
 H223 H 0.71379 0.08067 -0.02753
 C224 C 0.68102 0.06198 -0.00046
 H225 H 0.67474 0.04449 -0.01503
 C226 C 0.69812 0.10777 0.03516
 H227 H 0.70410 0.12612 0.04876
 C228 C 0.67559 0.08784 0.04307
 H229 H 0.66469 0.09134 0.06264
 N230 N 0.71191 0.10453 0.01038
 C231 C 0.75253 0.17050 -0.04668
 H232 H 0.77426 0.17196 -0.03770
 C233 C 0.74594 0.18632 -0.07153
 H234 H 0.76280 0.20006 -0.08144
 C235 C 0.70423 0.15099 -0.04430
 H236 H 0.68797 0.13733 -0.03351
 C237 C 0.69668 0.16640 -0.06914
 H238 H 0.67478 0.16367 -0.07739
 Zn239 Zn 0.74228 0.13254 -0.00000
 N240 N 0.73176 0.15330 -0.03361
 C241 C 0.80201 0.11850 0.00984
 N242 N 0.77789 0.11161 -0.00581
 C243 C 0.77894 0.09016 -0.02583
 C244 C 0.80419 0.07335 -0.02937
 C245 C 0.82757 0.10211 0.00717
 C246 C 0.74081 0.19067 0.02491
 C247 C 0.74405 0.21122 0.04668
 C248 C 0.76149 0.17029 0.07658
 C249 C 0.75727 0.15046 0.05452
 N250 N 0.74753 0.16091 0.02915
 H251 H 0.80174 0.13681 0.02440
 H252 H 0.76026 0.08602 -0.03918
 H253 H 0.80435 0.05595 -0.04502
 H254 H 0.84635 0.10801 0.01996
 H255 H 0.73269 0.19847 0.00474
 H256 H 0.73877 0.23485 0.04300
 H257 H 0.76950 0.16160 0.09655
 H258 H 0.76187 0.12658 0.05757
 C259 C 0.71763 0.18460 -0.08305
 C260 C 0.66687 0.06443 0.02521
 C261 C 0.75469 0.20102 0.07282
 C262 C 0.82868 0.07870 -0.01221
 C263 C 0.21196 0.57768 0.48580
 H264 H 0.22632 0.57475 0.46833
 C265 C 0.18735 0.55897 0.48889
 H266 H 0.18309 0.54145 0.47379
 C267 C 0.20099 0.60337 0.52732
 H268 H 0.20659 0.62046 0.54242
 C269 C 0.17632 0.58496 0.53137
 H270 H 0.16290 0.58830 0.54948
 N271 N 0.21805 0.59963 0.50465
 C272 C 0.27068 0.66756 0.45991
 H273 H 0.28921 0.66949 0.47401
 C274 C 0.26905 0.68619 0.43596
 H275 H 0.28639 0.70259 0.43204
 C276 C 0.22486 0.64494 0.44908
 H277 H 0.20737 0.62934 0.45451
 C278 C 0.22229 0.66317 0.42497
 H279 H 0.20297 0.66095 0.41189
 Zn280 Zn 0.25206 0.62366 0.49936
 N281 N 0.24895 0.64717 0.46582
 C282 C 0.30256 0.59787 0.47617
 N283 N 0.28388 0.59680 0.49802
 C284 C 0.28633 0.57524 0.51870
 C285 C 0.30817 0.55351 0.51782
 C286 C 0.32491 0.57686 0.47465
 C287 C 0.23752 0.67423 0.52995
 C288 C 0.24008 0.69589 0.55076
 C289 C 0.28203 0.66938 0.56934
 C290 C 0.27883 0.64839 0.54800
 N291 N 0.25673 0.65109 0.52896
 H292 H 0.29996 0.61468 0.45962
 H293 H 0.27100 0.57469 0.53570
 H294 H 0.30978 0.53661 0.53451
 H295 H 0.33938 0.57792 0.45694
 H296 H 0.22019 0.67584 0.51446
 H297 H 0.22432 0.71388 0.55135
 H298 H 0.29980 0.66696 0.58430
 H299 H 0.29407 0.63005 0.54664
 C300 C 0.24464 0.68400 0.41799
 C301 C 0.16907 0.56263 0.51187
 C302 C 0.26266 0.69367 0.57076
 C303 C 0.32769 0.55405 0.49543
 C304 C 0.70701 0.92260 0.50938
 H305 H 0.72407 0.92547 0.52492
 C306 C 0.68324 0.94197 0.50904
 H307 H 0.68192 0.95896 0.52497
 C308 C 0.68851 0.89734 0.46954
 H309 H 0.69082 0.88031 0.45388
 C310 C 0.66423 0.91613 0.46854
 H311 H 0.64807 0.91324 0.45207
 N312 N 0.70929 0.90080 0.48983
 C313 C 0.74652 0.81800 0.51554
 H314 H 0.75345 0.81129 0.49513
 C315 C 0.74334 0.79594 0.53673
 H316 H 0.74788 0.77252 0.53224
 C317 C 0.73373 0.85667 0.54653
 H318 H 0.73009 0.88036 0.55032
 C319 C 0.73055 0.83539 0.56840
 H320 H 0.72423 0.84297 0.58881
 Zn321 Zn 0.74363 0.87725 0.49104
 N322 N 0.74111 0.84767 0.52055
 C323 C 0.79570 0.89763 0.51794
 N324 N 0.77523 0.90413 0.49798
 C325 C 0.77665 0.93024 0.48235
 C326 C 0.79939 0.95109 0.48643
 C327 C 0.81892 0.91786 0.52268
 C328 C 0.73047 0.83553 0.44801
 C329 C 0.73551 0.81962 0.42362
 C330 C 0.77862 0.85067 0.41598
 C331 C 0.77306 0.86559 0.44077
 N332 N 0.74933 0.85785 0.45630
 H333 H 0.79415 0.87666 0.53004
 H334 H 0.76012 0.93471 0.46652
 H335 H 0.80036 0.97130 0.47319
 H336 H 0.83508 0.91232 0.53860
 H337 H 0.71192 0.82949 0.46082
 H338 H 0.72061 0.80152 0.41762
 H339 H 0.79798 0.85675 0.40431
 H340 H 0.78811 0.88299 0.44777
 C341 C 0.73482 0.80449 0.56350
 C342 C 0.66157 0.93909 0.48824
 C343 C 0.75984 0.82717 0.40727
 C344 C 0.82089 0.94511 0.50694
 C345 C 0.01788 0.22601 0.42256
 H346 H 0.03624 0.24171 0.42298
 C347 C 0.01630 0.20215 0.44215
 H348 H 0.03383 0.19935 0.45731
 C349 C -0.02717 0.21073 0.40209
 H350 H -0.04431 0.21448 0.38678
 C351 C -0.02944 0.18628 0.42110
 H352 H -0.04831 0.17124 0.42014
 N353 N -0.00364 0.22986 0.40306
 C354 C 0.03345 0.27970 0.33224
 H355 H 0.01884 0.29873 0.33091
 C356 C 0.05507 0.27670 0.31228
 H357 H 0.05722 0.29381 0.29582
 C358 C 0.04847 0.23452 0.35570
 H359 H 0.04561 0.21794 0.37244
 C360 C 0.07060 0.23082 0.33638
 H361 H 0.08467 0.21137 0.33850
 Zn362 Zn 0.00021 0.26424 0.37896
 N363 N 0.03061 0.25880 0.35342
 C364 C 0.03400 0.31410 0.39846
 N365 N 0.00900 0.29756 0.40189
 C366 C -0.00928 0.30274 0.42334
 C367 C -0.00250 0.32512 0.44267
 C368 C 0.04162 0.33673 0.41730
 C369 C -0.04242 0.25026 0.33864
 C370 C -0.06576 0.25588 0.32034
 C371 C -0.07166 0.30461 0.34163
 C372 C -0.04835 0.29796 0.35966
 N373 N -0.03414 0.27124 0.35772
 H374 H 0.04839 0.30940 0.38145
 H375 H -0.02882 0.28892 0.42575
 H376 H -0.01707 0.32846 0.45993
 H377 H 0.06151 0.34973 0.41398
 H378 H -0.03033 0.22948 0.33713
 H379 H -0.07164 0.23918 0.30487
 H380 H -0.08259 0.32606 0.34347
 H381 H -0.04113 0.31458 0.37462
 C382 C 0.07396 0.25195 0.31422
 C383 C -0.00768 0.18199 0.44165
 C384 C -0.08029 0.28364 0.32130
 C385 C 0.02352 0.34209 0.44012
 C386 C -0.01942 0.73077 0.07810
 H387 H -0.03829 0.74496 0.07519
 C388 C -0.01436 0.70751 0.05948
 H389 H -0.02979 0.70372 0.04257
 C390 C 0.02315 0.71828 0.10415
 H391 H 0.03792 0.72272 0.12138
 C392 C 0.02888 0.69454 0.08618
 H393 H 0.04800 0.68084 0.08986
 N394 N -0.00088 0.73561 0.10001
 C395 C -0.04913 0.77573 0.16762
 H396 H -0.03592 0.79577 0.17159
 C397 C -0.07312 0.76878 0.18445
 H398 H -0.07835 0.78366 0.20134
 C399 C -0.05825 0.73188 0.14084
 H400 H -0.05221 0.71727 0.12411
 C401 C -0.08259 0.72429 0.15691
 H402 H -0.09481 0.70372 0.15240
 Zn403 Zn -0.00963 0.76803 0.12385
 N404 N -0.04232 0.75746 0.14615
 C405 C -0.04366 0.81720 0.10308
 N406 N -0.01816 0.80225 0.10061
 C407 C 0.00125 0.81026 0.08042
 C408 C -0.00468 0.83416 0.06165
 C409 C -0.05046 0.84129 0.08477
 C410 C 0.02963 0.75566 0.16801
 C411 C 0.05319 0.76089 0.18615
 C412 C 0.06118 0.80961 0.16316
 C413 C 0.03749 0.80343 0.14544
 N414 N 0.02245 0.77667 0.14794
 H415 H -0.05893 0.81035 0.11910
 H416 H 0.02122 0.79774 0.07869
 H417 H 0.01095 0.83989 0.04553
 H418 H -0.07068 0.85307 0.08755
 H419 H 0.01707 0.73474 0.16982
 H420 H 0.05856 0.74380 0.20193
 H421 H 0.07321 0.83072 0.16016
 H422 H 0.03127 0.82003 0.12962
 C423 C -0.09043 0.74299 0.17892
 C424 C 0.01009 0.68903 0.06341
 C425 C 0.06932 0.78820 0.18394
 C426 C -0.03100 0.84984 0.06341
 C427 C 0.47792 0.17759 0.61266
 H428 H 0.46151 0.17781 0.62864
 C429 C 0.48111 0.15164 0.59676
 H430 H 0.46672 0.13226 0.60030
 C431 C 0.51690 0.20226 0.58883
 H432 H 0.53100 0.22200 0.58616
 C433 C 0.52037 0.17706 0.57200
 H434 H 0.53716 0.17750 0.55628
 N435 N 0.49552 0.20235 0.60827
 C436 C 0.45960 0.23165 0.68120
 H437 H 0.48048 0.23320 0.69177
 C438 C 0.43426 0.22842 0.69695
 H439 H 0.43618 0.22712 0.71953
 C440 C 0.43183 0.23199 0.63914
 H441 H 0.43114 0.23365 0.61654
 C442 C 0.40595 0.22906 0.65404
 H443 H 0.38561 0.22911 0.64242
 Zn444 Zn 0.49155 0.23728 0.63034
 N445 N 0.45797 0.23294 0.65280
 C446 C 0.48385 0.29978 0.61988
 N447 N 0.48617 0.27255 0.60730
 C448 C 0.48297 0.27029 0.57911
 C449 C 0.47795 0.29612 0.56241
 C450 C 0.47909 0.32628 0.60395
 C451 C 0.53225 0.21657 0.67006
 C452 C 0.55687 0.21742 0.68753
 C453 C 0.56826 0.26755 0.66894
 C454 C 0.54339 0.26573 0.65184
 N455 N 0.52572 0.24067 0.65299
 H456 H 0.48588 0.30093 0.64240
 H457 H 0.48375 0.24839 0.56947
 H458 H 0.47536 0.29359 0.54004
 H459 H 0.47832 0.34759 0.61466
 H460 H 0.51802 0.19674 0.67035
 H461 H 0.56089 0.19828 0.70151
 H462 H 0.58198 0.28775 0.66773
 H463 H 0.53838 0.28434 0.63761
 C464 C 0.40687 0.22682 0.68345
 C465 C 0.50242 0.15132 0.57599
 C466 C 0.57535 0.24319 0.68713
 C467 C 0.47588 0.32472 0.57469
 C468 C 0.52780 0.70139 0.89949
 H469 H 0.54670 0.71594 0.90273
 C470 C 0.52353 0.67564 0.91656
 H471 H 0.53937 0.67031 0.93285
 C472 C 0.48357 0.69137 0.87501
 H473 H 0.46763 0.69801 0.85934
 C474 C 0.47866 0.66517 0.89133
 H475 H 0.45885 0.65200 0.88805
 N476 N 0.50783 0.70886 0.87935
 C477 C 0.54819 0.76729 0.81574
 H478 H 0.53392 0.78658 0.81628
 C479 C 0.57067 0.76689 0.79639
 H480 H 0.57309 0.78588 0.78184
 C481 C 0.56119 0.71867 0.83355
 H482 H 0.55729 0.69988 0.84799
 C483 C 0.58397 0.71734 0.81459
 H484 H 0.59758 0.69747 0.81484
 Zn485 Zn 0.51341 0.74615 0.85968
 N486 N 0.54412 0.74358 0.83402
 C487 C 0.54723 0.79305 0.88442
 N488 N 0.52240 0.77593 0.88640
 C489 C 0.50387 0.77897 0.90807
 C490 C 0.50955 0.80057 0.92842
 C491 C 0.55385 0.81482 0.90438
 C492 C 0.47227 0.73979 0.81657
 C493 C 0.44739 0.74636 0.80064
 C494 C 0.43760 0.78760 0.83150
 C495 C 0.46283 0.78042 0.84668
 N496 N 0.47930 0.75653 0.83930
 H497 H 0.56195 0.78996 0.86732
 H498 H 0.48454 0.76466 0.90940
 H499 H 0.49441 0.80283 0.94541
 H500 H 0.57331 0.82874 0.90191
 H501 H 0.48602 0.72122 0.81090
 H502 H 0.44197 0.73259 0.78276
 H503 H 0.42491 0.80681 0.83761
 H504 H 0.46918 0.79405 0.86428
 C505 C 0.58922 0.74181 0.79586
 C506 C 0.49867 0.65721 0.91261
 C507 C 0.42949 0.77028 0.80827
 C508 C 0.53485 0.81881 0.92676
 C509 C 0.14073 0.23887 0.25561
 C510 C 0.14463 0.23096 0.28371
 N511 N 0.17136 0.21817 0.29245
 C512 C 0.19369 0.21285 0.27376
 C513 C 0.18809 0.22091 0.24546
 N514 N 0.16229 0.23361 0.23736
 N515 N 0.11528 0.25141 0.24685
 C516 C 0.09351 0.25629 0.26519
 C517 C 0.09730 0.24803 0.29361
 N518 N 0.12297 0.23546 0.30210
 H519 H 0.18546 0.21210 0.29461
 H520 H 0.07330 0.26585 0.25750
 C521 C 0.66051 0.73707 0.74049
 C522 C 0.64696 0.71066 0.75129
 N523 N 0.65709 0.68306 0.74444
 C524 C 0.68044 0.68067 0.72750
 C525 C 0.69451 0.70709 0.71703
 N526 N 0.68387 0.73473 0.72359
 N527 N 0.65048 0.76464 0.74759
 C528 C 0.62749 0.76703 0.76502
 C529 C 0.61377 0.74056 0.77599
 N530 N 0.62408 0.71301 0.76871
 H531 H 0.68795 0.65838 0.72221
 H532 H 0.62063 0.78941 0.77071
 C533 C 0.35312 0.78797 0.76037
 C534 C 0.37838 0.77746 0.74776
 N535 N 0.37834 0.77256 0.71986
 C536 C 0.35404 0.77744 0.70398
 C537 C 0.32845 0.78739 0.71659
 N538 N 0.32875 0.79256 0.74458
 N539 N 0.35327 0.79299 0.78826
 C540 C 0.37755 0.78794 0.80418
 C541 C 0.40288 0.77712 0.79167
 N542 N 0.40251 0.77214 0.76366
 H543 H 0.35457 0.77345 0.68175
 H544 H 0.37679 0.79165 0.82643
 C545 C -0.14435 0.30323 0.25918
 C546 C -0.14094 0.27355 0.26981
 N547 N -0.15798 0.25074 0.25966
 C548 C -0.17802 0.25623 0.23904
 C549 C -0.18081 0.28578 0.22762
 N550 N -0.16411 0.30865 0.23840
 N551 N -0.12753 0.32609 0.26947
 C552 C -0.10728 0.32063 0.28988
 C553 C -0.10344 0.29081 0.30041
 N554 N -0.12050 0.26799 0.28997
 H555 H -0.19160 0.23775 0.23153
 H556 H -0.09377 0.33927 0.29712
 C557 C -0.16361 0.72101 0.22915
 C558 C -0.13856 0.73461 0.24079
 N559 N -0.13747 0.74008 0.26861
 C560 C -0.16033 0.73256 0.28535
 C561 C -0.18563 0.71901 0.27378
 N562 N -0.18649 0.71362 0.24581
 N563 N -0.16455 0.71510 0.20143
 C564 C -0.14147 0.72197 0.18479
 C565 C -0.11617 0.73550 0.19634
 N566 N -0.11553 0.74165 0.22417
 H567 H -0.15858 0.73665 0.30753
 H568 H -0.14306 0.71725 0.16272
 C569 C 0.33041 0.21837 0.73261
 C570 C 0.35708 0.22773 0.74441
 N571 N 0.35868 0.23411 0.77201
 C572 C 0.33470 0.23178 0.78836
 C573 C 0.30768 0.22290 0.77655
 N574 N 0.30638 0.21623 0.74884
 N575 N 0.32899 0.21141 0.70514
 C576 C 0.35299 0.21365 0.68878
 C577 C 0.37986 0.22361 0.70035
 N578 N 0.38101 0.23017 0.72809
 H579 H 0.33673 0.23665 0.81038
 H580 H 0.35093 0.20720 0.66719
 C581 C 0.65048 0.25038 0.73971
 C582 C 0.63596 0.27633 0.72981
 N583 N 0.64609 0.30424 0.73696
 C584 C 0.67029 0.30742 0.75340
 C585 C 0.68523 0.28148 0.76309
 N586 N 0.67468 0.25350 0.75612
 N587 N 0.64040 0.22250 0.73237
 C588 C 0.61638 0.21934 0.71564
 C589 C 0.60157 0.24532 0.70568
 N590 N 0.61201 0.27321 0.71310
 H591 H 0.67776 0.32995 0.75891
 H592 H 0.60943 0.19676 0.70981
 C593 C 0.14107 0.80273 0.23935
 C594 C 0.13198 0.77330 0.23228
 N595 N 0.14607 0.74900 0.24354
 C596 C 0.16870 0.75279 0.26182
 C597 C 0.17763 0.78225 0.26938
 N598 N 0.16363 0.80656 0.25767
 N599 N 0.12681 0.82698 0.22822
 C600 C 0.10386 0.82318 0.21027
 C601 C 0.09459 0.79366 0.20305
 N602 N 0.10905 0.76947 0.21444
 H603 H 0.17960 0.73302 0.27043
 H604 H 0.09268 0.84306 0.20233
 C605 C 0.27276 0.16471 0.22063
 C606 C 0.26109 0.13722 0.23110
 N607 N 0.23280 0.13566 0.23892
 C608 C 0.21564 0.16049 0.23696
 C609 C 0.22734 0.18833 0.22691
 N610 N 0.25570 0.18958 0.21878
 N611 N 0.30093 0.16606 0.21239
 C612 C 0.31811 0.14120 0.21437
 C613 C 0.30666 0.11356 0.22531
 N614 N 0.27822 0.11246 0.23320
 H615 H 0.19305 0.15849 0.24300
 H616 H 0.34024 0.14311 0.20704
 C617 C 0.76551 0.65100 0.73957
 C618 C 0.78265 0.63917 0.71852
 N619 N 0.77942 0.64964 0.69179
 C620 C 0.75959 0.67133 0.68507
 C621 C 0.74187 0.68291 0.70605
 N622 N 0.74557 0.67246 0.73289
 N623 N 0.76893 0.64071 0.76633
 C624 C 0.78852 0.61878 0.77300
 C625 C 0.80542 0.60624 0.75183
 N626 N 0.80204 0.61715 0.72509
 H627 H 0.75741 0.67893 0.66353
 H628 H 0.79092 0.61162 0.79464
 C629 C 0.76458 0.34519 0.79531
 C630 C 0.77173 0.35589 0.76842
 N631 N 0.75881 0.34302 0.74577
 C632 C 0.73901 0.31990 0.74885
 C633 C 0.73172 0.30914 0.77582
 N634 N 0.74487 0.32215 0.79840
 N635 N 0.77744 0.35800 0.81795
 C636 C 0.79732 0.38099 0.81497
 C637 C 0.80486 0.39175 0.78801
 N638 N 0.79159 0.37888 0.76538
 H639 H 0.72931 0.30977 0.73047
 H640 H 0.80660 0.39104 0.83355
 C641 C 0.24968 -0.15680 0.25550
 C642 C 0.26110 -0.14133 0.27860
 N643 N 0.25208 -0.14919 0.30470
 C644 C 0.23228 -0.17207 0.30880
 C645 C 0.22099 -0.18800 0.28574
 N646 N 0.22990 -0.17971 0.25954
 N647 N 0.25891 -0.14899 0.22944
 C648 C 0.27900 -0.12632 0.22539
 C649 C 0.29051 -0.11059 0.24853
 N650 N 0.28115 -0.11876 0.27460
 H651 H 0.22537 -0.17775 0.32983
 H652 H 0.28621 -0.12115 0.20437
 C653 C 0.23611 -0.16218 0.70542
 C654 C 0.24761 -0.13516 0.71635
 N655 N 0.27671 -0.13242 0.72115
 C656 C 0.29487 -0.15562 0.71579
 C657 C 0.28343 -0.18309 0.70536
 N658 N 0.25419 -0.18547 0.70025
 N659 N 0.20702 -0.16478 0.70042
 C660 C 0.18887 -0.14154 0.70581
 C661 C 0.20028 -0.11440 0.71689
 N662 N 0.22951 -0.11205 0.72193
 H663 H 0.31800 -0.15256 0.71957
 H664 H 0.16574 -0.14452 0.70194
 C665 C 0.73244 0.33559 0.21888
 C666 C 0.74328 0.36555 0.21769
 N667 N 0.77180 0.37086 0.21185
 C668 C 0.79005 0.34748 0.20738
 C669 C 0.77934 0.31745 0.20895
 N670 N 0.75067 0.31224 0.21454
 N671 N 0.70397 0.33032 0.22486
 C672 C 0.68577 0.35365 0.22968
 C673 C 0.69651 0.38382 0.22856
 N674 N 0.72517 0.38885 0.22262
 H675 H 0.81271 0.35219 0.20273
 H676 H 0.66337 0.34852 0.23496
 C677 C 0.72561 0.65956 0.28328
 C678 C 0.73786 0.63365 0.27196
 N679 N 0.76685 0.63338 0.26676
 C680 C 0.78421 0.65787 0.27242
 C681 C 0.77203 0.68401 0.28374
 N682 N 0.74287 0.68405 0.28883
 N683 N 0.69673 0.65966 0.28899
 C684 C 0.67953 0.63488 0.28410
 C685 C 0.69170 0.60870 0.27290
 N686 N 0.72067 0.60893 0.26692
 H687 H 0.80735 0.65673 0.26864
 H688 H 0.65654 0.63576 0.28867
 C689 C 0.24998 0.14778 0.76958
 C690 C 0.22077 0.15037 0.77725
 N691 N 0.21195 0.17600 0.78970
 C692 C 0.23108 0.19913 0.79501
 C693 C 0.26063 0.19649 0.78783
 N694 N 0.26916 0.17072 0.77511
 N695 N 0.25874 0.12233 0.75680
 C696 C 0.23958 0.09926 0.75134
 C697 C 0.21024 0.10159 0.75920
 N698 N 0.20168 0.12724 0.77208
 H699 H 0.22320 0.21945 0.80451
 H700 H 0.24740 0.07907 0.74158
 C701 C 0.22645 0.24308 0.15346
 C702 C 0.22179 0.27432 0.15559
 N703 N 0.21329 0.28562 0.18031
 C704 C 0.20913 0.26704 0.20304
 C705 C 0.21357 0.23559 0.20099
 N706 N 0.22224 0.22451 0.17609
 N707 N 0.23514 0.23179 0.12881
 C708 C 0.23957 0.25038 0.10614
 C709 C 0.23509 0.28183 0.10816
 N710 N 0.22612 0.29290 0.13297
 H711 H 0.20283 0.27679 0.22259
 H712 H 0.24605 0.24054 0.08670
 C713 C 0.72168 0.73970 0.62919
 C714 C 0.73232 0.76903 0.63478
 N715 N 0.73857 0.77673 0.66156
 C716 C 0.73468 0.75636 0.68303
 C717 C 0.72397 0.72706 0.67747
 N718 N 0.71763 0.71943 0.65062
 N719 N 0.71564 0.73194 0.60242
 C720 C 0.71983 0.75214 0.58089
 C721 C 0.73049 0.78162 0.58632
 N722 N 0.73632 0.78929 0.61332
 H723 H 0.73990 0.76284 0.70423
 H724 H 0.71432 0.74535 0.55985
 C725 C 0.77990 0.77571 0.33636
 C726 C 0.76805 0.76175 0.36037
 N727 N 0.76385 0.73119 0.36130
 C728 C 0.77085 0.71391 0.33923
 C729 C 0.78242 0.72779 0.31489
 N730 N 0.78669 0.75852 0.31420
 N731 N 0.78463 0.80622 0.33568
 C732 C 0.77822 0.82340 0.35803
 C733 C 0.76634 0.80949 0.38218
 N734 N 0.76143 0.77889 0.38259
 H735 H 0.76769 0.68954 0.34076
 H736 H 0.78213 0.84769 0.35683
 C737 C 0.26365 0.24928 -0.13725
 C738 C 0.27165 0.28005 -0.14015
 N739 N 0.28200 0.29082 -0.16496
 C740 C 0.28497 0.27214 -0.18697
 C741 C 0.27761 0.24109 -0.18402
 N742 N 0.26694 0.23050 -0.15911
 N743 N 0.25307 0.23859 -0.11251
 C744 C 0.25019 0.25727 -0.09046
 C745 C 0.25853 0.28811 -0.09312
 N746 N 0.26913 0.29863 -0.11806
 H747 H 0.29314 0.28134 -0.20656
 H748 H 0.24218 0.24789 -0.07087
 C749 C 0.69903 0.23607 -0.15720
 C750 C 0.72739 0.22647 -0.15084
 N751 N 0.74956 0.23467 -0.16803
 C752 C 0.74474 0.25251 -0.19111
 C753 C 0.71647 0.26287 -0.19726
 N754 N 0.69417 0.25405 -0.18020
 N755 N 0.67701 0.22823 -0.13967
 C756 C 0.68205 0.21130 -0.11600
 C757 C 0.71057 0.20179 -0.10934
 N758 N 0.73247 0.20973 -0.12718
 H759 H 0.76284 0.25896 -0.20436
 H760 H 0.66404 0.20624 -0.10225
 C761 C 0.23505 0.74079 0.34575
 C762 C 0.21065 0.72929 0.36004
 N763 N 0.18351 0.73667 0.35087
 C764 C 0.17965 0.75509 0.32798
 C765 C 0.20406 0.76667 0.31350
 N766 N 0.23124 0.75918 0.32290
 N767 N 0.26217 0.73347 0.35499
 C768 C 0.26605 0.71528 0.37804
 C769 C 0.24163 0.70383 0.39266
 N770 N 0.21448 0.71113 0.38302
 H771 H 0.15780 0.76098 0.32134
 H772 H 0.28797 0.70952 0.38450
 C773 C 0.27579 0.75809 0.63452
 C774 C 0.28204 0.72729 0.63923
 N775 N 0.29322 0.71799 0.66430
 C776 C 0.29895 0.73820 0.68477
 C777 C 0.29367 0.76930 0.67990
 N778 N 0.28183 0.77840 0.65486
 N779 N 0.26462 0.76728 0.60937
 C780 C 0.25956 0.74710 0.58865
 C781 C 0.26627 0.71624 0.59312
 N782 N 0.27733 0.70723 0.61848
 H783 H 0.30794 0.73017 0.70456
 H784 H 0.25121 0.75529 0.56867
 C785 C 0.76661 0.25868 0.14180
 C786 C 0.78772 0.23746 0.13510
 N787 N 0.81230 0.23525 0.15098
 C788 C 0.81657 0.25295 0.17364
 C789 C 0.79488 0.27343 0.18132
 N790 N 0.77058 0.27600 0.16472
 N791 N 0.74240 0.26149 0.12536
 C792 C 0.73827 0.24382 0.10260
 C793 C 0.75908 0.22198 0.09624
 N794 N 0.78336 0.21944 0.11274
 H795 H 0.83679 0.25107 0.18533
 H796 H 0.71861 0.24623 0.09007
 C797 C 0.46154 0.40234 0.52191
 C798 C 0.47156 0.37513 0.51116
 N799 N 0.47664 0.37327 0.48339
 C800 C 0.47235 0.39751 0.46583
 C801 C 0.46268 0.42515 0.47649
 N802 N 0.45736 0.42667 0.50443
 N803 N 0.45602 0.40394 0.54964
 C804 C 0.46027 0.37962 0.56720
 C805 C 0.47076 0.35223 0.55661
 N806 N 0.47593 0.35091 0.52864
 H807 H 0.47624 0.39508 0.44374
 H808 H 0.45498 0.38178 0.58899
 C809 C -0.04934 0.91980 0.00344
 C810 C -0.02057 0.91212 0.01033
 N811 N 0.00180 0.92694 -0.00261
 C812 C -0.00331 0.94901 -0.02232
 C813 C -0.03217 0.95660 -0.02960
 N814 N -0.05449 0.94179 -0.01626
 N815 N -0.07169 0.90485 0.01628
 C816 C -0.06661 0.88255 0.03577
 C817 C -0.03773 0.87469 0.04288
 N818 N -0.01546 0.88982 0.02974
 H819 H 0.01498 0.96066 -0.03205
 H820 H -0.08503 0.87071 0.04500
 C821 C 0.02450 0.61562 0.00963
 C822 C 0.03229 0.61358 0.03804
 N823 N 0.04352 0.58734 0.04863
 C824 C 0.04714 0.56293 0.03210
 C825 C 0.03911 0.56477 0.00359
 N826 N 0.02809 0.59132 -0.00684
 N827 N 0.01287 0.64163 -0.00093
 C828 C 0.00833 0.66569 0.01572
 C829 C 0.01569 0.66369 0.04438
 N830 N 0.02780 0.63761 0.05472
 H831 H 0.05551 0.54211 0.04126
 H832 H -0.00074 0.68619 0.00657
 C833 C 0.51105 0.07512 0.52437
 C834 C 0.51208 0.10478 0.51300
 N835 N 0.51515 0.10908 0.48500
 C836 C 0.51717 0.08504 0.46780
 C837 C 0.51636 0.05532 0.47912
 N838 N 0.51347 0.05109 0.50725
 N839 N 0.50727 0.07084 0.55229
 C840 C 0.50437 0.09487 0.56938
 C841 C 0.50560 0.12464 0.55812
 N842 N 0.50959 0.12878 0.53010
 H843 H 0.51962 0.08897 0.44554
 H844 H 0.50149 0.09079 0.59158
 C845 C -0.01494 0.10890 0.50032
 C846 C -0.02447 0.10565 0.47254
 N847 N -0.03590 0.07866 0.46427
 C848 C -0.03840 0.05475 0.48259
 C849 C -0.02927 0.05798 0.51062
 N850 N -0.01765 0.08514 0.51869
 N851 N -0.00319 0.13578 0.50850
 C852 C -0.00045 0.15961 0.49013
 C853 C -0.01006 0.15653 0.46223
 N854 N -0.02198 0.12950 0.45423
 H855 H -0.04729 0.03340 0.47533
 H856 H 0.00867 0.18086 0.49740
 C857 C 0.48082 0.58364 0.96860
 C858 C 0.49461 0.61028 0.97791
 N859 N 0.50143 0.61302 1.00543
 C860 C 0.49510 0.59027 1.02413
 C861 C 0.48146 0.56337 1.01491
 N862 N 0.47464 0.56083 0.98722
 N863 N 0.47352 0.58117 0.94114
 C864 C 0.47919 0.60426 0.92256
 C865 C 0.49292 0.63109 0.93181
 N866 N 0.50042 0.63325 0.95936
 H867 H 0.50035 0.59328 1.04603
 H868 H 0.47324 0.60156 0.90078
 C869 C 0.55041 0.88714 0.98640
 C870 C 0.52194 0.87800 0.97919
 N871 N 0.49898 0.89171 0.99096
 C872 C 0.50322 0.91424 1.00963
 C873 C 0.53175 0.92349 1.01693
 N874 N 0.55467 0.90962 1.00501
 N875 N 0.57335 0.87358 0.97449
 C876 C 0.56914 0.85141 0.95545
 C877 C 0.54059 0.84237 0.94785
 N878 N 0.51770 0.85589 0.96020
 H879 H 0.48458 0.92516 1.01840
 H880 H 0.58793 0.84080 0.94666
 C881 C 0.04585 0.40503 0.50305
 C882 C 0.01664 0.39783 0.49690
 N883 N -0.00483 0.41086 0.51152
 C884 C 0.00162 0.43074 0.53214
 C885 C 0.03093 0.43787 0.53857
 N886 N 0.05231 0.42479 0.52366
 N887 N 0.06730 0.39199 0.48847
 C888 C 0.06090 0.37203 0.46792
 C889 C 0.03158 0.36467 0.46157
 N890 N 0.01021 0.37784 0.47645
 H891 H -0.01592 0.44108 0.54324
 H892 H 0.07862 0.36154 0.45725
 C893 C 0.39231 0.48765 0.48471
 C894 C 0.39727 0.51809 0.47662
 N895 N 0.42265 0.52629 0.46418
 C896 C 0.44316 0.50532 0.45894
 C897 C 0.43793 0.47451 0.46603
 N898 N 0.41262 0.46655 0.47912
 N899 N 0.36688 0.47957 0.49722
 C900 C 0.34605 0.50050 0.50179
 C901 C 0.35064 0.53095 0.49308
 N902 N 0.37634 0.53886 0.48077
 H903 H 0.46320 0.51255 0.44896
 H904 H 0.32576 0.49317 0.51121
 C905 C 0.90408 0.02511 -0.01969
 C906 C 0.88647 0.03192 -0.04312
 N907 N 0.89376 0.02136 -0.06851
 C908 C 0.91798 0.00438 -0.07155
 C909 C 0.93575 -0.00245 -0.04811
 N910 N 0.92816 0.00803 -0.02266
 N911 N 0.89687 0.03576 0.00567
 C912 C 0.87291 0.05309 0.00868
 C913 C 0.85515 0.06012 -0.01476
 N914 N 0.86241 0.04907 -0.04012
 H915 H 0.92324 -0.00391 -0.09198
 H916 H 0.86756 0.06080 0.02928
 C917 C 0.59762 0.00304 0.04499
 C918 C 0.60383 0.01119 0.01716
 N919 N 0.58762 -0.00083 -0.00388
 C920 C 0.56559 -0.02094 0.00161
 C921 C 0.55953 -0.02968 0.02947
 N922 N 0.57569 -0.01718 0.05053
 N923 N 0.61394 0.01510 0.06598
 C924 C 0.63619 0.03501 0.06042
 C925 C 0.64257 0.04323 0.03248
 N926 N 0.62609 0.03091 0.01159
 H927 H 0.55291 -0.03002 -0.01560
 H928 H 0.64907 0.04373 0.07764
 C929 C 0.09480 0.50596 0.52471
 C930 C 0.11108 0.51701 0.54742
 N931 N 0.10328 0.50900 0.57387
 C932 C 0.07984 0.49043 0.57867
 C933 C 0.06326 0.47939 0.55594
 N934 N 0.07136 0.48754 0.52947
 N935 N 0.10280 0.51364 0.49825
 C936 C 0.12651 0.53180 0.49343
 C937 C 0.14304 0.54288 0.51614
 N938 N 0.13468 0.53524 0.54265
 H939 H 0.07452 0.48400 0.59997
 H940 H 0.13207 0.53782 0.47209
 C941 C 0.11336 0.50650 0.00033
 C942 C 0.10846 0.47590 -0.00611
 N943 N 0.08143 0.46640 -0.01412
 C944 C 0.05908 0.48621 -0.01632
 C945 C 0.06395 0.51711 -0.01055
 N946 N 0.09111 0.52642 -0.00213
 N947 N 0.14042 0.51586 0.00849
 C948 C 0.16284 0.49602 0.01046
 C949 C 0.15809 0.46534 0.00371
 N950 N 0.13085 0.45618 -0.00444
 H951 H 0.03772 0.47797 -0.02265
 H952 H 0.18424 0.50432 0.01659
 C953 C 0.59035 0.99916 0.48124
 C954 C 0.58733 0.96874 0.47345
 N955 N 0.56144 0.95854 0.46298
 C956 C 0.53855 0.97754 0.45951
 C957 C 0.54171 1.00834 0.46648
 N958 N 0.56760 1.01822 0.47756
 N959 N 0.61624 1.00935 0.49168
 C960 C 0.63933 0.99053 0.49463
 C961 C 0.63655 0.96001 0.48658
 N962 N 0.61043 0.94998 0.47614
 H963 H 0.51813 0.96874 0.45125
 H964 H 0.65981 0.99963 0.50243
 C965 C 0.89285 1.00543 0.51809
 C966 C 0.89546 0.97425 0.52394
 N967 N 0.92158 0.96310 0.53249
 C968 C 0.94530 0.98175 0.53532
 C969 C 0.94286 1.01301 0.52917
 N970 N 0.91651 1.02402 0.52077
 N971 N 0.86679 1.01660 0.50948
 C972 C 0.84320 0.99794 0.50610
 C973 C 0.84576 0.96647 0.51138
 N974 N 0.87195 0.95555 0.52047
 H975 H 0.96599 0.97224 0.54175
 H976 H 0.82269 1.00773 0.49959
 C977 C 0.42162 0.47470 0.03443
 C978 C 0.39670 0.48822 0.02270
 N979 N 0.39746 0.51815 0.01539
 C980 C 0.42211 0.53518 0.01908
 C981 C 0.44735 0.52167 0.03050
 N982 N 0.44629 0.49165 0.03806
 N983 N 0.42080 0.44478 0.04183
 C984 C 0.39612 0.42775 0.03815
 C985 C 0.37097 0.44121 0.02647
 N986 N 0.37209 0.47123 0.01894
 H987 H 0.42192 0.55908 0.01336
 H988 H 0.39641 0.40387 0.04388
 C989 C 0.51879 0.45352 0.40843
 C990 C 0.50467 0.46361 0.38383
 N991 N 0.47562 0.46878 0.38400
 C992 C 0.46003 0.46456 0.40778
 C993 C 0.47414 0.45497 0.43265
 N994 N 0.50329 0.44951 0.43227
 N995 N 0.54784 0.44834 0.40819
 C996 C 0.56349 0.45282 0.38446
 C997 C 0.54949 0.46316 0.35971
 N998 N 0.52030 0.46832 0.36019
 H999 H 0.43686 0.46876 0.40737
 H1000 H 0.58672 0.44905 0.38519
 C1001 C 0.01118 -0.03656 0.89172
 C1002 C 0.01693 -0.00733 0.88076
 N1003 N 0.00448 0.01700 0.89245
 C1004 C -0.01357 0.01343 0.91464
 C1005 C -0.01951 -0.01586 0.92570
 N1006 N -0.00684 -0.04018 0.91388
 N1007 N 0.02356 -0.06087 0.87994
 C1008 C 0.04158 -0.05731 0.85771
 C1009 C 0.04762 -0.02797 0.84664
 N1010 N 0.03488 -0.00375 0.85857
 H1011 H -0.02300 0.03323 0.92374
 H1012 H 0.05049 -0.07731 0.84854
 C1013 C -0.00312 0.01786 0.60172
 C1014 C 0.02649 0.02534 0.59857
 N1015 N 0.03634 0.03502 0.57322
 C1016 C 0.01787 0.03770 0.55087
 C1017 C -0.01193 0.03050 0.55396
 N1018 N -0.02159 0.02061 0.57946
 N1019 N -0.01295 0.00797 0.62700
 C1020 C 0.00554 0.00500 0.64930
 C1021 C 0.03535 0.01229 0.64626
 N1022 N 0.04496 0.02248 0.62083
 H1023 H 0.02640 0.04510 0.53083
 H1024 H -0.00308 -0.00259 0.66924
 C1025 C 0.49862 0.51822 0.10577
 C1026 C 0.52898 0.52070 0.10328
 N1027 N 0.54072 0.52807 0.07810
 C1028 C 0.52343 0.53347 0.05531
 C1029 C 0.49291 0.53180 0.05781
 N1030 N 0.48130 0.52385 0.08307
 N1031 N 0.48694 0.51087 0.13100
 C1032 C 0.50425 0.50598 0.15392
 C1033 C 0.53476 0.50874 0.15162
 N1034 N 0.54624 0.51607 0.12617
 H1035 H 0.53336 0.53923 0.03546
 H1036 H 0.49416 0.50079 0.17380
 C1037 C 0.49757 -0.01853 0.09399
 C1038 C 0.48632 -0.04455 0.10770
 N1039 N 0.49265 -0.07242 0.09815
 C1040 C 0.50947 -0.07549 0.07524
 C1041 C 0.52025 -0.04945 0.06093
 N1042 N 0.51417 -0.02153 0.07096
 N1043 N 0.49125 0.00933 0.10362
 C1044 C 0.47409 0.01239 0.12634
 C1045 C 0.46249 -0.01366 0.14004
 N1046 N 0.46901 -0.04153 0.13021
 H1047 H 0.51430 -0.09801 0.06820
 H1048 H 0.46901 0.03495 0.13310
 C1049 C 0.99952 0.48992 0.61966
 C1050 C 0.98904 0.46332 0.63297
 N1051 N 0.99509 0.43590 0.62221
 C1052 C 1.01112 0.43388 0.59865
 C1053 C 1.02153 0.46051 0.58511
 N1054 N 1.01545 0.48795 0.59610
 N1055 N 0.99347 0.51732 0.63043
 C1056 C 0.97747 0.51937 0.65402
 C1057 C 0.96692 0.49273 0.66756
 N1058 N 0.97298 0.46533 0.65645
 H1059 H 1.01589 0.41175 0.59061
 H1060 H 0.97258 0.54162 0.66166
 C1061 C 1.01226 0.52168 0.91540
 C1062 C 0.98286 0.52935 0.91771
 N1063 N 0.97303 0.53992 0.94225
 C1064 C 0.99132 0.54327 0.96461
 C1065 C 1.02093 0.53590 0.96233
 N1066 N 1.03056 0.52517 0.93763
 N1067 N 1.02203 0.51077 0.89099
 C1068 C 1.00369 0.50704 0.86873
 C1069 C 0.97412 0.51466 0.87091
 N1070 N 0.96455 0.52581 0.89546
 H1071 H 0.98280 0.55127 0.98406
 H1072 H 1.01227 0.49869 0.84945
 C1073 C 0.49298 0.01140 0.39018
 C1074 C 0.46409 0.02123 0.39054
 N1075 N 0.45366 0.03380 0.41399
 C1076 C 0.47084 0.03693 0.43717
 C1077 C 0.49984 0.02697 0.43697
 N1078 N 0.51014 0.01451 0.41328
 N1079 N 0.50343 -0.00110 0.36674
 C1080 C 0.48625 -0.00442 0.34360
 C1081 C 0.45708 0.00516 0.34385
 N1082 N 0.44690 0.01795 0.36746
 H1083 H 0.46189 0.04675 0.45567
 H1084 H 0.49556 -0.01390 0.32514
   
