data_POSCAR
  _audit_creation_date              2014-09-24
  _audit_creation_method            'ToBaCCo'
  _symmetry_space_group_name_H-M    'P1'
  _symmetry_Int_Tables_number       1
  _symmetry_cell_setting            triclinic
  loop_
  _symmetry_equiv_pos_as_xyz
 x,y,z
_cell_length_a 43.5693
_cell_length_b 44.2288
_cell_length_c 9.2545
_cell_angle_alpha 92.029500
_cell_angle_beta 89.028800
_cell_angle_gamma 90.279100
loop_
  _atom_site_label
  _atom_site_type_symbol
  _atom_site_fract_x
  _atom_site_fract_y
  _atom_site_fract_z
O1 O 0.22028 0.28221 0.19978
 O2 O 0.27910 0.22307 0.15441
 O3 O 0.21896 0.22368 0.16516
 O4 O 0.28016 0.28154 0.19329
 O5 O 0.27989 0.27738 0.43045
 O6 O 0.22016 0.21869 0.40152
 O7 O 0.28003 0.21876 0.39128
 O8 O 0.22007 0.27707 0.43628
 Cu9 Cu 0.24959 0.25306 0.15454
 Cu10 Cu 0.25015 0.24746 0.43836
 C11 C 0.20991 0.28951 0.32525
 C12 C 0.28984 0.21108 0.26522
 C13 C 0.20896 0.21152 0.27933
 C14 C 0.29039 0.28929 0.31703
 O15 O 0.78071 0.27731 0.36100
 O16 O 0.71911 0.22012 0.35538
 O17 O 0.77910 0.21849 0.34667
 O18 O 0.72069 0.27879 0.36537
 O19 O 0.72121 0.27955 0.12688
 O20 O 0.77817 0.21855 0.10817
 O21 O 0.71846 0.22089 0.11715
 O22 O 0.78109 0.27729 0.12239
 Cu23 Cu 0.74997 0.24865 0.38077
 Cu24 Cu 0.74973 0.24914 0.09503
 C25 C 0.79163 0.28680 0.24293
 C26 C 0.70799 0.21099 0.23544
 C27 C 0.78857 0.20832 0.22379
 C28 C 0.71086 0.28923 0.24872
 O29 O 0.72072 0.71634 0.81195
 O30 O 0.78001 0.77469 0.87705
 O31 O 0.72062 0.77457 0.85627
 O32 O 0.78031 0.71617 0.83912
 O33 O 0.78578 0.72174 0.60399
 O34 O 0.72512 0.77982 0.62036
 O35 O 0.78481 0.78025 0.64151
 O36 O 0.72610 0.72147 0.57637
 Cu37 Cu 0.74992 0.74481 0.86961
 Cu38 Cu 0.75599 0.75134 0.58690
 C39 C 0.71310 0.70919 0.68321
 C40 C 0.79254 0.78737 0.77001
 C41 C 0.71252 0.78698 0.74158
 C42 C 0.79354 0.70921 0.71926
 O43 O 0.27476 0.71729 0.50917
 O44 O 0.21606 0.77713 0.51767
 O45 O 0.27575 0.77574 0.49203
 O46 O 0.21506 0.71859 0.52649
 O47 O 0.21816 0.72218 0.76435
 O48 O 0.27891 0.78024 0.72980
 O49 O 0.21906 0.78090 0.75560
 O50 O 0.27810 0.72166 0.74681
 Cu51 Cu 0.24511 0.74681 0.48770
 Cu52 Cu 0.24887 0.75167 0.77283
 C53 C 0.28661 0.70949 0.62652
 C54 C 0.20735 0.78896 0.63842
 C55 C 0.28783 0.78758 0.60427
 C56 C 0.20609 0.71070 0.65068
 C57 C 0.99663 0.08020 0.10967
 C58 C 1.02405 0.06740 0.05465
 C59 C 1.02428 0.03689 0.00771
 C60 C 0.99805 0.01843 0.02374
 C61 C 0.97119 0.03158 0.08482
 C62 C 0.97009 0.06240 0.12521
 C63 C 0.99855 -0.01431 -0.02388
 C64 C 0.97143 -0.02918 -0.06873
 C65 C 0.97147 -0.05993 -0.11059
 C66 C 0.99919 -0.07594 -0.11216
 C67 C 1.02672 -0.06145 -0.07321
 C68 C 1.02606 -0.03103 -0.02502
 H69 H 0.99569 0.10423 0.13479
 H70 H 1.04510 0.02777 -0.04162
 H71 H 0.95085 0.01798 0.10206
 H72 H 0.95004 -0.01694 -0.07305
 H73 H 0.99917 -0.09996 -0.13840
 H74 H 1.04718 -0.02061 0.01174
 C75 C 0.49721 0.57864 0.62512
 C76 C 0.52519 0.56430 0.59056
 C77 C 0.52516 0.53362 0.54664
 C78 C 0.49780 0.51642 0.54679
 C79 C 0.47021 0.53113 0.58842
 C80 C 0.46958 0.56219 0.62420
 C81 C 0.49789 0.48342 0.50308
 C82 C 0.47141 0.46938 0.44558
 C83 C 0.47086 0.43840 0.40844
 C84 C 0.49758 0.42129 0.42321
 C85 C 0.52466 0.43492 0.47429
 C86 C 0.52434 0.46560 0.51845
 H87 H 0.49693 0.60280 0.64720
 H88 H 0.54670 0.52338 0.51238
 H89 H 0.44887 0.51860 0.59402
 H90 H 0.45092 0.48238 0.42818
 H91 H 0.49700 0.39715 0.40040
 H92 H 0.54491 0.47533 0.56492
 C93 C 0.00460 0.42173 0.09354
 C94 C -0.02296 0.43442 0.04837
 C95 C -0.02340 0.46492 0.01176
 C96 C 0.00267 0.48363 0.03021
 C97 C 0.02964 0.47055 0.08219
 C98 C 0.03105 0.43966 0.11018
 C99 C 0.00192 0.51649 -0.00555
 C100 C 0.02915 0.53203 -0.04260
 C101 C 0.02892 0.56292 -0.07122
 C102 C 0.00086 0.57836 -0.06953
 C103 C -0.02678 0.56318 -0.03970
 C104 C -0.02593 0.53270 -0.00274
 H105 H 0.00570 0.39769 0.10978
 H106 H -0.04430 0.47378 -0.03146
 H107 H 0.04991 0.48420 0.10170
 H108 H 0.05085 0.52030 -0.05079
 H109 H 0.00058 0.60243 -0.08591
 H110 H -0.04723 0.52191 0.02852
 C111 C 0.50250 0.92127 0.60969
 C112 C 0.47470 0.93704 0.62271
 C113 C 0.47430 0.96802 0.59579
 C114 C 0.50073 0.98290 0.54280
 C115 C 0.52807 0.96606 0.52419
 C116 C 0.52943 0.93578 0.56346
 C117 C 0.49976 1.01566 0.50607
 C118 C 0.52653 1.03372 0.51021
 C119 C 0.52600 1.06407 0.47139
 C120 C 0.49791 1.07728 0.43758
 C121 C 0.47076 1.06005 0.43593
 C122 C 0.47203 1.02927 0.46683
 H123 H 0.50311 0.89758 0.63479
 H124 H 0.45304 0.98015 0.61433
 H125 H 0.54860 0.97630 0.47997
 H126 H 0.54806 1.02444 0.54415
 H127 H 0.49706 1.10126 0.41919
 H128 H 0.45110 1.01611 0.45934
 C129 C 1.18496 0.19062 0.27398
 C130 C 1.16995 0.18211 0.14648
 C131 C 1.14185 0.16309 0.14574
 C132 C 1.13407 0.14645 0.01954
 C133 C 1.10731 0.12878 0.01530
 C134 C 1.08772 0.12764 0.13752
 C135 C 1.09520 0.14483 0.26229
 C136 C 1.12190 0.16236 0.26667
 C137 C 1.05886 0.10982 0.13886
 C138 C 1.05259 0.08556 0.04286
 H139 H 1.17900 0.18952 0.04376
 H140 H 1.14874 0.14712 -0.07601
 H141 H 1.10187 0.11661 -0.08443
 H142 H 1.08024 0.14480 0.35700
 H143 H 1.12634 0.17582 0.36394
 H144 H 1.04267 0.11483 0.22644
 H145 H 1.17735 0.18129 0.37510
 H146 H 1.07004 0.07790 -0.03433
 C147 C 0.68841 0.68701 0.65598
 C148 C 0.67089 0.67518 0.76852
 C149 C 0.64317 0.65615 0.74598
 C150 C 0.62146 0.65458 0.85914
 C151 C 0.59447 0.63781 0.84146
 C152 C 0.58878 0.62180 0.71105
 C153 C 0.61069 0.62294 0.59795
 C154 C 0.63769 0.63986 0.61544
 C155 C 0.55937 0.60516 0.69609
 C156 C 0.55467 0.58108 0.59697
 H157 H 0.67626 0.68217 0.87866
 H158 H 0.62514 0.66679 0.96100
 H159 H 0.57795 0.63737 0.93021
 H160 H 0.60686 0.61135 0.49488
 H161 H 0.65412 0.63994 0.52661
 H162 H 0.54120 0.61099 0.77322
 H163 H 0.68266 0.68182 0.54464
 H164 H 0.57375 0.57250 0.53156
 C165 C -0.18275 0.30854 0.24815
 C166 C -0.16823 0.31885 0.12344
 C167 C -0.14030 0.33812 0.12635
 C168 C -0.13260 0.35494 0.00496
 C169 C -0.10593 0.37271 0.00260
 C170 C -0.08632 0.37386 0.12196
 C171 C -0.09377 0.35662 0.24208
 C172 C -0.12040 0.33896 0.24459
 C173 C -0.05748 0.39174 0.12433
 C174 C -0.05145 0.41612 0.03590
 H175 H -0.17778 0.31266 0.01913
 H176 H -0.14725 0.35428 -0.08854
 H177 H -0.10055 0.38493 -0.09379
 H178 H -0.07883 0.35671 0.33454
 H179 H -0.12480 0.32550 0.33806
 H180 H -0.04113 0.38666 0.20681
 H181 H -0.17490 0.31603 0.35378
 H182 H -0.06909 0.42381 -0.03483
 C183 C 0.31312 0.80920 0.58530
 C184 C 0.32806 0.82369 0.70065
 C185 C 0.35647 0.84150 0.67843
 C186 C 0.36337 0.86604 0.77285
 C187 C 0.39039 0.88284 0.75350
 C188 C 0.41113 0.87500 0.64026
 C189 C 0.40450 0.85002 0.54844
 C190 C 0.37748 0.83349 0.56686
 C191 C 0.44037 0.89134 0.61656
 C192 C 0.44576 0.92135 0.66164
 H193 H 0.31868 0.82209 0.80932
 H194 H 0.34775 0.87228 0.86110
 H195 H 0.39520 0.90147 0.82872
 H196 H 0.42030 0.84323 0.46175
 H197 H 0.37347 0.81402 0.49544
 H198 H 0.45761 0.87983 0.54962
 H199 H 0.32086 0.81305 0.47564
 H200 H 0.42740 0.93450 0.71242
 C201 C -0.18268 0.68819 -0.28668
 C202 C -0.17280 0.67370 -0.16391
 C203 C -0.14506 0.65449 -0.16200
 C204 C -0.14178 0.63432 -0.04961
 C205 C -0.11509 0.61713 -0.03892
 C206 C -0.09102 0.61983 -0.14106
 C207 C -0.09431 0.64012 -0.25300
 C208 C -0.12095 0.65728 -0.26358
 C209 C -0.06169 0.60316 -0.13254
 C210 C -0.05673 0.57889 -0.04295
 H211 H -0.18583 0.67664 -0.06364
 H212 H -0.15984 0.63209 0.03125
 H213 H -0.11333 0.60242 0.05128
 H214 H -0.07596 0.64305 -0.33175
 H215 H -0.12204 0.67331 -0.34879
 H216 H -0.04333 0.60976 -0.20534
 H217 H -0.17140 0.68356 -0.39006
 H218 H -0.07562 0.56962 0.01868
 C219 C 0.31449 1.18863 0.24571
 C220 C 0.32666 1.17370 0.36189
 C221 C 0.35387 1.15377 0.34905
 C222 C 0.35871 1.13279 0.45645
 C223 C 0.38507 1.11488 0.45317
 C224 C 0.40730 1.11773 0.34237
 C225 C 0.40252 1.13879 0.23525
 C226 C 0.37606 1.15659 0.23803
 C227 C 0.43667 1.10100 0.34219
 C228 C 0.44043 1.07401 0.41370
 H229 H 0.31570 1.17666 0.46738
 H230 H 0.34224 1.13056 0.54448
 H231 H 0.38839 1.09965 0.54042
 H232 H 0.41955 1.14181 0.15025
 H233 H 0.37370 1.17319 0.15599
 H234 H 0.45589 1.11027 0.28245
 H235 H 0.32344 1.18422 0.13731
 H236 H 0.42037 1.06250 0.45564
 C237 C 1.18282 -0.18830 -0.35876
 C238 C 1.17115 -0.17541 -0.22929
 C239 C 1.14386 -0.15552 -0.22065
 C240 C 1.13882 -0.13710 -0.09589
 C241 C 1.11256 -0.11907 -0.08124
 C242 C 1.09071 -0.11924 -0.19151
 C243 C 1.09569 -0.13785 -0.31558
 C244 C 1.12188 -0.15581 -0.33018
 C245 C 1.06184 -0.10170 -0.17968
 C246 C 1.05629 -0.07790 -0.07931
 H247 H 1.18240 -0.18024 -0.12919
 H248 H 1.15516 -0.13683 -0.00891
 H249 H 1.10928 -0.10569 0.01772
 H250 H 1.07904 -0.13877 -0.40132
 H251 H 1.12423 -0.17047 -0.42563
 H252 H 1.04445 -0.10714 -0.25880
 H253 H 1.17338 -0.18232 -0.46119
 H254 H 1.07456 -0.06957 -0.01072
 C255 C 0.68653 0.31213 0.25171
 C256 C 0.67130 0.32172 0.37899
 C257 C 0.64344 0.34083 0.37976
 C258 C 0.63501 0.35753 0.50600
 C259 C 0.60821 0.37493 0.51112
 C260 C 0.58923 0.37573 0.38979
 C261 C 0.59743 0.35862 0.26477
 C262 C 0.62418 0.34139 0.25944
 C263 C 0.56019 0.39296 0.38995
 C264 C 0.55345 0.41746 0.48440
 H265 H 0.67986 0.31471 0.48176
 H266 H 0.64913 0.35700 0.60112
 H267 H 0.60218 0.38708 0.61095
 H268 H 0.58297 0.35845 0.17065
 H269 H 0.62911 0.32795 0.16199
 H270 H 0.54424 0.38725 0.30467
 H271 H 0.67964 0.32058 0.14895
 H272 H 0.57072 0.42582 0.55856
 C273 C 0.81657 -0.18973 -0.20344
 C274 C 0.83354 -0.17745 -0.31659
 C275 C 0.85983 -0.15663 -0.29394
 C276 C 0.88297 -0.15570 -0.40094
 C277 C 0.90876 -0.13721 -0.38145
 C278 C 0.91162 -0.11875 -0.25603
 C279 C 0.88812 -0.11912 -0.14993
 C280 C 0.86242 -0.13784 -0.16888
 C281 C 0.94015 -0.10096 -0.23547
 C282 C 0.94201 -0.07522 -0.14423
 H283 H 0.82893 -0.18527 -0.42642
 H284 H 0.88142 -0.16984 -0.49857
 H285 H 0.92662 -0.13745 -0.46436
 H286 H 0.88981 -0.10564 -0.05054
 H287 H 0.84468 -0.13744 -0.08566
 H288 H 0.96031 -0.10814 -0.29735
 H289 H 0.82208 -0.18391 -0.09231
 H290 H 0.92118 -0.06546 -0.09788
 C291 C 0.31489 0.31209 0.33146
 C292 C 0.33152 0.32237 0.21261
 C293 C 0.35809 0.34312 0.22833
 C294 C 0.38228 0.34118 0.12651
 C295 C 0.40849 0.35926 0.14337
 C296 C 0.41071 0.38012 0.26064
 C297 C 0.38604 0.38270 0.36035
 C298 C 0.35997 0.36447 0.34407
 C299 C 0.43971 0.39716 0.28210
 C300 C 0.44146 0.42414 0.36485
 H301 H 0.32664 0.31285 0.10593
 H302 H 0.38128 0.32499 0.03607
 H303 H 0.42723 0.35672 0.06552
 H304 H 0.38711 0.39804 0.45377
 H305 H 0.34141 0.36708 0.42261
 H306 H 0.46036 0.38808 0.23063
 H307 H 0.32125 0.31938 0.43978
 H308 H 0.42047 0.43547 0.39940
 C309 C 0.18230 0.68968 -0.34067
 C310 C 0.17040 0.67949 -0.20997
 C311 C 0.14290 0.65977 -0.20311
 C312 C 0.13895 0.64059 -0.08668
 C313 C 0.11277 0.62231 -0.07596
 C314 C 0.08988 0.62314 -0.18128
 C315 C 0.09362 0.64270 -0.29622
 C316 C 0.11985 0.66079 -0.30743
 C317 C 0.06106 0.60549 -0.16992
 C318 C 0.05852 0.57882 -0.09426
 H319 H 0.18174 0.68572 -0.10984
 H320 H 0.15615 0.63981 -0.00371
 H321 H 0.11020 0.60823 0.01672
 H322 H 0.07610 0.64414 -0.37735
 H323 H 0.12152 0.67611 -0.39582
 H324 H 0.04142 0.61336 -0.22781
 H325 H 0.17253 0.68126 -0.44116
 H326 H 0.07902 0.56871 -0.05296
 C327 C 0.68368 1.19036 0.23194
 C328 C 0.67049 1.17893 0.35775
 C329 C 0.64275 1.15939 0.35907
 C330 C 0.63628 1.14256 0.48179
 C331 C 0.60971 1.12478 0.48998
 C332 C 0.58895 1.12357 0.37510
 C333 C 0.59523 1.14070 0.25326
 C334 C 0.62180 1.15841 0.24496
 C335 C 0.56004 1.10582 0.38027
 C336 C 0.55497 1.08173 0.47161
 H337 H 0.68097 1.18443 0.46082
 H338 H 0.65176 1.14332 0.57230
 H339 H 0.60528 1.11270 0.58776
 H340 H 0.57939 1.14054 0.16423
 H341 H 0.62528 1.17182 0.15064
 H342 H 0.54266 1.11095 0.30264
 H343 H 0.67478 1.18350 0.12734
 H344 H 0.57350 1.07392 0.53689
 C345 C 0.18527 0.31203 0.34288
 C346 C 0.17472 0.32789 0.22601
 C347 C 0.14744 0.34776 0.23321
 C348 C 0.14395 0.36906 0.12600
 C349 C 0.11742 0.38661 0.12177
 C350 C 0.09365 0.38303 0.22459
 C351 C 0.09716 0.36179 0.33209
 C352 C 0.12381 0.34439 0.33701
 C353 C 0.06406 0.39908 0.21476
 C354 C 0.06107 0.42638 0.14515
 H355 H 0.18696 0.32556 0.12332
 H356 H 0.16158 0.37174 0.04339
 H357 H 0.11517 0.40202 0.03440
 H358 H 0.07895 0.35825 0.41094
 H359 H 0.12520 0.32758 0.41866
 H360 H 0.04402 0.38896 0.26444
 H361 H 0.17508 0.31572 0.44943
 H362 H 0.08158 0.43861 0.11381
 C363 C 0.68777 0.80942 0.75183
 C364 C 0.67512 0.82216 0.63068
 C365 C 0.64783 0.84211 0.63872
 C366 C 0.64142 0.86013 0.52117
 C367 C 0.61521 0.87832 0.52247
 C368 C 0.59480 0.87881 0.64201
 C369 C 0.60115 0.86065 0.75897
 C370 C 0.62724 0.84247 0.75757
 C371 C 0.56601 0.89651 0.64721
 C372 C 0.55906 0.91949 0.55325
 H373 H 0.68556 0.81726 0.52542
 H374 H 0.65659 0.85990 0.42713
 H375 H 0.61079 0.89126 0.42815
 H376 H 0.58566 0.86027 0.85181
 H377 H 0.63056 0.82827 0.84862
 H378 H 0.54979 0.89177 0.73359
 H379 H 0.67894 0.81535 0.85880
 H380 H 0.57626 0.92729 0.47752
 C381 C 0.81221 0.18476 0.21235
 C382 C 0.82878 0.17575 0.33098
 C383 C 0.85531 0.15505 0.31521
 C384 C 0.87946 0.15805 0.41305
 C385 C 0.90589 0.14043 0.39443
 C386 C 0.90843 0.11902 0.27926
 C387 C 0.88372 0.11522 0.18428
 C388 C 0.85740 0.13296 0.20240
 C389 C 0.93782 0.10280 0.25463
 C390 C 0.94032 0.07576 0.17267
 H391 H 0.82417 0.18653 0.43605
 H392 H 0.87830 0.17476 0.50145
 H393 H 0.92459 0.14382 0.46911
 H394 H 0.88492 0.09933 0.09291
 H395 H 0.83886 0.12944 0.12724
 H396 H 0.95817 0.11265 0.30299
 H397 H 0.81826 0.17605 0.10496
 H398 H 0.91964 0.06369 0.14165
 C399 C 0.31083 0.68641 0.62113
 C400 C 0.32723 0.67929 0.74366
 C401 C 0.35393 0.65866 0.73944
 C402 C 0.37602 0.66198 0.84752
 C403 C 0.40231 0.64395 0.84353
 C404 C 0.40679 0.62184 0.73285
 C405 C 0.38429 0.61797 0.62637
 C406 C 0.35807 0.63610 0.63000
 C407 C 0.43598 0.60476 0.72593
 C408 C 0.43948 0.57707 0.65022
 H409 H 0.32183 0.69120 0.84516
 H410 H 0.37332 0.67910 0.93333
 H411 H 0.41936 0.64751 0.92633
 H412 H 0.38718 0.60166 0.53743
 H413 H 0.34123 0.63236 0.54666
 H414 H 0.45526 0.61435 0.78407
 H415 H 0.31702 0.67638 0.51649
 H416 H 0.41935 0.56553 0.60871
   
