data_POSCAR
  _audit_creation_date              2014-09-24
  _audit_creation_method            'ToBaCCo'
  _symmetry_space_group_name_H-M    'P1'
  _symmetry_Int_Tables_number       1
  _symmetry_cell_setting            triclinic
  loop_
  _symmetry_equiv_pos_as_xyz
 x,y,z
_cell_length_a 38.1953
_cell_length_b 38.7530
_cell_length_c 36.0204
_cell_angle_alpha 88.507500
_cell_angle_beta 90.100100
_cell_angle_gamma 79.897300
loop_
  _atom_site_label
  _atom_site_type_symbol
  _atom_site_fract_x
  _atom_site_fract_y
  _atom_site_fract_z
C1 C 1.21682 0.23456 0.15411
 C2 C 1.23346 0.26235 0.13362
 C3 C 1.25595 0.27879 0.15635
 C4 C 1.25711 0.26585 0.19757
 C5 C 1.24820 0.20976 0.17138
 C6 C 1.26912 0.22580 0.19568
 C7 C 1.19690 0.25357 0.18613
 C8 C 1.21781 0.27071 0.20940
 H9 H 1.23041 0.26738 0.10395
 H10 H 1.27383 0.27885 0.21576
 H11 H 1.25331 0.18182 0.16660
 H12 H 1.16852 0.25503 0.18989
 C13 C 0.70287 -0.27546 0.19920
 C14 C 0.73211 -0.26363 0.17594
 C15 C 0.75509 -0.24583 0.19619
 C16 C 0.74583 -0.24313 0.23795
 C17 C 0.72196 -0.29787 0.23092
 C18 C 0.74558 -0.28119 0.25145
 C19 C 0.68401 -0.24229 0.21714
 C20 C 0.70647 -0.22512 0.23858
 H21 H 0.73398 -0.26678 0.14617
 H22 H 0.76333 -0.22950 0.25438
 H23 H 0.71872 -0.32475 0.23645
 H24 H 0.65559 -0.23314 0.21471
 C25 C 0.75389 0.20141 -0.34132
 C26 C 0.77357 0.22315 -0.36354
 C27 C 0.78705 0.24925 -0.34348
 C28 C 0.77722 0.24870 -0.30185
 C29 C 0.77781 0.18614 -0.31140
 C30 C 0.79068 0.21084 -0.28853
 C31 C 0.72536 0.22530 -0.32381
 C32 C 0.73656 0.25122 -0.30173
 H33 H 0.77814 0.21961 -0.39302
 H34 H 0.78721 0.26842 -0.28505
 H35 H 0.78213 0.15834 -0.30487
 H36 H 0.69769 0.22221 -0.32519
 C37 C 1.20977 -0.24622 -0.30715
 C38 C 1.23044 -0.22288 -0.32949
 C39 C 1.25345 -0.20637 -0.30809
 C40 C 1.25187 -0.21509 -0.26612
 C41 C 1.23794 -0.27176 -0.28558
 C42 C 1.26049 -0.25524 -0.26318
 C43 C 1.18982 -0.22241 -0.27819
 C44 C 1.21238 -0.20591 -0.25559
 H45 H 1.22890 -0.22030 -0.35951
 H46 H 1.26944 -0.20222 -0.24859
 H47 H 1.23839 -0.29975 -0.28536
 H48 H 1.16165 -0.22098 -0.27356
 C49 C 0.22514 0.20766 0.84686
 C50 C 0.24217 0.23322 0.86477
 C51 C 0.26011 0.25369 0.84026
 C52 C 0.25620 0.24486 0.79887
 C53 C 0.19955 0.22816 0.81822
 C54 C 0.21582 0.24847 0.79247
 C55 C 0.25398 0.18572 0.82410
 C56 C 0.27012 0.20525 0.79762
 H57 H 0.24267 0.23548 0.89471
 H58 H 0.26944 0.26049 0.77920
 H59 H 0.17132 0.22739 0.81765
 H60 H 0.26014 0.15734 0.82632
 C61 C 0.73239 0.72785 0.81152
 C62 C 0.75471 0.74339 0.83664
 C63 C 0.77813 0.76336 0.81915
 C64 C 0.77473 0.76391 0.77649
 C65 C 0.71300 0.75685 0.78911
 C66 C 0.73499 0.77686 0.76877
 C67 C 0.75665 0.70659 0.78651
 C68 C 0.78016 0.72514 0.76667
 H69 H 0.75358 0.74050 0.86665
 H70 H 0.79243 0.77896 0.76105
 H71 H 0.68445 0.76051 0.78534
 H72 H 0.75790 0.67853 0.78483
 C73 C 0.72169 0.25198 0.34885
 C74 C 0.75103 0.26692 0.36772
 C75 C 0.77160 0.28407 0.34273
 C76 C 0.75947 0.28362 0.30167
 C77 C 0.69995 0.28302 0.32790
 C78 C 0.71953 0.29941 0.30168
 C79 C 0.74056 0.22809 0.31947
 C80 C 0.76065 0.24476 0.29374
 H81 H 0.75566 0.26486 0.39745
 H82 H 0.77519 0.29676 0.28177
 H83 H 0.67136 0.29024 0.33081
 H84 H 0.73726 0.20103 0.31837
 C85 C 0.25174 0.71438 0.29480
 C86 C 0.27648 0.72746 0.32228
 C87 C 0.29764 0.75048 0.30615
 C88 C 0.29189 0.75595 0.26372
 C89 C 0.23055 0.74720 0.27619
 C90 C 0.25189 0.76945 0.25886
 C91 C 0.27604 0.69696 0.26469
 C92 C 0.29763 0.71912 0.24771
 H93 H 0.27647 0.72131 0.35180
 H94 H 0.30846 0.77313 0.24978
 H95 H 0.20197 0.75064 0.27284
 H96 H 0.27793 0.66951 0.25862
 N97 N 1.02848 -0.05336 0.06517
 N98 N 1.05913 -0.07370 0.07399
 N99 N 0.94920 -0.04206 0.08817
 N100 N 0.92771 -0.05298 0.11261
 N101 N 0.95756 -0.06514 0.06209
 N102 N 0.94170 -0.09256 0.06832
 N103 N 1.01931 -0.03013 0.09094
 N104 N 1.04324 -0.03397 0.11774
 C105 C 1.06811 -0.06077 0.10668
 C106 C 0.92296 -0.08425 0.09987
 N107 N 0.91522 0.05765 0.06571
 N108 N 0.88709 0.08007 0.07612
 N109 N 0.99384 0.04417 0.09324
 N110 N 1.02049 0.04973 0.11435
 N111 N 0.98535 0.06984 0.06862
 N112 N 1.00609 0.09343 0.07209
 N113 N 0.92321 0.03205 0.09058
 N114 N 0.90031 0.03620 0.11818
 Mn115 Mn 0.97142 0.00097 0.09100
 C116 C 0.87765 0.06589 0.10844
 C117 C 1.02759 0.08070 0.10094
 N118 N 0.95978 -0.06017 -0.01895
 N119 N 0.94516 -0.08692 -0.02941
 N120 N 1.02307 -0.02199 -0.03925
 N121 N 1.04516 -0.02546 -0.06745
 N122 N 1.03046 -0.04908 -0.01598
 N123 N 1.05773 -0.07179 -0.02845
 N124 N 0.95301 -0.03416 -0.04351
 N125 N 0.93365 -0.04236 -0.07113
 Mn126 Mn 0.99418 -0.05745 0.02314
 C127 C 0.92865 -0.07509 -0.06187
 C128 C 1.06706 -0.05609 -0.06019
 N129 N 0.98661 0.07502 -0.01014
 N130 N 1.00339 0.10185 -0.01233
 N131 N 0.92679 0.03945 -0.04029
 N132 N 0.90356 0.04394 -0.06777
 N133 N 0.91724 0.06250 -0.01450
 N134 N 0.88774 0.08408 -0.02440
 N135 N 0.99732 0.05242 -0.03596
 N136 N 1.02227 0.06319 -0.05641
 Mn137 Mn 0.95085 0.06643 0.02746
 Mn138 Mn 0.97515 0.00901 -0.03997
 Cl139 Cl 0.97289 0.00456 0.02537
 C140 C 1.02554 0.09413 -0.04112
 C141 C 0.87921 0.07146 -0.05730
 N142 N 1.07322 0.53016 0.54711
 N143 N 1.09132 0.55488 0.55600
 N144 N 1.05875 0.45558 0.56672
 N145 N 1.06867 0.43105 0.59263
 N146 N 1.08460 0.45662 0.54290
 N147 N 1.11272 0.43292 0.55203
 N148 N 1.04733 0.52898 0.57072
 N149 N 1.04715 0.55263 0.59645
 C150 C 1.07460 0.56869 0.58678
 C151 C 1.10221 0.41683 0.58274
 N152 N 0.95989 0.46090 0.53304
 N153 N 0.93766 0.43866 0.53832
 N154 N 0.97185 0.53179 0.56431
 N155 N 0.95959 0.55384 0.59053
 N156 N 0.94902 0.53429 0.53664
 N157 N 0.92051 0.55778 0.54343
 N158 N 0.98281 0.45829 0.56064
 N159 N 0.97674 0.43436 0.58539
 Mn160 Mn 1.01518 0.49360 0.56590
 C161 C 0.94888 0.42197 0.57086
 C162 C 0.92775 0.57014 0.57680
 N163 N 1.08958 0.46257 0.46273
 N164 N 1.11873 0.44017 0.45473
 N165 N 1.05589 0.53856 0.43952
 N166 N 1.05961 0.56573 0.41780
 N167 N 1.07786 0.53596 0.46794
 N168 N 1.09659 0.56143 0.46682
 N169 N 1.06649 0.46517 0.43523
 N170 N 1.07928 0.44460 0.40803
 Mn171 Mn 1.08163 0.49625 0.50517
 C172 C 1.11167 0.42881 0.42073
 C173 C 1.08497 0.57975 0.43552
 N174 N 0.95374 0.54013 0.45664
 N175 N 0.92645 0.56522 0.44839
 N176 N 0.99018 0.46782 0.42887
 N177 N 0.98757 0.44584 0.40184
 N178 N 0.96499 0.46667 0.45343
 N179 N 0.94498 0.44383 0.44417
 N180 N 0.97992 0.54139 0.43332
 N181 N 0.97132 0.56753 0.40891
 Mn182 Mn 0.95664 0.50051 0.49488
 Mn183 Mn 1.02315 0.50323 0.43382
 Cl184 Cl 1.01916 0.49827 0.49991
 C185 C 0.93802 0.58231 0.41878
 C186 C 0.95945 0.43077 0.41217
 N187 N 0.46212 -0.02288 0.56812
 N188 N 0.44037 -0.02829 0.59520
 N189 N 0.53946 -0.04672 0.54343
 N190 N 0.56600 -0.07095 0.55605
 N191 N 0.53476 -0.01968 0.56530
 N192 N 0.55769 -0.02477 0.59306
 N193 N 0.46610 -0.04886 0.54485
 N194 N 0.44710 -0.07271 0.55568
 C195 C 0.43097 -0.05924 0.58697
 C196 C 0.57746 -0.05638 0.58667
 N197 N 0.53390 -0.02905 0.43523
 N198 N 0.55930 -0.03662 0.41038
 N199 N 0.46585 -0.05452 0.46371
 N200 N 0.44869 -0.08070 0.45728
 N201 N 0.46091 -0.03144 0.43589
 N202 N 0.44022 -0.04106 0.41026
 N203 N 0.53904 -0.05173 0.46335
 N204 N 0.56822 -0.07504 0.45850
 Mn205 Mn 0.50255 -0.05092 0.50385
 C206 C 0.58071 -0.06513 0.42549
 C207 C 0.43243 -0.07150 0.42402
 N208 N 0.51852 0.05560 0.55675
 N209 N 0.54568 0.06299 0.57613
 N210 N 0.43842 0.07427 0.53196
 N211 N 0.41273 0.10044 0.54010
 N212 N 0.44529 0.05217 0.56037
 N213 N 0.42426 0.06263 0.58836
 N214 N 0.51048 0.07838 0.52920
 N215 N 0.53127 0.10200 0.52908
 Mn216 Mn 0.49030 0.01630 0.56290
 C217 C 0.55303 0.09221 0.55827
 C218 C 0.40370 0.09239 0.57510
 N219 N 0.44427 0.04431 0.42761
 N220 N 0.42353 0.05317 0.39815
 N221 N 0.51050 0.07260 0.45112
 N222 N 0.53300 0.09441 0.44642
 N223 N 0.51721 0.04676 0.42793
 N224 N 0.54425 0.05061 0.40627
 N225 N 0.43773 0.06870 0.45259
 N226 N 0.41218 0.09413 0.44115
 Mn227 Mn 0.48916 0.00755 0.43131
 Mn228 Mn 0.47403 0.07354 0.49115
 Cl229 Cl 0.48886 0.01145 0.49731
 C230 C 0.40314 0.08394 0.40756
 C231 C 0.55376 0.08048 0.41840
 N232 N 0.57414 0.51458 0.00778
 N233 N 0.59839 0.53466 0.01127
 N234 N 0.55264 0.44897 0.04542
 N235 N 0.56375 0.43191 0.07666
 N236 N 0.57706 0.44235 0.01960
 N237 N 0.60506 0.42048 0.03263
 N238 N 0.54975 0.52125 0.03350
 N239 N 0.55687 0.54614 0.05527
 C240 C 0.58711 0.55447 0.04062
 C241 C 0.59615 0.41372 0.06798
 N242 N 0.45083 0.46003 0.01883
 N243 N 0.42702 0.44090 0.02921
 N244 N 0.47292 0.53190 0.03305
 N245 N 0.46375 0.55805 0.05587
 N246 N 0.44841 0.53233 0.00731
 N247 N 0.42192 0.55863 0.01211
 N248 N 0.47519 0.45937 0.04478
 N249 N 0.46842 0.43973 0.07360
 Mn250 Mn 0.51257 0.49037 0.03954
 C251 C 0.43844 0.42813 0.06328
 C252 C 0.43216 0.57481 0.04202
 N253 N 0.57742 0.43311 -0.05966
 N254 N 0.60564 0.40924 -0.06652
 N255 N 0.54984 0.50591 -0.09686
 N256 N 0.55282 0.52975 -0.12301
 N257 N 0.57406 0.50562 -0.07093
 N258 N 0.59409 0.52929 -0.07854
 N259 N 0.55308 0.43348 -0.08560
 N260 N 0.56438 0.40993 -0.11075
 Mn261 Mn 0.57582 0.47383 -0.02582
 C262 C 0.59688 0.39454 -0.09801
 C263 C 0.58060 0.54402 -0.11113
 N264 N 0.44899 0.52332 -0.07205
 N265 N 0.42421 0.54977 -0.08335
 N266 N 0.47603 0.44405 -0.08576
 N267 N 0.46898 0.41966 -0.10815
 N268 N 0.45121 0.45076 -0.06044
 N269 N 0.42677 0.43096 -0.06483
 N270 N 0.47360 0.51620 -0.09747
 N271 N 0.46618 0.53732 -0.12677
 Mn272 Mn 0.44955 0.49167 -0.02659
 Mn273 Mn 0.51313 0.47479 -0.09169
 Cl274 Cl 0.51276 0.48250 -0.02605
 C275 C 0.43565 0.55840 -0.11739
 C276 C 0.43846 0.41142 -0.09441
 C277 C 1.19285 0.21589 0.13170
 C278 C 1.17988 0.18775 0.14838
 C279 C 1.15159 0.17122 0.13301
 N280 N 1.14162 0.14402 0.15220
 N281 N 1.11494 0.12928 0.14019
 C282 C 1.09709 0.14129 0.10855
 N283 N 1.10712 0.16847 0.08918
 N284 N 1.13392 0.18324 0.10121
 C285 C 1.06714 0.12550 0.09560
 C286 C 1.05695 0.09693 0.11432
 H287 H 1.18989 0.17825 0.17562
 H288 H 1.05303 0.13641 0.07068
 H289 H 1.18251 0.22677 0.10508
 H290 H 1.07146 0.08538 0.13875
 C291 C 1.18696 0.73548 0.66865
 C292 C 1.16491 0.71355 0.68339
 C293 C 1.14938 0.68947 0.65997
 N294 N 1.12684 0.66953 0.67492
 N295 N 1.11414 0.64631 0.65444
 C296 C 1.12369 0.64202 0.61829
 N297 N 1.14617 0.66198 0.60335
 N298 N 1.15874 0.68529 0.62378
 C299 C 1.11118 0.61544 0.59572
 C300 C 1.08542 0.59671 0.60836
 H301 H 1.16069 0.71256 0.71310
 H302 H 1.12271 0.61037 0.56852
 H303 H 1.19115 0.73609 0.63891
 H304 H 1.07271 0.60266 0.63485
 C305 C 0.74066 0.17503 0.63828
 C306 C 0.71490 0.18345 0.61050
 C307 C 0.69014 0.15959 0.60218
 N308 N 0.66177 0.17099 0.57976
 N309 N 0.63686 0.15138 0.57522
 C310 C 0.63918 0.11971 0.59308
 N311 N 0.66784 0.10802 0.61511
 N312 N 0.69279 0.12768 0.61968
 C313 C 0.61079 0.09877 0.58903
 C314 C 0.58107 0.11184 0.56742
 H315 H 0.70903 0.21003 0.59916
 H316 H 0.61352 0.07304 0.60232
 H317 H 0.74593 0.14811 0.64876
 H318 H 0.57918 0.13728 0.55364
 C319 C 0.67769 0.70616 0.17818
 C320 C 0.68971 0.67861 0.15475
 C321 C 0.66527 0.65858 0.13688
 N322 N 0.67758 0.63543 0.11035
 N323 N 0.65596 0.61673 0.09425
 C324 C 0.62123 0.62031 0.10420
 N325 N 0.60893 0.64335 0.13089
 N326 N 0.63053 0.66222 0.14686
 C327 C 0.59746 0.59900 0.08716
 C328 C 0.60804 0.57895 0.05633
 H329 H 0.71790 0.67154 0.14930
 H330 H 0.57155 0.59875 0.09924
 H331 H 0.64950 0.71278 0.18391
 H332 H 0.63341 0.58034 0.04352
 C333 C 0.78143 -0.23114 0.17751
 C334 C 0.80255 -0.20951 0.19358
 C335 C 0.82709 -0.19198 0.17125
 N336 N 0.84215 -0.16644 0.18648
 N337 N 0.86322 -0.14932 0.16639
 C338 C 0.87022 -0.15712 0.13028
 N339 N 0.85556 -0.18302 0.11514
 N340 N 0.83432 -0.20005 0.13521
 C341 C 0.89266 -0.13730 0.10764
 C342 C 0.90160 -0.10636 0.12048
 H343 H 0.79984 -0.20317 0.22257
 H344 H 0.90101 -0.14630 0.08030
 H345 H 0.78441 -0.23570 0.14803
 H346 H 0.89168 -0.09691 0.14717
 C347 C 0.80679 0.27185 0.63843
 C348 C 0.82426 0.29563 0.65620
 C349 C 0.84467 0.31839 0.63499
 N350 N 0.86779 0.33530 0.65277
 N351 N 0.88647 0.35581 0.63385
 C352 C 0.88259 0.36034 0.59642
 N353 N 0.85926 0.34368 0.57869
 N354 N 0.84077 0.32299 0.59758
 C355 C 0.90247 0.38352 0.57520
 C356 C 0.93081 0.39652 0.59069
 H357 H 0.82461 0.29683 0.68613
 H358 H 0.89461 0.39048 0.54669
 H359 H 0.80945 0.26990 0.60856
 H360 H 0.93975 0.38837 0.61862
 C361 C 0.27655 -0.18727 0.67373
 C362 C 0.30149 -0.17039 0.69067
 C363 C 0.32636 -0.15392 0.66763
 N364 N 0.34400 -0.12978 0.68201
 N365 N 0.36598 -0.11459 0.66090
 C366 C 0.37135 -0.12321 0.62472
 N367 N 0.35411 -0.14768 0.61056
 N368 N 0.33200 -0.16264 0.63155
 C369 C 0.39525 -0.10657 0.60076
 C370 C 0.40763 -0.07645 0.61091
 H371 H 0.30265 -0.16851 0.72052
 H372 H 0.40215 -0.11756 0.57384
 H373 H 0.27514 -0.18597 0.64364
 H374 H 0.39943 -0.06447 0.63705
 C375 C 0.27614 0.30203 0.14005
 C376 C 0.30337 0.31552 0.15759
 C377 C 0.32522 0.33721 0.13653
 N378 N 0.35448 0.34652 0.15223
 N379 N 0.37467 0.36534 0.13288
 C380 C 0.36629 0.37555 0.09708
 N381 N 0.33699 0.36640 0.08155
 N382 N 0.31692 0.34760 0.10081
 C383 C 0.38779 0.39639 0.07471
 C384 C 0.41920 0.40619 0.08709
 H385 H 0.31026 0.30886 0.18632
 H386 H 0.37818 0.40442 0.04694
 H387 H 0.27134 0.30853 0.11082
 H388 H 0.42952 0.39820 0.11459
 C389 C 0.80745 0.20241 -0.25399
 C390 C 0.81762 0.16784 -0.24103
 C391 C 0.82511 0.15778 -0.20197
 N392 N 0.82684 0.12371 -0.19154
 N393 N 0.83304 0.11333 -0.15637
 C394 C 0.83770 0.13660 -0.13010
 N395 N 0.83593 0.17084 -0.14046
 N396 N 0.82943 0.18135 -0.17579
 C397 C 0.84830 0.12405 -0.09212
 C398 C 0.85133 0.08858 -0.08266
 H399 H 0.81782 0.14628 -0.25945
 H400 H 0.85942 0.14129 -0.07399
 H401 H 0.81039 0.22359 -0.23586
 H402 H 0.84069 0.07151 -0.10136
 C403 C 0.76617 0.70039 0.28024
 C404 C 0.79494 0.71133 0.29756
 C405 C 0.81653 0.68850 0.32566
 N406 N 0.85113 0.69102 0.33138
 N407 N 0.87125 0.66915 0.35527
 C408 C 0.85740 0.64418 0.37464
 N409 N 0.82264 0.64215 0.36946
 N410 N 0.80264 0.66375 0.34532
 C411 C 0.87948 0.61872 0.39997
 C412 C 0.91646 0.61153 0.39758
 H413 H 0.80403 0.73497 0.28823
 H414 H 0.86615 0.60292 0.41860
 H415 H 0.76065 0.67467 0.28803
 H416 H 0.92978 0.62555 0.37716
 C417 C 0.29571 0.20461 0.21662
 C418 C 0.31059 0.21437 0.24917
 C419 C 0.33142 0.18704 0.27349
 N420 N 0.33325 0.19182 0.31056
 N421 N 0.34911 0.16589 0.33309
 C422 C 0.36371 0.13424 0.31941
 N423 N 0.36252 0.12972 0.28229
 N424 N 0.34649 0.15555 0.25981
 C425 C 0.38126 0.10538 0.34402
 C426 C 0.37956 0.10782 0.38242
 H427 H 0.30276 0.24049 0.25965
 H428 H 0.39706 0.08261 0.33172
 H429 H 0.30199 0.17724 0.20933
 H430 H 0.36373 0.13068 0.39451
 C431 C 0.28656 0.72681 -0.23889
 C432 C 0.29858 0.69070 -0.24014
 C433 C 0.32314 0.67122 -0.21245
 N434 N 0.34239 0.63973 -0.22123
 N435 N 0.36342 0.62061 -0.19607
 C436 C 0.36565 0.63203 -0.16098
 N437 N 0.34617 0.66346 -0.15203
 N438 N 0.32539 0.68282 -0.17739
 C439 C 0.38776 0.61004 -0.13287
 C440 C 0.41561 0.58411 -0.14355
 H441 H 0.29106 0.67591 -0.26297
 H442 H 0.38211 0.61415 -0.10371
 H443 H 0.29848 0.74179 -0.21894
 H444 H 0.42304 0.58226 -0.17254
 C445 C 1.20095 -0.18606 -0.22439
 C446 C 1.16515 -0.17379 -0.21673
 C447 C 1.15305 -0.15528 -0.18266
 N448 N 1.12218 -0.13190 -0.18343
 N449 N 1.10964 -0.11593 -0.15271
 C450 C 1.12712 -0.12312 -0.11979
 N451 N 1.15785 -0.14690 -0.11881
 N452 N 1.17072 -0.16255 -0.14977
 C453 C 1.11207 -0.10589 -0.08585
 C454 C 1.09126 -0.07264 -0.08885
 H455 H 1.14495 -0.17574 -0.23727
 H456 H 1.11617 -0.11961 -0.05920
 H457 H 1.22091 -0.17934 -0.20582
 H458 H 1.09023 -0.05860 -0.11536
 C459 C 1.20113 0.29079 0.23823
 C460 C 1.21721 0.30949 0.26400
 C461 C 1.19458 0.33180 0.29060
 N462 N 1.20857 0.34392 0.32140
 N463 N 1.18758 0.36368 0.34525
 C464 C 1.15190 0.37211 0.33901
 N465 N 1.13814 0.36029 0.30812
 N466 N 1.15899 0.34051 0.28452
 C467 C 1.12770 0.39437 0.36396
 C468 C 1.13739 0.40492 0.39864
 H469 H 1.24577 0.30769 0.26512
 H470 H 1.10055 0.40268 0.35437
 H471 H 1.17265 0.29197 0.24049
 H472 H 1.16402 0.39609 0.40941
 C473 C 0.69178 -0.19536 0.25813
 C474 C 0.70834 -0.18117 0.28716
 C475 C 0.68768 -0.15254 0.30835
 N476 N 0.69169 -0.15140 0.34574
 N477 N 0.67023 -0.12779 0.36538
 C478 C 0.64422 -0.10426 0.34825
 N479 N 0.64091 -0.10483 0.31080
 N480 N 0.66207 -0.12862 0.29126
 C481 C 0.61833 -0.07976 0.36938
 C482 C 0.61170 -0.08536 0.40689
 H483 H 0.73412 -0.19380 0.29757
 H484 H 0.60120 -0.05900 0.35398
 H485 H 0.66415 -0.18430 0.25231
 H486 H 0.62746 -0.10718 0.42207
 C487 C 0.71202 0.27277 -0.27993
 C488 C 0.72107 0.29269 -0.25087
 C489 C 0.69352 0.31091 -0.22620
 N490 N 0.70277 0.32277 -0.19311
 N491 N 0.67791 0.33832 -0.17014
 C492 C 0.64288 0.34260 -0.17944
 N493 N 0.63367 0.33102 -0.21265
 N494 N 0.65849 0.31532 -0.23551
 C495 C 0.61516 0.36076 -0.15503
 C496 C 0.62272 0.37041 -0.11935
 H497 H 0.74856 0.29278 -0.24383
 H498 H 0.58839 0.36798 -0.16606
 H499 H 0.68414 0.27167 -0.28417
 H500 H 0.64923 0.36251 -0.10787
 C501 C 1.20759 0.18489 -0.12731
 C502 C 1.17553 0.19724 -0.11000
 C503 C 1.15202 0.17298 -0.09801
 N504 N 1.12013 0.18559 -0.08268
 N505 N 1.09732 0.16419 -0.07470
 C506 C 1.10538 0.12949 -0.08211
 N507 N 1.13729 0.11686 -0.09738
 N508 N 1.16016 0.13824 -0.10522
 C509 C 1.08011 0.10588 -0.07381
 C510 C 1.04994 0.11723 -0.05306
 H511 H 1.16549 0.22518 -0.10976
 H512 H 1.08605 0.07898 -0.08263
 H513 H 1.21798 0.15700 -0.12592
 H514 H 1.04522 0.14354 -0.04249
 C515 C 1.22820 0.69057 0.31094
 C516 C 1.20491 0.70051 0.34000
 C517 C 1.17792 0.67952 0.35106
 N518 N 1.16181 0.68417 0.38451
 N519 N 1.13787 0.66472 0.39501
 C520 C 1.12879 0.64027 0.37220
 N521 N 1.14436 0.63615 0.33843
 N522 N 1.16853 0.65537 0.32808
 C523 C 1.10460 0.61672 0.38460
 C524 C 1.10025 0.60985 0.42220
 H525 H 1.20644 0.72422 0.35473
 H526 H 1.09423 0.60098 0.36425
 H527 H 1.22666 0.66651 0.29683
 H528 H 1.11353 0.62327 0.44249
 C529 C 0.69916 0.23277 0.37334
 C530 C 0.67286 0.21761 0.35645
 C531 C 0.65427 0.19203 0.37464
 N532 N 0.63717 0.17188 0.35328
 N533 N 0.61961 0.14853 0.36873
 C534 C 0.61845 0.14458 0.40618
 N535 N 0.63552 0.16479 0.42765
 N536 N 0.65340 0.18799 0.41214
 C537 C 0.59656 0.12120 0.42332
 C538 C 0.58257 0.09663 0.40297
 H539 H 0.66802 0.22227 0.32691
 H540 H 0.58948 0.12488 0.45225
 H541 H 0.70589 0.22746 0.40239
 H542 H 0.59161 0.09044 0.37506
 C543 C 0.70971 0.70771 -0.16914
 C544 C 0.68552 0.69082 -0.18758
 C545 C 0.66692 0.66562 -0.16815
 N546 N 0.64378 0.64946 -0.18686
 N547 N 0.62807 0.62537 -0.16981
 C548 C 0.63506 0.61656 -0.13346
 N549 N 0.65807 0.63281 -0.11477
 N550 N 0.67368 0.65691 -0.13177
 C551 C 0.61934 0.58914 -0.11439
 C552 C 0.59413 0.57245 -0.13093
 H553 H 0.68155 0.69487 -0.21729
 H554 H 0.62822 0.58166 -0.08627
 H555 H 0.71336 0.70282 -0.13947
 H556 H 0.58401 0.58041 -0.15851
 C557 C 0.80081 -0.22032 -0.15954
 C558 C 0.82270 -0.19795 -0.17366
 C559 C 0.84447 -0.18072 -0.14865
 N560 N 0.85869 -0.15296 -0.16122
 N561 N 0.87725 -0.13636 -0.13844
 C562 C 0.88248 -0.14701 -0.10228
 N563 N 0.86874 -0.17512 -0.08986
 N564 N 0.84999 -0.19159 -0.11258
 C565 C 0.90209 -0.12818 -0.07666
 C566 C 0.90960 -0.09529 -0.08631
 H567 H 0.82262 -0.19114 -0.20294
 H568 H 0.90951 -0.13969 -0.04943
 H569 H 0.80044 -0.22471 -0.12970
 H570 H 0.90070 -0.08327 -0.11295
 C571 C 0.79943 0.29938 0.35644
 C572 C 0.82196 0.31670 0.33513
 C573 C 0.84905 0.33361 0.35329
 N574 N 0.87082 0.35089 0.33293
 N575 N 0.89420 0.36737 0.34964
 C576 C 0.89662 0.36703 0.38732
 N577 N 0.87508 0.34958 0.40750
 N578 N 0.85187 0.33314 0.39087
 C579 C 0.91953 0.38731 0.40711
 C580 C 0.94397 0.40549 0.39030
 H581 H 0.81964 0.31870 0.30522
 H582 H 0.91551 0.38936 0.43681
 H583 H 0.80354 0.29768 0.38626
 H584 H 0.95043 0.40240 0.36118
 C585 C 0.31880 -0.23232 0.32870
 C586 C 0.33592 -0.20518 0.31630
 C587 C 0.35464 -0.18533 0.34188
 N588 N 0.36528 -0.15554 0.32942
 N589 N 0.38144 -0.13668 0.35216
 C590 C 0.38772 -0.14687 0.38830
 N591 N 0.37738 -0.17688 0.40075
 N592 N 0.36102 -0.19569 0.37801
 C593 C 0.40575 -0.12592 0.41346
 C594 C 0.41193 -0.09281 0.40236
 H595 H 0.33394 -0.19627 0.28761
 H596 H 0.41438 -0.13665 0.44069
 H597 H 0.32028 -0.23929 0.35807
 H598 H 0.40228 -0.08203 0.37545
 C599 C 0.27944 0.27638 -0.14600
 C600 C 0.30177 0.29433 -0.16681
 C601 C 0.32377 0.31681 -0.14872
 N602 N 0.35105 0.32740 -0.16736
 N603 N 0.37156 0.34710 -0.15094
 C604 C 0.36544 0.35703 -0.11529
 N605 N 0.33798 0.34672 -0.09680
 N606 N 0.31763 0.32688 -0.11313
 C607 C 0.38733 0.37923 -0.09677
 C608 C 0.41862 0.38693 -0.11206
 H609 H 0.30541 0.29050 -0.19622
 H610 H 0.37843 0.38986 -0.07020
 H611 H 0.27889 0.27982 -0.11621
 H612 H 0.42846 0.37543 -0.13794
 C613 C 1.23805 -0.20203 0.23536
 C614 C 1.20219 -0.18664 0.23591
 C615 C 1.18471 -0.16279 0.20656
 N616 N 1.15407 -0.14095 0.21444
 N617 N 1.13534 -0.12181 0.18766
 C618 C 1.14619 -0.12414 0.15180
 N619 N 1.17689 -0.14608 0.14378
 N620 N 1.19592 -0.16500 0.17075
 C621 C 1.12358 -0.10484 0.12218
 C622 C 1.09760 -0.07648 0.13119
 H623 H 1.18570 -0.19218 0.25894
 H624 H 1.12606 -0.11393 0.09398
 H625 H 1.25573 -0.19161 0.21631
 H626 H 1.09731 -0.06634 0.15896
 C627 C 1.19522 0.26916 0.76525
 C628 C 1.20842 0.28880 0.73722
 C629 C 1.18412 0.31083 0.71074
 N630 N 1.19720 0.32649 0.68096
 N631 N 1.17532 0.34676 0.65722
 C632 C 1.13955 0.35218 0.66245
 N633 N 1.12652 0.33660 0.69224
 N634 N 1.14835 0.31627 0.71586
 C635 C 1.11495 0.37547 0.63745
 C636 C 1.12620 0.39033 0.60498
 H637 H 1.23665 0.28800 0.73392
 H638 H 1.08726 0.38173 0.64536
 H639 H 1.16677 0.26961 0.76597
 H640 H 1.15362 0.38349 0.59631
 C641 C 0.72253 -0.19813 0.74082
 C642 C 0.68660 -0.18371 0.73633
 C643 C 0.67245 -0.16227 0.70366
 N644 N 0.64184 -0.13889 0.70679
 N645 N 0.62698 -0.12090 0.67714
 C646 C 0.64179 -0.12601 0.64304
 N647 N 0.67229 -0.14970 0.63974
 N648 N 0.68748 -0.16741 0.66960
 C649 C 0.62409 -0.10690 0.61030
 C650 C 0.60247 -0.07448 0.61475
 H651 H 0.66783 -0.18723 0.75795
 H652 H 0.62726 -0.11854 0.58323
 H653 H 0.74164 -0.18969 0.72199
 H654 H 0.60233 -0.06212 0.64141
 C655 C 0.70122 0.32398 0.27633
 C656 C 0.71438 0.33308 0.24204
 C657 C 0.68966 0.35173 0.21368
 N658 N 0.69861 0.35079 0.17722
 N659 N 0.67507 0.36497 0.15130
 C660 C 0.64171 0.38052 0.16093
 N661 N 0.63302 0.38196 0.19736
 N662 N 0.65647 0.36774 0.22319
 C663 C 0.61502 0.39590 0.13297
 C664 C 0.62152 0.39434 0.09502
 H665 H 0.74130 0.32255 0.23391
 H666 H 0.58968 0.40965 0.14273
 H667 H 0.67330 0.33319 0.28187
 H668 H 0.64685 0.38089 0.08498
 C669 C 0.77814 0.22826 0.26299
 C670 C 0.78020 0.19244 0.25690
 C671 C 0.79565 0.17471 0.22380
 N672 N 0.79796 0.13948 0.22219
 N673 N 0.81189 0.12229 0.19276
 C674 C 0.82382 0.13973 0.16362
 N675 N 0.82120 0.17509 0.16499
 N676 N 0.80729 0.19235 0.19457
 C677 C 0.84147 0.12050 0.13226
 C678 C 0.85148 0.08412 0.13407
 H679 H 0.77059 0.17555 0.27728
 H680 H 0.85022 0.13541 0.10929
 H681 H 0.79029 0.24401 0.24322
 H682 H 0.84428 0.06931 0.15791
 C683 C 0.80559 0.71029 0.74110
 C684 C 0.80575 0.67741 0.72616
 C685 C 0.83290 0.66166 0.69997
 N686 N 0.82531 0.63722 0.67644
 N687 N 0.84990 0.62158 0.65335
 C688 C 0.88314 0.62949 0.65325
 N689 N 0.89088 0.65374 0.67703
 N690 N 0.86610 0.66974 0.69985
 C691 C 0.91074 0.61075 0.62920
 C692 C 0.90167 0.59436 0.59758
 H693 H 0.78412 0.66339 0.73163
 H694 H 0.93843 0.60922 0.63682
 H695 H 0.82479 0.72582 0.73111
 H696 H 0.87422 0.59850 0.58827
 C697 C 0.29404 0.18774 0.77240
 C698 C 0.30484 0.20239 0.73954
 C699 C 0.32547 0.17931 0.71257
 N700 N 0.32684 0.18948 0.67632
 N701 N 0.34340 0.16735 0.65158
 C702 C 0.35902 0.13432 0.66232
 N703 N 0.35808 0.12445 0.69856
 N704 N 0.34155 0.14646 0.72316
 C705 C 0.37750 0.10923 0.63613
 C706 C 0.37982 0.11652 0.59832
 H707 H 0.29519 0.22950 0.73162
 H708 H 0.39100 0.08427 0.64757
 H709 H 0.30222 0.15976 0.77736
 H710 H 0.36636 0.14121 0.58629
 C711 C 0.32125 0.70898 0.21863
 C712 C 0.31923 0.67971 0.19744
 C713 C 0.34469 0.66712 0.16828
 N714 N 0.33486 0.64666 0.14160
 N715 N 0.35817 0.63235 0.11656
 C716 C 0.39234 0.63764 0.11747
 N717 N 0.40225 0.65818 0.14417
 N718 N 0.37877 0.67286 0.16905
 C719 C 0.41883 0.61870 0.09226
 C720 C 0.40831 0.60255 0.06104
 H721 H 0.29698 0.66607 0.20069
 H722 H 0.44671 0.61513 0.09988
 H723 H 0.34026 0.72559 0.21094
 H724 H 0.38077 0.60815 0.05208
   
