data_POSCAR
  _audit_creation_date              2014-09-24
  _audit_creation_method            'ToBaCCo'
  _symmetry_space_group_name_H-M    'P1'
  _symmetry_Int_Tables_number       1
  _symmetry_cell_setting            triclinic
  loop_
  _symmetry_equiv_pos_as_xyz
 x,y,z
_cell_length_a 24.9081
_cell_length_b 25.0903
_cell_length_c 24.1598
_cell_angle_alpha 89.937200
_cell_angle_beta 90.115000
_cell_angle_gamma 120.494000
loop_
  _atom_site_label
  _atom_site_type_symbol
  _atom_site_fract_x
  _atom_site_fract_y
  _atom_site_fract_z
C1 C 0.52972 0.09223 0.07916
 H2 H 0.57281 0.09160 0.08055
 C3 C 0.52344 0.13536 0.11045
 H4 H 0.56167 0.16777 0.13637
 C5 C 0.42798 0.05188 0.04240
 H6 H 0.39142 0.01993 0.01501
 C7 C 0.42009 0.09503 0.07251
 H8 H 0.37710 0.09557 0.06858
 N9 N 0.48227 0.05140 0.04625
 C10 C 0.52683 -0.09366 0.01982
 H11 H 0.52732 -0.09442 -0.02494
 C12 C 0.53440 -0.13689 0.04998
 H13 H 0.54097 -0.17097 0.02839
 C14 C 0.51438 -0.05044 0.10262
 H15 H 0.50451 -0.01810 0.12300
 C16 C 0.52214 -0.09262 0.13436
 H17 H 0.51879 -0.09177 0.17894
 Zn18 Zn 0.49849 -0.00081 0.00193
 N19 N 0.51675 -0.05176 0.04639
 C20 C 0.62263 0.05414 -0.03953
 N21 N 0.56694 0.05179 -0.04341
 C22 C 0.55948 0.09103 -0.07706
 C23 C 0.60895 0.13439 -0.10907
 C24 C 0.67375 0.09756 -0.07038
 C25 C 0.37647 -0.09705 -0.01386
 C26 C 0.32495 -0.14239 -0.04290
 C27 C 0.38015 -0.09824 -0.12833
 C28 C 0.43079 -0.05411 -0.09762
 N29 N 0.42816 -0.05445 -0.04139
 H30 H 0.62795 0.02350 -0.01154
 H31 H 0.51505 0.08899 -0.07845
 H32 H 0.60246 0.16554 -0.13556
 H33 H 0.71801 0.09956 -0.06641
 H34 H 0.37598 -0.09668 0.03091
 H35 H 0.28497 -0.17608 -0.01971
 H36 H 0.38338 -0.09787 -0.17307
 H37 H 0.47272 -0.02089 -0.11880
 C38 C 0.53155 -0.13687 0.10786
 C39 C 0.46849 0.13754 0.10668
 C40 C 0.32676 -0.14401 -0.10101
 C41 C 0.66701 0.13845 -0.10530
 C42 C -0.09229 0.46936 0.58831
 H43 H -0.09156 0.42663 0.58734
 C44 C -0.13548 0.47548 0.55634
 H45 H -0.16780 0.43750 0.53030
 C46 C -0.05223 0.57033 0.62474
 H47 H -0.02038 0.60667 0.65225
 C48 C -0.09543 0.57806 0.59392
 H49 H -0.09608 0.62071 0.59744
 N50 N -0.05158 0.51651 0.62140
 C51 C 0.09619 0.47506 0.65047
 H52 H 0.09671 0.47500 0.69525
 C53 C 0.14064 0.46836 0.62109
 H54 H 0.17502 0.46270 0.64355
 C55 C 0.05210 0.48513 0.56687
 H56 H 0.01887 0.49359 0.54584
 C57 C 0.09534 0.47803 0.53591
 H58 H 0.09461 0.48028 0.49116
 Zn59 Zn 0.00076 0.50072 0.66664
 N60 N 0.05337 0.48366 0.62315
 C61 C -0.05349 0.37749 0.70815
 N62 N -0.05244 0.43217 0.71136
 C63 C -0.09322 0.43857 0.74399
 C64 C -0.13681 0.38905 0.77570
 C65 C -0.09707 0.32635 0.73872
 C66 C 0.09694 0.62207 0.68388
 C67 C 0.14152 0.67310 0.71379
 C68 C 0.09491 0.61749 0.79843
 C69 C 0.05158 0.56728 0.76696
 N70 N 0.05344 0.57038 0.71069
 H71 H -0.02158 0.37301 0.68098
 H72 H -0.09216 0.48221 0.74487
 H73 H -0.16912 0.39471 0.80144
 H74 H -0.09797 0.28292 0.73536
 H75 H 0.09792 0.62291 0.63911
 H76 H 0.17652 0.71336 0.69179
 H77 H 0.09374 0.61422 0.84317
 H78 H 0.01781 0.52537 0.78760
 C79 C 0.14081 0.47059 0.56313
 C80 C -0.13782 0.52998 0.55956
 C81 C 0.14106 0.67063 0.77173
 C82 C -0.13947 0.33204 0.77268
 C83 C 0.56126 0.46897 0.40925
 H84 H 0.51680 0.42629 0.41055
 C85 C 0.61082 0.47528 0.44115
 H86 H 0.60437 0.43749 0.46746
 C87 C 0.62438 0.56959 0.37208
 H88 H 0.62963 0.60570 0.34429
 C89 C 0.67559 0.57749 0.40282
 H90 H 0.71988 0.62005 0.39897
 N91 N 0.56866 0.51587 0.37585
 C92 C 0.37806 0.47325 0.34723
 H93 H 0.37716 0.47255 0.30245
 C94 C 0.32688 0.46672 0.37668
 H95 H 0.28646 0.46053 0.35429
 C96 C 0.43316 0.48484 0.43070
 H97 H 0.47529 0.49387 0.45164
 C98 C 0.38280 0.47794 0.46175
 H99 H 0.38617 0.48089 0.50646
 Zn100 Zn 0.49991 0.49964 0.33078
 N101 N 0.42998 0.48255 0.37445
 C102 C 0.42891 0.37587 0.29024
 N103 N 0.48323 0.43099 0.28634
 C104 C 0.53043 0.43784 0.25329
 C105 C 0.52388 0.38830 0.22196
 C106 C 0.42076 0.32468 0.26009
 C107 C 0.52830 0.62110 0.31303
 C108 C 0.53561 0.67188 0.28292
 C109 C 0.52252 0.61497 0.19851
 C110 C 0.51503 0.56507 0.23021
 N111 N 0.51792 0.56895 0.28643
 H112 H 0.39255 0.37109 0.31773
 H113 H 0.57356 0.48185 0.25186
 H114 H 0.56194 0.39431 0.19595
 H115 H 0.37776 0.28086 0.26408
 H116 H 0.52921 0.62250 0.35780
 H117 H 0.54239 0.71265 0.30454
 H118 H 0.51872 0.61058 0.15395
 H119 H 0.50492 0.52271 0.20982
 C120 C 0.32942 0.46985 0.43461
 C121 C 0.66890 0.52967 0.43751
 C122 C 0.53219 0.66879 0.22505
 C123 C 0.46893 0.33080 0.22581
 C124 C 0.21951 0.46782 0.44525
 C125 C 0.17896 0.41749 0.48819
 C126 C 0.19069 0.46848 0.53001
 C127 C 0.23074 0.51879 0.48747
 C128 C 0.24876 0.46879 0.55251
 C129 C 0.23765 0.41778 0.51027
 C130 C 0.27757 0.46810 0.46774
 C131 C 0.28915 0.51908 0.50958
 H132 H 0.20671 0.46754 0.40119
 H133 H 0.13313 0.37555 0.47978
 H134 H 0.22773 0.56058 0.47840
 H135 H 0.26169 0.46931 0.59655
 H136 H 0.24083 0.37608 0.51925
 H137 H 0.33490 0.56111 0.51807
 C138 C 0.53425 0.72736 0.12934
 C139 C 0.48325 0.74488 0.13476
 C140 C 0.53420 0.81334 0.14020
 C141 C 0.58529 0.79644 0.13450
 C142 C 0.53450 0.80713 0.20362
 C143 C 0.48353 0.73819 0.19840
 C144 C 0.53449 0.72111 0.19276
 C145 C 0.58557 0.78955 0.19827
 H146 H 0.53434 0.69507 0.09806
 H147 H 0.44095 0.72683 0.10848
 H148 H 0.62731 0.82101 0.10802
 H149 H 0.53481 0.83964 0.23489
 H150 H 0.44146 0.71367 0.22484
 H151 H 0.62782 0.80748 0.22460
 C152 C 0.23063 0.71169 0.84838
 C153 C 0.28934 0.77068 0.82781
 C154 C 0.27710 0.80779 0.86741
 C155 C 0.22145 0.75308 0.88998
 C156 C 0.24061 0.82024 0.82696
 C157 C 0.25021 0.78047 0.78367
 C158 C 0.19109 0.72236 0.80535
 C159 C 0.18035 0.76226 0.84747
 H160 H 0.22799 0.66722 0.85837
 H161 H 0.33589 0.77582 0.82138
 H162 H 0.20982 0.74172 0.93433
 H163 H 0.24678 0.86678 0.81992
 H164 H 0.26477 0.79435 0.74014
 H165 H 0.13567 0.76016 0.85663
 C166 C 0.72599 0.53481 0.53306
 C167 C 0.74374 0.48410 0.53062
 C168 C 0.81299 0.53464 0.52755
 C169 C 0.79583 0.58553 0.53039
 C170 C 0.81001 0.53441 0.46397
 C171 C 0.74039 0.48383 0.46676
 C172 C 0.72297 0.53450 0.46947
 C173 C 0.79218 0.58526 0.46628
 H174 H 0.69092 0.53494 0.56125
 H175 H 0.72401 0.44238 0.55737
 H176 H 0.81843 0.62761 0.55666
 H177 H 0.84505 0.53422 0.43578
 H178 H 0.71729 0.44189 0.44030
 H179 H 0.81255 0.62712 0.43972
 C180 C 0.46371 0.27308 0.13106
 C181 C 0.51472 0.25539 0.13430
 C182 C 0.46374 0.18671 0.13788
 C183 C 0.41254 0.20380 0.13425
 C184 C 0.46387 0.19032 0.20142
 C185 C 0.51489 0.25937 0.19811
 C186 C 0.46394 0.27674 0.19460
 C187 C 0.41272 0.20810 0.19830
 H188 H 0.46368 0.30763 0.10234
 H189 H 0.55678 0.27466 0.10770
 H190 H 0.37020 0.18113 0.10787
 H191 H 0.46396 0.15580 0.23014
 H192 H 0.55710 0.28253 0.22466
 H193 H 0.37052 0.18821 0.22473
 C194 C -0.19177 0.27554 0.86820
 C195 C -0.26134 0.25617 0.86520
 C196 C -0.27896 0.18787 0.86269
 C197 C -0.20980 0.20666 0.86610
 C198 C -0.27601 0.19032 0.79911
 C199 C -0.25804 0.25900 0.80133
 C200 C -0.18885 0.27803 0.80462
 C201 C -0.20622 0.20977 0.80200
 H202 H -0.15664 0.31109 0.89640
 H203 H -0.28431 0.27505 0.89148
 H204 H -0.18948 0.18536 0.89283
 H205 H -0.31117 0.15479 0.77092
 H206 H -0.27768 0.28083 0.77441
 H207 H -0.18376 0.19023 0.77591
   
