data_POSCAR
  _audit_creation_date              2014-09-24
  _audit_creation_method            'ToBaCCo'
  _symmetry_space_group_name_H-M    'P1'
  _symmetry_Int_Tables_number       1
  _symmetry_cell_setting            triclinic
  loop_
  _symmetry_equiv_pos_as_xyz
 x,y,z
_cell_length_a 34.1641
_cell_length_b 42.9456
_cell_length_c 34.9943
_cell_angle_alpha 90.065200
_cell_angle_beta 90.008800
_cell_angle_gamma 84.322300
loop_
  _atom_site_label
  _atom_site_type_symbol
  _atom_site_fract_x
  _atom_site_fract_y
  _atom_site_fract_z
C1 C 1.22610 0.22490 0.19623
 C2 C 1.25077 0.24578 0.17235
 C3 C 1.27070 0.26582 0.19355
 C4 C 1.26439 0.26289 0.23703
 C5 C 1.25506 0.20853 0.22474
 C6 C 1.27492 0.22815 0.24599
 C7 C 1.19969 0.24844 0.22020
 C8 C 1.21947 0.26807 0.24183
 H9 H 1.25059 0.24629 0.14150
 H10 H 1.28065 0.27886 0.25459
 H11 H 1.25878 0.18336 0.22850
 H12 H 1.16790 0.24933 0.22006
 C13 C 0.73217 -0.27593 0.19508
 C14 C 0.75653 -0.25541 0.17035
 C15 C 0.77637 -0.23484 0.19079
 C16 C 0.77045 -0.23703 0.23441
 C17 C 0.76139 -0.29166 0.22382
 C18 C 0.78121 -0.27155 0.24436
 C19 C 0.70580 -0.25205 0.21856
 C20 C 0.72560 -0.23196 0.23941
 H21 H 0.75591 -0.25525 0.13950
 H22 H 0.78666 -0.22064 0.25139
 H23 H 0.76479 -0.31670 0.22875
 H24 H 0.67404 -0.25140 0.21882
 C25 C 0.72445 0.22674 -0.30693
 C26 C 0.74439 0.24941 -0.32885
 C27 C 0.76696 0.26917 -0.30566
 C28 C 0.76447 0.26199 -0.26434
 C29 C 0.75527 0.20961 -0.28484
 C30 C 0.77713 0.22851 -0.26108
 C31 C 0.70067 0.24615 -0.27975
 C32 C 0.72209 0.26575 -0.25603
 H33 H 0.74204 0.25160 -0.35946
 H34 H 0.78168 0.27644 -0.24590
 H35 H 0.76032 0.18425 -0.28502
 H36 H 0.66906 0.24607 -0.27835
 C37 C 1.23261 -0.27682 -0.30333
 C38 C 1.25682 -0.25598 -0.32779
 C39 C 1.27651 -0.23548 -0.30706
 C40 C 1.27049 -0.23794 -0.26349
 C41 C 1.26198 -0.29259 -0.27476
 C42 C 1.28158 -0.27250 -0.25397
 C43 C 1.20605 -0.25326 -0.27962
 C44 C 1.22560 -0.23315 -0.25854
 H45 H 1.25661 -0.25579 -0.35864
 H46 H 1.28654 -0.22157 -0.24632
 H47 H 1.26597 -0.31769 -0.27042
 H48 H 1.17430 -0.25282 -0.27943
 C49 C 0.23092 0.22453 0.80458
 C50 C 0.25339 0.24457 0.82783
 C51 C 0.27496 0.26578 0.80626
 C52 C 0.26973 0.26255 0.76479
 C53 C 0.20480 0.24768 0.77993
 C54 C 0.22486 0.26743 0.75883
 C55 C 0.26064 0.20813 0.77668
 C56 C 0.28077 0.22780 0.75583
 H57 H 0.25308 0.24423 0.85862
 H58 H 0.28543 0.27839 0.74668
 H59 H 0.17302 0.24848 0.77956
 H60 H 0.26431 0.18297 0.77268
 C61 C 0.72262 0.72671 0.80695
 C62 C 0.74278 0.74930 0.82884
 C63 C 0.76557 0.76884 0.80564
 C64 C 0.76302 0.76157 0.76433
 C65 C 0.69901 0.74618 0.77974
 C66 C 0.72065 0.76557 0.75599
 C67 C 0.75328 0.70935 0.78488
 C68 C 0.77538 0.72803 0.76112
 H69 H 0.74037 0.75159 0.85945
 H70 H 0.78040 0.77585 0.74589
 H71 H 0.66737 0.74637 0.77843
 H72 H 0.75803 0.68397 0.78505
 C73 C 0.73235 0.22408 0.30467
 C74 C 0.75674 0.24463 0.32939
 C75 C 0.77655 0.26517 0.30893
 C76 C 0.77055 0.26294 0.26533
 C77 C 0.70594 0.24792 0.28126
 C78 C 0.72570 0.26799 0.26038
 C79 C 0.76152 0.20832 0.27588
 C80 C 0.78129 0.22841 0.25533
 H81 H 0.75617 0.24483 0.36024
 H82 H 0.78673 0.27931 0.24833
 H83 H 0.67417 0.24858 0.28104
 H84 H 0.76491 0.18327 0.27091
 C85 C 0.22590 0.72550 0.30370
 C86 C 0.25052 0.74648 0.32756
 C87 C 0.27049 0.76645 0.30635
 C88 C 0.26428 0.76333 0.26286
 C89 C 0.19954 0.74895 0.27962
 C90 C 0.21937 0.76850 0.25797
 C91 C 0.25491 0.70902 0.27529
 C92 C 0.27482 0.72854 0.25401
 H93 H 0.25024 0.74711 0.35842
 H94 H 0.28058 0.77923 0.24528
 H95 H 0.16776 0.74986 0.27973
 H96 H 0.25860 0.68384 0.27158
 N97 N 1.06761 0.02103 0.03754
 N98 N 1.09427 0.04099 0.04189
 N99 N 1.03247 -0.03895 0.06504
 N100 N 1.03888 -0.05920 0.09319
 N101 N 1.06009 -0.04356 0.03896
 N102 N 1.08600 -0.06707 0.04880
 N103 N 1.04025 0.02547 0.06381
 N104 N 1.04763 0.04843 0.08695
 C105 C 1.08142 0.05790 0.07290
 C106 C 1.07204 -0.07692 0.08245
 N107 N 0.92092 -0.02195 0.03739
 N108 N 0.89481 -0.04242 0.04182
 N109 N 0.95632 0.03865 0.06289
 N110 N 0.95303 0.06179 0.08778
 N111 N 0.92901 0.04288 0.03650
 N112 N 0.90619 0.06907 0.04297
 N113 N 0.94816 -0.02584 0.06391
 N114 N 0.94133 -0.04888 0.08706
 Mn115 Mn 0.99422 -0.00018 0.06426
 C116 C 0.90789 -0.05900 0.07309
 C117 C 0.92185 0.08076 0.07497
 N118 N 1.06088 -0.04465 -0.04359
 N119 N 1.08718 -0.06820 -0.05244
 N120 N 1.04164 0.02368 -0.07115
 N121 N 1.04927 0.04657 -0.09430
 N122 N 1.06834 0.01984 -0.04417
 N123 N 1.09469 0.04006 -0.04799
 N124 N 1.03368 -0.04079 -0.07017
 N125 N 1.04074 -0.06161 -0.09763
 Mn126 Mn 1.06460 -0.01196 -0.00282
 C127 C 1.07384 -0.07887 -0.08597
 C128 C 1.08251 0.05653 -0.07945
 N129 N 0.92986 0.04198 -0.04639
 N130 N 0.90680 0.06771 -0.05483
 N131 N 0.94918 -0.02776 -0.07116
 N132 N 0.94154 -0.05058 -0.09451
 N133 N 0.92156 -0.02299 -0.04512
 N134 N 0.89453 -0.04262 -0.04993
 N135 N 0.95749 0.03667 -0.07234
 N136 N 0.95394 0.05833 -0.09902
 Mn137 Mn 0.92474 0.01012 -0.00440
 Mn138 Mn 0.99546 -0.00209 -0.07156
 Cl139 Cl 0.99471 -0.00111 -0.00365
 C140 C 0.92255 0.07777 -0.08771
 C141 C 0.90732 -0.05968 -0.08093
 N142 N 1.06864 0.52018 0.54365
 N143 N 1.09512 0.54027 0.54767
 N144 N 1.03402 0.45957 0.56957
 N145 N 1.04115 0.43888 0.59709
 N146 N 1.06126 0.45569 0.54302
 N147 N 1.08765 0.43224 0.55197
 N148 N 1.04196 0.52402 0.57065
 N149 N 1.04975 0.54673 0.59405
 C150 C 1.08303 0.55662 0.57928
 C151 C 1.07433 0.42165 0.58553
 N152 N 0.92190 0.47734 0.54452
 N153 N 0.89486 0.45773 0.54937
 N154 N 0.95779 0.53705 0.57183
 N155 N 0.95405 0.55862 0.59868
 N156 N 0.93017 0.54231 0.54587
 N157 N 0.90694 0.56793 0.55446
 N158 N 0.94954 0.47262 0.57056
 N159 N 0.94191 0.44987 0.59393
 Mn160 Mn 0.99579 0.49827 0.57100
 C161 C 0.90768 0.44074 0.58039
 C162 C 0.92257 0.57797 0.58743
 N163 N 1.06042 0.45673 0.46045
 N164 N 1.08627 0.43317 0.45065
 N165 N 1.04057 0.52576 0.43568
 N166 N 1.04790 0.54873 0.41262
 N167 N 1.06793 0.52134 0.46195
 N168 N 1.09455 0.54134 0.45767
 N169 N 1.03281 0.46132 0.43437
 N170 N 1.03917 0.44099 0.40624
 Mn171 Mn 1.06493 0.48837 0.50227
 C172 C 1.07229 0.42326 0.41701
 C173 C 1.08167 0.55825 0.42670
 N174 N 0.92931 0.54315 0.46299
 N175 N 0.90642 0.56929 0.45649
 N176 N 0.94850 0.47441 0.43550
 N177 N 0.94169 0.45132 0.41234
 N178 N 0.92127 0.47832 0.46203
 N179 N 0.89519 0.45782 0.45760
 N180 N 0.95662 0.53891 0.43659
 N181 N 0.95326 0.56199 0.41168
 Mn182 Mn 0.92507 0.51042 0.50385
 Mn183 Mn 0.99455 0.50008 0.43518
 Cl184 Cl 0.99504 0.49921 0.50309
 C185 C 0.92203 0.58094 0.42448
 C186 C 0.90826 0.44121 0.42633
 N187 N 0.57057 0.02052 0.53873
 N188 N 0.59602 0.04155 0.54216
 N189 N 0.53748 -0.04062 0.56542
 N190 N 0.54440 -0.06165 0.59262
 N191 N 0.56483 -0.04426 0.53899
 N192 N 0.59127 -0.06774 0.54775
 N193 N 0.54377 0.02411 0.56564
 N194 N 0.55042 0.04753 0.58836
 C195 C 0.58314 0.05815 0.57335
 C196 C 0.57774 -0.07868 0.58103
 N197 N 0.42535 -0.02483 0.54014
 N198 N 0.39928 -0.04524 0.54482
 N199 N 0.45952 0.03595 0.56664
 N200 N 0.45610 0.05879 0.59197
 N201 N 0.43179 0.04016 0.54066
 N202 N 0.40864 0.06605 0.54776
 N203 N 0.45302 -0.02884 0.56622
 N204 N 0.44649 -0.05201 0.58936
 Mn205 Mn 0.49841 -0.00238 0.56638
 C206 C 0.41281 -0.06203 0.57573
 C207 C 0.42441 0.07756 0.57979
 N208 N 0.56373 -0.04397 0.45641
 N209 N 0.58997 -0.06736 0.44694
 N210 N 0.54246 0.02472 0.43076
 N211 N 0.54955 0.04778 0.40765
 N212 N 0.56974 0.02068 0.45717
 N213 N 0.59595 0.04095 0.45302
 N214 N 0.53611 -0.03993 0.43025
 N215 N 0.54281 -0.06048 0.40244
 Mn216 Mn 0.56759 -0.01189 0.49781
 C217 C 0.57618 -0.07773 0.41346
 C218 C 0.58304 0.05767 0.42201
 N219 N 0.43091 0.04053 0.45800
 N220 N 0.40744 0.06635 0.45155
 N221 N 0.45157 -0.02823 0.43108
 N222 N 0.44441 -0.05114 0.40768
 N223 N 0.42448 -0.02443 0.45774
 N224 N 0.39819 -0.04469 0.45321
 N225 N 0.45813 0.03661 0.43147
 N226 N 0.45404 0.05960 0.40643
 Mn227 Mn 0.42759 0.00796 0.49914
 Mn228 Mn 0.49702 -0.00172 0.43048
 Cl229 Cl 0.49761 -0.00208 0.49845
 C230 C 0.42247 0.07815 0.41937
 C231 C 0.41094 -0.06120 0.42180
 N232 N 0.56931 0.52041 0.04289
 N233 N 0.59544 0.54076 0.04699
 N234 N 0.53602 0.45973 0.06985
 N235 N 0.54280 0.43920 0.09760
 N236 N 0.56360 0.45572 0.04365
 N237 N 0.58991 0.43237 0.05303
 N238 N 0.54208 0.52442 0.06935
 N239 N 0.54914 0.54754 0.09246
 C240 C 0.58254 0.55750 0.07803
 C241 C 0.57619 0.42199 0.08652
 N242 N 0.42436 0.47481 0.04255
 N243 N 0.39824 0.45443 0.04703
 N244 N 0.45770 0.53604 0.06880
 N245 N 0.45356 0.55909 0.09384
 N246 N 0.43041 0.53982 0.04234
 N247 N 0.40684 0.56560 0.04882
 N248 N 0.45148 0.47115 0.06919
 N249 N 0.44451 0.44820 0.09254
 Mn250 Mn 0.49677 0.49783 0.06971
 C251 C 0.41112 0.43799 0.07839
 C252 C 0.42189 0.57752 0.08097
 N253 N 0.56453 0.45533 -0.03895
 N254 N 0.59112 0.43197 -0.04779
 N255 N 0.54311 0.52364 -0.06552
 N256 N 0.54955 0.54711 -0.08818
 N257 N 0.56998 0.52015 -0.03867
 N258 N 0.59528 0.54129 -0.04209
 N259 N 0.53715 0.45885 -0.06537
 N260 N 0.54421 0.43786 -0.09264
 Mn261 Mn 0.56723 0.48777 0.00224
 C262 C 0.57767 0.42097 -0.08110
 C263 C 0.58223 0.55786 -0.07321
 N264 N 0.43117 0.53931 -0.04029
 N265 N 0.40825 0.56539 -0.04694
 N266 N 0.45258 0.47040 -0.06608
 N267 N 0.44592 0.44738 -0.08948
 N268 N 0.42508 0.47421 -0.03980
 N269 N 0.39909 0.45371 -0.04451
 N270 N 0.45886 0.53520 -0.06631
 N271 N 0.45565 0.55830 -0.09124
 Mn272 Mn 0.42721 0.50714 0.00119
 Mn273 Mn 0.49789 0.49699 -0.06622
 Cl274 Cl 0.49724 0.49735 0.00173
 C275 C 0.42411 0.57709 -0.07876
 C276 C 0.41242 0.43716 -0.07571
 C277 C 1.16250 0.15507 0.14076
 C278 C 1.15279 0.16483 0.17810
 C279 C 1.17366 0.18745 0.19535
 C280 C 1.20332 0.20133 0.17531
 C281 C 1.21305 0.19082 0.13790
 C282 C 1.19265 0.16774 0.12051
 C283 C 1.14130 0.13056 0.12292
 C284 C 1.15184 0.11995 0.08601
 C285 C 1.13209 0.09611 0.06956
 C286 C 1.10185 0.08327 0.08974
 C287 C 1.09135 0.09449 0.12647
 C288 C 1.11124 0.11792 0.14336
 C289 C 1.20210 0.15674 0.08345
 C290 C 1.18208 0.13322 0.06651
 C291 C 1.12260 0.15160 0.19767
 C292 C 1.10200 0.12865 0.18050
 H293 H 1.22532 0.16627 0.06748
 H294 H 1.19044 0.12529 0.03799
 H295 H 1.11483 0.15906 0.22652
 H296 H 1.07890 0.11903 0.19654
 H297 H 1.16702 0.19410 0.22470
 H298 H 1.23703 0.19968 0.12252
 H299 H 1.14015 0.08764 0.04116
 H300 H 1.06821 0.08460 0.14219
 C301 C 1.16712 0.65319 0.64413
 C302 C 1.16037 0.66183 0.68236
 C303 C 1.18206 0.68437 0.69861
 C304 C 1.20962 0.69921 0.67682
 C305 C 1.21636 0.68989 0.63847
 C306 C 1.19514 0.66688 0.62203
 C307 C 1.14495 0.62890 0.62718
 C308 C 1.15256 0.61945 0.58927
 C309 C 1.13201 0.59580 0.57362
 C310 C 1.10380 0.58199 0.59554
 C311 C 1.09607 0.59206 0.63325
 C312 C 1.11690 0.61530 0.64939
 C313 C 1.20164 0.65703 0.58403
 C314 C 1.18076 0.63367 0.56795
 C315 C 1.13218 0.64768 0.70373
 C316 C 1.11062 0.62491 0.68744
 H317 H 1.22318 0.66735 0.56664
 H318 H 1.18682 0.62661 0.53864
 H319 H 1.12671 0.65428 0.73329
 H320 H 1.08913 0.61455 0.70486
 H321 H 1.17755 0.69041 0.72849
 H322 H 1.23850 0.69967 0.62147
 H323 H 1.13789 0.58821 0.54444
 H324 H 1.07452 0.58136 0.65027
 C325 C 0.66115 0.15801 0.63865
 C326 C 0.65433 0.16569 0.67708
 C327 C 0.67522 0.18832 0.69400
 C328 C 0.70174 0.20498 0.67273
 C329 C 0.70863 0.19633 0.63398
 C330 C 0.68836 0.17292 0.61692
 C331 C 0.64044 0.13299 0.62132
 C332 C 0.64863 0.12400 0.58336
 C333 C 0.62970 0.09944 0.56749
 C334 C 0.60249 0.08439 0.58934
 C335 C 0.59418 0.09409 0.62707
 C336 C 0.61345 0.11807 0.64338
 C337 C 0.69534 0.16359 0.57878
 C338 C 0.67589 0.13950 0.56232
 C339 C 0.62719 0.15024 0.69826
 C340 C 0.60680 0.12699 0.68158
 H341 H 0.71628 0.17479 0.56160
 H342 H 0.68242 0.13284 0.53298
 H343 H 0.62168 0.15616 0.72802
 H344 H 0.58612 0.11560 0.69887
 H345 H 0.67124 0.19255 0.72437
 H346 H 0.73060 0.20660 0.61723
 H347 H 0.63603 0.09211 0.53830
 H348 H 0.57347 0.08243 0.64405
 C349 C 0.66629 0.65430 0.14268
 C350 C 0.65869 0.66365 0.18054
 C351 C 0.68054 0.68607 0.19685
 C352 C 0.70903 0.70014 0.17537
 C353 C 0.71667 0.69003 0.13745
 C354 C 0.69533 0.66713 0.12101
 C355 C 0.64401 0.63008 0.12572
 C356 C 0.65255 0.61986 0.08826
 C357 C 0.63199 0.59623 0.07265
 C358 C 0.60290 0.58312 0.09417
 C359 C 0.59419 0.59399 0.13140
 C360 C 0.61500 0.61726 0.14751
 C361 C 0.70274 0.65653 0.08344
 C362 C 0.68177 0.63322 0.06738
 C363 C 0.62952 0.65030 0.20150
 C364 C 0.60786 0.62760 0.18516
 H365 H 0.72509 0.66617 0.06639
 H366 H 0.68861 0.62550 0.03846
 H367 H 0.62338 0.65746 0.23076
 H368 H 0.58563 0.61786 0.20227
 H369 H 0.67542 0.69259 0.22649
 H370 H 0.73963 0.69912 0.12085
 H371 H 0.63865 0.58803 0.04384
 H372 H 0.57196 0.58383 0.14811
 C373 C 0.83378 -0.16100 0.13922
 C374 C 0.79998 -0.17082 0.12204
 C375 C 0.78162 -0.19520 0.13878
 C376 C 0.79684 -0.20984 0.17246
 C377 C 0.83085 -0.19974 0.18924
 C378 C 0.84947 -0.17532 0.17270
 C379 C 0.85288 -0.13504 0.12200
 C380 C 0.88656 -0.12510 0.13930
 C381 C 0.90443 -0.10026 0.12301
 C382 C 0.88878 -0.08530 0.08974
 C383 C 0.85505 -0.09564 0.07266
 C384 C 0.83696 -0.12053 0.08870
 C385 C 0.88336 -0.16479 0.18905
 C386 C 0.90159 -0.14013 0.17262
 C387 C 0.78500 -0.15585 0.08865
 C388 C 0.80320 -0.13116 0.07224
 H389 H 0.89582 -0.17565 0.21483
 H390 H 0.92761 -0.13269 0.18621
 H391 H 0.75893 -0.16324 0.07512
 H392 H 0.79066 -0.12025 0.04653
 H393 H 0.75494 -0.20222 0.12605
 H394 H 0.84296 -0.21100 0.21493
 H395 H 0.93042 -0.09250 0.13634
 H396 H 0.84290 -0.08434 0.04700
 C397 C 0.82687 0.34201 0.64646
 C398 C 0.79553 0.33083 0.62659
 C399 C 0.77597 0.30677 0.64262
 C400 C 0.78714 0.29365 0.67865
 C401 C 0.81878 0.30560 0.69819
 C402 C 0.83875 0.32957 0.68214
 C403 C 0.84765 0.36726 0.62951
 C404 C 0.87940 0.37822 0.64915
 C405 C 0.89913 0.40215 0.63283
 C406 C 0.88700 0.41531 0.59734
 C407 C 0.85501 0.40406 0.57811
 C408 C 0.83536 0.37994 0.59399
 C409 C 0.87067 0.34120 0.70095
 C410 C 0.89067 0.36504 0.68472
 C411 C 0.78413 0.34405 0.59105
 C412 C 0.80366 0.36819 0.57506
 H413 H 0.88032 0.33178 0.72847
 H414 H 0.91512 0.37326 0.70021
 H415 H 0.75988 0.33566 0.57543
 H416 H 0.79390 0.37770 0.54761
 H417 H 0.75101 0.29942 0.62726
 H418 H 0.82936 0.29561 0.72505
 H419 H 0.92368 0.41068 0.64788
 H420 H 0.84558 0.41391 0.55072
 C421 C 0.33610 -0.16266 0.64185
 C422 C 0.30200 -0.17186 0.62458
 C423 C 0.28289 -0.19587 0.64123
 C424 C 0.29762 -0.21073 0.67493
 C425 C 0.33190 -0.20122 0.69187
 C426 C 0.35131 -0.17719 0.67539
 C427 C 0.35604 -0.13713 0.62465
 C428 C 0.39005 -0.12780 0.64199
 C429 C 0.40869 -0.10331 0.62570
 C430 C 0.39339 -0.08813 0.59244
 C431 C 0.35935 -0.09792 0.57534
 C432 C 0.34055 -0.12242 0.59134
 C433 C 0.38554 -0.16729 0.69179
 C434 C 0.40459 -0.14304 0.67537
 C435 C 0.28750 -0.15670 0.59115
 C436 C 0.30646 -0.13241 0.57480
 H437 H 0.39765 -0.17832 0.71761
 H438 H 0.43085 -0.13608 0.68900
 H439 H 0.26120 -0.16362 0.57756
 H440 H 0.29425 -0.12130 0.54906
 H441 H 0.25605 -0.20246 0.62838
 H442 H 0.34363 -0.21267 0.71759
 H443 H 0.43491 -0.09596 0.63904
 H444 H 0.34744 -0.08645 0.54969
 C445 C 0.33206 0.33821 0.14361
 C446 C 0.29817 0.32921 0.12574
 C447 C 0.27842 0.30544 0.14211
 C448 C 0.29237 0.29052 0.17605
 C449 C 0.32648 0.29982 0.19358
 C450 C 0.34647 0.32369 0.17744
 C451 C 0.35267 0.36350 0.12669
 C452 C 0.38646 0.37269 0.14463
 C453 C 0.40570 0.39698 0.12859
 C454 C 0.39123 0.41206 0.09496
 C455 C 0.35743 0.40239 0.07727
 C456 C 0.33802 0.37814 0.09302
 C457 C 0.38050 0.33341 0.19445
 C458 C 0.40015 0.35748 0.17833
 C459 C 0.28451 0.34431 0.09199
 C460 C 0.30413 0.36834 0.07588
 H461 H 0.39199 0.32240 0.22051
 H462 H 0.42621 0.36431 0.19244
 H463 H 0.25839 0.33754 0.07794
 H464 H 0.29258 0.37939 0.04986
 H465 H 0.25172 0.29907 0.12878
 H466 H 0.33766 0.28833 0.21947
 H467 H 0.43172 0.40424 0.14238
 H468 H 0.34615 0.41378 0.05133
 C469 C 0.85110 0.17415 -0.18676
 C470 C 0.82714 0.19979 -0.17180
 C471 C 0.80587 0.22075 -0.19712
 C472 C 0.80636 0.21443 -0.23672
 C473 C 0.83190 0.18932 -0.25097
 C474 C 0.85462 0.16943 -0.22632
 C475 C 0.87099 0.15066 -0.16065
 C476 C 0.89453 0.12504 -0.17601
 C477 C 0.91207 0.10212 -0.15147
 C478 C 0.90513 0.10380 -0.11187
 C479 C 0.88149 0.12964 -0.09664
 C480 C 0.86469 0.15347 -0.12106
 C481 C 0.87911 0.14387 -0.24053
 C482 C 0.89910 0.12221 -0.21575
 C483 C 0.82300 0.20262 -0.13189
 C484 C 0.84114 0.17975 -0.10701
 H485 H 0.88224 0.14023 -0.27106
 H486 H 0.91729 0.10255 -0.22785
 H487 H 0.80456 0.22215 -0.11982
 H488 H 0.83624 0.18246 -0.07655
 H489 H 0.78576 0.23956 -0.18574
 H490 H 0.83302 0.18463 -0.28146
 H491 H 0.92998 0.08224 -0.16348
 H492 H 0.87630 0.13115 -0.06611
 C493 C 0.84885 0.67958 0.33040
 C494 C 0.81040 0.69240 0.33891
 C495 C 0.78950 0.71141 0.31171
 C496 C 0.80666 0.71702 0.27618
 C497 C 0.84574 0.70534 0.26873
 C498 C 0.86702 0.68642 0.29576
 C499 C 0.86930 0.65670 0.35688
 C500 C 0.90669 0.64239 0.34714
 C501 C 0.92457 0.61872 0.37065
 C502 C 0.90508 0.60891 0.40334
 C503 C 0.86830 0.62436 0.41361
 C504 C 0.85009 0.64815 0.39024
 C505 C 0.90514 0.67259 0.28786
 C506 C 0.92469 0.65100 0.31316
 C507 C 0.79281 0.68432 0.37333
 C508 C 0.81233 0.66259 0.39857
 H509 H 0.91954 0.67779 0.26135
 H510 H 0.95365 0.64023 0.30549
 H511 H 0.76323 0.69415 0.38028
 H512 H 0.79726 0.65636 0.42428
 H513 H 0.75902 0.71995 0.31690
 H514 H 0.85848 0.70922 0.24097
 H515 H 0.95300 0.60709 0.36262
 H516 H 0.85314 0.61696 0.43872
 C517 C 0.34580 0.17741 0.32828
 C518 C 0.36228 0.18418 0.29279
 C519 C 0.34003 0.20362 0.26697
 C520 C 0.30165 0.21591 0.27646
 C521 C 0.28623 0.21031 0.31276
 C522 C 0.30813 0.19077 0.33878
 C523 C 0.36718 0.15415 0.35367
 C524 C 0.34962 0.14578 0.38798
 C525 C 0.36866 0.12178 0.41049
 C526 C 0.40467 0.10598 0.39851
 C527 C 0.42252 0.11553 0.36476
 C528 C 0.40376 0.13940 0.34206
 C529 C 0.29221 0.18277 0.37405
 C530 C 0.31262 0.16067 0.39824
 C531 C 0.39965 0.16984 0.28292
 C532 C 0.42009 0.14788 0.30719
 H533 H 0.26325 0.19300 0.38252
 H534 H 0.29882 0.15457 0.42471
 H535 H 0.41273 0.17497 0.25572
 H536 H 0.44840 0.13677 0.29805
 H537 H 0.35140 0.20752 0.23863
 H538 H 0.25625 0.21932 0.31953
 H539 H 0.35476 0.11462 0.43645
 H540 H 0.45031 0.10361 0.35537
 C541 C 0.35097 0.67739 -0.17036
 C542 C 0.36806 0.68385 -0.20566
 C543 C 0.34640 0.70328 -0.23189
 C544 C 0.30799 0.71586 -0.22299
 C545 C 0.29203 0.71069 -0.18680
 C546 C 0.31332 0.69114 -0.16039
 C547 C 0.37156 0.65394 -0.14470
 C548 C 0.35327 0.64577 -0.11068
 C549 C 0.37145 0.62150 -0.08804
 C550 C 0.40731 0.60523 -0.09962
 C551 C 0.42595 0.61461 -0.13301
 C552 C 0.40805 0.63874 -0.15584
 C553 C 0.29673 0.68340 -0.12534
 C554 C 0.31638 0.66111 -0.10089
 C555 C 0.40537 0.66911 -0.21501
 C556 C 0.42509 0.64699 -0.19046
 H557 H 0.26778 0.69394 -0.11728
 H558 H 0.30205 0.65518 -0.07464
 H559 H 0.41893 0.67401 -0.24205
 H560 H 0.45335 0.63554 -0.19923
 H561 H 0.35815 0.70683 -0.26016
 H562 H 0.26201 0.71990 -0.18050
 H563 H 0.35696 0.61447 -0.06235
 H564 H 0.45366 0.60233 -0.14205
 C565 C 1.16192 -0.16697 -0.18459
 C566 C 1.14664 -0.17306 -0.22077
 C567 C 1.16829 -0.19399 -0.24519
 C568 C 1.20478 -0.20915 -0.23358
 C569 C 1.22012 -0.20241 -0.19750
 C570 C 1.19866 -0.18132 -0.17276
 C571 C 1.13888 -0.14525 -0.15859
 C572 C 1.15408 -0.13898 -0.12240
 C573 C 1.13224 -0.11781 -0.09807
 C574 C 1.09559 -0.10304 -0.10992
 C575 C 1.08057 -0.11008 -0.14602
 C576 C 1.10215 -0.13102 -0.17054
 C577 C 1.21286 -0.17458 -0.13628
 C578 C 1.19098 -0.15373 -0.11155
 C579 C 1.10981 -0.15835 -0.23170
 C580 C 1.08790 -0.13770 -0.20697
 H581 H 1.24111 -0.18552 -0.12676
 H582 H 1.20306 -0.14910 -0.08372
 H583 H 1.09777 -0.16293 -0.25957
 H584 H 1.05961 -0.12681 -0.21648
 H585 H 1.15663 -0.19861 -0.27321
 H586 H 1.24801 -0.21422 -0.18825
 H587 H 1.14401 -0.11246 -0.07033
 H588 H 1.05242 -0.09880 -0.15539
 C589 C 1.15735 0.33443 0.31689
 C590 C 1.14158 0.32871 0.28081
 C591 C 1.16259 0.30759 0.25608
 C592 C 1.19898 0.29195 0.26726
 C593 C 1.21472 0.29827 0.30331
 C594 C 1.19391 0.31949 0.32834
 C595 C 1.13507 0.35642 0.34317
 C596 C 1.15080 0.36229 0.37924
 C597 C 1.12970 0.38366 0.40387
 C598 C 1.09326 0.39908 0.39245
 C599 C 1.07771 0.39250 0.35641
 C600 C 1.09854 0.37130 0.33160
 C601 C 1.20863 0.32585 0.36473
 C602 C 1.18747 0.34691 0.38973
 C603 C 1.10495 0.34403 0.27027
 C604 C 1.08377 0.36496 0.29526
 H605 H 1.23675 0.31446 0.37397
 H606 H 1.19994 0.35123 0.41748
 H607 H 1.09251 0.33977 0.24249
 H608 H 1.05563 0.37633 0.28602
 H609 H 1.15058 0.30331 0.22811
 H610 H 1.24248 0.28607 0.31228
 H611 H 1.14189 0.38863 0.43155
 H612 H 1.04970 0.40426 0.34738
 C613 C 0.66293 -0.16567 0.31379
 C614 C 0.64736 -0.17155 0.27768
 C615 C 0.66868 -0.19253 0.25307
 C616 C 0.70512 -0.20791 0.26446
 C617 C 0.72074 -0.20137 0.30047
 C618 C 0.69963 -0.18026 0.32538
 C619 C 0.64024 -0.14392 0.34000
 C620 C 0.65573 -0.13789 0.37613
 C621 C 0.63421 -0.11675 0.40069
 C622 C 0.59759 -0.10177 0.38913
 C623 C 0.58226 -0.10853 0.35307
 C624 C 0.60352 -0.12947 0.32832
 C625 C 0.71413 -0.17374 0.36180
 C626 C 0.69257 -0.15287 0.38673
 C627 C 0.61057 -0.15662 0.26700
 C628 C 0.58898 -0.13593 0.29194
 H629 H 0.74236 -0.18487 0.37113
 H630 H 0.70486 -0.14842 0.41452
 H631 H 0.59831 -0.16103 0.23918
 H632 H 0.56071 -0.12486 0.28264
 H633 H 0.65681 -0.19703 0.22510
 H634 H 0.74858 -0.21338 0.30955
 H635 H 0.64619 -0.11161 0.42841
 H636 H 0.55411 -0.09708 0.34395
 C637 C 0.66182 0.33089 -0.18015
 C638 C 0.64235 0.32009 -0.21198
 C639 C 0.66282 0.29906 -0.23701
 C640 C 0.70281 0.28816 -0.23074
 C641 C 0.72219 0.30007 -0.19892
 C642 C 0.70166 0.32118 -0.17338
 C643 C 0.64006 0.35304 -0.15367
 C644 C 0.65937 0.36402 -0.12168
 C645 C 0.63854 0.38557 -0.09698
 C646 C 0.59898 0.39630 -0.10466
 C647 C 0.58009 0.38470 -0.13659
 C648 C 0.60043 0.36311 -0.16117
 C649 C 0.71999 0.33260 -0.14095
 C650 C 0.69920 0.35360 -0.11553
 C651 C 0.60264 0.33059 -0.21843
 C652 C 0.58202 0.35176 -0.19344
 H653 H 0.75068 0.32527 -0.13518
 H654 H 0.71452 0.36189 -0.09100
 H655 H 0.58736 0.32239 -0.24305
 H656 H 0.55146 0.35938 -0.19950
 H657 H 0.64738 0.29237 -0.26222
 H658 H 0.75254 0.29217 -0.19273
 H659 H 0.65333 0.39457 -0.07253
 H660 H 0.54964 0.39278 -0.14263
 C661 C 1.16545 0.15428 -0.14306
 C662 C 1.19446 0.16713 -0.12134
 C663 C 1.21557 0.19027 -0.13761
 C664 C 1.20759 0.20075 -0.17538
 C665 C 1.17908 0.18659 -0.19684
 C666 C 1.15757 0.16389 -0.18075
 C667 C 1.14357 0.12970 -0.12639
 C668 C 1.11470 0.11679 -0.14830
 C669 C 1.09422 0.09323 -0.13249
 C670 C 1.10303 0.08218 -0.09537
 C671 C 1.13205 0.09533 -0.07373
 C672 C 1.15233 0.11924 -0.08909
 C673 C 1.12854 0.15043 -0.20183
 C674 C 1.10729 0.12739 -0.18579
 C675 C 1.20212 0.15627 -0.08394
 C676 C 1.18144 0.13271 -0.06809
 H677 H 1.12219 0.15778 -0.23098
 H678 H 1.08515 0.11758 -0.20299
 H679 H 1.22444 0.16593 -0.06683
 H680 H 1.18841 0.12488 -0.03924
 H681 H 1.23871 0.19914 -0.12102
 H682 H 1.17382 0.19311 -0.22645
 H683 H 1.07204 0.08307 -0.14930
 H684 H 1.13882 0.08699 -0.04502
 C685 C 1.16240 0.65566 0.35911
 C686 C 1.19254 0.66837 0.37937
 C687 C 1.21287 0.69149 0.36202
 C688 C 1.20308 0.70199 0.32464
 C689 C 1.17342 0.68807 0.30460
 C690 C 1.15261 0.66542 0.32181
 C691 C 1.14130 0.63109 0.37689
 C692 C 1.11125 0.61840 0.35643
 C693 C 1.09146 0.59491 0.37326
 C694 C 1.10203 0.58368 0.40994
 C695 C 1.13227 0.59657 0.43013
 C696 C 1.15192 0.62046 0.41374
 C697 C 1.12244 0.65215 0.30223
 C698 C 1.10192 0.62915 0.31935
 C699 C 1.20207 0.65736 0.41638
 C700 C 1.18214 0.63379 0.43325
 H701 H 1.11461 0.65960 0.27342
 H702 H 1.07883 0.61949 0.30329
 H703 H 1.22528 0.66692 0.43236
 H704 H 1.19057 0.62585 0.46173
 H705 H 1.23685 0.70039 0.37739
 H706 H 1.16673 0.69469 0.27527
 H707 H 1.06833 0.58499 0.35752
 H708 H 1.14039 0.58809 0.45849
 C709 C 0.66669 0.15433 0.35719
 C710 C 0.69586 0.16714 0.37876
 C711 C 0.71712 0.19003 0.36227
 C712 C 0.70927 0.20017 0.32442
 C713 C 0.68066 0.18611 0.30304
 C714 C 0.65889 0.16370 0.31939
 C715 C 0.64447 0.13012 0.37419
 C716 C 0.61533 0.11734 0.35251
 C717 C 0.59456 0.09410 0.36865
 C718 C 0.60344 0.08323 0.40583
 C719 C 0.63267 0.09629 0.42723
 C720 C 0.65320 0.11989 0.41158
 C721 C 0.62959 0.15038 0.29854
 C722 C 0.60799 0.12770 0.31491
 C723 C 0.70346 0.15651 0.41625
 C724 C 0.68255 0.13322 0.43235
 H725 H 0.62330 0.15755 0.26932
 H726 H 0.58565 0.11797 0.29789
 H727 H 0.72592 0.16613 0.43322
 H728 H 0.68955 0.12548 0.46122
 H729 H 0.74019 0.19910 0.37878
 H730 H 0.67540 0.19264 0.27343
 H731 H 0.57221 0.08397 0.35203
 H732 H 0.63947 0.08807 0.45599
 C733 C 0.65937 0.65816 -0.13839
 C734 C 0.68713 0.67275 -0.11695
 C735 C 0.70730 0.69616 -0.13407
 C736 C 0.69976 0.70515 -0.17259
 C737 C 0.67264 0.68883 -0.19360
 C738 C 0.65186 0.66620 -0.17660
 C739 C 0.63884 0.63307 -0.12105
 C740 C 0.61136 0.61842 -0.14286
 C741 C 0.59234 0.59431 -0.12658
 C742 C 0.60134 0.58424 -0.08914
 C743 C 0.62900 0.59905 -0.06754
 C744 C 0.64773 0.62370 -0.08337
 C745 C 0.62420 0.65104 -0.19752
 C746 C 0.60401 0.62771 -0.18081
 C747 C 0.69479 0.66306 -0.07906
 C748 C 0.67550 0.63892 -0.06260
 H749 H 0.61816 0.65722 -0.22710
 H750 H 0.58294 0.61654 -0.19791
 H751 H 0.71617 0.67401 -0.06210
 H752 H 0.68258 0.63197 -0.03347
 H753 H 0.72976 0.70613 -0.11761
 H754 H 0.66818 0.69323 -0.22387
 H755 H 0.57126 0.58286 -0.14339
 H756 H 0.63588 0.59143 -0.03857
 C757 C 0.82607 -0.15846 -0.14664
 C758 C 0.83784 -0.17105 -0.18232
 C759 C 0.81769 -0.19498 -0.19829
 C760 C 0.78598 -0.20675 -0.17870
 C761 C 0.77495 -0.19350 -0.14267
 C762 C 0.79468 -0.16947 -0.12671
 C763 C 0.84701 -0.13323 -0.12978
 C764 C 0.83481 -0.12040 -0.09427
 C765 C 0.85458 -0.09628 -0.07849
 C766 C 0.88659 -0.08516 -0.09779
 C767 C 0.89864 -0.09847 -0.13327
 C768 C 0.87878 -0.12242 -0.14949
 C769 C 0.78340 -0.15612 -0.09118
 C770 C 0.80308 -0.13199 -0.07527
 C771 C 0.86980 -0.15958 -0.20119
 C772 C 0.88994 -0.13575 -0.18505
 H773 H 0.75912 -0.16438 -0.07550
 H774 H 0.79340 -0.12237 -0.04783
 H775 H 0.87937 -0.16911 -0.22870
 H776 H 0.91441 -0.12764 -0.20059
 H777 H 0.82819 -0.20508 -0.22515
 H778 H 0.74996 -0.20070 -0.12726
 H779 H 0.84521 -0.08632 -0.05112
 H780 H 0.92319 -0.09005 -0.14837
 C781 C 0.83409 0.33906 0.36039
 C782 C 0.80031 0.32929 0.37762
 C783 C 0.78191 0.30488 0.36092
 C784 C 0.79708 0.29017 0.32723
 C785 C 0.83107 0.30022 0.31040
 C786 C 0.84973 0.32467 0.32689
 C787 C 0.85322 0.36506 0.37756
 C788 C 0.88688 0.37495 0.36021
 C789 C 0.90478 0.39983 0.37645
 C790 C 0.88916 0.41487 0.40972
 C791 C 0.85546 0.40457 0.42685
 C792 C 0.83735 0.37964 0.41086
 C793 C 0.88360 0.33514 0.31050
 C794 C 0.90187 0.35985 0.32688
 C795 C 0.78539 0.34433 0.41102
 C796 C 0.80361 0.36905 0.42738
 H797 H 0.89602 0.32423 0.28470
 H798 H 0.92787 0.36725 0.31325
 H799 H 0.75933 0.33698 0.42459
 H800 H 0.79111 0.38003 0.45310
 H801 H 0.75525 0.29790 0.37369
 H802 H 0.84313 0.28891 0.28470
 H803 H 0.93075 0.40756 0.36307
 H804 H 0.84334 0.41592 0.45252
 C805 C 0.33166 -0.16092 0.35629
 C806 C 0.34624 -0.17563 0.32259
 C807 C 0.32629 -0.19955 0.30644
 C808 C 0.29207 -0.20875 0.32383
 C809 C 0.27794 -0.19362 0.35763
 C810 C 0.29762 -0.16977 0.37399
 C811 C 0.35225 -0.13559 0.37324
 C812 C 0.33744 -0.12077 0.40678
 C813 C 0.35689 -0.09652 0.42261
 C814 C 0.39090 -0.08705 0.40512
 C815 C 0.40549 -0.10231 0.37159
 C816 C 0.38621 -0.12658 0.35549
 C817 C 0.28378 -0.15447 0.40759
 C818 C 0.30337 -0.13040 0.42373
 C819 C 0.38042 -0.16605 0.30575
 C820 C 0.40006 -0.14197 0.32191
 H821 H 0.25754 -0.16111 0.42152
 H822 H 0.29169 -0.11920 0.44964
 H823 H 0.39204 -0.17722 0.27980
 H824 H 0.42625 -0.13527 0.30794
 H825 H 0.33760 -0.21119 0.28065
 H826 H 0.25115 -0.19991 0.37084
 H827 H 0.34550 -0.08500 0.44845
 H828 H 0.43166 -0.09520 0.35796
 C829 C 0.33540 0.33684 -0.14267
 C830 C 0.34612 0.32614 -0.17945
 C831 C 0.32631 0.30243 -0.19622
 C832 C 0.29594 0.28905 -0.17643
 C833 C 0.28636 0.29998 -0.13902
 C834 C 0.30567 0.32391 -0.12227
 C835 C 0.35550 0.36227 -0.12527
 C836 C 0.34409 0.37346 -0.08880
 C837 C 0.36277 0.39803 -0.07269
 C838 C 0.39295 0.41113 -0.09265
 C839 C 0.40439 0.39933 -0.12899
 C840 C 0.38554 0.37504 -0.14556
 C841 C 0.29533 0.33550 -0.08566
 C842 C 0.31414 0.35989 -0.06925
 C843 C 0.37647 0.33943 -0.19880
 C844 C 0.39590 0.36339 -0.18212
 H845 H 0.27234 0.32575 -0.06960
 H846 H 0.30513 0.36821 -0.04104
 H847 H 0.38520 0.33132 -0.22716
 H848 H 0.41905 0.37302 -0.19808
 H849 H 0.33582 0.29388 -0.22414
 H850 H 0.26253 0.29126 -0.12325
 H851 H 0.35397 0.40684 -0.04462
 H852 H 0.42756 0.40931 -0.14457
 C853 C 1.15726 -0.16535 0.18279
 C854 C 1.19383 -0.18030 0.17137
 C855 C 1.21465 -0.20144 0.19644
 C856 C 1.19889 -0.20767 0.23249
 C857 C 1.16250 -0.19200 0.24364
 C858 C 1.14148 -0.17096 0.21887
 C859 C 1.13496 -0.14345 0.15646
 C860 C 1.09841 -0.12857 0.16799
 C861 C 1.07754 -0.10747 0.14313
 C862 C 1.09308 -0.10099 0.10707
 C863 C 1.12955 -0.11641 0.09570
 C864 C 1.15068 -0.13768 0.12037
 C865 C 1.10484 -0.15563 0.22937
 C866 C 1.08363 -0.13480 0.20434
 C867 C 1.20855 -0.17403 0.13497
 C868 C 1.18737 -0.15306 0.10992
 H869 H 1.09239 -0.15983 0.25716
 H870 H 1.05548 -0.12343 0.21355
 H871 H 1.23668 -0.18543 0.12576
 H872 H 1.19985 -0.14882 0.08217
 H873 H 1.24242 -0.21366 0.18750
 H874 H 1.15048 -0.19620 0.27161
 H875 H 1.04951 -0.09571 0.15213
 H876 H 1.14174 -0.11151 0.06800
 C877 C 1.16207 0.33381 0.68461
 C878 C 1.19863 0.31909 0.67279
 C879 C 1.21988 0.29796 0.69760
 C880 C 1.20448 0.29153 0.73374
 C881 C 1.16822 0.30711 0.74535
 C882 C 1.14678 0.32807 0.72086
 C883 C 1.13919 0.35553 0.65852
 C884 C 1.10260 0.37005 0.67045
 C885 C 1.08113 0.39091 0.64583
 C886 C 1.09610 0.39761 0.60962
 C887 C 1.13264 0.38259 0.59780
 C888 C 1.15438 0.36146 0.62225
 C889 C 1.11012 0.34310 0.73180
 C890 C 1.08836 0.36372 0.70698
 C891 C 1.21283 0.32552 0.63622
 C892 C 1.19112 0.34639 0.61141
 H893 H 1.09808 0.33879 0.75973
 H894 H 1.06018 0.37485 0.71648
 H895 H 1.24095 0.31432 0.62669
 H896 H 1.20320 0.35075 0.58352
 H897 H 1.24760 0.28584 0.68837
 H898 H 1.15653 0.30278 0.77343
 H899 H 1.05306 0.40238 0.65519
 H900 H 1.14438 0.38768 0.56997
 C901 C 0.66101 -0.16913 0.68002
 C902 C 0.70081 -0.17902 0.67334
 C903 C 0.72112 -0.20019 0.69890
 C904 C 0.70157 -0.21197 0.73067
 C905 C 0.66162 -0.20088 0.73683
 C906 C 0.64136 -0.17980 0.71177
 C907 C 0.63947 -0.14691 0.65352
 C908 C 0.59987 -0.13667 0.66092
 C909 C 0.57974 -0.11500 0.63635
 C910 C 0.59883 -0.10347 0.60452
 C911 C 0.63836 -0.11438 0.59693
 C912 C 0.65896 -0.13602 0.62162
 C913 C 0.60168 -0.16913 0.71812
 C914 C 0.58126 -0.14792 0.69310
 C915 C 0.71933 -0.16771 0.64100
 C916 C 0.69876 -0.14663 0.61557
 H917 H 0.58625 -0.17725 0.74267
 H918 H 0.55073 -0.14016 0.69907
 H919 H 0.75000 -0.17518 0.63530
 H920 H 0.71422 -0.13842 0.59111
 H921 H 0.75146 -0.20822 0.69278
 H922 H 0.64605 -0.20744 0.76199
 H923 H 0.54932 -0.10678 0.64232
 H924 H 0.65329 -0.10544 0.57255
 C925 C 0.66298 0.33416 0.18605
 C926 C 0.69969 0.31958 0.17446
 C927 C 0.72081 0.29850 0.19934
 C928 C 0.70519 0.29199 0.23535
 C929 C 0.66874 0.30736 0.24674
 C930 C 0.64741 0.32830 0.22215
 C931 C 0.64029 0.35587 0.15987
 C932 C 0.60356 0.37032 0.17155
 C933 C 0.58230 0.39123 0.14683
 C934 C 0.59763 0.39798 0.11079
 C935 C 0.63426 0.38301 0.09922
 C936 C 0.65579 0.36189 0.12375
 C937 C 0.61060 0.34323 0.23283
 C938 C 0.58901 0.36388 0.20791
 C939 C 0.71420 0.32607 0.13805
 C940 C 0.69264 0.34692 0.11315
 H941 H 0.59834 0.33883 0.26063
 H942 H 0.56073 0.37494 0.21722
 H943 H 0.74244 0.31495 0.12872
 H944 H 0.70494 0.35136 0.08537
 H945 H 0.74865 0.28649 0.19026
 H946 H 0.65686 0.30288 0.27470
 H947 H 0.55414 0.40266 0.15596
 H948 H 0.64625 0.38815 0.07152
 C949 C 0.84884 0.17954 0.16913
 C950 C 0.86706 0.18642 0.20375
 C951 C 0.84581 0.20535 0.23084
 C952 C 0.80670 0.21697 0.22346
 C953 C 0.78948 0.21133 0.18796
 C954 C 0.81037 0.19232 0.16070
 C955 C 0.86926 0.15665 0.14260
 C956 C 0.85000 0.14805 0.10927
 C957 C 0.86818 0.12422 0.08587
 C958 C 0.90497 0.10879 0.09609
 C959 C 0.92452 0.11867 0.12874
 C960 C 0.90668 0.14237 0.15227
 C961 C 0.79272 0.18420 0.12629
 C962 C 0.81222 0.16246 0.10100
 C963 C 0.90521 0.17264 0.21159
 C964 C 0.92473 0.15103 0.18623
 H965 H 0.76312 0.19400 0.11940
 H966 H 0.79711 0.15619 0.07531
 H967 H 0.91964 0.17787 0.23807
 H968 H 0.95371 0.14028 0.19385
 H969 H 0.85858 0.20926 0.25859
 H970 H 0.75898 0.21984 0.18282
 H971 H 0.85297 0.11678 0.06079
 H972 H 0.95296 0.10705 0.13672
 C973 C 0.84984 0.67360 0.68700
 C974 C 0.85261 0.66851 0.72653
 C975 C 0.82967 0.68832 0.75113
 C976 C 0.80466 0.71374 0.73690
 C977 C 0.80492 0.72039 0.69741
 C978 C 0.82640 0.69952 0.67209
 C979 C 0.87003 0.65027 0.66082
 C980 C 0.86449 0.65350 0.62118
 C981 C 0.88160 0.62984 0.59662
 C982 C 0.90482 0.60378 0.61178
 C983 C 0.91100 0.60167 0.65147
 C984 C 0.89312 0.62441 0.67612
 C985 C 0.82302 0.70275 0.63217
 C986 C 0.84142 0.68002 0.60720
 C987 C 0.87664 0.64269 0.74070
 C988 C 0.89691 0.62118 0.71589
 H989 H 0.80499 0.72249 0.62013
 H990 H 0.83712 0.68305 0.57670
 H991 H 0.87919 0.63875 0.77121
 H992 H 0.91474 0.60132 0.72795
 H993 H 0.83031 0.68340 0.78155
 H994 H 0.78525 0.73946 0.68602
 H995 H 0.87700 0.63168 0.56602
 H996 H 0.92856 0.58160 0.66341
 C997 C 0.35050 0.17703 0.67265
 C998 C 0.36715 0.18302 0.70833
 C999 C 0.34540 0.20251 0.73450
 C1000 C 0.30735 0.21566 0.72515
 C1001 C 0.29182 0.21087 0.68866
 C1002 C 0.31319 0.19124 0.66231
 C1003 C 0.37121 0.15367 0.64686
 C1004 C 0.35337 0.14603 0.61237
 C1005 C 0.37170 0.12194 0.58946
 C1006 C 0.40732 0.10539 0.60119
 C1007 C 0.42549 0.11422 0.63513
 C1008 C 0.40741 0.13813 0.65826
 C1009 C 0.29703 0.18396 0.62686
 C1010 C 0.31678 0.16174 0.60231
 C1011 C 0.40414 0.16788 0.71801
 C1012 C 0.42399 0.14587 0.69334
 H1013 H 0.26834 0.19484 0.61850
 H1014 H 0.30278 0.15621 0.57570
 H1015 H 0.41736 0.17241 0.74535
 H1016 H 0.45202 0.13414 0.70232
 H1017 H 0.35682 0.20577 0.76299
 H1018 H 0.26207 0.22051 0.68199
 H1019 H 0.35757 0.11534 0.56335
 H1020 H 0.45299 0.10172 0.64433
 C1021 C 0.34545 0.67725 0.17184
 C1022 C 0.36201 0.68419 0.20725
 C1023 C 0.33987 0.70383 0.23300
 C1024 C 0.30150 0.71615 0.22353
 C1025 C 0.28599 0.71036 0.18730
 C1026 C 0.30779 0.69063 0.16135
 C1027 C 0.36672 0.65381 0.14653
 C1028 C 0.34908 0.64529 0.11230
 C1029 C 0.36805 0.62117 0.08985
 C1030 C 0.40408 0.60541 0.10182
 C1031 C 0.42198 0.61509 0.13551
 C1032 C 0.40330 0.63908 0.15813
 C1033 C 0.29178 0.68245 0.12616
 C1034 C 0.31208 0.66019 0.10204
 C1035 C 0.39937 0.66984 0.21713
 C1036 C 0.41971 0.64772 0.19293
 H1037 H 0.26282 0.69268 0.11768
 H1038 H 0.29822 0.65398 0.07563
 H1039 H 0.41252 0.67510 0.24426
 H1040 H 0.44802 0.63662 0.20207
 H1041 H 0.35130 0.70785 0.26130
 H1042 H 0.25602 0.71938 0.18053
 H1043 H 0.35410 0.61391 0.06394
 H1044 H 0.44979 0.60320 0.14488
   
