data_POSCAR
  _audit_creation_date              2014-09-24
  _audit_creation_method            'ToBaCCo'
  _symmetry_space_group_name_H-M    'P1'
  _symmetry_Int_Tables_number       1
  _symmetry_cell_setting            triclinic
  loop_
  _symmetry_equiv_pos_as_xyz
 x,y,z
_cell_length_a 34.1049
_cell_length_b 25.7962
_cell_length_c 28.6065
_cell_angle_alpha 90.114100
_cell_angle_beta 89.993200
_cell_angle_gamma 89.810300
loop_
  _atom_site_label
  _atom_site_type_symbol
  _atom_site_fract_x
  _atom_site_fract_y
  _atom_site_fract_z
C1 C 0.25010 0.27444 0.24896
 C2 C 0.24980 0.22144 0.24833
 C3 C 0.22346 0.19176 0.21671
 C4 C 0.27550 0.19073 0.27982
 C5 C 0.27996 0.30387 0.27613
 C6 C 0.22048 0.30538 0.22274
 C7 C 0.19879 0.15373 0.23508
 C8 C 0.17190 0.12804 0.20650
 C9 C 0.16865 0.13955 0.15810
 C10 C 0.19511 0.17685 0.13995
 C11 C 0.22216 0.20203 0.16871
 C12 C 0.27453 0.19855 0.32838
 C13 C 0.30081 0.17231 0.35743
 C14 C 0.32841 0.13747 0.33850
 C15 C 0.32826 0.12832 0.28999
 C16 C 0.30188 0.15450 0.26099
 C17 C 0.32011 0.29214 0.27209
 C18 C 0.34760 0.31784 0.29980
 C19 C 0.33562 0.35699 0.33083
 C20 C 0.29577 0.37051 0.33330
 C21 C 0.26814 0.34398 0.30632
 C22 C 0.23263 0.34569 0.19321
 C23 C 0.20523 0.37313 0.16655
 C24 C 0.16532 0.36032 0.16873
 C25 C 0.15298 0.32123 0.19937
 C26 C 0.18024 0.29463 0.22678
 H27 H 0.19928 0.14524 0.27215
 H28 H 0.15215 0.10184 0.22399
 H29 H 0.19660 0.18576 0.10312
 H30 H 0.24193 0.23011 0.15349
 H31 H 0.25384 0.22566 0.34363
 H32 H 0.29961 0.17939 0.39472
 H33 H 0.30295 0.14788 0.22360
 H34 H 0.33011 0.26260 0.24790
 H35 H 0.37829 0.30742 0.29684
 H36 H 0.28595 0.40065 0.35701
 H37 H 0.23741 0.35405 0.30969
 H38 H 0.26345 0.35503 0.18993
 H39 H 0.21528 0.40324 0.14314
 H40 H 0.12222 0.31135 0.20206
 H41 H 0.17003 0.26490 0.25046
 H42 H 0.34934 0.10214 0.27423
 C43 C 0.74978 0.22204 0.24970
 C44 C 0.75192 0.27476 0.25197
 C45 C 0.78208 0.30478 0.22608
 C46 C 0.72312 0.30484 0.27981
 C47 C 0.72204 0.19284 0.27962
 C48 C 0.77514 0.19132 0.21779
 C49 C 0.82197 0.29109 0.22829
 C50 C 0.84957 0.31735 0.20122
 C51 C 0.83798 0.35889 0.17272
 C52 C 0.79849 0.37434 0.17233
 C53 C 0.77075 0.34738 0.19865
 C54 C 0.73528 0.33176 0.31985
 C55 C 0.70788 0.35820 0.34740
 C56 C 0.66815 0.35916 0.33452
 C57 C 0.65622 0.33333 0.29370
 C58 C 0.68349 0.30600 0.26672
 C59 C 0.69348 0.16108 0.25920
 C60 C 0.66612 0.13541 0.28717
 C61 C 0.66708 0.14079 0.33611
 C62 C 0.69652 0.17152 0.35645
 C63 C 0.72381 0.19713 0.32847
 C64 C 0.77570 0.20137 0.16960
 C65 C 0.80212 0.17527 0.14048
 C66 C 0.82836 0.13842 0.15899
 C67 C 0.82657 0.12707 0.20703
 C68 C 0.80004 0.15306 0.23607
 H69 H 0.83166 0.25955 0.25041
 H70 H 0.88001 0.30534 0.20258
 H71 H 0.78895 0.40627 0.15055
 H72 H 0.74025 0.35898 0.19669
 H73 H 0.76581 0.33124 0.33027
 H74 H 0.71765 0.37812 0.37864
 H75 H 0.67377 0.28554 0.23574
 H76 H 0.69179 0.15722 0.22154
 H77 H 0.64364 0.11239 0.27043
 H78 H 0.69856 0.17557 0.39405
 H79 H 0.74622 0.22059 0.34489
 H80 H 0.75619 0.23018 0.15474
 H81 H 0.80215 0.18413 0.10351
 H82 H 0.84658 0.09934 0.22252
 H83 H 0.79997 0.14475 0.27317
 H84 H 0.62568 0.33341 0.28333
 C85 C 0.75028 0.77614 0.75012
 C86 C 0.74912 0.72316 0.75078
 C87 C 0.72248 0.69353 0.71960
 C88 C 0.77443 0.69233 0.78260
 C89 C 0.78067 0.80578 0.77642
 C90 C 0.72089 0.80679 0.72323
 C91 C 0.69561 0.65850 0.73882
 C92 C 0.66867 0.63298 0.71018
 C93 C 0.66837 0.64156 0.66162
 C94 C 0.69624 0.67544 0.64231
 C95 C 0.72312 0.70103 0.67102
 C96 C 0.77423 0.70147 0.83098
 C97 C 0.80047 0.67521 0.86011
 C98 C 0.82723 0.63909 0.84141
 C99 C 0.82622 0.62863 0.79314
 C100 C 0.79989 0.65478 0.76409
 C101 C 0.82041 0.79168 0.77426
 C102 C 0.84818 0.81725 0.80166
 C103 C 0.83735 0.85953 0.83034
 C104 C 0.79772 0.87560 0.82990
 C105 C 0.76977 0.84868 0.80372
 C106 C 0.73328 0.84572 0.69237
 C107 C 0.70595 0.87287 0.66532
 C108 C 0.66590 0.86108 0.66844
 C109 C 0.65337 0.82336 0.70032
 C110 C 0.68055 0.79711 0.72809
 H111 H 0.69471 0.65218 0.77623
 H112 H 0.64736 0.60760 0.72624
 H113 H 0.69732 0.68209 0.60498
 H114 H 0.74413 0.72723 0.65545
 H115 H 0.75426 0.72967 0.84600
 H116 H 0.79993 0.68336 0.89724
 H117 H 0.80040 0.64715 0.72684
 H118 H 0.83000 0.76040 0.75168
 H119 H 0.87843 0.80484 0.79882
 H120 H 0.78755 0.90711 0.85183
 H121 H 0.73935 0.86068 0.80568
 H122 H 0.76418 0.85423 0.68844
 H123 H 0.71614 0.90194 0.64095
 H124 H 0.62251 0.81430 0.70371
 H125 H 0.67017 0.76854 0.75281
 H126 H 0.84666 0.60147 0.77753
 C127 C 0.24940 0.72220 0.75059
 C128 C 0.25176 0.77492 0.75237
 C129 C 0.28188 0.80452 0.72600
 C130 C 0.22315 0.80545 0.77998
 C131 C 0.22143 0.69342 0.78061
 C132 C 0.27458 0.69106 0.71882
 C133 C 0.32175 0.79071 0.72813
 C134 C 0.34934 0.81664 0.70077
 C135 C 0.33777 0.85801 0.67204
 C136 C 0.29830 0.87353 0.67165
 C137 C 0.27057 0.84688 0.69825
 C138 C 0.23439 0.82803 0.82237
 C139 C 0.20693 0.85450 0.84976
 C140 C 0.16780 0.86070 0.83446
 C141 C 0.15731 0.83926 0.79073
 C142 C 0.18456 0.81131 0.76422
 C143 C 0.19336 0.66089 0.76042
 C144 C 0.16607 0.63508 0.78839
 C145 C 0.16609 0.64123 0.83757
 C146 C 0.19543 0.67306 0.85740
 C147 C 0.22282 0.69830 0.82933
 C148 C 0.27488 0.70050 0.67053
 C149 C 0.30121 0.67413 0.64149
 C150 C 0.32762 0.63763 0.66018
 C151 C 0.32608 0.62685 0.70835
 C152 C 0.29964 0.65311 0.73731
 H153 H 0.33145 0.75936 0.75046
 H154 H 0.37977 0.80458 0.70213
 H155 H 0.28876 0.90531 0.64968
 H156 H 0.24010 0.85860 0.69626
 H157 H 0.26429 0.82415 0.83469
 H158 H 0.21697 0.87163 0.88216
 H159 H 0.17553 0.79393 0.73145
 H160 H 0.19194 0.65649 0.72279
 H161 H 0.14387 0.61251 0.77075
 H162 H 0.19849 0.67733 0.89483
 H163 H 0.24529 0.72166 0.84572
 H164 H 0.25525 0.72907 0.65553
 H165 H 0.30103 0.68253 0.60443
 H166 H 0.34623 0.59941 0.72399
 H167 H 0.29976 0.64527 0.77450
 H168 H 0.12754 0.84151 0.77780
 O169 O 0.96121 0.00591 -0.06265
 O170 O 1.03897 0.06661 0.00801
 O171 O 1.03735 0.00494 -0.06472
 O172 O 0.96243 0.06697 0.00953
 O173 O 0.96112 -0.00258 0.05422
 O174 O 1.04091 -0.06058 -0.01528
 O175 O 1.03761 0.00035 0.05656
 O176 O 0.96496 -0.06411 -0.01854
 Cu177 Cu 0.99999 0.04303 -0.03208
 Cu178 Cu 1.00109 -0.03848 0.02404
 C179 C 0.95048 -0.03996 -0.05316
 C180 C 1.05134 0.04408 0.04466
 C181 C 1.05220 -0.03814 -0.05235
 C182 C 0.94845 0.04242 0.04415
 O183 O 0.53959 0.43744 0.48593
 O184 O 0.46069 0.49647 0.55618
 O185 O 0.46356 0.43479 0.48370
 O186 O 0.53729 0.49882 0.55770
 O187 O 0.53755 0.56580 0.50989
 O188 O 0.46105 0.50382 0.43832
 O189 O 0.46117 0.56521 0.51045
 O190 O 0.53725 0.50382 0.43742
 Cu191 Cu 0.50026 0.46016 0.52569
 Cu192 Cu 0.49924 0.54152 0.46937
 C193 C 0.55154 0.46025 0.44933
 C194 C 0.44760 0.54110 0.54556
 C195 C 0.44963 0.45839 0.44845
 C196 C 0.55039 0.54303 0.54618
 O197 O -0.03901 0.56660 -0.00936
 O198 O 0.03871 0.50606 0.06153
 O199 O 0.03739 0.56679 -0.01089
 O200 O -0.03765 0.50550 0.06302
 O201 O -0.03721 0.43679 0.01689
 O202 O 0.03670 0.49898 -0.05797
 O203 O 0.03824 0.43782 0.01485
 O204 O -0.03988 0.49795 -0.05543
 Cu205 Cu -0.00012 0.54314 0.03069
 Cu206 Cu -0.00053 0.46119 -0.02529
 C207 C -0.05287 0.54254 -0.04441
 C208 C 0.05146 0.46134 0.05054
 C209 C 0.04987 0.54343 -0.04712
 C210 C -0.04989 0.46037 0.05289
 O211 O 0.46071 1.06485 0.48940
 O212 O 0.53864 1.00530 0.56064
 O213 O 0.53694 1.06582 0.48803
 O214 O 0.46219 1.00424 0.56212
 O215 O 0.46273 0.93548 0.51607
 O216 O 0.53715 0.99738 0.44171
 O217 O 0.53823 0.93655 0.51455
 O218 O 0.46053 0.99624 0.44328
 Cu219 Cu 0.49960 1.04194 0.52967
 Cu220 Cu 0.49967 0.95968 0.47407
 C221 C 0.44729 1.04076 0.45412
 C222 C 0.55146 0.96050 0.55000
 C223 C 0.54987 1.04217 0.45220
 C224 C 0.44999 0.95910 0.55202
 C225 C 1.12281 0.06895 0.14354
 C226 C 1.14093 0.11617 0.13035
 C227 C 1.12860 0.13843 0.08741
 C228 C 1.09964 0.11522 0.05989
 C229 C 1.08201 0.06876 0.07377
 C230 C 1.09407 0.04583 0.11575
 H231 H 1.13169 0.04755 0.17418
 H232 H 1.13928 0.17547 0.07546
 H233 H 1.09081 0.13412 0.02778
 H234 H 1.08142 0.00955 0.12721
 C235 C 0.62721 0.56455 0.63993
 C236 C 0.63866 0.61597 0.63143
 C237 C 0.62099 0.64308 0.59434
 C238 C 0.59250 0.61936 0.56651
 C239 C 0.58086 0.56809 0.57529
 C240 C 0.59858 0.54093 0.61228
 H241 H 0.64063 0.54233 0.66777
 H242 H 0.62867 0.68301 0.58731
 H243 H 0.57929 0.64141 0.53841
 H244 H 0.59046 0.50126 0.61978
 C245 C -0.12997 0.43936 0.14257
 C246 C -0.13316 0.38511 0.14244
 C247 C -0.10900 0.35586 0.11262
 C248 C -0.08230 0.38044 0.08310
 C249 C -0.07876 0.43470 0.08348
 C250 C -0.10269 0.46393 0.11369
 H251 H -0.14829 0.46261 0.16542
 H252 H -0.11122 0.31398 0.11171
 H253 H -0.06408 0.35694 0.06035
 H254 H -0.10060 0.50581 0.11462
 C255 C 0.36982 0.93833 0.64164
 C256 C 0.36664 0.88409 0.64166
 C257 C 0.39082 0.85473 0.61194
 C258 C 0.41753 0.87922 0.58236
 C259 C 0.42106 0.93348 0.58260
 C260 C 0.39710 0.96281 0.61271
 H261 H 0.35149 0.96166 0.66441
 H262 H 0.38861 0.81285 0.61116
 H263 H 0.43578 0.85565 0.55969
 H264 H 0.39919 1.00469 0.61353
 C265 C -0.13234 0.56160 -0.13547
 C266 C -0.14304 0.61369 -0.12823
 C267 C -0.12426 0.64185 -0.09260
 C268 C -0.09529 0.61861 -0.06509
 C269 C -0.08424 0.56676 -0.07278
 C270 C -0.10320 0.53845 -0.10815
 H271 H -0.14662 0.53861 -0.16216
 H272 H -0.13132 0.68228 -0.08661
 H273 H -0.08113 0.64155 -0.03826
 H274 H -0.09555 0.49832 -0.11473
 C275 C 0.36945 1.06032 0.36110
 C276 C 0.35802 1.11202 0.36898
 C277 C 0.37582 1.13975 0.40560
 C278 C 0.40449 1.11645 0.43349
 C279 C 0.41620 1.06495 0.42527
 C280 C 0.39827 1.03708 0.38886
 H281 H 0.35594 1.03768 0.33360
 H282 H 0.36820 1.17990 0.41210
 H283 H 0.41786 1.13907 0.46110
 H284 H 0.40649 0.99725 0.38179
 C285 C 1.14197 -0.11446 -0.08826
 C286 C 1.13973 -0.11302 -0.13756
 C287 C 1.10838 -0.08526 -0.15805
 C288 C 1.08061 -0.05975 -0.13032
 C289 C 1.08261 -0.06273 -0.08149
 C290 C 1.11338 -0.09040 -0.06070
 H291 H 1.16464 -0.13638 -0.07060
 H292 H 1.10587 -0.08145 -0.19560
 H293 H 1.05705 -0.03850 -0.14707
 H294 H 1.11540 -0.09326 -0.02299
 C295 C 0.63618 0.37452 0.41186
 C296 C 0.63901 0.38616 0.36409
 C297 C 0.61341 0.42294 0.34460
 C298 C 0.58546 0.44787 0.37254
 C299 C 0.58210 0.43555 0.42019
 C300 C 0.60769 0.39860 0.43958
 H301 H 0.65552 0.34601 0.42747
 H302 H 0.61524 0.43253 0.30782
 H303 H 0.56598 0.47603 0.35668
 H304 H 0.60579 0.38850 0.47624
 C305 C 0.86206 -0.06204 -0.13021
 C306 C 0.86537 -0.11535 -0.14096
 C307 C 0.89731 -0.14315 -0.12185
 C308 C 0.92441 -0.11879 -0.09261
 C309 C 0.92117 -0.06571 -0.08292
 C310 C 0.89003 -0.03742 -0.10224
 H311 H 0.83886 -0.03847 -0.14492
 H312 H 0.90065 -0.18441 -0.12762
 H313 H 0.94827 -0.14135 -0.07801
 H314 H 0.88708 0.00370 -0.09528
 C315 C 0.36685 0.43741 0.36233
 C316 C 0.36461 0.38311 0.36106
 C317 C 0.39018 0.35373 0.38895
 C318 C 0.41743 0.37826 0.41791
 C319 C 0.42011 0.43259 0.41874
 C320 C 0.39467 0.46195 0.39055
 H321 H 0.34745 0.46074 0.34095
 H322 H 0.38873 0.31178 0.38868
 H323 H 0.43680 0.35470 0.43913
 H324 H 0.39605 0.50389 0.39065
 C325 C 0.11869 0.57055 -0.14828
 C326 C 0.13749 0.61668 -0.13388
 C327 C 0.12663 0.63787 -0.09011
 C328 C 0.09825 0.61419 -0.06225
 C329 C 0.07994 0.56833 -0.07685
 C330 C 0.09056 0.54670 -0.12009
 H331 H 0.12655 0.55122 -0.18054
 H332 H 0.13861 0.67413 -0.07772
 H333 H 0.09055 0.63208 -0.02921
 H334 H 0.07711 0.51116 -0.13224
 C335 C 0.62108 1.14139 0.40455
 C336 C 0.63716 1.11522 0.36586
 C337 C 0.62424 1.06473 0.35576
 C338 C 0.59592 1.04096 0.38375
 C339 C 0.57991 1.06715 0.42247
 C340 C 0.59284 1.11763 0.43255
 H341 H 0.62993 1.18063 0.41283
 H342 H 0.63639 1.04333 0.32652
 H343 H 0.58667 1.00197 0.37512
 H344 H 0.58098 1.13899 0.46198
 C345 C 0.13389 0.44084 0.13734
 C346 C 0.13665 0.38656 0.13813
 C347 C 0.11184 0.35715 0.10941
 C348 C 0.08471 0.38161 0.08024
 C349 C 0.08136 0.43590 0.07999
 C350 C 0.10613 0.46533 0.10889
 H351 H 0.15276 0.46416 0.15934
 H352 H 0.11373 0.31521 0.10930
 H353 H 0.06583 0.35799 0.05851
 H354 H 0.10417 0.50724 0.10926
 C355 C 0.63461 0.94120 0.63606
 C356 C 0.63721 0.88693 0.63762
 C357 C 0.61205 0.85712 0.60969
 C358 C 0.58472 0.88118 0.58052
 C359 C 0.58151 0.93548 0.57952
 C360 C 0.60663 0.96531 0.60763
 H361 H 0.65376 0.96480 0.65747
 H362 H 0.61380 0.81518 0.61024
 H363 H 0.56557 0.85727 0.55940
 H364 H 0.60480 1.00723 0.60739
 C365 C 0.86868 0.06090 0.13514
 C366 C 0.85833 0.11322 0.12869
 C367 C 0.87762 0.14179 0.09382
 C368 C 0.90663 0.11869 0.06619
 C369 C 0.91724 0.06655 0.07298
 C370 C 0.89788 0.03787 0.10769
 H371 H 0.85403 0.03760 0.16124
 H372 H 0.87090 0.18240 0.08848
 H373 H 0.92111 0.14193 0.03990
 H374 H 0.90520 -0.00247 0.11358
 C375 C 0.37656 0.64053 0.59464
 C376 C 0.35755 0.61226 0.62994
 C377 C 0.36817 0.56011 0.63686
 C378 C 0.39734 0.53696 0.60945
 C379 C 0.41641 0.56534 0.57431
 C380 C 0.40553 0.61730 0.56705
 H381 H 0.36964 0.68102 0.58893
 H382 H 0.35375 0.53703 0.66330
 H383 H 0.40487 0.49675 0.61571
 H384 H 0.41979 0.64031 0.54043
   
