data_POSCAR
  _audit_creation_date              2014-09-24
  _audit_creation_method            'ToBaCCo'
  _symmetry_space_group_name_H-M    'P1'
  _symmetry_Int_Tables_number       1
  _symmetry_cell_setting            triclinic
  loop_
  _symmetry_equiv_pos_as_xyz
 x,y,z
_cell_length_a 31.1166
_cell_length_b 31.0886
_cell_length_c 58.1209
_cell_angle_alpha 86.972700
_cell_angle_beta 91.033100
_cell_angle_gamma 121.185500
loop_
  _atom_site_label
  _atom_site_type_symbol
  _atom_site_fract_x
  _atom_site_fract_y
  _atom_site_fract_z
C1 C 0.02270 0.08706 0.53254
 H2 H 0.05855 0.08957 0.53104
 C3 C 0.01909 0.12262 0.54465
 H4 H 0.05266 0.15261 0.55221
 C5 C -0.06354 0.04654 0.52308
 H6 H -0.09538 0.01765 0.51419
 C7 C -0.06902 0.08101 0.53530
 H8 H -0.10558 0.07716 0.53615
 N9 N -0.01822 0.04996 0.52208
 C10 C 0.01355 -0.06912 0.51325
 H11 H 0.01066 -0.07124 0.49472
 C12 C 0.01959 -0.10436 0.52648
 H13 H 0.02199 -0.13325 0.51801
 C14 C 0.01217 -0.02980 0.54686
 H15 H 0.00780 -0.00160 0.55476
 C16 C 0.01869 -0.06405 0.56075
 H17 H 0.01941 -0.06181 0.57930
 Zn18 Zn -0.00660 0.00746 0.50439
 N19 N 0.00944 -0.03316 0.52357
 C20 C 0.09061 0.05033 0.48339
 N21 N 0.04695 0.05037 0.48400
 C22 C 0.04050 0.08386 0.47071
 C23 C 0.07899 0.11953 0.45618
 C24 C 0.13018 0.08536 0.46895
 C25 C -0.10746 -0.06928 0.49871
 C26 C -0.14905 -0.10511 0.48680
 C27 C -0.09918 -0.07478 0.45181
 C28 C -0.05914 -0.03880 0.46435
 N29 N -0.06381 -0.03675 0.48737
 H30 H 0.09517 0.02385 0.49438
 H31 H 0.00546 0.08317 0.47169
 H32 H 0.07311 0.14593 0.44575
 H33 H 0.16512 0.08565 0.46895
 H34 H -0.10963 -0.06816 0.51721
 H35 H -0.18201 -0.13126 0.49694
 H36 H -0.09363 -0.07341 0.43342
 H37 H -0.02385 -0.01323 0.45565
 C38 C 0.02154 -0.10248 0.55058
 C39 C -0.02726 0.11997 0.54620
 C40 C -0.14559 -0.10951 0.46284
 C41 C 0.12474 0.12094 0.45533
 C42 C 1.09812 0.05221 0.12758
 H43 H 1.09904 0.08711 0.12949
 C44 C 1.13247 0.05110 0.11293
 H45 H 1.15996 0.08555 0.10373
 C46 C 1.06280 -0.03422 0.13847
 H47 H 1.03628 -0.06707 0.14883
 C48 C 1.09644 -0.03708 0.12391
 H49 H 1.09466 -0.07263 0.12286
 N50 N 1.06429 0.01003 0.14000
 C51 C 0.94686 0.03889 0.15822
 H52 H 0.94950 0.03790 0.17681
 C53 C 0.90724 0.04104 0.14777
 H54 H 0.88005 0.04279 0.15842
 C55 C 0.97757 0.03482 0.12187
 H56 H 1.00377 0.03021 0.11192
 C57 C 0.93858 0.03703 0.11069
 H58 H 0.93544 0.03439 0.09217
 Zn59 Zn 1.02397 0.01841 0.16107
 N60 N 0.98040 0.03484 0.14526
 C61 C 1.06989 0.11391 0.18174
 N62 N 1.06884 0.06986 0.18021
 C63 C 1.10333 0.06191 0.19110
 C64 C 1.14126 0.09927 0.20395
 C65 C 1.10728 0.15242 0.19452
 C66 C 0.94688 -0.08210 0.16753
 C67 C 0.90980 -0.12486 0.17981
 C68 C 0.94579 -0.08360 0.21521
 C69 C 0.98244 -0.04177 0.20225
 N70 N 0.98196 -0.04156 0.17884
 H71 H 1.04266 0.11975 0.17256
 H72 H 1.10182 0.02667 0.18938
 H73 H 1.16846 0.09220 0.21241
 H74 H 1.10850 0.18779 0.19513
 H75 H 0.94656 -0.08038 0.14889
 H76 H 0.88113 -0.15610 0.17050
 H77 H 0.94596 -0.08277 0.23381
 H78 H 1.00979 -0.00872 0.21091
 C79 C 0.90195 0.03869 0.12374
 C80 C 1.13222 0.00613 0.11105
 C81 C 0.90835 -0.12547 0.20396
 C82 C 1.14404 0.14553 0.20554
 C83 C 0.03921 0.94060 0.86370
 H84 H 0.00538 0.90433 0.86186
 C85 C 0.07967 0.94385 0.87597
 H86 H 0.07666 0.90969 0.88337
 C87 C 0.08492 1.02857 0.85492
 H88 H 0.08725 1.06133 0.84629
 C89 C 0.12617 1.03362 0.86720
 H90 H 0.15943 1.07064 0.86830
 N91 N 0.04253 0.98254 0.85343
 C92 C -0.10943 0.95132 0.84306
 H93 H -0.10898 0.95707 0.82452
 C94 C -0.14989 0.94477 0.85600
 H95 H -0.18105 0.94350 0.84683
 C96 C -0.06871 0.94585 0.87689
 H97 H -0.03612 0.94820 0.88502
 C98 C -0.10873 0.93847 0.89053
 H99 H -0.10521 0.93592 0.90902
 Zn100 Zn -0.01230 0.97292 0.83510
 N101 N -0.06950 0.95277 0.85364
 C102 C -0.06889 0.87959 0.81304
 N103 N -0.02398 0.92347 0.81426
 C104 C 0.01641 0.93252 0.80159
 C105 C 0.01286 0.89650 0.78713
 C106 C -0.07415 0.84241 0.79870
 C107 C 0.00898 1.07226 0.83137
 C108 C 0.01486 1.11599 0.82031
 C109 C 0.00601 1.07884 0.78372
 C110 C 0.00063 1.03597 0.79548
 N111 N 0.00205 1.03339 0.81889
 H112 H -0.10026 0.87288 0.82357
 H113 H 0.05176 0.96759 0.80308
 H114 H 0.04557 0.90441 0.77725
 H115 H -0.10971 0.80713 0.79833
 H116 H 0.00871 1.06871 0.84999
 H117 H 0.01919 1.14609 0.83053
 H118 H 0.00438 1.08012 0.76509
 H119 H -0.00611 1.00428 0.78587
 C120 C -0.14975 0.93950 0.88029
 C121 C 0.12411 0.99081 0.87773
 C122 C 0.01273 1.11935 0.79618
 C123 C -0.03265 0.85042 0.78578
 C124 C 0.45925 -0.02010 -0.01264
 C125 C 0.46535 -0.01374 0.01138
 C126 C 0.50928 -0.00709 0.02179
 C127 C 0.54743 -0.00635 0.00890
 C128 C 0.54068 -0.01405 -0.01504
 C129 C 0.49687 -0.02030 -0.02546
 H130 H 0.49145 -0.02643 -0.04374
 H131 H 0.51451 -0.00079 0.04007
 C132 C -0.00947 0.45241 0.65829
 C133 C -0.01041 0.45045 0.68268
 C134 C -0.00887 0.48977 0.69411
 C135 C -0.00832 0.53019 0.68186
 C136 C -0.00953 0.53118 0.65746
 C137 C -0.00994 0.49225 0.64603
 H138 H -0.00911 0.49377 0.62735
 H139 H -0.00939 0.48830 0.71280
 C140 C 0.54308 0.56279 0.31993
 C141 C 0.54210 0.56234 0.34433
 C142 C 0.50032 0.52331 0.35645
 C143 C 0.45989 0.48455 0.34497
 C144 C 0.46106 0.48475 0.32065
 C145 C 0.50288 0.52362 0.30846
 H146 H 0.50338 0.52429 0.28979
 H147 H 0.49973 0.52236 0.37513
 C148 C -0.06540 0.21308 0.56154
 C149 C -0.03656 0.23467 0.58138
 C150 C -0.00454 0.21737 0.58939
 C151 C -0.00289 0.17919 0.57831
 C152 C -0.03144 0.15841 0.55860
 C153 C -0.06263 0.17586 0.55038
 C154 C 0.02609 0.23845 0.60833
 C155 C 0.02688 0.27748 0.61922
 C156 C -0.00392 0.29645 0.61186
 C157 C -0.03774 0.27325 0.59328
 C158 C -0.07212 0.28879 0.58751
 C159 C -0.07292 0.32623 0.59918
 C160 C -0.03871 0.35072 0.61661
 C161 C -0.00292 0.33704 0.62287
 C162 C 0.03286 0.36513 0.63972
 C163 C 0.03134 0.40322 0.65061
 C164 C -0.00603 0.41434 0.64534
 C165 C -0.04031 0.38870 0.62796
 H166 H -0.08937 0.22512 0.55375
 H167 H 0.02094 0.16573 0.58512
 H168 H -0.08421 0.16161 0.53486
 H169 H 0.05028 0.22503 0.61467
 H170 H 0.05127 0.29117 0.63385
 H171 H -0.10005 0.27170 0.57439
 H172 H -0.10047 0.33639 0.59436
 H173 H 0.06308 0.35928 0.64462
 H174 H 0.05932 0.42389 0.66342
 H175 H -0.06884 0.39777 0.62357
 C176 C 0.80696 0.74235 0.22386
 C177 C 0.78143 0.75121 0.24123
 C178 C 0.79937 0.80197 0.24612
 C179 C 0.84137 0.84159 0.23434
 C180 C 0.86594 0.83208 0.21718
 C181 C 0.84830 0.78219 0.21203
 C182 C 0.77510 0.81318 0.26257
 C183 C 0.73270 0.77521 0.27416
 C184 C 0.71297 0.72402 0.26994
 C185 C 0.73855 0.71172 0.25368
 C186 C 0.72075 0.66040 0.25063
 C187 C 0.67929 0.62241 0.26281
 C188 C 0.65323 0.63376 0.27822
 C189 C 0.66904 0.68466 0.28177
 C190 C 0.63990 0.69389 0.29696
 C191 C 0.59847 0.65435 0.30878
 C192 C 0.58476 0.60443 0.30601
 C193 C 0.61159 0.59430 0.29033
 H194 H 0.79552 0.70522 0.21863
 H195 H 0.85414 0.88020 0.23809
 H196 H 0.86665 0.77392 0.19878
 H197 H 0.78887 0.85191 0.26646
 H198 H 0.71677 0.78740 0.28672
 H199 H 0.73869 0.64810 0.23921
 H200 H 0.66742 0.58358 0.26007
 H201 H 0.64770 0.73112 0.30001
 H202 H 0.57731 0.66281 0.32042
 H203 H 0.60065 0.55556 0.28797
 C204 C 0.25901 0.03083 -0.10840
 C205 C 0.25395 0.00055 -0.08835
 C206 C 0.20470 -0.03335 -0.07970
 C207 C 0.16284 -0.03558 -0.09047
 C208 C 0.16861 -0.00524 -0.11030
 C209 C 0.21711 0.02780 -0.11911
 C210 C 0.19731 -0.06513 -0.06042
 C211 C 0.23762 -0.06492 -0.04967
 C212 C 0.28743 -0.03208 -0.05759
 C213 C 0.29585 0.00230 -0.07681
 C214 C 0.34587 0.03775 -0.08364
 C215 C 0.38625 0.03918 -0.07241
 C216 C 0.37867 0.00495 -0.05420
 C217 C 0.32924 -0.03174 -0.04667
 C218 C 0.32395 -0.06672 -0.02862
 C219 C 0.36596 -0.06384 -0.01804
 C220 C 0.41446 -0.02597 -0.02493
 C221 C 0.42054 0.00767 -0.04330
 H222 H 0.29466 0.05646 -0.11665
 H223 H 0.12560 -0.06105 -0.08332
 H224 H 0.22278 0.05075 -0.13474
 H225 H 0.15977 -0.09091 -0.05364
 H226 H 0.22844 -0.09046 -0.03481
 H227 H 0.35535 0.06593 -0.09737
 H228 H 0.42398 0.06744 -0.07814
 H229 H 0.28797 -0.09706 -0.02237
 H230 H 0.36060 -0.09093 -0.00418
 H231 H 0.45815 0.03681 -0.04878
 C232 C 0.05740 0.83256 0.59746
 C233 C 0.02591 0.78097 0.59286
 C234 C -0.00755 0.76899 0.57409
 C235 C -0.00805 0.80715 0.56030
 C236 C 0.02363 0.85788 0.56500
 C237 C 0.05600 0.87018 0.58379
 C238 C -0.04064 0.71896 0.56917
 C239 C -0.04199 0.68009 0.58261
 C240 C -0.00953 0.68970 0.60148
 C241 C 0.02602 0.74099 0.60628
 C242 C 0.06096 0.75051 0.62405
 C243 C 0.06095 0.71149 0.63686
 C244 C 0.02558 0.66142 0.63288
 C245 C -0.01080 0.64969 0.61543
 C246 C -0.04717 0.59823 0.61281
 C247 C -0.04648 0.56043 0.62653
 C248 C -0.00979 0.57228 0.64333
 C249 C 0.02642 0.62292 0.64630
 H250 H 0.08300 0.84517 0.61169
 H251 H -0.03406 0.79726 0.54609
 H252 H 0.08067 0.90918 0.58781
 H253 H -0.06611 0.70965 0.55477
 H254 H -0.06838 0.64271 0.57736
 H255 H 0.08976 0.78796 0.62823
 H256 H 0.08883 0.72069 0.65017
 H257 H -0.07730 0.58576 0.60063
 H258 H -0.07514 0.52152 0.62413
 H259 H 0.05535 0.63235 0.65910
 C260 C 0.27520 0.23424 0.22693
 C261 C 0.26788 0.26434 0.24197
 C262 C 0.21831 0.25467 0.24451
 C263 C 0.17822 0.21642 0.23247
 C264 C 0.18628 0.18674 0.21789
 C265 C 0.23512 0.19626 0.21520
 C266 C 0.20882 0.28293 0.25916
 C267 C 0.24729 0.32059 0.27154
 C268 C 0.29732 0.33178 0.26973
 C269 C 0.30784 0.30337 0.25459
 C270 C 0.35793 0.31487 0.25259
 C271 C 0.39638 0.35242 0.26496
 C272 C 0.38680 0.38014 0.27986
 C273 C 0.33724 0.37042 0.28256
 C274 C 0.32995 0.39990 0.29804
 C275 C 0.37006 0.43698 0.31020
 C276 C 0.41860 0.44582 0.30751
 C277 C 0.42679 0.41758 0.29218
 H278 H 0.31130 0.23871 0.22379
 H279 H 0.14046 0.20908 0.23480
 H280 H 0.24254 0.17443 0.20374
 H281 H 0.17104 0.27575 0.26116
 H282 H 0.23634 0.34032 0.28242
 H283 H 0.36906 0.29556 0.24153
 H284 H 0.43420 0.35976 0.26283
 H285 H 0.29386 0.39542 0.30125
 H286 H 0.36315 0.45899 0.32179
 H287 H 0.46444 0.42443 0.29008
 C288 C 0.76368 -0.08522 -0.07009
 C289 C 0.73817 -0.06058 -0.07789
 C290 C 0.75062 -0.03643 -0.10017
 C291 C 0.78619 -0.03803 -0.11404
 C292 C 0.81193 -0.06209 -0.10607
 C293 C 0.79987 -0.08562 -0.08382
 C294 C 0.72822 -0.00989 -0.10849
 C295 C 0.69447 -0.00560 -0.09499
 C296 C 0.68096 -0.02857 -0.07259
 C297 C 0.70161 -0.05819 -0.06424
 C298 C 0.68459 -0.08481 -0.04269
 C299 C 0.64942 -0.08190 -0.02954
 C300 C 0.63066 -0.05147 -0.03699
 C301 C 0.64677 -0.02360 -0.05842
 C302 C 0.62838 0.00859 -0.06462
 C303 C 0.59454 0.01172 -0.05042
 C304 C 0.57779 -0.01693 -0.02961
 C305 C 0.59581 -0.04872 -0.02306
 H306 H 0.75735 -0.10379 -0.05325
 H307 H 0.79579 -0.01746 -0.13061
 H308 H 0.81728 -0.10593 -0.07697
 H309 H 0.73730 0.00837 -0.12561
 H310 H 0.67874 0.01523 -0.10290
 H311 H 0.69692 -0.10931 -0.03564
 H312 H 0.63717 -0.10336 -0.01320
 H313 H 0.64011 0.03272 -0.08007
 H314 H 0.58160 0.03706 -0.05567
 H315 H 0.58261 -0.07140 -0.00706
 C316 C 0.22408 0.03497 0.06224
 C317 C 0.24863 0.00922 0.06991
 C318 C 0.23144 -0.02046 0.09084
 C319 C 0.19312 -0.02196 0.10393
 C320 C 0.17047 0.00521 0.09646
 C321 C 0.18585 0.03295 0.07533
 C322 C 0.25290 -0.04811 0.09881
 C323 C 0.29099 -0.04742 0.08642
 C324 C 0.31000 -0.01806 0.06562
 C325 C 0.28937 0.01177 0.05755
 C326 C 0.31089 0.04399 0.03768
 C327 C 0.35046 0.04640 0.02585
 C328 C 0.36970 0.01625 0.03299
 C329 C 0.34948 -0.01692 0.05279
 C330 C 0.36938 -0.04797 0.05871
 C331 C 0.40734 -0.04609 0.04546
 C332 C 0.42696 -0.01323 0.02598
 C333 C 0.40881 0.01874 0.02018
 H334 H 0.23305 0.05663 0.04611
 H335 H 0.18182 -0.04340 0.12029
 H336 H 0.16810 0.05321 0.06880
 H337 H 0.24001 -0.07076 0.11483
 H338 H 0.30556 -0.06959 0.09399
 H339 H 0.29870 0.06887 0.03102
 H340 H 0.36585 0.07186 0.01074
 H341 H 0.35564 -0.07514 0.07309
 H342 H 0.42074 -0.07128 0.05017
 H343 H 0.42449 0.04487 0.00530
 C344 C 0.72500 0.79401 0.44659
 C345 C 0.73314 0.77688 0.42602
 C346 C 0.78340 0.79780 0.41851
 C347 C 0.82327 0.83625 0.43047
 C348 C 0.81515 0.85380 0.45095
 C349 C 0.76496 0.83108 0.45882
 C350 C 0.79392 0.77981 0.39922
 C351 C 0.75567 0.74068 0.38743
 C352 C 0.70488 0.71891 0.39406
 C353 C 0.69329 0.73905 0.41294
 C354 C 0.64235 0.72160 0.41775
 C355 C 0.60403 0.68499 0.40488
 C356 C 0.61470 0.66300 0.38730
 C357 C 0.66519 0.67861 0.38202
 C358 C 0.67374 0.65252 0.36516
 C359 C 0.63388 0.61425 0.35342
 C360 C 0.58436 0.60140 0.35765
 C361 C 0.57502 0.62543 0.37490
 H362 H 0.68811 0.77878 0.45401
 H363 H 0.86100 0.84964 0.42435
 H364 H 0.75531 0.84332 0.47392
 H365 H 0.83232 0.79576 0.39329
 H366 H 0.76702 0.72941 0.37260
 H367 H 0.63087 0.73686 0.43090
 H368 H 0.56550 0.67335 0.40895
 H369 H 0.71067 0.65984 0.36110
 H370 H 0.64183 0.59466 0.34088
 H371 H 0.53667 0.61504 0.37857
 C372 C 0.05180 0.25437 0.77933
 C373 C 0.01810 0.24867 0.76135
 C374 C -0.01769 0.19897 0.75529
 C375 C -0.01867 0.15736 0.76649
 C376 C 0.01511 0.16379 0.78412
 C377 C 0.05010 0.21258 0.79050
 C378 C -0.05257 0.19082 0.73814
 C379 C -0.05329 0.23083 0.72685
 C380 C -0.01858 0.28112 0.73211
 C381 C 0.01841 0.29028 0.74930
 C382 C 0.05484 0.34069 0.75363
 C383 C 0.05521 0.38075 0.74169
 C384 C 0.01897 0.37248 0.72522
 C385 C -0.01902 0.32262 0.72042
 C386 C -0.05591 0.31652 0.70409
 C387 C -0.05363 0.35802 0.69242
 C388 C -0.01465 0.40688 0.69650
 C389 C 0.02092 0.41397 0.71329
 H390 H 0.07961 0.29047 0.78542
 H391 H -0.04660 0.11962 0.76177
 H392 H 0.07661 0.21851 0.80409
 H393 H -0.07986 0.15290 0.73340
 H394 H -0.08120 0.22089 0.71368
 H395 H 0.08446 0.35069 0.76591
 H396 H 0.08432 0.41877 0.74542
 H397 H -0.08724 0.28032 0.69995
 H398 H -0.08220 0.35192 0.67988
 H399 H 0.05091 0.45189 0.71662
 C400 C 0.76513 -0.00819 0.11164
 C401 C 0.76703 0.01529 0.08981
 C402 C 0.81512 0.04971 0.08007
 C403 C 0.85898 0.05803 0.09134
 C404 C 0.85615 0.03312 0.11258
 C405 C 0.80889 0.00055 0.12269
 C406 C 0.81926 0.07532 0.05903
 C407 C 0.77675 0.06774 0.04734
 C408 C 0.72795 0.03334 0.05607
 C409 C 0.72303 0.00580 0.07739
 C410 C 0.67433 -0.03114 0.08534
 C411 C 0.63188 -0.04042 0.07316
 C412 C 0.63591 -0.01290 0.05278
 C413 C 0.68384 0.02484 0.04400
 C414 C 0.68537 0.05272 0.02360
 C415 C 0.64130 0.04272 0.01237
 C416 C 0.59435 0.00435 0.02082
 C417 C 0.59197 -0.02304 0.04114
 H418 H 0.73052 -0.03349 0.12075
 H419 H 0.89546 0.08395 0.08354
 H420 H 0.80552 -0.01945 0.13903
 H421 H 0.85589 0.10163 0.05148
 H422 H 0.78354 0.08876 0.03112
 H423 H 0.66755 -0.05458 0.10076
 H424 H 0.59534 -0.06944 0.07988
 H425 H 0.71983 0.08315 0.01607
 H426 H 0.64390 0.06532 -0.00298
 H427 H 0.55563 -0.05256 0.04786
 C428 C 0.23518 0.18643 0.41350
 C429 C 0.24637 0.23690 0.41262
 C430 C 0.21721 0.24822 0.42676
 C431 C 0.17793 0.21032 0.44053
 C432 C 0.16689 0.16054 0.44088
 C433 C 0.19615 0.14907 0.42744
 C434 C 0.22722 0.29732 0.42717
 C435 C 0.26608 0.33601 0.41405
 C436 C 0.29643 0.32707 0.39966
 C437 C 0.28559 0.27648 0.39845
 C438 C 0.31387 0.26712 0.38293
 C439 C 0.35206 0.30577 0.36942
 C440 C 0.36423 0.35541 0.37100
 C441 C 0.33695 0.36700 0.38625
 C442 C 0.35194 0.41831 0.38762
 C443 C 0.39164 0.45596 0.37421
 C444 C 0.41759 0.44398 0.35894
 C445 C 0.40391 0.39367 0.35746
 H446 H 0.25605 0.17451 0.40383
 H447 H 0.15617 0.21977 0.45129
 H448 H 0.18838 0.11084 0.42745
 H449 H 0.20483 0.30606 0.43787
 H450 H 0.27071 0.37258 0.41535
 H451 H 0.30696 0.22997 0.38051
 H452 H 0.37260 0.29668 0.35769
 H453 H 0.33445 0.43095 0.39910
 H454 H 0.40206 0.49479 0.37568
 H455 H 0.42465 0.38448 0.34590
 C456 C -0.07993 0.74417 0.74479
 C457 C -0.04030 0.73419 0.74484
 C458 C 0.00140 0.76304 0.75911
 C459 C 0.00344 0.80062 0.77223
 C460 C -0.03575 0.81036 0.77177
 C461 C -0.07756 0.78155 0.75808
 C462 C 0.04103 0.75436 0.76034
 C463 C 0.04023 0.71711 0.74793
 C464 C -0.00035 0.68698 0.73352
 C465 C -0.04074 0.69646 0.73149
 C466 C -0.07986 0.66824 0.71604
 C467 C -0.08018 0.63143 0.70336
 C468 C -0.04202 0.62064 0.70571
 C469 C -0.00166 0.64797 0.72092
 C470 C 0.03542 0.63455 0.72306
 C471 C 0.03274 0.59640 0.71041
 C472 C -0.00663 0.57038 0.69517
 C473 C -0.04414 0.58239 0.69297
 H474 H -0.11352 0.72356 0.73487
 H475 H 0.03549 0.82195 0.78319
 H476 H -0.10837 0.78836 0.75743
 H477 H 0.07311 0.77656 0.77113
 H478 H 0.07268 0.71348 0.74985
 H479 H -0.11075 0.67409 0.71307
 H480 H -0.11095 0.61087 0.69167
 H481 H 0.06674 0.65219 0.73454
 H482 H 0.06190 0.58732 0.71241
 H483 H -0.07515 0.56164 0.68141
   
