data_POSCAR
  _audit_creation_date              2014-09-24
  _audit_creation_method            'ToBaCCo'
  _symmetry_space_group_name_H-M    'P1'
  _symmetry_Int_Tables_number       1
  _symmetry_cell_setting            triclinic
  loop_
  _symmetry_equiv_pos_as_xyz
 x,y,z
_cell_length_a 45.0379
_cell_length_b 45.0462
_cell_length_c 20.2949
_cell_angle_alpha 89.923500
_cell_angle_beta 90.077100
_cell_angle_gamma 117.252600
loop_
  _atom_site_label
  _atom_site_type_symbol
  _atom_site_fract_x
  _atom_site_fract_y
  _atom_site_fract_z
C1 C 0.48966 0.97237 0.53718
 C2 C 0.49726 0.97124 0.47004
 C3 C 0.51813 1.00075 0.43702
 C4 C 0.52937 1.03242 0.46670
 C5 C 0.51869 1.03399 0.53246
 C6 C 0.49901 1.00375 0.56606
 H7 H 0.49387 1.00478 0.61794
 H8 H 0.52290 0.99904 0.38513
 C9 C 0.03234 0.52391 0.53056
 C10 C 0.03051 0.51476 0.46346
 C11 C -0.00090 0.49665 0.43386
 C12 C -0.03078 0.48840 0.46844
 C13 C -0.02870 0.49784 0.53574
 C14 C 0.00272 0.51557 0.56549
 H15 H 0.00408 0.52144 0.61757
 H16 H -0.00189 0.49092 0.38178
 C17 C 0.46866 0.50102 0.53243
 C18 C 0.46378 0.49572 0.46364
 C19 C 0.47498 0.47527 0.43160
 C20 C 0.49231 0.46084 0.46533
 C21 C 0.49892 0.46714 0.53382
 C22 C 0.48750 0.48784 0.56578
 H23 H 0.49049 0.49104 0.61871
 H24 H 0.47200 0.47223 0.37859
 O25 O 0.37848 0.67372 -0.08143
 O26 O 0.38253 0.73142 -0.04888
 C27 C 0.36237 0.74088 -0.07465
 O28 O 0.33140 0.72735 -0.06183
 O29 O 0.27332 0.67472 -0.04751
 C30 C 0.26781 0.65119 -0.08811
 O31 O 0.28304 0.63357 -0.08507
 O32 O 0.33534 0.62320 -0.07097
 C33 C 0.36270 0.64338 -0.09785
 O34 O 0.37807 0.65685 0.04662
 O35 O 0.38086 0.71388 0.07930
 C36 C 0.36802 0.73243 0.09616
 O37 O 0.34213 0.73114 0.06836
 O38 O 0.28608 0.67650 0.08304
 C39 C 0.26821 0.64521 0.08697
 O40 O 0.27053 0.62501 0.04586
 O41 O 0.32490 0.61837 0.05941
 C42 C 0.35572 0.63018 0.07274
 Cr43 Cr 0.37815 0.69323 -0.00115
 Cr44 Cr 0.30899 0.70129 0.01010
 Cr45 Cr 0.30440 0.62687 -0.01240
 O46 O 0.33068 0.67387 -0.00132
 O47 O 0.62684 0.33494 -0.07787
 O48 O 0.62349 0.27583 -0.06211
 C49 C 0.64464 0.27027 -0.09419
 O50 O 0.67534 0.28384 -0.07952
 O51 O 0.73129 0.33598 -0.05337
 C52 C 0.73713 0.36325 -0.08216
 O53 O 0.72226 0.38042 -0.06745
 O54 O 0.66685 0.38478 -0.04746
 C55 C 0.64216 0.36643 -0.08379
 O56 O 0.62222 0.34085 0.05348
 O57 O 0.62245 0.28359 0.06945
 C58 C 0.63765 0.26653 0.08225
 O59 O 0.66357 0.27001 0.05088
 O60 O 0.71916 0.32355 0.07650
 C61 C 0.73481 0.35412 0.09196
 O62 O 0.73018 0.37673 0.06322
 O63 O 0.67356 0.37788 0.08297
 C64 C 0.64219 0.36399 0.09102
 Cr65 Cr 0.62559 0.30959 -0.00413
 Cr66 Cr 0.69639 0.30433 -0.00127
 Cr67 Cr 0.69728 0.37813 0.00749
 O68 O 0.67317 0.33067 0.00069
 C69 C 0.47272 0.88983 -0.39071
 C70 C 0.45064 0.88628 -0.33847
 C71 C 0.43983 0.91114 -0.33160
 C72 C 0.45260 0.93941 -0.37265
 C73 C 0.47523 0.94309 -0.42344
 C74 C 0.48464 0.91758 -0.43219
 C75 C 0.41638 0.90776 -0.28362
 C76 C 0.40300 0.87999 -0.24268
 C77 C 0.41340 0.85484 -0.24671
 C78 C 0.43874 0.85884 -0.29330
 C79 C 0.45204 0.83588 -0.29181
 C80 C 0.44050 0.80951 -0.24731
 C81 C 0.41449 0.80419 -0.20413
 C82 C 0.39995 0.82628 -0.20442
 C83 C 0.37211 0.81850 -0.16304
 C84 C 0.36005 0.79066 -0.12189
 C85 C 0.37543 0.76980 -0.11973
 C86 C 0.40274 0.77673 -0.16089
 H87 H 0.48108 0.87144 -0.40132
 H88 H 0.44398 0.95810 -0.36619
 H89 H 0.50274 0.91972 -0.46932
 H90 H 0.40806 0.92670 -0.27790
 H91 H 0.38534 0.87958 -0.20649
 H92 H 0.47235 0.83830 -0.32305
 H93 H 0.45182 0.79282 -0.24730
 H94 H 0.35851 0.83291 -0.16250
 H95 H 0.33870 0.78565 -0.09086
 H96 H 0.41433 0.76027 -0.16033
 C97 C 0.11579 0.53929 -0.39754
 C98 C 0.12437 0.56783 -0.35746
 C99 C 0.10210 0.58214 -0.35671
 C100 C 0.07266 0.56823 -0.39444
 C101 C 0.06452 0.53981 -0.43306
 C102 C 0.08632 0.52555 -0.43425
 C103 C 0.10898 0.60991 -0.31748
 C104 C 0.13693 0.62330 -0.27696
 C105 C 0.15948 0.60954 -0.27436
 C106 C 0.15364 0.58200 -0.31684
 C107 C 0.17710 0.56934 -0.31681
 C108 C 0.20429 0.58181 -0.27451
 C109 C 0.20937 0.60738 -0.23046
 C110 C 0.18744 0.62206 -0.23012
 C111 C 0.19408 0.64807 -0.18420
 C112 C 0.22062 0.65812 -0.13959
 C113 C 0.24153 0.64278 -0.13911
 C114 C 0.23606 0.61786 -0.18577
 H115 H 0.13076 0.52636 -0.40054
 H116 H 0.05577 0.57932 -0.39331
 H117 H 0.08017 0.50318 -0.46280
 H118 H 0.09222 0.62113 -0.31722
 H119 H 0.14008 0.64456 -0.24804
 H120 H 0.17523 0.54959 -0.34901
 H121 H 0.22131 0.57087 -0.27563
 H122 H 0.17887 0.66073 -0.18026
 H123 H 0.22425 0.67751 -0.10428
 H124 H 0.25217 0.60589 -0.18644
 C125 C 0.40430 0.52473 -0.40624
 C126 C 0.42116 0.54686 -0.35411
 C127 C 0.45515 0.55500 -0.34333
 C128 C 0.47054 0.53943 -0.38003
 C129 C 0.45339 0.51716 -0.43121
 C130 C 0.42022 0.51044 -0.44417
 C131 C 0.47369 0.57871 -0.29605
 C132 C 0.45941 0.59496 -0.25973
 C133 C 0.42541 0.58705 -0.26735
 C134 C 0.40557 0.56138 -0.31280
 C135 C 0.37070 0.55022 -0.31361
 C136 C 0.35575 0.56381 -0.27158
 C137 C 0.37504 0.59008 -0.22943
 C138 C 0.41029 0.60299 -0.22885
 C139 C 0.42904 0.63154 -0.18994
 C140 C 0.41328 0.64517 -0.15004
 C141 C 0.37837 0.63073 -0.14680
 C142 C 0.35931 0.60337 -0.18729
 H143 H 0.37895 0.51842 -0.41973
 H144 H 0.49646 0.54578 -0.37041
 H145 H 0.40581 0.49279 -0.48206
 H146 H 0.49968 0.58505 -0.28744
 H147 H 0.47534 0.61262 -0.22365
 H148 H 0.35402 0.52983 -0.34417
 H149 H 0.32881 0.55381 -0.27251
 H150 H 0.45596 0.64422 -0.19003
 H151 H 0.42860 0.66656 -0.11976
 H152 H 0.33229 0.59250 -0.18603
 C153 C 0.51738 0.09639 -0.34873
 C154 C 0.55109 0.12116 -0.34759
 C155 C 0.57386 0.11676 -0.38973
 C156 C 0.56296 0.08875 -0.43140
 C157 C 0.52947 0.06400 -0.43099
 C158 C 0.50701 0.06842 -0.38907
 C159 C 0.60762 0.13980 -0.38866
 C160 C 0.61966 0.16631 -0.34451
 C161 C 0.59818 0.17124 -0.30014
 C162 C 0.56311 0.14930 -0.30416
 C163 C 0.54127 0.15609 -0.26428
 C164 C 0.55327 0.18201 -0.21899
 C165 C 0.58747 0.20204 -0.21093
 C166 C 0.61051 0.19720 -0.25154
 C167 C 0.64497 0.21789 -0.24013
 C168 C 0.65584 0.24180 -0.19006
 C169 C 0.63291 0.24621 -0.14976
 C170 C 0.59870 0.22653 -0.16140
 H171 H 0.49846 0.09719 -0.31749
 H172 H 0.58111 0.08531 -0.46120
 H173 H 0.48090 0.05011 -0.38780
 H174 H 0.62513 0.13687 -0.42130
 H175 H 0.64608 0.18274 -0.34677
 H176 H 0.51450 0.14194 -0.26719
 H177 H 0.53552 0.18597 -0.18892
 H178 H 0.66427 0.21565 -0.26767
 H179 H 0.68245 0.25665 -0.18243
 H180 H 0.58064 0.22957 -0.13055
 C181 C 0.90723 0.49596 -0.34150
 C182 C 0.88597 0.46127 -0.33408
 C183 C 0.89369 0.43894 -0.37086
 C184 C 0.92098 0.45109 -0.41419
 C185 C 0.94155 0.48542 -0.42088
 C186 C 0.93466 0.50769 -0.38393
 C187 C 0.87449 0.40457 -0.36362
 C188 C 0.84837 0.39162 -0.31881
 C189 C 0.83993 0.41268 -0.28012
 C190 C 0.85796 0.44800 -0.29025
 C191 C 0.84723 0.46880 -0.25665
 C192 C 0.82074 0.45577 -0.21259
 C193 C 0.80434 0.42165 -0.19898
 C194 C 0.81384 0.39958 -0.23199
 C195 C 0.79739 0.36541 -0.21403
 C196 C 0.77253 0.35383 -0.16589
 C197 C 0.76291 0.37568 -0.13433
 C198 C 0.77875 0.40956 -0.15165
 H199 H 0.90397 0.51467 -0.31394
 H200 H 0.92675 0.43379 -0.44183
 H201 H 0.95064 0.53433 -0.38800
 H202 H 0.88005 0.38741 -0.39220
 H203 H 0.83478 0.36479 -0.31658
 H204 H 0.85845 0.49540 -0.26428
 H205 H 0.81339 0.47273 -0.18800
 H206 H 0.80373 0.34706 -0.23480
 H207 H 0.76078 0.32754 -0.15329
 H208 H 0.77181 0.42679 -0.12687
 C209 C 0.52317 0.40386 -0.39929
 C210 C 0.54634 0.42195 -0.34926
 C211 C 0.55395 0.45591 -0.34058
 C212 C 0.53808 0.47048 -0.37891
 C213 C 0.51508 0.45224 -0.42837
 C214 C 0.50790 0.41872 -0.43772
 C215 C 0.57736 0.47531 -0.29358
 C216 C 0.59349 0.46184 -0.25456
 C217 C 0.58645 0.42801 -0.26018
 C218 C 0.56200 0.40754 -0.30746
 C219 C 0.55348 0.37324 -0.31023
 C220 C 0.56796 0.35927 -0.26802
 C221 C 0.59203 0.37891 -0.22226
 C222 C 0.60232 0.41370 -0.21873
 C223 C 0.62800 0.43264 -0.17342
 C224 C 0.64142 0.41735 -0.13135
 C225 C 0.62990 0.38272 -0.13276
 C226 C 0.60556 0.36374 -0.17932
 H227 H 0.51619 0.37813 -0.41023
 H228 H 0.54462 0.49660 -0.37155
 H229 H 0.48927 0.40324 -0.47316
 H230 H 0.58330 0.50131 -0.28675
 H231 H 0.61081 0.47859 -0.21903
 H232 H 0.53493 0.35609 -0.34345
 H233 H 0.56010 0.33269 -0.27116
 H234 H 0.63842 0.45936 -0.16916
 H235 H 0.66049 0.43278 -0.09651
 H236 H 0.59679 0.33698 -0.18173
 C237 C 0.88450 0.46895 0.40420
 C238 C 0.87879 0.44366 0.35734
 C239 C 0.90290 0.43179 0.35245
 C240 C 0.93262 0.44669 0.38909
 C241 C 0.93849 0.47250 0.43406
 C242 C 0.91370 0.48294 0.44183
 C243 C 0.89743 0.40526 0.31061
 C244 C 0.86854 0.39021 0.27300
 C245 C 0.84439 0.40199 0.27390
 C246 C 0.85017 0.42990 0.31505
 C247 C 0.82802 0.44407 0.31034
 C248 C 0.80138 0.43169 0.26644
 C249 C 0.79492 0.40394 0.22741
 C250 C 0.81546 0.38780 0.23256
 C251 C 0.80621 0.35819 0.19566
 C252 C 0.77918 0.34663 0.15221
 C253 C 0.76069 0.36424 0.14365
 C254 C 0.76829 0.39255 0.18232
 H255 H 0.86678 0.47836 0.41334
 H256 H 0.95091 0.43746 0.38384
 H257 H 0.91750 0.50327 0.47475
 H258 H 0.91572 0.39596 0.30687
 H259 H 0.86660 0.37026 0.24121
 H260 H 0.83150 0.46587 0.33781
 H261 H 0.78567 0.44404 0.26300
 H262 H 0.81919 0.34325 0.19963
 H263 H 0.77344 0.32439 0.12350
 H264 H 0.75352 0.40583 0.17704
 C265 C 0.58837 0.08815 0.33958
 C266 C 0.58049 0.11512 0.33680
 C267 C 0.55547 0.11430 0.38020
 C268 C 0.53943 0.08765 0.42459
 C269 C 0.54731 0.06085 0.42635
 C270 C 0.57194 0.06160 0.38298
 C271 C 0.54591 0.13966 0.37805
 C272 C 0.55969 0.16527 0.33211
 C273 C 0.58411 0.16684 0.28668
 C274 C 0.59574 0.14218 0.29104
 C275 C 0.62216 0.14537 0.24941
 C276 C 0.63573 0.17077 0.20306
 C277 C 0.62335 0.19382 0.19551
 C278 C 0.59735 0.19226 0.23704
 C279 C 0.58519 0.21578 0.22596
 C280 C 0.59837 0.23968 0.17613
 C281 C 0.62420 0.24122 0.13553
 C282 C 0.63672 0.21827 0.14598
 H283 H 0.60649 0.08622 0.30770
 H284 H 0.51942 0.08699 0.45516
 H285 H 0.57896 0.04157 0.38307
 H286 H 0.52708 0.13942 0.41158
 H287 H 0.55081 0.18374 0.33401
 H288 H 0.63334 0.12879 0.25185
 H289 H 0.65587 0.17207 0.17205
 H290 H 0.56500 0.21604 0.25389
 H291 H 0.58811 0.25703 0.16938
 H292 H 0.65659 0.21903 0.11479
 C293 C 0.49964 0.40148 0.34264
 C294 C 0.53458 0.41259 0.33955
 C295 C 0.55529 0.43953 0.38100
 C296 C 0.54137 0.45451 0.42322
 C297 C 0.50683 0.44335 0.42475
 C298 C 0.48617 0.41678 0.38433
 C299 C 0.58985 0.45187 0.37923
 C300 C 0.60464 0.43895 0.33552
 C301 C 0.58531 0.41277 0.29185
 C302 C 0.54965 0.39859 0.29554
 C303 C 0.53026 0.37107 0.25476
 C304 C 0.54500 0.35879 0.20972
 C305 C 0.57959 0.37339 0.20307
 C306 C 0.60038 0.40040 0.24422
 C307 C 0.63537 0.41431 0.23469
 C308 C 0.64882 0.40218 0.18590
 C309 C 0.62804 0.37580 0.14490
 C310 C 0.59341 0.36128 0.15456
 H311 H 0.48196 0.38160 0.31248
 H312 H 0.55747 0.47548 0.45380
 H313 H 0.45939 0.40799 0.38470
 H314 H 0.60577 0.47219 0.41133
 H315 H 0.63147 0.45012 0.33740
 H316 H 0.50341 0.35820 0.25640
 H317 H 0.52902 0.33784 0.17898
 H318 H 0.65312 0.43502 0.26308
 H319 H 0.67568 0.41391 0.17977
 H320 H 0.57697 0.34076 0.12340
 C321 C 0.09237 0.51383 0.33809
 C322 C 0.11603 0.54801 0.33380
 C323 C 0.11159 0.57070 0.37617
 C324 C 0.08415 0.55961 0.41900
 C325 C 0.06073 0.52587 0.42146
 C326 C 0.06521 0.50311 0.38106
 C327 C 0.13419 0.60451 0.37495
 C328 C 0.16086 0.61674 0.33145
 C329 C 0.16598 0.59556 0.28662
 C330 C 0.14343 0.56054 0.28831
 C331 C 0.14868 0.53937 0.24365
 C332 C 0.17439 0.55192 0.19780
 C333 C 0.19607 0.58600 0.19449
 C334 C 0.19254 0.60831 0.23934
 C335 C 0.21552 0.64261 0.23414
 C336 C 0.24009 0.65414 0.18556
 C337 C 0.24295 0.63211 0.14033
 C338 C 0.22106 0.59792 0.14578
 H339 H 0.09382 0.49469 0.30863
 H340 H 0.08053 0.57744 0.44948
 H341 H 0.04741 0.47686 0.38247
 H342 H 0.13106 0.62188 0.40769
 H343 H 0.17681 0.64323 0.33391
 H344 H 0.13306 0.51279 0.24213
 H345 H 0.17710 0.53470 0.16399
 H346 H 0.21518 0.66142 0.26628
 H347 H 0.25676 0.68068 0.18317
 H348 H 0.22309 0.58053 0.11141
 C349 C 0.42474 0.89841 0.38990
 C350 C 0.44060 0.88388 0.35071
 C351 C 0.47593 0.89786 0.35453
 C352 C 0.49445 0.92648 0.39279
 C353 C 0.47821 0.94073 0.43014
 C354 C 0.44332 0.92629 0.42890
 C355 C 0.49260 0.88324 0.32010
 C356 C 0.47504 0.85484 0.28221
 C357 C 0.43996 0.84043 0.27548
 C358 C 0.42263 0.85597 0.30823
 C359 C 0.38815 0.84384 0.29564
 C360 C 0.37116 0.81742 0.25266
 C361 C 0.38745 0.80126 0.22218
 C362 C 0.42180 0.81177 0.23493
 C363 C 0.43656 0.79309 0.20641
 C364 C 0.41854 0.76666 0.16372
 C365 C 0.38526 0.75786 0.14766
 C366 C 0.36966 0.77492 0.17814
 H367 H 0.39800 0.88851 0.39252
 H368 H 0.52147 0.93744 0.39446
 H369 H 0.43036 0.93693 0.45786
 H370 H 0.51957 0.89378 0.32274
 H371 H 0.48995 0.84548 0.25657
 H372 H 0.37374 0.85515 0.31625
 H373 H 0.34491 0.80953 0.24325
 H374 H 0.46191 0.79806 0.21646
 H375 H 0.43119 0.75367 0.14170
 H376 H 0.34372 0.76792 0.16709
 C377 C 0.45997 0.56934 0.38171
 C378 C 0.43344 0.55380 0.33615
 C379 C 0.41564 0.51840 0.33676
 C380 C 0.42545 0.49962 0.37856
 C381 C 0.45225 0.51550 0.42197
 C382 C 0.46914 0.55039 0.42375
 C383 C 0.38828 0.50185 0.29534
 C384 C 0.37778 0.51958 0.25356
 C385 C 0.39485 0.55480 0.25030
 C386 C 0.42389 0.57211 0.29039
 C387 C 0.44293 0.60697 0.28201
 C388 C 0.43367 0.62443 0.23684
 C389 C 0.40460 0.60815 0.19961
 C390 C 0.38432 0.57323 0.20693
 C391 C 0.35406 0.55825 0.17104
 C392 C 0.34502 0.57696 0.12833
 C393 C 0.36576 0.61117 0.11932
 C394 C 0.39559 0.62666 0.15519
 H395 H 0.47392 0.59604 0.38671
 H396 H 0.41216 0.47255 0.37772
 H397 H 0.48993 0.56306 0.45724
 H398 H 0.37468 0.47480 0.29539
 H399 H 0.35670 0.50472 0.22267
 H400 H 0.46587 0.62147 0.30830
 H401 H 0.44933 0.65109 0.23147
 H402 H 0.33638 0.53226 0.17580
 H403 H 0.32167 0.56438 0.10163
 H404 H 0.41149 0.65325 0.14942
   
