data_POSCAR
  _audit_creation_date              2014-09-24
  _audit_creation_method            'ToBaCCo'
  _symmetry_space_group_name_H-M    'P1'
  _symmetry_Int_Tables_number       1
  _symmetry_cell_setting            triclinic
  loop_
  _symmetry_equiv_pos_as_xyz
 x,y,z
_cell_length_a 33.4856
_cell_length_b 33.4853
_cell_length_c 33.4855
_cell_angle_alpha 89.653600
_cell_angle_beta 90.342300
_cell_angle_gamma 89.542900
loop_
  _atom_site_label
  _atom_site_type_symbol
  _atom_site_fract_x
  _atom_site_fract_y
  _atom_site_fract_z
O1 O 0.55438 0.49985 0.03280
 O2 O 0.44429 0.49952 0.03288
 O3 O 0.49993 0.44473 0.03275
 O4 O 0.49874 0.55463 0.03291
 O5 O 0.49830 0.55512 -0.03314
 O6 O 0.49949 0.44523 -0.03330
 O7 O 0.44384 0.50002 -0.03316
 O8 O 0.55393 0.50034 -0.03325
 Cu9 Cu 0.49938 0.49963 0.03950
 Cu10 Cu 0.49884 0.50023 -0.03988
 C11 C 0.57274 0.50016 -0.00024
 C12 C 0.42547 0.49972 -0.00013
 C13 C 0.49991 0.42644 -0.00030
 C14 C 0.49833 0.57342 -0.00009
 O15 O -0.03265 0.55616 0.49988
 O16 O -0.03287 0.44608 0.49949
 O17 O -0.03286 0.50059 0.55463
 O18 O -0.03267 0.50164 0.44473
 O19 O 0.03338 0.50098 0.44524
 O20 O 0.03319 0.49994 0.55514
 O21 O 0.03318 0.44542 0.50000
 O22 O 0.03338 0.55551 0.50039
 Cu23 Cu -0.03943 0.50119 0.49963
 Cu24 Cu 0.03995 0.50040 0.50024
 C25 C 0.00040 0.57443 0.50021
 C26 C 0.00012 0.42716 0.49969
 C27 C 0.00013 0.50009 0.57342
 C28 C 0.00038 0.50148 0.42645
 O29 O 0.49955 0.03301 0.55564
 O30 O 0.49994 0.03286 0.44555
 O31 O 0.44480 0.03284 0.50008
 O32 O 0.55470 0.03303 0.50111
 O33 O 0.55534 -0.03302 0.50160
 O34 O 0.44545 -0.03321 0.50057
 O35 O 0.50058 -0.03318 0.44605
 O36 O 0.50019 -0.03303 0.55613
 Cu37 Cu 0.49968 0.03960 0.50055
 Cu38 Cu 0.50046 -0.03978 0.50114
 C39 C 0.49979 0.00001 0.57448
 C40 C 0.50032 -0.00018 0.42722
 C41 C 0.42658 -0.00022 0.50015
 C42 C 0.57356 0.00004 0.50152
 C43 C 0.50142 0.10341 -0.07508
 C44 C 0.49932 0.07466 -0.10398
 C45 C 0.49857 0.03812 -0.08427
 N46 N 0.50009 0.04375 -0.04437
 C47 C 0.50180 0.08358 -0.03857
 C48 C 0.49776 0.00063 -0.10343
 C49 C 0.49843 -0.03680 -0.08343
 C50 C 0.50359 -0.07318 -0.10243
 C51 C 0.50333 -0.10219 -0.07330
 C52 C 0.49802 -0.08295 -0.03709
 N53 N 0.49437 -0.04313 -0.04365
 C54 C 0.49680 -0.10278 0.00039
 C55 C 0.49742 -0.08372 0.03795
 C56 C 0.49775 -0.10355 0.07446
 C57 C 0.49995 -0.07481 0.10336
 C58 C 0.50078 -0.03827 0.08365
 N59 N 0.49924 -0.04390 0.04375
 C60 C 0.50168 -0.00078 0.10281
 C61 C 0.50098 0.03665 0.08283
 C62 C 0.49585 0.07302 0.10184
 C63 C 0.49601 0.10204 0.07270
 C64 C 0.50126 0.08279 0.03648
 N65 N 0.50495 0.04298 0.04303
 C66 C 0.50238 0.10263 -0.00100
 H67 H 0.50230 0.13531 -0.08040
 H68 H 0.49865 0.08009 -0.13588
 H69 H 0.51268 0.02181 0.02200
 H70 H 0.50767 -0.07835 -0.13403
 H71 H 0.50718 -0.13390 -0.07827
 H72 H 0.49679 -0.13545 0.07979
 H73 H 0.50061 -0.08024 0.13526
 H74 H 0.49215 0.13374 0.07769
 H75 H 0.48659 -0.02196 -0.02263
 H76 H 0.49182 0.07819 0.13344
 C77 C -0.07455 0.49866 0.89648
 C78 C -0.10345 0.50073 0.92525
 C79 C -0.08373 0.50146 0.96178
 N80 N -0.04382 0.49996 0.95613
 C81 C -0.03803 0.49828 0.91629
 C82 C -0.10287 0.50222 0.99929
 C83 C -0.08286 0.50150 1.03670
 C84 C -0.10183 0.49628 1.07307
 C85 C -0.07269 0.49650 1.10207
 C86 C -0.03650 0.50186 1.08283
 N87 N -0.04308 0.50556 1.04302
 C88 C 0.00098 0.50307 1.10265
 C89 C 0.03854 0.50249 1.08358
 C90 C 0.07506 0.50215 1.10339
 C91 C 0.10395 0.50001 1.07462
 C92 C 0.08423 0.49922 1.03809
 N93 N 0.04433 0.50074 1.04375
 C94 C 0.10338 0.49838 1.00059
 C95 C 0.08338 0.49909 0.96317
 C96 C 0.10236 0.50423 0.92680
 C97 C 0.07322 0.50408 0.89780
 C98 C 0.03702 0.49884 0.91704
 N99 N 0.04359 0.49513 0.95685
 C100 C -0.00047 0.49773 0.89722
 H101 H -0.07988 0.49780 0.86459
 H102 H -0.13535 0.50139 0.91984
 H103 H 0.02258 0.48740 0.97801
 H104 H -0.13342 0.49218 1.07824
 H105 H -0.07764 0.49260 1.13377
 H106 H 0.08039 0.50306 1.13529
 H107 H 0.13585 0.49934 1.08004
 H108 H 0.07819 0.50794 0.86610
 H109 H -0.02209 0.51339 1.02187
 H110 H 0.13396 0.50825 0.92162
 C111 C 0.10366 -0.07519 0.49870
 C112 C 0.07495 -0.10408 0.50080
 C113 C 0.03838 -0.08435 0.50152
 N114 N 0.04396 -0.04445 0.49999
 C115 C 0.08379 -0.03867 0.49830
 C116 C 0.00091 -0.10348 0.50230
 C117 C -0.03654 -0.08347 0.50159
 C118 C -0.07288 -0.10245 0.49642
 C119 C -0.10194 -0.07330 0.49661
 C120 C -0.08275 -0.03710 0.50191
 N121 N -0.04294 -0.04368 0.50561
 C122 C -0.10264 0.00039 0.50308
 C123 C -0.08363 0.03795 0.50250
 C124 C -0.10351 0.07447 0.50217
 C125 C -0.07479 0.10336 0.50001
 C126 C -0.03823 0.08363 0.49919
 N127 N -0.04381 0.04373 0.50071
 C128 C -0.00077 0.10276 0.49831
 C129 C 0.03669 0.08276 0.49901
 C130 C 0.07303 0.10175 0.50412
 C131 C 0.10209 0.07260 0.50398
 C132 C 0.08290 0.03638 0.49879
 N133 N 0.04309 0.04296 0.49509
 C134 C 0.10279 -0.00111 0.49772
 H135 H 0.13557 -0.08053 0.49784
 H136 H 0.08042 -0.13598 0.50148
 H137 H 0.02196 0.02193 0.48739
 H138 H -0.07800 -0.13405 0.49235
 H139 H -0.13362 -0.07826 0.49274
 H140 H -0.13541 0.07982 0.50311
 H141 H -0.08027 0.13526 0.49935
 H142 H 0.13378 0.07757 0.50783
 H143 H -0.02182 -0.02267 0.51339
 H144 H 0.07815 0.13336 0.50810
 C145 C -0.25243 0.53718 1.01103
 C146 C -0.27919 0.52904 0.97411
 C147 C -0.30458 0.50081 0.99969
 C148 C -0.27848 0.50895 1.03661
 C149 C -0.22600 0.50135 0.99963
 C150 C -0.25138 0.47312 1.02521
 C151 C -0.25209 0.49322 0.96271
 C152 C -0.27815 0.46498 0.98829
 C153 C -0.34838 0.50054 0.99971
 C154 C -0.38439 0.50035 0.99973
 C155 C -0.18223 0.50166 0.99957
 C156 C -0.14622 0.50191 0.99946
 H157 H -0.24137 0.56688 1.02039
 H158 H -0.29110 0.55204 0.95310
 H159 H -0.28979 0.51541 1.06700
 H160 H -0.23945 0.45014 1.04622
 H161 H -0.24074 0.48676 0.93233
 H162 H -0.28919 0.43528 0.97893
 C163 C 0.25291 0.48626 1.03580
 C164 C 0.27962 0.46197 1.00698
 C165 C 0.30510 0.49932 1.00003
 C166 C 0.27906 0.52361 1.02885
 C167 C 0.22651 0.49901 1.00018
 C168 C 0.25198 0.53635 0.99324
 C169 C 0.25254 0.47471 0.97137
 C170 C 0.27869 0.51206 0.96442
 C171 C 0.34889 0.49948 0.99995
 C172 C 0.38491 0.49959 0.99991
 C173 C 0.18275 0.49880 1.00030
 C174 C 0.14673 0.49862 1.00041
 H175 H 0.24182 0.47566 1.06515
 H176 H 0.29145 0.43138 1.01262
 H177 H 0.29043 0.54372 1.05250
 H178 H 0.24013 0.56693 0.98759
 H179 H 0.24115 0.45461 0.94772
 H180 H 0.28975 0.52268 0.93506
 C181 C 0.01353 -0.25317 0.53691
 C182 C -0.02375 -0.27937 0.52985
 C183 C 0.00059 -0.30520 0.50088
 C184 C 0.03787 -0.27966 0.50793
 C185 C 0.00070 -0.22662 0.50144
 C186 C 0.02504 -0.25243 0.47247
 C187 C -0.03658 -0.25215 0.49439
 C188 C -0.01225 -0.27864 0.46541
 C189 C 0.00053 -0.34899 0.50061
 C190 C 0.00047 -0.38501 0.50041
 C191 C 0.00075 -0.18285 0.50175
 C192 C 0.00081 -0.14684 0.50200
 H193 H 0.02413 -0.24221 0.56631
 H194 H -0.04382 -0.29092 0.55345
 H195 H 0.06850 -0.29144 0.51350
 H196 H 0.04511 -0.24087 0.44888
 H197 H -0.06720 -0.24033 0.48882
 H198 H -0.02285 -0.28958 0.43600
 C199 C 0.03683 0.25137 0.50628
 C200 C 0.02444 0.27853 0.47060
 C201 C -0.00017 0.30448 0.49923
 C202 C 0.01222 0.27799 0.53491
 C203 C -0.00042 0.22590 0.49888
 C204 C -0.02503 0.25184 0.52751
 C205 C -0.01281 0.25238 0.46321
 C206 C -0.03742 0.27900 0.49184
 C207 C -0.00005 0.34828 0.49941
 C208 C 0.00003 0.38429 0.49955
 C209 C -0.00057 0.18213 0.49868
 C210 C -0.00066 0.14612 0.49852
 H211 H 0.06736 0.23951 0.51221
 H212 H 0.04479 0.28997 0.44720
 H213 H 0.02252 0.28899 0.56440
 H214 H -0.04539 0.24038 0.55090
 H215 H -0.02311 0.24137 0.43372
 H216 H -0.06796 0.29082 0.48590
 C217 C 0.53339 -0.01535 -0.25198
 C218 C 0.50300 -0.03745 -0.27884
 C219 C 0.49913 0.00016 -0.30514
 C220 C 0.52952 0.02226 -0.27895
 C221 C 0.49862 0.00027 -0.22656
 C222 C 0.49475 0.03788 -0.25285
 C223 C 0.46823 -0.02183 -0.25275
 C224 C 0.46437 0.01578 -0.27972
 C225 C 0.49940 0.00011 -0.34894
 C226 C 0.49960 0.00006 -0.38495
 C227 C 0.49832 0.00036 -0.18279
 C228 C 0.49807 0.00046 -0.14678
 H229 H 0.56176 -0.02816 -0.24009
 H230 H 0.50640 -0.06844 -0.28999
 H231 H 0.55473 0.04039 -0.29019
 H232 H 0.49136 0.06886 -0.24167
 H233 H 0.44303 -0.03996 -0.24149
 H234 H 0.43598 0.02859 -0.29159
 C235 C 0.53862 -0.00496 0.25234
 C236 C 0.52339 0.02989 0.27857
 C237 C 0.50079 -0.00032 0.30453
 C238 C 0.51602 -0.03517 0.27898
 C239 C 0.50115 -0.00044 0.22595
 C240 C 0.47855 -0.03065 0.25191
 C241 C 0.48592 0.03440 0.25149
 C242 C 0.46332 0.00420 0.27813
 C243 C 0.50060 -0.00028 0.34833
 C244 C 0.50047 -0.00024 0.38434
 C245 C 0.50134 -0.00053 0.18218
 C246 C 0.50149 -0.00063 0.14617
 H247 H 0.56959 -0.00873 0.24126
 H248 H 0.54184 0.05479 0.28999
 H249 H 0.52840 -0.06378 0.29074
 H250 H 0.46012 -0.05555 0.24045
 H251 H 0.47355 0.06301 0.23969
 H252 H 0.43234 0.00796 0.28920
 C253 C 0.51026 -0.25188 0.03565
 C254 C 0.47309 -0.27835 0.02905
 C255 C 0.49738 -0.30416 0.00004
 C256 C 0.53455 -0.27837 0.00664
 C257 C 0.49698 -0.22567 0.00011
 C258 C 0.52127 -0.25146 -0.02889
 C259 C 0.45981 -0.25144 -0.00649
 C260 C 0.48410 -0.27794 -0.03550
 C261 C 0.49766 -0.34785 0.00000
 C262 C 0.49794 -0.38381 -0.00003
 C263 C 0.49683 -0.18200 0.00017
 C264 C 0.49679 -0.14604 0.00025
 H265 H 0.52100 -0.24062 0.06488
 H266 H 0.45329 -0.28992 0.05286
 H267 H 0.56528 -0.28995 0.01204
 H268 H 0.54105 -0.23987 -0.05271
 H269 H 0.42909 -0.23984 -0.01189
 H270 H 0.47335 -0.28916 -0.06474
 C271 C 0.53880 0.25141 0.00637
 C272 C 0.52580 0.27832 -0.02928
 C273 C 0.50112 0.30401 -0.00051
 C274 C 0.51411 0.27779 0.03514
 C275 C 0.50178 0.22552 -0.00066
 C276 C 0.47710 0.25121 0.02811
 C277 C 0.48879 0.25173 -0.03630
 C278 C 0.46410 0.27811 -0.00753
 C279 C 0.50071 0.34771 -0.00043
 C280 C 0.50036 0.38366 -0.00037
 C281 C 0.50208 0.18186 -0.00076
 C282 C 0.50225 0.14590 -0.00086
 H283 H 0.56950 0.23991 0.01208
 H284 H 0.54581 0.28997 -0.05287
 H285 H 0.52450 0.28902 0.06451
 H286 H 0.45710 0.23952 0.05170
 H287 H 0.47840 0.24047 -0.06566
 H288 H 0.43340 0.28960 -0.01325
 C289 C -0.25175 0.03627 0.51377
 C290 C -0.27834 0.02808 0.47675
 C291 C -0.30402 0.00017 0.50235
 C292 C -0.27811 0.00836 0.53937
 C293 C -0.22553 0.00019 0.50273
 C294 C -0.25120 -0.02772 0.52833
 C295 C -0.25143 -0.00799 0.46571
 C296 C -0.27779 -0.03591 0.49131
 C297 C -0.34771 0.00014 0.50210
 C298 C -0.38367 0.00011 0.50186
 C299 C -0.18186 0.00023 0.50291
 C300 C -0.14591 0.00029 0.50301
 H301 H -0.24049 0.06594 0.52300
 H302 H -0.29001 0.05102 0.45554
 H303 H -0.28959 0.01508 0.56965
 H304 H -0.23950 -0.05066 0.54953
 H305 H -0.23994 -0.01472 0.43544
 H306 H -0.28901 -0.06558 0.48207
 C307 C 0.25168 -0.01410 0.53410
 C308 C 0.27863 -0.03795 0.50516
 C309 C 0.30417 -0.00052 0.49907
 C310 C 0.27790 0.02334 0.52801
 C311 C 0.22568 -0.00077 0.49843
 C312 C 0.25120 0.03666 0.49233
 C313 C 0.25194 -0.02463 0.46948
 C314 C 0.27815 0.01281 0.46339
 C315 C 0.34786 -0.00039 0.49944
 C316 C 0.38381 -0.00030 0.49976
 C317 C 0.18201 -0.00090 0.49811
 C318 C 0.14606 -0.00100 0.49790
 H319 H 0.24027 -0.02516 0.56316
 H320 H 0.29042 -0.06862 0.51044
 H321 H 0.28908 0.04305 0.55208
 H322 H 0.23937 0.06732 0.48706
 H323 H 0.24073 -0.04434 0.44543
 H324 H 0.28955 0.02387 0.43433
 C325 C 0.03822 0.49774 1.25175
 C326 C 0.02339 0.53254 1.27824
 C327 C 0.00058 0.50237 1.30403
 C328 C 0.01541 0.46755 1.27822
 C329 C 0.00069 0.50278 1.22554
 C330 C -0.02211 0.47261 1.25132
 C331 C -0.01413 0.53759 1.25133
 C332 C -0.03694 0.50741 1.27780
 C333 C 0.00052 0.50209 1.34772
 C334 C 0.00046 0.50183 1.38367
 C335 C 0.00078 0.50295 1.18187
 C336 C 0.00086 0.50303 1.14591
 H337 H 0.06910 0.49377 1.24049
 H338 H 0.04209 0.55718 1.28981
 H339 H 0.02755 0.43876 1.28979
 H340 H -0.04081 0.44798 1.23972
 H341 H -0.02627 0.56638 1.23974
 H342 H -0.06783 0.51138 1.28903
 C343 C 0.03461 0.48336 0.74865
 C344 C 0.00432 0.46119 0.72175
 C345 C -0.00006 0.49900 0.69584
 C346 C 0.03024 0.52118 0.72205
 C347 C -0.00019 0.49840 0.77433
 C348 C -0.00457 0.53621 0.74843
 C349 C -0.03048 0.47623 0.74813
 C350 C -0.03486 0.51405 0.72154
 C351 C 0.00001 0.49937 0.65215
 C352 C 0.00006 0.49969 0.61620
 C353 C -0.00027 0.49810 0.81800
 C354 C -0.00036 0.49791 0.85396
 H355 H 0.06316 0.47075 0.76034
 H356 H 0.00797 0.43035 0.71027
 H357 H 0.05520 0.53966 0.71082
 H358 H -0.00822 0.56705 0.75992
 H359 H -0.05544 0.45776 0.75940
 H360 H -0.06341 0.52667 0.70988
   
