data_POSCAR
  _audit_creation_date              2014-09-24
  _audit_creation_method            'ToBaCCo'
  _symmetry_space_group_name_H-M    'P1'
  _symmetry_Int_Tables_number       1
  _symmetry_cell_setting            triclinic
  loop_
  _symmetry_equiv_pos_as_xyz
 x,y,z
_cell_length_a 62.1557
_cell_length_b 46.3480
_cell_length_c 44.9402
_cell_angle_alpha 90.046200
_cell_angle_beta 90.021500
_cell_angle_gamma 90.034400
loop_
  _atom_site_label
  _atom_site_type_symbol
  _atom_site_fract_x
  _atom_site_fract_y
  _atom_site_fract_z
C1 C 0.24936 0.26275 0.24999
 C2 C 0.24931 0.23332 0.25020
 C3 C 0.23375 0.21643 0.23207
 C4 C 0.26484 0.21667 0.26856
 C5 C 0.26669 0.27963 0.26475
 C6 C 0.23209 0.27951 0.23503
 C7 C 0.22097 0.19533 0.24552
 C8 C 0.20584 0.17988 0.22893
 C9 C 0.20297 0.18491 0.19800
 C10 C 0.21656 0.20592 0.18473
 C11 C 0.23170 0.22121 0.20147
 C12 C 0.26684 0.22189 0.29922
 C13 C 0.28204 0.20688 0.31607
 C14 C 0.29537 0.18611 0.30265
 C15 C 0.29292 0.18039 0.27210
 C16 C 0.27774 0.19547 0.25525
 C17 C 0.28842 0.27466 0.25794
 C18 C 0.30459 0.29025 0.27241
 C19 C 0.29932 0.31134 0.29369
 C20 C 0.27752 0.31669 0.29996
 C21 C 0.26137 0.30104 0.28555
 C22 C 0.23749 0.30068 0.21403
 C23 C 0.22140 0.31632 0.19954
 C24 C 0.19958 0.31119 0.20591
 C25 C 0.19423 0.29031 0.22735
 C26 C 0.21035 0.27474 0.24190
 H27 H 0.22229 0.19136 0.26921
 H28 H 0.19571 0.16530 0.24135
 H29 H 0.21655 0.21004 0.16109
 H30 H 0.24195 0.23680 0.19043
 H31 H 0.25669 0.23772 0.31005
 H32 H 0.28327 0.21137 0.33966
 H33 H 0.27639 0.19105 0.23165
 H34 H 0.29284 0.25868 0.24145
 H35 H 0.32121 0.28601 0.26671
 H36 H 0.27295 0.33259 0.31645
 H37 H 0.24469 0.30526 0.29102
 H38 H 0.25418 0.30476 0.20851
 H39 H 0.22602 0.33204 0.18292
 H40 H 0.17759 0.28624 0.23312
 H41 H 0.20586 0.25894 0.25853
 H42 H 0.30307 0.16471 0.26107
 C43 C 0.75047 0.23489 0.25037
 C44 C 0.75020 0.26431 0.24973
 C45 C 0.76719 0.28111 0.23422
 C46 C 0.73290 0.28115 0.26454
 C47 C 0.73488 0.21819 0.26859
 C48 C 0.76634 0.21798 0.23285
 C49 C 0.78902 0.27708 0.24107
 C50 C 0.80487 0.29253 0.22582
 C51 C 0.79916 0.31248 0.20362
 C52 C 0.77725 0.31691 0.19732
 C53 C 0.76143 0.30145 0.21256
 C54 C 0.73830 0.30260 0.28526
 C55 C 0.72220 0.31806 0.29995
 C56 C 0.70037 0.31248 0.29404
 C57 C 0.69502 0.29138 0.27277
 C58 C 0.71114 0.27599 0.25802
 C59 C 0.72217 0.19684 0.25514
 C60 C 0.70694 0.18167 0.27179
 C61 C 0.70422 0.18745 0.30228
 C62 C 0.71735 0.20839 0.31585
 C63 C 0.73263 0.22349 0.29920
 C64 C 0.76840 0.22196 0.20202
 C65 C 0.78384 0.20655 0.18594
 C66 C 0.79737 0.18668 0.20037
 C67 C 0.79488 0.18224 0.23113
 C68 C 0.77945 0.19766 0.24717
 H69 H 0.79378 0.26183 0.25808
 H70 H 0.82161 0.28851 0.23105
 H71 H 0.77233 0.33248 0.18071
 H72 H 0.74466 0.30506 0.20717
 H73 H 0.75500 0.30697 0.29051
 H74 H 0.72683 0.33397 0.31641
 H75 H 0.70666 0.25996 0.24161
 H76 H 0.72373 0.19237 0.23158
 H77 H 0.69694 0.16586 0.26064
 H78 H 0.71590 0.21294 0.33940
 H79 H 0.74262 0.23945 0.31013
 H80 H 0.75818 0.23720 0.19046
 H81 H 0.78545 0.21058 0.16232
 H82 H 0.80479 0.16671 0.24277
 H83 H 0.77796 0.19409 0.27090
 H84 H 0.67836 0.28697 0.26736
 C85 C 0.74992 0.76342 0.74987
 C86 C 0.75017 0.73400 0.74937
 C87 C 0.73304 0.71716 0.73416
 C88 C 0.76759 0.71725 0.76400
 C89 C 0.76561 0.78025 0.76784
 C90 C 0.73397 0.78025 0.73242
 C91 C 0.71126 0.72134 0.74123
 C92 C 0.69526 0.70605 0.72608
 C93 C 0.70076 0.68609 0.70376
 C94 C 0.72262 0.68143 0.69730
 C95 C 0.73860 0.69674 0.71244
 C96 C 0.76239 0.69594 0.78493
 C97 C 0.77862 0.68070 0.79957
 C98 C 0.80040 0.68636 0.79340
 C99 C 0.80555 0.70726 0.77188
 C100 C 0.78930 0.72243 0.75719
 C101 C 0.77805 0.80169 0.75427
 C102 C 0.79319 0.81726 0.77070
 C103 C 0.79631 0.81193 0.80140
 C104 C 0.78327 0.79059 0.81490
 C105 C 0.76808 0.77516 0.79838
 C106 C 0.73176 0.77613 0.70161
 C107 C 0.71638 0.79166 0.68557
 C108 C 0.70304 0.81179 0.70001
 C109 C 0.70565 0.81630 0.73075
 C110 C 0.72102 0.80076 0.74676
 H111 H 0.70666 0.73665 0.75829
 H112 H 0.67857 0.71024 0.73145
 H113 H 0.72737 0.66584 0.68060
 H114 H 0.75532 0.69301 0.70688
 H115 H 0.74573 0.69156 0.79041
 H116 H 0.77414 0.66494 0.81623
 H117 H 0.79363 0.73835 0.74061
 H118 H 0.77639 0.80592 0.73068
 H119 H 0.80306 0.83248 0.75863
 H120 H 0.78404 0.78630 0.83851
 H121 H 0.75817 0.75924 0.80948
 H122 H 0.74186 0.76076 0.69004
 H123 H 0.71467 0.78758 0.66197
 H124 H 0.69588 0.83201 0.74239
 H125 H 0.72263 0.80444 0.77046
 H126 H 0.82216 0.71172 0.76625
 C127 C 0.25012 0.73481 0.75001
 C128 C 0.25014 0.76424 0.75013
 C129 C 0.26743 0.78108 0.73528
 C130 C 0.23288 0.78101 0.76512
 C131 C 0.23450 0.71794 0.76801
 C132 C 0.26573 0.71806 0.73186
 C133 C 0.28917 0.77619 0.74206
 C134 C 0.30531 0.79156 0.72734
 C135 C 0.29999 0.81238 0.70581
 C136 C 0.27818 0.81770 0.69961
 C137 C 0.26206 0.80226 0.71429
 C138 C 0.23824 0.80208 0.78617
 C139 C 0.22217 0.81752 0.80094
 C140 C 0.20014 0.81241 0.79498
 C141 C 0.19503 0.79149 0.77313
 C142 C 0.21117 0.77619 0.75835
 C143 C 0.22174 0.69685 0.75438
 C144 C 0.20664 0.68131 0.77088
 C145 C 0.20389 0.68633 0.80172
 C146 C 0.21727 0.70728 0.81526
 C147 C 0.23241 0.72268 0.79867
 C148 C 0.26780 0.72301 0.70117
 C149 C 0.28296 0.70771 0.68450
 C150 C 0.29615 0.68692 0.69813
 C151 C 0.29365 0.68154 0.72873
 C152 C 0.27854 0.69690 0.74539
 H153 H 0.29364 0.76038 0.75869
 H154 H 0.32195 0.78736 0.73299
 H155 H 0.27357 0.83339 0.68296
 H156 H 0.24537 0.80642 0.70883
 H157 H 0.25494 0.80609 0.79173
 H158 H 0.22730 0.83243 0.81803
 H159 H 0.20671 0.76057 0.74150
 H160 H 0.22311 0.69289 0.73070
 H161 H 0.19651 0.66638 0.75880
 H162 H 0.21680 0.71130 0.83895
 H163 H 0.24258 0.73832 0.80980
 H164 H 0.25773 0.73880 0.69018
 H165 H 0.28423 0.71195 0.66088
 H166 H 0.30371 0.66586 0.73992
 H167 H 0.27712 0.69270 0.76902
 H168 H 0.17861 0.78742 0.76639
 O169 O 1.02068 -0.03676 -0.00588
 O170 O 0.97943 0.00241 0.03688
 O171 O 0.97882 -0.03672 -0.00463
 O172 O 1.02135 0.00223 0.03587
 O173 O 1.02096 0.03644 0.00179
 O174 O 0.97838 -0.00254 -0.03874
 O175 O 0.97903 0.03659 0.00277
 O176 O 1.02025 -0.00255 -0.03996
 Cu177 Cu 1.00013 -0.02062 0.01899
 Cu178 Cu 0.99963 0.02042 -0.02194
 C179 C 1.02752 -0.02638 -0.03028
 C180 C 0.97211 0.02618 0.02709
 C181 C 0.97129 -0.02630 -0.02861
 C182 C 1.02846 0.02599 0.02578
 O183 O 0.47906 0.49908 0.45893
 O184 O 0.52045 0.53750 0.50228
 O185 O 0.52089 0.49919 0.45980
 O186 O 0.47854 0.53752 0.50118
 O187 O 0.47814 0.50278 0.53468
 O188 O 0.52052 0.46442 0.49327
 O189 O 0.52004 0.50273 0.53574
 O190 O 0.47869 0.46434 0.49244
 Cu191 Cu 0.49979 0.52183 0.47721
 Cu192 Cu 0.49932 0.48011 0.51741
 C193 C 0.47180 0.47510 0.46826
 C194 C 0.52733 0.52670 0.52645
 C195 C 0.52791 0.47519 0.46937
 C196 C 0.47105 0.52671 0.52499
 O197 O 0.02197 0.50300 -0.03573
 O198 O -0.02071 0.46493 0.00535
 O199 O -0.01992 0.50317 -0.03712
 O200 O 0.02111 0.46464 0.00650
 O201 O 0.02074 0.49942 0.04001
 O202 O -0.02033 0.53799 -0.00365
 O203 O -0.02110 0.49974 0.03882
 O204 O 0.02156 0.53780 -0.00223
 Cu205 Cu 0.00064 0.48046 -0.01862
 Cu206 Cu 0.00016 0.52224 0.02158
 C207 C 0.02910 0.52691 -0.02599
 C208 C -0.02816 0.47576 0.02919
 C209 C -0.02715 0.52719 -0.02788
 C210 C 0.02795 0.47539 0.03074
 O211 O 0.52077 1.00492 0.46446
 O212 O 0.47943 0.96547 0.50680
 O213 O 0.47883 1.00458 0.46523
 O214 O 0.52129 0.96567 0.50578
 O215 O 0.52159 0.99974 0.54007
 O216 O 0.47909 1.03869 0.49948
 O217 O 0.47973 0.99957 0.54105
 O218 O 0.52103 1.03900 0.49874
 Cu219 Cu 0.50004 0.98177 0.48212
 Cu220 Cu 0.50038 1.02268 0.52325
 C221 C 0.52804 1.02868 0.47441
 C222 C 0.47253 0.97575 0.53121
 C223 C 0.47166 1.02828 0.47541
 C224 C 0.52873 0.97603 0.52986
 C225 C 1.16281 0.12945 0.17559
 C226 C 1.15560 0.14056 0.14856
 C227 C 1.16429 0.16624 0.13778
 C228 C 1.18009 0.18091 0.15399
 C229 C 1.18769 0.17030 0.18175
 C230 C 1.17857 0.14397 0.19198
 C231 C 1.13913 0.12571 0.13200
 C232 C 1.12528 0.11326 0.11828
 C233 C 1.10899 0.09864 0.10239
 C234 C 1.09504 0.08610 0.08894
 C235 C 1.07834 0.07104 0.07304
 C236 C 1.07001 0.08251 0.04665
 C237 C 1.05376 0.06789 0.03124
 C238 C 1.04564 0.04156 0.04207
 C239 C 1.05413 0.03022 0.06864
 C240 C 1.07037 0.04489 0.08400
 H241 H 1.15633 0.10933 0.18401
 H242 H 1.15865 0.17523 0.11694
 H243 H 1.18520 0.20140 0.14500
 H244 H 1.18406 0.13334 0.21194
 H245 H 1.07606 0.10275 0.03798
 H246 H 1.04758 0.07719 0.01087
 H247 H 1.04824 0.01002 0.07758
 H248 H 1.07670 0.03582 0.10441
 C249 C 0.64942 0.64511 0.68579
 C250 C 0.65152 0.64104 0.65507
 C251 C 0.66969 0.65160 0.64028
 C252 C 0.68572 0.66619 0.65612
 C253 C 0.68377 0.67042 0.68702
 C254 C 0.66543 0.65973 0.70169
 C255 C 0.63505 0.62606 0.63865
 C256 C 0.62133 0.61355 0.62473
 C257 C 0.60534 0.59891 0.60829
 C258 C 0.59173 0.58641 0.59415
 C259 C 0.57553 0.57147 0.57720
 C260 C 0.56790 0.58327 0.55055
 C261 C 0.55221 0.56873 0.53401
 C262 C 0.54395 0.54214 0.54393
 C263 C 0.55173 0.53047 0.57076
 C264 C 0.56741 0.54506 0.58726
 H265 H 0.63544 0.63696 0.69747
 H266 H 0.67145 0.64865 0.61649
 H267 H 0.69948 0.67453 0.64412
 H268 H 0.66358 0.66235 0.72549
 H269 H 0.57408 0.60370 0.54255
 H270 H 0.54657 0.57830 0.51347
 H271 H 0.54571 0.51007 0.57903
 H272 H 0.57322 0.53573 0.60785
 C273 C -0.14997 0.35447 0.18579
 C274 C -0.15221 0.35874 0.15511
 C275 C -0.17029 0.34790 0.14030
 C276 C -0.18610 0.33287 0.15607
 C277 C -0.18403 0.32847 0.18692
 C278 C -0.16576 0.33942 0.20161
 C279 C -0.13597 0.37422 0.13880
 C280 C -0.12243 0.38716 0.12501
 C281 C -0.10660 0.40228 0.10877
 C282 C -0.09309 0.41516 0.09486
 C283 C -0.07694 0.43049 0.07824
 C284 C -0.06883 0.41881 0.05180
 C285 C -0.05302 0.43358 0.03574
 C286 C -0.04511 0.46027 0.04595
 C287 C -0.05343 0.47188 0.07251
 C288 C -0.06923 0.45706 0.08853
 H289 H -0.13605 0.36284 0.19749
 H290 H -0.17215 0.35099 0.11654
 H291 H -0.19982 0.32435 0.14405
 H292 H -0.16383 0.33668 0.22538
 H293 H -0.07468 0.39825 0.04363
 H294 H -0.04696 0.42405 0.01540
 H295 H -0.04769 0.49236 0.08099
 H296 H -0.07541 0.46630 0.10897
 C297 C 0.33090 0.87279 0.66805
 C298 C 0.34928 0.85823 0.65818
 C299 C 0.35167 0.82877 0.66411
 C300 C 0.33572 0.81388 0.67977
 C301 C 0.31712 0.82829 0.68966
 C302 C 0.31491 0.85794 0.68368
 C303 C 0.36558 0.87348 0.64175
 C304 C 0.37917 0.88628 0.62789
 C305 C 0.39501 0.90130 0.61160
 C306 C 0.40851 0.91418 0.59765
 C307 C 0.42459 0.92960 0.58098
 C308 C 0.43224 0.91839 0.55406
 C309 C 0.44783 0.93339 0.53783
 C310 C 0.45598 0.95984 0.54834
 C311 C 0.44818 0.97092 0.57544
 C312 C 0.43259 0.95588 0.59162
 H313 H 0.32890 0.89561 0.66363
 H314 H 0.36581 0.81727 0.65649
 H315 H 0.33775 0.79099 0.68368
 H316 H 0.30092 0.86971 0.69132
 H317 H 0.42614 0.89807 0.54562
 H318 H 0.45349 0.92427 0.51707
 H319 H 0.45412 0.99121 0.58415
 H320 H 0.42678 0.96476 0.61243
 C321 C -0.16829 0.62665 -0.16834
 C322 C -0.15009 0.64159 -0.15835
 C323 C -0.14792 0.67105 -0.16446
 C324 C -0.16393 0.68557 -0.18037
 C325 C -0.18236 0.67079 -0.19034
 C326 C -0.18433 0.64114 -0.18422
 C327 C -0.13378 0.62675 -0.14155
 C328 C -0.12021 0.61430 -0.12735
 C329 C -0.10438 0.59970 -0.11061
 C330 C -0.09092 0.58718 -0.09627
 C331 C -0.07489 0.57217 -0.07912
 C332 C -0.06684 0.54568 -0.08909
 C333 C -0.05131 0.53103 -0.07242
 C334 C -0.04362 0.54270 -0.04552
 C335 C -0.05182 0.56936 -0.03569
 C336 C -0.06735 0.58397 -0.05240
 H337 H -0.17012 0.60383 -0.16379
 H338 H -0.13393 0.68284 -0.15675
 H339 H -0.16208 0.70848 -0.18437
 H340 H -0.19819 0.62909 -0.19191
 H341 H -0.07257 0.53634 -0.10973
 H342 H -0.04534 0.51056 -0.08062
 H343 H -0.04624 0.57894 -0.01510
 H344 H -0.07348 0.60446 -0.04448
 C345 C 0.33163 1.12680 0.33225
 C346 C 0.34397 1.14189 0.35317
 C347 C 0.34029 1.17133 0.35782
 C348 C 0.32439 1.18568 0.34154
 C349 C 0.31197 1.17074 0.32035
 C350 C 0.31573 1.14111 0.31593
 C351 C 0.36056 1.12722 0.36962
 C352 C 0.37451 1.11492 0.38325
 C353 C 0.39090 1.10046 0.39905
 C354 C 0.40493 1.08804 0.41243
 C355 C 0.42170 1.07311 0.42825
 C356 C 0.42997 1.08457 0.45471
 C357 C 0.44626 1.07003 0.47007
 C358 C 0.45448 1.04380 0.45913
 C359 C 0.44606 1.03248 0.43248
 C360 C 0.42978 1.04706 0.41717
 H361 H 0.33432 1.10399 0.32852
 H362 H 0.34981 1.18324 0.37387
 H363 H 0.32208 1.20857 0.34515
 H364 H 0.30627 1.12895 0.30005
 H365 H 0.42383 1.10473 0.46348
 H366 H 0.45238 1.07932 0.49050
 H367 H 0.45202 1.01235 0.42345
 H368 H 0.42350 1.03800 0.39671
 C369 C 1.14687 -0.16939 -0.17035
 C370 C 1.15123 -0.14246 -0.15777
 C371 C 1.17164 -0.13026 -0.16102
 C372 C 1.18770 -0.14495 -0.17663
 C373 C 1.18372 -0.17236 -0.18947
 C374 C 1.16285 -0.18418 -0.18604
 C375 C 1.13483 -0.12741 -0.14134
 C376 C 1.12116 -0.11478 -0.12747
 C377 C 1.10523 -0.09996 -0.11113
 C378 C 1.09167 -0.08726 -0.09714
 C379 C 1.07553 -0.07204 -0.08039
 C380 C 1.06794 -0.08339 -0.05352
 C381 C 1.05231 -0.06856 -0.03719
 C382 C 1.04406 -0.04213 -0.04755
 C383 C 1.05180 -0.03092 -0.07461
 C384 C 1.06742 -0.04579 -0.09089
 H385 H 1.13114 -0.17916 -0.16776
 H386 H 1.17514 -0.10926 -0.15157
 H387 H 1.20294 -0.13404 -0.17938
 H388 H 1.15886 -0.20546 -0.19423
 H389 H 1.07411 -0.10369 -0.04518
 H390 H 1.04670 -0.07778 -0.01646
 H391 H 1.04579 -0.01065 -0.08321
 H392 H 1.07319 -0.03681 -0.11166
 C393 C 0.64895 0.32881 0.33635
 C394 C 0.65128 0.35835 0.34202
 C395 C 0.66951 0.37298 0.33171
 C396 C 0.68542 0.35813 0.31594
 C397 C 0.68328 0.32840 0.31024
 C398 C 0.66483 0.31392 0.32055
 C399 C 0.63508 0.37360 0.35863
 C400 C 0.62159 0.38641 0.37264
 C401 C 0.60583 0.40144 0.38909
 C402 C 0.59239 0.41430 0.40315
 C403 C 0.57633 0.42967 0.41991
 C404 C 0.56828 0.41803 0.44639
 C405 C 0.55259 0.43288 0.46258
 C406 C 0.54473 0.45961 0.45246
 C407 C 0.55299 0.47116 0.42586
 C408 C 0.56868 0.45627 0.40971
 H409 H 0.63493 0.31726 0.34430
 H410 H 0.67145 0.39585 0.33591
 H411 H 0.69930 0.36994 0.30797
 H412 H 0.66286 0.29098 0.31687
 H413 H 0.57410 0.39745 0.45448
 H414 H 0.54657 0.42339 0.48295
 H415 H 0.54729 0.49167 0.41745
 H416 H 0.57481 0.46548 0.38924
 C417 C 0.83717 -0.16961 -0.14001
 C418 C 0.84405 -0.14246 -0.14950
 C419 C 0.83502 -0.13018 -0.17496
 C420 C 0.81926 -0.14503 -0.19103
 C421 C 0.81210 -0.17267 -0.18198
 C422 C 0.82138 -0.18457 -0.15595
 C423 C 0.86053 -0.12727 -0.13331
 C424 C 0.87440 -0.11453 -0.11992
 C425 C 0.89071 -0.09960 -0.10438
 C426 C 0.90467 -0.08685 -0.09118
 C427 C 0.92138 -0.07164 -0.07548
 C428 C 0.92928 -0.04550 -0.08658
 C429 C 0.94553 -0.03073 -0.07137
 C430 C 0.95411 -0.04195 -0.04480
 C431 C 0.94606 -0.06826 -0.03384
 C432 C 0.92981 -0.08299 -0.04909
 H433 H 0.84420 -0.17944 -0.12041
 H434 H 0.84010 -0.10900 -0.18237
 H435 H 0.81227 -0.13406 -0.20992
 H436 H 0.81732 -0.20600 -0.14832
 H437 H 0.92287 -0.03653 -0.10700
 H438 H 0.95137 -0.01053 -0.08041
 H439 H 0.95231 -0.07749 -0.01346
 H440 H 0.92382 -0.10322 -0.04031
 C441 C 0.35111 0.32856 0.33481
 C442 C 0.34867 0.35809 0.34035
 C443 C 0.33023 0.37243 0.33037
 C444 C 0.31422 0.35729 0.31504
 C445 C 0.31647 0.32756 0.30948
 C446 C 0.33514 0.31337 0.31947
 C447 C 0.36495 0.37361 0.35658
 C448 C 0.37852 0.38657 0.37033
 C449 C 0.39433 0.40170 0.38661
 C450 C 0.40781 0.41455 0.40066
 C451 C 0.42386 0.42978 0.41759
 C452 C 0.43151 0.41817 0.44430
 C453 C 0.44709 0.43292 0.46082
 C454 C 0.45524 0.45953 0.45081
 C455 C 0.44743 0.47104 0.42392
 C456 C 0.43185 0.45624 0.40744
 H457 H 0.36529 0.31722 0.34254
 H458 H 0.32819 0.39531 0.33448
 H459 H 0.30017 0.36888 0.30731
 H460 H 0.33720 0.29043 0.31588
 H461 H 0.42543 0.39771 0.45237
 H462 H 0.45275 0.42346 0.48141
 H463 H 0.45337 0.49146 0.41559
 H464 H 0.42603 0.46543 0.38679
 C465 C 0.16351 0.66793 -0.13911
 C466 C 0.15625 0.64101 -0.14883
 C467 C 0.16486 0.62887 -0.17464
 C468 C 0.18058 0.64362 -0.19085
 C469 C 0.18813 0.67102 -0.18157
 C470 C 0.17926 0.68278 -0.15518
 C471 C 0.13982 0.62594 -0.13246
 C472 C 0.12599 0.61336 -0.11887
 C473 C 0.10972 0.59867 -0.10307
 C474 C 0.09577 0.58615 -0.08963
 C475 C 0.07908 0.57124 -0.07363
 C476 C 0.07115 0.54491 -0.08425
 C477 C 0.05489 0.53046 -0.06877
 C478 C 0.04633 0.54219 -0.04242
 C479 C 0.05442 0.56868 -0.03193
 C480 C 0.07068 0.58309 -0.04745
 H481 H 0.15681 0.67765 -0.11924
 H482 H 0.15948 0.60787 -0.18224
 H483 H 0.18723 0.63275 -0.21005
 H484 H 0.18361 0.70405 -0.14735
 H485 H 0.07754 0.53555 -0.10451
 H486 H 0.04903 0.51011 -0.07745
 H487 H 0.04819 0.57830 -0.01173
 H488 H 0.07670 0.60347 -0.03903
 C489 C 0.66796 1.12785 0.33130
 C490 C 0.65533 1.14286 0.35190
 C491 C 0.65884 1.17234 0.35658
 C492 C 0.67485 1.18681 0.34062
 C493 C 0.68756 1.17195 0.31972
 C494 C 0.68397 1.14227 0.31530
 C495 C 0.63863 1.12806 0.36802
 C496 C 0.62461 1.11566 0.38142
 C497 C 0.60817 1.10111 0.39702
 C498 C 0.59412 1.08866 0.41033
 C499 C 0.57738 1.07375 0.42624
 C500 C 0.56937 1.08515 0.45287
 C501 C 0.55324 1.07057 0.46848
 C502 C 0.54490 1.04435 0.45765
 C503 C 0.55301 1.03312 0.43080
 C504 C 0.56914 1.04775 0.41522
 H505 H 0.66541 1.10500 0.32756
 H506 H 0.64910 1.18420 0.37241
 H507 H 0.67703 1.20973 0.34423
 H508 H 0.69365 1.13017 0.29964
 H509 H 0.57564 1.10527 0.46160
 H510 H 0.54737 1.07980 0.48908
 H511 H 0.54695 1.01299 0.42186
 H512 H 0.57523 1.03873 0.39463
 C513 C 0.14779 0.32860 0.16491
 C514 C 0.15041 0.35807 0.15918
 C515 C 0.16896 0.37230 0.16898
 C516 C 0.18491 0.35712 0.18433
 C517 C 0.18248 0.32746 0.19009
 C518 C 0.16371 0.31338 0.18028
 C519 C 0.13419 0.37362 0.14292
 C520 C 0.12068 0.38662 0.12913
 C521 C 0.10493 0.40178 0.11280
 C522 C 0.09153 0.41466 0.09871
 C523 C 0.07557 0.42994 0.08170
 C524 C 0.06797 0.41832 0.05494
 C525 C 0.05249 0.43311 0.03833
 C526 C 0.04439 0.45977 0.04830
 C527 C 0.05214 0.47128 0.07524
 C528 C 0.06763 0.45644 0.09181
 H529 H 0.13352 0.31735 0.15733
 H530 H 0.17113 0.39513 0.16472
 H531 H 0.19905 0.36864 0.19193
 H532 H 0.16151 0.29049 0.18403
 H533 H 0.07401 0.39782 0.04690
 H534 H 0.04686 0.42365 0.01770
 H535 H 0.04624 0.49174 0.08354
 H536 H 0.07341 0.46563 0.11250
 C537 C 0.67504 0.85390 0.63876
 C538 C 0.65472 0.85841 0.65133
 C539 C 0.65018 0.84770 0.67974
 C540 C 0.66589 0.83255 0.69556
 C541 C 0.68638 0.82790 0.68316
 C542 C 0.69078 0.83872 0.65455
 C543 C 0.63850 0.87401 0.63512
 C544 C 0.62482 0.88704 0.62168
 C545 C 0.60872 0.90223 0.60606
 C546 C 0.59490 0.91515 0.59278
 C547 C 0.57835 0.93050 0.57695
 C548 C 0.57045 0.95662 0.58811
 C549 C 0.55430 0.97147 0.57281
 C550 C 0.54584 0.96035 0.54610
 C551 C 0.55391 0.93408 0.53507
 C552 C 0.57006 0.91927 0.55041
 H553 H 0.67874 0.86216 0.61680
 H554 H 0.63448 0.85098 0.68963
 H555 H 0.66191 0.82413 0.71735
 H556 H 0.70648 0.83579 0.64455
 H557 H 0.57675 0.96549 0.60866
 H558 H 0.54844 0.99163 0.58191
 H559 H 0.54776 0.92493 0.51458
 H560 H 0.57606 0.89906 0.54158
 C561 C 0.82577 0.14515 0.13900
 C562 C 0.84618 0.14111 0.15150
 C563 C 0.85062 0.15188 0.17995
 C564 C 0.83474 0.16663 0.19585
 C565 C 0.81417 0.17084 0.18349
 C566 C 0.80986 0.15994 0.15487
 C567 C 0.86259 0.12599 0.13516
 C568 C 0.87640 0.11338 0.12156
 C569 C 0.89263 0.09865 0.10569
 C570 C 0.90651 0.08611 0.09215
 C571 C 0.92308 0.07115 0.07595
 C572 C 0.93132 0.04510 0.08676
 C573 C 0.94734 0.03049 0.07094
 C574 C 0.95532 0.04178 0.04406
 C575 C 0.94696 0.06804 0.03343
 C576 C 0.93095 0.08260 0.04928
 H577 H 0.82215 0.13685 0.11702
 H578 H 0.86638 0.14895 0.18979
 H579 H 0.83865 0.17512 0.21765
 H580 H 0.79412 0.16253 0.14490
 H581 H 0.92534 0.03604 0.10738
 H582 H 0.95342 0.01033 0.07973
 H583 H 0.95275 0.07732 0.01282
 H584 H 0.92468 0.10276 0.04072
 C585 C 0.33186 0.62672 0.66914
 C586 C 0.34432 0.64138 0.64808
 C587 C 0.34091 0.67083 0.64314
 C588 C 0.32514 0.68562 0.65926
 C589 C 0.31260 0.67110 0.68060
 C590 C 0.31610 0.64146 0.68531
 C591 C 0.36075 0.62627 0.63177
 C592 C 0.37457 0.61363 0.61820
 C593 C 0.39081 0.59887 0.60240
 C594 C 0.40471 0.58629 0.58894
 C595 C 0.42135 0.57132 0.57289
 C596 C 0.42972 0.58309 0.54667
 C597 C 0.44590 0.56860 0.53108
 C598 C 0.45394 0.54210 0.54154
 C599 C 0.44542 0.53044 0.56794
 C600 C 0.42923 0.54498 0.58349
 H601 H 0.33434 0.60391 0.67310
 H602 H 0.35051 0.68241 0.62696
 H603 H 0.32303 0.70850 0.65542
 H604 H 0.30653 0.62963 0.70131
 H605 H 0.42373 0.60347 0.53828
 H606 H 0.45210 0.57816 0.51084
 H607 H 0.45124 0.51009 0.57659
 H608 H 0.42287 0.53568 0.60378
   
