data_POSCAR
  _audit_creation_date              2014-09-24
  _audit_creation_method            'ToBaCCo'
  _symmetry_space_group_name_H-M    'P1'
  _symmetry_Int_Tables_number       1
  _symmetry_cell_setting            triclinic
  loop_
  _symmetry_equiv_pos_as_xyz
 x,y,z
_cell_length_a 58.1610
_cell_length_b 58.1187
_cell_length_c 21.4503
_cell_angle_alpha 89.962800
_cell_angle_beta 90.018200
_cell_angle_gamma 119.971000
loop_
  _atom_site_label
  _atom_site_type_symbol
  _atom_site_fract_x
  _atom_site_fract_y
  _atom_site_fract_z
O1 O 0.20689 0.45851 0.44094
 O2 O 0.25212 0.45856 0.56135
 O3 O 0.20723 0.45859 0.56205
 O4 O 0.25181 0.45856 0.44023
 O5 O 0.27372 0.50249 0.44011
 O6 O 0.22916 0.50252 0.56191
 O7 O 0.27405 0.50248 0.56121
 O8 O 0.22881 0.50244 0.44082
 Cu9 Cu 0.22730 0.45412 0.50117
 Cu10 Cu 0.25365 0.50691 0.50101
 C11 C 0.21011 0.48047 0.42087
 C12 C 0.27085 0.48052 0.58128
 C13 C 0.21055 0.48057 0.58218
 C14 C 0.27040 0.48053 0.41992
 O15 O 0.54153 -0.25262 0.43944
 O16 O 0.54152 -0.20749 0.55999
 O17 O 0.54147 -0.25245 0.56057
 O18 O 0.54148 -0.20772 0.43889
 O19 O 0.49758 -0.22968 0.43889
 O20 O 0.49758 -0.27438 0.56053
 O21 O 0.49762 -0.22943 0.55997
 O22 O 0.49764 -0.27457 0.43942
 Cu23 Cu 0.54593 -0.22786 0.49973
 Cu24 Cu 0.49318 -0.25423 0.49971
 C25 C 0.51959 -0.27133 0.41937
 C26 C 0.51957 -0.21072 0.57999
 C27 C 0.51952 -0.27109 0.58077
 C28 C 0.51952 -0.21104 0.41869
 O29 O 1.20712 0.74852 0.55854
 O30 O 1.25236 0.79369 0.43812
 O31 O 1.20745 0.74879 0.43743
 O32 O 1.25207 0.79337 0.55924
 O33 O 1.27395 0.77132 0.55930
 O34 O 1.22935 0.72676 0.43752
 O35 O 1.27425 0.77166 0.43820
 O36 O 1.22901 0.72648 0.55861
 Cu37 Cu 1.22754 0.77331 0.49832
 Cu38 Cu 1.25385 0.74683 0.49841
 C39 C 1.21032 0.72976 0.57858
 C40 C 1.27106 0.79042 0.41815
 C41 C 1.21075 0.73013 0.41727
 C42 C 1.27066 0.78998 0.57950
 O43 O 0.79291 0.54167 0.44099
 O44 O 0.74753 0.54160 0.56097
 O45 O 0.79242 0.54156 0.56209
 O46 O 0.74800 0.54164 0.43986
 O47 O 0.72608 0.49772 0.43977
 O48 O 0.77047 0.49763 0.56198
 O49 O 0.72559 0.49768 0.56087
 O50 O 0.77098 0.49775 0.44089
 Cu51 Cu 0.77242 0.54605 0.50100
 Cu52 Cu 0.74607 0.49326 0.50088
 C53 C 0.78971 0.51972 0.42100
 C54 C 0.72878 0.51963 0.58085
 C55 C 0.78907 0.51957 0.58230
 C56 C 0.72943 0.51969 0.41950
 O57 O 0.45864 0.20622 0.56137
 O58 O 0.45859 0.25154 0.44119
 O59 O 0.45863 0.20663 0.44025
 O60 O 0.45867 0.25117 0.56229
 O61 O 0.50257 0.27311 0.56218
 O62 O 0.50252 0.22858 0.44017
 O63 O 0.50249 0.27348 0.44110
 O64 O 0.50253 0.22816 0.56127
 Cu65 Cu 0.45421 0.22667 0.50130
 Cu66 Cu 0.50695 0.25304 0.50118
 C67 C 0.48060 0.20941 0.58129
 C68 C 0.48053 0.27027 0.42117
 C69 C 0.48057 0.20998 0.41994
 C70 C 0.48063 0.26979 0.58248
 O71 O 0.74843 0.20695 0.44159
 O72 O 0.79374 0.25233 0.56157
 O73 O 0.74884 0.20741 0.56270
 O74 O 0.79328 0.25189 0.44045
 O75 O 0.77129 0.27384 0.44039
 O76 O 0.72688 0.22938 0.56261
 O77 O 0.77177 0.27428 0.56148
 O78 O 0.72645 0.22890 0.44152
 Cu79 Cu 0.77329 0.22743 0.50159
 Cu80 Cu 0.74688 0.25382 0.50150
 C81 C 0.72968 0.21015 0.42163
 C82 C 0.79052 0.27109 0.58146
 C83 C 0.73024 0.21077 0.58294
 C84 C 0.78990 0.27049 0.42011
 N85 N 0.97200 0.52701 0.06708
 N86 N 0.95284 0.53247 0.07755
 N87 N 1.02785 0.53882 0.10992
 N88 N 1.04713 0.55199 0.15041
 N89 N 1.02786 0.55488 0.06678
 N90 N 1.04717 0.57945 0.07671
 N91 N 0.97205 0.51096 0.11017
 N92 N 0.95296 0.50505 0.15112
 C93 C 0.94111 0.51846 0.12983
 C94 C 1.05903 0.57719 0.12875
 N95 N 1.02780 0.47319 0.06693
 N96 N 1.04696 0.46772 0.07729
 N97 N 0.97201 0.46139 0.11013
 N98 N 0.95279 0.44823 0.15078
 N99 N 0.97194 0.44532 0.06700
 N100 N 0.95265 0.42075 0.07712
 N101 N 1.02781 0.48925 0.11000
 N102 N 1.04694 0.49517 0.15083
 Mn103 Mn 0.99993 0.50011 0.11070
 C104 C 1.05876 0.48175 0.12948
 C105 C 0.94087 0.42303 0.12924
 N106 N 1.02779 0.55488 -0.06767
 N107 N 1.04700 0.57948 -0.07809
 N108 N 0.97192 0.51093 -0.11050
 N109 N 0.95261 0.50483 -0.15093
 N110 N 0.97194 0.52698 -0.06736
 N111 N 0.95262 0.53225 -0.07725
 N112 N 1.02772 0.53879 -0.11074
 N113 N 1.04684 0.55195 -0.15164
 Mn114 Mn 0.99990 0.54121 -0.00029
 C115 C 1.05873 0.57719 -0.13033
 C116 C 0.94074 0.51814 -0.12925
 N117 N 0.97184 0.44527 -0.06746
 N118 N 0.95267 0.42066 -0.07785
 N119 N 1.02767 0.48921 -0.11066
 N120 N 1.04693 0.49530 -0.15123
 N121 N 1.02770 0.47318 -0.06751
 N122 N 1.04700 0.46790 -0.07752
 N123 N 0.97187 0.46135 -0.11055
 N124 N 0.95274 0.44817 -0.15142
 Mn125 Mn 0.99982 0.45897 -0.00026
 Mn126 Mn 0.99979 0.50007 -0.11126
 Cl127 Cl 0.99986 0.50009 -0.00028
 C128 C 0.94090 0.42292 -0.13007
 C129 C 1.05882 0.48199 -0.12961
 N130 N 0.47310 0.44534 0.06685
 N131 N 0.46767 0.42072 0.07741
 N132 N 0.46124 0.48937 0.10968
 N133 N 0.44808 0.49543 0.15033
 N134 N 0.44517 0.47331 0.06665
 N135 N 0.42060 0.46799 0.07683
 N136 N 0.48916 0.46144 0.10983
 N137 N 0.49512 0.44828 0.15079
 C138 C 0.48172 0.42302 0.12962
 C139 C 0.42288 0.48210 0.12888
 N140 N 0.52672 0.55495 0.06624
 N141 N 0.53217 0.57958 0.07661
 N142 N 0.53864 0.51099 0.10944
 N143 N 0.55185 0.50495 0.15006
 N144 N 0.55465 0.52698 0.06622
 N145 N 0.57923 0.53229 0.07624
 N146 N 0.51072 0.53890 0.10942
 N147 N 0.50484 0.55213 0.15032
 Mn148 Mn 0.49994 0.50018 0.11023
 C149 C 0.51820 0.57736 0.12891
 C150 C 0.57702 0.51824 0.12839
 N151 N 0.44506 0.47321 -0.06781
 N152 N 0.42045 0.46780 -0.07812
 N153 N 0.48901 0.46128 -0.11082
 N154 N 0.49511 0.44807 -0.15125
 N155 N 0.47302 0.44527 -0.06759
 N156 N 0.46779 0.42068 -0.07739
 N157 N 0.46109 0.48921 -0.11100
 N158 N 0.44788 0.49514 -0.15186
 Mn159 Mn 0.45882 0.45901 -0.00048
 C160 C 0.42267 0.48179 -0.13040
 C161 C 0.48187 0.42290 -0.12945
 N162 N 0.55459 0.52689 -0.06823
 N163 N 0.57919 0.53233 -0.07871
 N164 N 0.51059 0.53874 -0.11127
 N165 N 0.50453 0.55190 -0.15199
 N166 N 0.52662 0.55483 -0.06823
 N167 N 0.53193 0.57941 -0.07849
 N168 N 0.53851 0.51082 -0.11121
 N169 N 0.55167 0.50485 -0.15210
 Mn170 Mn 0.54091 0.54118 -0.00100
 Mn171 Mn 0.49980 0.50001 -0.11172
 Cl172 Cl 0.49987 0.50010 -0.00074
 C173 C 0.57691 0.51826 -0.13087
 C174 C 0.51785 0.57713 -0.13058
 N175 N 0.44527 -0.02818 0.06706
 N176 N 0.42065 -0.04736 0.07729
 N177 N 0.48917 0.02763 0.11046
 N178 N 0.49521 0.04686 0.15110
 N179 N 0.47322 0.02772 0.06723
 N180 N 0.46794 0.04703 0.07725
 N181 N 0.46128 -0.02820 0.11024
 N182 N 0.44804 -0.04737 0.15102
 C183 C 0.42284 -0.05919 0.12952
 C184 C 0.48195 0.05880 0.12943
 N185 N 0.55480 0.02769 0.06788
 N186 N 0.57939 0.04687 0.07846
 N187 N 0.51078 -0.02822 0.11052
 N188 N 0.50468 -0.04752 0.15105
 N189 N 0.52686 -0.02821 0.06749
 N190 N 0.53215 -0.04751 0.07755
 N191 N 0.53868 0.02762 0.11086
 N192 N 0.55181 0.04671 0.15185
 Mn193 Mn 0.49998 -0.00030 0.11116
 C194 C 0.57706 0.05858 0.13069
 C195 C 0.51801 -0.05940 0.12953
 N196 N 0.47338 0.02789 -0.06723
 N197 N 0.46794 0.04708 -0.07770
 N198 N 0.46157 -0.02794 -0.11043
 N199 N 0.44845 -0.04713 -0.15117
 N200 N 0.44547 -0.02800 -0.06740
 N201 N 0.42091 -0.04727 -0.07767
 N202 N 0.48947 0.02790 -0.11021
 N203 N 0.49543 0.04706 -0.15108
 Mn204 Mn 0.45907 -0.00014 -0.00009
 C205 C 0.48201 0.05889 -0.12984
 C206 C 0.42323 -0.05904 -0.12978
 N207 N 0.52704 -0.02807 -0.06696
 N208 N 0.53243 -0.04730 -0.07727
 N209 N 0.53897 0.02786 -0.10980
 N210 N 0.55219 0.04719 -0.15021
 N211 N 0.55495 0.02783 -0.06656
 N212 N 0.57952 0.04715 -0.07635
 N213 N 0.51107 -0.02798 -0.11015
 N214 N 0.50514 -0.04711 -0.15102
 Mn215 Mn 0.54118 -0.00019 0.00046
 Mn216 Mn 0.50027 -0.00004 -0.11079
 Cl217 Cl 0.50012 -0.00017 0.00019
 C218 C 0.51846 -0.05902 -0.12957
 C219 C 0.57734 0.05907 -0.12839
 C220 C 1.15670 0.48050 0.29787
 N221 N 1.15948 0.50375 0.27669
 N222 N 1.14085 0.50387 0.24072
 C223 C 1.11887 0.48075 0.22483
 N224 N 1.11613 0.45749 0.24590
 N225 N 1.13476 0.45737 0.28186
 C226 C 1.17600 0.48046 0.33956
 C227 C 1.19181 0.48045 0.37595
 C228 C 1.09808 0.48099 0.18928
 C229 C 1.08029 0.48128 0.16105
 C230 C 0.51955 0.67639 0.29823
 N231 N 0.54265 0.67752 0.28220
 N232 N 0.54252 0.65882 0.24600
 C233 C 0.51928 0.63842 0.22470
 N234 N 0.49618 0.63733 0.24062
 N235 N 0.49631 0.65603 0.27682
 C236 C 0.51959 0.69565 0.34018
 C237 C 0.51960 0.71140 0.37678
 C238 C 0.51902 0.61742 0.18894
 C239 C 0.51871 0.59936 0.16058
 C240 C 0.32357 -0.15719 0.29760
 N241 N 0.32234 -0.13529 0.28117
 N242 N 0.34111 -0.11666 0.24525
 C243 C 0.36169 -0.11936 0.22465
 N244 N 0.36288 -0.14129 0.24095
 N245 N 0.34411 -0.15992 0.27687
 C246 C 0.30422 -0.17648 0.33929
 C247 C 0.28840 -0.19226 0.37572
 C248 C 0.38274 -0.09854 0.18917
 C249 C 0.40083 -0.08074 0.16101
 C250 C 0.84321 0.51970 0.29836
 N251 N 0.86516 0.54283 0.28230
 N252 N 0.88379 0.54271 0.24637
 C253 C 0.88105 0.51945 0.22539
 N254 N 0.85908 0.49633 0.24133
 N255 N 0.84044 0.49645 0.27726
 C256 C 0.82389 0.51974 0.33994
 C257 C 0.80806 0.51975 0.37623
 C258 C 0.90184 0.51922 0.18980
 C259 C 0.91961 0.51893 0.16151
 C260 C 0.48057 0.32384 0.29839
 N261 N 0.50381 0.34439 0.27754
 N262 N 0.50393 0.36316 0.24158
 C263 C 0.48081 0.36196 0.22535
 N264 N 0.45756 0.34138 0.24608
 N265 N 0.45745 0.32261 0.28204
 C266 C 0.48052 0.30446 0.34002
 C267 C 0.48052 0.28861 0.37634
 C268 C 0.48103 0.38299 0.18971
 C269 C 0.48129 0.40105 0.16138
 C270 C 0.67612 0.15660 0.29915
 N271 N 0.65555 0.15928 0.27839
 N272 N 0.63679 0.14062 0.24252
 C273 C 0.63803 0.11871 0.22631
 N274 N 0.65863 0.11605 0.24695
 N275 N 0.67739 0.13471 0.28282
 C276 C 0.69549 0.17594 0.34067
 C277 C 0.71134 0.19179 0.37691
 C278 C 0.61702 0.09790 0.19074
 C279 C 0.59899 0.08011 0.16243
 C280 C 0.48073 0.15691 -0.29835
 N281 N 0.45762 0.13502 -0.28196
 N282 N 0.45776 0.11637 -0.24602
 C283 C 0.48102 0.11904 -0.22537
 N284 N 0.50413 0.14096 -0.24164
 N285 N 0.50398 0.15961 -0.27757
 C286 C 0.48065 0.17622 -0.33999
 C287 C 0.48062 0.19204 -0.37636
 C288 C 0.48127 0.09823 -0.18979
 C289 C 0.48155 0.08043 -0.16151
 C290 C 0.67613 0.51948 -0.29907
 N291 N 0.65553 0.49621 -0.27852
 N292 N 0.63674 0.49607 -0.24268
 C293 C 0.63798 0.51920 -0.22628
 N294 N 0.65861 0.54248 -0.24671
 N295 N 0.67740 0.54262 -0.28256
 C296 C 0.69552 0.51956 -0.34061
 C297 C 0.71138 0.51960 -0.37689
 C298 C 0.61694 0.51897 -0.19077
 C299 C 0.59888 0.51869 -0.16253
 C300 C 0.84298 0.32370 -0.29834
 N301 N 0.84028 0.34427 -0.27767
 N302 N 0.85891 0.36305 -0.24178
 C303 C 0.88081 0.36183 -0.22545
 N304 N 0.88348 0.34122 -0.24601
 N305 N 0.86485 0.32244 -0.28190
 C306 C 0.82369 0.30432 -0.33993
 C307 C 0.80788 0.28847 -0.37625
 C308 C 0.90160 0.38287 -0.18992
 C309 C 0.91938 0.40094 -0.16169
 C310 C 0.51951 -0.15724 -0.29730
 N311 N 0.54265 -0.13542 -0.28077
 N312 N 0.54255 -0.11673 -0.24497
 C313 C 0.51930 -0.11930 -0.22461
 N314 N 0.49617 -0.14114 -0.24102
 N315 N 0.49627 -0.15983 -0.27681
 C316 C 0.51955 -0.17658 -0.33884
 C317 C 0.51957 -0.19241 -0.37514
 C318 C 0.51911 -0.09844 -0.18921
 C319 C 0.51886 -0.08060 -0.16108
 C320 C 0.32340 0.48062 -0.29835
 N321 N 0.32214 0.45748 -0.28184
 N322 N 0.34092 0.45761 -0.24598
 C323 C 0.36155 0.48087 -0.22554
 N324 N 0.36278 0.50401 -0.24193
 N325 N 0.34399 0.50389 -0.27778
 C326 C 0.30403 0.48056 -0.33996
 C327 C 0.28820 0.48054 -0.37634
 C328 C 0.38260 0.48110 -0.19009
 C329 C 0.40068 0.48136 -0.16193
 C330 C 1.15684 0.67630 -0.29859
 N331 N 1.15949 0.65571 -0.27775
 N332 N 1.14082 0.63695 -0.24185
 C333 C 1.11893 0.63822 -0.22569
 N334 N 1.11631 0.65885 -0.24641
 N335 N 1.13498 0.67760 -0.28231
 C336 C 1.17617 0.69565 -0.34021
 C337 C 1.19200 0.71147 -0.37655
 C338 C 1.09810 0.61720 -0.19017
 C339 C 1.08029 0.59915 -0.16195
 C340 C 0.84209 0.51925 -0.29432
 N341 N 0.86364 0.54238 -0.27665
 N342 N 0.88237 0.54219 -0.24123
 C343 C 0.88011 0.51886 -0.22244
 N344 N 0.85852 0.49573 -0.23997
 N345 N 0.83979 0.49592 -0.27539
 C346 C 0.82285 0.51942 -0.33586
 C347 C 0.80715 0.51951 -0.37238
 C348 C 0.90107 0.51862 -0.18773
 C349 C 0.91901 0.51841 -0.16017
 C350 C 0.48089 0.32314 -0.29431
 N351 N 0.45776 0.32156 -0.27661
 N352 N 0.45793 0.34048 -0.24123
 C353 C 0.48123 0.36155 -0.22250
 N354 N 0.50435 0.36309 -0.24006
 N355 N 0.50419 0.34417 -0.27544
 C356 C 0.48075 0.30374 -0.33579
 C357 C 0.48067 0.28794 -0.37227
 C358 C 0.48143 0.38274 -0.18783
 C359 C 0.48162 0.40090 -0.16032
 C360 C 0.67702 0.15774 -0.29353
 N361 N 0.65608 0.16011 -0.27437
 N362 N 0.63719 0.14138 -0.23890
 C363 C 0.63867 0.11971 -0.22154
 N364 N 0.65965 0.11738 -0.24056
 N365 N 0.67854 0.13611 -0.27603
 C366 C 0.69638 0.17698 -0.33513
 C367 C 0.71214 0.19268 -0.37170
 C368 C 0.61750 0.09876 -0.18680
 C369 C 0.59934 0.08080 -0.15927
 C370 C 1.15741 0.48086 -0.29483
 N371 N 1.15976 0.50418 -0.27577
 N372 N 1.14102 0.50437 -0.24039
 C373 C 1.11938 0.48124 -0.22303
 N374 N 1.11707 0.45792 -0.24195
 N375 N 1.13580 0.45773 -0.27733
 C376 C 1.17668 0.48070 -0.33626
 C377 C 1.19241 0.48061 -0.37266
 C378 C 1.09844 0.48149 -0.18827
 C379 C 1.08052 0.48171 -0.16066
 C380 C 0.51923 0.67661 -0.29788
 N381 N 0.49591 0.65588 -0.27805
 N382 N 0.49569 0.63702 -0.24222
 C383 C 0.51877 0.63835 -0.22516
 N384 N 0.54209 0.65912 -0.24485
 N385 N 0.54231 0.67797 -0.28069
 C386 C 0.51940 0.69596 -0.33972
 C387 C 0.51949 0.71171 -0.37641
 C388 C 0.51847 0.61722 -0.18994
 C389 C 0.51820 0.59910 -0.16197
 C390 C 0.32387 -0.15711 -0.29683
 N391 N 0.32246 -0.13540 -0.27957
 N392 N 0.34130 -0.11678 -0.24381
 C393 C 0.36211 -0.11930 -0.22425
 N394 N 0.36348 -0.14104 -0.24137
 N395 N 0.34465 -0.15967 -0.27713
 C396 C 0.30454 -0.17628 -0.33857
 C397 C 0.28878 -0.19194 -0.37518
 C398 C 0.38321 -0.09848 -0.18909
 C399 C 0.40130 -0.08064 -0.16115
 C400 C 0.51924 -0.15790 0.29544
 N401 N 0.54234 -0.13623 0.27808
 N402 N 0.54214 -0.11752 0.24254
 C403 C 0.51882 -0.11992 0.22330
 N404 N 0.49572 -0.14162 0.24052
 N405 N 0.49593 -0.16033 0.27606
 C406 C 0.51941 -0.17715 0.33700
 C407 C 0.51949 -0.19288 0.37348
 C408 C 0.51855 -0.09900 0.18839
 C409 C 0.51831 -0.08109 0.16066
 C410 C 0.32353 0.48077 0.29605
 N411 N 0.32217 0.45766 0.27898
 N412 N 0.34098 0.45787 0.24315
 C413 C 0.36172 0.48119 0.22332
 N414 N 0.36305 0.50430 0.24026
 N415 N 0.34423 0.50409 0.27609
 C416 C 0.30422 0.48062 0.33788
 C417 C 0.28850 0.48054 0.37455
 C418 C 0.38282 0.48148 0.18813
 C419 C 0.40092 0.48175 0.16020
 C420 C 1.15763 0.67681 0.29410
 N421 N 1.16000 0.65587 0.27481
 N422 N 1.14128 0.63698 0.23936
 C423 C 1.11961 0.63845 0.22216
 N424 N 1.11726 0.65942 0.24132
 N425 N 1.13599 0.67832 0.27677
 C426 C 1.17689 0.69619 0.33561
 C427 C 1.19261 0.71198 0.37206
 C428 C 1.09867 0.61730 0.18737
 C429 C 1.08074 0.59916 0.15975
 C430 C 0.48077 0.15707 0.29603
 N431 N 0.45766 0.13539 0.27881
 N432 N 0.45783 0.11673 0.24306
 C433 C 0.48113 0.11920 0.22346
 N434 N 0.50424 0.14092 0.24054
 N435 N 0.50407 0.15957 0.27629
 C436 C 0.48064 0.17624 0.33784
 C437 C 0.48058 0.19190 0.37452
 C438 C 0.48138 0.09833 0.18840
 C439 C 0.48162 0.08045 0.16059
 C440 C 0.67642 0.51951 0.29530
 N441 N 0.65573 0.49620 0.27531
 N442 N 0.63692 0.49601 0.23946
 C443 C 0.63824 0.51913 0.22254
 N444 N 0.65897 0.54244 0.24239
 N445 N 0.67778 0.54263 0.27824
 C446 C 0.69569 0.51964 0.33721
 C447 C 0.71138 0.51969 0.37398
 C448 C 0.61713 0.51886 0.18741
 C449 C 0.59901 0.51860 0.15957
 C450 C 0.84271 0.32361 0.29607
 N451 N 0.84023 0.34445 0.27650
 N452 N 0.85886 0.36329 0.24072
 C453 C 0.88053 0.36184 0.22344
 N454 N 0.88297 0.34095 0.24287
 N455 N 0.86435 0.32212 0.27866
 C456 C 0.82357 0.30430 0.33792
 C457 C 0.80793 0.28857 0.37464
 C458 C 0.90137 0.38296 0.18833
 C459 C 0.91923 0.40107 0.16048
   
