data_POSCAR
  _audit_creation_date              2014-09-24
  _audit_creation_method            'ToBaCCo'
  _symmetry_space_group_name_H-M    'P1'
  _symmetry_Int_Tables_number       1
  _symmetry_cell_setting            triclinic
  loop_
  _symmetry_equiv_pos_as_xyz
 x,y,z
_cell_length_a 19.6946
_cell_length_b 19.8577
_cell_length_c 34.4118
_cell_angle_alpha 89.951200
_cell_angle_beta 95.319800
_cell_angle_gamma 89.558500
loop_
  _atom_site_label
  _atom_site_type_symbol
  _atom_site_fract_x
  _atom_site_fract_y
  _atom_site_fract_z
C1 C -0.00007 0.67540 1.00003
 C2 C -0.01228 0.64132 1.03444
 C3 C -0.01775 0.57070 1.03293
 C4 C -0.00077 0.53384 0.99994
 C5 C 0.01651 0.57045 0.96698
 C6 C 0.01172 0.64119 0.96556
 C7 C -0.00107 0.45772 0.99991
 C8 C -0.00283 0.42104 0.96451
 C9 C 0.00069 0.35035 0.96442
 C10 C -0.00154 0.31616 0.99987
 C11 C -0.00350 0.35027 1.03534
 C12 C 0.00047 0.42088 1.03528
 H13 H 0.00024 0.73004 1.00007
 H14 H -0.03666 0.54478 1.05708
 H15 H 0.03516 0.54420 0.94279
 H16 H -0.00760 0.44709 0.93705
 H17 H -0.00168 0.26154 0.99986
 H18 H 0.00548 0.44672 1.06276
 C19 C 0.32116 0.01963 0.50058
 C20 C 0.36188 0.01767 0.53615
 C21 C 0.43304 0.01741 0.53535
 C22 C 0.46355 0.02804 0.50019
 C23 C 0.42004 0.03598 0.46530
 C24 C 0.34913 0.02784 0.46491
 C25 C 0.54018 0.02826 0.49974
 C26 C 0.57094 0.01743 0.46469
 C27 C 0.64219 0.01882 0.46373
 C28 C 0.68268 0.02027 0.49953
 C29 C 0.65451 0.02807 0.53533
 C30 C 0.58337 0.03687 0.53458
 H31 H 0.26648 0.01377 0.50046
 H32 H 0.46400 0.00643 0.56206
 H33 H 0.44108 0.04810 0.43850
 H34 H 0.53997 0.00548 0.43820
 H35 H 0.73749 0.01419 0.49976
 H36 H 0.56153 0.05025 0.56097
 C37 C 0.09685 0.00188 0.27033
 H38 H 0.10224 0.00001 0.23935
 C39 C 0.15472 0.00916 0.29692
 H40 H 0.20395 0.01163 0.28566
 C41 C 0.02524 0.00136 0.32188
 H42 H -0.02505 -0.00016 0.33181
 C43 C 0.08121 0.00831 0.34926
 H44 H 0.07295 0.01050 0.37992
 N45 N 0.03375 -0.00266 0.28321
 C46 C -0.10394 -0.10358 0.19531
 H47 H -0.14848 -0.07207 0.19749
 C48 C -0.10550 -0.15448 0.16736
 H49 H -0.15266 -0.16226 0.14948
 C50 C 0.01072 -0.13006 0.21696
 H51 H 0.05614 -0.11989 0.23605
 C52 C 0.01133 -0.18177 0.18947
 H53 H 0.05755 -0.21111 0.18781
 Zn54 Zn -0.04525 -0.00950 0.24735
 N55 N -0.04546 -0.09019 0.21802
 C56 C -0.04244 0.05108 0.17395
 N57 N -0.04540 0.06471 0.21244
 C58 C -0.04218 0.12920 0.22585
 C59 C -0.03645 0.18307 0.19997
 C60 C -0.03676 0.10288 0.14731
 C61 C -0.13028 -0.06775 0.29684
 C62 C -0.17749 -0.07021 0.32454
 C63 C -0.21378 0.04259 0.30583
 C64 C -0.16527 0.04303 0.27859
 N65 N -0.12309 -0.01085 0.27573
 H66 H -0.04261 -0.00018 0.16368
 H67 H -0.04266 0.13874 0.25677
 H68 H -0.03340 0.23343 0.21169
 H69 H -0.03390 0.09040 0.11686
 H70 H -0.09575 -0.10974 0.29405
 H71 H -0.17719 -0.11455 0.34263
 H72 H -0.24399 0.08753 0.30950
 H73 H -0.15896 0.08769 0.26139
 C74 C -0.04588 -0.19184 0.16239
 C75 C 0.14730 0.01250 0.33720
 C76 C -0.21916 -0.01380 0.33025
 C77 C -0.03342 0.17015 0.15991
 C78 C 0.04082 0.12917 0.77410
 H79 H 0.04200 0.13880 0.74322
 C80 C 0.03466 0.18306 0.79992
 H81 H 0.03202 0.23351 0.78821
 C82 C 0.03990 0.05089 0.82593
 H83 H 0.03980 -0.00041 0.83617
 C84 C 0.03377 0.10270 0.85250
 H85 H 0.03033 0.09018 0.88291
 N86 N 0.04374 0.06460 0.78750
 C87 C 0.13053 -0.06823 0.70348
 H88 H 0.09598 -0.10978 0.70601
 C89 C 0.17820 -0.07109 0.67605
 H90 H 0.17822 -0.11527 0.65790
 C91 C 0.16520 0.04185 0.72218
 H92 H 0.15863 0.08640 0.73947
 C93 C 0.21419 0.04099 0.69521
 H94 H 0.24450 0.08551 0.69182
 Zn95 Zn 0.04470 -0.00957 0.75270
 N96 N 0.12295 -0.01144 0.72466
 C97 C -0.02499 0.00239 0.67792
 N98 N -0.03396 -0.00224 0.71651
 C99 C -0.09736 0.00193 0.72910
 C100 C -0.15505 0.00920 0.70228
 C101 C -0.08076 0.00940 0.65032
 C102 C 0.10372 -0.10375 0.80516
 C103 C 0.10559 -0.15473 0.83313
 C104 C -0.01052 -0.18196 0.81037
 C105 C -0.01022 -0.13017 0.78286
 N106 N 0.04541 -0.09031 0.78209
 H107 H 0.02552 0.00127 0.66823
 H108 H -0.10314 -0.00032 0.76003
 H109 H -0.20448 0.01136 0.71334
 H110 H -0.07212 0.01204 0.61972
 H111 H 0.14783 -0.07219 0.80324
 H112 H 0.15255 -0.16235 0.85133
 H113 H -0.05639 -0.21122 0.81183
 H114 H -0.05550 -0.11994 0.76352
 C115 C 0.21993 -0.01521 0.67068
 C116 C 0.03085 0.17007 0.83992
 C117 C 0.04646 -0.19223 0.83772
 C118 C -0.14716 0.01292 0.66206
 C119 C -0.02172 -0.31915 0.06894
 C120 C -0.02361 -0.35558 0.10862
 C121 C -0.03323 -0.31339 0.13897
 C122 C -0.03964 -0.23855 0.12763
 C123 C 0.02493 -0.22407 0.10715
 C124 C 0.03491 -0.26644 0.07728
 C125 C -0.08833 -0.27797 0.06404
 C126 C -0.09767 -0.23588 0.09421
 H127 H -0.01399 -0.40879 0.11369
 H128 H -0.03364 -0.33144 0.16873
 H129 H 0.06047 -0.18402 0.11564
 H130 H 0.07960 -0.26286 0.06114
 H131 H -0.12455 -0.28034 0.03827
 H132 H -0.14120 -0.20210 0.09264
 C133 C -0.01097 0.30794 0.07173
 C134 C 0.04788 0.25702 0.07939
 C135 C 0.04046 0.21374 0.10921
 C136 C -0.02529 0.22436 0.12936
 C137 C -0.02286 0.29920 0.14168
 C138 C -0.01545 0.34288 0.11159
 C139 C -0.07595 0.26514 0.06655
 C140 C -0.08335 0.22192 0.09635
 H141 H 0.09268 0.25620 0.06323
 H142 H 0.07900 0.17615 0.11836
 H143 H -0.02781 0.31747 0.17091
 H144 H -0.01449 0.39673 0.11640
 H145 H -0.11418 0.26987 0.04183
 H146 H -0.12780 0.19005 0.09692
 C147 C 0.32745 0.00928 0.57375
 C148 C 0.36899 0.02706 0.61267
 C149 C 0.33453 0.01694 0.64485
 C150 C 0.26139 -0.00926 0.63553
 C151 C 0.22762 0.04189 0.60615
 C152 C 0.26214 0.05220 0.57443
 C153 C 0.30473 -0.06353 0.57919
 C154 C 0.27091 -0.07361 0.61135
 H155 H 0.41977 0.04823 0.61505
 H156 H 0.35687 0.02781 0.67418
 H157 H 0.18113 0.06948 0.61058
 H158 H 0.24539 0.08942 0.55240
 H159 H 0.31793 -0.10475 0.56052
 H160 H 0.25815 -0.12410 0.61985
 C161 C -0.29956 0.02540 0.57078
 C162 C -0.24681 0.08231 0.57224
 C163 C -0.19865 0.07870 0.60306
 C164 C -0.20631 0.01839 0.63033
 C165 C -0.27984 0.02550 0.64211
 C166 C -0.32857 0.02896 0.61112
 C167 C -0.25729 -0.04037 0.57311
 C168 C -0.20894 -0.04373 0.60375
 H169 H -0.24835 0.12329 0.55125
 H170 H -0.15945 0.11665 0.60821
 H171 H -0.29372 0.02728 0.67180
 H172 H -0.38200 0.03225 0.61596
 H173 H -0.26605 -0.08199 0.55284
 H174 H -0.17674 -0.08796 0.60936
 C175 C 0.02148 -0.31936 0.93109
 C176 C 0.08867 -0.28014 0.93591
 C177 C 0.09843 -0.23821 0.90575
 C178 C 0.04014 -0.23900 0.87245
 C179 C 0.03265 -0.31360 0.86102
 C180 C 0.02263 -0.35565 0.89135
 C181 C -0.03444 -0.26501 0.92292
 C182 C -0.02408 -0.22281 0.89308
 H183 H 0.12515 -0.28394 0.96151
 H184 H 0.14276 -0.20620 0.90715
 H185 H 0.03266 -0.33152 0.83123
 H186 H 0.01226 -0.40856 0.88623
 H187 H -0.07902 -0.26030 0.93912
 H188 H -0.05918 -0.18181 0.88464
 C189 C 0.00818 0.30800 0.92804
 C190 C -0.05077 0.25814 0.92028
 C191 C -0.04330 0.21481 0.89048
 C192 C 0.02259 0.22434 0.87044
 C193 C 0.02037 0.29926 0.85812
 C194 C 0.01291 0.34298 0.88820
 C195 C 0.07306 0.26405 0.93331
 C196 C 0.08050 0.22080 0.90353
 H197 H -0.09566 0.25806 0.93637
 H198 H -0.08189 0.17793 0.88126
 H199 H 0.02532 0.31752 0.82888
 H200 H 0.01193 0.39686 0.88337
 H201 H 0.11119 0.26804 0.95808
 H202 H 0.12489 0.18815 0.90303
 C203 C -0.32524 0.01106 0.42793
 C204 C -0.25973 0.05293 0.42704
 C205 C -0.22569 0.04236 0.39511
 C206 C -0.26008 -0.00765 0.36564
 C207 C -0.26961 -0.07222 0.38953
 C208 C -0.30293 -0.06213 0.42191
 C209 C -0.36704 0.03055 0.38914
 C210 C -0.33310 0.02018 0.35675
 H211 H -0.24272 0.09004 0.44890
 H212 H -0.17939 0.06941 0.39048
 H213 H -0.25722 -0.12278 0.38067
 H214 H -0.31602 -0.10356 0.44038
 H215 H -0.41733 0.05362 0.38699
 H216 H -0.35557 0.03243 0.32758
 C217 C 0.30038 0.02532 0.42779
 C218 C 0.24607 0.08139 0.42695
 C219 C 0.19762 0.07782 0.39629
 C220 C 0.20669 0.01819 0.36868
 C221 C 0.27982 0.02673 0.35661
 C222 C 0.32878 0.03033 0.38746
 C223 C 0.26011 -0.04086 0.42551
 C224 C 0.21154 -0.04441 0.39502
 H225 H 0.24678 0.12179 0.44823
 H226 H 0.15726 0.11529 0.39152
 H227 H 0.29309 0.03040 0.32686
 H228 H 0.38200 0.03604 0.38274
 H229 H 0.27026 -0.08245 0.44578
 H230 H 0.18045 -0.08891 0.38946
   
