data_POSCAR
  _audit_creation_date              2014-09-24
  _audit_creation_method            'ToBaCCo'
  _symmetry_space_group_name_H-M    'P1'
  _symmetry_Int_Tables_number       1
  _symmetry_cell_setting            triclinic
  loop_
  _symmetry_equiv_pos_as_xyz
 x,y,z
_cell_length_a 21.9483
_cell_length_b 22.0019
_cell_length_c 21.8999
_cell_angle_alpha 89.922400
_cell_angle_beta 89.980300
_cell_angle_gamma 90.029900
loop_
  _atom_site_label
  _atom_site_type_symbol
  _atom_site_fract_x
  _atom_site_fract_y
  _atom_site_fract_z
N1 N 0.56512 0.12298 0.02891
 N2 N 0.60858 0.15883 0.04979
 N3 N 0.43712 0.12271 -0.03073
 N4 N 0.39357 0.15821 -0.05209
 N5 N 0.43701 0.12285 0.02922
 N6 N 0.39346 0.15847 0.05025
 N7 N 0.56524 0.12246 -0.03103
 N8 N 0.60871 0.15802 -0.05255
 C9 C 0.63567 0.18013 -0.00156
 C10 C 0.36644 0.17997 -0.00101
 N11 N 0.43656 -0.03021 -0.12220
 N12 N 0.39267 -0.05145 -0.15743
 N13 N 0.56497 0.02898 -0.12342
 N14 N 0.60790 0.04935 -0.16052
 N15 N 0.56468 -0.03061 -0.12219
 N16 N 0.61002 -0.05296 -0.16049
 N17 N 0.43683 0.02944 -0.12285
 N18 N 0.39314 0.05041 -0.15846
 Mn19 Mn 0.50108 0.07639 -0.07749
 C20 C 0.36570 -0.00058 -0.17949
 C21 C 0.63544 -0.00133 -0.18288
 N22 N 0.43717 0.03083 0.12318
 N23 N 0.39334 0.05199 0.15857
 N24 N 0.56548 -0.02845 0.12365
 N25 N 0.60818 -0.04898 0.16087
 N26 N 0.56539 0.03115 0.12249
 N27 N 0.61067 0.05331 0.16102
 N28 N 0.43738 -0.02883 0.12374
 N29 N 0.39374 -0.04988 0.15941
 Mn30 Mn 0.50112 0.07742 0.07645
 C31 C 0.36638 0.00104 0.18062
 C32 C 0.63583 0.00156 0.18340
 N33 N 0.56476 -0.12227 -0.02876
 N34 N 0.60833 -0.15771 -0.05001
 N35 N 0.43706 -0.12207 0.03158
 N36 N 0.39364 -0.15776 0.05306
 N37 N 0.43672 -0.12211 -0.02836
 N38 N 0.39317 -0.15778 -0.04928
 N39 N 0.56522 -0.12183 0.03117
 N40 N 0.60908 -0.15705 0.05234
 Mn41 Mn 0.50062 -0.07675 -0.07585
 Mn42 Mn 0.50133 -0.07578 0.07802
 Cl43 Cl 0.50101 0.00034 0.00030
 C44 C 0.63586 -0.17887 0.00110
 C45 C 0.36636 -0.17945 0.00202
 N46 N 0.12314 0.43572 0.02941
 N47 N 0.15867 0.39209 0.05044
 N48 N 0.12407 0.56393 -0.02959
 N49 N 0.15972 0.60763 -0.05037
 N50 N 0.12380 0.56352 0.03034
 N51 N 0.15929 0.60688 0.05197
 N52 N 0.12328 0.43611 -0.03053
 N53 N 0.15895 0.39278 -0.05190
 C54 C 0.18044 0.36538 -0.00083
 C55 C 0.18116 0.63429 0.00105
 N56 N -0.02810 0.56568 -0.12350
 N57 N -0.04869 0.60856 -0.16040
 N58 N 0.03071 0.43743 -0.12392
 N59 N 0.05162 0.39363 -0.15931
 N60 N -0.02910 0.43789 -0.12415
 N61 N -0.05050 0.39443 -0.15965
 N62 N 0.03165 0.56535 -0.12270
 N63 N 0.05384 0.61067 -0.16120
 Mn64 Mn 0.07790 0.50067 -0.07720
 C65 C 0.00194 0.63610 -0.18314
 C66 C 0.00039 0.36695 -0.18107
 N67 N 0.03053 0.56329 0.12300
 N68 N 0.05161 0.60668 0.15882
 N69 N -0.02986 0.43571 0.12183
 N70 N -0.05135 0.39210 0.15726
 N71 N 0.02994 0.43547 0.12206
 N72 N 0.05076 0.39171 0.15762
 N73 N -0.02927 0.56347 0.12268
 N74 N -0.05051 0.60695 0.15822
 Mn75 Mn 0.07733 0.49951 0.07669
 C76 C 0.00047 0.63380 0.18024
 C77 C -0.00049 0.36474 0.17901
 N78 N -0.12224 0.43759 -0.03147
 N79 N -0.15778 0.39419 -0.05299
 N80 N -0.12157 0.56477 0.02939
 N81 N -0.15701 0.60819 0.05088
 N82 N -0.12132 0.56542 -0.03055
 N83 N -0.15662 0.60929 -0.05146
 N84 N -0.12224 0.43702 0.02847
 N85 N -0.15776 0.39329 0.04935
 Mn86 Mn -0.07568 0.50168 -0.07790
 Mn87 Mn -0.07621 0.50022 0.07605
 Cl88 Cl 0.00085 0.50050 -0.00059
 C89 C -0.17940 0.36668 -0.00198
 C90 C -0.17831 0.63587 -0.00010
 N91 N 0.02859 0.12188 0.43612
 N92 N 0.04977 0.15739 0.39238
 N93 N -0.03118 0.12194 0.56450
 N94 N -0.05222 0.15789 0.60786
 N95 N 0.02862 0.12185 0.56447
 N96 N 0.04989 0.15768 0.60778
 N97 N -0.03122 0.12183 0.43608
 N98 N -0.05235 0.15733 0.39232
 C99 C -0.00126 0.17894 0.36516
 C100 C -0.00107 0.17959 0.63479
 N101 N -0.12405 -0.03039 0.56478
 N102 N -0.15996 -0.05139 0.60831
 N103 N -0.12405 0.02914 0.43627
 N104 N -0.15991 0.05025 0.39280
 N105 N -0.12413 -0.03053 0.43636
 N106 N -0.16010 -0.05161 0.39296
 N107 N -0.12403 0.02928 0.56463
 N108 N -0.15994 0.05047 0.60801
 Mn109 Mn -0.07809 0.07602 0.50037
 C110 C -0.18177 -0.00040 0.63519
 C111 C -0.18184 -0.00065 0.36585
 N112 N 0.12141 0.02935 0.56458
 N113 N 0.15714 0.05043 0.60815
 N114 N 0.12147 -0.03016 0.43621
 N115 N 0.15740 -0.05110 0.39270
 N116 N 0.12139 0.02949 0.43621
 N117 N 0.15721 0.05077 0.39275
 N118 N 0.12142 -0.03030 0.56462
 N119 N 0.15713 -0.05144 0.60821
 Mn120 Mn 0.07546 0.07610 0.50036
 C121 C 0.17884 -0.00052 0.63528
 C122 C 0.17910 -0.00004 0.36567
 N123 N -0.03113 -0.12308 0.43644
 N124 N -0.05213 -0.15880 0.39287
 N125 N 0.02867 -0.12297 0.56476
 N126 N 0.04996 -0.15889 0.60807
 N127 N -0.03114 -0.12312 0.56489
 N128 N -0.05214 -0.15922 0.60829
 N129 N 0.02869 -0.12286 0.43642
 N130 N 0.04999 -0.15840 0.39289
 Mn131 Mn -0.07810 -0.07726 0.50063
 Mn132 Mn 0.07552 -0.07704 0.50049
 Cl133 Cl -0.00132 -0.00056 0.50047
 C134 C -0.00095 -0.18026 0.36580
 C135 C -0.00097 -0.18093 0.63517
 C136 C -0.29140 0.24793 -0.05722
 C137 C -0.31441 0.22519 -0.00186
 C138 C -0.29077 0.24741 0.05335
 C139 C -0.24600 0.29259 0.05323
 C140 C -0.22406 0.31643 -0.00210
 C141 C -0.24662 0.29317 -0.05734
 H142 H -0.30868 0.23148 -0.10047
 H143 H -0.30750 0.23056 0.09671
 H144 H -0.22927 0.30951 0.09651
 H145 H -0.23036 0.31057 -0.10067
 C146 C 0.29326 0.75252 0.05721
 C147 C 0.31638 0.77557 0.00204
 C148 C 0.29277 0.75373 -0.05336
 C149 C 0.24795 0.70861 -0.05363
 C150 C 0.22588 0.68448 0.00150
 C151 C 0.24839 0.70737 0.05694
 H152 H 0.31051 0.76867 0.10058
 H153 H 0.30959 0.77082 -0.09659
 H154 H 0.23126 0.69199 -0.09704
 H155 H 0.23203 0.68973 0.10013
 C156 C 0.29301 0.24738 -0.05635
 C157 C 0.31629 0.22475 -0.00108
 C158 C 0.29261 0.24678 0.05422
 C159 C 0.24756 0.29166 0.05427
 C160 C 0.22535 0.31537 -0.00097
 C161 C 0.24795 0.29229 -0.05629
 H162 H 0.31029 0.23108 -0.09966
 H163 H 0.30955 0.23000 0.09751
 H164 H 0.23082 0.30845 0.09760
 H165 H 0.23151 0.30959 -0.09957
 C166 C -0.29032 0.75395 0.05604
 C167 C -0.31387 0.77656 0.00090
 C168 C -0.29046 0.75462 -0.05455
 C169 C -0.24542 0.70976 -0.05486
 C170 C -0.22301 0.68600 0.00026
 C171 C -0.24529 0.70905 0.05572
 H172 H -0.30740 0.77020 0.09944
 H173 H -0.30762 0.77142 -0.09774
 H174 H -0.22891 0.69298 -0.09828
 H175 H -0.22866 0.69169 0.09890
 C176 C -0.05518 -0.29277 0.24710
 C177 C 0.00018 -0.31610 0.22507
 C178 C 0.05515 -0.29251 0.24772
 C179 C 0.05476 -0.24745 0.29264
 C180 C -0.00060 -0.22518 0.31575
 C181 C -0.05557 -0.24773 0.29204
 H182 H -0.09826 -0.30997 0.23029
 H183 H 0.09848 -0.30952 0.23140
 H184 H 0.09783 -0.23074 0.30995
 H185 H -0.09891 -0.23124 0.30887
 C186 C -0.05536 0.29331 0.75231
 C187 C 0.00001 0.31654 0.77446
 C188 C 0.05497 0.29248 0.75230
 C189 C 0.05458 0.24707 0.70773
 C190 C -0.00077 0.22488 0.68451
 C191 C -0.05575 0.24790 0.70774
 H192 H -0.09842 0.31088 0.76874
 H193 H 0.09831 0.30938 0.76871
 H194 H 0.09766 0.23000 0.69079
 H195 H -0.09908 0.23149 0.69080
 C196 C -0.05606 0.29131 0.24628
 C197 C -0.00079 0.31454 0.22384
 C198 C 0.05428 0.29084 0.24620
 C199 C 0.05409 0.24585 0.29129
 C200 C -0.00116 0.22371 0.31485
 C201 C -0.05624 0.24629 0.29139
 H202 H -0.09919 0.30860 0.22970
 H203 H 0.09756 0.30776 0.22956
 H204 H 0.09724 0.22910 0.30838
 H205 H -0.09951 0.22989 0.30858
 C206 C -0.05464 -0.29514 0.75318
 C207 C 0.00097 -0.31822 0.77565
 C208 C 0.05574 -0.29326 0.75308
 C209 C 0.05490 -0.24796 0.70833
 C210 C -0.00053 -0.22631 0.68501
 C211 C -0.05528 -0.24978 0.70835
 H212 H -0.09790 -0.31258 0.76943
 H213 H 0.09961 -0.30914 0.76922
 H214 H 0.09784 -0.23048 0.69137
 H215 H -0.09871 -0.23370 0.69135
 C216 C 0.29179 0.05441 0.75346
 C217 C 0.31528 -0.00063 0.77587
 C218 C 0.29159 -0.05566 0.75373
 C219 C 0.24631 -0.05563 0.70885
 C220 C 0.22391 -0.00057 0.68534
 C221 C 0.24651 0.05444 0.70860
 H222 H 0.30906 0.09751 0.76987
 H223 H 0.30872 -0.09876 0.77035
 H224 H 0.22955 -0.09872 0.69189
 H225 H 0.22992 0.09755 0.69146
 C226 C -0.29364 0.05542 0.24709
 C227 C -0.31864 0.00069 0.22481
 C228 C -0.29575 -0.05469 0.24779
 C229 C -0.25054 -0.05514 0.29281
 C230 C -0.22706 -0.00043 0.31585
 C231 C -0.24852 0.05477 0.29204
 H232 H -0.30936 0.09912 0.23056
 H233 H -0.31323 -0.09789 0.23179
 H234 H -0.23460 -0.09840 0.31021
 H235 H -0.23101 0.09767 0.30874
 C236 C 0.29213 0.05576 0.24761
 C237 C 0.31594 0.00088 0.22530
 C238 C 0.29248 -0.05430 0.24753
 C239 C 0.24711 -0.05460 0.29232
 C240 C 0.22435 0.00026 0.31572
 C241 C 0.24674 0.05546 0.29242
 H242 H 0.30923 0.09896 0.23114
 H243 H 0.30983 -0.09730 0.23098
 H244 H 0.23054 -0.09781 0.30929
 H245 H 0.22988 0.09845 0.30949
 C246 C -0.29563 0.05445 0.75283
 C247 C -0.31887 -0.00075 0.77589
 C248 C -0.29407 -0.05567 0.75388
 C249 C -0.24881 -0.05537 0.70906
 C250 C -0.22703 -0.00034 0.68513
 C251 C -0.25028 0.05456 0.70794
 H252 H -0.31294 0.09778 0.76865
 H253 H -0.31007 -0.09926 0.77051
 H254 H -0.23148 -0.09839 0.69252
 H255 H -0.23406 0.09770 0.69044
   
