data_POSCAR
  _audit_creation_date              2014-09-24
  _audit_creation_method            'ToBaCCo'
  _symmetry_space_group_name_H-M    'P1'
  _symmetry_Int_Tables_number       1
  _symmetry_cell_setting            triclinic
  loop_
  _symmetry_equiv_pos_as_xyz
 x,y,z
_cell_length_a 35.8363
_cell_length_b 35.3635
_cell_length_c 36.4516
_cell_angle_alpha 89.736200
_cell_angle_beta 87.927100
_cell_angle_gamma 90.406500
loop_
  _atom_site_label
  _atom_site_type_symbol
  _atom_site_fract_x
  _atom_site_fract_y
  _atom_site_fract_z
C1 C 0.36822 0.32173 0.33760
 C2 C 0.35427 0.35382 0.31964
 C3 C 0.32247 0.37248 0.33397
 C4 C 0.30497 0.35927 0.36642
 C5 C 0.31846 0.32764 0.38464
 C6 C 0.35031 0.30896 0.37024
 H7 H 0.36743 0.36362 0.29411
 H8 H 0.27996 0.37308 0.37703
 H9 H 0.36048 0.28383 0.38358
 C10 C 0.39200 0.81043 -0.15934
 C11 C 0.38966 0.84120 -0.18312
 C12 C 0.35826 0.86471 -0.18093
 C13 C 0.32911 0.85731 -0.15487
 C14 C 0.33170 0.82636 -0.13082
 C15 C 0.36348 0.80329 -0.13342
 H16 H 0.41190 0.84668 -0.20346
 H17 H 0.30461 0.87511 -0.15358
 H18 H 0.36621 0.77911 -0.11537
 C19 C 0.87019 0.31259 -0.18081
 C20 C 0.86718 0.35022 -0.19137
 C21 C 0.84495 0.37519 -0.17117
 C22 C 0.82364 0.36207 -0.14062
 C23 C 0.82565 0.32385 -0.12977
 C24 C 0.84964 0.29911 -0.14973
 H25 H 0.88375 0.36056 -0.21487
 H26 H 0.80612 0.38145 -0.12495
 H27 H 0.85179 0.26974 -0.14163
 C28 C 0.87660 0.83123 0.34085
 C29 C 0.85211 0.81684 0.36825
 C30 C 0.82083 0.83784 0.38051
 C31 C 0.81461 0.87355 0.36547
 C32 C 0.83946 0.88828 0.33857
 C33 C 0.87018 0.86720 0.32608
 H34 H 0.85718 0.78899 0.37940
 H35 H 0.79078 0.88996 0.37503
 H36 H 0.88913 0.87901 0.30513
 C37 C 0.62269 0.66943 0.31344
 C38 C 0.63313 0.68788 0.34570
 C39 C 0.66196 0.67393 0.36654
 C40 C 0.68077 0.64114 0.35519
 C41 C 0.67080 0.62233 0.32333
 C42 C 0.64138 0.63635 0.30257
 H43 H 0.61917 0.71348 0.35460
 H44 H 0.70375 0.63048 0.37064
 H45 H 0.63370 0.62235 0.27756
 C46 C 0.61327 0.17210 -0.17699
 C47 C 0.62144 0.13467 -0.18596
 C48 C 0.64685 0.11409 -0.16560
 C49 C 0.66499 0.13139 -0.13644
 C50 C 0.65724 0.16938 -0.12776
 C51 C 0.63146 0.18931 -0.14798
 H52 H 0.60689 0.12108 -0.20796
 H53 H 0.68422 0.11531 -0.12036
 H54 H 0.62555 0.21840 -0.14079
 C55 C 0.11956 0.68584 -0.19691
 C56 C 0.12826 0.64817 -0.20510
 C57 C 0.15303 0.62796 -0.18352
 C58 C 0.16935 0.64560 -0.15360
 C59 C 0.16083 0.68344 -0.14523
 C60 C 0.13635 0.70336 -0.16710
 H61 H 0.11448 0.63412 -0.22730
 H62 H 0.18752 0.62958 -0.13632
 H63 H 0.12952 0.73225 -0.15993
 C64 C 0.13520 0.18286 0.32172
 C65 C 0.15420 0.15249 0.30458
 C66 C 0.18441 0.13534 0.32214
 C67 C 0.19464 0.14834 0.35674
 C68 C 0.17529 0.17824 0.37373
 C69 C 0.14608 0.19528 0.35594
 H70 H 0.14608 0.14287 0.27786
 H71 H 0.21793 0.13545 0.37005
 H72 H 0.13165 0.21883 0.36890
 C73 C 0.63646 0.34218 0.67776
 C74 C 0.65471 0.33059 0.64505
 C75 C 0.68966 0.34627 0.63433
 C76 C 0.70612 0.37317 0.65659
 C77 C 0.68838 0.38456 0.68967
 C78 C 0.65349 0.36937 0.69989
 H79 H 0.64194 0.30908 0.62847
 H80 H 0.73322 0.38466 0.64821
 H81 H 0.64012 0.37822 0.72551
 C82 C 0.62044 0.83921 1.17170
 C83 C 0.64573 0.83245 1.14254
 C84 C 0.68273 0.84578 1.14341
 C85 C 0.69390 0.86684 1.17368
 C86 C 0.66841 0.87354 1.20306
 C87 C 0.63168 0.85977 1.20198
 H88 H 0.63664 0.81594 1.11949
 H89 H 0.72255 0.87662 1.17498
 H90 H 0.61224 0.86427 1.22502
 C91 C 0.11754 0.33273 1.15480
 C92 C 0.13622 0.31828 1.12389
 C93 C 0.17073 0.33271 1.11216
 C94 C 0.18762 0.36150 1.13237
 C95 C 0.16943 0.37575 1.16442
 C96 C 0.13401 0.36141 1.17532
 H97 H 0.12320 0.29626 1.10802
 H98 H 0.21479 0.37233 1.12344
 H99 H 0.11935 0.37278 1.19929
 C100 C 0.11737 0.84729 0.65669
 C101 C 0.13637 0.83613 0.62441
 C102 C 0.17506 0.84105 0.62026
 C103 C 0.19494 0.85731 0.64888
 C104 C 0.17588 0.86806 0.68140
 C105 C 0.13709 0.86334 0.68511
 H106 H 0.12119 0.82271 0.60275
 H107 H 0.22510 0.85976 0.64669
 H108 H 0.12250 0.87082 0.71062
 C109 C 0.36643 0.67121 0.67359
 C110 C 0.35399 0.68837 0.64160
 C111 C 0.32173 0.67519 0.62484
 C112 C 0.30193 0.64452 0.64036
 C113 C 0.31354 0.62725 0.67260
 C114 C 0.34613 0.64053 0.68921
 H115 H 0.36933 0.71242 0.63015
 H116 H 0.27675 0.63461 0.62778
 H117 H 0.35530 0.62750 0.71422
 C118 C 0.36908 0.18228 1.15386
 C119 C 0.35251 0.19981 1.12408
 C120 C 0.32326 0.18201 1.10624
 C121 C 0.31048 0.14663 1.11848
 C122 C 0.32709 0.12830 1.14774
 C123 C 0.35651 0.14608 1.16566
 H124 H 0.36245 0.22743 1.11502
 H125 H 0.28822 0.13268 1.10424
 H126 H 0.36981 0.13168 1.18793
 C127 C 0.88486 0.67452 1.17838
 C128 C 0.86788 0.68929 1.14770
 C129 C 0.83657 0.67144 1.13337
 C130 C 0.82307 0.63768 1.14933
 C131 C 0.84014 0.62240 1.18018
 C132 C 0.87097 0.64097 1.19463
 H133 H 0.87848 0.71557 1.13587
 H134 H 0.79853 0.62429 1.13855
 H135 H 0.88350 0.62963 1.21890
 C136 C 0.85161 0.14841 0.67596
 C137 C 0.82326 0.12424 0.69056
 C138 C 0.78826 0.12334 0.67486
 C139 C 0.78156 0.14642 0.64487
 C140 C 0.80894 0.17065 0.62992
 C141 C 0.84448 0.17197 0.64549
 H142 H 0.82882 0.10558 0.71338
 H143 H 0.75447 0.14526 0.63252
 H144 H 0.86630 0.19006 0.63366
 C145 C 0.31934 0.37669 0.67141
 C146 C 0.30524 0.35621 0.64202
 C147 C 0.32486 0.32509 0.62746
 C148 C 0.35897 0.31524 0.64183
 C149 C 0.37344 0.33523 0.67105
 C150 C 0.35364 0.36615 0.68597
 H151 H 0.27847 0.36387 0.63140
 H152 H 0.37377 0.29083 0.63106
 H153 H 0.36433 0.38119 0.70920
 C154 C 0.31788 0.86472 0.15957
 C155 C 0.30293 0.84653 0.12923
 C156 C 0.31904 0.81314 0.11538
 C157 C 0.35000 0.79798 0.13218
 C158 C 0.36534 0.81572 0.16233
 C159 C 0.34936 0.84935 0.17603
 H160 H 0.27854 0.85825 0.11680
 H161 H 0.36217 0.77201 0.12179
 H162 H 0.36087 0.86302 0.19965
 C163 C 0.82388 0.36191 0.16420
 C164 C 0.80995 0.34435 0.13301
 C165 C 0.82682 0.31155 0.11878
 C166 C 0.85770 0.29668 0.13580
 C167 C 0.87200 0.31384 0.16675
 C168 C 0.85524 0.34670 0.18104
 H169 H 0.78542 0.35575 0.12057
 H170 H 0.87040 0.27105 0.12519
 H171 H 0.86588 0.35971 0.20541
 C172 C 0.80692 0.87734 0.66426
 C173 C 0.79342 0.85759 0.63417
 C174 C 0.81282 0.82625 0.61986
 C175 C 0.84571 0.81487 0.63578
 C176 C 0.85958 0.83411 0.66577
 C177 C 0.84036 0.86570 0.67998
 H178 H 0.76730 0.86609 0.62267
 H179 H 0.86029 0.79027 0.62517
 H180 H 0.85054 0.88016 0.70378
 C181 C 0.68292 0.60666 0.66977
 C182 C 0.69242 0.62238 0.63564
 C183 C 0.67059 0.65055 0.62049
 C184 C 0.63770 0.66235 0.63910
 C185 C 0.62722 0.64574 0.67316
 C186 C 0.64986 0.61794 0.68827
 H187 H 0.71841 0.61437 0.62176
 H188 H 0.62131 0.68497 0.62792
 H189 H 0.64236 0.60634 0.71510
 C190 C 0.66538 0.10760 0.17281
 C191 C 0.63402 0.12466 0.18957
 C192 C 0.61821 0.15672 0.17386
 C193 C 0.63410 0.17192 0.14079
 C194 C 0.66561 0.15465 0.12388
 C195 C 0.68049 0.12239 0.13991
 H196 H 0.62247 0.11381 0.21542
 H197 H 0.62277 0.19731 0.12895
 H198 H 0.70530 0.10968 0.12752
 C199 C 0.16906 0.61905 0.17090
 C200 C 0.18251 0.63018 0.13574
 C201 C 0.16637 0.66044 0.11744
 C202 C 0.13616 0.67950 0.13414
 C203 C 0.12270 0.66897 0.16921
 C204 C 0.13897 0.63842 0.18746
 H205 H 0.20637 0.61620 0.12293
 H206 H 0.12410 0.70365 0.12070
 H207 H 0.12908 0.63034 0.21482
 C208 C 0.17318 0.09033 0.67427
 C209 C 0.18722 0.10854 0.64264
 C210 C 0.16961 0.14009 0.62837
 C211 C 0.13602 0.15273 0.64511
 C212 C 0.12102 0.13401 0.67671
 C213 C 0.14002 0.10310 0.69144
 H214 H 0.21338 0.09917 0.63000
 H215 H 0.12243 0.17748 0.63444
 H216 H 0.12917 0.08948 0.71631
 C217 C 0.32668 0.62262 0.33074
 C218 C 0.35932 0.63766 0.31354
 C219 C 0.37665 0.66984 0.32734
 C220 C 0.36185 0.68690 0.35922
 C221 C 0.32934 0.67215 0.37694
 C222 C 0.31196 0.63998 0.36259
 H223 H 0.37072 0.62525 0.28848
 H224 H 0.37491 0.71223 0.36950
 H225 H 0.28644 0.62908 0.37564
 C226 C 0.32853 0.12125 0.81846
 C227 C 0.35944 0.13879 0.80033
 C228 C 0.37367 0.17294 0.81374
 C229 C 0.35641 0.18950 0.84492
 C230 C 0.32533 0.17233 0.86271
 C231 C 0.31192 0.13806 0.84960
 H232 H 0.37242 0.12604 0.77616
 H233 H 0.36679 0.21616 0.85503
 H234 H 0.28786 0.12473 0.86324
 C235 C 0.84268 0.63761 0.84689
 C236 C 0.83058 0.65252 0.88043
 C237 C 0.84535 0.68654 0.89300
 C238 C 0.87364 0.70557 0.87219
 C239 C 0.88665 0.69014 0.83862
 C240 C 0.87117 0.65628 0.82629
 H241 H 0.80808 0.63860 0.89604
 H242 H 0.88451 0.73240 0.88141
 H243 H 0.88076 0.64520 0.79998
 C244 C 0.82397 0.13163 0.33181
 C245 C 0.81254 0.14857 0.36461
 C246 C 0.83245 0.17875 0.37886
 C247 C 0.86543 0.19155 0.36055
 C248 C 0.87769 0.17374 0.32770
 C249 C 0.85668 0.14408 0.31336
 H250 H 0.78704 0.13891 0.37870
 H251 H 0.88075 0.21535 0.37116
 H252 H 0.86581 0.13098 0.28780
 C253 C 0.66466 0.36587 0.32823
 C254 C 0.63310 0.34762 0.31546
 C255 C 0.61804 0.31561 0.33354
 C256 C 0.63492 0.30214 0.36517
 C257 C 0.66658 0.32033 0.37872
 C258 C 0.68136 0.35246 0.36014
 H259 H 0.62095 0.35799 0.29059
 H260 H 0.62386 0.27699 0.37886
 H261 H 0.70626 0.36616 0.36975
 C262 C 0.67004 0.85043 0.83529
 C263 C 0.64209 0.82747 0.82128
 C264 C 0.63039 0.79417 0.83953
 C265 C 0.64710 0.78411 0.87223
 C266 C 0.67489 0.80713 0.88687
 C267 C 0.68643 0.84044 0.86829
 H268 H 0.62968 0.83569 0.79581
 H269 H 0.63846 0.75833 0.88639
 H270 H 0.70823 0.85808 0.87909
 C271 C 0.14750 0.35879 0.81184
 C272 C 0.11771 0.33716 0.79872
 C273 C 0.10572 0.30394 0.81752
 C274 C 0.12383 0.29271 0.84924
 C275 C 0.15357 0.31387 0.86244
 C276 C 0.16498 0.34693 0.84387
 H277 H 0.10448 0.34584 0.77384
 H278 H 0.11521 0.26685 0.86327
 H279 H 0.18827 0.36296 0.85396
 C280 C 0.17589 0.88552 0.33028
 C281 C 0.14366 0.86649 0.31962
 C282 C 0.12968 0.83520 0.33968
 C283 C 0.14778 0.82348 0.37091
 C284 C 0.18035 0.84158 0.38175
 C285 C 0.19452 0.87297 0.36152
 H286 H 0.13018 0.87558 0.29500
 H287 H 0.13743 0.79884 0.38598
 H288 H 0.22014 0.88666 0.36930
 O289 O 0.25819 1.02527 0.18311
 O290 O 0.21537 0.96675 0.25706
 O291 O 0.20652 1.03818 0.23627
 O292 O 0.25951 0.95610 0.20165
 O293 O 0.30655 0.97171 0.23630
 O294 O 0.25143 1.05204 0.27392
 O295 O 0.26178 0.98127 0.29278
 O296 O 0.30244 1.04391 0.21970
 Cu297 Cu 0.22978 0.99602 0.21627
 Cu298 Cu 0.28503 1.01425 0.25923
 C299 C 0.28822 1.04341 0.18831
 C300 C 0.23228 0.96256 0.28690
 C301 C 0.21934 1.05853 0.26148
 C302 C 0.29204 0.94993 0.21291
 O303 O 0.21881 0.53252 0.80489
 O304 O 0.28801 0.46716 0.76190
 O305 O 0.28240 0.54089 0.76667
 O306 O 0.23009 0.46030 0.80579
 O307 O 0.19590 0.45513 0.75675
 O308 O 0.24889 0.53768 0.71720
 O309 O 0.25221 0.46148 0.71410
 O310 O 0.18358 0.52528 0.75688
 Cu311 Cu 0.25832 0.50101 0.78951
 Cu312 Cu 0.21776 0.49633 0.73079
 C313 C 0.18861 0.53857 0.78855
 C314 C 0.28113 0.45235 0.73108
 C315 C 0.27502 0.55278 0.73505
 C316 C 0.20475 0.44370 0.78846
 O317 O 0.77085 -0.02349 0.31629
 O318 O 0.69595 0.02981 0.27230
 O319 O 0.70433 -0.04183 0.29318
 O320 O 0.75751 0.04507 0.30293
 O321 O 0.78739 0.03671 0.24943
 O322 O 0.73046 -0.05048 0.23819
 O323 O 0.72694 0.02422 0.21912
 O324 O 0.79943 -0.03008 0.26190
 Cu325 Cu 0.72865 0.00250 0.30136
 Cu326 Cu 0.76220 -0.00778 0.23640
 C327 C 0.79899 -0.03353 0.29649
 C328 C 0.70029 0.03806 0.23839
 C329 C 0.70820 -0.06111 0.26430
 C330 C 0.78239 0.05508 0.27914
 O331 O 0.79218 0.46817 0.80666
 O332 O 0.72542 0.53257 0.76637
 O333 O 0.74178 0.46312 0.75693
 O334 O 0.78744 0.54368 0.80281
 O335 O 0.82323 0.55272 0.75285
 O336 O 0.78365 0.46958 0.71130
 O337 O 0.76293 0.53997 0.71733
 O338 O 0.83325 0.48148 0.76169
 Cu339 Cu 0.75866 0.50151 0.78818
 Cu340 Cu 0.80437 0.51139 0.73107
 C341 C 0.82448 0.46490 0.79189
 C342 C 0.73214 0.54646 0.73478
 C343 C 0.75528 0.45321 0.72560
 C344 C 0.81296 0.56215 0.78493
 O345 O 0.27002 0.45897 0.27912
 O346 O 0.22073 0.53294 0.22869
 O347 O 0.22104 0.45908 0.22757
 O348 O 0.26963 0.53325 0.27997
 O349 O 0.31518 0.53368 0.23748
 O350 O 0.26725 0.46014 0.18578
 O351 O 0.26644 0.53349 0.18636
 O352 O 0.31583 0.45987 0.23691
 Cu353 Cu 0.24080 0.49588 0.25819
 Cu354 Cu 0.29579 0.49693 0.20751
 C355 C 0.30114 0.44667 0.26648
 C356 C 0.23533 0.54575 0.19884
 C357 C 0.23603 0.44714 0.19768
 C358 C 0.30064 0.54627 0.26717
 O359 O 0.71303 1.03217 0.80267
 O360 O 0.78122 0.97454 0.74910
 O361 O 0.75490 1.04418 0.74255
 O362 O 0.73807 0.96308 0.80705
 O363 O 0.69496 0.94111 0.77069
 O364 O 0.70682 1.02391 0.71177
 O365 O 0.73602 0.95465 0.71422
 O366 O 0.66757 1.00588 0.77208
 Cu367 Cu 0.75157 1.00596 0.77848
 Cu368 Cu 0.69711 0.98025 0.73786
 C369 C 0.67847 1.02717 0.79752
 C370 C 0.76992 0.95394 0.72328
 C371 C 0.73240 1.04801 0.71662
 C372 C 0.71365 0.93824 0.79943
 O373 O 0.75434 0.52193 0.19872
 O374 O 0.71071 0.44982 0.26070
 O375 O 0.69799 0.52069 0.24513
 O376 O 0.76071 0.44856 0.20705
 O377 O 0.80195 0.46042 0.24916
 O378 O 0.73882 0.53419 0.28722
 O379 O 0.75183 0.46300 0.30259
 O380 O 0.79550 0.53377 0.24093
 Cu381 Cu 0.72698 0.48380 0.22373
 Cu382 Cu 0.77607 0.49911 0.27412
 C383 C 0.78216 0.54060 0.20986
 C384 C 0.72411 0.44409 0.29216
 C385 C 0.70786 0.54023 0.27212
 C386 C 0.79160 0.44174 0.22152
 O387 O 0.21931 0.00728 0.76422
 O388 O 0.29978 -0.05286 0.78886
 O389 O 0.28218 0.02016 0.79261
 O390 O 0.22896 -0.06485 0.77485
 O391 O 0.24993 -0.06505 0.71703
 O392 O 0.30541 0.02179 0.73559
 O393 O 0.32018 -0.05042 0.73105
 O394 O 0.24149 0.00739 0.70694
 Cu395 Cu 0.25632 -0.02331 0.78529
 Cu396 Cu 0.28139 -0.02161 0.71702
 C397 C 0.21769 0.01840 0.73099
 C398 C 0.32382 -0.06140 0.76368
 C399 C 0.30239 0.03597 0.76767
 C400 C 0.23013 -0.07964 0.74339
 O401 O 0.25238 0.31881 0.94380
 O402 O 0.30974 0.27545 1.01509
 O403 O 0.30935 0.27345 0.94324
 O404 O 0.25983 0.32773 1.01480
 O405 O 0.21885 0.28104 1.02173
 O406 O 0.26824 0.22676 0.94916
 O407 O 0.26834 0.22896 1.02056
 O408 O 0.21141 0.27212 0.95058
 Cu409 Cu 0.28690 0.30349 0.97839
 Cu410 Cu 0.23745 0.24775 0.98602
 C411 C 0.22238 0.30238 0.93475
 C412 C 0.29812 0.24494 1.03037
 C413 C 0.29746 0.24127 0.93386
 C414 C 0.23167 0.31305 1.03137
 O415 O 0.27842 0.82753 0.46404
 O416 O 0.32393 0.77066 0.53481
 O417 O 0.32414 0.77033 0.46290
 O418 O 0.27660 0.82553 0.53626
 O419 O 0.22933 0.78510 0.53590
 O420 O 0.27741 0.72921 0.46419
 O421 O 0.27655 0.73031 0.53605
 O422 O 0.23197 0.78613 0.46454
 Cu423 Cu 0.30554 0.80259 0.49929
 Cu424 Cu 0.24914 0.75360 0.50014
 C425 C 0.24750 0.81620 0.45204
 C426 C 0.30761 0.74142 0.54805
 C427 C 0.30879 0.74056 0.45099
 C428 C 0.24493 0.81424 0.54883
 O429 O 0.23574 0.79694 0.01983
 O430 O 0.19654 0.73932 -0.05355
 O431 O 0.18390 0.74544 0.01836
 O432 O 0.24885 0.79027 -0.05082
 O433 O 0.28904 0.74479 -0.03992
 O434 O 0.22526 0.70066 0.02753
 O435 O 0.23707 0.69403 -0.04335
 O436 O 0.27648 0.75179 0.02997
 Cu437 Cu 0.21181 0.77233 -0.01761
 Cu438 Cu 0.26097 0.71824 -0.00555
 C439 C 0.26270 0.78399 0.03754
 C440 C 0.21060 0.70737 -0.06150
 C441 C 0.19423 0.71611 0.03545
 C442 C 0.28023 0.77454 -0.05687
 O443 O 0.29659 0.24214 0.48179
 O444 O 0.23329 0.19569 0.54968
 O445 O 0.24771 0.18933 0.47860
 O446 O 0.28162 0.25205 0.55112
 O447 O 0.23685 0.29285 0.54049
 O448 O 0.20341 0.23078 0.46827
 O449 O 0.18881 0.23681 0.53922
 O450 O 0.25254 0.28366 0.47063
 Cu451 Cu 0.26896 0.21548 0.51699
 Cu452 Cu 0.21582 0.26507 0.50377
 C453 C 0.28499 0.27029 0.46401
 C454 C 0.20054 0.20807 0.55620
 C455 C 0.22057 0.20050 0.46003
 C456 C 0.26539 0.28332 0.55768
 O457 O 0.75944 0.81840 0.98214
 O458 O 0.81392 0.77210 1.05352
 O459 O 0.82037 0.77980 0.98240
 O460 O 0.75558 0.81601 1.05493
 O461 O 0.72004 0.76519 1.04942
 O462 O 0.78558 0.72809 0.97980
 O463 O 0.77776 0.72141 1.05044
 O464 O 0.72532 0.76638 0.97814
 Cu465 Cu 0.79068 0.80195 1.01893
 Cu466 Cu 0.74863 0.74016 1.01422
 C467 C 0.73391 0.79948 0.96711
 C468 C 0.80496 0.73886 1.06404
 C469 C 0.81356 0.74777 0.96855
 C470 C 0.72691 0.79656 1.06450
 O471 O 0.75750 0.31826 0.46944
 O472 O 0.81073 0.26959 0.54133
 O473 O 0.81511 0.27334 0.46918
 O474 O 0.75174 0.31217 0.54198
 O475 O 0.71308 0.26378 0.53637
 O476 O 0.77702 0.22417 0.46637
 O477 O 0.77139 0.22150 0.53808
 O478 O 0.72011 0.26872 0.46510
 Cu479 Cu 0.78740 0.29846 0.50582
 Cu480 Cu 0.74185 0.23957 0.50100
 C481 C 0.73035 0.30162 0.45462
 C482 C 0.79924 0.23738 0.55256
 C483 C 0.80626 0.24187 0.45519
 C484 C 0.72206 0.29427 0.55189
 O485 O 0.70107 0.23041 -0.04405
 O486 O 0.74236 0.29227 0.02479
 O487 O 0.75326 0.28209 -0.04602
 O488 O 0.68896 0.24215 0.02658
 O489 O 0.73031 0.19792 0.03763
 O490 O 0.79362 0.23672 -0.03563
 O491 O 0.78377 0.24792 0.03533
 O492 O 0.74144 0.18536 -0.03253
 Cu493 Cu 0.71727 0.26612 -0.01090
 Cu494 Cu 0.76645 0.21265 0.00237
 C495 C 0.71425 0.19766 -0.05027
 C496 C 0.76996 0.28027 0.04213
 C497 C 0.78413 0.26581 -0.05350
 C498 C 0.69904 0.21354 0.04485
 O499 O 0.78833 0.74786 0.46921
 O500 O 0.72573 0.70231 0.53654
 O501 O 0.73823 0.69564 0.46621
 O502 O 0.77301 0.75782 0.53832
 O503 O 0.72865 0.79911 0.52763
 O504 O 0.69421 0.73724 0.45533
 O505 O 0.68101 0.74338 0.52665
 O506 O 0.74496 0.79010 0.45793
 Cu507 Cu 0.76056 0.72166 0.50383
 Cu508 Cu 0.70763 0.77156 0.49064
 C509 C 0.77747 0.77659 0.45199
 C510 C 0.69327 0.71492 0.54375
 C511 C 0.71065 0.70635 0.44803
 C512 C 0.75674 0.78898 0.54525
 O513 O 1.04029 0.29857 0.22754
 O514 O 0.98021 0.25388 0.30013
 O515 O 1.05124 0.24647 0.27901
 O516 O 0.97088 0.30206 0.24824
 O517 O 0.95660 0.25516 0.21113
 O518 O 1.03848 0.20188 0.23924
 O519 O 0.96516 0.20922 0.26100
 O520 O 1.02099 0.25567 0.18845
 Cu521 Cu 1.01295 0.27943 0.26792
 Cu522 Cu 0.99605 0.22461 0.22201
 C523 C 1.03805 0.28627 0.19502
 C524 C 0.96086 0.22515 0.29204
 C525 C 1.05848 0.21468 0.26431
 C526 C 0.95014 0.28784 0.22418
 O527 O 0.46566 0.28777 0.71616
 O528 O 0.53534 0.23232 0.76439
 O529 O 0.46321 0.23055 0.76046
 O530 O 0.53948 0.28679 0.71633
 O531 O 0.53606 0.32784 0.76182
 O532 O 0.46048 0.27161 0.80601
 O533 O 0.53261 0.27378 0.80959
 O534 O 0.46287 0.32894 0.76156
 Cu535 Cu 0.50134 0.25551 0.73442
 Cu536 Cu 0.49770 0.30478 0.78920
 C537 C 0.45157 0.31705 0.73118
 C538 C 0.54576 0.24385 0.79539
 C539 C 0.44890 0.24171 0.79083
 C540 C 0.55135 0.31624 0.73209
 O541 O 0.02429 0.23005 0.78152
 O542 O -0.04123 0.16007 0.74457
 O543 O 0.02990 0.17371 0.73700
 O544 O -0.04629 0.21251 0.79556
 O545 O -0.05810 0.25358 0.75177
 O546 O 0.01551 0.21199 0.69166
 O547 O -0.05747 0.20042 0.70170
 O548 O 0.01187 0.26893 0.73604
 Cu549 Cu -0.00734 0.19013 0.76914
 Cu550 Cu -0.02373 0.23751 0.71581
 C551 C 0.02997 0.26114 0.76437
 C552 C -0.06055 0.16823 0.71710
 C553 C 0.03607 0.18645 0.70472
 C554 C -0.06456 0.24036 0.78394
 O555 O 0.45693 0.30249 0.24304
 O556 O 0.52845 0.25160 0.19011
 O557 O 0.45509 0.24231 0.20025
 O558 O 0.52872 0.29810 0.24403
 O559 O 0.52985 0.25568 0.28861
 O560 O 0.45780 0.19960 0.24437
 O561 O 0.53066 0.20808 0.23368
 O562 O 0.45638 0.25930 0.28708
 Cu563 Cu 0.49152 0.27701 0.21513
 Cu564 Cu 0.49385 0.22647 0.26770
 C565 C 0.44412 0.29001 0.27355
 C566 C 0.54232 0.22169 0.20274
 C567 C 0.44388 0.21134 0.21509
 C568 C 0.54200 0.28604 0.27380
 O569 O 0.94990 0.78451 0.71218
 O570 O 1.03346 0.73965 0.74882
 O571 O 0.95986 0.73958 0.76424
 O572 O 1.01631 0.78312 0.68993
 O573 O 1.02904 0.83175 0.72537
 O574 O 0.97021 0.78821 0.80044
 O575 O 1.04222 0.78952 0.78367
 O576 O 0.95915 0.83472 0.74671
 Cu577 Cu 0.99063 0.75620 0.72606
 Cu578 Cu 1.00163 0.81590 0.76766
 C579 C 0.94040 0.81731 0.72314
 C580 C 1.05155 0.75673 0.77318
 C581 C 0.95432 0.75664 0.79450
 C582 C 1.03104 0.81535 0.69434
 O583 O 0.45423 0.76218 0.21052
 O584 O 0.53523 0.71682 0.25314
 O585 O 0.46044 0.71507 0.26151
 O586 O 0.52192 0.75918 0.19216
 O587 O 0.53274 0.80742 0.22872
 O588 O 0.46732 0.76386 0.29841
 O589 O 0.54044 0.76662 0.28886
 O590 O 0.46197 0.81231 0.24555
 Cu591 Cu 0.49395 0.73282 0.22660
 Cu592 Cu 0.50179 0.79223 0.26913
 C593 C 0.44450 0.79516 0.22097
 C594 C 0.55104 0.73410 0.27899
 C595 C 0.45198 0.73233 0.29100
 C596 C 0.53673 0.79109 0.19773
 O597 O 0.04202 0.76869 0.30429
 O598 O -0.03010 0.70485 0.26915
 O599 O 0.04232 0.70545 0.26745
 O600 O -0.03151 0.76767 0.30545
 O601 O -0.02940 0.80127 0.25415
 O602 O 0.04248 0.73810 0.21561
 O603 O -0.02974 0.73857 0.21793
 O604 O 0.04318 0.80105 0.25227
 Cu605 Cu 0.00574 0.73357 0.29200
 Cu606 Cu 0.00681 0.77307 0.22982
 C607 C 0.05511 0.79542 0.28411
 C608 C -0.04232 0.71117 0.23750
 C609 C 0.05453 0.71100 0.23475
 C610 C -0.04328 0.79472 0.28601
 O611 O 0.54739 0.72571 0.79366
 O612 O 0.46618 0.67502 0.75561
 O613 O 0.54134 0.68017 0.74131
 O614 O 0.48167 0.71804 0.81459
 O615 O 0.46552 0.76569 0.77919
 O616 O 0.52814 0.72796 0.70488
 O617 O 0.45545 0.72412 0.72016
 O618 O 0.53458 0.77471 0.75848
 Cu619 Cu 0.50874 0.69380 0.77862
 Cu620 Cu 0.49421 0.75267 0.73690
 C621 C 0.55415 0.75941 0.78264
 C622 C 0.44698 0.69113 0.73144
 C623 C 0.54659 0.69823 0.71142
 C624 C 0.46476 0.74888 0.81022
 N625 N 0.39879 0.30043 0.32182
 N626 N 0.41486 0.31076 0.29170
 N627 N 0.42059 0.78779 0.83957
 N628 N 0.44612 0.76493 0.84149
 N629 N -0.10438 0.28999 0.79781
 N630 N -0.09153 0.25832 0.80772
 N631 N -0.09277 0.80854 0.32790
 N632 N -0.07317 0.81775 0.29945
 N633 N 0.59373 0.68451 0.29144
 N634 N 0.58057 0.71715 0.29836
 N635 N 0.58563 0.19191 0.80323
 N636 N 0.57292 0.22336 0.81472
 N637 N 1.09116 0.70465 0.78318
 N638 N 1.08171 0.73849 0.79054
 N639 N 1.10503 0.20264 0.30571
 N640 N 1.08887 0.19259 0.27684
 N641 N 0.60208 0.32420 0.68951
 N642 N 0.58370 0.33565 0.71778
 N643 N 0.58702 0.82442 0.17085
 N644 N 0.55635 0.80921 0.16780
 N645 N 1.08352 0.32089 0.16188
 N646 N 1.05142 0.30856 0.16474
 N647 N 1.08153 0.84087 0.66073
 N648 N 1.04781 0.83416 0.66320
 N649 N 0.39880 0.68698 0.69003
 N650 N 0.41540 0.67210 0.71678
 N651 N 0.39870 0.20213 0.17102
 N652 N 0.41489 0.18972 0.19905
 N653 N -0.08528 0.69565 0.19342
 N654 N -0.07120 0.68770 0.22399
 N655 N -0.11495 0.14587 0.68930
 N656 N -0.08466 0.13969 0.70318
 N657 N 0.30583 0.40334 0.31507
 N658 N 0.31960 0.41700 0.28517
 N659 N 0.35602 -0.10767 0.79541
 N660 N 0.35598 -0.08297 0.77156
 N661 N 0.84707 0.41103 0.82005
 N662 N 0.85220 0.44400 0.81003
 N663 N 0.83490 -0.07772 0.32574
 N664 N 0.83199 -0.04557 0.31339
 N665 N 0.29123 0.59689 0.68810
 N666 N 0.29700 0.58321 0.71968
 N667 N 0.31747 1.09313 0.15473
 N668 N 0.30774 1.05970 0.15720
 N669 N 0.82498 0.59001 0.19929
 N670 N 0.79757 0.57081 0.18793
 N671 N 0.76159 1.10017 0.68616
 N672 N 0.73390 1.08012 0.69280
 N673 N 0.69270 0.59058 0.31166
 N674 N 0.68427 0.57027 0.28449
 N675 N 0.65044 1.07793 0.82806
 N676 N 0.65107 1.04381 0.82159
 N677 N 0.15696 0.59156 0.81147
 N678 N 0.15832 0.55705 0.80735
 N679 N 0.20580 1.10524 0.30569
 N680 N 0.19693 1.08859 0.27634
 N681 N 0.70541 0.41166 0.71299
 N682 N 0.73778 0.42467 0.70481
 N683 N 0.67909 -0.10986 0.23283
 N684 N 0.68713 -0.09527 0.26209
 N685 N 0.18638 0.40461 0.18602
 N686 N 0.21816 0.41865 0.17676
 N687 N 0.19424 -0.12181 0.71005
 N688 N 0.20955 -0.11374 0.73865
 N689 N 0.29729 0.31333 0.41580
 N690 N 0.30821 0.28571 0.43497
 N691 N 0.30210 0.81721 -0.10454
 N692 N 0.30659 0.78894 -0.08348
 N693 N 0.80268 0.31084 -0.09901
 N694 N 0.80825 0.27940 -0.08297
 N695 N 0.79508 0.82315 0.40796
 N696 N 0.80245 0.79301 0.42520
 N697 N 0.71037 0.33395 0.60231
 N698 N 0.69928 0.30725 0.58211
 N699 N 0.70948 0.83560 1.11503
 N700 N 0.70182 0.80914 1.09293
 N701 N 0.18789 0.31670 1.07995
 N702 N 0.21525 0.33196 1.06230
 N703 N 0.19368 0.82547 0.58851
 N704 N 0.22725 0.83361 0.57890
 N705 N 0.30726 0.69383 0.59341
 N706 N 0.32380 0.72190 0.57787
 N707 N 0.30578 0.19908 1.07570
 N708 N 0.31808 0.22903 1.05982
 N709 N 0.81671 0.68857 1.10434
 N710 N 0.82551 0.72131 1.09206
 N711 N 0.79847 0.19194 0.59841
 N712 N 0.81618 0.21940 0.58313
 N713 N 0.67294 0.69481 0.39796
 N714 N 0.69903 0.68386 0.41813
 N715 N 0.67428 0.18897 -0.09844
 N716 N 0.69885 0.17485 -0.07828
 N717 N 0.17518 0.70217 -0.11392
 N718 N 0.19728 0.68663 -0.09196
 N719 N 0.18584 0.19403 0.40786
 N720 N 0.21062 0.18024 0.42801
 N721 N 0.29703 0.40641 0.68714
 N722 N 0.30554 0.42412 0.71604
 N723 N 0.29957 0.89782 0.17375
 N724 N 0.31245 0.91797 0.19934
 N725 N 0.80401 0.39354 0.17929
 N726 N 0.81437 0.41188 0.20717
 N727 N 0.78418 0.90652 0.68033
 N728 N 0.79515 0.92797 0.70578
 N729 N 0.70913 0.58203 0.68619
 N730 N 0.70465 0.56970 0.71885
 N731 N 0.68498 0.07775 0.19017
 N732 N 0.67667 0.06537 0.22229
 N733 N 0.18687 0.58966 0.19094
 N734 N 0.21701 0.57457 0.17889
 N735 N 0.19529 0.06077 0.68891
 N736 N 0.19068 0.04566 0.72054
 N737 N 0.30708 0.59147 0.31480
 N738 N 0.31955 0.57611 0.28534
 N739 N 0.31276 0.08648 0.80631
 N740 N 0.32098 0.07063 0.77584
 N741 N 0.82399 0.60503 0.83306
 N742 N 0.83097 0.59388 0.80051
 N743 N 0.80162 0.10149 0.31863
 N744 N 0.80609 0.08622 0.28728
 N745 N 0.68029 0.39632 0.30656
 N746 N 0.70862 0.41532 0.31582
 N747 N 0.68093 0.88342 0.81470
 N748 N 0.70644 0.90664 0.82328
 N749 N 0.16118 0.39175 0.79207
 N750 N 0.18729 0.41140 0.80544
 N751 N 0.19022 0.91527 0.30680
 N752 N 0.21883 0.93527 0.31341
 N753 N 0.40634 0.32086 0.68698
 N754 N 0.42087 0.33534 0.71496
 N755 N 0.39667 0.79837 0.17874
 N756 N 0.41357 0.81342 0.20508
 N757 N 0.90286 0.29602 0.18329
 N758 N 0.91971 0.30896 0.21070
 N759 N 0.89220 0.81934 0.68197
 N760 N 0.90837 0.83486 0.70853
 N761 N 0.58709 0.29537 0.31886
 N762 N 0.57166 0.30661 0.28984
 N763 N 0.60143 0.77070 0.82537
 N764 N 0.58359 0.78116 0.79757
 N765 N 0.07660 0.27985 0.80449
 N766 N 0.05766 0.28729 0.77649
 N767 N 0.09901 0.81300 0.32741
 N768 N 0.08437 0.81902 0.29670
 N769 N 0.59599 0.65876 0.69499
 N770 N 0.57519 0.68604 0.68596
 N771 N 0.58757 0.17427 0.19349
 N772 N 0.57192 0.20398 0.18202
 N773 N 0.09412 0.69151 0.18632
 N774 N 0.08238 0.68660 0.21934
 N775 N 0.08807 0.14723 0.69590
 N776 N 0.06732 0.17291 0.68328
 N777 N 0.40723 0.68626 0.30642
 N778 N 0.42358 0.71682 0.31519
 N779 N 0.40491 0.19124 0.79521
 N780 N 0.41877 0.22132 0.80831
 N781 N 0.91353 0.70890 0.81479
 N782 N 0.92914 0.74039 0.82163
 N783 N 0.90960 0.18665 0.30652
 N784 N 0.93185 0.21225 0.31694
 N785 N 0.31008 0.30155 0.59958
 N786 N 0.27925 0.30822 0.58475
 N787 N 0.30408 0.79323 0.08505
 N788 N 0.27712 0.80567 0.06684
 N789 N 0.81204 0.29123 0.08864
 N790 N 0.78471 0.30296 0.07055
 N791 N 0.79898 0.80412 0.59049
 N792 N 0.76984 0.81280 0.57357
 N793 N 0.31221 0.69101 0.40789
 N794 N 0.32675 0.72049 0.42153
 N795 N 0.30607 0.19020 0.89299
 N796 N 0.31696 0.22200 0.90492
 N797 N 0.82770 0.70245 0.92493
 N798 N 0.83625 0.73419 0.93860
 N799 N 0.81617 0.19668 0.41050
 N800 N 0.82810 0.22671 0.42524
 N801 N 0.68442 0.30414 0.40980
 N802 N 0.71205 0.31974 0.42500
 N803 N 0.69214 0.79487 0.91960
 N804 N 0.71596 0.81478 0.93612
 N805 N 0.17332 0.30017 0.89335
 N806 N 0.20171 0.31747 0.90534
 N807 N 0.19942 0.82499 0.41161
 N808 N 0.23037 0.83679 0.42334
 N809 N 0.68584 0.66934 0.58866
 N810 N 0.67156 0.69760 0.57287
 N811 N 0.68546 0.17030 0.09236
 N812 N 0.67553 0.19942 0.07462
 N813 N 0.18416 0.67397 0.08414
 N814 N 0.17215 0.70180 0.06581
 N815 N 0.18882 0.15999 0.59898
 N816 N 0.17714 0.18985 0.58370
   
