data_POSCAR
  _audit_creation_date              2014-09-24
  _audit_creation_method            'ToBaCCo'
  _symmetry_space_group_name_H-M    'P1'
  _symmetry_Int_Tables_number       1
  _symmetry_cell_setting            triclinic
  loop_
  _symmetry_equiv_pos_as_xyz
 x,y,z
_cell_length_a 20.9044
_cell_length_b 13.4091
_cell_length_c 13.4308
_cell_angle_alpha 90.307800
_cell_angle_beta 90.242400
_cell_angle_gamma 89.809900
loop_
  _atom_site_label
  _atom_site_type_symbol
  _atom_site_fract_x
  _atom_site_fract_y
  _atom_site_fract_z
O1 O 0.04489 0.20227 0.19504
 O2 O 0.12624 0.12249 0.11185
 C3 C 0.10497 0.18578 0.17719
 O4 O -0.10619 -0.18295 0.16124
 O5 O -0.17772 -0.10010 0.06129
 C6 C -0.16365 -0.16710 0.12740
 O7 O 0.06922 -0.13315 0.20182
 O8 O 0.13949 -0.04415 0.10751
 C9 C 0.12684 -0.10268 0.18164
 O10 O -0.13169 0.18260 0.15947
 O11 O -0.19033 0.07594 0.06145
 C12 C -0.18553 0.14735 0.12663
 Zr13 Zr -0.03683 0.13861 0.12652
 O14 O -0.04775 0.12643 0.28233
 O15 O -0.04308 0.29601 0.13387
 Zr16 Zr -0.01913 -0.11106 0.12573
 O17 O -0.03408 -0.12305 0.28072
 O18 O -0.00202 -0.26616 0.11559
 O19 O 0.02753 0.02330 0.15335
 O20 O -0.08461 0.00452 0.13632
 O21 O -0.11302 0.17866 -0.18633
 O22 O -0.18155 0.07401 -0.10433
 C23 C -0.16952 0.14274 -0.16888
 O24 O 0.08934 -0.14468 -0.16649
 O25 O 0.14845 -0.04211 -0.06440
 C26 C 0.14323 -0.10964 -0.13364
 O27 O -0.08722 -0.18016 -0.18498
 O28 O -0.16859 -0.09544 -0.10685
 C29 C -0.14739 -0.16216 -0.16876
 O30 O 0.06448 0.20533 -0.16729
 O31 O 0.13578 0.12729 -0.06304
 C32 C 0.12178 0.19087 -0.13268
 Zr33 Zr -0.02290 0.14048 -0.12380
 O34 O -0.01785 0.14193 -0.28111
 O35 O -0.02854 0.29811 -0.11960
 Zr36 Zr -0.00520 -0.10941 -0.12417
 O37 O 0.00082 -0.09813 -0.28071
 O38 O 0.01026 -0.26529 -0.12935
 Zr39 Zr 0.07390 0.03033 0.01420
 Zr40 Zr -0.11580 -0.00090 -0.01261
 O41 O -0.06814 0.00632 -0.15015
 O42 O 0.04386 0.02500 -0.13545
 O43 O -0.08782 0.14989 -0.00690
 O44 O 0.04454 -0.11955 0.00903
 O45 O 0.02403 0.16685 0.00931
 O46 O -0.06755 -0.13912 -0.00733
 H47 H -0.11663 -0.00053 0.19025
 H48 H 0.07740 -0.17276 0.01407
 H49 H -0.09287 0.00162 -0.21306
 H50 H 0.04803 0.23030 0.01372
 H51 H -0.00151 -0.29104 0.18490
 H52 H -0.01040 -0.29328 -0.06970
 H53 H 0.00558 -0.16733 -0.30596
 H54 H 0.01525 0.09287 -0.30095
 H55 H -0.07039 0.31599 -0.09043
 H56 H -0.07045 0.31783 0.07786
 H57 H -0.05469 0.19514 0.30766
 H58 H -0.02891 -0.05525 0.30869
 O59 O 0.58942 0.66850 0.67187
 O60 O 0.64800 0.57000 0.56540
 C61 C 0.64325 0.63527 0.63671
 O62 O 0.38631 0.34520 0.67780
 O63 O 0.31786 0.45488 0.60062
 C64 C 0.32986 0.38314 0.66221
 O65 O 0.56428 0.31856 0.65901
 O66 O 0.63533 0.40208 0.56005
 C67 C 0.62156 0.33560 0.62663
 O68 O 0.41220 0.70523 0.69080
 O69 O 0.33087 0.62204 0.61062
 C70 C 0.35209 0.68758 0.67365
 Zr71 Zr 0.49412 0.63447 0.63036
 O72 O 0.49733 0.61754 0.78704
 O73 O 0.51015 0.78893 0.64899
 Zr74 Zr 0.47658 0.38548 0.61825
 O75 O 0.48546 0.38781 0.77504
 O76 O 0.47074 0.22790 0.61326
 O77 O 0.54343 0.49938 0.63534
 O78 O 0.43114 0.51847 0.64993
 O79 O 0.39098 0.72158 0.34825
 O80 O 0.32014 0.63305 0.44217
 C81 C 0.33349 0.70420 0.38059
 O82 O 0.54422 0.33678 0.29771
 O83 O 0.62535 0.41192 0.38548
 C84 C 0.60430 0.35157 0.31723
 O85 O 0.36807 0.35461 0.33428
 O86 O 0.30933 0.45882 0.43464
 C87 C 0.31432 0.38909 0.36786
 O88 O 0.56858 0.68042 0.31209
 O89 O 0.63800 0.57657 0.39528
 C90 C 0.62540 0.64432 0.32970
 Zr91 Zr 0.47937 0.64890 0.38020
 O92 O 0.46441 0.66345 0.22520
 O93 O 0.49810 0.80388 0.38964
 Zr94 Zr 0.46253 0.39886 0.36766
 O95 O 0.45120 0.42042 0.21286
 O96 O 0.45531 0.24268 0.34915
 Zr97 Zr 0.57273 0.50100 0.48566
 Zr98 Zr 0.38362 0.53249 0.51218
 O99 O 0.41445 0.53368 0.36331
 O100 O 0.52641 0.51535 0.34653
 O101 O 0.43156 0.67088 0.51433
 O102 O 0.52330 0.36462 0.48435
 O103 O 0.54297 0.65089 0.49804
 O104 O 0.41184 0.38184 0.50010
 H105 H 0.40632 0.52097 0.71254
 H106 H 0.54736 0.30121 0.47768
 H107 H 0.38210 0.54100 0.30966
 H108 H 0.57531 0.70469 0.49594
 H109 H 0.42999 0.21044 0.57990
 H110 H 0.44015 0.21577 0.41311
 H111 H 0.44430 0.35332 0.18358
 H112 H 0.47923 0.60060 0.19415
 H113 H 0.46272 0.83552 0.42715
 H114 H 0.49524 0.82128 0.58725
 H115 H 0.53312 0.57165 0.80272
 H116 H 0.48017 0.31790 0.79706
 C117 C 0.15631 0.34955 0.22859
 C118 C 0.15299 0.24385 0.23310
 C119 C 0.20021 0.19073 0.28459
 C120 C 0.25063 0.24003 0.33091
 C121 C 0.25556 0.34404 0.32709
 C122 C 0.20803 0.40017 0.27634
 C123 C 0.11168 0.40572 0.17274
 C124 C 0.11699 0.50907 0.16581
 C125 C 0.16726 0.55840 0.21269
 C126 C 0.21274 0.50474 0.26666
 H127 H 0.07307 0.37066 0.13235
 H128 H 0.08238 0.55095 0.12266
 H129 H 0.17158 0.63848 0.20593
 H130 H 0.25197 0.54591 0.29885
 H131 H 0.19866 0.10999 0.28735
 H132 H 0.28702 0.19629 0.36853
 C133 C 0.73031 0.73712 0.11676
 C134 C 0.78325 0.77479 0.17223
 C135 C 0.78475 0.76063 0.27565
 C136 C 0.73396 0.71581 0.32480
 C137 C 0.67972 0.68379 0.27234
 C138 C 0.67836 0.69111 0.16730
 C139 C 0.72855 0.74072 0.01204
 C140 C 0.67644 0.70363 -0.04141
 C141 C 0.62620 0.65822 0.00780
 C142 C 0.62741 0.65046 0.11100
 H143 H 0.76795 0.76940 -0.02948
 H144 H 0.67539 0.70855 -0.12149
 H145 H 0.58658 0.62744 -0.03425
 H146 H 0.58881 0.61038 0.14558
 H147 H 0.82462 0.78803 0.31964
 H148 H 0.73603 0.70934 0.40517
 C149 C 0.77772 0.18931 0.66770
 C150 C 0.77627 0.18217 0.77296
 C151 C 0.72256 0.21600 0.82496
 C152 C 0.67251 0.26300 0.77530
 C153 C 0.67429 0.27714 0.67193
 C154 C 0.72632 0.23725 0.61660
 C155 C 0.82815 0.14692 0.61179
 C156 C 0.82906 0.15416 0.50843
 C157 C 0.77913 0.20117 0.45861
 C158 C 0.72768 0.24067 0.51162
 H159 H 0.86655 0.10591 0.64678
 H160 H 0.86821 0.12176 0.46668
 H161 H 0.77991 0.20567 0.37836
 H162 H 0.68858 0.27123 0.46926
 H163 H 0.72055 0.20981 0.90533
 H164 H 0.63298 0.29194 0.81880
 C165 C 0.24840 0.90123 0.77167
 C166 C 0.20182 0.84562 0.82397
 C167 C 0.20758 0.74164 0.82866
 C168 C 0.25781 0.69224 0.78201
 C169 C 0.30396 0.74524 0.72915
 C170 C 0.29971 0.85042 0.72322
 C171 C 0.24364 1.00552 0.76214
 C172 C 0.28858 1.05856 0.70744
 C173 C 0.33796 1.00896 0.65898
 C174 C 0.34337 0.90580 0.66581
 H175 H 0.20495 1.04655 0.79562
 H176 H 0.28482 1.13838 0.70139
 H177 H 0.37189 1.05047 0.61505
 H178 H 0.38143 0.87032 0.62450
 H179 H 0.17204 0.69797 0.86743
 H180 H 0.26012 0.61154 0.78569
 C181 C 0.22701 0.28813 0.87685
 C182 C 0.17421 0.24962 0.82181
 C183 C 0.17128 0.26603 0.71868
 C184 C 0.22104 0.31286 0.66893
 C185 C 0.27592 0.34356 0.72035
 C186 C 0.27841 0.33478 0.82552
 C187 C 0.22903 0.28511 0.98187
 C188 C 0.28121 0.32278 1.03470
 C189 C 0.33137 0.36762 0.98465
 C190 C 0.32978 0.37494 0.88131
 H191 H 0.18977 0.25687 1.02453
 H192 H 0.28232 0.31871 1.11502
 H193 H 0.37114 0.39863 1.02620
 H194 H 0.36839 0.41454 0.84634
 H195 H 0.13107 0.23891 0.67527
 H196 H 0.21799 0.32086 0.58877
 C197 C 0.80301 0.67462 0.77330
 C198 C 0.80432 0.78036 0.77473
 C199 C 0.75545 0.83382 0.72720
 C200 C 0.70525 0.78468 0.67995
 C201 C 0.70222 0.68032 0.67805
 C202 C 0.75198 0.62410 0.72337
 C203 C 0.84915 0.61787 0.82534
 C204 C 0.84688 0.51423 0.82476
 C205 C 0.79812 0.46508 0.77424
 C206 C 0.75052 0.51909 0.72531
 H207 H 0.88668 0.65243 0.86849
 H208 H 0.88279 0.47205 0.86471
 H209 H 0.79676 0.38476 0.77445
 H210 H 0.71247 0.47793 0.69031
 H211 H 0.75557 0.91469 0.72814
 H212 H 0.66756 0.82876 0.64594
 C213 C 0.16955 0.83519 0.34078
 C214 C 0.17648 0.86481 0.23923
 C215 C 0.23775 0.85740 0.19653
 C216 C 0.28750 0.80763 0.24473
 C217 C 0.27976 0.76667 0.33983
 C218 C 0.22128 0.78585 0.39102
 C219 C 0.11523 0.86351 0.39727
 C220 C 0.10932 0.83740 0.49681
 C221 C 0.15843 0.78673 0.54434
 C222 C 0.21419 0.76333 0.49298
 H223 H 0.07842 0.91151 0.36781
 H224 H 0.06731 0.85985 0.53808
 H225 H 0.15436 0.76904 0.62255
 H226 H 0.25238 0.73259 0.53613
 H227 H 0.24639 0.88245 0.12116
 H228 H 0.33197 0.79759 0.20474
 C229 C 0.70643 0.13721 0.21357
 C230 C 0.75542 0.19319 0.16695
 C231 C 0.75157 0.29757 0.16724
 C232 C 0.70109 0.34711 0.21337
 C233 C 0.65253 0.29404 0.26071
 C234 C 0.65470 0.18815 0.26117
 C235 C 0.70960 0.03221 0.21969
 C236 C 0.66260 -0.02142 0.26925
 C237 C 0.61250 0.02811 0.31600
 C238 C 0.60877 0.13176 0.31310
 H239 H 0.74870 -0.00953 0.18821
 H240 H 0.66555 -0.10177 0.27277
 H241 H 0.57680 -0.01392 0.35594
 H242 H 0.57027 0.16669 0.35359
 H243 H 0.78887 0.34141 0.13292
 H244 H 0.70050 0.42797 0.21369
   
