data_POSCAR
  _audit_creation_date              2014-09-24
  _audit_creation_method            'ToBaCCo'
  _symmetry_space_group_name_H-M    'P1'
  _symmetry_Int_Tables_number       1
  _symmetry_cell_setting            triclinic
  loop_
  _symmetry_equiv_pos_as_xyz
 x,y,z
_cell_length_a 52.7997
_cell_length_b 52.8123
_cell_length_c 24.2620
_cell_angle_alpha 90.018800
_cell_angle_beta 89.974800
_cell_angle_gamma 89.986100
loop_
  _atom_site_label
  _atom_site_type_symbol
  _atom_site_fract_x
  _atom_site_fract_y
  _atom_site_fract_z
O1 O -0.02632 0.27413 0.10700
 O2 O 0.02539 0.27525 0.00336
 O3 O -0.02462 0.27583 0.00004
 O4 O 0.02397 0.27386 0.11017
 O5 O 0.02321 0.23206 0.10704
 O6 O -0.02454 0.23401 -0.00214
 O7 O 0.02424 0.23347 0.00054
 O8 O -0.02587 0.23232 0.10443
 Cu9 Cu -0.00039 0.27904 0.05563
 Cu10 Cu -0.00079 0.22884 0.05237
 C11 C -0.03509 0.25287 0.12250
 C12 C 0.03368 0.25432 -0.01537
 C13 C -0.03289 0.25508 -0.01945
 C14 C 0.03218 0.25250 0.12633
 O15 O 0.52534 0.77510 0.51699
 O16 O 0.47627 0.77108 0.62601
 O17 O 0.52663 0.77115 0.62361
 O18 O 0.47543 0.77511 0.51946
 O19 O 0.47592 0.73339 0.51253
 O20 O 0.52601 0.72946 0.61635
 O21 O 0.47682 0.72939 0.61870
 O22 O 0.52475 0.73339 0.51008
 Cu23 Cu 0.50094 0.77736 0.57253
 Cu24 Cu 0.50089 0.72728 0.56391
 C25 C 0.53341 0.75473 0.49524
 C26 C 0.46786 0.74944 0.63984
 C27 C 0.53533 0.74952 0.63668
 C28 C 0.46693 0.75473 0.49859
 O29 O 1.02611 0.73107 0.12434
 O30 O 0.97692 0.72587 0.01583
 O31 O 1.02688 0.72713 0.01803
 O32 O 0.97564 0.72970 0.12258
 O33 O 0.97515 0.77139 0.11535
 O34 O 1.02529 0.76881 0.01148
 O35 O 0.97650 0.76759 0.00906
 O36 O 1.02423 0.77273 0.11773
 Cu37 Cu 1.00145 0.72420 0.07121
 Cu38 Cu 1.00017 0.77424 0.06291
 C39 C 1.03397 0.75291 0.13837
 C40 C 0.96835 0.74606 -0.00582
 C41 C 1.03493 0.74776 -0.00262
 C42 C 0.96638 0.75110 0.13571
 O43 O 0.52538 0.22541 0.60841
 O44 O 0.47434 0.22352 0.50365
 O45 O 0.52422 0.22343 0.50152
 O46 O 0.47501 0.22569 0.61048
 O47 O 0.47573 0.26748 0.60677
 O48 O 0.52376 0.26524 0.49821
 O49 O 0.47497 0.26533 0.50031
 O50 O 0.52491 0.26720 0.60472
 Cu51 Cu 0.49973 0.22025 0.55669
 Cu52 Cu 0.49986 0.27045 0.55238
 C53 C 0.53414 0.24676 0.62334
 C54 C 0.46597 0.24429 0.48443
 C55 C 0.53235 0.24415 0.48156
 C56 C 0.46666 0.24711 0.62611
 O57 O 0.72571 -0.02507 -0.01913
 O58 O 0.73062 0.02461 -0.12667
 O59 O 0.72996 -0.02587 -0.12580
 O60 O 0.72602 0.02479 -0.02038
 O61 O 0.76774 0.02414 -0.01331
 O62 O 0.77161 -0.02590 -0.11734
 O63 O 0.77228 0.02317 -0.11951
 O64 O 0.76739 -0.02467 -0.01115
 Cu65 Cu 0.72383 -0.00038 -0.07414
 Cu66 Cu 0.77387 -0.00086 -0.06474
 C67 C 0.74593 -0.03327 0.00303
 C68 C 0.75242 0.03272 -0.14034
 C69 C 0.75154 -0.03485 -0.13839
 C70 C 0.74641 0.03316 0.00069
 O71 O 0.22387 0.47529 0.49885
 O72 O 0.22592 0.52628 0.39396
 O73 O 0.22605 0.47592 0.39204
 O74 O 0.22375 0.52519 0.50083
 O75 O 0.26556 0.52468 0.50437
 O76 O 0.26784 0.47657 0.39593
 O77 O 0.26771 0.52574 0.39783
 O78 O 0.26569 0.47586 0.50235
 Cu79 Cu 0.22063 0.50068 0.44575
 Cu80 Cu 0.27083 0.50073 0.45028
 C81 C 0.24462 0.46686 0.51810
 C82 C 0.24730 0.53499 0.37907
 C83 C 0.24747 0.46752 0.37654
 C84 C 0.24446 0.53332 0.52085
 O85 O 0.27419 1.02676 -0.00171
 O86 O 0.27368 0.97576 -0.10689
 O87 O 0.27222 1.02619 -0.10830
 O88 O 0.27550 0.97680 0.00016
 O89 O 0.23368 0.97635 0.00339
 O90 O 0.23047 1.02417 -0.10534
 O91 O 0.23188 0.97517 -0.10317
 O92 O 0.23242 1.02513 0.00118
 Cu93 Cu 0.27816 1.00145 -0.05481
 Cu94 Cu 0.22800 1.00007 -0.05082
 C95 C 0.25318 1.03476 0.01718
 C96 C 0.25255 0.96652 -0.12197
 C97 C 0.25062 1.03396 -0.12423
 C98 C 0.25494 0.96820 0.02004
 O99 O 0.77094 0.47494 0.37366
 O100 O 0.77550 0.52405 0.48243
 O101 O 0.77521 0.47412 0.48022
 O102 O 0.77131 0.52523 0.37586
 O103 O 0.72962 0.52485 0.38360
 O104 O 0.73350 0.47486 0.48761
 O105 O 0.73379 0.52369 0.48983
 O106 O 0.72926 0.47573 0.38146
 Cu107 Cu 0.77749 0.49957 0.42701
 Cu108 Cu 0.72742 0.49981 0.43620
 C109 C 0.74921 0.46667 0.36004
 C110 C 0.75522 0.53225 0.50435
 C111 C 0.75482 0.46576 0.50135
 C112 C 0.74969 0.53402 0.36296
 C113 C 0.20723 0.19695 0.23694
 C114 C 0.23246 0.19046 0.22527
 C115 C 0.25139 0.20898 0.23132
 C116 C 0.24527 0.23367 0.24926
 C117 C 0.21970 0.23962 0.26019
 C118 C 0.20057 0.22157 0.25279
 C119 C 0.26531 0.25348 0.25488
 C120 C 0.25961 0.27918 0.24483
 C121 C 0.27793 0.29806 0.25231
 C122 C 0.30257 0.29102 0.26724
 C123 C 0.30880 0.26564 0.27793
 C124 C 0.29002 0.24699 0.27198
 H125 H 0.19239 0.18312 0.23050
 H126 H 0.27074 0.20432 0.22062
 H127 H 0.21447 0.25834 0.27427
 H128 H 0.24088 0.28469 0.23137
 H129 H 0.31664 0.30562 0.27379
 H130 H 0.29452 0.22753 0.28195
 C131 C 0.78814 0.80610 0.23180
 C132 C 0.76285 0.81232 0.22014
 C133 C 0.74408 0.79369 0.22647
 C134 C 0.75039 0.76912 0.24472
 C135 C 0.77601 0.76336 0.25552
 C136 C 0.79501 0.78157 0.24798
 C137 C 0.73046 0.74928 0.25095
 C138 C 0.73612 0.72365 0.24009
 C139 C 0.71788 0.70471 0.24787
 C140 C 0.69338 0.71166 0.26420
 C141 C 0.68724 0.73696 0.27588
 C142 C 0.70592 0.75567 0.26938
 H143 H 0.80283 0.82005 0.22503
 H144 H 0.72466 0.79818 0.21599
 H145 H 0.78135 0.74469 0.26974
 H146 H 0.75477 0.71826 0.22576
 H147 H 0.67940 0.69700 0.27113
 H148 H 0.70151 0.77510 0.27991
 C149 C 0.78776 0.19718 0.22099
 C150 C 0.79421 0.22190 0.23660
 C151 C 0.77495 0.23987 0.24337
 C152 C 0.74945 0.23372 0.23226
 C153 C 0.74355 0.20896 0.21456
 C154 C 0.76261 0.19054 0.20907
 C155 C 0.72924 0.25335 0.23786
 C156 C 0.70472 0.24673 0.25594
 C157 C 0.68587 0.26529 0.26250
 C158 C 0.69184 0.29068 0.25125
 C159 C 0.71633 0.29784 0.23525
 C160 C 0.73469 0.27903 0.22721
 H161 H 0.80269 0.18341 0.21491
 H162 H 0.77999 0.25867 0.25728
 H163 H 0.72424 0.20414 0.20388
 H164 H 0.70047 0.22727 0.26636
 H165 H 0.67775 0.30522 0.25830
 H166 H 0.75332 0.28459 0.21309
 C167 C 0.20918 0.80833 0.24796
 C168 C 0.20182 0.78389 0.26378
 C169 C 0.22050 0.76541 0.27199
 C170 C 0.24629 0.77077 0.26189
 C171 C 0.25307 0.79525 0.24382
 C172 C 0.23462 0.81418 0.23707
 C173 C 0.26590 0.75058 0.26832
 C174 C 0.29060 0.75663 0.28628
 C175 C 0.30908 0.73767 0.29223
 C176 C 0.30255 0.71245 0.28071
 C177 C 0.27790 0.70585 0.26494
 C178 C 0.25985 0.72502 0.25766
 H179 H 0.19476 0.82252 0.24076
 H180 H 0.21479 0.74682 0.28596
 H181 H 0.27259 0.79946 0.23374
 H182 H 0.29535 0.77598 0.29669
 H183 H 0.31638 0.69761 0.28717
 H184 H 0.24111 0.71985 0.24361
 C185 C 0.71200 0.30154 0.71932
 C186 C 0.70534 0.27691 0.73514
 C187 C 0.72447 0.25879 0.74215
 C188 C 0.75003 0.26476 0.73122
 C189 C 0.75612 0.28944 0.71325
 C190 C 0.73721 0.30799 0.70754
 C191 C 0.77017 0.24511 0.73747
 C192 C 0.79467 0.25184 0.75554
 C193 C 0.81358 0.23337 0.76224
 C194 C 0.80770 0.20795 0.75116
 C195 C 0.78324 0.20065 0.73528
 C196 C 0.76477 0.21937 0.72727
 H197 H 0.69719 0.31542 0.71307
 H198 H 0.71928 0.24006 0.75621
 H199 H 0.77548 0.29412 0.70267
 H200 H 0.79889 0.27134 0.76573
 H201 H 0.82188 0.19350 0.75821
 H202 H 0.74615 0.21370 0.71334
 C203 C 0.29128 0.69340 0.74846
 C204 C 0.29854 0.71790 0.76407
 C205 C 0.27980 0.73635 0.77188
 C206 C 0.25408 0.73096 0.76147
 C207 C 0.24736 0.70641 0.74374
 C208 C 0.26586 0.68748 0.73738
 C209 C 0.23450 0.75124 0.76701
 C210 C 0.20971 0.74543 0.78479
 C211 C 0.19136 0.76456 0.79036
 C212 C 0.19812 0.78968 0.77832
 C213 C 0.22283 0.79602 0.76258
 C214 C 0.24074 0.77671 0.75585
 H215 H 0.30577 0.67923 0.74159
 H216 H 0.28545 0.75499 0.78571
 H217 H 0.22787 0.70218 0.73350
 H218 H 0.20483 0.72615 0.79558
 H219 H 0.18441 0.80468 0.78433
 H220 H 0.25955 0.78170 0.74188
 C221 C 0.29051 0.30287 0.73446
 C222 C 0.26518 0.30926 0.72366
 C223 C 0.24639 0.29061 0.72966
 C224 C 0.25271 0.26589 0.74692
 C225 C 0.27835 0.26003 0.75715
 C226 C 0.29737 0.27821 0.74967
 C227 C 0.23276 0.24599 0.75266
 C228 C 0.23853 0.22035 0.74196
 C229 C 0.22032 0.20138 0.74946
 C230 C 0.19574 0.20828 0.76522
 C231 C 0.18943 0.23357 0.77668
 C232 C 0.20810 0.25233 0.77052
 H233 H 0.30523 0.31681 0.72784
 H234 H 0.22696 0.29524 0.71963
 H235 H 0.28373 0.24128 0.77079
 H236 H 0.25723 0.21495 0.72798
 H237 H 0.18178 0.19358 0.77177
 H238 H 0.20358 0.27172 0.78105
 C239 C 0.71311 0.69282 0.73396
 C240 C 0.73839 0.68658 0.72212
 C241 C 0.75717 0.70522 0.72825
 C242 C 0.75087 0.72981 0.74646
 C243 C 0.72527 0.73557 0.75746
 C244 C 0.70626 0.71736 0.75009
 C245 C 0.77079 0.74970 0.75225
 C246 C 0.76507 0.77529 0.74111
 C247 C 0.78332 0.79427 0.74828
 C248 C 0.80786 0.78740 0.76437
 C249 C 0.81406 0.76214 0.77637
 C250 C 0.79538 0.74339 0.77043
 H251 H 0.69841 0.67886 0.72733
 H252 H 0.77657 0.70073 0.71762
 H253 H 0.71996 0.75427 0.77160
 H254 H 0.74638 0.78061 0.72698
 H255 H 0.82186 0.80209 0.77081
 H256 H 0.79984 0.72400 0.78116
 C257 C 0.24912 0.09605 0.12090
 N258 N 0.27188 0.08854 0.10039
 N259 N 0.27350 0.06816 0.06796
 C260 C 0.25237 0.05477 0.05451
 N261 N 0.22977 0.06220 0.07564
 N262 N 0.22820 0.08235 0.10828
 C263 C 0.24626 0.11950 0.15291
 N264 N 0.22336 0.12522 0.17480
 N265 N 0.21942 0.14739 0.19923
 C266 C 0.23815 0.16491 0.20270
 N267 N 0.26131 0.15901 0.18166
 N268 N 0.26531 0.13670 0.15718
 C269 C 0.75447 0.59287 0.61493
 N270 N 0.77586 0.58747 0.58599
 N271 N 0.77660 0.56754 0.55213
 C272 C 0.75593 0.55247 0.54583
 N273 N 0.73475 0.55776 0.57528
 N274 N 0.73407 0.57749 0.60927
 C275 C 0.75213 0.61608 0.64797
 N276 N 0.73029 0.62061 0.67562
 N277 N 0.72647 0.64265 0.70075
 C278 C 0.74429 0.66117 0.69928
 N279 N 0.76647 0.65643 0.67262
 N280 N 0.77032 0.63429 0.64736
 C281 C 0.74660 0.90607 0.11337
 N282 N 0.72528 0.91136 0.08413
 N283 N 0.72455 0.93131 0.05034
 C284 C 0.74515 0.94649 0.04443
 N285 N 0.76625 0.94132 0.07420
 N286 N 0.76693 0.92156 0.10811
 C287 C 0.74897 0.88283 0.14628
 N288 N 0.77080 0.87834 0.17395
 N289 N 0.77467 0.85629 0.19897
 C290 C 0.75691 0.83772 0.19736
 N291 N 0.73474 0.84242 0.17068
 N292 N 0.73085 0.86457 0.14552
 C293 C 0.24775 0.40432 0.62317
 N294 N 0.22572 0.41031 0.59729
 N295 N 0.22427 0.43081 0.56524
 C296 C 0.24485 0.44589 0.55776
 N297 N 0.26669 0.44000 0.58415
 N298 N 0.26809 0.41968 0.61634
 C299 C 0.25068 0.38063 0.65424
 N300 N 0.27310 0.37554 0.67904
 N301 N 0.27724 0.35319 0.70256
 C302 C 0.25917 0.33490 0.70223
 N303 N 0.23646 0.34018 0.67836
 N304 N 0.23229 0.36263 0.65473
 C305 C 0.89724 0.24562 0.20933
 N306 N 0.91358 0.22589 0.20506
 N307 N 0.93584 0.22874 0.18017
 C308 C 0.94273 0.25145 0.15881
 N309 N 0.92677 0.27146 0.16458
 N310 N 0.90437 0.26857 0.18931
 C311 C 0.87103 0.24085 0.22682
 N312 N 0.85303 0.25913 0.22269
 N313 N 0.82860 0.25343 0.22916
 C314 C 0.82125 0.22923 0.23967
 N315 N 0.83937 0.21120 0.24548
 N316 N 0.86374 0.21689 0.23922
 C317 C 0.40154 0.74045 0.73086
 N318 N 0.41742 0.72064 0.72224
 N319 N 0.43931 0.72391 0.69603
 C320 C 0.44627 0.74714 0.67765
 N321 N 0.43080 0.76717 0.68774
 N322 N 0.40878 0.76387 0.71380
 C323 C 0.37556 0.73563 0.74991
 N324 N 0.35789 0.75432 0.74985
 N325 N 0.33348 0.74891 0.75771
 C326 C 0.32580 0.72461 0.76565
 N327 N 0.34365 0.70611 0.76743
 N328 N 0.36801 0.71150 0.75974
 C329 C 0.09881 0.76229 0.22880
 N330 N 0.08399 0.78237 0.21565
 N331 N 0.06233 0.77909 0.18866
 C332 C 0.05449 0.75557 0.17393
 N333 N 0.06881 0.73531 0.18897
 N334 N 0.09067 0.73863 0.21563
 C335 C 0.12470 0.76681 0.24872
 N336 N 0.14214 0.74791 0.24974
 N337 N 0.16659 0.75310 0.25797
 C338 C 0.17450 0.77738 0.26528
 N339 N 0.15685 0.79607 0.26613
 N340 N 0.13248 0.79091 0.25799
 C341 C 0.60201 0.25410 0.70932
 N342 N 0.58589 0.27397 0.70428
 N343 N 0.56356 0.27116 0.67970
 C344 C 0.55636 0.24832 0.65947
 N345 N 0.57210 0.22818 0.66603
 N346 N 0.59456 0.23104 0.69043
 C347 C 0.62830 0.25871 0.72642
 N348 N 0.64609 0.24020 0.72274
 N349 N 0.67060 0.24567 0.72884
 C350 C 0.67823 0.26986 0.73852
 N351 N 0.66029 0.28813 0.74391
 N352 N 0.63586 0.28266 0.73801
 C353 C 0.76162 0.09765 0.76952
 N354 N 0.73797 0.08942 0.78256
 N355 N 0.73470 0.06752 0.80912
 C356 C 0.75501 0.05328 0.82422
 N357 N 0.77852 0.06123 0.80965
 N358 N 0.78175 0.08291 0.78274
 C359 C 0.76610 0.12355 0.74971
 N360 N 0.79019 0.13133 0.74021
 N361 N 0.79536 0.15570 0.73226
 C362 C 0.77669 0.17336 0.73354
 N363 N 0.75241 0.16546 0.74104
 N364 N 0.74721 0.14101 0.74908
 C365 C 0.25482 0.60268 0.29250
 N366 N 0.23174 0.59533 0.31147
 N367 N 0.22883 0.57293 0.33609
 C368 C 0.24893 0.55716 0.34281
 N369 N 0.27179 0.56426 0.32252
 N370 N 0.27467 0.58654 0.29773
 C371 C 0.25948 0.62890 0.27501
 N372 N 0.28345 0.63635 0.26308
 N373 N 0.28897 0.66075 0.25674
 C374 C 0.27076 0.67875 0.26200
 N375 N 0.24656 0.67123 0.27203
 N376 N 0.24103 0.64676 0.27857
 C377 C 0.24616 0.89906 0.79019
 N378 N 0.26900 0.90634 0.81060
 N379 N 0.27162 0.92870 0.83562
 C380 C 0.25145 0.94447 0.84132
 N381 N 0.22886 0.93743 0.81959
 N382 N 0.22628 0.91522 0.79439
 C383 C 0.24162 0.87285 0.77241
 N384 N 0.21778 0.86551 0.75914
 N385 N 0.21218 0.84113 0.75278
 C386 C 0.23020 0.82304 0.75935
 N387 N 0.25431 0.83044 0.77066
 N388 N 0.25991 0.85489 0.77723
 C389 C 0.73956 0.40063 0.26853
 N390 N 0.76308 0.40767 0.28537
 N391 N 0.76659 0.42960 0.31162
 C392 C 0.74668 0.44518 0.32211
 N393 N 0.72335 0.43841 0.30393
 N394 N 0.71988 0.41660 0.27754
 C395 C 0.73452 0.37472 0.24938
 N396 N 0.71030 0.36730 0.24007
 N397 N 0.70474 0.34299 0.23237
 C398 C 0.72316 0.32505 0.23362
 N399 N 0.74755 0.33260 0.24103
 N400 N 0.75313 0.35696 0.24890
 C401 C 0.09511 0.25057 0.88117
 N402 N 0.08754 0.27329 0.90175
 N403 N 0.06712 0.27483 0.93413
 C404 C 0.05379 0.25366 0.94749
 N405 N 0.06131 0.23110 0.92634
 N406 N 0.08147 0.22961 0.89372
 C407 C 0.11853 0.24774 0.84902
 N408 N 0.12402 0.22493 0.82646
 N409 N 0.14617 0.22090 0.80199
 C410 C 0.16391 0.23945 0.79913
 N411 N 0.15823 0.26255 0.82080
 N412 N 0.13594 0.26663 0.84533
 C413 C 0.59381 0.75349 0.38406
 N414 N 0.58852 0.77497 0.41275
 N415 N 0.56867 0.77586 0.44682
 C416 C 0.55357 0.75524 0.45360
 N417 N 0.55874 0.73397 0.42441
 N418 N 0.57840 0.73314 0.39020
 C419 C 0.61694 0.75102 0.35077
 N420 N 0.62136 0.72910 0.32333
 N421 N 0.64333 0.72518 0.29796
 C422 C 0.66189 0.74296 0.29897
 N423 N 0.65726 0.76521 0.32543
 N424 N 0.63519 0.76916 0.35093
 C425 C 0.90783 0.74628 0.88341
 N426 N 0.91327 0.72500 0.91262
 N427 N 0.93319 0.72440 0.94651
 C428 C 0.94820 0.74513 0.95259
 N429 N 0.94287 0.76621 0.92288
 N430 N 0.92316 0.76674 0.88884
 C431 C 0.88461 0.74851 0.85036
 N432 N 0.88010 0.77025 0.82239
 N433 N 0.85805 0.77402 0.79730
 C434 C 0.83949 0.75625 0.79914
 N435 N 0.84421 0.73416 0.82610
 N436 N 0.86637 0.73036 0.85133
 C437 C 0.40367 0.24762 0.37873
 N438 N 0.40945 0.22561 0.40488
 N439 N 0.42987 0.22409 0.43716
 C440 C 0.44507 0.24458 0.44461
 N441 N 0.43938 0.26641 0.41795
 N442 N 0.41915 0.26787 0.38553
 C443 C 0.38004 0.25067 0.34747
 N444 N 0.37514 0.27309 0.32252
 N445 N 0.35283 0.27736 0.29893
 C446 C 0.33440 0.25945 0.29932
 N447 N 0.33949 0.23673 0.32331
 N448 N 0.36190 0.23242 0.34703
 C449 C 0.76036 0.89755 0.77513
 N450 N 0.78017 0.91355 0.78237
 N451 N 0.77695 0.93580 0.80712
 C452 C 0.75375 0.94302 0.82534
 N453 N 0.73371 0.92739 0.81660
 N454 N 0.73697 0.90501 0.79204
 C455 C 0.76520 0.87133 0.75777
 N456 N 0.74659 0.85359 0.75950
 N457 N 0.75210 0.82911 0.75316
 C458 C 0.77642 0.82144 0.74515
 N459 N 0.79481 0.83933 0.74170
 N460 N 0.78932 0.86375 0.74787
 C461 C 0.25524 0.40100 0.28579
 N462 N 0.27508 0.41701 0.29243
 N463 N 0.27214 0.43897 0.31855
 C464 C 0.24920 0.44586 0.33883
 N465 N 0.22911 0.43023 0.33072
 N466 N 0.23209 0.40815 0.30474
 C467 C 0.25991 0.37499 0.26679
 N468 N 0.24133 0.35722 0.26840
 N469 N 0.24678 0.33282 0.26046
 C470 C 0.27101 0.32526 0.25089
 N471 N 0.28937 0.34320 0.24759
 N472 N 0.28393 0.36754 0.25534
 C473 C 0.24252 0.09862 0.78423
 N474 N 0.22232 0.08364 0.79554
 N475 N 0.22525 0.06204 0.82293
 C476 C 0.24852 0.05443 0.83993
 N477 N 0.26895 0.06891 0.82674
 N478 N 0.26597 0.09072 0.79969
 C479 C 0.23812 0.12447 0.76399
 N480 N 0.25681 0.14214 0.76498
 N481 N 0.25147 0.16654 0.75675
 C482 C 0.22724 0.17419 0.74744
 N483 N 0.20881 0.15632 0.74448
 N484 N 0.21413 0.13200 0.75260
 C485 C 0.74079 0.60152 0.27629
 N486 N 0.72098 0.58552 0.28367
 N487 N 0.72423 0.56331 0.30854
 C488 C 0.74743 0.55615 0.32675
 N489 N 0.76746 0.57177 0.31789
 N490 N 0.76418 0.59411 0.29320
 C491 C 0.73594 0.62769 0.25864
 N492 N 0.75456 0.64542 0.25995
 N493 N 0.74907 0.66988 0.25321
 C494 C 0.72476 0.67753 0.24519
 N495 N 0.70634 0.65964 0.24218
 N496 N 0.71182 0.63524 0.24875
 C497 C 0.09646 0.74979 0.89396
 N498 N 0.08275 0.77094 0.90459
 N499 N 0.06252 0.77001 0.93714
 C500 C 0.05502 0.74784 0.96017
 N501 N 0.06842 0.72646 0.94869
 N502 N 0.08888 0.72745 0.91636
 C503 C 0.12002 0.75203 0.86207
 N504 N 0.13725 0.73293 0.85974
 N505 N 0.15968 0.73647 0.83542
 C506 C 0.16568 0.75924 0.81262
 N507 N 0.14812 0.77801 0.81411
 N508 N 0.12583 0.77452 0.83837
 C509 C 0.59264 0.24721 0.37031
 N510 N 0.57728 0.26747 0.37821
 N511 N 0.55766 0.26609 0.41243
 C512 C 0.55249 0.24433 0.43987
 N513 N 0.56755 0.22382 0.43132
 N514 N 0.58737 0.22527 0.39723
 C515 C 0.61572 0.25020 0.33706
 N516 N 0.63396 0.23206 0.33574
 N517 N 0.65598 0.23638 0.31035
 C518 C 0.66057 0.25901 0.28549
 N519 N 0.64202 0.27681 0.28595
 N520 N 0.62010 0.27252 0.31122
 C521 C 0.90689 0.25183 0.86925
 N522 N 0.92226 0.23159 0.87728
 N523 N 0.94188 0.23303 0.91147
 C524 C 0.94705 0.25484 0.93872
 N525 N 0.93200 0.27534 0.93000
 N526 N 0.91218 0.27383 0.89597
 C527 C 0.88379 0.24876 0.83616
 N528 N 0.86548 0.26684 0.83497
 N529 N 0.84344 0.26243 0.80979
 C530 C 0.83888 0.23977 0.78501
 N531 N 0.85750 0.22203 0.78534
 N532 N 0.87945 0.22641 0.81041
 C533 C 0.40423 0.75346 0.39373
 N534 N 0.41962 0.73303 0.39870
 N535 N 0.43998 0.73386 0.43086
 C536 C 0.44589 0.75521 0.45909
 N537 N 0.43078 0.77589 0.45350
 N538 N 0.41023 0.77501 0.42147
 C539 C 0.38049 0.75106 0.36255
 N540 N 0.36249 0.76945 0.36348
 N541 N 0.34002 0.76568 0.33958
 C542 C 0.33473 0.74335 0.31405
 N543 N 0.35302 0.72529 0.31235
 N544 N 0.37538 0.72904 0.33610
 C545 C 0.25270 0.90769 0.13066
 N546 N 0.23242 0.92312 0.12379
 N547 N 0.23357 0.94283 0.08981
 C548 C 0.25512 0.94803 0.06162
 N549 N 0.27568 0.93291 0.06916
 N550 N 0.27446 0.91300 0.10298
 C551 C 0.24986 0.88451 0.16361
 N552 N 0.26780 0.86605 0.16352
 N553 N 0.26347 0.84395 0.18859
 C554 C 0.24105 0.83952 0.21451
 N555 N 0.22349 0.85829 0.21549
 N556 N 0.22778 0.88028 0.19055
 C557 C 0.75338 0.40311 0.60632
 N558 N 0.73303 0.41863 0.60155
 N559 N 0.73393 0.43898 0.56937
 C560 C 0.75526 0.44474 0.54091
 N561 N 0.77587 0.42951 0.54632
 N562 N 0.77492 0.40898 0.57838
 C563 C 0.75087 0.37938 0.63744
 N564 N 0.76919 0.36130 0.63639
 N565 N 0.76532 0.33883 0.66020
 C566 C 0.74297 0.33362 0.68577
 N567 N 0.72500 0.35198 0.68760
 N568 N 0.72884 0.37434 0.66393
 C569 C 0.74746 0.09554 0.10651
 N570 N 0.76799 0.08030 0.10114
 N571 N 0.76725 0.06003 0.06865
 C572 C 0.74590 0.05408 0.04048
 N573 N 0.72512 0.06904 0.04649
 N574 N 0.72591 0.08948 0.07885
 C575 C 0.74973 0.11919 0.13803
 N576 N 0.73119 0.13705 0.13739
 N577 N 0.73481 0.15948 0.16155
 C578 C 0.75711 0.16488 0.18708
 N579 N 0.77531 0.14673 0.18850
 N580 N 0.77172 0.12440 0.16447
 C581 C 0.24751 0.59391 0.63131
 N582 N 0.26773 0.57843 0.62386
 N583 N 0.26633 0.55871 0.58993
 C584 C 0.24461 0.55354 0.56235
 N585 N 0.22414 0.56871 0.57048
 N586 N 0.22559 0.58862 0.60427
 C587 C 0.25055 0.61710 0.66415
 N588 N 0.23247 0.63542 0.66500
 N589 N 0.23686 0.65752 0.68997
 C590 C 0.25948 0.66212 0.71487
 N591 N 0.27721 0.64349 0.71489
 N592 N 0.27285 0.62149 0.69004
 C593 C 0.89843 0.75895 0.22133
 N594 N 0.90599 0.73574 0.20352
 N595 N 0.92849 0.73274 0.17926
 C596 C 0.94413 0.75288 0.17178
 N597 N 0.93681 0.77587 0.19092
 N598 N 0.91445 0.77883 0.21535
 C599 C 0.87213 0.76362 0.23843
 N600 N 0.86449 0.78765 0.24906
 N601 N 0.84005 0.79306 0.25518
 C602 C 0.82219 0.77468 0.25098
 N603 N 0.82990 0.75043 0.24219
 N604 N 0.85441 0.74501 0.23588
 C605 C 0.40023 0.25499 0.71714
 N606 N 0.40725 0.23185 0.69790
 N607 N 0.42931 0.22882 0.67184
 C608 C 0.44504 0.24885 0.66395
 N609 N 0.43829 0.27176 0.68453
 N610 N 0.41636 0.27476 0.71073
 C611 C 0.37422 0.25977 0.73607
 N612 N 0.36689 0.28381 0.74764
 N613 N 0.34256 0.28937 0.75515
 C614 C 0.32452 0.27113 0.75146
 N615 N 0.33196 0.24687 0.74182
 N616 N 0.35635 0.24130 0.73411
 C617 C 0.09794 0.24499 0.21960
 N618 N 0.09108 0.26803 0.19963
 N619 N 0.06922 0.27095 0.17282
 C620 C 0.05353 0.25089 0.16484
 N621 N 0.06010 0.22808 0.18616
 N622 N 0.08184 0.22520 0.21312
 C623 C 0.12384 0.24026 0.23916
 N624 N 0.13107 0.21627 0.25144
 N625 N 0.15537 0.21066 0.25914
 C626 C 0.17348 0.22880 0.25495
 N627 N 0.16615 0.25303 0.24467
 N628 N 0.14179 0.25865 0.23677
 C629 C 0.60302 0.74051 0.72271
 N630 N 0.59564 0.76390 0.70573
 N631 N 0.57326 0.76722 0.68124
 C632 C 0.55754 0.74723 0.67268
 N633 N 0.56468 0.72404 0.69096
 N634 N 0.58693 0.72075 0.71562
 C635 C 0.62922 0.73561 0.74011
 N636 N 0.63675 0.71148 0.75000
 N637 N 0.66115 0.70595 0.75630
 C638 C 0.67909 0.72431 0.75304
 N639 N 0.67147 0.74863 0.74504
 N640 N 0.64700 0.75418 0.73856
   
