data_POSCAR
  _audit_creation_date              2014-09-24
  _audit_creation_method            'ToBaCCo'
  _symmetry_space_group_name_H-M    'P1'
  _symmetry_Int_Tables_number       1
  _symmetry_cell_setting            triclinic
  loop_
  _symmetry_equiv_pos_as_xyz
 x,y,z
_cell_length_a 30.5080
_cell_length_b 29.1720
_cell_length_c 28.0366
_cell_angle_alpha 94.644100
_cell_angle_beta 91.491400
_cell_angle_gamma 88.169400
loop_
  _atom_site_label
  _atom_site_type_symbol
  _atom_site_fract_x
  _atom_site_fract_y
  _atom_site_fract_z
N1 N 0.18533 1.27844 0.16741
 N2 N 0.15204 1.27600 0.19587
 C3 C 0.12085 1.30740 0.18488
 C4 C 0.13532 1.33052 0.14737
 C5 C 0.17667 1.31152 0.13748
 H6 H 0.08926 1.31197 0.20156
 H7 H 0.19851 1.31983 0.10989
 Cu8 Cu 0.15208 1.22921 0.24148
 Cu9 Cu 0.23664 1.23703 0.16960
 Cu10 Cu 0.22167 1.13890 0.22903
 N11 N 0.15444 1.18315 0.28798
 N12 N 0.18214 1.14772 0.28280
 C13 C 0.17459 1.11847 0.31614
 C14 C 0.14004 1.13624 0.34348
 C15 C 0.12821 1.17767 0.32488
 H16 H 0.19143 1.08552 0.31868
 H17 H 0.10136 1.20095 0.33567
 N18 N 0.26953 1.14430 0.18417
 N19 N 0.27547 1.18182 0.16206
 C20 C 0.30898 1.17402 0.13188
 C21 C 0.32493 1.12943 0.13535
 C22 C 0.29946 1.11179 0.16907
 H23 H 0.31988 1.19854 0.10815
 H24 H 0.30165 1.07722 0.18043
 H25 H 0.19613 1.18540 0.18154
 H26 H 0.22959 1.20726 0.23471
 N27 N 0.82322 0.74582 0.12567
 N28 N 0.85129 0.75098 0.16195
 C29 C 0.88333 0.71836 0.15671
 C30 C 0.87494 0.69128 0.11497
 C31 C 0.83631 0.70951 0.09616
 H32 H 0.91113 0.71502 0.18107
 H33 H 0.81937 0.69804 0.06320
 Cu34 Cu 0.84440 0.80056 0.21215
 Cu35 Cu 0.77300 0.78823 0.11926
 Cu36 Cu 0.79473 0.89570 0.17495
 N37 N 0.84673 0.85896 0.25056
 N38 N 0.82834 0.89640 0.23485
 C39 C 0.83898 0.93288 0.26478
 C40 C 0.86526 0.91755 0.30144
 C41 C 0.86934 0.87021 0.29157
 H42 H 0.82945 0.96817 0.25942
 H43 H 0.88931 0.84619 0.31079
 N44 N 0.74841 0.88516 0.12530
 N45 N 0.73912 0.84413 0.10489
 C46 C 0.70383 0.84814 0.07541
 C47 C 0.69028 0.89404 0.07781
 C48 C 0.71918 0.91634 0.10969
 H49 H 0.68858 0.81966 0.05497
 H50 H 0.71794 0.95247 0.12196
 H51 H 0.81804 0.83474 0.13971
 H52 H 0.77377 0.83129 0.18389
 N53 N 0.80883 1.25325 -0.11559
 N54 N 0.83200 1.26235 -0.15236
 C55 C 0.85600 1.29966 -0.14015
 C56 C 0.84749 1.31436 -0.09296
 C57 C 0.81749 1.28414 -0.07860
 H58 H 0.88040 1.31260 -0.16249
 H59 H 0.80488 1.28310 -0.04301
 Cu60 Cu 0.83449 1.21981 -0.20923
 Cu61 Cu 0.77346 1.19890 -0.11637
 Cu62 Cu 0.76486 1.13283 -0.22450
 N63 N 0.84627 1.16661 -0.25384
 N64 N 0.81900 1.13253 -0.26025
 C65 C 0.83533 1.10059 -0.29304
 C66 C 0.87529 1.11555 -0.30749
 C67 C 0.88102 1.15753 -0.28194
 H68 H 0.81938 1.06896 -0.30489
 H69 H 0.90858 1.17976 -0.28352
 N70 N 0.72480 1.12728 -0.17140
 N71 N 0.72881 1.15198 -0.13001
 C72 C 0.69713 1.14080 -0.10099
 C73 C 0.67219 1.10730 -0.12496
 C74 C 0.69058 1.09938 -0.16966
 H75 H 0.69219 1.15620 -0.06506
 H76 H 0.67992 1.07539 -0.19875
 H77 H 0.80376 1.15690 -0.17015
 H78 H 0.76060 1.19926 -0.18832
 N79 N 0.16839 0.70598 -0.15382
 N80 N 0.13395 0.71468 -0.18115
 C81 C 0.10273 0.68434 -0.17404
 C82 C 0.11880 0.65498 -0.14092
 C83 C 0.16053 0.66984 -0.12883
 H84 H 0.07057 0.68382 -0.19118
 H85 H 0.18293 0.65656 -0.10243
 Cu86 Cu 0.13341 0.76535 -0.22260
 Cu87 Cu 0.21944 0.74426 -0.14906
 Cu88 Cu 0.22235 0.83124 -0.22537
 N89 N 0.13655 0.81358 -0.26660
 N90 N 0.17174 0.83828 -0.26812
 C91 C 0.16503 0.86947 -0.30055
 C92 C 0.12341 0.86433 -0.32036
 C93 C 0.10617 0.82832 -0.29817
 H94 H 0.18828 0.89492 -0.30834
 H95 H 0.07392 0.81431 -0.30393
 N96 N 0.27021 0.81897 -0.17908
 N97 N 0.26837 0.78645 -0.14916
 C98 C 0.30168 0.79124 -0.11689
 C99 C 0.32586 0.82818 -0.12712
 C100 C 0.30516 0.84496 -0.16691
 H101 H 0.30623 0.77156 -0.08597
 H102 H 0.31248 0.87636 -0.18270
 H103 H 0.18932 0.80395 -0.17146
 H104 H 0.21330 0.76242 -0.21885
 C105 C 0.46332 1.03114 0.01723
 C106 C 0.49755 1.00114 0.04201
 C107 C 0.52316 0.97412 0.01142
 C108 C 0.51184 0.97954 -0.04187
 C109 C 0.49006 1.05828 -0.01578
 C110 C 0.51569 1.03161 -0.04669
 C111 C 0.43739 0.99745 -0.01607
 C112 C 0.46254 0.97043 -0.04702
 H113 H 0.50267 1.00307 0.08051
 H114 H 0.53158 0.95706 -0.06724
 H115 H 0.49114 1.09550 -0.01229
 H116 H 0.40194 0.99604 -0.01589
 C117 C 0.03819 0.46901 1.04110
 C118 C 0.06355 0.49631 1.00707
 C119 C 0.03753 0.52055 0.97709
 C120 C -0.01181 0.51563 0.98458
 C121 C 0.00821 0.50503 1.06764
 C122 C -0.01811 0.52968 1.03841
 C123 C 0.00721 0.43940 1.00901
 C124 C -0.01912 0.46359 0.97952
 H125 H 0.09884 0.49871 1.00963
 H126 H -0.03264 0.53478 0.95953
 H127 H 0.00834 0.51098 1.10630
 H128 H 0.00676 0.40231 1.00930
 C129 C 1.04592 0.03826 0.48194
 C130 C 1.01538 0.06392 0.51819
 C131 C 0.98866 0.03622 0.54038
 C132 C 0.99552 -0.01542 0.52439
 C133 C 1.07108 0.00288 0.51038
 C134 C 1.04504 -0.02515 0.53302
 C135 C 1.01577 0.00980 0.44770
 C136 C 0.98923 -0.01815 0.46968
 H137 H 1.01504 0.10096 0.52560
 H138 H 0.97371 -0.03879 0.54093
 H139 H 1.10655 0.00123 0.51365
 H140 H 1.01656 0.01075 0.40919
 C141 C 0.11109 0.36352 1.12348
 C142 C 0.12528 0.38114 1.08410
 C143 C 0.09834 0.41223 1.05554
 C144 C 0.06670 0.44110 1.07341
 H145 H 0.15644 0.36962 1.06916
 H146 H 0.10555 0.41159 1.01785
 H147 H 0.07869 0.37311 1.13645
 H148 H 0.05973 0.44313 1.11119
 C149 C -0.09683 0.65270 1.09544
 C150 C -0.10545 0.62866 1.05361
 C151 C -0.07664 0.59074 1.03284
 C152 C -0.04789 0.56680 1.05883
 H153 H -0.13378 0.63816 1.03215
 H154 H -0.08086 0.58191 0.99490
 H155 H -0.06738 0.64523 1.11603
 H156 H -0.04615 0.57391 1.09729
 C157 C -0.12858 0.34778 0.93916
 C158 C -0.10257 0.37913 0.92360
 C159 C -0.07407 0.40573 0.95795
 C160 C -0.05159 0.44149 0.94592
 H161 H -0.10067 0.38355 0.88571
 H162 H -0.07041 0.39478 0.99395
 H163 H -0.13126 0.34514 0.97733
 H164 H -0.05716 0.45489 0.91128
 C165 C 0.09515 0.61827 0.87988
 C166 C 0.11672 0.58655 0.90427
 C167 C 0.09615 0.55114 0.93028
 C168 C 0.05437 0.55297 0.94435
 H169 H 0.15222 0.58595 0.90573
 H170 H 0.11818 0.52390 0.94105
 H171 H 0.05989 0.61769 0.87491
 H172 H 0.03191 0.57974 0.93333
 C173 C 1.11969 0.11352 0.37851
 C174 C 1.08323 0.12998 0.40053
 C175 C 1.05794 0.10316 0.43221
 C176 C 1.07493 0.06864 0.45632
 H177 H 1.06839 0.16251 0.39182
 H178 H 1.02328 0.11196 0.43498
 H179 H 1.13311 0.07990 0.38560
 H180 H 1.10968 0.06008 0.45519
 C181 C 1.10411 -0.10818 0.64581
 C182 C 1.06271 -0.11255 0.62890
 C183 C 1.04194 -0.08156 0.59496
 C184 C 1.06473 -0.05912 0.56435
 H185 H 1.04188 -0.13765 0.64241
 H186 H 1.00665 -0.07772 0.59581
 H187 H 1.12387 -0.08115 0.63430
 H188 H 1.09991 -0.06472 0.56272
 C189 C 0.88622 -0.05411 0.33689
 C190 C 0.91142 -0.06975 0.37222
 C191 C 0.93761 -0.03732 0.40317
 C192 C 0.95855 -0.04946 0.44292
 H193 H 0.91441 -0.10619 0.37712
 H194 H 0.94088 -0.00278 0.39226
 H195 H 0.88250 -0.01724 0.33456
 H196 H 0.95322 -0.08270 0.45606
 C197 C 0.90475 0.09459 0.65957
 C198 C 0.89854 0.05353 0.63545
 C199 C 0.92978 0.03205 0.60001
 C200 C 0.95709 0.05643 0.57597
 H201 H 0.87042 0.03370 0.64264
 H202 H 0.92845 -0.00479 0.59275
 H203 H 0.93426 0.11297 0.65433
 H204 H 0.95608 0.09357 0.58167
 C205 C 0.35907 1.10376 0.10711
 C206 C 0.37521 1.11920 0.06761
 C207 C 0.40630 1.09216 0.03624
 C208 C 0.43477 1.06029 0.05152
 H209 H 0.36271 1.15138 0.05520
 H210 H 0.40605 1.09947 -0.00104
 H211 H 0.36885 1.07000 0.11770
 H212 H 0.43637 1.05357 0.08894
 C213 C 0.63413 1.08632 -0.10511
 C214 C 0.61265 1.05114 -0.12757
 C215 C 0.57597 1.02934 -0.10534
 C216 C 0.54875 1.05292 -0.07486
 H217 H 0.62408 1.03551 -0.16150
 H218 H 0.57169 0.99316 -0.11505
 H219 H 0.62469 1.09967 -0.06957
 H220 H 0.55159 1.08987 -0.06886
 C221 C 0.35842 0.85109 -0.09458
 C222 C 0.38556 0.88234 -0.10822
 C223 C 0.41046 0.91068 -0.07185
 C224 C 0.44347 0.93659 -0.08299
 H225 H 0.38738 0.88895 -0.14559
 H226 H 0.40016 0.91192 -0.03501
 H227 H 0.35856 0.84338 -0.05738
 H228 H 0.45626 0.93347 -0.11883
 C229 C 0.65144 0.91582 0.05583
 C230 C 0.62497 0.89388 0.02328
 C231 C 0.58533 0.91670 0.00343
 C232 C 0.56124 0.94789 0.02993
 H233 H 0.63327 0.85915 0.00917
 H234 H 0.57528 0.90595 -0.03289
 H235 H 0.64475 0.95172 0.06705
 H236 H 0.56977 0.95482 0.06753
   
