data_POSCAR
  _audit_creation_date              2014-09-24
  _audit_creation_method            'ToBaCCo'
  _symmetry_space_group_name_H-M    'P1'
  _symmetry_Int_Tables_number       1
  _symmetry_cell_setting            triclinic
  loop_
  _symmetry_equiv_pos_as_xyz
 x,y,z
_cell_length_a 50.3167
_cell_length_b 44.0723
_cell_length_c 40.4538
_cell_angle_alpha 90.002000
_cell_angle_beta 89.849900
_cell_angle_gamma 90.075200
loop_
  _atom_site_label
  _atom_site_type_symbol
  _atom_site_fract_x
  _atom_site_fract_y
  _atom_site_fract_z
C1 C 1.20939 0.25206 0.30216
 H2 H 1.21207 0.22771 0.30252
 C3 C 1.19004 0.26543 0.32220
 H4 H 1.17780 0.25140 0.33811
 C5 C 1.22171 0.30009 0.28049
 H6 H 1.23407 0.31351 0.26424
 C7 C 1.20258 0.31439 0.30015
 H8 H 1.20018 0.33878 0.29886
 N9 N 1.22434 0.26937 0.28131
 C10 C 1.24189 0.20793 0.19972
 H11 H 1.26338 0.20875 0.19889
 C12 C 1.22803 0.18880 0.17822
 H13 H 1.23880 0.17478 0.16076
 C14 C 1.20148 0.22481 0.22375
 H15 H 1.19111 0.23902 0.24125
 C16 C 1.18690 0.20612 0.20272
 H17 H 1.16540 0.20577 0.20440
 Zn18 Zn 1.24814 0.24852 0.25296
 N19 N 1.22851 0.22483 0.22249
 C20 C 1.26884 0.19236 0.27570
 N21 N 1.26940 0.22301 0.27985
 C22 C 1.28431 0.23600 0.30406
 C23 C 1.30022 0.21807 0.32450
 C24 C 1.28439 0.17359 0.29557
 C25 C 1.25730 0.29456 0.20615
 C26 C 1.27224 0.31444 0.18656
 C27 C 1.31213 0.29524 0.21220
 C28 C 1.29647 0.27575 0.23131
 N29 N 1.26953 0.27593 0.22822
 H30 H 1.25626 0.18229 0.25712
 H31 H 1.28398 0.26037 0.30728
 H32 H 1.31231 0.22874 0.34337
 H33 H 1.28396 0.14924 0.29171
 H34 H 1.23590 0.29384 0.20369
 H35 H 1.26234 0.32920 0.16909
 H36 H 1.33355 0.29490 0.21480
 H37 H 1.30594 0.26026 0.24825
 C38 C 1.20029 0.18765 0.18010
 C39 C 1.18638 0.29683 0.32085
 C40 C 1.29992 0.31478 0.18964
 C41 C 1.30037 0.18655 0.32007
 C42 C 0.71610 -0.23640 0.30195
 H43 H 0.71617 -0.26065 0.30616
 C44 C 0.70050 -0.21753 0.32184
 H45 H 0.68834 -0.22724 0.34130
 C46 C 0.73196 -0.19397 0.27167
 H47 H 0.74459 -0.18472 0.25257
 C48 C 0.71670 -0.17433 0.29098
 H49 H 0.71732 -0.15013 0.28629
 N50 N 0.73108 -0.22446 0.27707
 C51 C 0.74265 -0.29863 0.20642
 H52 H 0.76406 -0.29820 0.20388
 C53 C 0.72761 -0.31896 0.18761
 H54 H 0.73743 -0.33433 0.17065
 C55 C 0.70356 -0.27862 0.23094
 H56 H 0.69418 -0.26249 0.24730
 C57 C 0.68780 -0.29855 0.21261
 H58 H 0.66637 -0.29789 0.21521
 Zn59 Zn 0.75209 -0.25116 0.25121
 N60 N 0.73050 -0.27917 0.22777
 C61 C 0.77759 -0.30208 0.28112
 N62 N 0.77561 -0.27129 0.28035
 C63 C 0.79081 -0.25350 0.30032
 C64 C 0.80976 -0.26651 0.32108
 C65 C 0.79630 -0.31602 0.30157
 C66 C 0.75854 -0.21274 0.19623
 C67 C 0.77244 -0.19445 0.17384
 C68 C 0.81354 -0.21099 0.19879
 C69 C 0.79892 -0.22886 0.22071
 N70 N 0.77189 -0.22882 0.21963
 H71 H 0.76500 -0.31585 0.26559
 H72 H 0.78861 -0.22910 0.29945
 H73 H 0.82221 -0.25214 0.33630
 H74 H 0.79817 -0.34050 0.30156
 H75 H 0.73706 -0.21350 0.19560
 H76 H 0.76169 -0.18099 0.15590
 H77 H 0.83503 -0.21059 0.20034
 H78 H 0.80925 -0.24242 0.23878
 C79 C 0.69992 -0.31889 0.19076
 C80 C 0.70073 -0.18623 0.31615
 C81 C 0.80017 -0.19331 0.17549
 C82 C 0.81274 -0.29803 0.32141
 C83 C 0.71428 0.26856 -0.20515
 H84 H 0.71183 0.24429 -0.20251
 C85 C 0.69861 0.28829 -0.18644
 H86 H 0.68395 0.27921 -0.16945
 C87 C 0.73650 0.31008 -0.23035
 H88 H 0.75150 0.31848 -0.24716
 C89 C 0.72121 0.33063 -0.21206
 H90 H 0.72430 0.35480 -0.21511
 N91 N 0.73254 0.27966 -0.22691
 C92 C 0.74281 0.20707 -0.29950
 H93 H 0.76421 0.20474 -0.29910
 C94 C 0.72757 0.18816 -0.31969
 H95 H 0.73721 0.17119 -0.33492
 C96 C 0.70399 0.23169 -0.27977
 H97 H 0.69486 0.24873 -0.26431
 C98 C 0.68802 0.21326 -0.29961
 H99 H 0.66663 0.21601 -0.29916
 Zn100 Zn 0.75283 0.25072 -0.25083
 N101 N 0.73083 0.22783 -0.27950
 C102 C 0.76489 0.19412 -0.22057
 N103 N 0.76889 0.22466 -0.21949
 C104 C 0.78486 0.23745 -0.19622
 C105 C 0.79884 0.21918 -0.17409
 C106 C 0.77847 0.17503 -0.19889
 C107 C 0.77203 0.28891 -0.30156
 C108 C 0.79117 0.30275 -0.32169
 C109 C 0.82532 0.27583 -0.29173
 C110 C 0.80556 0.26257 -0.27219
 N111 N 0.77951 0.26960 -0.27704
 H112 H 0.75160 0.18439 -0.23859
 H113 H 0.78739 0.26183 -0.19563
 H114 H 0.81229 0.22944 -0.15644
 H115 H 0.77588 0.15068 -0.20062
 H116 H 0.75116 0.29362 -0.30539
 H117 H 0.78496 0.31837 -0.34088
 H118 H 0.84598 0.27017 -0.28735
 H119 H 0.81115 0.24645 -0.25339
 C120 C 0.69991 0.19105 -0.31941
 C121 C 0.70202 0.31961 -0.19001
 C122 C 0.81810 0.29621 -0.31663
 C123 C 0.79592 0.18766 -0.17584
 C124 C 1.21613 -0.23517 -0.19718
 H125 H 1.21339 -0.25949 -0.19586
 C126 C 1.20219 -0.21616 -0.17568
 H127 H 1.18854 -0.22580 -0.15777
 C128 C 1.23669 -0.19271 -0.22274
 H129 H 1.25022 -0.18362 -0.24097
 C130 C 1.22316 -0.17291 -0.20170
 H131 H 1.22602 -0.14864 -0.20413
 N132 N 1.23238 -0.22316 -0.22074
 C133 C 1.23001 -0.28920 -0.30092
 H134 H 1.25092 -0.29402 -0.30427
 C135 C 1.21119 -0.30305 -0.32134
 H136 H 1.21755 -0.31885 -0.34028
 C137 C 1.19605 -0.26236 -0.27260
 H138 H 1.19019 -0.24600 -0.25413
 C139 C 1.17663 -0.27567 -0.29246
 H140 H 1.15590 -0.26992 -0.28878
 Zn141 Zn 1.24855 -0.25015 -0.25102
 N142 N 1.22215 -0.26955 -0.27685
 C143 C 1.26425 -0.30894 -0.22843
 N144 N 1.26847 -0.27848 -0.22606
 C145 C 1.28659 -0.26692 -0.20454
 C146 C 1.30186 -0.28623 -0.18495
 C147 C 1.27913 -0.32909 -0.20924
 C148 C 1.25869 -0.20830 -0.30118
 C149 C 1.27388 -0.19003 -0.32216
 C150 C 1.31351 -0.21403 -0.30100
 C151 C 1.29758 -0.23186 -0.28038
 N152 N 1.27073 -0.22821 -0.28032
 H153 H 1.24933 -0.31766 -0.24507
 H154 H 1.28921 -0.24261 -0.20274
 H155 H 1.31642 -0.27681 -0.16814
 H156 H 1.27585 -0.35330 -0.21142
 H157 H 1.23728 -0.20614 -0.30087
 H158 H 1.26419 -0.17369 -0.33809
 H159 H 1.33492 -0.21654 -0.30040
 H160 H 1.30674 -0.24823 -0.26416
 C161 C 1.18426 -0.29621 -0.31700
 C162 C 1.20545 -0.18475 -0.17836
 C163 C 1.30155 -0.19268 -0.32175
 C164 C 1.29817 -0.31760 -0.18740
 C165 C 0.25732 0.20778 0.69913
 H166 H 0.23593 0.20527 0.69965
 C167 C 0.27257 0.18971 0.67801
 H168 H 0.26295 0.17320 0.66220
 C169 C 0.29611 0.23194 0.71954
 H170 H 0.30522 0.24846 0.73566
 C171 C 0.31209 0.21435 0.69878
 H172 H 0.33348 0.21719 0.69919
 N173 N 0.26929 0.22787 0.71989
 C174 C 0.21554 0.23396 0.80405
 H175 H 0.21290 0.25827 0.80568
 C176 C 0.20170 0.21480 0.82554
 H177 H 0.18827 0.22440 0.84373
 C178 C 0.23564 0.19170 0.77769
 H179 H 0.24892 0.18275 0.75912
 C180 C 0.22221 0.17172 0.79868
 H181 H 0.22496 0.14747 0.79584
 Zn182 Zn 0.24722 0.24945 0.74970
 N183 N 0.23148 0.22214 0.78009
 C184 C 0.19435 0.26116 0.72932
 N185 N 0.22032 0.26876 0.72453
 C186 C 0.22760 0.28885 0.70059
 C187 C 0.20831 0.30277 0.68094
 C188 C 0.17448 0.27451 0.71023
 C189 C 0.28569 0.26628 0.79570
 C190 C 0.30117 0.28559 0.81511
 C191 C 0.27810 0.32843 0.79147
 C192 C 0.26301 0.30828 0.77244
 N193 N 0.26730 0.27783 0.77456
 H194 H 0.18892 0.24446 0.74764
 H195 H 0.24841 0.29401 0.69678
 H196 H 0.21422 0.31893 0.66212
 H197 H 0.15386 0.26843 0.71437
 H198 H 0.28838 0.24197 0.79732
 H199 H 0.31595 0.27616 0.83160
 H200 H 0.27476 0.35263 0.78946
 H201 H 0.24790 0.31701 0.75611
 C202 C 0.20473 0.18337 0.82242
 C203 C 0.30022 0.19278 0.67817
 C204 C 0.29743 0.31694 0.81289
 C205 C 0.18150 0.29555 0.68589
 C206 C 0.76887 0.71198 0.69819
 H207 H 0.74792 0.70754 0.69473
 C208 C 0.78760 0.69829 0.67741
 H209 H 0.78110 0.68300 0.65808
 C210 C 0.80307 0.73762 0.72724
 H211 H 0.80909 0.75343 0.74617
 C212 C 0.82240 0.72446 0.70703
 H213 H 0.84319 0.72977 0.71091
 N214 N 0.77689 0.73091 0.72284
 C215 C 0.71242 0.73197 0.79574
 H216 H 0.71014 0.75624 0.79857
 C217 C 0.69684 0.71222 0.81459
 H218 H 0.68241 0.72135 0.83185
 C219 C 0.73417 0.69050 0.76996
 H220 H 0.74897 0.68213 0.75287
 C221 C 0.71897 0.66990 0.78836
 H222 H 0.72196 0.64574 0.78506
 Zn223 Zn 0.75070 0.74984 0.74965
 N224 N 0.73040 0.72091 0.77364
 C225 C 0.70182 0.76960 0.72146
 N226 N 0.72870 0.77309 0.72146
 C227 C 0.74083 0.79369 0.70135
 C228 C 0.72572 0.81275 0.68125
 C229 C 0.68597 0.78820 0.70171
 C230 C 0.78346 0.76253 0.80380
 C231 C 0.79774 0.78060 0.82587
 C232 C 0.77732 0.82499 0.80181
 C233 C 0.76344 0.80612 0.78016
 N234 N 0.76731 0.77555 0.78091
 H235 H 0.69258 0.75269 0.73703
 H236 H 0.76226 0.79573 0.70155
 H237 H 0.73549 0.82955 0.66588
 H238 H 0.66455 0.78571 0.70232
 H239 H 0.78587 0.73814 0.80413
 H240 H 0.81131 0.77016 0.84323
 H241 H 0.77480 0.84937 0.80037
 H242 H 0.75001 0.81602 0.76245
 C243 C 0.70004 0.68088 0.81079
 C244 C 0.81461 0.70455 0.68198
 C245 C 0.79493 0.81213 0.82448
 C246 C 0.69803 0.81020 0.68174
 C247 C 0.75867 0.21264 0.19471
 H248 H 0.73718 0.21335 0.19440
 C249 C 0.77234 0.19424 0.17225
 H250 H 0.76142 0.18064 0.15458
 C251 C 0.79930 0.22901 0.21846
 H252 H 0.80981 0.24271 0.23626
 C253 C 0.81369 0.21104 0.19646
 H254 H 0.83520 0.21070 0.19771
 N255 N 0.77226 0.22888 0.21781
 C256 C 0.71723 0.23689 0.30086
 H257 H 0.71748 0.26115 0.30498
 C258 C 0.70162 0.21816 0.32094
 H259 H 0.68962 0.22799 0.34046
 C260 C 0.73265 0.19430 0.27057
 H261 H 0.74511 0.18493 0.25139
 C262 C 0.71738 0.17479 0.29008
 H263 H 0.71781 0.15058 0.28546
 Zn264 Zn 0.75289 0.25135 0.24961
 N265 N 0.73196 0.22480 0.27586
 C266 C 0.70434 0.27898 0.22999
 N267 N 0.73125 0.27941 0.22644
 C268 C 0.74331 0.29875 0.20484
 C269 C 0.72820 0.31907 0.18616
 C270 C 0.68852 0.29891 0.21181
 C271 C 0.79209 0.25345 0.29807
 C272 C 0.81153 0.26629 0.31829
 C273 C 0.79846 0.31588 0.29872
 C274 C 0.77926 0.30211 0.27881
 N275 N 0.77685 0.27135 0.27831
 H276 H 0.69502 0.26294 0.24653
 H277 H 0.76469 0.29821 0.20197
 H278 H 0.73794 0.33433 0.16898
 H279 H 0.66711 0.29833 0.21471
 H280 H 0.78957 0.22907 0.29740
 H281 H 0.82401 0.25182 0.33333
 H282 H 0.80068 0.34033 0.29848
 H283 H 0.76665 0.31597 0.26344
 C284 C 0.70161 0.18685 0.31533
 C285 C 0.80009 0.19318 0.17352
 C286 C 0.81496 0.29775 0.31828
 C287 C 0.70054 0.31912 0.18969
 C288 C 0.25784 0.70550 0.20595
 H289 H 0.23642 0.70604 0.20372
 C290 C 0.27271 0.68565 0.18628
 H291 H 0.26274 0.67074 0.16898
 C292 C 0.29712 0.72470 0.23059
 H293 H 0.30665 0.74031 0.24736
 C294 C 0.31271 0.70524 0.21139
 H295 H 0.33415 0.70574 0.21377
 N296 N 0.27016 0.72430 0.22781
 C297 C 0.21048 0.74785 0.30245
 H298 H 0.21299 0.77224 0.30261
 C299 C 0.19144 0.73435 0.32288
 H300 H 0.17926 0.74832 0.33890
 C301 C 0.22295 0.69986 0.28091
 H302 H 0.23526 0.68650 0.26457
 C303 C 0.20414 0.68543 0.30099
 H304 H 0.20193 0.66100 0.29993
 Zn305 Zn 0.24884 0.75161 0.25273
 N306 N 0.22535 0.73062 0.28148
 C307 C 0.20184 0.77502 0.22406
 N308 N 0.22887 0.77510 0.22243
 C309 C 0.24203 0.79197 0.19941
 C310 C 0.22796 0.81097 0.17803
 C311 C 0.18706 0.79359 0.20315
 C312 C 0.28532 0.76458 0.30342
 C313 C 0.30121 0.78271 0.32373
 C314 C 0.28504 0.82698 0.29480
 C315 C 0.26950 0.80802 0.27507
 N316 N 0.27022 0.77738 0.27929
 H317 H 0.19165 0.76084 0.24176
 H318 H 0.26351 0.79123 0.19829
 H319 H 0.23857 0.82496 0.16035
 H320 H 0.16558 0.79386 0.20511
 H321 H 0.28512 0.74021 0.30670
 H322 H 0.31343 0.77219 0.34255
 H323 H 0.28446 0.85131 0.29090
 H324 H 0.25679 0.81792 0.25655
 C325 C 0.18803 0.70289 0.32185
 C326 C 0.30042 0.68551 0.18906
 C327 C 0.30117 0.81422 0.31925
 C328 C 0.20024 0.81202 0.18027
 O329 O 1.03691 0.05298 0.05922
 O330 O 1.06650 0.02537 0.02811
 C331 C 1.06079 0.04528 0.05056
 O332 O 0.96270 -0.05657 0.05567
 O333 O 0.93335 -0.02732 0.02622
 C334 C 0.93891 -0.04879 0.04692
 O335 O 1.03696 -0.05353 0.05918
 O336 O 1.06658 -0.02606 0.02785
 C337 C 1.06084 -0.04589 0.05040
 O338 O 0.96275 0.05588 0.05557
 O339 O 0.93339 0.02652 0.02618
 C340 C 0.93895 0.04805 0.04682
 Zr341 Zr 0.99985 0.03778 0.04087
 O342 O 0.99646 0.03611 0.09304
 O343 O 1.00283 0.08566 0.04246
 Zr344 Zr 0.99982 -0.03842 0.04096
 O345 O 0.99644 -0.03652 0.09313
 O346 O 1.00268 -0.08629 0.04286
 O347 O 1.02372 -0.00030 0.04753
 O348 O 0.97641 -0.00033 0.04676
 O349 O 0.96341 0.05577 -0.05799
 O350 O 0.93371 0.02646 -0.02886
 C351 C 0.93951 0.04793 -0.04953
 O352 O 1.03755 -0.05357 -0.06065
 O353 O 1.06678 -0.02597 -0.02910
 C354 C 1.06132 -0.04581 -0.05169
 O355 O 0.96333 -0.05661 -0.05791
 O356 O 0.93368 -0.02729 -0.02883
 C357 C 0.93944 -0.04877 -0.04946
 O358 O 1.03765 0.05283 -0.06072
 O359 O 1.06684 0.02533 -0.02910
 C360 C 1.06141 0.04513 -0.05173
 Zr361 Zr 1.00035 0.03771 -0.04279
 O362 O 0.99757 0.03586 -0.09498
 O363 O 1.00335 0.08559 -0.04446
 Zr364 Zr 1.00028 -0.03850 -0.04269
 O365 O 0.99749 -0.03687 -0.09489
 O366 O 1.00323 -0.08639 -0.04415
 Zr367 Zr 1.03984 -0.00033 -0.00065
 Zr368 Zr 0.96019 -0.00039 -0.00115
 O369 O 0.97698 -0.00042 -0.04885
 O370 O 1.02428 -0.00039 -0.04903
 O371 O 0.97649 0.04376 -0.00111
 O372 O 1.02303 -0.04411 -0.00073
 O373 O 1.02310 0.04343 -0.00082
 O374 O 0.97643 -0.04452 -0.00100
 H375 H 0.96409 -0.00033 0.06591
 H376 H 1.03473 -0.06217 -0.00068
 H377 H 0.96490 -0.00044 -0.06816
 H378 H 1.03485 0.06148 -0.00077
 H379 H 0.98971 -0.09456 0.02689
 H380 H 0.98979 -0.09460 -0.02868
 H381 H 1.01360 -0.02655 -0.10335
 H382 H 1.01381 0.02584 -0.10342
 H383 H 0.99005 0.09381 -0.02883
 H384 H 0.98970 0.09387 0.02668
 H385 H 1.01246 0.02579 0.10166
 H386 H 1.01267 -0.02664 0.10174
 O387 O 1.04585 0.45757 0.56118
 O388 O 1.02201 0.42355 0.53001
 C389 C 1.03938 0.43026 0.55251
 O390 O 0.94988 0.54206 0.55649
 O391 O 0.97579 0.57603 0.52774
 C392 C 0.95668 0.56934 0.54807
 O393 O 0.95206 0.45770 0.55984
 O394 O 0.97640 0.42364 0.52923
 C395 C 0.95861 0.43038 0.55133
 O396 O 1.04889 0.54179 0.55743
 O397 O 1.02363 0.57587 0.52823
 C398 C 1.04239 0.56910 0.54890
 Zr399 Zr 1.03234 0.49981 0.54322
 O400 O 1.02867 0.50354 0.59526
 O401 O 1.07409 0.49680 0.54791
 Zr402 Zr 0.96583 0.49987 0.54184
 O403 O 0.96664 0.50345 0.59404
 O404 O 0.92385 0.49660 0.54260
 O405 O 0.99896 0.47239 0.54907
 O406 O 0.99909 0.52670 0.54848
 O407 O 1.04950 0.54178 0.44444
 O408 O 1.02332 0.57589 0.47249
 C409 C 1.04257 0.56911 0.45241
 O410 O 0.95371 0.45733 0.44033
 O411 O 0.97732 0.42344 0.47184
 C412 C 0.96005 0.43006 0.44921
 O413 O 0.95109 0.54167 0.44346
 O414 O 0.97619 0.57580 0.47292
 C415 C 0.95754 0.56899 0.45209
 O416 O 1.04731 0.45739 0.44190
 O417 O 1.02292 0.42348 0.47273
 C418 C 1.04074 0.43012 0.45063
 Zr419 Zr 1.03361 0.49966 0.45958
 O420 O 1.03275 0.50290 0.40734
 O421 O 1.07559 0.49640 0.45883
 Zr422 Zr 0.96711 0.49963 0.45833
 O423 O 0.97006 0.50309 0.40621
 O424 O 0.92525 0.49636 0.45487
 Zr425 Zr 0.99969 0.45408 0.50087
 Zr426 Zr 0.99986 0.54546 0.50066
 O427 O 1.00044 0.52642 0.45293
 O428 O 1.00041 0.47217 0.45256
 O429 O 1.03842 0.52667 0.50140
 O430 O 0.96145 0.47347 0.50007
 O431 O 1.03796 0.47351 0.50155
 O432 O 0.96122 0.52672 0.49993
 H433 H 0.99894 0.54081 0.56756
 H434 H 0.94552 0.46023 0.49982
 H435 H 1.00056 0.54027 0.43364
 H436 H 1.05388 0.46031 0.50186
 H437 H 0.91686 0.51210 0.52725
 H438 H 0.91768 0.50983 0.47199
 H439 H 0.97793 0.48401 0.39784
 H440 H 1.02400 0.48441 0.39875
 H441 H 1.08268 0.51259 0.47328
 H442 H 1.08181 0.50686 0.52831
 H443 H 1.02184 0.48397 0.60376
 H444 H 0.97555 0.48513 0.60275
 O445 O 0.53713 0.05424 0.55973
 O446 O 0.56679 0.02702 0.52829
 C447 C 0.56103 0.04676 0.55094
 O448 O 0.46286 -0.05495 0.55646
 O449 O 0.43344 -0.02525 0.52764
 C450 C 0.43904 -0.04686 0.54819
 O451 O 0.53702 -0.05230 0.55972
 O452 O 0.56673 -0.02504 0.52828
 C453 C 0.56093 -0.04478 0.55094
 O454 O 0.46297 0.05679 0.55653
 O455 O 0.43350 0.02703 0.52772
 C456 C 0.43913 0.04865 0.54828
 Zr457 Zr 0.50008 0.03912 0.54131
 O458 O 0.49689 0.03789 0.59351
 O459 O 0.50299 0.08703 0.54231
 Zr460 Zr 0.50001 -0.03733 0.54118
 O461 O 0.49680 -0.03655 0.59338
 O462 O 0.50291 -0.08525 0.54171
 O463 O 0.52389 0.00091 0.54791
 O464 O 0.47682 0.00088 0.54721
 O465 O 0.46340 0.05667 0.44226
 O466 O 0.43371 0.02700 0.47098
 C467 C 0.43950 0.04854 0.45037
 O468 O 0.53763 -0.05213 0.43965
 O469 O 0.56702 -0.02496 0.47145
 C470 C 0.56145 -0.04461 0.44865
 O471 O 0.46341 -0.05485 0.44217
 O472 O 0.43372 -0.02523 0.47086
 C473 C 0.43951 -0.04676 0.45023
 O474 O 0.53758 0.05407 0.43950
 O475 O 0.56696 0.02660 0.47089
 C476 C 0.56139 0.04637 0.44824
 Zr477 Zr 0.50043 0.03921 0.45795
 O478 O 0.49769 0.03864 0.40573
 O479 O 0.50344 0.08714 0.45772
 Zr480 Zr 0.50041 -0.03725 0.45787
 O481 O 0.49773 -0.03637 0.40564
 O482 O 0.50333 -0.08517 0.45729
 Zr483 Zr 0.54008 0.00099 0.49977
 Zr484 Zr 0.46035 0.00091 0.49941
 O485 O 0.47728 0.00096 0.45175
 O486 O 0.52430 0.00100 0.45150
 O487 O 0.47646 0.04515 0.49954
 O488 O 0.52330 -0.04282 0.49962
 O489 O 0.52336 0.04477 0.49970
 O490 O 0.47640 -0.04331 0.49942
 H491 H 0.46478 0.00086 0.56663
 H492 H 0.53501 -0.06088 0.49965
 H493 H 0.46545 0.00096 0.43220
 H494 H 0.53515 0.06279 0.49968
 H495 H 0.48865 -0.09331 0.52740
 H496 H 0.48893 -0.09325 0.47145
 H497 H 0.51334 -0.02512 0.39715
 H498 H 0.51294 0.02685 0.39719
 H499 H 0.48867 0.09519 0.47130
 H500 H 0.48927 0.09510 0.52724
 H501 H 0.51260 0.02698 0.60208
 H502 H 0.51220 -0.02508 0.60201
 O503 O 0.53674 0.55269 0.06005
 O504 O 0.56623 0.52591 0.02790
 C505 C 0.56060 0.54526 0.05103
 O506 O 0.46256 0.44398 0.05744
 O507 O 0.43287 0.47338 0.02866
 C508 C 0.43864 0.45204 0.04950
 O509 O 0.53677 0.44675 0.05969
 O510 O 0.56622 0.47383 0.02770
 C511 C 0.56062 0.45434 0.05071
 O512 O 0.46258 0.55538 0.05770
 O513 O 0.43294 0.52653 0.02812
 C514 C 0.43868 0.54760 0.04933
 Zr515 Zr 0.49957 0.53791 0.04166
 O516 O 0.49678 0.53713 0.09389
 O517 O 0.50247 0.58583 0.04203
 Zr518 Zr 0.49959 0.46148 0.04138
 O519 O 0.49677 0.46191 0.09362
 O520 O 0.50251 0.41356 0.04136
 O521 O 0.52347 0.49973 0.04785
 O522 O 0.47638 0.49964 0.04776
 O523 O 0.46210 0.55529 -0.05727
 O524 O 0.43266 0.52575 -0.02795
 C525 C 0.43826 0.54705 -0.04897
 O526 O 0.53652 0.44719 -0.06103
 O527 O 0.56611 0.47406 -0.02923
 C528 C 0.56041 0.45472 -0.05232
 O529 O 0.46228 0.44443 -0.05775
 O530 O 0.43276 0.47353 -0.02814
 C531 C 0.43841 0.45241 -0.04934
 O532 O 0.53638 0.55306 -0.06065
 O533 O 0.56604 0.52615 -0.02908
 C534 C 0.56029 0.54558 -0.05203
 Zr535 Zr 0.49932 0.53819 -0.04169
 O536 O 0.49628 0.53819 -0.09389
 O537 O 0.50213 0.58614 -0.04126
 Zr538 Zr 0.49941 0.46180 -0.04207
 O539 O 0.49634 0.46254 -0.09427
 O540 O 0.50237 0.41388 -0.04247
 Zr541 Zr 0.53936 0.49993 -0.00048
 Zr542 Zr 0.45957 0.49967 0.00016
 O543 O 0.47618 0.49994 -0.04771
 O544 O 0.52323 0.50009 -0.04857
 O545 O 0.47563 0.54393 0.00018
 O546 O 0.52260 0.45611 -0.00053
 O547 O 0.52257 0.54368 -0.00017
 O548 O 0.47570 0.45552 -0.00020
 H549 H 0.46447 0.49965 0.06730
 H550 H 0.53442 0.43815 -0.00070
 H551 H 0.46429 0.49995 -0.06719
 H552 H 0.53437 0.56169 -0.00020
 H553 H 0.48785 0.40560 0.02761
 H554 H 0.48773 0.40581 -0.02867
 H555 H 0.51162 0.47426 -0.10294
 H556 H 0.51121 0.52601 -0.10268
 H557 H 0.48710 0.59396 -0.02799
 H558 H 0.48814 0.59379 0.02779
 H559 H 0.51207 0.52539 0.10231
 H560 H 0.51205 0.47365 0.10215
 C561 C 1.14071 0.11345 0.07829
 C562 C 1.13324 0.14052 0.10089
 C563 C 1.15375 0.12955 0.12625
 C564 C 1.16157 0.10277 0.10396
 C565 C 1.11960 0.09406 0.09592
 C566 C 1.14009 0.08303 0.12128
 C567 C 1.11189 0.12086 0.11824
 C568 C 1.13263 0.11014 0.14382
 C569 C 1.17169 0.14989 0.14410
 C570 C 1.18532 0.16702 0.15989
 C571 C 1.09961 0.07526 0.07952
 C572 C 1.08228 0.06091 0.06627
 H573 H 1.14379 0.11454 0.05113
 H574 H 1.13063 0.16436 0.09269
 H575 H 1.18223 0.09562 0.09829
 H576 H 1.14266 0.05918 0.12947
 H577 H 1.09126 0.12808 0.12398
 H578 H 1.12950 0.10902 0.17097
 C579 C 1.11372 0.64892 0.57807
 C580 C 1.10768 0.67509 0.60265
 C581 C 1.12739 0.66100 0.62721
 C582 C 1.13373 0.63519 0.60295
 C583 C 1.09144 0.63012 0.59414
 C584 C 1.11120 0.61617 0.61873
 C585 C 1.08504 0.65592 0.61840
 C586 C 1.10509 0.64218 0.64322
 C587 C 1.14767 0.67704 0.64636
 C588 C 1.16442 0.68946 0.66276
 C589 C 1.07228 0.61096 0.57667
 C590 C 1.05776 0.59301 0.56335
 H591 H 1.11701 0.65153 0.55107
 H592 H 1.10651 0.69955 0.59626
 H593 H 1.15395 0.62680 0.59683
 H594 H 1.11246 0.59173 0.62520
 H595 H 1.06481 0.66426 0.62450
 H596 H 1.10179 0.63951 0.67021
 C597 C 0.63939 0.11693 0.58010
 C598 C 0.63115 0.14349 0.60300
 C599 C 0.65183 0.13296 0.62838
 C600 C 0.66040 0.10668 0.60578
 C601 C 0.61872 0.09662 0.59732
 C602 C 0.63939 0.08604 0.62270
 C603 C 0.61023 0.12292 0.61994
 C604 C 0.63115 0.11264 0.64556
 C605 C 0.66958 0.15358 0.64623
 C606 C 0.68363 0.17069 0.66153
 C607 C 0.59934 0.07730 0.58040
 C608 C 0.58239 0.06259 0.56680
 H609 H 0.64258 0.11843 0.55299
 H610 H 0.62793 0.16732 0.59510
 H611 H 0.68125 0.10027 0.60015
 H612 H 0.64256 0.06220 0.63059
 H613 H 0.58940 0.12939 0.62562
 H614 H 0.62792 0.11113 0.67267
 C615 C 0.63977 0.61272 0.08581
 C616 C 0.63168 0.63776 0.11073
 C617 C 0.65200 0.62515 0.13545
 C618 C 0.66042 0.60037 0.11083
 C619 C 0.61868 0.59166 0.10106
 C620 C 0.63899 0.57899 0.12576
 C621 C 0.61035 0.61647 0.12569
 C622 C 0.63091 0.60409 0.15065
 C623 C 0.66982 0.64447 0.15493
 C624 C 0.68383 0.66091 0.17118
 C625 C 0.59915 0.57387 0.08240
 C626 C 0.58209 0.56023 0.06769
 H627 H 0.64323 0.61605 0.05895
 H628 H 0.62883 0.66212 0.10475
 H629 H 0.68123 0.59397 0.10495
 H630 H 0.64180 0.55462 0.13172
 H631 H 0.58956 0.62293 0.13164
 H632 H 0.62743 0.60075 0.17752
 C633 C 0.86191 -0.12272 0.07210
 C634 C 0.86943 -0.14693 0.09821
 C635 C 0.84639 -0.13593 0.12008
 C636 C 0.83851 -0.11202 0.09428
 C637 C 0.88019 -0.09992 0.08964
 C638 C 0.85716 -0.08887 0.11150
 C639 C 0.88797 -0.12386 0.11546
 C640 C 0.86470 -0.11311 0.13754
 C641 C 0.82865 -0.15630 0.13827
 C642 C 0.81511 -0.17320 0.15454
 C643 C 0.90005 -0.08059 0.07362
 C644 C 0.91735 -0.06555 0.06114
 H645 H 0.86101 -0.12639 0.04497
 H646 H 0.87427 -0.17102 0.09292
 H647 H 0.81794 -0.10744 0.08577
 H648 H 0.85236 -0.06477 0.11677
 H649 H 0.90850 -0.12851 0.12402
 H650 H 0.86566 -0.10938 0.16466
 C651 C 0.89075 0.34699 0.58212
 C652 C 0.89649 0.32383 0.61012
 C653 C 0.87407 0.33815 0.63075
 C654 C 0.86804 0.36096 0.60308
 C655 C 0.91042 0.36919 0.59822
 C656 C 0.88796 0.38338 0.61890
 C657 C 0.91650 0.34639 0.62590
 C658 C 0.89375 0.36036 0.64679
 C659 C 0.85348 0.32199 0.64947
 C660 C 0.83645 0.30944 0.66547
 C661 C 0.92959 0.38843 0.58067
 C662 C 0.94387 0.40641 0.56687
 H663 H 0.88977 0.34164 0.55534
 H664 H 0.89972 0.29912 0.60671
 H665 H 0.84792 0.36684 0.59390
 H666 H 0.88463 0.40807 0.62238
 H667 H 0.93663 0.34056 0.63506
 H668 H 0.89474 0.36576 0.67357
 C669 C 0.36352 -0.12178 0.57596
 C670 C 0.37193 -0.14558 0.60210
 C671 C 0.34897 -0.13509 0.62438
 C672 C 0.34021 -0.11160 0.59855
 C673 C 0.38152 -0.09832 0.59291
 C674 C 0.35856 -0.08779 0.61519
 C675 C 0.39018 -0.12184 0.61875
 C676 C 0.36698 -0.11161 0.64127
 C677 C 0.33154 -0.15576 0.64268
 C678 C 0.31769 -0.17273 0.65850
 C679 C 0.40069 -0.07861 0.57612
 C680 C 0.41760 -0.06342 0.56300
 H681 H 0.36230 -0.12569 0.54890
 H682 H 0.37725 -0.16956 0.59692
 H683 H 0.31944 -0.10767 0.59045
 H684 H 0.35327 -0.06380 0.62035
 H685 H 0.41094 -0.12583 0.62691
 H686 H 0.36824 -0.10768 0.66833
 C687 C 0.38531 0.39407 0.13451
 C688 C 0.35615 0.40255 0.14257
 C689 C 0.34762 0.37021 0.13307
 C690 C 0.37652 0.36151 0.12528
 C691 C 0.38084 0.40388 0.09849
 C692 C 0.37230 0.37155 0.08900
 C693 C 0.35194 0.41266 0.10623
 C694 C 0.34308 0.37998 0.09704
 C695 C 0.32986 0.35095 0.15283
 C696 C 0.31591 0.33467 0.16946
 C697 C 0.40028 0.42201 0.07994
 C698 C 0.41725 0.43617 0.06553
 H699 H 0.40286 0.40004 0.14977
 H700 H 0.34933 0.41510 0.16481
 H701 H 0.38648 0.34030 0.13331
 H702 H 0.37912 0.35898 0.06677
 H703 H 0.34204 0.43389 0.09818
 H704 H 0.32552 0.37398 0.08184
 C705 C 0.88552 0.11483 -0.12517
 C706 C 0.85810 0.10407 -0.13787
 C707 C 0.84539 0.13247 -0.12252
 C708 C 0.87256 0.14347 -0.11006
 C709 C 0.88039 0.09786 -0.09261
 C710 C 0.86770 0.12625 -0.07723
 C711 C 0.85324 0.08680 -0.10504
 C712 C 0.84019 0.11553 -0.08995
 C713 C 0.82675 0.15202 -0.14020
 C714 C 0.81224 0.16827 -0.15585
 C715 C 0.90066 0.07918 -0.07667
 C716 C 0.91806 0.06449 -0.06408
 H717 H 0.90436 0.11433 -0.13951
 H718 H 0.85394 0.09518 -0.16300
 H719 H 0.88029 0.16699 -0.11230
 H720 H 0.87188 0.13513 -0.05209
 H721 H 0.84555 0.06327 -0.10280
 H722 H 0.82132 0.11609 -0.07568
 C723 C 0.91188 0.64411 0.37323
 C724 C 0.88454 0.63130 0.36263
 C725 C 0.87117 0.66028 0.37557
 C726 C 0.89821 0.67344 0.38593
 C727 C 0.90797 0.62977 0.40751
 C728 C 0.89464 0.65875 0.42057
 C729 C 0.88089 0.61674 0.39709
 C730 C 0.86726 0.64593 0.40985
 C731 C 0.85035 0.67603 0.35707
 C732 C 0.83314 0.68813 0.34116
 C733 C 0.92746 0.61075 0.42453
 C734 C 0.94214 0.59287 0.43765
 H735 H 0.93044 0.64322 0.35838
 H736 H 0.88016 0.62011 0.33866
 H737 H 0.90507 0.69698 0.38112
 H738 H 0.89906 0.66986 0.44456
 H739 H 0.87394 0.59322 0.40184
 H740 H 0.84869 0.64680 0.42469
 C741 C 0.36341 0.12203 0.42122
 C742 C 0.37118 0.14526 0.39410
 C743 C 0.34818 0.13358 0.37269
 C744 C 0.34006 0.11065 0.39950
 C745 C 0.38163 0.09851 0.40470
 C746 C 0.35863 0.08681 0.38329
 C747 C 0.38967 0.12147 0.37787
 C748 C 0.36641 0.11006 0.35622
 C749 C 0.33013 0.15323 0.35411
 C750 C 0.31572 0.16932 0.33809
 C751 C 0.40114 0.07958 0.42181
 C752 C 0.41814 0.06485 0.43520
 H753 H 0.36238 0.12670 0.44816
 H754 H 0.37616 0.16949 0.39834
 H755 H 0.31944 0.10647 0.40820
 H756 H 0.35368 0.06257 0.37905
 H757 H 0.41028 0.12571 0.36913
 H758 H 0.36748 0.10537 0.32929
 C759 C 0.38616 0.60833 -0.13147
 C760 C 0.35886 0.59723 -0.14426
 C761 C 0.34633 0.62698 -0.13207
 C762 C 0.37338 0.63830 -0.11954
 C763 C 0.37995 0.59404 -0.09765
 C764 C 0.36742 0.62379 -0.08547
 C765 C 0.35291 0.58264 -0.11015
 C766 C 0.34005 0.61272 -0.09826
 C767 C 0.32836 0.64598 -0.15160
 C768 C 0.31427 0.66226 -0.16788
 C769 C 0.39961 0.57637 -0.07918
 C770 C 0.41674 0.56257 -0.06484
 H771 H 0.40532 0.60635 -0.14496
 H772 H 0.35516 0.58650 -0.16865
 H773 H 0.38164 0.66138 -0.12361
 H774 H 0.37114 0.63453 -0.06108
 H775 H 0.34471 0.55954 -0.10605
 H776 H 0.32087 0.61474 -0.08482
 C777 C 1.13944 -0.11600 -0.07868
 C778 C 1.13294 -0.14019 -0.10524
 C779 C 1.15614 -0.12825 -0.12629
 C780 C 1.16299 -0.10435 -0.10002
 C781 C 1.12099 -0.09363 -0.09652
 C782 C 1.14418 -0.08164 -0.11756
 C783 C 1.11423 -0.11756 -0.12280
 C784 C 1.13768 -0.10587 -0.14409
 C785 C 1.17480 -0.14805 -0.14368
 C786 C 1.18925 -0.16470 -0.15895
 C787 C 1.10058 -0.07528 -0.08035
 C788 C 1.08300 -0.06122 -0.06724
 H789 H 1.13991 -0.11991 -0.05158
 H790 H 1.12853 -0.16447 -0.10035
 H791 H 1.18328 -0.09922 -0.09087
 H792 H 1.14853 -0.05734 -0.12242
 H793 H 1.09396 -0.12276 -0.13201
 H794 H 1.13717 -0.10196 -0.17119
 C795 C 1.10984 0.34815 0.42164
 C796 C 1.10479 0.32415 0.39426
 C797 C 1.12686 0.33884 0.37332
 C798 C 1.13222 0.36249 0.40038
 C799 C 1.08964 0.36922 0.40488
 C800 C 1.11177 0.38377 0.38390
 C801 C 1.08422 0.34559 0.37781
 C802 C 1.10666 0.35992 0.35661
 C803 C 1.14802 0.32310 0.35524
 C804 C 1.16556 0.31092 0.33986
 C805 C 1.07007 0.38822 0.42195
 C806 C 1.05557 0.40612 0.43542
 H807 H 1.11089 0.34346 0.44856
 H808 H 1.10220 0.29941 0.39832
 H809 H 1.15215 0.36932 0.40945
 H810 H 1.11446 0.40849 0.37976
 H811 H 1.06427 0.33881 0.36877
 H812 H 1.10560 0.36466 0.32970
 C813 C 0.63785 -0.11675 0.41823
 C814 C 0.62972 -0.14063 0.39202
 C815 C 0.65237 -0.12941 0.36960
 C816 C 0.66082 -0.10581 0.39551
 C817 C 0.61931 -0.09369 0.40160
 C818 C 0.64194 -0.08242 0.37919
 C819 C 0.61093 -0.11731 0.37569
 C820 C 0.63382 -0.10634 0.35301
 C821 C 0.67013 -0.14962 0.35123
 C822 C 0.68426 -0.16636 0.33555
 C823 C 0.59993 -0.07468 0.41893
 C824 C 0.58292 -0.06020 0.43274
 H825 H 0.63931 -0.12077 0.44525
 H826 H 0.62488 -0.16477 0.39709
 H827 H 0.68157 -0.10136 0.40345
 H828 H 0.64675 -0.05827 0.37414
 H829 H 0.59021 -0.12182 0.36770
 H830 H 0.63233 -0.10232 0.32599
 C831 C 0.63863 0.38649 -0.08723
 C832 C 0.63108 0.36286 -0.11394
 C833 C 0.65286 0.37585 -0.13661
 C834 C 0.66073 0.39922 -0.11018
 C835 C 0.61883 0.40888 -0.10264
 C836 C 0.64059 0.42194 -0.12529
 C837 C 0.61103 0.38548 -0.12908
 C838 C 0.63305 0.39824 -0.15200
 C839 C 0.67113 0.35666 -0.15566
 C840 C 0.68552 0.34014 -0.17135
 C841 C 0.59903 0.42642 -0.08406
 C842 C 0.58188 0.43989 -0.06926
 H843 H 0.64074 0.38185 -0.06039
 H844 H 0.62733 0.33837 -0.10948
 H845 H 0.68138 0.40467 -0.10262
 H846 H 0.64429 0.44644 -0.12973
 H847 H 0.59040 0.37999 -0.13668
 H848 H 0.63092 0.40287 -0.17884
 C849 C 1.11455 0.11569 -0.12433
 C850 C 1.13225 0.13960 -0.10706
 C851 C 1.15628 0.12769 -0.12659
 C852 C 1.13883 0.10403 -0.14410
 C853 C 1.12113 0.09302 -0.09671
 C854 C 1.14514 0.08104 -0.11622
 C855 C 1.13856 0.11667 -0.07917
 C856 C 1.16294 0.10504 -0.09898
 C857 C 1.17493 0.14754 -0.14402
 C858 C 1.18937 0.16427 -0.15929
 C859 C 1.10071 0.07464 -0.08047
 C860 C 1.08312 0.06055 -0.06732
 H861 H 1.09445 0.11986 -0.13460
 H862 H 1.12717 0.16388 -0.10347
 H863 H 1.13916 0.09907 -0.17100
 H864 H 1.15017 0.05675 -0.11980
 H865 H 1.13820 0.12163 -0.05226
 H866 H 1.18307 0.10094 -0.08877
 C867 C 1.12238 0.62539 0.41207
 C868 C 1.12594 0.62584 0.37411
 C869 C 1.12929 0.66046 0.37551
 C870 C 1.12600 0.66028 0.41328
 C871 C 1.09232 0.62989 0.40748
 C872 C 1.09558 0.66453 0.40898
 C873 C 1.09566 0.63012 0.36971
 C874 C 1.09924 0.66503 0.37085
 C875 C 1.15022 0.67633 0.35707
 C876 C 1.16752 0.68864 0.34132
 C877 C 1.07271 0.61089 0.42459
 C878 C 1.05798 0.59303 0.43782
 H879 H 1.13171 0.60892 0.42924
 H880 H 1.13862 0.61006 0.35963
 H881 H 1.13875 0.67282 0.43101
 H882 H 1.08286 0.68022 0.42348
 H883 H 1.08295 0.61759 0.35194
 H884 H 1.08997 0.68151 0.35366
 C885 C 0.64215 0.08353 0.37868
 C886 C 0.63425 0.10738 0.35234
 C887 C 0.65287 0.13044 0.36892
 C888 C 0.66110 0.10692 0.39498
 C889 C 0.61950 0.09500 0.40091
 C890 C 0.63811 0.11804 0.41752
 C891 C 0.61135 0.11854 0.37483
 C892 C 0.63021 0.14185 0.39116
 C893 C 0.67079 0.15051 0.35054
 C894 C 0.68503 0.16713 0.33482
 C895 C 0.59998 0.07616 0.41828
 C896 C 0.58290 0.06182 0.43217
 H897 H 0.64684 0.05934 0.37376
 H898 H 0.63284 0.10325 0.32533
 H899 H 0.68179 0.10242 0.40306
 H900 H 0.63949 0.12217 0.44453
 H901 H 0.59068 0.12310 0.36670
 H902 H 0.62548 0.16603 0.39610
 C903 C 0.64887 0.58915 -0.10022
 C904 C 0.65048 0.59057 -0.13851
 C905 C 0.65222 0.62534 -0.13648
 C906 C 0.65093 0.62423 -0.09853
 C907 C 0.61849 0.59192 -0.10239
 C908 C 0.62028 0.62669 -0.10041
 C909 C 0.61979 0.59304 -0.14033
 C910 C 0.62183 0.62805 -0.13858
 C911 C 0.67030 0.64472 -0.15563
 C912 C 0.68454 0.66138 -0.17142
 C913 C 0.59881 0.57420 -0.08376
 C914 C 0.58172 0.56058 -0.06894
 H915 H 0.65979 0.57294 -0.08424
 H916 H 0.66310 0.57593 -0.15441
 H917 H 0.66393 0.63728 -0.08154
 H918 H 0.60767 0.64139 -0.08454
 H919 H 0.60679 0.58001 -0.15734
 H920 H 0.61086 0.64423 -0.15453
 C921 C 0.86167 -0.12121 -0.07462
 C922 C 0.83812 -0.10944 -0.09569
 C923 C 0.84492 -0.13313 -0.12225
 C924 C 0.86812 -0.14519 -0.10147
 C925 C 0.88013 -0.09867 -0.09240
 C926 C 0.88685 -0.12238 -0.11895
 C927 C 0.85694 -0.08657 -0.11316
 C928 C 0.86340 -0.11057 -0.13996
 C929 C 0.82613 -0.15256 -0.13990
 C930 C 0.81147 -0.16867 -0.15554
 C931 C 0.90050 -0.08003 -0.07652
 C932 C 0.91796 -0.06535 -0.06398
 H933 H 0.86121 -0.12532 -0.04755
 H934 H 0.81784 -0.10439 -0.08634
 H935 H 0.87250 -0.16950 -0.09686
 H936 H 0.90711 -0.12747 -0.12836
 H937 H 0.85259 -0.06225 -0.11778
 H938 H 0.86391 -0.10642 -0.16702
 C939 C 0.91724 0.34456 0.37676
 C940 C 0.89573 0.32423 0.39325
 C941 C 0.87458 0.33888 0.37106
 C942 C 0.89572 0.35886 0.35430
 C943 C 0.91171 0.36916 0.40277
 C944 C 0.89049 0.38367 0.38053
 C945 C 0.89057 0.34919 0.41956
 C946 C 0.86913 0.36349 0.39706
 C947 C 0.85343 0.32331 0.35291
 C948 C 0.83585 0.31139 0.33743
 C949 C 0.93116 0.38814 0.41999
 C950 C 0.94549 0.40606 0.43367
 H951 H 0.93724 0.33696 0.36864
 H952 H 0.89760 0.29956 0.39828
 H953 H 0.89757 0.36273 0.32728
 H954 H 0.88853 0.40831 0.37542
 H955 H 0.88873 0.34536 0.44660
 H956 H 0.84915 0.37116 0.40521
 C957 C 0.37981 -0.13150 0.40884
 C958 C 0.34912 -0.12876 0.40975
 C959 C 0.34863 -0.13229 0.37197
 C960 C 0.37903 -0.13532 0.37083
 C961 C 0.38182 -0.09696 0.40423
 C962 C 0.38129 -0.10053 0.36646
 C963 C 0.35142 -0.09387 0.40543
 C964 C 0.35061 -0.09775 0.36734
 C965 C 0.33073 -0.15211 0.35329
 C966 C 0.31643 -0.16836 0.33724
 C967 C 0.40121 -0.07791 0.42149
 C968 C 0.41815 -0.06311 0.43499
 H969 H 0.39202 -0.14517 0.42613
 H970 H 0.33570 -0.14064 0.42733
 H971 H 0.39021 -0.15256 0.35643
 H972 H 0.39469 -0.08870 0.34883
 H973 H 0.34029 -0.07661 0.41985
 H974 H 0.33840 -0.08411 0.35004
 C975 C 0.35893 0.41834 -0.12142
 C976 C 0.36664 0.39416 -0.14754
 C977 C 0.34618 0.37232 -0.13226
 C978 C 0.33815 0.39620 -0.10642
 C979 C 0.38003 0.40525 -0.09803
 C980 C 0.35959 0.38343 -0.08272
 C981 C 0.38799 0.38136 -0.12389
 C982 C 0.36730 0.35928 -0.10886
 C983 C 0.32803 0.35334 -0.15166
 C984 C 0.31376 0.33709 -0.16779
 C985 C 0.39977 0.42295 -0.07961
 C986 C 0.41692 0.43680 -0.06528
 H987 H 0.35569 0.44284 -0.12635
 H988 H 0.36937 0.39838 -0.17438
 H989 H 0.31743 0.40210 -0.09948
 H990 H 0.35689 0.37921 -0.05587
 H991 H 0.40868 0.37541 -0.13088
 H992 H 0.37057 0.33480 -0.10391
 C993 C 1.11168 -0.12017 0.11999
 C994 C 1.13182 -0.14142 0.10271
 C995 C 1.15349 -0.13017 0.12641
 C996 C 1.13358 -0.10917 0.14393
 C997 C 1.11948 -0.09471 0.09588
 C998 C 1.14113 -0.08341 0.11959
 C999 C 1.13937 -0.11570 0.07831
 C1000 C 1.16139 -0.10475 0.10233
 C1001 C 1.17140 -0.15045 0.14432
 C1002 C 1.18510 -0.16748 0.16011
 C1003 C 1.09959 -0.07589 0.07937
 C1004 C 1.08232 -0.06153 0.06608
 H1005 H 1.09104 -0.12632 0.12712
 H1006 H 1.12820 -0.16548 0.09594
 H1007 H 1.13140 -0.10671 0.17111
 H1008 H 1.14471 -0.05934 0.12632
 H1009 H 1.14151 -0.11814 0.05112
 H1010 H 1.18205 -0.09868 0.09525
 C1011 C 1.10812 0.34881 0.58330
 C1012 C 1.12955 0.36282 0.60609
 C1013 C 1.12344 0.33841 0.63211
 C1014 C 1.10229 0.32404 0.60963
 C1015 C 1.08712 0.36920 0.59966
 C1016 C 1.08094 0.34480 0.62568
 C1017 C 1.10832 0.38343 0.62218
 C1018 C 1.10244 0.35882 0.64843
 C1019 C 1.14407 0.32238 0.65070
 C1020 C 1.16118 0.30994 0.66648
 C1021 C 1.06801 0.38835 0.58209
 C1022 C 1.05386 0.40630 0.56821
 H1023 H 1.11020 0.34483 0.55632
 H1024 H 1.14973 0.37011 0.59824
 H1025 H 1.10009 0.29939 0.60467
 H1026 H 1.06074 0.33756 0.63350
 H1027 H 1.11061 0.40806 0.62721
 H1028 H 1.10035 0.36283 0.67540
 C1029 C 0.60952 -0.11795 0.62398
 C1030 C 0.62753 -0.14198 0.60737
 C1031 C 0.65070 -0.13138 0.62915
 C1032 C 0.63294 -0.10761 0.64601
 C1033 C 0.61819 -0.09477 0.59768
 C1034 C 0.64135 -0.08411 0.61945
 C1035 C 0.63594 -0.11854 0.58080
 C1036 C 0.65945 -0.10823 0.60287
 C1037 C 0.66813 -0.15214 0.64721
 C1038 C 0.68195 -0.16936 0.66263
 C1039 C 0.59906 -0.07534 0.58057
 C1040 C 0.58223 -0.06058 0.56685
 H1041 H 0.58880 -0.12173 0.63252
 H1042 H 0.62201 -0.16597 0.60259
 H1043 H 0.63186 -0.10336 0.67303
 H1044 H 0.64682 -0.06010 0.62421
 H1045 H 0.63699 -0.12278 0.55377
 H1046 H 0.68019 -0.10451 0.59439
 C1047 C 0.61688 0.40257 0.13788
 C1048 C 0.62242 0.36848 0.13189
 C1049 C 0.65236 0.37484 0.13466
 C1050 C 0.64710 0.40869 0.14092
 C1051 C 0.61885 0.40812 0.10044
 C1052 C 0.64879 0.41455 0.10315
 C1053 C 0.62415 0.37426 0.09422
 C1054 C 0.65438 0.38036 0.09722
 C1055 C 0.67029 0.35562 0.15405
 C1056 C 0.68438 0.33925 0.17022
 C1057 C 0.59924 0.42581 0.08190
 C1058 C 0.58213 0.43940 0.06727
 H1059 H 0.60126 0.41190 0.15442
 H1060 H 0.61173 0.34936 0.14388
 H1061 H 0.65673 0.42265 0.16035
 H1062 H 0.65941 0.43369 0.09112
 H1063 H 0.61453 0.36027 0.07480
 H1064 H 0.67000 0.37100 0.08071
 C1065 C 0.88793 0.12519 0.11230
 C1066 C 0.86787 0.14614 0.09457
 C1067 C 0.84614 0.13542 0.11862
 C1068 C 0.86598 0.11473 0.13656
 C1069 C 0.88012 0.09928 0.08885
 C1070 C 0.85841 0.08852 0.11289
 C1071 C 0.86032 0.11994 0.07082
 C1072 C 0.83823 0.10953 0.09519
 C1073 C 0.82835 0.15588 0.13650
 C1074 C 0.81485 0.17290 0.15263
 C1075 C 0.90006 0.07990 0.07316
 C1076 C 0.91740 0.06482 0.06091
 H1077 H 0.90857 0.13142 0.11920
 H1078 H 0.87155 0.17006 0.08722
 H1079 H 0.86812 0.11283 0.16378
 H1080 H 0.85476 0.06460 0.12024
 H1081 H 0.85824 0.12180 0.04358
 H1082 H 0.81756 0.10338 0.08835
 C1083 C 0.88600 0.61640 0.61532
 C1084 C 0.89208 0.64049 0.64203
 C1085 C 0.87149 0.66156 0.62603
 C1086 C 0.86518 0.63768 0.59954
 C1087 C 0.90756 0.63056 0.59313
 C1088 C 0.88699 0.65161 0.57706
 C1089 C 0.91392 0.65444 0.61963
 C1090 C 0.89300 0.67586 0.60389
 C1091 C 0.85115 0.67769 0.64514
 C1092 C 0.83440 0.69017 0.66158
 C1093 C 0.92677 0.61133 0.57574
 C1094 C 0.94131 0.59334 0.56247
 H1095 H 0.88331 0.59175 0.61988
 H1096 H 0.89393 0.63602 0.66893
 H1097 H 0.84495 0.63091 0.59150
 H1098 H 0.88516 0.65603 0.55015
 H1099 H 0.93416 0.66116 0.62766
 H1100 H 0.89560 0.70053 0.59941
 C1101 C 0.38980 0.12657 0.61464
 C1102 C 0.36828 0.14635 0.59795
 C1103 C 0.34824 0.13589 0.62430
 C1104 C 0.36952 0.11637 0.64121
 C1105 C 0.38128 0.09964 0.59296
 C1106 C 0.36124 0.08915 0.61931
 C1107 C 0.36001 0.11913 0.57598
 C1108 C 0.33964 0.10898 0.60264
 C1109 C 0.33053 0.15628 0.64254
 C1110 C 0.31650 0.17303 0.65835
 C1111 C 0.40067 0.08018 0.57622
 C1112 C 0.41767 0.06515 0.56312
 H1113 H 0.41063 0.13359 0.61942
 H1114 H 0.37100 0.17008 0.58937
 H1115 H 0.37327 0.11548 0.66823
 H1116 H 0.35855 0.06542 0.62788
 H1117 H 0.35631 0.11999 0.54895
 H1118 H 0.31878 0.10201 0.59792
 C1119 C 0.35910 0.58352 0.12087
 C1120 C 0.36736 0.60692 0.14755
 C1121 C 0.34790 0.62991 0.13250
 C1122 C 0.33933 0.60683 0.10609
 C1123 C 0.38095 0.59603 0.09800
 C1124 C 0.36151 0.61902 0.08290
 C1125 C 0.38944 0.61914 0.12442
 C1126 C 0.36976 0.64237 0.10961
 C1127 C 0.33022 0.64927 0.15224
 C1128 C 0.31634 0.66559 0.16886
 C1129 C 0.40033 0.57779 0.07951
 C1130 C 0.41728 0.56355 0.06519
 H1131 H 0.35490 0.55912 0.12529
 H1132 H 0.36961 0.60214 0.17434
 H1133 H 0.31850 0.60198 0.09877
 H1134 H 0.35929 0.62379 0.05610
 H1135 H 0.41024 0.62405 0.13180
 H1136 H 0.37399 0.66676 0.10518
   
