data_POSCAR
  _audit_creation_date              2014-09-24
  _audit_creation_method            'ToBaCCo'
  _symmetry_space_group_name_H-M    'P1'
  _symmetry_Int_Tables_number       1
  _symmetry_cell_setting            triclinic
  loop_
  _symmetry_equiv_pos_as_xyz
 x,y,z
_cell_length_a 26.7629
_cell_length_b 25.4675
_cell_length_c 69.8043
_cell_angle_alpha 92.666000
_cell_angle_beta 90.423600
_cell_angle_gamma 117.583200
loop_
  _atom_site_label
  _atom_site_type_symbol
  _atom_site_fract_x
  _atom_site_fract_y
  _atom_site_fract_z
C1 C 0.00329 0.09751 0.51057
 H2 H 0.03569 0.12366 0.50091
 C3 C -0.01567 0.12609 0.52395
 H4 H 0.00274 0.17387 0.52413
 C5 C -0.05493 0.00445 0.52315
 H6 H -0.06853 -0.04272 0.52313
 C7 C -0.07499 0.03124 0.53682
 H8 H -0.10451 0.00425 0.54720
 N9 N -0.01602 0.03783 0.51052
 C10 C 0.03189 -0.08990 0.51292
 H11 H 0.00140 -0.11937 0.50215
 C12 C 0.04883 -0.11375 0.52773
 H13 H 0.03081 -0.16145 0.52793
 C14 C 0.08723 0.00744 0.52664
 H15 H 0.10046 0.05449 0.52641
 C16 C 0.10511 -0.01453 0.54175
 H17 H 0.13265 0.01600 0.55305
 Zn18 Zn 0.01852 0.00107 0.49535
 N19 N 0.05076 -0.03033 0.51275
 C20 C 0.12902 0.07162 0.48117
 N21 N 0.07336 0.05709 0.47995
 C22 C 0.05317 0.08038 0.46669
 C23 C 0.08942 0.12120 0.45424
 C24 C 0.16696 0.11199 0.46882
 C25 C -0.08993 -0.07512 0.47763
 C26 C -0.12625 -0.11881 0.46411
 C27 C -0.04660 -0.12982 0.45247
 C28 C -0.01207 -0.08613 0.46614
 N29 N -0.03406 -0.05994 0.47841
 H30 H 0.14397 0.05151 0.49156
 H31 H 0.00844 0.06690 0.46578
 H32 H 0.07070 0.13736 0.44382
 H33 H 0.21112 0.12283 0.46997
 H34 H -0.10632 -0.05286 0.48729
 H35 H -0.17023 -0.12928 0.46388
 H36 H -0.02773 -0.14973 0.44283
 H37 H 0.03267 -0.07256 0.46693
 C38 C 0.08534 -0.07587 0.54259
 C39 C -0.05473 0.09294 0.53756
 C40 C -0.10457 -0.14681 0.45116
 C41 C 0.14763 0.13798 0.45516
 C42 C 0.99759 -0.12860 0.13991
 H43 H 0.95262 -0.15656 0.13873
 C44 C 1.03241 -0.13988 0.12740
 H45 H 1.01353 -0.17580 0.11649
 C46 C 1.07674 -0.04792 0.15528
 H47 H 1.09420 -0.01169 0.16601
 C48 C 1.11319 -0.05772 0.14311
 H49 H 1.15784 -0.02794 0.14470
 N50 N 1.01984 -0.08146 0.15293
 C51 C 0.89483 -0.08154 0.13563
 H52 H 0.88776 -0.12617 0.13756
 C53 C 0.86542 -0.07138 0.12100
 H54 H 0.83720 -0.10821 0.11144
 C55 C 0.93819 0.02000 0.14619
 H56 H 0.96651 0.05542 0.15608
 C57 C 0.90858 0.03208 0.13183
 H58 H 0.91523 0.07704 0.13059
 Zn59 Zn 0.97039 -0.05769 0.16598
 N60 N 0.93164 -0.03604 0.14754
 C61 C 1.05381 0.05917 0.17952
 N62 N 1.01208 0.00585 0.18449
 C63 C 1.00095 -0.00586 0.20322
 C64 C 1.03319 0.03559 0.21775
 C65 C 1.08788 0.10202 0.19371
 C66 C 0.91933 -0.16985 0.18357
 C67 C 0.87946 -0.21151 0.19519
 C68 C 0.82993 -0.15262 0.19631
 C69 C 0.87044 -0.11250 0.18475
 N70 N 0.91455 -0.12105 0.17893
 H71 H 1.06219 0.06756 0.16453
 H72 H 0.96820 -0.04833 0.20707
 H73 H 1.02390 0.02409 0.23252
 H74 H 1.12167 0.14302 0.18922
 H75 H 0.95515 -0.17533 0.17888
 H76 H 0.88556 -0.24870 0.19913
 H77 H 0.79613 -0.14362 0.20117
 H78 H 0.86794 -0.07307 0.18095
 C79 C 0.87227 -0.01412 0.11888
 C80 C 1.09086 -0.10301 0.12845
 C81 C 0.83451 -0.20232 0.20211
 C82 C 1.07837 0.08984 0.21323
 C83 C 0.03776 0.99292 0.86705
 H84 H -0.00610 0.95998 0.86554
 C85 C 0.07163 0.98963 0.88163
 H86 H 0.05347 0.95359 0.89120
 C87 C 0.11349 1.08078 0.85665
 H88 H 0.12900 1.11674 0.84705
 C89 C 0.14916 1.07938 0.87125
 H90 H 0.19214 1.11437 0.87253
 N91 N 0.05891 1.03778 0.85490
 C92 C -0.03214 1.08353 0.86713
 H93 H 0.01226 1.11500 0.86748
 C94 C -0.06739 1.09069 0.88029
 H95 H -0.04912 1.12810 0.89073
 C96 C -0.10831 0.99686 0.85293
 H97 H -0.12358 0.96029 0.84224
 C98 C -0.14557 1.00210 0.86601
 H99 H -0.18928 0.96886 0.86495
 Zn100 Zn 0.00348 1.03694 0.83778
 N101 N -0.05287 1.03762 0.85373
 C102 C -0.00009 0.93165 0.82132
 N103 N -0.02351 0.96888 0.82064
 C104 C -0.06071 0.96271 0.80628
 C105 C -0.07404 0.91904 0.79145
 C106 C -0.01279 0.88691 0.80698
 C107 C 0.07143 1.11489 0.80989
 C108 C 0.08180 1.15600 0.79584
 C109 C 0.00820 1.17541 0.80877
 C110 C -0.00036 1.13461 0.82255
 N111 N 0.02982 1.10392 0.82257
 H112 H 0.03071 0.93819 0.83247
 H113 H -0.07801 0.99355 0.80588
 H114 H -0.10229 0.91632 0.77980
 H115 H 0.00870 0.86017 0.80788
 H116 H 0.09443 1.08941 0.81001
 H117 H 0.11337 1.16217 0.78533
 H118 H -0.01702 1.19849 0.80934
 H119 H -0.03364 1.12524 0.83253
 C120 C -0.12509 1.04986 0.88004
 C121 C 0.12791 1.03332 0.88406
 C122 C 0.04775 1.18445 0.79446
 C123 C -0.04919 0.88095 0.79139
 C124 C 0.36923 0.02893 0.01066
 C125 C 0.39927 0.05080 -0.00604
 C126 C 0.45433 0.05811 -0.00722
 C127 C 0.47881 0.04103 0.00759
 C128 C 0.44766 0.01844 0.02409
 C129 C 0.39311 0.01244 0.02576
 C130 C 0.53615 0.04561 0.00559
 C131 C 0.57256 0.05794 0.02177
 C132 C 0.62554 0.05991 0.01994
 C133 C 0.64399 0.05417 0.00156
 C134 C 0.60887 0.04277 -0.01475
 C135 C 0.55452 0.03660 -0.01258
 H136 H 0.32809 0.02662 0.01217
 H137 H 0.47785 0.07678 -0.01987
 H138 H 0.46511 0.00412 0.03557
 H139 H 0.55957 0.06503 0.03589
 H140 H 0.68556 0.05764 -0.00008
 H141 H 0.52682 0.02505 -0.02517
 C142 C 0.03463 0.66749 0.66742
 C143 C 0.01846 0.63338 0.68367
 C144 C 0.01657 0.57736 0.68289
 C145 C 0.03013 0.55467 0.66610
 C146 C 0.04660 0.58967 0.65007
 C147 C 0.04871 0.64578 0.65051
 C148 C 0.02495 0.49371 0.66504
 C149 C 0.00563 0.45779 0.64792
 C150 C -0.00124 0.39971 0.64681
 C151 C 0.01058 0.37692 0.66321
 C152 C 0.02912 0.41168 0.68048
 C153 C 0.03756 0.47033 0.68119
 H154 H 0.03606 0.71056 0.66799
 H155 H 0.00271 0.55069 0.69528
 H156 H 0.05815 0.57337 0.63711
 H157 H -0.00527 0.47447 0.63541
 H158 H 0.00704 0.33281 0.66256
 H159 H 0.05307 0.49726 0.69447
 C160 C 0.64093 0.58049 0.32979
 C161 C 0.61691 0.54516 0.31292
 C162 C 0.56360 0.49564 0.31336
 C163 C 0.53150 0.48432 0.33007
 C164 C 0.55593 0.52218 0.34666
 C165 C 0.61123 0.56852 0.34683
 C166 C 0.47213 0.43501 0.33008
 C167 C 0.44786 0.40899 0.34733
 C168 C 0.39074 0.36760 0.34776
 C169 C 0.35866 0.34777 0.33057
 C170 C 0.38261 0.36945 0.31299
 C171 C 0.43846 0.41474 0.31296
 H172 H 0.68249 0.61815 0.32945
 H173 H 0.54692 0.46741 0.30042
 H174 H 0.53225 0.51629 0.35957
 H175 H 0.47257 0.42165 0.36064
 H176 H 0.31473 0.31529 0.33100
 H177 H 0.45510 0.43393 0.29949
 C178 C -0.07023 0.12136 0.55386
 C179 C -0.05770 0.18111 0.55509
 C180 C -0.05888 0.21167 0.57336
 N181 N -0.04026 0.27118 0.57425
 N182 N -0.03620 0.30048 0.59098
 C183 C -0.05061 0.27132 0.60746
 N184 N -0.06996 0.21169 0.60654
 N185 N -0.07394 0.18240 0.58982
 C186 C -0.04224 0.30351 0.62623
 C187 C -0.01817 0.36529 0.62811
 H188 H -0.04272 0.20777 0.54278
 H189 H -0.05357 0.27771 0.63882
 H190 H -0.08891 0.09489 0.56604
 H191 H -0.01082 0.38986 0.61527
 C192 C 0.79606 0.76214 0.21547
 C193 C 0.79432 0.71148 0.22310
 C194 C 0.76017 0.68593 0.23993
 N195 N 0.74891 0.63096 0.24523
 N196 N 0.71987 0.60915 0.26094
 C197 C 0.70160 0.64189 0.27195
 N198 N 0.71317 0.69679 0.26668
 N199 N 0.74167 0.71830 0.25096
 C200 C 0.67226 0.62098 0.28987
 C201 C 0.64630 0.56181 0.29463
 H202 H 0.81868 0.69090 0.21724
 H203 H 0.66900 0.65384 0.29949
 H204 H 0.76627 0.77654 0.22092
 H205 H 0.64326 0.52744 0.28424
 C206 C 0.16090 0.02889 -0.09951
 C207 C 0.21655 0.06914 -0.09416
 C208 C 0.24311 0.06152 -0.07662
 N209 N 0.29873 0.09695 -0.07230
 N210 N 0.32255 0.08977 -0.05644
 C211 C 0.29149 0.04708 -0.04430
 N212 N 0.23595 0.01207 -0.04858
 N213 N 0.21226 0.01913 -0.06441
 C214 C 0.31647 0.03717 -0.02688
 C215 C 0.37426 0.06613 -0.02251
 H216 H 0.24103 0.10650 -0.10265
 H217 H 0.28834 0.00303 -0.01786
 H218 H 0.13899 -0.00857 -0.09069
 H219 H 0.40243 0.09695 -0.03243
 C220 C 0.09876 0.90119 0.55998
 C221 C 0.09000 0.84297 0.56109
 C222 C 0.09111 0.81756 0.57950
 N223 N 0.07921 0.75973 0.57979
 N224 N 0.07603 0.73471 0.59637
 C225 C 0.08457 0.76658 0.61332
 N226 N 0.09696 0.82458 0.61304
 N227 N 0.10012 0.84962 0.59644
 C228 C 0.07797 0.73859 0.63177
 C229 C 0.06257 0.67834 0.63263
 H230 H 0.07926 0.81381 0.54829
 H231 H 0.08431 0.76607 0.64475
 H232 H 0.11371 0.93077 0.57274
 H233 H 0.05986 0.65313 0.61937
 C234 C 0.11296 0.12737 0.22849
 C235 C 0.16209 0.18111 0.22697
 C236 C 0.19927 0.21055 0.24404
 N237 N 0.24400 0.26549 0.24337
 N238 N 0.27819 0.29100 0.25877
 C239 C 0.26898 0.26214 0.27531
 N240 N 0.22450 0.20735 0.27590
 N241 N 0.19037 0.18211 0.26061
 C242 C 0.30545 0.28788 0.29261
 C243 C 0.34943 0.34576 0.29465
 H244 H 0.17485 0.20112 0.21336
 H245 H 0.29667 0.25888 0.30434
 H246 H 0.10176 0.11186 0.24281
 H247 H 0.36111 0.37328 0.28242
 C248 C 0.84288 0.05857 -0.10656
 C249 C 0.78516 0.02270 -0.10397
 C250 C 0.75722 0.03587 -0.08763
 N251 N 0.70215 -0.00042 -0.08425
 N252 N 0.67790 0.01028 -0.06895
 C253 C 0.70793 0.05772 -0.05654
 N254 N 0.76266 0.09408 -0.06003
 N255 N 0.78676 0.08344 -0.07527
 C256 C 0.68419 0.06862 -0.03882
 C257 C 0.62812 0.03523 -0.03400
 H258 H 0.76020 -0.01607 -0.11328
 H259 H 0.71287 0.10388 -0.02887
 H260 H 0.86402 0.09678 -0.09654
 H261 H 0.59776 0.00400 -0.04456
 C262 C 0.12558 -0.10930 0.11290
 C263 C 0.18443 -0.07850 0.11290
 C264 C 0.21574 -0.07302 0.09520
 N265 N 0.27290 -0.04210 0.09574
 N266 N 0.30148 -0.03247 0.07961
 C267 C 0.27389 -0.05327 0.06233
 N268 N 0.21680 -0.08460 0.06181
 N269 N 0.18826 -0.09432 0.07793
 C270 C 0.30415 -0.03914 0.04425
 C271 C 0.36287 -0.00880 0.04372
 H272 H 0.20844 -0.05470 0.12577
 H273 H 0.27916 -0.05198 0.03099
 H274 H 0.10330 -0.13624 0.10015
 H275 H 0.38769 -0.00093 0.05687
 C276 C 0.86260 0.81009 0.43673
 C277 C 0.80460 0.78832 0.43317
 C278 C 0.77534 0.74608 0.41675
 N279 N 0.71890 0.72448 0.41366
 N280 N 0.69256 0.68745 0.39855
 C281 C 0.72181 0.67077 0.38597
 N282 N 0.77811 0.69228 0.38909
 N283 N 0.80434 0.72914 0.40418
 C284 C 0.69457 0.63173 0.36881
 C285 C 0.63664 0.60539 0.36475
 H286 H 0.77976 0.80235 0.44212
 H287 H 0.72159 0.62314 0.35908
 H288 H 0.88433 0.79275 0.42738
 H289 H 0.60904 0.60962 0.37530
 C290 C 0.05176 0.21790 0.77848
 C291 C 0.00830 0.23019 0.77260
 C292 C 0.00807 0.25657 0.75438
 N293 N -0.04195 0.24096 0.74513
 N294 N -0.04392 0.26426 0.72865
 C295 C 0.00399 0.30495 0.72099
 N296 N 0.05425 0.32107 0.73028
 N297 N 0.05630 0.29701 0.74667
 C298 C 0.00027 0.32963 0.70278
 C299 C 0.03850 0.38661 0.69799
 H300 H -0.03103 0.21250 0.77999
 H301 H -0.03697 0.30414 0.69365
 H302 H 0.08674 0.22862 0.76903
 H303 H 0.07173 0.41520 0.70823
 C304 C 0.84280 -0.00490 0.10244
 C305 C 0.82543 0.03894 0.10199
 C306 C 0.79282 0.04129 0.08522
 N307 N 0.76538 0.07480 0.08599
 N308 N 0.73433 0.07490 0.07093
 C309 C 0.72987 0.04157 0.05460
 N310 N 0.75776 0.00875 0.05381
 N311 N 0.78850 0.00851 0.06881
 C312 C 0.69585 0.03966 0.03774
 C313 C 0.66057 0.06631 0.03731
 H314 H 0.83288 0.06932 0.11431
 H315 H 0.69689 0.01318 0.02531
 H316 H 0.83078 -0.03739 0.09045
 H317 H 0.65523 0.08798 0.05028
 C318 C 0.18643 0.17786 0.44265
 C319 C 0.17320 0.21057 0.42981
 C320 C 0.21163 0.24600 0.41514
 N321 N 0.19343 0.27330 0.40271
 N322 N 0.22561 0.30293 0.38855
 C323 C 0.27738 0.30666 0.38629
 N324 N 0.29608 0.27984 0.39882
 N325 N 0.26372 0.24997 0.41301
 C326 C 0.30962 0.33588 0.36959
 C327 C 0.36429 0.34505 0.36619
 H328 H 0.13278 0.21031 0.42996
 H329 H 0.28847 0.34970 0.35919
 H330 H 0.22921 0.18366 0.44295
 H331 H 0.38833 0.33727 0.37724
 C332 C -0.05820 0.84190 0.77523
 C333 C -0.03776 0.80028 0.77371
 C334 C -0.03612 0.77067 0.75528
 N335 N -0.01642 0.73023 0.75489
 N336 N -0.01064 0.70600 0.73828
 C337 C -0.02415 0.72149 0.72139
 N338 N -0.04418 0.76171 0.72178
 N339 N -0.05004 0.78590 0.73841
 C340 C -0.01513 0.69740 0.70290
 C341 C 0.00474 0.65542 0.70186
 H342 H -0.02037 0.78979 0.78609
 H343 H -0.02414 0.71349 0.68992
 H344 H -0.08076 0.84572 0.76285
 H345 H 0.00930 0.63664 0.71497
   
