data_POSCAR
  _audit_creation_date              2014-09-24
  _audit_creation_method            'ToBaCCo'
  _symmetry_space_group_name_H-M    'P1'
  _symmetry_Int_Tables_number       1
  _symmetry_cell_setting            triclinic
  loop_
  _symmetry_equiv_pos_as_xyz
 x,y,z
_cell_length_a 51.5963
_cell_length_b 51.7200
_cell_length_c 52.2815
_cell_angle_alpha 90.155000
_cell_angle_beta 89.978600
_cell_angle_gamma 90.007400
loop_
  _atom_site_label
  _atom_site_type_symbol
  _atom_site_fract_x
  _atom_site_fract_y
  _atom_site_fract_z
O1 O 0.34837 0.31376 -0.02742
 O2 O 0.31486 0.34612 0.02505
 O3 O 0.34921 0.31034 0.02185
 O4 O 0.31344 0.34909 -0.02415
 O5 O 0.28204 0.32013 -0.02560
 O6 O 0.31910 0.27999 0.02080
 O7 O 0.28361 0.31692 0.02415
 O8 O 0.31813 0.28358 -0.02906
 Cu9 Cu 0.33449 0.33272 -0.00107
 Cu10 Cu 0.29758 0.29708 -0.00260
 C11 C 0.33936 0.29313 -0.03705
 C12 C 0.29352 0.33743 0.03344
 C13 C 0.34061 0.28861 0.02911
 C14 C 0.29156 0.34172 -0.03248
 O15 O 0.68717 0.65279 0.02322
 O16 O 0.65097 0.68765 -0.02569
 O17 O 0.68516 0.65177 -0.02610
 O18 O 0.65219 0.68837 0.02371
 O19 O 0.68217 0.71882 0.02242
 O20 O 0.71668 0.68060 -0.02761
 O21 O 0.68141 0.71763 -0.02755
 O22 O 0.71836 0.68202 0.02224
 Cu23 Cu 0.66585 0.66726 -0.00100
 Cu24 Cu 0.70281 0.70284 -0.00269
 C25 C 0.70898 0.66104 0.03086
 C26 C 0.65980 0.70849 -0.03498
 C27 C 0.70654 0.65951 -0.03526
 C28 C 0.66104 0.70989 0.03134
 O29 O 0.65125 0.31236 1.02544
 O30 O 0.68686 0.34731 0.97615
 O31 O 0.65189 0.31172 0.97602
 O32 O 0.68539 0.34828 1.02548
 O33 O 0.71694 0.31947 1.02660
 O34 O 0.68192 0.28130 0.97688
 O35 O 0.71808 0.31811 0.97674
 O36 O 0.68171 0.28238 1.02688
 Cu37 Cu 0.66582 0.33280 1.00060
 Cu38 Cu 0.70282 0.29725 1.00180
 C39 C 0.66019 0.29151 1.03459
 C40 C 0.70860 0.33910 0.96826
 C41 C 0.66068 0.29024 0.96822
 C42 C 0.70687 0.34055 1.03438
 O43 O 0.34856 0.68626 1.02747
 O44 O 0.31450 0.65382 0.97540
 O45 O 0.34880 0.68970 0.97818
 O46 O 0.31365 0.65084 1.02462
 O47 O 0.28220 0.67973 1.02643
 O48 O 0.31865 0.71999 0.97965
 O49 O 0.28322 0.68296 0.97667
 O50 O 0.31825 0.71635 1.02951
 Cu51 Cu 0.33441 0.66727 1.00129
 Cu52 Cu 0.29743 0.70282 1.00327
 C53 C 0.33960 0.70685 1.03723
 C54 C 0.29306 0.66246 0.96727
 C55 C 0.34007 0.71142 0.97106
 C56 C 0.29185 0.65815 1.03320
 O57 O -0.02493 0.34537 0.30847
 O58 O 0.02445 0.31032 0.34408
 O59 O 0.02504 0.34447 0.30848
 O60 O -0.02540 0.31137 0.34419
 O61 O -0.02605 0.27945 0.31609
 O62 O 0.02452 0.31419 0.27860
 O63 O 0.02432 0.27880 0.31547
 O64 O -0.02605 0.31477 0.27894
 Cu65 Cu -0.00016 0.33094 0.32911
 Cu66 Cu -0.00091 0.29362 0.29424
 C67 C -0.03375 0.33645 0.28762
 C68 C 0.03259 0.28855 0.33630
 C69 C 0.03318 0.33546 0.28741
 C70 C -0.03396 0.28960 0.33688
 O71 O 0.02598 0.68939 0.65601
 O72 O -0.02405 0.65433 0.69080
 O73 O -0.02383 0.68830 0.65501
 O74 O 0.02593 0.65527 0.69163
 O75 O 0.02491 0.68561 0.72143
 O76 O -0.02515 0.72017 0.68317
 O77 O -0.02565 0.68492 0.72033
 O78 O 0.02519 0.72099 0.68451
 Cu79 Cu 0.00111 0.66876 0.67056
 Cu80 Cu -0.00032 0.70610 0.70539
 C81 C 0.03386 0.71122 0.66385
 C82 C -0.03321 0.66323 0.71152
 C83 C -0.03260 0.71003 0.66220
 C84 C 0.03373 0.66434 0.71279
 O85 O 0.97507 0.68152 0.35204
 O86 O 1.02498 0.64614 0.31684
 O87 O 1.02519 0.68052 0.35248
 O88 O 0.97481 0.64689 0.31667
 O89 O 0.97536 0.67704 0.28683
 O90 O 1.02603 0.71190 0.32395
 O91 O 1.02609 0.67651 0.28724
 O92 O 0.97543 0.71263 0.32317
 Cu93 Cu 0.99995 0.66074 0.33736
 Cu94 Cu 1.00083 0.69766 0.30228
 C95 C 0.96678 0.70306 0.34387
 C96 C 1.03401 0.65503 0.29609
 C97 C 1.03406 0.70199 0.34474
 C98 C 0.96653 0.65592 0.29570
 O99 O 0.97581 0.31871 0.64719
 O100 O 1.02526 0.35398 0.68313
 O101 O 1.02593 0.31967 0.64742
 O102 O 0.97507 0.35326 0.68264
 O103 O 0.97521 0.32307 0.71245
 O104 O 1.02626 0.28818 0.67584
 O105 O 1.02595 0.32351 0.71265
 O106 O 0.97566 0.28758 0.67604
 Cu107 Cu 1.00051 0.33944 0.66225
 Cu108 Cu 1.00083 0.30245 0.69726
 C109 C 0.96734 0.29719 0.65523
 C110 C 1.03400 0.34501 0.70397
 C111 C 1.03460 0.29814 0.65518
 C112 C 0.96651 0.34421 0.70350
 O113 O 0.34763 0.02583 0.31355
 O114 O 0.31221 -0.02417 0.34809
 O115 O 0.34751 -0.02409 0.31311
 O116 O 0.31309 0.02575 0.34877
 O117 O 0.28202 0.02665 0.31972
 O118 O 0.31765 -0.02379 0.28284
 O119 O 0.28116 -0.02388 0.31902
 O120 O 0.31756 0.02664 0.28348
 Cu121 Cu 0.33310 0.00069 0.33378
 Cu122 Cu 0.29644 0.00135 0.29823
 C123 C 0.33888 0.03474 0.29270
 C124 C 0.29058 -0.03231 0.33987
 C125 C 0.33897 -0.03218 0.29182
 C126 C 0.29180 0.03471 0.34061
 O127 O 0.65341 0.02667 0.68530
 O128 O 0.68692 -0.02625 0.65311
 O129 O 0.65229 -0.02310 0.68832
 O130 O 0.68874 0.02361 0.65070
 O131 O 0.71972 0.02476 0.67983
 O132 O 0.68219 -0.02254 0.71855
 O133 O 0.71796 -0.02569 0.68220
 O134 O 0.68329 0.02779 0.71554
 Cu135 Cu 0.66737 0.00015 0.66644
 Cu136 Cu 0.70394 0.00117 0.70206
 C137 C 0.66221 0.03608 0.70595
 C138 C 0.70813 -0.03490 0.66179
 C139 C 0.66065 -0.03065 0.70984
 C140 C 0.71041 0.03205 0.65851
 O141 O 0.31259 1.02415 0.65091
 O142 O 0.34810 0.97438 0.68565
 O143 O 0.31367 0.97425 0.65032
 O144 O 0.34779 1.02430 0.68596
 O145 O 0.31786 1.02392 0.71617
 O146 O 0.28251 0.97331 0.67929
 O147 O 0.31792 0.97349 0.71563
 O148 O 0.28147 1.02382 0.67993
 Cu149 Cu 0.33354 0.99942 0.66531
 Cu150 Cu 0.29677 0.99869 0.70078
 C151 C 0.29090 1.03224 0.65907
 C152 C 0.33932 0.96548 0.70650
 C153 C 0.29237 0.96525 0.65843
 C154 C 0.33917 1.03238 0.70721
 O155 O 0.65179 0.97321 0.31642
 O156 O 0.68430 1.02602 0.34969
 O157 O 0.65043 1.02304 0.31380
 O158 O 0.68648 0.97622 0.35167
 O159 O 0.71786 0.97533 0.32293
 O160 O 0.68105 1.02314 0.28425
 O161 O 0.71611 1.02571 0.32143
 O162 O 0.68212 0.97273 0.28659
 Cu163 Cu 0.66521 0.99965 0.33573
 Cu164 Cu 0.70247 0.99921 0.30080
 C165 C 0.66097 0.96413 0.29579
 C166 C 0.70584 1.03467 0.34176
 C167 C 0.65926 1.03098 0.29259
 C168 C 0.70830 0.96791 0.34409
 C169 C 0.88455 0.78558 0.49975
 C170 C 0.87387 0.79487 0.47707
 C171 C 0.85685 0.81596 0.47791
 C172 C 0.85083 0.82839 0.50145
 C173 C 0.86342 0.81940 0.52388
 C174 C 0.87929 0.79739 0.52325
 C175 C 0.82993 0.84880 0.50295
 C176 C 0.81761 0.85467 0.52656
 C177 C 0.79625 0.87133 0.52763
 C178 C 0.78647 0.88176 0.50504
 C179 C 0.79820 0.87671 0.48145
 C180 C 0.82046 0.86113 0.48058
 H181 H 0.89738 0.76900 0.49900
 H182 H 0.84761 0.82142 0.46023
 H183 H 0.86049 0.82868 0.54215
 H184 H 0.82337 0.84561 0.54422
 H185 H 0.76970 0.89436 0.50594
 H186 H 0.82958 0.85822 0.46223
 C187 C 0.11576 0.21470 0.49961
 C188 C 0.12110 0.20185 0.47669
 C189 C 0.13645 0.17948 0.47713
 C190 C 0.14857 0.17117 0.50009
 C191 C 0.14241 0.18458 0.52302
 C192 C 0.12582 0.20601 0.52283
 C193 C 0.16932 0.15055 0.49973
 C194 C 0.17845 0.13906 0.52270
 C195 C 0.20079 0.12357 0.52271
 C196 C 0.21288 0.11768 0.49951
 C197 C 0.20340 0.12722 0.47641
 C198 C 0.18200 0.14384 0.47656
 H199 H 0.10330 0.23157 0.49942
 H200 H 0.13947 0.16948 0.45925
 H201 H 0.15125 0.17960 0.54104
 H202 H 0.16909 0.14265 0.54082
 H203 H 0.22973 0.10515 0.49939
 H204 H 0.17651 0.15226 0.45852
 C205 C 0.11605 0.78515 0.50048
 C206 C 0.12162 0.79807 0.52330
 C207 C 0.13695 0.82045 0.52265
 C208 C 0.14886 0.82870 0.49955
 C209 C 0.14245 0.81525 0.47671
 C210 C 0.12584 0.79382 0.47713
 C211 C 0.16964 0.84929 0.49967
 C212 C 0.17866 0.86066 0.47660
 C213 C 0.20103 0.87613 0.47638
 C214 C 0.21326 0.88211 0.49948
 C215 C 0.20389 0.87269 0.52268
 C216 C 0.18248 0.85609 0.52273
 H217 H 0.10360 0.76827 0.50087
 H218 H 0.14012 0.83049 0.54048
 H219 H 0.15109 0.82020 0.45859
 H220 H 0.16921 0.85700 0.45854
 H221 H 0.23012 0.89463 0.49943
 H222 H 0.17708 0.84776 0.54085
 C223 C 0.88384 0.21454 0.49895
 C224 C 0.87389 0.20530 0.52198
 C225 C 0.85707 0.18402 0.52171
 C226 C 0.85057 0.17135 0.49843
 C227 C 0.86248 0.18029 0.47561
 C228 C 0.87811 0.20248 0.47569
 C229 C 0.82985 0.15071 0.49764
 C230 C 0.81693 0.14455 0.47441
 C231 C 0.79567 0.12772 0.47407
 C232 C 0.78663 0.11741 0.49702
 C233 C 0.79891 0.12281 0.52023
 C234 C 0.82109 0.13851 0.52037
 H235 H 0.89653 0.23125 0.49920
 H236 H 0.84836 0.17860 0.53967
 H237 H 0.85916 0.17087 0.45748
 H238 H 0.82212 0.15354 0.45654
 H239 H 0.76993 0.10469 0.49677
 H240 H 0.83062 0.14167 0.53847
 C241 C 0.49812 0.88643 0.78919
 C242 C 0.47491 0.87637 0.79855
 C243 C 0.47531 0.86035 0.82008
 C244 C 0.49889 0.85474 0.83291
 C245 C 0.52187 0.86678 0.82387
 C246 C 0.52167 0.88160 0.80145
 C247 C 0.49983 0.83451 0.85364
 C248 C 0.52339 0.82168 0.85955
 C249 C 0.52378 0.80044 0.87609
 C250 C 0.50056 0.79138 0.88639
 C251 C 0.47705 0.80368 0.88127
 C252 C 0.47685 0.82585 0.86590
 H253 H 0.49781 0.89846 0.77224
 H254 H 0.45726 0.85144 0.82558
 H255 H 0.54023 0.86402 0.83336
 H256 H 0.54143 0.82687 0.85049
 H257 H 0.50082 0.77460 0.89878
 H258 H 0.45850 0.83536 0.86288
 C259 C 0.49800 0.11443 0.21158
 C260 C 0.47490 0.12439 0.20188
 C261 C 0.47556 0.14024 0.18023
 C262 C 0.49929 0.14578 0.16762
 C263 C 0.52217 0.13384 0.17702
 C264 C 0.52169 0.11918 0.19955
 C265 C 0.50047 0.16583 0.14673
 C266 C 0.52412 0.17852 0.14085
 C267 C 0.52471 0.19963 0.12415
 C268 C 0.50162 0.20868 0.11362
 C269 C 0.47801 0.19653 0.11870
 C270 C 0.47761 0.17449 0.13425
 H271 H 0.49747 0.10252 0.22860
 H272 H 0.45756 0.14906 0.17445
 H273 H 0.54064 0.13652 0.16771
 H274 H 0.54209 0.17335 0.15005
 H275 H 0.50206 0.22536 0.10110
 H276 H 0.45919 0.16508 0.13722
 C277 C 0.50180 0.11734 0.78468
 C278 C 0.52502 0.12734 0.79417
 C279 C 0.52451 0.14368 0.81558
 C280 C 0.50087 0.14961 0.82820
 C281 C 0.47790 0.13757 0.81908
 C282 C 0.47818 0.12243 0.79677
 C283 C 0.49990 0.16999 0.84893
 C284 C 0.47631 0.18277 0.85496
 C285 C 0.47586 0.20399 0.87165
 C286 C 0.49908 0.21314 0.88194
 C287 C 0.52263 0.20086 0.87676
 C288 C 0.52284 0.17870 0.86123
 H289 H 0.50218 0.10507 0.76784
 H290 H 0.54258 0.15251 0.82118
 H291 H 0.45950 0.14050 0.82845
 H292 H 0.45826 0.17749 0.84595
 H293 H 0.49877 0.22988 0.89446
 H294 H 0.54120 0.16919 0.85821
 C295 C 0.50199 0.88306 0.21481
 C296 C 0.52525 0.87304 0.20544
 C297 C 0.52485 0.85670 0.18403
 C298 C 0.50128 0.85077 0.17131
 C299 C 0.47826 0.86282 0.18032
 C300 C 0.47843 0.87798 0.20261
 C301 C 0.50040 0.83035 0.15062
 C302 C 0.47686 0.81750 0.14456
 C303 C 0.47650 0.79623 0.12793
 C304 C 0.49977 0.78711 0.11772
 C305 C 0.52328 0.79945 0.12292
 C306 C 0.52341 0.82166 0.13839
 H307 H 0.50229 0.89532 0.23166
 H308 H 0.54295 0.84785 0.17853
 H309 H 0.45991 0.85988 0.17086
 H310 H 0.45878 0.82277 0.15353
 H311 H 0.49955 0.77033 0.10524
 H312 H 0.54174 0.83122 0.14143
 C313 C 0.78578 0.50032 0.88319
 C314 C 0.79811 0.47699 0.87746
 C315 C 0.82038 0.47718 0.86205
 C316 C 0.82915 0.50041 0.85042
 C317 C 0.81621 0.52374 0.85695
 C318 C 0.79488 0.52374 0.87352
 C319 C 0.84973 0.50008 0.82985
 C320 C 0.86143 0.52333 0.82113
 C321 C 0.87663 0.52362 0.79888
 C322 C 0.88215 0.50033 0.78645
 C323 C 0.87253 0.47688 0.79555
 C324 C 0.85615 0.47678 0.81691
 H325 H 0.76900 0.50027 0.89568
 H326 H 0.82993 0.45894 0.85863
 H327 H 0.82144 0.54198 0.84844
 H328 H 0.85822 0.54152 0.83076
 H329 H 0.89446 0.50039 0.76964
 H330 H 0.84767 0.45850 0.82218
 C331 C 0.21407 0.49563 0.11605
 C332 C 0.20443 0.47264 0.12611
 C333 C 0.18315 0.47341 0.14268
 C334 C 0.17078 0.49715 0.14890
 C335 C 0.18026 0.52003 0.13716
 C336 C 0.20244 0.51942 0.12158
 C337 C 0.14990 0.49815 0.16915
 C338 C 0.14383 0.52158 0.18207
 C339 C 0.12715 0.52175 0.20326
 C340 C 0.11697 0.49844 0.21216
 C341 C 0.12213 0.47512 0.19966
 C342 C 0.13747 0.47519 0.17755
 H343 H 0.23075 0.49490 0.10346
 H344 H 0.17752 0.45541 0.15143
 H345 H 0.17121 0.53853 0.14053
 H346 H 0.15279 0.53967 0.17690
 H347 H 0.10454 0.49849 0.22888
 H348 H 0.14028 0.45699 0.16783
 C349 C 0.78707 0.49985 0.11493
 C350 C 0.79941 0.52317 0.12067
 C351 C 0.82172 0.52296 0.13601
 C352 C 0.83051 0.49970 0.14758
 C353 C 0.81754 0.47639 0.14104
 C354 C 0.79618 0.47642 0.12455
 C355 C 0.85108 0.50000 0.16815
 C356 C 0.86272 0.47672 0.17687
 C357 C 0.87782 0.47638 0.19917
 C358 C 0.88335 0.49966 0.21163
 C359 C 0.87381 0.52313 0.20252
 C360 C 0.85751 0.52327 0.18112
 H361 H 0.77024 0.49993 0.10251
 H362 H 0.83127 0.54119 0.13945
 H363 H 0.82277 0.45814 0.14952
 H364 H 0.85949 0.45854 0.16723
 H365 H 0.89557 0.49955 0.22849
 H366 H 0.84907 0.54157 0.17585
 C367 C 0.21278 0.50410 0.88557
 C368 C 0.20312 0.52709 0.87554
 C369 C 0.18186 0.52632 0.85898
 C370 C 0.16952 0.50257 0.85272
 C371 C 0.17901 0.47968 0.86442
 C372 C 0.20119 0.48030 0.87999
 C373 C 0.14870 0.50157 0.83241
 C374 C 0.14268 0.47814 0.81945
 C375 C 0.12614 0.47800 0.79817
 C376 C 0.11603 0.50132 0.78924
 C377 C 0.12113 0.52463 0.80178
 C378 C 0.13632 0.52453 0.82397
 H379 H 0.22946 0.50483 0.89815
 H380 H 0.17624 0.54432 0.85025
 H381 H 0.17001 0.46117 0.86101
 H382 H 0.15161 0.46005 0.82465
 H383 H 0.10372 0.50130 0.77243
 H384 H 0.13909 0.54274 0.83371
 C385 C 0.25546 0.38550 0.08553
 N386 N 0.28124 0.38784 0.08114
 N387 N 0.29338 0.37166 0.06540
 C388 C 0.28028 0.35240 0.05345
 N389 N 0.25454 0.34953 0.05826
 N390 N 0.24231 0.36587 0.07401
 C391 C 0.24204 0.40614 0.09968
 N392 N 0.21590 0.40603 0.10304
 N393 N 0.20386 0.42669 0.11281
 C394 C 0.21754 0.44820 0.11933
 N395 N 0.24366 0.44795 0.11648
 N396 N 0.25565 0.42734 0.10695
 C397 C 0.74955 0.61050 0.07842
 N398 N 0.72351 0.60868 0.07548
 N399 N 0.71069 0.62553 0.06115
 C400 C 0.72331 0.64506 0.04923
 N401 N 0.74937 0.64737 0.05254
 N402 N 0.76230 0.63032 0.06688
 C403 C 0.76324 0.58952 0.09172
 N404 N 0.78951 0.58892 0.09408
 N405 N 0.80130 0.56823 0.10406
 C406 C 0.78721 0.54740 0.11172
 N407 N 0.76103 0.54838 0.10971
 N408 N 0.74931 0.56897 0.09997
 C409 C 0.74865 0.38969 0.92029
 N410 N 0.72265 0.39154 0.92355
 N411 N 0.70997 0.37467 0.93802
 C412 C 0.72272 0.35511 0.94974
 N413 N 0.74873 0.35278 0.94610
 N414 N 0.76151 0.36984 0.93163
 C415 C 0.76220 0.41067 0.90684
 N416 N 0.78844 0.41126 0.90417
 N417 N 0.80014 0.43193 0.89407
 C418 C 0.78598 0.45278 0.88657
 N419 N 0.75982 0.45182 0.88888
 N420 N 0.74820 0.43124 0.89875
 C421 C 0.25448 0.61426 0.91568
 N422 N 0.28032 0.61196 0.91979
 N423 N 0.29260 0.62818 0.93537
 C424 C 0.27961 0.64745 0.94743
 N425 N 0.25382 0.65028 0.94289
 N426 N 0.24144 0.63390 0.92731
 C427 C 0.24094 0.59359 0.90169
 N428 N 0.21479 0.59371 0.89852
 N429 N 0.20267 0.57305 0.88886
 C430 C 0.21629 0.55152 0.88226
 N431 N 0.24243 0.55175 0.88494
 N432 N 0.25449 0.57237 0.89436
 C433 C 0.07953 0.24948 0.38845
 N434 N 0.07646 0.27548 0.38959
 N435 N 0.06245 0.28782 0.37217
 C436 C 0.05101 0.27472 0.35274
 N437 N 0.05449 0.24869 0.35111
 N438 N 0.06852 0.23625 0.36871
 C439 C 0.09232 0.23639 0.40996
 N440 N 0.09549 0.21028 0.41084
 N441 N 0.10523 0.19903 0.43175
 C442 C 0.11179 0.21351 0.45255
 N443 N 0.10890 0.23953 0.45133
 N444 N 0.09942 0.25071 0.43052
 C445 C 0.08093 0.75050 0.61197
 N446 N 0.06944 0.76374 0.63143
 N447 N 0.05541 0.75124 0.64900
 C448 C 0.05242 0.72514 0.64762
 N449 N 0.06436 0.71204 0.62849
 N450 N 0.07837 0.72444 0.61110
 C451 C 0.09359 0.76361 0.59038
 N452 N 0.10097 0.74923 0.56995
 N453 N 0.11024 0.76039 0.54903
 C454 C 0.11263 0.78645 0.54757
 N455 N 0.10579 0.80099 0.56824
 N456 N 0.09626 0.78976 0.58925
 C457 C 0.91538 0.74235 0.39202
 N458 N 0.92025 0.71678 0.39507
 N459 N 0.93596 0.70429 0.37913
 C460 C 0.94741 0.71682 0.35938
 N461 N 0.94219 0.74234 0.35588
 N462 N 0.92649 0.75492 0.37200
 C463 C 0.90086 0.75618 0.41204
 N464 N 0.89761 0.78227 0.41154
 N465 N 0.88752 0.79468 0.43166
 C466 C 0.88048 0.78141 0.45299
 N467 N 0.88316 0.75533 0.45310
 N468 N 0.89304 0.74298 0.43303
 C469 C 0.91634 0.25806 0.60656
 N470 N 0.92689 0.24555 0.62691
 N471 N 0.94249 0.25809 0.64314
 C472 C 0.94816 0.28349 0.63945
 N473 N 0.93728 0.29594 0.61937
 N474 N 0.92168 0.28350 0.60329
 C475 C 0.90180 0.24425 0.58654
 N476 N 0.89450 0.25732 0.56530
 N477 N 0.88443 0.24493 0.54536
 C478 C 0.88104 0.21893 0.54583
 N479 N 0.88759 0.20581 0.56740
 N480 N 0.89787 0.21826 0.58740
 C481 C 0.38793 0.08558 0.25409
 N482 N 0.36745 0.07482 0.24163
 N483 N 0.35095 0.05939 0.25404
 C484 C 0.35453 0.05411 0.27926
 N485 N 0.37470 0.06527 0.29168
 N486 N 0.39103 0.08071 0.27937
 C487 C 0.40851 0.09945 0.24039
 N488 N 0.43009 0.10661 0.25339
 N489 N 0.45067 0.11574 0.24111
 C490 C 0.45051 0.11826 0.21530
 N491 N 0.42862 0.11190 0.20224
 N492 N 0.40798 0.10255 0.21458
 C493 C 0.61271 0.08773 0.74317
 N494 N 0.61009 0.08252 0.71788
 N495 N 0.62670 0.06698 0.70597
 C496 C 0.64670 0.05605 0.71881
 N497 N 0.64983 0.06172 0.74403
 N498 N 0.63307 0.07727 0.75604
 C499 C 0.59176 0.10159 0.75645
 N500 N 0.59223 0.10573 0.78214
 N501 N 0.57144 0.11523 0.79416
 C502 C 0.54943 0.12069 0.78093
 N503 N 0.54929 0.11705 0.75523
 N504 N 0.57003 0.10779 0.74325
 C505 C 0.38840 0.91500 0.74548
 N506 N 0.36767 0.92553 0.75775
 N507 N 0.35118 0.94084 0.74521
 C508 C 0.35501 0.94624 0.72005
 N509 N 0.37543 0.93531 0.70781
 N510 N 0.39175 0.91998 0.72025
 C511 C 0.40892 0.90123 0.75936
 N512 N 0.43074 0.89436 0.74659
 N513 N 0.45120 0.88528 0.75908
 C514 C 0.45068 0.88252 0.78486
 N515 N 0.42856 0.88860 0.79767
 N516 N 0.40803 0.89790 0.78513
 C517 C 0.61234 0.91251 0.25745
 N518 N 0.63264 0.92345 0.24486
 N519 N 0.64915 0.93899 0.25720
 C520 C 0.64581 0.94418 0.28250
 N521 N 0.62588 0.93278 0.29506
 N522 N 0.60953 0.91724 0.28281
 C523 C 0.59160 0.89866 0.24384
 N524 N 0.56988 0.89201 0.25685
 N525 N 0.54928 0.88277 0.24463
 C526 C 0.54956 0.87961 0.21888
 N527 N 0.57157 0.88551 0.20582
 N528 N 0.59222 0.89499 0.21808
 C529 C 0.38856 0.25574 0.91139
 N530 N 0.36807 0.24278 0.92155
 N531 N 0.35140 0.25486 0.93709
 C532 C 0.35478 0.28024 0.94304
 N533 N 0.37493 0.29318 0.93243
 N534 N 0.39143 0.28120 0.91690
 C535 C 0.40940 0.24232 0.89751
 N536 N 0.43125 0.25557 0.89157
 N537 N 0.45190 0.24341 0.88226
 C538 C 0.45154 0.21748 0.87833
 N539 N 0.42941 0.20421 0.88354
 N540 N 0.40871 0.21641 0.89307
 C541 C 0.61029 0.74726 0.91499
 N542 N 0.60685 0.72189 0.92047
 N543 N 0.62329 0.70952 0.93567
 C544 C 0.64392 0.72197 0.94599
 N545 N 0.64783 0.74726 0.94011
 N546 N 0.63122 0.75974 0.92491
 C547 C 0.58971 0.76109 0.90127
 N548 N 0.59073 0.78705 0.89731
 N549 N 0.57020 0.79961 0.88795
 C550 C 0.54795 0.78664 0.88243
 N551 N 0.54730 0.76067 0.88584
 N552 N 0.56776 0.74816 0.89499
 C553 C 0.38921 0.74429 0.08836
 N554 N 0.39216 0.71888 0.08268
 N555 N 0.37555 0.70688 0.06729
 C556 C 0.35522 0.71975 0.05697
 N557 N 0.35176 0.74509 0.06309
 N558 N 0.36853 0.75719 0.07850
 C559 C 0.41009 0.75775 0.10214
 N560 N 0.40930 0.78363 0.10675
 N561 N 0.42999 0.79587 0.11623
 C562 C 0.45222 0.78267 0.12122
 N563 N 0.45268 0.75678 0.11712
 N564 N 0.43204 0.74457 0.10786
 C565 C 0.61122 0.25267 0.08512
 N566 N 0.63194 0.24014 0.07480
 N567 N 0.64840 0.25264 0.05945
 C568 C 0.64455 0.27800 0.05380
 N569 N 0.62414 0.29048 0.06451
 N570 N 0.60786 0.27809 0.07987
 C571 C 0.59072 0.23882 0.09897
 N572 N 0.56893 0.25183 0.10562
 N573 N 0.54846 0.23935 0.11480
 C574 C 0.54896 0.21334 0.11790
 N575 N 0.57106 0.20029 0.11202
 N576 N 0.59159 0.21282 0.10261
 C577 C 0.25078 0.08049 0.60888
 N578 N 0.23800 0.06932 0.62875
 N579 N 0.25081 0.05477 0.64565
 C580 C 0.27677 0.05087 0.64315
 N581 N 0.28943 0.06242 0.62356
 N582 N 0.27673 0.07697 0.60684
 C583 C 0.23714 0.09401 0.58813
 N584 N 0.25100 0.10185 0.56755
 N585 N 0.23926 0.11178 0.54725
 C586 C 0.21312 0.11441 0.54658
 N587 N 0.19912 0.10716 0.56744
 N588 N 0.21094 0.09700 0.58784
 C589 C 0.74294 0.08610 0.38916
 N590 N 0.71803 0.07899 0.39337
 N591 N 0.70596 0.06300 0.37743
 C592 C 0.71822 0.05346 0.35649
 N593 N 0.74300 0.06109 0.35175
 N594 N 0.75522 0.07704 0.36791
 C595 C 0.75661 0.10071 0.40921
 N596 N 0.78254 0.10534 0.40809
 N597 N 0.79498 0.11534 0.42824
 C598 C 0.78192 0.12088 0.45020
 N599 N 0.75597 0.11684 0.45092
 N600 N 0.74358 0.10704 0.43085
 C601 C 0.74585 0.91221 0.61420
 N602 N 0.72006 0.91671 0.61201
 N603 N 0.70805 0.93270 0.62801
 C604 C 0.72128 0.94482 0.64697
 N605 N 0.74702 0.93989 0.64969
 N606 N 0.75912 0.92389 0.63352
 C607 C 0.75912 0.89782 0.59375
 N608 N 0.78526 0.89451 0.59363
 N609 N 0.79715 0.88465 0.57310
 C610 C 0.78331 0.87796 0.55196
 N611 N 0.75718 0.88073 0.55243
 N612 N 0.74534 0.89036 0.57292
 C613 C 0.25062 0.91914 0.38995
 N614 N 0.27659 0.92257 0.39183
 N615 N 0.28924 0.93720 0.37514
 C616 C 0.27649 0.94894 0.35572
 N617 N 0.25051 0.94514 0.35336
 N618 N 0.23775 0.93050 0.37024
 C619 C 0.23706 0.90556 0.41072
 N620 N 0.21083 0.90280 0.41124
 N621 N 0.19911 0.89264 0.43171
 C622 C 0.21323 0.88518 0.45240
 N623 N 0.23938 0.88758 0.45150
 N624 N 0.25103 0.89750 0.43112
 C625 C 0.08490 0.39322 0.74401
 N626 N 0.07425 0.37238 0.75587
 N627 N 0.05872 0.35625 0.74302
 C628 C 0.05321 0.36054 0.71795
 N629 N 0.06421 0.38110 0.70614
 N630 N 0.07975 0.39707 0.71888
 C631 C 0.09927 0.41320 0.75820
 N632 N 0.10677 0.43489 0.74571
 N633 N 0.11657 0.45489 0.75844
 C634 C 0.11947 0.45404 0.78421
 N635 N 0.11273 0.43202 0.79674
 N636 N 0.10273 0.41196 0.78396
 C637 C 0.08537 0.60669 0.25678
 N638 N 0.07491 0.62751 0.24475
 N639 N 0.05923 0.64368 0.25737
 C640 C 0.05338 0.63945 0.28238
 N641 N 0.06418 0.61890 0.29437
 N642 N 0.07987 0.60289 0.28185
 C643 C 0.09989 0.58665 0.24281
 N644 N 0.10719 0.56498 0.25542
 N645 N 0.11712 0.54494 0.24285
 C646 C 0.12035 0.54574 0.21711
 N647 N 0.11382 0.56774 0.20446
 N648 N 0.10369 0.58785 0.21709
 C649 C 0.91880 0.38787 0.24791
 N650 N 0.92996 0.36773 0.23524
 N651 N 0.94413 0.35031 0.24791
 C652 C 0.94763 0.35255 0.27361
 N653 N 0.93604 0.37237 0.28616
 N654 N 0.92187 0.38959 0.27361
 C655 C 0.90593 0.40930 0.23453
 N656 N 0.89839 0.43017 0.24837
 N657 N 0.88903 0.45105 0.23693
 C658 C 0.88671 0.45204 0.21112
 N659 N 0.89368 0.43092 0.19713
 N660 N 0.90328 0.40994 0.20864
 C661 C 0.91861 0.61192 0.75055
 N662 N 0.92954 0.63210 0.76335
 N663 N 0.94395 0.64947 0.75088
 C664 C 0.94794 0.64714 0.72525
 N665 N 0.93659 0.62727 0.71256
 N666 N 0.92217 0.61010 0.72492
 C667 C 0.90544 0.59056 0.76378
 N668 N 0.89800 0.56972 0.74987
 N669 N 0.88839 0.54888 0.76122
 C670 C 0.88573 0.54793 0.78700
 N671 N 0.89260 0.56904 0.80105
 N672 N 0.90244 0.58997 0.78963
 C673 C 0.74291 0.60992 0.91498
 N674 N 0.71830 0.60562 0.92292
 N675 N 0.70650 0.62218 0.93847
 C676 C 0.71875 0.64386 0.94671
 N677 N 0.74324 0.64864 0.93828
 N678 N 0.75519 0.63185 0.92277
 C679 C 0.75628 0.58940 0.90067
 N680 N 0.78199 0.59067 0.89512
 N681 N 0.79425 0.57020 0.88521
 C682 C 0.78122 0.54778 0.88070
 N683 N 0.75545 0.54689 0.88568
 N684 N 0.74324 0.56727 0.89540
 C685 C 0.25213 0.39393 0.92315
 N686 N 0.27707 0.39799 0.93018
 N687 N 0.28978 0.38065 0.94399
 C688 C 0.27817 0.35836 0.95132
 N689 N 0.25327 0.35387 0.94388
 N690 N 0.24041 0.37145 0.93009
 C691 C 0.23837 0.41489 0.90994
 N692 N 0.21265 0.41377 0.90426
 N693 N 0.20061 0.43425 0.89414
 C694 C 0.21387 0.45654 0.88961
 N695 N 0.23957 0.45725 0.89493
 N696 N 0.25153 0.43693 0.90486
 C697 C 0.25294 0.60583 0.07792
 N698 N 0.27781 0.60181 0.07063
 N699 N 0.29036 0.61919 0.05670
 C700 C 0.27865 0.64148 0.04952
 N701 N 0.25383 0.64592 0.05723
 N702 N 0.24113 0.62831 0.07113
 C703 C 0.23932 0.58486 0.09127
 N704 N 0.21365 0.58595 0.09719
 N705 N 0.20172 0.56547 0.10742
 C706 C 0.21503 0.54318 0.11183
 N707 N 0.24069 0.54250 0.10626
 N708 N 0.25254 0.56283 0.09622
 C709 C 0.74377 0.39021 0.08366
 N710 N 0.71907 0.39448 0.07602
 N711 N 0.70710 0.37788 0.06063
 C712 C 0.71927 0.35621 0.05227
 N713 N 0.74386 0.35146 0.06041
 N714 N 0.75598 0.36828 0.07575
 C715 C 0.75729 0.41076 0.09778
 N716 N 0.78304 0.40947 0.10314
 N717 N 0.79540 0.42994 0.11291
 C718 C 0.78244 0.45240 0.11745
 N719 N 0.75664 0.45332 0.11264
 N720 N 0.74433 0.43293 0.10307
 C721 C 0.92201 0.74789 0.60996
 N722 N 0.92887 0.72284 0.60661
 N723 N 0.94278 0.71056 0.62411
 C724 C 0.95039 0.72274 0.64584
 N725 N 0.94298 0.74772 0.64967
 N726 N 0.92907 0.76014 0.63195
 C727 C 0.90917 0.76128 0.58870
 N728 N 0.90288 0.78681 0.58958
 N729 N 0.89297 0.79851 0.56900
 C730 C 0.88933 0.78512 0.54682
 N731 N 0.89537 0.75962 0.54629
 N732 N 0.90507 0.74798 0.56673
 C733 C 0.91981 0.25176 0.38845
 N734 N 0.92760 0.23935 0.36678
 N735 N 0.94176 0.25176 0.34924
 C736 C 0.94873 0.27688 0.35294
 N737 N 0.94039 0.28921 0.37432
 N738 N 0.92620 0.27696 0.39163
 C739 C 0.90682 0.23841 0.40966
 N740 N 0.90167 0.25204 0.43121
 N741 N 0.89220 0.24046 0.45179
 C742 C 0.88744 0.21469 0.45182
 N743 N 0.89204 0.20094 0.43003
 N744 N 0.90173 0.21260 0.40931
 C745 C 0.08481 0.26026 0.60710
 N746 N 0.07743 0.28497 0.60256
 N747 N 0.06176 0.29728 0.61865
 C748 C 0.05283 0.28547 0.64004
 N749 N 0.06071 0.26088 0.64504
 N750 N 0.07634 0.24843 0.62875
 C751 C 0.09915 0.24629 0.58710
 N752 N 0.10415 0.22053 0.58874
 N753 N 0.11399 0.20773 0.56873
 C754 C 0.11898 0.22024 0.54641
 N755 N 0.11458 0.24605 0.54516
 N756 N 0.10493 0.25880 0.56508
 C757 C 0.08413 0.73969 0.39308
 N758 N 0.07643 0.71510 0.39771
 N759 N 0.06079 0.70284 0.38157
 C760 C 0.05219 0.71462 0.36003
 N761 N 0.06036 0.73909 0.35496
 N762 N 0.07597 0.75148 0.37130
 C763 C 0.09855 0.75359 0.41306
 N764 N 0.10392 0.77927 0.41130
 N765 N 0.11392 0.79203 0.43124
 C766 C 0.11871 0.77957 0.45363
 N767 N 0.11392 0.75384 0.45501
 N768 N 0.10411 0.74112 0.43516
 C769 C 0.60911 0.92329 0.75107
 N770 N 0.60699 0.92605 0.72539
 N771 N 0.62413 0.93993 0.71238
 C772 C 0.64422 0.95157 0.72447
 N773 N 0.64682 0.94844 0.75017
 N774 N 0.62949 0.93454 0.76329
 C775 C 0.58795 0.91041 0.76489
 N776 N 0.58773 0.90794 0.79080
 N777 N 0.56700 0.89815 0.80271
 C778 C 0.54573 0.89082 0.78909
 N779 N 0.54632 0.89298 0.76326
 N780 N 0.56695 0.90253 0.75144
 C781 C 0.39040 0.92034 0.25183
 N782 N 0.37031 0.93160 0.23923
 N783 N 0.35290 0.94582 0.25197
 C784 C 0.35509 0.94924 0.27769
 N785 N 0.37486 0.93754 0.29017
 N786 N 0.39209 0.92335 0.27754
 C787 C 0.41180 0.90732 0.23838
 N788 N 0.43282 0.89998 0.25207
 N789 N 0.45359 0.89031 0.24052
 C790 C 0.45429 0.88745 0.21474
 N791 N 0.43303 0.89427 0.20091
 N792 N 0.41216 0.90420 0.21253
 C793 C 0.60840 0.07737 0.25095
 N794 N 0.62900 0.06625 0.23897
 N795 N 0.64612 0.05226 0.25225
 C796 C 0.64308 0.04890 0.27787
 N797 N 0.62276 0.06039 0.28973
 N798 N 0.60584 0.07438 0.27657
 C799 C 0.58747 0.09034 0.23690
 N800 N 0.56632 0.09826 0.25010
 N801 N 0.54586 0.10784 0.23803
 C802 C 0.54561 0.10999 0.21220
 N803 N 0.56703 0.10263 0.19884
 N804 N 0.58759 0.09282 0.21099
 C805 C 0.39037 0.08001 0.74729
 N806 N 0.37025 0.06871 0.75985
 N807 N 0.35291 0.05445 0.74708
 C808 C 0.35519 0.05102 0.72136
 N809 N 0.37498 0.06276 0.70892
 N810 N 0.39214 0.07700 0.72159
 C811 C 0.41170 0.09305 0.76080
 N812 N 0.43278 0.10039 0.74717
 N813 N 0.45350 0.11007 0.75879
 C814 C 0.45410 0.11294 0.78456
 N815 N 0.43278 0.10613 0.79833
 N816 N 0.41197 0.09619 0.78665
 C817 C 0.61091 0.75039 0.07961
 N818 N 0.60951 0.72434 0.07713
 N819 N 0.62637 0.71158 0.06265
 C820 C 0.64549 0.72428 0.05012
 N821 N 0.64744 0.75036 0.05300
 N822 N 0.63039 0.76323 0.06751
 C823 C 0.58974 0.76388 0.09294
 N824 N 0.58904 0.79006 0.09560
 N825 N 0.56827 0.80164 0.10578
 C826 C 0.54742 0.78744 0.11332
 N827 N 0.54847 0.76135 0.11095
 N828 N 0.56916 0.74984 0.10103
 C829 C 0.39125 0.24693 0.07562
 N830 N 0.39337 0.27290 0.07296
 N831 N 0.37652 0.28601 0.05888
 C832 C 0.35672 0.27376 0.04693
 N833 N 0.35410 0.24776 0.04993
 N834 N 0.37116 0.23453 0.06403
 C835 C 0.41218 0.23306 0.08881
 N836 N 0.41241 0.20688 0.09141
 N837 N 0.43298 0.19497 0.10156
 C838 C 0.45406 0.20885 0.10913
 N839 N 0.45345 0.23494 0.10683
 N840 N 0.43298 0.24676 0.09694
 C841 C 0.61022 0.24990 0.92019
 N842 N 0.62988 0.23705 0.93196
 N843 N 0.64701 0.24987 0.94641
 C844 C 0.64497 0.27591 0.94955
 N845 N 0.62565 0.28862 0.93734
 N846 N 0.60871 0.27591 0.92293
 C847 C 0.58902 0.23643 0.90688
 N848 N 0.56832 0.25045 0.89910
 N849 N 0.54764 0.23895 0.88916
 C850 C 0.54672 0.21289 0.88646
 N851 N 0.56769 0.19872 0.89370
 N852 N 0.58845 0.21029 0.90391
 C853 C 0.39018 0.75328 0.92412
 N854 N 0.39213 0.72726 0.92640
 N855 N 0.37542 0.71410 0.94061
 C856 C 0.35593 0.72635 0.95307
 N857 N 0.35347 0.75240 0.95043
 N858 N 0.37039 0.76568 0.93621
 C859 C 0.41105 0.76719 0.91085
 N860 N 0.41156 0.79342 0.90883
 N861 N 0.43216 0.80534 0.89873
 C862 C 0.45299 0.79140 0.89062
 N863 N 0.45210 0.76527 0.89231
 N864 N 0.43160 0.75344 0.90216
 C865 C 0.74804 0.92131 0.39606
 N866 N 0.76068 0.93077 0.37525
 N867 N 0.74799 0.94493 0.35793
 C868 C 0.72231 0.95009 0.36096
 N869 N 0.70979 0.94028 0.38153
 N870 N 0.72237 0.92616 0.39868
 C871 C 0.76160 0.90793 0.41690
 N872 N 0.74806 0.90179 0.43823
 N873 N 0.75984 0.89153 0.45834
 C874 C 0.78571 0.88689 0.45807
 N875 N 0.79934 0.89254 0.43650
 N876 N 0.78750 0.90302 0.41628
 C877 C 0.25495 0.91425 0.60870
 N878 N 0.28046 0.91983 0.60603
 N879 N 0.29237 0.93530 0.62258
 C880 C 0.27929 0.94583 0.64254
 N881 N 0.25383 0.93985 0.64568
 N882 N 0.24182 0.92435 0.62897
 C883 C 0.24171 0.90019 0.58806
 N884 N 0.21583 0.89531 0.58876
 N885 N 0.20381 0.88537 0.56836
 C886 C 0.21724 0.88020 0.54654
 N887 N 0.24314 0.88461 0.54616
 N888 N 0.25512 0.89432 0.56652
 C889 C 0.25427 0.08577 0.39023
 N890 N 0.27982 0.08033 0.39283
 N891 N 0.29175 0.06483 0.37632
 C892 C 0.27866 0.05413 0.35647
 N893 N 0.25316 0.05997 0.35339
 N894 N 0.24113 0.07550 0.37006
 C895 C 0.24104 0.09987 0.41086
 N896 N 0.21512 0.10450 0.41032
 N897 N 0.20314 0.11443 0.43076
 C898 C 0.21665 0.11984 0.45246
 N899 N 0.24260 0.11568 0.45266
 N900 N 0.25454 0.10598 0.43228
 C901 C 0.75002 0.07894 0.60667
 N902 N 0.72421 0.07465 0.60453
 N903 N 0.71171 0.06043 0.62166
 C904 C 0.72446 0.04998 0.64178
 N905 N 0.75029 0.05460 0.64436
 N906 N 0.76290 0.06883 0.62704
 C907 C 0.76338 0.09234 0.58571
 N908 N 0.78945 0.09632 0.58553
 N909 N 0.80100 0.10664 0.56504
 C910 C 0.78687 0.11305 0.54401
 N911 N 0.76085 0.10939 0.54456
 N912 N 0.74938 0.09930 0.56493
 C913 C 0.91501 0.60831 0.25597
 N914 N 0.91956 0.60497 0.28127
 N915 N 0.93524 0.62085 0.29391
 C916 C 0.94699 0.64081 0.28180
 N917 N 0.94204 0.64465 0.25655
 N918 N 0.92635 0.62859 0.24381
 C919 C 0.90074 0.58818 0.24196
 N920 N 0.89739 0.58918 0.21619
 N921 N 0.88748 0.56897 0.20358
 C922 C 0.88078 0.54706 0.21630
 N923 N 0.88361 0.54643 0.24208
 N924 N 0.89329 0.56659 0.25464
 C925 C 0.91438 0.39170 0.74262
 N926 N 0.92562 0.37145 0.75490
 N927 N 0.94151 0.35543 0.74235
 C928 C 0.94677 0.35928 0.71716
 N929 N 0.93513 0.37921 0.70492
 N930 N 0.91925 0.39506 0.71737
 C931 C 0.89989 0.41180 0.75645
 N932 N 0.89247 0.43333 0.74367
 N933 N 0.88262 0.45348 0.75611
 C934 C 0.87960 0.45291 0.78187
 N935 N 0.88626 0.43106 0.79470
 N936 N 0.89634 0.41085 0.78221
 C937 C 0.08097 0.61354 0.75326
 N938 N 0.06863 0.63298 0.76592
 N939 N 0.05459 0.65036 0.75307
 C940 C 0.05246 0.64878 0.72718
 N941 N 0.06531 0.62973 0.71466
 N942 N 0.07932 0.61254 0.72741
 C943 C 0.09341 0.59191 0.76664
 N944 N 0.10113 0.57117 0.75272
 N945 N 0.11020 0.55013 0.76410
 C946 C 0.11203 0.54889 0.78993
 N947 N 0.10484 0.56986 0.80402
 N948 N 0.09548 0.59098 0.79256
 C949 C 0.08107 0.38631 0.24768
 N950 N 0.07891 0.38736 0.27349
 N951 N 0.06469 0.37018 0.28603
 C952 C 0.05211 0.35107 0.27332
 N953 N 0.05474 0.34943 0.24748
 N954 N 0.06900 0.36681 0.23484
 C955 C 0.09376 0.40791 0.23447
 N956 N 0.09625 0.40880 0.20858
 N957 N 0.10582 0.42989 0.19724
 C958 C 0.11283 0.45087 0.21141
 N959 N 0.11059 0.44966 0.23721
 N960 N 0.10130 0.42865 0.24848
   
