data_POSCAR
  _audit_creation_date              2014-09-24
  _audit_creation_method            'ToBaCCo'
  _symmetry_space_group_name_H-M    'P1'
  _symmetry_Int_Tables_number       1
  _symmetry_cell_setting            triclinic
  loop_
  _symmetry_equiv_pos_as_xyz
 x,y,z
_cell_length_a 38.5813
_cell_length_b 38.7025
_cell_length_c 38.5720
_cell_angle_alpha 89.986800
_cell_angle_beta 90.005600
_cell_angle_gamma 89.889500
loop_
  _atom_site_label
  _atom_site_type_symbol
  _atom_site_fract_x
  _atom_site_fract_y
  _atom_site_fract_z
C1 C 0.15823 0.18512 0.20773
 C2 C 0.15807 0.21007 0.18136
 C3 C 0.18336 0.20943 0.15586
 C4 C 0.20912 0.18382 0.15641
 C5 C 0.20928 0.15914 0.18246
 C6 C 0.18368 0.15979 0.20828
 C7 C 0.13639 0.17896 0.23530
 N8 N 0.14816 0.15066 0.25232
 C9 C 0.17693 0.13862 0.23619
 C10 C 0.23665 0.13713 0.17603
 N11 N 0.25284 0.14805 0.14687
 C12 C 0.23638 0.17646 0.13455
 C13 C 0.17638 0.23615 0.13330
 N14 N 0.14761 0.25275 0.14465
 C15 C 0.13610 0.23717 0.17390
 H16 H 0.11348 0.19364 0.24219
 H17 H 0.19153 0.11595 0.24390
 H18 H 0.24401 0.11470 0.19116
 H19 H 0.24348 0.19043 0.11128
 H20 H 0.19087 0.24284 0.11022
 H21 H 0.11332 0.24482 0.18840
 C22 C -0.15512 0.81769 0.21070
 C23 C -0.15589 0.79195 0.18514
 C24 C -0.18201 0.79190 0.16047
 C25 C -0.20770 0.81758 0.16109
 C26 C -0.20695 0.84303 0.18637
 C27 C -0.18050 0.84309 0.21132
 C28 C -0.13244 0.82454 0.23741
 N29 N -0.14362 0.85333 0.25397
 C30 C -0.17286 0.86500 0.23840
 C31 C -0.23446 0.86494 0.18017
 N32 N -0.25162 0.85323 0.15189
 C33 C -0.23564 0.82441 0.13991
 C34 C -0.17576 0.76452 0.13851
 N35 N -0.14664 0.74821 0.14941
 C36 C -0.13419 0.76462 0.17779
 H37 H -0.10943 0.80991 0.24410
 H38 H -0.18726 0.88782 0.24601
 H39 H -0.24122 0.88787 0.19481
 H40 H -0.24349 0.80982 0.11728
 H41 H -0.19095 0.75722 0.11608
 H42 H -0.11090 0.75742 0.19172
 C43 C -0.16086 0.18150 -0.20950
 C44 C -0.16163 0.20730 -0.18398
 C45 C -0.18695 0.20672 -0.15851
 C46 C -0.21182 0.18033 -0.15825
 C47 C -0.21107 0.15484 -0.18349
 C48 C -0.18544 0.15543 -0.20926
 C49 C -0.13878 0.17513 -0.23685
 N50 N -0.14956 0.14596 -0.25295
 C51 C -0.17795 0.13359 -0.23647
 C52 C -0.23771 0.13225 -0.17643
 N53 N -0.25435 0.14360 -0.14768
 C54 C -0.23890 0.17286 -0.13624
 C55 C -0.18085 0.23428 -0.13676
 N56 N -0.15259 0.25132 -0.14857
 C57 C -0.14054 0.23519 -0.17731
 H58 H -0.11640 0.19029 -0.24424
 H59 H -0.19181 0.11032 -0.24350
 H60 H -0.24429 0.10918 -0.19089
 H61 H -0.24659 0.18737 -0.11349
 H62 H -0.19551 0.24117 -0.11384
 H63 H -0.11788 0.24293 -0.19192
 C64 C 0.15929 0.81814 -0.20990
 C65 C 0.15844 0.79194 -0.18479
 C66 C 0.18335 0.79094 -0.15892
 C67 C 0.20941 0.81613 -0.15783
 C68 C 0.21026 0.84203 -0.18265
 C69 C 0.18505 0.84304 -0.20884
 C70 C 0.13799 0.82595 -0.23748
 N71 N 0.15035 0.85484 -0.25294
 C72 C 0.17901 0.86563 -0.23580
 C73 C 0.23776 0.86327 -0.17477
 N74 N 0.25338 0.85072 -0.14593
 C75 C 0.23642 0.82202 -0.13523
 C76 C 0.17565 0.76332 -0.13776
 N77 N 0.14684 0.74778 -0.15032
 C78 C 0.13600 0.76492 -0.17896
 H79 H 0.11505 0.81196 -0.24546
 H80 H 0.19404 0.88836 -0.24223
 H81 H 0.24559 0.88628 -0.18869
 H82 H 0.24301 0.80685 -0.11256
 H83 H 0.18964 0.75535 -0.11477
 H84 H 0.11329 0.75842 -0.19410
 C85 C 0.18508 1.15908 0.79200
 C86 C 0.21005 1.15889 0.81840
 C87 C 0.20957 1.18427 0.84373
 C88 C 0.18411 1.21014 0.84296
 C89 C 0.15939 1.21033 0.81687
 C90 C 0.15989 1.18465 0.79123
 C91 C 0.17875 1.13715 0.76462
 N92 N 0.15046 1.14897 0.74751
 C93 C 0.13860 1.17788 0.76339
 C94 C 0.13746 1.23776 0.82315
 N95 N 0.14848 1.25393 0.85226
 C96 C 0.17686 1.23743 0.86469
 C97 C 0.23621 1.17722 0.86641
 N98 N 0.25261 1.14832 0.85530
 C99 C 0.23699 1.13679 0.82609
 H100 H 0.19328 1.11412 0.75793
 H101 H 0.11597 1.19254 0.75556
 H102 H 0.11499 1.24512 0.80799
 H103 H 0.19084 1.24447 0.88799
 H104 H 0.24298 1.19175 0.88942
 H105 H 0.24450 1.11391 0.81177
 C106 C 0.81751 0.84357 0.78862
 C107 C 0.79168 0.84292 0.81416
 C108 C 0.79138 0.81676 0.83869
 C109 C 0.81691 0.79094 0.83796
 C110 C 0.84245 0.79158 0.81270
 C111 C 0.84276 0.81805 0.78789
 C112 C 0.82463 0.86629 0.76209
 N113 N 0.85345 0.85500 0.74554
 C114 C 0.86487 0.82565 0.76093
 C115 C 0.86426 0.76403 0.81885
 N116 N 0.85236 0.74695 0.84709
 C117 C 0.82356 0.76302 0.85909
 C118 C 0.76404 0.82316 0.86073
 N119 N 0.74799 0.85241 0.84999
 C120 C 0.76452 0.86480 0.82164
 H121 H 0.81019 0.88942 0.75553
 H122 H 0.88767 0.81116 0.75328
 H123 H 0.88727 0.75722 0.80426
 H124 H 0.80890 0.75528 0.88175
 H125 H 0.75659 0.80799 0.88311
 H126 H 0.75753 0.88816 0.80785
 C127 C 0.18158 0.83946 1.21032
 C128 C 0.20746 0.83883 1.18481
 C129 C 0.20700 0.81358 1.15934
 C130 C 0.18067 0.78868 1.15909
 C131 C 0.15509 0.78929 1.18430
 C132 C 0.15555 0.81482 1.21007
 C133 C 0.17502 0.86146 1.23761
 N134 N 0.14580 0.85058 1.25366
 C135 C 0.13356 0.82220 1.23721
 C136 C 0.13254 0.76269 1.17719
 N137 N 0.14398 0.74620 1.14842
 C138 C 0.17327 0.76172 1.13703
 C139 C 0.23456 0.81982 1.13755
 N140 N 0.25148 0.84810 1.14933
 C141 C 0.23528 0.86003 1.17809
 H142 H 0.19009 0.88388 1.24498
 H143 H 0.11025 0.80828 1.24421
 H144 H 0.10940 0.75602 1.19157
 H145 H 0.18782 0.75414 1.11426
 H146 H 0.24151 0.80527 1.11460
 H147 H 0.24291 0.88268 1.19266
 C148 C 0.81808 1.15903 1.21062
 C149 C 0.79185 1.15782 1.18550
 C150 C 0.79062 1.18257 1.15956
 C151 C 0.81559 1.20881 1.15844
 C152 C 0.84152 1.21000 1.18327
 C153 C 0.84278 1.18497 1.20952
 C154 C 0.82614 1.13791 1.23821
 N155 N 0.85499 1.15057 1.25362
 C156 C 0.86551 1.17923 1.23646
 C157 C 0.86256 1.23756 1.17527
 N158 N 0.84989 1.25288 1.14636
 C159 C 0.82128 1.23567 1.13573
 C160 C 0.76308 1.17453 1.13837
 N161 N 0.74781 1.14567 1.15096
 C162 C 0.76504 1.13512 1.17967
 H163 H 0.81237 1.11488 1.24621
 H164 H 0.88817 1.19444 1.24285
 H165 H 0.88558 1.24564 1.18913
 H166 H 0.80608 1.24199 1.11299
 H167 H 0.75497 1.18833 1.11532
 H168 H 0.75875 1.11244 1.19485
 O169 O 0.45113 1.06030 1.06290
 O170 O 0.41333 1.02657 1.03205
 C171 C 0.41999 1.05089 1.05417
 O172 O 0.54858 1.05720 0.93928
 O173 O 0.58655 1.02643 0.97304
 C174 C 0.57975 1.04850 0.94866
 O175 O 0.45106 1.06024 0.94265
 O176 O 0.41320 1.02712 0.97413
 C177 C 0.41993 1.05116 0.95172
 O178 O 0.54877 1.05705 1.06595
 O179 O 0.58670 1.02573 1.03261
 C180 C 0.57993 1.04805 1.05676
 Zr181 Zr 0.49995 1.04091 1.04650
 O182 O 0.50372 1.09547 1.04626
 O183 O 0.49615 1.04103 1.10125
 Zr184 Zr 0.49992 1.04089 0.95890
 O185 O 0.50369 1.09546 0.95912
 O186 O 0.49600 1.04101 0.90416
 O187 O 0.46898 1.04763 1.00271
 O188 O 0.53001 1.04721 1.00268
 O189 O 0.54909 0.93746 1.06619
 O190 O 0.58683 0.96876 1.03273
 C191 C 0.58022 0.94651 1.05697
 O192 O 0.45131 0.93411 0.94241
 O193 O 0.41341 0.96777 0.97334
 C194 C 0.42015 0.94355 0.95111
 O195 O 0.54876 0.93704 0.93940
 O196 O 0.58661 0.96780 0.97316
 C197 C 0.57989 0.94575 0.94878
 O198 O 0.45144 0.93414 1.06313
 O199 O 0.41350 0.96774 1.03213
 C200 C 0.42027 0.94352 1.05435
 Zr201 Zr 0.50014 0.95357 1.04671
 O202 O 0.50415 0.89901 1.04681
 O203 O 0.49632 0.95379 1.10146
 Zr204 Zr 0.50006 0.95331 0.95903
 O205 O 0.50399 0.89874 0.95980
 O206 O 0.49626 0.95279 0.90429
 Zr207 Zr 0.44856 0.99713 1.00271
 Zr208 Zr 0.55145 0.99717 1.00262
 O209 O 0.53019 0.94714 1.00286
 O210 O 0.46915 0.94664 1.00289
 O211 O 0.53095 0.99726 1.05331
 O212 O 0.47001 0.99712 0.95256
 O213 O 0.47000 0.99723 1.05291
 O214 O 0.53085 0.99709 0.95203
 H215 H 0.54566 1.06747 1.00271
 H216 H 0.45435 0.99720 0.93220
 H217 H 0.54594 0.92689 1.00296
 H218 H 0.45443 0.99727 1.07333
 H219 H 0.51521 1.02668 0.89506
 H220 H 0.51501 0.96762 0.89517
 H221 H 0.48398 0.88980 0.97306
 H222 H 0.48492 0.88995 1.03253
 H223 H 0.51578 0.96776 1.11048
 H224 H 0.51545 1.02683 1.11034
 H225 H 0.48414 1.10449 1.03237
 H226 H 0.48413 1.10448 0.97302
 O227 O -0.06308 0.54882 0.05974
 O228 O -0.03149 0.58654 0.02659
 C229 C -0.05393 0.57987 0.05069
 O230 O 0.06014 0.45126 0.05716
 O231 O 0.02657 0.41357 0.02606
 C232 C 0.05079 0.42023 0.04836
 O233 O 0.05702 0.54846 0.06015
 O234 O 0.02639 0.58630 0.02613
 C235 C 0.04838 0.57952 0.05064
 O236 O -0.06628 0.45151 0.05657
 O237 O -0.03236 0.41371 0.02579
 C238 C -0.05676 0.42045 0.04790
 Zr239 Zr -0.04691 0.50011 0.04016
 O240 O -0.04751 0.49628 0.09491
 O241 O -0.10165 0.50407 0.03946
 Zr242 Zr 0.04070 0.49989 0.04069
 O243 O 0.04009 0.49604 0.09545
 O244 O 0.09543 0.50361 0.04115
 O245 O -0.00313 0.53082 0.04720
 O246 O -0.00312 0.47006 0.04672
 O247 O -0.06592 0.45136 -0.06374
 O248 O -0.03276 0.41358 -0.03208
 C249 C -0.05683 0.42029 -0.05456
 O250 O 0.05784 0.54859 -0.06630
 O251 O 0.02663 0.58634 -0.03275
 C252 C 0.04902 0.57965 -0.05690
 O253 O 0.06080 0.45138 -0.06342
 O254 O 0.02684 0.41366 -0.03276
 C255 C 0.05131 0.42035 -0.05478
 O256 O -0.06280 0.54869 -0.06710
 O257 O -0.03216 0.58637 -0.03309
 C258 C -0.05414 0.57972 -0.05760
 Zr259 Zr -0.04648 0.50007 -0.04750
 O260 O -0.04612 0.49619 -0.10225
 O261 O -0.10121 0.50399 -0.04776
 Zr262 Zr 0.04127 0.49998 -0.04702
 O263 O 0.04142 0.49625 -0.10178
 O264 O 0.09601 0.50368 -0.04664
 Zr265 Zr -0.00290 0.55130 -0.00346
 Zr266 Zr -0.00277 0.44872 -0.00348
 O267 O -0.00257 0.47008 -0.05365
 O268 O -0.00259 0.53086 -0.05411
 O269 O -0.05343 0.46927 -0.00369
 O270 O 0.04728 0.52983 -0.00312
 O271 O -0.05307 0.53008 -0.00369
 O272 O 0.04786 0.46908 -0.00315
 H273 H -0.00319 0.45454 0.06716
 H274 H 0.06771 0.54530 -0.00300
 H275 H -0.00257 0.45444 -0.07398
 H276 H -0.07338 0.54578 -0.00368
 H277 H 0.10459 0.48448 0.02681
 H278 H 0.10497 0.48428 -0.03252
 H279 H 0.02747 0.51571 -0.11087
 H280 H -0.03191 0.51545 -0.11123
 H281 H -0.11032 0.48484 -0.03345
 H282 H -0.11061 0.48431 0.02592
 H283 H -0.03282 0.51509 0.10408
 H284 H 0.02642 0.51574 0.10442
 O285 O 1.06277 -0.06034 0.45137
 O286 O 1.03127 -0.02712 0.41347
 C287 C 1.05361 -0.05127 0.42021
 O288 O 0.93979 -0.05745 0.54888
 O289 O 0.97333 -0.02655 0.58684
 C290 C 0.94915 -0.04876 0.58005
 O291 O 0.94294 -0.06044 0.45138
 O292 O 0.97413 -0.02708 0.41350
 C293 C 0.95190 -0.05126 0.42022
 O294 O 1.06614 -0.05725 0.54902
 O295 O 1.03234 -0.02641 0.58690
 C296 C 1.05667 -0.04857 0.58018
 Zr297 Zr 1.04689 -0.04064 0.50021
 O298 O 1.04796 -0.09519 0.50399
 O299 O 1.10162 -0.03962 0.49625
 Zr300 Zr 0.95905 -0.04087 0.50016
 O301 O 0.95888 -0.09544 0.50393
 O302 O 0.90430 -0.04044 0.49627
 O303 O 1.00298 -0.04755 0.46939
 O304 O 1.00298 -0.04715 0.53014
 O305 O 1.06571 0.06310 0.54902
 O306 O 1.03208 0.03215 0.58687
 C307 C 1.05627 0.05437 0.58017
 O308 O 0.94258 0.06605 0.45140
 O309 O 0.97414 0.03294 0.41350
 C310 C 0.95171 0.05700 0.42025
 O311 O 0.93924 0.06278 0.54899
 O312 O 0.97310 0.03200 0.58688
 C313 C 0.94867 0.05405 0.58015
 O314 O 1.06281 0.06606 0.45143
 O315 O 1.03204 0.03228 0.41360
 C316 C 1.05410 0.05661 0.42027
 Zr317 Zr 1.04654 0.04653 0.50021
 O318 O 1.04674 0.10109 0.50396
 O319 O 1.10129 0.04599 0.49641
 Zr320 Zr 0.95864 0.04637 0.50019
 O321 O 0.95781 0.10092 0.50405
 O322 O 0.90391 0.04555 0.49621
 Zr323 Zr 1.00272 0.00291 0.44879
 Zr324 Zr 1.00274 0.00281 0.55171
 O325 O 1.00255 0.05280 0.53015
 O326 O 1.00258 0.05333 0.46939
 O327 O 1.05345 0.00294 0.53127
 O328 O 0.95251 0.00277 0.47002
 O329 O 1.05296 0.00294 0.47005
 O330 O 0.95207 0.00271 0.53120
 H331 H 1.00305 -0.06755 0.54565
 H332 H 0.93230 0.00276 0.45417
 H333 H 1.00245 0.07317 0.54570
 H334 H 1.07324 0.00285 0.45429
 H335 H 0.89524 -0.02702 0.51612
 H336 H 0.89494 0.03230 0.51621
 H337 H 0.97294 0.11006 0.48551
 H338 H 1.03212 0.11013 0.48493
 H339 H 1.11030 0.03263 0.51634
 H340 H 1.11057 -0.02677 0.51651
 H341 H 1.03258 -0.10435 0.48568
 H342 H 0.97351 -0.10448 0.48492
 C343 C 1.10270 0.10676 0.33352
 C344 C 1.11181 0.11605 0.36738
 C345 C 1.09590 0.09994 0.39567
 C346 C 1.13311 0.13624 0.27964
 C347 C 1.06156 0.06527 0.35624
 C348 C 1.07749 0.08142 0.32804
 C349 C 1.11933 0.12296 0.30433
 C350 C 1.07064 0.07425 0.39043
 H351 H 1.13130 0.13565 0.37192
 H352 H 1.10352 0.10750 0.42160
 H353 H 1.04220 0.04567 0.35118
 H354 H 1.07021 0.07404 0.30194
 C355 C 0.90310 -0.10193 0.33393
 C356 C 0.89403 -0.11091 0.36788
 C357 C 0.91006 -0.09465 0.39599
 C358 C 0.87199 -0.13184 0.28072
 C359 C 0.94451 -0.06045 0.35622
 C360 C 0.92844 -0.07676 0.32817
 C361 C 0.88620 -0.11829 0.30501
 C362 C 0.93541 -0.06910 0.39050
 H363 H 0.87444 -0.13037 0.37263
 H364 H 0.90241 -0.10196 0.42198
 H365 H 0.96393 -0.04097 0.35099
 H366 H 0.93568 -0.06963 0.30200
 C367 C 0.89700 0.10177 0.66658
 C368 C 0.88773 0.11070 0.63266
 C369 C 0.90444 0.09517 0.60450
 C370 C 0.86584 0.13129 0.72005
 C371 C 0.93977 0.06161 0.64417
 C372 C 0.92302 0.07718 0.67226
 C373 C 0.87995 0.11788 0.69560
 C374 C 0.93072 0.07045 0.60991
 H375 H 0.86762 0.12971 0.62798
 H376 H 0.89681 0.10258 0.57852
 H377 H 0.95983 0.04268 0.64935
 H378 H 0.93039 0.07006 0.69841
 C379 C 1.10677 -0.09796 0.66662
 C380 C 1.11633 -0.10658 0.63271
 C381 C 1.10024 -0.09039 0.60454
 C382 C 1.13604 -0.12939 0.72008
 C383 C 1.06506 -0.05670 0.64420
 C384 C 1.08118 -0.07292 0.67229
 C385 C 1.12285 -0.11505 0.69563
 C386 C 1.07430 -0.06532 0.60995
 H387 H 1.13610 -0.12595 0.62803
 H388 H 1.10801 -0.09766 0.57857
 H389 H 1.04525 -0.03752 0.64937
 H390 H 1.07358 -0.06605 0.69844
 C391 C 0.33344 1.10197 1.10235
 C392 C 0.32784 1.07624 1.07751
 C393 C 0.35597 1.05970 1.06178
 C394 C 0.27988 1.13277 1.13212
 C395 C 0.39553 1.09469 1.09563
 C396 C 0.36732 1.11119 1.11134
 C397 C 0.30438 1.11881 1.11862
 C398 C 0.39019 1.06868 1.07069
 H399 H 0.30171 1.06892 1.07034
 H400 H 0.35085 1.03985 1.04267
 H401 H 0.42148 1.10226 1.10311
 H402 H 0.37195 1.13109 1.13053
 C403 C 0.33378 0.89390 0.90147
 C404 C 0.32809 0.91923 0.92671
 C405 C 0.35616 0.93521 0.94303
 C406 C 0.28035 0.86491 0.86989
 C407 C 0.39585 0.90035 0.90903
 C408 C 0.36770 0.88442 0.89274
 C409 C 0.30479 0.87797 0.88429
 C410 C 0.39041 0.92606 0.93429
 H411 H 0.30194 0.92677 0.93368
 H412 H 0.35097 0.95483 0.96237
 H413 H 0.42182 0.89266 0.90167
 H414 H 0.37239 0.86484 0.87322
 C415 C 0.66710 0.89856 1.10779
 C416 C 0.67250 0.92396 1.08256
 C417 C 0.64425 0.93969 1.06621
 C418 C 0.72105 0.86829 1.13744
 C419 C 0.60494 0.90480 1.10046
 C420 C 0.63328 0.88908 1.11677
 C421 C 0.69633 0.88204 1.12411
 C422 C 0.61010 0.93022 1.07486
 H423 H 0.69856 0.93151 1.07540
 H424 H 0.64924 0.95918 1.04669
 H425 H 0.57905 0.89688 1.10777
 H426 H 0.62881 0.86944 1.13627
 C427 C 0.66584 1.09728 0.89768
 C428 C 0.67170 1.07239 0.92335
 C429 C 0.64372 1.05639 0.93981
 C430 C 0.71894 1.12812 0.86734
 C431 C 0.60383 1.09004 0.90482
 C432 C 0.63187 1.10600 0.88840
 C433 C 0.69469 1.11404 0.88109
 C434 C 0.60941 1.06509 0.93082
 H435 H 0.69789 1.06543 0.93073
 H436 H 0.64902 1.03729 0.95966
 H437 H 0.57781 1.09736 0.89723
 H438 H 0.62705 1.12524 0.86856
 C439 C 0.10151 0.33413 0.09743
 C440 C 0.11082 0.36794 0.10620
 C441 C 0.09447 0.39599 0.09017
 C442 C 0.13178 0.28101 0.12830
 C443 C 0.05947 0.35642 0.05635
 C444 C 0.07587 0.32844 0.07243
 C445 C 0.11807 0.30527 0.11422
 C446 C 0.06852 0.39057 0.06509
 H447 H 0.13064 0.37264 0.12553
 H448 H 0.10209 0.42189 0.09752
 H449 H 0.03966 0.35125 0.03716
 H450 H 0.06847 0.30237 0.06543
 C451 C -0.10766 0.33388 -0.10261
 C452 C -0.11653 0.36763 -0.11226
 C453 C -0.10019 0.39582 -0.09654
 C454 C -0.13736 0.28015 -0.13277
 C455 C -0.06614 0.35650 -0.06131
 C456 C -0.08252 0.32841 -0.07705
 C457 C -0.12402 0.30479 -0.11908
 C458 C -0.07469 0.39058 -0.07094
 H459 H -0.13596 0.37215 -0.13203
 H460 H -0.10741 0.42165 -0.10457
 H461 H -0.04671 0.35146 -0.04168
 H462 H -0.07545 0.30240 -0.06937
 C463 C 0.09876 0.66586 -0.10642
 C464 C 0.07337 0.67147 -0.08114
 C465 C 0.05703 0.64345 -0.06521
 C466 C 0.13025 0.71925 -0.13536
 C467 C 0.09131 0.60397 -0.10000
 C468 C 0.10763 0.63208 -0.11589
 C469 C 0.11592 0.69482 -0.12233
 C470 C 0.06589 0.60933 -0.07436
 H471 H 0.06631 0.69752 -0.07362
 H472 H 0.03757 0.64858 -0.04563
 H473 H 0.09877 0.57810 -0.10768
 H474 H 0.12726 0.62744 -0.13543
 C475 C -0.10164 0.66617 0.10232
 C476 C -0.11122 0.63240 0.11103
 C477 C -0.09565 0.60427 0.09438
 C478 C -0.13120 0.71963 0.13325
 C479 C -0.06074 0.64366 0.06026
 C480 C -0.07634 0.67171 0.07695
 C481 C -0.11780 0.69516 0.11925
 C482 C -0.07026 0.60957 0.06871
 H483 H -0.13078 0.62782 0.13065
 H484 H -0.10360 0.57842 0.10154
 H485 H -0.04127 0.64875 0.04069
 H486 H -0.06870 0.69774 0.07002
 C487 C 1.10626 0.10335 0.66669
 C488 C 1.11570 0.11220 0.63281
 C489 C 1.09961 0.09618 0.60460
 C490 C 1.13589 0.13387 0.72034
 C491 C 1.06464 0.06226 0.64417
 C492 C 1.08077 0.07831 0.67230
 C493 C 1.12252 0.12003 0.69576
 C494 C 1.07380 0.07107 0.60995
 H495 H 1.13542 0.13156 0.62820
 H496 H 1.10730 0.10358 0.57864
 H497 H 1.04493 0.04303 0.64929
 H498 H 1.07329 0.07125 0.69843
 C499 C 0.89873 -0.09822 0.66602
 C500 C 0.92431 -0.07333 0.67194
 C501 C 0.94060 -0.05709 0.64400
 C502 C 0.86851 -0.12939 0.71894
 C503 C 0.90561 -0.09053 0.60404
 C504 C 0.88937 -0.10673 0.63204
 C505 C 0.88225 -0.11516 0.69480
 C506 C 0.93151 -0.06558 0.60968
 H507 H 0.93173 -0.06655 0.69816
 H508 H 0.96038 -0.03800 0.64932
 H509 H 0.89796 -0.09769 0.57801
 H510 H 0.86958 -0.12596 0.62719
 C511 C 1.10115 -0.10313 0.33392
 C512 C 1.11068 -0.11180 0.36782
 C513 C 1.09514 -0.09507 0.39595
 C514 C 1.13094 -0.13411 0.28058
 C515 C 1.06035 -0.06098 0.35625
 C516 C 1.07592 -0.07775 0.32820
 C517 C 1.11738 -0.12008 0.30496
 C518 C 1.06984 -0.06938 0.39050
 H519 H 1.13019 -0.13142 0.37252
 H520 H 1.10306 -0.10219 0.42193
 H521 H 1.04094 -0.04139 0.35107
 H522 H 1.06834 -0.07086 0.30204
 C523 C 0.90270 0.10747 0.33393
 C524 C 0.92838 0.08255 0.32822
 C525 C 0.94455 0.06635 0.35628
 C526 C 0.87098 0.13647 0.28056
 C527 C 0.90954 0.10020 0.39598
 C528 C 0.89341 0.11636 0.36784
 C529 C 0.88549 0.12343 0.30496
 C530 C 0.93520 0.07486 0.39053
 H531 H 0.93576 0.07548 0.30205
 H532 H 0.96422 0.04703 0.35109
 H533 H 0.90171 0.10739 0.42196
 H534 H 0.87352 0.13561 0.37253
 C535 C 0.10243 0.33423 -0.10316
 C536 C 0.11177 0.36801 -0.11203
 C537 C 0.09527 0.39609 -0.09623
 C538 C 0.13321 0.28090 -0.13303
 C539 C 0.06007 0.35657 -0.06253
 C540 C 0.07661 0.32858 -0.07836
 C541 C 0.11926 0.30531 -0.11950
 C542 C 0.06915 0.39070 -0.07133
 H543 H 0.13175 0.37265 -0.13119
 H544 H 0.10291 0.42197 -0.10361
 H545 H 0.04013 0.35143 -0.04345
 H546 H 0.06921 0.30252 -0.07129
 C547 C -0.10649 0.33445 0.09761
 C548 C -0.08110 0.32874 0.07236
 C549 C -0.06513 0.35669 0.05597
 C550 C -0.13528 0.28128 0.12947
 C551 C -0.10015 0.39628 0.08991
 C552 C -0.11607 0.36825 0.10626
 C553 C -0.12232 0.30560 0.11493
 C554 C -0.07435 0.39084 0.06467
 H555 H -0.07349 0.30266 0.06547
 H556 H -0.04543 0.35151 0.03665
 H557 H -0.10788 0.42218 0.09723
 H558 H -0.13570 0.37294 0.12579
 C559 C -0.10235 0.66608 -0.10852
 C560 C -0.07736 0.67159 -0.08286
 C561 C -0.06156 0.64350 -0.06642
 C562 C -0.13261 0.71973 -0.13839
 C563 C -0.09563 0.60417 -0.10146
 C564 C -0.11141 0.63235 -0.11785
 C565 C -0.11887 0.69513 -0.12497
 C566 C -0.07059 0.60943 -0.07545
 H567 H -0.07016 0.69760 -0.07544
 H568 H -0.04237 0.64855 -0.04658
 H569 H -0.10319 0.57833 -0.10906
 H570 H -0.13074 0.62782 -0.13770
 C571 C 0.09694 0.66526 0.10189
 C572 C 0.10563 0.63141 0.11125
 C573 C 0.08974 0.60347 0.09472
 C574 C 0.12766 0.71810 0.13245
 C575 C 0.05627 0.64326 0.05946
 C576 C 0.07219 0.67113 0.07604
 C577 C 0.11362 0.69398 0.11861
 C578 C 0.06493 0.60907 0.06854
 H579 H 0.12477 0.62660 0.13124
 H580 H 0.09702 0.57753 0.10237
 H581 H 0.03726 0.64854 0.03947
 H582 H 0.06528 0.69725 0.06861
 C583 C 0.33380 1.10215 0.90289
 C584 C 0.36773 1.11108 0.89386
 C585 C 0.39579 1.09468 0.90987
 C586 C 0.28077 1.13243 0.87182
 C587 C 0.35597 1.06040 0.94420
 C588 C 0.32797 1.07686 0.92814
 C589 C 0.30496 1.11869 0.88602
 C590 C 0.39024 1.06904 0.93516
 H591 H 0.37251 1.13063 0.87433
 H592 H 0.42179 1.10197 0.90229
 H593 H 0.35071 1.04084 0.96357
 H594 H 0.30178 1.06977 0.93532
 C595 C 0.33386 0.89317 1.10305
 C596 C 0.32822 0.91866 1.07795
 C597 C 0.35631 0.93491 1.06200
 C598 C 0.28023 0.86345 1.13344
 C599 C 0.39593 0.90005 1.09613
 C600 C 0.36775 0.88385 1.11205
 C601 C 0.30481 0.87684 1.11966
 C602 C 0.39054 0.92587 1.07096
 H603 H 0.30209 0.92606 1.07078
 H604 H 0.35116 0.95461 1.04272
 H605 H 0.42190 0.89246 1.10364
 H606 H 0.37239 0.86413 1.13146
 C607 C 0.66615 1.09716 1.10700
 C608 C 0.63223 1.10623 1.11610
 C609 C 0.60412 1.09006 1.10002
 C610 C 0.71941 1.12882 1.13601
 C611 C 0.64388 1.05547 1.06580
 C612 C 0.67191 1.07167 1.08194
 C613 C 0.69506 1.11434 1.12295
 C614 C 0.60962 1.06460 1.07453
 H615 H 0.62750 1.12595 1.13547
 H616 H 0.57814 1.09772 1.10737
 H617 H 0.64910 1.03595 1.04636
 H618 H 0.69808 1.06446 1.07470
 C619 C 0.66618 0.89774 0.89730
 C620 C 0.63228 0.88876 0.88817
 C621 C 0.60415 0.90442 0.90481
 C622 C 0.71952 0.86799 0.86625
 C623 C 0.64386 0.93819 0.93976
 C624 C 0.67191 0.92250 0.92308
 C625 C 0.69513 0.88150 0.88033
 C626 C 0.60961 0.92929 0.93087
 H627 H 0.62758 0.86962 0.86824
 H628 H 0.57817 0.89697 0.89731
 H629 H 0.64905 0.95725 0.95965
 H630 H 0.69806 0.92964 0.93032
   
