data_POSCAR
  _audit_creation_date              2014-09-24
  _audit_creation_method            'ToBaCCo'
  _symmetry_space_group_name_H-M    'P1'
  _symmetry_Int_Tables_number       1
  _symmetry_cell_setting            triclinic
  loop_
  _symmetry_equiv_pos_as_xyz
 x,y,z
_cell_length_a 49.0790
_cell_length_b 41.5966
_cell_length_c 23.8234
_cell_angle_alpha 90.290000
_cell_angle_beta 90.075200
_cell_angle_gamma 90.407800
loop_
  _atom_site_label
  _atom_site_type_symbol
  _atom_site_fract_x
  _atom_site_fract_y
  _atom_site_fract_z
C1 C 0.78441 0.18004 0.44986
 C2 C 0.79587 0.17204 0.50186
 C3 C 0.78495 0.18257 0.55300
 C4 C 0.76203 0.20322 0.55225
 C5 C 0.74998 0.21174 0.50014
 C6 C 0.76075 0.19952 0.44893
 C7 C 0.74638 0.20518 0.39883
 C8 C 0.72334 0.22434 0.39817
 C9 C 0.71363 0.23881 0.44751
 C10 C 0.72681 0.23220 0.49923
 C11 C 0.75152 0.21669 0.60189
 C12 C 0.72902 0.23675 0.60094
 C13 C 0.71659 0.24550 0.55009
 C14 C 0.69321 0.26554 0.54884
 C15 C 0.68029 0.27096 0.49722
 C16 C 0.69040 0.25868 0.44676
 H17 H 0.75225 0.19406 0.35962
 H18 H 0.71293 0.22722 0.35848
 H19 H 0.76067 0.21213 0.64233
 H20 H 0.72123 0.24474 0.64100
 H21 H 0.81374 0.15682 0.50260
 H22 H 0.66297 0.28703 0.49555
 C23 C 0.31436 0.72052 0.44971
 C24 C 0.32552 0.71253 0.50170
 C25 C 0.31271 0.72079 0.55219
 C26 C 0.28812 0.73852 0.55075
 C27 C 0.27681 0.74748 0.49826
 C28 C 0.28987 0.73818 0.44760
 C29 C 0.27819 0.74687 0.39609
 C30 C 0.25388 0.76365 0.39411
 C31 C 0.24074 0.77360 0.44354
 C32 C 0.25227 0.76555 0.49632
 C33 C 0.27455 0.74752 0.60017
 C34 C 0.25019 0.76442 0.59828
 C35 C 0.23905 0.77487 0.54702
 C36 C 0.21420 0.79245 0.54453
 C37 C 0.20308 0.79927 0.49150
 C38 C 0.21600 0.79068 0.44150
 H39 H 0.28765 0.74064 0.35656
 H40 H 0.24543 0.76850 0.35311
 H41 H 0.28246 0.74138 0.64107
 H42 H 0.24000 0.76851 0.63777
 H43 H 0.34408 0.69852 0.50280
 H44 H 0.18467 0.81346 0.48862
 C45 C 0.18369 0.24308 -0.45224
 C46 C 0.17442 0.23200 -0.50470
 C47 C 0.18614 0.24191 -0.55538
 C48 C 0.20673 0.26601 -0.55408
 C49 C 0.21620 0.27827 -0.50172
 C50 C 0.20476 0.26678 -0.45061
 C51 C 0.21304 0.28138 -0.39986
 C52 C 0.23319 0.30499 -0.39870
 C53 C 0.24520 0.31607 -0.44841
 C54 C 0.23636 0.30311 -0.50059
 C55 C 0.21613 0.28041 -0.60375
 C56 C 0.23553 0.30484 -0.60253
 C57 C 0.24692 0.31574 -0.55164
 C58 C 0.26675 0.34093 -0.55009
 C59 C 0.27481 0.35335 -0.49770
 C60 C 0.26486 0.34099 -0.44736
 H61 H 0.20342 0.27563 -0.36039
 H62 H 0.23857 0.31538 -0.35839
 H63 H 0.20769 0.27394 -0.64424
 H64 H 0.24067 0.31586 -0.64213
 H65 H 0.15946 0.21267 -0.50593
 H66 H 0.29062 0.37170 -0.49558
 C67 C -0.28411 0.69724 -0.44908
 C68 C -0.29059 0.68322 -0.50121
 C69 C -0.27970 0.69431 -0.55202
 C70 C -0.26001 0.71951 -0.55056
 C71 C -0.25269 0.73393 -0.49839
 C72 C -0.26530 0.72346 -0.44777
 C73 C -0.26023 0.74112 -0.39822
 C74 C -0.24131 0.76608 -0.39690
 C75 C -0.22709 0.77515 -0.44537
 C76 C -0.23312 0.75947 -0.49697
 C77 C -0.24662 0.72985 -0.59949
 C78 C -0.22778 0.75491 -0.59811
 C79 C -0.22011 0.76973 -0.54725
 C80 C -0.20116 0.79587 -0.54549
 C81 C -0.19597 0.81109 -0.49376
 C82 C -0.20791 0.80060 -0.44389
 H83 H -0.27135 0.73663 -0.35997
 H84 H -0.23845 0.77875 -0.35753
 H85 H -0.25041 0.71858 -0.63975
 H86 H -0.21977 0.76281 -0.63795
 H87 H -0.30508 0.66341 -0.50242
 H88 H -0.18092 0.83030 -0.49144
 N89 N 0.02761 1.05798 -0.07076
 N90 N 0.04484 1.08077 -0.08616
 N91 N -0.03039 1.03055 -0.09298
 N92 N -0.05127 1.03527 -0.12691
 N93 N -0.02897 1.05342 -0.05492
 N94 N -0.04864 1.07444 -0.06224
 N95 N 0.02633 1.03512 -0.10888
 N96 N 0.04254 1.04184 -0.15144
 C97 C 0.05415 1.07026 -0.13644
 C98 C -0.06267 1.06257 -0.10678
 N99 N -0.02298 0.93951 -0.05337
 N100 N -0.04156 0.91649 -0.05887
 N101 N 0.02998 0.96584 -0.10764
 N102 N 0.04638 0.96101 -0.15061
 N103 N 0.03382 0.94394 -0.06891
 N104 N 0.05308 0.92374 -0.08452
 N105 N -0.02659 0.96173 -0.09158
 N106 N -0.04772 0.95468 -0.12357
 Mn107 Mn -0.00017 0.99827 -0.10080
 C108 C -0.05703 0.92654 -0.10260
 C109 C 0.06088 0.93486 -0.13549
 N110 N -0.02103 1.05495 0.06495
 N111 N -0.04166 1.07355 0.07926
 N112 N 0.03984 1.03813 0.08705
 N113 N 0.05942 1.04771 0.12154
 N114 N 0.03551 1.05993 0.04847
 N115 N 0.05195 1.08481 0.05567
 N116 N -0.01676 1.03315 0.10350
 N117 N -0.03432 1.03616 0.14488
 Mn118 Mn 0.00322 1.05686 -0.00307
 C119 C -0.04979 1.06137 0.12930
 C120 C 0.06707 1.07670 0.10084
 N121 N 0.04181 0.94535 0.05168
 N122 N 0.05959 0.92265 0.06394
 N123 N -0.01307 0.96449 0.10496
 N124 N -0.02995 0.95926 0.14689
 N125 N -0.01499 0.94140 0.06736
 N126 N -0.03330 0.91972 0.08296
 N127 N 0.04335 0.96883 0.08876
 N128 N 0.06200 0.96260 0.12689
 Mn129 Mn 0.00941 0.94214 -0.00086
 Mn130 Mn 0.01344 1.00117 0.09641
 Cl131 Cl 0.00654 0.99956 -0.00209
 C132 C 0.07238 0.93409 0.11048
 C133 C -0.04252 0.93134 0.13275
 N134 N 0.53088 0.45403 -0.09568
 N135 N 0.54974 0.44546 -0.13216
 N136 N 0.47122 0.43929 -0.06030
 N137 N 0.44919 0.42157 -0.06908
 N138 N 0.47383 0.46119 -0.09942
 N139 N 0.45364 0.45898 -0.13591
 N140 N 0.52805 0.43208 -0.05672
 N141 N 0.54475 0.40788 -0.06581
 C142 C 0.55838 0.41672 -0.11272
 C143 C 0.43838 0.43418 -0.11638
 N144 N 0.47102 0.46327 0.09830
 N145 N 0.45078 0.46068 0.13437
 N146 N 0.52645 0.43340 0.06410
 N147 N 0.54194 0.40886 0.07815
 N148 N 0.52782 0.45609 0.10251
 N149 N 0.54409 0.44753 0.14381
 N150 N 0.46956 0.44040 0.06027
 N151 N 0.44830 0.42153 0.06954
 Mn152 Mn 0.49881 0.43596 0.00179
 C153 C 0.43665 0.43467 0.11571
 C154 C 0.55307 0.41822 0.12773
 N155 N 0.48067 0.53009 -0.10117
 N156 N 0.46421 0.53838 -0.14232
 N157 N 0.53899 0.54592 -0.05941
 N158 N 0.55936 0.56571 -0.07155
 N159 N 0.53735 0.52276 -0.09699
 N160 N 0.55649 0.52605 -0.13524
 N161 N 0.48195 0.55288 -0.06285
 N162 N 0.46614 0.57718 -0.07686
 Mn163 Mn 0.50569 0.49199 -0.09881
 C164 C 0.45498 0.56758 -0.12634
 C165 C 0.57031 0.55268 -0.11869
 N166 N 0.53446 0.52492 0.10096
 N167 N 0.55326 0.52830 0.14009
 N168 N 0.48028 0.55421 0.05874
 N169 N 0.46252 0.57750 0.06744
 N170 N 0.47759 0.53181 0.09699
 N171 N 0.45789 0.53896 0.13224
 N172 N 0.53724 0.54715 0.06237
 N173 N 0.55803 0.56637 0.07455
 Mn174 Mn 0.50273 0.49407 0.10014
 Mn175 Mn 0.50966 0.55047 -0.00028
 Cl176 Cl 0.50426 0.49317 0.00070
 C177 C 0.56798 0.55407 0.12301
 C178 C 0.44855 0.56742 0.11333
 C179 C 0.28437 0.38677 0.39674
 C180 C 0.29969 0.39922 0.35259
 C181 C 0.31147 0.37881 0.31259
 C182 C 0.30647 0.34550 0.31624
 C183 C 0.29100 0.33298 0.36045
 C184 C 0.27985 0.35342 0.40167
 C185 C 0.32972 0.39348 0.27007
 C186 C 0.34822 0.37718 0.24011
 C187 C 0.36927 0.39345 0.20571
 C188 C 0.38062 0.37711 0.15976
 C189 C 0.40202 0.39089 0.12925
 C190 C 0.41275 0.42103 0.14486
 C191 C 0.40126 0.43750 0.19048
 C192 C 0.37980 0.42387 0.22068
 H193 H 0.27594 0.40338 0.42718
 H194 H 0.30303 0.42498 0.35072
 H195 H 0.31471 0.32884 0.28587
 H196 H 0.28892 0.30712 0.36378
 H197 H 0.32902 0.41938 0.26617
 H198 H 0.34896 0.35125 0.24186
 H199 H 0.37308 0.35350 0.14784
 H200 H 0.41060 0.37761 0.09436
 H201 H 0.40924 0.46069 0.20363
 H202 H 0.37228 0.43674 0.25701
 C203 C -0.17175 0.78616 0.37233
 C204 C -0.15523 0.79819 0.32921
 C205 C -0.15284 0.83143 0.32036
 C206 C -0.16836 0.85235 0.35390
 C207 C -0.18455 0.84043 0.39722
 C208 C -0.18656 0.80717 0.40721
 C209 C -0.13375 0.84362 0.27682
 C210 C -0.12198 0.87281 0.28067
 C211 C -0.10191 0.88649 0.24049
 C212 C -0.08951 0.91587 0.25502
 C213 C -0.07045 0.93026 0.21974
 C214 C -0.06319 0.91567 0.16874
 C215 C -0.07565 0.88639 0.15347
 C216 C -0.09491 0.87189 0.18895
 H217 H -0.17188 0.76051 0.38002
 H218 H -0.14356 0.78152 0.30394
 H219 H -0.16814 0.87803 0.34699
 H220 H -0.19591 0.85734 0.42266
 H221 H -0.12824 0.82736 0.24326
 H222 H -0.12637 0.88755 0.31706
 H223 H -0.09451 0.92783 0.29415
 H224 H -0.06130 0.95288 0.23271
 H225 H -0.07050 0.87472 0.11420
 H226 H -0.10419 0.84952 0.17550
 C227 C 0.69947 0.69958 0.35440
 C228 C 0.68564 0.68555 0.30890
 C229 C 0.68177 0.65211 0.30592
 C230 C 0.69362 0.63280 0.34752
 C231 C 0.70712 0.64676 0.39317
 C232 C 0.70999 0.68038 0.39780
 C233 C 0.66448 0.63823 0.26045
 C234 C 0.65032 0.61076 0.26725
 C235 C 0.63086 0.59646 0.22612
 C236 C 0.61924 0.56651 0.23937
 C237 C 0.59939 0.55256 0.20501
 C238 C 0.59056 0.56818 0.15630
 C239 C 0.60260 0.59772 0.14174
 C240 C 0.62256 0.61183 0.17635
 H241 H 0.70046 0.72557 0.35724
 H242 H 0.67686 0.70098 0.27726
 H243 H 0.69233 0.60686 0.34548
 H244 H 0.71539 0.63116 0.42514
 H245 H 0.66223 0.65215 0.22259
 H246 H 0.65209 0.59818 0.30670
 H247 H 0.62520 0.55400 0.27718
 H248 H 0.59061 0.52969 0.21724
 H249 H 0.59614 0.61028 0.10436
 H250 H 0.63078 0.63494 0.16435
 C251 C 0.19682 1.21226 0.35794
 C252 C 0.18827 1.19261 0.31329
 C253 C 0.16046 1.18686 0.30391
 C254 C 0.14128 1.20097 0.33992
 C255 C 0.14977 1.21990 0.38518
 C256 C 0.17766 1.22586 0.39500
 C257 C 0.15163 1.16404 0.25966
 C258 C 0.12876 1.16861 0.23022
 C259 C 0.11667 1.14408 0.19253
 C260 C 0.10070 1.15422 0.14726
 C261 C 0.08576 1.13197 0.11553
 C262 C 0.08595 1.09920 0.12946
 C263 C 0.10260 1.08883 0.17368
 C264 C 0.11799 1.11107 0.20483
 H265 H 0.21848 1.21527 0.36536
 H266 H 0.20339 1.18150 0.28654
 H267 H 0.11969 1.19632 0.33453
 H268 H 0.13444 1.22990 0.41277
 H269 H 0.16399 1.14302 0.25182
 H270 H 0.11804 1.19119 0.23455
 H271 H 0.09922 1.17954 0.13736
 H272 H 0.07307 1.14067 0.08172
 H273 H 0.10308 1.06369 0.18525
 H274 H 0.12967 1.10261 0.24030
 C275 C 0.65440 0.28155 -0.39347
 C276 C 0.64339 0.29959 -0.34965
 C277 C 0.66029 0.31872 -0.31532
 C278 C 0.68843 0.31921 -0.32538
 C279 C 0.69958 0.30062 -0.36866
 C280 C 0.68268 0.28155 -0.40346
 C281 C 0.64856 0.34029 -0.27228
 C282 C 0.62621 0.33233 -0.24313
 C283 C 0.61170 0.35506 -0.20603
 C284 C 0.59628 0.34290 -0.16129
 C285 C 0.57982 0.36324 -0.12934
 C286 C 0.57800 0.39603 -0.14246
 C287 C 0.59384 0.40838 -0.18650
 C288 C 0.61065 0.38813 -0.21789
 H289 H 0.64073 0.26741 -0.41963
 H290 H 0.62150 0.29945 -0.34411
 H291 H 0.70175 0.33434 -0.30017
 H292 H 0.72126 0.30244 -0.37667
 H293 H 0.65855 0.36322 -0.26472
 H294 H 0.61796 0.30817 -0.24682
 H295 H 0.59658 0.31747 -0.15174
 H296 H 0.56775 0.35306 -0.09573
 H297 H 0.59276 0.43357 -0.19751
 H298 H 0.62176 0.39814 -0.25299
 C299 C 0.21396 0.82134 -0.36439
 C300 C 0.19943 0.83600 -0.32069
 C301 C 0.17086 0.83506 -0.32013
 C302 C 0.15709 0.81776 -0.36233
 C303 C 0.17151 0.80288 -0.40550
 C304 C 0.20021 0.80455 -0.40772
 C305 C 0.15562 0.85267 -0.27615
 C306 C 0.13244 0.86809 -0.28816
 C307 C 0.11618 0.88626 -0.24662
 C308 C 0.09997 0.91157 -0.26584
 C309 C 0.08270 0.92792 -0.22921
 C310 C 0.08080 0.91887 -0.17265
 C311 C 0.09720 0.89373 -0.15302
 C312 C 0.11487 0.87762 -0.18964
 H313 H 0.23586 0.82465 -0.36570
 H314 H 0.21046 0.84929 -0.28861
 H315 H 0.13507 0.81579 -0.36211
 H316 H 0.16008 0.78980 -0.43729
 H317 H 0.16445 0.85460 -0.23458
 H318 H 0.12548 0.86865 -0.33135
 H319 H 0.10050 0.91854 -0.30958
 H320 H 0.07027 0.94713 -0.24562
 H321 H 0.09608 0.88624 -0.10961
 H322 H 0.12669 0.85777 -0.17376
 C323 C 0.31165 0.68788 -0.35952
 C324 C 0.32516 0.67370 -0.31424
 C325 C 0.35298 0.67977 -0.30515
 C326 C 0.36666 0.70184 -0.33977
 C327 C 0.35305 0.71647 -0.38426
 C328 C 0.32555 0.70922 -0.39517
 C329 C 0.36780 0.66157 -0.26169
 C330 C 0.39218 0.64873 -0.27267
 C331 C 0.40674 0.62753 -0.23335
 C332 C 0.42147 0.60167 -0.25543
 C333 C 0.43644 0.58174 -0.22021
 C334 C 0.43766 0.58785 -0.16225
 C335 C 0.42303 0.61385 -0.13991
 C336 C 0.40741 0.63338 -0.17516
 H337 H 0.29062 0.68138 -0.36788
 H338 H 0.31427 0.65673 -0.28807
 H339 H 0.38803 0.70732 -0.33305
 H340 H 0.36420 0.73271 -0.41138
 H341 H 0.35746 0.65592 -0.22278
 H342 H 0.40087 0.65160 -0.31419
 H343 H 0.42135 0.59684 -0.30017
 H344 H 0.44766 0.56200 -0.23862
 H345 H 0.42372 0.61906 -0.09534
 H346 H 0.39655 0.65353 -0.15724
 C347 C -0.21816 1.15520 -0.35599
 C348 C -0.20525 1.14026 -0.31070
 C349 C -0.17682 1.14172 -0.30503
 C350 C -0.16145 1.15824 -0.34549
 C351 C -0.17420 1.17246 -0.39129
 C352 C -0.20274 1.17125 -0.39725
 C353 C -0.16317 1.12354 -0.26000
 C354 C -0.14035 1.13438 -0.23526
 C355 C -0.12354 1.11464 -0.19741
 C356 C -0.10780 1.13000 -0.15596
 C357 C -0.08896 1.11266 -0.12444
 C358 C -0.08501 1.07976 -0.13493
 C359 C -0.10123 1.06416 -0.17544
 C360 C -0.12048 1.08139 -0.20622
 H361 H -0.24004 1.15269 -0.36037
 H362 H -0.21742 1.12712 -0.28053
 H363 H -0.13942 1.15903 -0.34309
 H364 H -0.16168 1.18443 -0.42237
 H365 H -0.17187 1.10062 -0.24773
 H366 H -0.13331 1.15862 -0.24380
 H367 H -0.10963 1.15564 -0.14888
 H368 H -0.07664 1.12532 -0.09362
 H369 H -0.09853 1.03882 -0.18434
 H370 H -0.13187 1.06901 -0.23882
 C371 C 0.71740 0.67726 -0.35136
 C372 C 0.70425 0.66306 -0.30541
 C373 C 0.67650 0.65499 -0.30843
 C374 C 0.66183 0.66258 -0.35714
 C375 C 0.67479 0.67699 -0.40260
 C376 C 0.70282 0.68458 -0.40074
 C377 C 0.66295 0.63835 -0.26115
 C378 C 0.64457 0.61499 -0.27077
 C379 C 0.62879 0.59818 -0.22680
 C380 C 0.61794 0.56781 -0.23983
 C381 C 0.59998 0.55255 -0.20322
 C382 C 0.59209 0.56754 -0.15292
 C383 C 0.60368 0.59746 -0.13856
 C384 C 0.62196 0.61271 -0.17523
 H385 H 0.73919 0.68139 -0.34895
 H386 H 0.71596 0.65733 -0.26826
 H387 H 0.64020 0.65750 -0.36007
 H388 H 0.66261 0.68275 -0.43913
 H389 H 0.66896 0.64446 -0.21865
 H390 H 0.64105 0.60721 -0.31370
 H391 H 0.62283 0.55615 -0.27929
 H392 H 0.59152 0.52943 -0.21541
 H393 H 0.59790 0.60956 -0.10008
 H394 H 0.62960 0.63641 -0.16439
 C395 C 0.18847 1.21651 -0.36027
 C396 C 0.17689 1.19855 -0.31669
 C397 C 0.14890 1.19156 -0.31670
 C398 C 0.13238 1.20448 -0.35891
 C399 C 0.14380 1.22262 -0.40195
 C400 C 0.17210 1.22861 -0.40398
 C401 C 0.13714 1.17027 -0.27341
 C402 C 0.11783 1.14855 -0.28661
 C403 C 0.10418 1.12741 -0.24547
 C404 C 0.09230 1.09863 -0.26473
 C405 C 0.07687 1.07944 -0.22868
 C406 C 0.07262 1.08898 -0.17282
 C407 C 0.08497 1.11744 -0.15305
 C408 C 0.10068 1.13650 -0.18901
 H409 H 0.21042 1.21930 -0.36134
 H410 H 0.18997 1.18881 -0.28440
 H411 H 0.11057 1.20033 -0.35895
 H412 H 0.13039 1.23194 -0.43408
 H413 H 0.14539 1.17145 -0.23128
 H414 H 0.11198 1.14556 -0.33023
 H415 H 0.09459 1.09123 -0.30813
 H416 H 0.06757 1.05764 -0.24507
 H417 H 0.08197 1.12536 -0.11014
 H418 H 0.10905 1.15890 -0.17311
 C419 C 0.27602 0.38643 -0.38220
 C420 C 0.29198 0.39948 -0.33906
 C421 C 0.30969 0.37998 -0.30803
 C422 C 0.31007 0.34667 -0.31945
 C423 C 0.29397 0.33364 -0.36247
 C424 C 0.27732 0.35354 -0.39491
 C425 C 0.32937 0.39589 -0.26926
 C426 C 0.34512 0.38026 -0.23245
 C427 C 0.36770 0.39604 -0.20109
 C428 C 0.37719 0.38186 -0.15151
 C429 C 0.39982 0.39463 -0.12323
 C430 C 0.41360 0.42167 -0.14440
 C431 C 0.40401 0.43608 -0.19369
 C432 C 0.38138 0.42337 -0.22190
 H433 H 0.26351 0.40220 -0.40729
 H434 H 0.29133 0.42516 -0.33149
 H435 H 0.32376 0.33074 -0.29776
 H436 H 0.29564 0.30830 -0.37253
 H437 H 0.33138 0.42174 -0.27259
 H438 H 0.34172 0.35495 -0.22478
 H439 H 0.36724 0.36061 -0.13493
 H440 H 0.40681 0.38300 -0.08533
 H441 H 0.41434 0.45683 -0.21116
 H442 H 0.37536 0.43439 -0.26097
 C443 C -0.20050 0.84913 -0.38318
 C444 C -0.18853 0.86408 -0.33657
 C445 C -0.17383 0.84614 -0.29707
 C446 C -0.17267 0.81249 -0.30365
 C447 C -0.18471 0.79755 -0.35034
 C448 C -0.19835 0.81582 -0.39084
 C449 C -0.15895 0.86391 -0.25213
 C450 C -0.13781 0.85198 -0.22321
 C451 C -0.11961 0.87227 -0.18772
 C452 C -0.10395 0.85783 -0.14544
 C453 C -0.08431 0.87568 -0.11569
 C454 C -0.07971 0.90817 -0.12847
 C455 C -0.09581 0.92279 -0.16973
 C456 C -0.11547 0.90510 -0.19910
 H457 H -0.21086 0.86364 -0.41410
 H458 H -0.18988 0.88997 -0.33253
 H459 H -0.16226 0.79756 -0.27362
 H460 H -0.18271 0.77180 -0.35575
 H461 H -0.16444 0.88883 -0.24591
 H462 H -0.13237 0.82698 -0.22763
 H463 H -0.10652 0.83250 -0.13629
 H464 H -0.07208 0.86379 -0.08425
 H465 H -0.09267 0.94779 -0.18061
 H466 H -0.12634 0.91698 -0.23251
 C467 C 0.35501 0.71918 0.38653
 C468 C 0.36908 0.70633 0.34071
 C469 C 0.35703 0.68243 0.30682
 C470 C 0.33006 0.67265 0.31822
 C471 C 0.31603 0.68549 0.36407
 C472 C 0.32845 0.70871 0.39870
 C473 C 0.37349 0.66756 0.26151
 C474 C 0.36948 0.63720 0.24394
 C475 C 0.38856 0.62007 0.20630
 C476 C 0.39096 0.58670 0.21222
 C477 C 0.41006 0.56966 0.18090
 C478 C 0.42686 0.58553 0.14210
 C479 C 0.42361 0.61869 0.13387
 C480 C 0.40467 0.63591 0.16594
 H481 H 0.36494 0.73699 0.41299
 H482 H 0.38974 0.71439 0.33273
 H483 H 0.31975 0.65502 0.29212
 H484 H 0.29557 0.67705 0.37304
 H485 H 0.39115 0.68080 0.24684
 H486 H 0.35341 0.62293 0.26273
 H487 H 0.37862 0.57388 0.24256
 H488 H 0.41193 0.54404 0.18769
 H489 H 0.43623 0.63142 0.10394
 H490 H 0.40278 0.66151 0.15922
 C491 C -0.19529 1.18859 0.35648
 C492 C -0.17940 1.17716 0.31191
 C493 C -0.17039 1.14521 0.31117
 C494 C -0.17906 1.12435 0.35393
 C495 C -0.19455 1.13577 0.39858
 C496 C -0.20265 1.16813 0.40104
 C497 C -0.15141 1.13433 0.26665
 C498 C -0.13283 1.11151 0.27656
 C499 C -0.11280 1.09910 0.23547
 C500 C -0.09867 1.07113 0.24986
 C501 C -0.07863 1.05878 0.21476
 C502 C -0.07205 1.07419 0.16428
 C503 C -0.08634 1.10196 0.14903
 C504 C -0.10657 1.11441 0.18436
 H505 H -0.20052 1.21385 0.35758
 H506 H -0.17318 1.19363 0.27919
 H507 H -0.17375 1.09915 0.35342
 H508 H -0.20038 1.11911 0.43134
 H509 H -0.15223 1.14624 0.22647
 H510 H -0.13187 1.10108 0.31805
 H511 H -0.10301 1.05880 0.28884
 H512 H -0.06806 1.03726 0.22761
 H513 H -0.08159 1.11432 0.11032
 H514 H -0.11666 1.13625 0.17195
 C515 C 0.69149 0.28631 0.35332
 C516 C 0.67790 0.30041 0.30814
 C517 C 0.64942 0.29855 0.30431
 C518 C 0.63488 0.28040 0.34401
 C519 C 0.64849 0.26582 0.38849
 C520 C 0.67683 0.26923 0.39427
 C521 C 0.63508 0.31735 0.26110
 C522 C 0.61294 0.33442 0.27425
 C523 C 0.59924 0.35624 0.23473
 C524 C 0.58706 0.38408 0.25618
 C525 C 0.57286 0.40472 0.22087
 C526 C 0.56995 0.39747 0.16357
 C527 C 0.58216 0.36962 0.14186
 C528 C 0.59691 0.34924 0.17711
 H529 H 0.71329 0.28977 0.35752
 H530 H 0.68946 0.31428 0.27793
 H531 H 0.61292 0.27814 0.34133
 H532 H 0.63680 0.25281 0.41965
 H533 H 0.64438 0.31988 0.22013
 H534 H 0.60572 0.33439 0.31725
 H535 H 0.58852 0.38986 0.30049
 H536 H 0.56352 0.42592 0.23880
 H537 H 0.58011 0.36347 0.09782
 H538 H 0.60570 0.32759 0.15967
 C539 C 0.21681 0.82206 0.35157
 C540 C 0.20345 0.83451 0.30461
 C541 C 0.17593 0.82714 0.29479
 C542 C 0.16239 0.80560 0.33067
 C543 C 0.17588 0.79269 0.37690
 C544 C 0.20308 0.80116 0.38826
 C545 C 0.16109 0.84380 0.24957
 C546 C 0.13659 0.85652 0.25937
 C547 C 0.12220 0.87704 0.21887
 C548 C 0.10820 0.90379 0.23951
 C549 C 0.09302 0.92294 0.20351
 C550 C 0.09081 0.91516 0.14625
 C551 C 0.10492 0.88842 0.12522
 C552 C 0.12083 0.86964 0.16125
 H553 H 0.23763 0.82940 0.36016
 H554 H 0.21419 0.85116 0.27754
 H555 H 0.14123 0.79924 0.32350
 H556 H 0.16489 0.77672 0.40478
 H557 H 0.17154 0.84879 0.21049
 H558 H 0.12780 0.85445 0.30094
 H559 H 0.10893 0.90981 0.28380
 H560 H 0.08223 0.94326 0.22104
 H561 H 0.10343 0.88190 0.08125
 H562 H 0.13121 0.84880 0.14457
   
