data_POSCAR
  _audit_creation_date              2014-09-24
  _audit_creation_method            'ToBaCCo'
  _symmetry_space_group_name_H-M    'P1'
  _symmetry_Int_Tables_number       1
  _symmetry_cell_setting            triclinic
  loop_
  _symmetry_equiv_pos_as_xyz
 x,y,z
_cell_length_a 38.7072
_cell_length_b 38.5871
_cell_length_c 38.7022
_cell_angle_alpha 88.440900
_cell_angle_beta 97.530700
_cell_angle_gamma 67.968000
loop_
  _atom_site_label
  _atom_site_type_symbol
  _atom_site_fract_x
  _atom_site_fract_y
  _atom_site_fract_z
O1 O 0.53062 0.50759 0.02865
 O2 O 0.42998 0.52188 0.01825
 O3 O 0.49255 0.46347 0.02489
 O4 O 0.46769 0.56557 0.02264
 O5 O 0.46636 0.56819 -0.03455
 O6 O 0.48981 0.46622 -0.03246
 O7 O 0.42729 0.52483 -0.03901
 O8 O 0.52837 0.50899 -0.02866
 Cu9 Cu 0.48053 0.51431 0.02932
 Cu10 Cu 0.47758 0.51743 -0.03941
 C11 C 0.54663 0.50614 0.00175
 C12 C 0.41139 0.52536 -0.01215
 C13 C 0.49485 0.44745 -0.00346
 C14 C 0.46344 0.58424 -0.00622
 O15 O -0.01737 0.54760 0.48747
 O16 O -0.01329 0.45076 0.49213
 O17 O -0.01485 0.50017 0.53738
 O18 O -0.01562 0.49866 0.44218
 O19 O 0.04650 0.47787 0.45058
 O20 O 0.04737 0.47732 0.54571
 O21 O 0.04885 0.42929 0.49940
 O22 O 0.04472 0.52609 0.49660
 Cu23 Cu -0.02153 0.50136 0.48897
 Cu24 Cu 0.05309 0.47548 0.49893
 C25 C 0.01301 0.55353 0.49146
 C26 C 0.01846 0.42343 0.49624
 C27 C 0.01640 0.48905 0.55782
 C28 C 0.01536 0.48821 0.43007
 O29 O 0.50697 0.01216 0.55498
 O30 O 0.50567 0.01286 0.45949
 O31 O 0.46062 0.00819 0.50218
 O32 O 0.55193 0.01798 0.51254
 O33 O 0.58125 -0.04358 0.51796
 O34 O 0.48953 -0.05343 0.50689
 O35 O 0.53530 -0.04867 0.46482
 O36 O 0.53604 -0.04937 0.55998
 Cu37 Cu 0.50345 0.01898 0.50674
 Cu38 Cu 0.53847 -0.05495 0.51288
 C39 C 0.52140 -0.01879 0.57389
 C40 C 0.52040 -0.01786 0.44582
 C41 C 0.45936 -0.02421 0.50306
 C42 C 0.58225 -0.01104 0.51700
 C43 C 0.48484 -0.00002 0.01551
 C44 C 0.49070 0.02360 -0.00746
 C45 C 0.48968 0.01746 -0.04505
 C46 C 0.49583 0.05829 0.00299
 C47 C 0.48680 0.00553 0.05325
 C48 C 0.47957 -0.03443 0.00464
 C49 C 0.52265 -0.00399 -0.05803
 C50 C 0.52239 -0.00634 -0.09403
 C51 C 0.48920 0.01305 -0.11764
 C52 C 0.45601 0.03381 -0.10436
 C53 C 0.45630 0.03604 -0.06836
 C54 C 0.52796 0.06442 -0.00360
 C55 C 0.53124 0.09864 0.00256
 C56 C 0.50237 0.12748 0.01537
 C57 C 0.47061 0.12097 0.02278
 C58 C 0.46725 0.08678 0.01640
 C59 C 0.45375 0.01995 0.06831
 C60 C 0.45578 0.02347 0.10428
 C61 C 0.49094 0.01215 0.12584
 C62 C 0.52402 -0.00199 0.11057
 C63 C 0.52193 -0.00514 0.07452
 C64 C 0.44434 -0.03719 0.00356
 C65 C 0.44014 -0.07077 -0.00397
 C66 C 0.47106 -0.10204 -0.01080
 C67 C 0.50615 -0.09892 -0.01038
 C68 C 0.51042 -0.06550 -0.00240
 H69 H 0.54880 -0.01798 -0.04035
 H70 H 0.54849 -0.02213 -0.10347
 H71 H 0.42993 0.04868 -0.12187
 H72 H 0.43071 0.05293 -0.05865
 H73 H 0.55030 0.04290 -0.01405
 H74 H 0.55620 0.10273 -0.00305
 H75 H 0.44173 0.08308 0.02072
 H76 H 0.42639 0.02846 0.05223
 H77 H 0.42987 0.03415 0.11539
 H78 H 0.55145 -0.01062 0.12655
 H79 H 0.54769 -0.01641 0.06322
 H80 H 0.42018 -0.01351 0.00885
 H81 H 0.41275 -0.07237 -0.00437
 H82 H 0.53056 -0.12275 -0.01504
 H83 H 0.53800 -0.06413 -0.00092
 H84 H 0.44765 0.14288 0.03214
 C85 C -0.03299 0.51028 0.97449
 C86 C -0.00856 0.51379 1.00134
 C87 C 0.02629 0.51983 0.99624
 C88 C -0.01453 0.51006 1.03799
 C89 C -0.06766 0.50477 0.98048
 C90 C -0.02717 0.51294 0.93772
 C91 C 0.05386 0.49470 0.97890
 C92 C 0.08831 0.49858 0.97797
 C93 C 0.09605 0.52723 0.99491
 C94 C 0.06807 0.55280 1.01150
 C95 C 0.03362 0.54912 1.01216
 C96 C 0.00935 0.47816 1.05968
 C97 C 0.00647 0.47560 1.09514
 C98 C -0.02018 0.50509 1.10960
 C99 C -0.04468 0.53671 1.08755
 C100 C -0.04175 0.53923 1.05202
 C101 C -0.10103 0.53601 0.98120
 C102 C -0.13449 0.53123 0.98476
 C103 C -0.13527 0.49514 0.98675
 C104 C -0.10174 0.46385 0.98618
 C105 C -0.06808 0.46863 0.98339
 C106 C -0.03243 0.54753 0.92080
 C107 C -0.02897 0.55009 0.88537
 C108 C -0.01975 0.51796 0.86661
 C109 C -0.01389 0.48329 0.88389
 C110 C -0.01789 0.48088 0.91907
 H111 H 0.04938 0.47123 0.96731
 H112 H 0.10956 0.47820 0.96539
 H113 H 0.07309 0.57538 1.02445
 H114 H 0.01289 0.56876 1.02579
 H115 H 0.03062 0.45551 1.04919
 H116 H 0.02537 0.45069 1.11136
 H117 H -0.05983 0.56440 1.03573
 H118 H -0.10122 0.56410 0.97855
 H119 H -0.16006 0.55576 0.98479
 H120 H -0.10169 0.43576 0.98779
 H121 H -0.04253 0.44423 0.98290
 H122 H -0.03980 0.57255 0.93488
 H123 H -0.03348 0.57708 0.87261
 H124 H -0.00716 0.45822 0.86991
 H125 H -0.01372 0.45396 0.93175
 H126 H -0.06511 0.56008 1.09804
 C127 C 0.03515 -0.02897 0.50799
 C128 C 0.00275 0.00088 0.51018
 C129 C -0.03266 -0.00416 0.51445
 C130 C 0.00088 0.04010 0.50824
 C131 C 0.07166 -0.02471 0.50775
 C132 C 0.03582 -0.06754 0.50559
 C133 C -0.06580 0.01605 0.49133
 C134 C -0.09937 0.01179 0.49506
 C135 C -0.10042 -0.01269 0.52208
 C136 C -0.06728 -0.03273 0.54541
 C137 C -0.03372 -0.02825 0.54181
 C138 C 0.01346 0.05419 0.48069
 C139 C 0.01155 0.09110 0.47930
 C140 C -0.00376 0.11478 0.50501
 C141 C -0.01709 0.10090 0.53211
 C142 C -0.01476 0.06389 0.53371
 C143 C 0.08545 -0.00682 0.53407
 C144 C 0.11983 -0.00300 0.53340
 C145 C 0.14126 -0.01759 0.50676
 C146 C 0.12769 -0.03602 0.48080
 C147 C 0.09321 -0.03958 0.48132
 C148 C 0.06152 -0.09682 0.52925
 C149 C 0.06283 -0.13331 0.52707
 C150 C 0.03859 -0.14126 0.50103
 C151 C 0.01306 -0.11193 0.47714
 C152 C 0.01185 -0.07542 0.47927
 H153 H -0.06555 0.03485 0.47014
 H154 H -0.12443 0.02727 0.47651
 H155 H -0.06749 -0.05138 0.56673
 H156 H -0.00860 -0.04347 0.56039
 H157 H 0.02468 0.03665 0.46022
 H158 H 0.02149 0.10134 0.45786
 H159 H -0.02485 0.05366 0.55506
 H160 H 0.06964 0.00406 0.55515
 H161 H 0.12998 0.01082 0.55401
 H162 H 0.14354 -0.04725 0.45983
 H163 H 0.08311 -0.05360 0.46087
 H164 H 0.08033 -0.09130 0.54964
 H165 H 0.08249 -0.15527 0.54606
 H166 H -0.00553 -0.11735 0.45647
 H167 H -0.00760 -0.05333 0.46028
 H168 H -0.02878 0.11852 0.55236
 C169 C -0.36086 0.51337 1.03814
 C170 C -0.33895 0.50102 1.01099
 C171 C -0.35466 0.48727 0.98193
 C172 C -0.39175 0.48862 0.97923
 C173 C -0.41351 0.50234 1.00574
 C174 C -0.39740 0.51383 1.03550
 C175 C -0.33348 0.47260 0.95549
 C176 C -0.29693 0.47123 0.95708
 C177 C -0.28035 0.48566 0.98483
 C178 C -0.30217 0.50189 1.01165
 C179 C -0.28710 0.51969 1.03746
 C180 C -0.25203 0.52164 1.03714
 C181 C -0.22995 0.50497 1.01185
 C182 C -0.24320 0.48568 0.98596
 C183 C -0.21860 0.46725 0.96228
 C184 C -0.18332 0.46957 0.96332
 C185 C -0.17143 0.49045 0.98769
 C186 C -0.19472 0.50778 1.01213
 H187 H -0.35049 0.52251 1.06193
 H188 H -0.40372 0.47897 0.95637
 H189 H -0.41347 0.52418 1.05655
 H190 H -0.34529 0.46197 0.93323
 H191 H -0.28285 0.45992 0.93530
 H192 H -0.30243 0.53377 1.05764
 H193 H -0.24204 0.53637 1.05703
 H194 H -0.22555 0.45046 0.94289
 H195 H -0.16556 0.45569 0.94438
 H196 H -0.18527 0.52340 1.03149
 C197 C 0.31643 0.53061 0.94737
 C198 C 0.29845 0.53034 0.97695
 C199 C 0.31850 0.53092 1.01018
 C200 C 0.35548 0.52988 1.01352
 C201 C 0.37349 0.52878 0.98406
 C202 C 0.35313 0.52989 0.95094
 C203 C 0.30179 0.53211 1.04013
 C204 C 0.26553 0.53270 1.03805
 C205 C 0.24445 0.53148 1.00575
 C206 C 0.26147 0.52949 0.97476
 C207 C 0.24132 0.52581 0.94282
 C208 C 0.20582 0.52428 0.94108
 C209 C 0.18850 0.52704 0.97085
 C210 C 0.20722 0.53135 1.00354
 C211 C 0.18773 0.53546 1.03265
 C212 C 0.15184 0.53437 1.02949
 C213 C 0.13392 0.52914 0.99737
 C214 C 0.15246 0.52550 0.96809
 H215 H 0.30290 0.53155 0.92102
 H216 H 0.37034 0.52959 1.03939
 H217 H 0.36575 0.52956 0.92750
 H218 H 0.31699 0.53255 1.06562
 H219 H 0.25520 0.53319 1.06260
 H220 H 0.25260 0.52312 0.91860
 H221 H 0.19170 0.52098 0.91602
 H222 H 0.19913 0.53994 1.05825
 H223 H 0.13821 0.53711 1.05256
 H224 H 0.13855 0.52197 0.94301
 C225 C -0.02479 -0.34210 0.48463
 C226 C 0.00849 -0.33444 0.48953
 C227 C 0.04349 -0.36551 0.49462
 C228 C 0.04479 -0.40237 0.49496
 C229 C 0.01155 -0.40950 0.49040
 C230 C -0.02318 -0.37885 0.48508
 C231 C 0.07719 -0.35981 0.49954
 C232 C 0.07719 -0.32390 0.49991
 C233 C 0.04322 -0.29190 0.49534
 C234 C 0.00826 -0.29722 0.48979
 C235 C -0.02571 -0.26519 0.48486
 C236 C -0.02571 -0.22928 0.48570
 C237 C 0.00799 -0.22363 0.49148
 C238 C 0.04301 -0.25473 0.49630
 C239 C 0.07633 -0.24717 0.50214
 C240 C 0.07471 -0.21051 0.50342
 C241 C 0.04002 -0.18006 0.49887
 C242 C 0.00676 -0.18686 0.49271
 H243 H -0.05265 -0.32045 0.48054
 H244 H 0.07200 -0.42557 0.49904
 H245 H -0.04951 -0.38310 0.48138
 H246 H 0.10404 -0.38347 0.50332
 H247 H 0.10459 -0.32234 0.50394
 H248 H -0.05310 -0.26673 0.48030
 H249 H -0.05254 -0.20559 0.48192
 H250 H 0.10419 -0.26879 0.50596
 H251 H 0.10086 -0.20597 0.50774
 H252 H -0.02026 -0.16345 0.48955
 C253 C 0.05592 0.31766 0.49607
 C254 C 0.02323 0.30962 0.49718
 C255 C -0.01103 0.34016 0.49914
 C256 C -0.01243 0.37707 0.49871
 C257 C 0.02011 0.38448 0.49706
 C258 C 0.05425 0.35442 0.49605
 C259 C -0.04381 0.33382 0.50152
 C260 C -0.04344 0.29772 0.50253
 C261 C -0.01016 0.26628 0.50058
 C262 C 0.02345 0.27244 0.49678
 C263 C 0.05598 0.24133 0.49216
 C264 C 0.05604 0.20536 0.49205
 C265 C 0.02402 0.19870 0.49708
 C266 C -0.00948 0.22890 0.50182
 C267 C -0.04072 0.22022 0.50805
 C268 C -0.03873 0.18334 0.50900
 C269 C -0.00578 0.15388 0.50365
 C270 C 0.02547 0.16178 0.49761
 H271 H 0.08338 0.29624 0.49571
 H272 H -0.03896 0.40008 0.49991
 H273 H 0.07992 0.35927 0.49502
 H274 H -0.07011 0.35708 0.50286
 H275 H -0.07011 0.29554 0.50415
 H276 H 0.08188 0.24384 0.48783
 H277 H 0.08165 0.18239 0.48824
 H278 H -0.06695 0.24109 0.51288
 H279 H -0.06326 0.17785 0.51371
 H280 H 0.05131 0.13895 0.49407
 C281 C 0.53576 -0.05404 -0.33268
 C282 C 0.51802 -0.02083 -0.31643
 C283 C 0.50153 0.01332 -0.33802
 C284 C 0.50325 0.01392 -0.37407
 C285 C 0.52079 -0.01931 -0.38982
 C286 C 0.53701 -0.05320 -0.36857
 C287 C 0.48313 0.04684 -0.32365
 C288 C 0.48024 0.04740 -0.28831
 C289 C 0.49601 0.01426 -0.26556
 C290 C 0.51581 -0.02035 -0.27973
 C291 C 0.53295 -0.05322 -0.25670
 C292 C 0.53069 -0.05252 -0.22122
 C293 C 0.51102 -0.01924 -0.20712
 C294 C 0.49303 0.01462 -0.22903
 C295 C 0.47273 0.04739 -0.21332
 C296 C 0.47121 0.04655 -0.17749
 C297 C 0.48969 0.01317 -0.15595
 C298 C 0.50939 -0.01969 -0.17104
 H299 H 0.54861 -0.08134 -0.31860
 H300 H 0.49036 0.04047 -0.38991
 H301 H 0.55073 -0.07949 -0.37964
 H302 H 0.47059 0.07306 -0.34000
 H303 H 0.46568 0.07460 -0.27961
 H304 H 0.54888 -0.08017 -0.26514
 H305 H 0.54453 -0.07847 -0.20459
 H306 H 0.45758 0.07422 -0.22784
 H307 H 0.45605 0.07244 -0.16648
 H308 H 0.52333 -0.04581 -0.15466
 C309 C 0.54184 -0.05094 0.35695
 C310 C 0.52118 -0.01833 0.33404
 C311 C 0.49946 0.01449 0.34895
 C312 C 0.49954 0.01462 0.38529
 C313 C 0.52044 -0.01788 0.40754
 C314 C 0.54135 -0.05060 0.39293
 C315 C 0.47759 0.04705 0.32755
 C316 C 0.47612 0.04775 0.29149
 C317 C 0.49709 0.01587 0.27523
 C318 C 0.52092 -0.01735 0.29697
 C319 C 0.54399 -0.04833 0.28095
 C320 C 0.54307 -0.04744 0.24498
 C321 C 0.51887 -0.01595 0.22334
 C322 C 0.49531 0.01614 0.23798
 C323 C 0.47051 0.04689 0.21455
 C324 C 0.46941 0.04561 0.17839
 C325 C 0.49305 0.01394 0.16426
 C326 C 0.51788 -0.01666 0.18697
 H327 H 0.55823 -0.07744 0.34797
 H328 H 0.48292 0.04004 0.39622
 H329 H 0.55761 -0.07621 0.40941
 H330 H 0.46108 0.07229 0.33880
 H331 H 0.45859 0.07412 0.27708
 H332 H 0.56370 -0.07373 0.29557
 H333 H 0.56134 -0.07194 0.23394
 H334 H 0.45103 0.07210 0.22315
 H335 H 0.44999 0.06964 0.16135
 H336 H 0.53580 -0.04157 0.17620
 C337 C 0.43947 -0.31783 0.02324
 C338 C 0.44916 -0.29925 -0.00372
 C339 C 0.46246 -0.31983 -0.03233
 C340 C 0.46526 -0.35715 -0.03383
 C341 C 0.45641 -0.37529 -0.00646
 C342 C 0.44334 -0.35521 0.02190
 C343 C 0.47384 -0.30344 -0.05890
 C344 C 0.47389 -0.26756 -0.05710
 C345 C 0.46173 -0.24615 -0.02883
 C346 C 0.44734 -0.26152 -0.00266
 C347 C 0.43163 -0.23867 0.02366
 C348 C 0.43167 -0.20281 0.02548
 C349 C 0.44793 -0.18843 0.00163
 C350 C 0.46337 -0.20984 -0.02583
 C351 C 0.48083 -0.19437 -0.04846
 C352 C 0.48286 -0.15936 -0.04378
 C353 C 0.46726 -0.13835 -0.01678
 C354 C 0.44945 -0.15292 0.00558
 H355 H 0.43012 -0.30480 0.04639
 H356 H 0.47593 -0.37262 -0.05568
 H357 H 0.43647 -0.36862 0.04348
 H358 H 0.48364 -0.31886 -0.08104
 H359 H 0.48321 -0.25713 -0.07869
 H360 H 0.41846 -0.24750 0.04312
 H361 H 0.41942 -0.18640 0.04627
 H362 H 0.49420 -0.20901 -0.06940
 H363 H 0.49680 -0.14865 -0.06137
 H364 H 0.43790 -0.13710 0.02696
 C365 C 0.51596 0.34994 -0.03327
 C366 C 0.51106 0.33025 -0.00407
 C367 C 0.50183 0.35002 0.02595
 C368 C 0.49808 0.38768 0.02649
 C369 C 0.50227 0.40687 -0.00294
 C370 C 0.51144 0.38754 -0.03266
 C371 C 0.49560 0.33240 0.05508
 C372 C 0.49699 0.29593 0.05480
 C373 C 0.50529 0.27519 0.02536
 C374 C 0.51395 0.29212 -0.00400
 C375 C 0.52516 0.27037 -0.03230
 C376 C 0.52634 0.23401 -0.03271
 C377 C 0.51601 0.21787 -0.00523
 C378 C 0.50528 0.23808 0.02424
 C379 C 0.49411 0.22052 0.05092
 C380 C 0.49359 0.18466 0.04819
 C381 C 0.50440 0.16491 0.01905
 C382 C 0.51587 0.18166 -0.00742
 H383 H 0.52221 0.33756 -0.05744
 H384 H 0.49059 0.40244 0.04954
 H385 H 0.51474 0.40168 -0.05582
 H386 H 0.48890 0.34724 0.07824
 H387 H 0.49175 0.28461 0.07839
 H388 H 0.53369 0.28048 -0.05460
 H389 H 0.53495 0.21852 -0.05512
 H390 H 0.48479 0.23395 0.07391
 H391 H 0.48468 0.17228 0.06903
 H392 H 0.52360 0.16689 -0.03042
 C393 C -0.34543 0.03326 0.51974
 C394 C -0.31085 0.00174 0.52426
 C395 C -0.31240 -0.03432 0.52773
 C396 C -0.34718 -0.03830 0.52588
 C397 C -0.38108 -0.00678 0.52056
 C398 C -0.37978 0.02894 0.51790
 C399 C -0.27931 -0.06634 0.53265
 C400 C -0.24446 -0.06364 0.53364
 C401 C -0.24125 -0.02854 0.52956
 C402 C -0.27500 0.00473 0.52501
 C403 C -0.27183 0.03984 0.52081
 C404 C -0.23720 0.04250 0.52029
 C405 C -0.20422 0.01045 0.52411
 C406 C -0.20549 -0.02556 0.52930
 C407 C -0.17082 -0.05703 0.53359
 C408 C -0.13683 -0.05274 0.53183
 C409 C -0.13615 -0.01712 0.52576
 C410 C -0.16991 0.01436 0.52238
 H411 H -0.34720 0.06174 0.51731
 H412 H -0.34780 -0.06612 0.52820
 H413 H -0.40552 0.05385 0.51399
 H414 H -0.28034 -0.09395 0.53550
 H415 H -0.22053 -0.08987 0.53729
 H416 H -0.29571 0.06611 0.51741
 H417 H -0.23628 0.07008 0.51655
 H418 H -0.16881 -0.08542 0.53805
 H419 H -0.11103 -0.07752 0.53443
 H420 H -0.16945 0.04210 0.51833
 C421 C 0.38483 -0.06611 0.49633
 C422 C 0.35147 -0.03446 0.49819
 C423 C 0.35471 0.00077 0.50127
 C424 C 0.38970 0.00392 0.50193
 C425 C 0.42239 -0.02772 0.50035
 C426 C 0.41960 -0.06268 0.49750
 C427 C 0.32313 0.03275 0.50409
 C428 C 0.28829 0.03061 0.50483
 C429 C 0.28347 -0.00378 0.50231
 C430 C 0.31530 -0.03662 0.49774
 C431 C 0.30983 -0.07040 0.49264
 C432 C 0.27482 -0.07239 0.49287
 C433 C 0.24396 -0.04107 0.49869
 C434 C 0.24777 -0.00636 0.50385
 C435 C 0.21571 0.02417 0.51083
 C436 C 0.18141 0.02036 0.51191
 C437 C 0.17780 -0.01380 0.50605
 C438 C 0.20923 -0.04443 0.49951
 H439 H 0.38531 -0.09409 0.49472
 H440 H 0.39154 0.03112 0.50446
 H441 H 0.44447 -0.08764 0.49640
 H442 H 0.32543 0.05980 0.50615
 H443 H 0.26547 0.05675 0.50688
 H444 H 0.33199 -0.09592 0.48781
 H445 H 0.27197 -0.09893 0.48871
 H446 H 0.21615 0.05127 0.51607
 H447 H 0.15743 0.04444 0.51697
 H448 H 0.20677 -0.07119 0.49561
 C449 C 0.04969 0.47593 1.34233
 C450 C 0.01572 0.48776 1.31830
 C451 C -0.01865 0.49985 1.33218
 C452 C -0.01863 0.49984 1.36850
 C453 C 0.01530 0.48804 1.39181
 C454 C 0.04934 0.47612 1.37831
 C455 C -0.05295 0.51199 1.30982
 C456 C -0.05415 0.51273 1.27380
 C457 C -0.02085 0.50116 1.25850
 C458 C 0.01470 0.48817 1.28114
 C459 C 0.04804 0.47601 1.26589
 C460 C 0.04690 0.47682 1.22994
 C461 C 0.01262 0.48976 1.20757
 C462 C -0.02183 0.50215 1.22131
 C463 C -0.05575 0.51524 1.19707
 C464 C -0.05518 0.51598 1.16103
 C465 C -0.02098 0.50364 1.14782
 C466 C 0.01279 0.49054 1.17134
 H467 H 0.07715 0.46649 1.33439
 H468 H -0.04521 0.50919 1.37860
 H469 H 0.07603 0.46687 1.39564
 H470 H -0.07931 0.52119 1.32030
 H471 H -0.08189 0.52252 1.25866
 H472 H 0.07582 0.46550 1.28099
 H473 H 0.07329 0.46724 1.21952
 H474 H -0.08326 0.52528 1.20493
 H475 H -0.08169 0.52601 1.14338
 H476 H 0.03945 0.48159 1.16140
 C477 C 0.04958 0.46889 0.65531
 C478 C 0.01751 0.49185 0.66951
 C479 C -0.01469 0.51484 0.64575
 C480 C -0.01506 0.51333 0.60949
 C481 C 0.01675 0.49001 0.59600
 C482 C 0.04913 0.46820 0.61921
 C483 C -0.04639 0.53935 0.65821
 C484 C -0.04691 0.54193 0.69385
 C485 C -0.01589 0.51927 0.71867
 C486 C 0.01639 0.49298 0.70631
 C487 C 0.04602 0.46804 0.73108
 C488 C 0.04434 0.46876 0.76666
 C489 C 0.01361 0.49485 0.77915
 C490 C -0.01653 0.52118 0.75549
 C491 C -0.04607 0.54829 0.76983
 C492 C -0.04642 0.54783 0.80587
 C493 C -0.01753 0.52046 0.82879
 C494 C 0.01270 0.49441 0.81529
 H495 H 0.07575 0.45162 0.67129
 H496 H -0.04003 0.53087 0.59170
 H497 H 0.07424 0.45024 0.60943
 H498 H -0.07109 0.55697 0.64017
 H499 H -0.07270 0.56130 0.70111
 H500 H 0.07057 0.44664 0.72379
 H501 H 0.06746 0.44857 0.78464
 H502 H -0.06923 0.57036 0.75399
 H503 H -0.06996 0.56839 0.81580
 H504 H 0.03555 0.47362 0.83305
   
