data_POSCAR
  _audit_creation_date              2014-09-24
  _audit_creation_method            'ToBaCCo'
  _symmetry_space_group_name_H-M    'P1'
  _symmetry_Int_Tables_number       1
  _symmetry_cell_setting            triclinic
  loop_
  _symmetry_equiv_pos_as_xyz
 x,y,z
_cell_length_a 57.8849
_cell_length_b 56.6845
_cell_length_c 56.4093
_cell_angle_alpha 89.766700
_cell_angle_beta 89.831700
_cell_angle_gamma 89.999200
loop_
  _atom_site_label
  _atom_site_type_symbol
  _atom_site_fract_x
  _atom_site_fract_y
  _atom_site_fract_z
C1 C 0.27038 0.24460 0.23985
 C2 C 0.26011 0.23406 0.25979
 C3 C 0.24017 0.24354 0.26937
 C4 C 0.23012 0.26360 0.25903
 C5 C 0.24025 0.27399 0.23936
 C6 C 0.26048 0.26438 0.22965
 C7 C 0.28983 0.23926 0.22685
 N8 N 0.29194 0.25525 0.20895
 C9 C 0.27401 0.27067 0.21054
 C10 C 0.22688 0.29312 0.23321
 N11 N 0.20883 0.29455 0.24862
 C12 C 0.21070 0.27651 0.26446
 C13 C 0.23416 0.22980 0.28860
 N14 N 0.24993 0.21216 0.29085
 C15 C 0.26585 0.21465 0.27326
 H16 H 0.30140 0.22458 0.23001
 H17 H 0.27116 0.28556 0.19884
 H18 H 0.22992 0.30493 0.21840
 H19 H 0.19897 0.27319 0.27907
 H20 H 0.21923 0.23230 0.29991
 H21 H 0.28071 0.20336 0.27061
 C22 C 0.73009 -0.24279 0.23810
 C23 C 0.74057 -0.23202 0.25767
 C24 C 0.76088 -0.24112 0.26676
 C25 C 0.77105 -0.26100 0.25632
 C26 C 0.76066 -0.27164 0.23716
 C27 C 0.74014 -0.26232 0.22784
 C28 C 0.71035 -0.23780 0.22552
 N29 N 0.70813 -0.25371 0.20755
 C30 C 0.72649 -0.26877 0.20904
 C31 C 0.77404 -0.29073 0.23104
 N32 N 0.79257 -0.29198 0.24590
 C33 C 0.79074 -0.27362 0.26138
 C34 C 0.76698 -0.22735 0.28577
 N35 N 0.75093 -0.21005 0.28838
 C36 C 0.73472 -0.21277 0.27121
 H37 H 0.69900 -0.22306 0.22900
 H38 H 0.72968 -0.28379 0.19775
 H39 H 0.77058 -0.30237 0.21633
 H40 H 0.80232 -0.26990 0.27590
 H41 H 0.78215 -0.22962 0.29673
 H42 H 0.71959 -0.20179 0.26895
 C43 C 0.73178 0.24115 0.76171
 C44 C 0.74224 0.23069 0.74190
 C45 C 0.76248 0.23999 0.73272
 C46 C 0.77260 0.25979 0.74331
 C47 C 0.76225 0.27010 0.76274
 C48 C 0.74179 0.26058 0.77214
 C49 C 0.71207 0.23596 0.77435
 N50 N 0.70981 0.25165 0.79251
 C51 C 0.72813 0.26676 0.79110
 C52 C 0.77558 0.28914 0.76902
 N53 N 0.79403 0.29073 0.75397
 C54 C 0.79219 0.27260 0.73822
 C55 C 0.76858 0.22644 0.71350
 N56 N 0.75260 0.20908 0.71087
 C57 C 0.73644 0.21156 0.72821
 H58 H 0.70074 0.22125 0.77074
 H59 H 0.73128 0.28168 0.80253
 H60 H 0.77211 0.30052 0.78395
 H61 H 0.80371 0.26913 0.72352
 H62 H 0.78371 0.22889 0.70243
 H63 H 0.72137 0.20047 0.73052
 C64 C 0.27053 -0.24530 0.76169
 C65 C 0.26000 -0.23442 0.74213
 C66 C 0.23969 -0.24347 0.73308
 C67 C 0.22958 -0.26346 0.74354
 C68 C 0.24001 -0.27422 0.76270
 C69 C 0.26054 -0.26493 0.77199
 C70 C 0.29026 -0.24033 0.77423
 N71 N 0.29253 -0.25632 0.79224
 C72 C 0.27422 -0.27143 0.79081
 C73 C 0.22665 -0.29336 0.76887
 N74 N 0.20809 -0.29451 0.75405
 C75 C 0.20989 -0.27605 0.73855
 C76 C 0.23352 -0.22953 0.71410
 N77 N 0.24954 -0.21217 0.71148
 C78 C 0.26578 -0.21503 0.72861
 H79 H 0.30154 -0.22552 0.77073
 H80 H 0.27107 -0.28651 0.80216
 H81 H 0.23014 -0.30509 0.78360
 H82 H 0.19827 -0.27223 0.72405
 H83 H 0.21834 -0.23172 0.70317
 H84 H 0.28089 -0.20403 0.73087
 C85 C 0.72988 -0.24469 0.76041
 C86 C 0.74029 -0.23398 0.74063
 C87 C 0.76059 -0.24307 0.73146
 C88 C 0.77082 -0.26289 0.74203
 C89 C 0.76054 -0.27344 0.76145
 C90 C 0.74001 -0.26415 0.77083
 C91 C 0.71017 -0.23969 0.77307
 N92 N 0.70803 -0.25552 0.79126
 C93 C 0.72642 -0.27053 0.78983
 C94 C 0.77402 -0.29241 0.76774
 N95 N 0.79251 -0.29370 0.75271
 C96 C 0.79053 -0.27546 0.73697
 C97 C 0.76667 -0.22927 0.71231
 N98 N 0.75061 -0.21196 0.70971
 C99 C 0.73442 -0.21472 0.72700
 H100 H 0.69878 -0.22499 0.76950
 H101 H 0.72967 -0.28549 0.80130
 H102 H 0.77065 -0.30394 0.78267
 H103 H 0.80204 -0.27176 0.72229
 H104 H 0.78185 -0.23149 0.70129
 H105 H 0.71932 -0.20370 0.72934
 C106 C 0.26940 0.24088 0.76340
 C107 C 0.25925 0.23068 0.74337
 C108 C 0.23916 0.24008 0.73409
 C109 C 0.22885 0.25972 0.74483
 C110 C 0.23884 0.26972 0.76464
 C111 C 0.25920 0.26012 0.77405
 C112 C 0.28900 0.23560 0.77606
 N113 N 0.29103 0.25108 0.79442
 C114 C 0.27264 0.26611 0.79316
 C115 C 0.22534 0.28861 0.77110
 N116 N 0.20735 0.29029 0.75575
 C117 C 0.20937 0.27262 0.73965
 C118 C 0.23332 0.22673 0.71469
 N119 N 0.24931 0.20937 0.71206
 C120 C 0.26524 0.21168 0.72955
 H121 H 0.30045 0.22102 0.77228
 H122 H 0.26935 0.28088 0.80475
 H123 H 0.22830 0.30016 0.78602
 H124 H 0.19776 0.26961 0.72496
 H125 H 0.21831 0.22925 0.70355
 H126 H 0.28024 0.20052 0.73192
 C127 C 0.27140 -0.24322 0.24027
 C128 C 0.26110 -0.23255 0.26005
 C129 C 0.24082 -0.24163 0.26936
 C130 C 0.23050 -0.26139 0.25892
 C131 C 0.24068 -0.27190 0.23952
 C132 C 0.26118 -0.26262 0.22999
 C133 C 0.29106 -0.23823 0.22748
 N134 N 0.29308 -0.25401 0.20937
 C135 C 0.27466 -0.26898 0.21096
 C136 C 0.22712 -0.29081 0.23337
 N137 N 0.20869 -0.29210 0.24848
 C138 C 0.21078 -0.27392 0.26413
 C139 C 0.23485 -0.22791 0.28847
 N140 N 0.25095 -0.21064 0.29093
 C141 C 0.26706 -0.21335 0.27358
 H142 H 0.30251 -0.22357 0.23092
 H143 H 0.27132 -0.28391 0.19961
 H144 H 0.23040 -0.30228 0.21847
 H145 H 0.19934 -0.27024 0.27884
 H146 H 0.21971 -0.23014 0.29957
 H147 H 0.28218 -0.20236 0.27114
 C148 C 0.73137 0.24381 0.23762
 C149 C 0.74194 0.23294 0.25714
 C150 C 0.76210 0.24220 0.26634
 C151 C 0.77204 0.26235 0.25604
 C152 C 0.76159 0.27312 0.23691
 C153 C 0.74117 0.26372 0.22752
 C154 C 0.71173 0.23871 0.22497
 N155 N 0.70942 0.25497 0.20735
 C156 C 0.72738 0.27034 0.20881
 C157 C 0.77482 0.29237 0.23086
 N158 N 0.79333 0.29361 0.24575
 C159 C 0.79159 0.27508 0.26119
 C160 C 0.76831 0.22828 0.28532
 N161 N 0.75246 0.21075 0.28781
 C162 C 0.73629 0.21346 0.27059
 H163 H 0.70019 0.22399 0.22811
 H164 H 0.73012 0.28538 0.19726
 H165 H 0.77128 0.30411 0.21616
 H166 H 0.80317 0.27126 0.27570
 H167 H 0.78339 0.23064 0.29636
 H168 H 0.72128 0.20233 0.26825
 O169 O 0.26869 0.02299 0.47796
 O170 O 0.26862 -0.02321 0.52406
 O171 O 0.26880 -0.02302 0.47798
 O172 O 0.26860 0.02280 0.52402
 O173 O 0.23049 0.02267 0.52411
 O174 O 0.23070 -0.02300 0.47789
 O175 O 0.23052 -0.02319 0.52413
 O176 O 0.23058 0.02286 0.47790
 Cu177 Cu 0.27250 -0.00011 0.50101
 Cu178 Cu 0.22675 -0.00018 0.50101
 C179 C 0.24964 0.03084 0.47003
 C180 C 0.24956 -0.03111 0.53200
 C181 C 0.24979 -0.03085 0.47003
 C182 C 0.24951 0.03058 0.53195
 O183 O 0.73312 0.02293 0.52233
 O184 O 0.73286 -0.02292 0.47626
 O185 O 0.73284 -0.02309 0.52233
 O186 O 0.73312 0.02307 0.47624
 O187 O 0.77123 0.02277 0.47606
 O188 O 0.77095 -0.02324 0.52231
 O189 O 0.77097 -0.02307 0.47608
 O190 O 0.77122 0.02263 0.52230
 Cu191 Cu 0.72917 0.00002 0.49930
 Cu192 Cu 0.77491 -0.00025 0.49918
 C193 C 0.75221 0.03062 0.53022
 C194 C 0.75187 -0.03083 0.46825
 C195 C 0.75185 -0.03107 0.53022
 C196 C 0.75222 0.03080 0.46823
 O197 O 0.47811 0.27458 0.02267
 O198 O 0.52299 0.27389 -0.02374
 O199 O 0.47813 0.27381 -0.02355
 O200 O 0.52307 0.27465 0.02251
 O201 O 0.52316 0.23574 0.02328
 O202 O 0.47806 0.23489 -0.02256
 O203 O 0.52320 0.23497 -0.02276
 O204 O 0.47815 0.23567 0.02344
 Cu205 Cu 0.50057 0.27814 -0.00060
 Cu206 Cu 0.50066 0.23142 0.00042
 C207 C 0.47040 0.25524 0.03097
 C208 C 0.53080 0.25431 -0.03116
 C209 C 0.47037 0.25420 -0.03088
 C210 C 0.53083 0.25534 0.03076
 O211 O 0.52271 0.72381 0.02330
 O212 O 0.47784 0.72342 -0.02287
 O213 O 0.52271 0.72352 -0.02299
 O214 O 0.47786 0.72373 0.02343
 O215 O 0.47768 0.76266 0.02289
 O216 O 0.52275 0.76245 -0.02325
 O217 O 0.47764 0.76235 -0.02312
 O218 O 0.52277 0.76273 0.02275
 Cu219 Cu 0.50029 0.71972 0.00025
 Cu220 Cu 0.50020 0.76645 -0.00023
 C221 C 0.53044 0.74334 0.03090
 C222 C 0.47004 0.74283 -0.03086
 C223 C 0.53044 0.74296 -0.03103
 C224 C 0.47008 0.74324 0.03108
 O225 O 0.02227 0.47877 0.26557
 O226 O -0.02290 0.52450 0.26522
 O227 O -0.02277 0.47877 0.26506
 O228 O 0.02225 0.52460 0.26572
 O229 O 0.02261 0.52508 0.22660
 O230 O -0.02208 0.47888 0.22595
 O231 O -0.02221 0.52496 0.22610
 O232 O 0.02285 0.47908 0.22647
 Cu233 Cu -0.00033 0.50164 0.26931
 Cu234 Cu 0.00034 0.50202 0.22236
 C235 C 0.03031 0.47109 0.24609
 C236 C -0.03028 0.53255 0.24560
 C237 C -0.03012 0.47097 0.24539
 C238 C 0.03012 0.53270 0.24628
 O239 O 0.02336 0.52204 0.73610
 O240 O -0.02207 0.47657 0.73627
 O241 O -0.02180 0.52236 0.73594
 O242 O 0.02296 0.47624 0.73647
 O243 O 0.02288 0.47655 0.77558
 O244 O -0.02210 0.52247 0.77506
 O245 O -0.02203 0.47639 0.77538
 O246 O 0.02274 0.52259 0.77521
 Cu247 Cu 0.00064 0.49931 0.73228
 Cu248 Cu 0.00034 0.49951 0.77923
 C249 C 0.03078 0.53013 0.75562
 C250 C -0.02976 0.46863 0.75585
 C251 C -0.02964 0.53028 0.75540
 C252 C 0.03060 0.46850 0.75611
 C253 C 0.34535 0.25618 0.15661
 C254 C 0.32296 0.26409 0.15108
 C255 C 0.30551 0.26392 0.16826
 C256 C 0.30999 0.25569 0.19132
 C257 C 0.33234 0.24779 0.19688
 C258 C 0.34983 0.24811 0.17975
 C259 C 0.36389 0.25621 0.13829
 C260 C 0.38004 0.23771 0.13724
 C261 C 0.39742 0.23767 0.11999
 C262 C 0.39902 0.25606 0.10327
 C263 C 0.38288 0.27457 0.10432
 C264 C 0.36557 0.27466 0.12165
 C265 C 0.41739 0.25588 0.08476
 C266 C 0.42835 0.27692 0.07773
 C267 C 0.44552 0.27673 0.06025
 C268 C 0.45223 0.25547 0.04950
 C269 C 0.44134 0.23442 0.05657
 C270 C 0.42408 0.23463 0.07394
 H271 H 0.31880 0.27003 0.13334
 H272 H 0.28838 0.26979 0.16338
 H273 H 0.33638 0.24171 0.21459
 H274 H 0.36696 0.24231 0.18475
 H275 H 0.37910 0.22306 0.14958
 H276 H 0.40974 0.22329 0.11990
 H277 H 0.38343 0.28887 0.09156
 H278 H 0.35360 0.28933 0.12212
 H279 H 0.42388 0.29354 0.08595
 H280 H 0.45366 0.29323 0.05528
 H281 H 0.44601 0.21777 0.04853
 H282 H 0.41574 0.21817 0.07863
 C283 C 0.65511 0.74478 0.15638
 C284 C 0.65254 0.75790 0.17728
 C285 C 0.67012 0.75851 0.19420
 C286 C 0.69080 0.74570 0.19095
 C287 C 0.69313 0.73233 0.17000
 C288 C 0.67566 0.73205 0.15296
 C289 C 0.63652 0.74447 0.13815
 C290 C 0.63205 0.72397 0.12498
 C291 C 0.61486 0.72379 0.10763
 C292 C 0.60147 0.74403 0.10318
 C293 C 0.60579 0.76446 0.11652
 C294 C 0.62317 0.76472 0.13366
 C295 C 0.58316 0.74386 0.08466
 C296 C 0.57878 0.76409 0.07085
 C297 C 0.56156 0.76396 0.05353
 C298 C 0.54852 0.74351 0.04937
 C299 C 0.55293 0.72323 0.06301
 C300 C 0.56994 0.72345 0.08056
 H301 H 0.63674 0.76750 0.18082
 H302 H 0.66695 0.76856 0.21011
 H303 H 0.70873 0.72262 0.16610
 H304 H 0.67852 0.72216 0.13684
 H305 H 0.64172 0.70792 0.12815
 H306 H 0.61228 0.70783 0.09751
 H307 H 0.59562 0.78027 0.11387
 H308 H 0.62630 0.78094 0.14319
 H309 H 0.58889 0.77998 0.07314
 H310 H 0.55868 0.77981 0.04316
 H311 H 0.54303 0.70726 0.06033
 H312 H 0.57248 0.70768 0.09111
 C313 C 0.65653 0.25275 -0.15625
 C314 C 0.67706 0.26546 -0.15275
 C315 C 0.69463 0.26528 -0.16979
 C316 C 0.69242 0.25207 -0.19084
 C317 C 0.67176 0.23924 -0.19416
 C318 C 0.65409 0.23973 -0.17723
 C319 C 0.63780 0.25301 -0.13808
 C320 C 0.62441 0.23275 -0.13367
 C321 C 0.60685 0.23300 -0.11661
 C322 C 0.60239 0.25343 -0.10328
 C323 C 0.61583 0.27366 -0.10764
 C324 C 0.63320 0.27350 -0.12489
 C325 C 0.58388 0.25360 -0.08487
 C326 C 0.57060 0.27401 -0.08088
 C327 C 0.55345 0.27426 -0.06338
 C328 C 0.54894 0.25403 -0.04968
 C329 C 0.56201 0.23356 -0.05377
 C330 C 0.57937 0.23339 -0.07104
 H331 H 0.67981 0.27526 -0.13657
 H332 H 0.71020 0.27498 -0.16584
 H333 H 0.66869 0.22929 -0.21013
 H334 H 0.63832 0.23016 -0.18082
 H335 H 0.62763 0.21655 -0.14321
 H336 H 0.59666 0.21719 -0.11402
 H337 H 0.61315 0.28961 -0.09752
 H338 H 0.64291 0.28954 -0.12801
 H339 H 0.57324 0.28975 -0.09146
 H340 H 0.54353 0.29025 -0.06077
 H341 H 0.55905 0.21775 -0.04335
 H342 H 0.58950 0.21750 -0.07327
 C343 C 0.34547 0.74244 -0.15648
 C344 C 0.34803 0.75552 -0.17752
 C345 C 0.33049 0.75600 -0.19448
 C346 C 0.30986 0.74310 -0.19115
 C347 C 0.30757 0.72971 -0.17010
 C348 C 0.32500 0.72955 -0.15301
 C349 C 0.36398 0.74237 -0.13817
 C350 C 0.36857 0.72198 -0.12468
 C351 C 0.38572 0.72204 -0.10728
 C352 C 0.39896 0.74241 -0.10309
 C353 C 0.39451 0.76272 -0.11673
 C354 C 0.37717 0.76275 -0.13391
 C355 C 0.41724 0.74250 -0.08454
 C356 C 0.42149 0.76287 -0.07106
 C357 C 0.43873 0.76302 -0.05378
 C358 C 0.45192 0.74270 -0.04930
 C359 C 0.44763 0.72227 -0.06259
 C360 C 0.43061 0.72222 -0.08012
 H361 H 0.36379 0.76520 -0.18111
 H362 H 0.33364 0.76604 -0.21048
 H363 H 0.29202 0.71990 -0.16617
 H364 H 0.32216 0.71967 -0.13680
 H365 H 0.35903 0.70585 -0.12766
 H366 H 0.38839 0.70616 -0.09694
 H367 H 0.40455 0.77863 -0.11429
 H368 H 0.37395 0.77889 -0.14367
 H369 H 0.41127 0.77867 -0.07360
 H370 H 0.44152 0.77897 -0.04367
 H371 H 0.45765 0.70640 -0.05965
 H372 H 0.42816 0.70635 -0.09041
 C373 C 0.15557 0.34665 0.24754
 C374 C 0.17807 0.35220 0.23987
 C375 C 0.19548 0.33512 0.24014
 C376 C 0.19085 0.31212 0.24823
 C377 C 0.16840 0.30656 0.25596
 C378 C 0.15095 0.32359 0.25555
 C379 C 0.13703 0.36483 0.24725
 C380 C 0.12059 0.36586 0.26561
 C381 C 0.10319 0.38295 0.26535
 C382 C 0.10186 0.39952 0.24678
 C383 C 0.11831 0.39850 0.22843
 C384 C 0.13565 0.38134 0.22863
 C385 C 0.08343 0.41782 0.24660
 C386 C 0.07281 0.42463 0.22525
 C387 C 0.05560 0.44194 0.22508
 C388 C 0.04851 0.45274 0.24626
 C389 C 0.05905 0.44588 0.26762
 C390 C 0.07635 0.42868 0.26778
 H391 H 0.18234 0.36988 0.23400
 H392 H 0.21269 0.34002 0.23442
 H393 H 0.16424 0.28890 0.26194
 H394 H 0.13373 0.31859 0.26118
 H395 H 0.12130 0.35361 0.28036
 H396 H 0.09063 0.38304 0.27961
 H397 H 0.11797 0.41115 0.21401
 H398 H 0.14785 0.38087 0.21406
 H399 H 0.07758 0.41637 0.20868
 H400 H 0.04774 0.44673 0.20834
 H401 H 0.05407 0.45396 0.28423
 H402 H 0.08441 0.42415 0.28448
 C403 C 0.15555 0.65410 0.75518
 C404 C 0.15232 0.67547 0.74308
 C405 C 0.16979 0.69248 0.74253
 C406 C 0.19090 0.68877 0.75452
 C407 C 0.19378 0.66726 0.76693
 C408 C 0.17643 0.65011 0.76702
 C409 C 0.13719 0.63594 0.75534
 C410 C 0.14235 0.61250 0.74933
 C411 C 0.12496 0.59540 0.74916
 C412 C 0.10220 0.60135 0.75545
 C413 C 0.09709 0.62473 0.76170
 C414 C 0.11440 0.64193 0.76143
 C415 C 0.08384 0.58319 0.75546
 C416 C 0.06934 0.58033 0.77525
 C417 C 0.05220 0.56296 0.77539
 C418 C 0.04896 0.54843 0.75554
 C419 C 0.06333 0.55150 0.73564
 C420 C 0.08076 0.56857 0.73569
 H421 H 0.13631 0.67891 0.73378
 H422 H 0.16629 0.70875 0.73318
 H423 H 0.20966 0.66312 0.77605
 H424 H 0.17927 0.63372 0.77653
 H425 H 0.15978 0.60752 0.74445
 H426 H 0.12930 0.57744 0.74440
 H427 H 0.07964 0.62973 0.76649
 H428 H 0.11007 0.65988 0.76623
 H429 H 0.07150 0.59134 0.79074
 H430 H 0.04132 0.56103 0.79093
 H431 H 0.06128 0.54050 0.72013
 H432 H 0.09167 0.57056 0.72018
 C433 C -0.15491 0.65662 0.24499
 C434 C -0.15169 0.67792 0.25704
 C435 C -0.16915 0.69494 0.25751
 C436 C -0.19024 0.69131 0.24549
 C437 C -0.19311 0.66987 0.23312
 C438 C -0.17578 0.65271 0.23311
 C439 C -0.13658 0.63844 0.24493
 C440 C -0.14179 0.61499 0.25104
 C441 C -0.12442 0.59786 0.25132
 C442 C -0.10165 0.60380 0.24505
 C443 C -0.09649 0.62719 0.23869
 C444 C -0.11378 0.64442 0.23885
 C445 C -0.08331 0.58562 0.24521
 C446 C -0.06877 0.58277 0.22547
 C447 C -0.05164 0.56538 0.22551
 C448 C -0.04846 0.55085 0.24548
 C449 C -0.06287 0.55391 0.26532
 C450 C -0.08029 0.57099 0.26509
 H451 H -0.13570 0.68129 0.26637
 H452 H -0.16566 0.71115 0.26684
 H453 H -0.20898 0.66579 0.22399
 H454 H -0.17861 0.63638 0.22364
 H455 H -0.15924 0.61002 0.25591
 H456 H -0.12880 0.57989 0.25616
 H457 H -0.07902 0.63218 0.23391
 H458 H -0.10941 0.66238 0.23397
 H459 H -0.07089 0.59379 0.20989
 H460 H -0.04073 0.56345 0.21000
 H461 H -0.06086 0.54290 0.28092
 H462 H -0.09123 0.57299 0.28056
 C463 C -0.15356 0.34249 0.75521
 C464 C -0.15064 0.32158 0.74227
 C465 C -0.16802 0.30447 0.74174
 C466 C -0.18885 0.30754 0.75446
 C467 C -0.19153 0.32850 0.76764
 C468 C -0.17426 0.34572 0.76784
 C469 C -0.13518 0.36089 0.75544
 C470 C -0.13101 0.37428 0.77593
 C471 C -0.11398 0.39176 0.77602
 C472 C -0.10047 0.39616 0.75572
 C473 C -0.10450 0.38262 0.73530
 C474 C -0.12171 0.36533 0.73511
 C475 C -0.08232 0.41481 0.75579
 C476 C -0.07790 0.42839 0.73534
 C477 C -0.06076 0.44575 0.73534
 C478 C -0.04784 0.45019 0.75587
 C479 C -0.05233 0.43682 0.77639
 C480 C -0.06926 0.41923 0.77631
 H481 H -0.13472 0.31819 0.73277
 H482 H -0.16458 0.28857 0.73185
 H483 H -0.20726 0.33225 0.77726
 H484 H -0.17738 0.36183 0.77758
 H485 H -0.14078 0.37115 0.79202
 H486 H -0.11162 0.40202 0.79197
 H487 H -0.09422 0.38522 0.71944
 H488 H -0.12461 0.35564 0.71890
 H489 H -0.08789 0.42585 0.71936
 H490 H -0.05782 0.45591 0.71931
 H491 H -0.04252 0.43972 0.79243
 H492 H -0.07185 0.40886 0.79225
 C493 C 0.24967 0.15829 0.34395
 C494 C 0.24114 0.18097 0.34899
 C495 C 0.24113 0.19857 0.33156
 C496 C 0.24979 0.19397 0.30876
 C497 C 0.25836 0.17136 0.30371
 C498 C 0.25822 0.15369 0.32107
 C499 C 0.24966 0.13953 0.36248
 C500 C 0.26809 0.12346 0.36416
 C501 C 0.26806 0.10579 0.38151
 C502 C 0.24965 0.10382 0.39772
 C503 C 0.23125 0.11993 0.39609
 C504 C 0.23122 0.13752 0.37865
 C505 C 0.24966 0.08506 0.41625
 C506 C 0.22905 0.07354 0.42270
 C507 C 0.22903 0.05599 0.44018
 C508 C 0.24966 0.04944 0.45152
 C509 C 0.27028 0.06086 0.44503
 C510 C 0.27027 0.07852 0.42767
 H511 H 0.23481 0.18525 0.36653
 H512 H 0.23473 0.21593 0.33606
 H513 H 0.26481 0.16720 0.28620
 H514 H 0.26452 0.13632 0.31644
 H515 H 0.28271 0.12466 0.35220
 H516 H 0.28237 0.09351 0.38207
 H517 H 0.21693 0.11912 0.40846
 H518 H 0.21661 0.14940 0.37769
 H519 H 0.21293 0.07785 0.41401
 H520 H 0.21287 0.04743 0.44468
 H521 H 0.28644 0.05632 0.45353
 H522 H 0.28639 0.08728 0.42342
 C523 C 0.75277 0.15610 0.65728
 C524 C 0.74389 0.15124 0.68003
 C525 C 0.74379 0.16861 0.69754
 C526 C 0.75272 0.19119 0.69280
 C527 C 0.76171 0.19604 0.67015
 C528 C 0.76166 0.17874 0.65256
 C529 C 0.75270 0.13766 0.63858
 C530 C 0.77124 0.13571 0.62254
 C531 C 0.77114 0.11843 0.60492
 C532 C 0.75256 0.10258 0.60298
 C533 C 0.73406 0.10450 0.61906
 C534 C 0.73409 0.12186 0.63658
 C535 C 0.75248 0.08414 0.58428
 C536 C 0.73187 0.07798 0.57271
 C537 C 0.73177 0.06057 0.55523
 C538 C 0.75231 0.04902 0.54878
 C539 C 0.77294 0.05521 0.56025
 C540 C 0.77301 0.07250 0.57785
 H541 H 0.73732 0.13389 0.68443
 H542 H 0.73708 0.16426 0.71494
 H543 H 0.76839 0.21339 0.66589
 H544 H 0.76824 0.18324 0.63514
 H545 H 0.78599 0.14738 0.62373
 H546 H 0.78554 0.11767 0.59266
 H547 H 0.71960 0.09241 0.61829
 H548 H 0.71939 0.12304 0.64843
 H549 H 0.71582 0.08685 0.57692
 H550 H 0.71561 0.05631 0.54662
 H551 H 0.78904 0.04654 0.55578
 H552 H 0.78913 0.07651 0.58665
 C553 C 0.24930 -0.15827 0.65840
 C554 C 0.24038 -0.18082 0.65355
 C555 C 0.24035 -0.19842 0.67097
 C556 C 0.24940 -0.19396 0.69359
 C557 C 0.25837 -0.17148 0.69846
 C558 C 0.25824 -0.15381 0.68111
 C559 C 0.24931 -0.13951 0.63986
 C560 C 0.26791 -0.12366 0.63785
 C561 C 0.26791 -0.10603 0.62046
 C562 C 0.24938 -0.10388 0.60453
 C563 C 0.23081 -0.11977 0.60651
 C564 C 0.23074 -0.13731 0.62399
 C565 C 0.24943 -0.08518 0.58594
 C566 C 0.22888 -0.07349 0.57969
 C567 C 0.22891 -0.05601 0.56214
 C568 C 0.24952 -0.04966 0.55055
 C569 C 0.27009 -0.06124 0.55683
 C570 C 0.27003 -0.07884 0.57425
 H571 H 0.23375 -0.18501 0.63614
 H572 H 0.23364 -0.21568 0.66661
 H573 H 0.26514 -0.16744 0.71584
 H574 H 0.26484 -0.13654 0.68561
 H575 H 0.28263 -0.12502 0.64957
 H576 H 0.28236 -0.09392 0.61966
 H577 H 0.21639 -0.11883 0.59436
 H578 H 0.21600 -0.14900 0.62521
 H579 H 0.21278 -0.07763 0.58859
 H580 H 0.21279 -0.04733 0.55781
 H581 H 0.28623 -0.05685 0.54813
 H582 H 0.28610 -0.08773 0.57832
 C583 C 0.75120 -0.15671 0.34159
 C584 C 0.76006 -0.17933 0.34639
 C585 C 0.76005 -0.19675 0.32894
 C586 C 0.75101 -0.19205 0.30633
 C587 C 0.74204 -0.16951 0.30152
 C588 C 0.74222 -0.15201 0.31891
 C589 C 0.75132 -0.13812 0.36015
 C590 C 0.73279 -0.12221 0.36225
 C591 C 0.73292 -0.10475 0.37968
 C592 C 0.75151 -0.10284 0.39555
 C593 C 0.77001 -0.11878 0.39348
 C594 C 0.76995 -0.13615 0.37596
 C595 C 0.75159 -0.08433 0.41419
 C596 C 0.77222 -0.07282 0.42040
 C597 C 0.77232 -0.05553 0.43800
 C598 C 0.75178 -0.04921 0.44968
 C599 C 0.73114 -0.06062 0.44343
 C600 C 0.73106 -0.07804 0.42596
 H601 H 0.76670 -0.18371 0.36378
 H602 H 0.76674 -0.21406 0.33326
 H603 H 0.73527 -0.16529 0.28415
 H604 H 0.73564 -0.13468 0.31445
 H605 H 0.71803 -0.12339 0.35058
 H606 H 0.71852 -0.09259 0.38055
 H607 H 0.78447 -0.11803 0.40558
 H608 H 0.78464 -0.14789 0.37467
 H609 H 0.78827 -0.07693 0.41143
 H610 H 0.78849 -0.04696 0.44230
 H611 H 0.71504 -0.05626 0.45220
 H612 H 0.71494 -0.08681 0.42192
 C613 C 0.65508 0.74317 -0.15720
 C614 C 0.65242 0.75608 -0.17831
 C615 C 0.66998 0.75661 -0.19536
 C616 C 0.69072 0.74392 -0.19202
 C617 C 0.69311 0.73072 -0.17088
 C618 C 0.67567 0.73052 -0.15371
 C619 C 0.63654 0.74301 -0.13883
 C620 C 0.63209 0.72263 -0.12526
 C621 C 0.61491 0.72261 -0.10780
 C622 C 0.60152 0.74288 -0.10363
 C623 C 0.60581 0.76318 -0.11735
 C624 C 0.62318 0.76330 -0.13460
 C625 C 0.58322 0.74288 -0.08500
 C626 C 0.57887 0.76324 -0.07152
 C627 C 0.56162 0.76331 -0.05413
 C628 C 0.54854 0.74292 -0.04957
 C629 C 0.55294 0.72251 -0.06286
 C630 C 0.56997 0.72253 -0.08049
 H631 H 0.63658 0.76558 -0.18189
 H632 H 0.66675 0.76650 -0.21142
 H633 H 0.70875 0.72110 -0.16695
 H634 H 0.67857 0.72079 -0.13744
 H635 H 0.64177 0.70657 -0.12822
 H636 H 0.61234 0.70674 -0.09739
 H637 H 0.59564 0.77901 -0.11492
 H638 H 0.62630 0.77943 -0.14443
 H639 H 0.58901 0.77909 -0.07413
 H640 H 0.55875 0.77925 -0.04402
 H641 H 0.54300 0.70658 -0.05986
 H642 H 0.57251 0.70666 -0.09078
 C643 C 0.34415 0.25216 -0.15455
 C644 C 0.32350 0.26462 -0.15082
 C645 C 0.30596 0.26443 -0.16778
 C646 C 0.30835 0.25145 -0.18897
 C647 C 0.32912 0.23886 -0.19250
 C648 C 0.34675 0.23936 -0.17566
 C649 C 0.36288 0.25248 -0.13651
 C650 C 0.37645 0.23231 -0.13234
 C651 C 0.39406 0.23263 -0.11546
 C652 C 0.39841 0.25303 -0.10210
 C653 C 0.38478 0.27317 -0.10620
 C654 C 0.36734 0.27294 -0.12327
 C655 C 0.41702 0.25329 -0.08392
 C656 C 0.43021 0.27376 -0.08007
 C657 C 0.44746 0.27408 -0.06280
 C658 C 0.45215 0.25385 -0.04920
 C659 C 0.43917 0.23331 -0.05314
 C660 C 0.42171 0.23308 -0.07019
 H661 H 0.32065 0.27425 -0.13454
 H662 H 0.29029 0.27394 -0.16368
 H663 H 0.33233 0.22910 -0.20858
 H664 H 0.36263 0.22999 -0.17941
 H665 H 0.37332 0.21613 -0.14193
 H666 H 0.40440 0.21689 -0.11305
 H667 H 0.38739 0.28910 -0.09603
 H668 H 0.35749 0.28891 -0.12621
 H669 H 0.42741 0.28951 -0.09060
 H670 H 0.45731 0.29012 -0.06028
 H671 H 0.44227 0.21750 -0.04279
 H672 H 0.41164 0.21714 -0.07232
 C673 C 0.34583 0.74450 0.15762
 C674 C 0.34859 0.75746 0.17859
 C675 C 0.33110 0.75806 0.19570
 C676 C 0.31032 0.74541 0.19257
 C677 C 0.30780 0.73221 0.17155
 C678 C 0.32519 0.73193 0.15433
 C679 C 0.36432 0.74421 0.13921
 C680 C 0.36867 0.72374 0.12590
 C681 C 0.38579 0.72358 0.10839
 C682 C 0.39923 0.74379 0.10390
 C683 C 0.39503 0.76418 0.11736
 C684 C 0.37772 0.76443 0.13467
 C685 C 0.41746 0.74363 0.08521
 C686 C 0.42179 0.76389 0.07140
 C687 C 0.43897 0.76380 0.05395
 C688 C 0.45201 0.74336 0.04966
 C689 C 0.44763 0.72305 0.06329
 C690 C 0.43067 0.72323 0.08097
 H691 H 0.36447 0.76692 0.18201
 H692 H 0.33440 0.76797 0.21165
 H693 H 0.29212 0.72263 0.16776
 H694 H 0.32221 0.72218 0.13816
 H695 H 0.35895 0.70772 0.12911
 H696 H 0.38829 0.70765 0.09818
 H697 H 0.40524 0.77997 0.11468
 H698 H 0.37468 0.78062 0.14431
 H699 H 0.41169 0.77977 0.07381
 H700 H 0.44183 0.77966 0.04358
 H701 H 0.45754 0.70709 0.06051
 H702 H 0.42814 0.70745 0.09153
 C703 C 0.65569 0.25636 0.15574
 C704 C 0.67803 0.26432 0.14999
 C705 C 0.69558 0.26403 0.16695
 C706 C 0.69124 0.25561 0.18999
 C707 C 0.66893 0.24768 0.19577
 C708 C 0.65133 0.24813 0.17887
 C709 C 0.63707 0.25646 0.13762
 C710 C 0.62100 0.23790 0.13659
 C711 C 0.60362 0.23787 0.11946
 C712 C 0.60196 0.25633 0.10282
 C713 C 0.61801 0.27491 0.10387
 C714 C 0.63531 0.27501 0.12110
 C715 C 0.58366 0.25611 0.08438
 C716 C 0.57259 0.27711 0.07746
 C717 C 0.55549 0.27689 0.06002
 C718 C 0.54896 0.25563 0.04920
 C719 C 0.55995 0.23462 0.05615
 C720 C 0.57715 0.23487 0.07347
 H721 H 0.68210 0.27038 0.13224
 H722 H 0.71268 0.26992 0.16189
 H723 H 0.66500 0.24145 0.21349
 H724 H 0.63423 0.24228 0.18403
 H725 H 0.62201 0.22320 0.14885
 H726 H 0.59137 0.22344 0.11936
 H727 H 0.61740 0.28927 0.09118
 H728 H 0.64723 0.28972 0.12156
 H729 H 0.57693 0.29372 0.08575
 H730 H 0.54725 0.29335 0.05515
 H731 H 0.55542 0.21797 0.04805
 H732 H 0.58559 0.21844 0.07807
 C733 C -0.15458 0.65513 0.75402
 C734 C -0.15183 0.67619 0.74113
 C735 C -0.16938 0.69311 0.74058
 C736 C -0.19021 0.68968 0.75323
 C737 C -0.19272 0.66856 0.76636
 C738 C -0.17527 0.65153 0.76658
 C739 C -0.13600 0.63695 0.75428
 C740 C -0.13171 0.62347 0.77479
 C741 C -0.11447 0.60622 0.77494
 C742 C -0.10085 0.60216 0.75467
 C743 C -0.10501 0.61577 0.73423
 C744 C -0.12244 0.63283 0.73399
 C745 C -0.08247 0.58377 0.75483
 C746 C -0.07786 0.57033 0.73444
 C747 C -0.06058 0.55311 0.73458
 C748 C -0.04772 0.54870 0.75519
 C749 C -0.05234 0.56199 0.77561
 C750 C -0.06940 0.57944 0.77539
 H751 H -0.13591 0.67985 0.73169
 H752 H -0.16607 0.70914 0.73074
 H753 H -0.20843 0.66455 0.77592
 H754 H -0.17825 0.63529 0.77628
 H755 H -0.14155 0.62636 0.79086
 H756 H -0.11201 0.59588 0.79091
 H757 H -0.09467 0.61341 0.71839
 H758 H -0.12543 0.64260 0.71776
 H759 H -0.08784 0.57283 0.71843
 H760 H -0.05753 0.54300 0.71862
 H761 H -0.04257 0.55911 0.79171
 H762 H -0.07213 0.58972 0.79128
 C763 C -0.15422 0.34529 0.24481
 C764 C -0.17494 0.34886 0.23241
 C765 C -0.19224 0.33167 0.23252
 C766 C -0.18954 0.31040 0.24534
 C767 C -0.16867 0.30699 0.25780
 C768 C -0.15128 0.32408 0.25738
 C769 C -0.13582 0.36365 0.24475
 C770 C -0.12241 0.36764 0.26509
 C771 C -0.10515 0.38486 0.26506
 C772 C -0.10100 0.39877 0.24478
 C773 C -0.11446 0.39483 0.22446
 C774 C -0.13155 0.37742 0.22440
 C775 C -0.08280 0.41733 0.24489
 C776 C -0.06954 0.42198 0.22445
 C777 C -0.05254 0.43950 0.22456
 C778 C -0.04821 0.45255 0.24518
 C779 C -0.06134 0.44787 0.26564
 C780 C -0.07853 0.43058 0.26545
 H781 H -0.17804 0.36520 0.22295
 H782 H -0.20799 0.33566 0.22310
 H783 H -0.16521 0.29086 0.26740
 H784 H -0.13532 0.32045 0.26668
 H785 H -0.12540 0.35764 0.28119
 H786 H -0.09492 0.38713 0.28092
 H787 H -0.11199 0.40539 0.20862
 H788 H -0.14129 0.37464 0.20830
 H789 H -0.07204 0.41187 0.20843
 H790 H -0.04257 0.44261 0.20857
 H791 H -0.05853 0.45779 0.28174
 H792 H -0.08869 0.42784 0.28137
 C793 C 0.15437 0.34262 0.75679
 C794 C 0.14968 0.31966 0.74876
 C795 C 0.16703 0.30253 0.74842
 C796 C 0.18943 0.30790 0.75624
 C797 C 0.19411 0.33078 0.76442
 C798 C 0.17680 0.34796 0.76462
 C799 C 0.13599 0.36096 0.75686
 C800 C 0.13448 0.37738 0.77541
 C801 C 0.11736 0.39476 0.77534
 C802 C 0.10126 0.39608 0.75677
 C803 C 0.10269 0.37957 0.73829
 C804 C 0.11988 0.36227 0.73830
 C805 C 0.08310 0.41464 0.75662
 C806 C 0.07660 0.42569 0.73530
 C807 C 0.05952 0.44311 0.73513
 C808 C 0.04864 0.45000 0.75630
 C809 C 0.05517 0.43903 0.77764
 C810 C 0.07216 0.42150 0.77778
 H811 H 0.13250 0.31483 0.74301
 H812 H 0.16285 0.28496 0.74236
 H813 H 0.21129 0.33552 0.77021
 H814 H 0.18112 0.36557 0.77051
 H815 H 0.14643 0.37670 0.79013
 H816 H 0.11692 0.40736 0.78971
 H817 H 0.09039 0.37989 0.72387
 H818 H 0.12071 0.35008 0.72359
 H819 H 0.08494 0.42112 0.71874
 H820 H 0.05497 0.45132 0.71842
 H821 H 0.04702 0.44384 0.79423
 H822 H 0.07649 0.41310 0.79446
 C823 C 0.15559 0.65694 0.24752
 C824 C 0.15296 0.67795 0.26036
 C825 C 0.17057 0.69479 0.26080
 C826 C 0.19136 0.69134 0.24809
 C827 C 0.19375 0.67027 0.23504
 C828 C 0.17624 0.65332 0.23493
 C829 C 0.13691 0.63887 0.24732
 C830 C 0.13252 0.62557 0.22683
 C831 C 0.11518 0.60842 0.22673
 C832 C 0.10157 0.60431 0.24701
 C833 C 0.10583 0.61775 0.26744
 C834 C 0.12336 0.63469 0.26764
 C835 C 0.08308 0.58604 0.24689
 C836 C 0.07843 0.57245 0.26728
 C837 C 0.06108 0.55530 0.26715
 C838 C 0.04821 0.55110 0.24653
 C839 C 0.05286 0.56457 0.22612
 C840 C 0.06998 0.58195 0.22634
 H841 H 0.13708 0.68163 0.26983
 H842 H 0.16736 0.71079 0.27060
 H843 H 0.20943 0.66624 0.22545
 H844 H 0.17912 0.63711 0.22527
 H845 H 0.14236 0.62851 0.21074
 H846 H 0.11265 0.59821 0.21077
 H847 H 0.09550 0.61533 0.28329
 H848 H 0.12643 0.64434 0.28385
 H849 H 0.08843 0.57477 0.28328
 H850 H 0.05801 0.54506 0.28310
 H851 H 0.04307 0.56186 0.21002
 H852 H 0.07273 0.59236 0.21045
 C853 C 0.75102 -0.15821 0.65653
 C854 C 0.74209 -0.15366 0.67927
 C855 C 0.74187 -0.17130 0.69665
 C856 C 0.75075 -0.19382 0.69176
 C857 C 0.75976 -0.19838 0.66910
 C858 C 0.75981 -0.18082 0.65165
 C859 C 0.75116 -0.13948 0.63798
 C860 C 0.76979 -0.13738 0.62207
 C861 C 0.76988 -0.11984 0.60459
 C862 C 0.75140 -0.10385 0.60268
 C863 C 0.73280 -0.10590 0.61864
 C864 C 0.73265 -0.12353 0.63602
 C865 C 0.75151 -0.08515 0.58410
 C866 C 0.73099 -0.07874 0.57244
 C867 C 0.73109 -0.06112 0.55504
 C868 C 0.75173 -0.04963 0.54875
 C869 C 0.77226 -0.05606 0.56032
 C870 C 0.77214 -0.07355 0.57785
 H871 H 0.73558 -0.13635 0.68378
 H872 H 0.73514 -0.16719 0.71407
 H873 H 0.76640 -0.21568 0.66474
 H874 H 0.76642 -0.18507 0.63421
 H875 H 0.78447 -0.14916 0.62325
 H876 H 0.78435 -0.11897 0.59241
 H877 H 0.71842 -0.09371 0.61788
 H878 H 0.71788 -0.12481 0.64778
 H879 H 0.71487 -0.08757 0.57652
 H880 H 0.71500 -0.05667 0.54634
 H881 H 0.78843 -0.04743 0.55598
 H882 H 0.78818 -0.07775 0.58674
 C883 C 0.25067 -0.15713 0.34392
 C884 C 0.25959 -0.15249 0.32115
 C885 C 0.25979 -0.17006 0.30384
 C886 C 0.25090 -0.19260 0.30882
 C887 C 0.24193 -0.19725 0.33152
 C888 C 0.24190 -0.17976 0.34890
 C889 C 0.25050 -0.13847 0.36238
 C890 C 0.23185 -0.13645 0.37826
 C891 C 0.23174 -0.11901 0.39569
 C892 C 0.25023 -0.10304 0.39759
 C893 C 0.26884 -0.10499 0.38164
 C894 C 0.26900 -0.12253 0.36430
 C895 C 0.25011 -0.08447 0.41614
 C896 C 0.27063 -0.07819 0.42783
 C897 C 0.27053 -0.06073 0.44524
 C898 C 0.24990 -0.04925 0.45150
 C899 C 0.22937 -0.05555 0.43990
 C900 C 0.22949 -0.07289 0.42236
 H901 H 0.26610 -0.13515 0.31657
 H902 H 0.26650 -0.16588 0.28639
 H903 H 0.23530 -0.21457 0.33596
 H904 H 0.23530 -0.18409 0.36636
 H905 H 0.21717 -0.14823 0.37710
 H906 H 0.21727 -0.11821 0.40786
 H907 H 0.28322 -0.09281 0.38239
 H908 H 0.28378 -0.12375 0.35256
 H909 H 0.28674 -0.08702 0.42377
 H910 H 0.28661 -0.05638 0.45396
 H911 H 0.21321 -0.04693 0.44422
 H912 H 0.21346 -0.07701 0.41345
 C913 C 0.75275 0.15707 0.34107
 C914 C 0.74400 0.15244 0.31832
 C915 C 0.74386 0.17004 0.30090
 C916 C 0.75262 0.19261 0.30575
 C917 C 0.76147 0.19724 0.32842
 C918 C 0.76146 0.17971 0.34590
 C919 C 0.75274 0.13842 0.35968
 C920 C 0.77125 0.13638 0.37565
 C921 C 0.77116 0.11897 0.39325
 C922 C 0.75261 0.10305 0.39525
 C923 C 0.73415 0.10502 0.37922
 C924 C 0.73418 0.12252 0.36170
 C925 C 0.75252 0.08451 0.41398
 C926 C 0.73189 0.07831 0.42568
 C927 C 0.73179 0.06084 0.44323
 C928 C 0.75233 0.04927 0.44961
 C929 C 0.77297 0.05551 0.43801
 C930 C 0.77305 0.07286 0.42034
 H931 H 0.73755 0.13510 0.31385
 H932 H 0.73724 0.16589 0.28348
 H933 H 0.76801 0.21457 0.33277
 H934 H 0.76793 0.18402 0.36334
 H935 H 0.78596 0.14813 0.37442
 H936 H 0.78552 0.11815 0.40547
 H937 H 0.71973 0.09288 0.38005
 H938 H 0.71951 0.12376 0.34991
 H939 H 0.71585 0.08719 0.42151
 H940 H 0.71562 0.05653 0.45194
 H941 H 0.78907 0.04682 0.44243
 H942 H 0.78917 0.07692 0.41144
 C943 C 0.24929 0.15643 0.65850
 C944 C 0.24065 0.17914 0.65372
 C945 C 0.24057 0.19645 0.67129
 C946 C 0.24930 0.19152 0.69397
 C947 C 0.25801 0.16887 0.69876
 C948 C 0.25792 0.15150 0.68127
 C949 C 0.24932 0.13797 0.63984
 C950 C 0.26782 0.12202 0.63789
 C951 C 0.26780 0.10460 0.62044
 C952 C 0.24935 0.10277 0.60440
 C953 C 0.23088 0.11877 0.60629
 C954 C 0.23084 0.13611 0.62384
 C955 C 0.24937 0.08426 0.58579
 C956 C 0.22880 0.07271 0.57950
 C957 C 0.22883 0.05535 0.56197
 C958 C 0.24946 0.04902 0.55046
 C959 C 0.27004 0.06049 0.55677
 C960 C 0.26999 0.07797 0.57417
 H961 H 0.23426 0.18368 0.63627
 H962 H 0.23407 0.21385 0.66701
 H963 H 0.26450 0.16446 0.71620
 H964 H 0.26430 0.13409 0.68570
 H965 H 0.28247 0.12313 0.64972
 H966 H 0.28217 0.09239 0.61969
 H967 H 0.21653 0.11807 0.59406
 H968 H 0.21617 0.14791 0.62501
 H969 H 0.21269 0.07684 0.58835
 H970 H 0.21270 0.04674 0.55760
 H971 H 0.28620 0.05612 0.54812
 H972 H 0.28607 0.08678 0.57828
   
