data_POSCAR
  _audit_creation_date              2014-09-24
  _audit_creation_method            'ToBaCCo'
  _symmetry_space_group_name_H-M    'P1'
  _symmetry_Int_Tables_number       1
  _symmetry_cell_setting            triclinic
  loop_
  _symmetry_equiv_pos_as_xyz
 x,y,z
_cell_length_a 21.0221
_cell_length_b 20.8058
_cell_length_c 20.9827
_cell_angle_alpha 90.040000
_cell_angle_beta 90.113300
_cell_angle_gamma 90.064200
loop_
  _atom_site_label
  _atom_site_type_symbol
  _atom_site_fract_x
  _atom_site_fract_y
  _atom_site_fract_z
C1 C 0.53106 1.00053 -0.50091
 C2 C 0.46633 1.00087 -0.50027
 C3 C 0.42701 0.99705 -0.55935
 C4 C 0.42930 1.00455 -0.44000
 C5 C 0.56974 0.99810 -0.44150
 C6 C 0.56877 1.00254 -0.56076
 C7 C 0.43219 1.04209 -0.60872
 C8 C 0.38856 1.04189 -0.65946
 C9 C 0.33687 0.99778 -0.66126
 C10 C 0.33424 0.95140 -0.61190
 C11 C 0.37843 0.95111 -0.56235
 C12 C 0.38468 1.05412 -0.43296
 C13 C 0.34169 1.05369 -0.38243
 C14 C 0.34216 1.00349 -0.33773
 C15 C 0.38869 0.95517 -0.34309
 C16 C 0.43172 0.95546 -0.39412
 C17 C 0.61476 0.94883 -0.43469
 C18 C 0.65846 0.94981 -0.38462
 C19 C 0.65831 1.00023 -0.34011
 C20 C 0.61162 1.04843 -0.34538
 C21 C 0.56790 1.04762 -0.39599
 C22 C 0.56603 0.95284 -0.60606
 C23 C 0.60947 0.95137 -0.65677
 C24 C 0.65674 0.99904 -0.66225
 C25 C 0.65761 1.04977 -0.61810
 C26 C 0.61421 1.05143 -0.56800
 H27 H 0.46832 1.07917 -0.60673
 H28 H 0.39331 1.08003 -0.69403
 H29 H 0.29945 0.91313 -0.61170
 H30 H 0.37390 0.91525 -0.52520
 H31 H 0.38183 1.09225 -0.46799
 H32 H 0.30717 1.09213 -0.37897
 H33 H 0.46493 0.91606 -0.39935
 H34 H 0.61715 0.91032 -0.46938
 H35 H 0.69310 0.91146 -0.38121
 H36 H 0.61067 1.08809 -0.31196
 H37 H 0.53441 1.08679 -0.40104
 H38 H 0.53213 0.91401 -0.60071
 H39 H 0.60794 0.91155 -0.68999
 H40 H 0.69271 1.08773 -0.62172
 H41 H 0.61728 1.09006 -0.53348
 H42 H 0.38989 0.91567 -0.30954
 C43 C -0.50116 1.46714 0.00084
 C44 C -0.50050 1.53219 0.00062
 C45 C -0.44080 1.56969 0.00437
 C46 C -0.55924 1.57101 -0.00294
 C47 C -0.56058 1.42922 0.00612
 C48 C -0.44216 1.42874 -0.00353
 C49 C -0.43280 1.61255 0.05532
 C50 C -0.38166 1.65504 0.05634
 C51 C -0.33760 1.65568 0.00621
 C52 C -0.34408 1.61093 -0.04368
 C53 C -0.39568 1.56835 -0.04479
 C54 C -0.60456 1.57021 0.04604
 C55 C -0.65532 1.61366 0.04499
 C56 C -0.66072 1.65882 -0.00459
 C57 C -0.61627 1.65797 -0.05436
 C58 C -0.56599 1.61455 -0.05344
 C59 C -0.60897 1.43290 -0.03974
 C60 C -0.66067 1.39050 -0.03736
 C61 C -0.66411 1.34231 0.01008
 C62 C -0.61610 1.34109 0.05716
 C63 C -0.56529 1.38388 0.05509
 C64 C -0.43597 1.38500 -0.05395
 C65 C -0.38548 1.34183 -0.05528
 C66 C -0.34029 1.34142 -0.00598
 C67 C -0.34516 1.38683 0.04348
 C68 C -0.39607 1.43004 0.04491
 H69 H -0.46731 1.61420 0.09358
 H70 H -0.37718 1.68835 0.09580
 H71 H -0.31091 1.61086 -0.08310
 H72 H -0.40176 1.53624 -0.08499
 H73 H -0.59937 1.53767 0.08596
 H74 H -0.68880 1.61376 0.08415
 H75 H -0.53125 1.61588 -0.09150
 H76 H -0.60549 1.46677 -0.07875
 H77 H -0.69523 1.39303 -0.07552
 H78 H -0.61777 1.30772 0.09663
 H79 H -0.52862 1.38075 0.09132
 H80 H -0.47134 1.38328 -0.09155
 H81 H -0.38227 1.30799 -0.09439
 H82 H -0.31117 1.38706 0.08232
 H83 H -0.40085 1.46269 0.08482
 H84 H -0.61992 1.69161 -0.09356
 C85 C -0.00103 0.53181 0.49902
 C86 C 0.00778 0.46730 0.49944
 C87 C 0.00902 0.43017 0.43916
 C88 C 0.00961 0.42904 0.55917
 C89 C -0.00401 0.57112 0.55812
 C90 C -0.00240 0.56798 0.43832
 C91 C -0.04816 0.41434 0.40865
 C92 C -0.04852 0.37223 0.35672
 C93 C 0.00837 0.34319 0.33544
 C94 C 0.06594 0.36187 0.36495
 C95 C 0.06625 0.40575 0.41535
 C96 C -0.04202 0.42884 0.60143
 C97 C -0.04324 0.38635 0.65321
 C98 C 0.00652 0.34169 0.66283
 C99 C 0.05935 0.34467 0.62157
 C100 C 0.06092 0.38784 0.57094
 C101 C 0.04529 0.56978 0.60328
 C102 C 0.04562 0.61299 0.65452
 C103 C -0.00258 0.65994 0.66081
 C104 C -0.05302 0.65891 0.61634
 C105 C -0.05374 0.61511 0.56615
 C106 C 0.05471 0.59024 0.41191
 C107 C 0.05371 0.63229 0.36002
 C108 C -0.00448 0.65350 0.33480
 C109 C -0.06156 0.62922 0.35974
 C110 C -0.06048 0.58600 0.41067
 H111 H -0.09284 0.43288 0.42655
 H112 H -0.09417 0.35906 0.33668
 H113 H 0.11123 0.34366 0.34846
 H114 H 0.11118 0.41949 0.43663
 H115 H -0.08253 0.45982 0.59293
 H116 H -0.08543 0.38581 0.68264
 H117 H 0.10239 0.38833 0.54064
 H118 H 0.08487 0.53704 0.59751
 H119 H 0.08616 0.61206 0.68633
 H120 H -0.09316 0.69112 0.62059
 H121 H -0.09322 0.61635 0.53308
 H122 H 0.09987 0.57674 0.43292
 H123 H 0.09822 0.65058 0.34143
 H124 H -0.10688 0.64459 0.34043
 H125 H -0.10495 0.56852 0.43006
 H126 H 0.10062 0.31447 0.62873
 O127 O -0.16403 1.00207 -0.08651
 O128 O 0.16398 0.99939 -0.08480
 O129 O -0.00126 1.08774 -0.16342
 O130 O 0.00190 0.91395 -0.16422
 O131 O 0.00424 0.83536 -0.08678
 O132 O -0.00447 1.16579 -0.08535
 O133 O 0.08678 0.99916 -0.16305
 O134 O -0.08639 1.00275 -0.16399
 Zr135 Zr 0.00003 1.00067 -0.11204
 O136 O 0.05814 0.94272 -0.05775
 O137 O -0.05843 1.05822 -0.05785
 C138 C -0.14539 1.00353 -0.14545
 C139 C 0.14567 0.99844 -0.14395
 C140 C -0.00345 1.14707 -0.14436
 C141 C 0.00395 0.85446 -0.14564
 H142 H 0.08399 1.08657 -0.08370
 O143 O 0.05687 1.05885 -0.05680
 H144 H -0.08416 0.91459 -0.08550
 O145 O -0.05723 0.94208 -0.05802
 O146 O 0.16328 1.00412 0.08732
 O147 O -0.16453 0.99572 0.08544
 O148 O 0.08382 1.16647 0.00262
 O149 O 0.08646 0.83571 -0.00173
 O150 O -0.08470 0.83415 0.00046
 O151 O -0.08724 1.16476 -0.00122
 O152 O 0.00254 1.08692 0.16442
 O153 O -0.00368 0.91198 0.16354
 O154 O -0.00077 1.16531 0.08659
 O155 O -0.00072 0.83442 0.08492
 O156 O 0.16205 1.08885 0.00417
 O157 O -0.16435 1.08598 -0.00209
 O158 O -0.16286 0.91174 0.00117
 O159 O 0.16363 0.91446 -0.00108
 O160 O 0.08551 1.00102 0.16474
 O161 O -0.08739 0.99710 0.16373
 Zr162 Zr 0.11153 1.00119 0.00093
 Zr163 Zr -0.11219 0.99932 -0.00030
 Zr164 Zr -0.00135 1.11301 0.00056
 Zr165 Zr 0.00056 0.88748 -0.00052
 Zr166 Zr -0.00073 0.99968 0.11261
 O167 O -0.05776 0.94121 0.05748
 O168 O 0.05660 1.05873 0.05866
 C169 C 0.14446 1.00345 0.14624
 C170 C -0.14625 0.99505 0.14460
 C171 C 0.14272 1.14811 0.00459
 C172 C 0.14515 0.85487 -0.00210
 C173 C -0.14366 0.85244 0.00159
 C174 C -0.14591 1.14558 -0.00246
 C175 C 0.00189 1.14632 0.14537
 C176 C -0.00310 0.85271 0.14397
 H177 H -0.08581 1.08447 0.08519
 O178 O -0.05840 1.05743 0.05792
 H179 H 0.08450 0.91519 0.08511
 O180 O 0.05729 0.94254 0.05789
 C181 C 0.30163 1.02944 0.23224
 C182 C 0.29072 1.00016 0.29229
 C183 C 0.22929 0.97371 0.30264
 C184 C 0.18205 0.97606 0.25585
 C185 C 0.19421 1.00369 0.19634
 C186 C 0.25447 1.03026 0.18495
 H187 H 0.34756 1.04879 0.21938
 H188 H 0.21532 0.95386 0.34808
 H189 H 0.13586 0.95546 0.26623
 H190 H 0.26529 1.05179 0.13926
 C191 C -0.30796 0.98048 0.22461
 C192 C -0.29296 0.99509 0.28824
 C193 C -0.22917 1.00728 0.30455
 C194 C -0.18158 1.00615 0.25820
 C195 C -0.19659 0.99324 0.19416
 C196 C -0.26034 0.97991 0.17797
 H197 H -0.35671 0.97101 0.21069
 H198 H -0.21604 1.01767 0.35342
 H199 H -0.13310 1.01644 0.27253
 H200 H -0.27356 0.96933 0.12916
 C201 C -0.30651 1.01867 -0.22682
 C202 C -0.29150 1.00330 -0.29021
 C203 C -0.22786 0.98989 -0.30587
 C204 C -0.18042 0.99088 -0.25914
 C205 C -0.19548 1.00491 -0.19541
 C206 C -0.25908 1.01913 -0.17984
 H207 H -0.35514 1.02898 -0.21335
 H208 H -0.21469 0.97883 -0.35452
 H209 H -0.13205 0.97972 -0.27289
 H210 H -0.27230 1.03051 -0.13127
 C211 C 0.30710 0.98483 -0.22451
 C212 C 0.29207 1.00043 -0.28789
 C213 C 0.22840 1.01369 -0.30373
 C214 C 0.18094 1.01222 -0.25725
 C215 C 0.19596 0.99782 -0.19355
 C216 C 0.25962 0.98388 -0.17774
 H217 H 0.35576 0.97460 -0.21090
 H218 H 0.21518 1.02488 -0.35238
 H219 H 0.13253 1.02320 -0.27120
 H220 H 0.27283 0.97226 -0.12919
 C221 C 0.29874 1.23288 0.03429
 C222 C 0.28731 1.29498 0.00948
 C223 C 0.22674 1.30764 -0.01683
 C224 C 0.17949 1.26031 -0.01754
 C225 C 0.19186 1.19870 0.00663
 C226 C 0.25193 1.18547 0.03235
 H227 H 0.34489 1.21921 0.05266
 H228 H 0.21454 1.35472 -0.03493
 H229 H 0.13341 1.27178 -0.03771
 H230 H 0.26287 1.13827 0.05111
 C231 C 0.22623 0.69294 0.01142
 C232 C 0.28935 0.70876 -0.00342
 C233 C 0.30485 0.77291 -0.01744
 C234 C 0.25810 0.82041 -0.01687
 C235 C 0.19475 0.80463 -0.00261
 C236 C 0.17927 0.74037 0.01151
 H237 H 0.21309 0.64376 0.02206
 H238 H 0.35341 0.78647 -0.02824
 H239 H 0.27157 0.86939 -0.02800
 H240 H 0.13092 0.72670 0.02303
 C241 C -0.22452 0.68992 -0.01107
 C242 C -0.28747 0.70555 0.00464
 C243 C -0.30281 0.76965 0.01892
 C244 C -0.25615 0.81725 0.01780
 C245 C -0.19295 0.80176 0.00263
 C246 C -0.17756 0.73755 -0.01172
 H247 H -0.21153 0.64079 -0.02200
 H248 H -0.35123 0.78311 0.03033
 H249 H -0.26960 0.86616 0.02918
 H250 H -0.12933 0.72411 -0.02387
 C251 C -0.30569 1.22734 -0.01874
 C252 C -0.29023 1.29159 -0.00494
 C253 C -0.22708 1.30755 0.00995
 C254 C -0.18010 1.26016 0.01044
 C255 C -0.19555 1.19579 -0.00339
 C256 C -0.25889 1.17990 -0.01783
 H257 H -0.35425 1.21365 -0.02953
 H258 H -0.21396 1.35679 0.02043
 H259 H -0.13175 1.27394 0.02205
 H260 H -0.27235 1.13084 -0.02875
 C261 C -0.03878 1.29572 0.23857
 C262 C 0.00745 1.29516 0.28749
 C263 C 0.05188 1.24417 0.28833
 C264 C 0.04907 1.19499 0.24299
 C265 C 0.00348 1.19673 0.19437
 C266 C -0.03990 1.24771 0.19196
 H267 H -0.07278 1.33452 0.23446
 H268 H 0.08713 1.24017 0.32576
 H269 H 0.08306 1.15595 0.24540
 H270 H -0.07523 1.24995 0.15434
 C271 C -0.03064 1.30404 -0.23182
 C272 C 0.00318 1.29387 -0.28907
 C273 C 0.03332 1.23380 -0.29767
 C274 C 0.02992 1.18614 -0.25116
 C275 C -0.00251 1.19722 -0.19399
 C276 C -0.03256 1.25663 -0.18451
 H277 H -0.05345 1.34954 -0.22191
 H278 H 0.05766 1.22195 -0.34150
 H279 H 0.05352 1.14067 -0.25969
 H280 H -0.05785 1.26630 -0.14061
 C281 C -0.02742 0.76903 -0.30131
 C282 C 0.00003 0.70789 -0.29107
 C283 C 0.03037 0.69665 -0.23198
 C284 C 0.03151 0.74407 -0.18462
 C285 C 0.00401 0.80450 -0.19561
 C286 C -0.02490 0.81663 -0.25457
 H287 H -0.04891 0.78168 -0.34647
 H288 H 0.05092 0.65038 -0.22072
 H289 H 0.05412 0.73351 -0.13939
 H290 H -0.04645 0.86287 -0.26438
 C291 C -0.03838 0.76140 0.29566
 C292 C -0.00556 0.70363 0.28509
 C293 C 0.02787 0.69507 0.22797
 C294 C 0.02794 0.74335 0.18172
 C295 C -0.00409 0.80161 0.19261
 C296 C -0.03705 0.81035 0.25008
 H297 H -0.06401 0.76903 0.33975
 H298 H 0.05357 0.65087 0.21909
 H299 H 0.05399 0.73564 0.13788
 H300 H -0.06234 0.85471 0.25938
   
