data_POSCAR
  _audit_creation_date              2014-09-24
  _audit_creation_method            'ToBaCCo'
  _symmetry_space_group_name_H-M    'P1'
  _symmetry_Int_Tables_number       1
  _symmetry_cell_setting            triclinic
  loop_
  _symmetry_equiv_pos_as_xyz
 x,y,z
_cell_length_a 45.2507
_cell_length_b 43.3574
_cell_length_c 33.5192
_cell_angle_alpha 90.087100
_cell_angle_beta 89.717300
_cell_angle_gamma 85.528200
loop_
  _atom_site_label
  _atom_site_type_symbol
  _atom_site_fract_x
  _atom_site_fract_y
  _atom_site_fract_z
C1 C 1.22617 0.23150 0.17482
 C2 C 1.24209 0.25838 0.15826
 C3 C 1.25721 0.27374 0.18614
 C4 C 1.25470 0.26048 0.22892
 C5 C 1.25023 0.21095 0.19607
 C6 C 1.26482 0.22569 0.22505
 C7 C 1.20657 0.24536 0.20845
 C8 C 1.22112 0.26048 0.23685
 H9 H 1.24173 0.26429 0.12688
 H10 H 1.26678 0.27286 0.25196
 H11 H 1.25349 0.18623 0.19113
 H12 H 1.18292 0.24293 0.20974
 C13 C 0.73633 -0.27525 0.20211
 C14 C 0.76087 -0.26158 0.17757
 C15 C 0.77689 -0.24181 0.19872
 C16 C 0.76672 -0.23741 0.24247
 C17 C 0.75221 -0.28993 0.23834
 C18 C 0.76831 -0.27035 0.25933
 C19 C 0.71769 -0.24720 0.21870
 C20 C 0.73335 -0.22747 0.24026
 H21 H 0.76550 -0.26747 0.14665
 H22 H 0.77959 -0.22133 0.25992
 H23 H 0.75237 -0.31441 0.24494
 H24 H 0.69385 -0.24416 0.21521
 C25 C 0.73442 0.22636 -0.29920
 C26 C 0.75744 0.24040 -0.32214
 C27 C 0.77440 0.26048 -0.29875
 C28 C 0.76480 0.26272 -0.25684
 C29 C 0.74980 0.21101 -0.26584
 C30 C 0.76696 0.23074 -0.24268
 C31 C 0.71652 0.25230 -0.28181
 C32 C 0.73296 0.27225 -0.25782
 H33 H 0.76186 0.23584 -0.35348
 H34 H 0.77761 0.27826 -0.23843
 H35 H 0.75037 0.18621 -0.26111
 H36 H 0.69271 0.25574 -0.28570
 C37 C 1.22872 -0.26959 -0.32775
 C38 C 1.24449 -0.24250 -0.34399
 C39 C 1.25927 -0.22708 -0.31582
 C40 C 1.25664 -0.24050 -0.27318
 C41 C 1.25280 -0.29001 -0.30638
 C42 C 1.26705 -0.27521 -0.27712
 C43 C 1.20882 -0.25599 -0.29424
 C44 C 1.22308 -0.24081 -0.26563
 H45 H 1.24420 -0.23642 -0.37532
 H46 H 1.26847 -0.22807 -0.24992
 H47 H 1.25622 -0.31471 -0.31135
 H48 H 1.18518 -0.25854 -0.29327
 C49 C 0.22906 0.23252 0.82860
 C50 C 0.24429 0.25792 0.84413
 C51 C 0.25978 0.27422 0.81450
 C52 C 0.25683 0.26182 0.77397
 C53 C 0.20895 0.24637 0.79570
 C54 C 0.22315 0.26171 0.76697
 C55 C 0.25278 0.21196 0.80618
 C56 C 0.26702 0.22692 0.77685
 H57 H 0.24436 0.26359 0.87562
 H58 H 0.26854 0.27423 0.75045
 H59 H 0.18532 0.24378 0.79512
 H60 H 0.25602 0.18720 0.81062
 C61 C 0.73222 0.73008 0.80158
 C62 C 0.75535 0.74438 0.82348
 C63 C 0.77262 0.76360 0.79916
 C64 C 0.76308 0.76494 0.75732
 C65 C 0.71457 0.75583 0.78331
 C66 C 0.73132 0.77494 0.75836
 C67 C 0.74726 0.71375 0.76836
 C68 C 0.76482 0.73263 0.74430
 H69 H 0.75953 0.74042 0.85495
 H70 H 0.77614 0.77984 0.73821
 H71 H 0.69078 0.75987 0.78698
 H72 H 0.74683 0.68902 0.76378
 C73 C 0.73505 0.22868 0.30066
 C74 C 0.75989 0.24246 0.32401
 C75 C 0.77615 0.26147 0.30192
 C76 C 0.76585 0.26512 0.25828
 C77 C 0.71668 0.25670 0.28348
 C78 C 0.73259 0.27566 0.26091
 C79 C 0.75043 0.21303 0.26438
 C80 C 0.76684 0.23183 0.24244
 H81 H 0.76446 0.23706 0.35502
 H82 H 0.77891 0.28060 0.24005
 H83 H 0.69288 0.26032 0.28709
 H84 H 0.74992 0.18852 0.25831
 C85 C 0.22585 0.73310 0.32466
 C86 C 0.24187 0.76000 0.34086
 C87 C 0.25689 0.77530 0.31267
 C88 C 0.25414 0.76197 0.26992
 C89 C 0.20610 0.74691 0.29148
 C90 C 0.22051 0.76196 0.26273
 C91 C 0.24980 0.71250 0.30287
 C92 C 0.26428 0.72717 0.27357
 H93 H 0.24169 0.76594 0.37226
 H94 H 0.26611 0.77430 0.24661
 H95 H 0.18245 0.74443 0.29070
 H96 H 0.25309 0.68780 0.30776
 O97 O 1.05399 -0.04851 0.06844
 O98 O 1.03140 -0.08349 0.02964
 C99 C 1.05006 -0.07644 0.05701
 O100 O 0.94028 0.03685 0.06405
 O101 O 0.96657 0.07171 0.03005
 C102 C 0.94565 0.06482 0.05426
 O103 O 0.95040 -0.04893 0.06841
 O104 O 0.97975 -0.08352 0.03066
 C105 C 0.95958 -0.07681 0.05772
 O106 O 1.05096 0.03715 0.06420
 O107 O 1.02014 0.07183 0.02933
 C108 C 1.04223 0.06498 0.05301
 Zr109 Zr 1.03569 -0.00570 0.04718
 O110 O 1.03037 -0.00436 0.10984
 O111 O 1.08242 -0.00829 0.05213
 Zr112 Zr 0.96231 -0.00591 0.04709
 O113 O 0.96775 -0.00478 0.10964
 O114 O 0.91596 -0.00736 0.05384
 O115 O 1.00117 -0.03405 0.05448
 O116 O 0.99685 0.02189 0.05460
 O117 O 1.05292 0.03750 -0.06771
 O118 O 1.02072 0.07210 -0.03429
 C119 C 1.04369 0.06533 -0.05682
 O120 O 0.95110 -0.04824 -0.07671
 O121 O 0.97991 -0.08321 -0.03937
 C122 C 0.95999 -0.07623 -0.06641
 O123 O 0.94180 0.03770 -0.07177
 O124 O 0.96717 0.07209 -0.03585
 C125 C 0.94688 0.06553 -0.06094
 O126 O 1.05554 -0.04807 -0.07459
 O127 O 1.03148 -0.08327 -0.03797
 C128 C 1.05102 -0.07608 -0.06421
 Zr129 Zr 1.03610 -0.00527 -0.05407
 O130 O 1.03124 -0.00105 -0.11672
 O131 O 1.08252 -0.00733 -0.06236
 Zr132 Zr 0.96254 -0.00544 -0.05407
 O133 O 0.96419 -0.00158 -0.11701
 O134 O 0.91611 -0.00856 -0.05571
 Zr135 Zr 1.00286 -0.05230 -0.00396
 Zr136 Zr 0.99564 0.04093 -0.00303
 O137 O 0.99735 0.02227 -0.06101
 O138 O 1.00159 -0.03353 -0.06210
 O139 O 1.03985 0.02151 -0.00312
 O140 O 0.95887 -0.03252 -0.00376
 O141 O 1.04368 -0.03204 -0.00363
 O142 O 0.95428 0.02161 -0.00325
 H143 H 0.99575 0.03635 0.07760
 H144 H 0.94234 -0.04621 -0.00396
 H145 H 0.99667 0.03701 -0.08363
 H146 H 1.06266 -0.04508 -0.00345
 H147 H 0.90788 -0.01016 0.02689
 H148 H 0.90700 0.00708 -0.03692
 H149 H 0.97620 -0.01991 -0.12742
 H150 H 1.02867 -0.02188 -0.12764
 H151 H 1.09131 -0.00697 -0.03547
 H152 H 1.08993 0.00397 0.02994
 H153 H 1.05056 -0.00366 0.12092
 H154 H 0.94750 -0.00384 0.12117
 O155 O 0.95260 0.45113 0.43011
 O156 O 0.98090 0.41652 0.46862
 C157 C 0.96145 0.42325 0.44092
 O158 O 1.05297 0.53750 0.43949
 O159 O 1.02079 0.57208 0.47300
 C160 C 1.04365 0.56533 0.45025
 O161 O 1.05618 0.45202 0.43368
 O162 O 1.03248 0.41677 0.47081
 C163 C 1.05191 0.42401 0.44437
 O164 O 0.94228 0.53702 0.43483
 O165 O 0.96724 0.57175 0.47079
 C166 C 0.94717 0.56494 0.44551
 Zr167 Zr 0.96340 0.49411 0.45282
 O168 O 0.96874 0.49572 0.39021
 O169 O 0.91717 0.49076 0.44785
 Zr170 Zr 1.03675 0.49469 0.45435
 O171 O 1.03133 0.49605 0.39179
 O172 O 1.08326 0.49364 0.44723
 O173 O 1.00256 0.46619 0.44592
 O174 O 0.99801 0.52213 0.44643
 O175 O 0.94011 0.53706 0.57124
 O176 O 0.96616 0.57183 0.53674
 C177 C 0.94530 0.56500 0.56107
 O178 O 1.05367 0.45209 0.57732
 O179 O 1.03145 0.41686 0.53850
 C180 C 1.04991 0.42409 0.56600
 O181 O 1.05026 0.53786 0.57228
 O182 O 1.01958 0.57218 0.53666
 C183 C 1.04155 0.56557 0.56059
 O184 O 0.95031 0.45123 0.57597
 O185 O 0.97987 0.41656 0.53863
 C186 C 0.95951 0.42333 0.56544
 Zr187 Zr 0.96183 0.49415 0.55396
 O188 O 0.96510 0.49598 0.61677
 O189 O 0.91547 0.49074 0.55681
 Zr190 Zr 1.03534 0.49478 0.55553
 O191 O 1.03131 0.49830 0.61839
 O192 O 1.08209 0.49207 0.56021
 Zr193 Zr 1.00325 0.44774 0.50415
 Zr194 Zr 0.99557 0.54095 0.50426
 O195 O 0.99624 0.52206 0.56200
 O196 O 1.00079 0.46632 0.56236
 O197 O 0.95434 0.52143 0.50330
 O198 O 1.04396 0.46817 0.50504
 O199 O 0.95919 0.46728 0.50323
 O200 O 1.03985 0.52180 0.50510
 H201 H 0.99746 0.53668 0.42360
 H202 H 1.06291 0.45511 0.50549
 H203 H 0.99492 0.53656 0.58495
 H204 H 0.94263 0.45363 0.50285
 H205 H 1.09185 0.49137 0.47419
 H206 H 1.08954 0.50517 0.53883
 H207 H 1.02188 0.47981 0.62792
 H208 H 0.94454 0.49615 0.62712
 H209 H 0.90649 0.50416 0.53559
 H210 H 0.90753 0.50418 0.46878
 H211 H 0.94852 0.49601 0.37892
 H212 H 1.05142 0.49755 0.38045
 O213 O 0.53909 0.05526 0.57003
 O214 O 0.57235 0.02418 0.53310
 C215 C 0.56585 0.04577 0.55928
 O216 O 0.45683 -0.04990 0.56832
 O217 O 0.42334 -0.01830 0.53283
 C218 C 0.43001 -0.04043 0.55826
 O219 O 0.53928 -0.05320 0.57202
 O220 O 0.57266 -0.02871 0.53375
 C221 C 0.56614 -0.04790 0.56162
 O222 O 0.45731 0.06577 0.56489
 O223 O 0.42341 0.03834 0.53200
 C224 C 0.43040 0.06043 0.55575
 Zr225 Zr 0.49795 0.04214 0.54921
 O226 O 0.49648 0.03665 0.61179
 O227 O 0.49922 0.09050 0.55600
 Zr228 Zr 0.49782 -0.03452 0.55031
 O229 O 0.49664 -0.02819 0.61283
 O230 O 0.49856 -0.08304 0.55726
 O231 O 0.52480 0.00169 0.55744
 O232 O 0.47124 0.00616 0.55695
 O233 O 0.45760 0.06325 0.43013
 O234 O 0.42360 0.03752 0.46560
 C235 C 0.43068 0.05855 0.44031
 O236 O 0.53928 -0.05405 0.42659
 O237 O 0.57245 -0.02939 0.46451
 C238 C 0.56604 -0.04865 0.43672
 O239 O 0.45700 -0.05033 0.43049
 O240 O 0.42342 -0.01867 0.46625
 C241 C 0.43015 -0.04087 0.44077
 O242 O 0.53964 0.05328 0.42593
 O243 O 0.57256 0.02325 0.46411
 C244 C 0.56630 0.04408 0.43704
 Zr245 Zr 0.49835 0.04125 0.44814
 O246 O 0.49715 0.03644 0.38544
 O247 O 0.50099 0.08968 0.44415
 Zr248 Zr 0.49802 -0.03578 0.44954
 O249 O 0.49532 -0.03565 0.38650
 O250 O 0.50081 -0.08475 0.45048
 Zr251 Zr 0.54261 -0.00027 0.49912
 Zr252 Zr 0.45314 0.00715 0.49924
 O253 O 0.47188 0.00497 0.44164
 O254 O 0.52498 0.00047 0.44104
 O255 O 0.47197 0.05016 0.49856
 O256 O 0.52373 -0.04311 0.49989
 O257 O 0.52373 0.04557 0.49853
 O258 O 0.47153 -0.03912 0.50004
 H259 H 0.45733 0.00770 0.57993
 H260 H 0.53702 -0.06238 0.49990
 H261 H 0.45841 0.00598 0.41837
 H262 H 0.53664 0.06299 0.49806
 H263 H 0.50360 -0.09236 0.53096
 H264 H 0.48456 -0.09109 0.46776
 H265 H 0.51028 -0.02210 0.37637
 H266 H 0.49712 0.05765 0.37448
 H267 H 0.48766 0.09935 0.46490
 H268 H 0.50237 0.09898 0.52912
 H269 H 0.49555 0.05781 0.62313
 H270 H 0.49624 -0.04913 0.62450
 O271 O 0.53893 0.55357 0.07140
 O272 O 0.57224 0.52320 0.03361
 C273 C 0.56570 0.54427 0.06045
 O274 O 0.45675 0.44849 0.06689
 O275 O 0.42325 0.48056 0.03209
 C276 C 0.42991 0.45809 0.05705
 O277 O 0.53900 0.44540 0.07125
 O278 O 0.57235 0.47085 0.03421
 C279 C 0.56581 0.45121 0.06151
 O280 O 0.45708 0.56423 0.06618
 O281 O 0.42327 0.53727 0.03241
 C282 C 0.43019 0.55904 0.05672
 Zr283 Zr 0.49775 0.54085 0.05007
 O284 O 0.49621 0.53449 0.11251
 O285 O 0.49909 0.58910 0.05807
 Zr286 Zr 0.49772 0.46424 0.04942
 O287 O 0.49640 0.46977 0.11206
 O288 O 0.49847 0.41561 0.05519
 O289 O 0.52465 0.50037 0.05734
 O290 O 0.47107 0.50476 0.05689
 O291 O 0.45747 0.56366 -0.06835
 O292 O 0.42349 0.53710 -0.03401
 C293 C 0.43056 0.55860 -0.05861
 O294 O 0.53954 0.44607 -0.07423
 O295 O 0.57258 0.47065 -0.03604
 C296 C 0.56628 0.45147 -0.06397
 O297 O 0.45718 0.44977 -0.07069
 O298 O 0.42350 0.48096 -0.03445
 C299 C 0.43031 0.45904 -0.06028
 O300 O 0.53960 0.55440 -0.07193
 O301 O 0.57257 0.52384 -0.03453
 C302 C 0.56627 0.54518 -0.06092
 Zr303 Zr 0.49823 0.54142 -0.05095
 O304 O 0.49516 0.53920 -0.11394
 O305 O 0.50100 0.58988 -0.05356
 Zr306 Zr 0.49816 0.46427 -0.05140
 O307 O 0.49509 0.46535 -0.11441
 O308 O 0.50105 0.41529 -0.05174
 Zr309 Zr 0.54257 0.49919 -0.00095
 Zr310 Zr 0.45307 0.50647 -0.00086
 O311 O 0.47196 0.50507 -0.05841
 O312 O 0.52502 0.50074 -0.05913
 O313 O 0.47179 0.54956 -0.00045
 O314 O 0.52380 0.45632 -0.00106
 O315 O 0.52351 0.54503 -0.00036
 O316 O 0.47157 0.46023 -0.00108
 H317 H 0.45712 0.50597 0.07983
 H318 H 0.53720 0.43713 -0.00127
 H319 H 0.45847 0.50635 -0.08165
 H320 H 0.53627 0.56258 -0.00014
 H321 H 0.50419 0.40662 0.02894
 H322 H 0.48507 0.40866 -0.03422
 H323 H 0.51179 0.47651 -0.12466
 H324 H 0.51422 0.52960 -0.12433
 H325 H 0.48735 0.59930 -0.03299
 H326 H 0.50145 0.59806 0.03129
 H327 H 0.49529 0.55549 0.12434
 H328 H 0.49581 0.44870 0.12328
 N329 N 1.16403 0.21640 0.10829
 C330 C 1.16696 0.18515 0.10532
 N331 N 1.19105 0.16936 0.12132
 N332 N 1.21117 0.18424 0.14083
 C333 C 1.20790 0.21545 0.14505
 N334 N 1.18423 0.23131 0.12771
 C335 C 1.14276 0.16847 0.09228
 C336 C 1.12283 0.15268 0.08471
 C337 C 1.10046 0.13166 0.07873
 N338 N 1.10333 0.10365 0.09667
 N339 N 1.08373 0.08297 0.09000
 C340 C 1.06039 0.08970 0.06546
 N341 N 1.05723 0.11803 0.04799
 N342 N 1.07693 0.13877 0.05464
 N343 N 1.16662 0.71546 0.60589
 C344 C 1.16907 0.68417 0.60377
 N345 N 1.19304 0.66827 0.61988
 N346 N 1.21348 0.68309 0.63882
 C347 C 1.21064 0.71437 0.64231
 N348 N 1.18714 0.73032 0.62472
 C349 C 1.14431 0.66776 0.59230
 C350 C 1.12385 0.65232 0.58633
 C351 C 1.10087 0.63179 0.58233
 N352 N 1.10338 0.60437 0.60175
 N353 N 1.08331 0.58394 0.59660
 C354 C 1.05984 0.59038 0.57218
 N355 N 1.05702 0.61819 0.55334
 N356 N 1.07718 0.63866 0.55845
 N357 N 0.70800 0.17439 0.62453
 C358 C 0.68581 0.16180 0.64464
 N359 N 0.67924 0.17139 0.68230
 N360 N 0.69456 0.19262 0.69962
 C361 C 0.71696 0.20533 0.67990
 N362 N 0.72340 0.19571 0.64191
 C363 C 0.66882 0.13892 0.62677
 C364 C 0.65284 0.12023 0.61416
 C365 C 0.63165 0.09934 0.60156
 N366 N 0.60390 0.10241 0.61708
 N367 N 0.58335 0.08439 0.60454
 C368 C 0.58983 0.06249 0.57621
 N369 N 0.61780 0.05914 0.56096
 N370 N 0.63843 0.07727 0.57351
 N371 N 0.70862 0.67069 0.12678
 C372 C 0.68669 0.65825 0.14761
 N373 N 0.68056 0.66813 0.18528
 N374 N 0.69605 0.68954 0.20190
 C375 C 0.71814 0.70202 0.18138
 N376 N 0.72419 0.69217 0.14347
 C377 C 0.66934 0.63550 0.13022
 C378 C 0.65315 0.61703 0.11763
 C379 C 0.63183 0.59646 0.10465
 N380 N 0.60403 0.59964 0.11999
 N381 N 0.58332 0.58206 0.10682
 C382 C 0.58972 0.56054 0.07799
 N383 N 0.61773 0.55709 0.06293
 N384 N 0.63850 0.57476 0.07611
 N385 N 0.84140 -0.19532 0.19022
 C386 C 0.84936 -0.19951 0.15144
 N387 N 0.83353 -0.21763 0.12801
 N388 N 0.81054 -0.23128 0.14304
 C389 C 0.80246 -0.22706 0.18190
 N390 N 0.81843 -0.20893 0.20521
 C391 C 0.87256 -0.18270 0.13485
 C392 C 0.89097 -0.16673 0.12178
 C393 C 0.91106 -0.14522 0.10743
 N394 N 0.90929 -0.11623 0.12272
 N395 N 0.92571 -0.09493 0.10762
 C396 C 0.94460 -0.10181 0.07674
 N397 N 0.94669 -0.13104 0.06168
 N398 N 0.93013 -0.15242 0.07679
 N399 N 0.83781 0.30637 0.69518
 C400 C 0.84591 0.30264 0.65639
 N401 N 0.83002 0.28497 0.63244
 N402 N 0.80689 0.27127 0.64697
 C403 C 0.79867 0.27494 0.68588
 N404 N 0.81469 0.29270 0.70968
 C405 C 0.86958 0.31919 0.64044
 C406 C 0.88850 0.33478 0.62787
 C407 C 0.90933 0.35578 0.61407
 N408 N 0.90843 0.38453 0.63000
 N409 N 0.92548 0.40547 0.61535
 C410 C 0.94419 0.39845 0.58430
 N411 N 0.94544 0.36943 0.56863
 N412 N 0.92824 0.34842 0.58329
 N413 N 0.30917 -0.16335 0.68943
 C414 C 0.30818 -0.15267 0.65132
 N415 N 0.29089 -0.16607 0.62454
 N416 N 0.27514 -0.18936 0.63539
 C417 C 0.27610 -0.20031 0.67338
 N418 N 0.29332 -0.18671 0.70033
 C419 C 0.32691 -0.12924 0.63825
 C420 C 0.34342 -0.11080 0.62584
 C421 C 0.36458 -0.09066 0.61040
 N422 N 0.35706 -0.06934 0.58174
 N423 N 0.37757 -0.05259 0.56549
 C424 C 0.40631 -0.05678 0.57728
 N425 N 0.41358 -0.07800 0.60608
 N426 N 0.39315 -0.09462 0.62230
 N427 N 0.30850 0.33637 0.18984
 C428 C 0.30735 0.34687 0.15164
 N429 N 0.28947 0.33376 0.12535
 N430 N 0.27333 0.31091 0.13674
 C431 C 0.27445 0.30013 0.17482
 N432 N 0.29226 0.31345 0.20129
 C433 C 0.32641 0.36987 0.13799
 C434 C 0.34311 0.38798 0.12514
 C435 C 0.36443 0.40781 0.10927
 N436 N 0.35680 0.42967 0.08130
 N437 N 0.37734 0.44633 0.06493
 C438 C 0.40623 0.44154 0.07589
 N439 N 0.41361 0.41975 0.10397
 N440 N 0.39316 0.40321 0.12031
 N441 N 0.80728 0.17564 -0.17893
 C442 C 0.82807 0.19273 -0.16311
 N443 N 0.82771 0.22325 -0.17224
 N444 N 0.80721 0.23609 -0.19693
 C445 C 0.78668 0.21874 -0.21357
 N446 N 0.78700 0.18838 -0.20363
 C447 C 0.85160 0.17716 -0.14078
 C448 C 0.87033 0.16045 -0.12457
 C449 C 0.89079 0.13695 -0.10840
 N450 N 0.91171 0.14349 -0.08147
 N451 N 0.93002 0.12081 -0.06655
 C452 C 0.92792 0.09098 -0.07815
 N453 N 0.90700 0.08468 -0.10514
 N454 N 0.88880 0.10727 -0.12001
 N455 N 0.83284 0.72076 0.32603
 C456 C 0.82899 0.69301 0.34317
 N457 N 0.80437 0.67849 0.33464
 N458 N 0.78439 0.69097 0.30927
 C459 C 0.78831 0.71844 0.29148
 N460 N 0.81270 0.73336 0.30071
 C461 C 0.85225 0.67653 0.36496
 C462 C 0.87079 0.65950 0.38097
 C463 C 0.89118 0.63603 0.39726
 N464 N 0.88924 0.60631 0.38579
 N465 N 0.90741 0.58379 0.40090
 C466 C 0.92823 0.59023 0.42799
 N467 N 0.93026 0.62010 0.43942
 N468 N 0.91200 0.64270 0.42426
 N469 N 0.30594 0.16014 0.27526
 C470 C 0.31442 0.17307 0.30971
 N471 N 0.30782 0.20384 0.31580
 N472 N 0.29266 0.22094 0.28853
 C473 C 0.28387 0.20790 0.25409
 N474 N 0.29086 0.17718 0.24810
 C475 C 0.33141 0.15435 0.33814
 C476 C 0.34681 0.13785 0.35990
 C477 C 0.36734 0.11822 0.38294
 N478 N 0.39666 0.12153 0.37896
 N479 N 0.41638 0.10250 0.39771
 C480 C 0.40767 0.07931 0.42112
 N481 N 0.37818 0.07600 0.42539
 N482 N 0.35832 0.09512 0.40642
 N483 N 0.30757 0.65941 -0.22586
 C484 C 0.31537 0.67241 -0.19112
 N485 N 0.30857 0.70315 -0.18519
 N486 N 0.29386 0.72018 -0.21291
 C487 C 0.28573 0.70709 -0.24765
 N488 N 0.29293 0.67639 -0.25347
 C489 C 0.33191 0.65380 -0.16217
 C490 C 0.34702 0.63746 -0.13991
 C491 C 0.36731 0.61812 -0.11622
 N492 N 0.39651 0.62259 -0.11813
 N493 N 0.41618 0.60368 -0.09913
 C494 C 0.40753 0.57947 -0.07750
 N495 N 0.37816 0.57502 -0.07524
 N496 N 0.35835 0.59402 -0.09448
 N497 N 1.20080 -0.19026 -0.18016
 C498 C 1.17310 -0.19885 -0.17247
 N499 N 1.16267 -0.22201 -0.19398
 N500 N 1.17922 -0.23596 -0.22256
 C501 C 1.20675 -0.22720 -0.23092
 N502 N 1.21749 -0.20436 -0.20878
 C503 C 1.15306 -0.18052 -0.14720
 C504 C 1.13496 -0.16397 -0.12928
 C505 C 1.11313 -0.14226 -0.11190
 N506 N 1.09334 -0.15084 -0.08422
 N507 N 1.07276 -0.13011 -0.06941
 C508 C 1.07121 -0.10031 -0.08229
 N509 N 1.09093 -0.09208 -0.11020
 N510 N 1.11140 -0.11268 -0.12487
 N511 N 1.16128 0.27944 0.30939
 C512 C 1.17228 0.30195 0.33151
 N513 N 1.20013 0.31013 0.32377
 N514 N 1.21640 0.29624 0.29458
 C515 C 1.20510 0.27405 0.27189
 N516 N 1.17742 0.26572 0.28025
 C517 C 1.15275 0.32002 0.35777
 C518 C 1.13503 0.33641 0.37659
 C519 C 1.11362 0.35805 0.39503
 N520 N 1.09382 0.34921 0.42258
 N521 N 1.07347 0.36988 0.43808
 C522 C 1.07215 0.39988 0.42605
 N523 N 1.09189 0.40838 0.39832
 N524 N 1.11213 0.38785 0.38297
 N525 N 0.71874 -0.16389 0.31310
 C526 C 0.68951 -0.15596 0.30693
 N527 N 0.67518 -0.17065 0.27805
 N528 N 0.68943 -0.19277 0.25622
 C529 C 0.71860 -0.20107 0.26240
 N530 N 0.73307 -0.18605 0.29111
 C531 C 0.67285 -0.13409 0.33216
 C532 C 0.65633 -0.11712 0.35209
 C533 C 0.63388 -0.09877 0.37383
 N534 N 0.60504 -0.10175 0.36522
 N535 N 0.58364 -0.08564 0.38535
 C536 C 0.59025 -0.06594 0.41490
 N537 N 0.61921 -0.06287 0.42356
 N538 N 0.64071 -0.07909 0.40336
 N539 N 0.67478 0.32477 -0.21651
 C540 C 0.68980 0.34172 -0.19074
 N541 N 0.71966 0.33610 -0.18787
 N542 N 0.73393 0.31399 -0.21006
 C543 C 0.71880 0.29670 -0.23571
 N544 N 0.68898 0.30274 -0.23852
 C545 C 0.67341 0.36418 -0.16595
 C546 C 0.65692 0.38164 -0.14657
 C547 C 0.63441 0.40055 -0.12556
 N548 N 0.64109 0.42004 -0.09573
 N549 N 0.61951 0.43659 -0.07607
 C550 C 0.59060 0.43410 -0.08559
 N551 N 0.58415 0.41462 -0.11548
 N552 N 0.60563 0.39817 -0.13506
 N553 N 1.19433 0.16998 -0.11799
 C554 C 1.17015 0.18556 -0.10159
 N555 N 1.16715 0.21683 -0.10401
 N556 N 1.18734 0.23195 -0.12335
 C557 C 1.21107 0.21629 -0.14120
 N558 N 1.21445 0.18505 -0.13744
 C559 C 1.14579 0.16873 -0.08924
 C560 C 1.12570 0.15288 -0.08253
 C561 C 1.10317 0.13183 -0.07786
 N562 N 1.07871 0.13896 -0.05511
 N563 N 1.05868 0.11830 -0.04998
 C564 C 1.06242 0.09003 -0.06770
 N565 N 1.08671 0.08329 -0.09090
 N566 N 1.10664 0.10389 -0.09606
 N567 N 1.16408 0.71798 0.39273
 C568 C 1.16727 0.68676 0.39597
 N569 N 1.19136 0.67103 0.37951
 N570 N 1.21124 0.68592 0.35933
 C571 C 1.20773 0.71710 0.35488
 N572 N 1.18405 0.73290 0.37264
 C573 C 1.14332 0.66995 0.40993
 C574 C 1.12365 0.65394 0.41820
 C575 C 1.10165 0.63253 0.42478
 N576 N 1.10522 0.60425 0.40749
 N577 N 1.08581 0.58337 0.41427
 C578 C 1.06197 0.59012 0.43828
 N579 N 1.05814 0.61869 0.45517
 N580 N 1.07765 0.63965 0.44841
 N581 N 0.67248 0.18885 0.34380
 C582 C 0.68649 0.16234 0.35785
 N583 N 0.71645 0.15826 0.35538
 N584 N 0.73186 0.17991 0.33877
 C585 C 0.71785 0.20634 0.32404
 N586 N 0.68787 0.21044 0.32716
 C587 C 0.66937 0.13818 0.37230
 C588 C 0.65345 0.11872 0.38296
 C589 C 0.63250 0.09713 0.39434
 N590 N 0.63882 0.07572 0.42317
 N591 N 0.61813 0.05759 0.43564
 C592 C 0.59051 0.06031 0.41962
 N593 N 0.58449 0.08151 0.39045
 N594 N 0.60513 0.09953 0.37797
 N595 N 0.67068 0.69098 -0.15561
 C596 C 0.68510 0.66570 -0.13890
 N597 N 0.71513 0.66277 -0.13962
 N598 N 0.73024 0.68426 -0.15718
 C599 C 0.71588 0.70946 -0.17475
 N600 N 0.68575 0.71240 -0.17321
 C601 C 0.66839 0.64140 -0.12379
 C602 C 0.65271 0.62175 -0.11293
 C603 C 0.63192 0.59989 -0.10173
 N604 N 0.63840 0.57819 -0.07328
 N605 N 0.61792 0.55959 -0.06135
 C606 C 0.59035 0.56209 -0.07758
 N607 N 0.58418 0.58360 -0.10634
 N608 N 0.60460 0.60208 -0.11828
 N609 N 0.82850 -0.21154 -0.13334
 C610 C 0.84479 -0.19465 -0.15791
 N611 N 0.83687 -0.19153 -0.19674
 N612 N 0.81353 -0.20504 -0.21064
 C613 C 0.79711 -0.22203 -0.18620
 N614 N 0.80516 -0.22506 -0.14727
 C615 C 0.86880 -0.17839 -0.14253
 C616 C 0.88804 -0.16320 -0.13011
 C617 C 0.90931 -0.14276 -0.11617
 N618 N 0.92746 -0.15038 -0.08494
 N619 N 0.94491 -0.12977 -0.06997
 C620 C 0.94468 -0.10089 -0.08577
 N621 N 0.92676 -0.09363 -0.11730
 N622 N 0.90946 -0.11416 -0.13226
 N623 N 0.84161 0.30683 0.30814
 C624 C 0.84974 0.30284 0.34678
 N625 N 0.83369 0.28529 0.37081
 N626 N 0.81035 0.27199 0.35654
 C627 C 0.80209 0.27598 0.31783
 N628 N 0.81827 0.29355 0.29389
 C629 C 0.87344 0.31920 0.36268
 C630 C 0.89229 0.33468 0.37550
 C631 C 0.91292 0.35556 0.38987
 N632 N 0.93075 0.34834 0.42154
 N633 N 0.94748 0.36938 0.43699
 C634 C 0.94681 0.39831 0.42126
 N635 N 0.92920 0.40520 0.38932
 N636 N 0.91262 0.38422 0.37388
 N637 N 0.30865 -0.16245 0.30826
 C638 C 0.30760 -0.15188 0.34650
 N639 N 0.28963 -0.16482 0.37303
 N640 N 0.27331 -0.18754 0.36184
 C641 C 0.27432 -0.19838 0.32373
 N642 N 0.29222 -0.18525 0.29702
 C643 C 0.32679 -0.12895 0.35994
 C644 C 0.34353 -0.11085 0.37266
 C645 C 0.36480 -0.09097 0.38846
 N646 N 0.35713 -0.06940 0.41696
 N647 N 0.37762 -0.05275 0.43330
 C648 C 0.40649 -0.05725 0.42176
 N649 N 0.41391 -0.07874 0.39313
 N650 N 0.39351 -0.09527 0.37683
 N651 N 0.30804 0.33742 -0.19175
 C652 C 0.30882 0.34650 -0.15296
 N653 N 0.29308 0.33168 -0.12554
 N654 N 0.27711 0.30860 -0.13642
 C655 C 0.27625 0.29923 -0.17511
 N656 N 0.29196 0.31427 -0.20267
 C657 C 0.32763 0.36994 -0.14012
 C658 C 0.34413 0.38840 -0.12782
 C659 C 0.36519 0.40866 -0.11243
 N660 N 0.35754 0.42982 -0.08344
 N661 N 0.37794 0.44664 -0.06724
 C662 C 0.40670 0.44270 -0.07940
 N663 N 0.41410 0.42163 -0.10853
 N664 N 0.39378 0.40494 -0.12471
 N665 N 1.16037 -0.21995 0.19121
 C666 C 1.17102 -0.19730 0.16895
 N667 N 1.19875 -0.18872 0.17622
 N668 N 1.21525 -0.20237 0.20510
 C669 C 1.20430 -0.22472 0.22795
 N670 N 1.17673 -0.23344 0.22004
 C671 C 1.15119 -0.17951 0.14305
 C672 C 1.13320 -0.16340 0.12458
 C673 C 1.11141 -0.14206 0.10665
 N674 N 1.09329 -0.15064 0.07707
 N675 N 1.07289 -0.13018 0.06160
 C676 C 1.06984 -0.10066 0.07564
 N677 N 1.08787 -0.09246 0.10544
 N678 N 1.10815 -0.11278 0.12078
 N679 N 1.20031 0.31235 0.68222
 C680 C 1.17272 0.30344 0.67482
 N681 N 1.16258 0.28007 0.69628
 N682 N 1.17928 0.26623 0.72451
 C683 C 1.20669 0.27530 0.73259
 N684 N 1.21715 0.29836 0.71050
 C685 C 1.15249 0.32148 0.64978
 C686 C 1.13415 0.33765 0.63202
 C687 C 1.11193 0.35885 0.61478
 N688 N 1.10819 0.38792 0.62957
 N689 N 1.08762 0.40812 0.61463
 C690 C 1.06976 0.39997 0.58461
 N691 N 1.07327 0.37064 0.56996
 N692 N 1.09397 0.35032 0.58502
 N693 N 0.67364 -0.17299 0.71588
 C694 C 0.68881 -0.15691 0.68917
 N695 N 0.71865 -0.16296 0.68601
 N696 N 0.73273 -0.18463 0.70885
 C697 C 0.71742 -0.20104 0.73546
 N698 N 0.68763 -0.19457 0.73852
 C699 C 0.67260 -0.13488 0.66382
 C700 C 0.65623 -0.11771 0.64412
 C701 C 0.63383 -0.09902 0.62287
 N702 N 0.64075 -0.07930 0.59341
 N703 N 0.61932 -0.06274 0.57380
 C704 C 0.59032 -0.06545 0.58301
 N705 N 0.58362 -0.08518 0.61251
 N706 N 0.60495 -0.10164 0.63204
 N707 N 0.67490 0.33245 0.22270
 C708 C 0.68907 0.34584 0.19242
 N709 N 0.71811 0.33711 0.18543
 N710 N 0.73238 0.31542 0.20798
 C711 C 0.71804 0.30169 0.23809
 N712 N 0.68909 0.31081 0.24508
 C713 C 0.67238 0.36709 0.16666
 C714 C 0.65585 0.38360 0.14640
 C715 C 0.63343 0.40150 0.12433
 N716 N 0.64037 0.42184 0.09563
 N717 N 0.61894 0.43786 0.07539
 C718 C 0.58994 0.43396 0.08321
 N719 N 0.58323 0.41359 0.11193
 N720 N 0.60456 0.39766 0.13207
 N721 N 0.80261 0.17838 0.16861
 C722 C 0.82688 0.19294 0.15816
 N723 N 0.83060 0.22132 0.17359
 N724 N 0.81070 0.23453 0.19909
 C725 C 0.78664 0.21963 0.21021
 N726 N 0.78286 0.19148 0.19415
 C727 C 0.84988 0.17618 0.13577
 C728 C 0.86830 0.15909 0.11926
 C729 C 0.88864 0.13563 0.10240
 N730 N 0.91053 0.14256 0.07688
 N731 N 0.92904 0.12006 0.06164
 C732 C 0.92622 0.09002 0.07155
 N733 N 0.90432 0.08332 0.09713
 N734 N 0.88590 0.10573 0.11230
 N735 N 0.80478 0.67556 0.68203
 C736 C 0.82554 0.69212 0.66492
 N737 N 0.82529 0.72287 0.67274
 N738 N 0.80496 0.73646 0.69740
 C739 C 0.78443 0.71968 0.71529
 N740 N 0.78464 0.68905 0.70669
 C741 C 0.84880 0.67598 0.64223
 C742 C 0.86741 0.65914 0.62562
 C743 C 0.88792 0.63576 0.60883
 N744 N 0.90968 0.64271 0.58311
 N745 N 0.92831 0.62025 0.56799
 C746 C 0.92575 0.59022 0.57821
 N747 N 0.90397 0.58351 0.60397
 N748 N 0.88544 0.60588 0.61903
 N749 N 0.30731 0.16171 0.72409
 C750 C 0.31536 0.17492 0.68956
 N751 N 0.30873 0.20573 0.68419
 N752 N 0.29398 0.22264 0.71228
 C753 C 0.28563 0.20934 0.74683
 N754 N 0.29263 0.17856 0.75207
 C755 C 0.33191 0.15640 0.66020
 C756 C 0.34698 0.14007 0.63757
 C757 C 0.36714 0.12067 0.61335
 N758 N 0.39620 0.12589 0.61333
 N759 N 0.41585 0.10682 0.59417
 C760 C 0.40732 0.08172 0.57426
 N761 N 0.37806 0.07656 0.57387
 N762 N 0.35829 0.09571 0.59328
 N763 N 0.30537 0.66148 0.22272
 C764 C 0.31383 0.67432 0.18815
 N765 N 0.30720 0.70506 0.18213
 N766 N 0.29205 0.72224 0.20961
 C767 C 0.28329 0.70930 0.24420
 N768 N 0.29030 0.67859 0.25009
 C769 C 0.33080 0.65550 0.15944
 C770 C 0.34617 0.63895 0.13740
 C771 C 0.36663 0.61930 0.11389
 N772 N 0.39584 0.62369 0.11570
 N773 N 0.41560 0.60456 0.09684
 C774 C 0.40706 0.58019 0.07544
 N775 N 0.37767 0.57582 0.07328
 N776 N 0.35778 0.59505 0.09238
   
