data_POSCAR
  _audit_creation_date              2014-09-24
  _audit_creation_method            'ToBaCCo'
  _symmetry_space_group_name_H-M    'P1'
  _symmetry_Int_Tables_number       1
  _symmetry_cell_setting            triclinic
  loop_
  _symmetry_equiv_pos_as_xyz
 x,y,z
_cell_length_a 36.0786
_cell_length_b 36.1016
_cell_length_c 36.0790
_cell_angle_alpha 76.689100
_cell_angle_beta 103.003300
_cell_angle_gamma 76.593100
loop_
  _atom_site_label
  _atom_site_type_symbol
  _atom_site_fract_x
  _atom_site_fract_y
  _atom_site_fract_z
O1 O 0.54310 0.50325 0.02250
 O2 O 0.43792 0.51536 0.01827
 O3 O 0.49764 0.45648 0.02276
 O4 O 0.48313 0.56224 0.01728
 O5 O 0.46649 0.57851 -0.04851
 O6 O 0.48107 0.47285 -0.04302
 O7 O 0.42121 0.53164 -0.04750
 O8 O 0.52660 0.51960 -0.04327
 Cu9 Cu 0.49213 0.50768 0.02683
 Cu10 Cu 0.47219 0.52727 -0.05221
 C11 C 0.55259 0.50967 -0.00965
 C12 C 0.41183 0.52531 -0.01526
 C13 C 0.49150 0.44687 -0.00927
 C14 C 0.47259 0.58818 -0.01653
 O15 O -0.02133 0.54387 0.50287
 O16 O -0.01697 0.43858 0.51501
 O17 O -0.01683 0.48414 0.56158
 O18 O -0.02226 0.49843 0.45599
 O19 O 0.04354 0.48150 0.47193
 O20 O 0.04898 0.46727 0.57776
 O21 O 0.04883 0.42172 0.53110
 O22 O 0.04446 0.52692 0.51887
 Cu23 Cu -0.02598 0.49297 0.50723
 Cu24 Cu 0.05309 0.47267 0.52650
 C25 C 0.01089 0.55311 0.50914
 C26 C 0.01666 0.41241 0.52491
 C27 C 0.01690 0.47353 0.58747
 C28 C 0.00971 0.49207 0.44615
 O29 O 0.50284 0.03107 0.53981
 O30 O 0.49095 0.03565 0.43466
 O31 O 0.44398 0.03601 0.48011
 O32 O 0.54976 0.03022 0.49428
 O33 O 0.56589 -0.03562 0.51098
 O34 O 0.46027 -0.02983 0.49675
 O35 O 0.50719 -0.03018 0.45126
 O36 O 0.51901 -0.03476 0.55654
 Cu37 Cu 0.49523 0.03988 0.48558
 Cu38 Cu 0.51469 -0.03924 0.50560
 C39 C 0.51276 -0.00256 0.56592
 C40 C 0.49739 0.00350 0.42525
 C41 C 0.43432 0.00400 0.48618
 C42 C 0.57562 -0.00367 0.50467
 C43 C 0.49188 -0.00064 0.00264
 C44 C 0.49705 0.02794 -0.02606
 C45 C 0.50172 0.02137 -0.06415
 C46 C 0.49794 0.06746 -0.02107
 C47 C 0.49107 0.00426 0.04226
 C48 C 0.48694 -0.03860 -0.00382
 C49 C 0.53159 -0.01134 -0.06448
 C50 C 0.53577 -0.01682 -0.10064
 C51 C 0.51039 0.01051 -0.13676
 C52 C 0.48091 0.04335 -0.13657
 C53 C 0.47668 0.04883 -0.10050
 C54 C 0.53010 0.08162 -0.02629
 C55 C 0.53094 0.11910 -0.02254
 C56 C 0.49952 0.14293 -0.01380
 C57 C 0.46721 0.12914 -0.00881
 C58 C 0.46632 0.09165 -0.01258
 C59 C 0.45902 -0.00105 0.05669
 C60 C 0.45866 0.00158 0.09463
 C61 C 0.49044 0.00931 0.11869
 C62 C 0.52251 0.01471 0.10452
 C63 C 0.52291 0.01206 0.06653
 C64 C 0.45654 -0.03867 -0.03595
 C65 C 0.45158 -0.07474 -0.04078
 C66 C 0.47673 -0.11097 -0.01338
 C67 C 0.50691 -0.11102 0.01873
 C68 C 0.51191 -0.07506 0.02357
 H69 H 0.55171 -0.03244 -0.03678
 H70 H 0.55882 -0.04222 -0.10044
 H71 H 0.46119 0.06474 -0.16433
 H72 H 0.45364 0.07435 -0.10089
 H73 H 0.55461 0.06354 -0.03312
 H74 H 0.55598 0.12957 -0.02665
 H75 H 0.44085 0.08163 -0.00926
 H76 H 0.43433 -0.00735 0.03855
 H77 H 0.43380 -0.00282 0.10536
 H78 H 0.54739 0.02042 0.12302
 H79 H 0.54829 0.01546 0.05629
 H80 H 0.43648 -0.01084 -0.05695
 H81 H 0.42800 -0.07439 -0.06561
 H82 H 0.52645 -0.13888 0.04015
 H83 H 0.53534 -0.07561 0.04866
 H84 H 0.44260 0.14749 -0.00233
 C85 C -0.02159 0.49806 0.99238
 C86 C 0.00654 0.50425 1.02052
 C87 C 0.04436 0.50947 1.01353
 C88 C 0.00155 0.50528 1.06008
 C89 C -0.06145 0.49763 0.99699
 C90 C -0.01415 0.49187 0.95505
 C91 C 0.08103 0.48515 1.04096
 C92 C 0.11680 0.48989 1.03499
 C93 C 0.11635 0.51915 1.00168
 C94 C 0.07991 0.54382 0.97439
 C95 C 0.04406 0.53913 0.98036
 C96 C -0.00639 0.47353 1.08457
 C97 C -0.00857 0.47378 1.12273
 C98 C -0.00258 0.50560 1.13687
 C99 C 0.00517 0.53737 1.11256
 C100 C 0.00734 0.53716 1.07443
 C101 C -0.08592 0.52975 1.00454
 C102 C -0.12428 0.52997 1.00644
 C103 C -0.13865 0.49825 1.00057
 C104 C -0.11435 0.46613 0.99321
 C105 C -0.07604 0.46586 0.99131
 C106 C -0.04096 0.51604 0.91804
 C107 C -0.03450 0.51043 0.88272
 C108 C -0.00133 0.48041 0.88400
 C109 C 0.02532 0.45587 0.92080
 C110 C 0.01886 0.46143 0.95620
 H111 H 0.08191 0.46228 1.06683
 H112 H 0.14481 0.47072 1.05636
 H113 H 0.07921 0.56669 0.94862
 H114 H 0.01610 0.55870 0.95926
 H115 H -0.01009 0.44825 1.07444
 H116 H -0.01428 0.44890 1.14143
 H117 H 0.01379 0.56177 1.05614
 H118 H -0.07561 0.55495 1.00817
 H119 H -0.14293 0.55512 1.01189
 H120 H -0.12521 0.44151 0.98845
 H121 H -0.05779 0.44096 0.98519
 H122 H -0.06669 0.53949 0.91655
 H123 H -0.05535 0.52952 0.85441
 H124 H 0.05098 0.43243 0.92211
 H125 H 0.03947 0.44198 0.98446
 H126 H 0.01004 0.56204 1.12327
 C127 C 0.02628 -0.02915 0.50360
 C128 C -0.00231 -0.00054 0.50896
 C129 C -0.04164 -0.00570 0.51051
 C130 C 0.00382 0.03783 0.51301
 C131 C 0.06390 -0.02223 0.49790
 C132 C 0.02161 -0.06895 0.50332
 C133 C -0.06610 -0.01392 0.47911
 C134 C -0.10386 -0.01679 0.48016
 C135 C -0.11759 -0.01120 0.51240
 C136 C -0.09336 -0.00303 0.54374
 C137 C -0.05563 -0.00018 0.54275
 C138 C -0.02418 0.07396 0.48804
 C139 C -0.01964 0.11030 0.49219
 C140 C 0.01281 0.11099 0.52151
 C141 C 0.04083 0.07510 0.54666
 C142 C 0.03629 0.03864 0.54255
 C143 C 0.10065 -0.04912 0.52271
 C144 C 0.13629 -0.04315 0.51766
 C145 C 0.13560 -0.01042 0.48757
 C146 C 0.09907 0.01627 0.46236
 C147 C 0.06334 0.01031 0.46736
 C148 C 0.01366 -0.09304 0.53537
 C149 C 0.01030 -0.13080 0.53505
 C150 C 0.01516 -0.14499 0.50290
 C151 C 0.02334 -0.12124 0.47105
 C152 C 0.02668 -0.08350 0.47131
 H153 H -0.05619 -0.01746 0.45360
 H154 H -0.12253 -0.02281 0.45561
 H155 H -0.10379 0.00154 0.56873
 H156 H -0.03733 0.00646 0.56708
 H157 H -0.04953 0.07398 0.46525
 H158 H -0.04155 0.13787 0.47264
 H159 H 0.05780 0.01111 0.56262
 H160 H 0.10169 -0.07451 0.54624
 H161 H 0.16440 -0.06404 0.53725
 H162 H 0.09822 0.04158 0.43886
 H163 H 0.03529 0.03094 0.44742
 H164 H 0.01045 -0.08274 0.56072
 H165 H 0.00424 -0.14905 0.55999
 H166 H 0.02733 -0.13198 0.44611
 H167 H 0.03309 -0.06552 0.44646
 H168 H 0.06594 0.07529 0.56959
 C169 C -0.40660 0.50641 0.99207
 C170 C -0.37239 0.50434 0.99372
 C171 C -0.33163 0.50250 0.99581
 C172 C -0.31405 0.48760 0.96925
 C173 C -0.27469 0.48653 0.97086
 C174 C -0.25272 0.50036 0.99903
 C175 C -0.27026 0.51513 1.02568
 C176 C -0.30962 0.51620 1.02407
 C177 C -0.21240 0.49971 1.00024
 C178 C -0.17872 0.49912 1.00074
 H179 H -0.33080 0.47701 0.94722
 H180 H -0.26145 0.47508 0.95007
 H181 H -0.25358 0.52593 1.04755
 H182 H -0.32294 0.52785 1.04471
 C183 C 0.37331 0.52844 0.98353
 C184 C 0.33939 0.53033 0.98309
 C185 C 0.29931 0.53147 0.98343
 C186 C 0.27861 0.51141 0.96139
 C187 C 0.24056 0.51052 0.96353
 C188 C 0.22305 0.52970 0.98771
 C189 C 0.24353 0.55023 1.00932
 C190 C 0.28157 0.55111 1.00719
 C191 C 0.18491 0.52686 0.99171
 C192 C 0.15340 0.52374 0.99583
 H193 H 0.29210 0.49596 0.94307
 H194 H 0.22509 0.49441 0.94683
 H195 H 0.23036 0.56501 1.02826
 H196 H 0.29738 0.56656 1.02450
 C197 C 0.00954 -0.40839 0.50621
 C198 C 0.00870 -0.37442 0.50442
 C199 C 0.00816 -0.33413 0.50315
 C200 C -0.00562 -0.31718 0.53063
 C201 C -0.00505 -0.27848 0.53026
 C202 C 0.00933 -0.25656 0.50242
 C203 C 0.02288 -0.27341 0.47478
 C204 C 0.02230 -0.31211 0.47515
 C205 C 0.01087 -0.21711 0.50265
 C206 C 0.01259 -0.18418 0.50284
 H207 H -0.01651 -0.33397 0.55249
 H208 H -0.01553 -0.26578 0.55181
 H209 H 0.03412 -0.25675 0.45316
 H210 H 0.03314 -0.32495 0.45384
 C211 C 0.01830 0.37164 0.52836
 C212 C 0.01953 0.33754 0.53042
 C213 C 0.02067 0.29708 0.53190
 C214 C -0.00726 0.28085 0.54547
 C215 C -0.00734 0.24221 0.54509
 C216 C 0.02052 0.21963 0.53115
 C217 C 0.04876 0.23569 0.51803
 C218 C 0.04884 0.27433 0.51842
 C219 C 0.01895 0.18076 0.52870
 C220 C 0.01673 0.14866 0.52585
 H221 H -0.02927 0.29822 0.55583
 H222 H -0.02944 0.23016 0.55512
 H223 H 0.07032 0.21857 0.50701
 H224 H 0.07048 0.28664 0.50772
 C225 C 0.51608 -0.00397 -0.39552
 C226 C 0.51826 -0.00470 -0.36150
 C227 C 0.51988 -0.00483 -0.32124
 C228 C 0.50046 -0.02746 -0.30001
 C229 C 0.50019 -0.02594 -0.26168
 C230 C 0.51934 -0.00177 -0.24440
 C231 C 0.53921 0.02045 -0.26541
 C232 C 0.53948 0.01893 -0.30375
 C233 C 0.51712 0.00159 -0.20592
 C234 C 0.51447 0.00521 -0.17413
 H235 H 0.48506 -0.04580 -0.31331
 H236 H 0.48458 -0.04311 -0.24578
 H237 H 0.55397 0.03937 -0.25241
 H238 H 0.55445 0.03668 -0.31995
 C239 C 0.49435 0.00525 0.38453
 C240 C 0.49258 0.00675 0.35043
 C241 C 0.49121 0.00844 0.30988
 C242 C 0.47246 -0.01516 0.29124
 C243 C 0.47200 -0.01418 0.25216
 C244 C 0.49031 0.01039 0.23156
 C245 C 0.50889 0.03414 0.25013
 C246 C 0.50934 0.03317 0.28921
 C247 C 0.49047 0.01071 0.19164
 C248 C 0.49056 0.01043 0.15832
 H249 H 0.45843 -0.03444 0.30698
 H250 H 0.45760 -0.03271 0.23810
 H251 H 0.52317 0.05320 0.23450
 H252 H 0.52400 0.05147 0.30338
 C253 C 0.46840 -0.37087 -0.01861
 C254 C 0.46588 -0.33664 -0.02018
 C255 C 0.46407 -0.29609 -0.02168
 C256 C 0.45110 -0.27988 0.00656
 C257 C 0.45161 -0.24126 0.00654
 C258 C 0.46509 -0.21872 -0.02173
 C259 C 0.47749 -0.23470 -0.05035
 C260 C 0.47698 -0.27332 -0.05033
 C261 C 0.46809 -0.18008 -0.02002
 C262 C 0.47155 -0.14825 -0.01759
 H263 H 0.44124 -0.29730 0.02895
 H264 H 0.44216 -0.22926 0.02894
 H265 H 0.48817 -0.21760 -0.07220
 H266 H 0.48724 -0.28564 -0.07219
 C267 C 0.49551 0.40599 -0.00742
 C268 C 0.49789 0.37188 -0.00634
 C269 C 0.49973 0.33148 -0.00561
 C270 C 0.47469 0.31313 0.01123
 C271 C 0.47526 0.27443 0.01058
 C272 C 0.50088 0.25392 -0.00694
 C273 C 0.52618 0.27213 -0.02347
 C274 C 0.52560 0.31084 -0.02282
 C275 C 0.50055 0.21461 -0.00879
 C276 C 0.50010 0.18186 -0.01082
 H277 H 0.45447 0.32888 0.02449
 H278 H 0.45552 0.26066 0.02336
 H279 H 0.54603 0.25655 -0.03717
 H280 H 0.54498 0.32480 -0.03605
 C281 C -0.38348 -0.00591 0.50838
 C282 C -0.34924 -0.00785 0.51056
 C283 C -0.30856 -0.01009 0.51220
 C284 C -0.29020 -0.02966 0.48876
 C285 C -0.25104 -0.03092 0.48937
 C286 C -0.23010 -0.01261 0.51342
 C287 C -0.24836 0.00672 0.53708
 C288 C -0.28753 0.00799 0.53647
 C289 C -0.19025 -0.01285 0.51318
 C290 C -0.15703 -0.01247 0.51283
 H291 H -0.30625 -0.04365 0.46981
 H292 H -0.23722 -0.04586 0.47090
 H293 H -0.23244 0.02105 0.55572
 H294 H -0.30150 0.02327 0.55463
 C295 C 0.39338 0.00591 0.48177
 C296 C 0.35925 0.00681 0.47900
 C297 C 0.31891 0.00698 0.47685
 C298 C 0.30224 -0.01788 0.45828
 C299 C 0.26396 -0.01964 0.45845
 C300 C 0.24223 0.00345 0.47720
 C301 C 0.25865 0.02880 0.49522
 C302 C 0.29692 0.03056 0.49505
 C303 C 0.20402 -0.00040 0.47974
 C304 C 0.17253 -0.00451 0.48282
 H305 H 0.31907 -0.03638 0.44430
 H306 H 0.25161 -0.03949 0.44462
 H307 H 0.24217 0.04662 0.50998
 H308 H 0.30962 0.04973 0.50967
 C309 C 0.00749 0.49602 1.40517
 C310 C 0.00537 0.49853 1.37081
 C311 C 0.00272 0.50069 1.32993
 C312 C -0.01363 0.47479 1.31277
 C313 C -0.01565 0.47627 1.27327
 C314 C -0.00134 0.50368 1.25074
 C315 C 0.01483 0.52974 1.26782
 C316 C 0.01685 0.52826 1.30734
 C317 C -0.00249 0.50453 1.21042
 C318 C -0.00290 0.50506 1.17680
 H319 H -0.02461 0.45333 1.32998
 H320 H -0.02812 0.45592 1.26039
 H321 H 0.02606 0.55099 1.25068
 H322 H 0.02958 0.54839 1.32032
 C323 C 0.01860 0.46949 0.62833
 C324 C 0.01919 0.46721 0.66233
 C325 C 0.01889 0.46581 0.70243
 C326 C -0.00593 0.44730 0.71949
 C327 C -0.00831 0.44834 0.75742
 C328 C 0.01413 0.46790 0.77843
 C329 C 0.03944 0.48584 0.76164
 C330 C 0.04181 0.48480 0.72372
 C331 C 0.00966 0.47128 0.81625
 C332 C 0.00508 0.47500 0.84742
 H333 H -0.02396 0.43273 0.70320
 H334 H -0.02812 0.43455 0.77004
 H335 H 0.05676 0.50121 0.77755
 H336 H 0.06093 0.49939 0.71071
   
