data_POSCAR
  _audit_creation_date              2014-09-24
  _audit_creation_method            'ToBaCCo'
  _symmetry_space_group_name_H-M    'P1'
  _symmetry_Int_Tables_number       1
  _symmetry_cell_setting            triclinic
  loop_
  _symmetry_equiv_pos_as_xyz
 x,y,z
_cell_length_a 37.1417
_cell_length_b 36.9457
_cell_length_c 36.0276
_cell_angle_alpha 92.535200
_cell_angle_beta 89.171200
_cell_angle_gamma 86.447800
loop_
  _atom_site_label
  _atom_site_type_symbol
  _atom_site_fract_x
  _atom_site_fract_y
  _atom_site_fract_z
N1 N 0.31432 0.23785 0.21540
 N2 N 0.29322 0.26471 0.20365
 C3 C 0.30737 0.27655 0.17215
 C4 C 0.33879 0.25567 0.16348
 C5 C 0.34271 0.23169 0.19180
 H6 H 0.29546 0.29832 0.15634
 H7 H 0.36436 0.21110 0.19481
 Cu8 Cu 0.24914 0.28144 0.23061
 Cu9 Cu 0.30234 0.21271 0.26005
 Cu10 Cu 0.21016 0.21806 0.27825
 N11 N 0.20194 0.29113 0.25411
 N12 N 0.18654 0.26612 0.27250
 C13 C 0.15381 0.27945 0.28498
 C14 C 0.14882 0.31501 0.27450
 C15 C 0.17968 0.32131 0.25447
 H16 H 0.13501 0.26435 0.30036
 H17 H 0.18543 0.34605 0.24119
 N18 N 0.24336 0.17886 0.29585
 N19 N 0.27867 0.17838 0.29105
 C20 C 0.29413 0.15004 0.30835
 C21 C 0.26720 0.13097 0.32397
 C22 C 0.23537 0.15047 0.31599
 H23 H 0.32293 0.14385 0.30950
 H24 H 0.20841 0.14458 0.32458
 H25 H 0.25235 0.21617 0.23920
 H26 H 0.25696 0.24296 0.28380
 N27 N 0.69269 -0.24118 0.17770
 N28 N 0.70455 -0.27528 0.17253
 C29 C 0.68433 -0.29143 0.14673
 C30 C 0.65783 -0.26623 0.13516
 C31 C 0.66482 -0.23434 0.15508
 H32 H 0.68846 -0.31962 0.13742
 H33 H 0.65204 -0.20755 0.15217
 Cu34 Cu 0.74654 -0.29470 0.19863
 Cu35 Cu 0.71476 -0.20801 0.21297
 Cu36 Cu 0.77051 -0.25034 0.27628
 N37 N 0.79220 -0.30733 0.22241
 N38 N 0.80119 -0.28983 0.25304
 C39 C 0.83296 -0.30414 0.26459
 C40 C 0.84538 -0.33196 0.23949
 C41 C 0.81815 -0.33349 0.21333
 H42 H 0.84632 -0.29428 0.28917
 H43 H 0.81615 -0.35336 0.19064
 N44 N 0.74802 -0.20130 0.28541
 N45 N 0.72817 -0.18440 0.26064
 C46 C 0.71777 -0.15088 0.27461
 C47 C 0.73136 -0.14682 0.31007
 C48 C 0.75082 -0.17915 0.31573
 H49 H 0.70143 -0.13097 0.26013
 H50 H 0.76599 -0.18598 0.34012
 H51 H 0.76387 -0.23584 0.22359
 H52 H 0.72204 -0.25045 0.24633
 N53 N 0.70676 0.25738 0.79864
 N54 N 0.72272 0.28695 0.80869
 C55 C 0.70574 0.30270 0.83904
 C56 C 0.67734 0.28208 0.84818
 C57 C 0.67900 0.25330 0.82222
 H58 H 0.71373 0.32703 0.85371
 H59 H 0.66135 0.23109 0.82061
 Cu60 Cu 0.76446 0.30185 0.78161
 Cu61 Cu 0.72291 0.22720 0.75524
 Cu62 Cu 0.81040 0.23939 0.72550
 N63 N 0.81377 0.30788 0.76596
 N64 N 0.83186 0.28318 0.74461
 C65 C 0.86506 0.29426 0.73799
 C66 C 0.86843 0.32755 0.75681
 C67 C 0.83484 0.33546 0.77378
 H68 H 0.88539 0.27895 0.72098
 H69 H 0.82558 0.36022 0.78905
 N70 N 0.78351 0.19724 0.70918
 N71 N 0.74993 0.19313 0.71997
 C72 C 0.73834 0.16301 0.70285
 C73 C 0.76602 0.14718 0.68049
 C74 C 0.79413 0.16976 0.68483
 H75 H 0.71160 0.15340 0.70604
 H76 H 0.81992 0.16692 0.67034
 H77 H 0.77460 0.23674 0.76987
 H78 H 0.75795 0.25965 0.72776
 N79 N 0.27517 -0.24342 0.80030
 N80 N 0.26486 -0.27676 0.80147
 C81 C 0.28635 -0.29552 0.82454
 C82 C 0.31160 -0.27271 0.83842
 C83 C 0.30335 -0.23967 0.82294
 H84 H 0.28326 -0.32332 0.83161
 H85 H 0.31674 -0.21477 0.82790
 Cu86 Cu 0.22286 -0.29172 0.77478
 Cu87 Cu 0.25036 -0.20739 0.77025
 Cu88 Cu 0.19247 -0.24231 0.70490
 N89 N 0.17599 -0.29877 0.75329
 N90 N 0.16444 -0.28006 0.72519
 C91 C 0.13230 -0.29153 0.71463
 C92 C 0.12247 -0.31828 0.73814
 C93 C 0.15146 -0.32247 0.76189
 H94 H 0.11689 -0.28048 0.69205
 H95 H 0.15548 -0.34258 0.78260
 N96 N 0.21301 -0.19480 0.70095
 N97 N 0.23357 -0.18082 0.72677
 C98 C 0.24330 -0.14825 0.71629
 C99 C 0.22788 -0.14119 0.68241
 C100 C 0.20919 -0.17157 0.67331
 H101 H 0.26139 -0.13145 0.73151
 H102 H 0.19484 -0.17688 0.64794
 H103 H 0.20170 -0.23058 0.75873
 H104 H 0.24280 -0.24768 0.73140
 N105 N 0.66384 -0.27157 0.75352
 N106 N 0.67208 -0.30671 0.75287
 C107 C 0.65384 -0.32140 0.78045
 C108 C 0.63278 -0.29395 0.79914
 C109 C 0.64031 -0.26264 0.78159
 H110 H 0.65658 -0.34965 0.78722
 H111 H 0.63043 -0.23519 0.78952
 Cu112 Cu 0.70863 -0.32904 0.71864
 Cu113 Cu 0.68585 -0.23951 0.71964
 Cu114 Cu 0.73889 -0.28165 0.64873
 N115 N 0.75360 -0.34368 0.69224
 N116 N 0.76550 -0.32505 0.66494
 C117 C 0.79818 -0.33941 0.65358
 C118 C 0.80750 -0.36905 0.67479
 C119 C 0.77828 -0.37056 0.69924
 H120 H 0.81503 -0.32693 0.63371
 H121 H 0.77531 -0.38927 0.72116
 N122 N 0.72012 -0.23093 0.64771
 N123 N 0.70064 -0.21455 0.67518
 C124 C 0.69337 -0.17962 0.66724
 C125 C 0.70892 -0.17388 0.63307
 C126 C 0.72603 -0.20688 0.62168
 H127 H 0.67867 -0.15957 0.68534
 H128 H 0.74234 -0.21266 0.59676
 H129 H 0.68939 -0.27958 0.67903
 H130 H 0.73212 -0.27119 0.70380
 N131 N 0.35136 0.28074 0.76789
 N132 N 0.33037 0.30872 0.78043
 C133 C 0.33930 0.31769 0.81557
 C134 C 0.36705 0.29370 0.82572
 C135 C 0.37464 0.27114 0.79453
 H136 H 0.32522 0.33865 0.83314
 H137 H 0.39406 0.24805 0.79221
 Cu138 Cu 0.29067 0.32820 0.75137
 Cu139 Cu 0.34235 0.25529 0.72053
 Cu140 Cu 0.25160 0.26462 0.69988
 N141 N 0.24369 0.33794 0.73005
 N142 N 0.22826 0.31274 0.71013
 C143 C 0.19425 0.32461 0.70285
 C144 C 0.18800 0.35889 0.71944
 C145 C 0.22009 0.36680 0.73607
 H146 H 0.17478 0.30863 0.68866
 H147 H 0.22504 0.39064 0.75331
 N148 N 0.28400 0.22338 0.68094
 N149 N 0.31903 0.22095 0.68686
 C150 C 0.33352 0.18981 0.67052
 C151 C 0.30600 0.17125 0.65446
 C152 C 0.27518 0.19371 0.66099
 H153 H 0.36176 0.18080 0.67146
 H154 H 0.24813 0.18824 0.65262
 H155 H 0.29983 0.28692 0.69639
 H156 H 0.29106 0.26278 0.73963
 N157 N 0.31769 -0.29351 0.21884
 N158 N 0.30496 -0.32551 0.21213
 C159 C 0.32105 -0.34101 0.18112
 C160 C 0.34537 -0.31744 0.16795
 C161 C 0.34219 -0.28747 0.19242
 H162 H 0.31401 -0.36638 0.16784
 H163 H 0.35544 -0.26238 0.19011
 Cu164 Cu 0.26569 -0.34147 0.24232
 Cu165 Cu 0.29787 -0.26001 0.25809
 Cu166 Cu 0.24922 -0.30023 0.32617
 N167 N 0.22210 -0.34907 0.27072
 N168 N 0.21695 -0.33497 0.30466
 C169 C 0.18532 -0.34508 0.31818
 C170 C 0.16891 -0.36519 0.29055
 C171 C 0.19348 -0.36780 0.26110
 H172 H 0.17468 -0.33736 0.34569
 H173 H 0.19034 -0.38153 0.23430
 N174 N 0.26964 -0.25254 0.33392
 N175 N 0.28637 -0.23653 0.30719
 C176 C 0.29256 -0.20247 0.31890
 C177 C 0.27851 -0.19646 0.35447
 C178 C 0.26483 -0.22904 0.36351
 H179 H 0.30512 -0.18292 0.30230
 H180 H 0.25084 -0.23466 0.38896
 H181 H 0.29444 -0.30347 0.28951
 H182 H 0.25048 -0.28281 0.27385
 N183 N 0.67433 0.28778 0.23789
 N184 N 0.68337 0.32154 0.23664
 C185 C 0.66683 0.33718 0.20786
 C186 C 0.64607 0.31183 0.19038
 C187 C 0.65176 0.28075 0.21006
 H188 H 0.67144 0.36406 0.19881
 H189 H 0.64166 0.25444 0.20343
 Cu190 Cu 0.71942 0.33999 0.26974
 Cu191 Cu 0.69631 0.25397 0.27201
 Cu192 Cu 0.74432 0.29279 0.34349
 N193 N 0.76275 0.35005 0.29697
 N194 N 0.77207 0.33221 0.32647
 C195 C 0.80386 0.34330 0.33863
 C196 C 0.81505 0.36942 0.31541
 C197 C 0.78841 0.37281 0.28911
 H198 H 0.81885 0.33151 0.36113
 H199 H 0.78849 0.38945 0.26515
 N200 N 0.72725 0.24354 0.34475
 N201 N 0.71045 0.22821 0.31671
 C202 C 0.70586 0.19336 0.32390
 C203 C 0.72106 0.18626 0.35777
 C204 C 0.73376 0.21886 0.37061
 H205 H 0.69341 0.17416 0.30540
 H206 H 0.74800 0.22387 0.39614
 H207 H 0.69717 0.29497 0.31107
 H208 H 0.74157 0.28032 0.28865
 C209 C 0.27849 -0.02593 0.40634
 C210 C 0.27992 0.00964 0.42122
 C211 C 0.28047 0.01565 0.46002
 C212 C 0.28189 -0.01370 0.48394
 C213 C 0.28279 -0.04928 0.46792
 C214 C 0.28023 -0.05529 0.42949
 C215 C 0.28150 -0.00738 0.52530
 C216 C 0.26702 -0.03272 0.54865
 C217 C 0.26619 -0.02681 0.58732
 C218 C 0.27852 0.00528 0.60304
 C219 C 0.29295 0.03100 0.58056
 C220 C 0.29492 0.02426 0.54189
 H221 H 0.27616 -0.03082 0.37660
 H222 H 0.27936 0.04334 0.47121
 H223 H 0.28526 -0.07263 0.48499
 H224 H 0.25587 -0.05708 0.53718
 H225 H 0.27644 0.01037 0.63289
 H226 H 0.30698 0.04396 0.52506
 C227 C 0.73939 -0.00743 0.59248
 C228 C 0.74764 0.02545 0.57759
 C229 C 0.74555 0.02952 0.53913
 C230 C 0.73373 0.00144 0.51524
 C231 C 0.72468 -0.03110 0.53116
 C232 C 0.72833 -0.03578 0.56930
 C233 C 0.73063 0.00605 0.47417
 C234 C 0.73187 -0.02434 0.44884
 C235 C 0.72785 -0.02002 0.41061
 C236 C 0.72489 0.01482 0.39691
 C237 C 0.72500 0.04527 0.42132
 C238 C 0.72658 0.04093 0.45970
 H239 H 0.74110 -0.01078 0.62216
 H240 H 0.75350 0.05473 0.52837
 H241 H 0.71442 -0.05304 0.51441
 H242 H 0.73604 -0.05162 0.45827
 H243 H 0.72305 0.01820 0.36724
 H244 H 0.72480 0.06513 0.47778
 C245 C 0.41262 0.28128 0.00210
 C246 C 0.42965 0.27892 0.03633
 C247 C 0.46653 0.28455 0.03885
 C248 C 0.48661 0.29396 0.00744
 C249 C 0.46846 0.29725 -0.02652
 C250 C 0.43217 0.28949 -0.02959
 C251 C 0.52633 0.29920 0.00965
 C252 C 0.54880 0.29458 -0.02239
 C253 C 0.58583 0.29934 -0.02047
 C254 C 0.60140 0.30699 0.01379
 C255 C 0.57991 0.31102 0.04612
 C256 C 0.54251 0.30791 0.04385
 H257 H 0.38428 0.27612 -0.00003
 H258 H 0.47922 0.28063 0.06529
 H259 H 0.48225 0.30533 -0.05115
 H260 H 0.53819 0.28666 -0.04910
 H261 H 0.63026 0.30956 0.01535
 H262 H 0.52653 0.31191 0.06917
 C263 C 0.58189 0.71215 -0.02563
 C264 C 0.56598 0.71325 0.00996
 C265 C 0.52942 0.70600 0.01387
 C266 C 0.50876 0.69679 -0.01735
 C267 C 0.52624 0.69347 -0.05241
 C268 C 0.56190 0.70308 -0.05697
 C269 C 0.46890 0.69274 -0.01401
 C270 C 0.44626 0.69976 -0.04439
 C271 C 0.40887 0.69717 -0.04143
 C272 C 0.39334 0.68960 -0.00733
 C273 C 0.41501 0.68331 0.02345
 C274 C 0.45266 0.68401 0.01985
 H275 H 0.60975 0.71877 -0.02893
 H276 H 0.51736 0.70833 0.04141
 H277 H 0.51208 0.68444 -0.07681
 H278 H 0.45710 0.70820 -0.07041
 H279 H 0.36427 0.68907 -0.00459
 H280 H 0.46878 0.67847 0.04392
 C281 C -0.01253 0.39991 0.29789
 C282 C 0.02125 0.41309 0.29043
 C283 C 0.02392 0.45017 0.28478
 C284 C -0.00666 0.47474 0.28854
 C285 C -0.04012 0.46107 0.29753
 C286 C -0.04319 0.42383 0.30143
 C287 C -0.00377 0.51431 0.28278
 C288 C -0.03323 0.53562 0.26941
 C289 C -0.03054 0.57268 0.26424
 C290 C 0.00213 0.58849 0.27066
 C291 C 0.03165 0.56815 0.28460
 C292 C 0.02842 0.53122 0.29085
 H293 H -0.01490 0.37113 0.30118
 H294 H 0.05000 0.45953 0.27734
 H295 H -0.06409 0.47909 0.30150
 H296 H -0.05844 0.52378 0.26292
 H297 H 0.00429 0.61694 0.26538
 H298 H 0.05105 0.51600 0.30249
 C299 C -0.02409 0.59577 0.70353
 C300 C 0.01007 0.58440 0.71610
 C301 C 0.01850 0.54738 0.72102
 C302 C -0.00690 0.52136 0.71318
 C303 C -0.04103 0.53343 0.70034
 C304 C -0.04980 0.57042 0.69615
 C305 C 0.00172 0.48205 0.71950
 C306 C -0.02576 0.45928 0.72923
 C307 C -0.01772 0.42250 0.73553
 C308 C 0.01804 0.40838 0.73315
 C309 C 0.04573 0.43063 0.72437
 C310 C 0.03756 0.46701 0.71664
 H311 H -0.03102 0.62442 0.70052
 H312 H 0.04464 0.53934 0.73191
 H313 H -0.06116 0.51436 0.69355
 H314 H -0.05349 0.46988 0.73254
 H315 H 0.02441 0.38010 0.73868
 H316 H 0.05938 0.48334 0.70874
 C317 C 0.37317 0.22972 0.10563
 C318 C 0.36309 0.25917 0.13111
 C319 C 0.37585 0.29341 0.12538
 C320 C 0.39835 0.29893 0.09519
 C321 C 0.40851 0.27045 0.06959
 C322 C 0.39638 0.23541 0.07482
 C323 C 0.35983 0.19504 0.10923
 C324 C 0.37017 0.16646 0.08397
 C325 C 0.39369 0.17181 0.05458
 C326 C 0.40671 0.20592 0.04991
 H327 H 0.34103 0.18968 0.13117
 H328 H 0.35981 0.14000 0.08718
 H329 H 0.40173 0.14946 0.03518
 H330 H 0.42498 0.20895 0.02676
 H331 H 0.36828 0.31616 0.14451
 H332 H 0.40732 0.32588 0.09131
 C333 C 0.59951 0.75085 0.10378
 C334 C 0.63217 0.72858 0.10686
 C335 C 0.64023 0.70113 0.07910
 C336 C 0.61870 0.69712 0.04814
 C337 C 0.58823 0.72043 0.04318
 C338 C 0.57875 0.74810 0.07075
 C339 C 0.58542 0.77409 0.13346
 C340 C 0.55498 0.79741 0.12894
 C341 C 0.53738 0.79758 0.09516
 C342 C 0.54888 0.77302 0.06635
 H343 H 0.59662 0.77352 0.16090
 H344 H 0.54492 0.81535 0.15184
 H345 H 0.51411 0.81615 0.09160
 H346 H 0.53407 0.77367 0.04074
 H347 H 0.66434 0.68323 0.08014
 H348 H 0.62610 0.67553 0.02759
 C349 C 0.63261 0.32155 -0.11117
 C350 C 0.65232 0.28793 -0.11950
 C351 C 0.64890 0.25910 -0.09597
 C352 C 0.62736 0.26332 -0.06393
 C353 C 0.60837 0.29642 -0.05468
 C354 C 0.61069 0.32586 -0.07828
 C355 C 0.63336 0.35070 -0.13519
 C356 C 0.61401 0.38360 -0.12637
 C357 C 0.59337 0.38806 -0.09376
 C358 C 0.59154 0.35951 -0.06990
 H359 H 0.64833 0.34830 -0.16121
 H360 H 0.61494 0.40572 -0.14502
 H361 H 0.57846 0.41368 -0.08706
 H362 H 0.57494 0.36399 -0.04498
 H363 H 0.66366 0.23324 -0.10204
 H364 H 0.62555 0.24062 -0.04611
 C365 C 0.36339 0.68812 -0.13594
 C366 C 0.33884 0.71918 -0.13305
 C367 C 0.33897 0.74250 -0.10134
 C368 C 0.36187 0.73491 -0.07208
 C369 C 0.38564 0.70395 -0.07375
 C370 C 0.38667 0.68022 -0.10583
 C371 C 0.36583 0.66506 -0.16832
 C372 C 0.38956 0.63425 -0.17040
 C373 C 0.41136 0.62587 -0.14050
 C374 C 0.41003 0.64853 -0.10846
 H375 H 0.34988 0.67077 -0.19246
 H376 H 0.39105 0.61678 -0.19537
 H377 H 0.42953 0.60177 -0.14220
 H378 H 0.42740 0.64092 -0.08589
 H379 H 0.32045 0.76636 -0.09876
 H380 H 0.36095 0.75330 -0.04775
 C381 C 0.09957 0.34693 0.31642
 C382 C 0.11659 0.34036 0.28097
 C383 C 0.10278 0.35862 0.25047
 C384 C 0.07202 0.38207 0.25414
 C385 C 0.05399 0.38803 0.28842
 C386 C 0.06784 0.37076 0.32006
 C387 C 0.11405 0.33159 0.34863
 C388 C 0.09712 0.33853 0.38323
 C389 C 0.06590 0.36130 0.38664
 C390 C 0.05146 0.37757 0.35553
 H391 H 0.13891 0.31479 0.34775
 H392 H 0.10854 0.32649 0.40762
 H393 H 0.05306 0.36681 0.41364
 H394 H 0.02772 0.39584 0.35970
 H395 H 0.11561 0.35421 0.22331
 H396 H 0.06189 0.39541 0.22986
 C397 C 0.07647 0.64413 0.76681
 C398 C 0.09166 0.66104 0.73580
 C399 C 0.07622 0.65547 0.70071
 C400 C 0.04955 0.63108 0.69520
 C401 C 0.03700 0.61144 0.72447
 C402 C 0.04967 0.61845 0.76081
 C403 C 0.08496 0.65408 0.80390
 C404 C 0.07020 0.63696 0.83374
 C405 C 0.04571 0.61049 0.82758
 C406 C 0.03502 0.60164 0.79160
 H407 H 0.10166 0.67627 0.81054
 H408 H 0.07728 0.64480 0.86188
 H409 H 0.03408 0.59754 0.85090
 H410 H 0.01456 0.58222 0.78833
 H411 H 0.08628 0.66825 0.67651
 H412 H 0.03944 0.62653 0.66742
 C413 C -0.10389 0.62636 0.21187
 C414 C -0.12286 0.64505 0.24265
 C415 C -0.10960 0.63988 0.27861
 C416 C -0.08020 0.61600 0.28471
 C417 C -0.06271 0.59601 0.25531
 C418 C -0.07441 0.60079 0.21860
 C419 C -0.11113 0.63439 0.17457
 C420 C -0.09273 0.61526 0.14511
 C421 C -0.06589 0.58858 0.15196
 C422 C -0.05636 0.58168 0.18832
 H423 H -0.12961 0.65655 0.16749
 H424 H -0.09893 0.62162 0.11677
 H425 H -0.05167 0.57391 0.12895
 H426 H -0.03442 0.56167 0.19251
 H427 H -0.12279 0.65330 0.30290
 H428 H -0.07108 0.61287 0.31290
 C429 C -0.09407 0.37613 0.78394
 C430 C -0.10185 0.34974 0.75539
 C431 C -0.07957 0.34651 0.72332
 C432 C -0.05270 0.37028 0.71769
 C433 C -0.04675 0.39822 0.74380
 C434 C -0.06702 0.40115 0.77749
 C435 C -0.11015 0.37654 0.81982
 C436 C -0.10249 0.40277 0.84709
 C437 C -0.07777 0.42840 0.83986
 C438 C -0.05971 0.42737 0.80565
 H439 H -0.12739 0.35574 0.82799
 H440 H -0.11532 0.40276 0.87426
 H441 H -0.07173 0.44851 0.86126
 H442 H -0.03948 0.44676 0.80187
 H443 H -0.08399 0.32668 0.70110
 H444 H -0.03683 0.36735 0.69212
 C445 C 0.29795 0.06960 0.33925
 C446 C 0.27139 0.09848 0.34690
 C447 C 0.24884 0.09729 0.37833
 C448 C 0.25238 0.06873 0.40221
 C449 C 0.27917 0.04062 0.39610
 C450 C 0.30309 0.04159 0.36505
 C451 C 0.31898 0.06721 0.30612
 C452 C 0.34661 0.04018 0.30030
 C453 C 0.35373 0.01487 0.32708
 C454 C 0.33224 0.01541 0.35914
 H455 H 0.31390 0.08550 0.28398
 H456 H 0.36270 0.03898 0.27493
 H457 H 0.37568 -0.00563 0.32275
 H458 H 0.33889 -0.00471 0.37925
 H459 H 0.22833 0.11889 0.38474
 H460 H 0.23376 0.06845 0.42561
 C461 C 0.79010 0.08567 0.65236
 C462 C 0.76396 0.11546 0.65419
 C463 C 0.73453 0.11530 0.63033
 C464 C 0.73055 0.08646 0.60494
 C465 C 0.75569 0.05661 0.60273
 C466 C 0.78608 0.05618 0.62609
 C467 C 0.81955 0.08388 0.67669
 C468 C 0.84514 0.05457 0.67420
 C469 C 0.84184 0.02644 0.64771
 C470 C 0.81261 0.02708 0.62386
 H471 H 0.82296 0.10473 0.69810
 H472 H 0.86766 0.05367 0.69294
 H473 H 0.86193 0.00390 0.64578
 H474 H 0.81109 0.00473 0.60362
 H475 H 0.71437 0.13784 0.63132
 H476 H 0.70710 0.08704 0.58737
 C477 C 0.20783 -0.09202 0.63788
 C478 C 0.23495 -0.11046 0.65869
 C479 C 0.27048 -0.09983 0.65658
 C480 C 0.27975 -0.07250 0.63363
 C481 C 0.25390 -0.05496 0.61172
 C482 C 0.21754 -0.06436 0.61383
 C483 C 0.17110 -0.09939 0.64133
 C484 C 0.14491 -0.08109 0.62060
 C485 C 0.15457 -0.05473 0.59657
 C486 C 0.19045 -0.04612 0.59335
 H487 H 0.16202 -0.11862 0.66058
 H488 H 0.11689 -0.08714 0.62349
 H489 H 0.13406 -0.04049 0.58074
 H490 H 0.19665 -0.02481 0.57508
 H491 H 0.29159 -0.11336 0.67228
 H492 H 0.30760 -0.06536 0.63243
 C493 C 0.69485 -0.09435 0.34426
 C494 C 0.72812 -0.11437 0.33593
 C495 C 0.75963 -0.10355 0.35305
 C496 C 0.75898 -0.07303 0.37717
 C497 C 0.72683 -0.05219 0.38483
 C498 C 0.69436 -0.06271 0.36853
 C499 C 0.66181 -0.10569 0.33032
 C500 C 0.62947 -0.08562 0.33876
 C501 C 0.62919 -0.05429 0.36165
 C502 C 0.66119 -0.04298 0.37670
 H503 H 0.66034 -0.13046 0.31352
 H504 H 0.60441 -0.09464 0.32774
 H505 H 0.60395 -0.03894 0.36823
 H506 H 0.65962 -0.01893 0.39505
 H507 H 0.78521 -0.11863 0.34732
 H508 H 0.78389 -0.06536 0.38974
 C509 C 0.57824 0.72421 -0.15903
 C510 C 0.61146 0.70373 -0.16602
 C511 C 0.62641 0.68274 -0.13796
 C512 C 0.60991 0.68282 -0.10302
 C513 C 0.57810 0.70418 -0.09478
 C514 C 0.56220 0.72561 -0.12276
 C515 C 0.56027 0.74301 -0.18739
 C516 C 0.52880 0.76472 -0.17964
 C517 C 0.51460 0.76817 -0.14365
 C518 C 0.53106 0.74896 -0.11540
 H519 H 0.56991 0.74068 -0.21589
 H520 H 0.51549 0.77913 -0.20164
 H521 H 0.49053 0.78561 -0.13764
 H522 H 0.51922 0.75291 -0.08784
 H523 H 0.65170 0.66688 -0.14273
 H524 H 0.62230 0.66625 -0.08203
 C525 C 0.38504 0.25779 -0.11806
 C526 C 0.38253 0.29083 -0.13686
 C527 C 0.39529 0.32222 -0.11978
 C528 C 0.41129 0.32124 -0.08511
 C529 C 0.41502 0.28884 -0.06643
 C530 C 0.40239 0.25658 -0.08307
 C531 C 0.37000 0.22607 -0.13269
 C532 C 0.37400 0.19354 -0.11456
 C533 C 0.39282 0.19190 -0.08153
 C534 C 0.40692 0.22302 -0.06584
 H535 H 0.35451 0.22605 -0.15782
 H536 H 0.36251 0.16944 -0.12626
 H537 H 0.39625 0.16646 -0.06782
 H538 H 0.42149 0.22039 -0.04027
 H539 H 0.39324 0.34768 -0.13365
 H540 H 0.42088 0.34602 -0.07269
 C541 C 0.38593 0.64931 0.11789
 C542 C 0.36448 0.68037 0.13149
 C543 C 0.36046 0.71069 0.10959
 C544 C 0.37676 0.71068 0.07470
 C545 C 0.39780 0.68040 0.06042
 C546 C 0.40243 0.64922 0.08182
 C547 C 0.39211 0.61867 0.13951
 C548 C 0.41281 0.58820 0.12543
 C549 C 0.42784 0.58769 0.08977
 C550 C 0.42279 0.61786 0.06807
 H551 H 0.38146 0.61803 0.16752
 H552 H 0.41720 0.56485 0.14228
 H553 H 0.44366 0.56385 0.07895
 H554 H 0.43486 0.61633 0.04049
 H555 H 0.34412 0.73462 0.11939
 H556 H 0.37311 0.73476 0.05870
 C557 C 0.60422 0.34373 0.14475
 C558 C 0.62829 0.31424 0.15398
 C559 C 0.63626 0.28576 0.12761
 C560 C 0.62097 0.28591 0.09270
 C561 C 0.59710 0.31452 0.08283
 C562 C 0.58890 0.34409 0.10863
 C563 C 0.59422 0.37242 0.17076
 C564 C 0.57105 0.40147 0.16095
 C565 C 0.55727 0.40247 0.12526
 C566 C 0.56601 0.37410 0.09926
 H567 H 0.60377 0.37258 0.19894
 H568 H 0.56376 0.42335 0.18115
 H569 H 0.53954 0.42525 0.11775
 H570 H 0.55484 0.37600 0.07179
 H571 H 0.65471 0.26311 0.13400
 H572 H 0.62737 0.26305 0.07334
 C573 C -0.13323 0.60778 0.64559
 C574 C -0.15866 0.61105 0.67594
 C575 C -0.14837 0.59604 0.70976
 C576 C -0.11330 0.58229 0.71518
 C577 C -0.08705 0.58291 0.68719
 C578 C -0.09684 0.59495 0.65183
 C579 C -0.14335 0.61456 0.60873
 C580 C -0.11780 0.61240 0.57983
 C581 C -0.08187 0.60243 0.58667
 C582 C -0.07142 0.59331 0.62222
 H583 H -0.17119 0.61999 0.60144
 H584 H -0.12604 0.61800 0.55186
 H585 H -0.06219 0.60075 0.56411
 H586 H -0.04351 0.58428 0.62612
 H587 H -0.16665 0.59695 0.73346
 H588 H -0.10617 0.57236 0.74215
 C589 C -0.13294 0.40100 0.34551
 C590 C -0.14902 0.38456 0.31402
 C591 C -0.13006 0.38145 0.28000
 C592 C -0.09559 0.39374 0.27680
 C593 C -0.07906 0.40980 0.30742
 C594 C -0.09752 0.41352 0.34217
 C595 C -0.15150 0.40619 0.38000
 C596 C -0.13513 0.42223 0.41065
 C597 C -0.10022 0.43361 0.40755
 C598 C -0.08150 0.42945 0.37365
 H599 H -0.17886 0.39841 0.38355
 H600 H -0.14966 0.42593 0.43694
 H601 H -0.08767 0.44595 0.43148
 H602 H -0.05447 0.43876 0.37233
 H603 H -0.14186 0.36888 0.25571
 H604 H -0.08173 0.39097 0.25005
 C605 C 0.13551 0.38904 0.75765
 C606 C 0.15281 0.37972 0.72281
 C607 C 0.13538 0.38874 0.68995
 C608 C 0.10124 0.40660 0.69096
 C609 C 0.08349 0.41572 0.72487
 C610 C 0.10075 0.40768 0.75861
 C611 C 0.15119 0.37914 0.79155
 C612 C 0.13380 0.38880 0.82543
 C613 C 0.10042 0.40810 0.82633
 C614 C 0.08387 0.41740 0.79332
 H615 H 0.17667 0.36351 0.79241
 H616 H 0.14627 0.38116 0.85115
 H617 H 0.08712 0.41563 0.85273
 H618 H 0.05782 0.43227 0.79525
 H619 H 0.14819 0.38146 0.66322
 H620 H 0.08810 0.41246 0.66505
 C621 C 0.10169 0.63733 0.30864
 C622 C 0.13297 0.61918 0.29145
 C623 C 0.13023 0.58465 0.27435
 C624 C 0.09758 0.56818 0.27355
 C625 C 0.06652 0.58515 0.29069
 C626 C 0.06887 0.61923 0.31005
 C627 C 0.10160 0.67345 0.32331
 C628 C 0.07144 0.68975 0.34231
 C629 C 0.04067 0.67069 0.34676
 C630 C 0.03922 0.63581 0.33074
 H631 H 0.12421 0.68995 0.31957
 H632 H 0.07200 0.71730 0.35375
 H633 H 0.01757 0.68322 0.36214
 H634 H 0.01476 0.62196 0.33487
 H635 H 0.15361 0.57030 0.26105
 H636 H 0.09641 0.54220 0.25859
 C637 C 0.68099 -0.11454 0.60986
 C638 C 0.71144 -0.13883 0.61523
 C639 C 0.74579 -0.12912 0.60443
 C640 C 0.75060 -0.09560 0.58966
 C641 C 0.72118 -0.07087 0.58497
 C642 C 0.68601 -0.08012 0.59484
 C643 C 0.64557 -0.12393 0.61816
 C644 C 0.61606 -0.09956 0.61295
 C645 C 0.62114 -0.06561 0.59914
 C646 C 0.65574 -0.05589 0.59002
 H647 H 0.64022 -0.15025 0.62815
 H648 H 0.58908 -0.10711 0.61952
 H649 H 0.59812 -0.04682 0.59520
 H650 H 0.65855 -0.02937 0.57907
 H651 H 0.76931 -0.14734 0.60828
 H652 H 0.77758 -0.08875 0.58199
 C653 C 0.24495 -0.14499 0.39316
 C654 C 0.27714 -0.16148 0.37633
 C655 C 0.30901 -0.14308 0.37815
 C656 C 0.30965 -0.10907 0.39617
 C657 C 0.27850 -0.09248 0.41322
 C658 C 0.24591 -0.11044 0.41232
 C659 C 0.21147 -0.16099 0.39003
 C660 C 0.18030 -0.14433 0.40686
 C661 C 0.18158 -0.11120 0.42654
 C662 C 0.21394 -0.09415 0.42905
 H663 H 0.20861 -0.18598 0.37405
 H664 H 0.15492 -0.15707 0.40434
 H665 H 0.15726 -0.09838 0.43944
 H666 H 0.21359 -0.06805 0.44396
 H667 H 0.33368 -0.15505 0.36512
 H668 H 0.33460 -0.09534 0.39647
 C669 C 0.75706 0.13504 0.38843
 C670 C 0.72403 0.15065 0.37511
 C671 C 0.69283 0.13127 0.37697
 C672 C 0.69355 0.09733 0.39231
 C673 C 0.72546 0.08183 0.40646
 C674 C 0.75757 0.10055 0.40475
 C675 C 0.78992 0.15197 0.38451
 C676 C 0.82199 0.13619 0.39783
 C677 C 0.82223 0.10303 0.41466
 C678 C 0.79048 0.08512 0.41786
 H679 H 0.79156 0.17704 0.37050
 H680 H 0.84688 0.14962 0.39474
 H681 H 0.84725 0.09085 0.42477
 H682 H 0.79210 0.05898 0.43034
 H683 H 0.66756 0.14259 0.36650
 H684 H 0.66899 0.08300 0.39318
 C685 C 0.32612 0.10358 0.64897
 C686 C 0.30762 0.13491 0.63507
 C687 C 0.28807 0.13149 0.60226
 C688 C 0.28538 0.09793 0.58392
 C689 C 0.30256 0.06649 0.59741
 C690 C 0.32464 0.06942 0.62909
 C691 C 0.34481 0.10479 0.68285
 C692 C 0.36389 0.07402 0.69515
 C693 C 0.36449 0.04139 0.67431
 C694 C 0.34500 0.03894 0.64165
 H695 H 0.34450 0.12904 0.70064
 H696 H 0.37835 0.07553 0.72099
 H697 H 0.37974 0.01772 0.68376
 H698 H 0.34615 0.01306 0.62626
 H699 H 0.27381 0.15501 0.59119
 H700 H 0.26837 0.09629 0.55979
   
