data_POSCAR
  _audit_creation_date              2014-09-24
  _audit_creation_method            'ToBaCCo'
  _symmetry_space_group_name_H-M    'P1'
  _symmetry_Int_Tables_number       1
  _symmetry_cell_setting            triclinic
  loop_
  _symmetry_equiv_pos_as_xyz
 x,y,z
_cell_length_a 30.9479
_cell_length_b 29.7807
_cell_length_c 29.1615
_cell_angle_alpha 89.828400
_cell_angle_beta 88.991500
_cell_angle_gamma 91.263400
loop_
  _atom_site_label
  _atom_site_type_symbol
  _atom_site_fract_x
  _atom_site_fract_y
  _atom_site_fract_z
N1 N 0.57222 0.69633 0.60842
 N2 N 0.55571 0.67861 0.64636
 C3 C 0.52116 0.70236 0.65972
 C4 C 0.51578 0.73668 0.62832
 C5 C 0.54863 0.73174 0.59622
 H6 H 0.50121 0.69495 0.68970
 H7 H 0.55489 0.75251 0.56624
 Cu8 Cu 0.58064 0.62590 0.67428
 Cu9 Cu 0.62312 0.67237 0.57778
 Cu10 Cu 0.66961 0.57997 0.62811
 N11 N 0.60763 0.57450 0.70251
 N12 N 0.64273 0.55710 0.68459
 C13 C 0.65491 0.52250 0.71086
 C14 C 0.62563 0.51788 0.74720
 C15 C 0.59610 0.55136 0.74074
 H16 H 0.68267 0.50215 0.70361
 H17 H 0.56835 0.55827 0.76244
 N18 N 0.69213 0.60786 0.57092
 N19 N 0.67472 0.64333 0.55199
 C20 C 0.69780 0.65483 0.51397
 C21 C 0.73103 0.62508 0.50858
 C22 C 0.72656 0.59573 0.54531
 H23 H 0.69107 0.68281 0.49169
 H24 H 0.74714 0.56800 0.55316
 H25 H 0.61467 0.60714 0.60092
 H26 H 0.64932 0.64530 0.63612
 N27 N 0.92717 0.30690 0.09641
 N28 N 0.94674 0.32762 0.13023
 C29 C 0.98366 0.30648 0.13935
 C30 C 0.98717 0.27030 0.10981
 C31 C 0.95067 0.27151 0.08323
 H32 H 1.00575 0.31626 0.16600
 H33 H 0.94222 0.24866 0.05588
 Cu34 Cu 0.92107 0.37888 0.16053
 Cu35 Cu 0.87390 0.32875 0.07049
 Cu36 Cu 0.82891 0.42189 0.12230
 N37 N 0.89474 0.43011 0.19024
 N38 N 0.85838 0.44642 0.17545
 C39 C 0.84647 0.48053 0.20274
 C40 C 0.87707 0.48583 0.23648
 C41 C 0.90726 0.45344 0.22742
 H42 H 0.81767 0.49984 0.19831
 H43 H 0.93588 0.44711 0.24695
 N44 N 0.80386 0.39229 0.06826
 N45 N 0.82043 0.35625 0.04913
 C46 C 0.79609 0.34408 0.01318
 C47 C 0.76290 0.37400 0.00933
 C48 C 0.76870 0.40409 0.04486
 H49 H 0.80230 0.31595 -0.00915
 H50 H 0.74885 0.43246 0.05309
 H51 H 0.88265 0.39481 0.09033
 H52 H 0.85068 0.35725 0.13024
 N53 N 0.42975 0.18352 -0.09893
 N54 N 0.44474 0.16794 -0.13809
 C55 C 0.48104 0.19120 -0.15010
 C56 C 0.48929 0.22279 -0.11665
 C57 C 0.45609 0.21702 -0.08460
 H58 H 0.49994 0.18603 -0.18110
 H59 H 0.45072 0.23651 -0.05389
 Cu60 Cu 0.41504 0.11936 -0.17002
 Cu61 Cu 0.37561 0.16145 -0.07116
 Cu62 Cu 0.32078 0.07645 -0.12857
 N63 N 0.38555 0.06926 -0.19976
 N64 N 0.34830 0.05323 -0.18386
 C65 C 0.33532 0.01858 -0.21016
 C66 C 0.36622 0.01251 -0.24435
 C67 C 0.39763 0.04516 -0.23667
 H68 H 0.30618 -0.00136 -0.20401
 H69 H 0.42729 0.05045 -0.25628
 N70 N 0.29845 0.10401 -0.07189
 N71 N 0.32015 0.13498 -0.04890
 C72 C 0.29730 0.14547 -0.01079
 C73 C 0.25937 0.12003 -0.01010
 C74 C 0.26103 0.09440 -0.04933
 H75 H 0.30707 0.17032 0.01414
 H76 H 0.23685 0.07012 -0.06020
 H77 H 0.37782 0.09757 -0.09870
 H78 H 0.34794 0.14058 -0.13152
 N79 N 0.07938 0.79820 0.38533
 N80 N 0.05768 0.82327 0.35697
 C81 C 0.02083 0.80137 0.34574
 C82 C 0.01957 0.76029 0.36792
 C83 C 0.05731 0.75934 0.39284
 H84 H -0.00306 0.81390 0.32259
 H85 H 0.06786 0.73281 0.41511
 Cu86 Cu 0.08171 0.88075 0.33614
 Cu87 Cu 0.13431 0.81820 0.41137
 Cu88 Cu 0.17729 0.92017 0.37126
 N89 N 0.10612 0.93668 0.31155
 N90 N 0.14436 0.95118 0.32476
 C91 C 0.15539 0.98882 0.30134
 C92 C 0.12222 0.99864 0.27221
 C93 C 0.09140 0.96483 0.27939
 H94 H 0.18544 1.00761 0.30498
 H95 H 0.06125 0.96039 0.26161
 N96 N 0.20529 0.88366 0.41836
 N97 N 0.18923 0.84474 0.43335
 C98 C 0.21483 0.82914 0.46647
 C99 C 0.24845 0.85983 0.47260
 C100 C 0.24138 0.89385 0.44164
 H101 H 0.20865 0.79852 0.48569
 H102 H 0.26066 0.92435 0.43735
 H103 H 0.12629 0.88645 0.40385
 H104 H 0.15374 0.85681 0.35569
 N105 N 0.11782 0.13359 0.12505
 N106 N 0.36873 0.85968 0.62699
 N107 N 0.87897 0.62809 0.37768
 N108 N 0.61717 0.37227 -0.11896
 C109 C 0.01968 0.23852 0.10682
 C110 C 0.05637 0.24199 0.13048
 C111 C 0.09074 0.20859 0.12773
 C112 C 0.08289 0.16448 0.12341
 H113 H 0.06315 0.27148 0.15094
 H114 H 0.12359 0.22033 0.13339
 H115 H 0.01510 0.21070 0.08340
 H116 H 0.04998 0.15153 0.12190
 C117 C 0.48222 0.77103 0.62746
 C118 C 0.45480 0.77749 0.66278
 C119 C 0.42110 0.81188 0.66298
 C120 C 0.40266 0.82731 0.62493
 H121 H 0.45811 0.75837 0.69408
 H122 H 0.40930 0.82284 0.69618
 H123 H 0.48110 0.79220 0.59729
 H124 H 0.41147 0.81341 0.59189
 C125 C 0.98654 0.72776 0.36484
 C126 C 0.98880 0.68677 0.38372
 C127 C 0.95396 0.65248 0.37974
 C128 C 0.91200 0.66255 0.37983
 H129 H 1.01799 0.67647 0.40031
 H130 H 0.96312 0.61761 0.37991
 H131 H 0.95846 0.73611 0.34509
 H132 H 0.90241 0.69694 0.38517
 C133 C 0.52486 0.25651 -0.11757
 C134 C 0.53429 0.28230 -0.08138
 C135 C 0.56981 0.31627 -0.08178
 C136 C 0.58320 0.33850 -0.11970
 H137 H 0.51687 0.27714 -0.04923
 H138 H 0.58350 0.32501 -0.04900
 H139 H 0.54428 0.25921 -0.14874
 H140 H 0.56650 0.33288 -0.15159
 C141 C 0.12194 0.03616 0.23929
 C142 C 0.08569 0.04991 0.21974
 C143 C 0.08528 0.08795 0.18721
 C144 C 0.11750 0.09618 0.15670
 H145 H 0.05482 0.03486 0.22988
 H146 H 0.05672 0.10819 0.18761
 H147 H 0.15231 0.05389 0.23236
 H148 H 0.14431 0.07340 0.15530
 C149 C 0.62449 0.48645 -0.21706
 C150 C 0.65514 0.45581 -0.21135
 C151 C 0.65394 0.42242 -0.17373
 C152 C 0.61720 0.40621 -0.15429
 H153 H 0.68354 0.45597 -0.23352
 H154 H 0.68453 0.40880 -0.16370
 H155 H 0.59772 0.48790 -0.19273
 H156 H 0.58638 0.41621 -0.16757
 C157 C 0.36758 0.97778 0.71975
 C158 C 0.33400 0.94988 0.71178
 C159 C 0.33433 0.91470 0.67617
 C160 C 0.37030 0.89503 0.66066
 H161 H 0.30392 0.95385 0.73063
 H162 H 0.30318 0.90275 0.66433
 H163 H 0.39680 0.97604 0.69895
 H164 H 0.40118 0.90390 0.67541
 C165 C 0.87828 0.51820 0.27462
 C166 C 0.84541 0.54536 0.28430
 C167 C 0.84521 0.57766 0.32269
 C168 C 0.88103 0.59470 0.34194
 H169 H 0.81615 0.54287 0.26463
 H170 H 0.81397 0.58970 0.33368
 H171 H 0.90662 0.51842 0.29581
 H172 H 0.91235 0.58635 0.32776
 C173 C 0.22375 0.11977 0.02399
 C174 C 0.22855 0.13531 0.06667
 C175 C 0.19336 0.13246 0.10140
 C176 C 0.15184 0.13813 0.09105
 H177 H 0.25998 0.14715 0.07778
 H178 H 0.20216 0.12727 0.13676
 H179 H 0.19336 0.10412 0.01422
 H180 H 0.14349 0.14828 0.05666
 C181 C 0.76431 0.62621 0.47176
 C182 C 0.79206 0.59280 0.46538
 C183 C 0.82593 0.59286 0.42905
 C184 C 0.84351 0.63024 0.41017
 H185 H 0.78917 0.56287 0.48642
 H186 H 0.83889 0.56062 0.41967
 H187 H 0.76502 0.65490 0.44887
 H188 H 0.83412 0.66285 0.42272
 C189 C 0.72929 0.37308 -0.02590
 C190 C 0.70163 0.40664 -0.03127
 C191 C 0.66814 0.40707 -0.06676
 C192 C 0.65101 0.36994 -0.08567
 H193 H 0.70455 0.43642 -0.01031
 H194 H 0.65553 0.43946 -0.07592
 H195 H 0.72849 0.34451 -0.04872
 H196 H 0.66034 0.33716 -0.07372
 C197 C 0.28295 0.85956 0.50678
 C198 C 0.28952 0.82439 0.53437
 C199 C 0.32298 0.82418 0.56991
 C200 C 0.33772 0.86144 0.59075
 H201 H 0.27070 0.79368 0.53015
 H202 H 0.33362 0.79170 0.58139
 H203 H 0.30360 0.88927 0.50874
 H204 H 0.32415 0.89359 0.58240
   
