data_POSCAR
  _audit_creation_date              2014-09-24
  _audit_creation_method            'ToBaCCo'
  _symmetry_space_group_name_H-M    'P1'
  _symmetry_Int_Tables_number       1
  _symmetry_cell_setting            triclinic
  loop_
  _symmetry_equiv_pos_as_xyz
 x,y,z
_cell_length_a 37.9514
_cell_length_b 37.5585
_cell_length_c 39.1378
_cell_angle_alpha 87.131800
_cell_angle_beta 92.931600
_cell_angle_gamma 89.702900
loop_
  _atom_site_label
  _atom_site_type_symbol
  _atom_site_fract_x
  _atom_site_fract_y
  _atom_site_fract_z
N1 N 0.60842 0.66650 0.60857
 N2 N 0.59042 0.64747 0.63088
 C3 C 0.56066 0.66532 0.63685
 C4 C 0.55976 0.69679 0.61689
 C5 C 0.59023 0.69657 0.59914
 H6 H 0.54084 0.65578 0.65389
 H7 H 0.59845 0.71676 0.58060
 Cu8 Cu 0.60644 0.60056 0.65069
 Cu9 Cu 0.65377 0.65076 0.59204
 Cu10 Cu 0.68327 0.57119 0.62397
 N11 N 0.63378 0.56307 0.67619
 N12 N 0.66446 0.55213 0.66636
 C13 C 0.67723 0.52622 0.68870
 C14 C 0.65300 0.52025 0.71354
 C15 C 0.62562 0.54413 0.70476
 H16 H 0.70192 0.51215 0.68669
 H17 H 0.60165 0.54777 0.71800
 N18 N 0.70017 0.59220 0.58148
 N19 N 0.68916 0.62390 0.56959
 C20 C 0.70602 0.63311 0.54109
 C21 C 0.72855 0.60541 0.53458
 C22 C 0.72404 0.57985 0.56059
 H23 H 0.70171 0.65784 0.52608
 H24 H 0.73750 0.55438 0.56418
 H25 H 0.62999 0.60381 0.60320
 H26 H 0.65264 0.62443 0.64069
 N27 N 0.92169 0.33652 0.11463
 N28 N 0.93736 0.34866 0.14238
 C29 C 0.96387 0.32629 0.15339
 C30 C 0.96516 0.29898 0.13111
 C31 C 0.93800 0.30633 0.10668
 H32 H 0.98110 0.32956 0.17586
 H33 H 0.93006 0.29060 0.08525
 Cu34 Cu 0.92189 0.39271 0.16123
 Cu35 Cu 0.88017 0.35971 0.09196
 Cu36 Cu 0.85035 0.43684 0.12665
 N37 N 0.90487 0.43601 0.18036
 N38 N 0.87633 0.45260 0.16728
 C39 C 0.87002 0.48113 0.18562
 C40 C 0.89621 0.48256 0.21142
 C41 C 0.91796 0.45371 0.20724
 H42 H 0.84848 0.49983 0.18011
 H43 H 0.94147 0.44623 0.22277
 N44 N 0.82765 0.41669 0.08560
 N45 N 0.83860 0.38697 0.07277
 C46 C 0.81713 0.37961 0.04558
 C47 C 0.79168 0.40615 0.04102
 C48 C 0.79925 0.42927 0.06662
 H49 H 0.81999 0.35687 0.03005
 H50 H 0.78473 0.45325 0.07125
 H51 H 0.89190 0.41065 0.10640
 H52 H 0.86331 0.38340 0.13486
 N53 N 0.39784 0.17607 -0.12576
 N54 N 0.40946 0.15871 -0.15133
 C55 C 0.43804 0.17547 -0.16312
 C56 C 0.44494 0.20445 -0.14356
 C57 C 0.41891 0.20411 -0.12006
 H58 H 0.45296 0.16722 -0.18421
 H59 H 0.41510 0.22323 -0.10081
 Cu60 Cu 0.38641 0.11558 -0.16622
 Cu61 Cu 0.35542 0.16199 -0.10276
 Cu62 Cu 0.31252 0.08651 -0.13037
 N63 N 0.36209 0.07328 -0.18146
 N64 N 0.33278 0.06252 -0.16783
 C65 C 0.32095 0.03347 -0.18351
 C66 C 0.34429 0.02534 -0.20794
 C67 C 0.37011 0.05116 -0.20603
 H68 H 0.29728 0.01908 -0.17746
 H69 H 0.39267 0.05393 -0.22171
 N70 N 0.29616 0.11442 -0.09281
 N71 N 0.31211 0.14354 -0.08276
 C72 C 0.29406 0.15716 -0.05762
 C73 C 0.26575 0.13537 -0.05127
 C74 C 0.26780 0.10851 -0.07402
 H75 H 0.30095 0.18113 -0.04470
 H76 H 0.24962 0.08671 -0.07708
 H77 H 0.35892 0.10826 -0.11134
 H78 H 0.33181 0.13646 -0.14349
 N79 N 0.09500 0.83415 0.40614
 N80 N 0.08216 0.84493 0.37534
 C81 C 0.05344 0.82553 0.36727
 C82 C 0.04778 0.80160 0.39451
 C83 C 0.07450 0.80792 0.41868
 H84 H 0.03764 0.82899 0.34357
 H85 H 0.07877 0.79413 0.44349
 Cu86 Cu 0.10295 0.88406 0.34785
 Cu87 Cu 0.13792 0.85434 0.42782
 Cu88 Cu 0.17524 0.92187 0.38332
 N89 N 0.12723 0.92306 0.32461
 N90 N 0.15603 0.93732 0.33792
 C91 C 0.16751 0.96266 0.31564
 C92 C 0.14440 0.96468 0.28720
 C93 C 0.11913 0.93914 0.29368
 H94 H 0.19073 0.97875 0.31980
 H95 H 0.09687 0.93236 0.27696
 N96 N 0.19472 0.90462 0.42809
 N97 N 0.18049 0.87766 0.44497
 C98 C 0.19954 0.87054 0.47451
 C99 C 0.22704 0.89452 0.47628
 C100 C 0.22309 0.91585 0.44656
 H101 H 0.19350 0.84983 0.49346
 H102 H 0.23994 0.93766 0.43892
 H103 H 0.11815 0.89695 0.39716
 H104 H 0.14672 0.86447 0.37657
 C105 C 0.07312 0.11363 0.12590
 C106 C 0.04940 0.14248 0.12217
 C107 C 0.05022 0.16678 0.09370
 C108 C 0.07474 0.16181 0.06868
 C109 C 0.09911 0.13349 0.07240
 C110 C 0.09828 0.10923 0.10109
 C111 C 0.07204 0.08907 0.15401
 C112 C 0.09633 0.06072 0.15816
 C113 C 0.12142 0.05642 0.13341
 C114 C 0.12241 0.08039 0.10481
 C115 C 0.14704 0.07595 0.07981
 C116 C 0.14846 0.10036 0.05158
 C117 C 0.12427 0.12898 0.04790
 H118 H 0.02992 0.14569 0.14112
 H119 H 0.07517 0.18042 0.04661
 H120 H 0.05258 0.09224 0.17300
 H121 H 0.13970 0.03407 0.13606
 H122 H 0.16552 0.05374 0.08251
 H123 H 0.12460 0.14740 0.02570
 C124 C 0.41447 0.85291 0.67578
 C125 C 0.44006 0.82569 0.67923
 C126 C 0.43926 0.79780 0.65667
 C127 C 0.41198 0.79657 0.63109
 C128 C 0.38580 0.82318 0.62777
 C129 C 0.38716 0.85164 0.65001
 C130 C 0.41582 0.88145 0.69758
 C131 C 0.38987 0.90833 0.69449
 C132 C 0.36264 0.90691 0.66881
 C133 C 0.36120 0.87881 0.64649
 C134 C 0.33426 0.87744 0.62066
 C135 C 0.33273 0.84902 0.59856
 C136 C 0.35831 0.82183 0.60253
 H137 H 0.46103 0.82648 0.69906
 H138 H 0.41088 0.77463 0.61409
 H139 H 0.43694 0.88265 0.71723
 H140 H 0.34300 0.92803 0.66568
 H141 H 0.31411 0.89810 0.61824
 H142 H 0.35705 0.79986 0.58556
 C143 C 0.89181 0.65211 0.33317
 C144 C 0.91848 0.67767 0.33053
 C145 C 0.92317 0.70330 0.35521
 C146 C 0.90035 0.70380 0.38241
 C147 C 0.87317 0.67879 0.38507
 C148 C 0.86894 0.65273 0.36047
 C149 C 0.88748 0.62611 0.30883
 C150 C 0.86032 0.60091 0.31122
 C151 C 0.83720 0.60211 0.33801
 C152 C 0.84157 0.62757 0.36290
 C153 C 0.81888 0.62842 0.39005
 C154 C 0.82307 0.65429 0.41470
 C155 C 0.84997 0.67959 0.41180
 H156 H 0.93590 0.67745 0.30942
 H157 H 0.90322 0.72410 0.40105
 H158 H 0.90482 0.62595 0.28768
 H159 H 0.81608 0.58287 0.33967
 H160 H 0.79756 0.60942 0.39154
 H161 H 0.85302 0.69974 0.43062
 C162 C 0.58512 0.36835 -0.13563
 C163 C 0.55785 0.34352 -0.13250
 C164 C 0.55965 0.31668 -0.10608
 C165 C 0.58888 0.31494 -0.08261
 C166 C 0.61664 0.33920 -0.08575
 C167 C 0.61474 0.36612 -0.11229
 C168 C 0.58321 0.39545 -0.16166
 C169 C 0.61085 0.41981 -0.16523
 C170 C 0.64036 0.41748 -0.14192
 C171 C 0.64238 0.39090 -0.11537
 C172 C 0.67154 0.38875 -0.09179
 C173 C 0.67353 0.36193 -0.06533
 C174 C 0.64623 0.33705 -0.06274
 H175 H 0.53493 0.34550 -0.15021
 H176 H 0.59014 0.29438 -0.06211
 H177 H 0.56038 0.39737 -0.17950
 H178 H 0.66138 0.43676 -0.14396
 H179 H 0.69292 0.40754 -0.09443
 H180 H 0.64784 0.31628 -0.04243
 C181 C -0.01120 0.27023 0.13413
 C182 C -0.00900 0.24608 0.11030
 C183 C 0.01597 0.21594 0.11545
 C184 C 0.02511 0.19704 0.08919
 H185 H -0.02509 0.24861 0.08662
 H186 H 0.02769 0.20972 0.14091
 H187 H 0.00655 0.26794 0.15676
 H188 H 0.01540 0.20514 0.06342
 C189 C 0.53187 0.72426 0.61343
 C190 C 0.50969 0.72937 0.63817
 C191 C 0.48195 0.75695 0.63367
 C192 C 0.46681 0.76979 0.66062
 H193 H 0.51249 0.71374 0.66221
 H194 H 0.47457 0.76765 0.60804
 H195 H 0.53036 0.74154 0.59036
 H196 H 0.47631 0.76109 0.68631
 C197 C 1.02111 0.77635 0.39804
 C198 C 0.99754 0.76938 0.37268
 C199 C 0.96975 0.74274 0.37791
 C200 C 0.95125 0.73009 0.35122
 H201 H 0.99885 0.78276 0.34762
 H202 H 0.96501 0.73280 0.40373
 H203 H 1.02005 0.76141 0.42241
 H204 H 0.95803 0.73837 0.32545
 C205 C 0.47348 0.23039 -0.14810
 C206 C 0.48487 0.25104 -0.12306
 C207 C 0.51338 0.27681 -0.12840
 C208 C 0.53076 0.29087 -0.10179
 H209 H 0.47366 0.24843 -0.09815
 H210 H 0.52081 0.28362 -0.15428
 H211 H 0.48616 0.23169 -0.17232
 H212 H 0.52489 0.28181 -0.07597
 C213 C 0.14711 -0.01119 0.25663
 C214 C 0.11948 -0.00360 0.23492
 C215 C 0.12284 0.02098 0.20481
 C216 C 0.09421 0.03533 0.18805
 H217 H 0.09386 -0.01481 0.23983
 H218 H 0.14894 0.02825 0.19698
 H219 H 0.17219 0.00163 0.25261
 H220 H 0.06841 0.02989 0.19772
 C221 C 0.65630 0.49483 -0.25913
 C222 C 0.63060 0.48796 -0.23762
 C223 C 0.63531 0.46044 -0.20959
 C224 C 0.60764 0.44808 -0.19293
 H225 H 0.60551 0.50189 -0.24098
 H226 H 0.66142 0.44939 -0.20337
 H227 H 0.68065 0.47950 -0.25592
 H228 H 0.58138 0.45761 -0.20113
 C229 C 0.34114 0.99572 0.76885
 C230 C 0.36840 0.98415 0.75205
 C231 C 0.36434 0.95448 0.72900
 C232 C 0.39259 0.93827 0.71761
 H233 H 0.39413 0.99615 0.75573
 H234 H 0.33804 0.94532 0.72200
 H235 H 0.31591 0.98245 0.76630
 H236 H 0.41872 0.94612 0.72679
 C237 C 0.90142 0.50945 0.23727
 C238 C 0.87539 0.53090 0.24568
 C239 C 0.88174 0.55778 0.27134
 C240 C 0.85489 0.57378 0.28541
 H241 H 0.84908 0.52831 0.23401
 H242 H 0.90870 0.56392 0.27937
 H243 H 0.92720 0.51097 0.25036
 H244 H 0.82811 0.56552 0.27906
 C245 C 0.23894 0.14102 -0.02615
 C246 C 0.21753 0.11510 -0.01548
 C247 C 0.19103 0.12179 0.00966
 C248 C 0.17484 0.09478 0.02581
 H249 H 0.21994 0.08855 -0.02478
 H250 H 0.18546 0.14904 0.01570
 H251 H 0.23750 0.16702 -0.01545
 H252 H 0.18252 0.06761 0.02135
 C253 C 0.75219 0.60271 0.50611
 C254 C 0.76115 0.63112 0.48661
 C255 C 0.78486 0.62758 0.45833
 C256 C 0.79894 0.65639 0.44305
 H257 H 0.75148 0.65739 0.49183
 H258 H 0.79148 0.60116 0.45059
 H259 H 0.76321 0.57676 0.50169
 H260 H 0.79394 0.68241 0.45271
 C261 C 0.76251 0.40988 0.01476
 C262 C 0.75090 0.38251 -0.00308
 C263 C 0.72112 0.38700 -0.02857
 C264 C 0.70425 0.35868 -0.04055
 H265 H 0.76269 0.35629 0.00179
 H266 H 0.71216 0.41371 -0.03662
 H267 H 0.74938 0.43559 0.01099
 H268 H 0.71189 0.33223 -0.03035
 C269 C 0.25467 0.89772 0.50375
 C270 C 0.26259 0.87114 0.52687
 C271 C 0.29061 0.87503 0.55380
 C272 C 0.30409 0.84649 0.57176
 H273 H 0.24895 0.84594 0.52549
 H274 H 0.30103 0.90132 0.55821
 H275 H 0.26966 0.92220 0.50421
 H276 H 0.29521 0.82014 0.56532
   
