data_POSCAR
  _audit_creation_date              2014-09-24
  _audit_creation_method            'ToBaCCo'
  _symmetry_space_group_name_H-M    'P1'
  _symmetry_Int_Tables_number       1
  _symmetry_cell_setting            triclinic
  loop_
  _symmetry_equiv_pos_as_xyz
 x,y,z
_cell_length_a 46.0718
_cell_length_b 45.6422
_cell_length_c 34.1191
_cell_angle_alpha 90.352200
_cell_angle_beta 89.116800
_cell_angle_gamma 120.668400
loop_
  _atom_site_label
  _atom_site_type_symbol
  _atom_site_fract_x
  _atom_site_fract_y
  _atom_site_fract_z
C1 C 0.02013 0.49678 0.03053
 C2 C 0.01736 0.52613 0.02833
 C3 C -0.00624 0.52687 0.00400
 C4 C -0.02989 0.49683 -0.02176
 C5 C -0.02610 0.46582 -0.01596
 C6 C -0.00052 0.46794 0.00788
 H7 H 0.00171 0.44555 0.01125
 H8 H -0.00733 0.54997 0.00242
 C9 C 0.50529 0.52215 0.03061
 C10 C 0.47366 0.49298 0.02304
 C11 C 0.47119 0.47016 -0.00592
 C12 C 0.49934 0.47558 -0.02803
 C13 C 0.53138 0.50548 -0.02162
 C14 C 0.53372 0.52793 0.00849
 H15 H 0.55791 0.55037 0.01477
 H16 H 0.44692 0.44733 -0.01082
 C17 C 0.47458 0.98432 0.02879
 C18 C 0.50317 0.98115 0.03486
 C19 C 0.53348 1.00319 0.01520
 C20 C 0.53608 1.02834 -0.01023
 C21 C 0.50812 1.03318 -0.01495
 C22 C 0.47749 1.01053 0.00465
 H23 H 0.45571 1.01342 0.00253
 H24 H 0.55553 1.00101 0.01986
 C25 C 0.98433 0.50382 0.53112
 C26 C 0.98411 0.47278 0.52854
 C27 C 1.00459 0.46914 0.50087
 C28 C 1.02553 0.49576 0.47544
 C29 C 1.02751 0.52786 0.47878
 C30 C 1.00602 0.53112 0.50629
 H31 H 1.00686 0.55506 0.50999
 H32 H 1.00338 0.44484 0.49830
 C33 C 0.49435 0.47034 0.51789
 C34 C 0.52769 0.49822 0.51167
 C35 C 0.53326 0.52333 0.48415
 C36 C 0.50661 0.52203 0.46359
 C37 C 0.47358 0.49420 0.46938
 C38 C 0.46765 0.46917 0.49716
 H39 H 0.44231 0.44749 0.50094
 H40 H 0.55861 0.54476 0.47943
 C41 C 0.52752 0.03296 0.50996
 C42 C 0.49510 0.02867 0.50679
 C43 C 0.47063 0.00211 0.48420
 C44 C 0.47759 -0.02093 0.46438
 C45 C 0.51026 -0.01680 0.46825
 C46 C 0.53473 0.01015 0.49067
 H47 H 0.55980 0.01371 0.49248
 H48 H 0.44672 0.00086 0.48104
 O49 O 0.20846 0.45493 0.21251
 O50 O 0.26937 0.46761 0.28920
 O51 O 0.20631 0.45163 0.28868
 O52 O 0.27169 0.47213 0.21299
 O53 O 0.28803 0.52667 0.21703
 O54 O 0.22276 0.50620 0.29255
 O55 O 0.28557 0.52213 0.29349
 O56 O 0.22495 0.51104 0.21683
 Cu57 Cu 0.23753 0.45633 0.25050
 Cu58 Cu 0.25697 0.52183 0.25535
 C59 C 0.20471 0.48064 0.20019
 C60 C 0.28774 0.49677 0.30442
 C61 C 0.20332 0.47557 0.30335
 C62 C 0.29100 0.50279 0.20214
 O63 O 0.54470 0.74434 0.21827
 O64 O 0.52907 0.79260 0.29405
 O65 O 0.52791 0.73473 0.29208
 O66 O 0.54397 0.80092 0.21942
 O67 O 0.48979 0.77306 0.20512
 O68 O 0.47365 0.70749 0.27816
 O69 O 0.47492 0.76515 0.27965
 O70 O 0.49041 0.71596 0.20448
 Cu71 Cu 0.54184 0.77095 0.25748
 Cu72 Cu 0.47676 0.73771 0.24030
 C73 C 0.52020 0.72162 0.19886
 C74 C 0.49944 0.78730 0.29964
 C75 C 0.49809 0.70972 0.29723
 C76 C 0.51946 0.79823 0.19999
 O77 O 0.26072 0.79557 0.20390
 O78 O 0.19392 0.74925 0.27832
 O79 O 0.25278 0.80541 0.27744
 O80 O 0.20310 0.73824 0.20534
 O81 O 0.22831 0.71035 0.22317
 O82 O 0.27778 0.77721 0.29473
 O83 O 0.21895 0.72119 0.29610
 O84 O 0.28583 0.76750 0.22136
 Cu85 Cu 0.22507 0.77488 0.23946
 Cu86 Cu 0.25516 0.74121 0.26069
 C87 C 0.28473 0.78965 0.20008
 C88 C 0.19500 0.72727 0.29986
 C89 C 0.27408 0.80283 0.29807
 C90 C 0.20728 0.71285 0.20206
 O91 O 0.73440 0.53182 0.78534
 O92 O 0.79558 0.54442 0.70679
 O93 O 0.73280 0.53016 0.70983
 O94 O 0.79748 0.54748 0.78329
 O95 O 0.78052 0.49271 0.78562
 O96 O 0.71546 0.47377 0.71231
 O97 O 0.77897 0.48976 0.70923
 O98 O 0.71748 0.47704 0.78743
 Cu99 Cu 0.76689 0.54381 0.74605
 Cu100 Cu 0.74676 0.47806 0.74883
 C101 C 0.71499 0.50213 0.79909
 C102 C 0.79792 0.51930 0.69486
 C103 C 0.71076 0.49835 0.69809
 C104 C 0.80001 0.52310 0.79696
 O105 O 0.45930 0.20628 0.78784
 O106 O 0.47382 0.26789 0.70953
 O107 O 0.45852 0.20387 0.71212
 O108 O 0.47583 0.26985 0.78594
 O109 O 0.52987 0.28587 0.78439
 O110 O 0.51289 0.22125 0.70898
 O111 O 0.52806 0.28477 0.70810
 O112 O 0.51327 0.22203 0.78512
 Cu113 Cu 0.46146 0.23547 0.74885
 Cu114 Cu 0.52645 0.25516 0.74637
 C115 C 0.48376 0.20343 0.79954
 C116 C 0.50344 0.28712 0.69583
 C117 C 0.48277 0.20109 0.69837
 C118 C 0.50575 0.28891 0.79797
 O119 O 0.79169 0.26842 0.79119
 O120 O 0.74212 0.20345 0.71775
 O121 O 0.79257 0.26618 0.71472
 O122 O 0.73708 0.20772 0.79313
 O123 O 0.70485 0.23044 0.78872
 O124 O 0.75743 0.28533 0.70880
 O125 O 0.70729 0.22313 0.71369
 O126 O 0.75901 0.29044 0.78513
 Cu127 Cu 0.76934 0.23446 0.75483
 Cu128 Cu 0.72890 0.25954 0.74861
 C129 C 0.78412 0.29067 0.80049
 C130 C 0.71605 0.20181 0.70361
 C131 C 0.78390 0.28543 0.69817
 C132 C 0.71123 0.20913 0.80383
 C133 C 0.04235 0.49502 0.06018
 C134 C 0.06393 0.48260 0.05218
 C135 C 0.09034 0.48695 0.07994
 C136 C 0.10259 0.46440 0.07845
 C137 C 0.12763 0.46812 0.10428
 C138 C 0.14128 0.49488 0.13168
 C139 C 0.12964 0.51789 0.13241
 C140 C 0.10449 0.51403 0.10693
 C141 C 0.16747 0.49957 0.15976
 C142 C 0.17597 0.47485 0.16611
 H143 H 0.06190 0.46993 0.02452
 H144 H 0.09254 0.44365 0.05751
 H145 H 0.13636 0.45018 0.10264
 H146 H 0.13991 0.53892 0.15292
 H147 H 0.09670 0.53273 0.10808
 H148 H 0.17926 0.52251 0.17744
 H149 H 0.04345 0.50641 0.08843
 H150 H 0.19012 0.47787 0.18285
 C151 C 0.50879 0.54570 0.06257
 C152 C 0.52342 0.58061 0.05614
 C153 C 0.51825 0.60326 0.08304
 C154 C 0.54053 0.63858 0.08086
 C155 C 0.53538 0.66079 0.10442
 C156 C 0.50751 0.64803 0.13035
 C157 C 0.48483 0.61281 0.13190
 C158 C 0.49018 0.59061 0.10874
 C159 C 0.50103 0.67063 0.15560
 C160 C 0.52682 0.70151 0.17011
 H161 H 0.53759 0.59145 0.02918
 H162 H 0.56192 0.64903 0.06073
 H163 H 0.55279 0.68791 0.10160
 H164 H 0.46292 0.60239 0.15126
 H165 H 0.47172 0.56374 0.11046
 H166 H 0.47541 0.66121 0.16598
 H167 H 0.49544 0.53459 0.08981
 H168 H 0.55287 0.70982 0.16294
 C169 C 0.44161 0.96168 0.04847
 C170 C 0.42724 0.92629 0.04979
 C171 C 0.39716 0.90300 0.07395
 C172 C 0.39114 0.87021 0.08217
 C173 C 0.36409 0.84789 0.10638
 C174 C 0.34230 0.85791 0.12280
 C175 C 0.34761 0.89021 0.11347
 C176 C 0.37473 0.91258 0.08943
 C177 C 0.31372 0.83556 0.14934
 C178 C 0.31203 0.80891 0.17119
 H179 H 0.44020 0.91531 0.03444
 H180 H 0.40771 0.86194 0.07021
 H181 H 0.36026 0.82283 0.11178
 H182 H 0.33093 0.89839 0.12530
 H183 H 0.37772 0.93713 0.08308
 H184 H 0.29423 0.84189 0.15393
 H185 H 0.42868 0.97358 0.06150
 H186 H 0.33200 0.80309 0.16892
 C187 C 0.96358 0.50816 0.56156
 C188 C 0.94203 0.52026 0.55293
 C189 C 0.91435 0.51561 0.57988
 C190 C 0.90061 0.53670 0.57599
 C191 C 0.87372 0.53212 0.60016
 C192 C 0.85981 0.50603 0.62855
 C193 C 0.87298 0.48440 0.63165
 C194 C 0.89995 0.48915 0.60779
 C195 C 0.83143 0.50009 0.65501
 C196 C 0.82359 0.52507 0.66471
 H197 H 0.94446 0.53209 0.52469
 H198 H 0.91070 0.55677 0.55416
 H199 H 0.86359 0.54863 0.59594
 H200 H 0.86240 0.46373 0.65276
 H201 H 0.90879 0.47145 0.61081
 H202 H 0.81773 0.47569 0.66986
 H203 H 0.96213 0.49735 0.59015
 H204 H 0.83819 0.55035 0.65228
 C205 C 0.48600 0.44136 0.54427
 C206 C 0.50402 0.42430 0.54341
 C207 C 0.49830 0.39692 0.57129
 C208 C 0.52339 0.38833 0.57465
 C209 C 0.51945 0.36304 0.60086
 C210 C 0.49013 0.34568 0.62445
 C211 C 0.46480 0.35391 0.62060
 C212 C 0.46875 0.37918 0.59440
 C213 C 0.48457 0.31867 0.65286
 C214 C 0.50989 0.31290 0.66577
 H215 H 0.52476 0.43284 0.52253
 H216 H 0.54633 0.40142 0.55706
 H217 H 0.53931 0.35711 0.60199
 H218 H 0.44181 0.34077 0.63807
 H219 H 0.44835 0.38424 0.59225
 H220 H 0.45948 0.30346 0.66553
 H221 H 0.46430 0.43286 0.56346
 H222 H 0.53557 0.32850 0.65520
 C223 C 0.55430 0.06274 0.53104
 C224 C 0.57655 0.06048 0.55635
 C225 C 0.59964 0.08890 0.58220
 C226 C 0.62784 0.08911 0.59744
 C227 C 0.64974 0.11507 0.62266
 C228 C 0.64379 0.14146 0.63335
 C229 C 0.61528 0.14090 0.61849
 C230 C 0.59336 0.11492 0.59341
 C231 C 0.66582 0.16952 0.66039
 C232 C 0.69595 0.17444 0.67560
 H233 H 0.57667 0.03684 0.55785
 H234 H 0.63296 0.06909 0.58976
 H235 H 0.67091 0.11383 0.63374
 H236 H 0.60972 0.16054 0.62657
 H237 H 0.57120 0.11506 0.58378
 H238 H 0.65781 0.18726 0.66887
 H239 H 0.55472 0.08654 0.52841
 H240 H 0.70527 0.15776 0.66766
 C241 C 0.51194 0.06116 0.96293
 C242 C 0.48561 0.06492 0.94862
 C243 C 0.49075 0.09339 0.92254
 C244 C 0.46218 0.09385 0.90950
 C245 C 0.46539 0.11918 0.88379
 C246 C 0.49746 0.14490 0.87052
 C247 C 0.52598 0.14457 0.88365
 C248 C 0.52282 0.11932 0.90929
 C249 C 0.50259 0.17179 0.84216
 C250 C 0.47731 0.17778 0.82975
 H251 H 0.45975 0.04529 0.95436
 H252 H 0.43713 0.07423 0.91887
 H253 H 0.44258 0.11788 0.87404
 H254 H 0.55099 0.16389 0.87378
 H255 H 0.54584 0.12055 0.91782
 H256 H 0.52784 0.18775 0.83019
 H257 H 0.53728 0.08083 0.95583
 H258 H 0.45197 0.16321 0.84164
 C259 C 0.56140 0.51412 0.95730
 C260 C 0.56295 0.50275 0.91955
 C261 C 0.59447 0.50791 0.90113
 C262 C 0.59254 0.48295 0.87533
 C263 C 0.62154 0.48693 0.85668
 C264 C 0.65312 0.51628 0.86317
 C265 C 0.65500 0.54147 0.88859
 C266 C 0.62601 0.53727 0.90767
 C267 C 0.68380 0.52238 0.84152
 C268 C 0.68811 0.49605 0.82746
 H269 H 0.54037 0.48872 0.90256
 H270 H 0.56845 0.46027 0.86957
 H271 H 0.61893 0.46749 0.83631
 H272 H 0.67896 0.56455 0.89350
 H273 H 0.62827 0.55746 0.92651
 H274 H 0.70339 0.54853 0.83590
 H275 H 0.58508 0.53205 0.97081
 H276 H 0.67020 0.46996 0.83566
 C277 C 0.95240 0.43454 0.96526
 C278 C 0.91893 0.42398 0.95610
 C279 C 0.89727 0.39574 0.92927
 C280 C 0.86358 0.38730 0.92509
 C281 C 0.84254 0.36257 0.89827
 C282 C 0.85484 0.34584 0.87464
 C283 C 0.88835 0.35381 0.87925
 C284 C 0.90950 0.37869 0.90605
 C285 C 0.83343 0.31964 0.84558
 C286 C 0.80453 0.31713 0.82936
 H287 H 0.90738 0.43699 0.96994
 H288 H 0.85352 0.40017 0.94242
 H289 H 0.81665 0.35654 0.89650
 H290 H 0.89841 0.34117 0.86150
 H291 H 0.93541 0.38482 0.90779
 H292 H 0.84157 0.30242 0.83536
 H293 H 0.96109 0.41673 0.96088
 H294 H 0.79700 0.33536 0.83698
 C295 C 0.52040 0.96058 0.44871
 C296 C 0.50101 0.92510 0.45182
 C297 C 0.50685 0.90155 0.42738
 C298 C 0.47974 0.86841 0.42105
 C299 C 0.48344 0.84599 0.39624
 C300 C 0.51454 0.85627 0.37733
 C301 C 0.54202 0.88889 0.38497
 C302 C 0.53828 0.91137 0.40964
 C303 C 0.51942 0.83380 0.34985
 C304 C 0.49318 0.80718 0.32918
 H305 H 0.47839 0.91416 0.47004
 H306 H 0.45538 0.86001 0.43481
 H307 H 0.46197 0.82066 0.39223
 H308 H 0.56639 0.89724 0.37128
 H309 H 0.56011 0.93623 0.41471
 H310 H 0.54507 0.84000 0.34359
 H311 H 0.54375 0.97261 0.43198
 H312 H 0.46754 0.80172 0.33303
 C313 C 0.44636 0.48853 0.44265
 C314 C 0.41686 0.48706 0.45569
 C315 C 0.39141 0.48398 0.42755
 C316 C 0.37531 0.50280 0.43311
 C317 C 0.35193 0.50080 0.40584
 C318 C 0.34392 0.47943 0.37292
 C319 C 0.35945 0.46000 0.36806
 C320 C 0.38314 0.46244 0.39489
 C321 C 0.31881 0.47574 0.34381
 C322 C 0.31193 0.50139 0.33499
 H323 H 0.41400 0.49138 0.48640
 H324 H 0.38125 0.51946 0.45821
 H325 H 0.33980 0.51551 0.41095
 H326 H 0.35345 0.44309 0.34317
 H327 H 0.39473 0.44715 0.39033
 H328 H 0.30674 0.45249 0.32675
 H329 H 0.45137 0.48914 0.41146
 H330 H 0.32548 0.52581 0.34944
 C331 C 0.05234 0.55584 0.45661
 C332 C 0.05822 0.58911 0.45560
 C333 C 0.08709 0.61560 0.43214
 C334 C 0.08387 0.64024 0.41149
 C335 C 0.10979 0.66311 0.38616
 C336 C 0.13972 0.66203 0.38157
 C337 C 0.14344 0.63847 0.40388
 C338 C 0.11760 0.61564 0.42887
 C339 C 0.16728 0.68374 0.35333
 C340 C 0.16779 0.70856 0.32911
 H341 H 0.04085 0.59552 0.46920
 H342 H 0.06078 0.64098 0.41388
 H343 H 0.10573 0.68088 0.36985
 H344 H 0.16630 0.63727 0.40151
 H345 H 0.12151 0.59775 0.44531
 H346 H 0.18815 0.67921 0.35074
 H347 H 0.06941 0.55183 0.43859
 H348 H 0.14784 0.71438 0.33079
 C349 C 0.94459 0.49709 0.94751
 C350 C 0.93821 0.52344 0.94268
 C351 C 0.91158 0.51928 0.91556
 C352 C 0.90309 0.54469 0.91324
 C353 C 0.87715 0.54058 0.88875
 C354 C 0.85936 0.51093 0.86593
 C355 C 0.86786 0.48557 0.86840
 C356 C 0.89368 0.48967 0.89273
 C357 C 0.83156 0.50493 0.83971
 C358 C 0.82632 0.53051 0.82574
 H359 H 0.95134 0.54638 0.96011
 H360 H 0.91625 0.56756 0.93079
 H361 H 0.87083 0.56035 0.88848
 H362 H 0.85450 0.46244 0.85129
 H363 H 0.89938 0.46943 0.89373
 H364 H 0.81551 0.47921 0.82905
 H365 H 0.95798 0.49803 0.96358
 H366 H 0.84267 0.55673 0.83428
 C367 C 0.49328 0.44778 0.94490
 C368 C 0.50997 0.42961 0.94825
 C369 C 0.50360 0.40102 0.92196
 C370 C 0.52799 0.39136 0.91871
 C371 C 0.52320 0.36498 0.89354
 C372 C 0.49377 0.34769 0.87107
 C373 C 0.46897 0.35666 0.87528
 C374 C 0.47372 0.38293 0.90043
 C375 C 0.48760 0.32004 0.84337
 C376 C 0.51297 0.31515 0.82770
 H377 H 0.52963 0.43783 0.96985
 H378 H 0.55096 0.40447 0.93547
 H379 H 0.54243 0.35810 0.89223
 H380 H 0.44585 0.34343 0.85879
 H381 H 0.45362 0.38849 0.90306
 H382 H 0.46206 0.30397 0.83309
 H383 H 0.47350 0.44043 0.92380
 H384 H 0.53896 0.33156 0.83602
 C385 C 0.56858 0.04867 0.96843
 C386 C 0.56971 0.05229 0.92784
 C387 C 0.60029 0.07762 0.90650
 C388 C 0.59649 0.09447 0.87461
 C389 C 0.62472 0.12003 0.85491
 C390 C 0.65740 0.12907 0.86654
 C391 C 0.66127 0.11121 0.89735
 C392 C 0.63289 0.08583 0.91753
 C393 C 0.68728 0.15671 0.84617
 C394 C 0.68691 0.18520 0.83260
 H395 H 0.54618 0.03960 0.91201
 H396 H 0.57160 0.08841 0.86550
 H397 H 0.62091 0.13261 0.83041
 H398 H 0.68623 0.11742 0.90631
 H399 H 0.63646 0.07261 0.94150
 H400 H 0.70926 0.15432 0.84123
 H401 H 0.59164 0.06041 0.98504
 H402 H 0.66584 0.18843 0.84052
 C403 C 0.04469 0.48937 0.44477
 C404 C 0.06448 0.47521 0.45307
 C405 C 0.09111 0.47890 0.42546
 C406 C 0.09974 0.45358 0.42319
 C407 C 0.12567 0.45748 0.39779
 C408 C 0.14359 0.48709 0.37469
 C409 C 0.13536 0.51264 0.37783
 C410 C 0.10942 0.50863 0.40283
 C411 C 0.17146 0.49307 0.34767
 C412 C 0.17668 0.46757 0.33282
 H413 H 0.06192 0.46310 0.48114
 H414 H 0.08632 0.43075 0.44094
 H415 H 0.13189 0.43762 0.39699
 H416 H 0.14912 0.53591 0.36087
 H417 H 0.10433 0.52926 0.40508
 H418 H 0.18763 0.51889 0.33707
 H419 H 0.04600 0.49931 0.41565
 H420 H 0.16023 0.44124 0.34123
 C421 C 0.51421 0.55071 0.43713
 C422 C 0.49500 0.56646 0.43848
 C423 C 0.50147 0.59580 0.41380
 C424 C 0.47580 0.60359 0.41065
 C425 C 0.48064 0.63111 0.38792
 C426 C 0.51137 0.65143 0.36773
 C427 C 0.53732 0.64417 0.37160
 C428 C 0.53248 0.61662 0.39432
 C429 C 0.51735 0.68043 0.34276
 C430 C 0.49137 0.68247 0.32502
 H431 H 0.47362 0.55644 0.45859
 H432 H 0.45182 0.58823 0.42576
 H433 H 0.46042 0.63657 0.38677
 H434 H 0.56136 0.65971 0.35669
 H435 H 0.55330 0.61221 0.39680
 H436 H 0.54324 0.69957 0.33573
 H437 H 0.53664 0.56077 0.41885
 H438 H 0.46540 0.66240 0.32928
 C439 C 0.45355 0.95383 0.43938
 C440 C 0.41871 0.94115 0.44122
 C441 C 0.39421 0.91280 0.41626
 C442 C 0.36202 0.90836 0.41119
 C443 C 0.33811 0.88175 0.38815
 C444 C 0.34599 0.85896 0.36977
 C445 C 0.37778 0.86279 0.37575
 C446 C 0.40164 0.88931 0.39875
 C447 C 0.32176 0.83056 0.34491
 C448 C 0.29511 0.83023 0.32559
 H449 H 0.40828 0.95118 0.46230
 H450 H 0.35536 0.92559 0.42508
 H451 H 0.31343 0.87886 0.38540
 H452 H 0.38428 0.84524 0.36243
 H453 H 0.42546 0.89068 0.40318
 H454 H 0.32664 0.81004 0.33933
 H455 H 0.46253 0.94302 0.41760
 H456 H 0.29081 0.85134 0.32853
 C457 C 0.50218 0.95647 0.06351
 C458 C 0.51739 0.93724 0.05603
 C459 C 0.51269 0.90927 0.08196
 C460 C 0.53689 0.89929 0.08125
 C461 C 0.53292 0.87264 0.10510
 C462 C 0.50438 0.85526 0.12977
 C463 C 0.47969 0.86452 0.12954
 C464 C 0.48381 0.89134 0.10606
 C465 C 0.49917 0.82702 0.15545
 C466 C 0.52569 0.82500 0.17165
 H467 H 0.53295 0.94246 0.02991
 H468 H 0.55899 0.91225 0.06231
 H469 H 0.55188 0.86534 0.10363
 H470 H 0.45724 0.85114 0.14786
 H471 H 0.46400 0.89740 0.10639
 H472 H 0.47353 0.80870 0.16456
 H473 H 0.48745 0.95213 0.09010
 H474 H 0.55157 0.84464 0.16558
 C475 C 0.44275 0.48437 0.04580
 C476 C 0.43207 0.50773 0.05179
 C477 C 0.40283 0.50122 0.07699
 C478 C 0.39805 0.52857 0.08588
 C479 C 0.37177 0.52411 0.11090
 C480 C 0.34956 0.49199 0.12756
 C481 C 0.35385 0.46452 0.11787
 C482 C 0.38008 0.46896 0.09294
 C483 C 0.32181 0.48568 0.15519
 C484 C 0.31750 0.51107 0.17238
 H485 H 0.44683 0.53271 0.03848
 H486 H 0.41501 0.55365 0.07380
 H487 H 0.36918 0.54594 0.11683
 H488 H 0.33698 0.43944 0.13001
 H489 H 0.38209 0.44687 0.08659
 H490 H 0.30456 0.45950 0.16380
 H491 H 0.42777 0.45846 0.05612
 H492 H 0.33424 0.53762 0.16526
 C493 C 0.03893 0.55719 0.05143
 C494 C 0.07397 0.57205 0.05231
 C495 C 0.09639 0.60175 0.07692
 C496 C 0.12900 0.60820 0.08448
 C497 C 0.15070 0.63525 0.10854
 C498 C 0.14017 0.65652 0.12553
 C499 C 0.10804 0.65081 0.11691
 C500 C 0.08630 0.62372 0.09293
 C501 C 0.16196 0.68496 0.15194
 C502 C 0.18756 0.68560 0.17389
 H503 H 0.08538 0.56015 0.03558
 H504 H 0.13763 0.59201 0.07204
 H505 H 0.17572 0.63954 0.11335
 H506 H 0.09953 0.66714 0.12921
 H507 H 0.06188 0.62047 0.08694
 H508 H 0.15613 0.70494 0.15632
 H509 H 0.02663 0.56891 0.06642
 H510 H 0.19240 0.66480 0.17203
 C511 C 0.48677 0.05269 0.52567
 C512 C 0.48796 0.05663 0.56621
 C513 C 0.48862 0.08597 0.58540
 C514 C 0.47324 0.08183 0.62234
 C515 C 0.47593 0.10993 0.64231
 C516 C 0.49492 0.14276 0.62607
 C517 C 0.51064 0.14694 0.58936
 C518 C 0.50712 0.11872 0.56887
 C519 C 0.50073 0.17301 0.64837
 C520 C 0.47547 0.17317 0.67116
 H521 H 0.48992 0.03832 0.58437
 H522 H 0.45940 0.05687 0.63586
 H523 H 0.46429 0.10618 0.67109
 H524 H 0.52583 0.17211 0.57666
 H525 H 0.52003 0.12270 0.54088
 H526 H 0.52545 0.19582 0.64650
 H527 H 0.48111 0.06834 0.50729
 H528 H 0.44983 0.15184 0.66977
 C529 C 0.55777 0.50294 0.53250
 C530 C 0.55784 0.49622 0.57227
 C531 C 0.58841 0.50098 0.59134
 C532 C 0.58566 0.47667 0.61837
 C533 C 0.61439 0.48067 0.63672
 C534 C 0.64624 0.50958 0.62898
 C535 C 0.64883 0.53409 0.60233
 C536 C 0.62022 0.52972 0.58336
 C537 C 0.67658 0.51577 0.65006
 C538 C 0.67831 0.48968 0.66841
 H539 H 0.53474 0.48555 0.58946
 H540 H 0.56128 0.45445 0.62502
 H541 H 0.61150 0.46158 0.65761
 H542 H 0.67302 0.55672 0.59626
 H543 H 0.62287 0.54921 0.56319
 H544 H 0.69774 0.54167 0.65209
 H545 H 0.58138 0.51419 0.51612
 H546 H 0.69424 0.49394 0.68295
 C547 C 0.96255 0.44314 0.55383
 C548 C 0.92777 0.42943 0.55639
 C549 C 0.90501 0.40027 0.58184
 C550 C 0.87324 0.39552 0.59146
 C551 C 0.85120 0.36920 0.61646
 C552 C 0.86017 0.34634 0.63182
 C553 C 0.89179 0.35076 0.62167
 C554 C 0.91399 0.37734 0.59683
 C555 C 0.83800 0.31873 0.65963
 C556 C 0.80428 0.30869 0.66646
 H557 H 0.91687 0.44177 0.54020
 H558 H 0.86565 0.41273 0.58023
 H559 H 0.82767 0.36771 0.62410
 H560 H 0.89940 0.33361 0.63306
 H561 H 0.93787 0.37948 0.58938
 H562 H 0.84886 0.30652 0.67612
 H563 H 0.97443 0.43112 0.56845
 H564 H 0.79230 0.31940 0.64956
   
