data_POSCAR
  _audit_creation_date              2014-09-24
  _audit_creation_method            'ToBaCCo'
  _symmetry_space_group_name_H-M    'P1'
  _symmetry_Int_Tables_number       1
  _symmetry_cell_setting            triclinic
  loop_
  _symmetry_equiv_pos_as_xyz
 x,y,z
_cell_length_a 20.9931
_cell_length_b 34.5523
_cell_length_c 17.4530
_cell_angle_alpha 89.909000
_cell_angle_beta 89.847100
_cell_angle_gamma 90.182900
loop_
  _atom_site_label
  _atom_site_type_symbol
  _atom_site_fract_x
  _atom_site_fract_y
  _atom_site_fract_z
C1 C 0.79026 0.17102 0.43072
 C2 C 0.79659 0.15212 0.50139
 C3 C 0.78991 0.17097 0.57200
 C4 C 0.77042 0.21030 0.57207
 C5 C 0.76071 0.22996 0.50133
 C6 C 0.77091 0.21036 0.43060
 C7 C 0.76123 0.23072 0.36189
 C8 C 0.74191 0.26907 0.36190
 C9 C 0.73197 0.28919 0.43059
 C10 C 0.74162 0.26958 0.50130
 C11 C 0.76018 0.23058 0.64071
 C12 C 0.74074 0.26894 0.64062
 C13 C 0.73121 0.28926 0.57189
 C14 C 0.71152 0.32859 0.57147
 C15 C 0.70498 0.34730 0.50062
 C16 C 0.71255 0.32835 0.43050
 H17 H 0.76791 0.21741 0.30672
 H18 H 0.73529 0.28262 0.30684
 H19 H 0.76647 0.21717 0.69590
 H20 H 0.73371 0.28229 0.69571
 H21 H 0.80891 0.12213 0.50142
 H22 H 0.69143 0.37710 0.49962
 C23 C 0.21141 0.82813 0.57148
 C24 C 0.20348 0.84686 0.50106
 C25 C 0.21097 0.82806 0.43075
 C26 C 0.23079 0.78893 0.43059
 C27 C 0.24120 0.76937 0.50128
 C28 C 0.23134 0.78902 0.57184
 C29 C 0.24147 0.76893 0.64064
 C30 C 0.26127 0.73061 0.64078
 C31 C 0.27100 0.71025 0.57209
 C32 C 0.26052 0.72986 0.50137
 C33 C 0.24030 0.76875 0.36185
 C34 C 0.25998 0.73044 0.36188
 C35 C 0.27020 0.71030 0.43067
 C36 C 0.28986 0.67119 0.43074
 C37 C 0.29767 0.65229 0.50096
 C38 C 0.29088 0.67096 0.57178
 H39 H 0.23462 0.78251 0.69561
 H40 H 0.26835 0.71730 0.69595
 H41 H 0.23301 0.78223 0.30683
 H42 H 0.26659 0.71691 0.30684
 H43 H 0.18867 0.87645 0.50099
 H44 H 0.31161 0.62256 0.50007
 C45 C 0.28947 0.32846 -0.57198
 C46 C 0.29616 0.34719 -0.50126
 C47 C 0.28843 0.32825 -0.43101
 C48 C 0.26870 0.28907 -0.43082
 C49 C 0.25890 0.26943 -0.50139
 C50 C 0.26946 0.28911 -0.57213
 C51 C 0.25978 0.26876 -0.64071
 C52 C 0.24002 0.23039 -0.64053
 C53 C 0.22962 0.21011 -0.57176
 C54 C 0.23949 0.22979 -0.50116
 C55 C 0.25860 0.26895 -0.36200
 C56 C 0.23898 0.23058 -0.36171
 C57 C 0.22914 0.21020 -0.43028
 C58 C 0.20947 0.17084 -0.43013
 C59 C 0.20303 0.15191 -0.50066
 C60 C 0.20982 0.17077 -0.57141
 H61 H 0.26692 0.28211 -0.69590
 H62 H 0.23364 0.21696 -0.69563
 H63 H 0.26534 0.28251 -0.30703
 H64 H 0.23221 0.21726 -0.30645
 H65 H 0.30996 0.37700 -0.50047
 H66 H 0.19053 0.12190 -0.50048
 C67 C -0.28905 0.67056 -0.43089
 C68 C -0.29542 0.65176 -0.50155
 C69 C -0.28953 0.67086 -0.57214
 C70 C -0.27061 0.71037 -0.57214
 C71 C -0.26054 0.72989 -0.50136
 C72 C -0.26996 0.71001 -0.43067
 C73 C -0.25980 0.73019 -0.36190
 C74 C -0.24095 0.76869 -0.36182
 C75 C -0.23188 0.78914 -0.43045
 C76 C -0.24189 0.76966 -0.50120
 C77 C -0.26124 0.73098 -0.64071
 C78 C -0.24224 0.76949 -0.64053
 C79 C -0.23225 0.78963 -0.57174
 C80 C -0.21283 0.82908 -0.57123
 C81 C -0.20625 0.84769 -0.50038
 C82 C -0.21302 0.82849 -0.43029
 H83 H -0.26568 0.71659 -0.30677
 H84 H -0.23397 0.78211 -0.30675
 H85 H -0.26788 0.71770 -0.69593
 H86 H -0.23598 0.78312 -0.69560
 H87 H -0.30711 0.62162 -0.50155
 H88 H -0.19332 0.87765 -0.49942
 N89 N -0.06830 0.93086 -0.08225
 N90 N -0.10232 0.90113 -0.10732
 N91 N 0.06556 0.95891 -0.13324
 N92 N 0.10082 0.94930 -0.19266
 N93 N 0.06495 0.93083 -0.08231
 N94 N 0.09923 0.90122 -0.10692
 N95 N -0.06852 0.95901 -0.13302
 N96 N -0.10329 0.94935 -0.19269
 C97 C -0.12524 0.91369 -0.17536
 C98 C 0.12268 0.91377 -0.17489
 N99 N 0.06585 1.07019 -0.08313
 N100 N 0.09983 1.09991 -0.10880
 N101 N -0.06795 1.04206 -0.13317
 N102 N -0.10284 1.05165 -0.19273
 N103 N -0.06739 1.07023 -0.08258
 N104 N -0.10128 1.09991 -0.10774
 N105 N 0.06613 1.04197 -0.13362
 N106 N 0.10089 1.05158 -0.19360
 Mn107 Mn -0.00119 1.00049 -0.13317
 C108 C 0.12282 1.08725 -0.17684
 C109 C -0.12454 1.08726 -0.17557
 N110 N 0.06480 0.93076 0.08413
 N111 N 0.09879 0.90108 0.10898
 N112 N -0.06865 0.95898 0.13512
 N113 N -0.10374 0.94934 0.19481
 N114 N -0.06846 0.93089 0.08438
 N115 N -0.10283 0.90123 0.10946
 N116 N 0.06543 0.95887 0.13483
 N117 N 0.10040 0.94920 0.19430
 Mn118 Mn -0.00176 0.93060 0.00099
 C119 C 0.12207 0.91360 0.17685
 C120 C -0.12595 0.91379 0.17747
 N121 N -0.06737 1.07025 0.08438
 N122 N -0.10096 1.10000 0.10986
 N123 N 0.06606 1.04193 0.13455
 N124 N 0.10107 1.05148 0.19408
 N125 N 0.06588 1.07012 0.08382
 N126 N 0.10015 1.09975 0.10883
 N127 N -0.06801 1.04204 0.13504
 N128 N -0.10265 1.05167 0.19496
 Mn129 Mn -0.00076 1.07045 0.00062
 Mn130 Mn -0.00129 1.00046 0.13479
 Cl131 Cl -0.00126 1.00052 0.00081
 C132 C -0.12411 1.08737 0.17798
 C133 C 0.12324 1.08707 0.17673
 N134 N 0.43398 0.45817 0.13365
 N135 N 0.39914 0.44843 0.19350
 N136 N 0.56753 0.43017 0.08256
 N137 N 0.60169 0.40058 0.10751
 N138 N 0.56806 0.45833 0.13315
 N139 N 0.60319 0.44882 0.19256
 N140 N 0.43427 0.43007 0.08294
 N141 N 0.40020 0.40031 0.10823
 C142 C 0.37718 0.41280 0.17634
 C143 C 0.62503 0.41326 0.17525
 N144 N 0.56806 0.45821 -0.13501
 N145 N 0.60280 0.44849 -0.19481
 N146 N 0.43428 0.43017 -0.08371
 N147 N 0.39986 0.40056 -0.10851
 N148 N 0.43398 0.45835 -0.13444
 N149 N 0.39877 0.44883 -0.19380
 N150 N 0.56753 0.43011 -0.08412
 N151 N 0.60134 0.40037 -0.10923
 Mn152 Mn 0.50091 0.42989 -0.00058
 C153 C 0.62446 0.41288 -0.17742
 C154 C 0.37662 0.41325 -0.17631
 N155 N 0.56839 0.54138 0.13313
 N156 N 0.60290 0.55113 0.19297
 N157 N 0.43494 0.56943 0.08254
 N158 N 0.40075 0.59902 0.10750
 N159 N 0.43431 0.54124 0.13326
 N160 N 0.39911 0.55073 0.19278
 N161 N 0.56817 0.56953 0.08234
 N162 N 0.60192 0.59934 0.10762
 Mn163 Mn 0.50118 0.49978 0.13320
 C164 C 0.62472 0.58683 0.17577
 C165 C 0.37731 0.58631 0.17540
 N166 N 0.43452 0.54142 -0.13484
 N167 N 0.39973 0.55112 -0.19445
 N168 N 0.56830 0.56946 -0.08456
 N169 N 0.60245 0.59914 -0.11003
 N170 N 0.56860 0.54127 -0.13509
 N171 N 0.60356 0.55083 -0.19490
 N172 N 0.43505 0.56953 -0.08414
 N173 N 0.40121 0.59925 -0.10918
 Mn174 Mn 0.50129 0.49981 -0.13476
 Mn175 Mn 0.50163 0.56973 -0.00096
 Cl176 Cl 0.50126 0.49981 -0.00077
 C177 C 0.37806 0.58673 -0.17714
 C178 C 0.62559 0.58646 -0.17797
 C179 C 0.38913 0.37858 0.30753
 C180 C 0.33360 0.39148 0.35909
 C181 C 0.30802 0.34935 0.35947
 C182 C 0.36378 0.33658 0.30772
 C183 C 0.26700 0.35813 0.28828
 C184 C 0.29286 0.40026 0.28780
 C185 C 0.34847 0.38748 0.23663
 C186 C 0.32331 0.34566 0.23556
 H187 H 0.43975 0.38704 0.31533
 H188 H 0.33998 0.41299 0.40555
 H189 H 0.39337 0.31035 0.31614
 H190 H 0.21631 0.34979 0.28062
 H191 H 0.26363 0.42661 0.27907
 H192 H 0.31923 0.32706 0.18401
 C193 C -0.11354 0.87925 0.30809
 C194 C -0.16861 0.89218 0.36031
 C195 C -0.19456 0.85014 0.36040
 C196 C -0.13923 0.83734 0.30803
 C197 C -0.23596 0.85925 0.28972
 C198 C -0.20974 0.90129 0.28950
 C199 C -0.15458 0.88847 0.23769
 C200 C -0.18008 0.84674 0.23636
 H201 H -0.06278 0.88752 0.31549
 H202 H -0.16166 0.91348 0.40702
 H203 H -0.10981 0.81100 0.31589
 H204 H -0.28676 0.85107 0.28245
 H205 H -0.23879 0.92776 0.28131
 H206 H -0.18464 0.82832 0.18462
 C207 C 0.67781 0.65401 0.23526
 C208 C 0.63683 0.66284 0.30733
 C209 C 0.69234 0.65008 0.35923
 C210 C 0.73385 0.64153 0.28813
 C211 C 0.66695 0.60790 0.35867
 C212 C 0.61171 0.62080 0.30695
 C213 C 0.65288 0.61213 0.23615
 C214 C 0.70822 0.59936 0.28749
 H215 H 0.68213 0.67273 0.18377
 H216 H 0.60701 0.68899 0.31571
 H217 H 0.78453 0.65001 0.28063
 H218 H 0.66018 0.58632 0.40511
 H219 H 0.56109 0.61222 0.31459
 H220 H 0.73766 0.57309 0.27881
 C221 C 0.11051 1.12137 0.30746
 C222 C 0.16517 1.10805 0.35964
 C223 C 0.19158 1.14999 0.36006
 C224 C 0.13665 1.16317 0.30771
 C225 C 0.23322 1.14095 0.28932
 C226 C 0.20655 1.09901 0.28879
 C227 C 0.15179 1.11222 0.23700
 C228 C 0.17775 1.15385 0.23599
 H229 H 0.05966 1.11326 0.31480
 H230 H 0.15769 1.08662 0.40619
 H231 H 0.10745 1.18960 0.31573
 H232 H 0.28415 1.14893 0.28213
 H233 H 0.23536 1.07246 0.28047
 H234 H 0.18276 1.17244 0.18439
 C235 C 0.61224 0.37863 -0.30839
 C236 C 0.66786 0.39158 -0.36004
 C237 C 0.69312 0.34947 -0.36013
 C238 C 0.63726 0.33665 -0.30829
 C239 C 0.73421 0.35831 -0.28900
 C240 C 0.70867 0.40041 -0.28881
 C241 C 0.65296 0.38758 -0.23755
 C242 C 0.67780 0.34578 -0.23619
 H243 H 0.56167 0.38703 -0.31625
 H244 H 0.66164 0.41307 -0.40665
 H245 H 0.60748 0.31039 -0.31653
 H246 H 0.78483 0.35002 -0.28128
 H247 H 0.73810 0.42679 -0.28026
 H248 H 0.68174 0.32720 -0.18452
 C249 C 0.17600 0.84659 -0.23265
 C250 C 0.13607 0.83761 -0.30521
 C251 C 0.19251 0.85012 -0.35633
 C252 C 0.23301 0.85884 -0.28468
 C253 C 0.16783 0.89229 -0.35680
 C254 C 0.11153 0.87966 -0.30593
 C255 C 0.15167 0.88849 -0.23456
 C256 C 0.20802 0.90104 -0.28504
 H257 H 0.17922 0.82804 -0.18085
 H258 H 0.10618 0.81143 -0.31390
 H259 H 0.28344 0.85029 -0.27634
 H260 H 0.16281 0.91350 -0.40411
 H261 H 0.06114 0.88826 -0.31455
 H262 H 0.23766 0.92731 -0.27615
 C263 C 0.32481 0.65385 -0.23602
 C264 C 0.36524 0.66286 -0.30858
 C265 C 0.30923 0.65009 -0.35977
 C266 C 0.26824 0.64137 -0.28819
 C267 C 0.33429 0.60794 -0.35952
 C268 C 0.39007 0.62085 -0.30852
 C269 C 0.34947 0.61201 -0.23721
 C270 C 0.29360 0.59924 -0.28782
 H271 H 0.32105 0.67249 -0.18448
 H272 H 0.39512 0.68907 -0.31734
 H273 H 0.21766 0.64974 -0.28006
 H274 H 0.34025 0.58638 -0.40596
 H275 H 0.44056 0.61234 -0.31681
 H276 H 0.26407 0.57291 -0.27874
 C277 C -0.11136 1.12160 -0.30645
 C278 C -0.16613 1.10827 -0.35859
 C279 C -0.19210 1.15021 -0.35931
 C280 C -0.13707 1.16340 -0.30699
 C281 C -0.23388 1.14116 -0.28855
 C282 C -0.20764 1.09923 -0.28773
 C283 C -0.15277 1.11244 -0.23597
 C284 C -0.17831 1.15407 -0.23524
 H285 H -0.06059 1.11349 -0.31368
 H286 H -0.15883 1.08683 -0.40499
 H287 H -0.10760 1.18983 -0.31515
 H288 H -0.28473 1.14915 -0.28146
 H289 H -0.23673 1.07268 -0.27927
 H290 H -0.18316 1.17266 -0.18377
 C291 C 0.61221 0.62082 -0.30866
 C292 C 0.63818 0.66265 -0.30926
 C293 C 0.69298 0.64961 -0.36223
 C294 C 0.66672 0.60765 -0.36150
 C295 C 0.73491 0.64053 -0.29199
 C296 C 0.67960 0.65330 -0.23803
 C297 C 0.65380 0.61164 -0.23869
 C298 C 0.70840 0.59856 -0.29113
 H299 H 0.56135 0.61265 -0.31534
 H300 H 0.60885 0.68905 -0.31696
 H301 H 0.65909 0.58634 -0.40805
 H302 H 0.78584 0.64859 -0.28544
 H303 H 0.68473 0.67182 -0.18650
 H304 H 0.73734 0.57204 -0.28311
 C305 C 0.11014 1.12124 -0.30819
 C306 C 0.13585 1.16315 -0.30905
 C307 C 0.19112 1.15009 -0.36129
 C308 C 0.16515 1.10805 -0.36026
 C309 C 0.23258 1.14133 -0.29047
 C310 C 0.17678 1.15412 -0.23724
 C311 C 0.15125 1.11239 -0.23763
 C312 C 0.20634 1.09930 -0.28933
 H313 H 0.05941 1.11292 -0.31537
 H314 H 0.10640 1.18945 -0.31739
 H315 H 0.15810 1.08652 -0.40656
 H316 H 0.28340 1.14952 -0.28343
 H317 H 0.18142 1.17283 -0.18592
 H318 H 0.23542 1.07288 -0.28068
 C319 C 0.29196 0.40088 -0.28691
 C320 C 0.33255 0.39226 -0.35861
 C321 C 0.30727 0.35013 -0.35866
 C322 C 0.26639 0.35870 -0.28706
 C323 C 0.36319 0.33742 -0.30744
 C324 C 0.38829 0.37944 -0.30761
 C325 C 0.34776 0.38812 -0.23629
 C326 C 0.32286 0.34625 -0.23493
 H327 H 0.26260 0.42715 -0.27787
 H328 H 0.33832 0.41354 -0.40575
 H329 H 0.21578 0.35020 -0.27903
 H330 H 0.39282 0.31124 -0.31628
 H331 H 0.43886 0.38801 -0.31593
 H332 H 0.31901 0.32757 -0.18334
 C333 C -0.17785 0.84639 -0.23424
 C334 C -0.23485 0.85847 -0.28586
 C335 C -0.19417 0.85034 -0.35783
 C336 C -0.13771 0.83799 -0.30711
 C337 C -0.16978 0.89267 -0.35764
 C338 C -0.21018 0.90085 -0.28558
 C339 C -0.15384 0.88846 -0.23546
 C340 C -0.11350 0.88020 -0.30715
 H341 H -0.18104 0.82757 -0.18276
 H342 H -0.28523 0.84954 -0.27748
 H343 H -0.10757 0.81206 -0.31634
 H344 H -0.16466 0.91408 -0.40467
 H345 H -0.24006 0.92687 -0.27616
 H346 H -0.06316 0.88918 -0.31580
 C347 C 0.38924 0.62012 0.30662
 C348 C 0.36449 0.66212 0.30665
 C349 C 0.30847 0.64934 0.35823
 C350 C 0.33339 0.60723 0.35796
 C351 C 0.26751 0.64076 0.28689
 C352 C 0.32408 0.65327 0.23440
 C353 C 0.34863 0.61142 0.23556
 C354 C 0.29272 0.59860 0.28652
 H355 H 0.43971 0.61157 0.31462
 H356 H 0.39433 0.68831 0.31533
 H357 H 0.33896 0.58593 0.40503
 H358 H 0.21697 0.64922 0.27918
 H359 H 0.32038 0.67196 0.18285
 H360 H 0.26315 0.57231 0.27765
 C361 C -0.11099 1.12140 0.30907
 C362 C -0.13625 1.16331 0.30965
 C363 C -0.19163 1.15026 0.36202
 C364 C -0.16611 1.10821 0.36127
 C365 C -0.23322 1.14149 0.29128
 C366 C -0.17731 1.15426 0.23793
 C367 C -0.15223 1.11252 0.23860
 C368 C -0.20744 1.09945 0.29043
 H369 H -0.06034 1.11307 0.31628
 H370 H -0.10652 1.18960 0.31778
 H371 H -0.15928 1.08669 0.40771
 H372 H -0.28396 1.14968 0.28422
 H373 H -0.18177 1.17296 0.18648
 H374 H -0.23679 1.07303 0.28200
 C375 C 0.61309 0.37942 0.30675
 C376 C 0.63786 0.33743 0.30686
 C377 C 0.69388 0.35021 0.35800
 C378 C 0.66893 0.39231 0.35766
 C379 C 0.73483 0.35881 0.28634
 C380 C 0.67827 0.34630 0.23429
 C381 C 0.65369 0.38814 0.23537
 C382 C 0.70959 0.40096 0.28591
 H383 H 0.56259 0.38795 0.31501
 H384 H 0.60803 0.31122 0.31587
 H385 H 0.66332 0.41359 0.40465
 H386 H 0.78537 0.35036 0.27836
 H387 H 0.68196 0.32761 0.18283
 H388 H 0.73916 0.42726 0.27670
 C389 C 0.11098 0.87975 0.30862
 C390 C 0.13515 0.83761 0.30818
 C391 C 0.19188 0.85002 0.35851
 C392 C 0.16757 0.89226 0.35872
 C393 C 0.23220 0.85849 0.28628
 C394 C 0.17491 0.84635 0.23505
 C395 C 0.15095 0.88834 0.23667
 C396 C 0.20758 0.90078 0.28638
 H397 H 0.06071 0.88854 0.31772
 H398 H 0.10505 0.81155 0.31752
 H399 H 0.16292 0.91354 0.40588
 H400 H 0.28253 0.84978 0.27746
 H401 H 0.17780 0.82770 0.18345
 H402 H 0.23743 0.92693 0.27685
   
