data_POSCAR
  _audit_creation_date              2014-09-24
  _audit_creation_method            'ToBaCCo'
  _symmetry_space_group_name_H-M    'P1'
  _symmetry_Int_Tables_number       1
  _symmetry_cell_setting            triclinic
  loop_
  _symmetry_equiv_pos_as_xyz
 x,y,z
_cell_length_a 59.4336
_cell_length_b 59.4279
_cell_length_c 38.5285
_cell_angle_alpha 89.805500
_cell_angle_beta 89.891300
_cell_angle_gamma 90.760400
loop_
  _atom_site_label
  _atom_site_type_symbol
  _atom_site_fract_x
  _atom_site_fract_y
  _atom_site_fract_z
O1 O -0.02577 0.28860 0.01233
 O2 O 0.01749 0.28594 -0.05655
 O3 O -0.02660 0.28355 -0.05488
 O4 O 0.01850 0.29080 0.01017
 O5 O 0.01969 0.25395 0.01672
 O6 O -0.02491 0.24675 -0.04814
 O7 O 0.01874 0.24914 -0.04980
 O8 O -0.02404 0.25178 0.01869
 Cu9 Cu -0.00432 0.29095 -0.02284
 Cu10 Cu -0.00254 0.24675 -0.01494
 C11 C -0.03241 0.27053 0.02710
 C12 C 0.02580 0.26703 -0.06460
 C13 C -0.03351 0.26385 -0.06252
 C14 C 0.02710 0.27349 0.02405
 O15 O 0.53067 0.78645 0.47704
 O16 O 0.48404 0.78639 0.54076
 O17 O 0.52811 0.78609 0.54416
 O18 O 0.48654 0.78713 0.47299
 O19 O 0.48577 0.75002 0.47269
 O20 O 0.52702 0.74897 0.54338
 O21 O 0.48342 0.74929 0.54005
 O22 O 0.52938 0.74934 0.47650
 Cu23 Cu 0.50734 0.79027 0.50876
 Cu24 Cu 0.50623 0.74572 0.50808
 C25 C 0.53820 0.76778 0.46631
 C26 C 0.47579 0.76773 0.55131
 C27 C 0.53490 0.76727 0.55558
 C28 C 0.47900 0.76868 0.46075
 O29 O 0.98223 0.71519 -0.02404
 O30 O 1.02963 0.71416 0.03789
 O31 O 0.98560 0.71412 0.04364
 O32 O 1.02631 0.71508 -0.02900
 O33 O 1.02659 0.75215 -0.02779
 O34 O 0.98636 0.75122 0.04454
 O35 O 1.02990 0.75127 0.03889
 O36 O 0.98297 0.75225 -0.02273
 Cu37 Cu 1.00577 0.71089 0.00702
 Cu38 Cu 1.00642 0.75540 0.00833
 C39 C 0.97443 0.73398 -0.03398
 C40 C 1.03811 0.73264 0.04848
 C41 C 0.97902 0.73258 0.05649
 C42 C 1.03378 0.73386 -0.04041
 O43 O 0.51769 0.21411 0.51214
 O44 O 0.47394 0.21973 0.44497
 O45 O 0.51787 0.21806 0.44489
 O46 O 0.47356 0.21669 0.51250
 O47 O 0.47620 0.25362 0.51685
 O48 O 0.51971 0.25504 0.44930
 O49 O 0.47616 0.25667 0.44961
 O50 O 0.51989 0.25108 0.51628
 Cu51 Cu 0.49551 0.21342 0.47827
 Cu52 Cu 0.49819 0.25777 0.48352
 C53 C 0.52650 0.23169 0.52536
 C54 C 0.46755 0.23919 0.43584
 C55 C 0.52639 0.23690 0.43565
 C56 C 0.46721 0.23505 0.52604
 O57 O 0.71096 0.01699 -0.00100
 O58 O 0.71615 -0.02740 0.06580
 O59 O 0.71611 0.01685 0.06633
 O60 O 0.71134 -0.02725 -0.00080
 O61 O 0.74823 -0.02624 -0.00731
 O62 O 0.75297 0.01730 0.05962
 O63 O 0.75298 -0.02648 0.05911
 O64 O 0.74785 0.01749 -0.00732
 Cu65 Cu 0.70992 -0.00516 0.03326
 Cu66 Cu 0.75416 -0.00432 0.02539
 C67 C 0.72862 0.02487 -0.01552
 C68 C 0.73549 -0.03494 0.07330
 C69 C 0.73543 0.02467 0.07432
 C70 C 0.72911 -0.03459 -0.01501
 O71 O 0.20429 0.48234 0.52074
 O72 O 0.20819 0.52833 0.45594
 O73 O 0.20629 0.48415 0.45365
 O74 O 0.20558 0.52677 0.52311
 O75 O 0.24262 0.52576 0.52575
 O76 O 0.24333 0.48333 0.45680
 O77 O 0.24521 0.52701 0.45885
 O78 O 0.24134 0.48192 0.52372
 Cu79 Cu 0.20234 0.50551 0.48815
 Cu80 Cu 0.24680 0.50442 0.49163
 C81 C 0.22227 0.47399 0.53274
 C82 C 0.22748 0.53565 0.44661
 C83 C 0.22498 0.47621 0.44375
 C84 C 0.22406 0.53389 0.53577
 O85 O 0.28117 1.02984 0.02037
 O86 O 0.28117 0.98399 -0.04427
 O87 O 0.27973 1.02784 -0.04715
 O88 O 0.28296 0.98577 0.02340
 O89 O 0.24589 0.98416 0.02557
 O90 O 0.24271 1.02596 -0.04462
 O91 O 0.24411 0.98247 -0.04174
 O92 O 0.24415 1.02778 0.02258
 Cu93 Cu 0.28499 1.00702 -0.01206
 Cu94 Cu 0.24055 1.00490 -0.00926
 C95 C 0.26256 1.03682 0.03235
 C96 C 0.26253 0.97545 -0.05413
 C97 C 0.26061 1.03415 -0.05799
 C98 C 0.26491 0.97769 0.03643
 O99 O 0.78227 0.51692 0.56426
 O100 O 0.78460 0.47221 0.49799
 O101 O 0.78520 0.51632 0.49659
 O102 O 0.78122 0.47285 0.56530
 O103 O 0.74422 0.47340 0.56131
 O104 O 0.74819 0.51615 0.49267
 O105 O 0.74758 0.47246 0.49433
 O106 O 0.74528 0.51702 0.55996
 Cu107 Cu 0.78707 0.49460 0.53143
 Cu108 Cu 0.74264 0.49481 0.52665
 C109 C 0.76332 0.52462 0.57341
 C110 C 0.76640 0.46455 0.48506
 C111 C 0.76727 0.52367 0.48290
 C112 C 0.76195 0.46561 0.57487
 C113 C 0.21706 0.22854 0.16617
 C114 C 0.23556 0.21881 0.18263
 C115 C 0.24834 0.23171 0.20605
 C116 C 0.24324 0.25447 0.21240
 C117 C 0.22475 0.26393 0.19492
 C118 C 0.21140 0.25098 0.17236
 C119 C 0.25695 0.26821 0.23735
 C120 C 0.24735 0.28648 0.25513
 C121 C 0.26011 0.29952 0.27833
 C122 C 0.28252 0.29385 0.28472
 C123 C 0.29239 0.27558 0.26795
 C124 C 0.27969 0.26309 0.24391
 H125 H 0.20695 0.21855 0.14847
 H126 H 0.26190 0.22364 0.21977
 H127 H 0.22075 0.28149 0.19819
 H128 H 0.22977 0.29041 0.25183
 H129 H 0.29231 0.30367 0.30307
 H130 H 0.28784 0.24964 0.23010
 C131 C 0.79861 0.77812 0.21895
 C132 C 0.77608 0.78380 0.22412
 C133 C 0.76230 0.76972 0.24457
 C134 C 0.77099 0.75052 0.26136
 C135 C 0.79392 0.74544 0.25606
 C136 C 0.80759 0.75883 0.23430
 C137 C 0.75607 0.73577 0.28363
 C138 C 0.76136 0.71299 0.28996
 C139 C 0.74728 0.69918 0.31045
 C140 C 0.72716 0.70785 0.32340
 C141 C 0.72128 0.73021 0.31714
 C142 C 0.73610 0.74424 0.29839
 H143 H 0.80918 0.78866 0.20250
 H144 H 0.74466 0.77368 0.24633
 H145 H 0.80150 0.73126 0.26893
 H146 H 0.77613 0.70555 0.27863
 H147 H 0.71628 0.69731 0.33937
 H148 H 0.73168 0.76169 0.29518
 C149 C 0.79126 0.21599 0.20893
 C150 C 0.79688 0.23887 0.21206
 C151 C 0.78212 0.25320 0.22957
 C152 C 0.76232 0.24468 0.24542
 C153 C 0.75741 0.22145 0.24256
 C154 C 0.77143 0.20717 0.22359
 C155 C 0.74667 0.25989 0.26445
 C156 C 0.72346 0.25470 0.26657
 C157 C 0.70873 0.26844 0.28515
 C158 C 0.71707 0.28824 0.30028
 C159 C 0.73993 0.29411 0.29799
 C160 C 0.75473 0.27964 0.28082
 H161 H 0.80200 0.20518 0.19374
 H162 H 0.78619 0.27098 0.23064
 H163 H 0.74275 0.21420 0.25521
 H164 H 0.71656 0.24006 0.25359
 H165 H 0.70587 0.29875 0.31518
 H166 H 0.77247 0.28391 0.28037
 C167 C 0.22841 0.79093 0.18947
 C168 C 0.22317 0.76809 0.19410
 C169 C 0.23714 0.75489 0.21494
 C170 C 0.25579 0.76442 0.23253
 C171 C 0.26057 0.78758 0.22754
 C172 C 0.24718 0.80075 0.20564
 C173 C 0.27008 0.75017 0.25574
 C174 C 0.29279 0.75598 0.26249
 C175 C 0.30613 0.74246 0.28396
 C176 C 0.29700 0.72247 0.29768
 C177 C 0.27465 0.71614 0.29111
 C178 C 0.26115 0.73036 0.27114
 H179 H 0.21786 0.80113 0.17296
 H180 H 0.23350 0.73706 0.21659
 H181 H 0.27440 0.79571 0.24096
 H182 H 0.30047 0.77074 0.25073
 H183 H 0.30715 0.71207 0.31450
 H184 H 0.24369 0.72564 0.26752
 C185 C 0.70658 0.27360 0.70161
 C186 C 0.70106 0.25063 0.70356
 C187 C 0.71415 0.23640 0.72426
 C188 C 0.73261 0.24502 0.74328
 C189 C 0.73743 0.26832 0.74144
 C190 C 0.72482 0.28257 0.72016
 C191 C 0.74733 0.22983 0.76403
 C192 C 0.77034 0.23519 0.76849
 C193 C 0.78433 0.22149 0.78853
 C194 C 0.77547 0.20155 0.80276
 C195 C 0.75281 0.19548 0.79803
 C196 C 0.73869 0.20991 0.77936
 H197 H 0.69679 0.28452 0.68508
 H198 H 0.71033 0.21854 0.72439
 H199 H 0.75096 0.27560 0.75661
 H200 H 0.77767 0.24992 0.75611
 H201 H 0.78606 0.19102 0.81872
 H202 H 0.72106 0.20546 0.77685
 C203 C 0.28305 0.72054 0.68731
 C204 C 0.29245 0.73955 0.70339
 C205 C 0.27885 0.75288 0.72464
 C206 C 0.25565 0.74802 0.72876
 C207 C 0.24657 0.72903 0.71154
 C208 C 0.26021 0.71504 0.69143
 C209 C 0.24094 0.76281 0.75041
 C210 C 0.22079 0.75433 0.76533
 C211 C 0.20642 0.76839 0.78406
 C212 C 0.21287 0.79080 0.78983
 C213 C 0.23315 0.79947 0.77652
 C214 C 0.24678 0.78562 0.75617
 H215 H 0.29354 0.71005 0.67122
 H216 H 0.28667 0.76683 0.73815
 H217 H 0.22876 0.72520 0.71276
 H218 H 0.21597 0.73684 0.76241
 H219 H 0.20238 0.80134 0.80587
 H220 H 0.26174 0.79299 0.74459
 C221 C 0.27597 0.28117 0.66551
 C222 C 0.25333 0.28648 0.67082
 C223 C 0.23978 0.27206 0.69109
 C224 C 0.24880 0.25297 0.70772
 C225 C 0.27182 0.24835 0.70246
 C226 C 0.28528 0.26200 0.68076
 C227 C 0.23423 0.23798 0.73019
 C228 C 0.24011 0.21538 0.73684
 C229 C 0.22667 0.20148 0.75816
 C230 C 0.20649 0.20978 0.77145
 C231 C 0.19998 0.23191 0.76482
 C232 C 0.21420 0.24609 0.74524
 H233 H 0.28638 0.29198 0.64926
 H234 H 0.22208 0.27575 0.69302
 H235 H 0.27969 0.23439 0.71547
 H236 H 0.25496 0.20820 0.72534
 H237 H 0.19615 0.19922 0.78822
 H238 H 0.20934 0.26341 0.74185
 C239 C 0.71216 0.70850 0.72882
 C240 C 0.73196 0.69984 0.74290
 C241 C 0.74545 0.71364 0.76407
 C242 C 0.73991 0.73636 0.77002
 C243 C 0.72024 0.74482 0.75440
 C244 C 0.70603 0.73083 0.73469
 C245 C 0.75443 0.75111 0.79252
 C246 C 0.74526 0.76970 0.81010
 C247 C 0.75876 0.78372 0.83088
 C248 C 0.78153 0.77866 0.83523
 C249 C 0.79101 0.76006 0.81874
 C250 C 0.77754 0.74666 0.79695
 H251 H 0.70182 0.69803 0.71210
 H252 H 0.76005 0.70633 0.77616
 H253 H 0.71571 0.76225 0.75752
 H254 H 0.72748 0.77318 0.80854
 H255 H 0.79193 0.78921 0.85174
 H256 H 0.78539 0.73301 0.78318
 C257 C 0.26049 0.09272 0.09969
 C258 C 0.24068 0.08127 0.09067
 C259 C 0.24144 0.06251 0.06906
 C260 C 0.26212 0.05483 0.05592
 C261 C 0.28208 0.06612 0.06602
 C262 C 0.28123 0.08500 0.08764
 C263 C 0.25903 0.11323 0.11926
 C264 C 0.25653 0.13074 0.13443
 C265 C 0.25206 0.15193 0.15085
 C266 C 0.22995 0.15705 0.16017
 C267 C 0.22475 0.17855 0.17196
 C268 C 0.24161 0.19527 0.17454
 C269 C 0.26398 0.18973 0.16661
 C270 C 0.26915 0.16818 0.15466
 H271 H 0.22453 0.08715 0.09975
 H272 H 0.22568 0.05432 0.06217
 H273 H 0.29833 0.06075 0.05661
 H274 H 0.29667 0.09383 0.09435
 H275 H 0.21659 0.14462 0.15725
 H276 H 0.20743 0.18228 0.17829
 H277 H 0.27725 0.20236 0.16811
 H278 H 0.28630 0.16445 0.14728
 C279 C 0.75923 0.57855 0.64704
 C280 C 0.78031 0.57087 0.63636
 C281 C 0.78174 0.55302 0.61282
 C282 C 0.76208 0.54276 0.59959
 C283 C 0.74103 0.55040 0.61098
 C284 C 0.73964 0.56815 0.63450
 C285 C 0.75737 0.59789 0.66920
 C286 C 0.75470 0.61447 0.68660
 C287 C 0.75019 0.63470 0.70569
 C288 C 0.76656 0.65178 0.70822
 C289 C 0.76098 0.67267 0.72229
 C290 C 0.73890 0.67673 0.73365
 C291 C 0.72290 0.65911 0.73256
 C292 C 0.72852 0.63825 0.71864
 H293 H 0.79558 0.57888 0.64575
 H294 H 0.79820 0.54753 0.60455
 H295 H 0.72557 0.54286 0.60140
 H296 H 0.72324 0.57403 0.64245
 H297 H 0.78334 0.64927 0.69804
 H298 H 0.77357 0.68602 0.72251
 H299 H 0.70584 0.66171 0.74146
 H300 H 0.71570 0.62518 0.71672
 C301 C 0.74207 0.90709 0.13580
 C302 C 0.76120 0.91848 0.12343
 C303 C 0.75904 0.93813 0.10387
 C304 C 0.73762 0.94675 0.09620
 C305 C 0.71847 0.93564 0.11009
 C306 C 0.72072 0.91587 0.12961
 C307 C 0.74464 0.88565 0.15270
 C308 C 0.74792 0.86748 0.16558
 C309 C 0.75321 0.84572 0.17961
 C310 C 0.76588 0.83085 0.15969
 C311 C 0.77276 0.81041 0.17381
 C312 C 0.76707 0.80456 0.20814
 C313 C 0.75374 0.81929 0.22767
 C314 C 0.74691 0.83981 0.21349
 H315 H 0.77781 0.91181 0.12807
 H316 H 0.77422 0.94616 0.09395
 H317 H 0.70170 0.94172 0.10492
 H318 H 0.70579 0.90715 0.13906
 H319 H 0.77083 0.83526 0.13342
 H320 H 0.78274 0.79926 0.15801
 H321 H 0.74928 0.81529 0.25427
 H322 H 0.73719 0.85125 0.22919
 C323 C 0.22172 0.41276 0.59178
 C324 C 0.20173 0.42041 0.57690
 C325 C 0.20150 0.44104 0.55918
 C326 C 0.22134 0.45409 0.55593
 C327 C 0.24105 0.44666 0.57226
 C328 C 0.24122 0.42616 0.59003
 C329 C 0.22309 0.39046 0.60623
 C330 C 0.22567 0.37168 0.61734
 C331 C 0.23037 0.34934 0.62966
 C332 C 0.22397 0.34257 0.66312
 C333 C 0.23072 0.32170 0.67609
 C334 C 0.24410 0.30745 0.65578
 C335 C 0.24979 0.31410 0.62179
 C336 C 0.24298 0.33491 0.60887
 H337 H 0.18657 0.41012 0.57797
 H338 H 0.18609 0.44626 0.54673
 H339 H 0.25659 0.45631 0.57033
 H340 H 0.25679 0.42038 0.60136
 H341 H 0.21433 0.35367 0.67952
 H342 H 0.22626 0.31709 0.70246
 H343 H 0.25982 0.30336 0.60541
 H344 H 0.24807 0.33999 0.58295
 C345 C 0.91309 0.27038 0.10040
 C346 C 0.91901 0.29032 0.08296
 C347 C 0.93720 0.29066 0.05976
 C348 C 0.94955 0.27100 0.05365
 C349 C 0.94374 0.25124 0.07197
 C350 C 0.92567 0.25097 0.09513
 C351 C 0.89348 0.26909 0.12234
 C352 C 0.87702 0.26640 0.14029
 C353 C 0.85747 0.26128 0.16111
 C354 C 0.83784 0.27391 0.15796
 C355 C 0.81821 0.26716 0.17554
 C356 C 0.81802 0.24757 0.19615
 C357 C 0.83802 0.23544 0.19998
 C358 C 0.85758 0.24226 0.18258
 H359 H 0.90932 0.30543 0.08676
 H360 H 0.94123 0.30611 0.04598
 H361 H 0.95291 0.23584 0.06797
 H362 H 0.92122 0.23543 0.10843
 H363 H 0.83752 0.28857 0.14118
 H364 H 0.80298 0.27669 0.17193
 H365 H 0.83840 0.22044 0.21601
 H366 H 0.87264 0.23231 0.18513
 C367 C 0.41918 0.76534 0.62074
 C368 C 0.43040 0.74562 0.61195
 C369 C 0.44909 0.74653 0.58998
 C370 C 0.45688 0.76722 0.57640
 C371 C 0.44586 0.78707 0.58605
 C372 C 0.42705 0.78611 0.60802
 C373 C 0.39874 0.76373 0.64073
 C374 C 0.38124 0.76114 0.65621
 C375 C 0.35996 0.75668 0.67293
 C376 C 0.35463 0.73474 0.68370
 C377 C 0.33293 0.72938 0.69534
 C378 C 0.31625 0.74592 0.69629
 C379 C 0.32204 0.76819 0.68706
 C380 C 0.34377 0.77351 0.67529
 H381 H 0.42440 0.72945 0.62148
 H382 H 0.45721 0.73093 0.58319
 H383 H 0.45143 0.80325 0.57600
 H384 H 0.41839 0.80147 0.61449
 H385 H 0.36700 0.72156 0.68188
 H386 H 0.32900 0.71215 0.70264
 H387 H 0.30946 0.78121 0.68722
 H388 H 0.34766 0.79051 0.66677
 C389 C 0.09919 0.73431 0.10751
 C390 C 0.09097 0.71378 0.09468
 C391 C 0.07054 0.71297 0.07661
 C392 C 0.05825 0.73274 0.07100
 C393 C 0.06636 0.75311 0.08502
 C394 C 0.08666 0.75385 0.10312
 C395 C 0.12113 0.73597 0.12309
 C396 C 0.13961 0.73877 0.13526
 C397 C 0.16163 0.74376 0.14891
 C398 C 0.17671 0.75676 0.12910
 C399 C 0.19714 0.76397 0.14335
 C400 C 0.20274 0.75830 0.17769
 C401 C 0.18788 0.74449 0.19700
 C402 C 0.16738 0.73734 0.18270
 H403 H 0.10059 0.69856 0.09783
 H404 H 0.06479 0.69705 0.06602
 H405 H 0.05730 0.76861 0.08125
 H406 H 0.09289 0.76984 0.11287
 H407 H 0.17241 0.76186 0.10294
 H408 H 0.20839 0.77434 0.12774
 H409 H 0.19169 0.74004 0.22361
 H410 H 0.15576 0.72741 0.19834
 C411 C 0.58283 0.22701 0.59449
 C412 C 0.57259 0.24773 0.58861
 C413 C 0.55386 0.24912 0.56692
 C414 C 0.54507 0.22974 0.55073
 C415 C 0.55505 0.20883 0.55758
 C416 C 0.57388 0.20750 0.57926
 C417 C 0.60336 0.22639 0.61419
 C418 C 0.62092 0.22733 0.62979
 C419 C 0.64213 0.23037 0.64724
 C420 C 0.65921 0.24282 0.63076
 C421 C 0.67884 0.24851 0.64866
 C422 C 0.68167 0.24184 0.68339
 C423 C 0.66494 0.22840 0.69934
 C424 C 0.64517 0.22279 0.68138
 H425 H 0.57942 0.26296 0.60014
 H426 H 0.54658 0.26546 0.56228
 H427 H 0.54871 0.19362 0.54544
 H428 H 0.58175 0.19139 0.58349
 H429 H 0.65703 0.24880 0.60438
 H430 H 0.69159 0.25866 0.63565
 H431 H 0.66670 0.22317 0.72615
 H432 H 0.63200 0.21324 0.69445
 C433 C 0.72528 0.07941 0.91133
 C434 C 0.70571 0.07206 0.92847
 C435 C 0.70657 0.05393 0.95179
 C436 C 0.72706 0.04308 0.95830
 C437 C 0.74649 0.05039 0.94042
 C438 C 0.74558 0.06839 0.91715
 C439 C 0.72526 0.09881 0.88888
 C440 C 0.72704 0.11515 0.87039
 C441 C 0.73139 0.13457 0.84886
 C442 C 0.71822 0.15388 0.85154
 C443 C 0.72453 0.17358 0.83369
 C444 C 0.74422 0.17414 0.81337
 C445 C 0.75679 0.15441 0.80982
 C446 C 0.75041 0.13480 0.82743
 H447 H 0.68992 0.08053 0.92423
 H448 H 0.69133 0.04872 0.96520
 H449 H 0.76252 0.04240 0.94473
 H450 H 0.76084 0.07395 0.90409
 H451 H 0.70356 0.15394 0.86828
 H452 H 0.71467 0.18861 0.83703
 H453 H 0.77189 0.15435 0.79404
 H454 H 0.76077 0.12000 0.82525
 C455 C 0.23497 0.59416 0.38190
 C456 C 0.21355 0.58761 0.39366
 C457 C 0.21085 0.56804 0.41371
 C458 C 0.22960 0.55494 0.42237
 C459 C 0.25091 0.56138 0.40953
 C460 C 0.25354 0.58082 0.38947
 C461 C 0.23852 0.61512 0.36377
 C462 C 0.24294 0.63266 0.34932
 C463 C 0.24990 0.65337 0.33283
 C464 C 0.23648 0.67254 0.33453
 C465 C 0.24430 0.69298 0.32051
 C466 C 0.26569 0.69445 0.30487
 C467 C 0.27882 0.67499 0.30282
 C468 C 0.27098 0.65463 0.31671
 H469 H 0.19906 0.59786 0.38802
 H470 H 0.19424 0.56356 0.42332
 H471 H 0.26569 0.55167 0.41562
 H472 H 0.27020 0.58575 0.38054
 H473 H 0.22020 0.67179 0.34721
 H474 H 0.23390 0.70774 0.32270
 H475 H 0.29521 0.67554 0.29048
 H476 H 0.28153 0.63993 0.31533
 C477 C 0.26044 0.92115 0.87262
 C478 C 0.28122 0.92940 0.88445
 C479 C 0.28204 0.94734 0.90794
 C480 C 0.26204 0.95710 0.91997
 C481 C 0.24130 0.94885 0.90748
 C482 C 0.24054 0.93103 0.88402
 C483 C 0.25907 0.90176 0.85042
 C484 C 0.25660 0.88513 0.83294
 C485 C 0.25210 0.86484 0.81373
 C486 C 0.26811 0.84780 0.81220
 C487 C 0.26235 0.82682 0.79813
 C488 C 0.24043 0.82264 0.78578
 C489 C 0.22484 0.84023 0.78587
 C490 C 0.23065 0.86118 0.79979
 H491 H 0.29673 0.92177 0.87594
 H492 H 0.29826 0.95331 0.91708
 H493 H 0.22560 0.95600 0.91610
 H494 H 0.22436 0.92471 0.87518
 H495 H 0.28471 0.85040 0.82318
 H496 H 0.27460 0.81350 0.79869
 H497 H 0.20792 0.83753 0.77621
 H498 H 0.21810 0.87422 0.80095
 C499 C 0.76703 0.40937 0.41332
 C500 C 0.78723 0.41710 0.42798
 C501 C 0.78719 0.43535 0.45091
 C502 C 0.76691 0.44601 0.45947
 C503 C 0.74679 0.43828 0.44415
 C504 C 0.74688 0.42012 0.42128
 C505 C 0.76645 0.39002 0.39095
 C506 C 0.76447 0.37375 0.37253
 C507 C 0.76024 0.35441 0.35099
 C508 C 0.77309 0.33493 0.35442
 C509 C 0.76710 0.31543 0.33609
 C510 C 0.74806 0.31522 0.31444
 C511 C 0.73578 0.33510 0.31030
 C512 C 0.74183 0.35453 0.32845
 H513 H 0.80292 0.40886 0.42205
 H514 H 0.80295 0.44089 0.46231
 H515 H 0.73089 0.44609 0.45011
 H516 H 0.73115 0.41427 0.41011
 H517 H 0.78728 0.33461 0.37200
 H518 H 0.77673 0.30029 0.33994
 H519 H 0.72119 0.33546 0.29349
 H520 H 0.73172 0.36947 0.32566
 C521 C 0.08053 0.26314 0.86572
 C522 C 0.07116 0.28406 0.87317
 C523 C 0.05259 0.28542 0.89548
 C524 C 0.04326 0.26581 0.91084
 C525 C 0.05256 0.24483 0.90228
 C526 C 0.07101 0.24357 0.87998
 C527 C 0.10049 0.26140 0.84478
 C528 C 0.11739 0.25850 0.82816
 C529 C 0.13759 0.25327 0.80939
 C530 C 0.15662 0.26739 0.81118
 C531 C 0.17686 0.26084 0.79580
 C532 C 0.17828 0.24000 0.77877
 C533 C 0.15890 0.22628 0.77630
 C534 C 0.13873 0.23287 0.79152
 H535 H 0.07843 0.29934 0.86225
 H536 H 0.04593 0.30186 0.90130
 H537 H 0.04592 0.22931 0.91331
 H538 H 0.07813 0.22728 0.87436
 H539 H 0.15596 0.28313 0.82522
 H540 H 0.19158 0.27164 0.79829
 H541 H 0.15945 0.21028 0.76296
 H542 H 0.12414 0.22177 0.79010
 C543 C 0.59779 0.76466 0.40365
 C544 C 0.59102 0.78535 0.41715
 C545 C 0.57110 0.78666 0.43653
 C546 C 0.55789 0.76722 0.44277
 C547 C 0.56456 0.74669 0.42819
 C548 C 0.58434 0.74545 0.40880
 C549 C 0.61908 0.76242 0.38626
 C550 C 0.63687 0.75895 0.37234
 C551 C 0.65785 0.75295 0.35638
 C552 C 0.67708 0.76663 0.35990
 C553 C 0.69775 0.75953 0.34657
 C554 C 0.69937 0.73859 0.32987
 C555 C 0.67984 0.72525 0.32588
 C556 C 0.65926 0.73237 0.33905
 H557 H 0.60136 0.80031 0.41340
 H558 H 0.56645 0.80269 0.44752
 H559 H 0.55475 0.73143 0.43241
 H560 H 0.58943 0.72934 0.39851
 H561 H 0.67620 0.78251 0.37352
 H562 H 0.71256 0.77007 0.35019
 H563 H 0.68052 0.70920 0.31268
 H564 H 0.64451 0.72163 0.33626
 C565 C 0.91790 0.73666 0.89980
 C566 C 0.92651 0.71580 0.90974
 C567 C 0.94552 0.71479 0.93110
 C568 C 0.95610 0.73471 0.94302
 C569 C 0.94748 0.75557 0.93212
 C570 C 0.92857 0.75649 0.91077
 C571 C 0.89737 0.73809 0.88021
 C572 C 0.87982 0.74041 0.86506
 C573 C 0.85849 0.74449 0.84870
 C574 C 0.84231 0.72724 0.84600
 C575 C 0.82058 0.73208 0.83443
 C576 C 0.81478 0.75428 0.82578
 C577 C 0.83144 0.77127 0.82712
 C578 C 0.85313 0.76639 0.83853
 H579 H 0.91830 0.70034 0.90152
 H580 H 0.95162 0.69842 0.93877
 H581 H 0.95508 0.77130 0.94049
 H582 H 0.92200 0.77273 0.90335
 H583 H 0.84623 0.71025 0.85404
 H584 H 0.80802 0.71872 0.83396
 H585 H 0.82750 0.78846 0.82024
 H586 H 0.86550 0.77989 0.84061
 C587 C 0.41420 0.24665 0.36183
 C588 C 0.42085 0.22512 0.37209
 C589 C 0.43854 0.22260 0.39567
 C590 C 0.44969 0.24163 0.40939
 C591 C 0.44313 0.26315 0.39835
 C592 C 0.42551 0.26562 0.37478
 C593 C 0.39487 0.24956 0.33992
 C594 C 0.37825 0.25285 0.32284
 C595 C 0.35793 0.25783 0.30426
 C596 C 0.34166 0.24099 0.29854
 C597 C 0.32065 0.24658 0.28486
 C598 C 0.31566 0.26911 0.27709
 C599 C 0.33249 0.28572 0.28141
 C600 C 0.35346 0.28010 0.29496
 H601 H 0.41210 0.21033 0.36239
 H602 H 0.44318 0.20581 0.40365
 H603 H 0.45138 0.27814 0.40833
 H604 H 0.42042 0.28236 0.36716
 H605 H 0.34489 0.22372 0.30589
 H606 H 0.30793 0.23350 0.28209
 H607 H 0.32917 0.30316 0.27527
 H608 H 0.36591 0.29327 0.29936
 C609 C 0.72765 0.90647 0.92115
 C610 C 0.74711 0.91990 0.92293
 C611 C 0.74725 0.93964 0.94245
 C612 C 0.72787 0.94627 0.96055
 C613 C 0.70805 0.93320 0.95741
 C614 C 0.70798 0.91334 0.93792
 C615 C 0.72876 0.88482 0.90465
 C616 C 0.73114 0.86653 0.89182
 C617 C 0.73568 0.84470 0.87757
 C618 C 0.74834 0.82946 0.89694
 C619 C 0.75512 0.80922 0.88219
 C620 C 0.74935 0.80394 0.84777
 C621 C 0.73587 0.81891 0.82889
 C622 C 0.72916 0.83925 0.84369
 H623 H 0.76245 0.91471 0.91016
 H624 H 0.76276 0.94933 0.94425
 H625 H 0.69290 0.93781 0.97116
 H626 H 0.69285 0.90301 0.93686
 H627 H 0.75352 0.83352 0.92316
 H628 H 0.76524 0.79788 0.89748
 H629 H 0.73135 0.81533 0.80224
 H630 H 0.71948 0.85098 0.82838
 C631 C 0.22731 0.41953 0.37537
 C632 C 0.24708 0.43121 0.38405
 C633 C 0.24621 0.45020 0.40518
 C634 C 0.22549 0.45781 0.41798
 C635 C 0.20558 0.44650 0.40802
 C636 C 0.20651 0.42739 0.38692
 C637 C 0.22887 0.39858 0.35699
 C638 C 0.23149 0.38075 0.34282
 C639 C 0.23621 0.35936 0.32727
 C640 C 0.24745 0.34311 0.34676
 C641 C 0.25446 0.32323 0.33115
 C642 C 0.25033 0.31934 0.29575
 C643 C 0.23822 0.33534 0.27663
 C644 C 0.23128 0.35531 0.29230
 H645 H 0.26328 0.42522 0.37534
 H646 H 0.26184 0.45854 0.41228
 H647 H 0.18938 0.45190 0.41755
 H648 H 0.19111 0.41840 0.38048
 H649 H 0.25137 0.34608 0.37383
 H650 H 0.26350 0.31107 0.34658
 H651 H 0.23498 0.33282 0.24925
 H652 H 0.22270 0.36784 0.27693
 C653 C 0.25575 0.08408 0.86408
 C654 C 0.23631 0.07404 0.87797
 C655 C 0.23793 0.05733 0.90337
 C656 C 0.25912 0.05035 0.91544
 C657 C 0.27863 0.06029 0.90074
 C658 C 0.27692 0.07708 0.87532
 C659 C 0.25363 0.10246 0.83992
 C660 C 0.25079 0.11831 0.82089
 C661 C 0.24612 0.13777 0.79991
 C662 C 0.22458 0.14037 0.78596
 C663 C 0.21863 0.16070 0.77041
 C664 C 0.23415 0.17874 0.76871
 C665 C 0.25616 0.17557 0.78101
 C666 C 0.26207 0.15521 0.79668
 H667 H 0.21983 0.07940 0.86957
 H668 H 0.22249 0.05013 0.91380
 H669 H 0.29524 0.05541 0.90920
 H670 H 0.29208 0.08485 0.86485
 H671 H 0.21208 0.12702 0.78842
 H672 H 0.20164 0.16262 0.76085
 H673 H 0.26837 0.18926 0.78035
 H674 H 0.27873 0.15344 0.80763
 C675 C 0.76939 0.57695 0.40733
 C676 C 0.74914 0.56565 0.41474
 C677 C 0.74861 0.54802 0.43875
 C678 C 0.76837 0.54138 0.45579
 C679 C 0.78880 0.55242 0.44755
 C680 C 0.78928 0.57018 0.42352
 C681 C 0.76908 0.59645 0.38508
 C682 C 0.76743 0.61318 0.36754
 C683 C 0.76383 0.63358 0.34819
 C684 C 0.74266 0.63740 0.33365
 C685 C 0.73766 0.65842 0.31956
 C686 C 0.75378 0.67594 0.31989
 C687 C 0.77542 0.67162 0.33282
 C688 C 0.78038 0.65056 0.34708
 H689 H 0.73363 0.57082 0.40251
 H690 H 0.73262 0.53985 0.44437
 H691 H 0.80429 0.54772 0.46026
 H692 H 0.80502 0.57891 0.41815
 H693 H 0.72969 0.62441 0.33448
 H694 H 0.72093 0.66123 0.30945
 H695 H 0.78808 0.68489 0.33368
 H696 H 0.79676 0.64785 0.35851
 C697 C 0.08700 0.73658 0.88691
 C698 C 0.07702 0.75637 0.89839
 C699 C 0.05898 0.75543 0.92157
 C700 C 0.05056 0.73457 0.93383
 C701 C 0.06024 0.71466 0.92108
 C702 C 0.07841 0.71569 0.89789
 C703 C 0.10682 0.73816 0.86549
 C704 C 0.12367 0.74101 0.84847
 C705 C 0.14384 0.74625 0.82921
 C706 C 0.14504 0.76630 0.81016
 C707 C 0.16526 0.77309 0.79466
 C708 C 0.18462 0.75992 0.79804
 C709 C 0.18312 0.73937 0.81617
 C710 C 0.16283 0.73262 0.83184
 H711 H 0.08354 0.77263 0.89004
 H712 H 0.05201 0.77115 0.93047
 H713 H 0.05425 0.69828 0.92975
 H714 H 0.08606 0.70026 0.88917
 H715 H 0.13049 0.77701 0.80808
 H716 H 0.16588 0.78885 0.78047
 H717 H 0.19783 0.72900 0.81936
 H718 H 0.16213 0.71716 0.84681
 C719 C 0.58162 0.24068 0.36383
 C720 C 0.57077 0.26024 0.37438
 C721 C 0.55242 0.25890 0.39697
 C722 C 0.54462 0.23792 0.40941
 C723 C 0.55517 0.21824 0.39784
 C724 C 0.57364 0.21964 0.37526
 C725 C 0.60199 0.24266 0.34375
 C726 C 0.61953 0.24547 0.32846
 C727 C 0.64094 0.25010 0.31228
 C728 C 0.64591 0.27189 0.30042
 C729 C 0.66774 0.27759 0.28978
 C730 C 0.68492 0.26155 0.29097
 C731 C 0.67951 0.23938 0.30122
 C732 C 0.65765 0.23372 0.31196
 H733 H 0.57688 0.27662 0.36587
 H734 H 0.54465 0.27437 0.40525
 H735 H 0.54957 0.20185 0.40700
 H736 H 0.58203 0.20439 0.36744
 H737 H 0.63314 0.28472 0.30071
 H738 H 0.67138 0.29472 0.28165
 H739 H 0.69245 0.22675 0.30276
 H740 H 0.65404 0.21686 0.32140
 C741 C 0.91041 0.25395 0.86891
 C742 C 0.92243 0.23549 0.88119
 C743 C 0.94104 0.23878 0.90274
 C744 C 0.94790 0.26063 0.91239
 C745 C 0.93610 0.27915 0.89913
 C746 C 0.91742 0.27580 0.87759
 C747 C 0.89001 0.25017 0.84962
 C748 C 0.87253 0.24627 0.83486
 C749 C 0.85125 0.24081 0.81904
 C750 C 0.84670 0.21872 0.80840
 C751 C 0.82516 0.21260 0.79706
 C752 C 0.80784 0.22852 0.79633
 C753 C 0.81281 0.25089 0.80577
 C754 C 0.83438 0.25697 0.81715
 H755 H 0.91709 0.21850 0.87478
 H756 H 0.94976 0.22416 0.91241
 H757 H 0.94094 0.29617 0.90611
 H758 H 0.90814 0.29020 0.86838
 H759 H 0.85962 0.20606 0.80986
 H760 H 0.82190 0.19532 0.78957
 H761 H 0.79978 0.26345 0.80588
 H762 H 0.83766 0.27407 0.82561
 C763 C 0.42720 0.76791 0.38316
 C764 C 0.43764 0.74794 0.39305
 C765 C 0.45483 0.74832 0.41768
 C766 C 0.46187 0.76872 0.43287
 C767 C 0.45169 0.78883 0.42212
 C768 C 0.43438 0.78840 0.39748
 C769 C 0.40808 0.76681 0.36030
 C770 C 0.39161 0.76461 0.34234
 C771 C 0.37145 0.76043 0.32259
 C772 C 0.36750 0.73896 0.30890
 C773 C 0.34661 0.73348 0.29449
 C774 C 0.32934 0.74942 0.29364
 C775 C 0.33381 0.77133 0.30570
 C776 C 0.35475 0.77677 0.32028
 H777 H 0.43214 0.73197 0.38229
 H778 H 0.46234 0.73254 0.42527
 H779 H 0.45671 0.80480 0.43336
 H780 H 0.42631 0.80394 0.39017
 H781 H 0.38027 0.72616 0.31066
 H782 H 0.34367 0.71655 0.28508
 H783 H 0.32074 0.78385 0.30565
 H784 H 0.35756 0.79339 0.33105
 C785 C 0.26685 0.92502 0.11295
 C786 C 0.28688 0.93293 0.09779
 C787 C 0.28642 0.95052 0.07351
 C788 C 0.26586 0.96027 0.06397
 C789 C 0.24592 0.95252 0.08003
 C790 C 0.24644 0.93504 0.10430
 C791 C 0.26667 0.90553 0.13525
 C792 C 0.26527 0.88866 0.15266
 C793 C 0.26204 0.86794 0.17159
 C794 C 0.27932 0.85219 0.17371
 C795 C 0.27487 0.83063 0.18706
 C796 C 0.25302 0.82459 0.19802
 C797 C 0.23612 0.84091 0.19755
 C798 C 0.24061 0.86243 0.18440
 H799 H 0.30276 0.92518 0.10411
 H800 H 0.30205 0.95609 0.06159
 H801 H 0.22983 0.95968 0.07338
 H802 H 0.23081 0.92897 0.11570
 H803 H 0.29592 0.85622 0.16361
 H804 H 0.28812 0.81829 0.18686
 H805 H 0.21920 0.83672 0.20610
 H806 H 0.22709 0.87444 0.18278
 C807 C 0.75518 0.41051 0.64650
 C808 C 0.73627 0.42259 0.63628
 C809 C 0.73860 0.44096 0.61386
 C810 C 0.75994 0.44754 0.60126
 C811 C 0.77899 0.43580 0.61263
 C812 C 0.77659 0.41731 0.63504
 C813 C 0.75212 0.39000 0.66598
 C814 C 0.74858 0.37234 0.68061
 C815 C 0.74330 0.35078 0.69583
 C816 C 0.72091 0.34524 0.70374
 C817 C 0.71501 0.32327 0.71342
 C818 C 0.73146 0.30652 0.71522
 C819 C 0.75410 0.31248 0.70891
 C820 C 0.75996 0.33448 0.69912
 H821 H 0.71960 0.41738 0.64481
 H822 H 0.72361 0.44968 0.60572
 H823 H 0.79563 0.44043 0.60335
 H824 H 0.79133 0.40796 0.64259
 H825 H 0.70786 0.35770 0.70111
 H826 H 0.69749 0.31920 0.71850
 H827 H 0.76708 0.29987 0.70973
 H828 H 0.77731 0.33853 0.69275
 C829 C 0.74251 0.08019 0.14466
 C830 C 0.72101 0.07242 0.13535
 C831 C 0.71858 0.05385 0.11331
 C832 C 0.73767 0.04297 0.10015
 C833 C 0.75915 0.05056 0.11049
 C834 C 0.76152 0.06903 0.13255
 C835 C 0.74536 0.10061 0.16427
 C836 C 0.74861 0.11815 0.17920
 C837 C 0.75342 0.13956 0.19508
 C838 C 0.73697 0.15618 0.19608
 C839 C 0.74257 0.17796 0.20705
 C840 C 0.76476 0.18340 0.21693
 C841 C 0.78093 0.16632 0.21726
 C842 C 0.77529 0.14457 0.20635
 H843 H 0.70617 0.08104 0.14440
 H844 H 0.70182 0.04844 0.10579
 H845 H 0.77419 0.04254 0.10094
 H846 H 0.77824 0.07496 0.13942
 H847 H 0.72004 0.15255 0.18713
 H848 H 0.72982 0.19080 0.20613
 H849 H 0.79809 0.16996 0.22509
 H850 H 0.78819 0.13186 0.20556
 C851 C 0.22637 0.59190 0.60148
 C852 C 0.24557 0.57890 0.59684
 C853 C 0.24455 0.55940 0.57677
 C854 C 0.22425 0.55262 0.56100
 C855 C 0.20476 0.56524 0.56707
 C856 C 0.20585 0.58484 0.58711
 C857 C 0.22846 0.61339 0.61834
 C858 C 0.23149 0.63162 0.63127
 C859 C 0.23665 0.65343 0.64548
 C860 C 0.24985 0.66859 0.62612
 C861 C 0.25688 0.68898 0.64065
 C862 C 0.25082 0.69449 0.67484
 C863 C 0.23687 0.67953 0.69374
 C864 C 0.22990 0.65906 0.67916
 H865 H 0.26156 0.58425 0.60774
 H866 H 0.25985 0.55006 0.57268
 H867 H 0.18891 0.56051 0.55517
 H868 H 0.19090 0.59485 0.59040
 H869 H 0.25517 0.66441 0.60004
 H870 H 0.26735 0.70031 0.62535
 H871 H 0.23211 0.68329 0.72022
 H872 H 0.21977 0.64739 0.69443
 C873 C 0.92838 0.73366 0.13610
 C874 C 0.93962 0.75350 0.12624
 C875 C 0.95647 0.75301 0.10098
 C876 C 0.96234 0.73261 0.08510
 C877 C 0.95141 0.71261 0.09586
 C878 C 0.93445 0.71316 0.12115
 C879 C 0.90947 0.73493 0.15938
 C880 C 0.89312 0.73723 0.17754
 C881 C 0.87304 0.74140 0.19731
 C882 C 0.86916 0.76308 0.20985
 C883 C 0.84824 0.76844 0.22390
 C884 C 0.83087 0.75217 0.22552
 C885 C 0.83531 0.73007 0.21474
 C886 C 0.85627 0.72475 0.20053
 H887 H 0.93497 0.76947 0.13747
 H888 H 0.96458 0.76869 0.09341
 H889 H 0.95553 0.69666 0.08412
 H890 H 0.92574 0.69772 0.12840
 H891 H 0.88198 0.77613 0.20736
 H892 H 0.84533 0.78553 0.23232
 H893 H 0.82216 0.71727 0.21537
 H894 H 0.85902 0.70796 0.19065
 C895 C 0.41133 0.23670 0.59674
 C896 C 0.41712 0.21641 0.58085
 C897 C 0.43581 0.21557 0.55868
 C898 C 0.44879 0.23510 0.55199
 C899 C 0.44318 0.25521 0.56893
 C900 C 0.42460 0.25598 0.59109
 C901 C 0.39086 0.23847 0.61653
 C902 C 0.37339 0.24110 0.63188
 C903 C 0.35220 0.24549 0.64853
 C904 C 0.33567 0.22856 0.65124
 C905 C 0.31414 0.23370 0.66338
 C906 C 0.30886 0.25590 0.67267
 C907 C 0.32585 0.27257 0.67121
 C908 C 0.34735 0.26739 0.65919
 H909 H 0.40687 0.20141 0.58486
 H910 H 0.43967 0.19986 0.54599
 H911 H 0.45284 0.27053 0.56445
 H912 H 0.42022 0.27180 0.60309
 H913 H 0.33918 0.21158 0.64282
 H914 H 0.30132 0.22058 0.66391
 H915 H 0.32234 0.28974 0.67858
 H916 H 0.35999 0.28064 0.65713
 C917 C 0.08693 0.27827 0.08565
 C918 C 0.07449 0.25815 0.08458
 C919 C 0.05447 0.25690 0.06577
 C920 C 0.04657 0.27582 0.04771
 C921 C 0.05866 0.29628 0.05014
 C922 C 0.07881 0.29746 0.06891
 C923 C 0.10886 0.27833 0.10141
 C924 C 0.12743 0.27685 0.11368
 C925 C 0.14961 0.27325 0.12734
 C926 C 0.16551 0.26228 0.10686
 C927 C 0.18607 0.25592 0.12107
 C928 C 0.19099 0.26043 0.15606
 C929 C 0.17537 0.27237 0.17607
 C930 C 0.15472 0.27866 0.16181
 H931 H 0.08066 0.24317 0.09734
 H932 H 0.04555 0.24092 0.06451
 H933 H 0.05306 0.31111 0.03640
 H934 H 0.08838 0.31310 0.06942
 H935 H 0.16171 0.25795 0.08018
 H936 H 0.19790 0.24697 0.10497
 H937 H 0.17866 0.27588 0.20317
 H938 H 0.14247 0.28700 0.17797
 C939 C 0.58894 0.76389 0.62902
 C940 C 0.58251 0.78477 0.61565
 C941 C 0.56439 0.78608 0.59256
 C942 C 0.55263 0.76646 0.58247
 C943 C 0.55889 0.74567 0.59681
 C944 C 0.57689 0.74442 0.61989
 C945 C 0.60859 0.76186 0.65048
 C946 C 0.62517 0.75871 0.66769
 C947 C 0.64492 0.75318 0.68733
 C948 C 0.66424 0.76693 0.68596
 C949 C 0.68406 0.76007 0.70229
 C950 C 0.68474 0.73930 0.71984
 C951 C 0.66506 0.72597 0.72189
 C952 C 0.64532 0.73287 0.70573
 H953 H 0.59178 0.79994 0.62247
 H954 H 0.56002 0.80232 0.58189
 H955 H 0.55017 0.73026 0.58966
 H956 H 0.58175 0.72817 0.63003
 H957 H 0.66416 0.78261 0.67154
 H958 H 0.69903 0.77057 0.70011
 H959 H 0.66504 0.71004 0.73563
 H960 H 0.63050 0.72207 0.70686
   
