data_POSCAR
  _audit_creation_date              2014-09-24
  _audit_creation_method            'ToBaCCo'
  _symmetry_space_group_name_H-M    'P1'
  _symmetry_Int_Tables_number       1
  _symmetry_cell_setting            triclinic
  loop_
  _symmetry_equiv_pos_as_xyz
 x,y,z
_cell_length_a 53.1763
_cell_length_b 54.2588
_cell_length_c 52.9428
_cell_angle_alpha 89.880200
_cell_angle_beta 90.036900
_cell_angle_gamma 89.822400
loop_
  _atom_site_label
  _atom_site_type_symbol
  _atom_site_fract_x
  _atom_site_fract_y
  _atom_site_fract_z
N1 N 0.15431 0.16528 0.22033
 N2 N 0.17240 0.14883 0.21888
 C3 C 0.16944 0.13217 0.23754
 C4 C 0.14831 0.13856 0.25158
 C5 C 0.13927 0.15976 0.23990
 H6 H 0.18186 0.11667 0.24062
 H7 H 0.12298 0.17054 0.24508
 Cu8 Cu 0.19808 0.15100 0.19281
 Cu9 Cu 0.15149 0.19274 0.19690
 Cu10 Cu 0.19615 0.19648 0.14943
 N11 N 0.22269 0.15306 0.16574
 N12 N 0.22185 0.17077 0.14883
 C13 C 0.24099 0.16786 0.13247
 C14 C 0.25477 0.14711 0.13946
 C15 C 0.24241 0.13825 0.16074
 H16 H 0.24454 0.18012 0.11679
 H17 H 0.24728 0.12224 0.17187
 N18 N 0.16862 0.22065 0.15335
 N19 N 0.15170 0.21917 0.17148
 C20 C 0.13563 0.23827 0.16939
 C21 C 0.14269 0.25260 0.14894
 C22 C 0.16374 0.24079 0.13923
 H23 H 0.12008 0.24162 0.18204
 H24 H 0.17469 0.24639 0.12304
 H25 H 0.16919 0.17526 0.16699
 H26 H 0.18929 0.19488 0.18771
 N27 N -0.15156 0.82897 0.22054
 N28 N -0.16891 0.84620 0.21895
 C29 C -0.16623 0.86176 0.23865
 C30 C -0.14615 0.85375 0.25337
 C31 C -0.13736 0.83290 0.24114
 H32 H -0.17818 0.87753 0.24217
 H33 H -0.12166 0.82142 0.24667
 Cu34 Cu -0.19337 0.84620 0.19132
 Cu35 Cu -0.14850 0.80245 0.19608
 Cu36 Cu -0.19225 0.80090 0.14778
 N37 N -0.21844 0.84445 0.16433
 N38 N -0.21778 0.82671 0.14750
 C39 C -0.23701 0.82960 0.13124
 C40 C -0.25076 0.85035 0.13809
 C41 C -0.23824 0.85927 0.15931
 H42 H -0.24060 0.81730 0.11565
 H43 H -0.24314 0.87526 0.17040
 N44 N -0.16501 0.77638 0.15119
 N45 N -0.14834 0.77701 0.16961
 C46 C -0.13238 0.75786 0.16701
 C47 C -0.13929 0.74439 0.14590
 C48 C -0.16010 0.75679 0.13638
 H49 H -0.11690 0.75403 0.17963
 H50 H -0.17102 0.75184 0.11996
 H51 H -0.16483 0.82096 0.16605
 H52 H -0.18618 0.80206 0.18629
 N53 N -0.15250 0.17219 -0.21660
 N54 N -0.17038 0.15554 -0.21592
 C55 C -0.16741 0.13997 -0.23544
 C56 C -0.14654 0.14717 -0.24923
 C57 C -0.13753 0.16773 -0.23661
 H58 H -0.17951 0.12447 -0.23926
 H59 H -0.12149 0.17886 -0.24172
 Cu60 Cu -0.19607 0.15593 -0.18983
 Cu61 Cu -0.15027 0.19856 -0.19163
 Cu62 Cu -0.19580 0.19908 -0.14465
 N63 N -0.22130 0.15625 -0.16326
 N64 N -0.22105 0.17322 -0.14563
 C65 C -0.24049 0.16955 -0.12985
 C66 C -0.25388 0.14907 -0.13796
 C67 C -0.24096 0.14115 -0.15930
 H68 H -0.24451 0.18114 -0.11379
 H69 H -0.24549 0.12567 -0.17122
 N70 N -0.16879 0.22370 -0.14678
 N71 N -0.15142 0.22362 -0.16458
 C72 C -0.13597 0.24295 -0.16090
 C73 C -0.14405 0.25586 -0.13981
 C74 C -0.16488 0.24302 -0.13140
 H75 H -0.12022 0.24748 -0.17291
 H76 H -0.17636 0.24734 -0.11518
 H77 H -0.16774 0.17944 -0.16296
 H78 H -0.18804 0.19964 -0.18303
 N79 N 0.14973 0.82990 -0.22170
 N80 N 0.16715 0.84702 -0.22127
 C81 C 0.16344 0.86236 -0.24107
 C82 C 0.14264 0.85422 -0.25459
 C83 C 0.13450 0.83364 -0.24157
 H84 H 0.17516 0.87801 -0.24552
 H85 H 0.11855 0.82219 -0.24608
 Cu86 Cu 0.19302 0.84683 -0.19491
 Cu87 Cu 0.14784 0.80353 -0.19704
 Cu88 Cu 0.19310 0.80238 -0.15025
 N89 N 0.21847 0.84584 -0.16816
 N90 N 0.21821 0.82833 -0.15098
 C91 C 0.23758 0.83146 -0.13503
 C92 C 0.25105 0.85213 -0.14240
 C93 C 0.23820 0.86079 -0.16362
 H94 H 0.24144 0.81936 -0.11928
 H95 H 0.24285 0.87665 -0.17504
 N96 N 0.16615 0.77771 -0.15265
 N97 N 0.14888 0.77823 -0.17052
 C98 C 0.13331 0.75897 -0.16738
 C99 C 0.14110 0.74557 -0.14651
 C100 C 0.16200 0.75807 -0.13764
 H101 H 0.11742 0.75504 -0.17941
 H102 H 0.17357 0.75307 -0.12164
 H103 H 0.16529 0.82248 -0.16806
 H104 H 0.18584 0.80288 -0.18851
 N105 N 0.16398 1.15296 0.78015
 N106 N 0.14485 1.16792 0.78360
 C107 C 0.12827 1.16492 0.76464
 C108 C 0.13754 1.14702 0.74841
 C109 C 0.16029 1.13991 0.75895
 H110 H 0.11077 1.17496 0.76294
 H111 H 0.17335 1.12636 0.75177
 Cu112 Cu 0.14341 1.18982 0.81248
 Cu113 Cu 0.19208 1.15122 0.80343
 Cu114 Cu 0.19409 1.19516 0.85055
 N115 N 0.14718 1.21718 0.83565
 N116 N 0.16682 1.21922 0.85055
 C117 C 0.16452 1.23995 0.86429
 C118 C 0.14225 1.25161 0.85756
 C119 C 0.13177 1.23653 0.83930
 H120 H 0.17829 1.24623 0.87783
 H121 H 0.11425 1.23934 0.82933
 N122 N 0.21970 1.16903 0.84696
 N123 N 0.21889 1.15242 0.82884
 C124 C 0.23863 1.13707 0.83126
 C125 C 0.25268 1.14428 0.85193
 C126 C 0.24007 1.16464 0.86146
 H127 H 0.24221 1.12149 0.81911
 H128 H 0.24532 1.17551 0.87770
 H129 H 0.17484 1.16577 0.83539
 H130 H 0.18900 1.18832 0.81268
 N131 N 0.83444 0.84402 0.78227
 N132 N 0.85204 0.82698 0.78293
 C133 C 0.86804 0.83072 0.76357
 C134 C 0.86008 0.85125 0.75001
 C135 C 0.83864 0.85914 0.76256
 H136 H 0.88425 0.81930 0.75967
 H137 H 0.82677 0.87464 0.75771
 Cu138 Cu 0.85219 0.80140 0.80891
 Cu139 Cu 0.80715 0.84531 0.80676
 Cu140 Cu 0.80597 0.79944 0.85223
 N141 N 0.85058 0.77524 0.83422
 N142 N 0.83243 0.77474 0.85103
 C143 C 0.83544 0.75495 0.86605
 C144 C 0.85664 0.74214 0.85834
 C145 C 0.86580 0.75565 0.83804
 H146 H 0.82308 0.75035 0.88153
 H147 H 0.88214 0.75141 0.82671
 N148 N 0.78075 0.82595 0.85050
 N149 N 0.78109 0.84345 0.83319
 C150 C 0.76126 0.85855 0.83691
 C151 C 0.74773 0.85012 0.85757
 C152 C 0.76075 0.82942 0.86566
 H153 H 0.75686 0.87434 0.82524
 H154 H 0.75609 0.81771 0.88148
 H155 H 0.82614 0.82775 0.83561
 H156 H 0.80710 0.80795 0.81405
 N157 N 0.16953 0.85116 1.21923
 N158 N 0.15207 0.83415 1.22061
 C159 C 0.13690 0.83911 1.24032
 C160 C 0.14528 0.86040 1.25203
 C161 C 0.16609 0.86750 1.23802
 H162 H 0.12104 0.82793 1.24577
 H163 H 0.17792 0.88335 1.24116
 Cu164 Cu 0.15086 0.80709 1.19663
 Cu165 Cu 0.19554 0.85070 1.19333
 Cu166 Cu 0.19328 0.80313 1.14972
 N167 N 0.14951 0.78082 1.17175
 N168 N 0.16610 0.77939 1.15344
 C169 C 0.16093 0.75962 1.13906
 C170 C 0.13990 0.74792 1.14885
 C171 C 0.13320 0.76201 1.16962
 H172 H 0.17172 0.75426 1.12268
 H173 H 0.11772 0.75875 1.18238
 N174 N 0.21931 0.82895 1.14915
 N175 N 0.22017 0.84703 1.16574
 C176 C 0.24010 0.86142 1.16054
 C177 C 0.25249 0.85199 1.13964
 C178 C 0.23869 0.83137 1.13296
 H179 H 0.24516 0.87762 1.17119
 H180 H 0.24259 0.81886 1.11761
 H181 H 0.17448 0.83212 1.16666
 H182 H 0.19536 0.81306 1.18732
 N183 N 0.82677 1.15899 1.22149
 N184 N 0.84491 1.17533 1.22049
 C185 C 0.85963 1.17258 1.24109
 C186 C 0.84998 1.15356 1.25574
 C187 C 0.82917 1.14544 1.24259
 H188 H 0.87601 1.18363 1.24521
 H189 H 0.81692 1.13039 1.24770
 Cu190 Cu 0.84707 1.19850 1.19224
 Cu191 Cu 0.80158 1.15569 1.19541
 Cu192 Cu 0.80321 1.19705 1.14582
 N193 N 0.84663 1.22262 1.16481
 N194 N 0.82958 1.22187 1.14685
 C195 C 0.83339 1.24067 1.13071
 C196 C 0.85395 1.25413 1.13890
 C197 C 0.86186 1.24203 1.16066
 H198 H 0.82187 1.24427 1.11429
 H199 H 0.87732 1.24712 1.17280
 N200 N 0.77803 1.17051 1.14836
 N201 N 0.77754 1.15489 1.16745
 C202 C 0.75831 1.13920 1.16434
 C203 C 0.74586 1.14515 1.14223
 C204 C 0.75896 1.16511 1.13251
 H205 H 0.75380 1.12439 1.17720
 H206 H 0.75472 1.17517 1.11539
 H207 H 0.82246 1.17065 1.16591
 H208 H 0.80237 1.19255 1.18432
 N209 N 0.47174 1.02533 0.95393
 N210 N 0.45159 1.02828 0.93961
 N211 N 0.52517 1.04232 0.96965
 N212 N 0.54477 1.05688 0.96661
 N213 N 0.52469 1.02533 0.95207
 N214 N 0.54395 1.02786 0.93658
 N215 N 0.47236 1.04215 0.97169
 N216 N 0.45273 1.05693 0.97004
 C217 C 0.43995 1.04813 0.94992
 C218 C 0.55627 1.04769 0.94583
 N219 N 0.52799 1.02495 1.04130
 N220 N 0.54843 1.02761 1.05524
 N221 N 0.47423 1.04185 1.02581
 N222 N 0.45459 1.05641 1.02913
 N223 N 0.47497 1.02468 1.04328
 N224 N 0.45584 1.02708 1.05897
 N225 N 0.52702 1.04201 1.02372
 N226 N 0.54668 1.05664 1.02510
 Mn227 Mn 0.49968 1.04235 0.99772
 C228 C 0.55985 1.04754 1.04489
 C229 C 0.44332 1.04702 1.04995
 N230 N 0.52493 0.97233 0.95183
 N231 N 0.54412 0.97012 0.93622
 N232 N 0.47259 0.95496 0.97092
 N233 N 0.45304 0.94016 0.96824
 N234 N 0.47213 0.97233 0.95362
 N235 N 0.45239 0.96988 0.93879
 N236 N 0.52567 0.95504 0.96921
 N237 N 0.54540 0.94058 0.96584
 Mn238 Mn 0.49836 0.99882 0.95256
 C239 C 0.55669 0.95018 0.94511
 C240 C 0.44062 0.94973 0.94804
 N241 N 0.47531 0.97164 1.04310
 N242 N 0.45627 0.96904 1.05884
 N243 N 0.52774 0.95466 1.02379
 N244 N 0.54732 0.93976 1.02638
 N245 N 0.52814 0.97186 1.04121
 N246 N 0.54788 0.96916 1.05604
 N247 N 0.47465 0.95461 1.02552
 N248 N 0.45512 0.93999 1.02884
 Mn249 Mn 0.50162 0.99827 1.04254
 Mn250 Mn 0.50016 0.95444 0.99736
 Cl251 Cl 0.49995 0.99842 0.99755
 C252 C 0.44387 0.94917 1.04978
 C253 C 0.55971 0.94906 1.04665
 N254 N 0.03203 0.47459 0.04820
 N255 N 0.03451 0.45522 0.06321
 N256 N 0.04874 0.52653 0.03022
 N257 N 0.06326 0.54599 0.03279
 N258 N 0.03075 0.52665 0.04718
 N259 N 0.03259 0.54629 0.06180
 N260 N 0.04997 0.47483 0.03119
 N261 N 0.06512 0.45580 0.03415
 C262 C 0.05537 0.44375 0.05424
 C263 C 0.05306 0.55815 0.05259
 N264 N 0.03396 0.52519 -0.04209
 N265 N 0.03647 0.54456 -0.05699
 N266 N 0.05193 0.47389 -0.02297
 N267 N 0.06738 0.45488 -0.02460
 N268 N 0.03518 0.47329 -0.04116
 N269 N 0.03875 0.45385 -0.05566
 N270 N 0.05068 0.52570 -0.02387
 N271 N 0.06499 0.54541 -0.02582
 Mn272 Mn 0.05060 0.50023 0.00366
 C273 C 0.05600 0.55696 -0.04664
 C274 C 0.05897 0.44257 -0.04514
 N275 N -0.02348 0.52543 0.04520
 N276 N -0.02724 0.54486 0.05971
 N277 N -0.03892 0.47274 0.02811
 N278 N -0.05348 0.45321 0.03076
 N279 N -0.02211 0.47354 0.04627
 N280 N -0.02475 0.45460 0.06170
 N281 N -0.04028 0.52467 0.02702
 N282 N -0.05588 0.54356 0.02868
 Mn283 Mn 0.00427 0.50007 0.04707
 C284 C -0.04759 0.55597 0.04921
 C285 C -0.04444 0.44209 0.05187
 N286 N -0.01880 0.47216 -0.04323
 N287 N -0.02060 0.45302 -0.05843
 N288 N -0.03825 0.52392 -0.02741
 N289 N -0.05336 0.54300 -0.03099
 N290 N -0.02005 0.52396 -0.04415
 N291 N -0.02225 0.54300 -0.05952
 N292 N -0.03693 0.47194 -0.02641
 N293 N -0.05160 0.45262 -0.02977
 Mn294 Mn 0.00758 0.49865 -0.04297
 Mn295 Mn -0.03895 0.49830 0.00032
 Cl296 Cl 0.00584 0.49931 0.00204
 C297 C -0.04117 0.44099 -0.04985
 C298 C -0.04315 0.55469 -0.05119
 N299 N 0.95388 0.03213 0.52785
 N300 N 0.93954 0.03574 0.54787
 N301 N 0.97059 0.04836 0.47426
 N302 N 0.96859 0.06323 0.45469
 N303 N 0.95222 0.03227 0.47452
 N304 N 0.93707 0.03591 0.45502
 N305 N 0.97224 0.04822 0.52725
 N306 N 0.97091 0.06320 0.54680
 C307 C 0.95039 0.05524 0.55950
 C308 C 0.94759 0.05538 0.44287
 N309 N 1.04090 0.02792 0.47149
 N310 N 1.05525 0.02997 0.45127
 N311 N 1.02614 0.04570 0.52530
 N312 N 1.02977 0.06000 0.54505
 N313 N 1.04295 0.02797 0.52463
 N314 N 1.05849 0.02970 0.54399
 N315 N 1.02428 0.04583 0.47225
 N316 N 1.02681 0.06052 0.45255
 Mn317 Mn 0.99832 0.04728 0.49980
 C318 C 1.04625 0.05045 0.43965
 C319 C 1.05007 0.04986 0.55650
 N320 N 0.94977 -0.02097 0.47484
 N321 N 0.93394 -0.02300 0.45574
 N322 N 0.96826 -0.03877 0.52766
 N323 N 0.96524 -0.05364 0.54718
 N324 N 0.95147 -0.02097 0.52804
 N325 N 0.93660 -0.02326 0.54789
 N326 N 0.96636 -0.03897 0.47447
 N327 N 0.96222 -0.05370 0.45508
 Mn328 Mn 0.95147 0.00562 0.50130
 C329 C 0.94188 -0.04354 0.44358
 C330 C 0.94540 -0.04376 0.55965
 N331 N 1.04066 -0.02478 0.52481
 N332 N 1.05627 -0.02737 0.54396
 N333 N 1.02051 -0.04146 0.47264
 N334 N 1.02218 -0.05669 0.45330
 N335 N 1.03858 -0.02505 0.47180
 N336 N 1.05305 -0.02868 0.45192
 N337 N 1.02259 -0.04117 0.52595
 N338 N 1.02555 -0.05548 0.54601
 Mn339 Mn 1.04106 0.00149 0.49813
 Mn340 Mn 0.99441 -0.04045 0.50022
 Cl341 Cl 0.99628 0.00345 0.49986
 C342 C 1.04675 -0.04663 0.55701
 C343 C 1.04261 -0.04850 0.44054
 C344 C 1.14957 0.10486 0.28267
 C345 C 1.13964 0.09307 0.30393
 C346 C 1.11813 0.10234 0.31594
 C347 C 1.10698 0.12401 0.30653
 C348 C 1.11683 0.13580 0.28530
 C349 C 1.13831 0.12645 0.27294
 C350 C 1.10854 0.08961 0.33877
 C351 C 1.08465 0.09151 0.34669
 C352 C 1.07519 0.08017 0.37029
 C353 C 1.05387 0.09054 0.38176
 C354 C 1.04447 0.08086 0.40428
 C355 C 1.05608 0.06041 0.41569
 C356 C 1.07706 0.04960 0.40398
 C357 C 1.08654 0.05934 0.38146
 H358 H 1.16611 0.09687 0.27407
 H359 H 1.14876 0.07655 0.31098
 H360 H 1.09097 0.13237 0.31577
 H361 H 1.10752 0.15242 0.27896
 H362 H 1.12183 0.07846 0.34928
 H363 H 1.07139 0.10252 0.33600
 H364 H 1.04464 0.10642 0.37342
 H365 H 1.02813 0.08943 0.41278
 H366 H 1.08617 0.03362 0.41223
 H367 H 1.10248 0.05029 0.37279
 C368 C 0.88093 -0.14866 0.29216
 C369 C 0.89080 -0.13846 0.31421
 C370 C 0.88410 -0.11458 0.32183
 C371 C 0.86676 -0.10122 0.30695
 C372 C 0.85682 -0.11149 0.28482
 C373 C 0.86391 -0.13529 0.27705
 C374 C 0.89548 -0.10488 0.34550
 C375 C 0.89522 -0.08110 0.35251
 C376 C 0.90743 -0.07209 0.37601
 C377 C 0.89856 -0.05025 0.38710
 C378 C 0.90966 -0.04104 0.40910
 C379 C 0.93008 -0.05335 0.42035
 C380 C 0.93928 -0.07497 0.40908
 C381 C 0.92814 -0.08423 0.38712
 H382 H 0.88663 -0.16715 0.28715
 H383 H 0.90390 -0.14931 0.32533
 H384 H 0.86052 -0.08300 0.31230
 H385 H 0.84372 -0.10066 0.27374
 H386 H 0.90480 -0.11821 0.35753
 H387 H 0.88553 -0.06756 0.34107
 H388 H 0.88285 -0.04037 0.37881
 H389 H 0.90227 -0.02422 0.41726
 H390 H 0.95519 -0.08469 0.41715
 H391 H 0.93619 -0.10059 0.37870
 C392 C 0.84955 0.11752 0.71462
 C393 C 0.85893 0.10652 0.69273
 C394 C 0.88259 0.11302 0.68316
 C395 C 0.89657 0.13121 0.69584
 C396 C 0.88716 0.14226 0.71777
 C397 C 0.86356 0.13550 0.72749
 C398 C 0.89139 0.10089 0.65963
 C399 C 0.91549 0.10020 0.65214
 C400 C 0.92387 0.08817 0.62843
 C401 C 0.94621 0.09626 0.61707
 C402 C 0.95478 0.08558 0.59467
 C403 C 0.94130 0.06635 0.58328
 C404 C 0.91922 0.05784 0.59486
 C405 C 0.91058 0.06860 0.61724
 H406 H 0.83118 0.11198 0.72121
 H407 H 0.84763 0.09276 0.68325
 H408 H 0.91455 0.13739 0.68879
 H409 H 0.89848 0.15606 0.72707
 H410 H 0.87720 0.09203 0.64818
 H411 H 0.92980 0.10917 0.66330
 H412 H 0.95694 0.11110 0.62543
 H413 H 0.97199 0.09239 0.58629
 H414 H 0.90863 0.04285 0.58663
 H415 H 0.89378 0.06121 0.62585
 C416 C 1.11419 -0.14935 0.70785
 C417 C 1.10287 -0.13959 0.68625
 C418 C 1.10816 -0.11552 0.67826
 C419 C 1.12566 -0.10154 0.69215
 C420 C 1.13707 -0.11137 0.71384
 C421 C 1.13128 -0.13532 0.72207
 C422 C 1.09538 -0.10629 0.65512
 C423 C 1.09358 -0.08242 0.64872
 C424 C 1.08089 -0.07380 0.62535
 C425 C 1.08895 -0.05171 0.61429
 C426 C 1.07780 -0.04300 0.59211
 C427 C 1.05803 -0.05601 0.58069
 C428 C 1.04943 -0.07780 0.59205
 C429 C 1.06076 -0.08666 0.61418
 H430 H 1.10955 -0.16803 0.71320
 H431 H 1.08975 -0.15092 0.67580
 H432 H 1.13094 -0.08318 0.68632
 H433 H 1.15022 -0.10009 0.72425
 H434 H 1.08687 -0.11996 0.64298
 H435 H 1.10226 -0.06852 0.66041
 H436 H 1.10419 -0.04131 0.62264
 H437 H 1.08468 -0.02599 0.58393
 H438 H 1.03405 -0.08804 0.58377
 H439 H 1.05346 -0.10333 0.62264
 C440 C 0.28683 1.14841 1.10606
 C441 C 0.30841 1.13873 1.09466
 C442 C 0.32019 1.11762 1.10445
 C443 C 0.31016 1.10660 1.12626
 C444 C 0.28859 1.11622 1.13767
 C445 C 0.27649 1.13731 1.12779
 C446 C 0.34332 1.10832 1.09195
 C447 C 0.35176 1.08508 1.09431
 C448 C 0.37522 1.07588 1.08240
 C449 C 0.38697 1.05499 1.09279
 C450 C 0.40913 1.04564 1.08231
 C451 C 0.41990 1.05690 1.06104
 C452 C 0.40798 1.07755 1.05031
 C453 C 0.38583 1.08693 1.06081
 H454 H 0.27846 1.16464 1.09764
 H455 H 0.31588 1.14775 1.07801
 H456 H 0.31911 1.09085 1.13503
 H457 H 0.28176 1.10704 1.15443
 H458 H 0.35354 1.12129 1.08034
 H459 H 0.34149 1.07210 1.10586
 H460 H 0.37908 1.04597 1.10925
 H461 H 0.41781 1.02958 1.09087
 H462 H 0.41571 1.08640 1.03370
 H463 H 0.37695 1.10252 1.05165
 C464 C 0.28377 0.85010 0.89036
 C465 C 0.30548 0.85939 0.90166
 C466 C 0.31698 0.88075 0.89239
 C467 C 0.30644 0.89249 0.87112
 C468 C 0.28470 0.88316 0.85968
 C469 C 0.27293 0.86178 0.86911
 C470 C 0.34033 0.88948 0.90491
 C471 C 0.34857 0.91280 0.90366
 C472 C 0.37215 0.92151 0.91574
 C473 C 0.38317 0.94316 0.90648
 C474 C 0.40537 0.95220 0.91701
 C475 C 0.41701 0.93991 0.93728
 C476 C 0.40585 0.91847 0.94697
 C477 C 0.38360 0.90934 0.93635
 H478 H 0.27577 0.83362 0.89847
 H479 H 0.31329 0.84985 0.91788
 H480 H 0.31514 0.90857 0.86282
 H481 H 0.27736 0.89280 0.84336
 H482 H 0.35082 0.87600 0.91573
 H483 H 0.33797 0.92624 0.89288
 H484 H 0.37470 0.95304 0.89082
 H485 H 0.41341 0.96888 0.90922
 H486 H 0.41428 0.90878 0.96276
 H487 H 0.37533 0.89305 0.94464
 C488 C 0.71698 0.84832 1.10483
 C489 C 0.69535 0.85766 1.09319
 C490 C 0.68357 0.87901 1.10226
 C491 C 0.69374 0.89065 1.12368
 C492 C 0.71539 0.88131 1.13541
 C493 C 0.72744 0.85995 1.12620
 C494 C 0.66031 0.88785 1.08946
 C495 C 0.65185 0.91115 1.09085
 C496 C 0.62823 0.92007 1.07880
 C497 C 0.61730 0.94181 1.08804
 C498 C 0.59510 0.95110 1.07757
 C499 C 0.58334 0.93898 1.05736
 C500 C 0.59439 0.91742 1.04771
 C501 C 0.61664 0.90804 1.05828
 H502 H 0.72525 0.83186 1.09689
 H503 H 0.68783 0.84817 1.07687
 H504 H 0.68483 0.90668 1.13189
 H505 H 0.72238 0.89091 1.15183
 H506 H 0.65005 0.87449 1.07841
 H507 H 0.66229 0.92447 1.10177
 H508 H 0.62586 0.95159 1.10365
 H509 H 0.58715 0.96784 1.08534
 H510 H 0.58585 0.90784 1.03198
 H511 H 0.62478 0.89165 1.05003
 C512 C 0.71320 1.14934 0.89455
 C513 C 0.69139 1.13937 0.90507
 C514 C 0.68003 1.11856 0.89444
 C515 C 0.69077 1.10807 0.87269
 C516 C 0.71258 1.11802 0.86211
 C517 C 0.72421 1.13886 0.87284
 C518 C 0.65663 1.10903 0.90609
 C519 C 0.64831 1.08589 0.90309
 C520 C 0.62473 1.07658 0.91456
 C521 C 0.61293 1.05614 0.90355
 C522 C 0.59064 1.04677 0.91364
 C523 C 0.57980 1.05758 0.93512
 C524 C 0.59179 1.07773 0.94647
 C525 C 0.61407 1.08711 0.93638
 H526 H 0.72117 1.16534 0.90362
 H527 H 0.68340 1.14794 0.92171
 H528 H 0.68219 1.09252 0.86335
 H529 H 0.72000 1.10930 0.84536
 H530 H 0.64610 1.12176 0.91772
 H531 H 0.65877 1.07314 0.89142
 H532 H 0.62087 1.04752 0.88691
 H533 H 0.58191 1.03108 0.90463
 H534 H 0.58402 1.08619 0.96327
 H535 H 0.62301 1.10227 0.94605
 C536 C 0.10741 0.28355 0.14991
 C537 C 0.09604 0.30528 0.14141
 C538 C 0.10726 0.31946 0.12238
 C539 C 0.13050 0.31173 0.11237
 C540 C 0.14190 0.29002 0.12090
 C541 C 0.13049 0.27560 0.13975
 C542 C 0.09468 0.34253 0.11410
 C543 C 0.09795 0.35231 0.09106
 C544 C 0.08633 0.37576 0.08247
 C545 C 0.09702 0.38772 0.06158
 C546 C 0.08698 0.40982 0.05259
 C547 C 0.06584 0.42044 0.06418
 C548 C 0.05482 0.40843 0.08489
 C549 C 0.06492 0.38625 0.09396
 H550 H 0.09793 0.27302 0.16439
 H551 H 0.07827 0.31094 0.14959
 H552 H 0.14027 0.32262 0.09836
 H553 H 0.15984 0.28482 0.11288
 H554 H 0.08224 0.35134 0.12748
 H555 H 0.11017 0.34306 0.07775
 H556 H 0.11337 0.38000 0.05225
 H557 H 0.09579 0.41857 0.03647
 H558 H 0.03833 0.41609 0.09398
 H559 H 0.05561 0.37731 0.10962
 C560 C -0.14660 0.29200 -0.11039
 C561 C -0.13647 0.31332 -0.09978
 C562 C -0.11263 0.32176 -0.10699
 C563 C -0.09925 0.30856 -0.12555
 C564 C -0.10942 0.28720 -0.13621
 C565 C -0.13318 0.27859 -0.12868
 C566 C -0.10300 0.34464 -0.09513
 C567 C -0.07871 0.35130 -0.09497
 C568 C -0.06959 0.37426 -0.08290
 C569 C -0.04727 0.38492 -0.09180
 C570 C -0.03806 0.40661 -0.08108
 C571 C -0.05086 0.41794 -0.06099
 C572 C -0.07289 0.40704 -0.05167
 C573 C -0.08216 0.38538 -0.06245
 H574 H -0.16508 0.28627 -0.10430
 H575 H -0.14732 0.32321 -0.08575
 H576 H -0.08115 0.31473 -0.13228
 H577 H -0.09855 0.27744 -0.15028
 H578 H -0.11673 0.35631 -0.08590
 H579 H -0.06483 0.33998 -0.10436
 H580 H -0.03708 0.37659 -0.10732
 H581 H -0.02091 0.41450 -0.08853
 H582 H -0.08296 0.41522 -0.03600
 H583 H -0.09890 0.37727 -0.05441
 C584 C 0.11135 0.70990 -0.15001
 C585 C 0.10073 0.68833 -0.14040
 C586 C 0.10804 0.67912 -0.11674
 C587 C 0.12664 0.69176 -0.10302
 C588 C 0.13727 0.71335 -0.11263
 C589 C 0.12973 0.72272 -0.13623
 C590 C 0.09647 0.65594 -0.10760
 C591 C 0.09598 0.64917 -0.08324
 C592 C 0.08512 0.62560 -0.07438
 C593 C 0.09424 0.61531 -0.05184
 C594 C 0.08481 0.59296 -0.04289
 C595 C 0.06581 0.58060 -0.05619
 C596 C 0.05621 0.59111 -0.07845
 C597 C 0.06574 0.61344 -0.08748
 H598 H 0.10524 0.71627 -0.16838
 H599 H 0.08667 0.67882 -0.15150
 H600 H 0.13350 0.68492 -0.08510
 H601 H 0.15139 0.72261 -0.10146
 H602 H 0.08803 0.64414 -0.12169
 H603 H 0.10444 0.66082 -0.06906
 H604 H 0.10895 0.62444 -0.04127
 H605 H 0.09239 0.58539 -0.02553
 H606 H 0.04133 0.58210 -0.08887
 H607 H 0.05759 0.62122 -0.10444
 C608 C -0.10718 0.71033 0.14899
 C609 C -0.09599 0.68881 0.13979
 C610 C -0.10436 0.67802 0.11726
 C611 C -0.12457 0.68911 0.10426
 C612 C -0.13577 0.71065 0.11348
 C613 C -0.12723 0.72159 0.13596
 C614 C -0.09205 0.65491 0.10860
 C615 C -0.09310 0.64654 0.08477
 C616 C -0.08100 0.62327 0.07634
 C617 C -0.09027 0.61168 0.05458
 C618 C -0.07949 0.58978 0.04583
 C619 C -0.05899 0.57910 0.05856
 C620 C -0.04938 0.59083 0.08011
 C621 C -0.06021 0.61273 0.08890
 H622 H -0.10007 0.71795 0.16643
 H623 H -0.08063 0.68058 0.15032
 H624 H -0.13222 0.68107 0.08727
 H625 H -0.15122 0.71857 0.10291
 H626 H -0.08161 0.64459 0.12264
 H627 H -0.10359 0.65674 0.07069
 H628 H -0.10608 0.61950 0.04439
 H629 H -0.08719 0.58125 0.02906
 H630 H -0.03340 0.58316 0.09011
 H631 H -0.05189 0.62147 0.10521
 C632 C 1.10432 0.14867 0.71468
 C633 C 1.09339 0.13949 0.69262
 C634 C 1.10353 0.11872 0.68057
 C635 C 1.12524 0.10762 0.69069
 C636 C 1.13615 0.11677 0.71270
 C637 C 1.12582 0.13738 0.72503
 C638 C 1.09148 0.10973 0.65714
 C639 C 1.09356 0.08642 0.64897
 C640 C 1.08192 0.07746 0.62533
 C641 C 1.09219 0.05654 0.61360
 C642 C 1.08191 0.04753 0.59117
 C643 C 1.06102 0.05921 0.58017
 C644 C 1.05040 0.07983 0.59211
 C645 C 1.06066 0.08883 0.61452
 H646 H 1.09594 0.16470 0.72343
 H647 H 1.07685 0.14855 0.68503
 H648 H 1.13422 0.09214 0.68150
 H649 H 1.15272 0.10757 0.71994
 H650 H 1.08040 0.12292 0.64654
 H651 H 1.10461 0.07324 0.65964
 H652 H 1.10839 0.04728 0.62170
 H653 H 1.09032 0.03146 0.58245
 H654 H 1.03404 0.08896 0.58421
 H655 H 1.05156 0.10439 0.62342
 C656 C 0.89251 -0.14899 0.71535
 C657 C 0.90321 -0.13875 0.69361
 C658 C 0.89355 -0.11694 0.68305
 C659 C 0.87260 -0.10575 0.69458
 C660 C 0.86190 -0.11598 0.71631
 C661 C 0.87169 -0.13775 0.72702
 C662 C 0.90529 -0.10712 0.65964
 C663 C 0.90292 -0.08367 0.65175
 C664 C 0.91432 -0.07399 0.62812
 C665 C 0.90419 -0.05246 0.61732
 C666 C 0.91424 -0.04263 0.59509
 C667 C 0.93481 -0.05403 0.58324
 C668 C 0.94527 -0.07532 0.59420
 C669 C 0.93522 -0.08518 0.61643
 H670 H 0.90058 -0.16581 0.72281
 H671 H 0.91918 -0.14792 0.68503
 H672 H 0.86396 -0.08939 0.68670
 H673 H 0.84584 -0.10676 0.72454
 H674 H 0.91639 -0.11995 0.64868
 H675 H 0.89182 -0.07083 0.66269
 H676 H 0.88827 -0.04332 0.62602
 H677 H 0.90589 -0.02611 0.58717
 H678 H 0.96133 -0.08434 0.58564
 H679 H 0.94421 -0.10126 0.62450
 C680 C 1.14624 -0.10666 0.28540
 C681 C 1.13621 -0.09534 0.30686
 C682 C 1.11411 -0.10422 0.31805
 C683 C 1.10241 -0.12503 0.30750
 C684 C 1.11244 -0.13636 0.28606
 C685 C 1.13449 -0.12734 0.27469
 C686 C 1.10453 -0.09183 0.34110
 C687 C 1.08066 -0.09346 0.34919
 C688 C 1.07133 -0.08138 0.37251
 C689 C 1.04979 -0.09091 0.38429
 C690 C 1.04041 -0.08025 0.40639
 C691 C 1.05229 -0.05968 0.41705
 C692 C 1.07353 -0.04979 0.40503
 C693 C 1.08292 -0.06045 0.38294
 H694 H 1.16330 -0.09918 0.27741
 H695 H 1.14575 -0.07948 0.31471
 H696 H 1.08584 -0.13305 0.31595
 H697 H 1.10285 -0.15229 0.27858
 H698 H 1.11788 -0.08089 0.35161
 H699 H 1.06728 -0.10443 0.33876
 H700 H 1.04033 -0.10685 0.37652
 H701 H 1.02389 -0.08815 0.41516
 H702 H 1.08288 -0.03373 0.41265
 H703 H 1.09898 -0.05193 0.37400
 C704 C 0.84406 0.12866 0.29509
 C705 C 0.85335 0.11761 0.31700
 C706 C 0.87854 0.12060 0.32408
 C707 C 0.89410 0.13580 0.30921
 C708 C 0.88475 0.14696 0.28724
 C709 C 0.85973 0.14318 0.27974
 C710 C 0.88748 0.10780 0.34720
 C711 C 0.91170 0.10266 0.35186
 C712 C 0.92027 0.08986 0.37504
 C713 C 0.94437 0.09502 0.38427
 C714 C 0.95313 0.08371 0.40627
 C715 C 0.93811 0.06664 0.41931
 C716 C 0.91425 0.06084 0.40974
 C717 C 0.90534 0.07239 0.38780
 H718 H 0.82453 0.12575 0.29025
 H719 H 0.84085 0.10634 0.32828
 H720 H 0.91340 0.13934 0.31445
 H721 H 0.89726 0.15816 0.27594
 H722 H 0.87332 0.10198 0.36061
 H723 H 0.92607 0.10851 0.33872
 H724 H 0.95632 0.10816 0.37464
 H725 H 0.97174 0.08836 0.41306
 H726 H 0.90242 0.04757 0.41931
 H727 H 0.88698 0.06735 0.38072
 C728 C 0.11212 0.28717 -0.14518
 C729 C 0.10241 0.30934 -0.13598
 C730 C 0.11214 0.31996 -0.11394
 C731 C 0.13227 0.30818 -0.10151
 C732 C 0.14204 0.28601 -0.11075
 C733 C 0.13200 0.27518 -0.13264
 C734 C 0.10112 0.34353 -0.10507
 C735 C 0.10263 0.35153 -0.08116
 C736 C 0.09110 0.37493 -0.07248
 C737 C 0.10099 0.38648 -0.05097
 C738 C 0.09063 0.40852 -0.04211
 C739 C 0.06999 0.41933 -0.05449
 C740 C 0.05977 0.40761 -0.07573
 C741 C 0.07013 0.38559 -0.08461
 H742 H 0.10409 0.27965 -0.16226
 H743 H 0.08709 0.31815 -0.14607
 H744 H 0.14089 0.31611 -0.08492
 H745 H 0.15738 0.27737 -0.10061
 H746 H 0.09099 0.35437 -0.11893
 H747 H 0.11286 0.34086 -0.06725
 H748 H 0.11693 0.37851 -0.04111
 H749 H 0.09875 0.41707 -0.02555
 H750 H 0.04364 0.41537 -0.08543
 H751 H 0.06130 0.37682 -0.10064
 C752 C -0.14724 0.28809 0.10646
 C753 C -0.13736 0.30947 0.09561
 C754 C -0.11522 0.32005 0.10500
 C755 C -0.10330 0.30886 0.12586
 C756 C -0.11320 0.28745 0.13674
 C757 C -0.13531 0.27676 0.12720
 C758 C -0.10589 0.34308 0.09301
 C759 C -0.08224 0.35142 0.09530
 C760 C -0.07320 0.37468 0.08363
 C761 C -0.05209 0.38626 0.09414
 C762 C -0.04283 0.40817 0.08387
 C763 C -0.05436 0.41890 0.06264
 C764 C -0.07522 0.40717 0.05177
 C765 C -0.08455 0.38526 0.06210
 H766 H -0.16437 0.28067 0.09858
 H767 H -0.14708 0.31776 0.07972
 H768 H -0.08665 0.31672 0.13428
 H769 H -0.10348 0.27943 0.15272
 H770 H -0.11926 0.35341 0.08176
 H771 H -0.06881 0.34123 0.10659
 H772 H -0.04282 0.37842 0.11054
 H773 H -0.02660 0.41668 0.09255
 H774 H -0.08430 0.41489 0.03521
 H775 H -0.10031 0.37654 0.05286
 C776 C -0.14712 0.70553 -0.11282
 C777 C -0.13749 0.68392 -0.10215
 C778 C -0.11350 0.67526 -0.10872
 C779 C -0.09948 0.68855 -0.12672
 C780 C -0.10914 0.71021 -0.13742
 C781 C -0.13305 0.71904 -0.13053
 C782 C -0.10437 0.65208 -0.09681
 C783 C -0.08013 0.64515 -0.09605
 C784 C -0.07137 0.62187 -0.08416
 C785 C -0.04876 0.61136 -0.09258
 C786 C -0.03971 0.58949 -0.08193
 C787 C -0.05296 0.57778 -0.06238
 C788 C -0.07536 0.58846 -0.05356
 C789 C -0.08450 0.61031 -0.06431
 H790 H -0.16573 0.71143 -0.10721
 H791 H -0.14884 0.67396 -0.08857
 H792 H -0.08124 0.68223 -0.13299
 H793 H -0.09777 0.72002 -0.15104
 H794 H -0.11841 0.64043 -0.08811
 H795 H -0.06595 0.65650 -0.10487
 H796 H -0.03815 0.62000 -0.10763
 H797 H -0.02226 0.58180 -0.08899
 H798 H -0.08579 0.57997 -0.03830
 H799 H -0.10154 0.61826 -0.05666
 C800 C 0.10485 0.71686 0.15014
 C801 C 0.09329 0.69543 0.14128
 C802 C 0.10385 0.68201 0.12131
 C803 C 0.12661 0.69018 0.11069
 C804 C 0.13819 0.71157 0.11955
 C805 C 0.12745 0.72524 0.13936
 C806 C 0.09121 0.65915 0.11275
 C807 C 0.09391 0.65001 0.08938
 C808 C 0.08260 0.62657 0.08063
 C809 C 0.09304 0.61519 0.05929
 C810 C 0.08341 0.59300 0.05028
 C811 C 0.06292 0.58172 0.06231
 C812 C 0.05207 0.59322 0.08341
 C813 C 0.06177 0.61547 0.09251
 H814 H 0.09593 0.72677 0.16540
 H815 H 0.07591 0.68941 0.14997
 H816 H 0.13592 0.67988 0.09593
 H817 H 0.15573 0.71711 0.11098
 H818 H 0.07933 0.64984 0.12629
 H819 H 0.10556 0.65974 0.07592
 H820 H 0.10892 0.62339 0.04964
 H821 H 0.09206 0.58467 0.03385
 H822 H 0.03607 0.58503 0.09286
 H823 H 0.05265 0.62395 0.10853
 C824 C 0.28881 1.11488 0.84715
 C825 C 0.31027 1.10319 0.85656
 C826 C 0.31917 1.10849 0.88087
 C827 C 0.30648 1.12633 0.89540
 C828 C 0.28499 1.13804 0.88597
 C829 C 0.27579 1.13233 0.86181
 C830 C 0.34204 1.09554 0.88991
 C831 C 0.34804 1.09308 0.91437
 C832 C 0.37132 1.08075 0.92309
 C833 C 0.38196 1.08825 0.94603
 C834 C 0.40424 1.07756 0.95472
 C835 C 0.41613 1.05887 0.94079
 C836 C 0.40514 1.05078 0.91819
 C837 C 0.38291 1.06162 0.90937
 H838 H 0.28261 1.11026 0.82830
 H839 H 0.31988 1.08980 0.84484
 H840 H 0.31318 1.13165 0.91387
 H841 H 0.27554 1.15144 0.89775
 H842 H 0.35423 1.08763 0.87569
 H843 H 0.33606 1.10100 0.92874
 H844 H 0.37324 1.10273 0.95706
 H845 H 0.41217 1.08399 0.97236
 H846 H 0.41380 1.03620 0.90726
 H847 H 0.37475 1.05477 0.89204
 C848 C 0.28407 0.85193 1.10425
 C849 C 0.30586 0.86099 1.09279
 C850 C 0.31960 0.88013 1.10394
 C851 C 0.31133 0.88972 1.12718
 C852 C 0.28956 0.88065 1.13866
 C853 C 0.27559 0.86168 1.12734
 C854 C 0.34281 0.88890 1.09125
 C855 C 0.35251 0.91145 1.09482
 C856 C 0.37596 0.92041 1.08269
 C857 C 0.38805 0.94093 1.09325
 C858 C 0.41013 0.95020 1.08261
 C859 C 0.42056 0.93923 1.06102
 C860 C 0.40839 0.91890 1.05018
 C861 C 0.38627 0.90960 1.06082
 H862 H 0.27390 0.83737 1.09485
 H863 H 0.31192 0.85311 1.07501
 H864 H 0.32184 0.90383 1.13694
 H865 H 0.28398 0.88839 1.15662
 H866 H 0.35184 0.87621 1.07839
 H867 H 0.34316 0.92409 1.10753
 H868 H 0.38047 0.94976 1.10994
 H869 H 0.41901 0.96600 1.09130
 H870 H 0.41587 0.91026 1.03335
 H871 H 0.37724 0.89428 1.05153
 C872 C 0.70930 1.11648 1.14688
 C873 C 0.68827 1.10450 1.13716
 C874 C 0.68074 1.10831 1.11209
 C875 C 0.69451 1.12489 1.09698
 C876 C 0.71561 1.13692 1.10674
 C877 C 0.72334 1.13275 1.13177
 C878 C 0.65805 1.09523 1.10300
 C879 C 0.65233 1.09208 1.07857
 C880 C 0.62904 1.07970 1.07019
 C881 C 0.61810 1.08705 1.04730
 C882 C 0.59566 1.07648 1.03910
 C883 C 0.58391 1.05803 1.05348
 C884 C 0.59525 1.05000 1.07598
 C885 C 0.61764 1.06075 1.08432
 H886 H 0.71431 1.11306 1.16637
 H887 H 0.67787 1.09210 1.14931
 H888 H 0.68897 1.12902 1.07779
 H889 H 0.72590 1.14938 1.09459
 H890 H 0.64556 1.08787 1.11726
 H891 H 0.66437 1.09957 1.06402
 H892 H 0.62668 1.10139 1.03596
 H893 H 0.58748 1.08284 1.02151
 H894 H 0.58672 1.03559 1.08724
 H895 H 0.62604 1.05403 1.10163
 C896 C 0.71087 0.84761 0.88711
 C897 C 0.68888 0.85740 0.89746
 C898 C 0.67977 0.88049 0.88970
 C899 C 0.69301 0.89346 0.87089
 C900 C 0.71506 0.88365 0.86051
 C901 C 0.72432 0.86062 0.86853
 C902 C 0.65616 0.88981 0.90128
 C903 C 0.64877 0.91347 0.90069
 C904 C 0.62512 0.92231 0.91247
 C905 C 0.61373 0.94375 0.90291
 C906 C 0.59144 0.95274 0.91344
 C907 C 0.58022 0.94059 0.93397
 C908 C 0.59180 0.91941 0.94390
 C909 C 0.61406 0.91035 0.93331
 H910 H 0.71711 0.82972 0.89363
 H911 H 0.67897 0.84689 0.91172
 H912 H 0.68636 0.91097 0.86374
 H913 H 0.72478 0.89421 0.84622
 H914 H 0.64458 0.87639 0.91090
 H915 H 0.65999 0.92704 0.89090
 H916 H 0.62200 0.95346 0.88707
 H917 H 0.58303 0.96925 0.90553
 H918 H 0.58372 0.90986 0.95992
 H919 H 0.62272 0.89431 0.94184
   
