data_POSCAR
  _audit_creation_date              2014-09-24
  _audit_creation_method            'ToBaCCo'
  _symmetry_space_group_name_H-M    'P1'
  _symmetry_Int_Tables_number       1
  _symmetry_cell_setting            triclinic
  loop_
  _symmetry_equiv_pos_as_xyz
 x,y,z
_cell_length_a 45.1186
_cell_length_b 45.1514
_cell_length_c 48.9219
_cell_angle_alpha 89.852200
_cell_angle_beta 90.096300
_cell_angle_gamma 90.070700
loop_
  _atom_site_label
  _atom_site_type_symbol
  _atom_site_fract_x
  _atom_site_fract_y
  _atom_site_fract_z
C1 C 1.26502 0.21945 0.26705
 C2 C 1.24409 0.23309 0.25010
 C3 C 1.22356 0.21598 0.23575
 C4 C 1.22377 0.18503 0.23807
 C5 C 1.24471 0.17143 0.25536
 C6 C 1.26567 0.18833 0.27030
 C7 C 1.24361 0.26553 0.24745
 C8 C 1.26327 0.27988 0.22975
 C9 C 1.26334 0.31109 0.22711
 C10 C 1.24298 0.32730 0.24328
 C11 C 1.22336 0.31295 0.26139
 C12 C 1.22388 0.28197 0.26319
 H13 H 1.28126 0.23350 0.27688
 H14 H 1.20784 0.22686 0.22231
 H15 H 1.27915 0.26629 0.21902
 H16 H 1.20946 0.27046 0.27739
 H17 H 1.24337 0.14769 0.25801
 H18 H 1.24116 0.35105 0.24108
 C19 C 0.76977 -0.27874 0.26675
 C20 C 0.74967 -0.26407 0.24975
 C21 C 0.72984 -0.28020 0.23373
 C22 C 0.72970 -0.31126 0.23465
 C23 C 0.74975 -0.32593 0.25217
 C24 C 0.77010 -0.30997 0.26862
 C25 C 0.74923 -0.23156 0.24904
 C26 C 0.76989 -0.21601 0.23327
 C27 C 0.76984 -0.18491 0.23288
 C28 C 0.74881 -0.16963 0.24868
 C29 C 0.72814 -0.18506 0.26488
 C30 C 0.72853 -0.21617 0.26479
 H31 H 0.78561 -0.26531 0.27779
 H32 H 0.71491 -0.26840 0.22020
 H33 H 0.78565 -0.22823 0.22100
 H34 H 0.71328 -0.22859 0.27752
 H35 H 0.74816 -0.34975 0.25383
 H36 H 0.74867 -0.14565 0.24847
 C37 C 0.77279 0.21659 -0.23349
 C38 C 0.75235 0.23234 -0.24937
 C39 C 0.73217 0.21714 -0.26596
 C40 C 0.73208 0.18603 -0.26675
 C41 C 0.75257 0.17040 -0.25047
 C42 C 0.77309 0.18549 -0.23385
 C43 C 0.75250 0.26488 -0.24915
 C44 C 0.77197 0.28034 -0.26619
 C45 C 0.77230 0.31164 -0.26688
 C46 C 0.75209 0.32678 -0.24973
 C47 C 0.73245 0.31133 -0.23241
 C48 C 0.73292 0.28026 -0.23233
 H49 H 0.78813 0.22864 -0.22057
 H50 H 0.71706 0.22973 -0.27869
 H51 H 0.78575 0.26744 -0.27974
 H52 H 0.71838 0.26787 -0.21890
 H53 H 0.75265 0.14643 -0.25079
 H54 H 0.75188 0.35069 -0.24912
 C55 C 1.26678 -0.27896 -0.22958
 C56 C 1.24679 -0.26389 -0.24643
 C57 C 1.22750 -0.27964 -0.26325
 C58 C 1.22841 -0.31064 -0.26409
 C59 C 1.24850 -0.32579 -0.24701
 C60 C 1.26805 -0.31028 -0.22934
 C61 C 1.24713 -0.23139 -0.24779
 C62 C 1.26775 -0.21717 -0.26460
 C63 C 1.26747 -0.18624 -0.26761
 C64 C 1.24654 -0.16964 -0.25285
 C65 C 1.22592 -0.18372 -0.23557
 C66 C 1.22627 -0.21476 -0.23336
 H67 H 1.28044 -0.26577 -0.21611
 H68 H 1.21200 -0.26752 -0.27599
 H69 H 1.28391 -0.23039 -0.27545
 H70 H 1.21066 -0.22607 -0.22012
 H71 H 1.24991 -0.34958 -0.24893
 H72 H 1.24572 -0.14582 -0.25540
 C73 C 0.21754 0.26834 0.73317
 C74 C 0.23398 0.24961 0.75005
 C75 C 0.21959 0.22967 0.76737
 C76 C 0.18836 0.22792 0.76811
 C77 C 0.17202 0.24681 0.75056
 C78 C 0.18645 0.26739 0.73339
 C79 C 0.26650 0.25074 0.74958
 C80 C 0.28162 0.27097 0.76610
 C81 C 0.31293 0.27189 0.76669
 C82 C 0.32841 0.25151 0.74999
 C83 C 0.31327 0.23107 0.73331
 C84 C 0.28221 0.23100 0.73325
 H85 H 0.22915 0.28343 0.71964
 H86 H 0.23314 0.21485 0.77951
 H87 H 0.26847 0.28485 0.77937
 H88 H 0.27006 0.21580 0.72028
 H89 H 0.14806 0.24701 0.75142
 H90 H 0.35233 0.25171 0.74924
 C91 C 0.71891 0.77204 0.73369
 C92 C 0.73450 0.75220 0.75017
 C93 C 0.71932 0.73237 0.76701
 C94 C 0.68806 0.73191 0.76782
 C95 C 0.67262 0.75223 0.75085
 C96 C 0.68765 0.77251 0.73354
 C97 C 0.76707 0.75202 0.74958
 C98 C 0.78311 0.77207 0.76559
 C99 C 0.81423 0.77202 0.76522
 C100 C 0.82906 0.75156 0.74845
 C101 C 0.81314 0.73150 0.73199
 C102 C 0.78201 0.73194 0.73281
 H103 H 0.73166 0.78600 0.72007
 H104 H 0.73242 0.71831 0.78026
 H105 H 0.77125 0.78731 0.77868
 H106 H 0.76920 0.71712 0.72001
 H107 H 0.64876 0.75224 0.75106
 H108 H 0.85305 0.75135 0.74819
 C109 C 0.72188 0.26638 0.23171
 C110 C 0.73689 0.24686 0.24911
 C111 C 0.72095 0.22744 0.26585
 C112 C 0.68982 0.22730 0.26540
 C113 C 0.67491 0.24708 0.24785
 C114 C 0.69075 0.26676 0.23090
 C115 C 0.76940 0.24691 0.24996
 C116 C 0.78438 0.26739 0.26636
 C117 C 0.81551 0.26785 0.26723
 C118 C 0.83137 0.24741 0.25125
 C119 C 0.81649 0.22660 0.23483
 C120 C 0.78538 0.22651 0.23439
 H121 H 0.73461 0.28091 0.21853
 H122 H 0.73294 0.21289 0.27960
 H123 H 0.77162 0.28256 0.27878
 H124 H 0.77348 0.21101 0.22152
 H125 H 0.65093 0.24720 0.24743
 H126 H 0.85536 0.24766 0.25156
 C127 C 0.21647 0.77114 0.23318
 C128 C 0.23300 0.75018 0.24756
 C129 C 0.21877 0.72851 0.26310
 C130 C 0.18761 0.72766 0.26524
 C131 C 0.17115 0.74868 0.24995
 C132 C 0.18520 0.77060 0.23371
 C133 C 0.26556 0.75121 0.24714
 C134 C 0.28050 0.77146 0.26373
 C135 C 0.31157 0.77123 0.26549
 C136 C 0.32756 0.75078 0.24959
 C137 C 0.31274 0.73062 0.23234
 C138 C 0.28158 0.73098 0.23144
 H139 H 0.22842 0.78684 0.22058
 H140 H 0.23251 0.71207 0.27305
 H141 H 0.26771 0.78718 0.27554
 H142 H 0.26961 0.71580 0.21833
 H143 H 0.14742 0.74973 0.25252
 H144 H 0.35147 0.74994 0.25130
 O145 O 1.05636 0.03224 0.02105
 O146 O 0.94466 -0.03473 0.01929
 O147 O 0.96597 0.05540 0.01847
 O148 O 1.03513 -0.05782 0.01765
 O149 O 0.94968 0.01500 0.03416
 O150 O 1.05111 -0.01781 0.03426
 O151 O 0.98524 -0.05236 0.03417
 O152 O 1.01551 0.04934 0.03562
 C153 C 1.04211 0.04444 0.03974
 C154 C 0.95862 -0.04734 0.03802
 C155 C 0.95389 0.04175 0.03753
 C156 C 1.04706 -0.04465 0.03706
 O157 O 1.05632 -0.03410 -0.01947
 O158 O 0.94515 0.03312 -0.01925
 O159 O 1.03576 0.05621 -0.01598
 O160 O 0.96588 -0.05717 -0.01809
 O161 O 0.94998 -0.01669 -0.03401
 O162 O 1.05122 0.01624 -0.03305
 O163 O 1.01560 -0.05128 -0.03441
 O164 O 0.98609 0.05067 -0.03344
 Co165 Co 1.04876 -0.00087 0.00062
 Co166 Co 0.95232 -0.00082 0.00009
 Co167 Co 1.00081 0.04768 0.00108
 Co168 Co 1.00049 -0.04948 -0.00010
 O169 O 1.00060 -0.00089 0.00043
 C170 C 1.04218 -0.04617 -0.03834
 C171 C 0.95946 0.04579 -0.03770
 C172 C 1.04847 0.04333 -0.03507
 C173 C 0.95393 -0.04350 -0.03724
 O174 O 1.05042 0.51603 0.53521
 O175 O 0.94932 0.48516 0.53232
 O176 O 0.98580 0.55111 0.53364
 O177 O 1.01464 0.44956 0.53404
 O178 O 0.94470 0.53505 0.51847
 O179 O 1.05631 0.46616 0.52091
 O180 O 0.96534 0.44423 0.51743
 O181 O 1.03573 0.55694 0.51907
 C182 C 1.04807 0.54301 0.53798
 C183 C 0.95178 0.45824 0.53549
 C184 C 0.95886 0.54831 0.53676
 C185 C 1.04138 0.45238 0.53834
 O186 O 1.05244 0.48492 0.46770
 O187 O 0.95166 0.51709 0.46500
 O188 O 1.01713 0.55103 0.46625
 O189 O 0.98636 0.45029 0.46547
 O190 O 0.94502 0.46727 0.47891
 O191 O 1.05780 0.53444 0.48183
 O192 O 1.03565 0.44396 0.48203
 O193 O 0.96720 0.55764 0.48103
 Co194 Co 1.04912 0.50043 0.50133
 Co195 Co 0.95282 0.50113 0.49877
 Co196 Co 1.00143 0.54891 0.49998
 Co197 Co 1.00055 0.45228 0.49977
 O198 O 1.00098 0.50066 0.49998
 C199 C 1.04944 0.45814 0.46413
 C200 C 0.95448 0.54401 0.46221
 C201 C 1.04398 0.54747 0.46314
 C202 C 0.95967 0.45368 0.46124
 O203 O 0.55047 0.01462 0.53331
 O204 O 0.44928 -0.01591 0.53389
 O205 O 0.48508 0.04989 0.53532
 O206 O 0.51416 -0.05155 0.53188
 O207 O 0.44353 0.03433 0.52095
 O208 O 0.55524 -0.03476 0.51751
 O209 O 0.46424 -0.05635 0.51708
 O210 O 0.53447 0.05613 0.51949
 C211 C 0.54798 0.04142 0.53721
 C212 C 0.45184 -0.04293 0.53619
 C213 C 0.45826 0.04713 0.53910
 C214 C 0.54104 -0.04858 0.53541
 O215 O 0.54898 -0.01428 0.46498
 O216 O 0.44822 0.01762 0.46717
 O217 O 0.51408 0.05229 0.46708
 O218 O 0.48288 -0.04841 0.46435
 O219 O 0.44222 -0.03250 0.48026
 O220 O 0.55527 0.03486 0.48061
 O221 O 0.53276 -0.05559 0.47901
 O222 O 0.46464 0.05788 0.48326
 Co223 Co 0.54734 0.00014 0.49917
 Co224 Co 0.45097 0.00085 0.50049
 Co225 Co 0.49951 0.04880 0.50114
 Co226 Co 0.49856 -0.04773 0.49822
 O227 O 0.49912 0.00052 0.49977
 C228 C 0.54592 -0.04099 0.46102
 C229 C 0.45123 0.04457 0.46462
 C230 C 0.54080 0.04889 0.46301
 C231 C 0.45596 -0.04513 0.46142
 O232 O 0.55204 0.51484 0.03371
 O233 O 0.45114 0.48322 0.03428
 O234 O 0.48640 0.54975 0.03501
 O235 O 0.51628 0.44854 0.03323
 O236 O 0.44507 0.53335 0.02082
 O237 O 0.55736 0.46535 0.01879
 O238 O 0.46647 0.44271 0.01799
 O239 O 0.53587 0.55604 0.01933
 C240 C 0.54937 0.54166 0.03729
 C241 C 0.45336 0.45618 0.03667
 C242 C 0.45960 0.54671 0.03878
 C243 C 0.54317 0.45149 0.03669
 O244 O 0.55116 0.48477 -0.03418
 O245 O 0.45010 0.51600 -0.03270
 O246 O 0.51576 0.55121 -0.03314
 O247 O 0.48570 0.45011 -0.03449
 O248 O 0.44467 0.46605 -0.01939
 O249 O 0.55703 0.53431 -0.01925
 O250 O 0.53544 0.44355 -0.01944
 O251 O 0.46615 0.55671 -0.01723
 Co252 Co 0.54923 0.49981 -0.00020
 Co253 Co 0.45291 0.49966 0.00073
 Co254 Co 0.50104 0.54815 0.00091
 Co255 Co 0.50098 0.45154 -0.00059
 O256 O 0.50105 0.49980 0.00021
 C257 C 0.54877 0.45788 -0.03753
 C258 C 0.45259 0.54296 -0.03552
 C259 C 0.54258 0.54822 -0.03696
 C260 C 0.45882 0.45316 -0.03783
 C261 C 1.16298 0.13464 0.18830
 C262 C 1.15337 0.16021 0.20201
 C263 C 1.17288 0.17619 0.21865
 C264 C 1.20242 0.16697 0.22199
 C265 C 1.21179 0.14096 0.20891
 C266 C 1.19232 0.12499 0.19228
 C267 C 1.14308 0.11886 0.16902
 N268 N 1.15306 0.09516 0.15474
 N269 N 1.13592 0.08195 0.13624
 C270 C 1.10801 0.09181 0.13119
 N271 N 1.09784 0.11530 0.14572
 N272 N 1.11501 0.12855 0.16423
 C273 C 1.08990 0.07821 0.10919
 C274 C 1.06053 0.08733 0.10424
 C275 C 1.04447 0.07581 0.08212
 C276 C 1.05762 0.05521 0.06443
 C277 C 1.08660 0.04550 0.06988
 C278 C 1.10248 0.05675 0.09201
 H279 H 1.13091 0.16821 0.19955
 H280 H 1.16486 0.19589 0.22881
 H281 H 1.23448 0.13343 0.21085
 H282 H 1.20051 0.10540 0.18208
 H283 H 1.05011 0.10372 0.11716
 H284 H 1.02212 0.08358 0.07845
 H285 H 1.09722 0.02942 0.05676
 H286 H 1.12495 0.04907 0.09521
 C287 C 1.17056 0.64399 0.67944
 C288 C 1.18465 0.67055 0.67200
 C289 C 1.20376 0.68482 0.69014
 C290 C 1.20903 0.67314 0.71637
 C291 C 1.19526 0.64633 0.72374
 C292 C 1.17630 0.63184 0.70542
 C293 C 1.15009 0.62925 0.66003
 N294 N 1.14134 0.60075 0.66393
 N295 N 1.12349 0.58747 0.64599
 C296 C 1.11349 0.60219 0.62353
 N297 N 1.12204 0.63075 0.61981
 N298 N 1.13998 0.64397 0.63765
 C299 C 1.09471 0.58718 0.60288
 C300 C 1.08080 0.60360 0.58203
 C301 C 1.06481 0.58932 0.56141
 C302 C 1.06263 0.55830 0.56106
 C303 C 1.07575 0.54192 0.58233
 C304 C 1.09152 0.55621 0.60309
 H305 H 1.18109 0.68032 0.65203
 H306 H 1.21456 0.70502 0.68350
 H307 H 1.19867 0.63686 0.74386
 H308 H 1.16576 0.61140 0.71177
 H309 H 1.08261 0.62750 0.58139
 H310 H 1.05482 0.60251 0.54535
 H311 H 1.07431 0.51797 0.58267
 H312 H 1.10191 0.54291 0.61885
 C313 C 0.67176 0.14044 0.67911
 C314 C 0.66270 0.16605 0.69302
 C315 C 0.68206 0.18056 0.71089
 C316 C 0.71106 0.17000 0.71502
 C317 C 0.72003 0.14429 0.70115
 C318 C 0.70056 0.12961 0.68355
 C319 C 0.65157 0.12533 0.65972
 N320 N 0.65766 0.09754 0.65084
 N321 N 0.63999 0.08414 0.63289
 C322 C 0.61552 0.09799 0.62294
 N323 N 0.60936 0.12578 0.63186
 N324 N 0.62697 0.13913 0.64995
 C325 C 0.59665 0.08333 0.60216
 C326 C 0.57596 0.09961 0.58672
 C327 C 0.55968 0.08595 0.56586
 C328 C 0.56361 0.05572 0.56025
 C329 C 0.58354 0.03926 0.57631
 C330 C 0.59997 0.05293 0.59692
 H331 H 0.64058 0.17483 0.69022
 H332 H 0.67423 0.19998 0.72159
 H333 H 0.74233 0.13582 0.70341
 H334 H 0.70833 0.11006 0.67299
 H335 H 0.57285 0.12306 0.59027
 H336 H 0.54432 0.09911 0.55391
 H337 H 0.58697 0.01588 0.57256
 H338 H 0.61551 0.03968 0.60857
 C339 C 0.67008 0.64132 0.18123
 C340 C 0.69857 0.63023 0.18681
 C341 C 0.71773 0.64535 0.20442
 C342 C 0.70876 0.67176 0.21709
 C343 C 0.67994 0.68237 0.21207
 C344 C 0.66090 0.66744 0.19423
 C345 C 0.65039 0.62611 0.16145
 N346 N 0.62626 0.64003 0.15086
 N347 N 0.60915 0.62668 0.13237
 C348 C 0.61538 0.59877 0.12382
 N349 N 0.63937 0.58480 0.13458
 N350 N 0.65655 0.59819 0.15294
 C351 C 0.59702 0.58407 0.10266
 C352 C 0.60038 0.55365 0.09764
 C353 C 0.58434 0.53987 0.07684
 C354 C 0.56474 0.55624 0.06035
 C355 C 0.56083 0.58653 0.06565
 C356 C 0.57673 0.60031 0.08671
 H357 H 0.70639 0.61023 0.17704
 H358 H 0.73988 0.63674 0.20751
 H359 H 0.67204 0.70230 0.22192
 H360 H 0.63899 0.67639 0.19062
 H361 H 0.61562 0.54042 0.10966
 H362 H 0.58776 0.51644 0.07333
 H363 H 0.54573 0.59963 0.05336
 H364 H 0.57360 0.62379 0.09007
 C365 C 0.83230 -0.13778 0.18220
 C366 C 0.80278 -0.12813 0.18442
 C367 C 0.78264 -0.14329 0.20098
 C368 C 0.79152 -0.16843 0.21581
 C369 C 0.82113 -0.17790 0.21391
 C370 C 0.84130 -0.16276 0.19727
 C371 C 0.85314 -0.12234 0.16359
 N372 N 0.88111 -0.13260 0.15954
 N373 N 0.89920 -0.11937 0.14175
 C374 C 0.89004 -0.09531 0.12730
 N375 N 0.86223 -0.08490 0.13163
 N376 N 0.84420 -0.09810 0.14937
 C377 C 0.90907 -0.08160 0.10605
 C378 C 0.89752 -0.05907 0.08930
 C379 C 0.91405 -0.04768 0.06770
 C380 C 0.94268 -0.05829 0.06236
 C381 C 0.95491 -0.07991 0.07970
 C382 C 0.93816 -0.09161 0.10130
 H383 H 0.79500 -0.10906 0.17304
 H384 H 0.75991 -0.13567 0.20169
 H385 H 0.82875 -0.19696 0.22541
 H386 H 0.86388 -0.17074 0.19612
 H387 H 0.87532 -0.05065 0.09238
 H388 H 0.90416 -0.03078 0.05486
 H389 H 0.97701 -0.08838 0.07607
 H390 H 0.94777 -0.10884 0.11393
 C391 C 0.83078 0.35716 0.67866
 C392 C 0.80481 0.37084 0.68804
 C393 C 0.78577 0.35614 0.70608
 C394 C 0.79210 0.32717 0.71546
 C395 C 0.81873 0.31397 0.70631
 C396 C 0.83760 0.32866 0.68816
 C397 C 0.85037 0.37233 0.65872
 N398 N 0.87248 0.35740 0.64593
 N399 N 0.88957 0.37085 0.62748
 C400 C 0.88533 0.39984 0.62112
 N401 N 0.86333 0.41478 0.63404
 N402 N 0.84620 0.40132 0.65240
 C403 C 0.90369 0.41475 0.60006
 C404 C 0.90148 0.44551 0.59612
 C405 C 0.91760 0.45957 0.57553
 C406 C 0.93621 0.44322 0.55820
 C407 C 0.93899 0.41257 0.56241
 C408 C 0.92294 0.39847 0.58320
 H409 H 0.79875 0.39276 0.68096
 H410 H 0.76540 0.36730 0.71137
 H411 H 0.82588 0.29255 0.71368
 H412 H 0.85771 0.31765 0.68171
 H413 H 0.88706 0.45878 0.60882
 H414 H 0.91508 0.48326 0.57289
 H415 H 0.95330 0.39946 0.54947
 H416 H 0.92521 0.37475 0.58572
 C417 C 0.32918 -0.14435 0.67715
 C418 C 0.32188 -0.13084 0.70212
 C419 C 0.30187 -0.14435 0.72008
 C420 C 0.28860 -0.17158 0.71338
 C421 C 0.29577 -0.18491 0.68831
 C422 C 0.31590 -0.17155 0.67049
 C423 C 0.35011 -0.13003 0.65789
 N424 N 0.36039 -0.14493 0.63576
 N425 N 0.37847 -0.13184 0.61795
 C426 C 0.38702 -0.10325 0.62147
 N427 N 0.37690 -0.08841 0.64370
 N428 N 0.35889 -0.10153 0.66157
 C429 C 0.40573 -0.08818 0.60080
 C430 C 0.40942 -0.05728 0.60148
 C431 C 0.42503 -0.04272 0.58080
 C432 C 0.43749 -0.05875 0.55909
 C433 C 0.43484 -0.08973 0.55892
 C434 C 0.41899 -0.10430 0.57951
 H435 H 0.33179 -0.10992 0.70791
 H436 H 0.29711 -0.13368 0.73937
 H437 H 0.28551 -0.20557 0.68224
 H438 H 0.32076 -0.18242 0.65132
 H439 H 0.39957 -0.04418 0.61758
 H440 H 0.42688 -0.01881 0.58156
 H441 H 0.44432 -0.10264 0.54249
 H442 H 0.41675 -0.12815 0.57849
 C443 C 0.32424 0.35397 0.17295
 C444 C 0.31231 0.36919 0.19536
 C445 C 0.29226 0.35529 0.21304
 C446 C 0.28340 0.32557 0.20891
 C447 C 0.29542 0.31062 0.18609
 C448 C 0.31549 0.32456 0.16854
 C449 C 0.34546 0.36871 0.15411
 N450 N 0.35886 0.35324 0.13380
 N451 N 0.37748 0.36655 0.11658
 C452 C 0.38352 0.39591 0.11890
 N453 N 0.37023 0.41135 0.13929
 N454 N 0.35165 0.39803 0.15655
 C455 C 0.40326 0.41104 0.09899
 C456 C 0.40629 0.44203 0.09933
 C457 C 0.42322 0.45655 0.07951
 C458 C 0.43766 0.44043 0.05892
 C459 C 0.43554 0.40939 0.05907
 C460 C 0.41844 0.39485 0.07885
 H461 H 0.31871 0.39186 0.19951
 H462 H 0.28489 0.36781 0.23056
 H463 H 0.28866 0.28839 0.18081
 H464 H 0.32388 0.31225 0.15123
 H465 H 0.39502 0.45523 0.11455
 H466 H 0.42452 0.48050 0.08000
 H467 H 0.44649 0.39639 0.04351
 H468 H 0.41677 0.37095 0.07808
 C469 C 0.83493 0.13790 -0.18272
 C470 C 0.80558 0.12789 -0.18586
 C471 C 0.78566 0.14318 -0.20259
 C472 C 0.79457 0.16882 -0.21666
 C473 C 0.82402 0.17864 -0.21386
 C474 C 0.84397 0.16336 -0.19707
 C475 C 0.85552 0.12229 -0.16392
 N476 N 0.88338 0.13266 -0.15926
 N477 N 0.90123 0.11925 -0.14134
 C478 C 0.89196 0.09490 -0.12738
 N479 N 0.86425 0.08440 -0.13232
 N480 N 0.84645 0.09777 -0.15018
 C481 C 0.91073 0.08092 -0.10604
 C482 C 0.89901 0.05811 -0.08973
 C483 C 0.91529 0.04642 -0.06805
 C484 C 0.94386 0.05700 -0.06219
 C485 C 0.95629 0.07892 -0.07909
 C486 C 0.93977 0.09091 -0.10077
 H487 H 0.79777 0.10843 -0.17507
 H488 H 0.76304 0.13526 -0.20401
 H489 H 0.83168 0.19809 -0.22476
 H490 H 0.86642 0.17163 -0.19521
 H491 H 0.87684 0.04969 -0.09320
 H492 H 0.90524 0.02932 -0.05555
 H493 H 0.97833 0.08738 -0.07506
 H494 H 0.94953 0.10835 -0.11305
 C495 C 0.83082 0.64654 0.32241
 C496 C 0.82183 0.67574 0.32731
 C497 C 0.80182 0.68985 0.30986
 C498 C 0.79018 0.67532 0.28660
 C499 C 0.79930 0.64581 0.28193
 C500 C 0.81927 0.63170 0.29957
 C501 C 0.85176 0.63164 0.34134
 N502 N 0.85750 0.60222 0.33910
 N503 N 0.87562 0.58876 0.35670
 C504 C 0.88886 0.60415 0.37721
 N505 N 0.88334 0.63361 0.37927
 N506 N 0.86518 0.64705 0.36172
 C507 C 0.90777 0.58892 0.39767
 C508 C 0.92289 0.60516 0.41787
 C509 C 0.93890 0.59063 0.43839
 C510 C 0.93996 0.55957 0.43922
 C511 C 0.92570 0.54335 0.41854
 C512 C 0.90984 0.55786 0.39796
 H513 H 0.82988 0.68772 0.34499
 H514 H 0.79477 0.71184 0.31558
 H515 H 0.79215 0.63367 0.26408
 H516 H 0.82590 0.60919 0.29508
 H517 H 0.92195 0.62912 0.41815
 H518 H 0.94980 0.60369 0.45400
 H519 H 0.92627 0.51937 0.41856
 H520 H 0.89857 0.54465 0.38269
 C521 C 0.32785 0.14702 0.32420
 C522 C 0.31939 0.17660 0.32804
 C523 C 0.29911 0.19013 0.31040
 C524 C 0.28657 0.17457 0.28813
 C525 C 0.29546 0.14483 0.28437
 C526 C 0.31571 0.13135 0.30211
 C527 C 0.34868 0.13245 0.34348
 N528 N 0.35450 0.10303 0.34150
 N529 N 0.37242 0.08972 0.35935
 C530 C 0.38538 0.10524 0.37992
 N531 N 0.37978 0.13472 0.38176
 N532 N 0.36181 0.14803 0.36393
 C533 C 0.40411 0.09003 0.40056
 C534 C 0.41891 0.10616 0.42105
 C535 C 0.43499 0.09151 0.44150
 C536 C 0.43638 0.06044 0.44196
 C537 C 0.42231 0.04438 0.42107
 C538 C 0.40643 0.05899 0.40059
 H539 H 0.32804 0.18928 0.34505
 H540 H 0.29248 0.21249 0.31531
 H541 H 0.28778 0.13193 0.26717
 H542 H 0.32196 0.10857 0.29836
 H543 H 0.41774 0.13010 0.42155
 H544 H 0.44572 0.10444 0.45728
 H545 H 0.42315 0.02040 0.42078
 H546 H 0.39543 0.04584 0.38512
 C547 C 0.32820 0.64473 -0.17596
 C548 C 0.33394 0.67380 -0.18456
 C549 C 0.31453 0.68838 -0.20234
 C550 C 0.28842 0.67446 -0.21200
 C551 C 0.28315 0.64496 -0.20349
 C552 C 0.30274 0.63039 -0.18583
 C553 C 0.34841 0.62961 -0.15649
 N554 N 0.34532 0.60025 -0.15110
 N555 N 0.36302 0.58678 -0.13318
 C556 C 0.38454 0.60205 -0.11980
 N557 N 0.38771 0.63141 -0.12522
 N558 N 0.37005 0.64488 -0.14323
 C559 C 0.40350 0.58705 -0.09920
 C560 C 0.42230 0.60336 -0.08185
 C561 C 0.43878 0.58909 -0.06140
 C562 C 0.43687 0.55825 -0.05804
 C563 C 0.41877 0.54191 -0.07593
 C564 C 0.40224 0.55612 -0.09617
 H565 H 0.35363 0.68536 -0.17772
 H566 H 0.32092 0.71029 -0.20903
 H567 H 0.26322 0.63321 -0.20924
 H568 H 0.29750 0.60801 -0.17944
 H569 H 0.42384 0.62722 -0.08367
 H570 H 0.45267 0.60221 -0.04800
 H571 H 0.41691 0.51807 -0.07396
 H572 H 0.38821 0.54282 -0.10928
 C573 C 1.16427 -0.13431 -0.18627
 C574 C 1.15514 -0.16021 -0.19980
 C575 C 1.17494 -0.17592 -0.21624
 C576 C 1.20431 -0.16610 -0.21953
 C577 C 1.21320 -0.13981 -0.20660
 C578 C 1.19343 -0.12410 -0.19017
 C579 C 1.14406 -0.11876 -0.16722
 N580 N 1.15355 -0.09465 -0.15318
 N581 N 1.13617 -0.08164 -0.13485
 C582 C 1.10850 -0.09212 -0.12974
 N583 N 1.09880 -0.11601 -0.14404
 N584 N 1.11622 -0.12906 -0.16239
 C585 C 1.09019 -0.07880 -0.10783
 C586 C 1.06111 -0.08871 -0.10275
 C587 C 1.04495 -0.07754 -0.08062
 C588 C 1.05774 -0.05652 -0.06306
 C589 C 1.08636 -0.04595 -0.06869
 C590 C 1.10234 -0.05686 -0.09084
 H591 H 1.13282 -0.16863 -0.19738
 H592 H 1.16729 -0.19585 -0.22631
 H593 H 1.23575 -0.13182 -0.20851
 H594 H 1.20126 -0.10425 -0.18008
 H595 H 1.05102 -0.10547 -0.11554
 H596 H 1.02284 -0.08595 -0.07681
 H597 H 1.09663 -0.02946 -0.05570
 H598 H 1.12457 -0.04855 -0.09417
 C599 C 1.16535 0.36023 0.31612
 C600 C 1.19345 0.37168 0.30950
 C601 C 1.21199 0.35675 0.29128
 C602 C 1.20277 0.33014 0.27905
 C603 C 1.17424 0.31928 0.28496
 C604 C 1.15583 0.33404 0.30339
 C605 C 1.14650 0.37506 0.33676
 N606 N 1.12289 0.36085 0.34802
 N607 N 1.10659 0.37384 0.36727
 C608 C 1.11316 0.40163 0.37598
 N609 N 1.13665 0.41587 0.36457
 N610 N 1.15301 0.40285 0.34544
 C611 C 1.09563 0.41602 0.39785
 C612 C 1.09938 0.44635 0.40318
 C613 C 1.08394 0.45994 0.42438
 C614 C 1.06454 0.44351 0.44101
 C615 C 1.06033 0.41328 0.43550
 C616 C 1.07565 0.39967 0.41403
 H617 H 1.20152 0.39178 0.31900
 H618 H 1.23394 0.36556 0.28748
 H619 H 1.16615 0.29919 0.27547
 H620 H 1.13419 0.32481 0.30776
 H621 H 1.11439 0.45967 0.39102
 H622 H 1.08759 0.48332 0.42800
 H623 H 1.04537 0.40014 0.44788
 H624 H 1.07224 0.37626 0.41044
 C625 C 0.66705 -0.13924 0.31771
 C626 C 0.69573 -0.12807 0.31326
 C627 C 0.71541 -0.14278 0.29600
 C628 C 0.70677 -0.16884 0.28247
 C629 C 0.67785 -0.17968 0.28651
 C630 C 0.65828 -0.16515 0.30407
 C631 C 0.64678 -0.12423 0.33696
 N632 N 0.62269 -0.13846 0.34727
 N633 N 0.60516 -0.12523 0.36543
 C634 C 0.61093 -0.09716 0.37386
 N635 N 0.63485 -0.08288 0.36334
 N636 N 0.65243 -0.09615 0.34533
 C637 C 0.59237 -0.08266 0.39486
 C638 C 0.59528 -0.05213 0.39966
 C639 C 0.57949 -0.03858 0.42065
 C640 C 0.56060 -0.05526 0.43753
 C641 C 0.55693 -0.08562 0.43231
 C642 C 0.57259 -0.09919 0.41107
 H643 H 0.70327 -0.10827 0.32363
 H644 H 0.73765 -0.13408 0.29382
 H645 H 0.67026 -0.19938 0.27604
 H646 H 0.63624 -0.17417 0.30689
 H647 H 0.61009 -0.03870 0.38740
 H648 H 0.58266 -0.01509 0.42405
 H649 H 0.54235 -0.09895 0.44490
 H650 H 0.56983 -0.12275 0.40786
 C651 C 0.67282 0.35719 -0.17799
 C652 C 0.66375 0.33124 -0.19143
 C653 C 0.68290 0.31668 -0.20937
 C654 C 0.71171 0.32751 -0.21408
 C655 C 0.72069 0.35356 -0.20070
 C656 C 0.70143 0.36830 -0.18300
 C657 C 0.65277 0.37239 -0.15857
 N658 N 0.65870 0.40039 -0.15012
 N659 N 0.64106 0.41391 -0.13229
 C660 C 0.61679 0.39998 -0.12203
 N661 N 0.61081 0.37197 -0.13050
 N662 N 0.62838 0.35849 -0.14846
 C663 C 0.59783 0.41489 -0.10152
 C664 C 0.57733 0.39874 -0.08574
 C665 C 0.56090 0.41272 -0.06521
 C666 C 0.56445 0.44316 -0.06028
 C667 C 0.58420 0.45944 -0.07667
 C668 C 0.60079 0.44546 -0.09692
 H669 H 0.64178 0.32223 -0.18820
 H670 H 0.67503 0.29699 -0.21969
 H671 H 0.74286 0.36225 -0.20341
 H672 H 0.70920 0.38812 -0.17284
 H673 H 0.57449 0.37516 -0.08878
 H674 H 0.54571 0.39967 -0.05299
 H675 H 0.58738 0.48296 -0.07344
 H676 H 0.61616 0.45862 -0.10884
 C677 C 1.14606 0.16846 -0.17664
 C678 C 1.17350 0.18122 -0.17020
 C679 C 1.18743 0.20045 -0.18843
 C680 C 1.17406 0.20809 -0.21360
 C681 C 1.14619 0.19541 -0.21979
 C682 C 1.13261 0.17549 -0.20170
 C683 C 1.13140 0.14880 -0.15663
 N684 N 1.11284 0.12672 -0.16471
 N685 N 1.09987 0.10914 -0.14630
 C686 C 1.10476 0.11321 -0.11914
 N687 N 1.12323 0.13530 -0.11117
 N688 N 1.13641 0.15261 -0.12952
 C689 C 1.08972 0.09488 -0.09834
 C690 C 1.08253 0.10751 -0.07306
 C691 C 1.06882 0.09067 -0.05284
 C692 C 1.06258 0.06057 -0.05715
 C693 C 1.06983 0.04771 -0.08240
 C694 C 1.08298 0.06490 -0.10303
 H695 H 1.18431 0.17631 -0.15092
 H696 H 1.20814 0.21032 -0.18196
 H697 H 1.13523 0.19986 -0.23906
 H698 H 1.11135 0.16598 -0.20710
 H699 H 1.08730 0.13060 -0.06897
 H700 H 1.06351 0.10116 -0.03357
 H701 H 1.06512 0.02456 -0.08621
 H702 H 1.08845 0.05466 -0.12237
 C703 C 1.14537 0.66588 0.31889
 C704 C 1.17486 0.67452 0.32317
 C705 C 1.18863 0.69464 0.30562
 C706 C 1.17347 0.70679 0.28286
 C707 C 1.14380 0.69772 0.27861
 C708 C 1.13002 0.67764 0.29637
 C709 C 1.13065 0.64536 0.33833
 N710 N 1.10102 0.64024 0.33689
 N711 N 1.08768 0.62281 0.35514
 C712 C 1.10341 0.60968 0.37555
 N713 N 1.13308 0.61454 0.37679
 N714 N 1.14640 0.63201 0.35859
 C715 C 1.08833 0.59170 0.39680
 C716 C 1.10477 0.57674 0.41703
 C717 C 1.09042 0.56161 0.43821
 C718 C 1.05935 0.56130 0.43969
 C719 C 1.04291 0.57545 0.41903
 C720 C 1.05722 0.59041 0.39780
 H721 H 1.18727 0.66624 0.34054
 H722 H 1.21082 0.70152 0.31102
 H723 H 1.13121 0.70519 0.26109
 H724 H 1.10730 0.67123 0.29232
 H725 H 1.12877 0.57711 0.41678
 H726 H 1.10365 0.55075 0.45377
 H727 H 1.01891 0.57542 0.41951
 H728 H 1.04385 0.60158 0.38256
 C729 C 0.64231 0.16859 0.31959
 C730 C 0.63160 0.19723 0.31414
 C731 C 0.64686 0.21618 0.29645
 C732 C 0.67305 0.20684 0.28356
 C733 C 0.68343 0.17797 0.28863
 C734 C 0.66834 0.15913 0.30655
 C735 C 0.62673 0.14900 0.33919
 N736 N 0.64017 0.12448 0.34952
 N737 N 0.62644 0.10742 0.36782
 C738 C 0.59864 0.11410 0.37644
 N739 N 0.58515 0.13848 0.36593
 N740 N 0.59891 0.15560 0.34775
 C741 C 0.58362 0.09587 0.39749
 C742 C 0.55332 0.09999 0.40283
 C743 C 0.53934 0.08415 0.42367
 C744 C 0.55540 0.06400 0.43984
 C745 C 0.58552 0.05928 0.43415
 C746 C 0.59948 0.07498 0.41308
 H747 H 0.61172 0.20529 0.32399
 H748 H 0.63849 0.23840 0.29338
 H749 H 0.70321 0.16986 0.27866
 H750 H 0.67703 0.13711 0.31012
 H751 H 0.54038 0.11570 0.39108
 H752 H 0.51605 0.08817 0.42747
 H753 H 0.59836 0.04373 0.44618
 H754 H 0.62285 0.07126 0.40945
 C755 C 0.64299 0.67216 -0.17843
 C756 C 0.67142 0.66557 -0.18819
 C757 C 0.68600 0.68491 -0.20602
 C758 C 0.67276 0.71179 -0.21461
 C759 C 0.64394 0.71799 -0.20481
 C760 C 0.62935 0.69848 -0.18712
 C761 C 0.62782 0.65198 -0.15896
 N762 N 0.59887 0.65610 -0.15249
 N763 N 0.58540 0.63843 -0.13454
 C764 C 0.60029 0.61591 -0.12222
 N765 N 0.62923 0.61171 -0.12876
 N766 N 0.64269 0.62933 -0.14678
 C767 C 0.58542 0.59702 -0.10150
 C768 C 0.60174 0.57713 -0.08519
 C769 C 0.58780 0.56075 -0.06453
 C770 C 0.55724 0.56381 -0.05988
 C771 C 0.54079 0.58296 -0.07676
 C772 C 0.55472 0.59942 -0.09724
 H773 H 0.68242 0.64525 -0.18223
 H774 H 0.70734 0.67793 -0.21366
 H775 H 0.63282 0.73857 -0.20951
 H776 H 0.60754 0.70443 -0.17977
 H777 H 0.62541 0.57468 -0.08797
 H778 H 0.60099 0.54603 -0.05194
 H779 H 0.51717 0.58573 -0.07378
 H780 H 0.54140 0.61432 -0.10952
 C781 C 0.86225 -0.16755 -0.18276
 C782 C 0.87179 -0.19700 -0.18596
 C783 C 0.85642 -0.21645 -0.20305
 C784 C 0.83114 -0.20697 -0.21737
 C785 C 0.82183 -0.17743 -0.21453
 C786 C 0.83721 -0.15794 -0.19743
 C787 C 0.87783 -0.14743 -0.16356
 N788 N 0.86845 -0.11914 -0.15969
 N789 N 0.88177 -0.10161 -0.14152
 C790 C 0.90503 -0.11166 -0.12645
 N791 N 0.91453 -0.13983 -0.13055
 N792 N 0.90126 -0.15731 -0.14870
 C793 C 0.91887 -0.09304 -0.10497
 C794 C 0.94027 -0.10534 -0.08741
 C795 C 0.95190 -0.08890 -0.06584
 C796 C 0.94266 -0.05964 -0.06135
 C797 C 0.92211 -0.04680 -0.07942
 C798 C 0.91019 -0.06342 -0.10098
 H799 H 0.89094 -0.20522 -0.17496
 H800 H 0.86395 -0.23915 -0.20454
 H801 H 0.80266 -0.16936 -0.22560
 H802 H 0.82929 -0.13541 -0.19554
 H803 H 0.94764 -0.12799 -0.08989
 H804 H 0.96797 -0.09929 -0.05244
 H805 H 0.91470 -0.02423 -0.07647
 H806 H 0.89387 -0.05322 -0.11423
 C807 C 0.86066 0.32952 0.32020
 C808 C 0.87183 0.30081 0.31627
 C809 C 0.85725 0.28089 0.29908
 C810 C 0.83134 0.28931 0.28510
 C811 C 0.82042 0.31822 0.28873
 C812 C 0.83482 0.33803 0.30622
 C813 C 0.87573 0.35018 0.33913
 N814 N 0.86158 0.37452 0.34887
 N815 N 0.87492 0.39249 0.36664
 C816 C 0.90303 0.38695 0.37524
 N817 N 0.91721 0.36277 0.36529
 N818 N 0.90384 0.34474 0.34767
 C819 C 0.91767 0.40604 0.39580
 C820 C 0.94823 0.40324 0.40068
 C821 C 0.96191 0.41947 0.42136
 C822 C 0.94533 0.43872 0.43787
 C823 C 0.91495 0.44231 0.43251
 C824 C 0.90125 0.42619 0.41158
 H825 H 0.89157 0.29347 0.32692
 H826 H 0.86599 0.25867 0.29721
 H827 H 0.80083 0.32564 0.27792
 H828 H 0.82580 0.36008 0.30864
 H829 H 0.96160 0.38816 0.38874
 H830 H 0.98542 0.41634 0.42487
 H831 H 0.90168 0.45714 0.44482
 H832 H 0.87767 0.42888 0.40829
 C833 C 0.35500 -0.16807 0.32064
 C834 C 0.36780 -0.17478 0.29521
 C835 C 0.35388 -0.19457 0.27731
 C836 C 0.32696 -0.20821 0.28454
 C837 C 0.31449 -0.20179 0.31018
 C838 C 0.32822 -0.18187 0.32790
 C839 C 0.36945 -0.14707 0.33973
 N840 N 0.35456 -0.13662 0.36180
 N841 N 0.36766 -0.11839 0.37944
 C842 C 0.39625 -0.10986 0.37582
 N843 N 0.41111 -0.12016 0.35365
 N844 N 0.39796 -0.13831 0.33593
 C845 C 0.41127 -0.09098 0.39637
 C846 C 0.44225 -0.08770 0.39610
 C847 C 0.45666 -0.07208 0.41686
 C848 C 0.44041 -0.05918 0.43822
 C849 C 0.40937 -0.06135 0.43790
 C850 C 0.39495 -0.07721 0.41726
 H851 H 0.38840 -0.16449 0.28898
 H852 H 0.36392 -0.19879 0.25762
 H853 H 0.29416 -0.21241 0.31672
 H854 H 0.31793 -0.17753 0.34747
 H855 H 0.45550 -0.09795 0.38031
 H856 H 0.48063 -0.07063 0.41648
 H857 H 0.39627 -0.05154 0.45404
 H858 H 0.37104 -0.07911 0.41795
 C859 C 0.35794 0.33240 -0.18054
 C860 C 0.32917 0.33847 -0.18982
 C861 C 0.31460 0.31892 -0.20741
 C862 C 0.32822 0.29235 -0.21615
 C863 C 0.35739 0.28674 -0.20690
 C864 C 0.37196 0.30647 -0.18948
 C865 C 0.37306 0.35264 -0.16120
 N866 N 0.40234 0.34934 -0.15557
 N867 N 0.41579 0.36689 -0.13758
 C868 C 0.40056 0.38846 -0.12438
 N869 N 0.37129 0.39188 -0.13009
 N870 N 0.35784 0.37438 -0.14817
 C871 C 0.41545 0.40696 -0.10346
 C872 C 0.39902 0.42537 -0.08595
 C873 C 0.41311 0.44102 -0.06494
 C874 C 0.44388 0.43867 -0.06115
 C875 C 0.46039 0.42113 -0.07927
 C876 C 0.44635 0.40541 -0.10010
 H877 H 0.31788 0.35852 -0.18366
 H878 H 0.29295 0.32548 -0.21469
 H879 H 0.36886 0.26645 -0.21179
 H880 H 0.39407 0.30095 -0.18249
 H881 H 0.37520 0.42711 -0.08803
 H882 H 0.39988 0.45452 -0.05136
 H883 H 0.48418 0.41898 -0.07699
 H884 H 0.45973 0.39169 -0.11333
 C885 C 1.13654 -0.16827 0.18445
 C886 C 1.16447 -0.16065 0.19493
 C887 C 1.18021 -0.18043 0.21145
 C888 C 1.16846 -0.20855 0.21823
 C889 C 1.13981 -0.21552 0.20842
 C890 C 1.12424 -0.19577 0.19169
 C891 C 1.12096 -0.14823 0.16513
 N892 N 1.09650 -0.15759 0.15142
 N893 N 1.08351 -0.14030 0.13286
 C894 C 1.09433 -0.11287 0.12724
 N895 N 1.11856 -0.10333 0.14121
 N896 N 1.13162 -0.12066 0.15973
 C897 C 1.08094 -0.09450 0.10530
 C898 C 1.08968 -0.06487 0.10132
 C899 C 1.07821 -0.04829 0.07951
 C900 C 1.05810 -0.06117 0.06110
 C901 C 1.04888 -0.09052 0.06544
 C902 C 1.06004 -0.10694 0.08734
 H903 H 1.17450 -0.13949 0.19005
 H904 H 1.20135 -0.17306 0.21938
 H905 H 1.12982 -0.23693 0.21221
 H906 H 1.10272 -0.20237 0.18397
 H907 H 1.10561 -0.05456 0.11488
 H908 H 1.08558 -0.02564 0.07671
 H909 H 1.03316 -0.10093 0.05173
 H910 H 1.05276 -0.12965 0.08977
 C911 C 1.13880 0.32759 0.68069
 C912 C 1.16439 0.33688 0.69463
 C913 C 1.17934 0.31756 0.71216
 C914 C 1.16933 0.28832 0.71596
 C915 C 1.14339 0.27918 0.70243
 C916 C 1.12822 0.29864 0.68506
 C917 C 1.12374 0.34776 0.66122
 N918 N 1.09611 0.34152 0.65179
 N919 N 1.08291 0.35929 0.63375
 C920 C 1.09680 0.38397 0.62427
 N921 N 1.12441 0.39025 0.63373
 N922 N 1.13756 0.37255 0.65188
 C923 C 1.08242 0.40304 0.60344
 C924 C 1.09894 0.42395 0.58846
 C925 C 1.08557 0.44049 0.56758
 C926 C 1.05539 0.43662 0.56150
 C927 C 1.03869 0.41646 0.57711
 C928 C 1.05208 0.39976 0.59773
 H929 H 1.17292 0.35913 0.69199
 H930 H 1.19883 0.32558 0.72278
 H931 H 1.13523 0.25675 0.70469
 H932 H 1.10861 0.29077 0.67456
 H933 H 1.12236 0.42702 0.59240
 H934 H 1.09891 0.45599 0.55597
 H935 H 1.01534 0.41304 0.57299
 H936 H 1.03866 0.38406 0.60902
 C937 C 0.64185 -0.16868 0.67952
 C938 C 0.62827 -0.19483 0.68874
 C939 C 0.64304 -0.21398 0.70665
 C940 C 0.67198 -0.20755 0.71609
 C941 C 0.68509 -0.18074 0.70713
 C942 C 0.67032 -0.16176 0.68909
 C943 C 0.62665 -0.14906 0.65960
 N944 N 0.64152 -0.12676 0.64688
 N945 N 0.62806 -0.10973 0.62837
 C946 C 0.59912 -0.11421 0.62187
 N947 N 0.58422 -0.13637 0.63473
 N948 N 0.59770 -0.15345 0.65316
 C949 C 0.58423 -0.09599 0.60065
 C950 C 0.55353 -0.09860 0.59643
 C951 C 0.53954 -0.08269 0.57563
 C952 C 0.55592 -0.06390 0.55838
 C953 C 0.58650 -0.06069 0.56290
 C954 C 0.60052 -0.07653 0.58389
 H955 H 0.60640 -0.20098 0.68157
 H956 H 0.63198 -0.23450 0.71172
 H957 H 0.70650 -0.17357 0.71455
 H958 H 0.68126 -0.14152 0.68276
 H959 H 0.54025 -0.11319 0.60905
 H960 H 0.51589 -0.08553 0.57276
 H961 H 0.59963 -0.04622 0.55002
 H962 H 0.62420 -0.07395 0.58663
 C963 C 0.64534 0.32666 0.17617
 C964 C 0.63421 0.29803 0.18099
 C965 C 0.64890 0.27864 0.19870
 C966 C 0.67491 0.28752 0.21227
 C967 C 0.68583 0.31631 0.20767
 C968 C 0.67132 0.33559 0.18971
 C969 C 0.63000 0.34690 0.15693
 N970 N 0.64381 0.37139 0.14693
 N971 N 0.63014 0.38916 0.12915
 C972 C 0.60202 0.38326 0.12078
 N973 N 0.58820 0.35888 0.13094
 N974 N 0.60190 0.34105 0.14858
 C975 C 0.58689 0.40238 0.10045
 C976 C 0.55628 0.39931 0.09597
 C977 C 0.54206 0.41593 0.07578
 C978 C 0.55815 0.43582 0.05938
 C979 C 0.58862 0.43953 0.06425
 C980 C 0.60285 0.42305 0.08470
 H981 H 0.61437 0.29036 0.17072
 H982 H 0.64014 0.25649 0.20134
 H983 H 0.70550 0.32409 0.21815
 H984 H 0.68033 0.35758 0.18661
 H985 H 0.54326 0.38381 0.10789
 H986 H 0.51852 0.41265 0.07262
 H987 H 0.60151 0.45485 0.05201
 H988 H 0.62645 0.42596 0.08768
 C989 C 0.86429 0.16562 0.18356
 C990 C 0.83931 0.15611 0.19833
 C991 C 0.82402 0.17578 0.21524
 C992 C 0.83336 0.20537 0.21775
 C993 C 0.85859 0.21473 0.20334
 C994 C 0.87388 0.19510 0.18648
 C995 C 0.87968 0.14539 0.16445
 N996 N 0.90319 0.15512 0.14967
 N997 N 0.91623 0.13761 0.13148
 C998 C 0.90639 0.10956 0.12726
 N999 N 0.88307 0.09964 0.14227
 N1000 N 0.86999 0.11720 0.16049
 C1001 C 0.91988 0.09100 0.10565
 C1002 C 0.91085 0.06148 0.10151
 C1003 C 0.92241 0.04496 0.07978
 C1004 C 0.94291 0.05781 0.06171
 C1005 C 0.95248 0.08696 0.06635
 C1006 C 0.94122 0.10330 0.08808
 H1007 H 0.83137 0.13356 0.19665
 H1008 H 0.80488 0.16781 0.22639
 H1009 H 0.86613 0.23747 0.20457
 H1010 H 0.89298 0.20325 0.17538
 H1011 H 0.89456 0.05130 0.11477
 H1012 H 0.91477 0.02246 0.07672
 H1013 H 0.96852 0.09734 0.05294
 H1014 H 0.94883 0.12587 0.09067
 C1015 C 0.85802 0.67135 0.67750
 C1016 C 0.86932 0.69990 0.68223
 C1017 C 0.85485 0.71931 0.69993
 C1018 C 0.82890 0.71054 0.71361
 C1019 C 0.81784 0.68179 0.70915
 C1020 C 0.83212 0.66249 0.69117
 C1021 C 0.87306 0.65119 0.65815
 N1022 N 0.85889 0.62711 0.64778
 N1023 N 0.87231 0.60950 0.62981
 C1024 C 0.90053 0.61514 0.62164
 N1025 N 0.91471 0.63909 0.63217
 N1026 N 0.90126 0.65676 0.64999
 C1027 C 0.91543 0.59626 0.60111
 C1028 C 0.94614 0.59880 0.59705
 C1029 C 0.96021 0.58254 0.57667
 C1030 C 0.94389 0.56352 0.55963
 C1031 C 0.91331 0.56029 0.56407
 C1032 C 0.89921 0.57642 0.58472
 H1033 H 0.88910 0.70752 0.67185
 H1034 H 0.86371 0.74144 0.70241
 H1035 H 0.79821 0.67407 0.71971
 H1036 H 0.82299 0.64055 0.68814
 H1037 H 0.95935 0.61364 0.60946
 H1038 H 0.98386 0.58542 0.57387
 H1039 H 0.90023 0.54565 0.55133
 H1040 H 0.87551 0.57394 0.58737
 C1041 C 0.35965 0.17024 0.68070
 C1042 C 0.37041 0.19915 0.68467
 C1043 C 0.35553 0.21882 0.70184
 C1044 C 0.32974 0.20993 0.71571
 C1045 C 0.31935 0.18079 0.71214
 C1046 C 0.33402 0.16125 0.69470
 C1047 C 0.37475 0.14986 0.66161
 N1048 N 0.36068 0.12544 0.65184
 N1049 N 0.37398 0.10767 0.63395
 C1050 C 0.40197 0.11350 0.62525
 N1051 N 0.41608 0.13778 0.63522
 N1052 N 0.40274 0.15562 0.65297
 C1053 C 0.41652 0.09456 0.60460
 C1054 C 0.44711 0.09723 0.59990
 C1055 C 0.46071 0.08104 0.57920
 C1056 C 0.44400 0.06201 0.56249
 C1057 C 0.41358 0.05858 0.56764
 C1058 C 0.39997 0.07462 0.58861
 H1059 H 0.39000 0.20683 0.67402
 H1060 H 0.36388 0.24121 0.70373
 H1061 H 0.29988 0.17302 0.72290
 H1062 H 0.32533 0.13904 0.69227
 H1063 H 0.46055 0.11216 0.61200
 H1064 H 0.48425 0.08406 0.57582
 H1065 H 0.40023 0.04392 0.55518
 H1066 H 0.37636 0.07204 0.59176
 C1067 C 0.35995 0.66955 0.18045
 C1068 C 0.37140 0.69797 0.18562
 C1069 C 0.35632 0.71762 0.20270
 C1070 C 0.32958 0.70922 0.21525
 C1071 C 0.31859 0.68047 0.21063
 C1072 C 0.33348 0.66095 0.19331
 C1073 C 0.37517 0.64930 0.16126
 N1074 N 0.36098 0.62525 0.15086
 N1075 N 0.37436 0.60765 0.13287
 C1076 C 0.40256 0.61328 0.12464
 N1077 N 0.41680 0.63719 0.13522
 N1078 N 0.40338 0.65486 0.15308
 C1079 C 0.41727 0.59447 0.10391
 C1080 C 0.44785 0.59729 0.09924
 C1081 C 0.46162 0.58107 0.07863
 C1082 C 0.44510 0.56181 0.06198
 C1083 C 0.41466 0.55830 0.06705
 C1084 C 0.40089 0.57439 0.08791
 H1085 H 0.39168 0.70535 0.17594
 H1086 H 0.36525 0.73968 0.20549
 H1087 H 0.29842 0.67298 0.22043
 H1088 H 0.32424 0.63911 0.19001
 H1089 H 0.46119 0.61233 0.11133
 H1090 H 0.48516 0.58419 0.07533
 H1091 H 0.40143 0.54349 0.05462
 H1092 H 0.37729 0.57167 0.09102
   
