data_POSCAR
  _audit_creation_date              2014-09-24
  _audit_creation_method            'ToBaCCo'
  _symmetry_space_group_name_H-M    'P1'
  _symmetry_Int_Tables_number       1
  _symmetry_cell_setting            triclinic
  loop_
  _symmetry_equiv_pos_as_xyz
 x,y,z
_cell_length_a 34.4131
_cell_length_b 33.1533
_cell_length_c 32.0661
_cell_angle_alpha 90.002500
_cell_angle_beta 89.058100
_cell_angle_gamma 90.161700
loop_
  _atom_site_label
  _atom_site_type_symbol
  _atom_site_fract_x
  _atom_site_fract_y
  _atom_site_fract_z
O1 O 0.36531 0.30830 -0.06500
 O2 O 0.33989 0.37406 0.02393
 O3 O 0.38873 0.32015 0.00575
 O4 O 0.30949 0.36631 -0.05364
 O5 O 0.26926 0.31885 -0.03135
 O6 O 0.34697 0.27630 0.03320
 O7 O 0.29396 0.33104 0.04359
 O8 O 0.32364 0.26270 -0.04096
 Cu9 Cu 0.35319 0.34787 -0.02581
 Cu10 Cu 0.30388 0.29283 0.00310
 C11 C 0.35120 0.27284 -0.06563
 C12 C 0.31285 0.36342 0.04911
 C13 C 0.38135 0.29004 0.02904
 C14 C 0.27577 0.35065 -0.05242
 O15 O 0.66086 0.64086 0.04953
 O16 O 0.61431 0.68873 -0.03948
 O17 O 0.65992 0.62175 -0.03121
 O18 O 0.62654 0.70366 0.03685
 O19 O 0.68105 0.73689 0.02282
 O20 O 0.71597 0.65276 -0.04248
 O21 O 0.67023 0.71647 -0.05841
 O22 O 0.71653 0.67110 0.03327
 Cu23 Cu 0.63533 0.65933 0.00336
 Cu24 Cu 0.70041 0.69843 -0.01422
 C25 C 0.69613 0.64862 0.05723
 C26 C 0.63415 0.71093 -0.06398
 C27 C 0.69410 0.62229 -0.04689
 C28 C 0.64894 0.73353 0.04268
 O29 O 0.65880 0.37151 0.95966
 O30 O 0.61803 0.33162 1.05773
 O31 O 0.66174 0.39192 1.03997
 O32 O 0.61597 0.31049 0.97993
 O33 O 0.66821 0.27301 0.98880
 O34 O 0.71505 0.35575 1.04661
 O35 O 0.67032 0.29401 1.06607
 O36 O 0.71179 0.33501 0.96752
 Cu37 Cu 0.63365 0.35551 1.00830
 Cu38 Cu 0.69685 0.31095 1.01789
 C39 C 0.69173 0.35954 0.94643
 C40 C 0.63695 0.30585 1.07832
 C41 C 0.69559 0.38741 1.05449
 C42 C 0.63418 0.27758 0.97486
 O43 O 0.30616 0.62014 0.97321
 O44 O 0.38909 0.66064 1.03009
 O45 O 0.32353 0.61742 1.04754
 O46 O 0.36683 0.65561 0.95027
 O47 O 0.33930 0.71477 0.96214
 O48 O 0.29944 0.67749 1.06253
 O49 O 0.35992 0.71927 1.03919
 O50 O 0.27437 0.67674 0.98634
 Cu51 Cu 0.35099 0.63360 1.00045
 Cu52 Cu 0.31502 0.70300 1.01325
 C53 C 0.27556 0.64124 0.97134
 C54 C 0.38910 0.69659 1.04381
 C55 C 0.30328 0.64028 1.07100
 C56 C 0.36024 0.69167 0.93950
 O57 O -0.03186 0.37639 0.29229
 O58 O 0.02941 0.30851 0.35680
 O59 O 0.04164 0.36325 0.29647
 O60 O -0.04275 0.33959 0.36233
 O61 O -0.05415 0.28470 0.32557
 O62 O 0.02784 0.31243 0.25474
 O63 O 0.01465 0.25833 0.31445
 O64 O -0.04714 0.32326 0.25410
 Cu65 Cu 0.00098 0.35124 0.33156
 Cu66 Cu -0.01558 0.29040 0.28338
 C67 C -0.04936 0.36066 0.26142
 C68 C 0.03187 0.27139 0.34620
 C69 C 0.04830 0.34327 0.26354
 C70 C -0.06229 0.30783 0.35625
 O71 O 0.02453 0.69180 0.64275
 O72 O -0.04035 0.62986 0.71133
 O73 O -0.04938 0.66637 0.64385
 O74 O 0.03365 0.63615 0.70405
 O75 O 0.02945 0.69100 0.74279
 O76 O -0.05541 0.72275 0.67984
 O77 O -0.04589 0.68288 0.75285
 O78 O 0.01646 0.74343 0.68581
 Cu79 Cu -0.00589 0.65139 0.67075
 Cu80 Cu -0.01534 0.71428 0.71900
 C81 C 0.03020 0.72880 0.65239
 C82 C -0.05421 0.64670 0.74407
 C83 C -0.06650 0.69941 0.65069
 C84 C 0.04562 0.65747 0.73383
 O85 O 0.97348 0.69289 0.36697
 O86 O 1.03855 0.62725 0.30262
 O87 O 1.04881 0.66796 0.36830
 O88 O 0.96715 0.64201 0.30151
 O89 O 0.98031 0.69501 0.26183
 O90 O 1.05928 0.72412 0.33281
 O91 O 1.05304 0.68065 0.26398
 O92 O 0.98761 0.74423 0.32556
 Cu93 Cu 1.00466 0.65364 0.34002
 Cu94 Cu 1.02147 0.71633 0.29223
 C95 C 0.96985 0.72988 0.35704
 C96 C 1.05590 0.64321 0.27135
 C97 C 1.06768 0.70046 0.36254
 C98 C 0.96123 0.66274 0.26901
 O99 O 0.97094 0.30618 0.62099
 O100 O 1.04653 0.37472 0.65943
 O101 O 1.04581 0.30555 0.62193
 O102 O 0.97015 0.37518 0.65854
 O103 O 0.96898 0.34688 0.72096
 O104 O 1.04101 0.27280 0.68176
 O105 O 1.04456 0.34399 0.72056
 O106 O 0.96533 0.27857 0.68358
 Cu107 Cu 1.00875 0.34377 0.63428
 Cu108 Cu 1.00537 0.30738 0.70799
 C109 C 0.95475 0.28132 0.64593
 C110 C 1.05850 0.37094 0.69642
 C111 C 1.05522 0.27627 0.64504
 C112 C 0.95630 0.37273 0.69540
 O113 O 0.37309 0.02794 0.29482
 O114 O 0.33522 -0.03924 0.37621
 O115 O 0.37380 -0.04919 0.30776
 O116 O 0.32954 0.03889 0.35973
 O117 O 0.27610 0.02982 0.32361
 O118 O 0.31923 -0.06018 0.27405
 O119 O 0.28071 -0.04750 0.34167
 O120 O 0.32125 0.01645 0.25677
 Cu121 Cu 0.35806 -0.00432 0.33851
 Cu122 Cu 0.29367 -0.01569 0.29555
 C123 C 0.35436 0.03289 0.26157
 C124 C 0.30224 -0.05575 0.37234
 C125 C 0.35374 -0.07008 0.28270
 C126 C 0.29550 0.04968 0.34995
 O127 O 0.64181 0.04800 0.67607
 O128 O 0.66590 -0.04723 0.62550
 O129 O 0.62611 -0.02785 0.69366
 O130 O 0.69661 0.02570 0.62360
 O131 O 0.74249 0.01358 0.66929
 O132 O 0.67355 -0.03735 0.73821
 O133 O 0.71287 -0.05779 0.67040
 O134 O 0.68739 0.03838 0.72286
 Cu135 Cu 0.65349 0.00030 0.65087
 Cu136 Cu 0.70818 -0.01136 0.70437
 C137 C 0.65949 0.05908 0.70841
 C138 C 0.69355 -0.06857 0.63862
 C139 C 0.63823 -0.04083 0.72856
 C140 C 0.73198 0.02814 0.63486
 O141 O 0.32959 1.03874 0.60884
 O142 O 0.36300 0.96220 0.68368
 O143 O 0.30660 0.96500 0.62796
 O144 O 0.38486 1.03407 0.65978
 O145 O 0.34646 1.05823 0.70975
 O146 O 0.26705 0.99175 0.67525
 O147 O 0.32233 0.98687 0.73114
 O148 O 0.29013 1.06367 0.65747
 Cu149 Cu 0.34966 0.99666 0.64019
 Cu150 Cu 0.30255 1.02726 0.69844
 C151 C 0.30478 1.06469 0.62098
 C152 C 0.34893 0.96238 0.72058
 C153 C 0.27316 0.96764 0.64510
 C154 C 0.37870 1.05822 0.68982
 O155 O 0.62606 0.96421 0.35520
 O156 O 0.69326 1.04652 0.38113
 O157 O 0.62298 1.04283 0.35363
 O158 O 0.69490 0.96877 0.38821
 O159 O 0.71830 0.96444 0.32378
 O160 O 0.64828 1.04164 0.28984
 O161 O 0.71944 1.04251 0.31788
 O162 O 0.64931 0.96390 0.29053
 Cu163 Cu 0.65669 1.00578 0.37593
 Cu164 Cu 0.68638 1.00291 0.29909
 C165 C 0.62587 0.95061 0.31816
 C166 C 0.71841 1.05784 0.35410
 C167 C 0.62341 1.05495 0.31612
 C168 C 0.71890 0.95403 0.36196
 O169 O 0.80225 0.85680 0.55130
 O170 O 0.87909 0.82686 0.47779
 O171 O 0.81907 0.87400 0.47371
 O172 O 0.85967 0.80578 0.55397
 O173 O 0.82081 0.75765 0.53143
 O174 O 0.78558 0.82289 0.44829
 O175 O 0.84436 0.77491 0.45641
 O176 O 0.76374 0.80986 0.52572
 Cu177 Cu 0.84367 0.84576 0.51664
 Cu178 Cu 0.79973 0.78636 0.48850
 C179 C 0.76953 0.83930 0.55039
 C180 C 0.87529 0.79601 0.45481
 C181 C 0.79611 0.85951 0.44678
 C182 C 0.84700 0.76972 0.55585
 O183 O 0.19699 0.12861 0.52574
 O184 O 0.12139 0.16314 0.45527
 O185 O 0.18921 0.12272 0.44899
 O186 O 0.13272 0.16102 0.53876
 O187 O 0.15845 0.22157 0.52951
 O188 O 0.21609 0.18282 0.44022
 O189 O 0.14953 0.22267 0.44854
 O190 O 0.22667 0.18753 0.51850
 Cu191 Cu 0.15562 0.13892 0.49151
 Cu192 Cu 0.19013 0.20989 0.48332
 C193 C 0.22534 0.15194 0.53320
 C194 C 0.12230 0.19841 0.43988
 C195 C 0.21394 0.14557 0.43091
 C196 C 0.13654 0.19749 0.55000
 O197 O 0.11345 0.82985 0.52906
 O198 O 0.19070 0.86719 0.45978
 O199 O 0.13791 0.81004 0.45500
 O200 O 0.16713 0.88386 0.53516
 O201 O 0.20829 0.83962 0.56083
 O202 O 0.17772 0.76550 0.48233
 O203 O 0.23137 0.82304 0.48637
 O204 O 0.15300 0.78486 0.55617
 Cu205 Cu 0.14837 0.85209 0.49180
 Cu206 Cu 0.19670 0.79859 0.52376
 C207 C 0.11974 0.80130 0.55433
 C208 C 0.22456 0.85258 0.46232
 C209 C 0.15191 0.77462 0.45616
 C210 C 0.19302 0.87443 0.56126
 O211 O 0.83603 0.13468 0.44398
 O212 O 0.88347 0.18314 0.53261
 O213 O 0.84130 0.11753 0.52331
 O214 O 0.87568 0.19882 0.45400
 O215 O 0.82377 0.23452 0.47140
 O216 O 0.78623 0.14984 0.53552
 O217 O 0.82841 0.21332 0.55010
 O218 O 0.78241 0.16908 0.45784
 Cu219 Cu 0.86452 0.15491 0.48741
 Cu220 Cu 0.79986 0.19539 0.50503
 C221 C 0.80135 0.14403 0.43559
 C222 C 0.86401 0.20616 0.55663
 C223 C 0.80781 0.11930 0.54057
 C224 C 0.85567 0.23073 0.45121
 O225 O 0.44592 0.87445 0.83751
 O226 O 0.52408 0.80888 0.87424
 O227 O 0.52196 0.87944 0.83921
 O228 O 0.44928 0.80425 0.87143
 O229 O 0.45535 0.77456 0.81002
 O230 O 0.52468 0.85367 0.77570
 O231 O 0.53121 0.78372 0.81078
 O232 O 0.44944 0.84632 0.77513
 Cu233 Cu 0.48487 0.84479 0.86172
 Cu234 Cu 0.49033 0.81161 0.78659
 C235 C 0.43402 0.87132 0.80041
 C236 C 0.54142 0.78561 0.84866
 C237 C 0.53587 0.87942 0.80227
 C238 C 0.44044 0.77610 0.84653
 O239 O 0.55297 0.18723 0.14619
 O240 O 0.47009 0.11744 0.16114
 O241 O 0.48732 0.17900 0.11240
 O242 O 0.53846 0.12756 0.19685
 O243 O 0.51287 0.17030 0.24235
 O244 O 0.45753 0.21823 0.15848
 O245 O 0.44558 0.15768 0.20968
 O246 O 0.52521 0.22977 0.19049
 Cu247 Cu 0.51460 0.14799 0.14979
 Cu248 Cu 0.48253 0.19801 0.20493
 C249 C 0.55228 0.22116 0.16459
 C250 C 0.44409 0.12544 0.18845
 C251 C 0.46451 0.20794 0.12096
 C252 C 0.53500 0.14075 0.23393
 O253 O 0.46476 0.15940 0.86702
 O254 O 0.55286 0.12350 0.81150
 O255 O 0.54014 0.15857 0.88310
 O256 O 0.47848 0.11930 0.80038
 O257 O 0.48515 0.17663 0.76578
 O258 O 0.54353 0.21789 0.85194
 O259 O 0.55885 0.18290 0.78085
 O260 O 0.46940 0.21768 0.83393
 Cu261 Cu 0.50876 0.13458 0.84420
 Cu262 Cu 0.51460 0.20473 0.80504
 C263 C 0.45150 0.19426 0.85897
 C264 C 0.57076 0.14717 0.78649
 C265 C 0.55266 0.19454 0.88166
 C266 C 0.47162 0.14094 0.76881
 O267 O 0.48165 0.80983 0.12845
 O268 O 0.53368 0.87154 0.20692
 O269 O 0.55247 0.83708 0.13639
 O270 O 0.46069 0.86075 0.18780
 O271 O 0.46440 0.80663 0.22768
 O272 O 0.55854 0.78287 0.17582
 O273 O 0.53803 0.81722 0.24650
 O274 O 0.48999 0.75656 0.16880
 Cu275 Cu 0.50641 0.85008 0.16124
 Cu276 Cu 0.51274 0.78631 0.20886
 C277 C 0.47824 0.77198 0.13528
 C278 C 0.54431 0.85435 0.24046
 C279 C 0.57086 0.80574 0.14641
 C280 C 0.44698 0.83859 0.21651
 O281 O 0.86313 0.52466 0.83939
 O282 O 0.80296 0.43580 0.86137
 O283 O 0.86233 0.45099 0.80968
 O284 O 0.79982 0.51040 0.88251
 O285 O 0.76319 0.52781 0.82944
 O286 O 0.82260 0.46676 0.75886
 O287 O 0.76335 0.45324 0.81102
 O288 O 0.82691 0.54011 0.78546
 Cu289 Cu 0.83621 0.47860 0.85316
 Cu290 Cu 0.79054 0.49830 0.79073
 C291 C 0.85566 0.54729 0.80879
 C292 C 0.77137 0.43114 0.84217
 C293 C 0.85310 0.44969 0.77137
 C294 C 0.77029 0.52837 0.86803
 O295 O 0.13620 0.52729 0.15965
 O296 O 0.20934 0.45525 0.12334
 O297 O 0.14106 0.44762 0.15633
 O298 O 0.20554 0.53216 0.12808
 O299 O 0.22734 0.53489 0.19253
 O300 O 0.16673 0.44607 0.21896
 O301 O 0.23734 0.45805 0.18479
 O302 O 0.15872 0.52513 0.22371
 Cu303 Cu 0.17003 0.49053 0.13578
 Cu304 Cu 0.19975 0.49017 0.21162
 C305 C 0.13541 0.53938 0.19719
 C306 C 0.23685 0.44583 0.14717
 C307 C 0.14344 0.43194 0.19227
 C308 C 0.22701 0.54817 0.15541
 O309 O 0.80768 0.56028 0.12246
 O310 O 0.87466 0.48027 0.15376
 O311 O 0.80699 0.48579 0.11424
 O312 O 0.87457 0.56267 0.15219
 O313 O 0.84991 0.55748 0.21601
 O314 O 0.77928 0.48289 0.17690
 O315 O 0.84723 0.47784 0.21633
 O316 O 0.78061 0.55875 0.18549
 Cu317 Cu 0.84534 0.52119 0.13047
 Cu318 Cu 0.81216 0.51837 0.20533
 C319 C 0.78191 0.57228 0.14846
 C320 C 0.87205 0.46498 0.18998
 C321 C 0.77992 0.47344 0.13838
 C322 C 0.87307 0.57418 0.18991
 O323 O 0.11932 0.46694 0.81552
 O324 O 0.15583 0.53753 0.89521
 O325 O 0.11460 0.54378 0.82905
 O326 O 0.15855 0.45828 0.88368
 O327 O 0.21274 0.46524 0.84656
 O328 O 0.17043 0.55552 0.79615
 O329 O 0.21162 0.54220 0.86046
 O330 O 0.17254 0.47815 0.77787
 Cu331 Cu 0.13182 0.50049 0.85981
 Cu332 Cu 0.19724 0.51062 0.81633
 C333 C 0.13945 0.46158 0.78243
 C334 C 0.18985 0.55222 0.89096
 C335 C 0.13528 0.56493 0.80424
 C336 C 0.19273 0.44677 0.87430
 N337 N 0.30541 0.43156 0.13481
 N338 N 0.32704 0.41130 0.10733
 C339 C 0.30228 0.38893 0.08470
 C340 C 0.26511 0.39589 0.09905
 N341 N 0.26819 0.42253 0.13033
 H342 H 0.23822 0.38480 0.08614
 N343 N 0.71813 0.60289 0.15395
 N344 N 0.69367 0.62244 0.12977
 C345 C 0.71343 0.63124 0.09428
 C346 C 0.75061 0.61670 0.09728
 N347 N 0.75236 0.59910 0.13492
 H348 H 0.77307 0.61604 0.07323
 N349 N 0.70606 0.40378 0.84639
 N350 N 0.68332 0.38592 0.87460
 C351 C 0.70634 0.37452 0.90607
 C352 C 0.74398 0.38558 0.89614
 N353 N 0.74260 0.40398 0.85870
 H354 H 0.76893 0.38454 0.91624
 N355 N 0.18182 0.60700 0.94140
 N356 N 0.20396 0.63286 0.96198
 C357 C 0.24115 0.62317 0.95263
 C358 C 0.24121 0.59059 0.92615
 N359 N 0.20380 0.58136 0.91995
 H360 H 0.26606 0.57509 0.91264
 N361 N 0.06941 0.18342 0.39381
 N362 N 0.04523 0.20184 0.36859
 C363 C 0.05297 0.24166 0.37094
 C364 C 0.08304 0.24724 0.39847
 N365 N 0.09242 0.20997 0.41187
 H366 H 0.09693 0.27519 0.40741
 N367 N 0.05983 0.81309 0.59209
 N368 N 0.03554 0.79468 0.61811
 C369 C 0.04933 0.75713 0.62379
 C370 C 0.08336 0.75298 0.60070
 N371 N 0.08877 0.78883 0.58154
 H372 H 0.10241 0.72712 0.59854
 N373 N 0.92960 0.81429 0.41015
 N374 N 0.95474 0.79784 0.38367
 C375 C 0.94693 0.75800 0.38273
 C376 C 0.91575 0.75038 0.40945
 N377 N 0.90589 0.78651 0.42580
 H378 H 0.90178 0.72180 0.41633
 N379 N 0.86795 0.22526 0.62980
 N380 N 0.89208 0.24436 0.65493
 C381 C 0.92278 0.25614 0.63118
 C382 C 0.91696 0.24355 0.59083
 N383 N 0.88253 0.22442 0.59137
 H384 H 0.93544 0.24851 0.56363
 N385 N 0.39603 0.07450 0.16871
 N386 N 0.37054 0.04996 0.18729
 C387 C 0.37226 0.05762 0.22856
 C388 C 0.39940 0.08749 0.23471
 N389 N 0.41346 0.09724 0.19679
 H390 H 0.40949 0.09946 0.26406
 N391 N 0.62429 0.15547 0.73651
 N392 N 0.64955 0.13282 0.71548
 C393 C 0.64563 0.09497 0.73033
 C394 C 0.61655 0.09490 0.76041
 N395 N 0.60411 0.13318 0.76348
 H396 H 0.60331 0.06900 0.77560
 N397 N 0.37793 0.91382 0.81363
 N398 N 0.35423 0.93788 0.79321
 C399 C 0.36455 0.93559 0.75253
 C400 C 0.39533 0.90914 0.74852
 N401 N 0.40274 0.89636 0.78741
 H402 H 0.41210 0.90184 0.72067
 N403 N 0.56035 0.86794 0.31251
 N404 N 0.58151 0.89335 0.33459
 C405 C 0.59831 0.91896 0.30706
 C406 C 0.58661 0.90887 0.26746
 N407 N 0.56296 0.87692 0.27233
 H408 H 0.59505 0.92271 0.23809
 N409 N 0.38872 0.18179 0.89250
 N410 N 0.36036 0.20212 0.91131
 C411 C 0.36961 0.24161 0.90838
 C412 C 0.40475 0.24485 0.88713
 N413 N 0.41569 0.20689 0.87805
 H414 H 0.42218 0.27170 0.88202
 N415 N 0.60499 0.75428 0.83981
 N416 N 0.63105 0.73520 0.86252
 C417 C 0.61509 0.73059 0.90093
 C418 C 0.57859 0.74758 0.90124
 N419 N 0.57342 0.76200 0.86255
 H420 H 0.55818 0.75000 0.92717
 N421 N 0.47778 0.70943 0.09707
 N422 N 0.45457 0.68806 0.07311
 C423 C 0.42340 0.71129 0.06568
 C424 C 0.42841 0.74803 0.08546
 N425 N 0.46282 0.74548 0.10460
 H426 H 0.40805 0.77276 0.08817
 N427 N 0.58013 0.28830 0.16921
 N428 N 0.60305 0.31225 0.14663
 C429 C 0.61905 0.28928 0.11624
 C430 C 0.60490 0.25057 0.12058
 N431 N 0.58069 0.25119 0.15397
 H432 H 0.60805 0.22589 0.09866
 N433 N 0.29400 0.14377 0.54732
 N434 N 0.31652 0.11937 0.56898
 C435 C 0.29249 0.09629 0.59256
 C436 C 0.25482 0.10714 0.58499
 N437 N 0.25696 0.13686 0.55666
 H438 H 0.22840 0.09348 0.59730
 N439 N 0.79990 0.11891 0.36443
 N440 N 0.77767 0.09552 0.34123
 C441 C 0.74611 0.08619 0.36488
 C442 C 0.74920 0.10511 0.40290
 N443 N 0.78308 0.12509 0.40127
 H444 H 0.73024 0.10232 0.43006
 N445 N 0.70120 0.84820 0.56920
 N446 N 0.67965 0.87284 0.59248
 C447 C 0.70441 0.89506 0.61531
 C448 C 0.74172 0.88355 0.60514
 N449 N 0.73854 0.85438 0.57621
 H450 H 0.76852 0.89772 0.61474
 N451 N 0.29279 0.86807 0.44993
 N452 N 0.31434 0.89360 0.42767
 C453 C 0.28986 0.91389 0.40289
 C454 C 0.25272 0.89987 0.41024
 N455 N 0.25582 0.87132 0.43978
 H456 H 0.22601 0.91016 0.39644
 N457 N 0.13648 0.44018 0.71005
 N458 N 0.11518 0.41671 0.68595
 C459 C 0.08885 0.39831 0.71112
 C460 C 0.09444 0.41136 0.75144
 N461 N 0.12440 0.43749 0.74935
 H462 H 0.07774 0.40360 0.77922
 N463 N 0.09756 0.59822 0.18087
 N464 N 0.07754 0.62711 0.19970
 C465 C 0.07695 0.61840 0.24074
 C466 C 0.09731 0.58300 0.24668
 N467 N 0.10968 0.57153 0.20838
 H468 H 0.10307 0.56761 0.27569
 N469 N 0.90881 0.40525 0.17220
 N470 N 0.92909 0.37658 0.19038
 C471 C 0.92985 0.38550 0.23138
 C472 C 0.90915 0.42063 0.23800
 N473 N 0.89650 0.43180 0.20016
 H474 H 0.90360 0.43624 0.26714
 N475 N 0.89237 0.60604 0.83007
 N476 N 0.91665 0.63304 0.81383
 C477 C 0.92031 0.62435 0.77287
 C478 C 0.89713 0.59150 0.76422
 N479 N 0.88013 0.58123 0.80075
 H480 H 0.89363 0.57608 0.73475
 N481 N 0.70777 0.53021 0.90301
 N482 N 0.68588 0.55528 0.92521
 C483 C 0.70744 0.58870 0.93140
 C484 C 0.74354 0.58325 0.91262
 N485 N 0.74245 0.54624 0.89562
 H486 H 0.76758 0.60433 0.91038
 N487 N 0.18617 0.38324 0.91140
 N488 N 0.20778 0.35647 0.93097
 C489 C 0.24498 0.36904 0.92720
 C490 C 0.24555 0.40441 0.90408
 N491 N 0.20818 0.41217 0.89505
 H492 H 0.27021 0.42351 0.89640
 N493 N 0.24424 0.61910 0.15758
 N494 N 0.26391 0.64545 0.13429
 C495 C 0.28333 0.62391 0.10500
 C496 C 0.27499 0.58363 0.11101
 N497 N 0.25057 0.58195 0.14403
 H498 H 0.28296 0.55843 0.09117
 N499 N 0.71195 0.46780 0.12206
 N500 N 0.68876 0.44666 0.09775
 C501 C 0.71053 0.41707 0.08055
 C502 C 0.74806 0.42082 0.09505
 N503 N 0.74750 0.45268 0.12111
 H504 H 0.77333 0.40296 0.08678
 N505 N 0.86182 0.70173 0.57596
 N506 N 0.88548 0.68179 0.60049
 C507 C 0.90303 0.70932 0.62476
 C508 C 0.88933 0.74720 0.61430
 N509 N 0.86392 0.74093 0.58330
 H510 H 0.89930 0.77627 0.62526
 N511 N 0.87093 0.30122 0.43885
 N512 N 0.89409 0.32296 0.41418
 C513 C 0.90834 0.29772 0.38469
 C514 C 0.89322 0.25979 0.39203
 N515 N 0.87025 0.26324 0.42621
 H516 H 0.90092 0.23183 0.37654
 N517 N 0.10877 0.19015 0.62012
 N518 N 0.08731 0.21114 0.64713
 C519 C 0.08031 0.24709 0.62904
 C520 C 0.09853 0.24771 0.59037
 N521 N 0.11579 0.21169 0.58603
 H522 H 0.09791 0.27124 0.56695
 N523 N 0.13575 0.70512 0.44150
 N524 N 0.11207 0.68415 0.41759
 C525 C 0.09712 0.71030 0.38999
 C526 C 0.11248 0.74812 0.39766
 N527 N 0.13624 0.74356 0.43031
 H528 H 0.10455 0.77654 0.38353
 N529 N 0.58735 0.92607 0.81949
 N530 N 0.61547 0.94697 0.80091
 C531 C 0.61139 0.94174 0.75953
 C532 C 0.57986 0.91682 0.75312
 N533 N 0.56579 0.90769 0.79144
 H534 H 0.56915 0.90532 0.72386
 N535 N 0.37705 0.83985 0.22726
 N536 N 0.35088 0.86513 0.24309
 C537 C 0.37084 0.89394 0.26344
 C538 C 0.40977 0.88545 0.25993
 N539 N 0.41248 0.85131 0.23761
 H540 H 0.43396 0.90394 0.26976
 N541 N 0.54896 0.12857 0.30696
 N542 N 0.57200 0.10601 0.32997
 C543 C 0.59444 0.08456 0.30323
 C544 C 0.58438 0.09445 0.26307
 N545 N 0.55588 0.12194 0.26682
 H546 H 0.59618 0.08251 0.23411
 N547 N 0.45570 0.12986 0.69593
 N548 N 0.43199 0.10708 0.67372
 C549 C 0.40916 0.08686 0.70124
 C550 C 0.41954 0.09770 0.74092
 N551 N 0.44863 0.12453 0.73625
 H552 H 0.40783 0.08651 0.77027
 N553 N 0.62865 0.82033 0.10425
 N554 N 0.64994 0.80207 0.07504
 C555 C 0.63727 0.76360 0.07371
 C556 C 0.60838 0.75856 0.10341
 N557 N 0.60400 0.79448 0.12194
 H558 H 0.59004 0.73236 0.10854
 N559 N 0.46978 0.24213 0.05459
 N560 N 0.44901 0.26557 0.03017
 C561 C 0.41373 0.26930 0.04861
 C562 C 0.41335 0.24740 0.08523
 N563 N 0.44892 0.23094 0.08764
 H564 H 0.38974 0.24358 0.10762
 N565 N 0.60077 0.18379 0.93504
 N566 N 0.62373 0.20489 0.95967
 C567 C 0.61551 0.24408 0.95309
 C568 C 0.58688 0.24648 0.92356
 N569 N 0.57856 0.20818 0.91313
 H570 H 0.57380 0.27327 0.91061
 N571 N 0.41235 0.70853 0.84441
 N572 N 0.39097 0.68467 0.86887
 C573 C 0.37876 0.70740 0.90141
 C574 C 0.39345 0.74570 0.89640
 N575 N 0.41431 0.74519 0.86062
 H576 H 0.39186 0.77050 0.91835
 N577 N 0.79006 0.87714 0.37373
 N578 N 0.76960 0.90160 0.34993
 C579 C 0.74767 0.92446 0.37586
 C580 C 0.75563 0.91355 0.41646
 N581 N 0.78241 0.88420 0.41365
 H582 H 0.74221 0.92460 0.44500
 N583 N 0.18236 0.92956 0.61035
 N584 N 0.20288 0.95442 0.63380
 C585 C 0.24055 0.94402 0.62872
 C586 C 0.24249 0.91175 0.60155
 N587 N 0.20560 0.90367 0.59097
 H588 H 0.26817 0.89690 0.58915
 N589 N 0.27565 0.14631 0.39334
 N590 N 0.29887 0.12111 0.37286
 C591 C 0.27903 0.08629 0.36868
 C592 C 0.24282 0.09084 0.38723
 N593 N 0.24191 0.12878 0.40230
 H594 H 0.22043 0.06816 0.39159
 N595 N 0.81872 0.05965 0.58248
 N596 N 0.79946 0.03500 0.60790
 C597 C 0.76197 0.04671 0.60798
 C598 C 0.75877 0.07967 0.58191
 N599 N 0.79494 0.08677 0.56676
 H600 H 0.73318 0.09749 0.57576
 N601 N 0.91102 0.63514 0.17738
 N602 N 0.93373 0.66038 0.19789
 C603 C 0.93419 0.64755 0.23779
 C604 C 0.91102 0.61360 0.24116
 N605 N 0.89726 0.60686 0.20280
 H606 H 0.90638 0.59444 0.26815
 N607 N 0.87508 0.43828 0.70049
 N608 N 0.90273 0.41929 0.67927
 C609 C 0.92405 0.39928 0.70734
 C610 C 0.90857 0.40654 0.74675
 N611 N 0.87799 0.43103 0.74091
 H612 H 0.91843 0.39525 0.77642
 N613 N 0.13466 0.63619 0.78449
 N614 N 0.11055 0.66258 0.76760
 C615 C 0.07806 0.64192 0.75804
 C616 C 0.08301 0.60220 0.76931
 N617 N 0.11857 0.59985 0.78557
 H618 H 0.06296 0.57730 0.76546
 N619 N 0.10560 0.37211 0.17529
 N620 N 0.08057 0.34700 0.19360
 C621 C 0.07828 0.35780 0.23411
 C622 C 0.10283 0.39022 0.24014
 N623 N 0.11922 0.39819 0.20274
 H624 H 0.10616 0.40814 0.26809
   
