data_POSCAR
  _audit_creation_date              2014-09-24
  _audit_creation_method            'ToBaCCo'
  _symmetry_space_group_name_H-M    'P1'
  _symmetry_Int_Tables_number       1
  _symmetry_cell_setting            triclinic
  loop_
  _symmetry_equiv_pos_as_xyz
 x,y,z
_cell_length_a 30.7395
_cell_length_b 30.5061
_cell_length_c 41.6502
_cell_angle_alpha 90.234800
_cell_angle_beta 90.395500
_cell_angle_gamma 90.280100
loop_
  _atom_site_label
  _atom_site_type_symbol
  _atom_site_fract_x
  _atom_site_fract_y
  _atom_site_fract_z
C1 C -0.00522 0.54157 1.01679
 C2 C 0.00604 0.54120 0.98353
 C3 C 0.01347 0.50047 0.96848
 C4 C 0.00672 0.46057 0.98425
 C5 C -0.00516 0.46044 1.01714
 C6 C -0.01259 0.50113 1.03228
 H7 H -0.02065 0.50142 1.05756
 H8 H 0.02101 0.49932 0.94309
 C9 C 0.46097 -0.00558 0.51681
 C10 C 0.46011 0.00236 0.48338
 C11 C 0.49948 0.00614 0.46673
 C12 C 0.54021 0.00107 0.48214
 C13 C 0.54062 -0.00568 0.51599
 C14 C 0.50119 -0.00992 0.53248
 H15 H 0.50190 -0.01441 0.55831
 H16 H 0.49791 0.01099 0.44099
 C17 C 0.08690 0.00832 0.26442
 H18 H 0.08894 0.00910 0.23850
 C19 C 0.12482 0.00997 0.28303
 H20 H 0.15597 0.01194 0.27114
 C21 C 0.04353 0.00499 0.31115
 H22 H 0.01181 0.00359 0.32206
 C23 C 0.08061 0.00660 0.33069
 H24 H 0.07682 0.00600 0.35651
 N25 N 0.04733 0.00511 0.27863
 C26 C -0.03622 -0.05847 0.20709
 H27 H -0.06285 -0.03545 0.20604
 C28 C -0.03732 -0.09625 0.18804
 H29 H -0.06500 -0.10193 0.17233
 C30 C 0.03195 -0.07885 0.22913
 H31 H 0.05862 -0.07234 0.24547
 C32 C 0.03218 -0.11704 0.21054
 H33 H 0.05943 -0.13921 0.21267
 Zn34 Zn -0.00231 0.00209 0.25149
 N35 N -0.00162 -0.05013 0.22672
 C36 C -0.00133 0.04762 0.19195
 N37 N -0.00101 0.05189 0.22447
 C38 C 0.00108 0.09203 0.23872
 C39 C 0.00135 0.13002 0.22013
 C40 C -0.00108 0.08473 0.17244
 C41 C -0.06117 -0.03309 0.29576
 C42 C -0.09865 -0.03497 0.31450
 C43 C -0.12141 0.03388 0.29156
 C44 C -0.08350 0.03444 0.27330
 N45 N -0.05397 0.00160 0.27606
 H46 H -0.00183 0.01548 0.18101
 H47 H 0.00203 0.09447 0.26464
 H48 H 0.00245 0.16162 0.23204
 H49 H -0.00180 0.08052 0.14661
 H50 H -0.03752 -0.05918 0.29707
 H51 H -0.10346 -0.06268 0.33026
 H52 H -0.14425 0.06058 0.28912
 H53 H -0.07790 0.06114 0.25689
 C54 C -0.00263 -0.12603 0.18945
 C55 C 0.12201 0.00875 0.31667
 C56 C -0.12928 -0.00101 0.31269
 C57 C -0.00010 0.12668 0.18649
 C58 C -0.00061 0.08892 0.76109
 H59 H -0.00190 0.09088 0.73517
 C60 C -0.00064 0.12724 0.77954
 H61 H -0.00191 0.15861 0.76752
 C62 C 0.00240 0.04536 0.80800
 H63 H 0.00303 0.01343 0.81905
 C64 C 0.00239 0.08283 0.82738
 H65 H 0.00342 0.07910 0.85321
 N66 N 0.00162 0.04905 0.77547
 C67 C 0.06054 -0.03668 0.70394
 H68 H 0.03673 -0.06288 0.70278
 C69 C 0.09789 -0.03872 0.68508
 H70 H 0.10243 -0.06667 0.66937
 C71 C 0.08346 0.03126 0.72618
 H72 H 0.07814 0.05817 0.74257
 C73 C 0.12125 0.03054 0.70780
 H74 H 0.14429 0.05733 0.71012
 Zn75 Zn 0.00236 -0.00117 0.74855
 N76 N 0.05371 -0.00174 0.72361
 C77 C -0.04440 0.00054 0.68926
 N78 N -0.04767 0.00119 0.72181
 C79 C -0.08699 0.00443 0.73636
 C80 C -0.12520 0.00559 0.71808
 C81 C -0.08179 0.00165 0.67004
 C82 C 0.03649 -0.06103 0.79285
 C83 C 0.03770 -0.09873 0.81175
 C84 C -0.03201 -0.12021 0.78950
 C85 C -0.03188 -0.08210 0.77105
 N86 N 0.00175 -0.05309 0.77338
 H87 H -0.01286 -0.00090 0.67807
 H88 H -0.08861 0.00561 0.76229
 H89 H -0.15615 0.00760 0.73024
 H90 H -0.07842 0.00064 0.64419
 H91 H 0.06318 -0.03780 0.79383
 H92 H 0.06550 -0.10411 0.82731
 H93 H -0.05930 -0.14263 0.78740
 H94 H -0.05867 -0.07592 0.75482
 C95 C 0.12878 -0.00466 0.68674
 C96 C 0.00120 0.12452 0.81319
 C97 C 0.00298 -0.12883 0.81037
 C98 C -0.12295 0.00384 0.68442
 N99 N -0.02657 -0.38334 0.08290
 C100 C -0.00256 -0.34788 0.07461
 N101 N 0.02084 -0.34913 0.04719
 N102 N 0.01983 -0.38461 0.02844
 C103 C -0.00504 -0.42004 0.03609
 N104 N -0.02755 -0.41878 0.06412
 C105 C -0.00212 -0.30944 0.09459
 C106 C -0.00207 -0.27716 0.11137
 C107 C -0.00226 -0.23873 0.13134
 N108 N -0.03599 -0.21034 0.12998
 N109 N -0.03616 -0.17462 0.14849
 C110 C -0.00264 -0.16598 0.16906
 N111 N 0.03107 -0.19463 0.17030
 N112 N 0.03126 -0.23036 0.15179
 N113 N -0.02348 0.38652 0.08429
 C114 C -0.00620 0.34867 0.07322
 N115 N 0.01103 0.34769 0.04341
 N116 N 0.01089 0.38349 0.02521
 C117 C -0.00667 0.42167 0.03589
 N118 N -0.02358 0.42228 0.06604
 C119 C -0.00545 0.31028 0.09299
 C120 C -0.00454 0.27797 0.10954
 C121 C -0.00330 0.23944 0.12916
 N122 N -0.00382 0.19906 0.11548
 N123 N -0.00267 0.16327 0.13368
 C124 C -0.00089 0.16654 0.16623
 N125 N -0.00033 0.20716 0.17979
 N126 N -0.00149 0.24296 0.16159
 N127 N 0.38190 -0.03564 0.57951
 C128 C 0.34898 -0.00728 0.57371
 N129 N 0.35269 0.02167 0.54927
 N130 N 0.38815 0.02208 0.53106
 C131 C 0.42102 -0.00663 0.53650
 N132 N 0.41736 -0.03523 0.56128
 C133 C 0.31086 -0.00756 0.59340
 C134 C 0.27885 -0.00752 0.60996
 C135 C 0.24076 -0.00706 0.62968
 N136 N 0.23366 0.02674 0.65016
 N137 N 0.19818 0.02740 0.66832
 C138 C 0.16846 -0.00570 0.66670
 N139 N 0.17580 -0.03954 0.64612
 N140 N 0.21130 -0.04021 0.62794
 N141 N -0.37498 -0.03544 0.57534
 C142 C -0.34689 -0.00119 0.57317
 N143 N -0.35571 0.03163 0.55231
 N144 N -0.39140 0.03010 0.53400
 C145 C -0.41926 -0.00452 0.53573
 N146 N -0.41068 -0.03699 0.55703
 C147 C -0.30821 0.00026 0.59264
 C148 C -0.27562 0.00140 0.60889
 C149 C -0.23672 0.00257 0.62813
 N150 N -0.19712 0.00104 0.61409
 N151 N -0.16100 0.00167 0.63196
 C152 C -0.16314 0.00386 0.66452
 N153 N -0.20299 0.00546 0.67843
 N154 N -0.23912 0.00483 0.66057
 N155 N -0.01998 -0.35051 0.95233
 C156 C 0.00316 -0.34985 0.92478
 N157 N 0.02688 -0.38543 0.91662
 N158 N 0.02787 -0.42039 0.93566
 C159 C 0.00567 -0.42101 0.96384
 N160 N -0.01895 -0.38551 0.97134
 C161 C 0.00284 -0.31181 0.90463
 C162 C 0.00284 -0.27974 0.88781
 C163 C 0.00301 -0.24145 0.86791
 N164 N -0.03068 -0.23341 0.84766
 N165 N -0.03061 -0.19772 0.82933
 C166 C 0.00314 -0.16876 0.83056
 N167 N 0.03683 -0.17706 0.85092
 N168 N 0.03678 -0.21275 0.86926
 N169 N -0.02779 0.35699 0.94544
 C170 C 0.00633 0.34829 0.92602
 N171 N 0.04065 0.37638 0.92566
 N172 N 0.04096 0.41198 0.94433
 C173 C 0.00712 0.42044 0.96418
 N174 N -0.02749 0.39256 0.96410
 C175 C 0.00597 0.30979 0.90611
 C176 C 0.00534 0.27727 0.88957
 C177 C 0.00432 0.23838 0.87007
 N178 N 0.00520 0.19826 0.88390
 N179 N 0.00411 0.16212 0.86583
 C180 C 0.00206 0.16476 0.83328
 N181 N 0.00116 0.20513 0.81958
 N182 N 0.00225 0.24128 0.83764
 N183 N -0.38792 0.01224 0.41344
 C184 C -0.34948 -0.00162 0.42568
 N185 N -0.34752 -0.01459 0.45670
 N186 N -0.38292 -0.01354 0.47494
 C187 C -0.42165 0.00079 0.46310
 N188 N -0.42327 0.01326 0.43175
 C189 C -0.31132 -0.00234 0.40605
 C190 C -0.27930 -0.00263 0.38951
 C191 C -0.24124 -0.00252 0.36976
 N192 N -0.23389 0.03090 0.34915
 N193 N -0.19841 0.03127 0.33096
 C194 C -0.16898 -0.00177 0.33270
 N195 N -0.17659 -0.03523 0.35342
 N196 N -0.21207 -0.03561 0.37162
 N197 N 0.37826 0.03468 0.42271
 C198 C 0.34512 0.00651 0.42878
 N199 N 0.34953 -0.02299 0.45282
 N200 N 0.38591 -0.02414 0.47036
 C201 C 0.41905 0.00435 0.46461
 N202 N 0.41463 0.03354 0.44026
 C203 C 0.30614 0.00750 0.40965
 C204 C 0.27354 0.00824 0.39341
 C205 C 0.23490 0.00894 0.37391
 N206 N 0.19508 0.00736 0.38763
 N207 N 0.15923 0.00754 0.36946
 C208 C 0.16188 0.00930 0.33692
 N209 N 0.20194 0.01096 0.32334
 N210 N 0.23779 0.01078 0.34149
   
