data_POSCAR
  _audit_creation_date              2014-09-24
  _audit_creation_method            'ToBaCCo'
  _symmetry_space_group_name_H-M    'P1'
  _symmetry_Int_Tables_number       1
  _symmetry_cell_setting            triclinic
  loop_
  _symmetry_equiv_pos_as_xyz
 x,y,z
_cell_length_a 44.0676
_cell_length_b 44.0760
_cell_length_c 43.9998
_cell_angle_alpha 90.011400
_cell_angle_beta 90.039300
_cell_angle_gamma 89.977000
loop_
  _atom_site_label
  _atom_site_type_symbol
  _atom_site_fract_x
  _atom_site_fract_y
  _atom_site_fract_z
C1 C 0.16091 0.18272 0.20398
 C2 C 0.16112 0.20574 0.18187
 C3 C 0.18369 0.20612 0.16007
 C4 C 0.20620 0.18370 0.15992
 C5 C 0.20596 0.16108 0.18146
 C6 C 0.18322 0.16070 0.20377
 C7 C 0.14225 0.17667 0.22836
 N8 N 0.15275 0.15155 0.24326
 C9 C 0.17790 0.14182 0.22796
 C10 C 0.23065 0.14272 0.17587
 N11 N 0.24617 0.15375 0.15138
 C12 C 0.23099 0.17897 0.14166
 C13 C 0.17887 0.23098 0.14194
 N14 N 0.15390 0.24598 0.15209
 C15 C 0.14282 0.23060 0.17653
 H16 H 0.12298 0.19035 0.23491
 H17 H 0.19147 0.12211 0.23332
 H18 H 0.23691 0.12325 0.18941
 H19 H 0.23679 0.19292 0.12234
 H20 H 0.19250 0.23746 0.12255
 H21 H 0.12328 0.23726 0.18983
 C22 C -0.16050 0.81718 0.20650
 C23 C -0.16083 0.79419 0.18459
 C24 C -0.18269 0.79415 0.16219
 C25 C -0.20459 0.81719 0.16148
 C26 C -0.20422 0.84011 0.18291
 C27 C -0.18182 0.84011 0.20578
 C28 C -0.14212 0.82208 0.23108
 N29 N -0.15140 0.84762 0.24590
 C30 C -0.17575 0.85885 0.23021
 C31 C -0.22841 0.85894 0.17646
 N32 N -0.24366 0.84788 0.15174
 C33 C -0.22881 0.82228 0.14263
 C34 C -0.17771 0.76893 0.14437
 N35 N -0.15329 0.75368 0.15554
 C36 C -0.14288 0.76909 0.18019
 H37 H -0.12296 0.80796 0.23698
 H38 H -0.18888 0.87867 0.23628
 H39 H -0.23459 0.87872 0.18959
 H40 H -0.23445 0.80823 0.12331
 H41 H -0.19122 0.76200 0.12503
 H42 H -0.12342 0.76278 0.19381
 C43 C -0.16137 0.18142 -0.20567
 C44 C -0.16134 0.20387 -0.18304
 C45 C -0.18388 0.20432 -0.16109
 C46 C -0.20689 0.18220 -0.16157
 C47 C -0.20691 0.16043 -0.18407
 C48 C -0.18409 0.16003 -0.20616
 C49 C -0.14266 0.17551 -0.23007
 N50 N -0.15359 0.15097 -0.24560
 C51 C -0.17907 0.14156 -0.23073
 C52 C -0.23181 0.14236 -0.17968
 N53 N -0.24738 0.15227 -0.15481
 C54 C -0.23197 0.17677 -0.14358
 C55 C -0.17837 0.22907 -0.14272
 N56 N -0.15319 0.24367 -0.15309
 C57 C -0.14265 0.22821 -0.17767
 H58 H -0.12301 0.18885 -0.23613
 H59 H -0.19305 0.12229 -0.23658
 H60 H -0.23734 0.12290 -0.19356
 H61 H -0.23858 0.19034 -0.12422
 H62 H -0.19220 0.23635 -0.12375
 H63 H -0.12278 0.23417 -0.19081
 C64 C 0.15456 0.82589 -0.19899
 C65 C 0.15343 0.80264 -0.17723
 C66 C 0.17517 0.80121 -0.15462
 C67 C 0.19834 0.82297 -0.15345
 C68 C 0.19938 0.84585 -0.17476
 C69 C 0.17741 0.84722 -0.19780
 C70 C 0.13704 0.83243 -0.22404
 N71 N 0.14872 0.85726 -0.23847
 C72 C 0.17351 0.86631 -0.22217
 C73 C 0.22442 0.86332 -0.16833
 N74 N 0.23896 0.85161 -0.14354
 C75 C 0.22281 0.82676 -0.13447
 C76 C 0.16896 0.77603 -0.13725
 N77 N 0.14396 0.76205 -0.14875
 C78 C 0.13433 0.77829 -0.17324
 H79 H 0.11780 0.81912 -0.23139
 H80 H 0.18791 0.88552 -0.22709
 H81 H 0.23162 0.88263 -0.18161
 H82 H 0.22781 0.81240 -0.11522
 H83 H 0.18221 0.76811 -0.11812
 H84 H 0.11480 0.77293 -0.18715
 C85 C 0.17832 1.15733 0.79994
 C86 C 0.19995 1.15805 0.82332
 C87 C 0.19861 1.18044 0.84529
 C88 C 0.17557 1.20240 0.84418
 C89 C 0.15437 1.20164 0.82114
 C90 C 0.15564 1.17883 0.79894
 C91 C 0.17443 1.13862 0.77527
 N92 N 0.14971 1.14804 0.75905
 C93 C 0.13819 1.17279 0.77373
 C94 C 0.13540 1.22604 0.82517
 N95 N 0.14439 1.24196 0.85024
 C96 C 0.16907 1.22726 0.86196
 C97 C 0.22277 1.17597 0.86459
 N98 N 0.23880 1.15141 0.85489
 C99 C 0.22488 1.14034 0.82962
 H100 H 0.18860 1.11926 0.77022
 H101 H 0.11899 1.18626 0.76654
 H102 H 0.11627 1.23120 0.81070
 H103 H 0.18226 1.23426 0.88144
 H104 H 0.22814 1.18960 0.88434
 H105 H 0.23267 1.12124 0.81627
 C106 C 0.81900 0.84137 0.79490
 C107 C 0.79634 0.84228 0.81732
 C108 C 0.79523 0.82008 0.83958
 C109 C 0.81679 0.79656 0.83968
 C110 C 0.83873 0.79566 0.81740
 C111 C 0.83986 0.81814 0.79498
 C112 C 0.82560 0.85956 0.77028
 N113 N 0.85005 0.84782 0.75520
 C114 C 0.85870 0.82234 0.77055
 C115 C 0.85616 0.77042 0.82238
 N116 N 0.84568 0.75551 0.84742
 C117 C 0.82147 0.77167 0.85816
 C118 C 0.77051 0.82637 0.85767
 N119 N 0.75653 0.85172 0.84689
 C120 C 0.77236 0.86160 0.82226
 H121 H 0.81280 0.87945 0.76379
 H122 H 0.87769 0.80781 0.76513
 H123 H 0.87564 0.76422 0.80882
 H124 H 0.80759 0.76572 0.87751
 H125 H 0.76281 0.81291 0.87674
 H126 H 0.76688 0.88140 0.80880
 C127 C 0.18319 0.84020 1.20338
 C128 C 0.20615 0.83895 1.18148
 C129 C 0.20598 0.81654 1.15952
 C130 C 0.18255 0.79489 1.15932
 C131 C 0.15985 0.79622 1.18106
 C132 C 0.16014 0.81915 1.20322
 C133 C 0.17848 0.85912 1.22766
 N134 N 0.15290 0.85031 1.24272
 C135 C 0.14156 0.82573 1.22755
 C136 C 0.14074 0.77212 1.17599
 N137 N 0.15116 0.75603 1.15177
 C138 C 0.17673 0.76990 1.14139
 C139 C 0.23151 0.82085 1.14184
 N140 N 0.24705 0.84522 1.15279
 C141 C 0.23153 0.85636 1.17700
 H142 H 0.19286 0.87816 1.23327
 H143 H 0.12176 0.81273 1.23387
 H144 H 0.12062 0.76680 1.18904
 H145 H 0.19056 0.76203 1.12267
 H146 H 0.23851 0.80692 1.12283
 H147 H 0.23803 0.87594 1.19034
 C148 C 0.82282 1.15478 1.20071
 C149 C 0.80078 1.15508 1.17772
 C150 C 0.80137 1.17750 1.15588
 C151 C 0.82384 1.19985 1.15667
 C152 C 0.84569 1.19962 1.17924
 C153 C 0.84519 1.17672 1.20147
 C154 C 0.82705 1.13631 1.22542
 N155 N 0.85161 1.14620 1.24154
 C156 C 0.86279 1.17103 1.22671
 C157 C 0.86360 1.22492 1.17485
 N158 N 0.85285 1.24041 1.15034
 C159 C 0.82864 1.22503 1.13909
 C160 C 0.77677 1.17317 1.13725
 N161 N 0.76107 1.14860 1.14724
 C162 C 0.77570 1.13733 1.17202
 H163 H 0.81314 1.11681 1.23060
 H164 H 0.88174 1.18483 1.23391
 H165 H 0.88238 1.23202 1.18902
 H166 H 0.81527 1.23172 1.11956
 H167 H 0.77078 1.18702 1.11785
 H168 H 0.76821 1.11821 1.18549
 N169 N 0.46738 0.94652 0.96899
 N170 N 0.44409 0.92788 0.96679
 N171 N 0.52988 0.96790 0.94514
 N172 N 0.55261 0.96485 0.92590
 N173 N 0.53124 0.94708 0.96642
 N174 N 0.55496 0.92923 0.96217
 N175 N 0.46606 0.96748 0.94785
 N176 N 0.44187 0.96356 0.93055
 C177 C 0.42840 0.93870 0.94267
 C178 C 0.56805 0.94058 0.93672
 N179 N 0.53081 1.05406 0.96605
 N180 N 0.55413 1.07233 0.96157
 N181 N 0.46577 1.03304 0.94760
 N182 N 0.44166 1.03691 0.93015
 N183 N 0.46706 1.05422 0.96853
 N184 N 0.44393 1.07300 0.96597
 N185 N 0.52972 1.03305 0.94493
 N186 N 0.55237 1.03633 0.92562
 Mn187 Mn 0.49777 1.00036 0.94599
 C188 C 0.56738 1.06098 0.93622
 C189 C 0.42825 1.06200 0.94193
 N190 N 0.53359 0.94736 1.03194
 N191 N 0.55700 0.92894 1.03482
 N192 N 0.47013 0.96793 1.05517
 N193 N 0.44753 0.96407 1.07446
 N194 N 0.46976 0.94674 1.03419
 N195 N 0.44686 0.92796 1.03859
 N196 N 0.53398 0.96822 1.05325
 N197 N 0.55770 0.96448 1.07126
 Mn198 Mn 0.50055 0.94656 1.00038
 C199 C 0.57186 0.93986 1.05944
 C200 C 0.43320 0.93901 1.06383
 N201 N 0.46946 1.05438 1.03357
 N202 N 0.44610 1.07269 1.03701
 N203 N 0.53371 1.03350 1.05290
 N204 N 0.55751 1.03735 1.07072
 N205 N 0.53313 1.05423 1.03149
 N206 N 0.55641 1.07281 1.03421
 N207 N 0.46975 1.03354 1.05488
 N208 N 0.44652 1.03726 1.07354
 Mn209 Mn 0.50019 1.05455 0.99992
 Mn210 Mn 0.50185 1.00080 1.05448
 Cl211 Cl 0.50009 1.00055 1.00020
 C212 C 0.43200 1.06189 1.06205
 C213 C 0.57143 1.06202 1.05878
 N214 N 0.03215 0.46764 0.05163
 N215 N 0.03667 0.44436 0.06996
 N216 N 0.05217 0.53239 0.03158
 N217 N 0.07038 0.55586 0.03561
 N218 N 0.03145 0.53147 0.05299
 N219 N 0.03497 0.55425 0.07211
 N220 N 0.05300 0.46848 0.03035
 N221 N 0.07227 0.44578 0.03362
 C222 C 0.06179 0.43090 0.05843
 C223 C 0.05935 0.56929 0.06104
 N224 N 0.02943 0.53334 -0.05466
 N225 N 0.03209 0.55681 -0.07301
 N226 N 0.05175 0.46952 -0.03512
 N227 N 0.06976 0.44586 -0.03908
 N228 N 0.03003 0.46962 -0.05556
 N229 N 0.03263 0.44614 -0.07391
 N230 N 0.05095 0.53355 -0.03402
 N231 N 0.06887 0.55728 -0.03781
 Mn232 Mn 0.05239 0.50102 -0.00182
 C233 C 0.05679 0.57156 -0.06230
 C234 C 0.05756 0.43155 -0.06348
 N235 N -0.03379 0.53077 0.05406
 N236 N -0.03723 0.55334 0.07342
 N237 N -0.05481 0.46751 0.03208
 N238 N -0.07331 0.44429 0.03569
 N239 N -0.03324 0.46702 0.05267
 N240 N -0.03651 0.44345 0.07089
 N241 N -0.05522 0.53131 0.03332
 N242 N -0.07385 0.55432 0.03804
 Mn243 Mn -0.00085 0.49918 0.05320
 C244 C -0.06231 0.56785 0.06318
 C245 C -0.06164 0.42948 0.06000
 N246 N -0.03516 0.46903 -0.05452
 N247 N -0.03860 0.44603 -0.07337
 N248 N -0.05651 0.53253 -0.03227
 N249 N -0.07509 0.55589 -0.03551
 N250 N -0.03561 0.53280 -0.05350
 N251 N -0.03924 0.55629 -0.07163
 N252 N -0.05607 0.46850 -0.03331
 N253 N -0.07431 0.44500 -0.03715
 Mn254 Mn -0.00283 0.50118 -0.05487
 Mn255 Mn -0.05607 0.50000 -0.00002
 Cl256 Cl -0.00183 0.50035 -0.00086
 C257 C -0.06312 0.43121 -0.06232
 C258 C -0.06395 0.57050 -0.06023
 N259 N 0.94829 0.03175 0.53256
 N260 N 0.92989 0.03471 0.55596
 N261 N 0.96788 0.05350 0.46841
 N262 N 0.96371 0.07152 0.44478
 N263 N 0.94748 0.03179 0.46869
 N264 N 0.92898 0.03439 0.44529
 N265 N 0.96868 0.05348 0.53243
 N266 N 0.96456 0.07191 0.55577
 C267 C 0.94023 0.05985 0.57025
 C268 C 0.93928 0.05931 0.43061
 N269 N 1.05453 0.03391 0.46728
 N270 N 1.07246 0.03714 0.44358
 N271 N 1.03424 0.05481 0.53163
 N272 N 1.03774 0.07270 0.55551
 N273 N 1.05547 0.03392 0.53110
 N274 N 1.07389 0.03693 0.55449
 N275 N 1.03339 0.05490 0.46745
 N276 N 1.03651 0.07312 0.44376
 Mn277 Mn 1.00103 0.05464 0.49999
 C278 C 1.06107 0.06169 0.42909
 C279 C 1.06268 0.06123 0.56951
 N280 N 0.94872 -0.03353 0.46856
 N281 N 0.93013 -0.03743 0.44532
 N282 N 0.97111 -0.05410 0.53230
 N283 N 0.96820 -0.07273 0.55558
 N284 N 0.94954 -0.03355 0.53256
 N285 N 0.93130 -0.03771 0.55600
 N286 N 0.97027 -0.05409 0.46832
 N287 N 0.96702 -0.07245 0.44488
 Mn288 Mn 0.94814 -0.00087 0.50060
 C289 C 0.94184 -0.06185 0.43075
 C290 C 0.94324 -0.06226 0.57016
 N291 N 1.05684 -0.03111 0.53114
 N292 N 1.07506 -0.03331 0.55480
 N293 N 1.03555 -0.05285 0.46745
 N294 N 1.03924 -0.07105 0.44387
 N295 N 1.05591 -0.03115 0.46720
 N296 N 1.07395 -0.03390 0.44348
 N297 N 1.03641 -0.05276 0.53155
 N298 N 1.04026 -0.07036 0.55556
 Mn299 Mn 1.05600 0.00141 0.49916
 Mn300 Mn 1.00333 -0.05385 0.49991
 Cl301 Cl 1.00211 0.00034 0.49992
 C302 C 1.06457 -0.05796 0.56979
 C303 C 1.06336 -0.05891 0.42913
 C304 C 1.11512 0.11135 0.32092
 C305 C 1.14402 0.10255 0.31092
 C306 C 1.15647 0.11587 0.28511
 C307 C 1.14061 0.13850 0.26893
 C308 C 1.11191 0.14717 0.28036
 N309 N 1.10017 0.13356 0.30551
 C310 C 1.10083 0.09756 0.34816
 N311 N 1.07855 0.11299 0.36314
 C312 C 1.06505 0.10192 0.38868
 C313 C 1.07408 0.07384 0.40067
 C314 C 1.09640 0.05728 0.38521
 C315 C 1.10960 0.06885 0.35894
 H316 H 1.17897 0.10867 0.27865
 H317 H 1.09830 0.16420 0.26919
 H318 H 1.04769 0.11526 0.39983
 H319 H 1.10364 0.03524 0.39336
 H320 H 1.15743 0.08601 0.32312
 H321 H 1.12623 0.05514 0.34722
 C322 C 0.88949 -0.11576 0.32371
 C323 C 0.89664 -0.14532 0.31445
 C324 C 0.88296 -0.15747 0.28870
 C325 C 0.86160 -0.14060 0.27179
 C326 C 0.85432 -0.11132 0.28261
 N327 N 0.86831 -0.09988 0.30775
 C328 C 0.90395 -0.10179 0.35077
 N329 N 0.88960 -0.07860 0.36537
 C330 C 0.90133 -0.06523 0.39068
 C331 C 0.92905 -0.07528 0.40279
 C332 C 0.94453 -0.09863 0.38776
 C333 C 0.93224 -0.11175 0.36172
 H334 H 0.88886 -0.18051 0.28287
 H335 H 0.83821 -0.09704 0.27089
 H336 H 0.88884 -0.04704 0.40148
 H337 H 0.96622 -0.10670 0.39605
 H338 H 0.91221 -0.15942 0.32717
 H339 H 0.94511 -0.12923 0.35027
 C340 C 0.88422 0.11062 0.67691
 C341 C 0.85495 0.10250 0.68632
 C342 C 0.84239 0.11594 0.71202
 C343 C 0.85855 0.13801 0.72869
 C344 C 0.88760 0.14609 0.71778
 N345 N 0.89943 0.13236 0.69273
 C346 C 0.89870 0.09660 0.64991
 N347 N 0.92163 0.11158 0.63552
 C348 C 0.93555 0.10025 0.61033
 C349 C 0.92637 0.07229 0.59815
 C350 C 0.90330 0.05620 0.61295
 C351 C 0.88960 0.06810 0.63885
 H352 H 0.81962 0.10926 0.71804
 H353 H 0.90143 0.16270 0.72931
 H354 H 0.95347 0.11323 0.59968
 H355 H 0.89588 0.03431 0.60459
 H356 H 0.84137 0.08636 0.67376
 H357 H 0.87238 0.05476 0.65012
 C358 C 1.11556 -0.10338 0.68136
 C359 C 1.14379 -0.09432 0.69297
 C360 C 1.15471 -0.10721 0.71974
 C361 C 1.13795 -0.12964 0.73526
 C362 C 1.10983 -0.13825 0.72245
 N363 N 1.09965 -0.12513 0.69640
 C364 C 1.10281 -0.09068 0.65284
 N365 N 1.08027 -0.10614 0.63832
 C366 C 1.06757 -0.09616 0.61196
 C367 C 1.07764 -0.06910 0.59860
 C368 C 1.10046 -0.05254 0.61334
 C369 C 1.11295 -0.06308 0.64046
 H370 H 1.17677 -0.09990 0.72747
 H371 H 1.09546 -0.15496 0.73308
 H372 H 1.04983 -0.10948 0.60141
 H373 H 1.10853 -0.03128 0.60403
 H374 H 1.15789 -0.07797 0.68135
 H375 H 1.12996 -0.04935 0.65158
 C376 C 0.32455 1.11679 1.11215
 C377 C 0.31485 1.14591 1.10376
 C378 C 0.28883 1.15819 1.11681
 C379 C 0.27217 1.14190 1.13876
 C380 C 0.28337 1.11304 1.14715
 N381 N 0.30871 1.10147 1.13378
 C382 C 0.35181 1.10255 1.09841
 N383 N 0.36640 1.07986 1.11360
 C384 C 0.39179 1.06617 1.10244
 C385 C 0.40395 1.07538 1.07447
 C386 C 0.38892 1.09821 1.05818
 C387 C 0.36284 1.11164 1.06988
 H388 H 0.28255 1.18084 1.10993
 H389 H 0.27186 1.09912 1.16368
 H390 H 0.40260 1.04843 1.11557
 H391 H 0.39722 1.10563 1.03624
 H392 H 0.32739 1.15958 1.08770
 H393 H 0.35142 1.12864 1.05635
 C394 C 0.31839 0.88558 0.89639
 C395 C 0.30729 0.85706 0.90514
 C396 C 0.28078 0.84582 0.89201
 C397 C 0.26506 0.86257 0.86966
 C398 C 0.27739 0.89095 0.86134
 N399 N 0.30316 0.90143 0.87469
 C400 C 0.34654 0.89878 0.90935
 N401 N 0.36022 0.92213 0.89439
 C402 C 0.38616 0.93539 0.90461
 C403 C 0.39994 0.92509 0.93141
 C404 C 0.38608 0.90141 0.94747
 C405 C 0.35936 0.88834 0.93670
 H406 H 0.27341 0.82357 0.89907
 H407 H 0.26657 0.90532 0.84472
 H408 H 0.39606 0.95376 0.89166
 H409 H 0.39577 0.89309 0.96851
 H410 H 0.31907 0.84300 0.92143
 H411 H 0.34892 0.87063 0.95005
 C412 C 0.67910 0.88513 1.11037
 C413 C 0.68863 0.85579 1.10262
 C414 C 0.71426 0.84346 1.11637
 C415 C 0.73076 0.85990 1.13839
 C416 C 0.71978 0.88903 1.14606
 N417 N 0.69478 0.90064 1.13204
 C418 C 0.65201 0.89930 1.09618
 N419 N 0.63772 0.92251 1.11082
 C420 C 0.61241 0.93612 1.09943
 C421 C 0.59993 0.92629 1.07178
 C422 C 0.61461 0.90291 1.05600
 C423 C 0.64068 0.88955 1.06793
 H424 H 0.72032 0.82060 1.11000
 H425 H 0.73119 0.90306 1.16260
 H426 H 0.60188 0.95429 1.11218
 H427 H 0.60601 0.89500 1.03434
 H428 H 0.67621 0.84197 1.08659
 H429 H 0.65183 0.87206 1.05481
 C430 C 0.67408 1.11221 0.88084
 C431 C 0.68389 1.10457 0.85153
 C432 C 0.70989 1.11799 0.83967
 C433 C 0.72647 1.13957 0.85657
 C434 C 0.71511 1.14733 0.88555
 N435 N 0.68979 1.13358 0.89672
 C436 C 0.64683 1.09811 0.89475
 N437 N 0.63301 1.11229 0.91853
 C438 C 0.60783 1.10085 0.93227
 C439 C 0.59500 1.07356 0.92203
 C440 C 0.60908 1.05828 0.89795
 C441 C 0.63502 1.07029 0.88442
 H442 H 0.71622 1.11172 0.81683
 H443 H 0.72656 1.16360 0.89986
 H444 H 0.59776 1.11321 0.95097
 H445 H 0.60019 1.03691 0.88969
 H446 H 0.67149 1.08881 0.83739
 H447 H 0.64575 1.05749 0.86644
 C448 C 0.11757 0.32547 0.11167
 C449 C 0.14879 0.31951 0.10958
 C450 C 0.16072 0.29358 0.12319
 C451 C 0.14179 0.27347 0.13906
 C452 C 0.11082 0.28068 0.14137
 N453 N 0.09966 0.30610 0.12780
 C454 C 0.10372 0.35248 0.09718
 N455 N 0.07751 0.36402 0.10882
 C456 C 0.06367 0.38887 0.09680
 C457 C 0.07620 0.40357 0.07145
 C458 C 0.10284 0.39176 0.05873
 C459 C 0.11662 0.36625 0.07143
 H460 H 0.18487 0.28948 0.12154
 H461 H 0.09537 0.26585 0.15334
 H462 H 0.04296 0.39713 0.10712
 H463 H 0.11305 0.40222 0.03895
 H464 H 0.16406 0.33485 0.09802
 H465 H 0.13684 0.35726 0.06081
 C466 C -0.11405 0.32389 -0.11682
 C467 C -0.11073 0.31720 -0.14785
 C468 C -0.12373 0.29093 -0.15973
 C469 C -0.14027 0.27122 -0.14096
 C470 C -0.14375 0.27910 -0.11020
 N471 N -0.13073 0.30483 -0.09908
 C472 C -0.10022 0.35132 -0.10308
 N473 N -0.11277 0.36356 -0.07756
 C474 C -0.10134 0.38889 -0.06401
 C475 C -0.07573 0.40338 -0.07618
 C476 C -0.06211 0.39083 -0.10207
 C477 C -0.07415 0.36485 -0.11549
 H478 H -0.12118 0.28633 -0.18374
 H479 H -0.15628 0.26459 -0.09489
 H480 H -0.11235 0.39771 -0.04388
 H481 H -0.04206 0.40104 -0.11195
 H482 H -0.09870 0.33224 -0.16306
 H483 H -0.06277 0.35534 -0.13507
 C484 C 0.10465 0.68102 -0.11480
 C485 C 0.10090 0.68871 -0.14556
 C486 C 0.11374 0.71540 -0.15669
 C487 C 0.13046 0.73448 -0.13741
 C488 C 0.13397 0.72577 -0.10688
 N489 N 0.12123 0.69965 -0.09654
 C490 C 0.09162 0.65292 -0.10180
 N491 N 0.10475 0.64042 -0.07669
 C492 C 0.09410 0.61457 -0.06360
 C493 C 0.06867 0.59981 -0.07581
 C494 C 0.05447 0.61256 -0.10132
 C495 C 0.06578 0.63906 -0.11432
 H496 H 0.11106 0.72073 -0.18054
 H497 H 0.14648 0.73982 -0.09112
 H498 H 0.10553 0.60559 -0.04377
 H499 H 0.03455 0.60210 -0.11122
 H500 H 0.08882 0.67408 -0.16114
 H501 H 0.05401 0.64872 -0.13360
 C502 C -0.11421 0.67350 0.11948
 C503 C -0.11137 0.67984 0.15063
 C504 C -0.12444 0.70607 0.16250
 C505 C -0.14052 0.72604 0.14356
 C506 C -0.14350 0.71848 0.11269
 N507 N -0.13045 0.69280 0.10159
 C508 C -0.10028 0.64625 0.10562
 N509 N -0.11250 0.63461 0.07967
 C510 C -0.10083 0.60967 0.06569
 C511 C -0.07525 0.59506 0.07779
 C512 C -0.06200 0.60694 0.10419
 C513 C -0.07436 0.63250 0.11813
 H514 H -0.12226 0.71050 0.18658
 H515 H -0.15561 0.73322 0.09723
 H516 H -0.11156 0.60133 0.04519
 H517 H -0.04202 0.59655 0.11406
 H518 H -0.09964 0.66458 0.16588
 H519 H -0.06329 0.64158 0.13810
 C520 C 1.11541 0.10864 0.67941
 C521 C 1.14398 0.09986 0.69041
 C522 C 1.15534 0.11284 0.71695
 C523 C 1.13868 0.13511 0.73281
 C524 C 1.11030 0.14362 0.72049
 N525 N 1.09967 0.13036 0.69469
 C526 C 1.10208 0.09551 0.65135
 N527 N 1.07919 0.11067 0.63703
 C528 C 1.06601 0.10018 0.61109
 C529 C 1.07594 0.07293 0.59801
 C530 C 1.09908 0.05668 0.61262
 C531 C 1.11203 0.06770 0.63930
 H532 H 1.17762 0.10573 0.72425
 H533 H 1.09603 0.16025 0.73140
 H534 H 1.04804 0.11326 0.60061
 H535 H 1.10707 0.03527 0.60354
 H536 H 1.15798 0.08361 0.67851
 H537 H 1.12926 0.05418 0.65034
 C538 C 0.89189 -0.11659 0.67743
 C539 C 0.89945 -0.14579 0.68752
 C540 C 0.88554 -0.15761 0.71333
 C541 C 0.86357 -0.14074 0.72945
 C542 C 0.85617 -0.11175 0.71794
 N543 N 0.87032 -0.10068 0.69280
 C544 C 0.90614 -0.10285 0.65015
 N545 N 0.89184 -0.07937 0.63595
 C546 C 0.90331 -0.06587 0.61063
 C547 C 0.93074 -0.07604 0.59807
 C548 C 0.94616 -0.09977 0.61258
 C549 C 0.93411 -0.11308 0.63865
 H550 H 0.89176 -0.18037 0.71987
 H551 H 0.83973 -0.09738 0.72904
 H552 H 0.89084 -0.04743 0.60023
 H553 H 0.96763 -0.10798 0.60388
 H554 H 0.91545 -0.15991 0.67541
 H555 H 0.94695 -0.13083 0.64969
 C556 C 1.11660 -0.10870 0.32063
 C557 C 1.14564 -0.10059 0.31054
 C558 C 1.15766 -0.11417 0.28465
 C559 C 1.14117 -0.13635 0.26845
 C560 C 1.11229 -0.14426 0.27992
 N561 N 1.10102 -0.13045 0.30518
 C562 C 1.10281 -0.09483 0.34807
 N563 N 1.08021 -0.10989 0.36287
 C564 C 1.06697 -0.09880 0.38851
 C565 C 1.07655 -0.07103 0.40079
 C566 C 1.09928 -0.05483 0.38558
 C567 C 1.11229 -0.06647 0.35920
 H568 H 1.18030 -0.10751 0.27815
 H569 H 1.09821 -0.16090 0.26876
 H570 H 1.04927 -0.11185 0.39945
 H571 H 1.10697 -0.03305 0.39400
 H572 H 1.15949 -0.08442 0.32274
 H573 H 1.12927 -0.05307 0.34765
 C574 C 0.88607 0.10717 0.32123
 C575 C 0.85744 0.09845 0.31041
 C576 C 0.84602 0.11138 0.28390
 C577 C 0.86268 0.13353 0.26788
 C578 C 0.89105 0.14211 0.28010
 N579 N 0.90177 0.12887 0.30589
 C580 C 0.89945 0.09393 0.34918
 N581 N 0.92217 0.10917 0.36365
 C582 C 0.93540 0.09856 0.38950
 C583 C 0.92572 0.07109 0.40231
 C584 C 0.90275 0.05478 0.38758
 C585 C 0.88973 0.06594 0.36098
 H586 H 0.82368 0.10432 0.27677
 H587 H 0.90524 0.15872 0.26907
 H588 H 0.95324 0.11171 0.40009
 H589 H 0.89496 0.03323 0.39647
 H590 H 0.84347 0.08228 0.32242
 H591 H 0.87263 0.05238 0.34979
 C592 C 0.10473 0.32147 -0.11571
 C593 C 0.09602 0.31041 -0.14430
 C594 C 0.10906 0.28389 -0.15555
 C595 C 0.13130 0.26808 -0.13873
 C596 C 0.13965 0.28042 -0.11029
 N597 N 0.12637 0.30623 -0.09980
 C598 C 0.09166 0.34960 -0.10259
 N599 N 0.10692 0.36408 -0.07987
 C600 C 0.09651 0.39010 -0.06687
 C601 C 0.06920 0.40309 -0.07679
 C602 C 0.05285 0.38836 -0.09979
 C603 C 0.06383 0.36161 -0.11258
 H604 H 0.10200 0.27658 -0.17786
 H605 H 0.15624 0.26957 -0.09591
 H606 H 0.10968 0.40066 -0.04900
 H607 H 0.03142 0.39738 -0.10778
 H608 H 0.07982 0.32227 -0.15842
 H609 H 0.05025 0.35046 -0.12972
 C610 C -0.11334 0.32203 0.11266
 C611 C -0.14447 0.31557 0.11097
 C612 C -0.15556 0.28896 0.12380
 C613 C -0.13588 0.26871 0.13853
 C614 C -0.10507 0.27650 0.14077
 N615 N -0.09469 0.30258 0.12786
 C616 C -0.10042 0.34955 0.09843
 N617 N -0.07445 0.36173 0.10995
 C618 C -0.06155 0.38711 0.09803
 C619 C -0.07488 0.40164 0.07297
 C620 C -0.10127 0.38914 0.06039
 C621 C -0.11404 0.36311 0.07294
 H622 H -0.17964 0.28435 0.12237
 H623 H -0.08916 0.26156 0.15201
 H624 H -0.04100 0.39593 0.10820
 H625 H -0.11204 0.39943 0.04081
 H626 H -0.16027 0.33098 0.10021
 H627 H -0.13406 0.35358 0.06240
 C628 C -0.11573 0.67718 -0.11501
 C629 C -0.10808 0.68604 -0.14461
 C630 C -0.12109 0.71192 -0.15713
 C631 C -0.14228 0.72931 -0.14061
 C632 C -0.15029 0.71875 -0.11138
 N633 N -0.13689 0.69352 -0.09952
 C634 C -0.10153 0.65030 -0.10053
 N635 N -0.11633 0.63559 -0.07767
 C636 C -0.10471 0.61038 -0.06401
 C637 C -0.07669 0.59853 -0.07347
 C638 C -0.06077 0.61377 -0.09639
 C639 C -0.07291 0.63967 -0.10975
 H640 H -0.11479 0.71754 -0.18015
 H641 H -0.16638 0.73084 -0.09739
 H642 H -0.11754 0.59940 -0.04617
 H643 H -0.03881 0.60573 -0.10398
 H644 H -0.09254 0.67297 -0.15840
 H645 H -0.05970 0.65126 -0.12688
 C646 C 0.11080 0.67620 0.11596
 C647 C 0.10722 0.68331 0.14688
 C648 C 0.12056 0.70949 0.15861
 C649 C 0.13771 0.72865 0.13982
 C650 C 0.14133 0.72039 0.10918
 N651 N 0.12797 0.69479 0.09821
 C652 C 0.09681 0.64879 0.10228
 N653 N 0.10916 0.63671 0.07658
 C654 C 0.09762 0.61151 0.06292
 C655 C 0.07208 0.59695 0.07514
 C656 C 0.05868 0.60928 0.10125
 C657 C 0.07084 0.63516 0.11480
 H658 H 0.11784 0.71443 0.18254
 H659 H 0.15427 0.73450 0.09384
 H660 H 0.10848 0.60285 0.04264
 H661 H 0.03870 0.59899 0.11120
 H662 H 0.09477 0.66867 0.16213
 H663 H 0.05960 0.64451 0.13453
 C664 C 0.31919 1.11611 0.89460
 C665 C 0.31189 1.14691 0.89845
 C666 C 0.28540 1.15848 0.88552
 C667 C 0.26613 1.13960 0.86856
 C668 C 0.27442 1.10902 0.86497
 N669 N 0.30034 1.09825 0.87783
 C670 C 0.34714 1.10265 0.90760
 N671 N 0.35903 1.07725 0.89456
 C672 C 0.38474 1.06376 0.90510
 C673 C 0.40003 1.07586 0.93030
 C674 C 0.38790 1.10167 0.94444
 C675 C 0.36149 1.11506 0.93327
 H676 H 0.28038 1.18235 0.88828
 H677 H 0.26019 1.09355 0.85229
 H678 H 0.39324 1.04371 0.89372
 H679 H 0.39877 1.11151 0.96420
 H680 H 0.32669 1.16221 0.91068
 H681 H 0.35233 1.13457 0.94500
 C682 C 0.32776 0.88439 1.11809
 C683 C 0.32141 0.88622 1.14929
 C684 C 0.29515 0.87286 1.16070
 C685 C 0.27512 0.85746 1.14127
 C686 C 0.28282 0.85516 1.11039
 N687 N 0.30852 0.86857 1.09972
 C688 C 0.35490 0.89907 1.10474
 N689 N 0.36672 0.88787 1.07844
 C690 C 0.39160 0.90023 1.06497
 C691 C 0.40600 0.92550 1.07798
 C692 C 0.39392 0.93774 1.10475
 C693 C 0.36840 0.92469 1.11815
 H694 H 0.29064 0.87444 1.18482
 H695 H 0.26806 0.84347 1.09462
 H696 H 0.40006 0.89028 1.04414
 H697 H 0.40414 0.95744 1.11532
 H698 H 0.33663 0.89751 1.16493
 H699 H 0.35918 0.93500 1.13845
 C700 C 0.68003 1.11459 1.10816
 C701 C 0.68710 1.14552 1.10536
 C702 C 0.71367 1.15668 1.11832
 C703 C 0.73328 1.13725 1.13424
 C704 C 0.72508 1.10660 1.13710
 N705 N 0.69905 1.09620 1.12418
 C706 C 0.65219 1.10157 1.09469
 N707 N 0.64003 1.07606 1.10718
 C708 C 0.61437 1.06296 1.09610
 C709 C 0.59950 1.07559 1.07091
 C710 C 0.61192 1.10152 1.05734
 C711 C 0.63824 1.11452 1.06907
 H712 H 0.71859 1.18064 1.11627
 H713 H 0.73955 1.09080 1.14909
 H714 H 0.60563 1.04278 1.10704
 H715 H 0.60132 1.11175 1.03762
 H716 H 0.67209 1.16116 1.09383
 H717 H 0.64769 1.13417 1.05780
 C718 C 0.67628 0.89162 0.88227
 C719 C 0.68344 0.89519 0.85137
 C720 C 0.70983 0.88211 0.83979
 C721 C 0.72916 0.86527 0.85874
 C722 C 0.72094 0.86182 0.88940
 N723 N 0.69511 0.87485 0.90019
 C724 C 0.64850 0.90499 0.89576
 N725 N 0.63667 0.89241 0.92144
 C726 C 0.61115 0.90334 0.93497
 C727 C 0.59597 0.92848 0.92263
 C728 C 0.60801 0.94212 0.89651
 C729 C 0.63424 0.93057 0.88309
 H730 H 0.71474 0.88472 0.81585
 H731 H 0.73518 0.84917 0.90488
 H732 H 0.60273 0.89233 0.95527
 H733 H 0.59723 0.96181 0.88649
 H734 H 0.66864 0.90733 0.83600
 H735 H 0.64334 0.94196 0.86334
   
