data_POSCAR
  _audit_creation_date              2014-09-24
  _audit_creation_method            'ToBaCCo'
  _symmetry_space_group_name_H-M    'P1'
  _symmetry_Int_Tables_number       1
  _symmetry_cell_setting            triclinic
  loop_
  _symmetry_equiv_pos_as_xyz
 x,y,z
_cell_length_a 31.8713
_cell_length_b 32.2450
_cell_length_c 6.8621
_cell_angle_alpha 91.176200
_cell_angle_beta 90.147600
_cell_angle_gamma 90.121900
loop_
  _atom_site_label
  _atom_site_type_symbol
  _atom_site_fract_x
  _atom_site_fract_y
  _atom_site_fract_z
O1 O 0.20064 0.20785 0.31479
 O2 O 0.27416 0.28984 0.47097
 O3 O 0.20011 0.28839 0.32154
 O4 O 0.27717 0.20859 0.45164
 O5 O 0.30107 0.21026 0.15037
 O6 O 0.22559 0.29154 0.02314
 O7 O 0.30000 0.29020 0.17273
 O8 O 0.22411 0.21019 0.01295
 Cu9 Cu 0.23529 0.24829 0.41844
 Cu10 Cu 0.26535 0.25042 0.06060
 C11 C 0.19911 0.19571 0.13839
 C12 C 0.29968 0.30385 0.34717
 C13 C 0.20011 0.30394 0.15343
 C14 C 0.30278 0.19624 0.32128
 O15 O 0.80041 0.28840 0.29157
 O16 O 0.72374 0.20848 0.42799
 O17 O 0.80009 0.20790 0.29107
 O18 O 0.72606 0.28978 0.43984
 O19 O 0.70030 0.28841 0.14062
 O20 O 0.77650 0.20873 -0.01156
 O21 O 0.69955 0.20844 0.12642
 O22 O 0.77426 0.29003 -0.00655
 Cu23 Cu 0.76532 0.24841 0.39155
 Cu24 Cu 0.73498 0.24857 0.03296
 C25 C 0.79995 0.30321 0.12192
 C26 C 0.69803 0.19533 0.29899
 C27 C 0.80164 0.19506 0.11571
 C28 C 0.70052 0.30295 0.31347
 O29 O 0.77348 0.78968 0.97691
 O30 O 0.69967 0.70810 0.81695
 O31 O 0.77449 0.70796 0.96534
 O32 O 0.69837 0.78808 0.83205
 O33 O 0.72380 0.79024 0.53343
 O34 O 0.79997 0.70998 0.66669
 O35 O 0.72557 0.70871 0.51880
 O36 O 0.79936 0.79024 0.67883
 Cu37 Cu 0.73385 0.74836 0.92708
 Cu38 Cu 0.76490 0.75004 0.57040
 C39 C 0.79911 0.80373 0.85338
 C40 C 0.70005 0.69456 0.64241
 C41 C 0.80010 0.69515 0.83624
 C42 C 0.69790 0.80267 0.66214
 O43 O 0.30100 0.79058 0.85638
 O44 O 0.22542 0.71049 0.99618
 O45 O 0.29975 0.71058 0.84978
 O46 O 0.22568 0.79214 0.99899
 O47 O 0.19995 0.79100 0.69982
 O48 O 0.27409 0.70929 0.55027
 O49 O 0.19939 0.71079 0.69761
 O50 O 0.27549 0.79092 0.55709
 Cu51 Cu 0.26563 0.75108 0.95464
 Cu52 Cu 0.23451 0.75057 0.59684
 C53 C 0.30143 0.80418 0.68462
 C54 C 0.19963 0.69690 0.86901
 C55 C 0.29949 0.69600 0.67708
 C56 C 0.20004 0.80538 0.87296
 C57 C 1.02275 0.11042 -0.21312
 C58 C 0.97949 0.11037 -0.21554
 C59 C 0.96683 0.08107 -0.08326
 N60 N 1.00063 0.06277 -0.00353
 C61 C 1.03478 0.08114 -0.07949
 C62 C 0.92564 0.07278 -0.02109
 C63 C 0.91555 0.03271 0.04597
 C64 C 0.88093 0.02206 0.15685
 C65 C 0.88111 -0.02040 0.17100
 C66 C 0.91531 -0.03465 0.06602
 N67 N 0.93673 -0.00216 -0.00575
 C68 C 0.92440 -0.07656 0.02302
 C69 C 0.96637 -0.09014 0.00155
 C70 C 0.97893 -0.13040 -0.04090
 C71 C 1.02183 -0.13037 -0.04028
 C72 C 1.03449 -0.09010 0.00283
 N73 N 1.00046 -0.06568 0.03132
 C74 C 1.07649 -0.07651 0.02670
 C75 C 1.08567 -0.03463 0.07100
 C76 C 1.11968 -0.02045 0.17869
 C77 C 1.11998 0.02204 0.16593
 C78 C 1.08558 0.03276 0.05320
 N79 N 1.06445 -0.00209 -0.00112
 C80 C 1.07570 0.07292 -0.01303
 H81 H 1.04268 0.12794 -0.30838
 H82 H 0.96003 0.12782 -0.31324
 H83 H 1.03977 -0.00391 -0.10120
 H84 H 0.85768 0.04213 0.22205
 H85 H 0.85888 -0.03858 0.25215
 H86 H 0.95987 -0.15765 -0.06520
 H87 H 1.04082 -0.15758 -0.06418
 H88 H 1.14317 0.04206 0.23320
 H89 H 0.96157 -0.00405 -0.10436
 H90 H 1.14169 -0.03867 0.26096
 C91 C 0.47836 0.62882 0.55251
 C92 C 0.52097 0.62897 0.53631
 C93 C 0.53320 0.58814 0.50808
 N94 N 0.49914 0.56300 0.50591
 C95 C 0.46542 0.58789 0.53324
 C96 C 0.57490 0.57487 0.47681
 C97 C 0.58423 0.53388 0.41837
 C98 C 0.61694 0.52278 0.29626
 C99 C 0.61744 0.48029 0.28631
 C100 C 0.58501 0.46658 0.40312
 N101 N 0.56400 0.49956 0.47908
 C102 C 0.57596 0.42451 0.43795
 C103 C 0.53425 0.41047 0.46216
 C104 C 0.52138 0.36949 0.44478
 C105 C 0.47876 0.36933 0.46039
 C106 C 0.46647 0.41019 0.48647
 N107 N 0.50049 0.43538 0.48795
 C108 C 0.42471 0.42348 0.51588
 C109 C 0.41524 0.46447 0.57389
 C110 C 0.38227 0.47554 0.69454
 C111 C 0.38177 0.51802 0.70493
 C112 C 0.41447 0.53177 0.58985
 N113 N 0.43562 0.49882 0.51447
 C114 C 0.42367 0.57388 0.55645
 H115 H 0.45996 0.65611 0.58373
 H116 H 0.54007 0.65656 0.54232
 H117 H 0.45953 0.49967 0.41118
 H118 H 0.63747 0.54318 0.21705
 H119 H 0.63842 0.46182 0.19674
 H120 H 0.53982 0.34215 0.41512
 H121 H 0.45968 0.34172 0.45509
 H122 H 0.36065 0.53644 0.79392
 H123 H 0.54028 0.49874 0.58344
 H124 H 0.36157 0.45510 0.77264
 C125 C 0.02049 0.63036 -0.03790
 C126 C -0.02217 0.63005 -0.05225
 C127 C -0.03502 0.58924 -0.03445
 N128 N -0.00116 0.56454 -0.01005
 C129 C 0.03290 0.58973 -0.01247
 C130 C -0.07692 0.57510 -0.05575
 C131 C -0.08636 0.53264 -0.08678
 C132 C -0.11936 0.51780 -0.20038
 C133 C -0.11895 0.47542 -0.18875
 C134 C -0.08573 0.46543 -0.06859
 N135 N -0.06512 0.50037 -0.01087
 C136 C -0.07601 0.42485 -0.01126
 C137 C -0.03410 0.41199 0.01820
 C138 C -0.02162 0.37136 0.04316
 C139 C 0.02103 0.37168 0.05664
 C140 C 0.03382 0.41250 0.03896
 N141 N -0.00007 0.43721 0.01554
 C142 C 0.07575 0.42660 0.05876
 C143 C 0.08525 0.46901 0.09034
 C144 C 0.11845 0.48374 0.20295
 C145 C 0.11796 0.52614 0.19237
 C146 C 0.08453 0.53623 0.07364
 N147 N 0.06384 0.50134 0.01601
 C148 C 0.07481 0.57680 0.01641
 H149 H 0.03948 0.65797 -0.04324
 H150 H -0.04069 0.65716 -0.08076
 H151 H 0.03943 0.49954 -0.08530
 H152 H -0.14058 0.53538 -0.28974
 H153 H -0.13977 0.45432 -0.26663
 H154 H -0.04052 0.34370 0.04829
 H155 H 0.03961 0.34458 0.08429
 H156 H 0.13895 0.54719 0.26954
 H157 H -0.04083 0.50224 0.09114
 H158 H 0.13986 0.46604 0.29083
 C159 C 0.47944 1.12222 0.61287
 C160 C 0.52255 1.12214 0.61099
 C161 C 0.53460 1.08697 0.50675
 N162 N 0.50036 1.06523 0.44716
 C163 C 0.46660 1.08711 0.50960
 C164 C 0.57629 1.07591 0.45966
 C165 C 0.58856 1.03365 0.44337
 C166 C 0.62798 1.01921 0.39015
 C167 C 0.62773 0.97696 0.41136
 C168 C 0.58821 0.96628 0.47746
 N169 N 0.56477 1.00108 0.49775
 C170 C 0.57571 0.92652 0.53969
 C171 C 0.53408 0.91921 0.59855
 C172 C 0.52203 0.89404 0.74951
 C173 C 0.47903 0.89419 0.75184
 C174 C 0.46633 0.91939 0.60196
 N175 N 0.50002 0.93538 0.51034
 C176 C 0.42445 0.92684 0.54676
 C177 C 0.41202 0.96659 0.48445
 C178 C 0.37231 0.97736 0.42069
 C179 C 0.37223 1.01962 0.39966
 C180 C 0.41197 1.03397 0.45027
 N181 N 0.43577 1.00133 0.50302
 C182 C 0.42458 1.07620 0.46605
 H183 H 0.45994 1.14451 0.68981
 H184 H 0.54263 1.14437 0.68608
 H185 H 0.46505 1.00320 0.56958
 H186 H 0.65529 1.03669 0.34934
 H187 H 0.65470 0.95735 0.38924
 H188 H 0.54202 0.87884 0.85357
 H189 H 0.45954 0.87917 0.85833
 H190 H 0.34486 1.03716 0.36062
 H191 H 0.53576 1.00302 0.56599
 H192 H 0.34515 0.95780 0.39994
 C193 C 1.15363 0.10473 -0.06004
 C194 C 1.15203 0.15064 -0.12324
 C195 C 1.16682 0.16415 0.08157
 C196 C 1.16886 0.11892 0.14543
 C197 C 1.12119 0.16758 0.15157
 C198 C 1.10583 0.15360 -0.05326
 C199 C 1.10776 0.10786 0.01030
 C200 C 1.12286 0.12201 0.21506
 H201 H 1.16697 0.07868 -0.14793
 H202 H 1.16431 0.16259 -0.26259
 H203 H 1.19516 0.10494 0.22748
 H204 H 1.10800 0.19376 0.23915
 H205 H 1.08105 0.17095 -0.12987
 H206 H 1.11068 0.11060 0.35572
 C207 C 0.65843 0.59677 0.51665
 C208 C 0.66665 0.63600 0.39481
 C209 C 0.66923 0.66189 0.58484
 C210 C 0.66158 0.62319 0.70650
 C211 C 0.62204 0.67077 0.57731
 C212 C 0.61876 0.64446 0.38628
 C213 C 0.61076 0.60561 0.50782
 C214 C 0.61405 0.63167 0.69853
 H215 H 0.67494 0.56671 0.49792
 H216 H 0.68869 0.63804 0.27033
 H217 H 0.67946 0.61471 0.83891
 H218 H 0.60746 0.70162 0.60350
 H219 H 0.60098 0.65310 0.25391
 H220 H 0.59248 0.62987 0.82495
 C221 C -0.15935 0.40184 0.02398
 C222 C -0.16700 0.36281 -0.10766
 C223 C -0.16933 0.33639 0.07576
 C224 C -0.16226 0.37491 0.20719
 C225 C -0.12203 0.32817 0.06780
 C226 C -0.11902 0.35497 -0.11659
 C227 C -0.11155 0.39365 0.01452
 C228 C -0.11458 0.36711 0.19881
 H229 H -0.17619 0.43176 0.01239
 H230 H -0.18893 0.36081 -0.23349
 H231 H -0.18029 0.38282 0.34110
 H232 H -0.10705 0.29746 0.08678
 H233 H -0.10111 0.34685 -0.25050
 H234 H -0.09315 0.36892 0.32659
 C235 C 0.35837 0.89577 0.73212
 C236 C 0.32435 0.88141 0.58366
 C237 C 0.33336 0.83620 0.63541
 C238 C 0.36711 0.85015 0.78349
 C239 C 0.36639 0.83270 0.47352
 C240 C 0.35812 0.87846 0.42130
 C241 C 0.39178 0.89273 0.57109
 C242 C 0.40046 0.84698 0.62097
 H243 H 0.35516 0.92180 0.83942
 H244 H 0.29269 0.89526 0.56788
 H245 H 0.37098 0.83847 0.93355
 H246 H 0.36930 0.80654 0.36668
 H247 H 0.35474 0.88945 0.26979
 H248 H 0.43102 0.83076 0.63116
 C249 C -0.15993 0.59939 -0.05482
 C250 C -0.16415 0.64014 0.06717
 C251 C -0.17036 0.66401 -0.12207
 C252 C -0.16683 0.62376 -0.24453
 C253 C -0.12303 0.67165 -0.13868
 C254 C -0.11625 0.64715 0.05085
 C255 C -0.11214 0.60685 -0.07366
 C256 C -0.11901 0.63111 -0.26168
 H257 H -0.17593 0.57006 -0.01660
 H258 H -0.18295 0.64416 0.20221
 H259 H -0.18805 0.61427 -0.36617
 H260 H -0.10810 0.70179 -0.17265
 H261 H -0.09569 0.65674 0.17474
 H262 H -0.10042 0.62735 -0.39751
 C263 C 0.40063 1.15749 0.41182
 C264 C 0.37169 1.15787 0.23096
 C265 C 0.33389 1.16650 0.36454
 C266 C 0.36242 1.16668 0.54527
 C267 C 0.32555 1.11991 0.38256
 C268 C 0.36386 1.11095 0.24945
 C269 C 0.39248 1.11043 0.43145
 C270 C 0.35452 1.11938 0.56450
 H271 H 0.43080 1.17466 0.41575
 H272 H 0.37877 1.17371 0.09257
 H273 H 0.36159 1.18986 0.66710
 H274 H 0.29436 1.10469 0.36982
 H275 H 0.36469 1.08859 0.12425
 H276 H 0.34758 1.10339 0.70249
 C277 C 1.16017 -0.09849 -0.01102
 C278 C 1.16789 -0.13758 0.11242
 C279 C 1.17053 -0.16370 -0.07667
 C280 C 1.16339 -0.12517 -0.20002
 C281 C 1.12327 -0.17248 -0.07176
 C282 C 1.11991 -0.14588 0.11830
 C283 C 1.11237 -0.10712 -0.00463
 C284 C 1.11573 -0.13346 -0.19446
 H285 H 1.17744 -0.06875 0.00569
 H286 H 1.18965 -0.13950 0.23851
 H287 H 1.18151 -0.11690 -0.33174
 H288 H 1.10843 -0.20331 -0.09745
 H289 H 1.10180 -0.15436 0.24960
 H290 H 1.09448 -0.13169 -0.32258
 C291 C 0.65892 0.40077 0.43594
 C292 C 0.66381 0.36077 0.55513
 C293 C 0.66964 0.33583 0.36409
 C294 C 0.66538 0.37534 0.24449
 C295 C 0.62229 0.32779 0.34916
 C296 C 0.61592 0.35332 0.54050
 C297 C 0.61116 0.39281 0.41851
 C298 C 0.61762 0.36751 0.22878
 H299 H 0.67470 0.43052 0.47508
 H300 H 0.68314 0.35760 0.68880
 H301 H 0.68616 0.38422 0.12253
 H302 H 0.60754 0.29729 0.31427
 H303 H 0.59578 0.34430 0.66448
 H304 H 0.59860 0.37031 0.09389
 C305 C 0.84072 -0.09846 -0.02180
 C306 C 0.83795 -0.12508 -0.21115
 C307 C 0.83012 -0.16368 -0.08899
 C308 C 0.83238 -0.13758 0.10049
 C309 C 0.87734 -0.17245 -0.07964
 C310 C 0.88550 -0.13343 -0.20133
 C311 C 0.88843 -0.10715 -0.01109
 C312 C 0.88028 -0.14593 0.11087
 H313 H 0.82360 -0.06870 -0.00626
 H314 H 0.82029 -0.11675 -0.34440
 H315 H 0.81018 -0.13954 0.22440
 H316 H 0.89202 -0.20331 -0.10410
 H317 H 0.90717 -0.13167 -0.32739
 H318 H 0.89785 -0.15445 0.24401
 C319 C 0.34131 0.40164 0.47151
 C320 C 0.33864 0.37495 0.28232
 C321 C 0.33056 0.33645 0.40474
 C322 C 0.33267 0.36261 0.59410
 C323 C 0.37770 0.32748 0.41544
 C324 C 0.38613 0.36639 0.29344
 C325 C 0.38893 0.39271 0.48352
 C326 C 0.38051 0.35406 0.60580
 H327 H 0.32483 0.43175 0.48813
 H328 H 0.32115 0.38325 0.14853
 H329 H 0.31029 0.36077 0.71736
 H330 H 0.39228 0.29656 0.39149
 H331 H 0.40803 0.36797 0.16816
 H332 H 0.39791 0.34559 0.73950
 C333 C 0.11317 0.63378 -0.19861
 C334 C 0.12138 0.67298 -0.07039
 C335 C 0.16858 0.66428 -0.08101
 C336 C 0.16074 0.62550 -0.20968
 C337 C 0.16653 0.63838 0.10417
 C338 C 0.11866 0.64670 0.11580
 C339 C 0.11045 0.60775 -0.01256
 C340 C 0.15814 0.59909 -0.02469
 H341 H 0.09133 0.63185 -0.32483
 H342 H 0.10662 0.70377 -0.09022
 H343 H 0.17829 0.61704 -0.34429
 H344 H 0.18884 0.64050 0.22856
 H345 H 0.10124 0.65532 0.25050
 H346 H 0.17480 0.56910 -0.01230
 C347 C 0.60051 1.15708 0.40186
 C348 C 0.63969 1.16615 0.53040
 C349 C 0.66697 1.16576 0.34613
 C350 C 0.62820 1.15725 0.21744
 C351 C 0.67504 1.11915 0.36364
 C352 C 0.64733 1.11884 0.54916
 C353 C 0.60840 1.11000 0.42102
 C354 C 0.63576 1.11030 0.23550
 H355 H 0.57052 1.17439 0.40936
 H356 H 0.64150 1.18937 0.65185
 H357 H 0.62032 1.17308 0.07986
 H358 H 0.70601 1.10380 0.34685
 H359 H 0.65508 1.10289 0.68645
 H360 H 0.63391 1.08784 0.11091
 C361 C 0.11819 0.36971 0.25817
 C362 C 0.12182 0.32971 0.13121
 C363 C 0.16916 0.33720 0.11310
 C364 C 0.16597 0.37697 0.23938
 C365 C 0.16256 0.36196 -0.07334
 C366 C 0.11470 0.35502 -0.05548
 C367 C 0.11099 0.39480 0.07292
 C368 C 0.15875 0.40220 0.05255
 H369 H 0.09990 0.37295 0.39511
 H370 H 0.10691 0.29945 0.16294
 H371 H 0.18752 0.38585 0.36068
 H372 H 0.18105 0.35844 -0.20961
 H373 H 0.09379 0.34600 -0.17898
 H374 H 0.17477 0.43163 0.01621
 C375 C 0.64215 0.89444 0.71933
 C376 C 0.63306 0.84872 0.76799
 C377 C 0.66608 0.83498 0.61701
 C378 C 0.67543 0.88030 0.56798
 C379 C 0.63242 0.83224 0.45689
 C380 C 0.59907 0.84631 0.60724
 C381 C 0.60812 0.89216 0.56006
 C382 C 0.64104 0.87810 0.40737
 H383 H 0.64608 0.92011 0.82821
 H384 H 0.62961 0.83662 0.91750
 H385 H 0.70720 0.89396 0.55172
 H386 H 0.62879 0.80635 0.34896
 H387 H 0.56831 0.83040 0.61840
 H388 H 0.64398 0.88948 0.25634
 C389 C 0.84766 0.10385 -0.07410
 C390 C 0.83221 0.11861 0.12968
 C391 C 0.83411 0.16361 0.06242
 C392 C 0.84912 0.14952 -0.14077
 C393 C 0.87967 0.16767 0.13406
 C394 C 0.87814 0.12232 0.20097
 C395 C 0.89347 0.10759 -0.00211
 C396 C 0.89525 0.15311 -0.06912
 H397 H 0.83447 0.07739 -0.16044
 H398 H 0.80594 0.10471 0.21206
 H399 H 0.83687 0.16091 -0.28147
 H400 H 0.89266 0.19424 0.22041
 H401 H 0.89021 0.11151 0.34316
 H402 H 0.91993 0.17050 -0.14610
 C403 C 0.38410 0.64514 0.45283
 C404 C 0.33620 0.63788 0.43667
 C405 C 0.33020 0.66289 0.62737
 C406 C 0.37756 0.67072 0.64384
 C407 C 0.33411 0.62339 0.74736
 C408 C 0.34073 0.59789 0.55623
 C409 C 0.38850 0.60564 0.57512
 C410 C 0.38188 0.63101 0.76453
 H411 H 0.40448 0.65405 0.32950
 H412 H 0.31713 0.64108 0.30220
 H413 H 0.39239 0.70116 0.67910
 H414 H 0.31309 0.61462 0.86863
 H415 H 0.32487 0.56821 0.51674
 H416 H 0.40074 0.62814 0.89982
   
