data_POSCAR
  _audit_creation_date              2014-09-24
  _audit_creation_method            'ToBaCCo'
  _symmetry_space_group_name_H-M    'P1'
  _symmetry_Int_Tables_number       1
  _symmetry_cell_setting            triclinic
  loop_
  _symmetry_equiv_pos_as_xyz
 x,y,z
_cell_length_a 37.6626
_cell_length_b 37.6610
_cell_length_c 37.6612
_cell_angle_alpha 89.761800
_cell_angle_beta 89.999800
_cell_angle_gamma 90.000700
loop_
  _atom_site_label
  _atom_site_type_symbol
  _atom_site_fract_x
  _atom_site_fract_y
  _atom_site_fract_z
N1 N 0.22277 0.22162 0.22165
 N2 N -0.22201 0.77683 0.22316
 N3 N -0.22203 0.22317 -0.22317
 N4 N 0.22279 0.77835 -0.22163
 N5 N 0.21971 1.22049 0.77950
 N6 N 0.78068 0.78146 0.78150
 N7 N 0.21971 0.77949 1.22051
 N8 N 0.78070 1.21851 1.21853
 N9 N 0.46350 0.93714 0.96188
 N10 N 0.43800 0.91382 0.95608
 N11 N 0.53818 0.96186 0.93717
 N12 N 0.56389 0.95623 0.91403
 N13 N 0.53818 0.93715 0.96189
 N14 N 0.56389 0.91401 0.95627
 N15 N 0.46350 0.96185 0.93716
 N16 N 0.43800 0.95604 0.91384
 C17 C 0.42226 0.92620 0.92624
 C18 C 0.57972 0.92648 0.92651
 N19 N 0.53813 1.06301 0.96159
 N20 N 0.56356 1.08641 0.95563
 N21 N 0.46345 1.03837 0.93700
 N22 N 0.43777 1.04411 0.91382
 N23 N 0.46345 1.06299 0.96161
 N24 N 0.43777 1.08618 0.95587
 N25 N 0.53813 1.03839 0.93699
 N26 N 0.56356 1.04435 0.91358
 Mn27 Mn 0.50081 1.00012 0.93669
 C28 C 0.57926 1.07417 0.92582
 C29 C 0.42195 1.07383 0.92615
 N30 N 0.53813 0.93699 1.03841
 N31 N 0.56357 0.91360 1.04437
 N32 N 0.46346 0.96162 1.06301
 N33 N 0.43778 0.95588 1.08620
 N34 N 0.46346 0.93700 1.03840
 N35 N 0.43778 0.91382 1.04415
 N36 N 0.53814 0.96161 1.06302
 N37 N 0.56358 0.95566 1.08642
 Mn38 Mn 0.50082 0.93668 1.00015
 C39 C 0.57928 0.92584 1.07418
 C40 C 0.42195 0.92616 1.07386
 N41 N 0.46350 1.06285 1.03814
 N42 N 0.43800 1.08618 1.04394
 N43 N 0.53818 1.03813 1.06284
 N44 N 0.56389 1.04377 1.08598
 N45 N 0.53818 1.06284 1.03812
 N46 N 0.56388 1.08599 1.04375
 N47 N 0.46350 1.03814 1.06286
 N48 N 0.43800 1.04395 1.08618
 Mn49 Mn 0.50082 1.06331 0.99987
 Mn50 Mn 0.50082 0.99988 1.06332
 Cl51 Cl 0.50082 1.00000 1.00001
 C52 C 0.42227 1.07379 1.07379
 C53 C 0.57972 1.07352 1.07350
 N54 N 0.03759 0.46211 0.06276
 N55 N 0.04353 0.43649 0.08604
 N56 N 0.06222 0.53701 0.03843
 N57 N 0.08539 0.56265 0.04422
 N58 N 0.03757 0.53679 0.06310
 N59 N 0.04326 0.56228 0.08638
 N60 N 0.06224 0.46234 0.03809
 N61 N 0.08566 0.43688 0.04389
 C62 C 0.07339 0.42092 0.07367
 C63 C 0.07299 0.57822 0.07403
 N64 N 0.03758 0.53787 -0.06275
 N65 N 0.04352 0.56350 -0.08603
 N66 N 0.06222 0.46297 -0.03842
 N67 N 0.08539 0.43733 -0.04421
 N68 N 0.03757 0.46319 -0.06309
 N69 N 0.04326 0.43770 -0.08637
 N70 N 0.06223 0.53765 -0.03808
 N71 N 0.08565 0.56311 -0.04388
 Mn72 Mn 0.06261 0.49999 0.00001
 C73 C 0.07337 0.57907 -0.07365
 C74 C 0.07299 0.42176 -0.07402
 N75 N -0.03895 0.53674 0.06312
 N76 N -0.04477 0.56205 0.08655
 N77 N -0.06361 0.46227 0.03809
 N78 N -0.08677 0.43652 0.04367
 N79 N -0.03893 0.46206 0.06275
 N80 N -0.04461 0.43616 0.08580
 N81 N -0.06362 0.53696 0.03846
 N82 N -0.08693 0.56244 0.04443
 Mn83 Mn -0.00069 0.49942 0.06332
 C84 C -0.07458 0.57791 0.07431
 C85 C -0.07434 0.42043 0.07333
 N86 N -0.03895 0.46323 -0.06310
 N87 N -0.04477 0.43792 -0.08654
 N88 N -0.06362 0.53769 -0.03808
 N89 N -0.08678 0.56343 -0.04366
 N90 N -0.03894 0.53791 -0.06273
 N91 N -0.04463 0.56380 -0.08578
 N92 N -0.06362 0.46300 -0.03844
 N93 N -0.08692 0.43752 -0.04441
 Mn94 Mn -0.00069 0.50055 -0.06331
 Mn95 Mn -0.06401 0.49998 0.00001
 Cl96 Cl -0.00069 0.49999 0.00001
 C97 C -0.07457 0.42205 -0.07429
 C98 C -0.07437 0.57952 -0.07332
 N99 N 1.03755 -0.06312 0.46323
 N100 N 1.04325 -0.08641 0.43775
 N101 N 1.06223 -0.03809 0.53768
 N102 N 1.08564 -0.04388 0.56313
 N103 N 1.03757 -0.06276 0.53791
 N104 N 1.04352 -0.08604 0.56354
 N105 N 1.06221 -0.03845 0.46300
 N106 N 1.08537 -0.04425 0.43736
 C107 C 1.07298 -0.07407 0.42180
 C108 C 1.07337 -0.07366 0.57910
 N109 N 1.03755 0.06309 0.53679
 N110 N 1.04324 0.08638 0.56228
 N111 N 1.06222 0.03806 0.46234
 N112 N 1.08563 0.04384 0.43688
 N113 N 1.03757 0.06273 0.46211
 N114 N 1.04351 0.08600 0.43648
 N115 N 1.06221 0.03842 0.53702
 N116 N 1.08537 0.04422 0.56266
 Mn117 Mn 1.06260 -0.00002 0.50001
 C118 C 1.07298 0.07403 0.57822
 C119 C 1.07336 0.07362 0.42091
 N120 N 0.96105 -0.06275 0.53796
 N121 N 0.95537 -0.08580 0.56386
 N122 N 0.93637 -0.03849 0.46304
 N123 N 0.91306 -0.04446 0.43757
 N124 N 0.96104 -0.06314 0.46328
 N125 N 0.95522 -0.08659 0.43797
 N126 N 0.93638 -0.03810 0.53773
 N127 N 0.91321 -0.04367 0.56348
 Mn128 Mn 0.99930 -0.06333 0.50060
 C129 C 0.92563 -0.07333 0.57957
 C130 C 0.92542 -0.07434 0.42211
 N131 N 0.96104 0.06271 0.46207
 N132 N 0.95536 0.08575 0.43617
 N133 N 0.93637 0.03844 0.53698
 N134 N 0.91306 0.04441 0.56246
 N135 N 0.96103 0.06310 0.53675
 N136 N 0.95522 0.08654 0.56205
 N137 N 0.93637 0.03805 0.46229
 N138 N 0.91321 0.04362 0.43655
 Mn139 Mn 0.99930 0.06329 0.49943
 Mn140 Mn 0.93598 -0.00002 0.50001
 Cl141 Cl 0.99929 -0.00002 0.50001
 C142 C 0.92562 0.07328 0.42045
 C143 C 0.92541 0.07430 0.57792
 C144 C 1.20257 0.20138 0.24493
 C145 C 1.18514 0.18401 0.26549
 C146 C 1.16461 0.16366 0.29053
 C147 C 1.17794 0.13159 0.30400
 C148 C 1.15866 0.11256 0.32948
 C149 C 1.12598 0.12552 0.34158
 C150 C 1.11246 0.15738 0.32782
 C151 C 1.13174 0.17642 0.30234
 C152 C 1.10696 0.10680 0.36899
 C153 C 1.09140 0.09147 0.39244
 H154 H 1.20338 0.12154 0.29513
 H155 H 1.16942 0.08801 0.34004
 H156 H 1.08727 0.16770 0.33708
 H157 H 1.12123 0.20124 0.29217
 C158 C 0.79815 -0.20303 0.24639
 C159 C 0.81545 -0.18567 0.26693
 C160 C 0.83571 -0.16524 0.29197
 C161 C 0.82286 -0.13246 0.30384
 C162 C 0.84180 -0.11327 0.32931
 C163 C 0.87366 -0.12680 0.34299
 C164 C 0.88671 -0.15940 0.33083
 C165 C 0.86777 -0.17858 0.30536
 C166 C 0.89231 -0.10786 0.37035
 C167 C 0.90760 -0.09235 0.39374
 H168 H 0.79804 -0.12195 0.29373
 H169 H 0.83141 -0.08815 0.33862
 H170 H 0.91126 -0.17016 0.34132
 H171 H 0.87789 -0.20395 0.29644
 C172 C 0.79814 0.20302 0.75360
 C173 C 0.81544 0.18566 0.73306
 C174 C 0.83569 0.16521 0.70803
 C175 C 0.82274 0.13252 0.69602
 C176 C 0.84168 0.11333 0.67056
 C177 C 0.87365 0.12676 0.65702
 C178 C 0.88680 0.15926 0.66933
 C179 C 0.86786 0.17845 0.69479
 C180 C 0.89230 0.10782 0.62967
 C181 C 0.90759 0.09231 0.60629
 H182 H 0.79784 0.12209 0.70601
 H183 H 0.83121 0.08828 0.66114
 H184 H 0.91143 0.16994 0.65895
 H185 H 0.87806 0.20375 0.70383
 C186 C 1.20259 -0.20142 0.75509
 C187 C 1.18516 -0.18405 0.73452
 C188 C 1.16463 -0.16370 0.70947
 C189 C 1.17793 -0.13160 0.69605
 C190 C 1.15865 -0.11257 0.67057
 C191 C 1.12600 -0.12556 0.65842
 C192 C 1.11252 -0.15747 0.67213
 C193 C 1.13179 -0.17650 0.69761
 C194 C 1.10698 -0.10684 0.63102
 C195 C 1.09142 -0.09151 0.60757
 H196 H 1.20334 -0.12152 0.70497
 H197 H 1.16938 -0.08799 0.66006
 H198 H 1.08735 -0.16782 0.66282
 H199 H 1.12132 -0.20135 0.70774
 C200 C 0.24605 1.20149 1.20151
 C201 C 0.26663 1.18418 1.18419
 C202 C 0.29172 1.16386 1.16387
 C203 C 0.30438 1.13140 1.17703
 C204 C 0.32991 1.11237 1.15800
 C205 C 0.34288 1.12574 1.12574
 C206 C 0.32993 1.15802 1.11239
 C207 C 0.30440 1.17704 1.13141
 C208 C 0.37033 1.10700 1.10699
 C209 C 0.39380 1.09164 1.09163
 H210 H 0.29483 1.12102 1.20215
 H211 H 0.33983 1.08750 1.16862
 H212 H 0.33987 1.16865 1.08753
 H213 H 0.29486 1.20217 1.12106
 C214 C 0.24606 0.79848 0.79851
 C215 C 0.26663 0.81579 0.81583
 C216 C 0.29172 0.83611 0.83616
 C217 C 0.30429 0.86864 0.82306
 C218 C 0.32982 0.88766 0.84209
 C219 C 0.34287 0.87424 0.87430
 C220 C 0.33000 0.84191 0.88759
 C221 C 0.30447 0.82288 0.86856
 C222 C 0.37032 0.89299 0.89304
 C223 C 0.39379 0.90835 0.90839
 H224 H 0.29468 0.87905 0.79798
 H225 H 0.33968 0.91258 0.83151
 H226 H 0.34000 0.83124 0.91241
 H227 H 0.29500 0.79771 0.87888
 C228 C 0.75475 0.79707 1.20292
 C229 C 0.73423 0.81449 1.18551
 C230 C 0.70924 0.83496 1.16504
 C231 C 0.69662 0.82197 1.13260
 C232 C 0.67121 0.84116 1.11342
 C233 C 0.65833 0.87342 1.12659
 C234 C 0.67124 0.88661 1.15885
 C235 C 0.69665 0.86742 1.17803
 C236 C 0.63101 0.89234 1.10768
 C237 C 0.60765 0.90783 1.09219
 H238 H 0.70611 0.79685 1.12237
 H239 H 0.66132 0.83066 1.08857
 H240 H 0.66137 0.91147 1.16933
 H241 H 0.70616 0.87765 1.20314
 C242 C 0.75473 1.20293 0.79706
 C243 C 0.73420 1.18552 0.81447
 C244 C 0.70920 1.16505 0.83493
 C245 C 0.69656 1.13263 0.82191
 C246 C 0.67115 1.11344 0.84109
 C247 C 0.65830 1.12659 0.87338
 C248 C 0.67123 1.15882 0.88659
 C249 C 0.69664 1.17801 0.86740
 C250 C 0.63098 1.10767 0.89230
 C251 C 0.60762 1.09218 0.90780
 H252 H 0.70602 1.12242 0.79677
 H253 H 0.66123 1.08861 0.83058
 H254 H 0.66138 1.16929 0.91147
 H255 H 0.70617 1.20310 0.87766
 C256 C 0.20257 0.24491 0.20142
 C257 C 0.18514 0.26548 0.18406
 C258 C 0.16460 0.29054 0.16373
 C259 C 0.13192 0.30263 0.17668
 C260 C 0.11264 0.32811 0.15765
 C261 C 0.12598 0.34159 0.12559
 C262 C 0.15848 0.32921 0.11244
 C263 C 0.17776 0.30372 0.13147
 C264 C 0.10697 0.36900 0.10686
 C265 C 0.09142 0.39245 0.09152
 H266 H 0.12156 0.29268 0.20165
 H267 H 0.08760 0.33760 0.16812
 H268 H 0.16910 0.33955 0.08774
 H269 H 0.20305 0.29462 0.12127
 C270 C -0.20186 0.24639 -0.20303
 C271 C -0.18456 0.26692 -0.18566
 C272 C -0.16430 0.29194 -0.16521
 C273 C -0.17720 0.30388 -0.13247
 C274 C -0.15825 0.32934 -0.11328
 C275 C -0.12634 0.34295 -0.12675
 C276 C -0.11324 0.33073 -0.15931
 C277 C -0.13219 0.30527 -0.17850
 C278 C -0.10769 0.37031 -0.10781
 C279 C -0.09239 0.39369 -0.09230
 H280 H -0.20205 0.29383 -0.12200
 H281 H -0.16868 0.33869 -0.08819
 H282 H -0.08865 0.34116 -0.17003
 H283 H -0.12203 0.29629 -0.20384
 C284 C 0.20258 0.75506 -0.20141
 C285 C 0.18514 0.73450 -0.18405
 C286 C 0.16460 0.70944 -0.16371
 C287 C 0.13191 0.69735 -0.17667
 C288 C 0.11264 0.67187 -0.15765
 C289 C 0.12597 0.65839 -0.12558
 C290 C 0.15847 0.67078 -0.11242
 C291 C 0.17775 0.69626 -0.13145
 C292 C 0.10696 0.63099 -0.10685
 C293 C 0.09141 0.60754 -0.09151
 H294 H 0.12156 0.70730 -0.20164
 H295 H 0.08759 0.66238 -0.16812
 H296 H 0.16908 0.66044 -0.08772
 H297 H 0.20304 0.70536 -0.12125
 C298 C -0.20185 0.75361 0.20301
 C299 C -0.18455 0.73307 0.18564
 C300 C -0.16429 0.70804 0.16519
 C301 C -0.17721 0.69607 0.13248
 C302 C -0.15827 0.67061 0.11329
 C303 C -0.12633 0.65703 0.12675
 C304 C -0.11322 0.66929 0.15928
 C305 C -0.13216 0.69475 0.17847
 C306 C -0.10768 0.62967 0.10781
 C307 C -0.09239 0.60628 0.09231
 H308 H -0.20209 0.70610 0.12202
 H309 H -0.16871 0.66122 0.08822
 H310 H -0.08861 0.65888 0.16998
 H311 H -0.12198 0.70376 0.20379
 C312 C 1.19959 0.20041 0.75616
 C313 C 1.18232 0.18320 0.73545
 C314 C 1.16210 0.16306 0.71013
 C315 C 1.17523 0.13071 0.69743
 C316 C 1.15638 0.11193 0.67159
 C317 C 1.12432 0.12543 0.65834
 C318 C 1.11098 0.15759 0.67134
 C319 C 1.12984 0.17637 0.69718
 C320 C 1.10577 0.10694 0.63060
 C321 C 1.09060 0.09176 0.60691
 H322 H 1.20021 0.12024 0.70717
 H323 H 1.16699 0.08715 0.66165
 H324 H 1.08628 0.16833 0.66120
 H325 H 1.11950 0.20142 0.70672
 C326 C 0.79972 -0.19946 0.75928
 C327 C 0.81695 -0.18217 0.73841
 C328 C 0.83706 -0.16197 0.71288
 C329 C 0.82361 -0.12985 0.69964
 C330 C 0.84232 -0.11107 0.67353
 C331 C 0.87455 -0.12434 0.66056
 C332 C 0.88820 -0.15624 0.67411
 C333 C 0.86949 -0.17502 0.70021
 C334 C 0.89295 -0.10590 0.63251
 C335 C 0.90803 -0.09083 0.60857
 H336 H 0.79849 -0.11958 0.70915
 H337 H 0.83146 -0.08649 0.66316
 H338 H 0.91303 -0.16681 0.66419
 H339 H 0.88006 -0.19990 0.71017
 C340 C 1.19959 -0.20044 0.24386
 C341 C 1.18233 -0.18324 0.26457
 C342 C 1.16210 -0.16311 0.28990
 C343 C 1.12998 -0.17657 0.30307
 C344 C 1.11113 -0.15779 0.32891
 C345 C 1.12432 -0.12549 0.34169
 C346 C 1.15623 -0.11183 0.32822
 C347 C 1.17508 -0.13061 0.30238
 C348 C 1.10577 -0.10698 0.36943
 C349 C 1.09060 -0.09179 0.39312
 H350 H 1.11977 -0.20173 0.29369
 H351 H 1.08655 -0.16865 0.33922
 H352 H 1.16672 -0.08693 0.33800
 H353 H 1.19994 -0.12002 0.29247
 C354 C 0.79973 0.19942 0.24075
 C355 C 0.81695 0.18212 0.26161
 C356 C 0.83705 0.16190 0.28714
 C357 C 0.86964 0.17479 0.29958
 C358 C 0.88834 0.15601 0.32568
 C359 C 0.87453 0.12427 0.33946
 C360 C 0.84215 0.11116 0.32671
 C361 C 0.82344 0.12994 0.30061
 C362 C 0.89294 0.10583 0.36751
 C363 C 0.90803 0.09077 0.39145
 H364 H 0.88033 0.19954 0.28945
 H365 H 0.91330 0.16645 0.33543
 H366 H 0.83116 0.08671 0.33726
 H367 H 0.79820 0.11981 0.29128
 C368 C 0.19959 0.24383 -0.20042
 C369 C 0.18233 0.26453 -0.18321
 C370 C 0.16210 0.28986 -0.16307
 C371 C 0.12991 0.30291 -0.17644
 C372 C 0.11106 0.32875 -0.15766
 C373 C 0.12433 0.34164 -0.12543
 C374 C 0.15632 0.32829 -0.11186
 C375 C 0.17517 0.30245 -0.13064
 C376 C 0.10579 0.36939 -0.10693
 C377 C 0.09062 0.39307 -0.09174
 H378 H 0.11963 0.29345 -0.20154
 H379 H 0.08641 0.33897 -0.16845
 H380 H 0.16689 0.33815 -0.08703
 H381 H 0.20010 0.29263 -0.12012
 C382 C -0.20025 0.24073 0.19946
 C383 C -0.18301 0.26159 0.18218
 C384 C -0.16288 0.28712 0.16199
 C385 C -0.13063 0.30006 0.17523
 C386 C -0.11193 0.32616 0.15646
 C387 C -0.12539 0.33944 0.12436
 C388 C -0.15743 0.32619 0.11090
 C389 C -0.17614 0.30009 0.12968
 C390 C -0.10701 0.36749 0.10591
 C391 C -0.09193 0.39143 0.09083
 H392 H -0.12021 0.29031 0.20025
 H393 H -0.08724 0.33629 0.16716
 H394 H -0.16815 0.33635 0.08617
 H395 H -0.20111 0.29037 0.11926
 C396 C -0.20028 0.75923 -0.19944
 C397 C -0.18305 0.73837 -0.18216
 C398 C -0.16294 0.71283 -0.16196
 C399 C -0.17634 0.69964 -0.12980
 C400 C -0.15763 0.67354 -0.11102
 C401 C -0.12545 0.66051 -0.12433
 C402 C -0.11184 0.67400 -0.15628
 C403 C -0.13054 0.70010 -0.17506
 C404 C -0.10705 0.63246 -0.10589
 C405 C -0.09196 0.60852 -0.09082
 H406 H -0.20142 0.70920 -0.11949
 H407 H -0.16846 0.66321 -0.08641
 H408 H -0.08704 0.66403 -0.16688
 H409 H -0.12000 0.71001 -0.19996
 C410 C 0.19960 0.75616 0.20043
 C411 C 0.18233 0.73545 0.18322
 C412 C 0.16210 0.71013 0.16308
 C413 C 0.12996 0.69700 0.17650
 C414 C 0.11111 0.67116 0.15772
 C415 C 0.12432 0.65835 0.12544
 C416 C 0.15626 0.67177 0.11182
 C417 C 0.17511 0.69761 0.13060
 C418 C 0.10578 0.63060 0.10694
 C419 C 0.09061 0.60691 0.09175
 H420 H 0.11972 0.70640 0.20165
 H421 H 0.08650 0.66088 0.16856
 H422 H 0.16678 0.66197 0.08694
 H423 H 0.20000 0.70749 0.12004
 C424 C 0.24315 1.20036 0.79962
 C425 C 0.26396 1.18310 0.81688
 C426 C 0.28941 1.16290 0.83708
 C427 C 0.30224 1.17602 0.86939
 C428 C 0.32820 1.15720 0.88821
 C429 C 0.34144 1.12518 0.87479
 C430 C 0.32832 1.11185 0.84269
 C431 C 0.30236 1.13067 0.82387
 C432 C 0.36933 1.10666 0.89332
 C433 C 0.39312 1.09149 0.90849
 H434 H 0.29250 1.20097 0.87978
 H435 H 0.33824 1.16781 0.91295
 H436 H 0.33845 1.08717 0.83201
 H437 H 0.29271 1.12034 0.79885
 C438 C 0.24316 0.79963 1.20039
 C439 C 0.26396 0.81689 1.18313
 C440 C 0.28941 0.83710 1.16294
 C441 C 0.30216 0.82403 1.13058
 C442 C 0.32813 0.84285 1.11176
 C443 C 0.34145 0.87482 1.12522
 C444 C 0.32839 0.88810 1.15738
 C445 C 0.30243 0.86928 1.17620
 C446 C 0.36933 0.89334 1.10670
 C447 C 0.39313 0.90851 1.09153
 H448 H 0.29237 0.79912 1.12014
 H449 H 0.33811 0.83228 1.08698
 H450 H 0.33859 0.91273 1.16810
 H451 H 0.29284 0.87957 1.20126
 C452 C 0.75858 1.19950 1.19950
 C453 C 0.73781 1.18227 1.18225
 C454 C 0.71239 1.16215 1.16211
 C455 C 0.69934 1.17556 1.12990
 C456 C 0.67336 1.15683 1.11116
 C457 C 0.66032 1.12460 1.12456
 C458 C 0.67368 1.11098 1.15656
 C459 C 0.69966 1.12971 1.17529
 C460 C 0.63241 1.10618 1.10614
 C461 C 0.60858 1.09109 1.09106
 H462 H 0.70890 1.20068 1.11952
 H463 H 0.66314 1.16767 1.08651
 H464 H 0.66371 1.08615 1.16722
 H465 H 0.70947 1.11916 1.20024
 C466 C 0.75857 0.80048 0.80053
 C467 C 0.73781 0.81772 0.81778
 C468 C 0.71240 0.83785 0.83793
 C469 C 0.69977 0.87035 0.82481
 C470 C 0.67380 0.88909 0.84354
 C471 C 0.66034 0.87540 0.87547
 C472 C 0.67327 0.84310 0.88880
 C473 C 0.69924 0.82437 0.87007
 C474 C 0.63242 0.89383 0.89388
 C475 C 0.60859 0.90892 0.90896
 H476 H 0.70967 0.88095 0.79992
 H477 H 0.66391 0.91397 0.83293
 H478 H 0.66297 0.83222 0.91340
 H479 H 0.70872 0.79920 0.88039
   
