data_POSCAR
  _audit_creation_date              2014-09-24
  _audit_creation_method            'ToBaCCo'
  _symmetry_space_group_name_H-M    'P1'
  _symmetry_Int_Tables_number       1
  _symmetry_cell_setting            triclinic
  loop_
  _symmetry_equiv_pos_as_xyz
 x,y,z
_cell_length_a 18.6773
_cell_length_b 17.9377
_cell_length_c 37.4078
_cell_angle_alpha 82.341900
_cell_angle_beta 93.907800
_cell_angle_gamma 121.181000
loop_
  _atom_site_label
  _atom_site_type_symbol
  _atom_site_fract_x
  _atom_site_fract_y
  _atom_site_fract_z
C1 C -0.00874 0.07023 0.55899
 H2 H -0.00099 0.01439 0.56481
 C3 C -0.00236 0.11608 0.58728
 H4 H 0.00796 0.09384 0.61444
 C5 C -0.02664 0.17078 0.51712
 H6 H -0.03370 0.19312 0.48952
 C7 C -0.01902 0.21991 0.54492
 H8 H -0.02212 0.27887 0.53879
 N9 N -0.02013 0.09792 0.52453
 C10 C 0.05190 -0.07324 0.51914
 H11 H 0.11190 -0.02439 0.50721
 C12 C 0.04514 -0.14181 0.54445
 H13 H 0.10012 -0.14600 0.55182
 C14 C -0.09179 -0.12342 0.52700
 H15 H -0.14409 -0.11367 0.52117
 C16 C -0.10072 -0.19117 0.55268
 H17 H -0.16007 -0.23425 0.56636
 Zn18 Zn -0.01285 0.03692 0.48798
 N19 N -0.01578 -0.06416 0.51194
 C20 C 0.13087 0.20010 0.46584
 N21 N 0.08570 0.11381 0.46034
 C22 C 0.10167 0.08544 0.43162
 C23 C 0.15840 0.14572 0.40513
 C24 C 0.18790 0.26267 0.43988
 C25 C -0.16575 0.01616 0.45545
 C26 C -0.23670 -0.02509 0.43375
 C27 C -0.18239 -0.10902 0.41379
 C28 C -0.11300 -0.06671 0.43584
 N29 N -0.10579 -0.00560 0.45621
 H30 H 0.11963 0.22164 0.48927
 H31 H 0.06721 0.01672 0.42807
 H32 H 0.16716 0.12315 0.38125
 H33 H 0.21966 0.33154 0.44354
 H34 H -0.16018 0.06301 0.47248
 H35 H -0.28570 -0.00989 0.43419
 H36 H -0.18874 -0.15982 0.39879
 H37 H -0.06700 -0.08632 0.43816
 C38 C -0.03154 -0.19937 0.56233
 C39 C -0.00573 0.19232 0.58037
 C40 C -0.24525 -0.08887 0.41303
 C41 C 0.19908 0.23533 0.40844
 C42 C 1.19413 0.07482 0.12090
 H43 H 1.19106 0.13391 0.11587
 C44 C 1.25385 0.06933 0.10327
 H45 H 1.29493 0.12301 0.08374
 C46 C 1.14034 -0.06922 0.15065
 H47 H 1.09541 -0.12289 0.16904
 C48 C 1.20014 -0.07741 0.13330
 H49 H 1.19899 -0.13891 0.13716
 N50 N 1.13721 0.00550 0.14320
 C51 C 0.92579 0.04781 0.13311
 H52 H 0.92079 0.06136 0.15986
 C53 C 0.85983 0.02815 0.10845
 H54 H 0.80533 0.02887 0.11607
 C55 C 0.99878 0.02209 0.09161
 H56 H 1.05019 0.01473 0.08545
 C57 C 0.93542 0.00387 0.06611
 H58 H 0.93996 -0.01490 0.04039
 Zn59 Zn 1.06380 0.03371 0.16251
 N60 N 0.99245 0.04178 0.12476
 C61 C 1.13515 0.21423 0.17940
 N62 N 1.13842 0.13957 0.18225
 C63 C 1.19894 0.13247 0.20201
 C64 C 1.25504 0.19842 0.22221
 C65 C 1.19160 0.28320 0.19923
 C66 C 0.91370 -0.11313 0.19132
 C67 C 0.84827 -0.15376 0.21654
 C68 C 0.94514 -0.06693 0.26092
 C69 C 1.00826 -0.02726 0.23490
 N70 N 0.99132 -0.04865 0.20045
 H71 H 1.08678 0.21858 0.16333
 H72 H 1.20025 0.07252 0.20391
 H73 H 1.29864 0.18882 0.23993
 H74 H 1.18547 0.34002 0.19912
 H75 H 0.90073 -0.12790 0.16369
 H76 H 0.78591 -0.20140 0.20834
 H77 H 0.95866 -0.04631 0.28772
 H78 H 1.06905 0.02490 0.24195
 C79 C 0.86382 0.00362 0.07482
 C80 C 1.25640 -0.00754 0.10873
 C81 C 0.86362 -0.12798 0.25147
 C82 C 1.25051 0.27348 0.22168
 C83 C 0.01346 0.87867 0.91649
 H84 H -0.05171 0.85216 0.92214
 C85 C 0.06256 0.86558 0.94313
 H86 H 0.03600 0.83249 0.96945
 C87 C 0.12732 0.95044 0.87542
 H88 H 0.15176 0.98252 0.84882
 C89 C 0.17849 0.93692 0.90130
 H90 H 0.24298 0.96056 0.89488
 N91 N 0.04652 0.92203 0.88357
 C92 C -0.20212 0.83253 0.86605
 H93 H -0.20825 0.79310 0.84526
 C94 C -0.27249 0.81279 0.88530
 H95 H -0.33339 0.75861 0.87896
 C96 C -0.11607 0.95188 0.89975
 H97 H -0.05445 1.00574 0.90531
 C98 C -0.18471 0.93458 0.91953
 H99 H -0.17645 0.97602 0.93991
 Zn100 Zn -0.02846 0.92966 0.84867
 N101 N -0.12598 0.90163 0.87338
 C102 C -0.08624 0.85834 0.78283
 N103 N -0.05110 0.84967 0.81497
 C104 C -0.02202 0.79335 0.82116
 C105 C -0.02400 0.74621 0.79379
 C106 C -0.08904 0.81279 0.75473
 C107 C -0.02237 1.09040 0.82430
 C108 C -0.00314 1.16369 0.79946
 C109 C 0.09600 1.14149 0.77151
 C110 C 0.07570 1.06917 0.79715
 N111 N 0.01569 1.04349 0.82235
 H112 H -0.10795 0.90425 0.77843
 H113 H 0.00585 0.78745 0.84685
 H114 H 0.00232 0.70436 0.79865
 H115 H -0.11363 0.82309 0.72869
 H116 H -0.07181 1.06833 0.84346
 H117 H -0.03744 1.19701 0.80020
 H118 H 0.13973 1.15786 0.75011
 H119 H 0.10311 1.02958 0.79513
 C120 C -0.26358 0.86451 0.91216
 C121 C 0.14542 0.89432 0.93561
 C122 C 0.05466 1.18785 0.77195
 C123 C -0.05590 0.75778 0.75983
 C124 C 0.65637 -0.07268 0.03060
 C125 C 0.66633 -0.09921 -0.00175
 C126 C 0.60306 -0.12709 -0.02801
 C127 C 0.53100 -0.12383 -0.02306
 C128 C 0.51808 -0.10164 0.00981
 C129 C 0.57975 -0.07827 0.03719
 C130 C 0.56334 -0.06027 0.07024
 C131 C 0.48738 -0.06556 0.07617
 C132 C 0.42698 -0.08574 0.04876
 C133 C 0.44343 -0.10208 0.01501
 C134 C 0.47179 -0.14142 -0.05091
 C135 C 0.40166 -0.13566 -0.04679
 C136 C 0.38637 -0.11651 -0.01407
 C137 C 0.31517 -0.11137 -0.00989
 C138 C 0.29715 -0.10062 0.02394
 C139 C 0.35168 -0.08708 0.05323
 H140 H 0.60886 -0.04283 0.09185
 H141 H 0.47690 -0.05191 0.10203
 H142 H 0.48031 -0.15751 -0.07658
 H143 H 0.35859 -0.14795 -0.06922
 H144 H 0.72257 -0.10000 -0.00619
 H145 H 0.24066 -0.09949 0.02747
 C146 C 0.02373 0.35543 0.63989
 C147 C 0.03041 0.31462 0.67358
 C148 C 0.02962 0.34576 0.70589
 C149 C 0.02071 0.41962 0.70460
 C150 C 0.01875 0.46457 0.67065
 C151 C 0.02208 0.43330 0.63825
 C152 C 0.02218 0.47975 0.60493
 C153 C 0.01880 0.55584 0.60338
 C154 C 0.01226 0.58602 0.63506
 C155 C 0.01132 0.53969 0.66900
 C156 C 0.01375 0.44973 0.73626
 C157 C 0.00358 0.52206 0.73458
 C158 C 0.00188 0.56765 0.70121
 C159 C -0.01032 0.63962 0.69913
 C160 C -0.00898 0.68466 0.66524
 C161 C 0.00382 0.65983 0.63344
 H162 H 0.02545 0.45779 0.57981
 H163 H 0.01920 0.58969 0.57709
 H164 H 0.01508 0.41679 0.76253
 H165 H -0.00291 0.54212 0.75963
 H166 H 0.03292 0.25539 0.67486
 H167 H -0.01538 0.74169 0.66351
 C168 C 0.60901 0.76965 0.35400
 C169 C 0.67069 0.80356 0.32712
 C170 C 0.65569 0.76158 0.29579
 C171 C 0.57629 0.68736 0.29063
 C172 C 0.51763 0.64830 0.31921
 C173 C 0.53488 0.68857 0.35124
 C174 C 0.47898 0.64522 0.38048
 C175 C 0.40961 0.56136 0.37884
 C176 C 0.39099 0.52121 0.34705
 C177 C 0.44281 0.56709 0.31630
 C178 C 0.55516 0.64923 0.25809
 C179 C 0.47794 0.57299 0.25409
 C180 C 0.42201 0.52991 0.28323
 C181 C 0.34786 0.44825 0.28103
 C182 C 0.30107 0.40133 0.31235
 C183 C 0.32378 0.43499 0.34555
 H184 H 0.49078 0.67396 0.40549
 H185 H 0.37020 0.52837 0.40250
 H186 H 0.59810 0.67840 0.23547
 H187 H 0.46394 0.54577 0.22861
 H188 H 0.72957 0.86361 0.33023
 H189 H 0.24610 0.33690 0.31084
 N190 N 0.00555 0.23934 0.61022
 N191 N 0.01379 0.31480 0.60776
 N192 N 0.79778 0.84146 0.27716
 N193 N 0.72093 0.79159 0.26972
 N194 N 0.19535 -0.11520 -0.03572
 N195 N 0.26488 -0.10945 -0.04038
 N196 N -0.03836 0.74211 0.59357
 N197 N 0.00951 0.71113 0.59974
 N198 N 0.29205 0.32665 0.25001
 N199 N 0.32028 0.40850 0.24813
 N200 N 0.67277 -0.14866 -0.07244
 N201 N 0.60763 -0.16291 -0.05931
 N202 N 0.29954 -0.01968 0.08217
 N203 N 0.32911 -0.07022 0.08590
 N204 N 0.68701 0.86492 0.39746
 N205 N 0.61888 0.81708 0.38379
 N206 N 0.06201 0.24823 0.74120
 N207 N 0.03049 0.29691 0.73954
 N208 N 0.79541 -0.02652 0.04974
 N209 N 0.72327 -0.04059 0.05665
 N210 N 0.24565 0.29628 0.37835
 N211 N 0.28158 0.37921 0.37771
 N212 N -0.04891 0.72132 0.72933
 N213 N -0.02152 0.66892 0.73120
   
