data_POSCAR
  _audit_creation_date              2014-09-24
  _audit_creation_method            'ToBaCCo'
  _symmetry_space_group_name_H-M    'P1'
  _symmetry_Int_Tables_number       1
  _symmetry_cell_setting            triclinic
  loop_
  _symmetry_equiv_pos_as_xyz
 x,y,z
_cell_length_a 33.4506
_cell_length_b 35.6883
_cell_length_c 37.5941
_cell_angle_alpha 86.670500
_cell_angle_beta 90.507700
_cell_angle_gamma 90.525700
loop_
  _atom_site_label
  _atom_site_type_symbol
  _atom_site_fract_x
  _atom_site_fract_y
  _atom_site_fract_z
C1 C 0.31849 0.28654 0.21897
 H2 H 0.33482 0.27315 0.24109
 C3 C 0.33919 0.30653 0.19172
 H4 H 0.37144 0.30761 0.19319
 C5 C 0.25658 0.30030 0.19021
 H6 H 0.22434 0.29766 0.18993
 C7 C 0.27598 0.32050 0.16250
 H8 H 0.25839 0.33347 0.14088
 N9 N 0.27793 0.28411 0.21782
 C10 C 0.19475 0.28012 0.30648
 H11 H 0.19184 0.25027 0.31284
 C12 C 0.17483 0.30536 0.32698
 H13 H 0.15661 0.29453 0.34895
 C14 C 0.22474 0.33028 0.27199
 H15 H 0.24491 0.33998 0.25109
 C16 C 0.20579 0.35648 0.29210
 H17 H 0.21118 0.38616 0.28620
 Zn18 Zn 0.24857 0.25785 0.25410
 N19 N 0.21895 0.29285 0.27940
 C20 C 0.28752 0.24307 0.32039
 N21 N 0.28379 0.23148 0.28665
 C22 C 0.30482 0.20163 0.27620
 C23 C 0.32974 0.18150 0.30031
 C24 C 0.31200 0.22375 0.34533
 C25 C 0.17429 0.22111 0.23815
 C26 C 0.14998 0.19633 0.22002
 C27 C 0.20772 0.17801 0.18734
 C28 C 0.23093 0.20290 0.20624
 N29 N 0.21416 0.22363 0.23135
 H30 H 0.27165 0.26746 0.32813
 H31 H 0.30240 0.19332 0.24913
 H32 H 0.34632 0.15824 0.29091
 H33 H 0.31421 0.23329 0.37212
 H34 H 0.16099 0.23844 0.25730
 H35 H 0.11833 0.19457 0.22583
 H36 H 0.22213 0.16143 0.16805
 H37 H 0.26235 0.20622 0.20031
 C38 C 0.18032 0.34415 0.31982
 C39 C 0.31774 0.32424 0.16312
 C40 C 0.16653 0.17469 0.19400
 C41 C 0.33304 0.19217 0.33569
 C42 C 0.81698 0.78374 0.21575
 H43 H 0.83294 0.76319 0.23251
 C44 C 0.83821 0.80787 0.19202
 H45 H 0.87030 0.80524 0.19171
 C46 C 0.75564 0.81073 0.19623
 H47 H 0.72336 0.81122 0.19775
 C48 C 0.77559 0.83548 0.17221
 H49 H 0.75821 0.85516 0.15552
 N50 N 0.77649 0.78560 0.21743
 C51 C 0.70146 0.75320 0.30869
 H52 H 0.70261 0.72299 0.30776
 C53 C 0.67958 0.76927 0.33521
 H54 H 0.66379 0.75126 0.35467
 C55 C 0.72030 0.81335 0.28409
 H56 H 0.73612 0.83042 0.26405
 C57 C 0.69899 0.83062 0.31033
 H58 H 0.69806 0.86094 0.30950
 Zn59 Zn 0.74758 0.75087 0.24735
 N60 N 0.72054 0.77530 0.28337
 C61 C 0.80477 0.72799 0.29822
 N62 N 0.78297 0.71600 0.27030
 C63 C 0.78576 0.68016 0.26010
 C64 C 0.81157 0.65489 0.27809
 C65 C 0.83029 0.70343 0.31742
 C66 C 0.67075 0.72466 0.22714
 C67 C 0.64351 0.70529 0.20656
 C68 C 0.69738 0.69063 0.16746
 C69 C 0.72365 0.71018 0.18892
 N70 N 0.71017 0.72605 0.21853
 H71 H 0.80200 0.75665 0.30574
 H72 H 0.76797 0.67098 0.23811
 H73 H 0.81361 0.62645 0.26969
 H74 H 0.84751 0.71349 0.33950
 H75 H 0.66023 0.73826 0.25012
 H76 H 0.61237 0.70383 0.21423
 H77 H 0.70924 0.67708 0.14489
 H78 H 0.75505 0.71219 0.18235
 C79 C 0.67808 0.80841 0.33626
 C80 C 0.81747 0.83424 0.16951
 C81 C 0.65666 0.68786 0.17639
 C82 C 0.83364 0.66628 0.30745
 C83 C 0.79756 0.29505 0.75441
 H84 H 0.80274 0.28883 0.78257
 C85 C 0.82139 0.32163 0.73574
 H86 H 0.84509 0.33581 0.74963
 C87 C 0.75998 0.28433 0.70216
 H88 H 0.73548 0.27026 0.68939
 C89 C 0.78332 0.31049 0.68238
 H90 H 0.77623 0.31638 0.65450
 N91 N 0.76761 0.27701 0.73745
 C92 C 0.68187 0.24928 0.82174
 H93 H 0.68207 0.21892 0.82365
 C94 C 0.65717 0.26865 0.84403
 H95 H 0.63867 0.25303 0.86331
 C96 C 0.70465 0.30651 0.79355
 H97 H 0.72233 0.32126 0.77324
 C98 C 0.68048 0.32695 0.81528
 H99 H 0.67994 0.35716 0.81093
 Zn100 Zn 0.73671 0.24192 0.76518
 N101 N 0.70508 0.26837 0.79712
 C102 C 0.77385 0.20624 0.82688
 N103 N 0.77316 0.20932 0.79065
 C104 C 0.80022 0.19091 0.77151
 C105 C 0.82845 0.16746 0.78857
 C106 C 0.80176 0.18324 0.84518
 C107 C 0.66219 0.21448 0.74016
 C108 C 0.63662 0.19389 0.71900
 C109 C 0.69390 0.17401 0.68665
 C110 C 0.71843 0.19471 0.70866
 N111 N 0.70244 0.21420 0.73510
 H112 H 0.75323 0.22204 0.84188
 H113 H 0.80067 0.19506 0.74288
 H114 H 0.84951 0.15322 0.77237
 H115 H 0.80069 0.18181 0.87390
 H116 H 0.64958 0.23069 0.76055
 H117 H 0.60472 0.19414 0.72372
 H118 H 0.70759 0.15813 0.66643
 H119 H 0.75021 0.19550 0.70419
 C120 C 0.65646 0.30798 0.84115
 C121 C 0.81475 0.32928 0.69921
 C122 C 0.65233 0.17346 0.69175
 C123 C 0.82984 0.16319 0.82601
 C124 C 0.30188 0.78926 0.71024
 H125 H 0.31762 0.77200 0.73019
 C126 C 0.32358 0.81435 0.68778
 H127 H 0.35568 0.81584 0.69111
 C128 C 0.24100 0.81002 0.68368
 H129 H 0.20882 0.80886 0.68249
 C130 C 0.26150 0.83558 0.66078
 H131 H 0.24475 0.85351 0.64190
 N132 N 0.26133 0.78700 0.70749
 C133 C 0.17157 0.75886 0.78815
 H134 H 0.16717 0.72924 0.78461
 C135 C 0.14756 0.77712 0.81184
 H136 H 0.12462 0.76135 0.82651
 C137 C 0.20681 0.81541 0.77321
 H138 H 0.22996 0.83019 0.75803
 C139 C 0.18359 0.83475 0.79671
 H140 H 0.18877 0.86452 0.79861
 Zn141 Zn 0.23245 0.75188 0.73802
 N142 N 0.20057 0.77813 0.76952
 C143 C 0.26907 0.71993 0.80101
 N144 N 0.26924 0.72085 0.76479
 C145 C 0.29595 0.70039 0.74712
 C146 C 0.32341 0.67746 0.76591
 C147 C 0.29604 0.69735 0.82089
 C148 C 0.16593 0.73824 0.69381
 C149 C 0.14029 0.71753 0.67279
 C150 C 0.17969 0.66250 0.68783
 C151 C 0.20461 0.68430 0.70853
 N152 N 0.19801 0.72171 0.71051
 H153 H 0.24821 0.73693 0.81462
 H154 H 0.29594 0.70199 0.71829
 H155 H 0.34437 0.66134 0.75133
 H156 H 0.29561 0.69789 0.84959
 H157 H 0.15979 0.76746 0.69717
 H158 H 0.11516 0.73137 0.65946
 H159 H 0.18571 0.63285 0.68722
 H160 H 0.22902 0.67102 0.72312
 C161 C 0.15369 0.81543 0.81671
 C162 C 0.30334 0.83759 0.66220
 C163 C 0.14734 0.67928 0.66904
 C164 C 0.32349 0.67537 0.80327
 C165 C 0.07587 0.05815 0.01429
 H166 H 0.07438 0.06152 -0.01448
 C167 C 0.09988 0.08226 0.03338
 H168 H 0.11706 0.10409 0.01912
 C169 C 0.05493 0.02582 0.06782
 H170 H 0.03706 0.00407 0.08123
 C171 C 0.07831 0.04950 0.08798
 H172 H 0.07886 0.04476 0.11666
 N173 N 0.05440 0.03028 0.03162
 C174 C 0.03414 -0.05164 -0.04918
 H175 H 0.00201 -0.05499 -0.04773
 C176 C 0.05582 -0.07169 -0.07329
 H177 H 0.03971 -0.08980 -0.09059
 C178 C 0.09348 -0.02291 -0.02875
 H179 H 0.10822 -0.00431 -0.01108
 C180 C 0.11628 -0.04231 -0.05247
 H181 H 0.14838 -0.03805 -0.05301
 Zn182 Zn 0.02166 -0.00057 0.00378
 N183 N 0.05307 -0.02740 -0.02789
 C184 C -0.01731 0.03303 -0.05789
 N185 N -0.01459 0.03166 -0.02174
 C186 C -0.03731 0.05415 -0.00229
 C187 C -0.06510 0.07832 -0.01903
 C188 C -0.04464 0.05694 -0.07583
 C189 C 0.01438 -0.06186 0.05372
 C190 C -0.00519 -0.08756 0.07715
 C191 C -0.06824 -0.06064 0.05771
 C192 C -0.04740 -0.03554 0.03464
 N193 N -0.00680 -0.03601 0.03362
 H194 H 0.00168 0.01561 -0.07297
 H195 H -0.03409 0.05294 0.02642
 H196 H -0.08316 0.09559 -0.00278
 H197 H -0.04595 0.05668 -0.10449
 H198 H 0.04665 -0.06206 0.05196
 H199 H 0.01248 -0.10746 0.09333
 H200 H -0.10041 -0.05887 0.05757
 H201 H -0.06387 -0.01562 0.01766
 C202 C 0.09760 -0.06709 -0.07515
 C203 C 0.10108 0.07832 0.07069
 C204 C -0.04709 -0.08696 0.07993
 C205 C -0.06940 0.07998 -0.05632
 C206 C 0.02717 0.55247 0.52906
 H207 H 0.00680 0.56775 0.51125
 C208 C 0.05236 0.57219 0.55127
 H209 H 0.05157 0.60253 0.54942
 C210 C 0.05315 0.49450 0.55238
 H211 H 0.05292 0.46416 0.55283
 C212 C 0.07901 0.51313 0.57498
 H213 H 0.09888 0.49696 0.59271
 N214 N 0.02802 0.51433 0.52993
 C215 C -0.00363 0.44380 0.44262
 H216 H -0.03578 0.44678 0.44290
 C217 C 0.01396 0.42122 0.41817
 H218 H -0.00481 0.40678 0.39963
 C219 C 0.05980 0.45842 0.46703
 H220 H 0.07750 0.47278 0.48626
 C221 C 0.07872 0.43645 0.44269
 H222 H 0.11088 0.43363 0.44404
 Zn223 Zn -0.00811 0.48820 0.50098
 N224 N 0.01925 0.46101 0.46702
 C225 C -0.02501 0.54291 0.44718
 N226 N -0.04152 0.52296 0.47536
 C227 C -0.08031 0.52786 0.48451
 C228 C -0.10383 0.55428 0.46540
 C229 C -0.04768 0.56910 0.42695
 C230 C -0.04109 0.41759 0.52413
 C231 C -0.06522 0.39302 0.54477
 C232 C -0.08282 0.44435 0.58055
 C233 C -0.05848 0.46808 0.55899
 N234 N -0.03891 0.45459 0.53092
 H235 H 0.00593 0.53851 0.44054
 H236 H -0.09308 0.51156 0.50672
 H237 H -0.13454 0.55824 0.47318
 H238 H -0.03381 0.58510 0.40496
 H239 H -0.02445 0.40692 0.50253
 H240 H -0.06718 0.36380 0.53849
 H241 H -0.09920 0.45607 0.60188
 H242 H -0.05576 0.49749 0.56421
 C243 C 0.05556 0.41718 0.41810
 C244 C 0.07846 0.55244 0.57497
 C245 C -0.08659 0.40625 0.57326
 C246 C -0.08766 0.57496 0.43606
 C247 C 0.56549 0.06081 0.50739
 H248 H 0.56671 0.06244 0.47859
 C249 C 0.58746 0.08626 0.52676
 H250 H 0.60565 0.10748 0.51270
 C251 C 0.54074 0.03081 0.56069
 H252 H 0.52259 0.00914 0.57388
 C253 C 0.56206 0.05578 0.58110
 H254 H 0.56056 0.05213 0.60981
 N255 N 0.54345 0.03324 0.52455
 C256 C 0.54056 -0.06045 0.45513
 H257 H 0.50886 -0.06676 0.45510
 C258 C 0.56648 -0.08127 0.43526
 H259 H 0.55407 -0.10315 0.41966
 C260 C 0.59436 -0.02275 0.47426
 H261 H 0.60525 -0.00007 0.48956
 C262 C 0.62131 -0.04273 0.45466
 H263 H 0.65269 -0.03496 0.45486
 Zn264 Zn 0.51685 -0.00218 0.49681
 N265 N 0.55465 -0.03125 0.47341
 C266 C 0.48878 0.01915 0.42722
 N267 N 0.48441 0.02456 0.46250
 C268 C 0.45779 0.04980 0.47379
 C269 C 0.43379 0.07038 0.44921
 C270 C 0.46520 0.03883 0.40183
 C271 C 0.50528 -0.05964 0.54952
 C272 C 0.48411 -0.08500 0.57206
 C273 C 0.42253 -0.06110 0.54595
 C274 C 0.44493 -0.03620 0.52383
 N275 N 0.48552 -0.03555 0.52635
 H276 H 0.51063 -0.00032 0.41854
 H277 H 0.45511 0.05381 0.50197
 H278 H 0.41221 0.08964 0.45893
 H279 H 0.46891 0.03394 0.37388
 H280 H 0.53761 -0.05898 0.55056
 H281 H 0.50039 -0.10378 0.59052
 H282 H 0.39037 -0.06134 0.54294
 H283 H 0.42979 -0.01758 0.50457
 C284 C 0.60750 -0.07219 0.43461
 C285 C 0.58606 0.08388 0.56409
 C286 C 0.44220 -0.08567 0.57084
 C287 C 0.43750 0.06499 0.41261
 C288 C 0.55292 0.57328 0.00003
 H289 H 0.55017 0.57494 -0.02872
 C290 C 0.57683 0.59925 0.01697
 H291 H 0.59255 0.62091 0.00112
 C292 C 0.53603 0.54281 0.05560
 H293 H 0.51999 0.52091 0.07065
 C294 C 0.55941 0.56827 0.07363
 H295 H 0.56178 0.56469 0.10233
 N296 N 0.53382 0.54528 0.01941
 C297 C 0.52096 0.45419 -0.05242
 H298 H 0.48920 0.44851 -0.05056
 C299 C 0.54489 0.43239 -0.07326
 H300 H 0.53098 0.41052 -0.08794
 C301 C 0.57726 0.49016 -0.03578
 H302 H 0.59004 0.51212 -0.02061
 C303 C 0.60218 0.46932 -0.05648
 H304 H 0.63386 0.47585 -0.05742
 Zn305 Zn 0.50353 0.50993 -0.00540
 N306 N 0.53735 0.48260 -0.03441
 C307 C 0.46306 0.53534 -0.06925
 N308 N 0.46495 0.53712 -0.03323
 C309 C 0.44026 0.55984 -0.01589
 C310 C 0.41181 0.58154 -0.03478
 C311 C 0.43513 0.55673 -0.08924
 C312 C 0.50268 0.45215 0.04810
 C313 C 0.48623 0.42651 0.07347
 C314 C 0.42037 0.44691 0.05445
 C315 C 0.43811 0.47228 0.02953
 N316 N 0.47860 0.47487 0.02723
 H317 H 0.48331 0.51752 -0.08260
 H318 H 0.44276 0.56110 0.01273
 H319 H 0.39232 0.59940 -0.02050
 H320 H 0.43376 0.55417 -0.11774
 H321 H 0.53480 0.45447 0.04540
 H322 H 0.50588 0.40912 0.09034
 H323 H 0.38816 0.44646 0.05652
 H324 H 0.41942 0.49010 0.01233
 C325 C 0.58619 0.43984 -0.07529
 C326 C 0.58030 0.59695 0.05421
 C327 C 0.44461 0.42361 0.07692
 C328 C 0.40921 0.58049 -0.07195
 C329 C 0.12779 -0.16577 -0.15798
 C330 C 0.13813 -0.13415 -0.14257
 C331 C 0.11121 -0.11696 -0.11736
 C332 C 0.12265 -0.08633 -0.10082
 H333 H 0.16691 -0.12101 -0.14789
 H334 H 0.08235 -0.12993 -0.11211
 H335 H 0.09959 -0.17929 -0.15079
 H336 H 0.15247 -0.07511 -0.10573
 C337 C 0.16198 0.37218 0.34200
 C338 C 0.12695 0.36645 0.35836
 C339 C 0.11059 0.39455 0.38130
 C340 C 0.07334 0.39099 0.39369
 H341 H 0.10994 0.34096 0.35470
 H342 H 0.12912 0.41827 0.38786
 H343 H 0.17738 0.39884 0.34417
 H344 H 0.05461 0.36823 0.38500
 C345 C 0.65265 -0.17515 0.36328
 C346 C 0.65814 -0.14061 0.37456
 C347 C 0.63004 -0.12502 0.39964
 C348 C 0.63611 -0.09089 0.41171
 H349 H 0.68315 -0.12344 0.36509
 H350 H 0.60407 -0.14156 0.40782
 H351 H 0.62854 -0.19241 0.37457
 H352 H 0.66340 -0.07578 0.40443
 C353 C 0.62918 0.32813 -0.13582
 C354 C 0.63473 0.36398 -0.12821
 C355 C 0.60618 0.38322 -0.10608
 C356 C 0.61331 0.41848 -0.09735
 H357 H 0.66075 0.37946 -0.13798
 H358 H 0.57967 0.36824 -0.09667
 H359 H 0.60403 0.31263 -0.12414
 H360 H 0.64110 0.43202 -0.10574
 C361 C -0.14198 0.14047 -0.15846
 C362 C -0.13549 0.13420 -0.12170
 C363 C -0.10555 0.10988 -0.10879
 C364 C -0.09826 0.10434 -0.07215
 H365 H -0.15310 0.14814 -0.10258
 H366 H -0.08807 0.09566 -0.12781
 H367 H -0.12227 0.12595 -0.17579
 H368 H -0.11633 0.12016 -0.05454
 C369 C -0.13984 0.63918 0.32690
 C370 C -0.13543 0.63824 0.36231
 C371 C -0.10966 0.61023 0.38104
 C372 C -0.11264 0.60311 0.41622
 H373 H -0.15197 0.65749 0.37777
 H374 H -0.08896 0.59455 0.36575
 H375 H -0.12555 0.61799 0.31197
 H376 H -0.13552 0.61703 0.43073
 C377 C 0.35825 0.17193 0.36314
 C378 C 0.37243 0.13731 0.36016
 C379 C 0.39642 0.11874 0.38904
 C380 C 0.41253 0.08509 0.38505
 H381 H 0.36597 0.12200 0.33676
 H382 H 0.40157 0.13314 0.41326
 H383 H 0.36438 0.18581 0.38754
 H384 H 0.40864 0.07225 0.35978
 C385 C 0.35329 0.65098 -0.17750
 C386 C 0.35032 0.63910 -0.14318
 C387 C 0.38118 0.61487 -0.12593
 C388 C 0.37879 0.60396 -0.09134
 H389 H 0.32492 0.64666 -0.12758
 H390 H 0.40640 0.60689 -0.14157
 H391 H 0.37839 0.64158 -0.19263
 H392 H 0.35412 0.61396 -0.07605
 C393 C -0.16355 -0.14092 0.14436
 C394 C -0.12246 -0.13965 0.13747
 C395 C -0.10684 -0.11392 0.11175
 C396 C -0.06577 -0.11239 0.10478
 H397 H -0.10209 -0.15855 0.15170
 H398 H -0.12729 -0.09500 0.09766
 H399 H -0.18233 -0.12140 0.12874
 H400 H -0.04681 -0.13191 0.12020
 C401 C -0.15955 0.35743 0.67978
 C402 C -0.15161 0.35620 0.64509
 C403 C -0.12500 0.38414 0.62694
 C404 C -0.11349 0.37981 0.59347
 H405 H -0.16383 0.33376 0.62999
 H406 H -0.11418 0.40764 0.64136
 H407 H -0.14510 0.37876 0.69493
 H408 H -0.12321 0.35488 0.58050
 C409 C 0.32441 -0.13508 0.63750
 C410 C 0.36294 -0.13792 0.62877
 C411 C 0.38200 -0.10997 0.60377
 C412 C 0.42057 -0.11295 0.59517
 H413 H 0.38062 -0.16126 0.63946
 H414 H 0.36441 -0.08656 0.59313
 H415 H 0.30704 -0.11232 0.62505
 H416 H 0.43764 -0.13596 0.60756
 C417 C 0.33713 0.34665 0.13346
 C418 C 0.37478 0.35961 0.13428
 C419 C 0.39045 0.38391 0.10447
 C420 C 0.42785 0.39747 0.10516
 H421 H 0.39382 0.35377 0.15729
 H422 H 0.37098 0.39069 0.08191
 H423 H 0.31878 0.35429 0.11027
 H424 H 0.44731 0.38872 0.12728
 C425 C 0.14029 0.14871 0.17487
 C426 C 0.14805 0.13795 0.14213
 C427 C 0.12093 0.11213 0.12421
 C428 C 0.12711 0.10397 0.09039
 H429 H 0.17414 0.14872 0.12794
 H430 H 0.09547 0.10040 0.13869
 H431 H 0.11281 0.13922 0.18771
 H432 H 0.15163 0.11772 0.07599
 C433 C 0.11982 0.65820 0.64607
 C434 C 0.12751 0.62428 0.63432
 C435 C 0.09899 0.60603 0.61056
 C436 C 0.10595 0.57182 0.59920
 H437 H 0.15514 0.61006 0.64127
 H438 H 0.07183 0.62071 0.60277
 H439 H 0.09229 0.67190 0.63745
 H440 H 0.13231 0.55686 0.60891
 C441 C 0.62478 0.15090 0.67034
 C442 C 0.63269 0.14149 0.63721
 C443 C 0.60470 0.11767 0.61792
 C444 C 0.61163 0.10955 0.58423
 H445 H 0.65986 0.15127 0.62410
 H446 H 0.57838 0.10673 0.63162
 H447 H 0.59640 0.14237 0.68212
 H448 H 0.63715 0.12247 0.57061
 C449 C 0.62754 0.66552 0.15641
 C450 C 0.63247 0.65664 0.12266
 C451 C 0.60323 0.63223 0.10560
 C452 C 0.60731 0.62350 0.07172
 H453 H 0.65811 0.66694 0.10757
 H454 H 0.57831 0.62112 0.12121
 H455 H 0.60057 0.65611 0.17017
 H456 H 0.63128 0.63653 0.05603
   
