data_POSCAR
  _audit_creation_date              2014-09-24
  _audit_creation_method            'ToBaCCo'
  _symmetry_space_group_name_H-M    'P1'
  _symmetry_Int_Tables_number       1
  _symmetry_cell_setting            triclinic
  loop_
  _symmetry_equiv_pos_as_xyz
 x,y,z
_cell_length_a 26.7021
_cell_length_b 39.8661
_cell_length_c 35.6669
_cell_angle_alpha 89.840000
_cell_angle_beta 90.130400
_cell_angle_gamma 90.245200
loop_
  _atom_site_label
  _atom_site_type_symbol
  _atom_site_fract_x
  _atom_site_fract_y
  _atom_site_fract_z
O1 O 0.26354 0.28390 0.20430
 O2 O 0.30250 0.21534 0.26745
 O3 O 0.25143 0.21896 0.20546
 O4 O 0.31567 0.27996 0.26630
 O5 O 0.24579 0.28751 0.29802
 O6 O 0.18276 0.22434 0.23899
 O7 O 0.23436 0.22288 0.30125
 O8 O 0.19355 0.28919 0.23640
 Cu9 Cu 0.29021 0.24897 0.23255
 Cu10 Cu 0.20714 0.25659 0.27190
 C11 C 0.22156 0.29807 0.20939
 C12 C 0.27532 0.20770 0.29543
 C13 C 0.20614 0.21092 0.21189
 C14 C 0.29178 0.29419 0.29256
 O15 O 0.67804 0.28001 0.26023
 O16 O 0.73933 0.21624 0.20175
 O17 O 0.67761 0.21480 0.25846
 O18 O 0.73893 0.28155 0.20359
 O19 O 0.80475 0.27896 0.24084
 O20 O 0.74087 0.21496 0.29832
 O21 O 0.80203 0.21381 0.24208
 O22 O 0.74359 0.28035 0.29796
 Cu23 Cu 0.70203 0.24820 0.22709
 Cu24 Cu 0.77923 0.24703 0.27374
 C25 C 0.70059 0.29132 0.28897
 C26 C 0.78092 0.20389 0.21215
 C27 C 0.69852 0.20362 0.28796
 C28 C 0.78269 0.29145 0.21244
 O29 O 0.77277 0.78421 0.78591
 O30 O 0.72188 0.71901 0.72317
 O31 O 0.77156 0.71885 0.78560
 O32 O 0.72059 0.78430 0.72383
 O33 O 0.79096 0.78496 0.69160
 O34 O 0.84257 0.71988 0.75424
 O35 O 0.79262 0.71933 0.69139
 O36 O 0.84317 0.78451 0.75364
 Cu37 Cu 0.73960 0.75166 0.75780
 Cu38 Cu 0.82426 0.75228 0.71932
 C39 C 0.81702 0.79516 0.78075
 C40 C 0.74881 0.70778 0.69673
 C41 C 0.81587 0.70821 0.78077
 C42 C 0.74684 0.79577 0.69704
 O43 O 0.24091 0.71487 0.71413
 O44 O 0.20183 0.78370 0.77553
 O45 O 0.24940 0.77987 0.71161
 O46 O 0.19751 0.71825 0.77895
 O47 O 0.27055 0.71644 0.80772
 O48 O 0.32197 0.77771 0.74120
 O49 O 0.27454 0.78201 0.80488
 O50 O 0.31437 0.71329 0.74259
 Cu51 Cu 0.21504 0.74949 0.74227
 Cu52 Cu 0.30250 0.74721 0.77720
 C53 C 0.28440 0.70249 0.71758
 C54 C 0.23124 0.79468 0.80071
 C55 C 0.29501 0.78887 0.71466
 C56 C 0.22550 0.70644 0.80470
 C57 C 0.97619 0.00564 -0.00260
 C58 C 1.02713 0.00732 -0.00493
 C59 C 1.05655 0.03020 0.01953
 C60 C 1.05514 -0.01376 -0.03190
 C61 C 0.94661 -0.02010 -0.02321
 C62 C 0.94777 0.03050 0.01950
 C63 C 1.08944 0.05379 0.00370
 C64 C 1.11513 0.07656 0.02656
 C65 C 1.10858 0.07599 0.06569
 C66 C 1.07673 0.05164 0.08149
 C67 C 1.05119 0.02887 0.05865
 C68 C 1.04363 -0.01270 -0.07029
 C69 C 1.06487 -0.03581 -0.09486
 C70 C 1.09827 -0.06032 -0.08155
 C71 C 1.11194 -0.06002 -0.04342
 C72 C 1.09072 -0.03681 -0.01885
 C73 C 0.95940 -0.05421 -0.02110
 C74 C 0.93488 -0.07772 -0.04360
 C75 C 0.89600 -0.06772 -0.06763
 C76 C 0.88103 -0.03402 -0.06801
 C77 C 0.90628 -0.01036 -0.04605
 C78 C 0.91947 0.02009 0.05052
 C79 C 0.89380 0.04365 0.07204
 C80 C 0.89506 0.07777 0.06220
 C81 C 0.92244 0.08802 0.03060
 C82 C 0.94891 0.06456 0.00954
 H83 H 1.09418 0.05512 -0.02642
 H84 H 1.13915 0.09517 0.01354
 H85 H 1.07174 0.05009 0.11157
 H86 H 1.02687 0.01032 0.07147
 H87 H 1.01683 0.00530 -0.08096
 H88 H 1.05446 -0.03487 -0.12420
 H89 H 1.10010 -0.03794 0.01069
 H90 H 0.98930 -0.06249 -0.00277
 H91 H 0.94649 -0.10371 -0.04249
 H92 H 0.85114 -0.02580 -0.08639
 H93 H 0.89546 0.01575 -0.04789
 H94 H 0.91812 -0.00615 0.05842
 H95 H 0.87265 0.03525 0.09621
 H96 H 0.92405 0.11425 0.02267
 H97 H 0.97033 0.07290 -0.01453
 H98 H 1.13729 -0.07867 -0.03223
 C99 C 0.47804 0.49946 0.50568
 C100 C 0.52912 0.49767 0.50658
 C101 C 0.55869 0.51864 0.53295
 C102 C 0.55757 0.47538 0.48118
 C103 C 0.44710 0.47552 0.48347
 C104 C 0.45137 0.52561 0.52747
 C105 C 0.59244 0.54261 0.51905
 C106 C 0.61504 0.56564 0.54330
 C107 C 0.60466 0.56481 0.58196
 C108 C 0.57290 0.53952 0.59599
 C109 C 0.55024 0.51659 0.57171
 C110 C 0.54992 0.47649 0.44224
 C111 C 0.57496 0.45418 0.41877
 C112 C 0.60847 0.43053 0.43378
 C113 C 0.61718 0.43023 0.47268
 C114 C 0.59213 0.45256 0.49612
 C115 C 0.45567 0.44079 0.48550
 C116 C 0.42908 0.41875 0.46244
 C117 C 0.39229 0.43088 0.43779
 C118 C 0.38182 0.46537 0.43715
 C119 C 0.40912 0.48752 0.45973
 C120 C 0.41630 0.51633 0.55488
 C121 C 0.39673 0.54046 0.57914
 C122 C 0.41223 0.57410 0.57638
 C123 C 0.44515 0.58359 0.54759
 C124 C 0.46398 0.55963 0.52300
 H125 H 0.59931 0.54455 0.48920
 H126 H 0.63896 0.58496 0.53156
 H127 H 0.56501 0.53775 0.62569
 H128 H 0.52476 0.49791 0.58295
 H129 H 0.52413 0.49442 0.43010
 H130 H 0.56821 0.45547 0.38886
 H131 H 0.59863 0.45140 0.52608
 H132 H 0.48357 0.43079 0.50451
 H133 H 0.43714 0.39217 0.46387
 H134 H 0.35357 0.47526 0.41835
 H135 H 0.40151 0.51414 0.45795
 H136 H 0.40593 0.49025 0.55860
 H137 H 0.37129 0.53262 0.60112
 H138 H 0.45691 0.60949 0.54454
 H139 H 0.49011 0.56737 0.50144
 H140 H 0.64237 0.41212 0.48514
 C141 C 0.01318 0.50190 0.00454
 C142 C -0.03803 0.50158 0.00427
 C143 C -0.06723 0.47644 0.02631
 C144 C -0.06670 0.52647 -0.01828
 C145 C 0.04194 0.52263 -0.02264
 C146 C 0.04198 0.48207 0.03241
 C147 C -0.05464 0.44223 0.02539
 C148 C -0.08006 0.41911 0.04790
 C149 C -0.11985 0.42955 0.07053
 C150 C -0.13427 0.46334 0.07012
 C151 C -0.10794 0.48667 0.04834
 C152 C -0.10424 0.51574 -0.04321
 C153 C -0.12801 0.53881 -0.06683
 C154 C -0.11412 0.57277 -0.06602
 C155 C -0.07814 0.58373 -0.04012
 C156 C -0.05535 0.56087 -0.01591
 C157 C 0.07550 0.54719 -0.00975
 C158 C 0.09683 0.57011 -0.03487
 C159 C 0.08526 0.56865 -0.07334
 C160 C 0.05385 0.54279 -0.08636
 C161 C 0.03262 0.51989 -0.06127
 C162 C 0.03229 0.48549 0.07085
 C163 C 0.05444 0.46380 0.09674
 C164 C 0.08685 0.43831 0.08469
 C165 C 0.09871 0.43623 0.04634
 C166 C 0.07668 0.45809 0.02045
 H167 H -0.02469 0.43345 0.00758
 H168 H -0.06898 0.39301 0.04747
 H169 H -0.16510 0.47174 0.08735
 H170 H -0.11873 0.51281 0.04919
 H171 H -0.11394 0.48939 -0.04522
 H172 H -0.15592 0.53003 -0.08663
 H173 H -0.02768 0.56987 0.00394
 H174 H 0.08312 0.54969 0.01995
 H175 H 0.12067 0.58984 -0.02394
 H176 H 0.04512 0.54056 -0.11592
 H177 H 0.00739 0.50074 -0.07180
 H178 H 0.00626 0.50429 0.08064
 H179 H 0.04549 0.46661 0.12615
 H180 H 0.12326 0.41676 0.03611
 H181 H 0.08468 0.45517 -0.00912
 H182 H -0.06750 0.60996 -0.03886
 C183 C 0.51559 0.99070 0.49450
 C184 C 0.46491 0.98883 0.49000
 C185 C 0.43372 0.96386 0.51048
 C186 C 0.43860 1.01281 0.46515
 C187 C 0.54623 1.01426 0.47175
 C188 C 0.54249 0.96982 0.52245
 C189 C 0.44629 0.92967 0.51061
 C190 C 0.42011 0.90706 0.53330
 C191 C 0.37997 0.91804 0.55542
 C192 C 0.36531 0.95177 0.55341
 C193 C 0.39205 0.97452 0.53117
 C194 C 0.41739 1.00174 0.43137
 C195 C 0.39701 1.02485 0.40610
 C196 C 0.39652 1.05920 0.41476
 C197 C 0.41609 1.07003 0.44926
 C198 C 0.43729 1.04702 0.47418
 C199 C 0.57444 1.03940 0.48944
 C200 C 0.60061 1.06312 0.46812
 C201 C 0.59919 1.06196 0.42871
 C202 C 0.57217 1.03604 0.41114
 C203 C 0.54615 1.01231 0.43248
 C204 C 0.52944 0.97070 0.56053
 C205 C 0.55273 0.94924 0.58617
 C206 C 0.58971 0.92663 0.57426
 C207 C 0.60381 0.92668 0.53627
 C208 C 0.58062 0.94823 0.51068
 H209 H 0.47731 0.92068 0.49398
 H210 H 0.43158 0.88104 0.53399
 H211 H 0.33454 0.96081 0.57028
 H212 H 0.38141 1.00070 0.53125
 H213 H 0.41826 0.97540 0.42406
 H214 H 0.38183 1.01598 0.37973
 H215 H 0.45355 1.05587 0.50020
 H216 H 0.57497 1.04122 0.51973
 H217 H 0.62078 1.08293 0.48244
 H218 H 0.57120 1.03410 0.38087
 H219 H 0.52541 0.99263 0.41837
 H220 H 0.50069 0.98765 0.57023
 H221 H 0.54171 0.95031 0.61534
 H222 H 0.63171 0.90935 0.52606
 H223 H 0.59122 0.94727 0.48141
 H224 H 0.41632 1.09642 0.45639
 C225 C 1.13163 0.17801 0.19559
 C226 C 1.18190 0.18717 0.18896
 C227 C 1.20740 0.17207 0.15882
 C228 C 1.18327 0.14842 0.13588
 C229 C 1.13291 0.13954 0.14295
 C230 C 1.10745 0.15448 0.17283
 C231 C 1.10879 0.11590 0.12000
 C232 C 1.13434 0.10093 0.08995
 C233 C 1.18444 0.11002 0.08315
 C234 C 1.20869 0.13352 0.10591
 H235 H 1.24608 0.17865 0.15305
 H236 H 1.06879 0.14797 0.17863
 H237 H 1.06992 0.10950 0.12521
 H238 H 1.24737 0.13997 0.10011
 H239 H 1.11072 0.18902 0.21841
 H240 H 1.20511 0.09861 0.06047
 C241 C 0.75937 0.66727 0.64376
 C242 C 0.72917 0.68089 0.67212
 C243 C 0.68030 0.66835 0.67705
 C244 C 0.66185 0.64261 0.65402
 C245 C 0.69258 0.62910 0.62566
 C246 C 0.74127 0.64160 0.62078
 C247 C 0.67408 0.60341 0.60257
 C248 C 0.62504 0.59110 0.60727
 C249 C 0.59488 0.60474 0.63566
 C250 C 0.61311 0.63020 0.65883
 H251 H 0.65656 0.67857 0.69879
 H252 H 0.76535 0.63155 0.59917
 H253 H 0.69795 0.59289 0.58110
 H254 H 0.58895 0.64034 0.68034
 H255 H 0.79717 0.67638 0.63936
 H256 H 0.55672 0.59614 0.63953
 C257 C -0.14260 0.32446 0.19715
 C258 C -0.19322 0.31610 0.19062
 C259 C -0.21914 0.33274 0.16156
 C260 C -0.19507 0.35712 0.13953
 C261 C -0.14390 0.36448 0.14575
 C262 C -0.11810 0.34812 0.17468
 C263 C -0.11945 0.38811 0.12294
 C264 C -0.14592 0.40511 0.09471
 C265 C -0.19701 0.39840 0.08935
 C266 C -0.22135 0.37432 0.11135
 H267 H -0.25827 0.32706 0.15622
 H268 H -0.07895 0.35364 0.17999
 H269 H -0.08003 0.39357 0.12727
 H270 H -0.26067 0.36917 0.10635
 H271 H -0.12142 0.31228 0.21922
 H272 H -0.21778 0.41138 0.06763
 C273 C 0.37010 0.81527 0.68506
 C274 C 0.31769 0.81196 0.68686
 C275 C 0.28778 0.83033 0.66165
 C276 C 0.31005 0.85184 0.63513
 C277 C 0.36282 0.85454 0.63341
 C278 C 0.39245 0.83621 0.65850
 C279 C 0.38520 0.87573 0.60684
 C280 C 0.35562 0.89483 0.58227
 C281 C 0.30321 0.89240 0.58438
 C282 C 0.28058 0.87086 0.61041
 H283 H 0.24734 0.82812 0.66286
 H284 H 0.43293 0.83809 0.65763
 H285 H 0.42568 0.87796 0.60578
 H286 H 0.24008 0.86923 0.61135
 H287 H 0.39405 0.80130 0.70397
 H288 H 0.27984 0.90698 0.56564
 C289 C -0.11368 0.67458 -0.19680
 C290 C -0.16456 0.68370 -0.19494
 C291 C -0.19538 0.66804 -0.16793
 C292 C -0.17580 0.64394 -0.14327
 C293 C -0.12435 0.63587 -0.14478
 C294 C -0.09371 0.65119 -0.17171
 C295 C -0.10447 0.61261 -0.11929
 C296 C -0.13563 0.59671 -0.09302
 C297 C -0.18690 0.60405 -0.09233
 C298 C -0.20682 0.62778 -0.11706
 H299 H -0.23479 0.67430 -0.16619
 H300 H -0.05426 0.64510 -0.17339
 H301 H -0.06489 0.60662 -0.11998
 H302 H -0.24640 0.63349 -0.11569
 H303 H -0.08883 0.68600 -0.21717
 H304 H -0.21124 0.59188 -0.07216
 C305 C 0.27237 1.17999 0.35834
 C306 C 0.29173 1.18123 0.32175
 C307 C 0.32733 1.15734 0.31072
 C308 C 0.34354 1.13258 0.33598
 C309 C 0.32464 1.13206 0.37299
 C310 C 0.28893 1.15577 0.38382
 C311 C 0.34191 1.10793 0.39858
 C312 C 0.37712 1.08389 0.38745
 C313 C 0.39484 1.08409 0.35041
 C314 C 0.37844 1.10837 0.32493
 H315 H 0.34217 1.15788 0.28245
 H316 H 0.27390 1.15565 0.41202
 H317 H 0.32784 1.10767 0.42708
 H318 H 0.39320 1.10831 0.29665
 H319 H 0.24501 1.19817 0.36750
 H320 H 0.42228 1.06586 0.34147
 C321 C 1.24759 -0.16309 -0.14850
 C322 C 1.21463 -0.17760 -0.17470
 C323 C 1.16533 -0.16547 -0.17730
 C324 C 1.14909 -0.13938 -0.15406
 C325 C 1.18252 -0.12494 -0.12786
 C326 C 1.23172 -0.13695 -0.12535
 C327 C 1.16609 -0.09887 -0.10453
 C328 C 1.11652 -0.08713 -0.10693
 C329 C 1.08368 -0.10185 -0.13311
 C330 C 1.09982 -0.12762 -0.15649
 H331 H 1.13938 -0.17642 -0.19728
 H332 H 1.25788 -0.12620 -0.10542
 H333 H 1.19193 -0.08761 -0.08469
 H334 H 1.07359 -0.13856 -0.17626
 H335 H 1.28575 -0.17189 -0.14592
 H336 H 1.04505 -0.09385 -0.13505
 C337 C 0.62643 0.32651 0.30570
 C338 C 0.67651 0.31735 0.31222
 C339 C 0.70330 0.33306 0.34133
 C340 C 0.68039 0.35746 0.36370
 C341 C 0.62992 0.36625 0.35707
 C342 C 0.60331 0.35067 0.32797
 C343 C 0.60680 0.39029 0.37980
 C344 C 0.63348 0.40581 0.40911
 C345 C 0.68383 0.39707 0.41519
 C346 C 0.70706 0.37312 0.39272
 H347 H 0.74199 0.32636 0.34662
 H348 H 0.56458 0.35710 0.32250
 H349 H 0.56776 0.39641 0.37514
 H350 H 0.74585 0.36681 0.39808
 H351 H 0.60490 0.31479 0.28351
 H352 H 0.70541 0.40897 0.43722
 C353 C 0.89112 -0.17537 -0.19176
 C354 C 0.83891 -0.17999 -0.19319
 C355 C 0.80823 -0.16122 -0.16915
 C356 C 0.82948 -0.13809 -0.14404
 C357 C 0.88211 -0.13415 -0.14245
 C358 C 0.91255 -0.15282 -0.16648
 C359 C 0.90346 -0.11147 -0.11702
 C360 C 0.87291 -0.09211 -0.09361
 C361 C 0.82066 -0.09567 -0.09575
 C362 C 0.79908 -0.11871 -0.12055
 H363 H 0.76791 -0.16442 -0.17018
 H364 H 0.95293 -0.14999 -0.16572
 H365 H 0.94382 -0.10839 -0.11585
 H366 H 0.75869 -0.12127 -0.12148
 H367 H 0.91557 -0.18962 -0.20986
 H368 H 0.79662 -0.08087 -0.07789
 C369 C 0.37051 0.31907 0.31883
 C370 C 0.31790 0.31839 0.31724
 C371 C 0.29053 0.34059 0.33983
 C372 C 0.31536 0.36311 0.36376
 C373 C 0.36826 0.36309 0.36564
 C374 C 0.39546 0.34107 0.34296
 C375 C 0.39307 0.38512 0.39009
 C376 C 0.36576 0.40764 0.41223
 C377 C 0.31328 0.40796 0.40969
 C378 C 0.28823 0.38570 0.38585
 H379 H 0.24995 0.34049 0.33864
 H380 H 0.43603 0.34083 0.34393
 H381 H 0.43364 0.38511 0.39157
 H382 H 0.24769 0.38617 0.38467
 H383 H 0.39244 0.30217 0.30180
 H384 H 0.29166 0.42512 0.42662
 C385 C 0.23810 0.66873 -0.14198
 C386 C 0.20696 0.68206 -0.17028
 C387 C 0.15736 0.67003 -0.17329
 C388 C 0.13951 0.64507 -0.14880
 C389 C 0.17138 0.63190 -0.12076
 C390 C 0.22050 0.64396 -0.11755
 C391 C 0.15367 0.60684 -0.09640
 C392 C 0.10436 0.59469 -0.09959
 C393 C 0.07291 0.60804 -0.12755
 C394 C 0.09031 0.63296 -0.15193
 H395 H 0.13260 0.67984 -0.19478
 H396 H 0.24543 0.63416 -0.09619
 H397 H 0.17845 0.59655 -0.07522
 H398 H 0.06521 0.64285 -0.17313
 H399 H 0.27642 0.67728 -0.13868
 H400 H 0.03448 0.59956 -0.13021
 C401 C 0.62556 1.16538 0.30014
 C402 C 0.67337 1.17718 0.31040
 C403 C 0.69697 1.16348 0.34223
 C404 C 0.67322 1.13838 0.36347
 C405 C 0.62518 1.12677 0.35286
 C406 C 0.60167 1.14045 0.32118
 C407 C 0.60136 1.10175 0.37415
 C408 C 0.62489 1.08810 0.40601
 C409 C 0.67271 1.09983 0.41628
 C410 C 0.69667 1.12472 0.39520
 H411 H 0.73383 1.17228 0.35050
 H412 H 0.56482 1.13185 0.31266
 H413 H 0.56417 1.09330 0.36626
 H414 H 0.73355 1.13326 0.40370
 H415 H 0.60648 1.17548 0.27580
 H416 H 0.69183 1.08947 0.44046
 C417 C 0.23674 0.33754 0.15557
 C418 C 0.20475 0.32497 0.18360
 C419 C 0.15612 0.33807 0.18669
 C420 C 0.13946 0.36310 0.16201
 C421 C 0.17186 0.37555 0.13391
 C422 C 0.22049 0.36268 0.13102
 C423 C 0.15492 0.40046 0.10905
 C424 C 0.10582 0.41292 0.11174
 C425 C 0.07402 0.40021 0.13985
 C426 C 0.09072 0.37566 0.16481
 H427 H 0.13093 0.32858 0.20807
 H428 H 0.24587 0.37190 0.10964
 H429 H 0.17998 0.41019 0.08773
 H430 H 0.06529 0.36624 0.18604
 H431 H 0.27440 0.32795 0.15260
 H432 H 0.03572 0.40878 0.14211
 C433 C 0.75548 0.83752 0.64464
 C434 C 0.72554 0.82171 0.67190
 C435 C 0.67475 0.83062 0.67477
 C436 C 0.65402 0.85466 0.65056
 C437 C 0.68444 0.87034 0.62324
 C438 C 0.73516 0.86170 0.62062
 C439 C 0.66354 0.89420 0.59883
 C440 C 0.61239 0.90238 0.60105
 C441 C 0.58259 0.88657 0.62842
 C442 C 0.60322 0.86304 0.65300
 H443 H 0.65112 0.81859 0.69555
 H444 H 0.75905 0.87346 0.59984
 H445 H 0.68715 0.90644 0.57819
 H446 H 0.57929 0.85113 0.67366
 H447 H 0.79469 0.83120 0.64186
 H448 H 0.54295 0.89189 0.63036
 C449 C 0.83974 0.15571 0.20575
 C450 C 0.80519 0.17782 0.18927
 C451 C 0.79466 0.17516 0.15076
 C452 C 0.81892 0.15101 0.12884
 C453 C 0.85315 0.12861 0.14583
 C454 C 0.86318 0.13112 0.18430
 C455 C 0.87722 0.10436 0.12398
 C456 C 0.86850 0.10274 0.08521
 C457 C 0.83502 0.12535 0.06843
 C458 C 0.81004 0.14911 0.09013
 H459 H 0.76846 0.19234 0.13772
 H460 H 0.88945 0.11426 0.19773
 H461 H 0.90356 0.08720 0.13692
 H462 H 0.78412 0.16615 0.07660
 H463 H 0.84832 0.15726 0.23539
 H464 H 0.82787 0.12435 0.03855
 C465 C 0.26456 0.65552 0.67363
 C466 C 0.30038 0.67570 0.69180
 C467 C 0.35143 0.67093 0.68410
 C468 C 0.36650 0.64680 0.65793
 C469 C 0.33018 0.62647 0.63996
 C470 C 0.27934 0.63090 0.64820
 C471 C 0.34527 0.60241 0.61367
 C472 C 0.39608 0.59903 0.60444
 C473 C 0.43182 0.61953 0.62222
 C474 C 0.41723 0.64304 0.64895
 H475 H 0.37929 0.68665 0.69766
 H476 H 0.25099 0.61562 0.63464
 H477 H 0.31752 0.58682 0.59981
 H478 H 0.44557 0.65844 0.66236
 H479 H 0.22501 0.65874 0.67919
 H480 H 0.47122 0.61707 0.61565
   
