data_POSCAR
  _audit_creation_date              2014-09-24
  _audit_creation_method            'ToBaCCo'
  _symmetry_space_group_name_H-M    'P1'
  _symmetry_Int_Tables_number       1
  _symmetry_cell_setting            triclinic
  loop_
  _symmetry_equiv_pos_as_xyz
 x,y,z
_cell_length_a 30.3585
_cell_length_b 30.3844
_cell_length_c 30.4169
_cell_angle_alpha 90.350900
_cell_angle_beta 89.413000
_cell_angle_gamma 89.722300
loop_
  _atom_site_label
  _atom_site_type_symbol
  _atom_site_fract_x
  _atom_site_fract_y
  _atom_site_fract_z
C1 C 0.58105 0.38788 0.01709
 C2 C 0.61296 0.41971 0.01708
 C3 C 0.59215 0.45911 0.00700
 N4 N 0.54873 0.45223 0.00060
 C5 C 0.54178 0.40883 0.00707
 C6 C 0.61369 0.49982 0.00096
 C7 C 0.59137 0.54017 -0.00604
 C8 C 0.61137 0.57870 -0.02004
 C9 C 0.57931 0.61079 -0.02012
 C10 C 0.54046 0.59114 -0.00616
 N11 N 0.54822 0.54816 0.00258
 C12 C 0.49997 0.61363 0.00066
 C13 C 0.45913 0.59220 0.00669
 C14 C 0.41951 0.61315 0.01669
 C15 C 0.38770 0.58122 0.01680
 C16 C 0.40888 0.54180 0.00689
 N17 N 0.45241 0.54867 0.00043
 C18 C 0.38754 0.50102 0.00116
 C19 C 0.40990 0.46057 -0.00547
 C20 C 0.39004 0.42177 -0.01886
 C21 C 0.42212 0.38965 -0.01882
 C22 C 0.46075 0.40967 -0.00541
 N23 N 0.45290 0.45281 0.00295
 C24 C 0.50109 0.38738 0.00126
 H25 H 0.58627 0.35321 0.02329
 H26 H 0.64763 0.41437 0.02323
 H27 H 0.47425 0.47441 0.01833
 H28 H 0.64566 0.58334 -0.02888
 H29 H 0.58417 0.64488 -0.02903
 H30 H 0.41403 0.64790 0.02274
 H31 H 0.35290 0.58652 0.02296
 H32 H 0.41740 0.35537 -0.02732
 H33 H 0.52667 0.52693 0.01838
 H34 H 0.35587 0.41696 -0.02739
 C35 C 0.00059 0.58277 0.61407
 C36 C -0.00162 0.61463 0.58247
 C37 C -0.00173 0.59299 0.54213
 N38 N 0.00025 0.54903 0.54829
 C39 C 0.00162 0.54259 0.59216
 C40 C -0.00207 0.61413 0.50080
 C41 C -0.00074 0.59200 0.45958
 C42 C 0.00597 0.61276 0.41951
 C43 C 0.00562 0.58064 0.38763
 C44 C -0.00129 0.54091 0.40881
 N45 N -0.00584 0.54823 0.45261
 C46 C -0.00329 0.49968 0.38695
 C47 C -0.00325 0.45833 0.40794
 C48 C -0.00369 0.41809 0.38616
 C49 C -0.00146 0.38627 0.41781
 C50 C 0.00015 0.40802 0.45798
 N51 N -0.00094 0.45199 0.45175
 C52 C 0.00134 0.38695 0.49924
 C53 C 0.00103 0.40890 0.54046
 C54 C -0.00412 0.38788 0.58055
 C55 C -0.00381 0.41994 0.61250
 C56 C 0.00153 0.45991 0.59129
 N57 N 0.00523 0.45276 0.54741
 C58 C 0.00249 0.50121 0.61312
 H59 H 0.00110 0.58860 0.64920
 H60 H -0.00270 0.64976 0.58853
 H61 H 0.01322 0.47603 0.52400
 H62 H 0.01113 0.64749 0.41380
 H63 H 0.01045 0.58600 0.35277
 H64 H -0.00512 0.41220 0.35107
 H65 H -0.00127 0.35111 0.41186
 H66 H -0.00775 0.41438 0.64743
 H67 H -0.01541 0.52529 0.47580
 H68 H -0.00835 0.35302 0.58626
 C69 C 0.38753 0.01583 0.58123
 C70 C 0.41923 0.01592 0.61306
 C71 C 0.45893 0.00619 0.59205
 N72 N 0.45235 -0.00010 0.54857
 C73 C 0.40883 0.00609 0.54179
 C74 C 0.49972 0.00046 0.61339
 C75 C 0.54026 -0.00618 0.59077
 C76 C 0.57907 -0.01991 0.61030
 C77 C 0.61117 -0.01983 0.57811
 C78 C 0.59125 -0.00604 0.53963
 N79 N 0.54810 0.00244 0.54776
 C80 C 0.61366 0.00089 0.49920
 C81 C 0.59226 0.00682 0.45856
 C82 C 0.61324 0.01685 0.41912
 C83 C 0.58143 0.01679 0.38739
 C84 C 0.54204 0.00678 0.40841
 N85 N 0.54883 0.00038 0.45178
 C86 C 0.50138 0.00095 0.38707
 C87 C 0.46097 -0.00582 0.40949
 C88 C 0.42233 -0.01928 0.38962
 C89 C 0.39021 -0.01950 0.42183
 C90 C 0.41004 -0.00617 0.46056
 N91 N 0.45308 0.00238 0.45265
 C92 C 0.38761 0.00029 0.50108
 H93 H 0.35270 0.02178 0.58660
 H94 H 0.41363 0.02193 0.64779
 H95 H 0.47443 0.01775 0.47422
 H96 H 0.58387 -0.02870 0.64436
 H97 H 0.64544 -0.02852 0.58264
 H98 H 0.64795 0.02303 0.41370
 H99 H 0.58679 0.02294 0.35274
 H100 H 0.35602 -0.02812 0.41713
 H101 H 0.52660 0.01805 0.52655
 H102 H 0.41763 -0.02770 0.35536
 O103 O 0.46400 -0.00077 -0.06127
 O104 O 0.46419 -0.00044 0.06001
 O105 O 0.46407 0.06003 -0.00041
 O106 O 0.46413 -0.06127 -0.00080
 O107 O 0.53697 -0.06160 -0.00166
 O108 O 0.53691 0.05970 -0.00127
 O109 O 0.53703 -0.00077 0.05915
 O110 O 0.53683 -0.00110 -0.06213
 Cu111 Cu 0.45677 -0.00059 -0.00054
 Cu112 Cu 0.54426 -0.00098 -0.00157
 C113 C 0.50038 -0.00096 -0.08218
 C114 C 0.50064 -0.00054 0.08007
 C115 C 0.50048 0.08035 -0.00076
 C116 C 0.50056 -0.08192 -0.00126
 O117 O -0.06149 0.53683 1.00029
 O118 O 0.05984 0.53678 1.00033
 O119 O -0.00018 0.53688 0.93984
 O120 O -0.00146 0.53673 1.06077
 O121 O -0.00112 0.46393 1.06023
 O122 O 0.00016 0.46408 0.93930
 O123 O 0.06018 0.46399 0.99979
 O124 O -0.06115 0.46403 0.99975
 Cu125 Cu -0.00085 0.54417 1.00036
 Cu126 Cu -0.00045 0.45665 0.99971
 C127 C -0.08179 0.50044 1.00002
 C128 C 0.08049 0.50038 1.00007
 C129 C 0.00021 0.50051 0.91917
 C130 C -0.00150 0.50031 1.08090
 O131 O -0.00018 -0.06158 0.46367
 O132 O -0.00015 0.05958 0.46356
 O133 O 0.06051 -0.00128 0.46378
 O134 O -0.06084 -0.00071 0.46347
 O135 O -0.06177 -0.00018 0.53619
 O136 O 0.05957 -0.00076 0.53649
 O137 O -0.00109 0.06010 0.53627
 O138 O -0.00111 -0.06106 0.53639
 Cu139 Cu -0.00007 -0.00105 0.45628
 Cu140 Cu -0.00119 -0.00042 0.54368
 C141 C -0.00066 -0.08176 0.50005
 C142 C -0.00060 0.08029 0.49989
 C143 C 0.08052 -0.00109 0.50019
 C144 C -0.08178 -0.00036 0.49978
 C145 C -0.34112 0.50004 1.00067
 C146 C -0.30140 0.50019 1.00046
 C147 C -0.25492 0.50031 1.00028
 C148 C -0.21523 0.50038 1.00016
 C149 C -0.16874 0.50043 1.00008
 C150 C -0.12904 0.50044 1.00004
 C151 C 0.33980 0.50078 1.00084
 C152 C 0.30009 0.50062 1.00063
 C153 C 0.25361 0.50049 1.00043
 C154 C 0.21392 0.50042 1.00030
 C155 C 0.16743 0.50038 1.00018
 C156 C 0.12773 0.50037 1.00012
 C157 C -0.00178 -0.34071 0.50060
 C158 C -0.00155 -0.30104 0.50045
 C159 C -0.00128 -0.25464 0.50032
 C160 C -0.00108 -0.21500 0.50023
 C161 C -0.00088 -0.16858 0.50015
 C162 C -0.00075 -0.12893 0.50010
 C163 C 0.00089 0.33922 0.49940
 C164 C 0.00055 0.29957 0.49952
 C165 C 0.00019 0.25316 0.49963
 C166 C -0.00008 0.21352 0.49971
 C167 C -0.00033 0.16710 0.49979
 C168 C -0.00049 0.12746 0.49984
 C169 C 0.49985 0.00007 -0.34144
 C170 C 0.49996 -0.00022 -0.30175
 C171 C 0.50007 -0.00051 -0.25527
 C172 C 0.50015 -0.00071 -0.21560
 C173 C 0.50024 -0.00088 -0.16911
 C174 C 0.50031 -0.00096 -0.12943
 C175 C 0.50124 0.00064 0.33933
 C176 C 0.50112 0.00040 0.29964
 C177 C 0.50099 0.00015 0.25316
 C178 C 0.50089 -0.00004 0.21349
 C179 C 0.50079 -0.00023 0.16699
 C180 C 0.50071 -0.00038 0.12732
 C181 C 0.50019 -0.34120 0.00016
 C182 C 0.50035 -0.30149 -0.00022
 C183 C 0.50047 -0.25502 -0.00061
 C184 C 0.50054 -0.21534 -0.00088
 C185 C 0.50057 -0.16885 -0.00112
 C186 C 0.50058 -0.12916 -0.00123
 C187 C 0.50086 0.33963 0.00086
 C188 C 0.50071 0.29994 0.00055
 C189 C 0.50058 0.25346 0.00021
 C190 C 0.50052 0.21377 -0.00005
 C191 C 0.50047 0.16728 -0.00033
 C192 C 0.50046 0.12759 -0.00054
 C193 C -0.34114 0.00064 0.49928
 C194 C -0.30142 0.00045 0.49934
 C195 C -0.25493 0.00024 0.49942
 C196 C -0.21523 0.00009 0.49948
 C197 C -0.16874 -0.00006 0.49957
 C198 C -0.12903 -0.00018 0.49966
 C199 C 0.33986 -0.00019 0.50095
 C200 C 0.30015 -0.00052 0.50083
 C201 C 0.25366 -0.00083 0.50069
 C202 C 0.21397 -0.00102 0.50057
 C203 C 0.16747 -0.00114 0.50043
 C204 C 0.12777 -0.00117 0.50031
 C205 C -0.00322 0.49983 1.33932
 C206 C -0.00311 0.49993 1.29974
 C207 C -0.00289 0.50004 1.25343
 C208 C -0.00264 0.50011 1.21386
 C209 C -0.00230 0.50019 1.16754
 C210 C -0.00195 0.50025 1.12797
 C211 C 0.00232 0.50104 0.66075
 C212 C 0.00211 0.50092 0.70034
 C213 C 0.00181 0.50080 0.74664
 C214 C 0.00149 0.50072 0.78621
 C215 C 0.00108 0.50063 0.83253
 C216 C 0.00069 0.50057 0.87210
   
