data_POSCAR
  _audit_creation_date              2014-09-24
  _audit_creation_method            'ToBaCCo'
  _symmetry_space_group_name_H-M    'P1'
  _symmetry_Int_Tables_number       1
  _symmetry_cell_setting            triclinic
  loop_
  _symmetry_equiv_pos_as_xyz
 x,y,z
_cell_length_a 35.2132
_cell_length_b 35.8170
_cell_length_c 29.1705
_cell_angle_alpha 90.352900
_cell_angle_beta 90.076000
_cell_angle_gamma 91.696500
loop_
  _atom_site_label
  _atom_site_type_symbol
  _atom_site_fract_x
  _atom_site_fract_y
  _atom_site_fract_z
O1 O 0.03194 0.33746 -0.03527
 O2 O -0.04572 0.32539 0.04689
 O3 O 0.02830 0.31156 0.04896
 O4 O -0.04222 0.33068 -0.04146
 O5 O -0.04682 0.26988 -0.05340
 O6 O 0.02344 0.25102 0.03400
 O7 O -0.04892 0.26481 0.03509
 O8 O 0.02802 0.27687 -0.04991
 Cu9 Cu -0.00629 0.33182 0.00684
 Cu10 Cu -0.01127 0.26014 -0.01034
 C11 C 0.04343 0.30913 -0.05653
 C12 C -0.06158 0.29395 0.05460
 C13 C 0.03834 0.27808 0.05604
 C14 C -0.05734 0.30254 -0.06225
 O15 O 0.47432 0.82307 0.54086
 O16 O 0.54757 0.82434 0.44974
 O17 O 0.47339 0.82801 0.45143
 O18 O 0.54835 0.82570 0.53905
 O19 O 0.54810 0.76443 0.53417
 O20 O 0.46919 0.76662 0.45146
 O21 O 0.54281 0.76277 0.44561
 O22 O 0.47396 0.76150 0.53958
 Cu23 Cu 0.51109 0.83144 0.49543
 Cu24 Cu 0.50828 0.75772 0.49250
 C25 C 0.46147 0.79177 0.55549
 C26 C 0.55773 0.79348 0.43246
 C27 C 0.45750 0.79784 0.43751
 C28 C 0.56208 0.79486 0.55058
 O29 O 0.97013 0.68232 -0.04966
 O30 O 1.04451 0.66340 0.03448
 O31 O 0.97240 0.67710 0.03791
 O32 O 1.04593 0.68673 -0.05245
 O33 O 1.05674 0.74567 -0.03234
 O34 O 0.97825 0.73813 0.04782
 O35 O 1.05003 0.72396 0.04909
 O36 O 0.98257 0.74278 -0.04413
 Cu37 Cu 1.00812 0.67178 -0.00952
 Cu38 Cu 1.01638 0.74355 0.00608
 C39 C 0.96453 0.71532 -0.06293
 C40 C 1.05974 0.69049 0.05650
 C41 C 0.96285 0.70697 0.05826
 C42 C 1.06493 0.71753 -0.05618
 O43 O 0.52054 0.17155 0.54685
 O44 O 0.44942 0.17665 0.45416
 O45 O 0.52395 0.17588 0.45802
 O46 O 0.44664 0.17522 0.54374
 O47 O 0.45056 0.23684 0.54613
 O48 O 0.52783 0.23755 0.46222
 O49 O 0.45398 0.23823 0.45696
 O50 O 0.52382 0.23316 0.55018
 Cu51 Cu 0.48459 0.16860 0.50020
 Cu52 Cu 0.48919 0.24260 0.50412
 C53 C 0.53477 0.20159 0.56374
 C54 C 0.43983 0.20834 0.43956
 C55 C 0.53949 0.20690 0.44646
 C56 C 0.43593 0.20618 0.56000
 O57 O 0.68402 0.03507 -0.04447
 O58 O 0.68781 -0.04506 0.03374
 O59 O 0.68225 0.02730 0.04435
 O60 O 0.68874 -0.03771 -0.05380
 O61 O 0.75132 -0.03112 -0.05207
 O62 O 0.74483 0.03271 0.04626
 O63 O 0.75004 -0.03909 0.03589
 O64 O 0.74654 0.04103 -0.04196
 Cu65 Cu 0.67938 -0.00550 -0.00528
 Cu66 Cu 0.75442 0.00158 -0.00279
 C67 C 0.71466 0.05214 -0.05589
 C68 C 0.71961 -0.05672 0.04713
 C69 C 0.71259 0.04091 0.06220
 C70 C 0.72123 -0.04590 -0.06908
 O71 O 0.19326 0.53540 0.45520
 O72 O 0.18430 0.46139 0.54259
 O73 O 0.18961 0.53450 0.54467
 O74 O 0.18595 0.46296 0.45339
 O75 O 0.24861 0.46149 0.45483
 O76 O 0.25195 0.53050 0.54832
 O77 O 0.24670 0.45764 0.54402
 O78 O 0.25552 0.53373 0.46027
 Cu79 Cu 0.18198 0.49892 0.49892
 Cu80 Cu 0.25691 0.49536 0.50231
 C81 C 0.22605 0.54719 0.44256
 C82 C 0.21408 0.44625 0.55736
 C83 C 0.22143 0.54517 0.56146
 C84 C 0.21687 0.45057 0.43801
 O85 O 0.30163 1.04007 0.04354
 O86 O 0.31596 0.96848 -0.04400
 O87 O 0.29850 1.03942 -0.04525
 O88 O 0.30538 0.96693 0.04440
 O89 O 0.24379 0.95439 0.03669
 O90 O 0.23739 1.02542 -0.05134
 O91 O 0.25408 0.95694 -0.04805
 O92 O 0.24001 1.02814 0.04190
 Cu93 Cu 0.31141 1.00495 0.00005
 Cu94 Cu 0.23772 0.99158 -0.00470
 C95 C 0.26866 1.04604 0.05863
 C96 C 0.28786 0.94979 -0.06009
 C97 C 0.26645 1.04406 -0.06448
 C98 C 0.27552 0.94779 0.05481
 O99 O 0.80770 0.46285 0.44764
 O100 O 0.81628 0.53425 0.53956
 O101 O 0.80912 0.46098 0.53668
 O102 O 0.81482 0.53551 0.45003
 O103 O 0.75230 0.53954 0.45270
 O104 O 0.74662 0.46458 0.53773
 O105 O 0.75378 0.53712 0.54168
 O106 O 0.74530 0.46723 0.44897
 Cu107 Cu 0.81830 0.49807 0.49349
 Cu108 Cu 0.74328 0.50260 0.49555
 C109 C 0.77501 0.45312 0.43241
 C110 C 0.78632 0.54769 0.55642
 C111 C 0.77682 0.44950 0.55107
 C112 C 0.78431 0.55006 0.43672
 C113 C 0.16929 0.21152 0.13627
 C114 C 0.19325 0.18228 0.13830
 C115 C 0.22087 0.19179 0.17058
 N116 N 0.21499 0.22645 0.18742
 C117 C 0.18322 0.23851 0.16675
 C118 C 0.25161 0.16899 0.18219
 C119 C 0.27867 0.17801 0.21686
 C120 C 0.31256 0.15990 0.22328
 C121 C 0.33034 0.17650 0.26046
 C122 C 0.30666 0.20396 0.27629
 N123 N 0.27501 0.20430 0.24992
 C124 C 0.31430 0.22677 0.31521
 C125 C 0.29214 0.25724 0.32861
 C126 C 0.29726 0.27731 0.36903
 C127 C 0.27192 0.30558 0.36811
 C128 C 0.25218 0.30200 0.32705
 N129 N 0.26478 0.27255 0.30289
 C130 C 0.22508 0.32741 0.31148
 C131 C 0.20437 0.32337 0.27009
 C132 C 0.18270 0.35095 0.25076
 C133 C 0.16638 0.33583 0.21170
 C134 C 0.17851 0.29948 0.20829
 N135 N 0.20131 0.29202 0.24421
 C136 C 0.16677 0.27377 0.17387
 H137 H 0.14435 0.21250 0.11468
 H138 H 0.19043 0.15692 0.11812
 H139 H 0.21079 0.26598 0.25325
 H140 H 0.32355 0.13703 0.20343
 H141 H 0.35751 0.16891 0.27447
 H142 H 0.31741 0.27234 0.39621
 H143 H 0.26887 0.32674 0.39439
 H144 H 0.14759 0.34994 0.18855
 H145 H 0.25073 0.21899 0.25662
 H146 H 0.17893 0.37904 0.26351
 C147 C 0.67858 0.70561 0.33969
 C148 C 0.70433 0.67765 0.34084
 C149 C 0.73418 0.68874 0.31261
 N150 N 0.72736 0.72235 0.29402
 C151 C 0.69328 0.73261 0.31027
 C152 C 0.76835 0.66943 0.30742
 C153 C 0.79690 0.68008 0.27567
 C154 C 0.83370 0.66734 0.27608
 C155 C 0.85153 0.68185 0.23797
 C156 C 0.82520 0.70326 0.21550
 N157 N 0.79187 0.70173 0.23848
 C158 C 0.83185 0.72195 0.17363
 C159 C 0.80763 0.74909 0.15586
 C160 C 0.81137 0.76527 0.11299
 C161 C 0.78450 0.79213 0.11046
 C162 C 0.76551 0.79178 0.15206
 N163 N 0.77979 0.76554 0.17978
 C164 C 0.73756 0.81731 0.16502
 C165 C 0.71692 0.81478 0.20644
 C166 C 0.69546 0.84308 0.22472
 C167 C 0.67821 0.82894 0.26345
 C168 C 0.68959 0.79239 0.26769
 N169 N 0.71288 0.78388 0.23256
 C170 C 0.67681 0.76740 0.30202
 H171 H 0.65224 0.70615 0.35873
 H172 H 0.70167 0.65238 0.36088
 H173 H 0.72204 0.75743 0.22406
 H174 H 0.84627 0.64909 0.30094
 H175 H 0.88053 0.67695 0.22786
 H176 H 0.83166 0.75876 0.08649
 H177 H 0.77996 0.81031 0.08158
 H178 H 0.65917 0.84380 0.28570
 H179 H 0.76608 0.71131 0.22673
 H180 H 0.69232 0.87094 0.21134
 C181 C 0.75980 0.19201 0.12291
 C182 C 0.78588 0.22109 0.12003
 C183 C 0.78593 0.23912 0.16224
 N184 N 0.76054 0.22223 0.19060
 C185 C 0.74440 0.19357 0.16655
 C186 C 0.81124 0.26870 0.17522
 C187 C 0.80730 0.28912 0.21659
 C188 C 0.83473 0.31342 0.23504
 C189 C 0.81836 0.33083 0.27197
 C190 C 0.78153 0.31631 0.27545
 N191 N 0.77499 0.29112 0.24138
 C192 C 0.75414 0.32821 0.30738
 C193 C 0.72005 0.30768 0.31634
 C194 C 0.69121 0.31947 0.34483
 C195 C 0.66503 0.29049 0.34731
 C196 C 0.67888 0.26173 0.32071
 N197 N 0.71253 0.27228 0.30191
 C198 C 0.66258 0.22519 0.31838
 C199 C 0.67428 0.19791 0.28661
 C200 C 0.66406 0.16024 0.28828
 C201 C 0.67981 0.14370 0.25033
 C202 C 0.69935 0.17172 0.22678
 N203 N 0.69549 0.20470 0.24882
 C204 C 0.71854 0.16678 0.18484
 H205 H 0.75323 0.17180 0.09610
 H206 H 0.80324 0.22778 0.09045
 H207 H 0.70359 0.23084 0.23631
 H208 H 0.86325 0.31883 0.22244
 H209 H 0.83195 0.35214 0.29328
 H210 H 0.68946 0.34586 0.36282
 H211 H 0.63921 0.29028 0.36741
 H212 H 0.67714 0.11442 0.24112
 H213 H 0.74863 0.27966 0.23203
 H214 H 0.64691 0.14615 0.31403
 C215 C 0.30372 0.73431 0.38011
 C216 C 0.27779 0.70497 0.38068
 C217 C 0.26010 0.70438 0.33820
 N218 N 0.27434 0.73224 0.31172
 C219 C 0.30098 0.75058 0.33728
 C220 C 0.23482 0.67579 0.32245
 C221 C 0.21471 0.67803 0.28069
 C222 C 0.19735 0.64802 0.25797
 C223 C 0.18056 0.66212 0.21932
 C224 C 0.18784 0.70043 0.21981
 N225 N 0.20841 0.70987 0.25756
 C226 C 0.17394 0.72590 0.18732
 C227 C 0.18725 0.76333 0.18547
 C228 C 0.17036 0.79148 0.16107
 C229 C 0.19584 0.82131 0.16120
 C230 C 0.22729 0.81026 0.18577
 N231 N 0.22184 0.77495 0.20068
 C232 C 0.26265 0.82986 0.18779
 C233 C 0.29124 0.82071 0.21945
 C234 C 0.32860 0.83406 0.21835
 C235 C 0.34639 0.81977 0.25621
 C236 C 0.31944 0.79787 0.27900
 N237 N 0.28586 0.79894 0.25672
 C238 C 0.32555 0.77925 0.32071
 H239 H 0.32306 0.74218 0.40763
 H240 H 0.27324 0.68563 0.40864
 H241 H 0.25989 0.78849 0.26881
 H242 H 0.19705 0.61897 0.26802
 H243 H 0.16466 0.64599 0.19391
 H244 H 0.14339 0.78996 0.14321
 H245 H 0.19240 0.84748 0.14353
 H246 H 0.37577 0.82493 0.26588
 H247 H 0.21470 0.73686 0.26925
 H248 H 0.34165 0.85233 0.19311
 C249 C 0.66719 0.28323 0.64063
 C250 C 0.69359 0.31201 0.63807
 C251 C 0.72044 0.30576 0.67173
 N252 N 0.71144 0.27391 0.69443
 C253 C 0.67865 0.26023 0.67584
 C254 C 0.75361 0.32830 0.67889
 C255 C 0.78029 0.32275 0.71430
 C256 C 0.81567 0.34074 0.71709
 C257 C 0.83263 0.32851 0.75645
 C258 C 0.80717 0.30341 0.77671
 N259 N 0.77513 0.30051 0.75117
 C260 C 0.81363 0.28511 0.81864
 C261 C 0.79076 0.25510 0.83546
 C262 C 0.79574 0.23830 0.87766
 C263 C 0.76995 0.20892 0.87968
 C264 C 0.74998 0.20871 0.83868
 N265 N 0.76292 0.23681 0.81164
 C266 C 0.72191 0.18147 0.82614
 C267 C 0.69912 0.18314 0.78623
 C268 C 0.67468 0.15457 0.77113
 C269 C 0.65685 0.16733 0.73256
 C270 C 0.67108 0.20327 0.72483
 N271 N 0.69631 0.21287 0.75818
 C272 C 0.65980 0.22626 0.68822
 H273 H 0.64267 0.27949 0.61851
 H274 H 0.69328 0.33468 0.61372
 H275 H 0.70811 0.23929 0.76391
 H276 H 0.82808 0.36065 0.69325
 H277 H 0.86055 0.33720 0.76874
 H278 H 0.81616 0.24608 0.90405
 H279 H 0.76654 0.18972 0.90798
 H280 H 0.63589 0.15176 0.71242
 H281 H 0.74991 0.28712 0.76068
 H282 H 0.66996 0.12738 0.78644
 C283 C 0.22660 0.80759 0.86616
 C284 C 0.20081 0.77838 0.86851
 C285 C 0.21424 0.75022 0.84050
 N286 N 0.24743 0.76154 0.82098
 C287 C 0.25474 0.79682 0.83612
 C288 C 0.19596 0.71469 0.83415
 C289 C 0.20650 0.68894 0.79991
 C290 C 0.19234 0.65253 0.79623
 C291 C 0.20677 0.63805 0.75625
 C292 C 0.22950 0.66598 0.73679
 N293 N 0.22902 0.69688 0.76353
 C294 C 0.24746 0.66342 0.69363
 C295 C 0.27570 0.68909 0.67764
 C296 C 0.29202 0.68791 0.63441
 C297 C 0.31882 0.71642 0.63291
 C298 C 0.31802 0.73416 0.67523
 N299 N 0.29197 0.71713 0.70268
 C300 C 0.34212 0.76471 0.68816
 C301 C 0.33806 0.78534 0.72921
 C302 C 0.36409 0.81214 0.74531
 C303 C 0.34844 0.82778 0.78383
 C304 C 0.31341 0.80990 0.79036
 N305 N 0.30719 0.78438 0.75671
 C306 C 0.28715 0.81916 0.82484
 H307 H 0.22453 0.83388 0.88432
 H308 H 0.17489 0.77840 0.88829
 H309 H 0.28150 0.77060 0.74984
 H310 H 0.17300 0.63817 0.81944
 H311 H 0.20067 0.61032 0.74269
 H312 H 0.28549 0.66843 0.60680
 H313 H 0.33681 0.72330 0.60393
 H314 H 0.36123 0.85008 0.80434
 H315 H 0.23926 0.72317 0.75429
 H316 H 0.39123 0.82011 0.73035
 C317 C 0.15980 0.20693 0.85284
 C318 C 0.18332 0.17706 0.85079
 C319 C 0.21315 0.18731 0.82205
 N320 N 0.20900 0.22268 0.80737
 C321 C 0.17650 0.23477 0.82620
 C322 C 0.24506 0.16540 0.81272
 C323 C 0.27239 0.17463 0.77875
 C324 C 0.30720 0.15785 0.77384
 C325 C 0.32449 0.17353 0.73608
 C326 C 0.29965 0.19915 0.71855
 N327 N 0.26776 0.19927 0.74438
 C328 C 0.30635 0.22037 0.67852
 C329 C 0.28341 0.24978 0.66428
 C330 C 0.28680 0.26787 0.62256
 C331 C 0.26191 0.29657 0.62363
 C332 C 0.24442 0.29528 0.66618
 N333 N 0.25771 0.26674 0.69098
 C334 C 0.21936 0.32222 0.68292
 C335 C 0.20178 0.31981 0.72636
 C336 C 0.18513 0.34927 0.74888
 C337 C 0.17019 0.33517 0.78901
 C338 C 0.17759 0.29730 0.78959
 N339 N 0.19683 0.28822 0.75117
 C340 C 0.16386 0.27177 0.82314
 H341 H 0.13404 0.20846 0.87288
 H342 H 0.17908 0.15102 0.86891
 H343 H 0.20218 0.26133 0.73987
 H344 H 0.31900 0.13633 0.79493
 H345 H 0.35206 0.16650 0.72276
 H346 H 0.30566 0.26142 0.59452
 H347 H 0.25796 0.31669 0.59663
 H348 H 0.15500 0.35096 0.81448
 H349 H 0.24281 0.21255 0.73646
 H350 H 0.18385 0.37793 0.73758
 C351 C 0.80526 0.82295 0.85147
 C352 C 0.83293 0.79690 0.85190
 C353 C 0.82336 0.77057 0.81837
 N354 N 0.79023 0.77945 0.79824
 C355 C 0.77934 0.81169 0.81803
 C356 C 0.84450 0.73833 0.80856
 C357 C 0.83450 0.71149 0.77413
 C358 C 0.85075 0.67681 0.76932
 C359 C 0.83337 0.65923 0.73247
 C360 C 0.80739 0.68376 0.71507
 N361 N 0.80870 0.71571 0.74023
 C362 C 0.78446 0.67652 0.67583
 C363 C 0.75598 0.70038 0.66018
 C364 C 0.73735 0.69649 0.61843
 C365 C 0.71085 0.72373 0.61706
 C366 C 0.71373 0.74305 0.65830
 N367 N 0.74125 0.72864 0.68462
 C368 C 0.68968 0.77203 0.67185
 C369 C 0.69400 0.79247 0.71325
 C370 C 0.66711 0.81609 0.73098
 C371 C 0.68301 0.83287 0.76919
 C372 C 0.71912 0.81890 0.77394
 N373 N 0.72567 0.79454 0.73947
 C374 C 0.74552 0.83045 0.80809
 H375 H 0.80413 0.84714 0.87380
 H376 H 0.85709 0.79728 0.87484
 H377 H 0.75171 0.78370 0.73101
 H378 H 0.87284 0.66509 0.79007
 H379 H 0.83954 0.63165 0.71965
 H380 H 0.74232 0.67613 0.59169
 H381 H 0.69136 0.72841 0.58910
 H382 H 0.66956 0.85333 0.79070
 H383 H 0.79528 0.74017 0.73236
 H384 H 0.63913 0.82117 0.71738
 C385 C 0.28565 0.13468 0.12164
 C386 C 0.29006 0.10443 0.09234
 C387 C 0.26435 0.07356 0.09276
 C388 C 0.23548 0.07212 0.12707
 C389 C 0.23207 0.10264 0.15810
 C390 C 0.25671 0.13447 0.15430
 C391 C 0.20405 0.10038 0.19236
 N392 N 0.18134 0.06934 0.19582
 N393 N 0.18504 0.04031 0.16766
 C394 C 0.21139 0.04045 0.13379
 H395 H 0.30472 0.15881 0.11840
 H396 H 0.31261 0.10640 0.06712
 H397 H 0.20026 0.12286 0.21671
 H398 H 0.21376 0.01525 0.11374
 C399 C 0.81430 0.63862 0.61452
 C400 C 0.81472 0.60731 0.58578
 C401 C 0.78909 0.57707 0.59238
 C402 C 0.76451 0.57733 0.63090
 C403 C 0.76395 0.60927 0.65987
 C404 C 0.78837 0.64044 0.65076
 C405 C 0.73856 0.60913 0.69705
 N406 N 0.71593 0.57860 0.70511
 N407 N 0.71700 0.54828 0.67854
 C408 C 0.74052 0.54654 0.64186
 H409 H 0.83312 0.66230 0.60721
 H410 H 0.83382 0.60758 0.55669
 H411 H 0.73677 0.63284 0.72001
 H412 H 0.74065 0.52088 0.62222
 C413 C 0.75885 0.87745 0.13104
 C414 C 0.75469 0.90743 0.10172
 C415 C 0.72178 0.91107 0.07475
 C416 C 0.69299 0.88190 0.07654
 C417 C 0.69747 0.85145 0.10709
 C418 C 0.73064 0.84943 0.13427
 C419 C 0.66909 0.82297 0.10843
 N420 N 0.63866 0.82422 0.08018
 N421 N 0.63498 0.85171 0.05024
 C422 C 0.66107 0.88017 0.04700
 H423 H 0.78449 0.87599 0.15146
 H424 H 0.77736 0.92857 0.10124
 H425 H 0.67101 0.79941 0.13122
 H426 H 0.65674 0.89992 0.02003
 C427 C 0.23841 0.38615 0.65808
 C428 C 0.23750 0.41553 0.62706
 C429 C 0.21133 0.41519 0.59071
 C430 C 0.18498 0.38449 0.58617
 C431 C 0.18565 0.35487 0.61834
 C432 C 0.21306 0.35552 0.65389
 C433 C 0.15955 0.32468 0.61302
 N434 N 0.13490 0.32392 0.57729
 N435 N 0.13481 0.35114 0.54644
 C436 C 0.15906 0.38119 0.54943
 H437 H 0.25985 0.38671 0.68477
 H438 H 0.25794 0.43854 0.63106
 H439 H 0.15863 0.30165 0.63685
 H440 H 0.15801 0.40167 0.52257
 C441 C 0.87041 0.25010 0.13624
 C442 C 0.90043 0.25603 0.10609
 C443 C 0.90693 0.29073 0.08465
 C444 C 0.88069 0.31998 0.09339
 C445 C 0.84880 0.31280 0.12250
 C446 C 0.84414 0.27783 0.14452
 C447 C 0.82160 0.34058 0.12770
 N448 N 0.82634 0.37377 0.10634
 N449 N 0.85613 0.38093 0.07957
 C450 C 0.88313 0.35541 0.07214
 H451 H 0.86715 0.22317 0.15273
 H452 H 0.91952 0.23322 0.10065
 H453 H 0.79631 0.33618 0.14811
 H454 H 0.90536 0.36365 0.04898
 C455 C 0.40645 0.75516 0.65685
 C456 C 0.43506 0.76195 0.62488
 C457 C 0.43165 0.78963 0.59137
 C458 C 0.39858 0.81154 0.59101
 C459 C 0.36950 0.80460 0.62387
 C460 C 0.37340 0.77580 0.65638
 C461 C 0.33669 0.82600 0.62228
 N462 N 0.33316 0.85244 0.58966
 N463 N 0.36010 0.85871 0.55844
 C464 C 0.39247 0.83912 0.55785
 H465 H 0.40964 0.73296 0.68150
 H466 H 0.45991 0.74482 0.62576
 H467 H 0.31375 0.82186 0.64651
 H468 H 0.41271 0.84528 0.53123
 C469 C 0.10934 0.70019 0.16800
 C470 C 0.08140 0.68846 0.13659
 C471 C 0.09026 0.68451 0.09003
 C472 C 0.12825 0.69048 0.07592
 C473 C 0.15391 0.70931 0.10523
 C474 C 0.14555 0.71202 0.15276
 C475 C 0.18512 0.72696 0.08413
 N476 N 0.18705 0.72742 0.03742
 N477 N 0.16524 0.70636 0.00880
 C478 C 0.14064 0.68217 0.03123
 H479 H 0.10196 0.70259 0.20392
 H480 H 0.05233 0.68454 0.14817
 H481 H 0.20624 0.74291 0.10329
 H482 H 0.12324 0.66275 0.01081
 C483 C 0.59206 0.23072 0.66695
 C484 C 0.56191 0.22475 0.63669
 C485 C 0.56512 0.20077 0.59881
 C486 C 0.59924 0.18106 0.59256
 C487 C 0.63034 0.18806 0.62279
 C488 C 0.62675 0.21363 0.65964
 C489 C 0.66461 0.17007 0.61432
 N490 N 0.66729 0.14619 0.57835
 N491 N 0.63815 0.13938 0.55010
 C492 C 0.60436 0.15599 0.55583
 H493 H 0.58904 0.25042 0.69495
 H494 H 0.53621 0.24008 0.64202
 H495 H 0.68927 0.17474 0.63596
 H496 H 0.58229 0.14968 0.53110
 C497 C 0.74181 0.11871 0.84971
 C498 C 0.74013 0.08776 0.87833
 C499 C 0.71369 0.08530 0.91418
 C500 C 0.68851 0.11508 0.92141
 C501 C 0.69012 0.14646 0.89188
 C502 C 0.71717 0.14820 0.85610
 C503 C 0.66511 0.17567 0.89978
 N504 N 0.64054 0.17378 0.93547
 N505 N 0.63948 0.14478 0.96382
 C506 C 0.66267 0.11553 0.95821
 H507 H 0.76280 0.11990 0.82259
 H508 H 0.75976 0.06550 0.87246
 H509 H 0.66504 0.20007 0.87810
 H510 H 0.66089 0.09337 0.98303
 C511 C 0.20100 0.63352 0.37681
 C512 C 0.19939 0.60275 0.40576
 C513 C 0.22945 0.57781 0.40817
 C514 C 0.26142 0.58366 0.37859
 C515 C 0.26268 0.61506 0.34894
 C516 C 0.23261 0.64041 0.34897
 C517 C 0.29415 0.62026 0.31974
 N518 N 0.32256 0.59564 0.32012
 N519 N 0.32155 0.56615 0.34760
 C520 C 0.29215 0.55927 0.37661
 H521 H 0.17782 0.65275 0.37706
 H522 H 0.17473 0.59913 0.42762
 H523 H 0.29631 0.64349 0.29628
 H524 H 0.29351 0.53452 0.39700
 C525 C 0.27248 0.88527 0.83955
 C526 C 0.27220 0.91665 0.86786
 C527 C 0.29402 0.91843 0.90802
 C528 C 0.31779 0.88831 0.91902
 C529 C 0.31713 0.85593 0.89077
 C530 C 0.29372 0.85432 0.85133
 C531 C 0.33913 0.82557 0.90366
 N532 N 0.36070 0.82779 0.94213
 N533 N 0.36148 0.85815 0.96870
 C534 C 0.34078 0.88836 0.95862
 H535 H 0.25431 0.88419 0.80953
 H536 H 0.25392 0.93935 0.85903
 H537 H 0.33940 0.80014 0.88351
 H538 H 0.34217 0.91163 0.98223
 C539 C 0.78710 0.36116 0.37193
 C540 C 0.79223 0.39145 0.40169
 C541 C 0.77144 0.42394 0.39627
 C542 C 0.74680 0.42675 0.35789
 C543 C 0.74263 0.39628 0.32672
 C544 C 0.76205 0.36287 0.33477
 C545 C 0.71860 0.40000 0.28859
 N546 N 0.69993 0.43212 0.28229
 N547 N 0.70372 0.46071 0.31149
 C548 C 0.72642 0.45915 0.34898
 H549 H 0.80216 0.33579 0.37851
 H550 H 0.81145 0.38882 0.43036
 H551 H 0.71464 0.37772 0.26369
 H552 H 0.72859 0.48351 0.37089
 C553 C 0.09868 0.29433 0.83689
 C554 C 0.06952 0.30613 0.86540
 C555 C 0.07616 0.31234 0.91220
 C556 C 0.11316 0.30797 0.92972
 C557 C 0.13982 0.28913 0.90329
 C558 C 0.13396 0.28474 0.85534
 C559 C 0.16913 0.27283 0.92763
 N560 N 0.16771 0.27262 0.97439
 N561 N 0.14440 0.29302 1.00044
 C562 C 0.12339 0.31735 0.97522
 H563 H 0.09305 0.29051 0.80061
 H564 H 0.04126 0.30888 0.85131
 H565 H 0.19105 0.25745 0.91080
 H566 H 0.10579 0.33691 0.99355
 C567 C 0.60882 0.76784 0.32431
 C568 C 0.58010 0.77412 0.35602
 C569 C 0.58806 0.79254 0.39762
 C570 C 0.62574 0.80546 0.40705
 C571 C 0.65498 0.79882 0.37493
 C572 C 0.64639 0.77929 0.33371
 C573 C 0.69228 0.81103 0.38574
 N574 N 0.69962 0.82854 0.42627
 N575 N 0.67226 0.83442 0.45669
 C576 C 0.63570 0.82334 0.44854
 H577 H 0.60203 0.75262 0.29300
 H578 H 0.55155 0.76366 0.34858
 H579 H 0.71564 0.80676 0.36244
 H580 H 0.61487 0.82838 0.47464
 C581 C 0.87559 0.70311 0.87062
 C582 C 0.90515 0.69722 0.90112
 C583 C 0.93762 0.72107 0.90227
 C584 C 0.94151 0.74955 0.86845
 C585 C 0.91185 0.75433 0.83603
 C586 C 0.87826 0.73157 0.83812
 C587 C 0.91675 0.78175 0.80206
 N588 N 0.94937 0.80269 0.80033
 N589 N 0.97755 0.79778 0.82991
 C590 C 0.97494 0.77187 0.86354
 H591 H 0.85009 0.68551 0.87270
 H592 H 0.90140 0.67505 0.92599
 H593 H 0.89511 0.78646 0.77658
 H594 H 0.99961 0.76843 0.88487
 C595 C 0.34681 0.19331 0.37770
 C596 C 0.37732 0.18874 0.40746
 C597 C 0.41077 0.21068 0.40312
 C598 C 0.41437 0.23604 0.36608
 C599 C 0.38322 0.24082 0.33605
 C600 C 0.34901 0.21980 0.34268
 C601 C 0.38728 0.26668 0.30018
 N602 N 0.42071 0.28582 0.29439
 N603 N 0.45026 0.28078 0.32195
 C604 C 0.44832 0.25652 0.35744
 H605 H 0.32080 0.17699 0.38297
 H606 H 0.37412 0.16910 0.43539
 H607 H 0.36434 0.27158 0.27647
 H608 H 0.47356 0.25305 0.37792
 C609 C 0.71300 0.86017 0.87378
 C610 C 0.70653 0.89037 0.90274
 C611 C 0.72440 0.92525 0.89497
 C612 C 0.74762 0.93029 0.85574
 C613 C 0.75391 0.89962 0.82603
 C614 C 0.73704 0.86419 0.83584
 C615 C 0.77725 0.90536 0.78750
 N616 N 0.79285 0.93973 0.77926
 N617 N 0.78663 0.96866 0.80688
 C618 C 0.76454 0.96516 0.84475
 H619 H 0.69991 0.83320 0.88156
 H620 H 0.68883 0.88601 0.93272
 H621 H 0.78306 0.88291 0.76378
 H622 H 0.76000 0.98976 0.86547
 C623 C 0.19408 0.36086 0.37522
 C624 C 0.19201 0.39079 0.40575
 C625 C 0.21611 0.42236 0.40092
 C626 C 0.24088 0.42483 0.36271
 C627 C 0.24338 0.39420 0.33211
 C628 C 0.22027 0.36181 0.33915
 C629 C 0.26920 0.39691 0.29545
 N630 N 0.29017 0.42884 0.28927
 N631 N 0.28700 0.45810 0.31724
 C632 C 0.26301 0.45720 0.35357
 H633 H 0.17625 0.33614 0.38079
 H634 H 0.17271 0.38854 0.43456
 H635 H 0.27262 0.37412 0.27144
 H636 H 0.26080 0.48197 0.37439
 C637 C 0.27919 0.13396 0.87542
 C638 C 0.28564 0.10373 0.90385
 C639 C 0.26282 0.07093 0.90090
 C640 C 0.23548 0.06748 0.86475
 C641 C 0.22979 0.09813 0.83507
 C642 C 0.25111 0.13184 0.84145
 C643 C 0.20312 0.09396 0.79931
 N644 N 0.18399 0.06096 0.79309
 N645 N 0.19003 0.03178 0.81986
 C646 C 0.21522 0.03373 0.85505
 H647 H 0.29608 0.15947 0.88018
 H648 H 0.30701 0.10714 0.93045
 H649 H 0.19761 0.11650 0.77595
 H650 H 0.21994 0.00840 0.87377
 C651 C 0.77911 0.64539 0.38589
 C652 C 0.78340 0.61663 0.41717
 C653 C 0.78552 0.57963 0.40212
 C654 C 0.78420 0.57141 0.35466
 C655 C 0.77827 0.60043 0.32288
 C656 C 0.77554 0.63774 0.33883
 C657 C 0.77447 0.59087 0.27621
 N658 N 0.77791 0.55487 0.26250
 N659 N 0.78461 0.52781 0.29228
 C660 C 0.78787 0.53484 0.33787
 H661 H 0.77734 0.67379 0.39855
 H662 H 0.78426 0.62319 0.45349
 H663 H 0.76874 0.61158 0.25050
 H664 H 0.79345 0.51188 0.36055
 C665 C 0.12567 0.70787 0.84172
 C666 C 0.09322 0.71109 0.86888
 C667 C 0.09690 0.71933 0.91587
 C668 C 0.13362 0.72012 0.93591
 C669 C 0.16373 0.70610 0.91061
 C670 C 0.16161 0.70619 0.86237
 C671 C 0.19305 0.68948 0.93446
 N672 N 0.19082 0.68634 0.98093
 C673 C 0.14095 0.72970 0.98191
 H674 H 0.12285 0.70699 0.80475
 H675 H 0.06542 0.70959 0.85286
 H676 H 0.21522 0.67533 0.91617
 H677 H 0.12133 0.74726 1.00008
 C678 C 0.59582 0.20799 0.33765
 C679 C 0.56607 0.20347 0.36858
 C680 C 0.57256 0.20761 0.41558
 C681 C 0.61008 0.21430 0.43227
 C682 C 0.64126 0.21513 0.40093
 C683 C 0.63309 0.21475 0.35308
 C684 C 0.67987 0.21628 0.41533
 N685 N 0.69055 0.21464 0.45964
 C686 C 0.61611 0.22161 0.47884
 H687 H 0.58963 0.20722 0.30125
 H688 H 0.53745 0.19871 0.35566
 H689 H 0.70248 0.21604 0.39031
 H690 H 0.59377 0.22260 0.50401
 C691 C 0.88121 0.27665 0.83725
 C692 C 0.91265 0.28170 0.86565
 C693 C 0.91208 0.30636 0.90325
 C694 C 0.87960 0.32846 0.91013
 C695 C 0.84749 0.32312 0.88099
 C696 C 0.84812 0.29615 0.84541
 C697 C 0.81510 0.34412 0.88929
 N698 N 0.81493 0.36894 0.92452
 N699 N 0.84488 0.37398 0.95199
 C700 C 0.87705 0.35459 0.94613
 H701 H 0.88203 0.25608 0.80990
 H702 H 0.93710 0.26468 0.85953
 H703 H 0.78996 0.34102 0.86808
 H704 H 0.90012 0.36023 0.96951
 C705 C 0.38956 0.76256 0.34670
 C706 C 0.42111 0.76728 0.37493
 C707 C 0.42507 0.79809 0.40476
 C708 C 0.39663 0.82578 0.40433
 C709 C 0.36424 0.82053 0.37552
 C710 C 0.36063 0.78837 0.34733
 C711 C 0.33571 0.84718 0.37674
 N712 N 0.33947 0.87737 0.40469
 N713 N 0.36970 0.88255 0.43162
 C714 C 0.39821 0.85793 0.43254
 H715 H 0.38705 0.73786 0.32512
 H716 H 0.44238 0.74603 0.37410
 H717 H 0.31041 0.84430 0.35583
 H718 H 0.42140 0.86429 0.45545
 C719 C 0.27718 0.89603 0.16632
 C720 C 0.28087 0.92452 0.13406
 C721 C 0.27727 0.91657 0.08719
 C722 C 0.27176 0.87906 0.07233
 C723 C 0.27019 0.84997 0.10491
 C724 C 0.27099 0.85879 0.15238
 C725 C 0.26731 0.81283 0.08880
 N726 N 0.26423 0.80574 0.04322
 N727 N 0.26405 0.83321 0.01270
 C728 C 0.26757 0.86955 0.02571
 H729 H 0.27807 0.90317 0.20246
 H730 H 0.28465 0.95315 0.14581
 H731 H 0.26761 0.78939 0.11194
 H732 H 0.26722 0.89062 -0.00049
 C733 C 0.74527 0.39334 0.65325
 C734 C 0.75093 0.42245 0.62239
 C735 C 0.77382 0.41809 0.58355
 C736 C 0.79112 0.38334 0.57549
 C737 C 0.78495 0.35359 0.60673
 C738 C 0.76183 0.35882 0.64576
 C739 C 0.80173 0.31920 0.59758
 N740 N 0.82312 0.31496 0.55940
 N741 N 0.82869 0.34272 0.52980
 C742 C 0.81338 0.37663 0.53641
 H743 H 0.72739 0.39753 0.68292
 H744 H 0.73725 0.44866 0.62887
 H745 H 0.79794 0.29563 0.62030
 H746 H 0.81862 0.39775 0.51085
 C747 C 0.68524 0.12707 0.12663
 C748 C 0.68364 0.09628 0.09718
 C749 C 0.71061 0.06833 0.10020
 C750 C 0.73762 0.06991 0.13640
 C751 C 0.73950 0.10149 0.16591
 C752 C 0.71377 0.13066 0.15991
 C753 C 0.76747 0.10305 0.20038
 N754 N 0.79119 0.07425 0.20560
 N755 N 0.78880 0.04409 0.17870
 C756 C 0.76282 0.04086 0.14443
 H757 H 0.66533 0.14921 0.12188
 H758 H 0.66257 0.09546 0.07008
 H759 H 0.77040 0.12670 0.22350
 H760 H 0.76169 0.01531 0.12452
 C761 C 0.25485 0.59865 0.66576
 C762 C 0.24874 0.57045 0.63338
 C763 C 0.22362 0.57505 0.59659
 C764 C 0.20360 0.60882 0.59299
 C765 C 0.20932 0.63717 0.62669
 C766 C 0.23579 0.63219 0.66252
 C767 C 0.18930 0.67039 0.62261
 N768 N 0.16579 0.67517 0.58645
 N769 N 0.16120 0.64911 0.55403
 C770 C 0.17941 0.61631 0.55583
 H771 H 0.27542 0.59477 0.69284
 H772 H 0.26441 0.54500 0.63655
 H773 H 0.19227 0.69264 0.64773
 H774 H 0.17508 0.59697 0.52771
 C775 C 0.86699 0.68997 0.11169
 C776 C 0.89902 0.68567 0.08431
 C777 C 0.93269 0.70625 0.09345
 C778 C 0.93492 0.72946 0.13307
 C779 C 0.90208 0.73455 0.16011
 C780 C 0.86777 0.71513 0.14865
 C781 C 0.90460 0.75923 0.19777
 N782 N 0.93829 0.77644 0.20848
 N783 N 0.96950 0.77068 0.18405
 C784 C 0.96904 0.74775 0.14687
 H785 H 0.84090 0.67480 0.10287
 H786 H 0.89683 0.66772 0.05434
 H787 H 0.88024 0.76475 0.21903
 H788 H 0.99550 0.74354 0.12911
 C789 C 0.34076 0.18892 0.61548
 C790 C 0.37231 0.18529 0.58714
 C791 C 0.40555 0.20696 0.59482
 C792 C 0.40785 0.23100 0.63366
 C793 C 0.37564 0.23495 0.66210
 C794 C 0.34174 0.21426 0.65221
 C795 C 0.37834 0.25972 0.69967
 N796 N 0.41154 0.27849 0.70860
 N797 N 0.44213 0.27415 0.68256
 C798 C 0.44148 0.25102 0.64556
 H799 H 0.31495 0.17287 0.60782
 H800 H 0.37015 0.16665 0.55779
 H801 H 0.35451 0.26409 0.72223
 H802 H 0.46745 0.24811 0.62642
 C803 C 0.09685 0.27525 0.16344
 C804 C 0.06522 0.27257 0.13437
 C805 C 0.07044 0.27161 0.08676
 C806 C 0.10754 0.27480 0.06898
 C807 C 0.13698 0.28721 0.09744
 C808 C 0.13328 0.28240 0.14520
 C809 C 0.16737 0.30643 0.07679
 N810 N 0.16702 0.31191 0.03040
 C811 C 0.11617 0.26903 0.02275
 H812 H 0.09304 0.27174 0.20002
 H813 H 0.03693 0.27047 0.14883
 H814 H 0.18907 0.32036 0.09754
 H815 H 0.09599 0.25316 0.00155
 C816 C 0.62691 0.75559 0.63901
 C817 C 0.59646 0.76127 0.61012
 C818 C 0.59460 0.79347 0.58329
 C819 C 0.62451 0.82136 0.58676
 C820 C 0.65722 0.81454 0.61471
 C821 C 0.65745 0.78124 0.64115
 C822 C 0.68988 0.83898 0.61647
 N823 N 0.69359 0.87052 0.59172
 C824 C 0.62273 0.85516 0.56321
 H825 H 0.62711 0.73036 0.65934
 H826 H 0.57393 0.74001 0.60879
 H827 H 0.71415 0.83223 0.63719
 H828 H 0.60055 0.86443 0.54107
   
