data_POSCAR
  _audit_creation_date              2014-09-24
  _audit_creation_method            'ToBaCCo'
  _symmetry_space_group_name_H-M    'P1'
  _symmetry_Int_Tables_number       1
  _symmetry_cell_setting            triclinic
  loop_
  _symmetry_equiv_pos_as_xyz
 x,y,z
_cell_length_a 29.5176
_cell_length_b 28.6113
_cell_length_c 61.2364
_cell_angle_alpha 90.909000
_cell_angle_beta 92.351400
_cell_angle_gamma 76.907100
loop_
  _atom_site_label
  _atom_site_type_symbol
  _atom_site_fract_x
  _atom_site_fract_y
  _atom_site_fract_z
C1 C 0.03637 0.60226 0.99682
 C2 C 0.01759 0.58970 1.01605
 C3 C -0.00439 0.55078 1.01530
 C4 C -0.00545 0.52284 0.99615
 C5 C 0.01400 0.53643 0.97724
 C6 C 0.03317 0.57715 0.97710
 C7 C -0.02671 0.47971 0.99586
 C8 C -0.04310 0.46227 0.97606
 C9 C -0.05991 0.42013 0.97540
 C10 C -0.06435 0.39743 0.99507
 C11 C -0.04961 0.41450 1.01511
 C12 C -0.02962 0.45469 1.01528
 H13 H 0.05210 0.63299 0.99700
 H14 H -0.02102 0.54261 1.02970
 H15 H 0.01494 0.51508 0.96250
 H16 H -0.04270 0.48098 0.96092
 H17 H -0.07781 0.36522 0.99470
 H18 H -0.01582 0.46577 1.03062
 C19 C 0.38091 0.01790 0.50263
 C20 C 0.40938 0.00871 0.52165
 C21 C 0.45690 0.00811 0.52070
 C22 C 0.47623 0.01821 0.50107
 C23 C 0.44643 0.02847 0.48226
 C24 C 0.39916 0.02737 0.48282
 C25 C 0.52730 0.01697 0.50016
 C26 C 0.55056 0.00734 0.48030
 C27 C 0.59854 0.00505 0.47936
 C28 C 0.62355 0.01122 0.49880
 C29 C 0.60172 0.02061 0.51888
 C30 C 0.55342 0.02440 0.51926
 H31 H 0.34438 0.01748 0.50325
 H32 H 0.47869 -0.00178 0.53526
 H33 H 0.45943 0.03803 0.46711
 H34 H 0.53188 -0.00011 0.46559
 H35 H 0.66062 0.00888 0.49827
 H36 H 0.53623 0.03384 0.53448
 C37 C 0.07227 -0.01053 0.26866
 H38 H 0.08055 -0.03783 0.25614
 C39 C 0.10637 -0.00511 0.28448
 H40 H 0.14081 -0.02833 0.28389
 C41 C 0.01698 0.05170 0.28515
 H42 H -0.01818 0.07335 0.28540
 C43 C 0.04972 0.05808 0.30130
 H44 H 0.03938 0.08504 0.31385
 N45 N 0.02857 0.01776 0.26933
 C46 C -0.02539 -0.08047 0.23182
 H47 H -0.05150 -0.08030 0.24368
 C48 C -0.01648 -0.11741 0.21634
 H49 H -0.03562 -0.14549 0.21674
 C50 C 0.02906 -0.04275 0.21616
 H51 H 0.04580 -0.01282 0.21593
 C52 C 0.03887 -0.07887 0.20028
 H53 H 0.06364 -0.07660 0.18801
 Zn54 Zn -0.02079 0.01015 0.24990
 N55 N -0.00295 -0.04391 0.23137
 C56 C -0.07166 0.06341 0.21539
 N57 N -0.03916 0.06444 0.23167
 C58 C -0.01640 0.10077 0.23331
 C59 C -0.02521 0.13743 0.21788
 C60 C -0.08142 0.09926 0.19954
 C61 C -0.05713 -0.03269 0.28288
 C62 C -0.08907 -0.03995 0.29784
 C63 C -0.14660 0.02423 0.28085
 C64 C -0.11329 0.03039 0.26617
 N65 N -0.06952 0.00206 0.26752
 H66 H -0.08866 0.03366 0.21425
 H67 H 0.01001 0.10048 0.24608
 H68 H -0.00569 0.16522 0.21920
 H69 H -0.10646 0.09697 0.18637
 H70 H -0.02194 -0.05435 0.28369
 H71 H -0.07801 -0.06755 0.31006
 H72 H -0.18105 0.04758 0.27983
 H73 H -0.12216 0.05831 0.25402
 C74 C 0.01535 -0.11647 0.20002
 C75 C 0.09505 0.02923 0.30124
 C76 C -0.13439 -0.01098 0.29714
 C77 C -0.05734 0.13643 0.20041
 C78 C 0.01431 0.07793 0.76314
 H79 H 0.02036 0.08457 0.74628
 C80 C 0.00079 0.11657 0.77761
 H81 H -0.00295 0.15286 0.77183
 C82 C 0.00995 0.02275 0.79098
 H83 H 0.01234 -0.01366 0.79612
 C84 C -0.00422 0.06007 0.80579
 H85 H -0.01143 0.05152 0.82227
 N86 N 0.01923 0.03205 0.77012
 C87 C 0.10331 -0.06365 0.72345
 H88 H 0.08415 -0.09167 0.72384
 C89 C 0.13963 -0.06768 0.70926
 H90 H 0.14839 -0.09928 0.69895
 C91 C 0.11337 0.01230 0.73592
 H92 H 0.10264 0.04359 0.74618
 C93 C 0.15024 0.00969 0.72191
 H94 H 0.16737 0.03934 0.72143
 Zn95 Zn 0.03400 -0.02084 0.75055
 N96 N 0.08977 -0.02343 0.73582
 C97 C -0.00651 -0.00742 0.70833
 N98 N -0.01578 -0.01488 0.72939
 C99 C -0.05982 -0.01478 0.73523
 C100 C -0.09639 -0.00812 0.71941
 C101 C -0.04173 -0.00056 0.69213
 C102 C 0.08113 -0.08601 0.78076
 C103 C 0.08992 -0.12479 0.79497
 C104 C 0.02241 -0.14908 0.77915
 C105 C 0.01485 -0.10955 0.76518
 N106 N 0.04346 -0.07835 0.76667
 H107 H 0.02812 -0.00575 0.70398
 H108 H -0.06661 -0.01951 0.75218
 H109 H -0.13119 -0.00824 0.72430
 H110 H -0.03303 0.00527 0.67554
 H111 H 0.10355 -0.06085 0.78141
 H112 H 0.11942 -0.12917 0.80646
 H113 H -0.00153 -0.17272 0.77826
 H114 H -0.01443 -0.10327 0.75358
 C115 C 0.16272 -0.03008 0.70782
 C116 C -0.00897 0.10773 0.79923
 C117 C 0.05981 -0.15640 0.79466
 C118 C -0.08744 -0.00085 0.69749
 C119 C 0.02548 -0.33194 0.07281
 N120 N 0.00354 -0.36885 0.07239
 N121 N 0.00107 -0.39428 0.05412
 C122 C 0.02024 -0.38374 0.03550
 N123 N 0.04223 -0.34675 0.03610
 N124 N 0.04481 -0.32142 0.05434
 C125 C 0.02752 -0.30298 0.09270
 N126 N 0.05063 -0.26699 0.09300
 N127 N 0.05140 -0.23956 0.11072
 C128 C 0.02905 -0.24709 0.12882
 N129 N 0.00613 -0.28327 0.12859
 N130 N 0.00544 -0.31078 0.11086
 C131 C 0.02793 -0.21516 0.14791
 N132 N 0.00245 -0.22002 0.16533
 N133 N -0.00067 -0.18933 0.18209
 C134 C 0.02160 -0.15262 0.18212
 N135 N 0.04753 -0.14822 0.16476
 N136 N 0.05062 -0.17885 0.14799
 C137 C -0.06196 0.34203 0.07298
 N138 N -0.08228 0.33111 0.05389
 N139 N -0.07840 0.35425 0.03563
 C140 C -0.05408 0.38928 0.03566
 N141 N -0.03397 0.40038 0.05484
 N142 N -0.03775 0.37713 0.07314
 C143 C -0.06519 0.31519 0.09290
 N144 N -0.04216 0.32316 0.11174
 N145 N -0.04375 0.29730 0.12950
 C146 C -0.06853 0.26264 0.12906
 N147 N -0.09184 0.25497 0.11027
 N148 N -0.09019 0.28075 0.09252
 C149 C -0.06823 0.23220 0.14819
 N150 N -0.09237 0.19704 0.14748
 N151 N -0.08988 0.16745 0.16429
 C152 C -0.06313 0.17179 0.18247
 N153 N -0.03944 0.20741 0.18322
 N154 N -0.04196 0.23705 0.16643
 C155 C 0.34953 -0.01374 0.58038
 N156 N 0.38723 0.00605 0.58054
 N157 N 0.40688 0.01236 0.56191
 C158 C 0.38924 -0.00042 0.54244
 N159 N 0.35158 -0.02025 0.54235
 N160 N 0.33226 -0.02701 0.56097
 C161 C 0.32657 -0.01952 0.60067
 N162 N 0.29505 -0.04741 0.60080
 N163 N 0.27242 -0.05125 0.61880
 C164 C 0.28010 -0.02703 0.63731
 N165 N 0.31174 0.00083 0.63724
 N166 N 0.33474 0.00435 0.61925
 C167 C 0.25275 -0.02961 0.65657
 N168 N 0.25125 0.00219 0.67339
 N169 N 0.22352 0.00154 0.69001
 C170 C 0.19654 -0.03115 0.69048
 N171 N 0.19875 -0.06326 0.67377
 N172 N 0.22615 -0.06243 0.65714
 C173 C -0.31736 0.02973 0.57478
 N174 N -0.36337 0.03071 0.57626
 N175 N -0.38996 0.02869 0.55823
 C176 C -0.37146 0.02522 0.53808
 N177 N -0.32549 0.02463 0.53685
 N178 N -0.29911 0.02697 0.55474
 C179 C -0.28649 0.02985 0.59419
 N180 N -0.24186 0.03277 0.59152
 N181 N -0.21218 0.03026 0.60859
 C182 C -0.22581 0.02450 0.62906
 N183 N -0.27063 0.02190 0.63187
 N184 N -0.30052 0.02457 0.61470
 C185 C -0.19133 0.01948 0.64736
 N186 N -0.20192 0.01070 0.66807
 N187 N -0.16919 0.00452 0.68415
 C188 C -0.12475 0.00679 0.68008
 N189 N -0.11462 0.01581 0.65937
 N190 N -0.14714 0.02198 0.64337
 C191 C 0.06510 -0.36725 0.91939
 N192 N 0.04498 -0.40546 0.91913
 N193 N 0.03625 -0.42460 0.93777
 C194 C 0.04672 -0.40594 0.95743
 N195 N 0.06755 -0.36814 0.95753
 N196 N 0.07671 -0.34933 0.93893
 C197 C 0.07084 -0.34292 0.89911
 N198 N 0.09598 -0.30866 0.89943
 N199 N 0.09788 -0.28319 0.88163
 C200 C 0.07439 -0.29071 0.86287
 N201 N 0.04958 -0.32534 0.86244
 N202 N 0.04796 -0.35111 0.88023
 C203 C 0.07324 -0.25918 0.84407
 N204 N 0.04266 -0.25910 0.82687
 N205 N 0.03906 -0.22728 0.81084
 C206 C 0.06599 -0.19448 0.81138
 N207 N 0.09700 -0.19525 0.82845
 N208 N 0.10047 -0.22684 0.84449
 C209 C -0.07473 0.34758 0.91640
 N210 N -0.09127 0.33426 0.93510
 N211 N -0.08839 0.35859 0.95362
 C212 C -0.06893 0.39733 0.95421
 N213 N -0.05336 0.41129 0.93532
 N214 N -0.05616 0.38688 0.91677
 C215 C -0.07265 0.31687 0.89684
 N216 N -0.05226 0.32700 0.87854
 N217 N -0.04615 0.29626 0.86173
 C218 C -0.06009 0.25425 0.86269
 N219 N -0.08107 0.24456 0.88085
 N220 N -0.08724 0.27527 0.89759
 C221 C -0.04951 0.21785 0.84532
 N222 N -0.05735 0.17356 0.84837
 N223 N -0.04500 0.13903 0.83355
 C224 C -0.02439 0.14731 0.81502
 N225 N -0.01712 0.19191 0.81180
 N226 N -0.02928 0.22651 0.82673
 C227 C -0.33197 -0.01563 0.42155
 N228 N -0.37919 -0.00712 0.42121
 N229 N -0.40184 -0.00138 0.43985
 C230 C -0.37819 -0.00319 0.45951
 N231 N -0.33097 -0.01187 0.45961
 N232 N -0.30838 -0.01822 0.44109
 C233 C -0.30593 -0.02051 0.40142
 N234 N -0.25951 -0.03989 0.40242
 N235 N -0.23432 -0.04153 0.38481
 C236 C -0.25443 -0.02338 0.36553
 N237 N -0.30102 -0.00420 0.36440
 N238 N -0.32640 -0.00295 0.38205
 C239 C -0.22506 -0.02253 0.34682
 N240 N -0.24115 0.00448 0.32889
 N241 N -0.21272 0.00766 0.31285
 C242 C -0.16724 -0.01617 0.31413
 N243 N -0.15160 -0.04357 0.33197
 N244 N -0.17984 -0.04656 0.34800
 C245 C 0.31260 0.04215 0.42609
 N246 N 0.35955 0.02861 0.42470
 N247 N 0.38719 0.02508 0.44266
 C248 C 0.36890 0.03464 0.46270
 N249 N 0.32193 0.04847 0.46399
 N250 N 0.29435 0.05234 0.44605
 C251 C 0.28165 0.04381 0.40657
 N252 N 0.23528 0.06238 0.40791
 N253 N 0.20659 0.06200 0.39059
 C254 C 0.22310 0.04273 0.37130
 N255 N 0.26954 0.02429 0.36990
 N256 N 0.29833 0.02493 0.38721
 C257 C 0.19073 0.04061 0.35263
 N258 N 0.20517 0.01499 0.33434
 N259 N 0.17499 0.01164 0.31789
 C260 C 0.12928 0.03395 0.31907
 N261 N 0.11513 0.05982 0.33733
 N262 N 0.14518 0.06298 0.35379
   
