data_POSCAR
  _audit_creation_date              2014-09-24
  _audit_creation_method            'ToBaCCo'
  _symmetry_space_group_name_H-M    'P1'
  _symmetry_Int_Tables_number       1
  _symmetry_cell_setting            triclinic
  loop_
  _symmetry_equiv_pos_as_xyz
 x,y,z
_cell_length_a 45.2149
_cell_length_b 45.2149
_cell_length_c 45.1472
_cell_angle_alpha 89.989900
_cell_angle_beta 90.010100
_cell_angle_gamma 89.831000
loop_
  _atom_site_label
  _atom_site_type_symbol
  _atom_site_fract_x
  _atom_site_fract_y
  _atom_site_fract_z
C1 C 0.19089 0.15140 0.19141
 C2 C 0.17813 0.13895 0.21684
 C3 C 0.15283 0.15174 0.22950
 C4 C 0.14008 0.17703 0.21677
 C5 C 0.15256 0.18974 0.19135
 C6 C 0.17809 0.17691 0.17859
 C7 C 0.21633 0.13889 0.17868
 C8 C 0.22902 0.15162 0.15339
 C9 C 0.21631 0.17690 0.14061
 C10 C 0.19089 0.18968 0.15307
 C11 C 0.17812 0.21510 0.14057
 C12 C 0.15284 0.22780 0.15330
 C13 C 0.14009 0.21516 0.17856
 H14 H 0.18793 0.11941 0.22682
 H15 H 0.12052 0.18685 0.22670
 H16 H 0.22630 0.11934 0.18850
 H17 H 0.22627 0.18668 0.12107
 H18 H 0.18786 0.22509 0.12104
 H19 H 0.12055 0.22520 0.18827
 C20 C -0.19077 0.84874 0.19115
 C21 C -0.17803 0.86117 0.21659
 C22 C -0.15271 0.84841 0.22925
 C23 C -0.13991 0.82317 0.21650
 C24 C -0.15237 0.81046 0.19107
 C25 C -0.17792 0.82326 0.17831
 C26 C -0.21623 0.86121 0.17842
 C27 C -0.22890 0.84849 0.15312
 C28 C -0.21615 0.82324 0.14032
 C29 C -0.19070 0.81050 0.15277
 C30 C -0.17788 0.78511 0.14026
 C31 C -0.15259 0.77244 0.15299
 C32 C -0.13985 0.78508 0.17827
 H33 H -0.18787 0.88068 0.22659
 H34 H -0.12034 0.81336 0.22643
 H35 H -0.22623 0.88072 0.18825
 H36 H -0.22608 0.81347 0.12077
 H37 H -0.18760 0.77512 0.12072
 H38 H -0.12030 0.77506 0.18799
 C39 C -0.19210 0.15255 -0.19000
 C40 C -0.17932 0.14003 -0.21541
 C41 C -0.15408 0.15270 -0.22809
 C42 C -0.14136 0.17793 -0.21544
 C43 C -0.15384 0.19073 -0.19003
 C44 C -0.17933 0.17803 -0.17722
 C45 C -0.21749 0.14016 -0.17723
 C46 C -0.23019 0.15296 -0.15195
 C47 C -0.21752 0.17822 -0.13922
 C48 C -0.19213 0.19088 -0.15172
 C49 C -0.17939 0.21626 -0.13927
 C50 C -0.15414 0.22884 -0.15205
 C51 C -0.14139 0.21611 -0.17730
 H52 H -0.18903 0.12052 -0.22542
 H53 H -0.12184 0.18760 -0.22545
 H54 H -0.22743 0.12064 -0.18701
 H55 H -0.22748 0.18806 -0.11968
 H56 H -0.18912 0.22632 -0.11975
 H57 H -0.12188 0.22605 -0.18705
 C58 C 0.19108 0.84743 -0.19145
 C59 C 0.17829 0.85995 -0.21687
 C60 C 0.15304 0.84725 -0.22956
 C61 C 0.14036 0.82198 -0.21688
 C62 C 0.15288 0.80919 -0.19147
 C63 C 0.17836 0.82193 -0.17867
 C64 C 0.21646 0.85985 -0.17868
 C65 C 0.22917 0.84706 -0.15342
 C66 C 0.21657 0.82181 -0.14068
 C67 C 0.19119 0.80910 -0.15316
 C68 C 0.17850 0.78370 -0.14070
 C69 C 0.15327 0.77109 -0.15346
 C70 C 0.14048 0.78379 -0.17872
 H71 H 0.18804 0.87948 -0.22681
 H72 H 0.12084 0.81222 -0.22684
 H73 H 0.22642 0.87937 -0.18840
 H74 H 0.22660 0.81204 -0.12115
 H75 H 0.18826 0.77366 -0.12117
 H76 H 0.12097 0.77382 -0.18846
 C77 C 0.15140 1.19089 0.80858
 C78 C 0.13896 1.17812 0.78316
 C79 C 0.15175 1.15282 0.77050
 C80 C 0.17703 1.14007 0.78322
 C81 C 0.18975 1.15256 0.80864
 C82 C 0.17692 1.17809 0.82141
 C83 C 0.13889 1.21632 0.82131
 C84 C 0.15162 1.22902 0.84660
 C85 C 0.17691 1.21631 0.85938
 C86 C 0.18969 1.19088 0.84692
 C87 C 0.21510 1.17811 0.85942
 C88 C 0.22780 1.15284 0.84669
 C89 C 0.21516 1.14008 0.82143
 H90 H 0.11941 1.18792 0.77317
 H91 H 0.18686 1.12052 0.77330
 H92 H 0.11935 1.22629 0.81149
 H93 H 0.18669 1.22626 0.87892
 H94 H 0.22509 1.18785 0.87895
 H95 H 0.22520 1.12054 0.81172
 C96 C 0.84874 0.80922 0.80884
 C97 C 0.86118 0.82196 0.78340
 C98 C 0.84842 0.84728 0.77074
 C99 C 0.82317 0.86008 0.78349
 C100 C 0.81047 0.84762 0.80892
 C101 C 0.82327 0.82207 0.82169
 C102 C 0.86122 0.78377 0.82157
 C103 C 0.84850 0.77110 0.84687
 C104 C 0.82325 0.78385 0.85967
 C105 C 0.81050 0.80930 0.84722
 C106 C 0.78512 0.82211 0.85973
 C107 C 0.77245 0.84741 0.84700
 C108 C 0.78509 0.86014 0.82172
 H109 H 0.88069 0.81212 0.77340
 H110 H 0.81336 0.87965 0.77356
 H111 H 0.88073 0.77376 0.81174
 H112 H 0.81347 0.77391 0.87922
 H113 H 0.77513 0.81239 0.87927
 H114 H 0.77507 0.87970 0.81201
 C115 C 0.15255 0.80790 1.18999
 C116 C 0.14003 0.82067 1.21541
 C117 C 0.15271 0.84592 1.22808
 C118 C 0.17793 0.85864 1.21543
 C119 C 0.19074 0.84616 1.19003
 C120 C 0.17803 0.82066 1.17722
 C121 C 0.14016 0.78250 1.17723
 C122 C 0.15297 0.76980 1.15194
 C123 C 0.17822 0.78247 1.13921
 C124 C 0.19089 0.80786 1.15171
 C125 C 0.21627 0.82061 1.13927
 C126 C 0.22884 0.84585 1.15204
 C127 C 0.21611 0.85860 1.17729
 H128 H 0.12053 0.81096 1.22541
 H129 H 0.18760 0.87815 1.22544
 H130 H 0.12065 0.77257 1.18701
 H131 H 0.18806 0.77251 1.11968
 H132 H 0.22633 0.81087 1.11974
 H133 H 0.22605 0.87812 1.18704
 C134 C 0.84744 1.19108 1.19145
 C135 C 0.85996 1.17829 1.21686
 C136 C 0.84725 1.15303 1.22955
 C137 C 0.82198 1.14035 1.21687
 C138 C 0.80920 1.15287 1.19147
 C139 C 0.82194 1.17835 1.17866
 C140 C 0.85985 1.21646 1.17867
 C141 C 0.84706 1.22916 1.15341
 C142 C 0.82181 1.21656 1.14067
 C143 C 0.80910 1.19118 1.15315
 C144 C 0.78371 1.17849 1.14069
 C145 C 0.77109 1.15326 1.15346
 C146 C 0.78380 1.14047 1.17872
 H147 H 0.87949 1.18803 1.22680
 H148 H 0.81222 1.12084 1.22683
 H149 H 0.87937 1.22642 1.18839
 H150 H 0.81205 1.22660 1.12114
 H151 H 0.77367 1.18825 1.12117
 H152 H 0.77383 1.12097 1.18845
 N153 N 0.53088 1.05268 0.96851
 N154 N 0.55374 1.07051 0.96536
 N155 N 0.46879 1.03194 0.94780
 N156 N 0.44585 1.03512 0.92998
 N157 N 0.46861 1.05243 0.96840
 N158 N 0.44554 1.07009 0.96516
 N159 N 0.53105 1.03219 0.94792
 N160 N 0.55402 1.03552 0.93020
 C161 C 0.56795 1.05957 0.94131
 C162 C 0.43157 1.05907 0.94104
 N163 N 0.46935 0.94771 0.96819
 N164 N 0.44650 0.92991 0.96491
 N165 N 0.53151 0.96853 0.94779
 N166 N 0.55450 0.96541 0.93005
 N167 N 0.53161 0.94797 0.96832
 N168 N 0.55467 0.93030 0.96509
 N169 N 0.46924 0.96828 0.94768
 N170 N 0.44631 0.96504 0.92989
 Mn171 Mn 0.50015 1.00024 0.94742
 C172 C 0.43235 0.94094 0.94086
 C173 C 0.56873 0.94141 0.94107
 N174 N 0.46848 1.05229 1.03216
 N175 N 0.44542 1.06996 1.03542
 N176 N 0.53087 1.03198 1.05279
 N177 N 0.55381 1.03522 1.07057
 N178 N 0.53076 1.05255 1.03227
 N179 N 0.55361 1.07034 1.03553
 N180 N 0.46860 1.03171 1.05268
 N181 N 0.44563 1.03482 1.07045
 Mn182 Mn 0.49968 1.05286 1.00034
 C183 C 0.43139 1.05883 1.05946
 C184 C 0.56777 1.05931 1.05958
 N185 N 0.53152 0.94783 1.03207
 N186 N 0.55460 0.93019 1.03531
 N187 N 0.46905 0.96805 1.05254
 N188 N 0.44606 0.96470 1.07022
 N189 N 0.46925 0.94757 1.03194
 N190 N 0.44640 0.92974 1.03504
 N191 N 0.53132 0.96832 1.05267
 N192 N 0.55427 0.96516 1.07048
 Mn193 Mn 0.50044 0.94740 1.00013
 Mn194 Mn 0.49996 1.00001 1.05305
 Cl195 Cl 0.50006 1.00013 1.00023
 C196 C 0.56857 0.94122 1.05943
 C197 C 0.43216 0.94065 1.05908
 N198 N -0.03194 0.46905 -0.05255
 N199 N -0.03529 0.44605 -0.07023
 N200 N -0.05216 0.53151 -0.03208
 N201 N -0.06981 0.55459 -0.03532
 N202 N -0.03168 0.53132 -0.05268
 N203 N -0.03483 0.55426 -0.07049
 N204 N -0.05242 0.46925 -0.03195
 N205 N -0.07026 0.44640 -0.03505
 C206 C -0.05935 0.43215 -0.05909
 C207 C -0.05877 0.56856 -0.05944
 N208 N -0.03146 0.53150 0.05220
 N209 N -0.03458 0.55450 0.06995
 N210 N -0.05229 0.46934 0.03180
 N211 N -0.07009 0.44649 0.03508
 N212 N -0.03171 0.46923 0.05232
 N213 N -0.03496 0.44631 0.07011
 N214 N -0.05203 0.53161 0.03167
 N215 N -0.06970 0.55467 0.03490
 Mn216 Mn -0.05260 0.50043 -0.00014
 C217 C -0.05859 0.56872 0.05893
 C218 C -0.05905 0.43234 0.05913
 N219 N 0.03198 0.53087 -0.05280
 N220 N 0.03523 0.55380 -0.07058
 N221 N 0.05230 0.46848 -0.03217
 N222 N 0.06996 0.44542 -0.03543
 N223 N 0.03172 0.46860 -0.05268
 N224 N 0.03483 0.44562 -0.07045
 N225 N 0.05255 0.53075 -0.03228
 N226 N 0.07035 0.55361 -0.03554
 Mn227 Mn 0.00002 0.49996 -0.05305
 C228 C 0.05932 0.56777 -0.05959
 C229 C 0.05884 0.43138 -0.05947
 N230 N 0.03195 0.46878 0.05219
 N231 N 0.03512 0.44584 0.07001
 N232 N 0.05269 0.53088 0.03148
 N233 N 0.07051 0.55373 0.03463
 N234 N 0.03220 0.53105 0.05208
 N235 N 0.03553 0.55401 0.06979
 N236 N 0.05243 0.46860 0.03159
 N237 N 0.07010 0.44554 0.03483
 Mn238 Mn 0.00025 0.50014 0.05257
 Mn239 Mn 0.05287 0.49967 -0.00034
 Cl240 Cl 0.00014 0.50005 -0.00024
 C241 C 0.05908 0.43156 0.05895
 C242 C 0.05958 0.56794 0.05869
 N243 N 0.96818 -0.05241 0.53117
 N244 N 0.96501 -0.07015 0.55416
 N245 N 0.94760 -0.03183 0.46882
 N246 N 0.92985 -0.03499 0.44584
 N247 N 0.96815 -0.05239 0.46880
 N248 N 0.96494 -0.07010 0.44580
 N249 N 0.94761 -0.03186 0.53119
 N250 N 0.92990 -0.03506 0.55419
 C251 C 0.94098 -0.05911 0.56830
 C252 C 0.94089 -0.05902 0.43169
 N253 N 0.96801 0.05232 0.46881
 N254 N 0.96475 0.07009 0.44584
 N255 N 0.94751 0.03180 0.53117
 N256 N 0.92975 0.03503 0.55414
 N257 N 0.96800 0.05231 0.53118
 N258 N 0.96473 0.07005 0.55418
 N259 N 0.94751 0.03182 0.46881
 N260 N 0.92975 0.03509 0.44583
 Mn261 Mn 0.94718 -0.00001 0.50000
 C262 C 0.94073 0.05912 0.43172
 C263 C 0.94071 0.05903 0.56827
 N264 N 1.03181 -0.05249 0.46883
 N265 N 1.03503 -0.07025 0.44585
 N266 N 1.05232 -0.03200 0.53118
 N267 N 1.07009 -0.03525 0.55416
 N268 N 1.03183 -0.05250 0.53118
 N269 N 1.03510 -0.07026 0.55416
 N270 N 1.05232 -0.03200 0.46881
 N271 N 1.07005 -0.03528 0.44582
 Mn272 Mn 0.99999 -0.05282 0.49999
 C273 C 1.05904 -0.05929 0.43172
 C274 C 1.05912 -0.05927 0.56827
 N275 N 1.03167 0.05223 0.53117
 N276 N 1.03486 0.06999 0.55414
 N277 N 1.05223 0.03166 0.46882
 N278 N 1.06999 0.03485 0.44586
 N279 N 1.03168 0.05223 0.46880
 N280 N 1.03490 0.06996 0.44581
 N281 N 1.05223 0.03167 0.53119
 N282 N 1.06997 0.03490 0.55418
 Mn283 Mn 0.99984 0.05265 0.49999
 Mn284 Mn 1.05265 -0.00017 0.50000
 Cl285 Cl 0.99992 -0.00009 0.50000
 C286 C 1.05890 0.05895 0.56827
 C287 C 1.05896 0.05889 0.43172
 C288 C 1.07013 0.10775 0.36453
 C289 C 1.09501 0.09463 0.35150
 C290 C 1.10800 0.06974 0.36465
 C291 C 1.09623 0.05806 0.39077
 C292 C 1.14077 0.13975 0.25440
 C293 C 1.05833 0.09609 0.39066
 C294 C 1.10736 0.10683 0.32479
 C295 C 1.11781 0.11712 0.30251
 C296 C 1.13015 0.12927 0.27652
 C297 C 1.07132 0.07117 0.40406
 H298 H 1.05990 0.12701 0.35454
 H299 H 1.12726 0.05941 0.35475
 H300 H 1.10665 0.03880 0.40057
 H301 H 1.03908 0.10660 0.40037
 C302 C 0.89193 -0.06976 0.36454
 C303 C 0.90494 -0.09463 0.35139
 C304 C 0.92980 -0.10777 0.36443
 C305 C 0.94158 -0.09615 0.39059
 C306 C 0.85932 -0.13962 0.25417
 C307 C 0.90366 -0.05812 0.39070
 C308 C 0.89263 -0.10678 0.32464
 C309 C 0.88221 -0.11704 0.30233
 C310 C 0.86990 -0.12916 0.27631
 C311 C 0.92856 -0.07126 0.40401
 H312 H 0.87268 -0.05942 0.35463
 H313 H 0.94005 -0.12701 0.35443
 H314 H 0.96081 -0.10667 0.40032
 H315 H 0.89324 -0.03888 0.40051
 C316 C 0.89165 0.06994 0.63535
 C317 C 0.90455 0.09479 0.64851
 C318 C 0.92938 0.10786 0.63548
 C319 C 0.94123 0.09620 0.60934
 C320 C 0.85867 0.13997 0.74561
 C321 C 0.90346 0.05825 0.60922
 C322 C 0.89217 0.10699 0.67522
 C323 C 0.88168 0.11729 0.69750
 C324 C 0.86931 0.12945 0.72350
 C325 C 0.92832 0.07132 0.59594
 H326 H 0.87244 0.05965 0.64525
 H327 H 0.93955 0.12710 0.64548
 H328 H 0.96043 0.10667 0.59963
 H329 H 0.89311 0.03903 0.59942
 C330 C 1.10816 -0.07037 0.63537
 C331 C 1.09521 -0.09522 0.64848
 C332 C 1.07035 -0.10822 0.63542
 C333 C 1.05854 -0.09649 0.60930
 C334 C 1.14096 -0.14069 0.74555
 C335 C 1.09638 -0.05861 0.60925
 C336 C 1.10756 -0.10750 0.67518
 C337 C 1.11800 -0.11787 0.69746
 C338 C 1.13034 -0.13012 0.72344
 C339 C 1.07150 -0.07161 0.59593
 H340 H 1.12739 -0.06013 0.64529
 H341 H 1.06015 -0.12745 0.64539
 H342 H 1.03932 -0.10691 0.59956
 H343 H 1.10676 -0.03939 0.59947
 C344 C 0.36432 1.06954 1.10855
 C345 C 0.35109 1.09440 1.09560
 C346 C 0.36406 1.10754 1.07073
 C347 C 0.39021 1.09594 1.05890
 C348 C 0.25394 1.13957 1.14136
 C349 C 0.39046 1.05789 1.09675
 C350 C 0.32436 1.10658 1.10798
 C351 C 0.30207 1.11687 1.11844
 C352 C 0.27606 1.12904 1.13077
 C353 C 0.40369 1.07104 1.07185
 H354 H 0.35446 1.05919 1.12780
 H355 H 0.35400 1.12680 1.06053
 H356 H 0.39987 1.10646 1.03966
 H357 H 0.40033 1.03866 1.10713
 C358 C 0.36550 0.89195 0.92971
 C359 C 0.35235 0.90503 0.90485
 C360 C 0.36532 0.92992 0.89185
 C361 C 0.39138 0.94167 0.90360
 C362 C 0.25543 0.85972 0.85931
 C363 C 0.39156 0.90367 0.94149
 C364 C 0.32570 0.89277 0.89255
 C365 C 0.30346 0.88243 0.88216
 C366 C 0.27751 0.87023 0.86989
 C367 C 0.40478 0.92860 0.92849
 H368 H 0.35564 0.87268 0.93995
 H369 H 0.35533 0.94022 0.87261
 H370 H 0.40104 0.96094 0.89318
 H371 H 0.40136 0.89320 0.96072
 C372 C 0.63598 0.89260 1.07056
 C373 C 0.64891 0.90564 1.09550
 C374 C 0.63562 0.93042 1.10855
 C375 C 0.60945 0.94206 1.09678
 C376 C 0.74616 0.86050 1.14110
 C377 C 0.60981 0.90420 1.05876
 C378 C 0.67566 0.89348 1.10784
 C379 C 0.69798 0.88319 1.11825
 C380 C 0.72401 0.87102 1.13054
 C381 C 0.59627 0.92901 1.07181
 H382 H 0.64609 0.87342 1.06028
 H383 H 0.64544 0.94070 1.12785
 H384 H 0.59954 0.96123 1.10724
 H385 H 0.60018 0.89375 1.03946
 C386 C 0.63505 1.07080 0.89247
 C387 C 0.64799 1.09566 0.90556
 C388 C 0.63480 1.10864 0.93043
 C389 C 0.60873 1.09688 0.94214
 C390 C 0.74494 1.14101 0.86011
 C391 C 0.60898 1.05900 0.90413
 C392 C 0.67465 1.10796 0.89332
 C393 C 0.69690 1.11832 0.88296
 C394 C 0.72285 1.13052 0.87069
 C395 C 0.59554 1.07198 0.92904
 H396 H 0.64507 1.06057 0.87321
 H397 H 0.64464 1.12789 0.94074
 H398 H 0.59890 1.10728 0.96138
 H399 H 0.59934 1.03976 0.89364
 C400 C 0.10780 0.36422 0.07005
 C401 C 0.09479 0.35127 0.09499
 C402 C 0.07000 0.36452 0.10806
 C403 C 0.05831 0.39067 0.09630
 C404 C 0.14013 0.25411 0.14056
 C405 C 0.09615 0.39037 0.05825
 C406 C 0.10701 0.32454 0.10731
 C407 C 0.11736 0.30224 0.11771
 C408 C 0.12959 0.27623 0.12999
 C409 C 0.07133 0.40388 0.07132
 H410 H 0.12699 0.35415 0.05976
 H411 H 0.05975 0.35468 0.12737
 H412 H 0.03913 0.40055 0.10677
 H413 H 0.10658 0.40002 0.03896
 C414 C -0.10851 0.36535 -0.06965
 C415 C -0.09562 0.35208 -0.09452
 C416 C -0.07077 0.36494 -0.10773
 C417 C -0.05890 0.39103 -0.09618
 C418 C -0.14143 0.25510 -0.13939
 C419 C -0.09668 0.39143 -0.05807
 C420 C -0.10802 0.32541 -0.10662
 C421 C -0.11849 0.30315 -0.11684
 C422 C -0.13083 0.27719 -0.12894
 C423 C -0.07180 0.40455 -0.07127
 H424 H -0.12774 0.35557 -0.05926
 H425 H -0.06062 0.35484 -0.12698
 H426 H -0.03968 0.40061 -0.10674
 H427 H -0.10701 0.40133 -0.03882
 C428 C 0.10831 0.63463 -0.07062
 C429 C 0.09525 0.64781 -0.09546
 C430 C 0.07036 0.63486 -0.10850
 C431 C 0.05860 0.60878 -0.09680
 C432 C 0.14061 0.74481 -0.14077
 C433 C 0.09659 0.60855 -0.05888
 C434 C 0.10751 0.67448 -0.10770
 C435 C 0.11787 0.69674 -0.11804
 C436 C 0.13010 0.72271 -0.13024
 C437 C 0.07166 0.59535 -0.07192
 H438 H 0.12757 0.64447 -0.06035
 H439 H 0.06007 0.64488 -0.12773
 H440 H 0.03934 0.59914 -0.10724
 H441 H 0.10705 0.59873 -0.03966
 C442 C -0.10738 0.63601 0.06996
 C443 C -0.09432 0.64904 0.09483
 C444 C -0.06946 0.63587 0.10787
 C445 C -0.05776 0.60972 0.09615
 C446 C -0.13983 0.74616 0.14026
 C447 C -0.09571 0.60986 0.05821
 C448 C -0.10657 0.67577 0.10711
 C449 C -0.11696 0.69806 0.11748
 C450 C -0.12924 0.72405 0.12971
 C451 C -0.07084 0.59642 0.07125
 H452 H -0.12662 0.64602 0.05969
 H453 H -0.05918 0.64578 0.12713
 H454 H -0.03854 0.59989 0.10660
 H455 H -0.10618 0.60014 0.03897
 C456 C 1.10775 0.07012 0.63546
 C457 C 1.09463 0.09501 0.64849
 C458 C 1.06975 0.10799 0.63534
 C459 C 1.05806 0.09623 0.60922
 C460 C 1.13976 0.14076 0.74559
 C461 C 1.09610 0.05832 0.60934
 C462 C 1.10684 0.10735 0.67520
 C463 C 1.11712 0.11780 0.69748
 C464 C 1.12927 0.13014 0.72348
 C465 C 1.07118 0.07132 0.59593
 H466 H 1.12702 0.05989 0.64546
 H467 H 1.05942 0.12725 0.64524
 H468 H 1.03881 0.10664 0.59942
 H469 H 1.10660 0.03907 0.59962
 C470 C 0.93024 -0.10808 0.63545
 C471 C 0.90538 -0.09507 0.64861
 C472 C 0.89224 -0.07020 0.63556
 C473 C 0.90385 -0.05843 0.60940
 C474 C 0.86038 -0.14069 0.74582
 C475 C 0.94188 -0.09634 0.60929
 C476 C 0.89322 -0.10738 0.67535
 C477 C 0.88296 -0.11780 0.69766
 C478 C 0.87085 -0.13011 0.72368
 C479 C 0.92875 -0.07145 0.59598
 H480 H 0.94059 -0.12733 0.64536
 H481 H 0.87299 -0.05996 0.64556
 H482 H 0.89333 -0.03920 0.59967
 H483 H 0.96112 -0.10677 0.59948
 C484 C 1.10787 -0.07062 0.36451
 C485 C 1.09480 -0.09545 0.35149
 C486 C 1.06995 -0.10835 0.36464
 C487 C 1.05826 -0.09655 0.39077
 C488 C 1.13997 -0.14133 0.25438
 C489 C 1.09621 -0.05878 0.39065
 C490 C 1.10700 -0.10784 0.32477
 C491 C 1.11730 -0.11832 0.30249
 C492 C 1.12946 -0.13070 0.27649
 C493 C 1.07133 -0.07169 0.40406
 H494 H 1.12711 -0.06046 0.35451
 H495 H 1.05965 -0.12757 0.35474
 H496 H 1.03903 -0.10690 0.40057
 H497 H 1.10668 -0.03957 0.40036
 C498 C 0.92964 0.10815 0.36463
 C499 C 0.90479 0.09520 0.35151
 C500 C 0.89179 0.07035 0.36457
 C501 C 0.90351 0.05854 0.39069
 C502 C 0.85932 0.14095 0.25445
 C503 C 0.94140 0.09638 0.39075
 C504 C 0.89251 0.10755 0.32481
 C505 C 0.88213 0.11800 0.30254
 C506 C 0.86988 0.13033 0.27655
 C507 C 0.92839 0.07150 0.40406
 H508 H 0.93988 0.12739 0.35470
 H509 H 0.87256 0.06015 0.35460
 H510 H 0.89310 0.03931 0.40043
 H511 H 0.96062 0.10676 0.40052
 C512 C 0.06954 0.36431 -0.10856
 C513 C 0.09441 0.35108 -0.09561
 C514 C 0.10755 0.36405 -0.07074
 C515 C 0.09594 0.39020 -0.05890
 C516 C 0.13958 0.25393 -0.14137
 C517 C 0.05790 0.39046 -0.09676
 C518 C 0.10658 0.32436 -0.10799
 C519 C 0.11688 0.30206 -0.11845
 C520 C 0.12905 0.27606 -0.13077
 C521 C 0.07105 0.40369 -0.07186
 H522 H 0.05919 0.35446 -0.12781
 H523 H 0.12680 0.35400 -0.06054
 H524 H 0.10647 0.39987 -0.03967
 H525 H 0.03866 0.40032 -0.10714
 C526 C -0.07007 0.36532 0.10814
 C527 C -0.09497 0.35235 0.09514
 C528 C -0.10804 0.36549 0.07028
 C529 C -0.09633 0.39155 0.05850
 C530 C -0.14028 0.25542 0.14068
 C531 C -0.05833 0.39137 0.09639
 C532 C -0.10723 0.32569 0.10744
 C533 C -0.11757 0.30345 0.11783
 C534 C -0.12977 0.27750 0.13010
 C535 C -0.07140 0.40477 0.07150
 H536 H -0.05978 0.35532 0.12738
 H537 H -0.12731 0.35563 0.06004
 H538 H -0.10680 0.40135 0.03926
 H539 H -0.03906 0.40104 0.10681
 C540 C -0.06957 0.63561 -0.10856
 C541 C -0.09435 0.64890 -0.09551
 C542 C -0.10740 0.63597 -0.07057
 C543 C -0.09579 0.60981 -0.05876
 C544 C -0.13949 0.74616 -0.14111
 C545 C -0.05793 0.60945 -0.09679
 C546 C -0.10652 0.67565 -0.10785
 C547 C -0.11681 0.69797 -0.11826
 C548 C -0.12898 0.72401 -0.13055
 C549 C -0.07099 0.59626 -0.07182
 H550 H -0.05930 0.64543 -0.12786
 H551 H -0.12658 0.64608 -0.06029
 H552 H -0.10625 0.60018 -0.03947
 H553 H -0.03876 0.59953 -0.10724
 C554 C 0.07080 0.63504 0.10753
 C555 C 0.09566 0.64798 0.09444
 C556 C 0.10865 0.63480 0.06956
 C557 C 0.09688 0.60872 0.05786
 C558 C 0.14102 0.74493 0.13989
 C559 C 0.05900 0.60897 0.09586
 C560 C 0.10797 0.67464 0.10667
 C561 C 0.11832 0.69689 0.11704
 C562 C 0.13052 0.72284 0.12931
 C563 C 0.07198 0.59553 0.07095
 H564 H 0.06057 0.64506 0.12678
 H565 H 0.12789 0.64463 0.05925
 H566 H 0.10728 0.59889 0.03861
 H567 H 0.03977 0.59933 0.10635
 C568 C 0.36453 1.06999 0.89193
 C569 C 0.35128 1.09478 0.90500
 C570 C 0.36423 1.10780 0.92994
 C571 C 0.39038 1.09614 0.94174
 C572 C 0.25412 1.14013 0.85943
 C573 C 0.39068 1.05830 0.90369
 C574 C 0.32455 1.10701 0.89268
 C575 C 0.30225 1.11735 0.88228
 C576 C 0.27624 1.12958 0.87000
 C577 C 0.40388 1.07133 0.92867
 H578 H 0.35469 1.05975 0.87262
 H579 H 0.35415 1.12699 0.94023
 H580 H 0.40002 1.10657 0.96103
 H581 H 0.40056 1.03913 0.89322
 C582 C 0.36494 0.92922 1.10772
 C583 C 0.35208 0.90438 1.09451
 C584 C 0.36535 0.89148 1.06964
 C585 C 0.39144 0.90332 1.05806
 C586 C 0.25511 0.85856 1.13938
 C587 C 0.39103 0.94109 1.09617
 C588 C 0.32541 0.89198 1.10661
 C589 C 0.30315 0.88151 1.11683
 C590 C 0.27719 0.86916 1.12893
 C591 C 0.40456 0.92820 1.07126
 H592 H 0.35485 0.93938 1.12697
 H593 H 0.35558 0.87225 1.05925
 H594 H 0.40134 0.89298 1.03881
 H595 H 0.40061 0.96031 1.10673
 C596 C 0.63487 1.07035 1.10849
 C597 C 0.64782 1.09524 1.09546
 C598 C 0.63464 1.10830 1.07061
 C599 C 0.60856 1.09658 1.05888
 C600 C 0.74481 1.14061 1.14076
 C601 C 0.60879 1.05860 1.09679
 C602 C 0.67449 1.10751 1.10770
 C603 C 0.69675 1.11786 1.11803
 C604 C 0.72272 1.13009 1.13024
 C605 C 0.59536 1.07165 1.07191
 H606 H 0.64489 1.06007 1.12772
 H607 H 0.64448 1.12756 1.06034
 H608 H 0.59873 1.10704 1.03965
 H609 H 0.59914 1.03934 1.10723
 C610 C 0.63588 0.93053 0.89212
 C611 C 0.64905 0.90568 0.90516
 C612 C 0.63602 0.89262 0.93004
 C613 C 0.60986 0.90428 0.94179
 C614 C 0.74617 0.86017 0.85973
 C615 C 0.60972 0.94223 0.90384
 C616 C 0.67577 0.89342 0.89288
 C617 C 0.69807 0.88304 0.88251
 C618 C 0.72406 0.87076 0.87028
 C619 C 0.59643 0.92916 0.92874
 H620 H 0.64579 0.94082 0.87287
 H621 H 0.64603 0.87338 0.94030
 H622 H 0.60015 0.89381 0.96103
 H623 H 0.59990 0.96146 0.89339
   
