data_POSCAR
  _audit_creation_date              2014-09-24
  _audit_creation_method            'ToBaCCo'
  _symmetry_space_group_name_H-M    'P1'
  _symmetry_Int_Tables_number       1
  _symmetry_cell_setting            triclinic
  loop_
  _symmetry_equiv_pos_as_xyz
 x,y,z
_cell_length_a 30.8368
_cell_length_b 31.2930
_cell_length_c 28.7375
_cell_angle_alpha 88.483600
_cell_angle_beta 89.776700
_cell_angle_gamma 88.688500
loop_
  _atom_site_label
  _atom_site_type_symbol
  _atom_site_fract_x
  _atom_site_fract_y
  _atom_site_fract_z
C1 C 0.32033 0.29849 0.22440
 H2 H 0.32349 0.29729 0.26190
 C3 C 0.34796 0.32384 0.19745
 H4 H 0.37265 0.34152 0.21473
 C5 C 0.28547 0.27480 0.15675
 H6 H 0.26157 0.25512 0.14097
 C7 C 0.31248 0.29962 0.12845
 H8 H 0.30881 0.29913 0.09100
 N9 N 0.28943 0.27515 0.20385
 C10 C 0.18957 0.25713 0.30979
 H11 H 0.18733 0.22266 0.31026
 C12 C 0.16242 0.28141 0.33829
 H13 H 0.13930 0.26537 0.36079
 C14 C 0.22218 0.31980 0.27946
 H15 H 0.24521 0.33472 0.25618
 C16 C 0.19569 0.34534 0.30742
 H17 H 0.19998 0.37950 0.30577
 Zn18 Zn 0.25390 0.24133 0.24318
 N19 N 0.21896 0.27652 0.28143
 C20 C 0.29058 0.20709 0.32717
 N21 N 0.29128 0.20564 0.27992
 C22 C 0.32061 0.18048 0.25738
 C23 C 0.35029 0.15477 0.28254
 C24 C 0.31963 0.18185 0.35372
 C25 C 0.18527 0.22980 0.18201
 C26 C 0.15551 0.20746 0.15611
 C27 C 0.18905 0.14124 0.18421
 C28 C 0.21817 0.16490 0.20964
 N29 N 0.21608 0.20838 0.20770
 H30 H 0.26806 0.22839 0.34442
 H31 H 0.32108 0.18065 0.21973
 H32 H 0.37345 0.13491 0.26402
 H33 H 0.31901 0.18453 0.39115
 H34 H 0.18379 0.26439 0.18182
 H35 H 0.13123 0.22509 0.13578
 H36 H 0.19092 0.10676 0.18733
 H37 H 0.24197 0.14842 0.23143
 C38 C 0.16501 0.32613 0.33721
 C39 C 0.34380 0.32502 0.14871
 C40 C 0.15736 0.16262 0.15657
 C41 C 0.34982 0.15489 0.33133
 C42 C 0.80344 0.81400 0.22899
 H43 H 0.80563 0.81528 0.26650
 C44 C 0.83036 0.83926 0.20095
 H45 H 0.85245 0.85974 0.21829
 C46 C 0.77140 0.78482 0.16261
 H47 H 0.74896 0.76307 0.14770
 C48 C 0.79760 0.80944 0.13324
 H49 H 0.79438 0.80642 0.09593
 N50 N 0.77438 0.78784 0.20957
 C51 C 0.67355 0.76769 0.31434
 H52 H 0.67277 0.73314 0.31478
 C53 C 0.64513 0.79083 0.34257
 H54 H 0.62253 0.77387 0.36486
 C55 C 0.70373 0.83171 0.28426
 H56 H 0.72601 0.84754 0.26082
 C57 C 0.67591 0.85614 0.31202
 H58 H 0.67709 0.89062 0.30906
 Zn59 Zn 0.73969 0.75378 0.24983
 N60 N 0.70254 0.78828 0.28650
 C61 C 0.77566 0.72367 0.33572
 N62 N 0.77752 0.72045 0.28865
 C63 C 0.80752 0.69455 0.26810
 C64 C 0.83630 0.66943 0.29518
 C65 C 0.80383 0.69922 0.36411
 C66 C 0.67315 0.73788 0.18752
 C67 C 0.64526 0.71373 0.16123
 C68 C 0.67995 0.64947 0.19301
 C69 C 0.70726 0.67491 0.21866
 N70 N 0.70383 0.71828 0.21496
 H71 H 0.75252 0.74536 0.35145
 H72 H 0.80904 0.69345 0.23052
 H73 H 0.86018 0.64968 0.27774
 H74 H 0.80172 0.70201 0.40155
 H75 H 0.67052 0.77242 0.18597
 H76 H 0.62129 0.72999 0.13925
 H77 H 0.68318 0.61516 0.19738
 H78 H 0.73085 0.65988 0.24184
 C79 C 0.64652 0.83558 0.34224
 C80 C 0.82774 0.83729 0.15199
 C81 C 0.64866 0.66894 0.16328
 C82 C 0.83423 0.67119 0.34403
 C83 C 0.83270 0.28950 0.71096
 H84 H 0.84859 0.26512 0.73250
 C85 C 0.85774 0.31746 0.68402
 H86 H 0.89260 0.31383 0.68584
 C87 C 0.76808 0.32495 0.68541
 H88 H 0.73307 0.32788 0.68661
 C89 C 0.79181 0.35349 0.65784
 H90 H 0.77474 0.37823 0.63764
 N91 N 0.78868 0.29328 0.71063
 C92 C 0.67651 0.29100 0.78656
 H93 H 0.66004 0.27010 0.76351
 C94 C 0.65219 0.31803 0.81504
 H95 H 0.61722 0.31639 0.81430
 C96 C 0.74202 0.31782 0.81568
 H97 H 0.77711 0.31774 0.81533
 C98 C 0.71900 0.34524 0.84486
 H99 H 0.73658 0.36612 0.86718
 Zn100 Zn 0.75409 0.25634 0.74759
 N101 N 0.72060 0.29118 0.78758
 C102 C 0.78919 0.21603 0.82960
 N103 N 0.78939 0.21681 0.78231
 C104 C 0.81379 0.18824 0.75821
 C105 C 0.84023 0.15803 0.78165
 C106 C 0.81511 0.18634 0.85462
 C107 C 0.69302 0.19395 0.73115
 C108 C 0.66545 0.16901 0.70529
 C109 C 0.68896 0.20665 0.63552
 C110 C 0.71630 0.23067 0.66268
 N111 N 0.71746 0.22430 0.70967
 H112 H 0.76875 0.23832 0.84819
 H113 H 0.81280 0.18909 0.72057
 H114 H 0.85954 0.13595 0.76124
 H115 H 0.81370 0.18767 0.89204
 H116 H 0.69475 0.18940 0.76855
 H117 H 0.64552 0.14586 0.72338
 H118 H 0.68815 0.21231 0.59818
 H119 H 0.73656 0.25428 0.64605
 C120 C 0.67352 0.34595 0.84446
 C121 C 0.83722 0.34976 0.65640
 C122 C 0.66336 0.17517 0.65671
 C123 C 0.84158 0.15653 0.83071
 C124 C 0.30692 0.80448 0.72988
 H125 H 0.31004 0.80200 0.76735
 C126 C 0.33515 0.83004 0.70392
 H127 H 0.36010 0.84650 0.72215
 C128 C 0.27187 0.78345 0.66125
 H129 H 0.24779 0.76460 0.64463
 C130 C 0.29938 0.80864 0.63393
 H131 H 0.29577 0.80929 0.59643
 N132 N 0.27578 0.78220 0.70838
 C133 C 0.17600 0.75944 0.81382
 H134 H 0.17399 0.72501 0.81274
 C135 C 0.14888 0.78241 0.84365
 H136 H 0.12605 0.76540 0.86563
 C137 C 0.20806 0.82338 0.78622
 H138 H 0.23098 0.83930 0.76360
 C139 C 0.18152 0.84762 0.81547
 H140 H 0.18556 0.88183 0.81558
 Zn141 Zn 0.24047 0.74675 0.74628
 N142 N 0.20515 0.78008 0.78621
 C143 C 0.27673 0.70759 0.82845
 N144 N 0.27826 0.70980 0.78115
 C145 C 0.30789 0.68632 0.75699
 C146 C 0.33696 0.65857 0.78037
 C147 C 0.30523 0.68022 0.85328
 C148 C 0.17238 0.73587 0.68348
 C149 C 0.14415 0.71351 0.65561
 C150 C 0.17911 0.64750 0.68218
 C151 C 0.20659 0.67110 0.70958
 N152 N 0.20328 0.71453 0.70916
 H153 H 0.25339 0.72692 0.84710
 H154 H 0.30873 0.68907 0.71939
 H155 H 0.36012 0.63990 0.76048
 H156 H 0.30226 0.67833 0.89074
 H157 H 0.16984 0.77038 0.68454
 H158 H 0.11994 0.73102 0.63508
 H159 H 0.18200 0.61299 0.68395
 H160 H 0.23025 0.65456 0.73146
 C161 C 0.15115 0.82710 0.84457
 C162 C 0.33130 0.83268 0.65513
 C163 C 0.14776 0.66881 0.65411
 C164 C 0.33609 0.65534 0.82913
 C165 C 0.03567 0.07455 0.03665
 H166 H 0.01165 0.09123 0.01534
 C167 C 0.06539 0.09801 0.06147
 H168 H 0.06366 0.13250 0.05830
 C169 C 0.06865 0.00946 0.06356
 H170 H 0.06989 -0.02513 0.06374
 C171 C 0.09898 0.03163 0.08893
 H172 H 0.12346 0.01386 0.10884
 N173 N 0.03739 0.03107 0.03866
 C174 C 0.02865 -0.07909 -0.03505
 H175 H 0.00666 -0.09467 -0.01108
 C176 C 0.05435 -0.10380 -0.06470
 H177 H 0.05059 -0.13806 -0.06369
 C178 C 0.05942 -0.01552 -0.06548
 H179 H 0.06135 0.01895 -0.06528
 C180 C 0.08565 -0.03894 -0.09573
 H181 H 0.10768 -0.02222 -0.11891
 Zn182 Zn -0.00204 -0.00129 0.00440
 N183 N 0.03136 -0.03574 -0.03622
 C184 C -0.04118 0.03601 -0.07713
 N185 N -0.04055 0.03555 -0.02984
 C186 C -0.06816 0.06093 -0.00536
 C187 C -0.09697 0.08917 -0.02845
 C188 C -0.06947 0.06376 -0.10176
 C189 C -0.06746 -0.05928 0.02598
 C190 C -0.09410 -0.08467 0.05415
 C191 C -0.05638 -0.05992 0.12146
 C192 C -0.03050 -0.03508 0.09193
 N193 N -0.03608 -0.03559 0.04507
 H194 H -0.01973 0.01487 -0.09601
 H195 H -0.06746 0.05947 0.03229
 H196 H -0.11824 0.10935 -0.00794
 H197 H -0.06816 0.06302 -0.13922
 H198 H -0.07179 -0.05839 -0.01139
 H199 H -0.11849 -0.10268 0.03703
 H200 H -0.05108 -0.05898 0.15868
 H201 H -0.00622 -0.01518 0.10666
 C202 C 0.08364 -0.08368 -0.09544
 C203 C 0.09731 0.07647 0.08865
 C204 C -0.08870 -0.08552 0.10296
 C205 C -0.09794 0.09133 -0.07743
 C206 C 0.03491 0.57696 0.52722
 H207 H 0.00834 0.59214 0.50840
 C208 C 0.06163 0.60194 0.55410
 H209 H 0.05490 0.63595 0.55496
 C210 C 0.07733 0.51498 0.54609
 H211 H 0.08425 0.48136 0.54162
 C212 C 0.10486 0.53871 0.57327
 H213 H 0.13222 0.52277 0.59040
 N214 N 0.04258 0.53409 0.52442
 C215 C 0.03710 0.42292 0.44709
 H216 H 0.01081 0.40814 0.46602
 C217 C 0.06411 0.39807 0.41898
 H218 H 0.05766 0.36441 0.41633
 C219 C 0.07553 0.48526 0.42586
 H220 H 0.07957 0.51933 0.42875
 C221 C 0.10321 0.46165 0.39725
 H222 H 0.12868 0.47775 0.37810
 Zn223 Zn 0.00675 0.49918 0.48815
 N224 N 0.04332 0.46564 0.45007
 C225 C -0.02832 0.53105 0.40279
 N226 N -0.03114 0.53357 0.44990
 C227 C -0.06130 0.55960 0.47010
 C228 C -0.08954 0.58504 0.44273
 C229 C -0.05594 0.55586 0.37412
 C230 C -0.00503 0.43670 0.55963
 C231 C -0.02796 0.40851 0.58840
 C232 C -0.09426 0.43310 0.55107
 C233 C -0.07001 0.46071 0.52281
 N234 N -0.02620 0.46237 0.52777
 H235 H -0.00479 0.50964 0.38725
 H236 H -0.06366 0.56030 0.50765
 H237 H -0.11372 0.60464 0.45991
 H238 H -0.05314 0.55348 0.33668
 H239 H 0.02979 0.43745 0.56233
 H240 H -0.01047 0.38819 0.61339
 H241 H -0.12885 0.43174 0.54548
 H242 H -0.08627 0.48007 0.49627
 C243 C 0.09802 0.41743 0.39389
 C244 C 0.09689 0.58264 0.57819
 C245 C -0.07317 0.40675 0.58473
 C246 C -0.08668 0.58370 0.39390
 C247 C 0.53560 0.07995 0.55259
 H248 H 0.51200 0.09508 0.52946
 C249 C 0.56205 0.10528 0.57934
 H250 H 0.55764 0.13967 0.57715
 C251 C 0.56948 0.01690 0.58391
 H252 H 0.57252 -0.01762 0.58502
 C253 C 0.59633 0.04097 0.61153
 H254 H 0.61981 0.02478 0.63416
 N255 N 0.53957 0.03657 0.55545
 C256 C 0.52358 -0.06294 0.45365
 H257 H 0.48951 -0.06962 0.45629
 C258 C 0.54976 -0.08672 0.42360
 H259 H 0.53498 -0.11109 0.40337
 C260 C 0.58325 -0.02127 0.47449
 H261 H 0.59610 0.00493 0.49343
 C262 C 0.61057 -0.04421 0.44487
 H263 H 0.64437 -0.03580 0.44194
 Zn264 Zn 0.50426 0.00224 0.51810
 N265 N 0.54063 -0.03112 0.47871
 C266 C 0.47183 0.03981 0.43414
 N267 N 0.46682 0.03746 0.48115
 C268 C 0.43404 0.05902 0.50270
 C269 C 0.40471 0.08442 0.47674
 C270 C 0.44317 0.06478 0.40679
 C271 C 0.43581 -0.05368 0.53547
 C272 C 0.40768 -0.07913 0.56172
 C273 C 0.44692 -0.06137 0.63082
 C274 C 0.47429 -0.03627 0.60324
 N275 N 0.46884 -0.03342 0.55627
 H276 H 0.49793 0.02211 0.41772
 H277 H 0.43061 0.05624 0.54013
 H278 H 0.37876 0.10134 0.49452
 H279 H 0.44757 0.06505 0.36948
 H280 H 0.43038 -0.04905 0.49854
 H281 H 0.38116 -0.09387 0.54419
 H282 H 0.45184 -0.06330 0.66813
 H283 H 0.49942 -0.01875 0.61971
 C284 C 0.59409 -0.07768 0.41929
 C285 C 0.59311 0.08570 0.60913
 C286 C 0.41342 -0.08362 0.61014
 C287 C 0.40908 0.08779 0.42816
 C288 C 0.54157 0.57599 0.03313
 H289 H 0.52276 0.59179 0.00579
 C290 C 0.56875 0.59989 0.06056
 H291 H 0.57080 0.63386 0.05328
 C292 C 0.56322 0.51213 0.07366
 H293 H 0.56085 0.47785 0.07834
 C294 C 0.59093 0.53479 0.10182
 H295 H 0.60991 0.51774 0.12829
 N296 N 0.53927 0.53297 0.04014
 C297 C 0.51546 0.44504 -0.07188
 H298 H 0.48040 0.44593 -0.07349
 C299 C 0.53925 0.41948 -0.10230
 H300 H 0.52225 0.40063 -0.12718
 C301 C 0.58009 0.46867 -0.03764
 H302 H 0.59596 0.48822 -0.01274
 C303 C 0.60517 0.44353 -0.06741
 H304 H 0.64009 0.44486 -0.06514
 Zn305 Zn 0.50230 0.50114 0.00264
 N306 N 0.53603 0.46846 -0.03980
 C307 C 0.46795 0.54453 -0.07776
 N308 N 0.46414 0.53947 -0.03074
 C309 C 0.43407 0.56250 -0.00662
 C310 C 0.40573 0.59112 -0.02982
 C311 C 0.44016 0.57277 -0.10239
 C312 C 0.46602 0.42205 0.03288
 C313 C 0.44109 0.39545 0.06150
 C314 C 0.42581 0.45532 0.11067
 C315 C 0.45094 0.48083 0.08102
 N316 N 0.46966 0.46421 0.04233
 H317 H 0.49302 0.52728 -0.09628
 H318 H 0.43217 0.55903 0.03074
 H319 H 0.38195 0.60907 -0.00996
 H320 H 0.44466 0.57672 -0.13957
 H321 H 0.48243 0.40869 0.00328
 H322 H 0.43920 0.36200 0.05335
 H323 H 0.41083 0.46921 0.14108
 H324 H 0.45589 0.51384 0.08924
 C325 C 0.58466 0.41781 -0.09977
 C326 C 0.59362 0.57928 0.09582
 C327 C 0.41986 0.41230 0.10053
 C328 C 0.40811 0.59616 -0.07834
 C329 C 0.12238 -0.14934 -0.12289
 C330 C 0.11189 -0.10761 -0.12817
 H331 H 0.10932 -0.16761 -0.09384
 H332 H 0.12487 -0.08950 -0.15740
 C333 C 0.13578 0.35099 0.36814
 C334 C 0.12747 0.39313 0.36282
 H335 H 0.12034 0.33333 0.39626
 H336 H 0.14303 0.41124 0.33518
 C337 C 0.61622 -0.14059 0.37282
 C338 C 0.62368 -0.10112 0.38756
 H339 H 0.58814 -0.15741 0.38564
 H340 H 0.65379 -0.08594 0.37819
 C341 C 0.64978 0.37514 -0.12402
 C342 C 0.60901 0.38948 -0.13176
 H343 H 0.66708 0.38518 -0.09369
 H344 H 0.59198 0.37949 -0.16231
 C345 C -0.13187 0.12696 -0.14788
 C346 C -0.12693 0.12105 -0.09937
 H347 H -0.11310 0.10647 -0.17033
 H348 H -0.14632 0.14040 -0.07635
 C349 C -0.13634 0.64559 0.37517
 C350 C -0.11579 0.60943 0.36255
 H351 H -0.13227 0.65700 0.41005
 H352 H -0.11976 0.59802 0.32767
 C353 C 0.38229 0.12799 0.35724
 C354 C 0.37687 0.11459 0.40160
 H355 H 0.41122 0.11876 0.33834
 H356 H 0.34749 0.12365 0.41992
 C357 C 0.36696 0.62499 -0.14710
 C358 C 0.37767 0.62695 -0.10200
 H359 H 0.38144 0.60027 -0.16813
 H360 H 0.36319 0.65149 -0.08077
 C361 C -0.14645 -0.13841 0.12093
 C362 C -0.11406 -0.11022 0.13409
 H363 H -0.15225 -0.14265 0.08436
 H364 H -0.10718 -0.10712 0.17061
 C365 C -0.13861 0.38063 0.62654
 C366 C -0.09661 0.37578 0.61493
 H367 H -0.15666 0.40844 0.61342
 H368 H -0.07789 0.34859 0.62826
 C369 C 0.36047 -0.14141 0.62503
 C370 C 0.38431 -0.10935 0.64043
 H371 H 0.36183 -0.14922 0.58860
 H372 H 0.38326 -0.10151 0.67682
 C373 C 0.37220 0.35098 0.11795
 C374 C 0.39248 0.38587 0.13191
 H375 H 0.37438 0.34214 0.08184
 H376 H 0.38698 0.39719 0.16674
 C377 C 0.12477 0.13977 0.12933
 C378 C 0.13005 0.09923 0.11581
 H379 H 0.09556 0.15764 0.11989
 H380 H 0.15925 0.08133 0.12529
 C381 C 0.11753 0.64562 0.62431
 C382 C 0.12681 0.60684 0.60747
 H383 H 0.08707 0.66168 0.61578
 H384 H 0.15767 0.59141 0.61580
 C385 C 0.63413 0.15042 0.62740
 C386 C 0.62170 0.11072 0.63887
 H387 H 0.62459 0.16465 0.59414
 H388 H 0.63478 0.09481 0.66983
 C389 C 0.61850 0.64437 0.13463
 C390 C 0.62373 0.60269 0.12557
 H391 H 0.59094 0.66196 0.12000
 H392 H 0.65058 0.58439 0.14056
   
