data_POSCAR
  _audit_creation_date              2014-09-24
  _audit_creation_method            'ToBaCCo'
  _symmetry_space_group_name_H-M    'P1'
  _symmetry_Int_Tables_number       1
  _symmetry_cell_setting            triclinic
  loop_
  _symmetry_equiv_pos_as_xyz
 x,y,z
_cell_length_a 56.5956
_cell_length_b 56.5942
_cell_length_c 23.5436
_cell_angle_alpha 90.030000
_cell_angle_beta 89.973200
_cell_angle_gamma 119.926200
loop_
  _atom_site_label
  _atom_site_type_symbol
  _atom_site_fract_x
  _atom_site_fract_y
  _atom_site_fract_z
C1 C 0.16655 0.46200 0.49837
 C2 C 0.18073 0.46535 0.44780
 C3 C 0.20555 0.46548 0.44834
 C4 C 0.21588 0.46082 0.49936
 C5 C 0.20064 0.45671 0.54986
 C6 C 0.17662 0.45811 0.54944
 C7 C 0.24246 0.46073 0.50008
 C8 C 0.25727 0.46502 0.55125
 C9 C 0.28182 0.46468 0.55182
 C10 C 0.29275 0.46150 0.50128
 C11 C 0.27902 0.45800 0.45011
 C12 C 0.25371 0.45682 0.44952
 H13 H 0.14772 0.46272 0.49806
 H14 H 0.21667 0.46963 0.40885
 H15 H 0.20713 0.45246 0.58983
 H16 H 0.25030 0.46903 0.59088
 H17 H 0.31220 0.46206 0.50168
 H18 H 0.24321 0.45291 0.40934
 C19 C 0.53565 -0.29677 0.49758
 C20 C 0.53276 -0.28563 0.44703
 C21 C 0.53285 -0.26083 0.44776
 C22 C 0.53733 -0.24602 0.49899
 C23 C 0.54095 -0.25747 0.54952
 C24 C 0.53931 -0.28301 0.54886
 C25 C 0.53778 -0.21917 0.49980
 C26 C 0.53332 -0.20867 0.55084
 C27 C 0.53395 -0.18363 0.55141
 C28 C 0.53763 -0.16934 0.50095
 C29 C 0.54135 -0.17953 0.44992
 C30 C 0.54223 -0.20382 0.44938
 H31 H 0.53479 -0.31638 0.49708
 H32 H 0.52906 -0.25363 0.40822
 H33 H 0.54502 -0.24689 0.58967
 H34 H 0.52894 -0.21977 0.59035
 H35 H 0.53728 -0.15034 0.50131
 H36 H 0.54634 -0.21037 0.40932
 C37 C 1.29580 0.83172 0.50085
 C38 C 1.28533 0.81784 0.44985
 C39 C 1.26069 0.79303 0.44953
 C40 C 1.24541 0.78242 0.50012
 C41 C 1.25620 0.79734 0.55106
 C42 C 1.28154 0.82135 0.55145
 C43 C 1.21876 0.75590 0.49988
 C44 C 1.20806 0.74064 0.55046
 C45 C 1.18314 0.71610 0.55012
 C46 C 1.16924 0.70572 0.49912
 C47 C 1.17969 0.71995 0.44854
 C48 C 1.20382 0.74520 0.44894
 H49 H 1.31528 0.85055 0.50136
 H50 H 1.25396 0.78215 0.40974
 H51 H 1.24528 0.79064 0.59079
 H52 H 1.21895 0.74729 0.59024
 H53 H 1.15032 0.68631 0.49859
 H54 H 1.21058 0.75611 0.40923
 C55 C 0.83180 0.53879 0.49618
 C56 C 0.81760 0.53575 0.44589
 C57 C 0.79265 0.53533 0.44710
 C58 C 0.78221 0.53941 0.49868
 C59 C 0.79748 0.54319 0.54892
 C60 C 0.82164 0.54208 0.54767
 C61 C 0.75554 0.53934 0.50017
 C62 C 0.74078 0.53481 0.55156
 C63 C 0.71611 0.53501 0.55263
 C64 C 0.70511 0.53831 0.50227
 C65 C 0.71885 0.54208 0.45102
 C66 C 0.74421 0.54341 0.45001
 H67 H 0.85072 0.53829 0.49533
 H68 H 0.78161 0.53144 0.40762
 H69 H 0.79098 0.54694 0.58938
 H70 H 0.74789 0.53072 0.59090
 H71 H 0.68559 0.53763 0.50276
 H72 H 0.75466 0.54754 0.40973
 C73 C 0.46285 0.29404 0.50013
 C74 C 0.46616 0.28295 0.44995
 C75 C 0.46652 0.25840 0.45121
 C76 C 0.46210 0.24375 0.50270
 C77 C 0.45801 0.25514 0.55281
 C78 C 0.45920 0.28046 0.55160
 C79 C 0.46212 0.21713 0.50426
 C80 C 0.46631 0.20677 0.55582
 C81 C 0.46598 0.18185 0.55701
 C82 C 0.46294 0.16763 0.50664
 C83 C 0.45954 0.17773 0.45522
 C84 C 0.45832 0.20182 0.45404
 H85 H 0.46340 0.31350 0.49910
 H86 H 0.47062 0.25131 0.41186
 H87 H 0.45393 0.24470 0.59311
 H88 H 0.47022 0.21791 0.59521
 H89 H 0.46351 0.14873 0.50727
 H90 H 0.45447 0.20825 0.41362
 C91 C 0.70604 0.16970 0.50052
 C92 C 0.72016 0.18009 0.44980
 C93 C 0.74538 0.20428 0.45002
 C94 C 0.75614 0.21929 0.50092
 C95 C 0.74096 0.20859 0.55157
 C96 C 0.71649 0.18367 0.55136
 C97 C 0.78259 0.24601 0.50107
 C98 C 0.79752 0.25699 0.55197
 C99 C 0.82148 0.28245 0.55213
 C100 C 0.83170 0.29658 0.50130
 C101 C 0.81779 0.28589 0.45050
 C102 C 0.79310 0.26120 0.45039
 H103 H 0.68666 0.15076 0.50034
 H104 H 0.75622 0.21103 0.41021
 H105 H 0.74758 0.21944 0.59138
 H106 H 0.79086 0.24608 0.59173
 H107 H 0.85047 0.31613 0.50122
 H108 H 0.78228 0.25439 0.41059
 N109 N 0.97226 0.52967 0.05855
 N110 N 0.95338 0.53632 0.06958
 N111 N 1.02967 0.54179 0.09732
 N112 N 1.04762 0.55583 0.13717
 N113 N 1.02963 0.55813 0.05775
 N114 N 1.04755 0.58379 0.06983
 N115 N 0.97240 0.51336 0.09804
 N116 N 0.95367 0.50838 0.13679
 C117 C 0.94179 0.52250 0.11810
 C118 C 1.05889 0.58185 0.11891
 N119 N 1.02921 0.47374 0.06142
 N120 N 1.04794 0.46705 0.07354
 N121 N 0.97214 0.46252 0.10029
 N122 N 0.95336 0.44953 0.13935
 N123 N 0.97181 0.44539 0.06223
 N124 N 0.95275 0.42017 0.07453
 N125 N 1.02942 0.49086 0.09938
 N126 N 1.04826 0.49635 0.13815
 Mn127 Mn 1.00092 0.50213 0.09917
 C128 C 1.05985 0.48171 0.12100
 C129 C 0.94125 0.42329 0.12228
 N130 N 1.02931 0.55682 -0.06500
 N131 N 1.04833 0.58205 -0.07739
 N132 N 0.97172 0.51152 -0.10235
 N133 N 0.95373 0.50717 -0.14245
 N134 N 0.97200 0.52860 -0.06418
 N135 N 0.95420 0.53636 -0.07742
 N136 N 1.02900 0.53968 -0.10306
 N137 N 1.04776 0.55269 -0.14217
 Mn138 Mn 1.00080 0.54357 -0.00325
 C139 C 1.05983 0.57894 -0.12516
 C140 C 0.94269 0.52239 -0.12573
 N141 N 0.97139 0.44404 -0.06053
 N142 N 0.95347 0.41838 -0.07264
 N143 N 1.02861 0.48863 -0.10100
 N144 N 1.04625 0.49219 -0.14135
 N145 N 1.02867 0.47233 -0.06136
 N146 N 1.04636 0.46430 -0.07388
 N147 N 0.97134 0.46039 -0.10009
 N148 N 0.95339 0.44634 -0.13995
 Mn149 Mn 1.00027 0.45861 0.00050
 Mn150 Mn 1.00016 0.50006 -0.10204
 Cl151 Cl 1.00054 0.50109 -0.00144
 C152 C 0.94212 0.42032 -0.12172
 C153 C 1.05744 0.47731 -0.12333
 N154 N 0.47179 0.44277 0.06143
 N155 N 0.46543 0.41742 0.07330
 N156 N 0.45929 0.48784 0.09995
 N157 N 0.44549 0.49192 0.14017
 N158 N 0.44269 0.47108 0.06120
 N159 N 0.41709 0.46326 0.07418
 N160 N 0.48845 0.45964 0.09999
 N161 N 0.49393 0.44634 0.13892
 C162 C 0.47979 0.42018 0.12128
 C163 C 0.41933 0.47686 0.12296
 N164 N 0.52639 0.55552 0.06016
 N165 N 0.53278 0.58092 0.07154
 N166 N 0.53898 0.51066 0.09955
 N167 N 0.55288 0.50682 0.13985
 N168 N 0.55549 0.52723 0.06046
 N169 N 0.58112 0.53516 0.07327
 N170 N 0.50983 0.53884 0.09908
 N171 N 0.50444 0.55232 0.13776
 Mn172 Mn 0.49914 0.49925 0.10006
 C173 C 0.51853 0.57838 0.11958
 C174 C 0.57900 0.52180 0.12232
 N175 N 0.44260 0.47099 -0.06156
 N176 N 0.41715 0.46446 -0.07285
 N177 N 0.48798 0.45904 -0.10044
 N178 N 0.49210 0.44523 -0.14055
 N179 N 0.47146 0.44246 -0.06134
 N180 N 0.46386 0.41688 -0.07398
 N181 N 0.45921 0.48760 -0.10050
 N182 N 0.44564 0.49289 -0.13912
 Mn183 Mn 0.45687 0.45656 -0.00007
 C184 C 0.41959 0.47865 -0.12090
 C185 C 0.47735 0.41911 -0.12291
 N186 N 0.55536 0.52674 -0.06232
 N187 N 0.58081 0.53344 -0.07406
 N188 N 0.50988 0.53849 -0.10139
 N189 N 0.50571 0.55210 -0.14186
 N190 N 0.52646 0.55526 -0.06263
 N191 N 0.53407 0.58078 -0.07586
 N192 N 0.53866 0.50992 -0.10088
 N193 N 0.55219 0.50465 -0.13969
 Mn194 Mn 0.54119 0.54145 -0.00108
 Mn195 Mn 0.49893 0.49876 -0.10122
 Cl196 Cl 0.49903 0.49901 -0.00058
 C197 C 0.57831 0.51911 -0.12197
 C198 C 0.52051 0.57832 -0.12480
 N199 N 0.44499 -0.02886 0.06492
 N200 N 0.41972 -0.04780 0.07728
 N201 N 0.49041 0.02860 0.10266
 N202 N 0.49473 0.04649 0.14302
 N203 N 0.47338 0.02845 0.06455
 N204 N 0.46563 0.04623 0.07811
 N205 N 0.46208 -0.02868 0.10291
 N206 N 0.44900 -0.04745 0.14194
 C207 C 0.42275 -0.05940 0.12494
 C208 C 0.47956 0.05760 0.12653
 N209 N 0.55777 0.02874 0.06056
 N210 N 0.58344 0.04664 0.07264
 N211 N 0.51302 -0.02848 0.10065
 N212 N 0.50930 -0.04628 0.14073
 N213 N 0.52931 -0.02855 0.06094
 N214 N 0.53717 -0.04639 0.07314
 N215 N 0.54144 0.02880 0.10019
 N216 N 0.55550 0.04673 0.14007
 Mn217 Mn 0.50174 0.00007 0.10202
 C218 C 0.58151 0.05798 0.12179
 C219 C 0.52407 -0.05756 0.12248
 N220 N 0.47237 0.02839 -0.05819
 N221 N 0.46577 0.04730 -0.06908
 N222 N 0.46007 -0.02903 -0.09747
 N223 N 0.44600 -0.04692 -0.13742
 N224 N 0.44375 -0.02898 -0.05783
 N225 N 0.41808 -0.04684 -0.06994
 N226 N 0.48868 0.02825 -0.09775
 N227 N 0.49369 0.04701 -0.13640
 Mn228 Mn 0.45836 -0.00025 0.00339
 C229 C 0.47961 0.05892 -0.11757
 C230 C 0.41999 -0.05815 -0.11913
 N231 N 0.52796 -0.02890 -0.06181
 N232 N 0.53441 -0.04781 -0.07387
 N233 N 0.53941 0.02830 -0.10019
 N234 N 0.55246 0.04717 -0.13906
 N235 N 0.55649 0.02851 -0.06219
 N236 N 0.58174 0.04756 -0.07433
 N237 N 0.51090 -0.02898 -0.09972
 N238 N 0.50521 -0.04791 -0.13843
 Mn239 Mn 0.54315 -0.00005 -0.00069
 Mn240 Mn 0.49977 -0.00038 -0.09920
 Cl241 Cl 0.50075 -0.00015 0.00142
 C242 C 0.51969 -0.05968 -0.12129
 C243 C 0.57869 0.05919 -0.12192
 C244 C 1.14251 0.47245 0.31039
 C245 C 1.11318 0.46329 0.32879
 C246 C 1.09759 0.46496 0.28688
 C247 C 1.11276 0.47565 0.23042
 C248 C 1.12394 0.45659 0.21603
 C249 C 1.13961 0.45490 0.25817
 C250 C 1.15362 0.50144 0.28720
 C251 C 1.13797 0.50312 0.24513
 C252 C 1.15854 0.47048 0.35716
 C253 C 1.16989 0.46836 0.39853
 C254 C 1.09526 0.47750 0.18680
 C255 C 1.07963 0.47923 0.15462
 H256 H 1.10530 0.45605 0.37116
 H257 H 1.07638 0.45916 0.29340
 H258 H 1.11997 0.44549 0.17631
 H259 H 1.14909 0.44236 0.25456
 H260 H 1.17218 0.51905 0.30230
 H261 H 1.14313 0.52219 0.22418
 C262 C 0.52660 0.66976 0.30894
 C263 C 0.50041 0.65830 0.27341
 C264 C 0.49903 0.64116 0.23109
 C265 C 0.52398 0.63722 0.22857
 C266 C 0.52613 0.62759 0.28824
 C267 C 0.52751 0.64464 0.33034
 C268 C 0.55000 0.68324 0.26578
 C269 C 0.54862 0.66610 0.22345
 C270 C 0.52823 0.68752 0.35595
 C271 C 0.53006 0.70076 0.39754
 C272 C 0.52244 0.61805 0.18480
 C273 C 0.52089 0.60073 0.15273
 H274 H 0.48445 0.66327 0.28069
 H275 H 0.48188 0.63145 0.20209
 H276 H 0.52655 0.60894 0.29673
 H277 H 0.52909 0.64058 0.37484
 H278 H 0.56614 0.70438 0.26812
 H279 H 0.56357 0.67255 0.18954
 C280 C 0.33111 -0.14308 0.31352
 C281 C 0.31651 -0.14014 0.26129
 C282 C 0.33390 -0.12423 0.21944
 C283 C 0.36410 -0.11289 0.23411
 C284 C 0.36661 -0.13802 0.24846
 C285 C 0.34925 -0.15391 0.29025
 C286 C 0.35099 -0.11378 0.33242
 C287 C 0.36828 -0.09795 0.29080
 C288 C 0.31304 -0.15938 0.35995
 C289 C 0.29943 -0.17099 0.40099
 C290 C 0.38344 -0.09515 0.19075
 C291 C 0.40070 -0.07936 0.15866
 H292 H 0.29451 -0.14975 0.25745
 H293 H 0.32681 -0.12020 0.17975
 H294 H 0.38069 -0.14296 0.22750
 H295 H 0.34845 -0.17245 0.30509
 H296 H 0.35143 -0.10608 0.37491
 H297 H 0.38351 -0.07672 0.29767
 C298 C 0.85740 0.53018 0.30543
 C299 C 0.88800 0.54642 0.31875
 C300 C 0.90398 0.54523 0.27703
 C301 C 0.88790 0.52792 0.22582
 C302 C 0.87041 0.54018 0.20615
 C303 C 0.85434 0.54138 0.24813
 C304 C 0.85152 0.50115 0.29263
 C305 C 0.86753 0.49996 0.25080
 C306 C 0.84094 0.53159 0.35209
 C307 C 0.82923 0.53317 0.39346
 C308 C 0.90582 0.52653 0.18249
 C309 C 0.92173 0.52499 0.15079
 H310 H 0.89641 0.55794 0.35762
 H311 H 0.92606 0.55575 0.28019
 H312 H 0.87060 0.54723 0.16320
 H313 H 0.84075 0.54945 0.24113
 H314 H 0.83604 0.48310 0.31432
 H315 H 0.86577 0.48088 0.23668
 C316 C 0.47233 0.32858 0.30964
 C317 C 0.50110 0.34640 0.28536
 C318 C 0.50238 0.36366 0.24350
 C319 C 0.47476 0.36138 0.23005
 C320 C 0.46455 0.36594 0.28710
 C321 C 0.46327 0.34875 0.32878
 C322 C 0.45434 0.31387 0.25800
 C323 C 0.45563 0.33115 0.21608
 C324 C 0.47079 0.31065 0.35624
 C325 C 0.46903 0.29727 0.39756
 C326 C 0.47619 0.38067 0.18665
 C327 C 0.47761 0.39797 0.15466
 H328 H 0.51886 0.34548 0.29960
 H329 H 0.52125 0.37751 0.22188
 H330 H 0.45876 0.38134 0.29416
 H331 H 0.45641 0.34946 0.37150
 H332 H 0.44181 0.29187 0.25461
 H333 H 0.44419 0.32397 0.17677
 C334 C 0.67618 0.13770 0.31019
 C335 C 0.68736 0.12405 0.27042
 C336 C 0.66948 0.10865 0.22873
 C337 C 0.64225 0.10846 0.23105
 C338 C 0.65005 0.13861 0.22927
 C339 C 0.66790 0.15399 0.27088
 C340 C 0.64921 0.11427 0.33282
 C341 C 0.63144 0.09896 0.29137
 C342 C 0.69448 0.15387 0.35653
 C343 C 0.70742 0.16631 0.39765
 C344 C 0.62226 0.09148 0.18781
 C345 C 0.60435 0.07664 0.15571
 H346 H 0.70750 0.12634 0.27452
 H347 H 0.67431 0.09774 0.19710
 H348 H 0.64235 0.14716 0.19795
 H349 H 0.67547 0.17571 0.27520
 H350 H 0.64448 0.11004 0.37766
 H351 H 0.61150 0.08163 0.30076
 C352 C 0.47167 0.14303 -0.30503
 C353 C 0.45922 0.11294 -0.32171
 C354 C 0.46048 0.09706 -0.27993
 C355 C 0.47408 0.11271 -0.22529
 C356 C 0.45791 0.12681 -0.20843
 C357 C 0.45664 0.14280 -0.25046
 C358 C 0.50085 0.15183 -0.28604
 C359 C 0.50212 0.13589 -0.24412
 C360 C 0.47018 0.15937 -0.35180
 C361 C 0.46850 0.17091 -0.39334
 C362 C 0.47553 0.09486 -0.18190
 C363 C 0.47711 0.07898 -0.15020
 H364 H 0.45013 0.10478 -0.36286
 H365 H 0.45246 0.07531 -0.28534
 H366 H 0.44839 0.12452 -0.16722
 H367 H 0.44604 0.15420 -0.24526
 H368 H 0.51892 0.16912 -0.30375
 H369 H 0.52128 0.13954 -0.22593
 C370 C 0.67082 0.52818 -0.30994
 C371 C 0.65325 0.49931 -0.28594
 C372 C 0.63581 0.49770 -0.24415
 C373 C 0.63766 0.52512 -0.23048
 C374 C 0.63302 0.53529 -0.28745
 C375 C 0.65039 0.53689 -0.32908
 C376 C 0.68527 0.54616 -0.25813
 C377 C 0.66780 0.54454 -0.21626
 C378 C 0.68893 0.53006 -0.35652
 C379 C 0.70239 0.53209 -0.39790
 C380 C 0.61817 0.52334 -0.18715
 C381 C 0.60071 0.52162 -0.15525
 H382 H 0.65448 0.48173 -0.30031
 H383 H 0.62210 0.47873 -0.22272
 H384 H 0.61743 0.54082 -0.29452
 H385 H 0.64965 0.54378 -0.37174
 H386 H 0.70724 0.55892 -0.25457
 H387 H 0.67479 0.55593 -0.17685
 C388 C 0.86278 0.32575 -0.31069
 C389 C 0.87980 0.31645 -0.27652
 C390 C 0.89510 0.33429 -0.23470
 C391 C 0.89183 0.35963 -0.23129
 C392 C 0.86106 0.34844 -0.22447
 C393 C 0.84578 0.33061 -0.26624
 C394 C 0.88341 0.35424 -0.33268
 C395 C 0.89862 0.37198 -0.29110
 C396 C 0.84674 0.30750 -0.35720
 C397 C 0.83443 0.29463 -0.39851
 C398 C 0.90871 0.37960 -0.18791
 C399 C 0.92350 0.39750 -0.15572
 H400 H 0.87977 0.29753 -0.28432
 H401 H 0.90817 0.33065 -0.20667
 H402 H 0.85207 0.35393 -0.18980
 H403 H 0.82370 0.32083 -0.26735
 H404 H 0.88589 0.35999 -0.37721
 H405 H 0.91410 0.39291 -0.30007
 C406 C 0.52741 -0.14389 -0.30915
 C407 C 0.53663 -0.11466 -0.32834
 C408 C 0.53526 -0.09872 -0.28679
 C409 C 0.52479 -0.11348 -0.22987
 C410 C 0.54380 -0.12471 -0.21541
 C411 C 0.54518 -0.14073 -0.25720
 C412 C 0.49856 -0.15470 -0.28540
 C413 C 0.49718 -0.13870 -0.24368
 C414 C 0.52907 -0.16030 -0.35555
 C415 C 0.53095 -0.17199 -0.39662
 C416 C 0.52328 -0.09561 -0.18662
 C417 C 0.52183 -0.07973 -0.15470
 H418 H 0.54368 -0.10709 -0.37098
 H419 H 0.54114 -0.07753 -0.29388
 H420 H 0.55508 -0.12052 -0.17591
 H421 H 0.55764 -0.15028 -0.25349
 H422 H 0.48082 -0.17331 -0.29987
 H423 H 0.47825 -0.14362 -0.22241
 C424 C 0.32762 0.47075 -0.30834
 C425 C 0.35020 0.46542 -0.32930
 C426 C 0.36741 0.46674 -0.28764
 C427 C 0.36046 0.47326 -0.22883
 C428 C 0.33063 0.45133 -0.21847
 C429 C 0.31333 0.45001 -0.26036
 C430 C 0.34263 0.49860 -0.27868
 C431 C 0.35991 0.49992 -0.23683
 C432 C 0.30969 0.46920 -0.35488
 C433 C 0.29628 0.46746 -0.39608
 C434 C 0.37977 0.47475 -0.18552
 C435 C 0.39718 0.47628 -0.15377
 H436 H 0.35248 0.46097 -0.37318
 H437 H 0.38440 0.46340 -0.29588
 H438 H 0.32371 0.43811 -0.18151
 H439 H 0.29158 0.43566 -0.25930
 H440 H 0.33985 0.51571 -0.28942
 H441 H 0.37195 0.51817 -0.21169
 C442 C 1.14385 0.67040 -0.31364
 C443 C 1.11442 0.65089 -0.33233
 C444 C 1.09852 0.63364 -0.29075
 C445 C 1.11352 0.63747 -0.23428
 C446 C 1.12530 0.66770 -0.21923
 C447 C 1.14129 0.68506 -0.26104
 C448 C 1.15432 0.65187 -0.29097
 C449 C 1.13836 0.63455 -0.24922
 C450 C 1.16023 0.68844 -0.36003
 C451 C 1.17190 0.70203 -0.40104
 C452 C 1.09570 0.61817 -0.19096
 C453 C 1.07985 0.60095 -0.15888
 H454 H 1.10670 0.65067 -0.37467
 H455 H 1.07720 0.61866 -0.29750
 H456 H 1.12151 0.67483 -0.17930
 H457 H 1.15119 0.70707 -0.25695
 H458 H 1.17269 0.65240 -0.30617
 H459 H 1.14307 0.62022 -0.22865
 C460 C 0.86394 0.53884 -0.31431
 C461 C 0.88449 0.53098 -0.33710
 C462 C 0.89962 0.52801 -0.29593
 C463 C 0.89280 0.53316 -0.23577
 C464 C 0.86202 0.51371 -0.22921
 C465 C 0.84683 0.51670 -0.27055
 C466 C 0.88101 0.56483 -0.27931
 C467 C 0.89621 0.56184 -0.23793
 C468 C 0.84796 0.54154 -0.36022
 C469 C 0.83555 0.54254 -0.40087
 C470 C 0.90955 0.52969 -0.19276
 C471 C 0.92421 0.52645 -0.16047
 H472 H 0.88697 0.52803 -0.38182
 H473 H 0.91503 0.52250 -0.30542
 H474 H 0.85296 0.49899 -0.19504
 H475 H 0.82474 0.50453 -0.27179
 H476 H 0.88108 0.58382 -0.28626
 H477 H 0.90932 0.57829 -0.20941
 C478 C 0.46161 0.32453 -0.31231
 C479 C 0.43569 0.31502 -0.27665
 C480 C 0.43843 0.33296 -0.23487
 C481 C 0.46682 0.35859 -0.23302
 C482 C 0.47142 0.37062 -0.29303
 C483 C 0.46869 0.35277 -0.33458
 C484 C 0.48413 0.32996 -0.26919
 C485 C 0.48687 0.34789 -0.22745
 C486 C 0.45920 0.30615 -0.35865
 C487 C 0.45851 0.29305 -0.39963
 C488 C 0.47009 0.37860 -0.18967
 C489 C 0.47325 0.39646 -0.15733
 H490 H 0.41692 0.29590 -0.28347
 H491 H 0.42201 0.32921 -0.20587
 H492 H 0.47638 0.39141 -0.30214
 H493 H 0.47130 0.35829 -0.37926
 H494 H 0.49671 0.32048 -0.27112
 H495 H 0.50180 0.35377 -0.19364
 C496 C 0.67010 0.14360 -0.30977
 C497 C 0.65374 0.11329 -0.32557
 C498 C 0.63650 0.09732 -0.28403
 C499 C 0.63722 0.11313 -0.23053
 C500 C 0.63133 0.13536 -0.25160
 C501 C 0.64863 0.15138 -0.29328
 C502 C 0.68461 0.14451 -0.25397
 C503 C 0.66727 0.12845 -0.21219
 C504 C 0.68811 0.16006 -0.35608
 C505 C 0.70170 0.17182 -0.39699
 C506 C 0.61795 0.09524 -0.18731
 C507 C 0.60072 0.07931 -0.15538
 H508 H 0.65557 0.10506 -0.36595
 H509 H 0.62359 0.07542 -0.28885
 H510 H 0.61508 0.13832 -0.23506
 H511 H 0.64720 0.16807 -0.31245
 H512 H 0.70649 0.15671 -0.24779
 H513 H 0.67429 0.12687 -0.17021
 C514 C 1.13547 0.46060 -0.31350
 C515 C 1.11105 0.46265 -0.33551
 C516 C 1.09607 0.46547 -0.29373
 C517 C 1.10688 0.46597 -0.23375
 C518 C 1.13672 0.48901 -0.23492
 C519 C 1.15176 0.48619 -0.27685
 C520 C 1.12328 0.43674 -0.27127
 C521 C 1.10821 0.43957 -0.22923
 C522 C 1.15130 0.45813 -0.36014
 C523 C 1.16356 0.45742 -0.40141
 C524 C 1.09028 0.46938 -0.19015
 C525 C 1.07575 0.47277 -0.15772
 H526 H 1.10592 0.46190 -0.38017
 H527 H 1.07813 0.46713 -0.30265
 H528 H 1.14532 0.50598 -0.20529
 H529 H 1.17323 0.50074 -0.28313
 H530 H 1.12627 0.41926 -0.27402
 H531 H 1.09829 0.42451 -0.19596
 C532 C 0.53634 0.67281 -0.31475
 C533 C 0.51535 0.66908 -0.26911
 C534 C 0.51253 0.65111 -0.22742
 C535 C 0.53099 0.63866 -0.23555
 C536 C 0.56001 0.66317 -0.24032
 C537 C 0.56282 0.68115 -0.28203
 C538 C 0.52707 0.64395 -0.33665
 C539 C 0.52426 0.62606 -0.29515
 C540 C 0.53887 0.69126 -0.36107
 C541 C 0.53973 0.70440 -0.40212
 C542 C 0.52768 0.61862 -0.19217
 C543 C 0.52454 0.60082 -0.15967
 H544 H 0.50381 0.67970 -0.26939
 H545 H 0.49858 0.64632 -0.19200
 H546 H 0.57681 0.66618 -0.21324
 H547 H 0.58203 0.69956 -0.29070
 H548 H 0.52305 0.63805 -0.38104
 H549 H 0.51784 0.60486 -0.30404
 C550 C 0.32542 -0.13686 -0.30844
 C551 C 0.33133 -0.15387 -0.26601
 C552 C 0.34915 -0.13872 -0.22415
 C553 C 0.35929 -0.10807 -0.22887
 C554 C 0.33332 -0.10585 -0.23009
 C555 C 0.31548 -0.12101 -0.27201
 C556 C 0.35348 -0.11524 -0.33058
 C557 C 0.37123 -0.10016 -0.28890
 C558 C 0.30716 -0.15277 -0.35502
 C559 C 0.29426 -0.16503 -0.39629
 C560 C 0.37925 -0.09134 -0.18541
 C561 C 0.39716 -0.07666 -0.15317
 H562 H 0.32223 -0.17586 -0.26849
 H563 H 0.35533 -0.14774 -0.19077
 H564 H 0.32927 -0.09355 -0.20057
 H565 H 0.29615 -0.12171 -0.27842
 H566 H 0.35896 -0.11202 -0.37526
 H567 H 0.39188 -0.08405 -0.29793
 C568 C 0.53964 -0.13689 0.31091
 C569 C 0.56497 -0.12206 0.27291
 C570 C 0.56237 -0.10672 0.23124
 C571 C 0.53471 -0.10777 0.23184
 C572 C 0.53197 -0.09914 0.29213
 C573 C 0.53456 -0.11439 0.33355
 C574 C 0.51593 -0.15351 0.26990
 C575 C 0.51334 -0.13819 0.22830
 C576 C 0.54188 -0.15302 0.35717
 C577 C 0.54241 -0.16553 0.39812
 C578 C 0.53156 -0.09087 0.18862
 C579 C 0.52837 -0.07611 0.15649
 H580 H 0.58324 -0.12354 0.27813
 H581 H 0.57843 -0.09505 0.20074
 H582 H 0.52834 -0.08242 0.30151
 H583 H 0.53314 -0.11072 0.37838
 H584 H 0.50245 -0.17539 0.27310
 H585 H 0.49764 -0.14695 0.19588
 C586 C 0.32414 0.46077 0.31151
 C587 C 0.32848 0.48222 0.26651
 C588 C 0.34659 0.48505 0.22510
 C589 C 0.35856 0.46616 0.23283
 C590 C 0.33373 0.43729 0.23651
 C591 C 0.31561 0.43445 0.27795
 C592 C 0.35277 0.46945 0.33397
 C593 C 0.37080 0.47228 0.29276
 C594 C 0.30553 0.45823 0.35754
 C595 C 0.29225 0.45738 0.39835
 C596 C 0.37875 0.46951 0.18976
 C597 C 0.39667 0.47271 0.15752
 H598 H 0.31816 0.49404 0.26699
 H599 H 0.35179 0.49930 0.19013
 H600 H 0.33062 0.42060 0.20893
 H601 H 0.29697 0.41534 0.28587
 H602 H 0.35841 0.47306 0.37854
 H603 H 0.39186 0.47831 0.30206
 C604 C 1.13781 0.67624 0.30834
 C605 C 1.15482 0.67068 0.26521
 C606 C 1.13964 0.65290 0.22330
 C607 C 1.10896 0.64246 0.22869
 C608 C 1.10643 0.66826 0.23073
 C609 C 1.12163 0.68605 0.27269
 C610 C 1.11646 0.64803 0.33033
 C611 C 1.10135 0.63034 0.28860
 C612 C 1.15375 0.69444 0.35496
 C613 C 1.16604 0.70729 0.39626
 C614 C 1.09218 0.62254 0.18519
 C615 C 1.07746 0.60466 0.15293
 H616 H 1.17685 0.67996 0.26727
 H617 H 1.14865 0.64696 0.18946
 H618 H 1.09391 0.67222 0.20171
 H619 H 1.12214 0.70526 0.27965
 H620 H 1.11345 0.64243 0.37495
 H621 H 1.08541 0.60959 0.29753
 C622 C 0.46289 0.13569 0.31669
 C623 C 0.48467 0.15299 0.27244
 C624 C 0.48770 0.13794 0.23079
 C625 C 0.46865 0.10710 0.23757
 C626 C 0.43980 0.10323 0.24064
 C627 C 0.43677 0.11829 0.28232
 C628 C 0.47129 0.11548 0.33893
 C629 C 0.47431 0.10049 0.29746
 C630 C 0.46014 0.15153 0.36289
 C631 C 0.45911 0.16385 0.40368
 C632 C 0.47218 0.09051 0.19421
 C633 C 0.47545 0.07596 0.16162
 H634 H 0.49656 0.17510 0.27359
 H635 H 0.50219 0.14714 0.19626
 H636 H 0.42328 0.08993 0.21248
 H637 H 0.41766 0.11790 0.28990
 H638 H 0.47458 0.11311 0.38352
 H639 H 0.48019 0.08531 0.30655
 C640 C 0.67389 0.53906 0.31213
 C641 C 0.64588 0.53275 0.33449
 C642 C 0.62796 0.52972 0.29290
 C643 C 0.63969 0.53328 0.23277
 C644 C 0.64991 0.51279 0.22870
 C645 C 0.66791 0.51584 0.27047
 C646 C 0.68362 0.56452 0.27487
 C647 C 0.66560 0.56147 0.23304
 C648 C 0.69237 0.54178 0.35848
 C649 C 0.70559 0.54270 0.39940
 C650 C 0.61960 0.52969 0.18935
 C651 C 0.60170 0.52624 0.15691
 H652 H 0.64058 0.53085 0.37925
 H653 H 0.60731 0.52522 0.30205
 H654 H 0.64366 0.49736 0.19583
 H655 H 0.67709 0.50300 0.27337
 H656 H 0.70293 0.58320 0.28068
 H657 H 0.66947 0.57756 0.20300
 C658 C 0.85743 0.33214 0.31118
 C659 C 0.85417 0.31796 0.25370
 C660 C 0.87009 0.33524 0.21170
 C661 C 0.88763 0.36491 0.23154
 C662 C 0.90389 0.36359 0.28231
 C663 C 0.88806 0.34641 0.32407
 C664 C 0.85148 0.35531 0.29900
 C665 C 0.86736 0.37254 0.25712
 C666 C 0.84112 0.31419 0.35771
 C667 C 0.82949 0.30065 0.39875
 C668 C 0.90538 0.38413 0.18809
 C669 C 0.92122 0.40131 0.15596
 H670 H 0.84055 0.29634 0.24660
 H671 H 0.87014 0.32844 0.16860
 H672 H 0.92598 0.37512 0.28518
 H673 H 0.89660 0.34324 0.36269
 H674 H 0.83608 0.35788 0.32113
 H675 H 0.86556 0.38988 0.24338
   
