data_POSCAR
  _audit_creation_date              2014-09-24
  _audit_creation_method            'ToBaCCo'
  _symmetry_space_group_name_H-M    'P1'
  _symmetry_Int_Tables_number       1
  _symmetry_cell_setting            triclinic
  loop_
  _symmetry_equiv_pos_as_xyz
 x,y,z
_cell_length_a 36.5926
_cell_length_b 44.5865
_cell_length_c 37.7489
_cell_angle_alpha 90.009700
_cell_angle_beta 90.040300
_cell_angle_gamma 85.593300
loop_
  _atom_site_label
  _atom_site_type_symbol
  _atom_site_fract_x
  _atom_site_fract_y
  _atom_site_fract_z
C1 C 1.22603 0.22744 0.20615
 C2 C 1.24978 0.24778 0.18484
 C3 C 1.27052 0.26496 0.20557
 C4 C 1.26576 0.26020 0.24570
 C5 C 1.25275 0.20899 0.23032
 C6 C 1.27345 0.22608 0.25106
 C7 C 1.20339 0.24868 0.23107
 C8 C 1.22422 0.26579 0.25173
 H9 H 1.24921 0.24930 0.15612
 H10 H 1.28277 0.27413 0.26252
 H11 H 1.25396 0.18460 0.23212
 H12 H 1.17364 0.25007 0.23227
 C13 C 0.72708 -0.27329 0.20484
 C14 C 0.75071 -0.25294 0.18347
 C15 C 0.77130 -0.23565 0.20417
 C16 C 0.76653 -0.24028 0.24427
 C17 C 0.75384 -0.29160 0.22912
 C18 C 0.77438 -0.27433 0.24980
 C19 C 0.70428 -0.25207 0.22965
 C20 C 0.72501 -0.23486 0.25026
 H21 H 0.75012 -0.25145 0.15474
 H22 H 0.78345 -0.22621 0.26103
 H23 H 0.75492 -0.31596 0.23129
 H24 H 0.67455 -0.25098 0.23108
 C25 C 0.72747 0.22779 -0.29483
 C26 C 0.74964 0.24737 -0.31527
 C27 C 0.77139 0.26540 -0.29334
 C28 C 0.76683 0.26039 -0.25527
 C29 C 0.75311 0.20999 -0.27224
 C30 C 0.77480 0.22798 -0.25038
 C31 C 0.70555 0.24758 -0.27095
 C32 C 0.72737 0.26557 -0.24912
 H33 H 0.74866 0.24933 -0.34398
 H34 H 0.78383 0.27433 -0.23833
 H35 H 0.75413 0.18560 -0.27016
 H36 H 0.67576 0.24896 -0.26983
 C37 C 1.22726 -0.27212 -0.29478
 C38 C 1.25120 -0.25188 -0.31595
 C39 C 1.27181 -0.23477 -0.29505
 C40 C 1.26673 -0.23942 -0.25500
 C41 C 1.25374 -0.29061 -0.27041
 C42 C 1.27430 -0.27349 -0.24958
 C43 C 1.20447 -0.25085 -0.27006
 C44 C 1.22519 -0.23379 -0.24928
 H45 H 1.25097 -0.25046 -0.34469
 H46 H 1.28363 -0.22548 -0.23807
 H47 H 1.25491 -0.31500 -0.26858
 H48 H 1.17471 -0.24952 -0.26892
 C49 C 0.22863 0.22741 0.79562
 C50 C 0.25179 0.24603 0.81598
 C51 C 0.27345 0.26412 0.79432
 C52 C 0.26809 0.26033 0.75633
 C53 C 0.20570 0.24914 0.77137
 C54 C 0.22646 0.26636 0.75076
 C55 C 0.25448 0.20899 0.77050
 C56 C 0.27510 0.22625 0.74985
 H57 H 0.25131 0.24745 0.84473
 H58 H 0.28502 0.27433 0.73949
 H59 H 0.17594 0.25056 0.77031
 H60 H 0.25527 0.18465 0.76816
 C61 C 0.72679 0.72731 0.79460
 C62 C 0.74894 0.74676 0.81531
 C63 C 0.77084 0.76486 0.79363
 C64 C 0.76641 0.76004 0.75550
 C65 C 0.70502 0.74727 0.77074
 C66 C 0.72698 0.76533 0.74917
 C67 C 0.75248 0.70959 0.77202
 C68 C 0.77431 0.72763 0.75041
 H69 H 0.74787 0.74856 0.84403
 H70 H 0.78352 0.77401 0.73875
 H71 H 0.67523 0.74875 0.76951
 H72 H 0.75350 0.68520 0.76981
 C73 C 0.72771 0.22723 0.29467
 C74 C 0.75176 0.24710 0.31627
 C75 C 0.77237 0.26450 0.29577
 C76 C 0.76721 0.26045 0.25562
 C77 C 0.70492 0.24893 0.27037
 C78 C 0.72568 0.26625 0.24997
 C79 C 0.75409 0.20907 0.26992
 C80 C 0.77465 0.22644 0.24945
 H81 H 0.75135 0.24828 0.34502
 H82 H 0.78415 0.27459 0.23902
 H83 H 0.67516 0.25034 0.26924
 H84 H 0.75499 0.18473 0.26741
 C85 C 0.22677 0.72728 0.29389
 C86 C 0.25073 0.74754 0.31511
 C87 C 0.27124 0.76482 0.29432
 C88 C 0.26607 0.76023 0.25419
 C89 C 0.20386 0.74862 0.26926
 C90 C 0.22445 0.76584 0.24852
 C91 C 0.25324 0.70895 0.26940
 C92 C 0.27371 0.72612 0.24857
 H93 H 0.25044 0.74895 0.34384
 H94 H 0.28290 0.77424 0.23731
 H95 H 0.17409 0.74999 0.26829
 H96 H 0.25441 0.68457 0.26743
 N97 N 1.06093 0.02526 0.03665
 N98 N 1.08445 0.04590 0.04141
 N99 N 1.03471 -0.03573 0.06169
 N100 N 1.04216 -0.05597 0.08673
 N101 N 1.06021 -0.03772 0.03714
 N102 N 1.08568 -0.05934 0.04481
 N103 N 1.03542 0.02733 0.06114
 N104 N 1.04085 0.04946 0.08333
 C105 C 1.07143 0.06079 0.07050
 C106 C 1.07367 -0.07076 0.07546
 N107 N 0.93017 -0.02828 0.03644
 N108 N 0.90596 -0.04822 0.04227
 N109 N 0.95659 0.03295 0.06068
 N110 N 0.95152 0.05537 0.08339
 N111 N 0.93112 0.03481 0.03607
 N112 N 0.90794 0.05859 0.04139
 N113 N 0.95563 -0.03001 0.06109
 N114 N 0.94947 -0.05114 0.08435
 Mn115 Mn 0.99555 -0.00138 0.06152
 C116 C 0.91858 -0.06232 0.07208
 C117 C 0.92131 0.07119 0.07083
 N118 N 1.06043 -0.03795 -0.03923
 N119 N 1.08576 -0.05981 -0.04622
 N120 N 1.03593 0.02687 -0.06414
 N121 N 1.04141 0.04905 -0.08623
 N122 N 1.06120 0.02495 -0.03935
 N123 N 1.08456 0.04573 -0.04380
 N124 N 1.03518 -0.03614 -0.06407
 N125 N 1.04268 -0.05676 -0.08865
 Mn126 Mn 1.06103 -0.00643 -0.00121
 C127 C 1.07393 -0.07155 -0.07676
 C128 C 1.07176 0.06052 -0.07302
 N129 N 0.93135 0.03456 -0.04037
 N130 N 0.90802 0.05815 -0.04626
 N131 N 0.95605 -0.03051 -0.06459
 N132 N 0.94982 -0.05161 -0.08791
 N133 N 0.93039 -0.02859 -0.04017
 N134 N 0.90599 -0.04835 -0.04624
 N135 N 0.95702 0.03255 -0.06474
 N136 N 0.95192 0.05468 -0.08786
 Mn137 Mn 0.93030 0.00314 -0.00200
 Mn138 Mn 0.99604 -0.00183 -0.06477
 Cl139 Cl 0.99570 -0.00170 -0.00162
 C140 C 0.92147 0.07050 -0.07579
 C141 C 0.91869 -0.06260 -0.07594
 N142 N 1.06200 0.52474 0.54007
 N143 N 1.08516 0.54568 0.54438
 N144 N 1.03574 0.46373 0.56473
 N145 N 1.04330 0.44330 0.58952
 N146 N 1.06107 0.46186 0.53999
 N147 N 1.08651 0.44013 0.54728
 N148 N 1.03664 0.52672 0.56474
 N149 N 1.04185 0.54912 0.58661
 C150 C 1.07214 0.56062 0.57340
 C151 C 1.07465 0.42853 0.57788
 N152 N 0.93101 0.47156 0.54036
 N153 N 0.90649 0.45190 0.54637
 N154 N 0.95777 0.53262 0.56506
 N155 N 0.95258 0.55468 0.58827
 N156 N 0.93217 0.53469 0.54059
 N157 N 0.90881 0.55826 0.54649
 N158 N 0.95661 0.46958 0.56487
 N159 N 0.95023 0.44854 0.58820
 Mn160 Mn 0.99668 0.49814 0.56523
 C161 C 0.91907 0.43765 0.57612
 C162 C 0.92217 0.57054 0.57614
 N163 N 1.06104 0.46210 0.46359
 N164 N 1.08644 0.44041 0.45602
 N165 N 1.03656 0.52721 0.43951
 N166 N 1.04222 0.54925 0.41727
 N167 N 1.06202 0.52507 0.46409
 N168 N 1.08572 0.54556 0.45934
 N169 N 1.03562 0.46417 0.43893
 N170 N 1.04305 0.44391 0.41391
 Mn171 Mn 1.06187 0.49337 0.50195
 C172 C 1.07446 0.42904 0.42531
 C173 C 1.07288 0.56045 0.43018
 N174 N 0.93216 0.53493 0.46413
 N175 N 0.90888 0.55860 0.45854
 N176 N 0.95656 0.47008 0.43921
 N177 N 0.95055 0.44884 0.41605
 N178 N 0.93104 0.47186 0.46376
 N179 N 0.90691 0.45184 0.45795
 N180 N 0.95771 0.53303 0.43963
 N181 N 0.95259 0.55530 0.41674
 Mn182 Mn 0.93114 0.50328 0.50220
 Mn183 Mn 0.99658 0.49861 0.43895
 Cl184 Cl 0.99654 0.49828 0.50209
 C185 C 0.92228 0.57111 0.42909
 C186 C 0.91966 0.43765 0.42825
 N187 N 0.56508 0.02463 0.53864
 N188 N 0.58852 0.04539 0.54298
 N189 N 0.53897 -0.03619 0.56441
 N190 N 0.54652 -0.05629 0.58958
 N191 N 0.56434 -0.03835 0.53973
 N192 N 0.58982 -0.05995 0.54745
 N193 N 0.53967 0.02688 0.56324
 N194 N 0.54510 0.04926 0.58507
 C195 C 0.57558 0.06053 0.57192
 C196 C 0.57795 -0.07117 0.57827
 N197 N 0.43431 -0.02885 0.53958
 N198 N 0.41021 -0.04883 0.54556
 N199 N 0.46079 0.03253 0.56318
 N200 N 0.45557 0.05493 0.58591
 N201 N 0.43522 0.03421 0.53866
 N202 N 0.41183 0.05784 0.54408
 N203 N 0.45986 -0.03044 0.56414
 N204 N 0.45386 -0.05153 0.58751
 Mn205 Mn 0.49979 -0.00182 0.56412
 C206 C 0.42298 -0.06281 0.57538
 C207 C 0.42517 0.07056 0.57344
 N208 N 0.56417 -0.03909 0.46332
 N209 N 0.58947 -0.06100 0.45630
 N210 N 0.53950 0.02557 0.43801
 N211 N 0.54466 0.04773 0.41581
 N212 N 0.56493 0.02382 0.46264
 N213 N 0.58811 0.04470 0.45796
 N214 N 0.53875 -0.03742 0.43864
 N215 N 0.54607 -0.05816 0.41417
 Mn216 Mn 0.56497 -0.00732 0.50107
 C217 C 0.57740 -0.07289 0.42593
 C218 C 0.57500 0.05936 0.42876
 N219 N 0.43509 0.03347 0.46223
 N220 N 0.41163 0.05694 0.45613
 N221 N 0.45968 -0.03174 0.43849
 N222 N 0.45324 -0.05283 0.41524
 N223 N 0.43412 -0.02967 0.46299
 N224 N 0.40956 -0.04932 0.45705
 N225 N 0.46064 0.03130 0.43775
 N226 N 0.45533 0.05318 0.41434
 Mn227 Mn 0.43424 0.00231 0.50088
 Mn228 Mn 0.49964 -0.00309 0.43785
 Cl229 Cl 0.49963 -0.00255 0.50098
 C230 C 0.42489 0.06904 0.42636
 C231 C 0.42209 -0.06368 0.42736
 N232 N 0.56350 0.52386 0.03634
 N233 N 0.58672 0.54474 0.04094
 N234 N 0.53748 0.46276 0.06096
 N235 N 0.54501 0.44243 0.08586
 N236 N 0.56294 0.46093 0.03636
 N237 N 0.58848 0.43933 0.04387
 N238 N 0.53805 0.52576 0.06091
 N239 N 0.54323 0.54802 0.08299
 C240 C 0.57359 0.55956 0.07001
 C241 C 0.57650 0.42776 0.07444
 N242 N 0.43288 0.47009 0.03633
 N243 N 0.40840 0.45040 0.04239
 N244 N 0.45920 0.53131 0.06098
 N245 N 0.45374 0.55330 0.08423
 N246 N 0.43364 0.53324 0.03646
 N247 N 0.41003 0.55665 0.04239
 N248 N 0.45841 0.46826 0.06090
 N249 N 0.45203 0.44731 0.08433
 Mn250 Mn 0.49827 0.49700 0.06130
 C251 C 0.42095 0.43630 0.07224
 C252 C 0.42322 0.56898 0.07209
 N253 N 0.56318 0.46105 -0.04007
 N254 N 0.58876 0.43947 -0.04753
 N255 N 0.53837 0.52604 -0.06435
 N256 N 0.54378 0.54827 -0.08642
 N257 N 0.56373 0.52405 -0.03967
 N258 N 0.58712 0.54483 -0.04419
 N259 N 0.53783 0.46295 -0.06481
 N260 N 0.54551 0.44269 -0.08978
 Mn261 Mn 0.56368 0.49240 -0.00175
 C262 C 0.57698 0.42799 -0.07826
 C263 C 0.57421 0.55971 -0.07333
 N264 N 0.43390 0.53334 -0.03997
 N265 N 0.41075 0.55712 -0.04538
 N266 N 0.45868 0.46850 -0.06478
 N267 N 0.45259 0.44737 -0.08808
 N268 N 0.43310 0.47026 -0.04028
 N269 N 0.40889 0.45034 -0.04625
 N270 N 0.45949 0.53151 -0.06444
 N271 N 0.45452 0.55395 -0.08713
 Mn272 Mn 0.43293 0.50175 -0.00189
 Mn273 Mn 0.49855 0.49723 -0.06497
 Cl274 Cl 0.49834 0.49702 -0.00183
 C275 C 0.42424 0.56974 -0.07470
 C276 C 0.42163 0.43620 -0.07598
 C277 C 1.20366 0.20856 0.18455
 C278 C 1.18532 0.19218 0.16791
 C279 C 1.16369 0.17172 0.14921
 C280 C 1.12963 0.16499 0.16277
 C281 C 1.10973 0.14345 0.14609
 C282 C 1.12383 0.12856 0.11580
 C283 C 1.15761 0.13565 0.10191
 C284 C 1.17751 0.15719 0.11859
 C285 C 1.10448 0.10514 0.09981
 C286 C 1.08897 0.08508 0.08650
 H287 H 1.11880 0.17597 0.18656
 H288 H 1.08370 0.13805 0.15712
 H289 H 1.16881 0.12419 0.07857
 H290 H 1.20392 0.16209 0.10802
 C291 C 1.20491 0.70915 0.68357
 C292 C 1.18637 0.69293 0.66704
 C293 C 1.16436 0.67266 0.64868
 C294 C 1.13021 0.66650 0.66249
 C295 C 1.11004 0.64487 0.64641
 C296 C 1.12402 0.62936 0.61651
 C297 C 1.15783 0.63595 0.60229
 C298 C 1.17801 0.65757 0.61838
 C299 C 1.10464 0.60567 0.60140
 C300 C 1.08928 0.58530 0.58875
 H301 H 1.11958 0.67793 0.68608
 H302 H 1.08398 0.63982 0.65767
 H303 H 1.16891 0.62396 0.57924
 H304 H 1.20451 0.66204 0.60768
 C305 C 0.70639 0.20989 0.68450
 C306 C 0.68822 0.19348 0.66769
 C307 C 0.66683 0.17288 0.64893
 C308 C 0.63204 0.16706 0.66148
 C309 C 0.61240 0.14524 0.64502
 C310 C 0.62750 0.12914 0.61597
 C311 C 0.66201 0.13534 0.60304
 C312 C 0.68165 0.15715 0.61950
 C313 C 0.60837 0.10542 0.60036
 C314 C 0.59301 0.08511 0.58742
 H315 H 0.62045 0.17894 0.68438
 H316 H 0.58580 0.14055 0.65530
 H317 H 0.67399 0.12294 0.58067
 H318 H 0.70864 0.16132 0.60975
 C319 C 0.70482 0.70780 0.18328
 C320 C 0.68650 0.69147 0.16664
 C321 C 0.66486 0.67109 0.14794
 C322 C 0.63095 0.66421 0.16169
 C323 C 0.61111 0.64263 0.14508
 C324 C 0.62515 0.62787 0.11470
 C325 C 0.65875 0.63515 0.10058
 C326 C 0.67860 0.65672 0.11720
 C327 C 0.60603 0.60430 0.09892
 C328 C 0.59077 0.58407 0.08579
 H329 H 0.62023 0.67508 0.18559
 H330 H 0.58522 0.63706 0.15626
 H331 H 0.66989 0.62376 0.07717
 H332 H 0.70491 0.66177 0.10651
 C333 C 0.79293 -0.21314 0.18922
 C334 C 0.81030 -0.19428 0.17575
 C335 C 0.83030 -0.17175 0.15874
 C336 C 0.85477 -0.17985 0.13121
 C337 C 0.87301 -0.15779 0.11360
 C338 C 0.86683 -0.12752 0.12342
 C339 C 0.84256 -0.11944 0.15112
 C340 C 0.82431 -0.14151 0.16872
 C341 C 0.88515 -0.10473 0.10498
 C342 C 0.90040 -0.08548 0.08974
 H343 H 0.85947 -0.20315 0.12315
 H344 H 0.89172 -0.16429 0.09222
 H345 H 0.83757 -0.09611 0.15893
 H346 H 0.80533 -0.13497 0.18986
 C347 C 0.79152 0.28714 0.69276
 C348 C 0.80879 0.30624 0.67951
 C349 C 0.82884 0.32893 0.66271
 C350 C 0.85900 0.32050 0.64104
 C351 C 0.87758 0.34247 0.62356
 C352 C 0.86608 0.37299 0.62760
 C353 C 0.83607 0.38143 0.64944
 C354 C 0.81749 0.35946 0.66692
 C355 C 0.88488 0.39563 0.60921
 C356 C 0.90050 0.41471 0.59394
 H357 H 0.86794 0.29697 0.63743
 H358 H 0.90074 0.33565 0.60675
 H359 H 0.82690 0.40494 0.65277
 H360 H 0.79411 0.36626 0.68345
 C361 C 0.29416 -0.21266 0.69028
 C362 C 0.31222 -0.19411 0.67715
 C363 C 0.33305 -0.17190 0.66061
 C364 C 0.33099 -0.14238 0.67361
 C365 C 0.34991 -0.12047 0.65651
 C366 C 0.37095 -0.12798 0.62634
 C367 C 0.37327 -0.15756 0.61353
 C368 C 0.35435 -0.17947 0.63063
 C369 C 0.38958 -0.10523 0.60821
 C370 C 0.40492 -0.08598 0.59310
 H371 H 0.31447 -0.13626 0.69668
 H372 H 0.34789 -0.09766 0.66661
 H373 H 0.38942 -0.16359 0.59020
 H374 H 0.35600 -0.20220 0.62027
 C375 C 0.29243 0.28735 0.19060
 C376 C 0.31006 0.30606 0.17705
 C377 C 0.33042 0.32839 0.15992
 C378 C 0.35718 0.31967 0.13462
 C379 C 0.37588 0.34142 0.11687
 C380 C 0.36790 0.37202 0.12430
 C381 C 0.34130 0.38072 0.14977
 C382 C 0.32261 0.35898 0.16751
 C383 C 0.38672 0.39448 0.10566
 C384 C 0.40236 0.41345 0.09022
 H385 H 0.36334 0.29610 0.12838
 H386 H 0.39636 0.33440 0.09724
 H387 H 0.33487 0.40431 0.15575
 H388 H 0.30186 0.36601 0.18689
 C389 C 0.79647 0.21514 -0.22418
 C390 C 0.81464 0.20176 -0.20172
 C391 C 0.83518 0.18354 -0.17596
 C392 C 0.87171 0.17344 -0.18277
 C393 C 0.89006 0.15232 -0.16032
 C394 C 0.87197 0.14114 -0.13099
 C395 C 0.83580 0.15191 -0.12358
 C396 C 0.81744 0.17304 -0.14603
 C397 C 0.88953 0.11702 -0.11024
 C398 C 0.90408 0.09610 -0.09393
 H399 H 0.88556 0.18109 -0.20607
 H400 H 0.91794 0.14401 -0.16647
 H401 H 0.82143 0.14328 -0.10114
 H402 H 0.78905 0.18038 -0.14074
 C403 C 0.79742 0.71244 0.27747
 C404 C 0.81556 0.69951 0.30024
 C405 C 0.83600 0.68204 0.32664
 C406 C 0.87274 0.67226 0.32050
 C407 C 0.89110 0.65183 0.34374
 C408 C 0.87277 0.64107 0.37317
 C409 C 0.83639 0.65160 0.37992
 C410 C 0.81804 0.67204 0.35669
 C411 C 0.89024 0.61736 0.39447
 C412 C 0.90479 0.59662 0.41101
 H413 H 0.88676 0.67957 0.29713
 H414 H 0.91914 0.64365 0.33812
 H415 H 0.82186 0.64325 0.40242
 H416 H 0.78950 0.67919 0.36146
 C417 C 0.29715 0.21244 0.27806
 C418 C 0.31584 0.19898 0.30007
 C419 C 0.33693 0.18082 0.32549
 C420 C 0.37293 0.16992 0.31754
 C421 C 0.39170 0.14902 0.33998
 C422 C 0.37455 0.13887 0.37043
 C423 C 0.33893 0.15042 0.37891
 C424 C 0.32016 0.17132 0.35648
 C425 C 0.39245 0.11505 0.39139
 C426 C 0.40725 0.09437 0.40792
 H427 H 0.38601 0.17680 0.29345
 H428 H 0.41914 0.14011 0.33302
 H429 H 0.32530 0.14259 0.40224
 H430 H 0.29219 0.17930 0.36268
 C431 C 0.29782 0.71307 -0.22242
 C432 C 0.31643 0.69995 -0.20016
 C433 C 0.33745 0.68221 -0.17444
 C434 C 0.37364 0.67164 -0.18198
 C435 C 0.39233 0.65086 -0.15939
 C436 C 0.37486 0.64055 -0.12922
 C437 C 0.33909 0.65186 -0.12106
 C438 C 0.32041 0.67264 -0.14364
 C439 C 0.39245 0.61650 -0.10853
 C440 C 0.40695 0.59551 -0.09242
 H441 H 0.38691 0.67860 -0.20594
 H442 H 0.41989 0.64207 -0.16609
 H443 H 0.32523 0.64385 -0.09795
 H444 H 0.29227 0.68039 -0.13780
 C445 C 1.20886 -0.21278 -0.22393
 C446 C 1.19386 -0.19545 -0.20316
 C447 C 1.17463 -0.17495 -0.17903
 C448 C 1.18483 -0.14545 -0.17567
 C449 C 1.16468 -0.12506 -0.15374
 C450 C 1.13427 -0.13410 -0.13515
 C451 C 1.12435 -0.16371 -0.13817
 C452 C 1.14450 -0.18410 -0.16009
 C453 C 1.11268 -0.11270 -0.11391
 C454 C 1.09474 -0.09425 -0.09666
 H455 H 1.20796 -0.13813 -0.19036
 H456 H 1.17250 -0.10218 -0.15163
 H457 H 1.10082 -0.17088 -0.12397
 H458 H 1.13630 -0.20684 -0.16269
 C459 C 1.20796 0.28710 0.27692
 C460 C 1.19308 0.30469 0.29755
 C461 C 1.17405 0.32552 0.32158
 C462 C 1.18248 0.35562 0.32254
 C463 C 1.16259 0.37616 0.34456
 C464 C 1.13416 0.36668 0.36567
 C465 C 1.12599 0.33651 0.36500
 C466 C 1.14589 0.31597 0.34299
 C467 C 1.11287 0.38812 0.38728
 C468 C 1.09514 0.40650 0.40490
 H469 H 1.20407 0.36328 0.30598
 H470 H 1.16909 0.39946 0.34482
 H471 H 1.10403 0.32895 0.38115
 H472 H 1.13902 0.29277 0.34232
 C473 C 0.70880 -0.21405 0.27592
 C474 C 0.69411 -0.19686 0.29705
 C475 C 0.67541 -0.17651 0.32171
 C476 C 0.68786 -0.14799 0.32753
 C477 C 0.66842 -0.12766 0.35009
 C478 C 0.63649 -0.13578 0.36687
 C479 C 0.62431 -0.16443 0.36140
 C480 C 0.64375 -0.18477 0.33885
 C481 C 0.61554 -0.11426 0.38853
 C482 C 0.59799 -0.09572 0.40600
 H483 H 0.71222 -0.14135 0.31428
 H484 H 0.67798 -0.10549 0.35406
 H485 H 0.59958 -0.17088 0.37415
 H486 H 0.63383 -0.20673 0.33439
 C487 C 0.71193 0.28585 -0.22539
 C488 C 0.69700 0.30354 -0.20489
 C489 C 0.67784 0.32447 -0.18105
 C490 C 0.68492 0.35490 -0.18147
 C491 C 0.66477 0.37547 -0.15970
 C492 C 0.63741 0.36572 -0.13745
 C493 C 0.63060 0.33523 -0.13674
 C494 C 0.65076 0.31466 -0.15851
 C495 C 0.61585 0.38714 -0.11603
 C496 C 0.59790 0.40549 -0.09855
 H497 H 0.70564 0.36276 -0.19893
 H498 H 0.67022 0.39900 -0.16051
 H499 H 0.60948 0.32745 -0.11970
 H500 H 0.64492 0.29120 -0.15811
 C501 C 1.20623 0.20848 -0.18294
 C502 C 1.18763 0.19213 -0.16667
 C503 C 1.16549 0.17173 -0.14859
 C504 C 1.17880 0.15669 -0.11811
 C505 C 1.15841 0.13515 -0.10214
 C506 C 1.12468 0.12857 -0.11663
 C507 C 1.11107 0.14398 -0.14676
 C508 C 1.13146 0.16553 -0.16272
 C509 C 1.10494 0.10510 -0.10143
 C510 C 1.08926 0.08495 -0.08863
 H511 H 1.20519 0.16119 -0.10712
 H512 H 1.16922 0.12326 -0.07890
 H513 H 1.08509 0.13898 -0.15824
 H514 H 1.12106 0.17693 -0.18644
 C515 C 1.20465 0.70827 0.31557
 C516 C 1.18654 0.69177 0.33227
 C517 C 1.16515 0.67119 0.35106
 C518 C 1.17959 0.65613 0.38112
 C519 C 1.15982 0.63456 0.39788
 C520 C 1.12557 0.62794 0.38463
 C521 C 1.11090 0.64332 0.35488
 C522 C 1.13066 0.66490 0.33812
 C523 C 1.10623 0.60458 0.40075
 C524 C 1.09063 0.58462 0.41414
 H525 H 1.20633 0.66069 0.39120
 H526 H 1.17148 0.62273 0.42080
 H527 H 1.08451 0.63830 0.34434
 H528 H 1.11935 0.67627 0.31476
 C529 C 0.70546 0.20819 0.31602
 C530 C 0.68719 0.19175 0.33251
 C531 C 0.66565 0.17124 0.35104
 C532 C 0.67915 0.15724 0.38211
 C533 C 0.65943 0.13555 0.39862
 C534 C 0.62620 0.12780 0.38409
 C535 C 0.61239 0.14218 0.35337
 C536 C 0.63211 0.16387 0.33686
 C537 C 0.60722 0.10416 0.39983
 C538 C 0.59207 0.08388 0.41295
 H539 H 0.70518 0.16266 0.39314
 H540 H 0.67039 0.12446 0.42231
 H541 H 0.58679 0.13623 0.34186
 H542 H 0.62158 0.17445 0.31270
 C543 C 0.70555 0.70932 -0.18500
 C544 C 0.68725 0.69282 -0.16848
 C545 C 0.66571 0.67211 -0.15006
 C546 C 0.67979 0.65703 -0.11987
 C547 C 0.66006 0.63517 -0.10362
 C548 C 0.62619 0.62826 -0.11752
 C549 C 0.61182 0.64369 -0.14736
 C550 C 0.63155 0.66556 -0.16361
 C551 C 0.60699 0.60453 -0.10198
 C552 C 0.59160 0.58425 -0.08901
 H553 H 0.70629 0.66176 -0.10932
 H554 H 0.67148 0.62331 -0.08062
 H555 H 0.58572 0.63846 -0.15841
 H556 H 0.62052 0.67693 -0.18709
 C557 C 0.79105 -0.21353 -0.19221
 C558 C 0.80842 -0.19454 -0.17882
 C559 C 0.82864 -0.17195 -0.16191
 C560 C 0.82382 -0.14186 -0.17283
 C561 C 0.84247 -0.11981 -0.15551
 C562 C 0.86602 -0.12771 -0.12714
 C563 C 0.87101 -0.15783 -0.11637
 C564 C 0.85236 -0.17987 -0.13368
 C565 C 0.88475 -0.10490 -0.10892
 C566 C 0.90028 -0.08569 -0.09374
 H567 H 0.80545 -0.13542 -0.19451
 H568 H 0.83835 -0.09661 -0.16409
 H569 H 0.88911 -0.16424 -0.09447
 H570 H 0.85622 -0.20303 -0.12488
 C571 C 0.79421 0.28676 0.31097
 C572 C 0.81174 0.30544 0.32462
 C573 C 0.83186 0.32782 0.34179
 C574 C 0.83097 0.35705 0.32804
 C575 C 0.84921 0.37913 0.34564
 C576 C 0.86838 0.37208 0.37707
 C577 C 0.86951 0.34279 0.39067
 C578 C 0.85127 0.32071 0.37307
 C579 C 0.88654 0.39498 0.39548
 C580 C 0.90165 0.41435 0.41068
 H581 H 0.81591 0.36282 0.30396
 H582 H 0.84816 0.40171 0.33489
 H583 H 0.88425 0.33710 0.41496
 H584 H 0.85200 0.29821 0.38402
 C585 C 0.29327 -0.21283 0.30928
 C586 C 0.31099 -0.19418 0.32288
 C587 C 0.33147 -0.17195 0.34014
 C588 C 0.35300 -0.17986 0.36993
 C589 C 0.37172 -0.15807 0.38762
 C590 C 0.36899 -0.12823 0.37566
 C591 C 0.34766 -0.12036 0.34573
 C592 C 0.32893 -0.14215 0.32804
 C593 C 0.38779 -0.10565 0.39420
 C594 C 0.40344 -0.08661 0.40954
 H595 H 0.35506 -0.20279 0.37965
 H596 H 0.38811 -0.16445 0.41071
 H597 H 0.34531 -0.09736 0.33621
 H598 H 0.31225 -0.13572 0.30515
 C599 C 0.29390 0.28548 -0.19150
 C600 C 0.31144 0.30436 -0.17822
 C601 C 0.33176 0.32692 -0.16157
 C602 C 0.32433 0.35733 -0.17025
 C603 C 0.34304 0.37935 -0.15304
 C604 C 0.36925 0.37108 -0.12703
 C605 C 0.37687 0.34065 -0.11853
 C606 C 0.35816 0.31862 -0.13574
 C607 C 0.38795 0.39383 -0.10885
 C608 C 0.40340 0.41306 -0.09371
 H609 H 0.30387 0.36402 -0.19006
 H610 H 0.33690 0.40281 -0.15982
 H611 H 0.39706 0.33398 -0.09846
 H612 H 0.36403 0.29519 -0.12871
 C613 C 1.20792 -0.21279 0.22351
 C614 C 1.19283 -0.19516 0.20302
 C615 C 1.17359 -0.17430 0.17913
 C616 C 1.14523 -0.18380 0.15791
 C617 C 1.12522 -0.16325 0.13598
 C618 C 1.13347 -0.13309 0.13518
 C619 C 1.16208 -0.12366 0.15613
 C620 C 1.18209 -0.14421 0.17807
 C621 C 1.11212 -0.11165 0.11358
 C622 C 1.09437 -0.09328 0.09593
 H623 H 1.13831 -0.20699 0.15865
 H624 H 1.10312 -0.17079 0.11995
 H625 H 1.16866 -0.10037 0.15578
 H626 H 1.20384 -0.13657 0.19448
 C627 C 1.21014 0.28762 0.72561
 C628 C 1.19509 0.30510 0.70499
 C629 C 1.17579 0.32572 0.68097
 C630 C 1.14744 0.31595 0.65994
 C631 C 1.12720 0.33630 0.63799
 C632 C 1.13522 0.36650 0.63703
 C633 C 1.16384 0.37620 0.65776
 C634 C 1.18408 0.35584 0.67971
 C635 C 1.11356 0.38776 0.61557
 C636 C 1.09556 0.40604 0.59809
 H637 H 1.14069 0.29273 0.66088
 H638 H 1.10507 0.32860 0.62214
 H639 H 1.17020 0.39953 0.65725
 H640 H 1.20581 0.36365 0.69601
 C641 C 0.71168 -0.21417 0.72558
 C642 C 0.69689 -0.19629 0.70518
 C643 C 0.67791 -0.17516 0.68143
 C644 C 0.65182 -0.18495 0.65773
 C645 C 0.63183 -0.16422 0.63598
 C646 C 0.63783 -0.13360 0.63785
 C647 C 0.66419 -0.12386 0.66128
 C648 C 0.68417 -0.14458 0.68304
 C649 C 0.61647 -0.11207 0.61635
 C650 C 0.59869 -0.09368 0.59875
 H651 H 0.64660 -0.20851 0.65640
 H652 H 0.61149 -0.17202 0.61801
 H653 H 0.66902 -0.10023 0.66299
 H654 H 0.70412 -0.13673 0.70139
 C655 C 0.70947 0.28772 0.22502
 C656 C 0.69482 0.30549 0.20452
 C657 C 0.67619 0.32658 0.18063
 C658 C 0.66700 0.35617 0.19173
 C659 C 0.64717 0.37633 0.16929
 C660 C 0.63640 0.36698 0.13569
 C661 C 0.64589 0.33747 0.12442
 C662 C 0.66575 0.31728 0.14688
 C663 C 0.61521 0.38767 0.11317
 C664 C 0.59743 0.40559 0.09505
 H665 H 0.67476 0.36352 0.21785
 H666 H 0.63994 0.39910 0.17825
 H667 H 0.63769 0.33003 0.09848
 H668 H 0.67257 0.29439 0.13814
 C669 C 0.79759 0.21338 0.22165
 C670 C 0.81567 0.20052 0.19882
 C671 C 0.83604 0.18306 0.17241
 C672 C 0.81811 0.17337 0.14215
 C673 C 0.83628 0.15277 0.11900
 C674 C 0.87244 0.14179 0.12605
 C675 C 0.89077 0.15226 0.15566
 C676 C 0.87260 0.17284 0.17881
 C677 C 0.88963 0.11785 0.10492
 C678 C 0.90398 0.09692 0.08858
 H679 H 0.78969 0.18086 0.13718
 H680 H 0.82175 0.14464 0.09635
 H681 H 0.91865 0.14371 0.16151
 H682 H 0.88658 0.17989 0.20235
 C683 C 0.79620 0.71485 0.72435
 C684 C 0.81456 0.70151 0.70200
 C685 C 0.83532 0.68332 0.67637
 C686 C 0.81798 0.67324 0.64596
 C687 C 0.83647 0.65215 0.62356
 C688 C 0.87239 0.64100 0.63149
 C689 C 0.89012 0.65177 0.66131
 C690 C 0.87163 0.67284 0.68371
 C691 C 0.89006 0.61694 0.61070
 C692 C 0.90468 0.59608 0.59434
 H693 H 0.78977 0.68087 0.64024
 H694 H 0.82238 0.64386 0.60073
 H695 H 0.91780 0.64317 0.66785
 H696 H 0.88518 0.68016 0.70737
 C697 C 0.29834 0.21301 0.72234
 C698 C 0.31676 0.19997 0.69986
 C699 C 0.33762 0.18231 0.67392
 C700 C 0.32021 0.17226 0.64354
 C701 C 0.33889 0.15159 0.62080
 C702 C 0.37505 0.14089 0.62837
 C703 C 0.39284 0.15169 0.65813
 C704 C 0.37416 0.17234 0.68087
 C705 C 0.39281 0.11700 0.60751
 C706 C 0.40754 0.09616 0.59127
 H707 H 0.29183 0.17954 0.63814
 H708 H 0.32478 0.14322 0.59803
 H709 H 0.42070 0.14338 0.66438
 H710 H 0.38774 0.17968 0.70450
 C711 C 0.29703 0.71256 0.22124
 C712 C 0.31537 0.69911 0.19898
 C713 C 0.33605 0.68090 0.17332
 C714 C 0.31871 0.67111 0.14276
 C715 C 0.33715 0.65016 0.12016
 C716 C 0.37303 0.63888 0.12803
 C717 C 0.39074 0.64932 0.15804
 C718 C 0.37229 0.67025 0.18064
 C719 C 0.39071 0.61502 0.10695
 C720 C 0.40545 0.59433 0.09040
 H721 H 0.29054 0.67889 0.13704
 H722 H 0.32308 0.64211 0.09719
 H723 H 0.41839 0.64060 0.16454
 H724 H 0.38584 0.67736 0.20440
   
