data_POSCAR
  _audit_creation_date              2014-09-24
  _audit_creation_method            'ToBaCCo'
  _symmetry_space_group_name_H-M    'P1'
  _symmetry_Int_Tables_number       1
  _symmetry_cell_setting            triclinic
  loop_
  _symmetry_equiv_pos_as_xyz
 x,y,z
_cell_length_a 41.3881
_cell_length_b 40.6583
_cell_length_c 23.1420
_cell_angle_alpha 89.995600
_cell_angle_beta 89.978300
_cell_angle_gamma 120.498500
loop_
  _atom_site_label
  _atom_site_type_symbol
  _atom_site_fract_x
  _atom_site_fract_y
  _atom_site_fract_z
C1 C 0.42631 0.88501 0.46992
 C2 C 0.42542 0.88472 0.52911
 C3 C 0.45514 0.91956 0.54730
 N4 N 0.47380 0.94129 0.50106
 C5 C 0.45617 0.92016 0.45380
 C6 C 0.46512 0.93054 0.60573
 C7 C 0.49048 0.96905 0.62169
 C8 C 0.50880 0.98041 0.67443
 C9 C 0.52827 1.01954 0.67482
 C10 C 0.52240 1.03146 0.62157
 N11 N 0.49915 1.00033 0.58954
 C12 C 0.53499 1.07001 0.60611
 C13 C 0.53474 1.08144 0.54828
 C14 C 0.54482 1.11811 0.53063
 C15 C 0.54498 1.11801 0.47139
 C16 C 0.53555 1.08152 0.45461
 N17 N 0.52950 1.05933 0.50154
 C18 C 0.53547 1.07007 0.39700
 C19 C 0.52308 1.03196 0.38108
 C20 C 0.53016 1.02087 0.32814
 C21 C 0.51128 0.98165 0.32807
 C22 C 0.49307 0.96988 0.38087
 N23 N 0.50050 1.00071 0.41301
 C24 C 0.46779 0.93157 0.39628
 H25 H 0.40690 0.86213 0.44196
 H26 H 0.40493 0.86158 0.55563
 H27 H 0.48716 1.00030 0.45130
 H28 H 0.50786 0.96240 0.70959
 H29 H 0.54419 1.03683 0.71118
 H30 H 0.55246 1.14285 0.55725
 H31 H 0.55217 1.14232 0.44389
 H32 H 0.51057 0.96382 0.29278
 H33 H 0.48619 1.00033 0.55105
 H34 H 0.54688 1.03915 0.29296
 C35 C -0.11221 0.46548 0.52911
 C36 C -0.11205 0.46536 0.47000
 C37 C -0.07950 0.46618 0.45310
 N38 N -0.05949 0.46726 0.50011
 C39 C -0.07970 0.46648 0.54669
 C40 C -0.06902 0.46536 0.39497
 C41 C -0.03149 0.47685 0.37973
 C42 C -0.02053 0.46832 0.32785
 C43 C 0.01792 0.48737 0.32774
 C44 C 0.02961 0.50617 0.38030
 N45 N -0.00072 0.49958 0.41180
 C46 C 0.06749 0.53078 0.39621
 C47 C 0.07903 0.54166 0.45389
 C48 C 0.11558 0.56670 0.47124
 C49 C 0.11539 0.56672 0.53049
 C50 C 0.07875 0.54167 0.54735
 N51 N 0.05667 0.52616 0.50050
 C52 C 0.06691 0.53086 0.60490
 C53 C 0.02900 0.50665 0.62069
 C54 C 0.01713 0.48834 0.67357
 C55 C -0.02132 0.46967 0.67339
 C56 C -0.03202 0.47778 0.62092
 N57 N -0.00114 0.50005 0.58878
 C58 C -0.06943 0.46621 0.60506
 H59 H -0.13350 0.46565 0.55607
 H60 H -0.13320 0.46543 0.44260
 H61 H -0.00059 0.51352 0.55026
 H62 H -0.03834 0.45052 0.29315
 H63 H 0.03507 0.48730 0.29257
 H64 H 0.14009 0.58253 0.44425
 H65 H 0.13966 0.58261 0.55791
 H66 H -0.03932 0.45233 0.70831
 H67 H -0.00037 0.51338 0.44985
 H68 H 0.03429 0.48842 0.70889
 C69 C 0.57678 0.46416 0.47066
 C70 C 0.57707 0.46440 0.52984
 C71 C 0.54667 0.46758 0.54747
 N72 N 0.52828 0.46998 0.50087
 C73 C 0.54673 0.46795 0.45398
 C74 C 0.53579 0.46727 0.60572
 C75 C 0.50955 0.47855 0.62138
 C76 C 0.49085 0.47028 0.67386
 C77 C 0.47067 0.48852 0.67429
 C78 C 0.47620 0.50652 0.62108
 N79 N 0.50019 0.50035 0.58923
 C80 C 0.46243 0.53109 0.60539
 C81 C 0.46176 0.54207 0.54731
 C82 C 0.44861 0.56581 0.52941
 C83 C 0.44872 0.56565 0.47023
 C84 C 0.46162 0.54164 0.45354
 N85 N 0.46916 0.52697 0.50063
 C86 C 0.46320 0.53127 0.39577
 C87 C 0.47787 0.50791 0.37939
 C88 C 0.47389 0.49185 0.32505
 C89 C 0.49416 0.47360 0.32533
 C90 C 0.51025 0.47926 0.37964
 N91 N 0.50025 0.50024 0.41227
 C92 C 0.53586 0.46775 0.39618
 H93 H 0.59671 0.46194 0.44304
 H94 H 0.59758 0.46276 0.55672
 H95 H 0.51177 0.51246 0.45197
 H96 H 0.49197 0.45329 0.70893
 H97 H 0.45448 0.48869 0.71073
 H98 H 0.43847 0.58064 0.55579
 H99 H 0.43920 0.58058 0.44276
 H100 H 0.49727 0.45849 0.28923
 H101 H 0.51312 0.51410 0.55093
 H102 H 0.45848 0.49352 0.28851
 O103 O 0.38599 0.66472 -0.06691
 O104 O 0.38805 0.72910 -0.05012
 C105 C 0.36483 0.73481 -0.07785
 O106 O 0.33015 0.71778 -0.06605
 O107 O 0.26645 0.65488 -0.04858
 C108 C 0.26049 0.62548 -0.07679
 O109 O 0.27716 0.60730 -0.06587
 O110 O 0.33852 0.60569 -0.05049
 C111 C 0.36758 0.62940 -0.07844
 O112 O 0.38777 0.65478 0.04777
 O113 O 0.38688 0.71770 0.06503
 C114 C 0.36933 0.73490 0.07676
 O115 O 0.34045 0.72927 0.04897
 O116 O 0.27817 0.66493 0.06598
 C117 C 0.26138 0.62962 0.07763
 O118 O 0.26676 0.60583 0.04989
 O119 O 0.32961 0.60732 0.06523
 C120 C 0.36441 0.62548 0.07615
 Cr121 Cr 0.38501 0.69051 -0.00101
 Cr122 Cr 0.30490 0.69063 0.00004
 Cr123 Cr 0.30409 0.60868 -0.00032
 O124 O 0.33132 0.66326 -0.00044
 O125 O 0.61458 0.33567 -0.06641
 O126 O 0.61202 0.27103 -0.04830
 C127 C 0.63510 0.26595 -0.07771
 O128 O 0.66995 0.28360 -0.06729
 O129 O 0.73351 0.34603 -0.04947
 C130 C 0.73908 0.37526 -0.07782
 O131 O 0.72251 0.39348 -0.06632
 O132 O 0.66099 0.39493 -0.04829
 C133 C 0.63241 0.37115 -0.07719
 O134 O 0.61307 0.34631 0.04843
 O135 O 0.61410 0.28359 0.06646
 C136 C 0.63137 0.26595 0.07709
 O137 O 0.65960 0.27104 0.04786
 O138 O 0.72173 0.33532 0.06562
 C139 C 0.73921 0.37071 0.07696
 O140 O 0.73434 0.39464 0.04853
 O141 O 0.67139 0.39306 0.06668
 C142 C 0.63655 0.37519 0.07747
 Cr143 Cr 0.61551 0.31021 0.00002
 Cr144 Cr 0.69520 0.31005 -0.00078
 Cr145 Cr 0.69625 0.39192 0.00013
 O146 O 0.66902 0.33742 -0.00022
 C147 C 0.42112 0.84633 -0.26221
 C148 C 0.43696 0.84072 -0.31217
 C149 C 0.45102 0.86817 -0.35599
 C150 C 0.45006 0.90219 -0.35049
 C151 C 0.43421 0.90766 -0.30012
 C152 C 0.41968 0.87994 -0.25674
 C153 C 0.40646 0.81738 -0.21558
 C154 C 0.37124 0.80544 -0.19077
 C155 C 0.35752 0.77832 -0.14647
 C156 C 0.37902 0.76301 -0.12550
 C157 C 0.41432 0.77505 -0.15033
 C158 C 0.42778 0.80177 -0.19519
 H159 H 0.46362 0.86326 -0.39357
 H160 H 0.43249 0.93320 -0.29475
 H161 H 0.33026 0.76967 -0.12818
 H162 H 0.43147 0.76367 -0.13529
 H163 H 0.40778 0.88501 -0.21844
 H164 H 0.35417 0.81687 -0.20606
 H165 H 0.43825 0.81495 -0.31745
 H166 H 0.45514 0.81074 -0.21336
 C167 C 0.15048 0.57138 -0.26112
 C168 C 0.13509 0.53406 -0.28300
 C169 C 0.10822 0.52098 -0.32693
 C170 C 0.09582 0.54473 -0.34913
 C171 C 0.11107 0.58193 -0.32780
 C172 C 0.13830 0.59524 -0.28446
 C173 C 0.17884 0.58529 -0.21393
 C174 C 0.17918 0.61003 -0.17112
 C175 C 0.20584 0.62327 -0.12694
 C176 C 0.23249 0.61166 -0.12395
 C177 C 0.23209 0.58675 -0.16639
 C178 C 0.20573 0.57390 -0.21106
 H179 H 0.09668 0.49217 -0.34315
 H180 H 0.10196 0.60069 -0.34500
 H181 H 0.20522 0.64219 -0.09458
 H182 H 0.25250 0.57756 -0.16552
 H183 H 0.15004 0.62435 -0.26965
 H184 H 0.15848 0.61881 -0.17117
 H185 H 0.14332 0.51469 -0.26557
 H186 H 0.20678 0.55545 -0.24378
 C187 C 0.42063 0.57270 -0.26347
 C188 C 0.40278 0.53335 -0.27546
 C189 C 0.41610 0.51961 -0.31921
 C190 C 0.44826 0.54471 -0.35102
 C191 C 0.46589 0.58404 -0.33956
 C192 C 0.45210 0.59787 -0.29672
 C193 C 0.40679 0.58741 -0.21627
 C194 C 0.43202 0.61979 -0.18410
 C195 C 0.41917 0.63369 -0.13995
 C196 C 0.38091 0.61506 -0.12594
 C197 C 0.35563 0.58258 -0.15746
 C198 C 0.36835 0.56915 -0.20254
 H199 H 0.40123 0.48927 -0.32827
 H200 H 0.49056 0.60410 -0.36373
 H201 H 0.43931 0.65858 -0.11589
 H202 H 0.32590 0.56794 -0.14787
 H203 H 0.46608 0.62840 -0.29002
 H204 H 0.46188 0.63416 -0.19223
 H205 H 0.37875 0.51295 -0.25059
 H206 H 0.34791 0.54469 -0.22698
 C207 C 0.57811 0.15453 -0.26292
 C208 C 0.59721 0.13547 -0.27865
 C209 C 0.58318 0.10782 -0.32214
 C210 C 0.54949 0.09825 -0.35046
 C211 C 0.53059 0.11756 -0.33529
 C212 C 0.54476 0.14540 -0.29206
 C213 C 0.59274 0.18351 -0.21596
 C214 C 0.56805 0.18603 -0.17690
 C215 C 0.58177 0.21293 -0.13233
 C216 C 0.62054 0.23778 -0.12545
 C217 C 0.64526 0.23536 -0.16456
 C218 C 0.63151 0.20863 -0.20938
 H219 H 0.59866 0.09385 -0.33376
 H220 H 0.50464 0.11081 -0.35664
 H221 H 0.56197 0.21391 -0.10282
 H222 H 0.67528 0.25429 -0.16078
 H223 H 0.52970 0.15998 -0.28175
 H224 H 0.53808 0.16674 -0.18012
 H225 H 0.62275 0.14150 -0.25676
 H226 H 0.65129 0.20792 -0.23925
 C227 C 0.84775 0.42849 -0.26321
 C228 C 0.84091 0.40719 -0.31411
 C229 C 0.86790 0.41987 -0.35786
 C230 C 0.90270 0.45386 -0.35126
 C231 C 0.90930 0.47511 -0.30004
 C232 C 0.88204 0.46271 -0.25677
 C233 C 0.81942 0.41475 -0.21646
 C234 C 0.80937 0.43950 -0.19051
 C235 C 0.78291 0.42658 -0.14593
 C236 C 0.76650 0.38882 -0.12579
 C237 C 0.77666 0.36411 -0.15177
 C238 C 0.80265 0.37688 -0.19696
 H239 H 0.86199 0.40245 -0.39621
 H240 H 0.93540 0.50178 -0.29388
 H241 H 0.77568 0.44628 -0.12670
 H242 H 0.76434 0.33481 -0.13739
 H243 H 0.88799 0.47955 -0.21778
 H244 H 0.82177 0.46877 -0.20510
 H245 H 0.81457 0.38077 -0.32012
 H246 H 0.81016 0.35735 -0.21606
 C247 C 0.57896 0.42758 -0.26196
 C248 C 0.56509 0.40693 -0.31358
 C249 C 0.55116 0.42008 -0.35723
 C250 C 0.55072 0.45430 -0.35045
 C251 C 0.56494 0.47505 -0.29876
 C252 C 0.57888 0.46187 -0.25516
 C253 C 0.59298 0.41313 -0.21506
 C254 C 0.62516 0.43826 -0.18338
 C255 C 0.63804 0.42466 -0.13880
 C256 C 0.61901 0.38559 -0.12483
 C257 C 0.58690 0.36045 -0.15673
 C258 C 0.57404 0.37406 -0.20128
 H259 H 0.53980 0.40289 -0.39581
 H260 H 0.56569 0.50182 -0.29232
 H261 H 0.66295 0.44481 -0.11531
 H262 H 0.57149 0.33020 -0.14709
 H263 H 0.58909 0.47828 -0.21568
 H264 H 0.64064 0.46844 -0.19347
 H265 H 0.56509 0.38058 -0.32035
 H266 H 0.54887 0.35405 -0.22435
 C267 C 0.84841 0.42613 0.26237
 C268 C 0.88327 0.45963 0.25485
 C269 C 0.91029 0.47264 0.29849
 C270 C 0.90322 0.45251 0.35097
 C271 C 0.86801 0.41914 0.35851
 C272 C 0.84104 0.40611 0.31476
 C273 C 0.82004 0.41190 0.21543
 C274 C 0.79918 0.37275 0.20245
 C275 C 0.77292 0.35938 0.15765
 C276 C 0.76686 0.38486 0.12479
 C277 C 0.78757 0.42401 0.13807
 C278 C 0.81387 0.43736 0.18282
 H279 H 0.93665 0.49890 0.29146
 H280 H 0.86165 0.40246 0.39777
 H281 H 0.75750 0.32905 0.14863
 H282 H 0.78352 0.44443 0.11384
 H283 H 0.81429 0.38039 0.32204
 H284 H 0.80363 0.35248 0.22632
 H285 H 0.88989 0.47556 0.21481
 H286 H 0.82916 0.46763 0.19229
 C287 C 0.57707 0.15468 0.26230
 C288 C 0.53877 0.12683 0.26529
 C289 C 0.52535 0.09941 0.30913
 C290 C 0.54991 0.09950 0.35089
 C291 C 0.58813 0.12721 0.34819
 C292 C 0.60163 0.15456 0.30418
 C293 C 0.59130 0.18359 0.21543
 C294 C 0.62489 0.19337 0.18661
 C295 C 0.63792 0.22010 0.14175
 C296 C 0.61773 0.23780 0.12492
 C297 C 0.58429 0.22823 0.15418
 C298 C 0.57118 0.20135 0.19880
 H299 H 0.49579 0.07806 0.31055
 H300 H 0.60743 0.12754 0.38010
 H301 H 0.66381 0.22684 0.12023
 H302 H 0.56808 0.24137 0.14247
 H303 H 0.63120 0.17587 0.30325
 H304 H 0.64078 0.17985 0.19812
 H305 H 0.51930 0.12592 0.23321
 H306 H 0.54544 0.19471 0.22072
 C307 C 0.58071 0.42860 0.26283
 C308 C 0.59022 0.46705 0.26492
 C309 C 0.57578 0.47982 0.30840
 C310 C 0.55179 0.45441 0.35063
 C311 C 0.54256 0.41613 0.34911
 C312 C 0.55681 0.40329 0.30548
 C313 C 0.59522 0.41479 0.21583
 C314 C 0.57141 0.38000 0.18799
 C315 C 0.58483 0.36718 0.14313
 C316 C 0.62246 0.38877 0.12528
 C317 C 0.64635 0.42347 0.15348
 C318 C 0.63283 0.43640 0.19811
 H319 H 0.58313 0.50946 0.30904
 H320 H 0.52409 0.39620 0.38149
 H321 H 0.56568 0.34031 0.12243
 H322 H 0.67548 0.44078 0.14088
 H323 H 0.54936 0.37362 0.30529
 H324 H 0.54220 0.36296 0.20031
 H325 H 0.60826 0.48708 0.23230
 H326 H 0.65190 0.46314 0.21922
 C327 C 0.15180 0.57319 0.26266
 C328 C 0.14162 0.59748 0.29038
 C329 C 0.11401 0.58350 0.33319
 C330 C 0.09664 0.54522 0.35038
 C331 C 0.10734 0.52107 0.32437
 C332 C 0.13419 0.53471 0.28034
 C333 C 0.18028 0.58783 0.21531
 C334 C 0.20345 0.57223 0.20575
 C335 C 0.22951 0.58551 0.16059
 C336 C 0.23376 0.61537 0.12500
 C337 C 0.21125 0.63145 0.13478
 C338 C 0.18446 0.61750 0.17882
 H339 H 0.10638 0.60263 0.35343
 H340 H 0.09437 0.49146 0.33751
 H341 H 0.24689 0.57294 0.15415
 H342 H 0.21377 0.65425 0.10739
 H343 H 0.14058 0.51483 0.25964
 H344 H 0.20187 0.55005 0.23349
 H345 H 0.15513 0.62746 0.27948
 H346 H 0.16665 0.62968 0.18346
 C347 C 0.42488 0.84666 0.26154
 C348 C 0.41903 0.87784 0.25964
 C349 C 0.43277 0.90522 0.30352
 C350 C 0.45284 0.90214 0.34998
 C351 C 0.45878 0.87112 0.35209
 C352 C 0.44485 0.84358 0.30841
 C353 C 0.41043 0.81765 0.21464
 C354 C 0.43165 0.80173 0.19482
 C355 C 0.41823 0.77473 0.15037
 C356 C 0.38336 0.76316 0.12441
 C357 C 0.36209 0.77900 0.14430
 C358 C 0.37542 0.80583 0.18898
 H359 H 0.42790 0.92897 0.30118
 H360 H 0.47423 0.86828 0.38761
 H361 H 0.43541 0.76324 0.13593
 H362 H 0.33499 0.77052 0.12557
 H363 H 0.44938 0.81966 0.31165
 H364 H 0.45897 0.81061 0.21299
 H365 H 0.40429 0.88142 0.22379
 H366 H 0.35807 0.81702 0.20384
 C367 C 0.42016 0.57171 0.26145
 C368 C 0.45559 0.59599 0.28615
 C369 C 0.46950 0.58275 0.32969
 C370 C 0.44812 0.54518 0.34983
 C371 C 0.41257 0.52097 0.32620
 C372 C 0.39879 0.53402 0.28213
 C373 C 0.40577 0.58556 0.21404
 C374 C 0.36739 0.57343 0.21016
 C375 C 0.35392 0.58620 0.16526
 C376 C 0.37857 0.61175 0.12356
 C377 C 0.41694 0.62409 0.12757
 C378 C 0.43033 0.61097 0.17203
 H379 H 0.49690 0.60183 0.34792
 H380 H 0.39577 0.49185 0.34142
 H381 H 0.32423 0.57642 0.16364
 H382 H 0.43661 0.64354 0.09585
 H383 H 0.37168 0.51435 0.26361
 H384 H 0.34775 0.55442 0.24226
 H385 H 0.47249 0.62536 0.27221
 H386 H 0.45992 0.62036 0.17293
   
