data_POSCAR
  _audit_creation_date              2014-09-24
  _audit_creation_method            'ToBaCCo'
  _symmetry_space_group_name_H-M    'P1'
  _symmetry_Int_Tables_number       1
  _symmetry_cell_setting            triclinic
  loop_
  _symmetry_equiv_pos_as_xyz
 x,y,z
_cell_length_a 40.0208
_cell_length_b 39.3127
_cell_length_c 39.3017
_cell_angle_alpha 93.632500
_cell_angle_beta 92.764400
_cell_angle_gamma 92.156900
loop_
  _atom_site_label
  _atom_site_type_symbol
  _atom_site_fract_x
  _atom_site_fract_y
  _atom_site_fract_z
C1 C 0.67564 0.65925 0.95632
 H2 H 0.67584 0.63197 0.95066
 C3 C 0.65106 0.67816 0.94092
 H4 H 0.63224 0.66494 0.92376
 C5 C 0.69885 0.70880 0.98764
 H6 H 0.71725 0.72036 1.00636
 C7 C 0.67446 0.72870 0.97303
 H8 H 0.67426 0.75570 0.98045
 N9 N 0.69875 0.67471 0.97926
 C10 C 0.77300 0.67384 1.05556
 H11 H 0.75572 0.66196 1.07187
 C12 C 0.80258 0.68977 1.07001
 H13 H 0.80792 0.68963 1.09728
 C14 C 0.78724 0.68877 1.00051
 H15 H 0.78106 0.68877 0.97352
 C16 C 0.81712 0.70488 1.01386
 H17 H 0.83332 0.71733 0.99678
 Zn18 Zn 0.72879 0.64635 1.00114
 N19 N 0.76640 0.67262 1.02119
 C20 C 0.75411 0.62680 0.93823
 N21 N 0.74361 0.61425 0.96753
 C22 C 0.74425 0.58031 0.97234
 C23 C 0.75768 0.55797 0.94803
 C24 C 0.76770 0.60544 0.91329
 C25 C 0.72237 0.60214 1.05535
 C26 C 0.70639 0.58765 1.08214
 C27 C 0.65751 0.61919 1.06802
 C28 C 0.67433 0.63274 1.04144
 N29 N 0.70626 0.62427 1.03567
 H30 H 0.75212 0.65358 0.93422
 H31 H 0.73491 0.57044 0.99518
 H32 H 0.75886 0.53118 0.95273
 H33 H 0.77706 0.61675 0.89111
 H34 H 0.74808 0.59641 1.05084
 H35 H 0.72052 0.57075 1.09737
 H36 H 0.63222 0.62691 1.07217
 H37 H 0.66197 0.65068 1.02593
 C38 C 0.82559 0.70448 1.04895
 C39 C 0.65021 0.71341 0.94933
 C40 C 0.67340 0.59643 1.08915
 C41 C 0.77004 0.57047 0.91824
 C42 C 0.70767 0.33176 0.48818
 H43 H 0.72344 0.31832 0.47076
 C44 C 0.68010 0.31461 0.50099
 H45 H 0.67472 0.28796 0.49329
 C46 C 0.69619 0.38228 0.52107
 H47 H 0.70289 0.40860 0.52901
 C48 C 0.66918 0.36600 0.53507
 H49 H 0.65499 0.37990 0.55377
 N50 N 0.71511 0.36499 0.49854
 C51 C 0.81644 0.36776 0.47249
 H52 H 0.82437 0.38254 0.49575
 C53 C 0.84054 0.35275 0.45278
 H54 H 0.86648 0.35640 0.46165
 C55 C 0.77346 0.34899 0.43130
 H56 H 0.74737 0.34866 0.42265
 C57 C 0.79683 0.33340 0.41072
 H58 H 0.78849 0.32064 0.38639
 Zn59 Zn 0.75320 0.39089 0.48736
 N60 N 0.78359 0.36550 0.46171
 C61 C 0.78413 0.38003 0.54886
 N62 N 0.77430 0.40595 0.52989
 C63 C 0.77848 0.43908 0.54206
 C64 C 0.79396 0.44709 0.57445
 C65 C 0.80001 0.38685 0.58093
 C66 C 0.70882 0.42333 0.44471
 C67 C 0.69932 0.44575 0.42031
 C68 C 0.75289 0.47608 0.43048
 C69 C 0.76178 0.45243 0.45416
 N70 N 0.73972 0.42677 0.46081
 H71 H 0.77993 0.35391 0.53870
 H72 H 0.76976 0.45923 0.52685
 H73 H 0.79779 0.47357 0.58352
 H74 H 0.80818 0.36585 0.59540
 H75 H 0.69204 0.40224 0.44963
 H76 H 0.67489 0.44225 0.40716
 H77 H 0.77066 0.49622 0.42501
 H78 H 0.78659 0.45394 0.46650
 C79 C 0.83088 0.33512 0.42140
 C80 C 0.66092 0.33183 0.52516
 C81 C 0.72169 0.47214 0.41264
 C82 C 0.80498 0.42061 0.59416
 C83 C 0.23821 -0.16058 0.02667
 H84 H 0.26369 -0.16353 0.03599
 C85 C 0.21225 -0.17917 0.04025
 H86 H 0.21800 -0.19632 0.06004
 C87 C 0.19963 -0.13410 -0.00972
 H88 H 0.19477 -0.11640 -0.02911
 C89 C 0.17287 -0.15228 0.00308
 H90 H 0.14775 -0.14752 -0.00626
 N91 N 0.23147 -0.13790 0.00278
 C92 C 0.32712 -0.12251 -0.04205
 H93 H 0.33501 -0.09789 -0.02986
 C94 C 0.34906 -0.14067 -0.06214
 H95 H 0.37372 -0.12958 -0.06560
 C96 C 0.28475 -0.16614 -0.05322
 H97 H 0.25956 -0.17576 -0.04974
 C98 C 0.30573 -0.18492 -0.07400
 H99 H 0.29661 -0.20911 -0.08643
 Zn100 Zn 0.26722 -0.10952 -0.01049
 N101 N 0.29576 -0.13556 -0.03779
 C102 C 0.31475 -0.11311 0.04315
 N103 N 0.29196 -0.09217 0.02978
 C104 C 0.28584 -0.06162 0.04609
 C105 C 0.30190 -0.05183 0.07777
 C106 C 0.33160 -0.10417 0.07448
 C107 C 0.25832 -0.07207 -0.06888
 C108 C 0.24267 -0.04948 -0.08992
 C109 C 0.21066 -0.03010 -0.04240
 C110 C 0.22657 -0.05347 -0.02250
 N111 N 0.24966 -0.07418 -0.03604
 H112 H 0.31933 -0.13725 0.02979
 H113 H 0.26817 -0.04495 0.03501
 H114 H 0.29656 -0.02749 0.09034
 H115 H 0.34923 -0.12148 0.08495
 H116 H 0.27664 -0.08875 -0.07930
 H117 H 0.25041 -0.04920 -0.11582
 H118 H 0.19173 -0.01463 -0.03106
 H119 H 0.21919 -0.05627 0.00330
 C120 C 0.33842 -0.17241 -0.07829
 C121 C 0.17905 -0.17484 0.02884
 C122 C 0.21759 -0.02856 -0.07708
 C123 C 0.32461 -0.07368 0.09261
 C124 C 0.18768 0.18725 0.46895
 H125 H 0.21156 0.20104 0.47301
 C126 C 0.16009 0.20324 0.45476
 H127 H 0.16296 0.22943 0.44803
 C128 C 0.15425 0.13704 0.47475
 H129 H 0.15212 0.11142 0.48320
 C130 C 0.12607 0.15218 0.46136
 H131 H 0.10223 0.13801 0.45932
 N132 N 0.18412 0.15480 0.47878
 C133 C 0.26257 0.17086 0.55000
 H134 H 0.24584 0.16279 0.56892
 C135 C 0.29252 0.18842 0.56068
 H136 H 0.29826 0.19401 0.58772
 C137 C 0.27642 0.17198 0.49212
 H138 H 0.27014 0.16483 0.46548
 C139 C 0.30694 0.18927 0.50175
 H140 H 0.32358 0.19610 0.48217
 Zn141 Zn 0.21800 0.13285 0.50303
 N142 N 0.25527 0.16261 0.51626
 C143 C 0.26005 0.07917 0.48809
 N144 N 0.23372 0.09622 0.47558
 C145 C 0.22117 0.08968 0.44293
 C146 C 0.23582 0.06574 0.42115
 C147 C 0.27536 0.05492 0.46724
 C148 C 0.18073 0.14147 0.55990
 C149 C 0.16485 0.13331 0.58922
 C150 C 0.18560 0.07645 0.58251
 C151 C 0.20085 0.08563 0.55294
 N152 N 0.19846 0.11784 0.54255
 H153 H 0.26990 0.08529 0.51396
 H154 H 0.20045 0.10377 0.43336
 H155 H 0.22546 0.06113 0.39526
 H156 H 0.29687 0.04221 0.47733
 H157 H 0.17897 0.16679 0.55085
 H158 H 0.15083 0.15249 0.60270
 H159 H 0.18743 0.05062 0.59019
 H160 H 0.21445 0.06702 0.53836
 C161 C 0.31559 0.19689 0.53660
 C162 C 0.12871 0.18568 0.45139
 C163 C 0.16749 0.10066 0.60111
 C164 C 0.26389 0.04867 0.43304
 C165 C 0.19047 0.48724 0.20516
 H166 H 0.20276 0.48969 0.23034
 C167 C 0.20745 0.47363 0.17737
 H168 H 0.23288 0.46567 0.18130
 C169 C 0.14282 0.49560 0.16884
 H170 H 0.11762 0.50435 0.16573
 C171 C 0.15907 0.48311 0.14046
 H172 H 0.14625 0.48218 0.11548
 N173 N 0.15871 0.49785 0.20031
 C174 C 0.16443 0.56769 0.28351
 H175 H 0.15283 0.58598 0.26791
 C176 C 0.18245 0.57942 0.31340
 H177 H 0.18486 0.60661 0.32002
 C178 C 0.17442 0.51038 0.29474
 H179 H 0.17088 0.48346 0.28734
 C180 C 0.19232 0.52106 0.32537
 H181 H 0.20301 0.50215 0.34101
 Zn182 Zn 0.13387 0.51937 0.23463
 N183 N 0.16088 0.53371 0.27452
 C184 C 0.07954 0.49832 0.27235
 N185 N 0.09966 0.48863 0.24689
 C186 C 0.09742 0.45636 0.23201
 C187 C 0.07475 0.43212 0.24314
 C188 C 0.05647 0.47487 0.28427
 C189 C 0.14001 0.57819 0.20105
 C190 C 0.13092 0.60705 0.18475
 C191 C 0.07323 0.59427 0.19645
 C192 C 0.08355 0.56545 0.21279
 N193 N 0.11654 0.55820 0.21492
 H194 H 0.08208 0.52402 0.28400
 H195 H 0.11377 0.44904 0.21196
 H196 H 0.07352 0.40675 0.23070
 H197 H 0.04110 0.48280 0.30505
 H198 H 0.16601 0.57157 0.20274
 H199 H 0.15018 0.62258 0.17399
 H200 H 0.04695 0.59971 0.19538
 H201 H 0.06524 0.54890 0.22358
 C202 C 0.19627 0.55612 0.33501
 C203 C 0.19166 0.47188 0.14452
 C204 C 0.09723 0.61545 0.18207
 C205 C 0.05440 0.44107 0.27020
 C206 C -0.16121 0.02773 0.23234
 H207 H -0.15949 0.03837 0.25843
 C208 C -0.18125 0.04300 0.20797
 H209 H -0.19539 0.06482 0.21597
 C210 C -0.14283 -0.01164 0.18994
 H211 H -0.12685 -0.03192 0.18239
 C212 C -0.16269 0.00257 0.16484
 H213 H -0.16130 -0.00795 0.13894
 N214 N -0.14227 0.00102 0.22300
 C215 C -0.11863 -0.06792 0.29887
 H216 H -0.09781 -0.07823 0.28579
 C217 C -0.13239 -0.08602 0.32453
 H218 H -0.12244 -0.11039 0.33026
 C219 C -0.15600 -0.02343 0.30840
 H220 H -0.16504 0.00105 0.30214
 C221 C -0.17018 -0.04052 0.33480
 H222 H -0.19050 -0.02922 0.34810
 Zn223 Zn -0.11014 -0.01408 0.25553
 N224 N -0.13080 -0.03741 0.29082
 C225 C -0.08257 0.03099 0.30925
 N226 N -0.08610 0.02535 0.27478
 C227 C -0.07560 0.04919 0.25361
 C228 C -0.06215 0.08086 0.26698
 C229 C -0.06921 0.06218 0.32368
 C230 C -0.09468 -0.07418 0.21866
 C231 C -0.07522 -0.09690 0.20049
 C232 C -0.02760 -0.05756 0.21208
 C233 C -0.04808 -0.03550 0.23010
 N234 N -0.08106 -0.04401 0.23276
 H235 H -0.09110 0.01170 0.32560
 H236 H -0.07905 0.04411 0.22626
 H237 H -0.05547 0.09978 0.24945
 H238 H -0.06758 0.06659 0.35121
 H239 H -0.12102 -0.08029 0.22107
 H240 H -0.08729 -0.11997 0.18854
 H241 H -0.00149 -0.05025 0.20972
 H242 H -0.03769 -0.01146 0.24159
 C243 C -0.15831 -0.07235 0.34301
 C244 C -0.18197 0.03082 0.17350
 C245 C -0.04109 -0.08874 0.19704
 C246 C -0.05944 0.08791 0.30258
 C247 C 0.33803 0.51200 0.72135
 H248 H 0.35180 0.53106 0.73791
 C249 C 0.31591 0.52248 0.69601
 H250 H 0.31330 0.54949 0.69321
 C251 C 0.32369 0.45406 0.70539
 H252 H 0.32645 0.42741 0.70920
 C253 C 0.30103 0.46346 0.67974
 H254 H 0.28714 0.44393 0.66360
 N255 N 0.34301 0.47825 0.72439
 C256 C 0.37633 0.41170 0.79817
 H257 H 0.39780 0.40270 0.78517
 C258 C 0.36375 0.39338 0.82435
 H259 H 0.37543 0.37013 0.83103
 C260 C 0.33539 0.45315 0.80587
 H261 H 0.32443 0.47643 0.79830
 C262 C 0.32228 0.43584 0.83257
 H263 H 0.30085 0.44578 0.84505
 Zn264 Zn 0.37931 0.46565 0.75380
 N265 N 0.36198 0.44092 0.78935
 C266 C 0.40365 0.51334 0.80717
 N267 N 0.40293 0.50617 0.77284
 C268 C 0.41622 0.52881 0.75183
 C269 C 0.42905 0.56084 0.76495
 C270 C 0.41628 0.54496 0.82135
 C271 C 0.39537 0.40652 0.71508
 C272 C 0.41407 0.38540 0.69421
 C273 C 0.45956 0.42771 0.70082
 C274 C 0.43987 0.44812 0.72162
 N275 N 0.40809 0.43754 0.72787
 H276 H 0.39332 0.49505 0.82358
 H277 H 0.41518 0.52270 0.72456
 H278 H 0.43787 0.57872 0.74730
 H279 H 0.41552 0.55054 0.84865
 H280 H 0.37065 0.39786 0.72128
 H281 H 0.40245 0.36155 0.68367
 H282 H 0.48460 0.43676 0.69568
 H283 H 0.44999 0.47249 0.73242
 C284 C 0.33669 0.40558 0.84216
 C285 C 0.29832 0.49798 0.67378
 C286 C 0.44672 0.39591 0.68672
 C287 C 0.42848 0.56956 0.80020
 C288 C 0.67228 0.96524 0.70352
 H289 H 0.66725 0.95003 0.72483
 C290 C 0.69614 0.95497 0.68042
 H291 H 0.70940 0.93194 0.68430
 C292 C 0.66162 1.01395 0.67285
 H293 H 0.64836 1.03706 0.66985
 C294 C 0.68556 1.00502 0.64968
 H295 H 0.69009 1.02117 0.62890
 N296 N 0.65471 0.99371 0.69868
 C297 C 0.61750 1.04874 0.78814
 H298 H 0.59288 1.05471 0.77831
 C299 C 0.62966 1.06363 0.81974
 H300 H 0.61415 1.08109 0.83371
 C301 C 0.66721 1.01872 0.78199
 H302 H 0.68192 1.00140 0.76709
 C303 C 0.67989 1.03207 0.81409
 H304 H 0.70459 1.02508 0.82272
 Zn305 Zn 0.61903 1.00715 0.72655
 N306 N 0.63648 1.02713 0.76963
 C307 C 0.56404 0.97663 0.75512
 N308 N 0.58944 0.96962 0.73437
 C309 C 0.59292 0.93746 0.72027
 C310 C 0.57140 0.91057 0.72842
 C311 C 0.54182 0.95069 0.76361
 C312 C 0.59750 1.07311 0.70937
 C313 C 0.58246 1.09550 0.68762
 C314 C 0.56168 1.04703 0.65077
 C315 C 0.57637 1.02554 0.67363
 N316 N 0.59424 1.03879 0.70204
 H317 H 0.56115 1.00242 0.76538
 H318 H 0.61221 0.93246 0.70259
 H319 H 0.57470 0.88524 0.71697
 H320 H 0.52209 0.95679 0.78064
 H321 H 0.61325 1.08334 0.73096
 H322 H 0.58642 1.12273 0.69315
 H323 H 0.54869 1.03615 0.62756
 H324 H 0.57492 0.99823 0.66791
 C325 C 0.66100 1.05500 0.83355
 C326 C 0.70241 0.97474 0.65263
 C327 C 0.56478 1.08243 0.65760
 C328 C 0.54575 0.91704 0.75088
 C329 C 0.02681 0.23758 -0.13750
 H330 H 0.03673 0.26355 -0.13352
 C331 C 0.04437 0.21377 -0.15659
 H332 H 0.06720 0.22202 -0.16793
 C333 C -0.01306 0.19476 -0.12493
 H334 H -0.03477 0.18710 -0.11161
 C335 C 0.00378 0.17003 -0.14380
 H336 H -0.00583 0.14394 -0.14471
 N337 N -0.00123 0.22778 -0.12189
 C338 C -0.07010 0.30628 -0.10156
 H339 H -0.08082 0.29502 -0.08001
 C340 C -0.08641 0.33261 -0.11670
 H341 H -0.10993 0.34081 -0.10710
 C342 C -0.02608 0.31035 -0.13944
 H343 H -0.00252 0.30175 -0.14820
 C344 C -0.04138 0.33716 -0.15507
 H345 H -0.02962 0.34830 -0.17619
 Zn346 Zn -0.01914 0.26007 -0.09045
 N347 N -0.04065 0.29532 -0.11329
 C348 C 0.02235 0.31420 -0.06022
 N349 N 0.01776 0.27969 -0.06313
 C350 C 0.04198 0.25905 -0.05206
 C351 C 0.07318 0.27297 -0.03945
 C352 C 0.05302 0.32915 -0.04769
 C353 C -0.08005 0.22609 -0.08079
 C354 C -0.10487 0.20951 -0.06352
 C355 C -0.06859 0.21568 -0.01237
 C356 C -0.04469 0.23278 -0.03060
 N357 N -0.05078 0.23752 -0.06424
 H358 H 0.00288 0.33015 -0.06936
 H359 H 0.03787 0.23165 -0.05523
 H360 H 0.09254 0.25577 -0.03285
 H361 H 0.05668 0.35664 -0.04707
 H362 H -0.08411 0.22995 -0.10767
 H363 H -0.12731 0.20060 -0.07824
 H364 H -0.06295 0.21197 0.01436
 H365 H -0.02120 0.24201 -0.01795
 C366 C -0.07198 0.34859 -0.14358
 C367 C 0.03334 0.17937 -0.15950
 C368 C -0.09947 0.20390 -0.02859
 C369 C 0.07932 0.30854 -0.03817
 C370 C 0.45895 0.17852 0.16770
 H371 H 0.44519 0.18105 0.14370
 C372 C 0.44745 0.15519 0.19020
 H373 H 0.42493 0.13991 0.18284
 C374 C 0.50665 0.19329 0.20454
 H375 H 0.53012 0.20773 0.20945
 C376 C 0.49614 0.17014 0.22771
 H377 H 0.51155 0.16696 0.25062
 N378 N 0.48826 0.19667 0.17502
 C379 C 0.50373 0.27899 0.19034
 H380 H 0.48209 0.26455 0.19783
 C381 C 0.51175 0.31109 0.20636
 H382 H 0.49607 0.32110 0.22604
 C383 C 0.55002 0.28363 0.15540
 H384 H 0.56467 0.27311 0.13528
 C385 C 0.55896 0.31598 0.17076
 H386 H 0.58026 0.32972 0.16162
 Zn387 Zn 0.50626 0.22422 0.14210
 N388 N 0.52248 0.26605 0.16500
 C389 C 0.44514 0.25067 0.12299
 N390 N 0.47151 0.23420 0.11015
 C391 C 0.47301 0.22654 0.07602
 C392 C 0.44771 0.23645 0.05333
 C393 C 0.41932 0.26083 0.10135
 C394 C 0.55881 0.21258 0.09526
 C395 C 0.58428 0.19380 0.08071
 C396 C 0.57146 0.14870 0.11744
 C397 C 0.54649 0.16819 0.13119
 N398 N 0.54082 0.19979 0.12047
 H399 H 0.44432 0.25634 0.15016
 H400 H 0.49401 0.21322 0.06626
 H401 H 0.44957 0.23088 0.02615
 H402 H 0.39947 0.27507 0.11241
 H403 H 0.55337 0.23731 0.08628
 H404 H 0.59837 0.20482 0.06109
 H405 H 0.57557 0.12378 0.12682
 H406 H 0.53169 0.15774 0.15052
 C407 C 0.53944 0.33026 0.19649
 C408 C 0.46635 0.15054 0.22058
 C409 C 0.59100 0.16137 0.09211
 C410 C 0.42043 0.25385 0.06591
 C411 C 0.99995 0.71565 0.69913
 H412 H 1.00903 0.74032 0.71023
 C413 C 0.99073 0.69009 0.72042
 H414 H 0.99216 0.69542 0.74784
 C415 C 0.98872 0.67789 0.65011
 H416 H 0.98893 0.67315 0.62271
 C417 C 0.97872 0.65185 0.67037
 H418 H 0.97125 0.62703 0.65831
 N419 N 0.99856 0.70918 0.66464
 C420 C 0.99662 0.79927 0.67528
 H421 H 0.97240 0.78593 0.67395
 C422 C 1.00079 0.83158 0.69220
 H423 H 0.97967 0.84297 0.70408
 C424 C 1.05331 0.80096 0.66045
 H425 H 1.07343 0.78942 0.64713
 C426 C 1.05858 0.83333 0.67698
 H427 H 1.08286 0.84606 0.67581
 Zn428 Zn 1.01445 0.74198 0.63552
 N429 N 1.02278 0.78456 0.66010
 C430 C 0.95002 0.73685 0.60144
 N431 N 0.98208 0.74942 0.60030
 C432 C 0.99069 0.77164 0.57676
 C433 C 0.96651 0.78257 0.55354
 C434 C 0.92497 0.74732 0.57884
 C435 C 1.07819 0.71937 0.64366
 C436 C 1.10864 0.70598 0.63528
 C437 C 1.09058 0.70479 0.57565
 C438 C 1.06027 0.71841 0.58527
 N439 N 1.05480 0.72548 0.61885
 H440 H 0.94344 0.71993 0.62088
 H441 H 1.01616 0.78192 0.57693
 H442 H 0.97367 0.80098 0.53556
 H443 H 0.89963 0.73722 0.58051
 H444 H 1.07302 0.72484 0.67017
 H445 H 1.12680 0.70127 0.65561
 H446 H 1.09424 0.69938 0.54883
 H447 H 1.04107 0.72287 0.56596
 C448 C 1.03210 0.84899 0.69341
 C449 C 0.97955 0.65792 0.70602
 C450 C 1.11524 0.69827 0.60100
 C451 C 0.93300 0.77124 0.55507
 C452 C 0.52603 0.72470 0.33594
 H453 H 0.52796 0.75150 0.33126
 C454 C 0.54179 0.70096 0.31497
 H455 H 0.55567 0.70961 0.29393
 C456 C 0.50751 0.68114 0.37049
 H457 H 0.49542 0.67381 0.39307
 C458 C 0.52265 0.65647 0.34996
 H459 H 0.52188 0.63033 0.35709
 N460 N 0.50967 0.71452 0.36328
 C461 C 0.44441 0.77469 0.35135
 H462 H 0.43384 0.74905 0.35071
 C463 C 0.42670 0.79950 0.33522
 H464 H 0.40252 0.79237 0.32263
 C465 C 0.48857 0.81480 0.36810
 H466 H 0.51297 0.82065 0.38040
 C467 C 0.47175 0.84050 0.35223
 H468 H 0.48380 0.86559 0.35339
 Zn469 Zn 0.49482 0.74900 0.39391
 N470 N 0.47427 0.78287 0.36839
 C471 C 0.53056 0.79768 0.44027
 N472 N 0.53296 0.76848 0.42016
 C473 C 0.56303 0.75406 0.41614
 C474 C 0.59241 0.77003 0.43097
 C475 C 0.55942 0.81482 0.45514
 C476 C 0.43763 0.70936 0.40718
 C477 C 0.41228 0.69626 0.42633
 C478 C 0.43925 0.72549 0.47677
 C479 C 0.46409 0.73816 0.45658
 N480 N 0.46265 0.73029 0.42232
 H481 H 0.50641 0.80868 0.44321
 H482 H 0.56455 0.73070 0.40038
 H483 H 0.61611 0.75890 0.42582
 H484 H 0.55729 0.83895 0.46961
 H485 H 0.43761 0.70222 0.38019
 H486 H 0.39324 0.67909 0.41359
 H487 H 0.44072 0.73202 0.50401
 H488 H 0.48433 0.75444 0.46831
 C489 C 0.43983 0.83319 0.33610
 C490 C 0.54048 0.66644 0.32203
 C491 C 0.41264 0.70471 0.46161
 C492 C 0.59087 0.80128 0.45011
 C493 C 0.39095 -0.02795 0.29203
 C494 C 0.37362 -0.04062 0.25768
 C495 C 0.35073 -0.01910 0.24546
 C496 C 0.34699 0.01299 0.26903
 C497 C 0.40570 0.00765 0.28575
 C498 C 0.38257 0.02912 0.27347
 C499 C 0.36260 -0.02127 0.31607
 C500 C 0.33959 0.00043 0.30424
 H501 H 0.37967 -0.06424 0.24411
 H502 H 0.32815 0.03044 0.25909
 H503 H 0.43225 0.01401 0.28859
 H504 H 0.36228 -0.03168 0.34086
 C505 C 0.09229 1.04221 0.78178
 C506 C 0.10896 1.05587 0.75070
 C507 C 0.13263 1.03550 0.73756
 C508 C 0.13774 1.00343 0.75701
 C509 C 0.07897 1.00607 0.76937
 C510 C 0.10288 0.98578 0.75628
 C511 C 0.11926 1.03734 0.80680
 C512 C 0.14469 1.01607 0.79445
 H513 H 0.10210 1.07958 0.74028
 H514 H 0.15723 0.98688 0.74652
 H515 H 0.05322 0.99752 0.77159
 H516 H 0.11922 1.04833 0.83273
 C517 C 0.59898 0.53102 0.26013
 C518 C 0.61435 0.54387 0.23060
 C519 C 0.64001 0.52338 0.21752
 C520 C 0.64540 0.49190 0.23797
 C521 C 0.58623 0.49446 0.24872
 C522 C 0.61064 0.47391 0.23705
 C523 C 0.62764 0.52640 0.28656
 C524 C 0.65175 0.50556 0.27522
 H525 H 0.60673 0.56716 0.21984
 H526 H 0.66533 0.47536 0.22845
 H527 H 0.56008 0.48646 0.24876
 H528 H 0.62614 0.53498 0.31315
 C529 C 0.89593 0.48155 0.78207
 C530 C 0.87414 0.46694 0.75099
 C531 C 0.85391 0.49002 0.73695
 C532 C 0.85692 0.52538 0.75577
 C533 C 0.91485 0.51265 0.76932
 C534 C 0.89425 0.53552 0.75534
 C535 C 0.87134 0.49668 0.80696
 C536 C 0.85070 0.51950 0.79321
 H537 H 0.87555 0.44079 0.74099
 H538 H 0.84025 0.54419 0.74456
 H539 H 0.94186 0.51467 0.76867
 H540 H 0.87200 0.49108 0.83358
 C541 C 0.27720 0.37238 -0.01771
 C542 C 0.24395 0.35248 -0.02634
 C543 C 0.23315 0.33392 -0.00059
 C544 C 0.25699 0.33655 0.03134
 C545 C 0.27141 0.39374 0.01538
 C546 C 0.26066 0.37497 0.04109
 C547 C 0.30192 0.34575 -0.00686
 C548 C 0.29143 0.32693 0.01890
 H549 H 0.22988 0.35382 -0.05043
 H550 H 0.24819 0.32128 0.05226
 H551 H 0.27580 0.42113 0.01805
 H552 H 0.32655 0.34438 -0.01691
 C553 C 0.76245 0.07012 1.03155
 C554 C 0.73056 0.08795 1.04210
 C555 C 0.71769 0.10879 1.01869
 C556 C 0.73762 0.10954 0.98637
 C557 C 0.75323 0.05162 0.99897
 C558 C 0.73910 0.07182 0.97362
 C559 C 0.78607 0.09727 1.02409
 C560 C 0.77379 0.11938 0.99933
 H561 H 0.72026 0.08526 1.06677
 H562 H 0.72753 0.12677 0.96745
 H563 H 0.75603 0.02441 0.99429
 H564 H 0.81164 0.09864 1.03454
 C565 C 0.27355 0.58295 0.54578
 C566 C 0.24370 0.60413 0.55514
 C567 C 0.22997 0.62058 0.52866
 C568 C 0.24772 0.61426 0.49511
 C569 C 0.26052 0.55872 0.51552
 C570 C 0.24726 0.57504 0.48873
 C571 C 0.29799 0.60793 0.53047
 C572 C 0.28464 0.62454 0.50403
 H573 H 0.23337 0.60411 0.58008
 H574 H 0.23651 0.62816 0.47397
 H575 H 0.26221 0.53127 0.51514
 H576 H 0.32431 0.60995 0.53832
 C577 C 0.78147 0.88623 0.48031
 C578 C 0.75038 0.86376 0.46879
 C579 C 0.74076 0.84184 0.49223
 C580 C 0.76325 0.84417 0.52507
 C581 C 0.77245 0.90398 0.51440
 C582 C 0.76274 0.88188 0.53796
 C583 C 0.80844 0.86144 0.49014
 C584 C 0.79902 0.83932 0.51361
 H585 H 0.73678 0.86572 0.44453
 H586 H 0.75529 0.82611 0.54406
 H587 H 0.77210 0.93142 0.51833
 H588 H 0.83340 0.86333 0.48087
 C589 C -0.03078 0.28573 0.37157
 C590 C -0.04080 0.25347 0.34915
 C591 C -0.01689 0.24315 0.32771
 C592 C 0.01474 0.26682 0.33009
 C593 C 0.00256 0.27764 0.38964
 C594 C 0.02638 0.26750 0.36790
 C595 C -0.02151 0.31258 0.34680
 C596 C 0.00265 0.30304 0.32519
 H597 H -0.06411 0.23911 0.35153
 H598 H 0.03415 0.25854 0.31241
 H599 H 0.00666 0.27952 0.41714
 H600 H -0.03228 0.33739 0.34803
 C601 C 1.03624 0.76741 0.06188
 C602 C 1.04579 0.73651 0.08152
 C603 C 1.02145 0.72505 0.10153
 C604 C 0.98938 0.74522 0.09938
 C605 C 1.00382 0.75573 0.04150
 C606 C 0.97910 0.74437 0.06101
 C607 C 1.02555 0.79402 0.08901
 C608 C 1.00095 0.78246 0.10874
 H609 H 1.06932 0.72424 0.07857
 H610 H 0.96983 0.73549 0.11576
 H611 H 1.00057 0.75681 0.01407
 H612 H 1.03591 0.81991 0.09099
 C613 C 0.52753 0.25214 0.55081
 C614 C 0.53632 0.22240 0.57246
 C615 C 0.51096 0.21167 0.59152
 C616 C 0.47894 0.23151 0.58696
 C617 C 0.49605 0.23940 0.52934
 C618 C 0.47039 0.22902 0.54818
 C619 C 0.51532 0.27991 0.57616
 C620 C 0.48996 0.26899 0.59529
 H621 H 0.56108 0.21222 0.57401
 H622 H 0.45857 0.22226 0.60267
 H623 H 0.49389 0.23964 0.50177
 H624 H 0.52575 0.30576 0.57800
 C625 C 0.47053 0.77073 0.86343
 C626 C 0.45766 0.73701 0.84483
 C627 C 0.47922 0.72358 0.82228
 C628 C 0.51156 0.74556 0.82007
 C629 C 0.50470 0.76266 0.87971
 C630 C 0.52625 0.74937 0.85699
 C631 C 0.47873 0.79438 0.83533
 C632 C 0.50053 0.78156 0.81263
 H633 H 0.43407 0.72450 0.85003
 H634 H 0.52908 0.73472 0.80155
 H635 H 0.51005 0.76484 0.90703
 H636 H 0.47083 0.82040 0.83624
 C637 C 0.42011 -0.14208 0.32156
 C638 C 0.42923 -0.10747 0.32056
 C639 C 0.40646 -0.08515 0.30746
 C640 C 0.41486 -0.05066 0.30480
 H641 H 0.45373 -0.09743 0.32977
 H642 H 0.38149 -0.09479 0.29895
 H643 H 0.39545 -0.15041 0.31073
 H644 H 0.43952 -0.04070 0.31401
 C645 C 0.90984 0.37611 0.84057
 C646 C 0.92465 0.40139 0.82481
 C647 C 0.90425 0.42788 0.81037
 C648 C 0.91787 0.45542 0.79723
 H649 H 0.95159 0.40306 0.82317
 H650 H 0.87719 0.42491 0.81050
 H651 H 0.88300 0.37632 0.84331
 H652 H 0.94486 0.45874 0.79682
 C653 C 0.05484 1.15438 0.82315
 C654 C 0.04753 1.12087 0.81773
 C655 C 0.07239 1.09836 0.80292
 C656 C 0.06580 1.06501 0.79552
 H657 H 0.02386 1.10970 0.82443
 H658 H 0.09696 1.10919 0.79830
 H659 H 0.07875 1.16412 0.81517
 H660 H 0.04153 1.05384 0.80068
 C661 C 0.56086 0.64251 0.30215
 C662 C 0.55496 0.60871 0.29901
 C663 C 0.57893 0.58683 0.28195
 C664 C 0.57249 0.55348 0.27444
 H665 H 0.53299 0.59713 0.30933
 H666 H 0.60295 0.59812 0.27607
 H667 H 0.58208 0.65334 0.28979
 H668 H 0.54882 0.54189 0.28090
 C669 C 0.54567 0.36532 0.21245
 C670 C 0.57386 0.38420 0.20998
 C671 C 0.57721 0.41939 0.22544
 C672 C 0.60543 0.43818 0.22306
 H673 H 0.59466 0.37404 0.19663
 H674 H 0.55639 0.42976 0.23865
 H675 H 0.52589 0.37616 0.22707
 H676 H 0.62615 0.42680 0.21038
 C677 C 0.03564 0.88383 0.71040
 C678 C 0.06517 0.89910 0.72062
 C679 C 0.06753 0.93443 0.73566
 C680 C 0.09756 0.94991 0.74295
 H681 H 0.08810 0.88572 0.71782
 H682 H 0.04480 0.94791 0.73953
 H683 H 0.01297 0.89736 0.71485
 H684 H 0.11980 0.93596 0.73770
 C685 C 0.96989 0.63080 0.72847
 C686 C 0.94465 0.60830 0.71963
 C687 C 0.93519 0.58098 0.74167
 C688 C 0.90553 0.56439 0.73605
 H689 H 0.93012 0.61042 0.69590
 H690 H 0.95224 0.57464 0.76235
 H691 H 0.98277 0.63028 0.75333
 H692 H 0.88812 0.57263 0.71652
 C693 C 0.45759 0.12335 0.24342
 C694 C 0.42671 0.10941 0.24444
 C695 C 0.42050 0.07861 0.26298
 C696 C 0.39015 0.06301 0.26078
 H697 H 0.40599 0.11960 0.23016
 H698 H 0.44130 0.06780 0.27653
 H699 H 0.47766 0.11366 0.25914
 H700 H 0.36985 0.07481 0.24726
 C701 C 0.32386 0.38576 -0.13008
 C702 C 0.30937 0.39998 -0.10301
 C703 C 0.29844 0.37903 -0.07549
 C704 C 0.28856 0.39342 -0.04612
 H705 H 0.30662 0.42731 -0.10040
 H706 H 0.29894 0.35147 -0.07898
 H707 H 0.32821 0.35865 -0.13104
 H708 H 0.28789 0.42098 -0.04281
 C709 C 0.82740 0.90733 0.36969
 C710 C 0.81342 0.92071 0.39750
 C711 C 0.80181 0.89812 0.42347
 C712 C 0.79210 0.91019 0.45387
 H713 H 0.81174 0.94807 0.40180
 H714 H 0.80192 0.87073 0.41799
 H715 H 0.83034 0.87998 0.36724
 H716 H 0.79208 0.93750 0.45980
 C717 C 0.79965 0.04831 1.14908
 C718 C 0.79576 0.03826 1.11423
 C719 C 0.78043 0.05908 1.09119
 C720 C 0.77576 0.04852 1.05655
 H721 H 0.80451 0.01410 1.10439
 H722 H 0.77242 0.08396 1.10019
 H723 H 0.78801 0.07158 1.15778
 H724 H 0.78517 0.02402 1.04802
 C725 C 0.27909 0.50815 0.64324
 C726 C 0.29140 0.53269 0.62480
 C727 C 0.27412 0.54374 0.59374
 C728 C 0.28979 0.56646 0.57554
 H729 H 0.31554 0.54491 0.63264
 H730 H 0.24878 0.53449 0.58641
 H731 H 0.25624 0.49391 0.63450
 H732 H 0.31510 0.57522 0.58381
 C733 C 0.21442 0.56987 0.36697
 C734 C 0.21761 0.55306 0.39544
 C735 C 0.23264 0.57093 0.42697
 C736 C 0.23412 0.55628 0.45676
 H737 H 0.20759 0.52716 0.39614
 H738 H 0.24237 0.59685 0.42563
 H739 H 0.22343 0.59632 0.36786
 H740 H 0.22597 0.52976 0.45767
 C741 C 0.67221 0.06977 0.86587
 C742 C 0.69805 0.05740 0.88631
 C743 C 0.70773 0.07354 0.91813
 C744 C 0.72835 0.05742 0.94127
 H745 H 0.70952 0.03383 0.87861
 H746 H 0.69748 0.09787 0.92541
 H747 H 0.65849 0.09081 0.87670
 H748 H 0.73483 0.03135 0.93470
 C749 C 0.72552 0.96467 0.62580
 C750 C 0.73063 0.93220 0.61585
 C751 C 0.74864 0.92395 0.58470
 C752 C 0.74931 0.89179 0.57149
 H753 H 0.71911 0.91163 0.62883
 H754 H 0.75981 0.94468 0.57175
 H755 H 0.73574 0.98469 0.61110
 H756 H 0.73820 0.87155 0.58526
 C757 C 0.20863 0.46009 0.11371
 C758 C 0.22854 0.43358 0.11263
 C759 C 0.24120 0.42111 0.07976
 C760 C 0.25189 0.38946 0.07496
 H761 H 0.23350 0.41981 0.13524
 H762 H 0.23925 0.43729 0.05851
 H763 H 0.20199 0.47180 0.09017
 H764 H 0.25145 0.37262 0.09574
 C765 C -0.14425 0.32055 0.39839
 C766 C -0.11305 0.31380 0.40901
 C767 C -0.08837 0.30205 0.38484
 C768 C -0.05698 0.29660 0.39576
 H769 H -0.10520 0.31706 0.43577
 H770 H -0.09558 0.29833 0.35787
 H771 H -0.15184 0.31545 0.37163
 H772 H -0.04980 0.30095 0.42269
 C773 C 0.36032 0.80794 0.89918
 C774 C 0.39357 0.80817 0.90471
 C775 C 0.41476 0.78960 0.88089
 C776 C 0.44731 0.78620 0.88867
 H777 H 0.40536 0.82207 0.92708
 H778 H 0.40387 0.77924 0.85644
 H779 H 0.34863 0.79211 0.87797
 H780 H 0.45806 0.79736 0.91288
 C781 C 1.15182 0.80781 0.04620
 C782 C 1.12041 0.80288 0.03311
 C783 C 1.09444 0.78776 0.05339
 C784 C 1.06334 0.78067 0.04029
 H785 H 1.11361 0.81000 0.00762
 H786 H 1.10061 0.78284 0.07975
 H787 H 1.15798 0.79877 0.07117
 H788 H 1.05692 0.78622 0.01416
 C789 C 0.63382 0.31464 0.54247
 C790 C 0.61159 0.29211 0.52662
 C791 C 0.58399 0.27841 0.54577
 C792 C 0.55606 0.26406 0.53024
 H793 H 0.61273 0.28533 0.49955
 H794 H 0.58585 0.28152 0.57343
 H795 H 0.63057 0.32289 0.56894
 H796 H 0.55371 0.26116 0.50260
 C797 C 0.34852 0.21245 0.54913
 C798 C 0.37657 0.20889 0.53227
 C799 C 0.40913 0.22120 0.54840
 C800 C 0.43746 0.21759 0.53215
 H801 H 0.37596 0.19530 0.50740
 H802 H 0.40981 0.23340 0.57394
 H803 H 0.35029 0.22483 0.57465
 H804 H 0.43638 0.20708 0.50592
 C805 C 0.85812 0.71860 0.06425
 C806 C 0.88591 0.72006 0.04670
 C807 C 0.91831 0.73189 0.06345
 C808 C 0.94592 0.73283 0.04567
 H809 H 0.88523 0.71125 0.02000
 H810 H 0.91929 0.74019 0.09027
 H811 H 0.85978 0.72583 0.09139
 H812 H 0.94399 0.72588 0.01848
 C813 C 0.62284 0.73400 0.93605
 C814 C 0.60591 0.72596 0.90627
 C815 C 0.57580 0.74405 0.89634
 C816 C 0.55896 0.73561 0.86660
 H817 H 0.61349 0.70502 0.88949
 H818 H 0.56675 0.76336 0.91409
 H819 H 0.61602 0.75616 0.95165
 H820 H 0.56917 0.71722 0.84861
 C821 C 0.09777 0.20204 0.44031
 C822 C 0.09661 0.22586 0.41754
 C823 C 0.06423 0.23994 0.40775
 C824 C 0.05963 0.25606 0.37909
 H825 H 0.11899 0.23392 0.40530
 H826 H 0.04323 0.23524 0.42347
 H827 H 0.07455 0.19282 0.45029
 H828 H 0.07993 0.25838 0.36201
 C829 C 0.55300 0.10506 0.63131
 C830 C 0.54074 0.13562 0.63885
 C831 C 0.53380 0.15897 0.61179
 C832 C 0.51487 0.18590 0.61696
 H833 H 0.53667 0.14385 0.66512
 H834 H 0.54499 0.15440 0.58741
 H835 H 0.55478 0.09628 0.60476
 H836 H 0.50176 0.18918 0.64036
 C837 C 1.08912 0.64636 0.16407
 C838 C 1.05838 0.65513 0.15400
 C839 C 1.05465 0.68538 0.13403
 C840 C 1.02479 0.69550 0.12281
 H841 H 1.03637 0.63988 0.15916
 H842 H 1.07715 0.69967 0.12838
 H843 H 1.11022 0.66238 0.15749
 H844 H 1.00217 0.68236 0.12999
 C845 C 0.98040 0.88903 0.17631
 C846 C 0.97320 0.85584 0.16847
 C847 C 0.99338 0.83582 0.14477
 C848 C 0.98425 0.80343 0.13497
 H849 H 0.95181 0.84324 0.17881
 H850 H 1.01491 0.84823 0.13455
 H851 H 1.00283 0.90060 0.16679
 H852 H 0.96267 0.79175 0.14599
 C853 C 0.46734 0.37526 0.66337
 C854 C 0.46126 0.34192 0.65522
 C855 C 0.48094 0.32297 0.63013
 C856 C 0.47293 0.29014 0.62114
 H857 H 0.44142 0.32810 0.66686
 H858 H 0.50132 0.33620 0.61874
 H859 H 0.48833 0.38808 0.65241
 H860 H 0.45229 0.27785 0.63315
 C861 C 0.43777 0.60427 0.81589
 C862 C 0.45211 0.62975 0.79989
 C863 C 0.45725 0.66391 0.81765
 C864 C 0.47396 0.68950 0.80408
 H865 H 0.45972 0.62597 0.77395
 H866 H 0.44742 0.66798 0.84273
 H867 H 0.43161 0.60936 0.84226
 H868 H 0.48571 0.68489 0.78005
 C869 C -0.04970 0.12213 0.31893
 C870 C -0.03720 0.14857 0.30297
 C871 C -0.03300 0.18229 0.32161
 C872 C -0.01905 0.20961 0.30829
 H873 H -0.03109 0.14599 0.27646
 H874 H -0.04195 0.18485 0.34722
 H875 H -0.05431 0.12613 0.34585
 H876 H -0.00782 0.20706 0.28378
 C877 C 0.03145 0.41606 0.28497
 C878 C 0.03498 0.38221 0.28229
 C879 C 0.01380 0.35943 0.30139
 C880 C 0.01958 0.32610 0.30233
 H881 H 0.05484 0.37127 0.26801
 H882 H -0.00537 0.37082 0.31626
 H883 H 0.01226 0.42615 0.30089
 H884 H 0.03926 0.31558 0.28740
 C885 C 0.52272 0.88991 0.76194
 C886 C 0.53028 0.85706 0.76305
 C887 C 0.50828 0.83343 0.78039
 C888 C 0.51806 0.80255 0.78833
 H889 H 0.55390 0.84831 0.75427
 H890 H 0.48478 0.84269 0.78889
 H891 H 0.49964 0.89801 0.77274
 H892 H 0.54122 0.79327 0.77879
 C893 C 0.65664 0.58506 0.11552
 C894 C 0.66800 0.56163 0.13848
 C895 C 0.64917 0.55472 0.16634
 C896 C 0.65790 0.52986 0.18867
 H897 H 0.69098 0.54852 0.13513
 H898 H 0.62680 0.56880 0.16999
 H899 H 0.63206 0.59499 0.11958
 H900 H 0.67866 0.51392 0.18285
 C901 C 0.15005 1.09282 0.63215
 C902 C 0.15955 1.06912 0.65314
 C903 C 0.14121 1.06405 0.68410
 C904 C 0.15100 1.04191 0.70667
 H905 H 0.18115 1.05416 0.64813
 H906 H 0.11904 1.07844 0.68792
 H907 H 0.12934 1.10851 0.63889
 H908 H 0.17259 1.02686 0.70173
 C909 C 0.19899 0.99157 0.90341
 C910 C 0.19923 0.99184 0.86775
 C911 C 0.17522 1.00923 0.84958
 C912 C 0.17149 1.00432 0.81405
 H913 H 0.21602 0.97641 0.85331
 H914 H 0.15786 1.02437 0.86363
 H915 H 0.18058 1.00700 0.91585
 H916 H 0.18875 0.98808 0.80096
 C917 C 0.71249 0.49491 0.38564
 C918 C 0.70094 0.48196 0.35487
 C919 C 0.68539 0.50325 0.32957
 C920 C 0.67571 0.48959 0.29845
 H921 H 0.70080 0.45458 0.34913
 H922 H 0.67929 0.52909 0.33742
 H923 H 0.71454 0.52227 0.39130
 H924 H 0.68344 0.46429 0.29055
 C925 C 0.82291 0.42686 0.62782
 C926 C 0.81858 0.45393 0.64919
 C927 C 0.83760 0.45769 0.68226
 C928 C 0.83317 0.48378 0.70483
 H929 H 0.80093 0.47298 0.64260
 H930 H 0.85630 0.43927 0.68743
 H931 H 0.83953 0.40740 0.63594
 H932 H 0.81513 0.50260 0.69862
 C933 C 0.34147 -0.06581 0.12665
 C934 C 0.32843 -0.04654 0.15158
 C935 C 0.34577 -0.04228 0.18555
 C936 C 0.33316 -0.02400 0.21144
 H937 H 0.30454 -0.03501 0.14751
 H938 H 0.36961 -0.05405 0.18910
 H939 H 0.36464 -0.07834 0.13216
 H940 H 0.31022 -0.01077 0.20717
 C941 C 0.28271 0.02549 0.41051
 C942 C 0.28372 0.02810 0.37676
 C943 C 0.30743 0.00841 0.35671
 C944 C 0.31233 0.01479 0.32421
 H945 H 0.26922 0.04681 0.36421
 H946 H 0.32232 -0.00969 0.36961
 H947 H 0.29897 0.00784 0.42261
 H948 H 0.29709 0.03332 0.31220
 C949 C 0.78710 0.54683 0.89448
 C950 C 0.79509 0.55400 0.86295
 C951 C 0.81602 0.53112 0.84288
 C952 C 0.82657 0.53951 0.81260
 H953 H 0.78742 0.57724 0.85211
 H954 H 0.82375 0.50785 0.85370
 H955 H 0.79435 0.52268 0.90388
 H956 H 0.81764 0.56233 0.80169
 C957 C 0.14771 0.68290 0.59378
 C958 C 0.15711 0.67121 0.56308
 C959 C 0.18903 0.65382 0.56056
 C960 C 0.19946 0.64068 0.53084
 H961 H 0.14127 0.67307 0.54027
 H962 H 0.20403 0.65133 0.58387
 H963 H 0.16470 0.67998 0.61568
 H964 H 0.18525 0.64464 0.50736
 C965 C 0.61813 0.13983 1.07957
 C966 C 0.63906 0.14736 1.05529
 C967 C 0.66626 0.12418 1.04757
 C968 C 0.68864 0.13044 1.02429
 H969 H 0.63703 0.17044 1.04191
 H970 H 0.66810 0.10161 1.06185
 H971 H 0.62149 0.11616 1.09187
 H972 H 0.68578 0.15215 1.00890
 C973 C 0.87801 0.18702 0.98956
 C974 C 0.84540 0.17630 0.97771
 C975 C 0.82576 0.15493 0.99640
 C976 C 0.79298 0.14488 0.98503
 H977 H 0.83476 0.18416 0.95381
 H978 H 0.83663 0.14568 1.01961
 H979 H 0.88553 0.18129 1.01543
 H980 H 0.78183 0.15686 0.96338
 C981 C 0.38710 0.69060 0.48351
 C982 C 0.35654 0.67880 0.47188
 C983 C 0.33420 0.66154 0.49461
 C984 C 0.30469 0.64686 0.48312
 H985 H 0.34832 0.68060 0.44544
 H986 H 0.34295 0.65955 0.52087
 H987 H 0.39398 0.68961 0.51046
 H988 H 0.29542 0.65023 0.45724
 C989 C 0.62151 0.82198 0.46156
 C990 C 0.65118 0.80865 0.46848
 C991 C 0.68153 0.83098 0.47462
 C992 C 0.71016 0.81959 0.48768
 H993 H 0.65338 0.78129 0.46882
 H994 H 0.68047 0.85733 0.46809
 H995 H 0.61965 0.84948 0.46357
 H996 H 0.71083 0.79412 0.49667
 C997 C 0.11311 0.32511 -0.03091
 C998 C 0.14010 0.30971 -0.01879
 C999 C 0.17316 0.32779 -0.01716
 C1000 C 0.20022 0.31546 -0.00171
 H1001 H 0.13831 0.28391 -0.01080
 H1002 H 0.17532 0.35201 -0.02880
 H1003 H 0.11621 0.35147 -0.03726
 H1004 H 0.19784 0.29255 0.01205
 C1005 C 0.39518 0.26683 0.04162
 C1006 C 0.36425 0.27459 0.05020
 C1007 C 0.34208 0.29288 0.02727
 C1008 C 0.31254 0.30341 0.03756
 H1009 H 0.35563 0.26904 0.07502
 H1010 H 0.35100 0.29937 0.00286
 H1011 H 0.40273 0.27115 0.01607
 H1012 H 0.30399 0.29585 0.06183
 C1013 C 0.90728 0.78611 0.53265
 C1014 C 0.87531 0.78908 0.54069
 C1015 C 0.85233 0.80903 0.52013
 C1016 C 0.82165 0.81569 0.53035
 H1017 H 0.86656 0.77913 0.56388
 H1018 H 0.86138 0.81945 0.49732
 H1019 H 0.91571 0.79800 0.51024
 H1020 H 0.81299 0.80430 0.55290
   
