data_POSCAR
  _audit_creation_date              2014-09-24
  _audit_creation_method            'ToBaCCo'
  _symmetry_space_group_name_H-M    'P1'
  _symmetry_Int_Tables_number       1
  _symmetry_cell_setting            triclinic
  loop_
  _symmetry_equiv_pos_as_xyz
 x,y,z
_cell_length_a 37.5931
_cell_length_b 37.6369
_cell_length_c 37.8430
_cell_angle_alpha 87.151900
_cell_angle_beta 86.861700
_cell_angle_gamma 87.895500
loop_
  _atom_site_label
  _atom_site_type_symbol
  _atom_site_fract_x
  _atom_site_fract_y
  _atom_site_fract_z
C1 C 0.80648 0.64915 0.99110
 C2 C 0.81281 0.61880 0.96566
 C3 C 0.78299 0.60079 0.96027
 C4 C 0.74967 0.61395 0.98183
 C5 C 0.77597 0.67222 0.97566
 C6 C 0.74630 0.65371 0.97054
 C7 C 0.79022 0.63154 1.02500
 C8 C 0.76045 0.61320 1.02065
 H9 H 0.83717 0.61546 0.94932
 H10 H 0.72559 0.59867 0.97792
 H11 H 0.77864 0.69998 0.96728
 H12 H 0.80118 0.63426 1.05058
 C13 C 0.80308 0.35008 0.45665
 C14 C 0.81260 0.37369 0.48609
 C15 C 0.78567 0.39596 0.49764
 C16 C 0.75106 0.39258 0.47840
 C17 C 0.76999 0.33044 0.47169
 C18 C 0.74273 0.35275 0.48321
 C19 C 0.78936 0.37583 0.42770
 C20 C 0.76203 0.39797 0.43869
 H21 H 0.83839 0.37191 0.49765
 H22 H 0.72918 0.41105 0.48761
 H23 H 0.76855 0.30173 0.47360
 H24 H 0.79923 0.37499 0.40030
 C25 C 0.31221 -0.14771 -0.01023
 C26 C 0.31575 -0.12610 0.02006
 C27 C 0.28368 -0.10654 0.03037
 C28 C 0.25393 -0.11268 0.00812
 C29 C 0.28229 -0.17059 -0.00003
 C30 C 0.25001 -0.15129 0.00994
 C31 C 0.29947 -0.12309 -0.03804
 C32 C 0.26709 -0.10402 -0.02829
 H33 H 0.34017 -0.12532 0.03395
 H34 H 0.22917 -0.09739 0.01601
 H35 H 0.28400 -0.19940 0.00039
 H36 H 0.31174 -0.12144 -0.06467
 C37 C 0.29875 0.15226 0.51917
 C38 C 0.30849 0.12544 0.49061
 C39 C 0.28163 0.10362 0.48458
 C40 C 0.24782 0.10978 0.50833
 C41 C 0.26447 0.17167 0.50685
 C42 C 0.23791 0.14927 0.50076
 C43 C 0.28688 0.12935 0.55185
 C44 C 0.26013 0.10730 0.54649
 H45 H 0.33236 0.12692 0.47330
 H46 H 0.22644 0.09119 0.50381
 H47 H 0.26281 0.19999 0.50027
 H48 H 0.29797 0.13152 0.57746
 C49 C 0.15360 0.50102 0.30213
 C50 C 0.13099 0.46869 0.31195
 C51 C 0.11046 0.45914 0.28563
 C52 C 0.11344 0.48406 0.25211
 C53 C 0.17470 0.49133 0.26772
 C54 C 0.15361 0.48195 0.24163
 C55 C 0.12697 0.53036 0.29098
 C56 C 0.10647 0.52230 0.26428
 H57 H 0.13491 0.45176 0.33551
 H58 H 0.09592 0.47694 0.23105
 H59 H 0.20352 0.48874 0.26564
 H60 H 0.12717 0.55679 0.30109
 C61 C -0.14570 -0.04531 0.30425
 C62 C -0.11803 -0.01796 0.31096
 C63 C -0.09709 -0.00830 0.28186
 C64 C -0.10566 -0.02738 0.24831
 C65 C -0.16666 -0.02840 0.27376
 C66 C -0.14587 -0.01911 0.24424
 C67 C -0.12532 -0.07482 0.28932
 C68 C -0.10340 -0.06541 0.25851
 H69 H -0.11595 -0.00618 0.33628
 H70 H -0.08852 -0.01937 0.22462
 H71 H -0.19542 -0.02488 0.27529
 H72 H -0.12695 -0.10186 0.30043
 C73 C 0.33706 0.49016 0.80074
 C74 C 0.36217 0.51935 0.80882
 C75 C 0.38387 0.53031 0.78072
 C76 C 0.37849 0.51076 0.74663
 C77 C 0.31687 0.50530 0.76906
 C78 C 0.33837 0.51597 0.74062
 C79 C 0.36167 0.46056 0.78611
 C80 C 0.38323 0.47095 0.75774
 H81 H 0.36252 0.53073 0.83452
 H82 H 0.39631 0.51956 0.72374
 H83 H 0.28804 0.50691 0.76914
 H84 H 0.36111 0.43331 0.79676
 C85 C 0.64634 1.01903 0.80051
 C86 C 0.61487 0.99411 0.80713
 C87 C 0.59583 0.99023 0.77805
 C88 C 0.60922 1.01290 0.74539
 C89 C 0.66805 1.00357 0.76875
 C90 C 0.64846 1.00017 0.73980
 C91 C 0.63080 1.05238 0.78706
 C92 C 0.61046 1.04941 0.75670
 H93 H 0.61219 0.97610 0.83029
 H94 H 0.59299 1.01004 0.72210
 H95 H 0.69546 0.99392 0.77008
 H96 H 0.63487 1.07756 0.79873
 C97 C -0.02345 0.29494 -0.15306
 C98 C 0.00366 0.30407 -0.12656
 C99 C 0.01268 0.27657 -0.10374
 C100 C -0.00671 0.24210 -0.10920
 C101 C -0.00705 0.26243 -0.17130
 C102 C 0.00160 0.23464 -0.14852
 C103 C -0.05505 0.28090 -0.13014
 C104 C -0.04665 0.25324 -0.10721
 H105 H 0.01578 0.32974 -0.12664
 H106 H 0.00055 0.21974 -0.09042
 H107 H -0.00308 0.26150 -0.19981
 H108 H -0.08196 0.29176 -0.13246
 C109 C 0.50486 0.30342 0.14595
 C110 C 0.48061 0.31054 0.11491
 C111 C 0.47502 0.28120 0.09661
 C112 C 0.49552 0.24758 0.11010
 C113 C 0.48762 0.27266 0.16814
 C114 C 0.48271 0.24337 0.14931
 C115 C 0.53925 0.28725 0.12939
 C116 C 0.53476 0.25797 0.11076
 H117 H 0.46455 0.33486 0.11156
 H118 H 0.49156 0.22403 0.09439
 H119 H 0.47889 0.27456 0.19575
 H120 H 0.56517 0.29774 0.13313
 C121 C 1.00485 0.79833 0.66260
 C122 C 0.97297 0.80820 0.64364
 C123 C 0.96347 0.78218 0.61971
 C124 C 0.98867 0.75147 0.61867
 C125 C 0.99773 0.76340 0.67979
 C126 C 0.98810 0.73752 0.65556
 C127 C 1.03244 0.79203 0.63499
 C128 C 1.02436 0.76545 0.61133
 H129 H 0.95543 0.83071 0.65009
 H130 H 0.98200 0.73184 0.59929
 H131 H 0.99585 0.75863 0.70831
 H132 H 1.05844 0.80371 0.63460
 C133 C 0.47215 0.81039 0.34302
 C134 C 0.50154 0.81793 0.36764
 C135 C 0.51186 0.78942 0.38868
 C136 C 0.49166 0.75544 0.38296
 C137 C 0.48677 0.77879 0.32222
 C138 C 0.49679 0.74991 0.34291
 C139 C 0.44209 0.79564 0.36772
 C140 C 0.45209 0.76689 0.38852
 H141 H 0.51327 0.84372 0.36835
 H142 H 0.49993 0.73212 0.40010
 H143 H 0.48843 0.77919 0.29353
 H144 H 0.41495 0.80640 0.36781
 C145 C 0.39967 -0.00735 0.26382
 H146 H 0.40196 0.01859 0.27442
 C147 C 0.42185 -0.03566 0.27514
 H148 H 0.44132 -0.03111 0.29433
 C149 C 0.36979 -0.04500 0.22773
 H150 H 0.34949 -0.04873 0.20936
 C151 C 0.39124 -0.07412 0.23850
 H152 H 0.38683 -0.09995 0.22845
 N153 N 0.37299 -0.01292 0.24208
 C154 C 0.36200 0.09540 0.24207
 H155 H 0.34506 0.09638 0.26596
 C156 C 0.38243 0.12472 0.23139
 H157 H 0.38034 0.14815 0.24695
 C158 C 0.38634 0.06348 0.19353
 H159 H 0.38816 0.03921 0.17927
 C160 C 0.40700 0.09218 0.18178
 H161 H 0.42441 0.08978 0.15821
 Zn162 Zn 0.33824 0.02445 0.23693
 N163 N 0.36386 0.06576 0.22278
 C164 C 0.32319 0.00683 0.30895
 N165 N 0.31355 0.02960 0.28177
 C166 C 0.28967 0.05707 0.28745
 C167 C 0.27788 0.06482 0.32209
 C168 C 0.31264 0.01390 0.34377
 C169 C 0.30919 0.03002 0.16941
 C170 C 0.29644 0.01420 0.14024
 C171 C 0.27377 -0.03325 0.17952
 C172 C 0.28702 -0.01652 0.20800
 N173 N 0.30664 0.01307 0.20201
 H174 H 0.34057 -0.01600 0.30403
 H175 H 0.28178 0.07441 0.26538
 H176 H 0.26096 0.08826 0.32652
 H177 H 0.32260 -0.00317 0.36519
 H178 H 0.32396 0.05405 0.16527
 H179 H 0.30207 0.02584 0.11386
 H180 H 0.26187 -0.05898 0.18393
 H181 H 0.28530 -0.02941 0.23421
 C182 C 0.40512 0.12341 0.20071
 C183 C 0.41653 -0.06994 0.26380
 C184 C 0.28029 -0.01872 0.14509
 C185 C 0.29096 0.04401 0.35070
 C186 C 0.07615 1.04153 0.81039
 H187 H 0.07377 1.01660 0.82569
 C188 C 0.05835 1.07228 0.82237
 H189 H 0.04191 1.07074 0.84677
 C190 C 0.10169 1.07410 0.76073
 H191 H 0.11959 1.07516 0.73746
 C192 C 0.08400 1.10526 0.77140
 H193 H 0.08820 1.12976 0.75574
 N194 N 0.09754 1.04305 0.78022
 C195 C 0.11542 0.93288 0.75244
 H196 H 0.14398 0.93126 0.75487
 C197 C 0.09778 0.90336 0.74255
 H198 H 0.11313 0.87913 0.73721
 C199 C 0.06129 0.96726 0.75518
 H200 H 0.04745 0.99246 0.75967
 C201 C 0.04259 0.93845 0.74460
 H202 H 0.01425 0.94166 0.74109
 Zn203 Zn 0.12544 1.00212 0.76841
 N204 N 0.09712 0.96398 0.75844
 C205 C 0.13979 0.96126 0.83003
 N206 N 0.15202 0.98863 0.80838
 C207 C 0.18077 1.00699 0.81655
 C208 C 0.20042 0.99575 0.84563
 C209 C 0.15777 0.95007 0.86005
 C210 C 0.13604 1.02022 0.69680
 C211 C 0.15397 1.03122 0.66509
 C212 C 0.20956 1.02301 0.69401
 C213 C 0.19054 1.01176 0.72510
 N214 N 0.15429 1.01206 0.72638
 H215 H 0.11590 0.94811 0.82415
 H216 H 0.18874 1.03006 0.80028
 H217 H 0.22417 1.00950 0.85110
 H218 H 0.14818 0.92772 0.87657
 H219 H 0.10725 1.01947 0.69827
 H220 H 0.13870 1.03902 0.64236
 H221 H 0.23832 1.02384 0.69389
 H222 H 0.20487 1.00343 0.74816
 C223 C 0.06101 0.90608 0.73782
 C224 C 0.06244 1.10475 0.80288
 C225 C 0.19116 1.03378 0.66372
 C226 C 0.18889 0.96685 0.86753
 C227 C 0.55994 0.55834 0.28503
 H228 H 0.55343 0.53241 0.29651
 C229 C 0.54301 0.58871 0.29886
 H230 H 0.52419 0.58590 0.32144
 C231 C 0.59115 0.59356 0.24092
 H232 H 0.60985 0.59564 0.21836
 C233 C 0.57434 0.62447 0.25338
 H234 H 0.58073 0.64988 0.24034
 N235 N 0.58485 0.56138 0.25765
 C236 C 0.59156 0.45012 0.24893
 H237 H 0.61302 0.44626 0.26672
 C238 C 0.57369 0.42066 0.23911
 H239 H 0.58161 0.39453 0.24980
 C240 C 0.55671 0.48858 0.21209
 H241 H 0.55083 0.51513 0.20120
 C242 C 0.53829 0.45972 0.20128
 H243 H 0.51813 0.46440 0.18207
 Zn244 Zn 0.61310 0.52078 0.24391
 N245 N 0.58349 0.48312 0.23470
 C246 C 0.62798 0.50019 0.31490
 N247 N 0.64286 0.50523 0.28148
 C248 C 0.67798 0.49707 0.27426
 C249 C 0.69937 0.48319 0.30104
 C250 C 0.64839 0.48654 0.34247
 C251 C 0.63566 0.51970 0.17029
 C252 C 0.65531 0.53097 0.13951
 C253 C 0.68854 0.56824 0.17497
 C254 C 0.66804 0.55662 0.20488
 N255 N 0.64188 0.53306 0.20211
 H256 H 0.59998 0.50566 0.32024
 H257 H 0.68929 0.50012 0.24748
 H258 H 0.72706 0.47627 0.29444
 H259 H 0.63566 0.48218 0.36861
 H260 H 0.61510 0.50070 0.16848
 H261 H 0.64960 0.52044 0.11440
 H262 H 0.70882 0.58740 0.17794
 H263 H 0.67255 0.56692 0.23038
 C264 C 0.54742 0.42506 0.21412
 C265 C 0.55083 0.62237 0.28343
 C266 C 0.68202 0.55578 0.14159
 C267 C 0.68451 0.47739 0.33566
 C268 C 0.91774 0.47514 0.74928
 H269 H 0.92775 0.50143 0.75115
 C270 C 0.93729 0.44564 0.76261
 H271 H 0.96218 0.44970 0.77470
 C272 C 0.87264 0.43783 0.73274
 H273 H 0.84683 0.43508 0.72207
 C274 C 0.89141 0.40769 0.74535
 H275 H 0.87981 0.38192 0.74399
 N276 N 0.88550 0.47079 0.73573
 C277 C 0.89656 0.56691 0.73945
 H278 H 0.89582 0.55492 0.76604
 C279 C 0.91620 0.59748 0.73138
 H280 H 0.93081 0.60863 0.75183
 C281 C 0.87768 0.56761 0.68075
 H282 H 0.86193 0.55679 0.66116
 C283 C 0.89704 0.59777 0.67152
 H284 H 0.89606 0.60924 0.64476
 Zn285 Zn 0.85368 0.50923 0.72395
 N286 N 0.87862 0.55203 0.71391
 C287 C 0.82526 0.49289 0.79239
 N288 N 0.82154 0.51586 0.76378
 C289 C 0.80144 0.54653 0.76638
 C290 C 0.78660 0.55638 0.79944
 C291 C 0.81133 0.50182 0.82574
 C292 C 0.85781 0.48770 0.65697
 C293 C 0.84840 0.47552 0.62495
 C294 C 0.78646 0.47995 0.64550
 C295 C 0.79722 0.49267 0.67747
 N296 N 0.83251 0.49617 0.68242
 H297 H 0.84141 0.46876 0.79016
 H298 H 0.79943 0.56471 0.74347
 H299 H 0.77292 0.58207 0.80162
 H300 H 0.81672 0.48424 0.84850
 H301 H 0.88567 0.49023 0.66185
 H302 H 0.86951 0.46888 0.60554
 H303 H 0.75842 0.47660 0.64196
 H304 H 0.77761 0.49903 0.69840
 C305 C 0.91707 0.61288 0.69678
 C306 C 0.92361 0.41147 0.76162
 C307 C 0.81240 0.47099 0.61882
 C308 C 0.79313 0.53460 0.82983
 C309 C 0.25058 0.41761 -0.01706
 H310 H 0.25168 0.42745 0.00912
 C311 C 0.26090 0.43942 -0.04657
 H312 H 0.27006 0.46581 -0.04265
 C313 C 0.23864 0.37108 -0.05420
 H314 H 0.23088 0.34401 -0.05693
 C315 C 0.24817 0.39204 -0.08430
 H316 H 0.24752 0.38075 -0.11001
 N317 N 0.24087 0.38370 -0.02137
 C318 C 0.19062 0.36545 0.07757
 H319 H 0.17265 0.34694 0.06790
 C320 C 0.18031 0.38348 0.10785
 H321 H 0.15429 0.37883 0.12059
 C322 C 0.24655 0.39269 0.07368
 H323 H 0.27247 0.39591 0.06028
 C324 C 0.23738 0.41119 0.10431
 H325 H 0.25622 0.42891 0.11410
 Zn326 Zn 0.23265 0.34941 0.01630
 N327 N 0.22262 0.37142 0.06018
 C328 C 0.27843 0.29642 0.04800
 N329 N 0.27461 0.32001 0.01990
 C330 C 0.30290 0.32822 -0.00265
 C331 C 0.33701 0.31495 0.00417
 C332 C 0.31232 0.28221 0.05569
 C333 C 0.16414 0.34964 -0.00091
 C334 C 0.13235 0.33891 -0.01307
 C335 C 0.15739 0.27897 -0.01563
 C336 C 0.18900 0.29094 -0.00264
 N337 N 0.19168 0.32592 0.00409
 H338 H 0.25570 0.29075 0.06590
 H339 H 0.29975 0.34717 -0.02466
 H340 H 0.35937 0.32364 -0.01297
 H341 H 0.31534 0.26542 0.07948
 H342 H 0.16726 0.37740 0.00404
 H343 H 0.11129 0.35885 -0.01710
 H344 H 0.15580 0.25137 -0.02197
 H345 H 0.21157 0.27270 0.00090
 C346 C 0.20340 0.40738 0.12115
 C347 C 0.26062 0.42628 -0.08067
 C348 C 0.12870 0.30336 -0.02142
 C349 C 0.34229 0.29288 0.03445
 C350 C 0.79831 0.05532 1.05575
 H351 H 0.81191 0.05322 1.02995
 C352 C 0.81217 0.03706 1.08533
 H353 H 0.83637 0.02080 1.08202
 C354 C 0.75066 0.07964 1.09143
 H355 H 0.72679 0.09635 1.09386
 C356 C 0.76320 0.06143 1.12152
 H357 H 0.74880 0.06465 1.14679
 N358 N 0.76891 0.07727 1.05954
 C359 C 0.76117 0.08532 0.94983
 H360 H 0.78284 0.10343 0.94690
 C361 C 0.74945 0.07023 0.91982
 H362 H 0.76222 0.07725 0.89421
 C363 C 0.71804 0.05481 0.98648
 H364 H 0.70543 0.04957 1.01251
 C365 C 0.70534 0.03914 0.95708
 H366 H 0.68302 0.02173 0.96088
 Zn367 Zn 0.75450 0.10704 1.02042
 N368 N 0.74423 0.07887 0.98209
 C369 C 0.78288 0.16451 0.98044
 N370 N 0.79131 0.13849 1.00507
 C371 C 0.82504 0.13430 1.01642
 C372 C 0.85236 0.15501 1.00092
 C373 C 0.80925 0.18602 0.96453
 C374 C 0.68124 0.13124 1.02002
 C375 C 0.65125 0.15155 1.03133
 C376 C 0.68813 0.18149 1.06994
 C377 C 0.71731 0.16037 1.05816
 N378 N 0.71336 0.13540 1.03404
 H379 H 0.75582 0.16755 0.97211
 H380 H 0.83122 0.11432 1.03676
 H381 H 0.87924 0.15046 1.00947
 H382 H 0.80204 0.20569 0.94407
 H383 H 0.67857 0.11215 1.00011
 H384 H 0.62591 0.14749 1.02012
 H385 H 0.69191 0.20084 1.08952
 H386 H 0.74318 0.16356 1.06857
 C387 C 0.72017 0.04799 0.92298
 C388 C 0.79493 0.04063 1.11891
 C389 C 0.65441 0.17695 1.05679
 C390 C 0.84475 0.18073 0.97403
 C391 C 0.28741 0.58435 0.54899
 H392 H 0.30204 0.58198 0.52375
 C393 C 0.30096 0.56797 0.57961
 H394 H 0.32586 0.55264 0.57765
 C395 C 0.23787 0.60847 0.58232
 H396 H 0.21397 0.62525 0.58355
 C397 C 0.25014 0.59211 0.61347
 H398 H 0.23512 0.59619 0.63826
 N399 N 0.25662 0.60446 0.55092
 C400 C 0.22617 0.61843 0.44200
 H401 H 0.22740 0.64713 0.43967
 C402 C 0.21847 0.59965 0.41279
 H403 H 0.21330 0.61423 0.38810
 C404 C 0.23098 0.56494 0.47753
 H405 H 0.23591 0.55173 0.50291
 C406 C 0.22245 0.54504 0.44902
 H407 H 0.22072 0.51642 0.45263
 Zn408 Zn 0.24349 0.63083 0.50953
 N409 N 0.23259 0.60096 0.47339
 C410 C 0.30479 0.64285 0.46635
 N411 N 0.28391 0.65709 0.49297
 C412 C 0.29345 0.68699 0.50839
 C413 C 0.32326 0.70548 0.49485
 C414 C 0.33532 0.65973 0.45286
 C415 C 0.17147 0.64150 0.52875
 C416 C 0.13966 0.65971 0.53857
 C417 C 0.16951 0.71509 0.52689
 C418 C 0.20061 0.69581 0.51674
 N419 N 0.20148 0.65959 0.51918
 H420 H 0.29803 0.61805 0.45565
 H421 H 0.27791 0.69665 0.53103
 H422 H 0.32992 0.72994 0.50647
 H423 H 0.35110 0.64830 0.43118
 H424 H 0.17259 0.61270 0.52974
 H425 H 0.11656 0.64468 0.54742
 H426 H 0.16973 0.74388 0.52600
 H427 H 0.22398 0.70995 0.50741
 C428 C 0.21628 0.56251 0.41610
 C429 C 0.28241 0.57207 0.61246
 C430 C 0.13869 0.69700 0.53867
 C431 C 0.34438 0.69183 0.46658
 C432 C 0.76074 0.90246 0.49099
 H433 H 0.75948 0.91600 0.51551
 C434 C 0.77588 0.91924 0.46027
 H435 H 0.78651 0.94546 0.46164
 C436 C 0.74826 0.85222 0.45903
 H437 H 0.73727 0.82609 0.45870
 C438 C 0.76262 0.86813 0.42774
 H439 H 0.76301 0.85376 0.40363
 N440 N 0.74789 0.86923 0.48993
 C441 C 0.67881 0.87856 0.57848
 H442 H 0.65885 0.86353 0.56700
 C443 C 0.66847 0.90081 0.60582
 H444 H 0.64057 0.90285 0.61447
 C445 C 0.73926 0.89270 0.58259
 H446 H 0.76693 0.88893 0.57374
 C447 C 0.73011 0.91487 0.61054
 H448 H 0.75084 0.92843 0.62273
 Zn449 Zn 0.72662 0.84401 0.52968
 N450 N 0.71363 0.87531 0.56689
 C451 C 0.76442 0.80731 0.58202
 N452 N 0.76043 0.80927 0.54647
 C453 C 0.78610 0.79562 0.52364
 C454 C 0.81884 0.78293 0.53606
 C455 C 0.79685 0.79560 0.59540
 C456 C 0.66422 0.85226 0.49850
 C457 C 0.63370 0.84486 0.48179
 C458 C 0.64615 0.78207 0.49367
 C459 C 0.67669 0.79086 0.51087
 N460 N 0.68499 0.82562 0.51273
 H461 H 0.74376 0.81820 0.59976
 H462 H 0.78269 0.79762 0.49548
 H463 H 0.84013 0.77506 0.51731
 H464 H 0.80071 0.79730 0.62342
 H465 H 0.67189 0.87958 0.49973
 H466 H 0.61815 0.86697 0.47054
 H467 H 0.64003 0.75439 0.49162
 H468 H 0.69411 0.77009 0.52176
 C469 C 0.69422 0.91931 0.62227
 C470 C 0.77704 0.90191 0.42816
 C471 C 0.62437 0.80943 0.47862
 C472 C 0.82507 0.78505 0.57205
 C473 C -0.01303 0.27016 0.38261
 H474 H 0.01145 0.28402 0.37703
 C475 C -0.04225 0.28796 0.39870
 H476 H -0.03944 0.31507 0.40617
 C477 C -0.04705 0.21918 0.37722
 H478 H -0.04935 0.19280 0.36790
 C479 C -0.07696 0.23594 0.39354
 H480 H -0.10171 0.22201 0.39682
 N481 N -0.01580 0.23641 0.37208
 C482 C 0.07960 0.17267 0.37498
 H483 H 0.07241 0.15405 0.35601
 C484 C 0.10757 0.16358 0.39677
 H485 H 0.12095 0.13774 0.39466
 C486 C 0.07258 0.22943 0.39921
 H487 H 0.05927 0.25525 0.39988
 C488 C 0.10096 0.22166 0.42109
 H489 H 0.10883 0.24149 0.43863
 Zn490 Zn 0.02408 0.21612 0.34614
 N491 N 0.06210 0.20487 0.37699
 C492 C 0.07570 0.25643 0.30927
 N493 N 0.04005 0.25126 0.31189
 C494 C 0.01645 0.27641 0.29915
 C495 C 0.02827 0.30984 0.28658
 C496 C 0.08856 0.28934 0.29717
 C497 C 0.00297 0.14693 0.35086
 C498 C -0.00919 0.11476 0.34081
 C499 C -0.00756 0.13785 0.28006
 C500 C 0.00538 0.16977 0.29135
 N501 N 0.00996 0.17371 0.32638
 H502 H 0.09397 0.23622 0.31972
 H503 H -0.01184 0.27194 0.30216
 H504 H 0.00892 0.33064 0.27949
 H505 H 0.11680 0.29379 0.29789
 H506 H 0.00636 0.15089 0.37858
 H507 H -0.01495 0.09432 0.36126
 H508 H -0.01198 0.13527 0.25229
 H509 H 0.01087 0.19157 0.27236
 C510 C 0.11857 0.18819 0.42026
 C511 C -0.07489 0.27099 0.40403
 C512 C -0.01520 0.10989 0.30511
 C513 C 0.06453 0.31715 0.28760
 C514 C 1.05898 0.78362 0.06259
 H515 H 1.03323 0.79648 0.05841
 C516 C 1.08981 0.79856 0.04697
 H517 H 1.08765 0.82290 0.03061
 C518 C 1.09315 0.73691 0.09000
 H519 H 1.09438 0.71318 0.10723
 C520 C 1.12458 0.75044 0.07420
 H521 H 1.14983 0.73704 0.07960
 N522 N 1.06132 0.75427 0.08490
 C523 C 0.95215 0.74926 0.08211
 H524 H 0.94804 0.76981 0.10094
 C525 C 0.92398 0.74066 0.06204
 H526 H 0.89846 0.75454 0.06615
 C527 C 0.99014 0.70628 0.05421
 H528 H 1.01603 0.69286 0.05155
 C529 C 0.96257 0.69664 0.03365
 H530 H 0.96747 0.67556 0.01537
 Zn531 Zn 1.01958 0.73947 0.11095
 N532 N 0.98401 0.73106 0.07899
 C533 C 0.97551 0.76751 0.16554
 N534 N 1.00252 0.77580 0.14153
 C535 C 1.01562 0.80915 0.13869
 C536 C 0.99998 0.83622 0.15890
 C537 C 0.95948 0.79361 0.18666
 C538 C 1.01816 0.66496 0.13228
 C539 C 1.02739 0.63476 0.15341
 C540 C 1.05873 0.67243 0.19014
 C541 C 1.04949 0.70170 0.16801
 N542 N 1.02982 0.69755 0.13952
 H543 H 0.96575 0.74076 0.16752
 H544 H 1.03774 0.81523 0.12035
 H545 H 1.01021 0.86277 0.15564
 H546 H 0.93742 0.78658 0.20496
 H547 H 1.00196 0.66208 0.11002
 H548 H 1.01836 0.60899 0.14695
 H549 H 1.07480 0.67645 0.21240
 H550 H 1.05823 0.72787 0.17338
 C551 C 0.92858 0.71313 0.03833
 C552 C 1.12318 0.78231 0.05337
 C553 C 1.04801 0.63830 0.18275
 C554 C 0.97121 0.82869 0.18292
 C555 C 0.56165 0.31955 0.59052
 H556 H 0.54710 0.33795 0.60733
 C557 C 0.59216 0.33087 0.57132
 H558 H 0.60008 0.35803 0.57338
 C559 C 0.57018 0.26164 0.56911
 H560 H 0.56180 0.23445 0.56903
 C561 C 0.60128 0.27179 0.54969
 H562 H 0.61639 0.25233 0.53434
 N563 N 0.55103 0.28552 0.58900
 C564 C 0.44099 0.25595 0.61123
 H565 H 0.43906 0.26408 0.63829
 C566 C 0.41101 0.24365 0.59630
 H567 H 0.38620 0.24252 0.61220
 C568 C 0.47629 0.24620 0.55856
 H569 H 0.50188 0.24696 0.54415
 C570 C 0.44694 0.23303 0.54272
 H571 H 0.45026 0.22373 0.51608
 Zn572 Zn 0.51132 0.27038 0.61855
 N573 N 0.47287 0.25675 0.59248
 C574 C 0.47904 0.33737 0.62818
 N575 N 0.49343 0.30861 0.64619
 C576 C 0.49300 0.30682 0.68218
 C577 C 0.47784 0.33488 0.70142
 C578 C 0.46408 0.36616 0.64630
 C579 C 0.51225 0.19824 0.64329
 C580 C 0.52499 0.16776 0.66181
 C581 C 0.56685 0.20389 0.68869
 C582 C 0.55368 0.23363 0.66921
 N583 N 0.52672 0.23037 0.64718
 H584 H 0.47908 0.33779 0.59957
 H585 H 0.50377 0.28343 0.69608
 H586 H 0.47740 0.33280 0.73008
 H587 H 0.45256 0.38861 0.63138
 H588 H 0.49127 0.19596 0.62523
 H589 H 0.51329 0.14244 0.65806
 H590 H 0.58846 0.20704 0.70593
 H591 H 0.56523 0.25929 0.67133
 C592 C 0.41385 0.23127 0.56187
 C593 C 0.61268 0.30686 0.55077
 C594 C 0.55270 0.17031 0.68484
 C595 C 0.46305 0.36504 0.68344
 C596 C 0.49282 0.79149 0.89679
 H597 H 0.51550 0.80737 0.88890
 C598 C 0.46632 0.80518 0.92017
 H599 H 0.46955 0.83104 0.93066
 C600 C 0.45926 0.74051 0.88995
 H601 H 0.45551 0.71607 0.87721
 C602 C 0.43234 0.75301 0.91343
 H603 H 0.40870 0.73758 0.91852
 N604 N 0.48871 0.75988 0.88171
 C605 C 0.58384 0.70229 0.85390
 H606 H 0.57300 0.68649 0.83429
 C607 C 0.61460 0.68995 0.87017
 H608 H 0.62669 0.66450 0.86324
 C609 C 0.58194 0.75474 0.88606
 H610 H 0.56919 0.77991 0.89233
 C611 C 0.61313 0.74367 0.90256
 H612 H 0.62380 0.76039 0.92162
 Zn613 Zn 0.52194 0.74589 0.84449
 N614 N 0.56721 0.73348 0.86310
 C615 C 0.55912 0.79247 0.79609
 N616 N 0.52660 0.78558 0.81196
 C617 C 0.49955 0.81063 0.81180
 C618 C 0.50575 0.84527 0.79857
 C619 C 0.56615 0.82654 0.78151
 C620 C 0.50372 0.67560 0.84603
 C621 C 0.48838 0.64487 0.83611
 C622 C 0.47514 0.67482 0.78018
 C623 C 0.49111 0.70530 0.79124
 N624 N 0.50433 0.70525 0.82404
 H625 H 0.58038 0.77234 0.79714
 H626 H 0.47396 0.80460 0.82471
 H627 H 0.48481 0.86566 0.80122
 H628 H 0.59284 0.83227 0.77111
 H629 H 0.51412 0.67630 0.87207
 H630 H 0.48762 0.62209 0.85473
 H631 H 0.46347 0.67557 0.75462
 H632 H 0.49177 0.72926 0.77423
 C633 C 0.62916 0.71036 0.89544
 C634 C 0.43522 0.78620 0.92815
 C635 C 0.47295 0.64434 0.80321
 C636 C 0.53977 0.85379 0.78441
 N637 N 0.47215 -0.12530 0.32372
 C638 C 0.46004 -0.15835 0.31986
 N639 N 0.43516 -0.16250 0.29586
 N640 N 0.42246 -0.13457 0.27692
 C641 C 0.43411 -0.10139 0.28121
 N642 N 0.45937 -0.09738 0.30486
 N643 N 0.97892 0.35797 0.82338
 C644 C 0.96574 0.32503 0.82167
 N645 N 0.94040 0.32016 0.79834
 N646 N 0.92805 0.34738 0.77822
 C647 C 0.94063 0.38053 0.78047
 N648 N 0.96662 0.38518 0.80318
 N649 N 0.02891 1.19799 0.80475
 C650 C 0.01704 1.20065 0.83905
 N651 N 0.01951 1.17145 0.86145
 N652 N 0.03346 1.14078 0.84993
 C653 C 0.04555 1.13819 0.81560
 N654 N 0.04300 1.16744 0.79330
 N655 N 0.52193 0.71620 0.29305
 C656 C 0.51056 0.71654 0.32769
 N657 N 0.51173 0.68561 0.34770
 N658 N 0.52393 0.65549 0.33353
 C659 C 0.53554 0.65522 0.29888
 N660 N 0.53435 0.68621 0.27898
 N661 N 0.53262 0.33168 0.19490
 C662 C 0.51187 0.33540 0.16663
 N663 N 0.50097 0.36868 0.15541
 N664 N 0.51102 0.39714 0.17140
 C665 C 0.53242 0.39349 0.19923
 N666 N 0.54266 0.36013 0.21086
 N667 N 0.04567 0.81791 0.70432
 C668 C 0.01556 0.82415 0.68633
 N669 N -0.00107 0.85682 0.68801
 N670 N 0.01235 0.88234 0.70590
 C671 C 0.04312 0.87639 0.72274
 N672 N 0.05918 0.84349 0.72204
 N673 N 0.96051 0.68413 0.64192
 C674 C 0.97317 0.70490 0.66636
 N675 N 0.96857 0.69453 0.70121
 N676 N 0.95142 0.66492 0.71109
 C677 C 0.93806 0.64466 0.68650
 N678 N 0.94335 0.65473 0.65175
 N679 N 0.44669 0.21129 0.19631
 C680 C 0.46395 0.21172 0.16382
 N681 N 0.46225 0.18293 0.14389
 N682 N 0.44394 0.15481 0.15583
 C683 C 0.42639 0.15437 0.18816
 N684 N 0.42824 0.18316 0.20823
 N685 N 0.29149 0.44962 -0.17272
 C686 C 0.31335 0.47682 -0.16850
 N687 N 0.31566 0.48912 -0.13559
 N688 N 0.29756 0.47417 -0.10784
 C689 C 0.27647 0.44628 -0.11190
 N690 N 0.27349 0.43463 -0.14498
 N691 N 0.80794 0.91700 0.33456
 C692 C 0.83132 0.94339 0.33647
 N693 N 0.83531 0.95737 0.36838
 N694 N 0.81723 0.94498 0.39734
 C695 C 0.79454 0.91797 0.39560
 N696 N 0.79000 0.90449 0.36356
 N697 N 0.85907 -0.00117 1.18061
 C698 C 0.83895 -0.00378 1.21147
 N699 N 0.80425 0.00759 1.21159
 N700 N 0.79028 0.02132 1.18214
 C701 C 0.81031 0.02397 1.15122
 N702 N 0.84502 0.01240 1.15105
 N703 N 0.34532 0.53385 0.67715
 C704 C 0.32401 0.53046 0.70718
 N705 N 0.28900 0.54033 0.70583
 N706 N 0.27582 0.55333 0.67572
 C707 C 0.29703 0.55671 0.64563
 N708 N 0.33207 0.54666 0.64694
 N709 N 0.19453 0.54298 0.32555
 C710 C 0.17577 0.51291 0.33106
 N711 N 0.17305 0.49750 0.36431
 N712 N 0.18760 0.51218 0.39117
 C713 C 0.20515 0.54304 0.38584
 N714 N 0.20885 0.55776 0.35240
 N715 N 0.69752 0.04311 0.82955
 C716 C 0.66781 0.02351 0.83249
 N717 N 0.65652 0.01036 0.86512
 N718 N 0.67387 0.01701 0.89370
 C719 C 0.70330 0.03706 0.89087
 N720 N 0.71489 0.04972 0.85814
 N721 N 0.69627 0.97058 0.70312
 C722 C 0.66151 0.98128 0.70813
 N723 N 0.63805 0.97243 0.68433
 N724 N 0.64867 0.95328 0.65686
 C725 C 0.68328 0.94223 0.65191
 N726 N 0.70698 0.95153 0.67543
 N727 N 0.20273 0.46222 0.19992
 C728 C 0.16729 0.46485 0.20914
 N729 N 0.14418 0.44915 0.18908
 N730 N 0.15585 0.43126 0.16111
 C731 C 0.19118 0.42826 0.15192
 N732 N 0.21445 0.44440 0.17169
 N733 N -0.16592 0.29220 0.44147
 C734 C -0.16519 0.32810 0.44346
 N735 N -0.13482 0.34481 0.43278
 N736 N -0.10620 0.32651 0.42070
 C737 C -0.10673 0.29068 0.41861
 N738 N -0.13721 0.27384 0.42916
 N739 N 0.34565 0.79899 0.97146
 C740 C 0.34479 0.83411 0.97844
 N741 N 0.37474 0.85282 0.97066
 N742 N 0.40396 0.83724 0.95607
 C743 C 0.40450 0.80233 0.94849
 N744 N 0.37485 0.78347 0.95683
 N745 N 1.21721 0.79598 0.02430
 C746 C 1.21809 0.83201 0.02004
 N747 N 1.18737 0.85145 0.02587
 N748 N 1.15707 0.83557 0.03568
 C749 C 1.15632 0.79959 0.04030
 N750 N 1.18700 0.78010 0.03449
 N751 N 0.70085 0.30530 0.50190
 C752 C 0.70863 0.34036 0.49974
 N753 N 0.68453 0.36417 0.51367
 N754 N 0.65401 0.35346 0.52943
 C755 C 0.64617 0.31846 0.53183
 N756 N 0.67019 0.29457 0.51761
 N757 N 0.32313 0.19930 0.55360
 C758 C 0.32814 0.17649 0.52696
 N759 N 0.36098 0.17359 0.51024
 N760 N 0.38791 0.19212 0.52028
 C761 C 0.38313 0.21418 0.54760
 N762 N 0.35008 0.21768 0.56374
 N763 N 0.87227 0.65614 -0.01045
 C764 C 0.83898 0.66922 -0.00161
 N765 N 0.83549 0.69817 0.01843
 N766 N 0.86409 0.71310 0.02966
 C767 C 0.89739 0.69962 0.02152
 N768 N 0.90089 0.67106 0.00086
 N769 N 0.70937 0.70472 0.94816
 C770 C 0.71560 0.66897 0.95174
 N771 N 0.69351 0.64713 0.93668
 N772 N 0.66630 0.66041 0.91862
 C773 C 0.65992 0.69610 0.91503
 N774 N 0.68187 0.71804 0.93033
 N775 N 0.19607 0.19508 0.47565
 C776 C 0.20546 0.16025 0.48222
 N777 N 0.18564 0.13502 0.46920
 N778 N 0.15784 0.14402 0.45001
 C779 C 0.14853 0.17872 0.44311
 N780 N 0.16799 0.20413 0.45659
 N781 N 0.60048 0.11259 0.74981
 C782 C 0.59513 0.07939 0.73898
 N783 N 0.57532 0.07618 0.71040
 N784 N 0.56153 0.10497 0.69344
 C785 C 0.56719 0.13816 0.70417
 N786 N 0.58693 0.14133 0.73274
 N787 N 1.07411 0.54596 0.21225
 C788 C 1.08653 0.55091 0.24464
 N789 N 1.08426 0.58419 0.25710
 N790 N 1.07104 0.61154 0.23783
 C791 C 1.05938 0.60691 0.20516
 N792 N 1.06065 0.57344 0.19294
 N793 N 0.93769 0.91737 0.21068
 C794 C 0.91653 0.90870 0.23987
 N795 N 0.91427 0.87381 0.25052
 N796 N 0.93194 0.84859 0.23266
 C797 C 0.95292 0.85713 0.20342
 N798 N 0.95561 0.89207 0.19287
 N799 N 0.41564 0.41329 0.75534
 C800 C 0.40680 0.44506 0.73896
 N801 N 0.41779 0.45113 0.70449
 N802 N 0.43633 0.42603 0.68698
 C803 C 0.44478 0.39402 0.70330
 N804 N 0.43434 0.38836 0.73794
 N805 N 0.42248 0.56242 0.81677
 C806 C 0.40982 0.55812 0.78447
 N807 N 0.41920 0.58153 0.75733
 N808 N 0.43995 0.60867 0.76271
 C809 C 0.45224 0.61312 0.79534
 N810 N 0.44330 0.58917 0.82203
 N811 N -0.06585 0.04536 0.25836
 C812 C -0.07051 0.01917 0.28409
 N813 N -0.05446 0.02170 0.31501
 N814 N -0.03541 0.04968 0.32060
 C815 C -0.03172 0.07664 0.29567
 N816 N -0.04677 0.07363 0.26407
 N817 N 0.07011 0.41414 0.26586
 C818 C 0.09752 0.42255 0.28556
 N819 N 0.11448 0.39611 0.30442
 N820 N 0.10438 0.36270 0.30405
 C821 C 0.07680 0.35414 0.28484
 N822 N 0.05962 0.38057 0.26587
 N823 N 0.58663 0.93393 0.75078
 C824 C 0.57585 0.95770 0.77536
 N825 N 0.55117 0.94794 0.80116
 N826 N 0.53797 0.91550 0.80249
 C827 C 0.54946 0.89134 0.77852
 N828 N 0.57387 0.90127 0.75245
 N829 N 0.71062 0.57782 0.04777
 C830 C 0.74017 0.59675 0.05149
 N831 N 0.75066 0.60137 0.08467
 N832 N 0.73238 0.58800 0.11300
 C833 C 0.70277 0.56925 0.10951
 N834 N 0.69231 0.56426 0.07626
 N835 N 0.25969 1.07953 0.60667
 C836 C 0.24329 1.08534 0.57571
 N837 N 0.21027 1.07259 0.57315
 N838 N 0.19403 1.05533 0.60077
 C839 C 0.21027 1.04991 0.63193
 N840 N 0.24357 1.06210 0.63416
 N841 N 0.21363 0.92705 0.95390
 C842 C 0.24830 0.91702 0.94701
 N843 N 0.26374 0.92571 0.91457
 N844 N 0.24521 0.94317 0.88983
 C845 C 0.21034 0.95226 0.89644
 N846 N 0.19488 0.94398 0.92893
 N847 N 0.71011 0.43580 0.42177
 C848 C 0.74303 0.42170 0.41329
 N849 N 0.75719 0.42748 0.37980
 N850 N 0.73902 0.44607 0.35555
 C851 C 0.70581 0.45960 0.36368
 N852 N 0.69185 0.45436 0.39741
 N853 N 0.82396 0.42907 0.53299
 C854 C 0.79059 0.41935 0.52695
 N855 N 0.76338 0.42852 0.55028
 N856 N 0.76972 0.44598 0.57910
 C857 C 0.80348 0.45495 0.58547
 N858 N 0.83021 0.44654 0.56148
 N859 N 0.25107 -0.06693 0.06973
 C860 C 0.28191 -0.08435 0.05911
 N861 N 0.31155 -0.07988 0.07709
 N862 N 0.31061 -0.05893 0.10438
 C863 C 0.27993 -0.04165 0.11497
 N864 N 0.25005 -0.04596 0.09726
 N865 N 0.25410 0.08748 0.43066
 C866 C 0.28202 0.08397 0.45203
 N867 N 0.31197 0.06589 0.44063
 N868 N 0.31396 0.05188 0.40895
 C869 C 0.28638 0.05597 0.38721
 N870 N 0.25630 0.07394 0.39869
 N871 N 0.80793 0.55467 0.92190
 C872 C 0.78159 0.57922 0.92911
 N873 N 0.75749 0.58761 0.90429
 N874 N 0.76009 0.57250 0.87305
 C875 C 0.78669 0.54813 0.86571
 N876 N 0.81021 0.53920 0.89095
 N877 N 0.08357 0.76519 0.58467
 C878 C 0.05125 0.75007 0.58912
 N879 N 0.04707 0.71826 0.57461
 N880 N 0.07448 0.70180 0.55751
 C881 C 0.10701 0.71668 0.55385
 N882 N 0.11077 0.74898 0.56732
 N883 N 0.59924 0.24598 1.10195
 C884 C 0.56555 0.23723 1.09548
 N885 N 0.56104 0.20872 1.07576
 N886 N 0.58920 0.18975 1.06310
 C887 C 0.62293 0.19843 1.06983
 N888 N 0.62729 0.22699 1.08947
 N889 N 0.93405 0.20758 0.93839
 C890 C 0.92569 0.23519 0.91553
 N891 N 0.89088 0.24544 0.91298
 N892 N 0.86538 0.22859 0.93208
 C893 C 0.87356 0.20080 0.95473
 N894 N 0.90846 0.19073 0.95764
 N895 N 0.42917 0.71180 0.41724
 C896 C 0.42623 0.74769 0.41217
 N897 N 0.39733 0.76528 0.42686
 N898 N 0.37204 0.74761 0.44557
 C899 C 0.37449 0.71163 0.44991
 N900 N 0.40362 0.69407 0.43555
 N901 N 0.55858 0.76442 0.42779
 C902 C 0.53926 0.79287 0.41464
 N903 N 0.54687 0.82582 0.42421
 N904 N 0.57311 0.83047 0.44535
 C905 C 0.59315 0.80245 0.45793
 N906 N 0.58516 0.76915 0.44902
 N907 N 0.04348 0.31317 -0.06481
 C908 C 0.03991 0.28074 -0.07791
 N909 N 0.06446 0.25442 -0.07033
 N910 N 0.09217 0.26083 -0.05115
 C911 C 0.09615 0.29375 -0.03880
 N912 N 0.07084 0.31945 -0.04559
 N913 N 0.43563 0.30785 0.05246
 C914 C 0.44348 0.28023 0.07540
 N915 N 0.41870 0.25521 0.08313
 N916 N 0.38690 0.25818 0.06903
 C917 C 0.37886 0.28614 0.04641
 N918 N 0.40409 0.31054 0.03802
 N919 N 0.91945 0.75774 0.58434
 C920 C 0.92945 0.78296 0.60603
 N921 N 0.90487 0.80824 0.61627
 N922 N 0.87173 0.80823 0.60579
 C923 C 0.86166 0.78308 0.58432
 N924 N 0.88626 0.75805 0.57330
   
