data_POSCAR
  _audit_creation_date              2014-09-24
  _audit_creation_method            'ToBaCCo'
  _symmetry_space_group_name_H-M    'P1'
  _symmetry_Int_Tables_number       1
  _symmetry_cell_setting            triclinic
  loop_
  _symmetry_equiv_pos_as_xyz
 x,y,z
_cell_length_a 14.3638
_cell_length_b 14.6322
_cell_length_c 24.5985
_cell_angle_alpha 82.359200
_cell_angle_beta 100.834700
_cell_angle_gamma 87.924300
loop_
  _atom_site_label
  _atom_site_type_symbol
  _atom_site_fract_x
  _atom_site_fract_y
  _atom_site_fract_z
O1 O 0.03909 0.55342 1.05433
 O2 O 0.06891 0.42023 0.94124
 O3 O 0.07251 0.59396 0.95538
 O4 O 0.04012 0.38074 1.04341
 O5 O -0.11540 0.40104 1.01514
 O6 O -0.08047 0.60855 0.91862
 O7 O -0.08675 0.42881 0.91233
 O8 O -0.11454 0.57555 1.01931
 Cu9 Cu 0.07071 0.48496 1.00144
 Cu10 Cu -0.11487 0.50498 0.96233
 C11 C -0.04273 0.58795 1.05580
 C12 C -0.00424 0.40006 0.90833
 C13 C 0.00227 0.63866 0.92235
 C14 C -0.04287 0.35623 1.04620
 O15 O 0.43909 0.09632 0.53652
 O16 O 0.55134 0.07604 0.41474
 O17 O 0.37355 0.07453 0.43250
 O18 O 0.60902 0.09763 0.51869
 O19 O 0.62854 -0.05441 0.53891
 O20 O 0.39002 -0.07627 0.45847
 O21 O 0.56120 -0.07543 0.43658
 O22 O 0.45994 -0.05482 0.56063
 Cu23 Cu 0.49072 0.10149 0.47242
 Cu24 Cu 0.51125 -0.08034 0.50058
 C25 C 0.43262 0.02398 0.57011
 C26 C 0.57732 -0.00360 0.40552
 C27 C 0.34050 -0.00490 0.43208
 C28 C 0.65866 0.02523 0.54352
 C29 C -0.07838 -0.14527 0.20579
 C30 C -0.16715 -0.13478 0.23107
 C31 C -0.17293 -0.05683 0.25546
 C32 C -0.08811 0.00414 0.25224
 C33 C -0.07897 -0.05594 0.16585
 C34 C -0.08333 0.02179 0.18989
 C35 C 0.00386 -0.13955 0.25489
 C36 C -0.00048 -0.06142 0.27907
 H37 H -0.21864 -0.18690 0.23198
 H38 H -0.09155 0.06801 0.27180
 H39 H -0.07355 -0.05479 0.12245
 H40 H 0.06031 -0.19310 0.26950
 C41 C 0.18433 0.04263 0.72471
 C42 C 0.17406 -0.03783 0.76952
 C43 C 0.08880 -0.03617 0.78612
 C44 C 0.02213 0.04833 0.75740
 C45 C 0.09800 0.04071 0.67807
 C46 C 0.01369 0.04431 0.69482
 C47 C 0.16594 0.12864 0.75154
 C48 C 0.08082 0.13270 0.76872
 H49 H 0.22791 -0.09317 0.78508
 H50 H -0.04752 0.04952 0.77028
 H51 H 0.10342 0.03584 0.63517
 H52 H 0.21911 0.17827 0.75895
 C53 C 0.02456 -0.33518 0.13804
 C54 C -0.05431 -0.35726 0.10048
 C55 C -0.14456 -0.32280 0.10585
 C56 C -0.15326 -0.25898 0.14294
 C57 C -0.07205 -0.22957 0.17656
 C58 C 0.01605 -0.27257 0.17473
 C59 C 0.10732 -0.23143 0.16706
 C60 C 0.11653 -0.30016 0.12698
 H61 H -0.20807 -0.34004 0.07876
 H62 H -0.22309 -0.22785 0.14209
 H63 H 0.16266 -0.24434 0.20589
 H64 H 0.09704 -0.15845 0.14639
 H65 H 0.17674 -0.35263 0.14290
 H66 H 0.11150 -0.26706 0.08302
 C67 C 0.02489 0.21571 0.11219
 C68 C -0.05363 0.27610 0.08715
 C69 C -0.14035 0.25976 0.10488
 C70 C -0.14916 0.17898 0.14157
 C71 C -0.07203 0.11302 0.15995
 C72 C 0.01553 0.13549 0.14676
 C73 C 0.08689 0.08180 0.12453
 C74 C 0.09750 0.17027 0.08670
 H75 H -0.20188 0.30735 0.08894
 H76 H -0.21740 0.16533 0.15257
 H77 H 0.05583 0.02706 0.10082
 H78 H 0.15192 0.05903 0.15652
 H79 H 0.07225 0.16642 0.04153
 H80 H 0.16832 0.19869 0.09732
 C81 C 0.36272 0.11516 0.63422
 C82 C 0.39207 0.03044 0.62044
 C83 C 0.37565 -0.05011 0.65467
 C84 C 0.31678 -0.04586 0.69401
 C85 C 0.27494 0.03951 0.70149
 C86 C 0.30560 0.11964 0.67358
 C87 C 0.25158 0.20524 0.64117
 C88 C 0.31409 0.19991 0.59810
 H89 H 0.39995 -0.11747 0.64729
 H90 H 0.29645 -0.11067 0.71351
 H91 H 0.26379 0.26603 0.66372
 H92 H 0.17580 0.19484 0.62473
 H93 H 0.36205 0.25764 0.59586
 H94 H 0.27444 0.18539 0.55708
 C95 C -0.22668 0.11234 0.60338
 C96 C -0.24753 0.03348 0.57792
 C97 C -0.17615 -0.03856 0.58704
 C98 C -0.09049 -0.03455 0.62495
 C99 C -0.07595 0.04019 0.65554
 C100 C -0.14298 0.11530 0.64176
 C101 C -0.19152 0.16649 0.67824
 C102 C -0.28314 0.16368 0.63602
 H103 H -0.18763 -0.09908 0.56622
 H104 H -0.03734 -0.09155 0.63216
 H105 H -0.16679 0.23734 0.67997
 H106 H -0.19247 0.12550 0.71952
 H107 H -0.31098 0.23292 0.61326
 H108 H -0.33667 0.12109 0.65289
 C109 C 0.10711 -0.24266 0.89762
 C110 C 0.01780 -0.27862 0.89044
 C111 C -0.05369 -0.22625 0.84911
 C112 C -0.03206 -0.14488 0.81618
 C113 C 0.06135 -0.11368 0.82380
 C114 C 0.12782 -0.16536 0.86631
 C115 C 0.22940 -0.17259 0.89543
 C116 C 0.20552 -0.26002 0.93091
 H117 H -0.12532 -0.24888 0.84113
 H118 H -0.08750 -0.10888 0.78359
 H119 H 0.24716 -0.11451 0.91965
 H120 H 0.27959 -0.18784 0.86807
 H121 H 0.20913 -0.25244 0.97562
 H122 H 0.24098 -0.32452 0.92318
 C123 C -0.04900 0.26661 0.85752
 C124 C 0.00672 0.34185 0.86535
 C125 C 0.07673 0.35711 0.83278
 C126 C 0.09679 0.29250 0.79825
 C127 C 0.04966 0.20913 0.79714
 C128 C -0.02751 0.20130 0.82472
 C129 C -0.05150 0.12363 0.86479
 C130 C -0.07525 0.19526 0.90026
 H131 H 0.11860 0.41698 0.83578
 H132 H 0.15245 0.30670 0.77486
 H133 H 0.01136 0.07647 0.88534
 H134 H -0.11495 0.08874 0.84642
 H135 H -0.02631 0.18975 0.94151
 H136 H -0.15204 0.20189 0.90171
 C137 C -0.34941 -0.10150 0.35037
 C138 C -0.37450 -0.01349 0.36173
 C139 C -0.34497 0.06306 0.32895
 C140 C -0.28188 0.04995 0.29239
 C141 C -0.24882 -0.03978 0.28696
 C142 C -0.28937 -0.11410 0.31375
 C143 C -0.24302 -0.20105 0.34855
 C144 C -0.30869 -0.18725 0.38888
 H145 H -0.36495 0.13294 0.33424
 H146 H -0.25621 0.10986 0.27031
 H147 H -0.16687 -0.19445 0.36643
 H148 H -0.25799 -0.26259 0.32703
 H149 H -0.27049 -0.17267 0.43023
 H150 H -0.36127 -0.24094 0.39061
 C151 C 0.18779 0.05916 0.36742
 C152 C 0.24348 -0.01535 0.40118
 C153 C 0.20401 -0.10240 0.40377
 C154 C 0.11975 -0.11611 0.36694
 C155 C 0.07294 -0.04312 0.32666
 C156 C 0.10439 0.04557 0.33101
 C157 C 0.12368 0.11867 0.28687
 C158 C 0.21432 0.13401 0.32681
 H159 H 0.24134 -0.16150 0.43150
 H160 H 0.09495 -0.18517 0.36760
 H161 H 0.07040 0.17838 0.27834
 H162 H 0.13749 0.08990 0.24944
 H163 H 0.21299 0.20232 0.34182
 H164 H 0.28000 0.11508 0.31197
   
