data_POSCAR
  _audit_creation_date              2014-09-24
  _audit_creation_method            'ToBaCCo'
  _symmetry_space_group_name_H-M    'P1'
  _symmetry_Int_Tables_number       1
  _symmetry_cell_setting            triclinic
  loop_
  _symmetry_equiv_pos_as_xyz
 x,y,z
_cell_length_a 29.1124
_cell_length_b 29.0985
_cell_length_c 29.1869
_cell_angle_alpha 89.963900
_cell_angle_beta 90.086700
_cell_angle_gamma 89.896600
loop_
  _atom_site_label
  _atom_site_type_symbol
  _atom_site_fract_x
  _atom_site_fract_y
  _atom_site_fract_z
O1 O 0.56318 0.11604 0.00335
 O2 O 0.61414 0.05613 -0.00090
 C3 C 0.60472 0.09951 0.00161
 O4 O 0.44005 -0.00534 0.11878
 O5 O 0.38689 -0.00335 0.06076
 C6 C 0.39803 -0.00544 0.10383
 O7 O 0.56810 0.00311 0.11520
 O8 O 0.61670 0.00170 0.05381
 C9 C 0.60909 0.00348 0.09757
 O10 O 0.43348 0.11391 0.00035
 O11 O 0.38438 0.05253 0.00430
 C12 C 0.39249 0.09620 0.00189
 Zr13 Zr 0.49889 0.08124 0.00218
 O14 O 0.49415 0.13154 0.05436
 O15 O 0.50165 0.13337 -0.04836
 Zr16 Zr 0.50302 -0.00119 0.08319
 O17 O 0.49844 0.04972 0.13478
 O18 O 0.51099 -0.05294 0.13366
 O19 O 0.54215 0.04700 0.04782
 O20 O 0.46095 0.04521 0.04980
 O21 O 0.43229 0.00180 -0.11202
 O22 O 0.38352 -0.00155 -0.05048
 C23 C 0.39139 0.00068 -0.09418
 O24 O 0.56568 -0.11520 -0.00553
 O25 O 0.61625 -0.05504 -0.00230
 C26 C 0.60685 -0.09849 -0.00598
 O27 O 0.43935 -0.11765 0.00751
 O28 O 0.38663 -0.05910 0.00670
 C29 C 0.39763 -0.10232 0.00901
 O30 O 0.56215 -0.00210 -0.11553
 O31 O 0.61386 0.00002 -0.05621
 C32 C 0.60394 -0.00129 -0.09939
 Zr33 Zr 0.49787 -0.00025 -0.08024
 O34 O 0.49200 -0.05142 -0.13145
 O35 O 0.50053 0.05160 -0.13109
 Zr36 Zr 0.50178 -0.08238 0.00103
 O37 O 0.49487 -0.13330 -0.05031
 O38 O 0.51053 -0.13424 0.05123
 Zr39 Zr 0.56896 0.00021 -0.00046
 Zr40 Zr 0.43155 -0.00208 0.00370
 O41 O 0.45959 -0.04804 -0.04436
 O42 O 0.54073 -0.04714 -0.04729
 O43 O 0.45699 0.04612 -0.04407
 O44 O 0.54269 -0.04735 0.04692
 O45 O 0.53801 0.04711 -0.04610
 O46 O 0.46172 -0.04902 0.04987
 H47 H 0.44052 0.06396 0.06950
 H48 H 0.56437 -0.06628 0.06514
 H49 H 0.43850 -0.06753 -0.06258
 H50 H 0.55777 0.06665 -0.06566
 H51 H 0.48477 -0.07430 0.13074
 H52 H 0.48727 -0.12898 0.07532
 H53 H 0.51881 -0.12757 -0.07361
 H54 H 0.51895 -0.07197 -0.12860
 H55 H 0.47430 0.07258 -0.12582
 H56 H 0.47642 0.12756 -0.07031
 H57 H 0.52159 0.12833 0.07414
 H58 H 0.52300 0.07242 0.12901
 O59 O -0.00169 0.43671 -0.11692
 O60 O -0.00296 0.38619 -0.05666
 C61 C -0.00242 0.39526 -0.10002
 O62 O 0.11680 0.56380 -0.00130
 O63 O 0.05693 0.61501 -0.00080
 C64 C 0.10026 0.60538 -0.00065
 O65 O 0.11454 0.43521 -0.01076
 O66 O 0.05423 0.38474 -0.00616
 C67 C 0.09773 0.39399 -0.01056
 O68 O -0.00494 0.56672 -0.11552
 O69 O -0.00010 0.61632 -0.05487
 C70 C -0.00323 0.60809 -0.09852
 Zr71 Zr -0.00233 0.50156 -0.08275
 O72 O 0.04739 0.50613 -0.13544
 O73 O -0.05560 0.49816 -0.13209
 Zr74 Zr 0.08221 0.49944 -0.00338
 O75 O 0.13367 0.50453 -0.05423
 O76 O 0.13357 0.49197 0.04759
 O77 O 0.04525 0.45948 -0.04998
 O78 O 0.04645 0.54032 -0.04879
 O79 O -0.11349 0.56865 0.00038
 O80 O -0.05173 0.61725 0.00095
 C81 C -0.09541 0.60945 0.00040
 O82 O 0.00017 0.43425 0.11341
 O83 O -0.00039 0.38457 0.05253
 C84 C -0.00085 0.39313 0.09608
 O85 O 0.00947 0.56257 0.11541
 O86 O 0.00590 0.61475 0.05662
 C87 C 0.00935 0.60433 0.09980
 O88 O -0.11662 0.44039 0.00678
 O89 O -0.05850 0.38731 0.00190
 C90 C -0.10163 0.39844 0.00593
 Zr91 Zr -0.08140 0.50312 0.00147
 O92 O -0.13228 0.50936 0.05279
 O93 O -0.13315 0.49932 -0.04947
 Zr94 Zr 0.00323 0.49933 0.08079
 O95 O -0.04667 0.50507 0.13322
 O96 O 0.05572 0.49200 0.13054
 Zr97 Zr -0.00116 0.43214 -0.00161
 Zr98 Zr 0.00184 0.56929 0.00008
 O99 O -0.04404 0.54117 0.04802
 O100 O -0.04634 0.46037 0.04729
 O101 O -0.04744 0.54366 -0.04633
 O102 O 0.04817 0.45900 0.04380
 O103 O -0.04901 0.46236 -0.04666
 O104 O 0.05017 0.54023 0.04553
 H105 H 0.06536 0.56077 -0.06826
 H106 H 0.06756 0.43738 0.06160
 H107 H -0.06197 0.56217 0.06787
 H108 H -0.06919 0.44203 -0.06499
 H109 H 0.13305 0.51993 0.06685
 H110 H 0.07919 0.51565 0.12408
 H111 H -0.06781 0.47866 0.13028
 H112 H -0.12455 0.48706 0.07720
 H113 H -0.13023 0.52680 -0.06921
 H114 H -0.07641 0.52447 -0.12656
 H115 H 0.06776 0.47902 -0.13277
 H116 H 0.12450 0.48411 -0.07969
 O117 O -0.11566 -0.00905 0.56593
 O118 O -0.05507 -0.00726 0.61628
 C119 C -0.09868 -0.01067 0.60694
 O120 O -0.00023 -0.11225 0.43023
 O121 O -0.00536 -0.04997 0.38231
 C122 C -0.00226 -0.09383 0.38966
 O123 O -0.00248 -0.11823 0.55854
 O124 O 0.00156 -0.06093 0.61235
 C125 C -0.00087 -0.10400 0.60068
 O126 O -0.11963 0.00521 0.43963
 O127 O -0.06166 0.00546 0.38659
 C128 C -0.10481 0.00675 0.39776
 Zr129 Zr -0.08361 0.00010 0.50220
 O130 O -0.13688 -0.04889 0.49609
 O131 O -0.13290 0.05281 0.51203
 Zr132 Zr -0.00150 -0.08147 0.49609
 O133 O -0.05252 -0.13292 0.48999
 O134 O 0.05052 -0.13242 0.49767
 O135 O -0.04766 -0.04902 0.53995
 O136 O -0.04990 -0.04501 0.45928
 O137 O -0.00692 0.11861 0.44102
 O138 O -0.00621 0.06121 0.38730
 C139 C -0.00781 0.10424 0.39897
 O140 O 0.11553 0.00066 0.56016
 O141 O 0.05768 -0.00428 0.61318
 C142 C 0.10084 -0.00151 0.60208
 O143 O 0.11153 -0.00021 0.43201
 O144 O 0.04989 0.00406 0.38325
 C145 C 0.09366 0.00159 0.39122
 O146 O 0.00596 0.11312 0.56740
 O147 O 0.00376 0.05196 0.61704
 C148 C 0.00719 0.09570 0.60823
 Zr149 Zr -0.00267 0.08181 0.50319
 O150 O 0.04538 0.13604 0.49860
 O151 O -0.05628 0.13014 0.51300
 Zr152 Zr 0.07964 0.00030 0.49721
 O153 O 0.13058 0.05196 0.49247
 O154 O 0.13105 -0.05125 0.49884
 Zr155 Zr 0.00002 -0.00265 0.56878
 Zr156 Zr -0.00429 0.00335 0.43103
 O157 O 0.04334 0.04895 0.46048
 O158 O 0.04629 0.04575 0.54112
 O159 O -0.05097 0.04923 0.46197
 O160 O 0.04616 -0.04812 0.53637
 O161 O -0.04793 0.04525 0.54364
 O162 O 0.04412 -0.04510 0.45510
 H163 H -0.06969 -0.06343 0.43865
 H164 H 0.06608 -0.06815 0.55539
 H165 H 0.06190 0.06898 0.44025
 H166 H -0.06604 0.06299 0.56631
 H167 H 0.07074 -0.12728 0.47096
 H168 H 0.12580 -0.07181 0.47239
 H169 H 0.12805 0.07161 0.52000
 H170 H 0.07309 0.12619 0.51558
 H171 H -0.07579 0.12991 0.48522
 H172 H -0.13164 0.07346 0.48512
 H173 H -0.12784 -0.07586 0.51464
 H174 H -0.07287 -0.13051 0.51700
 C175 C -0.31076 0.11488 -0.00379
 C176 C -0.27329 0.14478 -0.00322
 C177 C -0.27992 0.19183 0.00357
 C178 C -0.32482 0.20883 0.00960
 C179 C -0.36242 0.17899 0.00879
 C180 C -0.35583 0.13163 0.00215
 N181 N -0.24081 0.22169 0.00388
 N182 N -0.24511 0.26427 0.01262
 C183 C -0.20752 0.29585 0.01261
 C184 C -0.21684 0.34161 0.02317
 C185 C -0.18212 0.37435 0.02179
 C186 C -0.13695 0.36202 0.00967
 C187 C -0.12719 0.31564 0.00003
 C188 C -0.16235 0.28268 0.00139
 H189 H -0.30431 0.07860 -0.00899
 H190 H -0.23895 0.13124 -0.00797
 H191 H -0.33091 0.24516 0.01479
 H192 H -0.39657 0.19301 0.01355
 H193 H -0.25144 0.35207 0.03198
 H194 H -0.19100 0.40957 0.02989
 H195 H -0.09279 0.30509 -0.00939
 H196 H -0.15443 0.24728 -0.00686
 C197 C 0.37321 0.81820 0.02802
 C198 C 0.34044 0.78359 0.02959
 C199 C 0.29519 0.79261 0.01682
 C200 C 0.28238 0.83736 0.00359
 C201 C 0.31531 0.87239 0.00215
 C202 C 0.36125 0.86279 0.01358
 N203 N 0.26377 0.75507 0.01615
 N204 N 0.22197 0.75929 0.00435
 C205 C 0.19220 0.72030 0.00308
 C206 C 0.14570 0.72691 -0.00658
 C207 C 0.11588 0.68948 -0.00797
 C208 C 0.13231 0.64460 -0.00001
 C209 C 0.17918 0.63798 0.00919
 C210 C 0.20890 0.67554 0.01087
 H211 H 0.40817 0.80975 0.03764
 H212 H 0.35051 0.74927 0.03999
 H213 H 0.24735 0.84499 -0.00635
 H214 H 0.30520 0.90643 -0.00906
 H215 H 0.13253 0.76118 -0.01284
 H216 H 0.07995 0.69576 -0.01542
 H217 H 0.19280 0.60391 0.01557
 H218 H 0.24488 0.66954 0.01820
 C219 C 0.30793 0.11071 0.01065
 C220 C 0.26979 0.13999 0.00927
 C221 C 0.27504 0.18632 -0.00225
 C222 C 0.31925 0.20325 -0.01197
 C223 C 0.35746 0.17414 -0.01023
 C224 C 0.35225 0.12747 0.00093
 N225 N 0.23542 0.21571 -0.00338
 N226 N 0.23845 0.25685 -0.01778
 C227 C 0.20081 0.28854 -0.01859
 C228 C 0.20909 0.33258 -0.03545
 C229 C 0.17493 0.36603 -0.03405
 C230 C 0.13141 0.35615 -0.01564
 C231 C 0.12232 0.31127 -0.00021
 C232 C 0.15696 0.27758 -0.00150
 H233 H 0.30266 0.07497 0.01956
 H234 H 0.23603 0.12650 0.01700
 H235 H 0.32434 0.23902 -0.02075
 H236 H 0.39100 0.18812 -0.01801
 H237 H 0.24263 0.34131 -0.04887
 H238 H 0.18299 0.40004 -0.04680
 H239 H 0.08915 0.30272 0.01419
 H240 H 0.14986 0.24356 0.01168
 C241 C -0.36574 0.82413 -0.02871
 C242 C -0.33201 0.79045 -0.03111
 C243 C -0.28752 0.79965 -0.01617
 C244 C -0.27633 0.84378 0.00002
 C245 C -0.31029 0.87794 0.00228
 C246 C -0.35555 0.86797 -0.01124
 N247 N -0.25550 0.76254 -0.01607
 N248 N -0.21403 0.76629 -0.00307
 C249 C -0.18466 0.72683 -0.00242
 C250 C -0.13799 0.73228 0.00728
 C251 C -0.10886 0.69410 0.00820
 C252 C -0.12624 0.64973 -0.00015
 C253 C -0.17320 0.64437 -0.00950
 C254 C -0.20213 0.68255 -0.01078
 H255 H -0.40010 0.81550 -0.04008
 H256 H -0.34080 0.75659 -0.04376
 H257 H -0.24189 0.85147 0.01170
 H258 H -0.30156 0.91147 0.01580
 H259 H -0.12418 0.76616 0.01396
 H260 H -0.07280 0.69935 0.01568
 H261 H -0.18759 0.61074 -0.01622
 H262 H -0.23821 0.67736 -0.01811
 C263 C 0.02441 -0.36926 0.17971
 C264 C 0.02517 -0.33541 0.21339
 C265 C 0.01434 -0.28994 0.20265
 C266 C 0.00358 -0.27819 0.15712
 C267 C 0.00292 -0.31224 0.12302
 C268 C 0.01275 -0.35832 0.13418
 N269 N 0.01339 -0.25733 0.23932
 N270 N 0.00385 -0.21492 0.23434
 C271 C 0.00260 -0.18480 0.27328
 C272 C -0.00538 -0.13776 0.26693
 C273 C -0.00699 -0.10799 0.30463
 C274 C -0.00089 -0.12497 0.34945
 C275 C 0.00698 -0.17225 0.35559
 C276 C 0.00878 -0.20180 0.31800
 H277 H 0.03256 -0.40421 0.18961
 H278 H 0.03361 -0.34480 0.24833
 H279 H -0.00490 -0.24310 0.14810
 H280 H -0.00623 -0.30273 0.08830
 H281 H -0.01030 -0.12416 0.23274
 H282 H -0.01313 -0.07176 0.29865
 H283 H 0.01196 -0.18656 0.38949
 H284 H 0.01488 -0.23801 0.32401
 C285 C -0.01594 0.31168 0.88493
 C286 C -0.01540 0.27335 0.85613
 C287 C -0.00151 0.27760 0.81055
 C288 C 0.01114 0.32118 0.79372
 C289 C 0.01014 0.35974 0.82241
 C290 C -0.00303 0.35532 0.86848
 N291 N -0.00080 0.23748 0.78200
 N292 N 0.01652 0.23861 0.74205
 C293 C 0.01705 0.20003 0.71161
 C294 C 0.03708 0.20598 0.66867
 C295 C 0.03531 0.17110 0.63616
 C296 C 0.01339 0.12916 0.64588
 C297 C -0.00498 0.12213 0.68984
 C298 C -0.00337 0.15754 0.72259
 H299 H -0.02661 0.30706 0.92017
 H300 H -0.02546 0.24014 0.86949
 H301 H 0.02174 0.32546 0.75845
 H302 H 0.02035 0.39279 0.80876
 H303 H 0.05312 0.23838 0.65994
 H304 H 0.05036 0.17742 0.60282
 H305 H -0.02214 0.09021 0.69816
 H306 H -0.01898 0.15219 0.75579
 C307 C 0.00002 0.30814 0.11164
 C308 C -0.00138 0.27100 0.14209
 C309 C -0.00533 0.27856 0.18924
 C310 C -0.00786 0.32390 0.20572
 C311 C -0.00633 0.36098 0.17545
 C312 C -0.00235 0.35360 0.12804
 N313 N -0.00630 0.24006 0.21990
 N314 N -0.01104 0.24597 0.26280
 C315 C -0.01155 0.20923 0.29533
 C316 C -0.01682 0.22037 0.34151
 C317 C -0.01612 0.18616 0.37487
 C318 C -0.01010 0.13976 0.36266
 C319 C -0.00547 0.12841 0.31600
 C320 C -0.00612 0.16297 0.28249
 H321 H 0.00313 0.30121 0.07533
 H322 H 0.00066 0.23627 0.12893
 H323 H -0.01087 0.33077 0.24204
 H324 H -0.00837 0.39544 0.18929
 H325 H -0.02109 0.25590 0.35172
 H326 H -0.02005 0.19627 0.41035
 H327 H -0.00077 0.09303 0.30548
 H328 H -0.00199 0.15364 0.24683
 C329 C -0.00186 -0.30985 0.88842
 C330 C -0.00184 -0.27264 0.85793
 C331 C -0.00412 -0.27992 0.81063
 C332 C -0.00684 -0.32518 0.79407
 C333 C -0.00690 -0.36245 0.82431
 C334 C -0.00415 -0.35564 0.87218
 N335 N -0.00327 -0.24121 0.78001
 N336 N -0.00457 -0.24680 0.73677
 C337 C -0.00361 -0.20984 0.70428
 C338 C -0.00512 -0.22092 0.65778
 C339 C -0.00415 -0.18654 0.62452
 C340 C -0.00161 -0.13988 0.63701
 C341 C -0.00008 -0.12862 0.68394
 C342 C -0.00106 -0.16338 0.71740
 H343 H 0.00020 -0.30243 0.92475
 H344 H 0.00021 -0.23797 0.87124
 H345 H -0.00875 -0.33188 0.75764
 H346 H -0.00885 -0.39665 0.80977
 H347 H -0.00707 -0.25655 0.64725
 H348 H -0.00543 -0.19677 0.58888
 H349 H 0.00184 -0.09309 0.69477
 H350 H 0.00016 -0.15401 0.75326
 C351 C 0.30603 -0.00060 0.89089
 C352 C 0.26857 -0.00080 0.86063
 C353 C 0.27560 0.00089 0.81320
 C354 C 0.32081 0.00306 0.79637
 C355 C 0.35817 0.00327 0.82646
 C356 C 0.35136 0.00129 0.87412
 N357 N 0.23679 0.00013 0.78267
 N358 N 0.24244 0.00124 0.73944
 C359 C 0.20570 0.00045 0.70671
 C360 C 0.21716 0.00196 0.66033
 C361 C 0.18309 0.00124 0.62677
 C362 C 0.13633 -0.00105 0.63881
 C363 C 0.12467 -0.00259 0.68563
 C364 C 0.15915 -0.00185 0.71942
 H365 H 0.29945 -0.00213 0.92736
 H366 H 0.23401 -0.00246 0.87416
 H367 H 0.32737 0.00446 0.75991
 H368 H 0.39247 0.00480 0.81223
 H369 H 0.25287 0.00372 0.65012
 H370 H 0.19364 0.00251 0.59123
 H371 H 0.08905 -0.00431 0.69612
 H372 H 0.14951 -0.00306 0.75521
 C373 C -0.30882 0.00524 0.10959
 C374 C -0.27138 0.00666 0.13974
 C375 C -0.27842 0.00857 0.18706
 C376 C -0.32353 0.00921 0.20406
 C377 C -0.36094 0.00764 0.17424
 C378 C -0.35442 0.00548 0.12636
 N379 N -0.23967 0.00924 0.21747
 N380 N -0.24553 0.01228 0.26054
 C381 C -0.20893 0.01228 0.29326
 C382 C -0.22045 0.01611 0.33947
 C383 C -0.18652 0.01479 0.37307
 C384 C -0.14000 0.00955 0.36112
 C385 C -0.12825 0.00631 0.31444
 C386 C -0.16256 0.00761 0.28064
 H387 H -0.30173 0.00370 0.07319
 H388 H -0.23678 0.00614 0.12617
 H389 H -0.33003 0.01064 0.24054
 H390 H -0.39501 0.00803 0.18915
 H391 H -0.25608 0.01974 0.34950
 H392 H -0.19697 0.01764 0.40855
 H393 H -0.09276 0.00224 0.30411
 H394 H -0.15298 0.00456 0.24495
 C395 C 0.37277 -0.01452 0.18506
 C396 C 0.33899 -0.01500 0.21878
 C397 C 0.29289 -0.00842 0.20732
 C398 C 0.28058 -0.00185 0.16116
 C399 C 0.31455 -0.00143 0.12706
 C400 C 0.36114 -0.00742 0.13878
 N401 N 0.26002 -0.00789 0.24371
 N402 N 0.21708 -0.00208 0.23786
 C403 C 0.18642 -0.00136 0.27634
 C404 C 0.13912 0.00364 0.26910
 C405 C 0.10877 0.00462 0.30630
 C406 C 0.12538 0.00077 0.35150
 C407 C 0.17292 -0.00419 0.35852
 C408 C 0.20307 -0.00528 0.32142
 H409 H 0.40815 -0.01951 0.19548
 H410 H 0.34882 -0.02015 0.25423
 H411 H 0.24501 0.00331 0.15157
 H412 H 0.30445 0.00416 0.09177
 H413 H 0.12578 0.00675 0.23458
 H414 H 0.07235 0.00846 0.29963
 H415 H 0.18700 -0.00735 0.39274
 H416 H 0.23946 -0.00911 0.32811
 C417 C -0.31263 0.01096 0.88443
 C418 C -0.27478 0.01008 0.85516
 C419 C -0.27984 -0.00353 0.80958
 C420 C -0.32375 -0.01566 0.79325
 C421 C -0.36189 -0.01436 0.82246
 C422 C -0.35665 -0.00137 0.86852
 N423 N -0.24012 -0.00433 0.78057
 N424 N -0.24187 -0.02074 0.74025
 C425 C -0.20343 -0.02112 0.70971
 C426 C -0.20981 -0.03973 0.66617
 C427 C -0.17488 -0.03777 0.63376
 C428 C -0.13248 -0.01706 0.64420
 C429 C -0.12511 -0.00011 0.68869
 C430 C -0.16054 -0.00193 0.72132
 H431 H -0.30733 0.02146 0.91963
 H432 H -0.24128 0.01974 0.86812
 H433 H -0.32862 -0.02605 0.75797
 H434 H -0.39524 -0.02411 0.80922
 H435 H -0.24252 -0.05483 0.65695
 H436 H -0.18149 -0.05173 0.59999
 H437 H -0.09284 0.01608 0.69759
 H438 H -0.15484 0.01257 0.75499
   
