data_POSCAR
  _audit_creation_date              2014-09-24
  _audit_creation_method            'ToBaCCo'
  _symmetry_space_group_name_H-M    'P1'
  _symmetry_Int_Tables_number       1
  _symmetry_cell_setting            triclinic
  loop_
  _symmetry_equiv_pos_as_xyz
 x,y,z
_cell_length_a 29.8063
_cell_length_b 30.2599
_cell_length_c 41.1065
_cell_angle_alpha 89.913400
_cell_angle_beta 90.154100
_cell_angle_gamma 120.941400
loop_
  _atom_site_label
  _atom_site_type_symbol
  _atom_site_fract_x
  _atom_site_fract_y
  _atom_site_fract_z
C1 C -0.03041 0.48303 1.25280
 C2 C 0.02281 0.50873 1.25184
 C3 C 0.05476 0.52460 1.28198
 C4 C 0.05181 0.52350 1.22058
 C5 C -0.06194 0.46798 1.22257
 C6 C -0.05969 0.46955 1.28391
 C7 C 0.08912 0.57695 1.28801
 C8 C 0.11716 0.59322 1.31711
 C9 C 0.11222 0.55737 1.34120
 C10 C 0.07897 0.50432 1.33390
 C11 C 0.05051 0.48831 1.30482
 C12 C 0.04562 0.55482 1.19801
 C13 C 0.07224 0.56733 1.16837
 C14 C 0.10615 0.54935 1.16088
 C15 C 0.11349 0.51936 1.18407
 C16 C 0.08661 0.50664 1.21362
 C17 C -0.06364 0.43057 1.20171
 C18 C -0.09142 0.41880 1.17239
 C19 C -0.11721 0.44501 1.16311
 C20 C -0.11586 0.48191 1.18462
 C21 C -0.08909 0.49275 1.21417
 C22 C -0.09677 0.41791 1.29067
 C23 C -0.12321 0.40417 1.32036
 C24 C -0.11321 0.44189 1.34389
 C25 C -0.07730 0.49388 1.33654
 C26 C -0.05096 0.50759 1.30678
 H27 H 0.09355 0.60549 1.27031
 H28 H 0.14394 0.63416 1.31968
 H29 H 0.07235 0.47464 1.35121
 H30 H 0.02439 0.44755 1.30038
 H31 H 0.02003 0.56942 1.20330
 H32 H 0.06572 0.59055 1.15113
 H33 H 0.09252 0.48311 1.23097
 H34 H -0.04323 0.41074 1.20810
 H35 H -0.09255 0.38915 1.15717
 H36 H -0.13443 0.50350 1.17838
 H37 H -0.08798 0.52185 1.23004
 H38 H -0.10457 0.38808 1.27314
 H39 H -0.15158 0.36395 1.32481
 H40 H -0.06880 0.52388 1.35408
 H41 H -0.02331 0.54782 1.30172
 H42 H 0.14033 0.50599 1.17958
 C43 C 0.51380 0.48636 1.25258
 C44 C 0.48743 0.51220 1.25216
 C45 C 0.47428 0.52983 1.28249
 C46 C 0.47019 0.52419 1.22113
 C47 C 0.53020 0.47222 1.22204
 C48 C 0.52729 0.47023 1.28348
 C49 C 0.42291 0.51841 1.28736
 C50 C 0.40952 0.53443 1.31557
 C51 C 0.44708 0.56199 1.33990
 C52 C 0.49897 0.57455 1.33452
 C53 C 0.51248 0.55896 1.30601
 C54 C 0.43810 0.48504 1.19910
 C55 C 0.42457 0.49732 1.16926
 C56 C 0.44268 0.54895 1.16103
 C57 C 0.47302 0.58777 1.18377
 C58 C 0.48648 0.57546 1.21355
 C59 C 0.55870 0.50904 1.19802
 C60 C 0.57187 0.49459 1.16897
 C61 C 0.55860 0.44315 1.16356
 C62 C 0.53125 0.40687 1.18835
 C63 C 0.51732 0.42123 1.21711
 C64 C 0.57915 0.48360 1.28917
 C65 C 0.59255 0.46766 1.31752
 C66 C 0.55430 0.43770 1.34084
 C67 C 0.50223 0.42435 1.33508
 C68 C 0.48880 0.44018 1.30655
 H69 H 0.39295 0.49677 1.26931
 H70 H 0.36963 0.52567 1.31802
 H71 H 0.52927 0.59580 1.35225
 H72 H 0.55276 0.56951 1.30235
 H73 H 0.42431 0.44510 1.20481
 H74 H 0.40101 0.46656 1.15231
 H75 H 0.51066 0.60610 1.23044
 H76 H 0.57004 0.54893 1.20151
 H77 H 0.59132 0.52394 1.15060
 H78 H 0.52009 0.36711 1.18604
 H79 H 0.49569 0.39219 1.23545
 H80 H 0.60934 0.50642 1.27157
 H81 H 0.63287 0.47808 1.32087
 H82 H 0.47186 0.40187 1.35262
 H83 H 0.44836 0.42876 1.30238
 H84 H 0.48646 0.62776 1.17857
 C85 C 0.51960 1.03217 1.24922
 C86 C 0.49431 0.97982 1.24896
 C87 C 0.47861 0.95005 1.27969
 C88 C 0.48111 0.94962 1.21841
 C89 C 0.53325 1.06310 1.21889
 C90 C 0.53411 1.06101 1.28036
 C91 C 0.50410 0.92446 1.28968
 C92 C 0.49119 0.89791 1.31918
 C93 C 0.45130 0.89502 1.33934
 C94 C 0.42517 0.92036 1.32841
 C95 C 0.43898 0.94774 1.29910
 C96 C 0.51984 0.95821 1.19564
 C97 C 0.50647 0.92895 1.16708
 C98 C 0.45419 0.89070 1.16091
 C99 C 0.41578 0.88183 1.18399
 C100 C 0.42914 0.91086 1.21250
 C101 C 0.49515 1.05430 1.19555
 C102 C 0.50867 1.08436 1.16734
 C103 C 0.56080 1.12455 1.16182
 C104 C 0.59856 1.13294 1.18576
 C105 C 0.58488 1.10285 1.21384
 C106 C 0.51175 1.09026 1.28868
 C107 C 0.52274 1.11530 1.31869
 C108 C 0.55693 1.11206 1.34121
 C109 C 0.58076 1.08395 1.33186
 C110 C 0.56938 1.05872 1.30187
 H111 H 0.53514 0.92627 1.27500
 H112 H 0.51412 0.88117 1.32638
 H113 H 0.39314 0.91861 1.34173
 H114 H 0.41852 0.96697 1.29141
 H115 H 0.56033 0.98740 1.20004
 H116 H 0.53684 0.93657 1.14969
 H117 H 0.39880 0.90330 1.22992
 H118 H 0.45482 1.02412 1.19919
 H119 H 0.47800 1.07466 1.14973
 H120 H 0.63875 1.16399 1.18360
 H121 H 0.61481 1.11066 1.23175
 H122 H 0.48502 1.09304 1.27206
 H123 H 0.50511 1.13813 1.32354
 H124 H 0.60668 1.07943 1.34814
 H125 H 0.58751 1.03672 1.29560
 H126 H 0.37546 0.85174 1.18032
 C127 C 1.03279 0.52300 0.75010
 C128 C 0.97959 0.49474 0.75100
 C129 C 0.94835 0.47925 0.72059
 C130 C 0.95023 0.47909 0.78217
 C131 C 1.06469 0.54060 0.78012
 C132 C 1.06148 0.53652 0.71892
 C133 C 0.95092 0.51656 0.69914
 C134 C 0.92273 0.50172 0.67002
 C135 C 0.89148 0.44929 0.66182
 C136 C 0.88822 0.41200 0.68372
 C137 C 0.91621 0.42691 0.71296
 C138 C 0.91078 0.49037 0.78771
 C139 C 0.88445 0.47814 0.81743
 C140 C 0.89735 0.45472 0.84244
 C141 C 0.93590 0.44210 0.83638
 C142 C 0.96141 0.45339 0.80641
 C143 C 1.09577 0.52000 0.78848
 C144 C 1.12164 0.53181 0.81840
 C145 C 1.11804 0.56563 0.84044
 C146 C 1.08892 0.58842 0.83079
 C147 C 1.06214 0.57560 0.80112
 C148 C 1.05994 0.49816 0.69917
 C149 C 1.08581 0.51096 0.66931
 C150 C 1.11339 0.56253 0.65821
 C151 C 1.11489 0.60082 0.67862
 C152 C 1.08968 0.58791 0.70874
 H153 H 0.97505 0.55714 0.70489
 H154 H 0.92607 0.53131 0.65363
 H155 H 0.86373 0.37133 0.67838
 H156 H 0.91352 0.39767 0.72943
 H157 H 0.90087 0.50940 0.76916
 H158 H 0.85387 0.48696 0.82063
 H159 H 0.99042 0.44265 0.80231
 H160 H 1.09854 0.49331 0.77227
 H161 H 1.14528 0.51501 0.82368
 H162 H 1.08433 0.61417 0.84680
 H163 H 1.03838 0.59199 0.79486
 H164 H 1.03827 0.45822 0.70680
 H165 H 1.08236 0.47986 0.65447
 H166 H 1.13691 0.64117 0.67214
 H167 H 1.09150 0.61799 0.72395
 H168 H 0.94700 0.42411 0.85495
 C169 C 0.48030 0.51160 0.74832
 C170 C 0.50649 0.48571 0.74919
 C171 C 0.52123 0.46917 0.71914
 C172 C 0.52219 0.47304 0.78048
 C173 C 0.46276 0.52450 0.77870
 C174 C 0.46881 0.52889 0.71725
 C175 C 0.48323 0.43706 0.69635
 C176 C 0.49767 0.42091 0.66850
 C177 C 0.55037 0.43652 0.66301
 C178 C 0.58828 0.46902 0.68581
 C179 C 0.57378 0.48485 0.71370
 C180 C 0.50321 0.42146 0.78885
 C181 C 0.51702 0.40912 0.81854
 C182 C 0.55067 0.44827 0.84018
 C183 C 0.57050 0.49999 0.83136
 C184 C 0.55633 0.51225 0.80179
 C185 C 0.48283 0.57619 0.78725
 C186 C 0.46944 0.58873 0.81696
 C187 C 0.43512 0.54969 0.83839
 C188 C 0.41359 0.49791 0.82916
 C189 C 0.42741 0.48543 0.79961
 C190 C 0.50911 0.55982 0.69543
 C191 C 0.49774 0.57527 0.66605
 C192 C 0.44597 0.56024 0.65805
 C193 C 0.40586 0.53030 0.68022
 C194 C 0.41723 0.51486 0.70962
 H195 H 0.44239 0.42420 0.70029
 H196 H 0.46763 0.39634 0.65123
 H197 H 0.62909 0.48131 0.68242
 H198 H 0.60362 0.50952 0.73107
 H199 H 0.47717 0.39077 0.77252
 H200 H 0.50187 0.36900 0.82440
 H201 H 0.57190 0.55232 0.79550
 H202 H 0.50994 0.60679 0.77127
 H203 H 0.48589 0.62893 0.82315
 H204 H 0.38708 0.46704 0.84518
 H205 H 0.41119 0.44531 0.79322
 H206 H 0.54932 0.57200 0.70117
 H207 H 0.52937 0.59879 0.64944
 H208 H 0.36597 0.51978 0.67526
 H209 H 0.38573 0.49161 0.72637
 H210 H 0.59645 0.53094 0.84756
 C211 C 0.48351 -0.03034 0.75334
 C212 C 0.50792 0.02197 0.75391
 C213 C 0.52116 0.05226 0.72335
 C214 C 0.52300 0.05120 0.78497
 C215 C 0.46853 -0.06126 0.78357
 C216 C 0.47015 -0.05924 0.72236
 C217 C 0.57351 0.08841 0.71626
 C218 C 0.58691 0.11477 0.68663
 C219 C 0.54809 0.10556 0.66354
 C220 C 0.49540 0.07076 0.67134
 C221 C 0.48206 0.04451 0.70102
 C222 C 0.55502 0.04569 0.80770
 C223 C 0.56730 0.07200 0.83733
 C224 C 0.54833 0.10487 0.84468
 C225 C 0.51752 0.11141 0.82139
 C226 C 0.50509 0.08489 0.79183
 C227 C 0.43156 -0.06199 0.80481
 C228 C 0.41910 -0.08996 0.83386
 C229 C 0.44389 -0.11758 0.84265
 C230 C 0.48058 -0.11682 0.82050
 C231 C 0.49220 -0.08955 0.79131
 C232 C 0.41789 -0.08855 0.71272
 C233 C 0.40463 -0.11397 0.68285
 C234 C 0.44325 -0.11216 0.66193
 C235 C 0.49596 -0.08323 0.67256
 C236 C 0.50913 -0.05684 0.70225
 H237 H 0.60414 0.09534 0.73340
 H238 H 0.62772 0.14231 0.68183
 H239 H 0.46455 0.06288 0.65417
 H240 H 0.44129 0.01755 0.70639
 H241 H 0.57025 0.02077 0.80257
 H242 H 0.59120 0.06617 0.85465
 H243 H 0.48086 0.09014 0.77442
 H244 H 0.41231 -0.04088 0.79884
 H245 H 0.38918 -0.09023 0.84872
 H246 H 0.50219 -0.13565 0.82592
 H247 H 0.52108 -0.08915 0.77516
 H248 H 0.38736 -0.09036 0.72794
 H249 H 0.36387 -0.13355 0.67601
 H250 H 0.52763 -0.08116 0.65866
 H251 H 0.54978 -0.03462 0.70963
 H252 H 0.50338 0.13741 0.82580
 O253 O 0.41095 0.64979 0.97300
 O254 O 0.41171 0.73498 0.96489
 C255 C 0.38812 0.75886 0.95880
 O256 O 0.34968 0.75324 0.97549
 O257 O 0.26159 0.66745 0.96602
 C258 C 0.23747 0.62011 0.95861
 O259 O 0.24320 0.58690 0.97406
 O260 O 0.32883 0.58677 0.96421
 C261 C 0.37690 0.61096 0.95701
 O262 O 0.41092 0.66214 1.03804
 O263 O 0.41642 0.75009 1.03012
 C264 C 0.38510 0.75817 1.04642
 O265 O 0.33671 0.73648 1.04014
 O266 O 0.24641 0.65286 1.03084
 C267 C 0.23687 0.61216 1.04590
 O268 O 0.25864 0.58688 1.03888
 O269 O 0.34276 0.58316 1.02905
 C270 C 0.38413 0.61448 1.04451
 Cr271 Cr 0.40956 0.69794 1.00156
 Cr272 Cr 0.29996 0.70095 1.00312
 Cr273 Cr 0.29496 0.58886 1.00161
 O274 O 0.33482 0.66255 1.00227
 O275 O 0.58610 0.34656 0.97068
 O276 O 0.58961 0.26296 0.96208
 C277 C 0.61476 0.24049 0.95647
 O278 O 0.65595 0.25053 0.97209
 O279 O 0.74179 0.33971 0.96205
 C280 C 0.76497 0.38770 0.95638
 O281 O 0.75582 0.41830 0.97224
 O282 O 0.66684 0.41273 0.96153
 C283 C 0.61843 0.38675 0.95489
 O284 O 0.58858 0.33351 1.03584
 O285 O 0.58841 0.24884 1.02704
 C286 C 0.62237 0.24608 1.04429
 O287 O 0.67046 0.26928 1.03696
 O288 O 0.75783 0.35494 1.02661
 C289 C 0.76182 0.39198 1.04348
 O290 O 0.73700 0.41446 1.03690
 O291 O 0.65148 0.41424 1.02600
 C292 C 0.61301 0.38100 1.04264
 Cr293 Cr 0.59105 0.29955 0.99881
 Cr294 Cr 0.70485 0.30470 0.99931
 Cr295 Cr 0.70152 0.41215 0.99907
 O296 O 0.66577 0.33876 0.99860
 O297 O 0.64886 0.40199 0.53109
 O298 O 0.73502 0.40237 0.54060
 C299 C 0.75861 0.37873 0.54743
 O300 O 0.75128 0.33922 0.53187
 O301 O 0.66309 0.25310 0.54029
 C302 C 0.61459 0.22927 0.54639
 O303 O 0.58210 0.23596 0.53023
 O304 O 0.58374 0.32141 0.53959
 C305 C 0.60960 0.36860 0.54726
 O306 O 0.66353 0.40065 0.46603
 O307 O 0.75160 0.40522 0.47591
 C308 C 0.75982 0.37380 0.46031
 O309 O 0.73689 0.32619 0.46685
 O310 O 0.65084 0.23826 0.47528
 C311 C 0.61097 0.23031 0.45901
 O312 O 0.58542 0.25211 0.46541
 O313 O 0.58235 0.33538 0.47445
 C314 C 0.61569 0.37437 0.45829
 Cr315 Cr 0.69818 0.39968 0.50339
 Cr316 Cr 0.69902 0.29058 0.50357
 Cr317 Cr 0.58632 0.28779 0.50246
 O318 O 0.66122 0.32601 0.50316
 O319 O 0.34868 0.59775 0.52666
 O320 O 0.26319 0.59960 0.53717
 C321 C 0.23916 0.62321 0.54278
 O322 O 0.24558 0.66118 0.52571
 O323 O 0.33346 0.74585 0.53616
 C324 C 0.38162 0.76937 0.54330
 O325 O 0.41517 0.76443 0.52708
 O326 O 0.41253 0.67818 0.53685
 C327 C 0.38840 0.63042 0.54291
 O328 O 0.33269 0.59984 0.46222
 O329 O 0.24483 0.59621 0.47257
 C330 C 0.23896 0.62803 0.45548
 O331 O 0.26389 0.67601 0.46103
 O332 O 0.34955 0.76394 0.47154
 C333 C 0.38885 0.77045 0.45538
 O334 O 0.41299 0.74738 0.46211
 O335 O 0.41446 0.66376 0.47176
 C336 C 0.38086 0.62523 0.45518
 Cr337 Cr 0.29879 0.60108 0.49967
 Cr338 Cr 0.29952 0.71045 0.49862
 Cr339 Cr 0.41103 0.71204 0.49948
 O340 O 0.33651 0.67457 0.49929
 C341 C 0.46335 0.62633 0.38466
 C342 C 0.43132 0.57797 0.37002
 C343 C 0.38037 0.54700 0.38278
 C344 C 0.36389 0.56257 0.41015
 C345 C 0.39798 0.60940 0.42603
 C346 C 0.44683 0.64163 0.41179
 C347 C 0.49975 0.66853 0.42694
 C348 C 0.51799 0.65127 0.39778
 H349 H 0.35345 0.50970 0.37231
 H350 H 0.32490 0.53694 0.41945
 H351 H 0.50119 0.65041 0.45017
 H352 H 0.51689 0.71093 0.42797
 H353 H 0.52973 0.62303 0.40455
 H354 H 0.54642 0.68385 0.38233
 C355 C 0.45749 0.83489 0.37720
 C356 C 0.43888 0.86809 0.36957
 C357 C 0.40868 0.87387 0.39414
 C358 C 0.39340 0.84340 0.42259
 C359 C 0.40831 0.80674 0.42771
 C360 C 0.44283 0.80548 0.40537
 C361 C 0.43986 0.76023 0.38888
 C362 C 0.45541 0.79186 0.35787
 H363 H 0.39602 0.90133 0.39184
 H364 H 0.36871 0.84760 0.44007
 H365 H 0.39947 0.72613 0.38815
 H366 H 0.47033 0.75245 0.39787
 H367 H 0.42399 0.77629 0.33911
 H368 H 0.49451 0.80123 0.34895
 C369 C 0.14395 0.53935 0.39116
 C370 C 0.13779 0.57317 0.37045
 C371 C 0.15878 0.62428 0.38234
 C372 C 0.18948 0.64135 0.41074
 C373 C 0.20069 0.60835 0.42845
 C374 C 0.17477 0.55661 0.41910
 C375 C 0.19611 0.52214 0.41413
 C376 C 0.16285 0.50316 0.38356
 H377 H 0.15187 0.65192 0.37020
 H378 H 0.20615 0.68119 0.41799
 H379 H 0.18314 0.49224 0.43339
 H380 H 0.23885 0.54377 0.40914
 H381 H 0.13117 0.46207 0.38529
 H382 H 0.18628 0.51365 0.36082
 C383 C 0.61973 0.44857 0.38334
 C384 C 0.56915 0.41975 0.37043
 C385 C 0.53458 0.37210 0.38555
 C386 C 0.54922 0.35709 0.41429
 C387 C 0.59878 0.38931 0.42854
 C388 C 0.63414 0.43379 0.41150
 C389 C 0.66633 0.48807 0.42320
 C390 C 0.65065 0.50428 0.39224
 H391 H 0.49610 0.34659 0.37549
 H392 H 0.52152 0.32069 0.42551
 H393 H 0.70868 0.50142 0.42420
 H394 H 0.65029 0.49526 0.44564
 H395 H 0.68399 0.52674 0.37542
 H396 H 0.62557 0.52098 0.39667
 C397 C 0.61088 0.14623 0.39090
 C398 C 0.56661 0.13560 0.37235
 C399 C 0.53193 0.14886 0.38683
 C400 C 0.54504 0.17740 0.41589
 C401 C 0.59311 0.19357 0.43158
 C402 C 0.62379 0.17458 0.41957
 C403 C 0.68093 0.20248 0.41246
 C404 C 0.66716 0.17178 0.38108
 H405 H 0.49468 0.13805 0.37584
 H406 H 0.51844 0.18869 0.42521
 H407 H 0.70276 0.19243 0.42999
 H408 H 0.69770 0.24448 0.40852
 H409 H 0.68155 0.14442 0.38058
 H410 H 0.67594 0.19593 0.35889
 C411 C 0.84784 0.45946 0.39290
 C412 C 0.86056 0.42710 0.37610
 C413 C 0.84747 0.37996 0.39115
 C414 C 0.81655 0.36338 0.41946
 C415 C 0.79837 0.39375 0.43358
 C416 C 0.81756 0.44322 0.42088
 C417 C 0.78902 0.46993 0.41154
 C418 C 0.82220 0.48775 0.38091
 H419 H 0.85922 0.35483 0.38042
 H420 H 0.80492 0.32577 0.42930
 H421 H 0.79756 0.50200 0.42842
 H422 H 0.74679 0.44260 0.40666
 H423 H 0.84980 0.53009 0.38018
 H424 H 0.79925 0.47081 0.35823
 C425 C 0.54105 0.37732 1.11929
 C426 C 0.57138 0.42765 1.13182
 C427 C 0.61216 0.46422 1.11162
 C428 C 0.62392 0.44988 1.08172
 C429 C 0.59577 0.39836 1.07104
 C430 C 0.55287 0.36339 1.08971
 C431 C 0.53824 0.31098 1.10118
 C432 C 0.52618 0.32594 1.13369
 H433 H 0.63727 0.50363 1.11941
 H434 H 0.65707 0.47871 1.06795
 H435 H 0.57206 0.30501 1.10209
 H436 H 0.50294 0.28024 1.08851
 H437 H 0.55351 0.32868 1.15315
 H438 H 0.48398 0.30290 1.14006
 C439 C 0.81677 0.44770 1.12600
 C440 C 0.85558 0.43525 1.13104
 C441 C 0.86885 0.41529 1.10400
 C442 C 0.83948 0.40235 1.07492
 C443 C 0.79704 0.41028 1.07189
 C444 C 0.78863 0.43592 1.09721
 C445 C 0.73904 0.42230 1.11432
 C446 C 0.76973 0.43498 1.14594
 H447 H 0.90087 0.40823 1.10533
 H448 H 0.84900 0.38479 1.05528
 H449 H 0.70857 0.38083 1.11187
 H450 H 0.72567 0.44960 1.10848
 H451 H 0.75723 0.40085 1.16186
 H452 H 0.77362 0.46940 1.15834
 C453 C 0.62785 0.18686 1.12415
 C454 C 0.57517 0.15634 1.13366
 C455 C 0.53819 0.16089 1.11426
 C456 C 0.55326 0.19027 1.08539
 C457 C 0.60558 0.21571 1.07472
 C458 C 0.64244 0.21545 1.09564
 C459 C 0.68452 0.20412 1.08853
 C460 C 0.66865 0.17256 1.11961
 H461 H 0.49749 0.14234 1.12107
 H462 H 0.52363 0.19205 1.07112
 H463 H 0.72410 0.23927 1.08990
 H464 H 0.67661 0.18053 1.06618
 H465 H 0.69958 0.18948 1.13863
 H466 H 0.65148 0.13060 1.11535
 C467 C 0.38338 0.53012 1.11271
 C468 C 0.43096 0.56235 1.12860
 C469 C 0.46734 0.60823 1.11250
 C470 C 0.45310 0.62419 1.08412
 C471 C 0.40228 0.59444 1.07101
 C472 C 0.36937 0.54577 1.08465
 C473 C 0.31351 0.52081 1.09487
 C474 C 0.32884 0.50366 1.12560
 H475 H 0.50603 0.63300 1.12254
 H476 H 0.48103 0.66101 1.07347
 H477 H 0.28711 0.48824 1.07867
 H478 H 0.30107 0.54916 1.09950
 H479 H 0.31125 0.46122 1.12706
 H480 H 0.32534 0.52205 1.14808
 C481 C 0.14784 0.60798 1.11279
 C482 C 0.13352 0.56180 1.12899
 C483 C 0.14630 0.52789 1.11373
 C484 C 0.17832 0.54331 1.08589
 C485 C 0.19792 0.59283 1.07242
 C486 C 0.17916 0.62307 1.08525
 C487 C 0.20845 0.67818 1.09555
 C488 C 0.17407 0.66173 1.12564
 H489 H 0.13340 0.49023 1.12393
 H490 H 0.18952 0.51731 1.07585
 H491 H 0.20148 0.70299 1.07887
 H492 H 0.25023 0.69221 1.10106
 H493 H 0.14724 0.67703 1.12623
 H494 H 0.19593 0.66652 1.14861
 C495 C 0.39387 0.84629 1.11378
 C496 C 0.43951 0.85943 1.13083
 C497 C 0.46987 0.83959 1.11812
 C498 C 0.45313 0.80735 1.09011
 C499 C 0.40568 0.79425 1.07408
 C500 C 0.37811 0.81579 1.08696
 C501 C 0.33100 0.82004 1.08193
 C502 C 0.34869 0.85451 1.11240
 H503 H 0.50565 0.84775 1.13020
 H504 H 0.47664 0.79188 1.08157
 H505 H 0.29402 0.78278 1.08539
 H506 H 0.33338 0.84098 1.05915
 H507 H 0.32158 0.83678 1.13328
 H508 H 0.36112 0.89529 1.10719
 C509 C 0.61419 0.44893 0.61906
 C510 C 0.56592 0.41778 0.63433
 C511 C 0.53410 0.36717 0.62237
 C512 C 0.54820 0.35095 0.59410
 C513 C 0.59429 0.38505 0.57695
 C514 C 0.62791 0.43312 0.59109
 C515 C 0.65374 0.48582 0.57660
 C516 C 0.63883 0.50317 0.60732
 H517 H 0.49788 0.34035 0.63446
 H518 H 0.52217 0.31225 0.58521
 H519 H 0.63327 0.48768 0.55444
 H520 H 0.69664 0.50294 0.57393
 H521 H 0.60978 0.51521 0.60302
 H522 H 0.67318 0.53015 0.62236
 C523 C 0.52936 0.14399 0.61477
 C524 C 0.56240 0.13121 0.63122
 C525 C 0.60954 0.14328 0.61561
 C526 C 0.62569 0.17331 0.58708
 C527 C 0.59483 0.19155 0.57329
 C528 C 0.54516 0.17339 0.58655
 C529 C 0.51909 0.20232 0.59620
 C530 C 0.50170 0.17005 0.62706
 H531 H 0.63505 0.13138 0.62606
 H532 H 0.66338 0.18416 0.57675
 H533 H 0.48609 0.19422 0.57972
 H534 H 0.54749 0.24385 0.60073
 H535 H 0.45867 0.14332 0.62831
 H536 H 0.51988 0.19287 0.64952
 C537 C 0.84127 0.46183 0.61743
 C538 C 0.86267 0.43394 0.63046
 C539 C 0.85613 0.39131 0.61241
 C540 C 0.82385 0.37414 0.58453
 C541 C 0.79721 0.39909 0.57424
 C542 C 0.80925 0.44477 0.59021
 C543 C 0.77420 0.46208 0.60351
 C544 C 0.80937 0.48080 0.63337
 H545 H 0.87440 0.37014 0.62039
 H546 H 0.81784 0.33999 0.57209
 H547 H 0.73404 0.42948 0.60867
 H548 H 0.77605 0.49396 0.58896
 H549 H 0.78970 0.45901 0.65586
 H550 H 0.83139 0.52342 0.63598
 C551 C 0.40039 0.54298 0.60375
 C552 C 0.43486 0.57762 0.62706
 C553 C 0.46177 0.63038 0.61887
 C554 C 0.44835 0.64759 0.59065
 C555 C 0.40815 0.61229 0.56970
 C556 C 0.38796 0.55983 0.57572
 C557 C 0.33378 0.51427 0.57463
 C558 C 0.34712 0.49584 0.60569
 H559 H 0.49091 0.65857 0.63527
 H560 H 0.46745 0.68867 0.58634
 H561 H 0.32753 0.48917 0.55331
 H562 H 0.30356 0.52481 0.57809
 H563 H 0.34806 0.45990 0.60225
 H564 H 0.32387 0.49570 0.62677
 C565 C 0.37626 0.82655 0.62354
 C566 C 0.42897 0.86209 0.63126
 C567 C 0.46592 0.87157 0.60629
 C568 C 0.45091 0.84267 0.57717
 C569 C 0.39849 0.80404 0.57176
 C570 C 0.36166 0.79882 0.59471
 C571 C 0.31953 0.75107 0.61049
 C572 C 0.33547 0.78084 0.64221
 H573 H 0.50671 0.90077 0.60873
 H574 H 0.48055 0.84973 0.55933
 H575 H 0.32730 0.71884 0.60992
 H576 H 0.27996 0.74105 0.60200
 H577 H 0.35272 0.76608 0.66008
 H578 H 0.30430 0.78684 0.65204
 C579 C 0.15326 0.54260 0.61254
 C580 C 0.13866 0.57507 0.62752
 C581 C 0.15052 0.62047 0.61025
 C582 C 0.18090 0.63493 0.58169
 C583 C 0.20117 0.60505 0.56981
 C584 C 0.18418 0.55754 0.58483
 C585 C 0.21471 0.53402 0.59633
 C586 C 0.18095 0.51741 0.62662
 H587 H 0.13706 0.64550 0.61868
 H588 H 0.19085 0.67096 0.57004
 H589 H 0.25637 0.56328 0.60136
 H590 H 0.20811 0.50114 0.58081
 H591 H 0.20310 0.53672 0.64916
 H592 H 0.15506 0.47489 0.62848
 C593 C 0.37221 0.53322 0.88372
 C594 C 0.42242 0.56261 0.87055
 C595 C 0.46041 0.60416 0.88936
 C596 C 0.44638 0.61884 0.91836
 C597 C 0.39396 0.59246 0.92910
 C598 C 0.35827 0.54794 0.91206
 C599 C 0.30491 0.53147 0.89935
 C600 C 0.32021 0.51525 0.86832
 H601 H 0.50056 0.62640 0.88115
 H602 H 0.47602 0.65234 0.93137
 H603 H 0.29862 0.56435 0.89579
 H604 H 0.27370 0.49844 0.91324
 H605 H 0.32279 0.53867 0.84675
 H606 H 0.29787 0.47288 0.86440
 C607 C 0.15474 0.62085 0.88883
 C608 C 0.14201 0.57581 0.87153
 C609 C 0.15355 0.54093 0.88716
 C610 C 0.18203 0.55403 0.91650
 C611 C 0.20064 0.60265 0.93090
 C612 C 0.18387 0.63418 0.91735
 C613 C 0.21412 0.69000 0.90876
 C614 C 0.18237 0.67567 0.87753
 H615 H 0.14123 0.50352 0.87685
 H616 H 0.19199 0.52719 0.92679
 H617 H 0.25635 0.70460 0.90462
 H618 H 0.20567 0.71362 0.92551
 H619 H 0.20617 0.68203 0.85531
 H620 H 0.15586 0.69133 0.87633
 C621 C 0.45015 0.82026 0.87860
 C622 C 0.43348 0.85554 0.87279
 C623 C 0.40760 0.86367 0.89909
 C624 C 0.39415 0.83357 0.92761
 C625 C 0.40678 0.79497 0.93110
 C626 C 0.43737 0.79118 0.90689
 C627 C 0.42935 0.74440 0.88958
 C628 C 0.44288 0.77569 0.85849
 H629 H 0.39696 0.89277 0.89815
 H630 H 0.37256 0.83958 0.94649
 H631 H 0.38808 0.71193 0.89043
 H632 H 0.45902 0.73429 0.89662
 H633 H 0.40943 0.76149 0.84125
 H634 H 0.48003 0.78270 0.84753
 C635 C 0.61583 0.46602 0.88447
 C636 C 0.56533 0.43549 0.87181
 C637 C 0.52936 0.39230 0.89029
 C638 C 0.54585 0.37729 0.91821
 C639 C 0.59876 0.40496 0.92811
 C640 C 0.63218 0.45103 0.91173
 C641 C 0.68557 0.47084 0.89804
 C642 C 0.66762 0.48734 0.86818
 H643 H 0.48900 0.36900 0.88254
 H644 H 0.51776 0.34265 0.93095
 H645 H 0.69386 0.43962 0.89299
 H646 H 0.71626 0.50387 0.91225
 H647 H 0.66548 0.46572 0.84580
 H648 H 0.68793 0.52986 0.86525
 C649 C 0.86548 0.40308 0.89429
 C650 C 0.87077 0.44335 0.87462
 C651 C 0.84934 0.47228 0.88680
 C652 C 0.81689 0.45564 0.91450
 C653 C 0.80510 0.40971 0.93064
 C654 C 0.83358 0.38670 0.92146
 C655 C 0.81766 0.33183 0.91614
 C656 C 0.85237 0.34968 0.88613
 H657 H 0.85546 0.50639 0.87426
 H658 H 0.79835 0.47682 0.92186
 H659 H 0.77566 0.30738 0.91023
 H660 H 0.83212 0.31690 0.93572
 H661 H 0.83020 0.33546 0.86293
 H662 H 0.88673 0.34479 0.88848
 C663 C 0.60917 0.14868 0.89186
 C664 C 0.56127 0.13258 0.87634
 C665 C 0.52683 0.14514 0.89157
 C666 C 0.54330 0.17859 0.91856
 C667 C 0.59447 0.20002 0.93111
 C668 C 0.62540 0.18168 0.91849
 C669 C 0.68029 0.21144 0.90646
 C670 C 0.66284 0.17484 0.87771
 H671 H 0.48802 0.13111 0.88184
 H672 H 0.51678 0.18948 0.92857
 H673 H 0.70809 0.20814 0.92291
 H674 H 0.69139 0.25122 0.89935
 H675 H 0.67976 0.14958 0.87787
 H676 H 0.66541 0.19383 0.85403
   
