data_POSCAR
  _audit_creation_date              2014-09-24
  _audit_creation_method            'ToBaCCo'
  _symmetry_space_group_name_H-M    'P1'
  _symmetry_Int_Tables_number       1
  _symmetry_cell_setting            triclinic
  loop_
  _symmetry_equiv_pos_as_xyz
 x,y,z
_cell_length_a 61.0387
_cell_length_b 61.6454
_cell_length_c 61.2356
_cell_angle_alpha 93.044200
_cell_angle_beta 94.866500
_cell_angle_gamma 86.370000
loop_
  _atom_site_label
  _atom_site_type_symbol
  _atom_site_fract_x
  _atom_site_fract_y
  _atom_site_fract_z
C1 C 0.27413 0.47676 1.00341
 C2 C 0.26079 0.49556 0.99889
 C3 C 0.27042 0.51526 0.99633
 C4 C 0.29355 0.51662 0.99875
 C5 C 0.30657 0.49734 1.00325
 C6 C 0.29705 0.47757 1.00555
 C7 C 0.23664 0.49489 0.99797
 C8 C 0.22642 0.49225 1.01725
 C9 C 0.20324 0.49232 1.01710
 C10 C 0.19084 0.49435 0.99665
 C11 C 0.20090 0.49726 0.97729
 C12 C 0.22389 0.49762 0.97812
 H13 H 0.26666 0.46157 1.00544
 H14 H 0.25956 0.52962 0.99375
 H15 H 0.23684 0.49144 1.03240
 H16 H 0.23190 0.50010 0.96340
 H17 H 0.32435 0.49709 1.00392
 H18 H 0.17324 0.49278 0.99529
 C19 C 0.73182 0.48691 0.01315
 C20 C 0.74093 0.50575 0.00693
 C21 C 0.72712 0.52391 0.00103
 C22 C 0.70419 0.52340 0.00142
 C23 C 0.69528 0.50437 0.00754
 C24 C 0.70892 0.48601 0.01335
 C25 C 0.76497 0.50625 0.00635
 C26 C 0.77422 0.50652 -0.01380
 C27 C 0.79730 0.50556 -0.01483
 C28 C 0.81068 0.50509 0.00517
 C29 C 0.80155 0.50549 0.02553
 C30 C 0.77859 0.50573 0.02590
 H31 H 0.74261 0.47296 0.01772
 H32 H 0.73426 0.53837 -0.00389
 H33 H 0.76321 0.50612 -0.02861
 H34 H 0.77119 0.50599 0.04138
 H35 H 0.67760 0.50383 0.00773
 H36 H 0.82838 0.50505 0.00516
 C37 C 0.01363 0.22306 0.48874
 C38 C -0.00558 0.23570 0.49311
 C39 C -0.02473 0.22547 0.49694
 C40 C -0.02488 0.20263 0.49612
 C41 C -0.00541 0.19027 0.49188
 C42 C 0.01380 0.20030 0.48811
 C43 C -0.00568 0.25964 0.49328
 C44 C -0.00095 0.26986 0.47442
 C45 C -0.00028 0.29272 0.47432
 C46 C -0.00449 0.30489 0.49388
 C47 C -0.00852 0.29481 0.51309
 C48 C -0.00952 0.27212 0.51251
 H49 H 0.02840 0.23094 0.48576
 H50 H -0.03960 0.23535 0.49988
 H51 H 0.00294 0.25963 0.46020
 H52 H -0.01236 0.26403 0.52720
 H53 H -0.00494 0.17268 0.49201
 H54 H -0.00552 0.32247 0.49424
 C55 C 1.02347 0.77351 0.50588
 C56 C 1.00459 0.76274 0.50955
 C57 C 0.98536 0.77492 0.51476
 C58 C 0.98487 0.79771 0.51632
 C59 C 1.00396 0.80821 0.51291
 C60 C 1.02360 0.79642 0.50783
 C61 C 1.00522 0.73866 0.50838
 C62 C 0.99835 0.72740 0.52571
 C63 C 0.99963 0.70437 0.52539
 C64 C 1.00760 0.69315 0.50660
 C65 C 1.01391 0.70421 0.48888
 C66 C 1.01292 0.72699 0.49004
 H67 H 1.03834 0.76374 0.50276
 H68 H 0.97078 0.76663 0.51751
 H69 H 0.99174 0.73701 0.53915
 H70 H 1.01805 0.73570 0.47662
 H71 H 1.00290 0.82580 0.51295
 H72 H 1.00942 0.67563 0.50551
 C73 C 0.50207 0.01505 0.22295
 C74 C 0.49832 -0.00417 0.23293
 C75 C 0.49476 -0.02330 0.22005
 C76 C 0.49555 -0.02356 0.19717
 C77 C 0.49977 -0.00425 0.18745
 C78 C 0.50243 0.01527 0.20006
 C79 C 0.49776 -0.00416 0.25690
 C80 C 0.47758 -0.00453 0.26618
 C81 C 0.47688 -0.00423 0.28907
 C82 C 0.49675 -0.00400 0.30246
 C83 C 0.51713 -0.00391 0.29337
 C84 C 0.51743 -0.00378 0.27046
 H85 H 0.50400 0.02990 0.23303
 H86 H 0.49125 -0.03788 0.22793
 H87 H 0.46245 -0.00452 0.25556
 H88 H 0.53295 -0.00388 0.26306
 H89 H 0.50120 -0.00443 0.16994
 H90 H 0.49634 -0.00390 0.32011
 C91 C 0.50476 0.02482 0.77934
 C92 C 0.49975 0.00635 0.76604
 C93 C 0.49546 -0.01295 0.77563
 C94 C 0.49736 -0.01461 0.79871
 C95 C 0.50361 0.00411 0.81159
 C96 C 0.50626 0.02403 0.80224
 C97 C 0.49927 0.00715 0.74194
 C98 C 0.51825 0.01222 0.73231
 C99 C 0.51848 0.01218 0.70939
 C100 C 0.49918 0.00758 0.69623
 C101 C 0.47994 0.00274 0.70563
 C102 C 0.48020 0.00237 0.72858
 H103 H 0.50687 0.03991 0.77168
 H104 H 0.49041 -0.02633 0.76467
 H105 H 0.53291 0.01591 0.74273
 H106 H 0.46563 -0.00167 0.73609
 H107 H 0.50721 0.00343 0.82909
 H108 H 0.49916 0.00761 0.67856
 C109 C 0.27863 0.00223 0.45189
 H110 H 0.27686 0.01598 0.46346
 C111 C 0.29238 0.00309 0.43493
 H112 H 0.30125 0.01757 0.43357
 C113 C 0.26980 -0.03367 0.44015
 H114 H 0.26129 -0.04809 0.44251
 C115 C 0.28366 -0.03361 0.42311
 H116 H 0.28544 -0.04792 0.41220
 N117 N 0.26745 -0.01583 0.45401
 C118 C 0.21671 0.01167 0.49498
 H119 H 0.21938 0.00083 0.50840
 C120 C 0.20039 0.02853 0.49552
 H121 H 0.19089 0.03077 0.50970
 C122 C 0.22606 0.02175 0.46030
 H123 H 0.23569 0.01868 0.44634
 C124 C 0.20971 0.03870 0.46004
 H125 H 0.20702 0.04850 0.44581
 Zn126 Zn 0.24998 -0.01549 0.47810
 N127 N 0.22931 0.00873 0.47768
 C128 C 0.26950 0.00380 0.51773
 N129 N 0.26941 -0.01418 0.50386
 C130 C 0.28405 -0.03145 0.50739
 C131 C 0.29927 -0.03127 0.52574
 C132 C 0.28455 0.00473 0.53621
 C133 C 0.21991 -0.04448 0.45872
 C134 C 0.20527 -0.06105 0.45792
 C135 C 0.21831 -0.06886 0.49519
 C136 C 0.23293 -0.05231 0.49517
 N137 N 0.23334 -0.04042 0.47715
 H138 H 0.25818 0.01762 0.51433
 H139 H 0.28391 -0.04536 0.49585
 H140 H 0.31093 -0.04508 0.52818
 H141 H 0.28432 0.01913 0.54713
 H142 H 0.22025 -0.03448 0.44477
 H143 H 0.19479 -0.06398 0.44303
 H144 H 0.21758 -0.07741 0.51007
 H145 H 0.24318 -0.04834 0.50992
 C146 C 0.19655 0.04224 0.47780
 C147 C 0.29507 -0.01501 0.42033
 C148 C 0.20396 -0.07322 0.47649
 C149 C 0.29968 -0.01297 0.54040
 C150 C 0.71662 0.03251 0.54685
 H151 H 0.71689 0.04540 0.53557
 C152 C 0.70181 0.03428 0.56313
 H153 H 0.69067 0.04861 0.56427
 C154 C 0.72998 -0.00239 0.55820
 H155 H 0.74052 -0.01692 0.55584
 C156 C 0.71536 -0.00135 0.57461
 H157 H 0.71519 -0.01494 0.58508
 N158 N 0.73033 0.01440 0.54471
 C159 C 0.77829 0.03602 0.50307
 H160 H 0.77639 0.02369 0.48992
 C161 C 0.79355 0.05174 0.50217
 H162 H 0.80294 0.05163 0.48794
 C163 C 0.76824 0.05083 0.53756
 H164 H 0.75874 0.05001 0.55157
 C165 C 0.78360 0.06675 0.53747
 H166 H 0.78573 0.07808 0.55150
 Zn167 Zn 0.74801 0.01200 0.52068
 N168 N 0.76600 0.03582 0.52053
 C169 C 0.72610 0.02733 0.48109
 N170 N 0.72864 0.01060 0.49489
 C171 C 0.71646 -0.00716 0.49129
 C172 C 0.70152 -0.00893 0.47282
 C173 C 0.71109 0.02638 0.46259
 C174 C 0.78137 -0.01472 0.54081
 C175 C 0.79734 -0.03188 0.54272
 C176 C 0.78498 -0.04519 0.50622
 C177 C 0.76906 -0.02787 0.50511
 N178 N 0.76754 -0.01309 0.52230
 H179 H 0.73542 0.04161 0.48460
 H180 H 0.71841 -0.01998 0.50282
 H181 H 0.69192 -0.02316 0.47020
 H182 H 0.70924 0.03981 0.45173
 H183 H 0.78008 -0.00251 0.55407
 H184 H 0.80796 -0.03294 0.55775
 H185 H 0.78637 -0.05635 0.49209
 H186 H 0.75847 -0.02587 0.49022
 C187 C 0.79674 0.06716 0.51971
 C188 C 0.70088 0.01708 0.57709
 C189 C 0.79953 -0.04728 0.52517
 C190 C 0.69866 0.00802 0.45824
 C191 C 0.50680 0.22078 1.04033
 H192 H 0.49393 0.22359 1.02735
 C193 C 0.50494 0.20471 1.05511
 H194 H 0.49025 0.19561 1.05363
 C195 C 0.54144 0.22954 1.05787
 H196 H 0.55585 0.23894 1.05854
 C197 C 0.54041 0.21335 1.07285
 H198 H 0.55416 0.21049 1.08492
 N199 N 0.52472 0.23294 1.04204
 C200 C 0.50011 0.28896 1.00460
 H201 H 0.51264 0.28904 0.99312
 C202 C 0.48262 0.30468 1.00372
 H203 H 0.48161 0.31644 0.99111
 C204 C 0.48642 0.27338 1.03485
 H205 H 0.48824 0.26152 1.04733
 C206 C 0.46880 0.28900 1.03477
 H207 H 0.45729 0.28886 1.04725
 Zn208 Zn 0.52611 0.25308 1.02002
 N209 N 0.50148 0.27345 1.01971
 C210 C 0.51228 0.24079 0.97542
 N211 N 0.52672 0.23657 0.99305
 C212 C 0.54144 0.21910 0.99268
 C213 C 0.54165 0.20469 0.97433
 C214 C 0.51230 0.22712 0.95649
 C215 C 0.55340 0.28180 1.04408
 C216 C 0.56976 0.29672 1.04740
 C217 C 0.58185 0.28551 1.01174
 C218 C 0.56540 0.27060 1.00922
 N219 N 0.55136 0.26933 1.02513
 H220 H 0.50044 0.25451 0.97604
 H221 H 0.55255 0.21595 1.00704
 H222 H 0.55281 0.19036 0.97502
 H223 H 0.50083 0.23107 0.94262
 H224 H 0.54179 0.28065 1.05632
 H225 H 0.57092 0.30663 1.06253
 H226 H 0.59208 0.28707 0.99838
 H227 H 0.56314 0.26086 0.99408
 C228 C 0.46664 0.30490 1.01898
 C229 C 0.52200 0.20057 1.07154
 C230 C 0.58387 0.29920 1.03083
 C231 C 0.52679 0.20845 0.95587
 C232 C 0.45542 0.77572 -0.05392
 H233 H 0.44083 0.77262 -0.04600
 C234 C 0.45399 0.79050 -0.07057
 H235 H 0.43795 0.79775 -0.07582
 C236 C 0.49385 0.76997 -0.05625
 H237 H 0.50947 0.76239 -0.05014
 C238 C 0.49334 0.78529 -0.07230
 H239 H 0.50881 0.78924 -0.07802
 N240 N 0.47508 0.76552 -0.04736
 C241 C 0.45413 0.71627 -0.00587
 H242 H 0.46668 0.71802 0.00758
 C243 C 0.43779 0.70167 -0.00471
 H244 H 0.43783 0.69222 0.00971
 C245 C 0.43944 0.72582 -0.04136
 H246 H 0.44050 0.73477 -0.05588
 C247 C 0.42294 0.71112 -0.04102
 H248 H 0.41108 0.70929 -0.05509
 Zn249 Zn 0.47747 0.74772 -0.02291
 N250 N 0.45431 0.72848 -0.02370
 C251 C 0.46250 0.76643 0.01747
 N252 N 0.47772 0.76672 0.00250
 C253 C 0.49351 0.78145 0.00465
 C254 C 0.49457 0.79654 0.02246
 C255 C 0.46320 0.78098 0.03576
 C256 C 0.50664 0.71665 -0.04082
 C257 C 0.52473 0.70168 -0.04128
 C258 C 0.53689 0.71445 -0.00452
 C259 C 0.51859 0.72930 -0.00482
 N260 N 0.50385 0.72997 -0.02275
 H261 H 0.44966 0.75508 0.01525
 H262 H 0.50519 0.78159 -0.00766
 H263 H 0.50696 0.80842 0.02340
 H264 H 0.45122 0.78005 0.04768
 H265 H 0.49454 0.71746 -0.05477
 H266 H 0.52661 0.69123 -0.05585
 H267 H 0.54802 0.71361 0.01019
 H268 H 0.51580 0.73973 0.00954
 C269 C 0.42185 0.69906 -0.02238
 C270 C 0.47320 0.79594 -0.07977
 C271 C 0.53998 0.70016 -0.02282
 C272 C 0.47935 0.79642 0.03845
 C273 C 1.04994 0.47356 0.22176
 H274 H 1.03621 0.46317 0.21985
 C275 C 1.06540 0.47225 0.20612
 H276 H 1.06320 0.46089 0.19213
 C277 C 1.06830 0.50208 0.24155
 H278 H 1.06911 0.51409 0.25503
 C279 C 1.08432 0.50110 0.22648
 H280 H 1.09757 0.51205 0.22900
 N281 N 1.05151 0.48845 0.23893
 C282 C 1.01272 0.46700 0.28927
 H283 H 1.00183 0.48141 0.29109
 C284 C 1.01137 0.44959 0.30262
 H285 H 0.99956 0.45092 0.31491
 C286 C 1.04190 0.44836 0.27148
 H287 H 1.05384 0.44806 0.25940
 C288 C 1.04106 0.43047 0.28447
 H289 H 1.05225 0.41638 0.28202
 Zn290 Zn 1.02799 0.49090 0.25733
 N291 N 1.02771 0.46606 0.27403
 C292 C 0.98691 0.47785 0.23752
 N293 N 1.00166 0.49361 0.23872
 C294 C 0.99874 0.51080 0.22553
 C295 C 0.98016 0.51285 0.21066
 C296 C 0.96829 0.47907 0.22262
 C297 C 1.04820 0.51557 0.29234
 C298 C 1.05042 0.53279 0.30798
 C299 C 1.01559 0.54886 0.29310
 C300 C 1.01412 0.53142 0.27766
 N301 N 1.03040 0.51531 0.27740
 H302 H 0.98979 0.46403 0.24773
 H303 H 1.01099 0.52282 0.22646
 H304 H 0.97815 0.52653 0.20012
 H305 H 0.95678 0.46633 0.22171
 H306 H 1.06069 0.50232 0.29210
 H307 H 1.06492 0.53283 0.31946
 H308 H 1.00219 0.56123 0.29328
 H309 H 0.99970 0.53058 0.26623
 C310 C 1.02560 0.43094 0.30029
 C311 C 1.08280 0.48630 0.20820
 C312 C 1.03394 0.54975 0.30855
 C313 C 0.96479 0.49674 0.20897
 C314 C -0.05231 0.48977 0.77599
 H315 H -0.04187 0.47534 0.77265
 C316 C -0.06817 0.48932 0.79106
 H317 H -0.06976 0.47445 0.79928
 C318 C -0.06175 0.52704 0.77039
 H319 H -0.05861 0.54194 0.76303
 C320 C -0.07782 0.52733 0.78538
 H321 H -0.08739 0.54233 0.78875
 N322 N -0.04959 0.50835 0.76577
 C323 C -0.00895 0.47945 0.71545
 H324 H 0.00488 0.48962 0.71859
 C325 C -0.00816 0.46238 0.69963
 H326 H 0.00662 0.45933 0.69110
 C327 C -0.04476 0.47111 0.72320
 H328 H -0.05918 0.47492 0.73209
 C329 C -0.04482 0.45401 0.70721
 H330 H -0.05938 0.44482 0.70402
 Zn331 Zn -0.02617 0.50762 0.74727
 N332 N -0.02691 0.48332 0.72706
 C333 C 0.01297 0.48733 0.76755
 N334 N 0.00019 0.50615 0.76589
 C335 C 0.00527 0.52431 0.77838
 C336 C 0.02411 0.52413 0.79300
 C337 C 0.03191 0.48639 0.78205
 C338 C -0.04686 0.54069 0.72106
 C339 C -0.04766 0.55797 0.70711
 C340 C -0.00793 0.55705 0.71104
 C341 C -0.00795 0.54030 0.72551
 N342 N -0.02724 0.53253 0.73031
 H343 H 0.00831 0.47289 0.75794
 H344 H -0.00543 0.53894 0.77703
 H345 H 0.02774 0.53869 0.80299
 H346 H 0.04195 0.47130 0.78310
 H347 H -0.06195 0.53362 0.72431
 H348 H -0.06360 0.56452 0.70064
 H349 H 0.00776 0.56210 0.70683
 H350 H 0.00752 0.53292 0.73226
 C351 C -0.02633 0.44947 0.69512
 C352 C -0.08115 0.50830 0.79599
 C353 C -0.02798 0.56626 0.70155
 C354 C 0.03769 0.50496 0.79501
 C355 C 0.07111 0.15783 0.47846
 C356 C 0.07231 0.17575 0.49368
 C357 C 0.05393 0.19014 0.49620
 C358 C 0.03396 0.18673 0.48377
 C359 C 0.03293 0.16934 0.46806
 C360 C 0.05134 0.15516 0.46530
 C361 C 0.08990 0.14131 0.47715
 C362 C 0.08594 0.11912 0.47361
 C363 C 0.10338 0.10340 0.47315
 C364 C 0.12530 0.10936 0.47651
 C365 C 0.12933 0.13156 0.47981
 C366 C 0.11183 0.14735 0.48007
 C367 C 0.14376 0.09237 0.47697
 C368 C 0.16364 0.09585 0.46801
 C369 C 0.18082 0.07970 0.46837
 C370 C 0.17848 0.05964 0.47761
 C371 C 0.15860 0.05621 0.48656
 C372 C 0.14154 0.07239 0.48637
 H373 H 0.08716 0.17819 0.50427
 H374 H 0.05503 0.20338 0.50853
 H375 H 0.01775 0.16658 0.45809
 H376 H 0.04997 0.14191 0.45302
 H377 H 0.06930 0.11377 0.47166
 H378 H 0.09965 0.08651 0.47017
 H379 H 0.14600 0.13672 0.48264
 H380 H 0.11550 0.16430 0.48258
 H381 H 0.16583 0.11096 0.46045
 H382 H 0.19599 0.08300 0.46155
 H383 H 0.15604 0.04087 0.49350
 H384 H 0.12663 0.06925 0.49376
 C385 C 0.65896 0.57859 -0.01132
 C386 C 0.67935 0.58141 0.00065
 C387 C 0.69442 0.56361 0.00420
 C388 C 0.68936 0.54268 -0.00417
 C389 C 0.66937 0.54008 -0.01691
 C390 C 0.65435 0.55781 -0.02043
 C391 C 0.64205 0.59693 -0.01348
 C392 C 0.61988 0.59349 -0.01105
 C393 C 0.60381 0.61056 -0.01296
 C394 C 0.60948 0.63153 -0.01740
 C395 C 0.63170 0.63507 -0.01965
 C396 C 0.64784 0.61794 -0.01768
 C397 C 0.59215 0.64951 -0.01962
 C398 C 0.59591 0.67053 -0.01060
 C399 C 0.57913 0.68709 -0.01188
 C400 C 0.55824 0.68299 -0.02225
 C401 C 0.55465 0.66206 -0.03157
 C402 C 0.57140 0.64557 -0.03033
 H403 H 0.68330 0.59720 0.00800
 H404 H 0.70963 0.56607 0.01421
 H405 H 0.66523 0.52423 -0.02397
 H406 H 0.63898 0.55523 -0.03015
 H407 H 0.61497 0.57761 -0.00731
 H408 H 0.58694 0.60739 -0.01062
 H409 H 0.63656 0.65099 -0.02329
 H410 H 0.66478 0.62103 -0.01978
 H411 H 0.61167 0.67405 -0.00210
 H412 H 0.58250 0.70310 -0.00473
 H413 H 0.53870 0.65822 -0.03941
 H414 H 0.56805 0.62965 -0.03774
 C415 C 0.92650 -0.16093 0.52518
 C416 C 0.94667 -0.15622 0.53668
 C417 C 0.96535 -0.17016 0.53453
 C418 C 0.96435 -0.18909 0.52072
 C419 C 0.94394 -0.19436 0.51002
 C420 C 0.92516 -0.18042 0.51227
 C421 C 0.90738 -0.14487 0.52570
 C422 C 0.88610 -0.15141 0.52799
 C423 C 0.86824 -0.13600 0.52842
 C424 C 0.87132 -0.11378 0.52639
 C425 C 0.89261 -0.10739 0.52379
 C426 C 0.91041 -0.12272 0.52354
 C427 C 0.85253 -0.09720 0.52687
 C428 C 0.85553 -0.07653 0.53712
 C429 C 0.83833 -0.06050 0.53669
 C430 C 0.81753 -0.06475 0.52623
 C431 C 0.81435 -0.08558 0.51637
 C432 C 0.83166 -0.10161 0.51666
 H433 H 0.94805 -0.14153 0.54709
 H434 H 0.98074 -0.16591 0.54335
 H435 H 0.94269 -0.20874 0.49915
 H436 H 0.90984 -0.18438 0.50314
 H437 H 0.88334 -0.16838 0.52979
 H438 H 0.85211 -0.14144 0.53068
 H439 H 0.89552 -0.09053 0.52161
 H440 H 0.92655 -0.11728 0.52126
 H441 H 0.87126 -0.07268 0.54546
 H442 H 0.84153 -0.04459 0.54418
 H443 H 0.79848 -0.08951 0.50841
 H444 H 0.82881 -0.11729 0.50845
 C445 C 0.34254 0.42222 1.01529
 C446 C 0.34308 0.44042 1.03018
 C447 C 0.32784 0.45811 1.02736
 C448 C 0.31145 0.45783 1.00988
 C449 C 0.31007 0.43930 0.99564
 C450 C 0.32556 0.42171 0.99822
 C451 C 0.36030 0.40452 1.01689
 C452 C 0.35589 0.38275 1.01105
 C453 C 0.37290 0.36642 1.01161
 C454 C 0.39472 0.37141 1.01822
 C455 C 0.39902 0.39309 1.02448
 C456 C 0.38211 0.40942 1.02365
 C457 C 0.41302 0.35424 1.01829
 C458 C 0.43395 0.35904 1.01254
 C459 C 0.45128 0.34312 1.01289
 C460 C 0.44811 0.32184 1.01867
 C461 C 0.42712 0.31696 1.02421
 C462 C 0.40983 0.33297 1.02412
 H463 H 0.35549 0.44117 1.04387
 H464 H 0.32904 0.47220 1.03865
 H465 H 0.29762 0.43887 0.98194
 H466 H 0.32475 0.40814 0.98628
 H467 H 0.33928 0.37830 1.00602
 H468 H 0.36898 0.34995 1.00646
 H469 H 0.41552 0.39753 1.03005
 H470 H 0.38629 0.42601 1.02791
 H471 H 0.43697 0.37510 1.00759
 H472 H 0.46725 0.34763 1.00885
 H473 H 0.42396 0.30069 1.02846
 H474 H 0.39403 0.32873 1.02888
 C475 C 0.91845 0.16794 0.50788
 C476 C 0.92214 0.18800 0.51909
 C477 C 0.94031 0.19958 0.51506
 C478 C 0.95486 0.19141 0.49952
 C479 C 0.95037 0.17180 0.48764
 C480 C 0.93253 0.16012 0.49194
 C481 C 0.90049 0.15458 0.51306
 C482 C 0.90531 0.13282 0.51821
 C483 C 0.88842 0.11934 0.52120
 C484 C 0.86625 0.12719 0.51869
 C485 C 0.86150 0.14929 0.51435
 C486 C 0.87851 0.16290 0.51170
 C487 C 0.84832 0.11200 0.51939
 C488 C 0.82840 0.11867 0.52843
 C489 C 0.81161 0.10421 0.52860
 C490 C 0.81440 0.08276 0.51978
 C491 C 0.83440 0.07612 0.51095
 C492 C 0.85101 0.09056 0.51060
 H493 H 0.91144 0.19428 0.53147
 H494 H 0.94333 0.21454 0.52460
 H495 H 0.96076 0.16534 0.47507
 H496 H 0.92973 0.14486 0.48283
 H497 H 0.92220 0.12618 0.51965
 H498 H 0.89276 0.10263 0.52519
 H499 H 0.84463 0.15585 0.51214
 H500 H 0.87448 0.17966 0.50767
 H501 H 0.82584 0.13501 0.53551
 H502 H 0.79636 0.10991 0.53539
 H503 H 0.83736 0.05964 0.50441
 H504 H 0.86591 0.08492 0.50312
 C505 C 0.32427 0.57615 -0.00719
 C506 C 0.33484 0.55949 0.00523
 C507 C 0.32468 0.54018 0.00736
 C508 C 0.30355 0.53665 -0.00308
 C509 C 0.29291 0.55365 -0.01537
 C510 C 0.30317 0.57305 -0.01743
 C511 C 0.33558 0.59645 -0.00960
 C512 C 0.33444 0.60630 -0.02988
 C513 C 0.34653 0.62443 -0.03243
 C514 C 0.36004 0.63307 -0.01475
 C515 C 0.36067 0.62353 0.00566
 C516 C 0.34852 0.60555 0.00823
 C517 C 0.37425 0.65129 -0.01764
 C518 C 0.37826 0.66704 -0.00053
 C519 C 0.39335 0.68283 -0.00232
 C520 C 0.40457 0.68342 -0.02134
 C521 C 0.39991 0.66834 -0.03885
 C522 C 0.38498 0.65236 -0.03698
 H523 H 0.35119 0.56125 0.01322
 H524 H 0.33339 0.52842 0.01791
 H525 H 0.27702 0.55188 -0.02428
 H526 H 0.29453 0.58565 -0.02705
 H527 H 0.32474 0.59961 -0.04398
 H528 H 0.34543 0.63156 -0.04829
 H529 H 0.37109 0.62953 0.01958
 H530 H 0.34948 0.59859 0.02417
 H531 H 0.36992 0.66703 0.01438
 H532 H 0.39640 0.69452 0.01127
 H533 H 0.40848 0.66837 -0.05362
 H534 H 0.38252 0.64033 -0.05036
 C535 C 0.07988 -0.16916 0.49709
 C536 C 0.06457 -0.16058 0.51157
 C537 C 0.04633 -0.17197 0.51525
 C538 C 0.04277 -0.19253 0.50469
 C539 C 0.05873 -0.20147 0.49080
 C540 C 0.07692 -0.18987 0.48697
 C541 C 0.09851 -0.15620 0.49232
 C542 C 0.11955 -0.16614 0.48961
 C543 C 0.13704 -0.15365 0.48561
 C544 C 0.13387 -0.13093 0.48426
 C545 C 0.11278 -0.12108 0.48683
 C546 C 0.09534 -0.13354 0.49067
 C547 C 0.15244 -0.11733 0.48074
 C548 C 0.14880 -0.09892 0.46803
 C549 C 0.16562 -0.08496 0.46628
 C550 C 0.18667 -0.08916 0.47696
 C551 C 0.19057 -0.10805 0.48896
 C552 C 0.17364 -0.12193 0.49090
 H553 H 0.06676 -0.14501 0.52027
 H554 H 0.03544 -0.16476 0.52705
 H555 H 0.05673 -0.21689 0.48182
 H556 H 0.08829 -0.19685 0.47551
 H557 H 0.12260 -0.18353 0.49094
 H558 H 0.15302 -0.16178 0.48350
 H559 H 0.10978 -0.10362 0.48626
 H560 H 0.07929 -0.12537 0.49229
 H561 H 0.13280 -0.09509 0.45963
 H562 H 0.16184 -0.07046 0.45713
 H563 H 0.20666 -0.11199 0.49712
 H564 H 0.17700 -0.13589 0.50093
 C565 C 0.67733 0.42806 1.02632
 C566 C 0.67018 0.44842 1.03542
 C567 C 0.68090 0.46709 1.03183
 C568 C 0.69901 0.46586 1.01901
 C569 C 0.70674 0.44537 1.01063
 C570 C 0.69602 0.42664 1.01427
 C571 C 0.66457 0.40867 1.02840
 C572 C 0.67519 0.38826 1.03272
 C573 C 0.66290 0.37007 1.03432
 C574 C 0.63975 0.37191 1.03152
 C575 C 0.62922 0.39233 1.02705
 C576 C 0.64146 0.41047 1.02557
 C577 C 0.62645 0.35270 1.03288
 C578 C 0.60626 0.35502 1.04248
 C579 C 0.59280 0.33754 1.04225
 C580 C 0.59923 0.31716 1.03263
 C581 C 0.61979 0.31460 1.02371
 C582 C 0.63324 0.33219 1.02381
 H583 H 0.65609 0.44993 1.04514
 H584 H 0.67486 0.48257 1.03890
 H585 H 0.72053 0.44393 1.00053
 H586 H 0.70179 0.41120 1.00692
 H587 H 0.69298 0.38645 1.03511
 H588 H 0.67150 0.35462 1.03799
 H589 H 0.61147 0.39424 1.02426
 H590 H 0.63283 0.42587 1.02174
 H591 H 0.60070 0.37048 1.04994
 H592 H 0.57697 0.34026 1.04899
 H593 H 0.62538 0.29908 1.01641
 H594 H 0.64862 0.32988 1.01617
 C595 C 0.50847 0.07486 1.16756
 C596 C 0.49453 0.05892 1.15830
 C597 C 0.49253 0.03981 1.16897
 C598 C 0.50467 0.03588 1.18906
 C599 C 0.51865 0.05178 1.19839
 C600 C 0.52052 0.07107 1.18777
 C601 C 0.51052 0.09508 1.15583
 C602 C 0.53097 0.10440 1.15567
 C603 C 0.53306 0.12240 1.14315
 C604 C 0.51480 0.13124 1.13037
 C605 C 0.49426 0.12242 1.13108
 C606 C 0.49210 0.10468 1.14378
 C607 C 0.51721 0.14890 1.11547
 C608 C 0.50865 0.14692 1.09351
 C609 C 0.51053 0.16351 1.07928
 C610 C 0.52071 0.18269 1.08673
 C611 C 0.52947 0.18456 1.10874
 C612 C 0.52787 0.16774 1.12293
 H613 H 0.48530 0.06105 1.14260
 H614 H 0.48128 0.02815 1.16147
 H615 H 0.52835 0.04920 1.21377
 H616 H 0.53125 0.08308 1.19546
 H617 H 0.54554 0.09733 1.16458
 H618 H 0.54909 0.12889 1.14276
 H619 H 0.47987 0.12920 1.12164
 H620 H 0.47598 0.09834 1.14399
 H621 H 0.50071 0.13236 1.08728
 H622 H 0.50416 0.16115 1.06233
 H623 H 0.53719 0.19916 1.11514
 H624 H 0.53451 0.16964 1.13984
 C625 C -0.01674 0.66892 0.57962
 C626 C -0.01296 0.69118 0.58229
 C627 C -0.00773 0.70285 0.56462
 C628 C -0.00656 0.69280 0.54337
 C629 C -0.01136 0.67060 0.54078
 C630 C -0.01592 0.65888 0.55856
 C631 C -0.02085 0.65598 0.59869
 C632 C -0.03354 0.63761 0.59568
 C633 C -0.03572 0.62431 0.61303
 C634 C -0.02596 0.62934 0.63420
 C635 C -0.01419 0.64833 0.63746
 C636 C -0.01141 0.66126 0.61993
 C637 C -0.02731 0.61438 0.65244
 C638 C -0.01026 0.61250 0.66934
 C639 C -0.01091 0.59760 0.68566
 C640 C -0.02826 0.58354 0.68524
 C641 C -0.04549 0.58568 0.66854
 C642 C -0.04521 0.60109 0.65266
 H643 H -0.01382 0.69973 0.59811
 H644 H -0.00376 0.71953 0.56829
 H645 H -0.01218 0.66190 0.52500
 H646 H -0.01845 0.64173 0.55566
 H647 H -0.04167 0.63322 0.57982
 H648 H -0.04463 0.60975 0.60953
 H649 H -0.00687 0.65321 0.65353
 H650 H -0.00132 0.67507 0.62304
 H651 H 0.00401 0.62210 0.66977
 H652 H 0.00241 0.59704 0.69848
 H653 H -0.05906 0.57510 0.66723
 H654 H -0.05902 0.60232 0.64042
 C655 C 0.48460 0.92680 -0.17078
 C656 C 0.48542 0.94680 -0.15876
 C657 C 0.48908 0.96588 -0.16880
 C658 C 0.49306 0.96577 -0.19126
 C659 C 0.49240 0.94546 -0.20320
 C660 C 0.48797 0.92647 -0.19322
 C661 C 0.48053 0.90650 -0.15977
 C662 C 0.48936 0.88602 -0.16713
 C663 C 0.48635 0.86726 -0.15609
 C664 C 0.47503 0.86846 -0.13691
 C665 C 0.46595 0.88892 -0.12978
 C666 C 0.46827 0.90749 -0.14125
 C667 C 0.47344 0.84883 -0.12385
 C668 C 0.45612 0.84749 -0.11028
 C669 C 0.45591 0.83038 -0.09626
 C670 C 0.47254 0.81345 -0.09593
 C671 C 0.48910 0.81408 -0.11054
 C672 C 0.48978 0.83166 -0.12393
 H673 H 0.48338 0.94793 -0.14136
 H674 H 0.48805 0.98065 -0.15859
 H675 H 0.49588 0.94362 -0.22020
 H676 H 0.48720 0.91153 -0.20327
 H677 H 0.49910 0.88440 -0.18115
 H678 H 0.49314 0.85188 -0.16262
 H679 H 0.45744 0.89092 -0.11496
 H680 H 0.46051 0.92268 -0.13532
 H681 H 0.44273 0.85984 -0.11012
 H682 H 0.44293 0.83096 -0.08525
 H683 H 0.50187 0.80117 -0.11151
 H684 H 0.50359 0.83192 -0.13384
 C685 C 1.01340 0.32516 0.41748
 C686 C 1.00487 0.30446 0.41539
 C687 C 1.00060 0.29364 0.43397
 C688 C 1.00464 0.30325 0.45531
 C689 C 1.01369 0.32390 0.45713
 C690 C 1.01786 0.33464 0.43858
 C691 C 1.01693 0.33731 0.39785
 C692 C 1.03499 0.35039 0.39794
 C693 C 1.03713 0.36356 0.38046
 C694 C 1.02135 0.36385 0.36235
 C695 C 1.00382 0.35002 0.36180
 C696 C 1.00160 0.33695 0.37937
 C697 C 1.02244 0.37957 0.34490
 C698 C 1.00309 0.39040 0.33585
 C699 C 1.00411 0.40655 0.32089
 C700 C 1.02451 0.41243 0.31470
 C701 C 1.04383 0.40113 0.32319
 C702 C 1.04280 0.38485 0.33808
 H703 H 1.00137 0.29663 0.39934
 H704 H 0.99317 0.27817 0.43125
 H705 H 1.01827 0.33179 0.47290
 H706 H 1.02430 0.35065 0.44084
 H707 H 1.04731 0.35076 0.41174
 H708 H 1.05073 0.37412 0.38156
 H709 H 0.99158 0.34958 0.34795
 H710 H 0.98743 0.32717 0.37880
 H711 H 0.98714 0.38696 0.34089
 H712 H 0.98888 0.41465 0.31437
 H713 H 1.05982 0.40532 0.31889
 H714 H 1.05799 0.37661 0.34448
 C715 C 0.48615 0.91829 0.15566
 C716 C 0.47808 0.93883 0.14858
 C717 C 0.48066 0.95749 0.16224
 C718 C 0.49178 0.95625 0.18324
 C719 C 0.49962 0.93571 0.19050
 C720 C 0.49673 0.91694 0.17692
 C721 C 0.48413 0.89860 0.14058
 C722 C 0.50097 0.88193 0.14068
 C723 C 0.49972 0.86420 0.12550
 C724 C 0.48177 0.86282 0.10957
 C725 C 0.46470 0.87924 0.10982
 C726 C 0.46577 0.89676 0.12523
 C727 C 0.48122 0.84488 0.09224
 C728 C 0.46112 0.83672 0.08357
 C729 C 0.46052 0.82096 0.06628
 C730 C 0.48003 0.81262 0.05744
 C731 C 0.50019 0.82028 0.06658
 C732 C 0.50076 0.83632 0.08359
 H733 H 0.47015 0.94066 0.13224
 H734 H 0.47397 0.97294 0.15623
 H735 H 0.50840 0.93414 0.20651
 H736 H 0.50287 0.90139 0.18310
 H737 H 0.51547 0.88283 0.15208
 H738 H 0.51298 0.85167 0.12615
 H739 H 0.45072 0.87897 0.09771
 H740 H 0.45224 0.90899 0.12491
 H741 H 0.44576 0.84258 0.09002
 H742 H 0.44464 0.81573 0.05957
 H743 H 0.51561 0.81398 0.06056
 H744 H 0.51654 0.84234 0.08957
 C745 C -0.01471 0.33440 0.57282
 C746 C 0.00060 0.33876 0.55798
 C747 C 0.00267 0.32576 0.53887
 C748 C -0.01073 0.30816 0.53384
 C749 C -0.02602 0.30364 0.54868
 C750 C -0.02799 0.31663 0.56798
 C751 C -0.01694 0.34878 0.59291
 C752 C -0.03775 0.35465 0.60048
 C753 C -0.03986 0.36993 0.61805
 C754 C -0.02124 0.37975 0.62817
 C755 C -0.00041 0.37327 0.62124
 C756 C 0.00174 0.35783 0.60395
 C757 C -0.02344 0.39764 0.64505
 C758 C -0.01347 0.41719 0.64278
 C759 C -0.01487 0.43408 0.65875
 C760 C -0.02596 0.43172 0.67764
 C761 C -0.03626 0.41220 0.67972
 C762 C -0.03515 0.39538 0.66348
 H763 H 0.01083 0.35251 0.56091
 H764 H 0.01490 0.32949 0.52803
 H765 H -0.03666 0.29027 0.54523
 H766 H -0.03983 0.31270 0.57915
 H767 H -0.05250 0.34814 0.59226
 H768 H -0.05610 0.37476 0.62312
 H769 H 0.01422 0.38038 0.62906
 H770 H 0.01807 0.35325 0.59899
 H771 H -0.00470 0.41944 0.62849
 H772 H -0.00732 0.44906 0.65619
 H773 H -0.04475 0.40971 0.69412
 H774 H -0.04293 0.38039 0.66555
 C775 C 0.51420 0.08260 0.84364
 C776 C 0.52460 0.07975 0.82394
 C777 C 0.52244 0.06066 0.81065
 C778 C 0.50961 0.04407 0.81661
 C779 C 0.49929 0.04699 0.83632
 C780 C 0.50178 0.06579 0.84974
 C781 C 0.51606 0.10293 0.85783
 C782 C 0.49840 0.11097 0.86984
 C783 C 0.50040 0.12916 0.88424
 C784 C 0.51995 0.14029 0.88670
 C785 C 0.53739 0.13272 0.87412
 C786 C 0.53553 0.11418 0.85999
 C787 C 0.52224 0.15910 0.90294
 C788 C 0.54260 0.16288 0.91463
 C789 C 0.54429 0.17941 0.93113
 C790 C 0.52557 0.19234 0.93676
 C791 C 0.50535 0.18896 0.92460
 C792 C 0.50378 0.17280 0.90778
 H793 H 0.53414 0.09238 0.81857
 H794 H 0.53087 0.05893 0.79575
 H795 H 0.48891 0.03486 0.84133
 H796 H 0.49393 0.06707 0.86499
 H797 H 0.48293 0.10314 0.86827
 H798 H 0.48670 0.13413 0.89383
 H799 H 0.55257 0.14102 0.87522
 H800 H 0.54957 0.10844 0.85116
 H801 H 0.55719 0.15264 0.91158
 H802 H 0.56027 0.18179 0.93967
 H803 H 0.49044 0.19828 0.92847
 H804 H 0.48792 0.17086 0.89881
 C805 C 1.02949 0.66549 0.43093
 C806 C 1.01720 0.68549 0.42916
 C807 C 1.01283 0.69845 0.44790
 C808 C 1.02074 0.69176 0.46886
 C809 C 1.03395 0.67231 0.47054
 C810 C 1.03819 0.65929 0.45183
 C811 C 1.03206 0.65049 0.41133
 C812 C 1.05156 0.63738 0.40924
 C813 C 1.05313 0.62191 0.39181
 C814 C 1.03531 0.61934 0.37599
 C815 C 1.01610 0.63290 0.37766
 C816 C 1.01445 0.64823 0.39516
 C817 C 1.03627 0.60191 0.35839
 C818 C 1.02801 0.60597 0.33679
 C819 C 1.02769 0.58917 0.32052
 C820 C 1.03545 0.56789 0.32554
 C821 C 1.04407 0.56396 0.34710
 C822 C 1.04455 0.58080 0.36331
 H823 H 1.01058 0.69096 0.41328
 H824 H 1.00252 0.71330 0.44604
 H825 H 1.04065 0.66690 0.48641
 H826 H 1.04758 0.64393 0.45387
 H827 H 1.06557 0.63895 0.42117
 H828 H 1.06825 0.61186 0.39074
 H829 H 1.00200 0.63108 0.36586
 H830 H 0.99904 0.65773 0.39644
 H831 H 1.02179 0.62216 0.33248
 H832 H 1.02134 0.59287 0.30401
 H833 H 1.04985 0.54773 0.35165
 H834 H 1.05071 0.57713 0.37990
 C835 C 1.17152 0.48933 0.07644
 C836 C 1.16024 0.49809 0.05770
 C837 C 1.17058 0.49902 0.03835
 C838 C 1.19264 0.49091 0.03683
 C839 C 1.20375 0.48180 0.05574
 C840 C 1.19337 0.48109 0.07519
 C841 C 1.16044 0.48901 0.09716
 C842 C 1.16412 0.47134 0.11089
 C843 C 1.15308 0.47088 0.12997
 C844 C 1.13798 0.48802 0.13569
 C845 C 1.13453 0.50577 0.12206
 C846 C 1.14571 0.50633 0.10317
 C847 C 1.12534 0.48723 0.15537
 C848 C 1.11987 0.50640 0.16772
 C849 C 1.10647 0.50601 0.18505
 C850 C 1.09841 0.48638 0.19077
 C851 C 1.10459 0.46706 0.17897
 C852 C 1.11778 0.46750 0.16143
 H853 H 1.14327 0.50434 0.05794
 H854 H 1.16123 0.50705 0.02500
 H855 H 1.22032 0.47453 0.05564
 H856 H 1.20260 0.47427 0.08934
 H857 H 1.17521 0.45764 0.10669
 H858 H 1.15638 0.45708 0.14022
 H859 H 1.12281 0.51911 0.12570
 H860 H 1.14276 0.52040 0.09324
 H861 H 1.12574 0.52183 0.16383
 H862 H 1.10190 0.52127 0.19351
 H863 H 1.09904 0.45158 0.18312
 H864 H 1.12148 0.45243 0.15221
 C865 C 0.57752 0.02015 0.67731
 C866 C 0.57850 0.00908 0.69690
 C867 C 0.55947 0.00699 0.70762
 C868 C 0.53900 0.01604 0.69908
 C869 C 0.53817 0.02782 0.67996
 C870 C 0.55717 0.02979 0.66917
 C871 C 0.59731 0.02065 0.66478
 C872 C 0.60115 0.03909 0.65340
 C873 C 0.61885 0.03887 0.64029
 C874 C 0.63319 0.02022 0.63832
 C875 C 0.62974 0.00204 0.65024
 C876 C 0.61199 0.00222 0.66323
 C877 C 0.65110 0.01937 0.62321
 C878 C 0.65595 0.00021 0.61059
 C879 C 0.67230 -0.00056 0.59590
 C880 C 0.68413 0.01783 0.59336
 C881 C 0.67939 0.03698 0.60600
 C882 C 0.66309 0.03773 0.62082
 H883 H 0.59396 0.00176 0.70383
 H884 H 0.56068 -0.00233 0.72221
 H885 H 0.52275 0.03530 0.67314
 H886 H 0.55574 0.03825 0.65402
 H887 H 0.59035 0.05367 0.65447
 H888 H 0.62091 0.05309 0.63121
 H889 H 0.64067 -0.01246 0.64938
 H890 H 0.60942 -0.01236 0.67155
 H891 H 0.64673 -0.01408 0.61164
 H892 H 0.67529 -0.01543 0.58609
 H893 H 0.68841 0.05134 0.60453
 H894 H 0.65998 0.05264 0.63050
 C895 C -0.17344 0.50453 0.92426
 C896 C -0.16227 0.49482 0.94253
 C897 C -0.17190 0.49504 0.96240
 C898 C -0.19315 0.50497 0.96473
 C899 C -0.20443 0.51437 0.94607
 C900 C -0.19464 0.51426 0.92621
 C901 C -0.16266 0.50485 0.90347
 C902 C -0.16361 0.52393 0.89175
 C903 C -0.15202 0.52467 0.87308
 C904 C -0.13936 0.50632 0.86568
 C905 C -0.13896 0.48707 0.87704
 C906 C -0.15046 0.48635 0.89573
 C907 C -0.12575 0.50747 0.84684
 C908 C -0.12400 0.48992 0.83136
 C909 C -0.10993 0.49039 0.81456
 C910 C -0.09726 0.50841 0.81288
 C911 C -0.09943 0.52619 0.82806
 C912 C -0.11353 0.52573 0.84483
 H913 H -0.14586 0.48724 0.94155
 H914 H -0.16274 0.48664 0.97565
 H915 H -0.22046 0.52277 0.94685
 H916 H -0.20367 0.52182 0.91234
 H917 H -0.17275 0.53848 0.89741
 H918 H -0.15281 0.53967 0.86453
 H919 H -0.12920 0.47273 0.87188
 H920 H -0.14963 0.47136 0.90429
 H921 H -0.13346 0.47576 0.83230
 H922 H -0.10890 0.47660 0.80290
 H923 H -0.08966 0.54017 0.82745
 H924 H -0.11427 0.53936 0.85671
 C925 C 0.41602 -0.00544 0.31992
 C926 C 0.41908 -0.01772 0.30027
 C927 C 0.43865 -0.01709 0.29001
 C928 C 0.45557 -0.00412 0.29916
 C929 C 0.45225 0.00855 0.31849
 C930 C 0.43280 0.00782 0.32879
 C931 C 0.39582 -0.00691 0.33164
 C932 C 0.38662 0.01152 0.34282
 C933 C 0.36887 0.00982 0.35545
 C934 C 0.35967 -0.01032 0.35707
 C935 C 0.36833 -0.02860 0.34523
 C936 C 0.38624 -0.02694 0.33273
 C937 C 0.34187 -0.01234 0.37191
 C938 C 0.34154 -0.03087 0.38432
 C939 C 0.32588 -0.03204 0.39954
 C940 C 0.31037 -0.01462 0.40285
 C941 C 0.31029 0.00364 0.39008
 C942 C 0.32577 0.00472 0.37468
 H943 H 0.40639 -0.02790 0.29285
 H944 H 0.44075 -0.02714 0.27521
 H945 H 0.46477 0.01900 0.32577
 H946 H 0.43117 0.01727 0.34403
 H947 H 0.39333 0.02728 0.34204
 H948 H 0.36284 0.02421 0.36452
 H949 H 0.36144 -0.04430 0.34582
 H950 H 0.39301 -0.04150 0.32449
 H951 H 0.35388 -0.04416 0.38291
 H952 H 0.32643 -0.04621 0.40935
 H953 H 0.29829 0.01715 0.39211
 H954 H 0.32522 0.01902 0.36508
 C955 C 0.15928 0.50295 0.91713
 C956 C 0.15348 0.51420 0.93656
 C957 C 0.16725 0.51271 0.95588
 C958 C 0.18713 0.49988 0.95630
 C959 C 0.19325 0.48905 0.93677
 C960 C 0.17944 0.49053 0.91738
 C961 C 0.14382 0.50352 0.89703
 C962 C 0.14032 0.48451 0.88382
 C963 C 0.12440 0.48463 0.86601
 C964 C 0.11160 0.50377 0.86100
 C965 C 0.11559 0.52294 0.87381
 C966 C 0.13153 0.52282 0.89158
 C967 C 0.09347 0.50357 0.84317
 C968 C 0.08900 0.52140 0.82975
 C969 C 0.07109 0.52172 0.81392
 C970 C 0.05731 0.50420 0.81108
 C971 C 0.06205 0.48619 0.82417
 C972 C 0.07989 0.48589 0.84006
 H973 H 0.13797 0.52369 0.93702
 H974 H 0.16223 0.52149 0.97060
 H975 H 0.20842 0.47896 0.93661
 H976 H 0.18448 0.48187 0.90262
 H977 H 0.14937 0.46933 0.88768
 H978 H 0.12194 0.46967 0.85628
 H979 H 0.10590 0.53791 0.87054
 H980 H 0.13404 0.53781 0.90125
 H981 H 0.09935 0.53512 0.83149
 H982 H 0.06804 0.53568 0.80384
 H983 H 0.05154 0.47258 0.82259
 H984 H 0.08262 0.47208 0.85037
 C985 C 0.57661 -0.00287 0.33687
 C986 C 0.55924 -0.01553 0.34117
 C987 C 0.54025 -0.01621 0.32682
 C988 C 0.53794 -0.00402 0.30792
 C989 C 0.55542 0.00840 0.30340
 C990 C 0.57456 0.00892 0.31767
 C991 C 0.59640 -0.00153 0.35276
 C992 C 0.60670 0.01819 0.35708
 C993 C 0.62441 0.01977 0.37303
 C994 C 0.63214 0.00172 0.38521
 C995 C 0.62213 -0.01811 0.38054
 C996 C 0.60461 -0.01975 0.36444
 C997 C 0.64998 0.00372 0.40325
 C998 C 0.66536 -0.01379 0.40771
 C999 C 0.68126 -0.01233 0.42546
 C1000 C 0.68236 0.00676 0.43895
 C1001 C 0.66740 0.02446 0.43424
 C1002 C 0.65131 0.02292 0.41668
 H1003 H 0.56006 -0.02459 0.35591
 H1004 H 0.52730 -0.02628 0.33062
 H1005 H 0.55413 0.01810 0.28907
 H1006 H 0.58773 0.01859 0.31367
 H1007 H 0.60071 0.03262 0.34858
 H1008 H 0.63193 0.03521 0.37590
 H1009 H 0.62743 -0.03230 0.38973
 H1010 H 0.59737 -0.03531 0.36129
 H1011 H 0.66515 -0.02866 0.39748
 H1012 H 0.69281 -0.02611 0.42860
 H1013 H 0.66775 0.03928 0.44456
 H1014 H 0.63952 0.03659 0.41404
 C1015 C 0.84478 0.50551 0.08517
 C1016 C 0.82558 0.49382 0.08338
 C1017 C 0.81147 0.49390 0.06414
 C1018 C 0.81611 0.50582 0.04630
 C1019 C 0.83501 0.51790 0.04832
 C1020 C 0.84923 0.51761 0.06740
 C1021 C 0.86047 0.50466 0.10516
 C1022 C 0.87221 0.52290 0.11260
 C1023 C 0.88812 0.52166 0.13035
 C1024 C 0.89251 0.50222 0.14138
 C1025 C 0.88023 0.48420 0.13443
 C1026 C 0.86452 0.48536 0.11647
 C1027 C 0.91037 0.50056 0.15949
 C1028 C 0.92348 0.48110 0.16208
 C1029 C 0.94083 0.47977 0.17845
 C1030 C 0.94569 0.49792 0.19241
 C1031 C 0.93258 0.51732 0.19003
 C1032 C 0.91499 0.51858 0.17387
 H1033 H 0.82142 0.48458 0.09684
 H1034 H 0.79714 0.48429 0.06310
 H1035 H 0.83888 0.52764 0.03511
 H1036 H 0.86398 0.52656 0.06799
 H1037 H 0.86925 0.53818 0.10460
 H1038 H 0.89738 0.53582 0.13502
 H1039 H 0.88284 0.46908 0.14275
 H1040 H 0.85599 0.47090 0.11112
 H1041 H 0.92077 0.46703 0.15107
 H1042 H 0.95089 0.46470 0.17980
 H1043 H 0.93589 0.53147 0.20077
 H1044 H 0.90502 0.53369 0.17269
 C1045 C 0.42153 -0.00714 0.66241
 C1046 C 0.42013 0.00455 0.68266
 C1047 C 0.43897 0.00728 0.69696
 C1048 C 0.45963 -0.00163 0.69135
 C1049 C 0.46089 -0.01391 0.67145
 C1050 C 0.44210 -0.01658 0.65713
 C1051 C 0.40191 -0.00867 0.64637
 C1052 C 0.39860 -0.02781 0.63329
 C1053 C 0.38111 -0.02866 0.61704
 C1054 C 0.36644 -0.01042 0.61355
 C1055 C 0.36938 0.00850 0.62708
 C1056 C 0.38692 0.00938 0.64325
 C1057 C 0.34869 -0.01087 0.59536
 C1058 C 0.34351 0.00746 0.58275
 C1059 C 0.32742 0.00685 0.56513
 C1060 C 0.31620 -0.01213 0.55961
 C1061 C 0.32120 -0.03041 0.57229
 C1062 C 0.33722 -0.02977 0.59001
 H1063 H 0.40448 0.01177 0.68736
 H1064 H 0.43747 0.01693 0.71212
 H1065 H 0.47650 -0.02128 0.66680
 H1066 H 0.44384 -0.02549 0.64160
 H1067 H 0.40967 -0.04210 0.63546
 H1068 H 0.37946 -0.04342 0.60681
 H1069 H 0.35819 0.02273 0.62505
 H1070 H 0.38910 0.02445 0.65288
 H1071 H 0.35231 0.02213 0.58614
 H1072 H 0.32416 0.02107 0.55545
 H1073 H 0.31259 -0.04516 0.56859
 H1074 H 0.34054 -0.04404 0.59958
   
