data_POSCAR
  _audit_creation_date              2014-09-24
  _audit_creation_method            'ToBaCCo'
  _symmetry_space_group_name_H-M    'P1'
  _symmetry_Int_Tables_number       1
  _symmetry_cell_setting            triclinic
  loop_
  _symmetry_equiv_pos_as_xyz
 x,y,z
_cell_length_a 28.4942
_cell_length_b 29.0156
_cell_length_c 32.7298
_cell_angle_alpha 88.125700
_cell_angle_beta 91.041400
_cell_angle_gamma 82.666200
loop_
  _atom_site_label
  _atom_site_type_symbol
  _atom_site_fract_x
  _atom_site_fract_y
  _atom_site_fract_z
C1 C 1.19728 0.23870 0.20662
 C2 C 1.21622 0.27592 0.17994
 C3 C 1.24326 0.30337 0.20042
 C4 C 1.24840 0.29135 0.24671
 C5 C 1.24097 0.21226 0.22856
 C6 C 1.26772 0.23936 0.24965
 C7 C 1.17080 0.26541 0.24065
 C8 C 1.19750 0.29257 0.26181
 H9 H 1.21156 0.27779 0.14697
 H10 H 1.27006 0.31378 0.26386
 H11 H 1.24668 0.17462 0.23135
 H12 H 1.13576 0.26047 0.25038
 C13 C 0.70772 -0.25728 0.19641
 C14 C 0.73775 -0.22517 0.17377
 C15 C 0.76415 -0.20113 0.19840
 C16 C 0.75808 -0.21147 0.24437
 C17 C 0.74255 -0.28826 0.22477
 C18 C 0.76932 -0.26499 0.24976
 C19 C 0.67833 -0.22593 0.22586
 C20 C 0.70399 -0.20105 0.25060
 H21 H 0.73845 -0.22232 0.14070
 H22 H 0.78003 -0.19190 0.26407
 H23 H 0.74335 -0.32568 0.22678
 H24 H 0.64105 -0.22706 0.23016
 C25 C 0.69646 0.21916 -0.29321
 C26 C 0.71725 0.25281 -0.31863
 C27 C 0.74736 0.28036 -0.29694
 C28 C 0.74947 0.26897 -0.25255
 C29 C 0.73597 0.19198 -0.27113
 C30 C 0.76612 0.21873 -0.24878
 C31 C 0.67156 0.24583 -0.26159
 C32 C 0.69987 0.27407 -0.23892
 H33 H 0.71454 0.25272 -0.35167
 H34 H 0.77135 0.29109 -0.23601
 H35 H 0.73726 0.15474 -0.26631
 H36 H 0.63901 0.23632 -0.24936
 C37 C 1.20876 -0.27495 -0.29614
 C38 C 1.23681 -0.24323 -0.32121
 C39 C 1.26190 -0.21599 -0.29856
 C40 C 1.25695 -0.22327 -0.25207
 C41 C 1.24515 -0.30257 -0.26658
 C42 C 1.27015 -0.27579 -0.24330
 C43 C 1.17841 -0.24246 -0.26828
 C44 C 1.20333 -0.21545 -0.24517
 H45 H 1.23697 -0.24281 -0.35432
 H46 H 1.27769 -0.20143 -0.23340
 H47 H 1.24516 -0.33910 -0.25889
 H48 H 1.14054 -0.24238 -0.26592
 C49 C 0.24802 0.21027 0.79940
 C50 C 0.27476 0.23945 0.82314
 C51 C 0.29636 0.27354 0.80007
 C52 C 0.28770 0.27088 0.75582
 C53 C 0.21312 0.24388 0.77307
 C54 C 0.23302 0.27640 0.75052
 C55 C 0.28314 0.18817 0.76843
 C56 C 0.30379 0.21958 0.74523
 H57 H 0.28123 0.23259 0.85560
 H58 H 0.30460 0.29606 0.73689
 H59 H 0.17594 0.23982 0.77098
 H60 H 0.28747 0.15175 0.76153
 C61 C 0.72728 0.70475 0.78868
 C62 C 0.74848 0.73396 0.81672
 C63 C 0.77848 0.76429 0.79806
 C64 C 0.78050 0.75966 0.75322
 C65 C 0.70248 0.73611 0.75768
 C66 C 0.73070 0.76778 0.73825
 C67 C 0.76637 0.68031 0.76700
 C68 C 0.79610 0.70994 0.74692
 H69 H 0.74651 0.72846 0.84952
 H70 H 0.80348 0.78308 0.73891
 H71 H 0.66864 0.72961 0.74517
 H72 H 0.76596 0.64471 0.75817
 C73 C 0.75012 0.20158 0.30197
 C74 C 0.78658 0.22787 0.32241
 C75 C 0.80866 0.25503 0.29651
 C76 C 0.79272 0.25298 0.25151
 C77 C 0.71672 0.23888 0.27782
 C78 C 0.73845 0.26655 0.25153
 C79 C 0.77705 0.17415 0.26862
 C80 C 0.79929 0.20070 0.24206
 H81 H 0.79180 0.22766 0.35531
 H82 H 0.81268 0.27412 0.23105
 H83 H 0.67877 0.23996 0.27951
 H84 H 0.77397 0.13823 0.26274
 C85 C 0.23571 0.69745 0.29551
 C86 C 0.25556 0.73427 0.32054
 C87 C 0.27986 0.76382 0.29879
 C88 C 0.28185 0.75372 0.25260
 C89 C 0.20624 0.72471 0.26103
 C90 C 0.22990 0.75378 0.23813
 C91 C 0.27867 0.67292 0.27352
 C92 C 0.30269 0.70203 0.25067
 H93 H 0.25285 0.73489 0.35350
 H94 H 0.30145 0.77777 0.23455
 H95 H 0.17008 0.71929 0.25406
 H96 H 0.28474 0.63579 0.26997
 O97 O 1.07025 0.02042 0.06022
 O98 O 0.91550 -0.03383 0.02793
 O99 O 0.96425 0.08737 0.03614
 O100 O 1.05475 -0.11011 0.01522
 O101 O 0.90750 0.05021 0.01188
 O102 O 1.06636 -0.05685 0.05348
 O103 O 0.98084 -0.07272 0.04869
 O104 O 1.05164 0.08431 0.02698
 C105 C 1.06693 0.06304 0.05868
 C106 C 0.93836 -0.06001 0.05436
 C107 C 0.92266 0.07787 0.03691
 C108 C 1.07522 -0.09840 0.04614
 O109 O 1.09309 -0.05196 -0.02802
 O110 O 0.93429 0.02909 -0.06679
 O111 O 1.04135 0.07732 -0.05027
 O112 O 0.96965 -0.11550 -0.01768
 O113 O 0.94034 -0.05171 -0.05107
 O114 O 1.09895 0.03039 -0.01952
 O115 O 1.02769 -0.07181 -0.05362
 O116 O 0.95228 0.09170 -0.04187
 Co117 Co 1.07643 -0.01368 0.01502
 Co118 Co 0.93131 -0.00144 -0.01776
 Co119 Co 1.00253 0.07702 -0.00673
 Co120 Co 1.00282 -0.06922 -0.00295
 O121 O 1.00499 0.00066 -0.00188
 C122 C 1.07073 -0.06815 -0.05683
 C123 C 0.93589 0.07132 -0.07046
 C124 C 1.08399 0.06017 -0.04760
 C125 C 0.93881 -0.09475 -0.04406
 O126 O 1.07521 0.54755 0.52926
 O127 O 0.89641 0.45419 0.52857
 O128 O 0.92956 0.59172 0.52050
 O129 O 1.04240 0.40978 0.54711
 O130 O 0.90333 0.53272 0.54703
 O131 O 1.06742 0.47386 0.56176
 O132 O 0.95989 0.42660 0.56008
 O133 O 1.00804 0.57958 0.54659
 C134 C 1.05100 0.57284 0.55280
 C135 C 0.91626 0.43312 0.55926
 C136 C 0.91114 0.57337 0.54994
 C137 C 1.06389 0.43296 0.57119
 O138 O 1.08238 0.43363 0.48983
 O139 O 0.89645 0.55832 0.46571
 O140 O 1.04006 0.57771 0.46792
 O141 O 0.94010 0.41339 0.47893
 O142 O 0.91131 0.47769 0.44930
 O143 O 1.07203 0.50931 0.45538
 O144 O 1.02108 0.41116 0.46438
 O145 O 0.96249 0.57306 0.44376
 Co146 Co 1.06564 0.49184 0.50841
 Co147 Co 0.91055 0.50508 0.49829
 Co148 Co 0.98530 0.57276 0.49557
 Co149 Co 0.99065 0.42303 0.51183
 O150 O 0.98807 0.49814 0.50355
 C151 C 1.06357 0.41421 0.46196
 C152 C 0.91956 0.57491 0.43816
 C153 C 1.06588 0.55120 0.44605
 C154 C 0.92130 0.43504 0.44797
 O155 O 0.55652 0.01398 0.55675
 O156 O 0.40192 -0.03831 0.52795
 O157 O 0.44534 0.09985 0.51497
 O158 O 0.55131 -0.07108 0.54645
 O159 O 0.40344 0.04727 0.53921
 O160 O 0.61272 -0.04397 0.52070
 O161 O 0.46832 -0.06879 0.55535
 O162 O 0.52959 0.08259 0.53088
 C163 C 0.54832 0.05712 0.56036
 C164 C 0.42462 -0.06153 0.55621
 C165 C 0.41750 0.08629 0.54118
 C166 C 0.59605 -0.07474 0.54367
 O167 O 0.56980 -0.02346 0.45241
 O168 O 0.39831 0.06307 0.46075
 O169 O 0.54368 0.06216 0.44941
 O170 O 0.45298 -0.08533 0.47475
 O171 O 0.40707 -0.02366 0.44955
 O172 O 0.59655 0.04028 0.49307
 O173 O 0.53879 -0.08553 0.46444
 O174 O 0.46418 0.07526 0.43576
 Co175 Co 0.56028 -0.00615 0.50449
 Co176 Co 0.41097 0.01136 0.49448
 Co177 Co 0.49534 0.07414 0.48396
 Co178 Co 0.50189 -0.07047 0.50875
 O179 O 0.48904 0.00419 0.49666
 C180 C 0.56336 -0.06277 0.44226
 C181 C 0.42084 0.07980 0.43308
 C182 C 0.58472 0.06376 0.46163
 C183 C 0.42173 -0.06635 0.44906
 O184 O 0.58497 0.53038 0.04725
 O185 O 0.39998 0.46212 0.01461
 O186 O 0.46108 0.58867 0.02980
 O187 O 0.53649 0.42119 0.06432
 O188 O 0.43013 0.52864 0.04973
 O189 O 0.59970 0.44434 0.04141
 O190 O 0.45611 0.43788 0.05475
 O191 O 0.54371 0.58799 0.01364
 C192 C 0.57092 0.57264 0.04305
 C193 C 0.41361 0.43943 0.04609
 C194 C 0.43905 0.56852 0.05614
 C195 C 0.57907 0.42409 0.06815
 O196 O 0.59520 0.45224 -0.03668
 O197 O 0.38211 0.54671 -0.01727
 O198 O 0.52421 0.55818 -0.06254
 O199 O 0.46323 0.41583 -0.02744
 O200 O 0.43425 0.48394 -0.05312
 O201 O 0.59124 0.53847 -0.03257
 O202 O 0.55080 0.39925 -0.01552
 O203 O 0.44331 0.56511 -0.04881
 Co204 Co 0.58449 0.49209 0.00470
 Co205 Co 0.43506 0.50775 -0.00180
 Co206 Co 0.49415 0.56830 -0.01510
 Co207 Co 0.50166 0.42475 0.01739
 O208 O 0.50702 0.49546 0.00298
 C209 C 0.58279 0.41233 -0.03830
 C210 C 0.39974 0.57506 -0.04236
 C211 C 0.56773 0.55387 -0.06348
 C212 C 0.44188 0.44070 -0.05626
 C213 C 1.12700 0.14177 0.13833
 C214 C 1.10036 0.17146 0.16431
 C215 C 1.12201 0.20382 0.18602
 C216 C 1.17084 0.20645 0.18211
 C217 C 1.19669 0.17710 0.15475
 C218 C 1.17499 0.14483 0.13324
 C219 C 1.10446 0.11130 0.11352
 C220 C 1.08664 0.08768 0.09001
 H221 H 1.06275 0.17009 0.16730
 H222 H 1.09985 0.22661 0.20509
 H223 H 1.23403 0.17892 0.15040
 H224 H 1.19551 0.12264 0.11227
 C225 C 1.12271 0.64635 0.62971
 C226 C 1.11011 0.69407 0.63354
 C227 C 1.13863 0.71929 0.65684
 C228 C 1.17969 0.69691 0.67727
 C229 C 1.19293 0.64909 0.67157
 C230 C 1.16434 0.62401 0.64826
 C231 C 1.09488 0.62068 0.60436
 C232 C 1.07346 0.59880 0.58174
 H233 H 1.07850 0.71183 0.61828
 H234 H 1.12842 0.75634 0.65919
 H235 H 1.22554 0.63076 0.68430
 H236 H 1.17504 0.58726 0.64426
 C237 C 0.61489 0.13035 0.64113
 C238 C 0.59180 0.16894 0.66022
 C239 C 0.61797 0.19912 0.68060
 C240 C 0.66808 0.19059 0.68320
 C241 C 0.69059 0.15308 0.66119
 C242 C 0.66428 0.12304 0.64098
 C243 C 0.58850 0.10154 0.61713
 C244 C 0.56849 0.07932 0.59354
 H245 H 0.55353 0.17620 0.65875
 H246 H 0.59850 0.22926 0.69382
 H247 H 0.72882 0.14652 0.66008
 H248 H 0.68256 0.09439 0.62471
 C249 C 0.63354 0.65980 0.11515
 C250 C 0.68268 0.65120 0.12044
 C251 C 0.70616 0.67884 0.14590
 C252 C 0.68082 0.71509 0.16721
 C253 C 0.63147 0.72478 0.15996
 C254 C 0.60806 0.69700 0.13443
 C255 C 0.60957 0.63010 0.09002
 C256 C 0.59093 0.60428 0.06881
 H257 H 0.70284 0.62287 0.10512
 H258 H 0.74426 0.67143 0.14953
 H259 H 0.61052 0.75377 0.17341
 H260 H 0.57006 0.70450 0.12981
 C261 C 0.85785 -0.11654 0.13939
 C262 C 0.87382 -0.14433 0.17403
 C263 C 0.84261 -0.17002 0.19505
 C264 C 0.79546 -0.16868 0.18111
 C265 C 0.77939 -0.13910 0.14751
 C266 C 0.81028 -0.11327 0.12692
 C267 C 0.89012 -0.09511 0.11347
 C268 C 0.91404 -0.07827 0.08826
 H269 H 0.91063 -0.14750 0.18386
 H270 H 0.85588 -0.19279 0.22070
 H271 H 0.74311 -0.13703 0.13639
 H272 H 0.79741 -0.09210 0.10016
 C273 C 0.83390 0.36559 0.63689
 C274 C 0.84660 0.35015 0.67707
 C275 C 0.81761 0.32335 0.69962
 C276 C 0.77533 0.31085 0.68222
 C277 C 0.76260 0.32810 0.64206
 C278 C 0.79146 0.35491 0.61985
 C279 C 0.86467 0.39067 0.61201
 C280 C 0.88901 0.41065 0.58908
 H281 H 0.87949 0.35791 0.69071
 H282 H 0.83028 0.31057 0.72972
 H283 H 0.72982 0.32172 0.62746
 H284 H 0.78077 0.36692 0.58896
 C285 C 0.34676 -0.12657 0.63785
 C286 C 0.30019 -0.12903 0.62480
 C287 C 0.27203 -0.15661 0.64663
 C288 C 0.29003 -0.18224 0.68193
 C289 C 0.33602 -0.17790 0.69618
 C290 C 0.36445 -0.15038 0.67400
 C291 C 0.37662 -0.10252 0.61185
 C292 C 0.39958 -0.08332 0.58754
 H293 H 0.28608 -0.11076 0.59695
 H294 H 0.23643 -0.15876 0.63537
 H295 H 0.35067 -0.19749 0.72320
 H296 H 0.40054 -0.14884 0.68430
 C297 C 0.32629 0.38492 0.12672
 C298 C 0.27815 0.38522 0.11752
 C299 C 0.25030 0.36104 0.14307
 C300 C 0.27031 0.33607 0.17811
 C301 C 0.31806 0.33805 0.18839
 C302 C 0.34596 0.36224 0.16270
 C303 C 0.35605 0.40517 0.09793
 C304 C 0.38165 0.42109 0.07379
 H305 H 0.26250 0.40281 0.08989
 H306 H 0.21343 0.36050 0.13469
 H307 H 0.33449 0.31873 0.21490
 H308 H 0.38323 0.36180 0.17009
 C309 C 0.86828 0.14761 -0.16564
 C310 C 0.85441 0.19525 -0.16185
 C311 C 0.82304 0.21992 -0.19065
 C312 C 0.80386 0.19689 -0.22316
 C313 C 0.82173 0.14962 -0.22817
 C314 C 0.85313 0.12529 -0.19955
 C315 C 0.89442 0.12063 -0.13317
 C316 C 0.91424 0.09767 -0.10513
 H317 H 0.86640 0.21302 -0.13577
 H318 H 0.81230 0.25610 -0.18543
 H319 H 0.81147 0.13068 -0.25406
 H320 H 0.86440 0.08858 -0.20326
 C321 C 0.85421 0.65504 0.34351
 C322 C 0.83268 0.69995 0.35126
 C323 C 0.80711 0.72713 0.32019
 C324 C 0.80236 0.70964 0.28104
 C325 C 0.82610 0.66527 0.27309
 C326 C 0.85167 0.63817 0.30412
 C327 C 0.87748 0.62581 0.37627
 C328 C 0.89657 0.60184 0.40416
 H329 H 0.83461 0.71352 0.38161
 H330 H 0.78943 0.76078 0.32749
 H331 H 0.82408 0.65104 0.24303
 H332 H 0.86855 0.60368 0.29758
 C333 C 0.35610 0.16447 0.34182
 C334 C 0.32878 0.20625 0.35117
 C335 C 0.30272 0.23311 0.32028
 C336 C 0.30360 0.21806 0.27994
 C337 C 0.33348 0.17762 0.27046
 C338 C 0.35955 0.15093 0.30129
 C339 C 0.37853 0.13417 0.37392
 C340 C 0.39729 0.10871 0.40082
 H341 H 0.32610 0.21705 0.38250
 H342 H 0.27953 0.26380 0.32843
 H343 H 0.33482 0.16551 0.23949
 H344 H 0.38089 0.11883 0.29374
 C345 C 0.33350 0.65593 -0.13457
 C346 C 0.34278 0.63674 -0.17268
 C347 C 0.32446 0.66045 -0.20832
 C348 C 0.29655 0.70381 -0.20637
 C349 C 0.28899 0.72399 -0.16816
 C350 C 0.30738 0.70004 -0.13232
 C351 C 0.35216 0.62982 -0.09850
 C352 C 0.37131 0.60554 -0.07095
 H353 H 0.36354 0.60293 -0.17480
 H354 H 0.33088 0.64429 -0.23741
 H355 H 0.26707 0.75710 -0.16580
 H356 H 0.30045 0.71542 -0.10296
 C357 C 1.13792 -0.13196 -0.15148
 C358 C 1.12273 -0.17458 -0.15996
 C359 C 1.14419 -0.20165 -0.19036
 C360 C 1.18109 -0.18632 -0.21294
 C361 C 1.19663 -0.14362 -0.20405
 C362 C 1.17498 -0.11641 -0.17339
 C363 C 1.11568 -0.10572 -0.11925
 C364 C 1.09554 -0.08690 -0.09121
 H365 H 1.09447 -0.18711 -0.14278
 H366 H 1.13233 -0.23498 -0.19567
 H367 H 1.22494 -0.13107 -0.22109
 H368 H 1.18710 -0.08350 -0.16676
 C369 C 1.13939 0.35482 0.36911
 C370 C 1.13689 0.30789 0.36256
 C371 C 1.15754 0.28732 0.32834
 C372 C 1.18081 0.31354 0.30013
 C373 C 1.18538 0.36004 0.30782
 C374 C 1.16437 0.38077 0.34218
 C375 C 1.11377 0.37638 0.40221
 C376 C 1.09101 0.39359 0.42965
 H377 H 1.11790 0.28749 0.38334
 H378 H 1.15455 0.25106 0.32345
 H379 H 1.20333 0.38067 0.28645
 H380 H 1.16649 0.41719 0.34714
 C381 C 0.63221 -0.12053 0.34452
 C382 C 0.68057 -0.13644 0.34914
 C383 C 0.70472 -0.16055 0.31787
 C384 C 0.68065 -0.16987 0.28177
 C385 C 0.63262 -0.15096 0.27658
 C386 C 0.60860 -0.12688 0.30780
 C387 C 0.60651 -0.09932 0.37801
 C388 C 0.58578 -0.08242 0.40680
 H389 H 0.69941 -0.13112 0.37730
 H390 H 0.74171 -0.17284 0.32279
 H391 H 0.61313 -0.15520 0.24858
 H392 H 0.57137 -0.11404 0.30355
 C393 C 0.64244 0.33957 -0.13283
 C394 C 0.69147 0.33350 -0.13806
 C395 C 0.71083 0.31347 -0.17348
 C396 C 0.68145 0.29840 -0.20428
 C397 C 0.63185 0.30705 -0.19898
 C398 C 0.61281 0.32696 -0.16373
 C399 C 0.62189 0.36180 -0.09738
 C400 C 0.60384 0.38283 -0.06924
 H401 H 0.71484 0.34423 -0.11472
 H402 H 0.74877 0.30899 -0.17543
 H403 H 0.60693 0.29950 -0.22235
 H404 H 0.57471 0.33296 -0.16079
 C405 C 1.17033 0.12407 -0.12221
 C406 C 1.16175 0.17253 -0.12211
 C407 C 1.18739 0.19939 -0.14719
 C408 C 1.22215 0.17847 -0.17325
 C409 C 1.23119 0.12942 -0.17253
 C410 C 1.20525 0.10249 -0.14726
 C411 C 1.14230 0.09746 -0.09666
 C412 C 1.11671 0.07850 -0.07455
 H413 H 1.13493 0.18967 -0.10273
 H414 H 1.17985 0.23691 -0.14652
 H415 H 1.25806 0.11135 -0.19101
 H416 H 1.21236 0.06492 -0.14735
 C417 C 1.14771 0.61518 0.36741
 C418 C 1.19045 0.59367 0.35257
 C419 C 1.21965 0.61956 0.32975
 C420 C 1.20624 0.66749 0.32115
 C421 C 1.16358 0.68871 0.33723
 C422 C 1.13454 0.66279 0.35990
 C423 C 1.11866 0.58960 0.39280
 C424 C 1.09426 0.57051 0.41588
 H425 H 1.20149 0.55699 0.35906
 H426 H 1.25271 0.60166 0.31971
 H427 H 1.15261 0.72560 0.33200
 H428 H 1.10196 0.68003 0.37191
 C429 C 0.67320 0.12864 0.39071
 C430 C 0.70516 0.10299 0.36561
 C431 C 0.73100 0.12581 0.33728
 C432 C 0.72447 0.17477 0.33326
 C433 C 0.69365 0.20002 0.36012
 C434 C 0.66795 0.17713 0.38836
 C435 C 0.64369 0.10535 0.41716
 C436 C 0.61744 0.08622 0.43818
 H437 H 0.70968 0.06532 0.36759
 H438 H 0.75585 0.10467 0.31903
 H439 H 0.68886 0.23768 0.35868
 H440 H 0.64339 0.19727 0.40786
 C441 C 0.63950 0.61993 -0.14703
 C442 C 0.62161 0.66516 -0.15984
 C443 C 0.65033 0.69281 -0.18080
 C444 C 0.69733 0.67522 -0.19040
 C445 C 0.71517 0.62985 -0.17561
 C446 C 0.68625 0.60237 -0.15464
 C447 C 0.61216 0.59416 -0.12087
 C448 C 0.59074 0.57442 -0.09615
 H449 H 0.58592 0.67959 -0.15247
 H450 H 0.63582 0.72832 -0.18896
 H451 H 0.75180 0.61565 -0.17918
 H452 H 0.70087 0.56797 -0.14314
 C453 C 0.86203 -0.16227 -0.12430
 C454 C 0.87666 -0.17171 -0.16420
 C455 C 0.84848 -0.19425 -0.19084
 C456 C 0.80537 -0.20833 -0.17768
 C457 C 0.79052 -0.19650 -0.13790
 C458 C 0.81852 -0.17403 -0.11167
 C459 C 0.89070 -0.13997 -0.09603
 C460 C 0.91317 -0.12041 -0.07185
 H461 H 0.91021 -0.16235 -0.17452
 H462 H 0.86214 -0.20270 -0.22064
 H463 H 0.75666 -0.20380 -0.12672
 H464 H 0.80617 -0.16596 -0.08128
 C465 C 0.87999 0.35351 0.35858
 C466 C 0.89308 0.30586 0.36640
 C467 C 0.87255 0.27351 0.34370
 C468 C 0.83875 0.28837 0.31271
 C469 C 0.82825 0.33612 0.30287
 C470 C 0.84858 0.36865 0.32598
 C471 C 0.89475 0.38570 0.38731
 C472 C 0.90676 0.40981 0.41394
 H473 H 0.91722 0.29370 0.39156
 H474 H 0.88109 0.23685 0.35181
 H475 H 0.80181 0.34831 0.27946
 H476 H 0.83798 0.40544 0.31978
 C477 C 0.35509 -0.14397 0.36851
 C478 C 0.37620 -0.16557 0.33438
 C479 C 0.35100 -0.19370 0.31007
 C480 C 0.30452 -0.20088 0.31983
 C481 C 0.28317 -0.17754 0.35315
 C482 C 0.30817 -0.14948 0.37716
 C483 C 0.38111 -0.11712 0.39567
 C484 C 0.40073 -0.09441 0.41966
 H485 H 0.41243 -0.16159 0.32712
 H486 H 0.36854 -0.21146 0.28488
 H487 H 0.24725 -0.18182 0.36122
 H488 H 0.29110 -0.13283 0.40313
 C489 C 0.37350 0.36805 -0.13788
 C490 C 0.33907 0.34613 -0.11805
 C491 C 0.31350 0.31600 -0.13878
 C492 C 0.32154 0.30643 -0.18038
 C493 C 0.35531 0.33018 -0.20068
 C494 C 0.38135 0.36040 -0.17945
 C495 C 0.40079 0.39666 -0.11383
 C496 C 0.42102 0.41825 -0.08951
 H497 H 0.33207 0.35209 -0.08607
 H498 H 0.28644 0.30132 -0.12182
 H499 H 0.36359 0.32408 -0.23230
 H500 H 0.40803 0.37710 -0.19527
 C501 C 1.15970 -0.17735 0.13105
 C502 C 1.15465 -0.22364 0.14092
 C503 C 1.17892 -0.24636 0.17483
 C504 C 1.20851 -0.22307 0.19976
 C505 C 1.21522 -0.17728 0.18864
 C506 C 1.19069 -0.15445 0.15461
 C507 C 1.13046 -0.15240 0.09886
 C508 C 1.10514 -0.12964 0.07355
 H509 H 1.13100 -0.24187 0.12301
 H510 H 1.17395 -0.28210 0.18191
 H511 H 1.23779 -0.15858 0.20719
 H512 H 1.19486 -0.11852 0.14737
 C513 C 1.14576 0.36718 0.66461
 C514 C 1.12614 0.34996 0.69984
 C515 C 1.15491 0.32256 0.72868
 C516 C 1.20392 0.31110 0.72252
 C517 C 1.22367 0.33135 0.68826
 C518 C 1.19473 0.35876 0.65936
 C519 C 1.11548 0.39141 0.63294
 C520 C 1.09092 0.41067 0.60544
 H521 H 1.08840 0.35686 0.70463
 H522 H 1.13829 0.30996 0.75553
 H523 H 1.26110 0.32513 0.68272
 H524 H 1.21045 0.37244 0.63240
 C525 C 0.67047 -0.14696 0.63759
 C526 C 0.71945 -0.15167 0.64480
 C527 C 0.73975 -0.17765 0.67912
 C528 C 0.71139 -0.20058 0.70617
 C529 C 0.66169 -0.19199 0.69964
 C530 C 0.64177 -0.16613 0.66571
 C531 C 0.64819 -0.12182 0.60227
 C532 C 0.62584 -0.10085 0.57436
 H533 H 0.74198 -0.13565 0.62376
 H534 H 0.77756 -0.18012 0.68318
 H535 H 0.63719 -0.20455 0.72080
 H536 H 0.60363 -0.16124 0.66135
 C537 C 0.65714 0.35947 0.16368
 C538 C 0.70579 0.34802 0.15892
 C539 C 0.73280 0.32007 0.18851
 C540 C 0.71139 0.30223 0.22308
 C541 C 0.66283 0.31712 0.22883
 C542 C 0.63594 0.34508 0.19917
 C543 C 0.62873 0.38352 0.13102
 C544 C 0.60551 0.40242 0.10273
 H545 H 0.72269 0.35961 0.13173
 H546 H 0.77000 0.31175 0.18305
 H547 H 0.64492 0.30683 0.25578
 H548 H 0.59836 0.35447 0.20349
 C549 C 0.85372 0.13801 0.13277
 C550 C 0.86277 0.11477 0.17077
 C551 C 0.84641 0.13591 0.20642
 C552 C 0.82081 0.18074 0.20462
 C553 C 0.81251 0.20414 0.16642
 C554 C 0.82895 0.18294 0.13067
 C555 C 0.87313 0.11672 0.09665
 C556 C 0.89310 0.09866 0.06802
 H557 H 0.88263 0.08031 0.17286
 H558 H 0.85354 0.11711 0.23547
 H559 H 0.79204 0.23805 0.16392
 H560 H 0.82221 0.20148 0.10146
 C561 C 0.87232 0.64661 0.65051
 C562 C 0.86813 0.62161 0.68705
 C563 C 0.84680 0.64378 0.72029
 C564 C 0.82831 0.69140 0.71742
 C565 C 0.83805 0.71729 0.68207
 C566 C 0.85918 0.69480 0.64853
 C567 C 0.88647 0.62177 0.61459
 C568 C 0.89738 0.59972 0.58494
 H569 H 0.87935 0.58447 0.68930
 H570 H 0.84323 0.62290 0.74782
 H571 H 0.82598 0.75387 0.67843
 H572 H 0.86308 0.71463 0.62044
 C573 C 0.37181 0.16354 0.63856
 C574 C 0.38668 0.14551 0.67756
 C575 C 0.36660 0.16569 0.71249
 C576 C 0.33145 0.20440 0.70897
 C577 C 0.31817 0.22354 0.66985
 C578 C 0.33817 0.20322 0.63485
 C579 C 0.38814 0.13878 0.60279
 C580 C 0.40142 0.11596 0.57393
 H581 H 0.41249 0.11472 0.68095
 H582 H 0.37715 0.15000 0.74227
 H583 H 0.29012 0.25213 0.66609
 H584 H 0.32592 0.21727 0.60490
 C585 C 0.38620 0.63883 0.15484
 C586 C 0.39097 0.61936 0.19461
 C587 C 0.36612 0.64153 0.22648
 C588 C 0.33593 0.68342 0.21896
 C589 C 0.33331 0.70397 0.17934
 C590 C 0.35820 0.68172 0.14750
 C591 C 0.40688 0.61334 0.12106
 C592 C 0.42241 0.59229 0.09199
 H593 H 0.41257 0.58625 0.20073
 H594 H 0.36914 0.62507 0.25675
 H595 H 0.30995 0.73578 0.17234
 H596 H 0.35410 0.69709 0.11682
   
