data_POSCAR
  _audit_creation_date              2014-09-24
  _audit_creation_method            'ToBaCCo'
  _symmetry_space_group_name_H-M    'P1'
  _symmetry_Int_Tables_number       1
  _symmetry_cell_setting            triclinic
  loop_
  _symmetry_equiv_pos_as_xyz
 x,y,z
_cell_length_a 44.3851
_cell_length_b 44.3989
_cell_length_c 44.4391
_cell_angle_alpha 89.944700
_cell_angle_beta 89.974400
_cell_angle_gamma 90.003200
loop_
  _atom_site_label
  _atom_site_type_symbol
  _atom_site_fract_x
  _atom_site_fract_y
  _atom_site_fract_z
C1 C 0.18317 0.22520 0.21653
 C2 C 0.19990 0.23366 0.19112
 C3 C 0.22497 0.21708 0.18269
 C4 C 0.23361 0.19182 0.19959
 C5 C 0.21707 0.18346 0.22471
 C6 C 0.19171 0.20024 0.23322
 C7 C 0.15787 0.23709 0.22995
 N8 N 0.15106 0.21991 0.25421
 C9 C 0.17146 0.19736 0.25653
 C10 C 0.23057 0.15823 0.23669
 N11 N 0.25472 0.15130 0.21941
 C12 C 0.25690 0.17154 0.19670
 C13 C 0.23676 0.23044 0.15730
 N14 N 0.21941 0.25454 0.15035
 C15 C 0.19684 0.25683 0.17073
 H16 H 0.14534 0.25672 0.22267
 H17 H 0.17151 0.18020 0.27387
 H18 H 0.22341 0.14584 0.25644
 H19 H 0.27412 0.17145 0.17943
 H20 H 0.25644 0.22324 0.14483
 H21 H 0.17958 0.27406 0.17068
 C22 C 0.68276 0.72462 0.71643
 C23 C 0.69952 0.73311 0.69105
 C24 C 0.72455 0.71647 0.68259
 C25 C 0.73310 0.69114 0.69942
 C26 C 0.71653 0.68276 0.72450
 C27 C 0.69122 0.69959 0.73306
 C28 C 0.65750 0.73656 0.72990
 N29 N 0.65065 0.71933 0.75412
 C30 C 0.67098 0.69670 0.75637
 C31 C 0.72996 0.65747 0.73643
 N32 N 0.75411 0.65052 0.71916
 C33 C 0.75635 0.67081 0.69649
 C34 C 0.73642 0.72986 0.65726
 N35 N 0.71916 0.75405 0.65036
 C36 C 0.69658 0.75636 0.67073
 H37 H 0.64503 0.75625 0.72270
 H38 H 0.67098 0.67950 0.77366
 H39 H 0.72278 0.64506 0.75616
 H40 H 0.77360 0.67075 0.67925
 H41 H 0.75609 0.72263 0.64479
 H42 H 0.67938 0.77365 0.67072
 C43 C 0.31564 0.77526 0.71753
 C44 C 0.29888 0.76681 0.69216
 C45 C 0.27396 0.78355 0.68362
 C46 C 0.26550 0.80896 0.70034
 C47 C 0.28208 0.81731 0.72541
 C48 C 0.30729 0.80036 0.73405
 C49 C 0.34085 0.76324 0.73102
 N50 N 0.34778 0.78049 0.75516
 C51 C 0.32755 0.80321 0.75734
 C52 C 0.26878 0.84271 0.73722
 N53 N 0.24472 0.84975 0.71986
 C54 C 0.24237 0.82942 0.69728
 C55 C 0.26210 0.77019 0.65830
 N56 N 0.27927 0.74592 0.65149
 C57 C 0.30179 0.74353 0.67191
 H58 H 0.35325 0.74350 0.72387
 H59 H 0.32764 0.82046 0.77454
 H60 H 0.27603 0.85513 0.75691
 H61 H 0.22518 0.82953 0.67999
 H62 H 0.24252 0.77752 0.64575
 H63 H 0.31893 0.72618 0.67196
 C64 C 0.81732 0.27475 0.21718
 C65 C 0.80070 0.26618 0.19177
 C66 C 0.77561 0.28269 0.18323
 C67 C 0.76686 0.30797 0.19999
 C68 C 0.78330 0.31643 0.22510
 C69 C 0.80867 0.29974 0.23375
 C70 C 0.84263 0.26295 0.23071
 N71 N 0.84930 0.28023 0.25490
 C72 C 0.82884 0.30276 0.25710
 C73 C 0.76970 0.34167 0.23693
 N74 N 0.74559 0.34850 0.21956
 C75 C 0.74353 0.32819 0.19694
 C76 C 0.76392 0.26925 0.15787
 N77 N 0.78134 0.24517 0.15105
 C78 C 0.80385 0.24297 0.17148
 H79 H 0.85522 0.24333 0.22352
 H80 H 0.82868 0.31998 0.27434
 H81 H 0.77676 0.35413 0.25663
 H82 H 0.72636 0.32818 0.17964
 H83 H 0.74426 0.27639 0.14533
 H84 H 0.82116 0.22578 0.17154
 C85 C 0.81733 0.72572 0.28149
 C86 C 0.80056 0.73435 0.30680
 C87 C 0.77552 0.71776 0.31535
 C88 C 0.76697 0.69236 0.29871
 C89 C 0.78353 0.68382 0.27369
 C90 C 0.80887 0.70060 0.26503
 C91 C 0.84264 0.73757 0.26797
 N92 N 0.84950 0.72019 0.24389
 C93 C 0.82915 0.69755 0.24176
 C94 C 0.77009 0.65846 0.26198
 N95 N 0.74594 0.65162 0.27932
 C96 C 0.74371 0.67206 0.30181
 C97 C 0.76366 0.73125 0.34061
 N98 N 0.78093 0.75545 0.34738
 C99 C 0.80352 0.75767 0.32700
 H100 H 0.85511 0.75729 0.27509
 H101 H 0.82913 0.68023 0.22461
 H102 H 0.77727 0.64591 0.24236
 H103 H 0.72648 0.67210 0.31906
 H104 H 0.74400 0.72405 0.35313
 H105 H 0.82076 0.77494 0.32694
 C106 C 0.31692 0.22536 -0.21787
 C107 C 0.29987 0.23410 -0.19278
 C108 C 0.27476 0.21755 -0.18440
 C109 C 0.26639 0.19205 -0.20100
 C110 C 0.28323 0.18339 -0.22581
 C111 C 0.30865 0.20015 -0.23429
 C112 C 0.34236 0.23717 -0.23116
 N113 N 0.34949 0.21968 -0.25508
 C114 C 0.32918 0.19701 -0.25733
 C115 C 0.26994 0.15795 -0.23754
 N116 N 0.24563 0.15119 -0.22039
 C117 C 0.24313 0.17173 -0.19802
 C118 C 0.26266 0.23115 -0.15931
 N119 N 0.27986 0.25539 -0.15249
 C120 C 0.30264 0.25752 -0.17266
 H121 H 0.35472 0.25694 -0.22401
 H122 H 0.32936 0.17961 -0.27440
 H123 H 0.27737 0.14531 -0.25702
 H124 H 0.22573 0.17187 -0.18092
 H125 H 0.24290 0.22400 -0.14692
 H126 H 0.31989 0.27477 -0.17262
 C127 C 0.68376 0.27419 -0.21766
 C128 C 0.70068 0.26554 -0.19245
 C129 C 0.72575 0.28212 -0.18407
 C130 C 0.73422 0.30754 -0.20079
 C131 C 0.71750 0.31610 -0.22572
 C132 C 0.69212 0.29933 -0.23420
 C133 C 0.65837 0.26234 -0.23098
 N134 N 0.65137 0.27974 -0.25503
 C135 C 0.67169 0.30239 -0.25733
 C136 C 0.73086 0.34151 -0.23754
 N137 N 0.75509 0.34832 -0.22033
 C138 C 0.75748 0.32786 -0.19783
 C139 C 0.73774 0.26861 -0.15887
 N140 N 0.72050 0.24440 -0.15196
 C141 C 0.69781 0.24220 -0.17220
 H142 H 0.64596 0.24261 -0.22375
 H143 H 0.67160 0.31972 -0.27450
 H144 H 0.72353 0.35407 -0.25712
 H145 H 0.77479 0.32779 -0.18065
 H146 H 0.75746 0.27580 -0.14646
 H147 H 0.68057 0.22495 -0.17214
 C148 C 0.18333 0.77523 0.28216
 C149 C 0.20000 0.76666 0.30756
 C150 C 0.22500 0.78325 0.31613
 C151 C 0.23364 0.80862 0.29940
 C152 C 0.21717 0.81710 0.27429
 C153 C 0.19186 0.80030 0.26562
 C154 C 0.15808 0.76336 0.26863
 N155 N 0.15130 0.78066 0.24446
 C156 C 0.17166 0.80328 0.24229
 C157 C 0.23066 0.84244 0.26249
 N158 N 0.25474 0.84930 0.27990
 C159 C 0.25689 0.82892 0.30250
 C160 C 0.23674 0.76981 0.34148
 N161 N 0.21943 0.74563 0.34829
 C162 C 0.19693 0.74338 0.32784
 H163 H 0.14557 0.74368 0.27578
 H164 H 0.17171 0.82053 0.22505
 H165 H 0.22354 0.85493 0.24279
 H166 H 0.27405 0.82890 0.31983
 H167 H 0.25635 0.77701 0.35405
 H168 H 0.17969 0.72613 0.32778
 C169 C 0.47531 0.43351 0.46800
 C170 C 0.48386 0.45027 0.44263
 C171 C 0.46722 0.47528 0.43412
 C172 C 0.44185 0.48382 0.45087
 C173 C 0.43341 0.46726 0.47594
 C174 C 0.45024 0.44195 0.48456
 C175 C 0.48721 0.40822 0.48147
 N176 N 0.46992 0.40134 0.50563
 C177 C 0.44729 0.42167 0.50784
 C178 C 0.40805 0.48067 0.48776
 N179 N 0.40113 0.50479 0.47042
 C180 C 0.42150 0.50704 0.44784
 C181 C 0.48064 0.48712 0.40879
 N182 N 0.50484 0.46986 0.40193
 C183 C 0.50713 0.44730 0.42233
 H184 H 0.50691 0.39575 0.47430
 H185 H 0.43003 0.42165 0.52507
 H186 H 0.39557 0.47348 0.50744
 H187 H 0.42146 0.52426 0.43057
 H188 H 0.47340 0.50676 0.39626
 H189 H 0.52440 0.43008 0.42234
 C190 C -0.02437 -0.06705 0.96750
 C191 C -0.01563 -0.05008 0.94234
 C192 C -0.03211 -0.02492 0.93398
 C193 C -0.05754 -0.01643 0.95068
 C194 C -0.06619 -0.03319 0.97556
 C195 C -0.04951 -0.05865 0.98401
 C196 C -0.01262 -0.09250 0.98080
 N197 N -0.03008 -0.09951 1.00482
 C198 C -0.05266 -0.07913 1.00711
 C199 C -0.09155 -0.01979 0.98738
 N200 N -0.09825 0.00453 0.97022
 C201 C -0.07776 0.00692 0.94775
 C202 C -0.01852 -0.01289 0.90883
 N203 N 0.00565 -0.03018 0.90194
 C204 C 0.00773 -0.05295 0.92214
 H205 H 0.00709 -0.10495 0.97361
 H206 H -0.07001 -0.07920 1.02427
 H207 H -0.10416 -0.02713 1.00693
 H208 H -0.07761 0.02429 0.93062
 H209 H -0.02562 0.00689 0.89645
 H210 H 0.02493 -0.07025 0.92207
 C211 C 1.02412 0.56646 0.96817
 C212 C 1.01546 0.54958 0.94296
 C213 C 1.03206 0.52455 0.93450
 C214 C 1.05753 0.51609 0.95114
 C215 C 1.06611 0.53277 0.97606
 C216 C 1.04931 0.55810 0.98463
 C217 C 1.01228 0.59181 0.98153
 N218 N 1.02971 0.59881 1.00553
 C219 C 1.05239 0.57851 1.00776
 C220 C 1.09156 0.51943 0.98779
 N221 N 1.09838 0.49524 0.97051
 C222 C 1.07788 0.49288 0.94808
 C223 C 1.01855 0.51260 0.90931
 N224 N 0.99431 0.52982 0.90249
 C225 C 0.99210 0.55246 0.92277
 H226 H 0.99253 0.60422 0.97436
 H227 H 1.06976 0.57861 1.02487
 H228 H 1.10416 0.52673 1.00734
 H229 H 1.07780 0.47561 0.93087
 H230 H 1.02576 0.49293 0.89685
 H231 H 0.97483 0.56968 0.92275
 C232 C 0.52511 0.06594 0.46817
 C233 C 0.51640 0.04917 0.44291
 C234 C 0.53300 0.02418 0.43432
 C235 C 0.55850 0.01566 0.45088
 C236 C 0.56711 0.03223 0.47586
 C237 C 0.55031 0.05753 0.48455
 C238 C 0.51328 0.09122 0.48169
 N239 N 0.53073 0.09812 0.50570
 C240 C 0.55340 0.07781 0.50777
 C241 C 0.59256 0.01885 0.48751
 N242 N 0.59936 -0.00527 0.47015
 C243 C 0.57884 -0.00755 0.44772
 C244 C 0.51943 0.01233 0.40911
 N245 N 0.49517 0.02957 0.40241
 C246 C 0.49300 0.05213 0.42278
 H247 H 0.49352 0.10366 0.47465
 H248 H 0.57078 0.07786 0.52487
 H249 H 0.60516 0.02607 0.50709
 H250 H 0.57874 -0.02477 0.43046
 H251 H 0.52661 -0.00729 0.39655
 H252 H 0.47572 0.06934 0.42289
 C253 C -0.02490 0.06743 0.53346
 C254 C -0.01628 0.05066 0.55879
 C255 C -0.03278 0.02553 0.56725
 C256 C -0.05809 0.01688 0.55048
 C257 C -0.06661 0.03346 0.52545
 C258 C -0.04992 0.05887 0.51690
 C259 C -0.01311 0.09277 0.52000
 N260 N -0.03041 0.09958 0.49584
 C261 C -0.05295 0.07915 0.49363
 C262 C -0.09185 0.01993 0.51357
 N263 N -0.09865 -0.00429 0.53082
 C264 C -0.07830 -0.00648 0.55342
 C265 C -0.01927 0.01368 0.59252
 N266 N 0.00484 0.03105 0.59937
 C267 C 0.00699 0.05368 0.57904
 H268 H 0.00654 0.10532 0.52716
 H269 H -0.07017 0.07908 0.47638
 H270 H -0.10433 0.02709 0.49390
 H271 H -0.07826 -0.02376 0.57063
 H272 H -0.02638 -0.00605 0.60498
 H273 H 0.02419 0.07098 0.57903
 C274 C 0.47513 0.56705 0.03241
 C275 C 0.48361 0.55025 0.05777
 C276 C 0.46697 0.52523 0.06622
 C277 C 0.44164 0.51670 0.04942
 C278 C 0.43324 0.53330 0.02436
 C279 C 0.45008 0.55862 0.01581
 C280 C 0.48705 0.59237 0.01899
 N281 N 0.46978 0.59925 -0.00518
 C282 C 0.44715 0.57892 -0.00746
 C283 C 0.40793 0.51990 0.01248
 N284 N 0.40097 0.49575 0.02976
 C285 C 0.42128 0.49347 0.05238
 C286 C 0.48034 0.51334 0.09154
 N287 N 0.50452 0.53060 0.09845
 C288 C 0.50684 0.55320 0.07809
 H289 H 0.50674 0.60482 0.02622
 H290 H 0.42990 0.57893 -0.02470
 H291 H 0.39549 0.52713 -0.00720
 H292 H 0.42120 0.47622 0.06962
 H293 H 0.47308 0.49368 0.10402
 H294 H 0.52412 0.57042 0.07812
 C295 C 0.52533 -0.06708 0.03359
 C296 C 0.51686 -0.05037 0.05898
 C297 C 0.53355 -0.02540 0.06748
 C298 C 0.55891 -0.01686 0.05068
 C299 C 0.56727 -0.03338 0.02558
 C300 C 0.55038 -0.05863 0.01699
 C301 C 0.51334 -0.09228 0.02010
 N302 N 0.53056 -0.09912 -0.00410
 C303 C 0.55324 -0.07884 -0.00633
 C304 C 0.59260 -0.01998 0.01369
 N305 N 0.59960 0.00411 0.03101
 C306 C 0.57929 0.00633 0.05365
 C307 C 0.52017 -0.01358 0.09281
 N308 N 0.49594 -0.03082 0.09967
 C309 C 0.49360 -0.05333 0.07928
 H310 H 0.49362 -0.10473 0.02730
 H311 H 0.57045 -0.07884 -0.02360
 H312 H 0.60502 -0.02714 -0.00602
 H313 H 0.57939 0.02353 0.07091
 H314 H 0.52743 0.00603 0.10532
 H315 H 0.47627 -0.07050 0.07925
 C316 C 1.02495 0.43419 0.53277
 C317 C 1.01651 0.45071 0.55829
 C318 C 1.03312 0.47571 0.56686
 C319 C 1.05836 0.48448 0.55000
 C320 C 1.06669 0.46814 0.52476
 C321 C 1.04989 0.44285 0.51610
 C322 C 1.01303 0.40899 0.51922
 N323 N 1.03019 0.40235 0.49491
 C324 C 1.05275 0.42276 0.49268
 C325 C 1.09193 0.48171 0.51285
 N326 N 1.09887 0.50572 0.53030
 C327 C 1.07865 0.50775 0.55305
 C328 C 1.01979 0.48731 0.59233
 N329 N 0.99568 0.46991 0.59920
 C330 C 0.99336 0.44751 0.57868
 H331 H 0.99343 0.39639 0.52645
 H332 H 1.06990 0.42292 0.47535
 H333 H 1.10429 0.47469 0.49304
 H334 H 1.07873 0.52482 0.57044
 H335 H 1.02701 0.50689 0.60492
 H336 H 0.97612 0.43025 0.57863
 C337 C 0.42121 0.01355 0.21058
 H338 H 0.42238 0.03394 0.22384
 C339 C 0.44102 0.00934 0.18652
 H340 H 0.45745 0.02655 0.18112
 C341 C 0.39865 -0.03404 0.20160
 H342 H 0.38246 -0.05109 0.20781
 C343 C 0.41805 -0.03915 0.17737
 H344 H 0.41652 -0.06000 0.16482
 N345 N 0.40034 -0.00784 0.21742
 C346 C 0.32879 0.04022 0.26458
 H347 H 0.32742 0.02701 0.28500
 C348 C 0.30921 0.06444 0.26016
 H349 H 0.29275 0.07004 0.27727
 C350 C 0.35159 0.04884 0.21705
 H351 H 0.36777 0.04242 0.20008
 C352 C 0.33242 0.07323 0.21174
 H353 H 0.33412 0.08569 0.19083
 Zn354 Zn 0.37480 -0.00053 0.25076
 N355 N 0.34967 0.03311 0.24330
 C356 C 0.39823 0.03289 0.30016
 N357 N 0.39990 0.00663 0.28445
 C358 C 0.42055 -0.01489 0.29158
 C359 C 0.44016 -0.01070 0.31578
 C360 C 0.41744 0.03798 0.32453
 C361 C 0.32869 -0.04092 0.23626
 C362 C 0.30891 -0.06505 0.24032
 C363 C 0.33139 -0.07415 0.28902
 C364 C 0.35077 -0.04985 0.28405
 N365 N 0.34932 -0.03401 0.25784
 H366 H 0.38224 0.05004 0.29373
 H367 H 0.42172 -0.03532 0.27839
 H368 H 0.45645 -0.02799 0.32137
 H369 H 0.41596 0.05891 0.33696
 H370 H 0.32769 -0.02764 0.21586
 H371 H 0.29266 -0.07049 0.22297
 H372 H 0.33273 -0.08671 0.30989
 H373 H 0.36676 -0.04359 0.30124
 C374 C 0.31111 0.08112 0.23353
 C375 C 0.43934 -0.01723 0.16973
 C376 C 0.31034 -0.08184 0.26691
 C377 C 0.43853 0.01596 0.33242
 C378 C 0.07974 -0.01340 0.71013
 H379 H 0.07860 -0.03381 0.72340
 C380 C 0.05994 -0.00916 0.68609
 H381 H 0.04353 -0.02639 0.68069
 C382 C 0.10222 0.03426 0.70116
 H383 H 0.11838 0.05133 0.70737
 C384 C 0.08282 0.03939 0.67694
 H385 H 0.08431 0.06027 0.66440
 N386 N 0.10058 0.00803 0.71697
 C387 C 0.17214 -0.04000 0.76419
 H388 H 0.17349 -0.02678 0.78459
 C389 C 0.19168 -0.06427 0.75987
 H390 H 0.20810 -0.06988 0.77701
 C391 C 0.14938 -0.04864 0.71668
 H392 H 0.13322 -0.04223 0.69970
 C393 C 0.16851 -0.07308 0.71146
 H394 H 0.16680 -0.08558 0.69061
 Zn395 Zn 0.12608 0.00070 0.75033
 N396 N 0.15129 -0.03289 0.74289
 C397 C 0.10265 -0.03291 0.79968
 N398 N 0.10095 -0.00660 0.78400
 C399 C 0.08025 0.01485 0.79115
 C400 C 0.06062 0.01054 0.81535
 C401 C 0.08343 -0.03813 0.82404
 C402 C 0.17212 0.04124 0.73587
 C403 C 0.19182 0.06542 0.73996
 C404 C 0.16925 0.07433 0.78864
 C405 C 0.14995 0.04999 0.78366
 N406 N 0.15149 0.03422 0.75743
 H407 H 0.11868 -0.05001 0.79323
 H408 H 0.07904 0.03532 0.77799
 H409 H 0.04429 0.02777 0.82096
 H410 H 0.08494 -0.05909 0.83645
 H411 H 0.17319 0.02802 0.71547
 H412 H 0.20807 0.07096 0.72262
 H413 H 0.16784 0.08684 0.80952
 H414 H 0.13395 0.04364 0.80084
 C415 C 0.18977 -0.08099 0.73329
 C416 C 0.06156 0.01745 0.66931
 C417 C 0.19030 0.08215 0.76656
 C418 C 0.06228 -0.01617 0.83196
 C419 C 0.57882 0.48600 0.20956
 H420 H 0.57761 0.46558 0.22280
 C421 C 0.55914 0.49026 0.18542
 H422 H 0.54275 0.47304 0.17993
 C423 C 0.60136 0.53365 0.20073
 H424 H 0.61748 0.55072 0.20703
 C425 C 0.58208 0.53881 0.17642
 H426 H 0.58365 0.55970 0.16389
 N427 N 0.59963 0.50741 0.21652
 C428 C 0.67105 0.45948 0.26403
 H429 H 0.67231 0.47272 0.28441
 C430 C 0.69071 0.43530 0.25977
 H431 H 0.70712 0.42978 0.27695
 C432 C 0.64845 0.45070 0.21647
 H433 H 0.63232 0.45705 0.19944
 C434 C 0.66770 0.42635 0.21131
 H435 H 0.66612 0.41384 0.19045
 Zn436 Zn 0.62501 0.50009 0.24997
 N437 N 0.65024 0.46649 0.24266
 C438 C 0.60148 0.46661 0.29935
 N439 N 0.59980 0.49287 0.28360
 C440 C 0.57912 0.51436 0.29070
 C441 C 0.55951 0.51015 0.31493
 C442 C 0.58229 0.46149 0.32375
 C443 C 0.67115 0.54048 0.23555
 C444 C 0.69091 0.56461 0.23961
 C445 C 0.66821 0.57374 0.28820
 C446 C 0.64886 0.54943 0.28324
 N447 N 0.65044 0.53358 0.25707
 H448 H 0.61750 0.44948 0.29295
 H449 H 0.57793 0.53480 0.27748
 H450 H 0.54322 0.52743 0.32052
 H451 H 0.58380 0.44057 0.33623
 H452 H 0.67224 0.52718 0.21519
 H453 H 0.70722 0.57005 0.22230
 H454 H 0.66678 0.58632 0.30903
 H455 H 0.63280 0.54318 0.30039
 C456 C 0.68896 0.41856 0.23319
 C457 C 0.56086 0.51688 0.16866
 C458 C 0.68935 0.58143 0.26615
 C459 C 0.56118 0.48350 0.33164
 C460 C 0.92094 0.51338 0.71045
 H461 H 0.92199 0.53374 0.72377
 C462 C 0.94076 0.50935 0.68637
 H463 H 0.95709 0.52668 0.68101
 C464 C 0.89865 0.46569 0.70133
 H465 H 0.88254 0.44853 0.70748
 C466 C 0.91806 0.46076 0.67708
 H467 H 0.91664 0.43995 0.66445
 N468 N 0.90018 0.49185 0.71722
 C469 C 0.82827 0.53947 0.76425
 H470 H 0.82691 0.52623 0.78466
 C471 C 0.80861 0.56363 0.75983
 H472 H 0.79209 0.56914 0.77692
 C473 C 0.85114 0.54825 0.71678
 H474 H 0.86738 0.54191 0.69985
 C475 C 0.83190 0.57257 0.71147
 H476 H 0.83360 0.58508 0.69059
 Zn477 Zn 0.87454 0.49898 0.75052
 N478 N 0.84923 0.53248 0.74301
 C479 C 0.89765 0.53256 0.79995
 N480 N 0.89952 0.50630 0.78426
 C481 C 0.92027 0.48491 0.79146
 C482 C 0.93978 0.48923 0.81572
 C483 C 0.91675 0.53778 0.82438
 C484 C 0.82868 0.45833 0.73592
 C485 C 0.80900 0.43411 0.73997
 C486 C 0.83143 0.42517 0.78872
 C487 C 0.85071 0.44955 0.78377
 N488 N 0.84923 0.46535 0.75754
 H489 H 0.88157 0.54962 0.79346
 H490 H 0.92160 0.46447 0.77829
 H491 H 0.95615 0.47204 0.82138
 H492 H 0.91511 0.55870 0.83680
 H493 H 0.82766 0.47159 0.71551
 H494 H 0.79281 0.42858 0.72260
 H495 H 0.83278 0.41264 0.80961
 H496 H 0.86663 0.45590 0.80099
 C497 C 0.81052 0.58036 0.73323
 C498 C 0.93923 0.48284 0.66950
 C499 C 0.81046 0.41736 0.76659
 C500 C 0.93794 0.51589 0.83235
 C501 C 0.20856 0.42164 0.01372
 H502 H 0.22190 0.42265 0.03406
 C503 C 0.18436 0.44135 0.00978
 H504 H 0.17893 0.45756 0.02716
 C505 C 0.19954 0.39958 -0.03403
 H506 H 0.20579 0.38362 -0.05126
 C507 C 0.17517 0.41889 -0.03888
 H508 H 0.16254 0.41754 -0.05970
 N509 N 0.21546 0.40106 -0.00789
 C510 C 0.26335 0.32927 0.03915
 H511 H 0.28372 0.32817 0.02581
 C512 C 0.25926 0.30946 0.06324
 H513 H 0.27654 0.29308 0.06858
 C514 C 0.21571 0.35168 0.04831
 H515 H 0.19859 0.36782 0.04217
 C516 C 0.21071 0.33227 0.07257
 H517 H 0.18988 0.33374 0.08521
 Zn518 Zn 0.24904 0.37567 -0.00096
 N519 N 0.24188 0.35008 0.03239
 C520 C 0.29846 0.39896 0.03257
 N521 N 0.28263 0.40089 0.00640
 C522 C 0.28963 0.42181 -0.01489
 C523 C 0.31385 0.44141 -0.01059
 C524 C 0.32285 0.41815 0.03778
 C525 C 0.23478 0.32994 -0.04180
 C526 C 0.23906 0.31034 -0.06600
 C527 C 0.28770 0.33320 -0.07477
 C528 C 0.28252 0.35239 -0.05041
 N529 N 0.25624 0.35064 -0.03469
 H530 H 0.29212 0.38275 0.04955
 H531 H 0.27635 0.42318 -0.03526
 H532 H 0.31937 0.45789 -0.02771
 H533 H 0.33540 0.41644 0.05861
 H534 H 0.21433 0.32869 -0.02860
 H535 H 0.22183 0.29399 -0.07157
 H536 H 0.30865 0.33474 -0.08720
 H537 H 0.29962 0.36842 -0.04398
 C538 C 0.23272 0.31105 0.08013
 C539 C 0.16748 0.43990 -0.01674
 C540 C 0.26575 0.31204 -0.08264
 C541 C 0.33064 0.43949 0.01596
 C542 C 0.71084 0.07815 -0.01392
 H543 H 0.72405 0.07684 -0.03435
 C544 C 0.68663 0.05854 -0.00954
 H545 H 0.68106 0.04210 -0.02666
 C546 C 0.70217 0.10086 0.03360
 H547 H 0.70855 0.11703 0.05056
 C548 C 0.67779 0.08166 0.03888
 H549 H 0.66530 0.08331 0.05977
 N550 N 0.71791 0.09901 0.00736
 C551 C 0.76555 0.17010 -0.04103
 H552 H 0.78603 0.17134 -0.02789
 C553 C 0.76122 0.18968 -0.06525
 H554 H 0.77844 0.20602 -0.07092
 C555 C 0.71780 0.14763 -0.04945
 H556 H 0.70072 0.13158 -0.04295
 C557 C 0.71257 0.16680 -0.07384
 H558 H 0.69160 0.16524 -0.08622
 Zn559 Zn 0.75146 0.12427 -0.00014
 N560 N 0.74411 0.14938 -0.03381
 C561 C 0.80076 0.10045 -0.03355
 N562 N 0.78502 0.09892 -0.00729
 C563 C 0.79205 0.07828 0.01426
 C564 C 0.81621 0.05856 0.01012
 C565 C 0.82509 0.08114 -0.03859
 C566 C 0.73729 0.17054 0.04008
 C567 C 0.74146 0.19029 0.06416
 C568 C 0.79005 0.16747 0.07326
 C569 C 0.78497 0.14813 0.04901
 N570 N 0.75875 0.14976 0.03321
 H571 H 0.79441 0.11645 -0.05072
 H572 H 0.77883 0.07722 0.03470
 H573 H 0.82174 0.04230 0.02745
 H574 H 0.83757 0.08253 -0.05950
 H575 H 0.71687 0.17167 0.02683
 H576 H 0.72419 0.20664 0.06959
 H577 H 0.81092 0.16598 0.08581
 H578 H 0.80208 0.13201 0.04278
 C579 C 0.73451 0.18796 -0.08183
 C580 C 0.66993 0.06038 0.01708
 C581 C 0.76805 0.18866 0.08094
 C582 C 0.83290 0.06007 -0.01652
 C583 C 0.20869 0.57919 0.48604
 H584 H 0.22196 0.57796 0.46566
 C585 C 0.18450 0.55952 0.49029
 H586 H 0.17901 0.54313 0.47311
 C587 C 0.19984 0.60172 0.53362
 H588 H 0.20615 0.61784 0.55066
 C589 C 0.17548 0.58246 0.53877
 H590 H 0.16294 0.58402 0.55963
 N591 N 0.21566 0.59998 0.50742
 C592 C 0.26355 0.67124 0.45953
 H593 H 0.28394 0.67244 0.47280
 C594 C 0.25939 0.69088 0.43532
 H595 H 0.27666 0.70722 0.42981
 C596 C 0.21586 0.64879 0.45071
 H597 H 0.19874 0.63271 0.45704
 C598 C 0.21081 0.66802 0.42633
 H599 H 0.18994 0.66649 0.41379
 Zn600 Zn 0.24925 0.62526 0.50014
 N601 N 0.24207 0.65050 0.46653
 C602 C 0.29867 0.60158 0.46682
 N603 N 0.28283 0.59993 0.49302
 C604 C 0.28981 0.57923 0.51452
 C605 C 0.31401 0.55956 0.51040
 C606 C 0.32304 0.58231 0.46180
 C607 C 0.23497 0.67140 0.54049
 C608 C 0.23913 0.69112 0.56461
 C609 C 0.28770 0.66828 0.57371
 C610 C 0.28264 0.64897 0.54943
 N611 N 0.25644 0.65064 0.53360
 H612 H 0.29235 0.61762 0.44968
 H613 H 0.27652 0.57808 0.53491
 H614 H 0.31951 0.54325 0.52770
 H615 H 0.33560 0.58380 0.44094
 H616 H 0.21457 0.67257 0.52722
 H617 H 0.22186 0.70748 0.57004
 H618 H 0.30857 0.66677 0.58627
 H619 H 0.29976 0.63287 0.54318
 C620 C 0.23281 0.68919 0.41854
 C621 C 0.16772 0.56123 0.51687
 C622 C 0.26571 0.68947 0.58139
 C623 C 0.33081 0.56118 0.48383
 C624 C 0.70936 0.92116 0.51371
 H625 H 0.72258 0.92218 0.53413
 C626 C 0.68516 0.94085 0.50962
 H627 H 0.67961 0.95705 0.52698
 C628 C 0.70064 0.89911 0.46589
 H629 H 0.70700 0.88316 0.44870
 C630 C 0.67628 0.91840 0.46091
 H631 H 0.66377 0.91704 0.44002
 N632 N 0.71640 0.90059 0.49213
 C633 C 0.76395 0.82884 0.53957
 H634 H 0.78442 0.82773 0.52640
 C635 C 0.75965 0.80904 0.56363
 H636 H 0.77689 0.79267 0.56913
 C637 C 0.71621 0.85123 0.54829
 H638 H 0.69913 0.86735 0.54199
 C639 C 0.71101 0.83184 0.57252
 H640 H 0.69007 0.83330 0.58497
 Zn641 Zn 0.74993 0.87521 0.49929
 N642 N 0.74252 0.84963 0.53260
 C643 C 0.79913 0.89853 0.53314
 N644 N 0.78346 0.90044 0.50687
 C645 C 0.79056 0.92136 0.48562
 C646 C 0.81472 0.94101 0.49008
 C647 C 0.82345 0.91776 0.53850
 C648 C 0.73592 0.82951 0.45834
 C649 C 0.74028 0.81001 0.43409
 C650 C 0.78896 0.83289 0.42558
 C651 C 0.78369 0.85199 0.44999
 N652 N 0.75734 0.85019 0.46560
 H653 H 0.79271 0.88231 0.55008
 H654 H 0.77741 0.92272 0.46517
 H655 H 0.82031 0.95750 0.47299
 H656 H 0.83587 0.91608 0.55941
 H657 H 0.71541 0.82823 0.47145
 H658 H 0.72306 0.79369 0.42839
 H659 H 0.80994 0.83448 0.41321
 H660 H 0.80076 0.86801 0.45652
 C661 C 0.73296 0.81063 0.58029
 C662 C 0.66844 0.93939 0.48301
 C663 C 0.76702 0.81177 0.41754
 C664 C 0.83134 0.93912 0.51673
 C665 C 0.01376 0.21054 0.42089
 H666 H 0.03417 0.22383 0.42197
 C667 C 0.00961 0.18646 0.44070
 H668 H 0.02689 0.18106 0.45704
 C669 C -0.03394 0.20154 0.39857
 H670 H -0.05106 0.20776 0.38248
 C671 C -0.03899 0.17729 0.41797
 H672 H -0.05986 0.16471 0.41655
 N673 N -0.00772 0.21739 0.40014
 C674 C 0.04004 0.26476 0.32852
 H675 H 0.02680 0.28519 0.32723
 C676 C 0.06420 0.26044 0.30886
 H677 H 0.06972 0.27760 0.29242
 C678 C 0.04880 0.21717 0.35120
 H679 H 0.04246 0.20016 0.36737
 C680 C 0.07314 0.21195 0.33196
 H681 H 0.08564 0.19105 0.33358
 Zn682 Zn -0.00051 0.25080 0.37464
 N683 N 0.03303 0.24342 0.34938
 C684 C 0.03305 0.30020 0.39795
 N685 N 0.00677 0.28448 0.39971
 C686 C -0.01467 0.29157 0.42043
 C687 C -0.01038 0.31576 0.44002
 C688 C 0.03824 0.32456 0.41714
 C689 C -0.04106 0.23634 0.32875
 C690 C -0.06522 0.24045 0.30904
 C691 C -0.07421 0.28916 0.33156
 C692 C -0.04988 0.28415 0.35087
 N693 N -0.03408 0.25791 0.34935
 H694 H 0.05014 0.29379 0.38190
 H695 H -0.03512 0.27837 0.42167
 H696 H -0.02761 0.32133 0.45637
 H697 H 0.05918 0.33701 0.41559
 H698 H -0.02781 0.21592 0.32770
 H699 H -0.07071 0.22312 0.29280
 H700 H -0.08673 0.31006 0.33294
 H701 H -0.04356 0.30133 0.36683
 C702 C 0.08093 0.23381 0.31066
 C703 C -0.01698 0.16965 0.43915
 C704 C -0.08196 0.26708 0.31053
 C705 C 0.01630 0.33242 0.43830
 C706 C -0.01446 0.70900 0.07827
 H707 H -0.03491 0.72220 0.07703
 C708 C -0.01024 0.68471 0.05877
 H709 H -0.02750 0.67908 0.04250
 C710 C 0.03328 0.70040 0.10067
 H711 H 0.05039 0.70685 0.11668
 C712 C 0.03841 0.67595 0.08158
 H713 H 0.05932 0.66347 0.08315
 N714 N 0.00701 0.71615 0.09893
 C715 C -0.04077 0.76417 0.17008
 H716 H -0.02752 0.78459 0.17115
 C717 C -0.06492 0.76002 0.18982
 H718 H -0.07041 0.77733 0.20609
 C719 C -0.04960 0.71640 0.14790
 H720 H -0.04329 0.69924 0.13189
 C721 C -0.07392 0.71135 0.16723
 H722 H -0.08644 0.69045 0.16584
 Zn723 Zn -0.00027 0.74982 0.12405
 N724 N -0.03380 0.74264 0.14943
 C725 C -0.03381 0.79910 0.10034
 N726 N -0.00758 0.78329 0.09863
 C727 C 0.01386 0.79028 0.07786
 C728 C 0.00966 0.81448 0.05820
 C729 C -0.03891 0.82347 0.08109
 C730 C 0.04036 0.73585 0.17009
 C731 C 0.06453 0.74018 0.18972
 C732 C 0.07342 0.78870 0.16666
 C733 C 0.04908 0.78347 0.14744
 N734 N 0.03332 0.75721 0.14926
 H735 H -0.05090 0.79278 0.11644
 H736 H 0.03428 0.77703 0.07666
 H737 H 0.02692 0.82000 0.04186
 H738 H -0.05979 0.83602 0.08265
 H739 H 0.02713 0.71542 0.17138
 H740 H 0.07007 0.72300 0.20614
 H741 H 0.08590 0.80960 0.16504
 H742 H 0.04271 0.80050 0.13129
 C743 C -0.08167 0.73339 0.18831
 C744 C 0.01641 0.66800 0.06051
 C745 C 0.08124 0.76682 0.18792
 C746 C -0.01694 0.83127 0.05992
 C747 C 0.48637 0.20917 0.58016
 H748 H 0.46594 0.22241 0.57898
 C749 C 0.49059 0.18501 0.56050
 H750 H 0.47334 0.17951 0.54418
 C751 C 0.53408 0.20038 0.60256
 H752 H 0.55118 0.20670 0.61862
 C753 C 0.53920 0.17605 0.58331
 H754 H 0.56010 0.16354 0.58482
 N755 N 0.50783 0.21616 0.60088
 C756 C 0.45986 0.26377 0.67218
 H757 H 0.47308 0.28421 0.67340
 C758 C 0.43559 0.25954 0.69174
 H759 H 0.42998 0.27678 0.70804
 C760 C 0.45119 0.21610 0.64974
 H761 H 0.45759 0.19902 0.63369
 C762 C 0.42675 0.21096 0.66890
 H763 H 0.41424 0.19007 0.66733
 Zn764 Zn 0.50053 0.24969 0.62618
 N765 N 0.46695 0.24235 0.65147
 C766 C 0.46692 0.29898 0.60258
 N767 N 0.49319 0.28325 0.60088
 C768 C 0.51463 0.29031 0.58013
 C769 C 0.51035 0.31449 0.56046
 C770 C 0.46174 0.32332 0.58332
 C771 C 0.54121 0.23554 0.67214
 C772 C 0.56546 0.23978 0.69170
 C773 C 0.57427 0.28840 0.66883
 C774 C 0.54986 0.28326 0.64968
 N775 N 0.53411 0.25700 0.65142
 H776 H 0.44983 0.29260 0.61867
 H777 H 0.53508 0.27711 0.57893
 H778 H 0.52759 0.32005 0.54410
 H779 H 0.44081 0.33579 0.58485
 H780 H 0.52800 0.21510 0.67337
 H781 H 0.57106 0.22252 0.70801
 H782 H 0.58676 0.30930 0.66725
 H783 H 0.54345 0.30036 0.63362
 C784 C 0.41885 0.23292 0.69001
 C785 C 0.51722 0.16827 0.56216
 C786 C 0.58217 0.26642 0.68996
 C787 C 0.48369 0.33117 0.56213
 C788 C 0.51393 0.70904 0.92122
 H789 H 0.53437 0.72228 0.92231
 C790 C 0.50978 0.68486 0.94091
 H791 H 0.52710 0.67932 0.95717
 C792 C 0.46613 0.70031 0.89903
 H793 H 0.44896 0.70667 0.88304
 C794 C 0.46107 0.67596 0.91832
 H795 H 0.44016 0.66346 0.91690
 N796 N 0.49239 0.71607 0.90059
 C797 C 0.53990 0.76391 0.82909
 H798 H 0.52666 0.78435 0.82800
 C799 C 0.56398 0.75971 0.80930
 H800 H 0.56943 0.77698 0.79294
 C801 C 0.54876 0.71618 0.85143
 H802 H 0.54249 0.69906 0.86752
 C803 C 0.57300 0.71107 0.83204
 H804 H 0.58551 0.69017 0.83347
 Zn805 Zn 0.49955 0.74966 0.87530
 N806 N 0.53299 0.74243 0.84985
 C807 C 0.53320 0.79891 0.89878
 N808 N 0.50694 0.78315 0.90057
 C809 C 0.48558 0.79013 0.92140
 C810 C 0.48991 0.81424 0.94109
 C811 C 0.53844 0.82320 0.91805
 C812 C 0.45880 0.73557 0.82946
 C813 C 0.43458 0.73987 0.80987
 C814 C 0.42577 0.78844 0.83275
 C815 C 0.45015 0.78324 0.85194
 N816 N 0.46589 0.75698 0.85018
 H817 H 0.55023 0.79260 0.88262
 H818 H 0.46515 0.77690 0.92266
 H819 H 0.47274 0.81973 0.95752
 H820 H 0.55935 0.83569 0.91646
 H821 H 0.47201 0.71513 0.82822
 H822 H 0.42901 0.72266 0.79352
 H823 H 0.41331 0.80936 0.83430
 H824 H 0.45657 0.80031 0.86799
 C825 C 0.58070 0.73307 0.81085
 C826 C 0.48313 0.66814 0.93938
 C827 C 0.41790 0.76652 0.81159
 C828 C 0.51656 0.83095 0.93933
 C829 C 0.12678 0.22472 0.27377
 C830 C 0.10588 0.22886 0.29060
 C831 C 0.62641 0.72414 0.77374
 C832 C 0.60557 0.72824 0.79065
 C833 C 0.37205 0.77564 0.77472
 C834 C 0.39294 0.77148 0.79154
 C835 C -0.12775 0.27582 0.27348
 C836 C -0.10688 0.27183 0.29038
 C837 C -0.12751 0.72461 0.22535
 C838 C -0.10661 0.72862 0.20847
 C839 C 0.37265 0.22408 0.72659
 C840 C 0.39372 0.22809 0.70992
 C841 C 0.62827 0.27530 0.72660
 C842 C 0.60725 0.27126 0.70989
 C843 C 0.12705 0.77590 0.22484
 C844 C 0.10618 0.77178 0.20799
 C845 C 0.27429 0.12701 0.22426
 C846 C 0.29109 0.10610 0.22847
 C847 C 0.77366 0.62623 0.72400
 C848 C 0.79047 0.60532 0.72819
 C849 C 0.77355 0.37138 0.77525
 C850 C 0.79037 0.39235 0.77127
 C851 C 0.27328 -0.12770 0.27553
 C852 C 0.29017 -0.10678 0.27159
 C853 C 0.22635 -0.12713 0.72431
 C854 C 0.20967 -0.10609 0.72838
 C855 C 0.72594 0.37274 0.22424
 C856 C 0.70906 0.39362 0.22830
 C857 C 0.72636 0.62730 0.27474
 C858 C 0.70950 0.60638 0.27082
 C859 C 0.22718 0.12812 0.77522
 C860 C 0.21038 0.10715 0.77125
 C861 C 0.22407 0.27406 0.12600
 C862 C 0.22804 0.29090 0.10507
 C863 C 0.72395 0.77362 0.62608
 C864 C 0.72806 0.79048 0.60519
 C865 C 0.77617 0.77502 0.37164
 C866 C 0.77203 0.79180 0.39255
 C867 C 0.27495 0.27504 -0.12833
 C868 C 0.27074 0.29193 -0.10752
 C869 C 0.72534 0.22482 -0.12770
 C870 C 0.72952 0.20800 -0.10680
 C871 C 0.22405 0.72607 0.37261
 C872 C 0.22803 0.70925 0.39355
 C873 C 0.27454 0.72640 0.62720
 C874 C 0.27049 0.70957 0.60631
 C875 C 0.77676 0.22561 0.12675
 C876 C 0.77280 0.20877 0.10586
 C877 C 0.47467 0.37704 0.52521
 C878 C 0.47878 0.35614 0.54205
 C879 C -0.02571 0.87736 0.02320
 C880 C -0.02172 0.85633 0.03993
 C881 C 0.02530 0.62190 0.02391
 C882 C 0.02126 0.64292 0.04060
 C883 C 0.52608 0.12241 0.52527
 C884 C 0.52205 0.14331 0.54210
 C885 C -0.02574 0.12387 0.47623
 C886 C -0.02174 0.14475 0.45934
 C887 C 0.47428 0.62226 0.97632
 C888 C 0.47834 0.64318 0.95948
 C889 C 0.52570 0.87667 0.97630
 C890 C 0.52153 0.85583 0.95944
 C891 C 0.02539 0.37816 0.47526
 C892 C 0.02125 0.35733 0.45839
 C893 C 0.37677 0.52431 0.47509
 C894 C 0.35581 0.54111 0.47908
 C895 C 0.87875 0.02306 -0.02533
 C896 C 0.85785 0.03993 -0.02130
 C897 C 0.62395 0.02361 0.02622
 C898 C 0.64491 0.04038 0.02207
 C899 C 0.12185 0.52428 0.52583
 C900 C 0.14276 0.54114 0.52175
 C901 C 0.12148 0.47680 -0.02517
 C902 C 0.14246 0.46000 -0.02130
 C903 C 0.62244 0.97626 0.47444
 C904 C 0.64342 0.95946 0.47834
 C905 C 0.87713 0.97606 0.52601
 C906 C 0.85627 0.95920 0.52182
 C907 C 0.37662 0.47625 0.02500
 C908 C 0.35566 0.45949 0.02089
 C909 C 0.52437 0.47458 0.37760
 C910 C 0.54115 0.47865 0.35665
 C911 C 0.02529 -0.02533 0.87773
 C912 C 0.04217 -0.02116 0.85688
 C913 C 0.02447 0.02634 0.62361
 C914 C 0.04138 0.02228 0.64445
 C915 C 0.52402 0.52583 0.12277
 C916 C 0.54081 0.52175 0.14370
 C917 C 0.47637 -0.02609 0.12396
 C918 C 0.45950 -0.02204 0.14484
 C919 C 0.97618 0.47440 0.62358
 C920 C 0.95936 0.47825 0.64453
 C921 C 0.97474 0.52502 0.87823
 C922 C 0.95794 0.52087 0.85734
 C923 C 0.47552 0.02487 0.37820
 C924 C 0.45863 0.02081 0.35735
   
