data_POSCAR
  _audit_creation_date              2014-09-24
  _audit_creation_method            'ToBaCCo'
  _symmetry_space_group_name_H-M    'P1'
  _symmetry_Int_Tables_number       1
  _symmetry_cell_setting            triclinic
  loop_
  _symmetry_equiv_pos_as_xyz
 x,y,z
_cell_length_a 50.5429
_cell_length_b 50.0947
_cell_length_c 18.0816
_cell_angle_alpha 90.098900
_cell_angle_beta 90.027800
_cell_angle_gamma 123.151700
loop_
  _atom_site_label
  _atom_site_type_symbol
  _atom_site_fract_x
  _atom_site_fract_y
  _atom_site_fract_z
C1 C 0.19483 0.49881 0.43585
 C2 C 0.18189 0.49900 0.50426
 C3 C 0.19538 0.49892 0.57195
 C4 C 0.22509 0.50216 0.57172
 C5 C 0.24009 0.50465 0.50302
 C6 C 0.22462 0.50217 0.43484
 C7 C 0.24098 0.50677 0.36817
 C8 C 0.27149 0.51340 0.36777
 C9 C 0.28737 0.51663 0.43402
 C10 C 0.27161 0.51200 0.50249
 C11 C 0.24185 0.50675 0.63778
 C12 C 0.27238 0.51343 0.63713
 C13 C 0.28789 0.51631 0.57036
 C14 C 0.32017 0.52633 0.56913
 C15 C 0.33506 0.53131 0.50058
 C16 C 0.31927 0.52613 0.43370
 H17 H 0.23120 0.50707 0.31533
 H18 H 0.28311 0.51756 0.31485
 H19 H 0.23236 0.50709 0.69101
 H20 H 0.28428 0.51811 0.68981
 H21 H 0.15918 0.49658 0.50487
 H22 H 0.35910 0.53706 0.49874
 C23 C 0.53650 -0.28251 0.56718
 C24 C 0.54320 -0.29215 0.50124
 C25 C 0.54177 -0.27999 0.43251
 C26 C 0.53765 -0.25402 0.43146
 C27 C 0.53254 -0.24278 0.49893
 C28 C 0.53122 -0.25764 0.56670
 C29 C 0.52407 -0.24774 0.63205
 C30 C 0.51907 -0.22304 0.63148
 C31 C 0.52193 -0.20654 0.56590
 C32 C 0.52778 -0.21725 0.49841
 C33 C 0.53995 -0.23800 0.36561
 C34 C 0.53421 -0.21385 0.36456
 C35 C 0.52793 -0.20320 0.43007
 C36 C 0.52089 -0.17951 0.42905
 C37 C 0.51452 -0.16982 0.49543
 C38 C 0.51640 -0.18153 0.56443
 H39 H 0.52204 -0.25922 0.68433
 H40 H 0.51192 -0.21783 0.68293
 H41 H 0.54639 -0.24382 0.31389
 H42 H 0.53461 -0.20380 0.31143
 H43 H 0.54585 -0.31223 0.50337
 H44 H 0.51006 -0.15096 0.49311
 C45 C 1.17478 0.69193 0.56525
 C46 C 1.16596 0.67698 0.49578
 C47 C 1.17645 0.69402 0.42983
 C48 C 1.19813 0.72727 0.43199
 C49 C 1.20885 0.74302 0.50136
 C50 C 1.19622 0.72557 0.56830
 C51 C 1.20682 0.74207 0.63586
 C52 C 1.22960 0.77467 0.63783
 C53 C 1.24402 0.79196 0.57267
 C54 C 1.23271 0.77619 0.50364
 C55 C 1.20975 0.74503 0.36668
 C56 C 1.23265 0.77749 0.36910
 C57 C 1.24573 0.79326 0.43675
 C58 C 1.27035 0.82608 0.43907
 C59 C 1.27883 0.84190 0.50758
 C60 C 1.26833 0.82498 0.57455
 H61 H 1.19809 0.72998 0.68820
 H62 H 1.23579 0.78622 0.69138
 H63 H 1.20150 0.73394 0.31294
 H64 H 1.23996 0.79019 0.31710
 H65 H 1.14853 0.65150 0.49243
 H66 H 1.29795 0.86689 0.50910
 C67 C 0.70921 0.53245 0.43071
 C68 C 0.69501 0.53167 0.49737
 C69 C 0.70735 0.53072 0.56615
 C70 C 0.73463 0.52913 0.56770
 C71 C 0.74916 0.52939 0.49989
 C72 C 0.73648 0.53133 0.43130
 C73 C 0.75004 0.52992 0.36495
 C74 C 0.77505 0.52583 0.36525
 C75 C 0.78783 0.52337 0.43193
 C76 C 0.77498 0.52535 0.50023
 C77 C 0.74547 0.52343 0.63368
 C78 C 0.77058 0.51938 0.63397
 C79 C 0.78643 0.52113 0.56844
 C80 C 0.81098 0.51519 0.56777
 C81 C 0.82239 0.51251 0.49929
 C82 C 0.81180 0.51699 0.43215
 H83 H 0.74071 0.53087 0.31184
 H84 H 0.78346 0.52345 0.31226
 H85 H 0.73361 0.52019 0.68571
 H86 H 0.77609 0.51302 0.68611
 H87 H 0.67394 0.53241 0.49529
 H88 H 0.84121 0.50818 0.49783
 C89 C 0.46182 0.18356 0.44319
 C90 C 0.46046 0.17075 0.51259
 C91 C 0.46284 0.18682 0.57797
 C92 C 0.46624 0.21673 0.57451
 C93 C 0.46779 0.23026 0.50437
 C94 C 0.46541 0.21353 0.43837
 C95 C 0.46841 0.22796 0.36962
 C96 C 0.47417 0.25839 0.36537
 C97 C 0.47754 0.27568 0.42970
 C98 C 0.47389 0.26147 0.50009
 C99 C 0.46989 0.23420 0.63885
 C100 C 0.47559 0.26469 0.63475
 C101 C 0.47789 0.27898 0.56605
 C102 C 0.48681 0.31119 0.56076
 C103 C 0.49080 0.32459 0.49035
 C104 C 0.48596 0.30743 0.42557
 H105 H 0.46716 0.21626 0.31824
 H106 H 0.47696 0.26866 0.31105
 H107 H 0.46918 0.22476 0.69311
 H108 H 0.47943 0.27738 0.68615
 H109 H 0.45866 0.14816 0.51579
 H110 H 0.49635 0.34873 0.48525
 C111 C 0.85632 0.24758 0.56907
 C112 C 0.87249 0.25985 0.50233
 C113 C 0.85732 0.24788 0.43433
 C114 C 0.82571 0.22137 0.43253
 C115 C 0.80922 0.20793 0.49978
 C116 C 0.82451 0.22139 0.56825
 C117 C 0.80726 0.20927 0.63405
 C118 C 0.77540 0.18481 0.63286
 C119 C 0.75957 0.17065 0.56588
 C120 C 0.77674 0.18267 0.49836
 C121 C 0.80990 0.20877 0.36506
 C122 C 0.77817 0.18408 0.36340
 C123 C 0.76107 0.17101 0.42918
 C124 C 0.72828 0.14793 0.42770
 C125 C 0.71164 0.13705 0.49404
 C126 C 0.72647 0.14720 0.56336
 H127 H 0.81813 0.21918 0.68723
 H128 H 0.76324 0.17823 0.68524
 H129 H 0.82191 0.21826 0.31283
 H130 H 0.76698 0.17594 0.30984
 H131 H 0.89616 0.28125 0.50326
 H132 H 0.68639 0.11935 0.49126
 N133 N 0.94772 0.50393 0.07790
 N134 N 0.92354 0.50614 0.09485
 N135 N 1.01628 0.53339 0.12955
 N136 N 1.04042 0.55223 0.17285
 N137 N 1.01295 0.54999 0.07864
 N138 N 1.03447 0.58082 0.08700
 N139 N 0.95086 0.48654 0.12694
 N140 N 0.92873 0.47613 0.17788
 C141 C 0.91159 0.48811 0.15660
 C142 C 1.05138 0.58164 0.14621
 N143 N 1.03567 0.46981 0.08367
 N144 N 1.06211 0.47164 0.10176
 N145 N 0.96456 0.43763 0.12912
 N146 N 0.94317 0.41822 0.17753
 N147 N 0.97082 0.42173 0.08225
 N148 N 0.95405 0.39096 0.09839
 N149 N 1.02951 0.48513 0.13246
 N150 N 1.05153 0.49821 0.18357
 Mn151 Mn 0.99009 0.48553 0.13003
 C152 C 1.07187 0.48996 0.16403
 C153 C 0.93663 0.38921 0.15743
 N154 N 1.01333 0.54935 -0.08140
 N155 N 1.03494 0.58011 -0.09110
 N156 N 0.95127 0.48544 -0.12910
 N157 N 0.92985 0.47520 -0.18181
 N158 N 0.94787 0.50321 -0.08160
 N159 N 0.92405 0.50566 -0.10130
 N160 N 1.01655 0.53218 -0.13100
 N161 N 1.04050 0.55049 -0.17491
 Mn162 Mn 0.98049 0.52701 -0.00160
 C163 C 1.05167 0.58023 -0.14997
 C164 C 0.91271 0.48752 -0.16332
 N165 N 0.97098 0.42102 -0.07793
 N166 N 0.95366 0.39003 -0.09193
 N167 N 1.02980 0.48396 -0.12901
 N168 N 1.05235 0.49732 -0.17859
 N169 N 1.03589 0.46913 -0.07875
 N170 N 1.06284 0.47161 -0.09424
 N171 N 0.96487 0.43653 -0.12626
 N172 N 0.94305 0.41666 -0.17354
 Mn173 Mn 1.00364 0.44517 0.00230
 Mn174 Mn 0.99041 0.48436 -0.12929
 Cl175 Cl 0.99112 0.48544 0.00038
 C176 C 0.93612 0.38779 -0.15127
 C177 C 1.07293 0.48976 -0.15658
 N178 N 0.45722 0.43710 0.07621
 N179 N 0.44908 0.40725 0.08358
 N180 N 0.45385 0.49459 0.13059
 N181 N 0.44182 0.50573 0.17651
 N182 N 0.43265 0.47549 0.08160
 N183 N 0.40552 0.47280 0.09320
 N184 N 0.47815 0.45543 0.12648
 N185 N 0.48541 0.43885 0.16826
 C186 C 0.46707 0.40893 0.14127
 C187 C 0.41169 0.49190 0.15240
 N188 N 0.53924 0.56879 0.08258
 N189 N 0.55235 0.59913 0.10032
 N190 N 0.54095 0.51040 0.12726
 N191 N 0.55291 0.50011 0.17530
 N192 N 0.56211 0.52874 0.07752
 N193 N 0.58948 0.53203 0.09192
 N194 N 0.51784 0.55025 0.13176
 N195 N 0.51584 0.56742 0.18411
 Mn196 Mn 0.49759 0.50273 0.12978
 C197 C 0.53702 0.59777 0.16302
 C198 C 0.58303 0.51348 0.15264
 N199 N 0.43147 0.47707 -0.07644
 N200 N 0.40416 0.47448 -0.08514
 N201 N 0.47629 0.45798 -0.13380
 N202 N 0.48373 0.44256 -0.17927
 N203 N 0.45629 0.43861 -0.08349
 N204 N 0.44924 0.40923 -0.09410
 N205 N 0.45224 0.49706 -0.12471
 N206 N 0.43986 0.50881 -0.16720
 Mn207 Mn 0.44404 0.45661 -0.00054
 C208 C 0.40996 0.49462 -0.14188
 C209 C 0.46662 0.41225 -0.15443
 N210 N 0.56093 0.53011 -0.08457
 N211 N 0.58780 0.53305 -0.10339
 N212 N 0.51574 0.55263 -0.12495
 N213 N 0.51141 0.57056 -0.17005
 N214 N 0.53818 0.57032 -0.07686
 N215 N 0.54998 0.60091 -0.08855
 N216 N 0.53898 0.51306 -0.13415
 N217 N 0.54989 0.50355 -0.18672
 Mn218 Mn 0.55065 0.54979 -0.00035
 Mn219 Mn 0.49571 0.50527 -0.12998
 Cl220 Cl 0.49710 0.50367 -0.00021
 C221 C 0.58019 0.51585 -0.16716
 C222 C 0.53276 0.60055 -0.14653
 N223 N 0.42826 -0.02164 0.08515
 N224 N 0.39820 -0.03848 0.10486
 N225 N 0.48962 0.04062 0.13376
 N226 N 0.49945 0.06190 0.18721
 N227 N 0.47223 0.04428 0.08614
 N228 N 0.46927 0.06786 0.10695
 N229 N 0.44545 -0.02586 0.13224
 N230 N 0.42751 -0.04603 0.18456
 C231 C 0.39813 -0.05404 0.16602
 C232 C 0.48696 0.07898 0.16940
 N233 N 0.55716 0.02832 0.07580
 N234 N 0.58774 0.04814 0.08959
 N235 N 0.49651 -0.03558 0.12546
 N236 N 0.48637 -0.05845 0.17479
 N237 N 0.51377 -0.03801 0.07495
 N238 N 0.51630 -0.06241 0.08965
 N239 N 0.54030 0.03095 0.12704
 N240 N 0.55869 0.05293 0.17574
 Mn241 Mn 0.49297 0.00244 0.13012
 C242 C 0.58815 0.06361 0.15180
 C243 C 0.49857 -0.07519 0.15151
 N244 N 0.47039 0.04486 -0.07426
 N245 N 0.46878 0.06987 -0.08833
 N246 N 0.44237 -0.02504 -0.12562
 N247 N 0.42317 -0.04567 -0.17597
 N248 N 0.42633 -0.02120 -0.07438
 N249 N 0.39573 -0.03884 -0.08907
 N250 N 0.48661 0.04146 -0.12580
 N251 N 0.49706 0.06431 -0.17525
 Mn252 Mn 0.44910 0.01169 0.00564
 C253 C 0.48606 0.08201 -0.15102
 C254 C 0.39423 -0.05438 -0.15183
 N255 N 0.51165 -0.03772 -0.08572
 N256 N 0.51427 -0.06160 -0.10621
 N257 N 0.53708 0.03160 -0.13255
 N258 N 0.55401 0.05199 -0.18506
 N259 N 0.55524 0.02875 -0.08569
 N260 N 0.58526 0.04701 -0.10631
 N261 N 0.49342 -0.03473 -0.13214
 N262 N 0.48299 -0.05647 -0.18457
 Mn263 Mn 0.53486 -0.00467 -0.00516
 Mn264 Mn 0.48981 0.00324 -0.12943
 Cl265 Cl 0.49170 0.00316 0.00031
 C266 C 0.49577 -0.07335 -0.16752
 C267 C 0.58401 0.06175 -0.16804
 C268 C 1.14379 0.50997 0.31593
 C269 C 1.13610 0.48760 0.25947
 N270 N 1.14986 0.47064 0.25961
 C271 C 1.17060 0.47483 0.31397
 C272 C 1.17749 0.49660 0.37212
 N273 N 1.16359 0.51342 0.37084
 N274 N 1.13032 0.52701 0.31710
 C275 C 1.10871 0.52213 0.26544
 C276 C 1.09943 0.49856 0.21074
 N277 N 1.11373 0.48201 0.20823
 H278 H 1.17997 0.45990 0.31418
 H279 H 1.09805 0.53587 0.26881
 C280 C 0.55609 0.67001 0.31416
 C281 C 0.53358 0.66126 0.25809
 N282 N 0.51581 0.67400 0.25761
 C283 C 0.51926 0.69488 0.31101
 C284 C 0.54128 0.70319 0.36890
 N285 N 0.55897 0.69016 0.36839
 N286 N 0.57349 0.65687 0.31586
 C287 C 0.56901 0.63488 0.26460
 C288 C 0.54575 0.62523 0.20999
 N289 N 0.52855 0.63871 0.20781
 H290 H 0.50321 0.70283 0.31105
 H291 H 0.58259 0.62410 0.26812
 C292 C 0.32382 -0.10841 0.31556
 C293 C 0.33542 -0.12287 0.27139
 N294 N 0.32387 -0.15426 0.28031
 C295 C 0.30133 -0.17192 0.33169
 C296 C 0.29004 -0.15746 0.37790
 N297 N 0.30206 -0.12576 0.36865
 N298 N 0.33523 -0.07702 0.30616
 C299 C 0.35807 -0.05933 0.25521
 C300 C 0.37060 -0.07349 0.21327
 N301 N 0.35895 -0.10500 0.22232
 H302 H 0.29392 -0.19648 0.33947
 H303 H 0.36725 -0.03420 0.24952
 C304 C 0.84630 0.48618 0.30437
 C305 C 0.86259 0.51131 0.25379
 N306 N 0.86014 0.53694 0.25904
 C307 C 0.84251 0.53879 0.31327
 C308 C 0.82648 0.51380 0.36457
 N309 N 0.82885 0.48809 0.35838
 N310 N 0.84992 0.46130 0.30199
 C311 C 0.86966 0.46065 0.25220
 C312 C 0.88662 0.48607 0.20257
 N313 N 0.88238 0.51070 0.20392
 H314 H 0.84203 0.56006 0.31816
 H315 H 0.87271 0.44088 0.25263
 C316 C 0.46509 0.33646 0.26222
 C317 C 0.49337 0.36625 0.25225
 N318 N 0.51960 0.37363 0.29057
 C319 C 0.51854 0.35307 0.34103
 C320 C 0.48972 0.32429 0.35560
 N321 N 0.46371 0.31633 0.31470
 N322 N 0.43878 0.32956 0.22444
 C323 C 0.43924 0.35155 0.17923
 C324 C 0.46694 0.38215 0.17398
 N325 N 0.49344 0.38846 0.20968
 H326 H 0.53940 0.36010 0.37348
 H327 H 0.41773 0.34594 0.15182
 C328 C 0.66326 0.12393 0.29517
 C329 C 0.66587 0.10338 0.24725
 N330 N 0.69073 0.10012 0.25502
 C331 C 0.71264 0.11593 0.30949
 C332 C 0.70934 0.13561 0.35897
 N333 N 0.68474 0.13919 0.34995
 N334 N 0.63803 0.12654 0.28980
 C335 C 0.61470 0.10883 0.24008
 C336 C 0.61637 0.08715 0.19403
 N337 N 0.64226 0.08525 0.19782
 H338 H 0.73158 0.11207 0.31631
 H339 H 0.59440 0.11077 0.23847
 C340 C 0.49161 0.15080 -0.29451
 C341 C 0.46718 0.13596 -0.24217
 N342 N 0.44322 0.14081 -0.24525
 C343 C 0.44222 0.15917 -0.29939
 C344 C 0.46609 0.17297 -0.35330
 N345 N 0.49030 0.16858 -0.34882
 N346 N 0.51495 0.14518 -0.29395
 C347 C 0.51460 0.12462 -0.24468
 C348 C 0.48957 0.10860 -0.19411
 N349 N 0.46660 0.11504 -0.19314
 H350 H 0.42230 0.16169 -0.30253
 H351 H 0.53311 0.11993 -0.24680
 C352 C 0.63922 0.50929 -0.32029
 C353 C 0.65284 0.52958 -0.25894
 N354 N 0.68490 0.54865 -0.25394
 C355 C 0.70379 0.54855 -0.30788
 C356 C 0.68995 0.52896 -0.37088
 N357 N 0.65788 0.50994 -0.37459
 N358 N 0.60746 0.49007 -0.32649
 C359 C 0.58842 0.49072 -0.27502
 C360 C 0.60162 0.51218 -0.21516
 N361 N 0.63375 0.53096 -0.20774
 H362 H 0.72914 0.56497 -0.30372
 H363 H 0.56308 0.47526 -0.28237
 C364 C 0.87754 0.30921 -0.28900
 C365 C 0.90449 0.31266 -0.25641
 N366 N 0.91379 0.29296 -0.27766
 C367 C 0.89771 0.27040 -0.33095
 C368 C 0.87111 0.26739 -0.36435
 N369 N 0.86160 0.28679 -0.34204
 N370 N 0.86911 0.32988 -0.27128
 C371 C 0.88678 0.35436 -0.22360
 C372 C 0.91413 0.35837 -0.19199
 N373 N 0.92220 0.33715 -0.20847
 H374 H 0.90611 0.25566 -0.34875
 H375 H 0.88006 0.37108 -0.21202
 C376 C 0.49146 -0.13904 -0.32139
 C377 C 0.51190 -0.12952 -0.26051
 N378 N 0.53216 -0.13933 -0.25589
 C379 C 0.53314 -0.15792 -0.30971
 C380 C 0.51317 -0.16684 -0.37220
 N381 N 0.49293 -0.15687 -0.37551
 N382 N 0.47152 -0.12903 -0.32760
 C383 C 0.47151 -0.10924 -0.27641
 C384 C 0.49281 -0.09841 -0.21664
 N385 N 0.51237 -0.10915 -0.20954
 H386 H 0.55088 -0.16362 -0.30605
 H387 H 0.45561 -0.10129 -0.28368
 C388 C 0.34532 0.50492 -0.26455
 C389 C 0.37784 0.52833 -0.26561
 N390 N 0.38952 0.55287 -0.31374
 C391 C 0.37041 0.55434 -0.36373
 C392 C 0.33805 0.52965 -0.36743
 N393 N 0.32615 0.50594 -0.31580
 N394 N 0.33404 0.48002 -0.21687
 C395 C 0.35400 0.47702 -0.17209
 C396 C 0.38674 0.49946 -0.17696
 N397 N 0.39766 0.52484 -0.22272
 H398 H 0.38067 0.57399 -0.40248
 H399 H 0.34459 0.45648 -0.13629
 C400 C 1.12496 0.65691 -0.27122
 C401 C 1.11998 0.62648 -0.27258
 N402 N 1.13634 0.62001 -0.32033
 C403 C 1.15659 0.64217 -0.36949
 C404 C 1.16040 0.67224 -0.37238
 N405 N 1.14494 0.67912 -0.32145
 N406 N 1.10763 0.66268 -0.22404
 C407 C 1.08498 0.63911 -0.17992
 C408 C 1.07894 0.60824 -0.18480
 N409 N 1.09707 0.60305 -0.23021
 H410 H 1.16878 0.63594 -0.40806
 H411 H 1.07087 0.64400 -0.14445
 C412 C 0.84967 0.48657 -0.31734
 C413 C 0.85983 0.50720 -0.25636
 N414 N 0.85179 0.52901 -0.25198
 C415 C 0.83434 0.53131 -0.30619
 C416 C 0.82475 0.51109 -0.36866
 N417 N 0.83293 0.48931 -0.37170
 N418 N 0.85809 0.46523 -0.32351
 C419 C 0.87695 0.46402 -0.27213
 C420 C 0.88837 0.48546 -0.21227
 N421 N 0.87918 0.50640 -0.20521
 H422 H 0.83000 0.55017 -0.30278
 H423 H 0.88377 0.44711 -0.27934
 C424 C 0.46937 0.34178 -0.27549
 C425 C 0.49360 0.37419 -0.28020
 N426 N 0.51699 0.38405 -0.33032
 C427 C 0.51664 0.36320 -0.37862
 C428 C 0.49136 0.33085 -0.37812
 N429 N 0.46865 0.32077 -0.32481
 N430 N 0.44564 0.33245 -0.22576
 C431 C 0.44471 0.35422 -0.18216
 C432 C 0.46819 0.38681 -0.19014
 N433 N 0.49224 0.39573 -0.23822
 H434 H 0.53542 0.37204 -0.41904
 H435 H 0.42521 0.34636 -0.14436
 C436 C 0.65617 0.11655 -0.32322
 C437 C 0.66242 0.10345 -0.26248
 N438 N 0.69088 0.10659 -0.25821
 C439 C 0.71317 0.12204 -0.31209
 C440 C 0.70655 0.13458 -0.37409
 N441 N 0.67793 0.13113 -0.37733
 N442 N 0.62798 0.11356 -0.32884
 C443 C 0.60528 0.09741 -0.27717
 C444 C 0.61064 0.08293 -0.21750
 N445 N 0.63939 0.08657 -0.21097
 H446 H 0.73494 0.12277 -0.30861
 H447 H 0.58287 0.09517 -0.28399
 C448 C 1.14586 0.51098 -0.30530
 C449 C 1.13759 0.48792 -0.25042
 N450 N 1.15081 0.47047 -0.25207
 C451 C 1.17146 0.47473 -0.30663
 C452 C 1.17865 0.49697 -0.36358
 N453 N 1.16544 0.51440 -0.36062
 N454 N 1.13297 0.52856 -0.30491
 C455 C 1.11126 0.52348 -0.25346
 C456 C 1.10119 0.49906 -0.20089
 N457 N 1.11503 0.48206 -0.19964
 H458 H 1.18045 0.45946 -0.30814
 H459 H 1.10097 0.53757 -0.25570
 C460 C 0.54849 0.67814 -0.27462
 C461 C 0.51825 0.65007 -0.26921
 N462 N 0.49424 0.64655 -0.31096
 C463 C 0.49925 0.66950 -0.35951
 C464 C 0.52977 0.69685 -0.36808
 N465 N 0.55378 0.70068 -0.32504
 N466 N 0.57242 0.68144 -0.23258
 C467 C 0.56764 0.65762 -0.18673
 C468 C 0.53784 0.62883 -0.18474
 N469 N 0.51381 0.62598 -0.22558
 H470 H 0.47998 0.66570 -0.39414
 H471 H 0.58726 0.66052 -0.15520
 C472 C 0.31857 -0.11018 -0.29702
 C473 C 0.33028 -0.12433 -0.25226
 N474 N 0.31913 -0.15565 -0.26134
 C475 C 0.29710 -0.17345 -0.31387
 C476 C 0.28611 -0.15913 -0.36134
 N477 N 0.29746 -0.12761 -0.35129
 N478 N 0.32979 -0.07879 -0.28813
 C479 C 0.35272 -0.06075 -0.23744
 C480 C 0.36556 -0.07453 -0.19534
 N481 N 0.35396 -0.10608 -0.20358
 H482 H 0.29025 -0.19784 -0.32205
 H483 H 0.36195 -0.03557 -0.23267
 C484 C 0.49342 -0.14386 0.29518
 C485 C 0.52022 -0.12536 0.25068
 N486 N 0.54604 -0.12676 0.26164
 C487 C 0.54642 -0.14546 0.31574
 C488 C 0.51972 -0.16367 0.36100
 N489 N 0.49389 -0.16232 0.34916
 N490 N 0.46819 -0.14135 0.28738
 C491 C 0.46874 -0.12062 0.23818
 C492 C 0.49577 -0.10142 0.19479
 N493 N 0.52084 -0.10451 0.20139
 H494 H 0.56777 -0.14507 0.32541
 H495 H 0.44860 -0.11846 0.23448
 C496 C 0.34579 0.50067 0.27379
 C497 C 0.37748 0.52630 0.26864
 N498 N 0.38767 0.55318 0.30855
 C499 C 0.36796 0.55509 0.35598
 C500 C 0.33696 0.52848 0.36614
 N501 N 0.32642 0.50207 0.32344
 N502 N 0.33570 0.47381 0.23361
 C503 C 0.35609 0.47111 0.19013
 C504 C 0.38822 0.49589 0.18910
 N505 N 0.39804 0.52311 0.22765
 H506 H 0.37703 0.57630 0.38955
 H507 H 0.34763 0.44919 0.15987
 C508 C 1.12337 0.65890 0.26783
 C509 C 1.12289 0.63082 0.25840
 N510 N 1.14330 0.62657 0.29695
 C511 C 1.16341 0.64859 0.34704
 C512 C 1.16238 0.67561 0.36096
 N513 N 1.14271 0.68044 0.31989
 N514 N 1.10244 0.66269 0.22966
 C515 C 1.08037 0.63918 0.18444
 C516 C 1.07851 0.61022 0.17954
 N517 N 1.10021 0.60706 0.21576
 H518 H 1.17856 0.64403 0.37943
 H519 H 1.06326 0.64226 0.15661
 C520 C 0.48894 0.14324 0.32332
 C521 C 0.46563 0.12969 0.26799
 N522 N 0.44206 0.13513 0.26886
 C523 C 0.44063 0.15329 0.32295
 C524 C 0.46384 0.16659 0.37866
 N525 N 0.48739 0.16113 0.37719
 N526 N 0.51198 0.13717 0.32431
 C527 C 0.51253 0.11764 0.27316
 C528 C 0.48890 0.10337 0.21857
 N529 N 0.46608 0.11000 0.21679
 H530 H 0.42126 0.15672 0.32356
 H531 H 0.53090 0.11276 0.27609
 C532 C 0.64418 0.50629 0.29675
 C533 C 0.65625 0.53301 0.25049
 N534 N 0.68659 0.55806 0.26001
 C535 C 0.70511 0.55782 0.31459
 C536 C 0.69257 0.53152 0.36241
 N537 N 0.66242 0.50634 0.35172
 N538 N 0.61373 0.48160 0.28942
 C539 C 0.59438 0.48269 0.23934
 C540 C 0.60578 0.50990 0.19501
 N541 N 0.63673 0.53437 0.20077
 H542 H 0.72885 0.57844 0.32267
 H543 H 0.56991 0.46295 0.23613
 C544 C 0.87914 0.31110 0.29694
 C545 C 0.90556 0.31417 0.26239
 N546 N 0.91453 0.29397 0.28136
 C547 C 0.89858 0.27120 0.33411
 C548 C 0.87242 0.26847 0.36919
 N549 N 0.86330 0.28844 0.34928
 N550 N 0.87100 0.33216 0.28134
 C551 C 0.88842 0.35662 0.23372
 C552 C 0.91517 0.36019 0.19985
 N553 N 0.92298 0.33862 0.21437
 H554 H 0.90665 0.25597 0.34990
 H555 H 0.88185 0.37356 0.22362
   
