data_POSCAR
  _audit_creation_date              2014-09-24
  _audit_creation_method            'ToBaCCo'
  _symmetry_space_group_name_H-M    'P1'
  _symmetry_Int_Tables_number       1
  _symmetry_cell_setting            triclinic
  loop_
  _symmetry_equiv_pos_as_xyz
 x,y,z
_cell_length_a 40.3248
_cell_length_b 40.2901
_cell_length_c 17.0070
_cell_angle_alpha 90.000700
_cell_angle_beta 89.928000
_cell_angle_gamma 119.975000
loop_
  _atom_site_label
  _atom_site_type_symbol
  _atom_site_fract_x
  _atom_site_fract_y
  _atom_site_fract_z
C1 C 0.12608 0.42993 0.49745
 C2 C 0.14326 0.43027 0.42548
 C3 C 0.17702 0.42820 0.42717
 C4 C 0.19146 0.42200 0.49836
 C5 C 0.17128 0.41901 0.56900
 C6 C 0.13988 0.42521 0.56983
 C7 C 0.22905 0.42199 0.49965
 C8 C 0.24967 0.42801 0.57090
 C9 C 0.28553 0.43028 0.57209
 C10 C 0.30224 0.42956 0.50055
 C11 C 0.28378 0.42510 0.42857
 C12 C 0.24636 0.41916 0.42896
 H13 H 0.10259 0.43582 0.49740
 H14 H 0.19300 0.43382 0.37353
 H15 H 0.18070 0.41335 0.62371
 H16 H 0.23935 0.43322 0.62507
 H17 H 0.33142 0.43498 0.50060
 H18 H 0.23170 0.41378 0.37373
 C19 C 0.56974 -0.30433 0.49787
 C20 C 0.56939 -0.28745 0.42600
 C21 C 0.57139 -0.25163 0.42787
 C22 C 0.57753 -0.23103 0.49914
 C23 C 0.58053 -0.24826 0.56967
 C24 C 0.57441 -0.28585 0.57032
 C25 C 0.57748 -0.19343 0.50061
 C26 C 0.57142 -0.17886 0.57196
 C27 C 0.56909 -0.14527 0.57329
 C28 C 0.56978 -0.12782 0.50182
 C29 C 0.57429 -0.14180 0.42976
 C30 C 0.58030 -0.17326 0.42999
 H31 H 0.56392 -0.33370 0.49770
 H32 H 0.56575 -0.24125 0.37432
 H33 H 0.58615 -0.23321 0.62442
 H34 H 0.56626 -0.19439 0.62611
 H35 H 0.56432 -0.10406 0.50200
 H36 H 0.58572 -0.18251 0.37470
 C37 C 1.30291 0.87343 0.49863
 C38 C 1.28632 0.85624 0.42663
 C39 C 1.25053 0.82236 0.42822
 C40 C 1.22978 0.80779 0.49943
 C41 C 1.24687 0.82791 0.57007
 C42 C 1.28428 0.85935 0.57056
 C43 C 1.19224 0.77018 0.50068
 C44 C 1.17771 0.74937 0.57183
 C45 C 1.14392 0.71349 0.57333
 C46 C 1.12677 0.69691 0.50128
 C47 C 1.14081 0.71562 0.42942
 C48 C 1.17214 0.75311 0.43003
 H49 H 1.33215 0.89712 0.49913
 H50 H 1.24028 0.80640 0.37458
 H51 H 1.23204 0.81858 0.62521
 H52 H 1.19364 0.75964 0.62547
 H53 H 1.10316 0.66761 0.50070
 H54 H 1.18142 0.76799 0.37495
 C55 C 0.87281 0.57002 0.49819
 C56 C 0.85549 0.56953 0.42675
 C57 C 0.82203 0.57203 0.42816
 C58 C 0.80741 0.57797 0.49957
 C59 C 0.82742 0.58054 0.57018
 C60 C 0.85882 0.57447 0.57030
 C61 C 0.76994 0.57821 0.50101
 C62 C 0.74927 0.57218 0.57230
 C63 C 0.71349 0.57029 0.57396
 C64 C 0.69685 0.57086 0.50198
 C65 C 0.71542 0.57532 0.43001
 C66 C 0.75279 0.58121 0.43041
 H67 H 0.89652 0.56450 0.49793
 H68 H 0.80664 0.56709 0.37398
 H69 H 0.81811 0.58585 0.62552
 H70 H 0.75956 0.56656 0.62597
 H71 H 0.66763 0.56533 0.50154
 H72 H 0.76751 0.58656 0.37519
 C73 C 0.43063 0.30357 0.50085
 C74 C 0.43094 0.28654 0.42949
 C75 C 0.42834 0.25053 0.43108
 C76 C 0.42229 0.23002 0.50250
 C77 C 0.41969 0.24753 0.57308
 C78 C 0.42599 0.28522 0.57345
 C79 C 0.42193 0.19222 0.50397
 C80 C 0.42805 0.17763 0.57517
 C81 C 0.42980 0.14363 0.57679
 C82 C 0.42908 0.12631 0.50481
 C83 C 0.42458 0.14040 0.43290
 C84 C 0.41874 0.17194 0.43340
 H85 H 0.43642 0.33292 0.49999
 H86 H 0.43330 0.23999 0.37697
 H87 H 0.41411 0.23258 0.62799
 H88 H 0.43387 0.19365 0.62877
 H89 H 0.43454 0.10254 0.50429
 H90 H 0.41329 0.18126 0.37826
 C91 C 0.69725 0.12760 0.49995
 C92 C 0.71406 0.14487 0.42837
 C93 C 0.75007 0.17828 0.42947
 C94 C 0.77068 0.19289 0.50071
 C95 C 0.75324 0.17293 0.57150
 C96 C 0.71574 0.14159 0.57191
 C97 C 0.80845 0.23030 0.50181
 C98 C 0.82318 0.25101 0.57294
 C99 C 0.85714 0.28674 0.57428
 C100 C 0.87433 0.30330 0.50216
 C101 C 0.86014 0.28470 0.43033
 C102 C 0.82857 0.24736 0.43104
 H103 H 0.66801 0.10394 0.49993
 H104 H 0.76053 0.19365 0.37518
 H105 H 0.76789 0.18223 0.62673
 H106 H 0.80729 0.24079 0.62672
 H107 H 0.89810 0.33251 0.50148
 H108 H 0.81913 0.23261 0.37593
 N109 N 0.96073 0.44430 0.13637
 N110 N 0.93892 0.42564 0.19673
 N111 N 1.04109 0.46062 0.08426
 N112 N 1.06372 0.44759 0.10856
 N113 N 1.04128 0.48515 0.13541
 N114 N 1.06427 0.48985 0.19428
 N115 N 0.96085 0.42018 0.08456
 N116 N 0.93939 0.38445 0.10958
 C117 C 0.92477 0.38834 0.17860
 C118 C 1.07908 0.46729 0.17617
 N119 N 1.04082 0.48437 -0.13892
 N120 N 1.06246 0.48736 -0.19949
 N121 N 0.96052 0.42026 -0.08661
 N122 N 0.93778 0.38457 -0.11053
 N123 N 0.96028 0.44453 -0.13786
 N124 N 0.93715 0.42615 -0.19651
 N125 N 1.04076 0.46018 -0.08704
 N126 N 1.06210 0.44580 -0.11225
 Mn127 Mn 1.00081 0.43996 -0.00121
 C128 C 1.07658 0.46418 -0.18144
 C129 C 0.92232 0.38880 -0.17808
 N130 N 1.04087 0.55600 0.13597
 N131 N 1.06263 0.57471 0.19622
 N132 N 0.96045 0.53960 0.08443
 N133 N 0.93755 0.55237 0.10833
 N134 N 0.96032 0.51515 0.13570
 N135 N 0.93711 0.51027 0.19441
 N136 N 1.04069 0.58007 0.08411
 N137 N 1.06208 0.61582 0.10899
 Mn138 Mn 1.00080 0.50015 0.13589
 C139 C 1.07670 0.61199 0.17796
 C140 C 0.92212 0.53264 0.17596
 N141 N 0.96053 0.51575 -0.13848
 N142 N 0.93856 0.51250 -0.19848
 N143 N 1.04089 0.57988 -0.08699
 N144 N 1.06361 0.61557 -0.11107
 N145 N 1.04108 0.55560 -0.13829
 N146 N 1.06416 0.57397 -0.19715
 N147 N 0.96064 0.53994 -0.08655
 N148 N 0.93900 0.55405 -0.11106
 Mn149 Mn 1.00068 0.50006 -0.13843
 Mn150 Mn 1.00068 0.56022 -0.00126
 Cl151 Cl 1.00075 0.50010 -0.00126
 C152 C 0.92430 0.53553 -0.17993
 C153 C 1.07901 0.61132 -0.17879
 N154 N 0.55581 0.51621 0.13692
 N155 N 0.57445 0.51312 0.19728
 N156 N 0.53935 0.58012 0.08449
 N157 N 0.55232 0.61579 0.10877
 N158 N 0.51479 0.55580 0.13565
 N159 N 0.51001 0.57412 0.19449
 N160 N 0.57991 0.54039 0.08498
 N161 N 0.61561 0.55466 0.10988
 C162 C 0.61172 0.53624 0.17899
 C163 C 0.53255 0.61148 0.17637
 N164 N 0.51586 0.55588 -0.13865
 N165 N 0.51282 0.57447 -0.19925
 N166 N 0.58000 0.53984 -0.08619
 N167 N 0.61569 0.55288 -0.11023
 N168 N 0.55582 0.51523 -0.13732
 N169 N 0.57427 0.51051 -0.19599
 N170 N 0.53992 0.58007 -0.08680
 N171 N 0.55416 0.61577 -0.11202
 Mn172 Mn 0.56014 0.56046 -0.00088
 C173 C 0.53584 0.61179 -0.18122
 C174 C 0.61156 0.53313 -0.17772
 N175 N 0.44412 0.48449 0.13643
 N176 N 0.42530 0.48765 0.19649
 N177 N 0.46077 0.42049 0.08533
 N178 N 0.44800 0.38486 0.10961
 N179 N 0.48514 0.44490 0.13647
 N180 N 0.48997 0.42668 0.19540
 N181 N 0.42017 0.46020 0.08460
 N182 N 0.38440 0.44591 0.10926
 Mn183 Mn 0.49996 0.50035 0.13640
 C184 C 0.38808 0.46445 0.17809
 C185 C 0.46766 0.38929 0.17728
 N186 N 0.48476 0.44422 -0.13778
 N187 N 0.48791 0.42546 -0.19796
 N188 N 0.42052 0.46043 -0.08641
 N189 N 0.38487 0.44762 -0.11020
 N190 N 0.44480 0.48486 -0.13778
 N191 N 0.42646 0.48968 -0.19645
 N192 N 0.46057 0.42017 -0.08579
 N193 N 0.44635 0.38440 -0.11048
 Mn194 Mn 0.50031 0.50005 -0.13792
 Mn195 Mn 0.44016 0.43997 -0.00057
 Cl196 Cl 0.50015 0.50021 -0.00075
 C197 C 0.46482 0.38819 -0.17949
 C198 C 0.38914 0.46729 -0.17787
 N199 N 0.41968 -0.04056 0.08677
 N200 N 0.38402 -0.06330 0.11082
 N201 N 0.48366 0.03974 0.13912
 N202 N 0.48673 0.06146 0.19957
 N203 N 0.45953 0.03975 0.08730
 N204 N 0.44528 0.06123 0.11237
 N205 N 0.44391 -0.04087 0.13791
 N206 N 0.42552 -0.06406 0.19661
 C207 C 0.38822 -0.07885 0.17833
 C208 C 0.46366 0.07570 0.18145
 N209 N 0.57914 0.03999 0.08682
 N210 N 0.61479 0.06289 0.11058
 N211 N 0.51509 -0.04054 0.13828
 N212 N 0.51192 -0.06252 0.19833
 N213 N 0.53931 -0.04032 0.08627
 N214 N 0.55354 -0.06188 0.11080
 N215 N 0.55485 0.04007 0.13823
 N216 N 0.57316 0.06322 0.19693
 Mn217 Mn 0.49938 -0.00040 0.13844
 C218 C 0.61048 0.07824 0.17829
 C219 C 0.53503 -0.07666 0.17973
 N220 N 0.46007 0.04036 -0.08386
 N221 N 0.44713 0.06312 -0.10775
 N222 N 0.44384 -0.03995 -0.13638
 N223 N 0.42521 -0.06170 -0.19673
 N224 N 0.41972 -0.03996 -0.08439
 N225 N 0.38402 -0.06146 -0.10925
 N226 N 0.48460 0.04066 -0.13517
 N227 N 0.48937 0.06386 -0.19381
 Mn228 Mn 0.43940 -0.00010 0.00145
 C229 C 0.46685 0.07867 -0.17533
 C230 C 0.38794 -0.07595 -0.17838
 N231 N 0.53906 -0.04025 -0.08472
 N232 N 0.55179 -0.06318 -0.10863
 N233 N 0.55544 0.04031 -0.13601
 N234 N 0.57421 0.06232 -0.19607
 N235 N 0.57944 0.04007 -0.08417
 N236 N 0.61519 0.06166 -0.10881
 N237 N 0.51468 -0.04031 -0.13597
 N238 N 0.50983 -0.06349 -0.19468
 Mn239 Mn 0.55958 -0.00013 0.00105
 Mn240 Mn 0.49964 0.00018 -0.13593
 Cl241 Cl 0.49950 -0.00011 0.00125
 C242 C 0.53214 -0.07854 -0.17624
 C243 C 0.61145 0.07647 -0.17764
 C244 C 1.12847 0.43853 0.35518
 C245 C 1.08449 0.41376 0.34914
 C246 C 1.06899 0.42345 0.28894
 C247 C 1.09845 0.45648 0.23816
 C248 C 1.12144 0.48951 0.29568
 C249 C 1.13696 0.48020 0.35629
 C250 C 1.14238 0.43385 0.27289
 C251 C 1.12664 0.44347 0.21167
 H252 H 1.06703 0.38971 0.38762
 H253 H 1.03850 0.40792 0.27664
 H254 H 1.12611 0.51831 0.28824
 H255 H 1.15466 0.50108 0.40036
 H256 H 1.16098 0.42208 0.26233
 H257 H 1.13260 0.44069 0.15053
 C258 C 0.56119 0.68954 0.35561
 C259 C 0.58596 0.67030 0.34934
 C260 C 0.57630 0.64514 0.28905
 C261 C 0.54332 0.64165 0.23843
 C262 C 0.51029 0.63159 0.29607
 C263 C 0.51955 0.65639 0.35676
 C264 C 0.56589 0.70820 0.27340
 C265 C 0.55632 0.68287 0.21209
 H266 H 0.60997 0.67684 0.38772
 H267 H 0.59185 0.63018 0.27658
 H268 H 0.48152 0.60749 0.28865
 H269 H 0.49867 0.65320 0.40093
 H270 H 0.57764 0.73857 0.26296
 H271 H 0.55912 0.69165 0.15098
 C272 C 0.30956 -0.12882 0.35654
 C273 C 0.29134 -0.14283 0.27411
 C274 C 0.31689 -0.12689 0.21316
 C275 C 0.35789 -0.09844 0.24006
 C276 C 0.35386 -0.06913 0.29041
 C277 C 0.32848 -0.08482 0.35034
 C278 C 0.34293 -0.13699 0.35833
 C279 C 0.36795 -0.12128 0.29801
 H280 H 0.26108 -0.16166 0.26324
 H281 H 0.30842 -0.13290 0.15194
 H282 H 0.36865 -0.03861 0.27804
 H283 H 0.32156 -0.06751 0.38852
 H284 H 0.34609 -0.15464 0.40264
 H285 H 0.39223 -0.12572 0.29105
 C286 C 0.87130 0.56084 0.35304
 C287 C 0.86409 0.51966 0.35620
 C288 C 0.88007 0.51045 0.29622
 C289 C 0.90222 0.54317 0.23737
 C290 C 0.87302 0.55469 0.21005
 C291 C 0.85674 0.56408 0.27071
 C292 C 0.91508 0.58652 0.34663
 C293 C 0.93112 0.57707 0.28695
 H294 H 0.84686 0.49903 0.40116
 H295 H 0.87627 0.48192 0.29015
 H296 H 0.86643 0.55625 0.14878
 H297 H 0.83680 0.57420 0.25991
 H298 H 0.93199 0.61085 0.38476
 H299 H 0.96160 0.59315 0.27455
 C300 C 0.43956 0.31083 0.35548
 C301 C 0.41412 0.32924 0.34924
 C302 C 0.42353 0.35453 0.28919
 C303 C 0.45714 0.35903 0.23908
 C304 C 0.48998 0.36956 0.29740
 C305 C 0.48081 0.34457 0.35775
 C306 C 0.43590 0.29265 0.27334
 C307 C 0.44525 0.31811 0.21231
 H308 H 0.38999 0.32217 0.38777
 H309 H 0.40761 0.36911 0.27687
 H310 H 0.51854 0.39412 0.29070
 H311 H 0.50151 0.34798 0.40243
 H312 H 0.42551 0.26250 0.26295
 H313 H 0.44340 0.30970 0.15114
 C314 C 0.68953 0.12906 0.35484
 C315 C 0.67136 0.08523 0.34869
 C316 C 0.64585 0.06919 0.28920
 C317 C 0.64091 0.09814 0.23952
 C318 C 0.63043 0.12038 0.29833
 C319 C 0.65565 0.13637 0.35812
 C320 C 0.70730 0.14358 0.27237
 C321 C 0.68161 0.12730 0.21190
 H322 H 0.67873 0.06829 0.38687
 H323 H 0.63138 0.03867 0.27701
 H324 H 0.60575 0.12422 0.29235
 H325 H 0.65232 0.15365 0.40303
 H326 H 0.73733 0.16348 0.26135
 H327 H 0.68973 0.13385 0.15057
 C328 C 0.43811 0.12869 -0.35320
 C329 C 0.41298 0.08471 -0.34677
 C330 C 0.42268 0.06900 -0.28696
 C331 C 0.45609 0.09828 -0.23692
 C332 C 0.48891 0.12097 -0.29520
 C333 C 0.47958 0.13670 -0.35541
 C334 C 0.43406 0.14284 -0.27072
 C335 C 0.44368 0.12688 -0.20988
 H336 H 0.38870 0.06743 -0.38470
 H337 H 0.40693 0.03850 -0.27445
 H338 H 0.51759 0.12532 -0.28853
 H339 H 0.50034 0.15426 -0.39991
 H340 H 0.42273 0.16178 -0.25973
 H341 H 0.44133 0.13298 -0.14863
 C342 C 0.69026 0.56198 -0.35592
 C343 C 0.70848 0.56619 -0.27350
 C344 C 0.68292 0.55653 -0.21254
 C345 C 0.64192 0.54395 -0.23943
 C346 C 0.64591 0.57728 -0.28975
 C347 C 0.67130 0.58701 -0.34967
 C348 C 0.65692 0.52042 -0.35774
 C349 C 0.63189 0.51107 -0.29742
 H350 H 0.73875 0.57765 -0.26263
 H351 H 0.69140 0.55899 -0.15132
 H352 H 0.63110 0.59298 -0.27733
 H353 H 0.67820 0.61125 -0.38781
 H354 H 0.65379 0.49962 -0.40207
 H355 H 0.60765 0.48232 -0.29049
 C356 C 0.87215 0.31002 -0.35577
 C357 C 0.91610 0.32881 -0.34977
 C358 C 0.93186 0.35424 -0.29002
 C359 C 0.90267 0.35843 -0.23962
 C360 C 0.87993 0.36859 -0.29758
 C361 C 0.86415 0.34352 -0.35772
 C362 C 0.85812 0.29185 -0.27321
 C363 C 0.87413 0.31745 -0.21244
 H364 H 0.93333 0.32178 -0.38794
 H365 H 0.96235 0.36894 -0.27778
 H366 H 0.87560 0.39295 -0.29075
 H367 H 0.84656 0.34674 -0.40201
 H368 H 0.83922 0.26158 -0.26212
 H369 H 0.86811 0.30900 -0.15116
 C370 C 0.56035 -0.12946 -0.35309
 C371 C 0.56336 -0.14416 -0.27071
 C372 C 0.55396 -0.12785 -0.21014
 C373 C 0.54265 -0.09848 -0.23759
 C374 C 0.57667 -0.06959 -0.28708
 C375 C 0.58613 -0.08566 -0.34666
 C376 C 0.51927 -0.13651 -0.35643
 C377 C 0.51004 -0.12049 -0.29654
 H378 H 0.57333 -0.16422 -0.25983
 H379 H 0.55536 -0.13453 -0.14885
 H380 H 0.59280 -0.03909 -0.27471
 H381 H 0.61052 -0.06877 -0.38473
 H382 H 0.49871 -0.15365 -0.40144
 H383 H 0.48158 -0.12418 -0.29060
 C384 C 0.31007 0.43903 -0.35440
 C385 C 0.32807 0.41322 -0.34795
 C386 C 0.35359 0.42270 -0.28848
 C387 C 0.35871 0.45675 -0.23910
 C388 C 0.36929 0.48938 -0.29820
 C389 C 0.34407 0.48014 -0.35798
 C390 C 0.29237 0.43601 -0.27196
 C391 C 0.31806 0.44543 -0.21149
 H392 H 0.32057 0.38881 -0.38592
 H393 H 0.36794 0.40656 -0.27607
 H394 H 0.39405 0.51787 -0.29242
 H395 H 0.34748 0.50071 -0.40307
 H396 H 0.26236 0.42601 -0.26095
 H397 H 0.30998 0.44402 -0.15017
 C398 C 1.12898 0.69018 -0.35668
 C399 C 1.13713 0.65676 -0.35875
 C400 C 1.12140 0.63166 -0.29855
 C401 C 1.09859 0.64170 -0.24043
 C402 C 1.12702 0.68271 -0.21336
 C403 C 1.14297 0.70833 -0.27419
 C404 C 1.08502 0.67124 -0.35043
 C405 C 1.06932 0.64578 -0.29063
 H406 H 1.15477 0.65363 -0.40317
 H407 H 1.12582 0.60734 -0.29179
 H408 H 1.13302 0.69113 -0.15211
 H409 H 1.16180 0.73861 -0.26317
 H410 H 1.06773 0.67819 -0.38851
 H411 H 1.03882 0.63095 -0.27827
 C412 C 0.87502 0.56623 -0.35593
 C413 C 0.86438 0.52385 -0.35565
 C414 C 0.88004 0.51402 -0.29619
 C415 C 0.90523 0.54725 -0.24100
 C416 C 0.93473 0.57891 -0.29449
 C417 C 0.91909 0.58905 -0.35381
 C418 C 0.86312 0.57254 -0.27310
 C419 C 0.87905 0.56252 -0.21286
 H420 H 0.84516 0.50293 -0.39806
 H421 H 0.87407 0.48481 -0.28805
 H422 H 0.96543 0.59302 -0.28503
 H423 H 0.93652 0.61198 -0.39460
 H424 H 0.84491 0.58466 -0.26170
 H425 H 0.87394 0.56572 -0.15139
 C426 C 0.43383 0.30838 -0.35632
 C427 C 0.41156 0.33030 -0.35418
 C428 C 0.42185 0.35604 -0.29472
 C429 C 0.45296 0.35745 -0.24079
 C430 C 0.43691 0.31585 -0.21296
 C431 C 0.42676 0.28994 -0.27336
 C432 C 0.47643 0.33962 -0.35501
 C433 C 0.48627 0.36502 -0.29535
 H434 H 0.38875 0.32520 -0.39488
 H435 H 0.40806 0.37296 -0.28523
 H436 H 0.43298 0.30737 -0.15157
 H437 H 0.41363 0.25954 -0.26162
 H438 H 0.49749 0.34106 -0.39686
 H439 H 0.51557 0.38787 -0.28657
 C440 C 0.69135 0.12548 -0.35414
 C441 C 0.70959 0.13737 -0.27143
 C442 C 0.68367 0.12153 -0.21102
 C443 C 0.64221 0.09544 -0.23889
 C444 C 0.63430 0.12072 -0.29415
 C445 C 0.65975 0.13630 -0.35377
 C446 C 0.66996 0.08137 -0.35176
 C447 C 0.64421 0.06582 -0.29227
 H448 H 0.73991 0.15550 -0.26023
 H449 H 0.69199 0.12663 -0.14961
 H450 H 0.61115 0.12682 -0.28592
 H451 H 0.65814 0.15558 -0.39624
 H452 H 0.67535 0.06384 -0.39250
 H453 H 0.62753 0.03510 -0.28263
 C454 C 1.12474 0.43304 -0.35957
 C455 C 1.13612 0.42571 -0.27690
 C456 C 1.12059 0.43589 -0.21607
 C457 C 1.09521 0.45223 -0.24320
 C458 C 1.12100 0.48561 -0.29763
 C459 C 1.13632 0.47572 -0.35772
 C460 C 1.08058 0.41095 -0.35709
 C461 C 1.06536 0.42129 -0.29719
 H462 H 1.15318 0.41232 -0.26565
 H463 H 1.12514 0.43177 -0.15482
 H464 H 1.12762 0.51497 -0.28846
 H465 H 1.15593 0.49682 -0.39955
 H466 H 1.06274 0.38823 -0.39786
 H467 H 1.03471 0.40762 -0.28743
 C468 C 0.56666 0.69114 -0.35916
 C469 C 0.52405 0.65996 -0.35716
 C470 C 0.51427 0.63473 -0.29713
 C471 C 0.54766 0.64238 -0.24292
 C472 C 0.57863 0.64358 -0.29715
 C473 C 0.58887 0.66916 -0.35697
 C474 C 0.57393 0.70981 -0.27643
 C475 C 0.56385 0.68407 -0.21568
 H476 H 0.50294 0.65844 -0.39884
 H477 H 0.48497 0.61194 -0.28788
 H478 H 0.59239 0.62664 -0.28759
 H479 H 0.61159 0.67410 -0.39790
 H480 H 0.58720 0.74026 -0.26510
 H481 H 0.56794 0.69273 -0.15440
 C482 C 0.30849 -0.12463 -0.35535
 C483 C 0.34005 -0.13550 -0.35479
 C484 C 0.36534 -0.12004 -0.29501
 C485 C 0.35731 -0.09480 -0.23978
 C486 C 0.35550 -0.06508 -0.29318
 C487 C 0.32991 -0.08053 -0.35283
 C488 C 0.29002 -0.13662 -0.27273
 C489 C 0.31577 -0.12089 -0.21216
 H490 H 0.34176 -0.15472 -0.39727
 H491 H 0.38843 -0.12618 -0.28666
 H492 H 0.37217 -0.03439 -0.28343
 H493 H 0.32466 -0.06292 -0.39359
 H494 H 0.25966 -0.15471 -0.26170
 H495 H 0.30727 -0.12605 -0.15080
 C496 C 0.56601 -0.12565 0.35593
 C497 C 0.58864 -0.08154 0.35359
 C498 C 0.57842 -0.06599 0.29419
 C499 C 0.54687 -0.09562 0.24086
 C500 C 0.56232 -0.12167 0.21283
 C501 C 0.57242 -0.13751 0.27315
 C502 C 0.52362 -0.13649 0.35573
 C503 C 0.51370 -0.12093 0.29620
 H504 H 0.61151 -0.06401 0.39427
 H505 H 0.59239 -0.03527 0.28458
 H506 H 0.56558 -0.12675 0.15139
 H507 H 0.58469 -0.15560 0.26183
 H508 H 0.50275 -0.15579 0.39825
 H509 H 0.48447 -0.12704 0.28810
 C510 C 0.30818 0.43340 0.35463
 C511 C 0.33973 0.47583 0.35429
 C512 C 0.36518 0.48576 0.29465
 C513 C 0.35731 0.45259 0.23934
 C514 C 0.35536 0.42098 0.29269
 C515 C 0.32961 0.41073 0.35219
 C516 C 0.28992 0.42704 0.27192
 C517 C 0.31584 0.43717 0.21150
 H518 H 0.34132 0.49670 0.39679
 H519 H 0.38829 0.51502 0.28645
 H520 H 0.37206 0.40697 0.28299
 H521 H 0.32425 0.38781 0.39289
 H522 H 0.25959 0.41478 0.26074
 H523 H 0.30752 0.43394 0.15009
 C524 C 1.12492 0.69143 0.35524
 C525 C 1.08086 0.66979 0.35272
 C526 C 1.06556 0.64420 0.29296
 C527 C 1.09538 0.64263 0.23946
 C528 C 1.12127 0.68425 0.21201
 C529 C 1.13685 0.71000 0.27270
 C530 C 1.13601 0.66002 0.35445
 C531 C 1.12071 0.63474 0.29455
 H532 H 1.06316 0.67488 0.39356
 H533 H 1.03490 0.62738 0.28320
 H534 H 1.12641 0.69281 0.15069
 H535 H 1.15478 0.74041 0.26180
 H536 H 1.15528 0.65840 0.39686
 H537 H 1.12702 0.61175 0.28604
 C538 C 0.43278 0.12434 0.35875
 C539 C 0.47519 0.13523 0.35797
 C540 C 0.48506 0.11979 0.29808
 C541 C 0.45185 0.09452 0.24300
 C542 C 0.42038 0.06480 0.29652
 C543 C 0.41020 0.08024 0.35628
 C544 C 0.42625 0.13629 0.27620
 C545 C 0.43631 0.12057 0.21553
 H546 H 0.49609 0.15446 0.40039
 H547 H 0.51430 0.12594 0.28958
 H548 H 0.40643 0.03410 0.28677
 H549 H 0.38738 0.06262 0.39712
 H550 H 0.41389 0.15433 0.26526
 H551 H 0.43294 0.12571 0.15421
 C552 C 0.69118 0.56710 0.35595
 C553 C 0.70965 0.57359 0.27332
 C554 C 0.68388 0.56353 0.21276
 C555 C 0.64234 0.54805 0.24040
 C556 C 0.63435 0.51480 0.29566
 C557 C 0.65965 0.52467 0.35544
 C558 C 0.66973 0.58975 0.35343
 C559 C 0.64413 0.57957 0.29378
 H560 H 0.74001 0.58592 0.26225
 H561 H 0.69238 0.56688 0.15140
 H562 H 0.61127 0.48555 0.28734
 H563 H 0.65796 0.50375 0.39795
 H564 H 0.67497 0.61261 0.39416
 H565 H 0.62745 0.59357 0.28401
 C566 C 0.87615 0.30890 0.35609
 C567 C 0.86410 0.29039 0.27359
 C568 C 0.87981 0.31614 0.21285
 C569 C 0.90594 0.35771 0.24020
 C570 C 0.88080 0.36582 0.29556
 C571 C 0.86537 0.34054 0.35552
 C572 C 0.92021 0.33027 0.35325
 C573 C 0.93564 0.35586 0.29343
 H574 H 0.84601 0.26001 0.26274
 H575 H 0.87461 0.30762 0.15154
 H576 H 0.87470 0.38896 0.28718
 H577 H 0.84622 0.34231 0.39812
 H578 H 0.93781 0.32499 0.39390
 H579 H 0.96629 0.37249 0.28342
   
