data_POSCAR
  _audit_creation_date              2014-09-24
  _audit_creation_method            'ToBaCCo'
  _symmetry_space_group_name_H-M    'P1'
  _symmetry_Int_Tables_number       1
  _symmetry_cell_setting            triclinic
  loop_
  _symmetry_equiv_pos_as_xyz
 x,y,z
_cell_length_a 32.3106
_cell_length_b 31.5967
_cell_length_c 41.3498
_cell_angle_alpha 89.558000
_cell_angle_beta 89.993600
_cell_angle_gamma 89.805700
loop_
  _atom_site_label
  _atom_site_type_symbol
  _atom_site_fract_x
  _atom_site_fract_y
  _atom_site_fract_z
B1 B 0.27697 0.24489 0.28286
 B2 B 0.22831 0.23291 0.27249
 B3 B 0.24065 0.28295 0.28090
 B4 B 0.28908 0.29261 0.26706
 B5 B 0.30608 0.24702 0.24926
 B6 B 0.26787 0.20976 0.25317
 B7 B 0.23779 0.27501 0.21641
 B8 B 0.28651 0.28671 0.22655
 B9 B 0.27353 0.23660 0.21841
 B10 B 0.22554 0.22729 0.23222
 B11 B 0.20863 0.27276 0.24969
 B12 B 0.24669 0.31010 0.24622
 B13 B 0.74323 0.76607 0.21510
 B14 B 0.72427 0.71823 0.22430
 B15 B 0.77406 0.72342 0.21387
 B16 B 0.79207 0.76930 0.22875
 B17 B 0.75228 0.79254 0.24920
 B18 B 0.70976 0.76053 0.24616
 B19 B 0.77003 0.71694 0.27859
 B20 B 0.78879 0.76471 0.26915
 B21 B 0.73891 0.75950 0.27964
 B22 B 0.72103 0.71347 0.26480
 B23 B 0.76090 0.69019 0.24434
 B24 B 0.80338 0.72229 0.24733
 B25 B 0.73117 0.21438 -0.22156
 B26 B 0.72254 0.26605 -0.22738
 B27 B 0.77090 0.24787 -0.22354
 B28 B 0.77450 0.20021 -0.24145
 B29 B 0.72664 0.18952 -0.25698
 B30 B 0.69422 0.23066 -0.24773
 B31 B 0.75572 0.26112 -0.28658
 B32 B 0.76418 0.20934 -0.28075
 B33 B 0.71587 0.22759 -0.28453
 B34 B 0.71233 0.27526 -0.26667
 B35 B 0.76014 0.28592 -0.25101
 B36 B 0.79263 0.24478 -0.26038
 B37 B 0.25784 0.77818 -0.27552
 B38 B 0.20880 0.78773 -0.26473
 B39 B 0.22355 0.73868 -0.27446
 B40 B 0.27215 0.73026 -0.26094
 B41 B 0.28733 0.77571 -0.24224
 B42 B 0.24761 0.81154 -0.24483
 B43 B 0.22040 0.74380 -0.20977
 B44 B 0.26943 0.73438 -0.22057
 B45 B 0.25456 0.78330 -0.21091
 B46 B 0.20599 0.79165 -0.22429
 B47 B 0.19080 0.74623 -0.24313
 B48 B 0.23054 0.71035 -0.24032
 B49 B 1.24156 1.26608 0.71959
 B50 B 1.22777 1.21539 0.72388
 B51 B 1.27734 1.22785 0.71698
 B52 B 1.28845 1.27324 0.73648
 B53 B 1.24427 1.28830 0.75620
 B54 B 1.20642 1.25235 0.74792
 B55 B 1.26843 1.21141 0.78039
 B56 B 1.28189 1.26210 0.77603
 B57 B 1.23252 1.24957 0.78284
 B58 B 1.22139 1.20429 0.76343
 B59 B 1.26553 1.18897 0.74386
 B60 B 1.30348 1.22528 0.75194
 B61 B 0.78599 0.75015 0.78429
 B62 B 0.73922 0.73803 0.76969
 B63 B 0.74872 0.78712 0.78243
 B64 B 0.79780 0.80006 0.77295
 B65 B 0.81876 0.75751 0.75344
 B66 B 0.78201 0.71868 0.75164
 B67 B 0.75335 0.78718 0.71774
 B68 B 0.79996 0.79932 0.73246
 B69 B 0.79058 0.75032 0.71954
 B70 B 0.74151 0.73728 0.72905
 B71 B 0.72051 0.77963 0.74855
 B72 B 0.75714 0.81856 0.75045
 B73 B 1.22087 0.72151 0.27686
 B74 B 1.21355 0.77225 0.26711
 B75 B 1.26040 0.75531 0.27853
 B76 B 1.26806 0.70623 0.26414
 B77 B 1.22466 0.69303 0.24291
 B78 B 1.19044 0.73443 0.24503
 B79 B 1.25978 0.76248 0.21401
 B80 B 1.26709 0.71139 0.22368
 B81 B 1.22016 0.72839 0.21213
 B82 B 1.21238 0.77761 0.22675
 B83 B 1.25593 0.79057 0.24796
 B84 B 1.29007 0.74923 0.24574
 B85 B 0.76132 1.28034 0.28690
 B86 B 0.77987 1.23227 0.27861
 B87 B 0.73042 1.23801 0.28958
 B88 B 0.71195 1.28382 0.27415
 B89 B 0.75186 1.30643 0.25225
 B90 B 0.79408 1.27391 0.25556
 B91 B 0.73344 1.22930 0.22489
 B92 B 0.71306 1.27892 0.23231
 B93 B 0.76464 1.27206 0.22230
 B94 B 0.78272 1.22632 0.23833
 B95 B 0.74311 1.20387 0.25974
 B96 B 0.70034 1.23579 0.25672
 O97 O 0.47940 1.06374 0.04855
 O98 O 0.52898 0.92163 0.04173
 O99 O 0.43454 0.96613 0.04648
 O100 O 0.57308 1.01750 0.04434
 O101 O 0.45969 0.91039 0.02559
 O102 O 0.54753 1.07669 0.02990
 O103 O 0.58405 0.94872 0.02327
 O104 O 0.42248 1.03865 0.03189
 C105 C 0.44259 1.05662 0.05355
 C106 C 0.56606 0.92870 0.04519
 C107 C 0.43949 0.92746 0.04775
 C108 C 0.56739 1.05517 0.05020
 O109 O 0.51833 1.07164 -0.03267
 O110 O 0.48253 0.92527 -0.03725
 O111 O 0.42810 1.01664 -0.03140
 O112 O 0.57142 0.98059 -0.03765
 O113 O 0.55327 0.91940 -0.02183
 O114 O 0.44922 1.07534 -0.01295
 O115 O 0.57710 1.05020 -0.01685
 O116 O 0.42526 0.94419 -0.01668
 Co117 Co 0.49901 1.06446 0.00789
 Co118 Co 0.50580 0.92661 0.00236
 Co119 Co 0.43482 0.99183 0.00741
 Co120 Co 0.56935 0.99888 0.00345
 O121 O 0.50222 0.99547 0.00527
 C122 C 0.55564 1.06822 -0.03792
 C123 C 0.44475 0.92902 -0.03995
 C124 C 0.42986 1.05531 -0.03410
 C125 C 0.56897 0.94250 -0.04314
 O126 O 0.95224 0.57444 0.52462
 O127 O 1.05147 0.41814 0.53296
 O128 O 0.92464 0.44363 0.52315
 O129 O 1.07953 0.54932 0.52974
 O130 O 0.98056 0.42272 0.54461
 O131 O 1.02016 0.56904 0.54471
 O132 O 1.07260 0.47791 0.55027
 O133 O 0.92970 0.51542 0.54199
 C134 C 0.93391 0.55377 0.54613
 C135 C 1.06858 0.43931 0.55456
 C136 C 0.94271 0.42583 0.54614
 C137 C 1.05738 0.56677 0.55038
 O138 O 1.05051 0.57652 0.48246
 O139 O 0.96251 0.41382 0.48020
 O140 O 0.92501 0.54260 0.47925
 O141 O 1.08749 0.44874 0.49031
 O142 O 1.03420 0.42348 0.46792
 O143 O 0.98274 0.56549 0.46276
 O144 O 1.07733 0.51803 0.46862
 O145 O 0.93672 0.47154 0.46205
 Co146 Co 1.00171 0.56430 0.50379
 Co147 Co 1.00688 0.42688 0.50623
 Co148 Co 0.93646 0.49366 0.50207
 Co149 Co 1.07179 0.49843 0.50930
 O150 O 1.00419 0.49577 0.50536
 C151 C 1.07021 0.55539 0.46216
 C152 C 0.94275 0.43322 0.45869
 C153 C 0.94566 0.56020 0.45755
 C154 C 1.07195 0.42934 0.46731
 O155 O 1.02495 0.43118 0.05485
 O156 O 1.00905 0.54202 -0.06762
 O157 O 1.03118 0.41252 -0.04369
 O158 O 1.03042 0.56356 0.03068
 O159 O 1.04496 0.47401 -0.06303
 O160 O 1.05183 0.50306 0.04895
 O161 O 1.03983 0.56326 -0.02614
 O162 O 1.05025 0.41608 0.00995
 C163 C 1.05434 0.41655 0.03939
 C164 C 1.03744 0.56294 -0.05586
 C165 C 1.05481 0.43630 -0.05959
 C166 C 1.05741 0.54169 0.04536
 O167 O 0.97714 0.53204 0.06092
 O168 O 0.97145 0.43704 -0.06866
 O169 O 0.96712 0.40456 0.02859
 O170 O 0.95384 0.56416 -0.03507
 O171 O 0.93756 0.50475 -0.05721
 O172 O 0.94820 0.46146 0.05248
 O173 O 0.94459 0.55580 0.02096
 O174 O 0.94743 0.41429 -0.02499
 Co175 Co 0.99997 0.48223 0.04826
 Co176 Co 0.99132 0.48896 -0.05773
 Co177 Co 0.99864 0.41858 -0.00724
 Co178 Co 0.99252 0.55482 -0.00256
 O179 O 0.99563 0.48619 -0.00477
 C180 C 0.94573 0.54958 0.05034
 C181 C 0.94517 0.41531 -0.05459
 C182 C 0.94177 0.42372 0.04629
 C183 C 0.92888 0.54231 -0.05140
 O184 O 0.54556 0.96341 0.55469
 O185 O 0.55695 0.99980 0.44405
 O186 O 0.54758 0.90988 0.48002
 O187 O 0.54816 1.05491 0.51827
 O188 O 0.52502 0.93079 0.43532
 O189 O 0.51692 1.03476 0.56012
 O190 O 0.53854 1.06057 0.46250
 O191 O 0.52661 0.90460 0.53367
 C192 C 0.55217 0.92520 0.55016
 C193 C 0.56490 1.03771 0.44843
 C194 C 0.55255 0.91214 0.45065
 C195 C 0.54635 1.05415 0.54788
 O196 O 0.44179 1.00493 0.54901
 O197 O 0.45067 0.96726 0.43857
 O198 O 0.44394 0.91410 0.51382
 O199 O 0.45244 1.05841 0.47225
 O200 O 0.48407 1.03507 0.43184
 O201 O 0.46854 0.93376 0.55809
 O202 O 0.46305 1.06389 0.52870
 O203 O 0.46442 0.90674 0.45978
 Co204 Co 0.49380 0.98410 0.54933
 Co205 Co 0.50358 0.98317 0.44351
 Co206 Co 0.49584 0.91561 0.49674
 Co207 Co 0.50026 1.05246 0.49547
 O208 O 0.49832 0.98383 0.49627
 C209 C 0.43634 1.04335 0.54448
 C210 C 0.44078 0.93001 0.44324
 C211 C 0.43955 0.91728 0.54324
 C212 C 0.45394 1.05450 0.44269
 O213 O 1.08618 1.01575 0.46355
 O214 O 0.92551 1.02441 0.53558
 O215 O 0.96051 1.06022 0.45804
 O216 O 1.05167 1.05952 0.53415
 O217 O 0.91311 1.02016 0.47823
 O218 O 1.09444 1.01059 0.52333
 O219 O 0.97767 1.06573 0.53666
 O220 O 1.03570 1.05203 0.44040
 C221 C 1.07350 1.04537 0.44527
 C222 C 0.94001 1.06066 0.54000
 C223 C 0.92341 1.05410 0.46425
 C224 C 1.08786 1.04714 0.53321
 O225 O 1.06017 0.93495 0.52397
 O226 O 0.94236 0.93890 0.47897
 O227 O 1.02223 0.97276 0.42799
 O228 O 0.97374 0.99028 0.56838
 O229 O 0.95717 0.94334 0.53464
 O230 O 1.06094 0.93668 0.46195
 O231 O 1.04727 0.98061 0.56186
 O232 O 0.94805 0.98022 0.43840
 Co233 Co 1.06827 0.97679 0.49384
 Co234 Co 0.94016 0.98329 0.50630
 Co235 Co 0.99229 1.01510 0.44676
 Co236 Co 1.01178 1.02198 0.54593
 O237 O 1.00354 0.99934 0.49777
 C238 C 1.05613 0.94334 0.55321
 C239 C 0.93999 0.94429 0.44950
 C240 C 1.04529 0.94175 0.43452
 C241 C 0.96359 0.95304 0.56294
 O242 O 0.58130 0.54689 -0.02592
 O243 O 0.43858 0.56257 0.00981
 O244 O 0.49946 0.56867 -0.06295
 O245 O 0.52623 0.55008 0.04852
 O246 O 0.43746 0.55746 -0.04538
 O247 O 0.58192 0.52499 0.02733
 O248 O 0.45324 0.52789 0.05170
 O249 O 0.56218 0.52547 -0.07087
 C250 C 0.58218 0.55144 -0.05532
 C251 C 0.43827 0.56022 0.03935
 C252 C 0.46341 0.58152 -0.05900
 C253 C 0.56421 0.55248 0.04426
 O254 O 0.56435 0.44207 0.00754
 O255 O 0.42953 0.46802 -0.03932
 O256 O 0.51651 0.45636 -0.06934
 O257 O 0.47536 0.44934 0.04130
 O258 O 0.42186 0.47638 0.01747
 O259 O 0.57541 0.46126 -0.04568
 O260 O 0.54709 0.46890 0.05167
 O261 O 0.45596 0.50168 -0.07757
 Co262 Co 0.56946 0.49487 -0.00946
 Co263 Co 0.43827 0.51488 -0.01419
 Co264 Co 0.50822 0.51221 -0.06403
 Co265 Co 0.50097 0.49982 0.04208
 O266 O 0.50419 0.50543 -0.01127
 C267 C 0.56098 0.43804 0.03693
 C268 C 0.43398 0.47214 -0.06873
 C269 C 0.55103 0.44111 -0.06353
 C270 C 0.43780 0.44792 0.03509
 C271 C 0.28853 1.21185 0.18761
 C272 C 0.31843 1.18002 0.19012
 C273 C 0.33205 1.15278 0.16323
 C274 C 0.36645 1.12641 0.16845
 C275 C 0.38151 1.10081 0.14381
 C276 C 0.36252 1.10119 0.11326
 C277 C 0.32692 1.12589 0.10837
 C278 C 0.31180 1.15165 0.13309
 C279 C 0.38046 1.07768 0.08593
 C280 C 0.42314 1.07348 0.08266
 H281 H 0.33313 1.17472 0.21337
 H282 H 0.38212 1.12596 0.19162
 H283 H 0.40817 1.08093 0.14869
 H284 H 0.31152 1.12619 0.08510
 H285 H 0.28448 1.17044 0.12826
 H286 H 0.36043 1.06816 0.06628
 H287 H 0.27326 1.21869 0.16495
 H288 H 0.44349 1.08664 0.10076
 C289 C 0.81152 0.73259 0.68780
 C290 C 0.84013 0.69937 0.68903
 C291 C 0.85899 0.67960 0.66020
 C292 C 0.87522 0.63852 0.66327
 C293 C 0.89315 0.61827 0.63682
 C294 C 0.89544 0.63884 0.60660
 C295 C 0.88040 0.68045 0.60372
 C296 C 0.86215 0.70066 0.63020
 C297 C 0.91423 0.61810 0.57809
 C298 C 0.91482 0.57423 0.57426
 H299 H 0.84753 0.68542 0.71236
 H300 H 0.87382 0.62187 0.68625
 H301 H 0.90576 0.58682 0.64033
 H302 H 0.88248 0.69724 0.58084
 H303 H 0.85121 0.73284 0.62717
 H304 H 0.92629 0.63802 0.55886
 H305 H 0.80199 0.74604 0.66487
 H306 H 0.90003 0.55396 0.59200
 C307 C 0.73063 0.79166 0.18375
 C308 C 0.70309 0.82564 0.18547
 C309 C 0.68715 0.84920 0.15716
 C310 C 0.65108 0.87336 0.16118
 C311 C 0.63329 0.89451 0.13499
 C312 C 0.65132 0.89197 0.10417
 C313 C 0.68861 0.86978 0.10035
 C314 C 0.70640 0.84830 0.12662
 C315 C 0.63085 0.91121 0.07581
 C316 C 0.58793 0.91105 0.07312
 H317 H 0.69035 0.83394 0.20884
 H318 H 0.63608 0.87519 0.18457
 H319 H 0.60525 0.91264 0.13887
 H320 H 0.70331 0.86805 0.07685
 H321 H 0.73497 0.83118 0.12280
 H322 H 0.64958 0.92244 0.05579
 H323 H 0.74368 0.78196 0.16094
 H324 H 0.56939 0.89604 0.09176
 C325 C 1.22687 0.29271 0.68917
 C326 C 1.21643 0.33558 0.69147
 C327 C 1.19378 0.35981 0.66624
 C328 C 1.17282 0.33995 0.64074
 C329 C 1.14927 0.36379 0.61889
 C330 C 1.14555 0.40796 0.62227
 C331 C 1.16724 0.42786 0.64722
 C332 C 1.19084 0.40400 0.66912
 C333 C 1.12044 0.43394 0.59958
 C334 C 1.08784 0.41700 0.58189
 H335 H 1.22372 0.35217 0.71356
 H336 H 1.17360 0.30602 0.63779
 H337 H 1.13434 0.34735 0.59926
 H338 H 1.16533 0.46186 0.65011
 H339 H 1.20654 0.42010 0.68861
 H340 H 1.12826 0.46703 0.59634
 H341 H 1.22250 0.27576 0.66686
 H342 H 1.07838 0.38460 0.58601
 C343 C 0.71878 1.19139 -0.18898
 C344 C 0.68625 1.16245 -0.18803
 C345 C 0.66966 1.14321 -0.15808
 C346 C 0.62987 1.12569 -0.15905
 C347 C 0.61238 1.10758 -0.13144
 C348 C 0.63443 1.10659 -0.10215
 C349 C 0.67475 1.12286 -0.10134
 C350 C 0.69225 1.14123 -0.12902
 C351 C 0.61634 1.08801 -0.07246
 C352 C 0.57381 1.08771 -0.06684
 H353 H 0.67010 1.15551 -0.21034
 H354 H 0.61208 1.12622 -0.18127
 H355 H 0.58184 1.09388 -0.13330
 H356 H 0.69258 1.12176 -0.07916
 H357 H 0.72348 1.15324 -0.12755
 H358 H 0.63709 1.07593 -0.05396
 H359 H 0.73431 1.20080 -0.16707
 H360 H 0.55289 1.10272 -0.08389
 C361 C 1.20169 0.70294 0.30903
 C362 C 1.16600 0.67832 0.30903
 C363 C 1.14539 0.66391 0.33901
 C364 C 1.12269 0.62623 0.33846
 C365 C 1.10338 0.61115 0.36644
 C366 C 1.10607 0.63378 0.39551
 C367 C 1.12704 0.67258 0.39571
 C368 C 1.14680 0.68747 0.36774
 C369 C 1.08761 0.61710 0.42574
 C370 C 1.08737 0.57383 0.43242
 H371 H 1.15330 0.66801 0.28615
 H372 H 1.12042 0.60805 0.31642
 H373 H 1.08620 0.58185 0.36522
 H374 H 1.12887 0.69090 0.41769
 H375 H 1.16272 0.71753 0.36859
 H376 H 1.07697 0.63911 0.44393
 H377 H 1.21624 0.71125 0.33165
 H378 H 1.10169 0.55221 0.41555
 C379 C 0.27008 0.80533 -0.17912
 C380 C 0.29819 0.83869 -0.18058
 C381 C 0.31805 0.85730 -0.15196
 C382 C 0.30018 0.85544 -0.12098
 C383 C 0.32058 0.87327 -0.09459
 C384 C 0.35919 0.89276 -0.09867
 C385 C 0.37640 0.89563 -0.12981
 C386 C 0.35593 0.87813 -0.15616
 C387 C 0.38063 0.91022 -0.07027
 C388 C 0.42363 0.91246 -0.06846
 H389 H 0.30871 0.84970 -0.20407
 H390 H 0.27038 0.84079 -0.11706
 H391 H 0.30645 0.87136 -0.07086
 H392 H 0.40540 0.91179 -0.13401
 H393 H 0.36998 0.88051 -0.17990
 H394 H 0.36225 0.91914 -0.04947
 H395 H 0.26072 0.79189 -0.15615
 H396 H 0.44261 0.90039 -0.08792
 C397 C 0.77735 0.30443 0.31786
 C398 C 0.79547 0.34444 0.31539
 C399 C 0.81899 0.36500 0.34162
 C400 C 0.83661 0.34198 0.36744
 C401 C 0.86116 0.36238 0.39040
 C402 C 0.86880 0.40614 0.38786
 C403 C 0.85065 0.42906 0.36235
 C404 C 0.82635 0.40867 0.33934
 C405 C 0.89401 0.42925 0.41184
 C406 C 0.92264 0.40981 0.43247
 H407 H 0.79342 0.36147 0.29261
 H408 H 0.83241 0.30815 0.36967
 H409 H 0.87364 0.34376 0.41018
 H410 H 0.85570 0.46283 0.36000
 H411 H 0.81337 0.42708 0.31957
 H412 H 0.88980 0.46324 0.41326
 H413 H 0.77694 0.28759 0.34071
 H414 H 0.92917 0.37633 0.43059
 C415 C 1.21678 0.29054 0.18386
 C416 C 1.21731 0.33323 0.17479
 C417 C 1.18969 0.35192 0.15011
 C418 C 1.17411 0.32869 0.12395
 C419 C 1.14580 0.34735 0.10247
 C420 C 1.13257 0.38934 0.10704
 C421 C 1.14908 0.41267 0.13262
 C422 C 1.17775 0.39433 0.15368
 C423 C 1.09916 0.40867 0.08760
 C424 C 1.09054 0.39804 0.05568
 H425 H 1.23529 0.35510 0.18909
 H426 H 1.18344 0.29617 0.12020
 H427 H 1.13316 0.32842 0.08315
 H428 H 1.13925 0.44503 0.13663
 H429 H 1.18950 0.41292 0.17356
 H430 H 1.08084 0.43327 0.09890
 H431 H 1.19777 0.26822 0.17092
 H432 H 1.11073 0.37694 0.04246
 C433 C 0.73574 0.80494 0.68453
 C434 C 0.72728 0.84795 0.67962
 C435 C 0.70091 0.86512 0.65316
 C436 C 0.67326 0.83975 0.63562
 C437 C 0.64550 0.85807 0.61352
 C438 C 0.64476 0.90222 0.60842
 C439 C 0.67305 0.92727 0.62545
 C440 C 0.70069 0.90898 0.64754
 C441 C 0.61348 0.92377 0.58756
 C442 C 0.58645 0.90296 0.56667
 H443 H 0.73882 0.87039 0.69708
 H444 H 0.67153 0.80599 0.63979
 H445 H 0.62381 0.83748 0.60158
 H446 H 0.67315 0.96133 0.62221
 H447 H 0.72136 0.92937 0.66088
 H448 H 0.61080 0.95787 0.58949
 H449 H 0.72685 0.78196 0.66663
 H450 H 0.58923 0.86930 0.56279
 C451 C 1.20354 0.72538 -0.17651
 C452 C 1.16173 0.72641 -0.16816
 C453 C 1.14400 0.70185 -0.14073
 C454 C 1.10208 0.69070 -0.14214
 C455 C 1.08449 0.66507 -0.11820
 C456 C 1.10837 0.65013 -0.09203
 C457 C 1.14970 0.66317 -0.08951
 C458 C 1.16754 0.68858 -0.11376
 C459 C 1.09030 0.62061 -0.06777
 C460 C 1.06261 0.58949 -0.07754
 H461 H 1.14036 0.74232 -0.18443
 H462 H 1.08306 0.70096 -0.16232
 H463 H 1.05209 0.65685 -0.12028
 H464 H 1.16851 0.65272 -0.06927
 H465 H 1.19961 0.69764 -0.11125
 H466 H 1.09927 0.62280 -0.04260
 H467 H 1.22522 0.70821 -0.16141
 H468 H 1.05686 0.58580 -0.10318
 C469 C 0.71292 1.22075 0.32304
 C470 C 0.70049 1.17861 0.32654
 C471 C 0.68124 1.15999 0.35577
 C472 C 0.68196 1.11583 0.35927
 C473 C 0.65973 1.09585 0.38392
 C474 C 0.63579 1.11971 0.40570
 C475 C 0.63656 1.16413 0.40300
 C476 C 0.65907 1.18417 0.37831
 C477 C 0.60685 1.09976 0.42928
 C478 C 0.60185 1.05604 0.43307
 H479 H 0.70517 1.15728 0.30648
 H480 H 0.69890 1.09651 0.34221
 H481 H 0.66048 1.06173 0.38468
 H482 H 0.61839 1.18338 0.41932
 H483 H 0.65733 1.21826 0.37606
 H484 H 0.58566 1.12047 0.44198
 H485 H 0.70995 1.24257 0.34293
 H486 H 0.62293 1.03408 0.42180
 C487 C 0.79260 0.70680 0.18086
 C488 C 0.78909 0.66476 0.17103
 C489 C 0.81058 0.64736 0.14234
 C490 C 0.81889 0.60378 0.14148
 C491 C 0.84172 0.58636 0.11612
 C492 C 0.85656 0.61222 0.09085
 C493 C 0.84603 0.65535 0.09058
 C494 C 0.82341 0.67289 0.11614
 C495 C 0.88433 0.59515 0.06549
 C496 C 0.91359 0.56402 0.07288
 H497 H 0.77244 0.64276 0.18644
 H498 H 0.80867 0.58325 0.16100
 H499 H 0.84803 0.55269 0.11649
 H500 H 0.85650 0.67577 0.07109
 H501 H 0.81625 0.70633 0.11531
 H502 H 0.88513 0.61046 0.04196
 H503 H 0.81079 0.72895 0.16683
 H504 H 0.91563 0.55201 0.09743
 C505 C 0.29977 1.21623 0.68397
 C506 C 0.32387 1.17949 0.68166
 C507 C 0.34114 1.16206 0.65136
 C508 C 0.35098 1.11881 0.65082
 C509 C 0.36956 1.10074 0.62377
 C510 C 0.37902 1.12560 0.59641
 C511 C 0.36911 1.16897 0.59681
 C512 C 0.34999 1.18707 0.62394
 C513 C 0.40266 1.10761 0.56888
 C514 C 0.40249 1.06438 0.56199
 H515 H 0.32803 1.16026 0.70324
 H516 H 0.34481 1.09888 0.67171
 H517 H 0.37798 1.06761 0.62505
 H518 H 0.37671 1.18896 0.57627
 H519 H 0.34350 1.22068 0.62376
 H520 H 0.42324 1.12833 0.55550
 H521 H 0.29349 1.23544 0.66278
 H522 H 0.38009 1.04405 0.57378
 C523 C 0.79665 0.26012 -0.19252
 C524 C 0.83790 0.27265 -0.19473
 C525 C 0.85918 0.29852 -0.17011
 C526 C 0.84459 0.30320 -0.13821
 C527 C 0.86447 0.33075 -0.11684
 C528 C 0.89928 0.35392 -0.12702
 C529 C 0.91412 0.34840 -0.15858
 C530 C 0.89450 0.32090 -0.17976
 C531 C 0.92102 0.38462 -0.10624
 C532 C 0.91703 0.38761 -0.07267
 H533 H 0.85394 0.26800 -0.21745
 H534 H 0.81792 0.28596 -0.12957
 H535 H 0.85197 0.33426 -0.09276
 H536 H 0.94098 0.36569 -0.16705
 H537 H 0.90647 0.31793 -0.20413
 H538 H 0.94365 0.40468 -0.11810
 H539 H 0.77939 0.26499 -0.17050
 H540 H 0.89591 0.36755 -0.05935
 C541 C 0.28126 0.76816 0.31169
 C542 C 0.28955 0.81035 0.31908
 C543 C 0.31552 0.82477 0.34638
 C544 C 0.32764 0.86733 0.34647
 C545 C 0.35405 0.88263 0.37027
 C546 C 0.36864 0.85581 0.39513
 C547 C 0.35615 0.81328 0.39539
 C548 C 0.32966 0.79784 0.37136
 C549 C 0.39889 0.87076 0.41953
 C550 C 0.40459 0.91360 0.42603
 H551 H 0.27885 0.83460 0.30239
 H552 H 0.31751 0.88876 0.32745
 H553 H 0.36393 0.91517 0.36821
 H554 H 0.36714 0.79187 0.41411
 H555 H 0.32075 0.76495 0.37251
 H556 H 0.41851 0.84760 0.43151
 H557 H 0.29202 0.74277 0.32720
 H558 H 0.38379 0.93694 0.41573
 C559 C 1.19868 1.20504 0.29414
 C560 C 1.20006 1.20453 0.32785
 C561 C 1.17205 1.17848 0.34770
 C562 C 1.18560 1.16376 0.37799
 C563 C 1.15972 1.13888 0.39735
 C564 C 1.11963 1.12883 0.38674
 C565 C 1.10572 1.14478 0.35690
 C566 C 1.13168 1.16926 0.33746
 C567 C 1.09104 1.10279 0.40619
 C568 C 1.10382 1.07297 0.42923
 H569 H 1.22286 1.22307 0.34042
 H570 H 1.21640 1.17122 0.38655
 H571 H 1.17096 1.12822 0.42067
 H572 H 1.07469 1.13802 0.34848
 H573 H 1.11983 1.18150 0.31475
 H574 H 1.05840 1.10513 0.40038
 H575 H 1.17699 1.18494 0.28162
 H576 H 1.13635 1.06791 0.43419
 C577 C 0.70845 0.70716 -0.21232
 C578 C 0.70469 0.70600 -0.17871
 C579 C 0.67854 0.67586 -0.16070
 C580 C 0.66991 0.68418 -0.12810
 C581 C 0.64671 0.65579 -0.10960
 C582 C 0.63206 0.61823 -0.12342
 C583 C 0.64040 0.61008 -0.15607
 C584 C 0.66367 0.63841 -0.17455
 C585 C 0.60744 0.58717 -0.10498
 C586 C 0.60700 0.58415 -0.07130
 H587 H 0.72218 0.72805 -0.16437
 H588 H 0.68110 0.71283 -0.11689
 H589 H 0.64001 0.66373 -0.08476
 H590 H 0.62940 0.58130 -0.16722
 H591 H 0.67054 0.63023 -0.19930
 H592 H 0.59003 0.56427 -0.11878
 H593 H 0.68990 0.68672 -0.22727
 H594 H 0.62535 0.60500 -0.05650
 C595 C 0.78226 1.17958 0.69235
 C596 C 0.81501 1.19084 0.67215
 C597 C 0.82917 1.16402 0.64509
 C598 C 0.85186 1.18263 0.61980
 C599 C 0.86659 1.15808 0.59423
 C600 C 0.85912 1.11425 0.59367
 C601 C 0.83566 1.09586 0.61854
 C602 C 0.82117 1.12028 0.64415
 C603 C 0.87720 1.08625 0.56888
 C604 C 0.91509 1.09471 0.55414
 H605 H 0.82959 1.22136 0.67526
 H606 H 0.85823 1.21627 0.61986
 H607 H 0.88377 1.17351 0.57506
 H608 H 0.82975 1.06212 0.61877
 H609 H 0.80484 1.10432 0.66349
 H610 H 0.86407 1.05492 0.56636
 H611 H 0.76570 1.15040 0.68851
 H612 H 0.93013 1.12485 0.55777
 C613 C 0.29511 0.68065 0.20317
 C614 C 0.29667 0.68203 0.16950
 C615 C 0.32670 0.65759 0.15039
 C616 C 0.33903 0.67364 0.12022
 C617 C 0.36723 0.65144 0.10119
 C618 C 0.38306 0.61221 0.11182
 C619 C 0.37091 0.59636 0.14217
 C620 C 0.34286 0.61871 0.16127
 C621 C 0.41133 0.58636 0.09192
 C622 C 0.41606 0.59167 0.05861
 H623 H 0.27728 0.70429 0.15646
 H624 H 0.32708 0.70371 0.11149
 H625 H 0.37652 0.66543 0.07842
 H626 H 0.38255 0.56616 0.15087
 H627 H 0.33327 0.60497 0.18410
 H628 H 0.42639 0.55957 0.10355
 H629 H 0.31589 0.66005 0.21649
 H630 H 0.40059 0.61706 0.04574
 C631 C 1.18025 0.81651 0.71354
 C632 C 1.14391 0.80276 0.69896
 C633 C 1.11932 0.83150 0.67817
 C634 C 1.09965 0.81560 0.65064
 C635 C 1.08007 0.84315 0.62881
 C636 C 1.07967 0.88703 0.63444
 C637 C 1.09656 0.90241 0.66324
 C638 C 1.11637 0.87496 0.68488
 C639 C 1.06371 0.91774 0.61036
 C640 C 1.06551 0.91025 0.57722
 H641 H 1.13512 0.76978 0.70073
 H642 H 1.10083 0.78208 0.64538
 H643 H 1.06582 0.83008 0.60744
 H644 H 1.09587 0.93596 0.66842
 H645 H 1.12986 0.88791 0.70661
 H646 H 1.05473 0.94890 0.61867
 H647 H 1.19044 0.84875 0.70970
 H648 H 1.07636 0.88006 0.56836
 C649 C 0.67574 0.30470 0.20648
 C650 C 0.67643 0.29915 0.17324
 C651 C 0.64739 0.32133 0.15147
 C652 C 0.65220 0.31712 0.11796
 C653 C 0.62724 0.34028 0.09662
 C654 C 0.59680 0.36806 0.10857
 C655 C 0.59092 0.37075 0.14213
 C656 C 0.61593 0.34771 0.16341
 C657 C 0.57280 0.39723 0.08755
 C658 C 0.57754 0.40092 0.05411
 H659 H 0.70018 0.27942 0.16263
 H660 H 0.67608 0.29668 0.10824
 H661 H 0.63287 0.33691 0.07103
 H662 H 0.56765 0.39177 0.15201
 H663 H 0.61118 0.35136 0.18915
 H664 H 0.55263 0.41972 0.09951
 H665 H 0.69423 0.29187 0.21893
 H666 H 0.59537 0.37829 0.04045
 C667 C 0.82198 0.78932 0.28957
 C668 C 0.81955 0.79435 0.32294
 C669 C 0.84560 0.82429 0.34123
 C670 C 0.84596 0.82128 0.37505
 C671 C 0.86789 0.85042 0.39351
 C672 C 0.89029 0.88328 0.37846
 C673 C 0.88978 0.88646 0.34464
 C674 C 0.86768 0.85738 0.32615
 C675 C 0.91237 0.91595 0.39727
 C676 C 0.92347 0.91017 0.42954
 H677 H 0.79683 0.77634 0.33637
 H678 H 0.82860 0.79665 0.38731
 H679 H 0.86598 0.84759 0.41953
 H680 H 0.90616 0.91186 0.33247
 H681 H 0.86718 0.86193 0.30023
 H682 H 0.91973 0.94571 0.38543
 H683 H 0.84651 0.80434 0.27600
 H684 H 0.91877 0.87992 0.44135
 C685 C 0.30602 0.28356 -0.19549
 C686 C 0.32893 0.32038 -0.19839
 C687 C 0.34589 0.34124 -0.16947
 C688 C 0.38376 0.36229 -0.17177
 C689 C 0.40020 0.38267 -0.14489
 C690 C 0.37843 0.38340 -0.11535
 C691 C 0.34094 0.36155 -0.11282
 C692 C 0.32458 0.34088 -0.13970
 C693 C 0.39373 0.40831 -0.08767
 C694 C 0.41442 0.44605 -0.09337
 H695 H 0.33568 0.33333 -0.22214
 H696 H 0.40081 0.36266 -0.19433
 H697 H 0.42998 0.39794 -0.14736
 H698 H 0.32366 0.36167 -0.09036
 H699 H 0.29475 0.32567 -0.13733
 H700 H 0.38704 0.39822 -0.06313
 H701 H 0.30186 0.26968 -0.17172
 H702 H 0.41797 0.45721 -0.11805
 C703 C 1.20946 0.26106 -0.18448
 C704 C 1.21014 0.30220 -0.17210
 C705 C 1.18339 0.31824 -0.14570
 C706 C 1.14966 0.29532 -0.13319
 C707 C 1.12287 0.31391 -0.11074
 C708 C 1.12881 0.35580 -0.10063
 C709 C 1.16348 0.37806 -0.11211
 C710 C 1.19034 0.35945 -0.13441
 C711 C 1.09786 0.37532 -0.07879
 C712 C 1.09051 0.41894 -0.07730
 H713 H 1.23034 0.32516 -0.18353
 H714 H 1.14286 0.26367 -0.14127
 H715 H 1.09656 0.29595 -0.10205
 H716 H 1.16994 0.40986 -0.10410
 H717 H 1.21630 0.37771 -0.14338
 H718 H 1.07728 0.35425 -0.06573
 H719 H 1.19105 0.23661 -0.17319
 H720 H 1.10893 0.44070 -0.09153
 C721 C 0.71910 0.77741 0.31197
 C722 C 0.71666 0.82088 0.31791
 C723 C 0.68823 0.84044 0.34174
 C724 C 0.67279 0.81868 0.36902
 C725 C 0.64399 0.83821 0.38959
 C726 C 0.63002 0.87967 0.38309
 C727 C 0.64621 0.90145 0.35629
 C728 C 0.67527 0.88227 0.33612
 C729 C 0.59670 0.90030 0.40201
 C730 C 0.58745 0.89100 0.43428
 H731 H 0.73272 0.84225 0.30164
 H732 H 0.68266 0.78666 0.37445
 H733 H 0.63176 0.82033 0.40985
 H734 H 0.63596 0.93336 0.35070
 H735 H 0.68671 0.89984 0.31538
 H736 H 0.57924 0.92525 0.39005
 H737 H 0.70244 0.75528 0.32715
 H738 H 0.60650 0.86903 0.44794
 C739 C 0.80336 0.73224 -0.18252
 C740 C 0.80337 0.68900 -0.17510
 C741 C 0.82230 0.67018 -0.14568
 C742 C 0.81094 0.62897 -0.13647
 C743 C 0.83093 0.60826 -0.11082
 C744 C 0.86317 0.62831 -0.09404
 C745 C 0.87325 0.67021 -0.10235
 C746 C 0.85324 0.69093 -0.12798
 C747 C 0.88869 0.60614 -0.06929
 C748 C 0.89328 0.56215 -0.06783
 H749 H 0.78844 0.66751 -0.19170
 H750 H 0.78693 0.61243 -0.14954
 H751 H 0.82127 0.57651 -0.10460
 H752 H 0.89792 0.68644 -0.08981
 H753 H 0.86342 0.72238 -0.13458
 H754 H 0.90922 0.62531 -0.05479
 H755 H 0.81584 0.75482 -0.16565
 H756 H 0.87443 0.54200 -0.08281
 C757 C 0.29766 1.22945 0.31574
 C758 C 0.32443 1.19464 0.31624
 C759 C 0.34503 1.17709 0.34536
 C760 C 0.38091 1.15290 0.34077
 C761 C 0.40015 1.13259 0.36673
 C762 C 0.38342 1.13504 0.39808
 C763 C 0.34827 1.16053 0.40305
 C764 C 0.32901 1.18131 0.37684
 C765 C 0.40295 1.11154 0.42542
 C766 C 0.42442 1.07384 0.41999
 H767 H 0.33202 1.17970 0.29348
 H768 H 0.39413 1.14951 0.31683
 H769 H 0.42831 1.11508 0.36203
 H770 H 0.33510 1.16342 0.42702
 H771 H 0.30106 1.19938 0.38112
 H772 H 0.40157 1.12454 0.44956
 H773 H 0.29169 1.24706 0.33758
 H774 H 0.42360 1.05997 0.39615
 C775 C 1.19879 0.71551 0.17918
 C776 C 1.19610 0.67335 0.16942
 C777 C 1.17292 0.65893 0.14068
 C778 C 1.18329 0.61971 0.12719
 C779 C 1.15959 0.60261 0.10224
 C780 C 1.12429 0.62411 0.09063
 C781 C 1.11498 0.66423 0.10319
 C782 C 1.13893 0.68150 0.12803
 C783 C 1.09540 0.60495 0.06690
 C784 C 1.09266 0.56133 0.06199
 H785 H 1.21216 0.64933 0.18349
 H786 H 1.20956 0.60188 0.13633
 H787 H 1.16893 0.57240 0.09254
 H788 H 1.08811 0.68160 0.09464
 H789 H 1.12961 0.71152 0.13815
 H790 H 1.07218 0.62528 0.05590
 H791 H 1.18509 0.74046 0.16464
 H792 H 1.11393 0.54000 0.07407
 C793 C 0.68955 1.21522 0.68481
 C794 C 0.65001 1.19808 0.68809
 C795 C 0.62861 1.17345 0.66288
 C796 C 0.64926 1.15661 0.63585
 C797 C 0.62853 1.12963 0.61464
 C798 C 0.58690 1.11893 0.62018
 C799 C 0.56638 1.13609 0.64694
 C800 C 0.58695 1.16310 0.66798
 C801 C 0.56411 1.08888 0.59965
 C802 C 0.57409 1.08016 0.56756
 H803 H 0.63465 1.20027 0.71132
 H804 H 0.68171 1.16268 0.63157
 H805 H 0.64561 1.11611 0.59471
 H806 H 0.53433 1.12826 0.65178
 H807 H 0.57042 1.17526 0.68875
 H808 H 0.53615 1.07518 0.60968
 H809 H 0.70489 1.21569 0.66160
 H810 H 0.60007 1.09545 0.55588
 C811 C 0.78356 0.28863 0.18925
 C812 C 0.77860 0.33057 0.17877
 C813 C 0.80333 0.35098 0.15268
 C814 C 0.82892 0.32810 0.13147
 C815 C 0.85429 0.34926 0.10918
 C816 C 0.85441 0.39383 0.10733
 C817 C 0.82779 0.41644 0.12777
 C818 C 0.80247 0.39532 0.15002
 C819 C 0.88339 0.41802 0.08625
 C820 C 0.90830 0.39997 0.06237
 H821 H 0.75786 0.35079 0.19233
 H822 H 0.83006 0.29394 0.13211
 H823 H 0.87448 0.33035 0.09426
 H824 H 0.82716 0.45073 0.12700
 H825 H 0.78297 0.41386 0.16588
 H826 H 0.88643 0.45164 0.09065
 H827 H 0.80426 0.26733 0.17684
 H828 H 0.90506 0.36700 0.05617
 C829 C 0.27747 0.79491 0.69161
 C830 C 0.28099 0.83811 0.68458
 C831 C 0.30767 0.85598 0.65868
 C832 C 0.32074 0.83266 0.63160
 C833 C 0.34815 0.85059 0.60901
 C834 C 0.36302 0.89200 0.61323
 C835 C 0.34899 0.91542 0.63974
 C836 C 0.32135 0.89782 0.66197
 C837 C 0.39568 0.91068 0.59247
 C838 C 0.40371 0.89919 0.56051
 H839 H 0.26705 0.86045 0.70110
 H840 H 0.31020 0.80062 0.62787
 H841 H 0.35876 0.83149 0.58902
 H842 H 0.35999 0.94735 0.64358
 H843 H 0.31165 0.91660 0.68245
 H844 H 0.41426 0.93555 0.60298
 H845 H 0.29238 0.77178 0.67636
 H846 H 0.38357 0.87744 0.54804
 C847 C 0.28362 1.18549 -0.18864
 C848 C 0.32540 1.18622 -0.17951
 C849 C 0.34207 1.17046 -0.14844
 C850 C 0.32460 1.13618 -0.13161
 C851 C 0.34407 1.11999 -0.10387
 C852 C 0.38117 1.13797 -0.09252
 C853 C 0.39730 1.17347 -0.10849
 C854 C 0.37822 1.18923 -0.13639
 C855 C 0.40439 1.11941 -0.06497
 C856 C 0.40567 1.07588 -0.05986
 H857 H 0.34722 1.20293 -0.19479
 H858 H 0.29688 1.12098 -0.14041
 H859 H 0.33027 1.09321 -0.09152
 H860 H 0.42558 1.18805 -0.10007
 H861 H 0.39207 1.21593 -0.14888
 H862 H 0.42382 1.13973 -0.05048
 H863 H 0.26070 1.17074 -0.17323
 H864 H 0.38883 1.05534 -0.07602
 C865 C 0.78335 0.69283 0.31058
 C866 C 0.81362 0.66116 0.31028
 C867 C 0.83017 0.63982 0.33958
 C868 C 0.86826 0.61859 0.33722
 C869 C 0.88578 0.59867 0.36420
 C870 C 0.86545 0.59944 0.39424
 C871 C 0.82662 0.61925 0.39641
 C872 C 0.80915 0.63948 0.36939
 C873 C 0.88404 0.57979 0.42346
 C874 C 0.92677 0.57760 0.42801
 H875 H 0.82779 0.65307 0.28738
 H876 H 0.88479 0.61776 0.31443
 H877 H 0.91506 0.58239 0.36135
 H878 H 0.81008 0.61967 0.41919
 H879 H 0.77916 0.65435 0.37200
 H880 H 0.86370 0.56965 0.44284
 H881 H 0.76948 0.70287 0.33303
 H882 H 0.94738 0.59097 0.41003
 C883 C 0.71893 1.20467 0.19370
 C884 C 0.68337 1.17961 0.19399
 C885 C 0.66276 1.16318 0.16466
 C886 C 0.63560 1.12889 0.16807
 C887 C 0.61368 1.11363 0.14151
 C888 C 0.61817 1.13260 0.11084
 C889 C 0.64454 1.16761 0.10751
 C890 C 0.66687 1.18267 0.13411
 C891 C 0.59558 1.11637 0.08228
 C892 C 0.58681 1.07342 0.07902
 H893 H 0.66918 1.17201 0.21705
 H894 H 0.63118 1.11389 0.19146
 H895 H 0.59266 1.08744 0.14523
 H896 H 0.64814 1.18310 0.08422
 H897 H 0.68646 1.21005 0.13078
 H898 H 0.58880 1.13780 0.06239
 H899 H 0.73545 1.21038 0.17135
 H900 H 0.59774 1.05130 0.09726
 C901 C 1.20840 0.71665 0.69350
 C902 C 1.18013 0.68334 0.69440
 C903 C 1.16463 0.66110 0.66549
 C904 C 1.12807 0.63756 0.66836
 C905 C 1.11236 0.61547 0.64200
 C906 C 1.13303 0.61635 0.61209
 C907 C 1.17022 0.63892 0.60938
 C908 C 1.18586 0.66131 0.63577
 C909 C 1.11664 0.59372 0.58364
 C910 C 1.07436 0.58749 0.57908
 H911 H 1.16750 0.67375 0.71760
 H912 H 1.11150 0.63631 0.69113
 H913 H 1.08439 0.59722 0.64533
 H914 H 1.18700 0.63955 0.58670
 H915 H 1.21479 0.67800 0.63287
 H916 H 1.13804 0.58429 0.56482
 H917 H 1.21992 0.72871 0.67071
 H918 H 1.05243 0.60013 0.59630
 C919 C 0.72787 0.80570 -0.18620
 C920 C 0.68881 0.82462 -0.18714
 C921 C 0.66635 0.83897 -0.15814
 C922 C 0.63630 0.87075 -0.16174
 C923 C 0.61389 0.88496 -0.13509
 C924 C 0.62087 0.86727 -0.10427
 C925 C 0.64983 0.83436 -0.10082
 C926 C 0.67265 0.82045 -0.12749
 C927 C 0.59849 0.88290 -0.07557
 C928 C 0.58784 0.92543 -0.07251
 H929 H 0.67416 0.83021 -0.21036
 H930 H 0.63033 0.88487 -0.18525
 H931 H 0.59082 0.90945 -0.13873
 H932 H 0.65525 0.81989 -0.07736
 H933 H 0.69460 0.79486 -0.12411
 H934 H 0.59370 0.86152 -0.05530
 H935 H 0.74448 0.80272 -0.16358
 H936 H 0.59653 0.94782 -0.09125
 C937 C 1.22199 0.30584 0.31171
 C938 C 1.17936 0.30421 0.31790
 C939 C 1.15764 0.32453 0.34511
 C940 C 1.17429 0.35856 0.36238
 C941 C 1.15078 0.37863 0.38629
 C942 C 1.11030 0.36479 0.39345
 C943 C 1.09403 0.33068 0.37620
 C944 C 1.11741 0.31079 0.35237
 C945 C 1.08364 0.38540 0.41793
 C946 C 1.09884 0.41110 0.44238
 H947 H 1.16005 0.28569 0.30200
 H948 H 1.20478 0.37063 0.35684
 H949 H 1.16412 0.40558 0.39832
 H950 H 1.06300 0.31944 0.38109
 H951 H 1.10377 0.28471 0.33929
 H952 H 1.05081 0.37842 0.41763
 H953 H 1.24273 0.32245 0.32768
 H954 H 1.13167 0.41692 0.44447
 C955 C 0.28182 0.78321 0.18376
 C956 C 0.27410 0.82471 0.17370
 C957 C 0.30206 0.84764 0.15133
 C958 C 0.32630 0.82649 0.12823
 C959 C 0.35390 0.84897 0.10859
 C960 C 0.35784 0.89314 0.11163
 C961 C 0.33269 0.91425 0.13405
 C962 C 0.30505 0.89177 0.15364
 C963 C 0.38602 0.91857 0.09094
 C964 C 0.41741 0.90147 0.07175
 H965 H 0.24973 0.84253 0.18546
 H966 H 0.32368 0.79267 0.12492
 H967 H 0.37134 0.83152 0.09080
 H968 H 0.33459 0.94830 0.13657
 H969 H 0.28649 0.90884 0.17107
 H970 H 0.38114 0.95253 0.09025
 H971 H 0.30870 0.76691 0.17452
 H972 H 0.42430 0.86799 0.07249
 C973 C 0.76898 0.28463 0.68107
 C974 C 0.79867 0.31673 0.68177
 C975 C 0.81708 0.33797 0.65319
 C976 C 0.85162 0.36388 0.65829
 C977 C 0.87109 0.38423 0.63248
 C978 C 0.85650 0.37913 0.60077
 C979 C 0.82115 0.35435 0.59560
 C980 C 0.80166 0.33365 0.62155
 C981 C 0.87774 0.39954 0.57308
 C982 C 0.92044 0.40596 0.57313
 H983 H 0.81110 0.32575 0.70505
 H984 H 0.86387 0.36824 0.68242
 H985 H 0.89738 0.40428 0.63752
 H986 H 0.80905 0.35042 0.57138
 H987 H 0.77468 0.31464 0.61663
 H988 H 0.86001 0.40733 0.55159
 H989 H 0.75653 0.27348 0.65847
 H990 H 0.93886 0.39431 0.59320
 C991 C 1.19905 1.19480 0.69740
 C992 C 1.21263 1.16446 0.67542
 C993 C 1.18768 1.15057 0.64733
 C994 C 1.19771 1.11226 0.63222
 C995 C 1.17440 1.09770 0.60606
 C996 C 1.14072 1.12157 0.59415
 C997 C 1.13151 1.16047 0.60868
 C998 C 1.15484 1.17504 0.63477
 C999 C 1.11230 1.10543 0.56891
 C1000 C 1.12115 1.07102 0.54902
 H1001 H 1.24259 1.14980 0.67911
 H1002 H 1.22314 1.09303 0.64116
 H1003 H 1.18215 1.06715 0.59611
 H1004 H 1.10582 1.17953 0.59999
 H1005 H 1.14704 1.20555 0.64477
 H1006 H 1.08163 1.11936 0.56769
 H1007 H 1.16785 1.20711 0.69582
 H1008 H 1.15204 1.05781 0.54826
 C1009 C 0.69092 0.69459 0.20302
 C1010 C 0.68929 0.69772 0.16934
 C1011 C 0.65872 0.67556 0.14890
 C1012 C 0.66712 0.67156 0.11577
 C1013 C 0.63981 0.65017 0.09552
 C1014 C 0.60337 0.63213 0.10802
 C1015 C 0.59402 0.63768 0.14086
 C1016 C 0.62140 0.65911 0.16118
 C1017 C 0.57523 0.60665 0.08767
 C1018 C 0.58958 0.58376 0.06119
 H1019 H 0.71288 0.71566 0.15690
 H1020 H 0.69521 0.68467 0.10554
 H1021 H 0.64737 0.64797 0.07010
 H1022 H 0.56583 0.62465 0.15098
 H1023 H 0.61299 0.66280 0.18631
 H1024 H 0.54364 0.60203 0.09575
 H1025 H 0.66921 0.67469 0.21587
 H1026 H 0.62195 0.58517 0.05459
 C1027 C 1.18860 0.80234 0.29007
 C1028 C 1.14976 0.79204 0.30233
 C1029 C 1.13291 0.81376 0.33079
 C1030 C 1.09027 0.82125 0.33321
 C1031 C 1.07423 0.84282 0.35984
 C1032 C 1.10071 0.85631 0.38469
 C1033 C 1.14300 0.84671 0.38302
 C1034 C 1.15907 0.82587 0.35621
 C1035 C 1.08556 0.88122 0.41224
 C1036 C 1.05415 0.91120 0.40891
 H1037 H 1.13191 0.76679 0.29164
 H1038 H 1.06955 0.81122 0.31417
 H1039 H 1.04125 0.84877 0.36102
 H1040 H 1.16382 0.85631 0.40213
 H1041 H 1.19192 0.81898 0.35548
 H1042 H 1.10322 0.87999 0.43451
 H1043 H 1.20440 0.82998 0.29908
 H1044 H 1.03838 0.91514 0.38597
 C1045 C 0.70353 0.29498 -0.20034
 C1046 C 0.67029 0.28252 -0.18103
 C1047 C 0.65476 0.30840 -0.15402
 C1048 C 0.61353 0.30379 -0.14407
 C1049 C 0.59736 0.32924 -0.11960
 C1050 C 0.62237 0.35967 -0.10454
 C1051 C 0.66424 0.36245 -0.11318
 C1052 C 0.68035 0.33713 -0.13769
 C1053 C 0.60573 0.39005 -0.08081
 C1054 C 0.56454 0.40330 -0.08100
 H1055 H 0.65410 0.25350 -0.18658
 H1056 H 0.59353 0.28107 -0.15573
 H1057 H 0.56534 0.32504 -0.11271
 H1058 H 0.68432 0.38511 -0.10153
 H1059 H 0.71280 0.34016 -0.14368
 H1060 H 0.62760 0.40667 -0.06566
 H1061 H 0.71802 0.32540 -0.19674
 H1062 H 0.54247 0.38889 -0.09718
 C1063 C 0.81282 1.21230 0.30253
 C1064 C 0.80646 1.17408 0.31889
 C1065 C 0.83097 1.16028 0.34741
 C1066 C 0.81410 1.12981 0.36845
 C1067 C 0.83629 1.11542 0.39547
 C1068 C 0.87607 1.13128 0.40198
 C1069 C 0.89263 1.16215 0.38112
 C1070 C 0.87052 1.17645 0.35412
 C1071 C 0.90313 1.11378 0.42786
 C1072 C 0.89171 1.08209 0.44990
 H1073 H 0.78024 1.15488 0.31219
 H1074 H 0.78367 1.11687 0.36387
 H1075 H 0.82240 1.09122 0.41048
 H1076 H 0.92341 1.17453 0.38523
 H1077 H 0.88517 1.19923 0.33826
 H1078 H 0.93543 1.12294 0.42704
 H1079 H 0.83829 1.23256 0.30909
 H1080 H 0.85965 1.07339 0.45307
 C1081 C 0.29799 0.70714 -0.19758
 C1082 C 0.33168 0.72394 -0.18100
 C1083 C 0.35103 0.70165 -0.15333
 C1084 C 0.39270 0.70910 -0.14581
 C1085 C 0.41168 0.68759 -0.12002
 C1086 C 0.38893 0.65865 -0.10109
 C1087 C 0.34671 0.65312 -0.10763
 C1088 C 0.32793 0.67428 -0.13346
 C1089 C 0.40793 0.63188 -0.07557
 C1090 C 0.44979 0.62085 -0.07500
 H1091 H 0.34374 0.75461 -0.18801
 H1092 H 0.41077 0.73098 -0.16029
 H1093 H 0.44397 0.69368 -0.11514
 H1094 H 0.32832 0.63148 -0.09317
 H1095 H 0.29525 0.66930 -0.13762
 H1096 H 0.38702 0.61459 -0.05983
 H1097 H 0.28819 0.67503 -0.19262
 H1098 H 0.47179 0.63700 -0.09041
 C1099 C 0.82925 0.83069 0.71394
 C1100 C 0.86994 0.82046 0.70595
 C1101 C 0.89613 0.84982 0.68733
 C1102 C 0.92433 0.83346 0.66488
 C1103 C 0.94592 0.86068 0.64423
 C1104 C 0.93975 0.90466 0.64605
 C1105 C 0.91430 0.92112 0.67034
 C1106 C 0.89242 0.89390 0.69077
 C1107 C 0.95640 0.93359 0.62127
 C1108 C 0.95639 0.92222 0.58884
 H1109 H 0.88165 0.78890 0.71092
 H1110 H 0.92820 0.79957 0.66233
 H1111 H 0.96650 0.84733 0.62630
 H1112 H 0.90968 0.95497 0.67241
 H1113 H 0.87203 0.90737 0.70876
 H1114 H 0.96239 0.96616 0.62776
 H1115 H 0.81639 0.86103 0.70685
 H1116 H 0.94736 0.89058 0.58193
 C1117 C 0.31663 0.31319 0.20378
 C1118 C 0.31646 0.30948 0.17007
 C1119 C 0.34435 0.33262 0.14775
 C1120 C 0.33307 0.33607 0.11503
 C1121 C 0.35879 0.35662 0.09275
 C1122 C 0.39659 0.37402 0.10277
 C1123 C 0.40829 0.36978 0.13538
 C1124 C 0.38243 0.34944 0.15772
 C1125 C 0.42453 0.39680 0.08020
 C1126 C 0.41117 0.41701 0.05181
 H1127 H 0.29366 0.28944 0.15892
 H1128 H 0.30415 0.32280 0.10663
 H1129 H 0.34916 0.35819 0.06772
 H1130 H 0.43747 0.38254 0.14366
 H1131 H 0.39277 0.34634 0.18249
 H1132 H 0.45609 0.40188 0.08814
 H1133 H 0.33770 0.33481 0.21538
 H1134 H 0.37912 0.41522 0.04443
   
