data_POSCAR
  _audit_creation_date              2014-09-24
  _audit_creation_method            'ToBaCCo'
  _symmetry_space_group_name_H-M    'P1'
  _symmetry_Int_Tables_number       1
  _symmetry_cell_setting            triclinic
  loop_
  _symmetry_equiv_pos_as_xyz
 x,y,z
_cell_length_a 22.9832
_cell_length_b 23.4410
_cell_length_c 62.3900
_cell_angle_alpha 82.074800
_cell_angle_beta 95.106300
_cell_angle_gamma 120.313400
loop_
  _atom_site_label
  _atom_site_type_symbol
  _atom_site_fract_x
  _atom_site_fract_y
  _atom_site_fract_z
C1 C 0.01626 0.15631 0.52350
 H2 H 0.06529 0.16106 0.52248
 C3 C 0.00768 0.19400 0.53699
 H4 H 0.05025 0.22791 0.54639
 C5 C -0.09971 0.10405 0.51324
 H6 H -0.14143 0.06830 0.50413
 C7 C -0.11060 0.14074 0.52671
 H8 H -0.16080 0.13301 0.52806
 N9 N -0.03722 0.11153 0.51228
 C10 C -0.00509 -0.05500 0.50922
 H11 H -0.00261 -0.05502 0.49199
 C12 C -0.00383 -0.10573 0.52366
 H13 H -0.00001 -0.14479 0.51757
 C14 C -0.01585 -0.00579 0.53829
 H15 H -0.02197 0.03224 0.54400
 C16 C -0.01463 -0.05527 0.55320
 H17 H -0.01930 -0.05472 0.57029
 Zn18 Zn -0.01921 0.05828 0.49687
 N19 N -0.01102 -0.00634 0.51675
 C20 C 0.11360 0.10235 0.48280
 N21 N 0.06200 0.11542 0.48195
 C22 C 0.06589 0.17020 0.46992
 C23 C 0.12209 0.21297 0.45736
 C24 C 0.17085 0.14391 0.47040
 C25 C -0.15013 -0.03799 0.48404
 C26 C -0.19953 -0.07776 0.46950
 C27 C -0.12370 -0.01142 0.44020
 C28 C -0.07587 0.02665 0.45523
 N29 N -0.08946 0.01265 0.47672
 H30 H 0.10989 0.05906 0.49268
 H31 H 0.02431 0.17959 0.46967
 H32 H 0.12381 0.25538 0.44735
 H33 H 0.21092 0.13227 0.47062
 H34 H -0.15915 -0.04903 0.50124
 H35 H -0.24685 -0.11921 0.47557
 H36 H -0.11124 -0.00060 0.42321
 H37 H -0.02707 0.06585 0.44968
 C38 C -0.00897 -0.10587 0.54585
 C39 C -0.05642 0.18545 0.53890
 C40 C -0.18576 -0.06473 0.44737
 C41 C 0.17463 0.19925 0.45738
 C42 C 1.20762 0.07975 0.14235
 H43 H 1.21806 0.12987 0.14316
 C44 C 1.24644 0.06864 0.12937
 H45 H 1.28692 0.11033 0.12014
 C46 C 1.13965 -0.03610 0.15241
 H47 H 1.09723 -0.07669 0.16114
 C48 C 1.17719 -0.04946 0.13948
 H49 H 1.16346 -0.10039 0.13819
 N50 N 1.15460 0.02767 0.15320
 C51 C 0.98861 0.06579 0.15369
 H52 H 0.98177 0.06273 0.17083
 C53 C 0.93975 0.06655 0.13874
 H54 H 0.89538 0.06446 0.14436
 C55 C 1.05177 0.06674 0.12544
 H56 H 1.09415 0.06464 0.12028
 C57 C 1.00451 0.06793 0.11002
 H58 H 1.01102 0.06699 0.09311
 Zn59 Zn 1.09958 0.04835 0.16757
 N60 N 1.04268 0.06472 0.14685
 C61 C 1.14151 0.17226 0.18362
 N62 N 1.15630 0.12337 0.18247
 C63 C 1.21016 0.12345 0.19347
 C64 C 1.25023 0.17266 0.20693
 C65 C 1.18030 0.22245 0.19704
 C66 C 0.98861 -0.07759 0.18059
 C67 C 0.94063 -0.12586 0.19518
 C68 C 1.00772 -0.06248 0.22438
 C69 C 1.05407 -0.01539 0.20931
 N70 N 1.04342 -0.02313 0.18783
 H71 H 1.09830 0.17101 0.17481
 H72 H 1.22035 0.08365 0.19241
 H73 H 1.29152 0.17086 0.21622
 H74 H 1.16686 0.25981 0.19858
 H75 H 0.98058 -0.08192 0.16340
 H76 H 0.89575 -0.16767 0.18925
 H77 H 1.01554 -0.05457 0.24135
 H78 H 1.09707 0.02854 0.21479
 C79 C 0.94735 0.06648 0.11674
 C80 C 1.23039 0.00346 0.12761
 C81 C 0.94989 -0.11752 0.21725
 C82 C 1.23450 0.22191 0.20904
 C83 C 0.02418 0.87116 0.85985
 H84 H -0.01939 0.82228 0.85882
 C85 C 0.07894 0.87874 0.87325
 H86 H 0.07752 0.83559 0.88265
 C87 C 0.07800 0.98748 0.84960
 H88 H 0.07715 1.02972 0.84050
 C89 C 0.13389 0.99731 0.86292
 H90 H 0.17568 1.04715 0.86421
 N91 N 0.02387 0.92526 0.84880
 C92 C -0.18474 0.88160 0.84615
 H93 H -0.19522 0.88541 0.82892
 C94 C -0.23195 0.87320 0.86080
 H95 H -0.27904 0.87022 0.85482
 C96 C -0.10905 0.88480 0.87502
 H97 H -0.06050 0.89131 0.88060
 C98 C -0.15469 0.87618 0.89014
 H99 H -0.14096 0.87557 0.90722
 Zn100 Zn -0.05698 0.90914 0.83345
 N101 N -0.12443 0.88769 0.85347
 C102 C -0.14470 0.78533 0.81594
 N103 N -0.08127 0.83870 0.81665
 C104 C -0.03112 0.84524 0.80472
 C105 C -0.04423 0.79823 0.79081
 C106 C -0.16008 0.73703 0.80211
 C107 C -0.03235 1.04096 0.82359
 C108 C -0.02614 1.09663 0.81012
 C109 C -0.04667 1.03670 0.77918
 C110 C -0.05253 0.98238 0.79316
 N111 N -0.04487 0.98546 0.81492
 H112 H -0.18363 0.78086 0.82571
 H113 H 0.01885 0.88805 0.80567
 H114 H -0.00423 0.80483 0.78100
 H115 H -0.21096 0.69550 0.80115
 H116 H -0.02785 1.04167 0.84097
 H117 H -0.01641 1.14055 0.81709
 H118 H -0.05311 1.03355 0.76188
 H119 H -0.06411 0.93755 0.78653
 C120 C -0.21634 0.87114 0.88301
 C121 C 0.13373 0.94245 0.87512
 C122 C -0.03344 1.09428 0.78770
 C123 C -0.10937 0.74407 0.78929
 C124 C 0.36494 -0.03147 0.00152
 C125 C 0.38825 -0.03378 -0.01814
 C126 C 0.44855 -0.03517 -0.01827
 C127 C 0.48332 -0.03903 0.00124
 C128 C 0.45716 -0.03899 0.02090
 C129 C 0.39945 -0.03301 0.02105
 C130 C 0.54614 -0.04352 0.00107
 C131 C 0.59538 -0.02084 0.01786
 C132 C 0.65296 -0.02731 0.01816
 C133 C 0.66345 -0.05309 0.00085
 C134 C 0.61647 -0.07422 -0.01635
 C135 C 0.55735 -0.07088 -0.01586
 H136 H 0.31931 -0.02867 0.00164
 H137 H 0.46735 -0.03413 -0.03367
 H138 H 0.48151 -0.04304 0.03621
 H139 H 0.58925 0.00144 0.03090
 H140 H 0.70954 -0.05491 0.00049
 H141 H 0.51997 -0.09081 -0.02865
 C142 C -0.08839 0.61218 0.66624
 C143 C -0.10639 0.56548 0.68462
 C144 C -0.10373 0.50719 0.68403
 C145 C -0.08062 0.49637 0.66563
 C146 C -0.06199 0.54462 0.64747
 C147 C -0.06639 0.60215 0.64759
 C148 C -0.07339 0.43637 0.66568
 C149 C -0.07910 0.40917 0.64625
 C150 C -0.06779 0.35573 0.64609
 C151 C -0.05418 0.32699 0.66567
 C152 C -0.04979 0.35195 0.68525
 C153 C -0.05847 0.40709 0.68512
 H154 H -0.09039 0.65724 0.66657
 H155 H -0.11994 0.47040 0.69803
 H156 H -0.04168 0.53909 0.63340
 H157 H -0.09120 0.42999 0.63112
 H158 H -0.04820 0.28398 0.66569
 H159 H -0.05165 0.42792 0.70019
 C160 C 0.67909 0.72567 0.33210
 C161 C 0.66792 0.68741 0.31518
 C162 C 0.61344 0.62205 0.31622
 C163 C 0.56820 0.59559 0.33350
 C164 C 0.57995 0.63568 0.35010
 C165 C 0.63596 0.70007 0.34974
 C166 C 0.50921 0.52643 0.33425
 C167 C 0.48332 0.48861 0.35424
 C168 C 0.42741 0.42408 0.35508
 C169 C 0.39882 0.39608 0.33573
 C170 C 0.42437 0.43197 0.31565
 C171 C 0.47837 0.49752 0.31500
 H172 H 0.72307 0.77489 0.33187
 H173 H 0.60657 0.59220 0.30345
 H174 H 0.54532 0.61754 0.36329
 H175 H 0.50690 0.50858 0.36930
 H176 H 0.35499 0.34671 0.33622
 H177 H 0.49631 0.52552 0.29941
 C178 C -0.06891 0.27672 0.58780
 C179 C -0.01725 0.29021 0.60338
 C180 C -0.01658 0.31694 0.62207
 C181 C -0.06615 0.21853 0.55485
 C182 C -0.11877 0.31849 0.60958
 C183 C -0.11949 0.29136 0.59081
 C184 C -0.06981 0.24562 0.56934
 C185 C -0.06773 0.33061 0.62553
 H186 H 0.02223 0.27925 0.60120
 H187 H 0.02393 0.32677 0.63391
 H188 H -0.15892 0.32830 0.61191
 H189 H -0.15982 0.28094 0.57886
 C190 C 0.80483 0.77500 0.26228
 C191 C 0.78364 0.70935 0.27101
 C192 C 0.73804 0.68005 0.28800
 C193 C 0.89770 0.83944 0.23243
 C194 C 0.73439 0.78185 0.28732
 C195 C 0.77963 0.81085 0.27037
 C196 C 0.85478 0.80771 0.24576
 C197 C 0.71362 0.71640 0.29649
 H198 H 0.80314 0.68127 0.26495
 H199 H 0.72332 0.62975 0.29487
 H200 H 0.71571 0.81069 0.29332
 H201 H 0.79570 0.86169 0.26374
 C202 C 0.26810 -0.04227 -0.07573
 C203 C 0.23805 -0.08196 -0.05664
 C204 C 0.27743 -0.07950 -0.03808
 C205 C 0.18575 -0.04880 -0.10885
 C206 C 0.37794 0.00191 -0.05765
 C207 C 0.33819 -0.00053 -0.07629
 C208 C 0.22557 -0.04427 -0.09431
 C209 C 0.34771 -0.03711 -0.03829
 H210 H 0.18390 -0.11460 -0.05604
 H211 H 0.25289 -0.11096 -0.02353
 H212 H 0.43191 0.03523 -0.05822
 H213 H 0.36194 0.03050 -0.09100
 C214 C -0.02193 0.74872 0.59264
 C215 C 0.00339 0.76834 0.61322
 C216 C -0.00919 0.72064 0.63096
 C217 C -0.01153 0.84125 0.56125
 C218 C -0.07066 0.63312 0.60753
 C219 C -0.05818 0.68103 0.58976
 C220 C -0.01540 0.79824 0.57509
 C221 C -0.04749 0.65250 0.62839
 H222 H 0.03136 0.82056 0.61565
 H223 H 0.01014 0.73701 0.64678
 H224 H -0.10065 0.58098 0.60512
 H225 H -0.07845 0.66529 0.57393
 C226 C 0.33335 0.33587 0.25815
 C227 C 0.34843 0.30235 0.27610
 C228 C 0.37879 0.33408 0.29461
 C229 C 0.27009 0.26703 0.22513
 C230 C 0.38037 0.43394 0.27724
 C231 C 0.34970 0.40190 0.25866
 C232 C 0.29938 0.30073 0.23967
 C233 C 0.39453 0.39999 0.29549
 H234 H 0.33615 0.25131 0.27586
 H235 H 0.39003 0.30704 0.30829
 H236 H 0.39151 0.48456 0.27753
 H237 H 0.33806 0.42824 0.24486
 C238 C 0.67650 -0.12436 -0.07082
 C239 C 0.68326 -0.15093 -0.04986
 C240 C 0.66072 -0.13735 -0.03218
 C241 C 0.74234 -0.13053 -0.10226
 C242 C 0.62161 -0.07294 -0.05643
 C243 C 0.64441 -0.08645 -0.07412
 C244 C 0.70984 -0.12932 -0.08835
 C245 C 0.63125 -0.09675 -0.03522
 H246 H 0.70837 -0.18001 -0.04709
 H247 H 0.66806 -0.15699 -0.01605
 H248 H 0.59970 -0.04102 -0.05925
 H249 H 0.63955 -0.06503 -0.09024
 C250 C 0.32201 -0.01823 0.07892
 C251 C 0.34249 -0.06535 0.07904
 C252 C 0.36921 -0.06958 0.06036
 C253 C 0.26407 -0.00827 0.11183
 C254 C 0.35565 0.02091 0.04166
 C255 C 0.32931 0.02518 0.06026
 C256 C 0.29127 -0.01464 0.09742
 C257 C 0.37512 -0.02700 0.04139
 H258 H 0.33691 -0.09929 0.09340
 H259 H 0.38350 -0.10716 0.06053
 H260 H 0.36061 0.05500 0.02740
 H261 H 0.31382 0.06195 0.06000
 C262 C 0.70157 0.81803 0.40301
 C263 C 0.67419 0.74907 0.40689
 C264 C 0.64935 0.71002 0.38964
 C265 C 0.77250 0.89545 0.43351
 C266 C 0.67672 0.80856 0.36466
 C267 C 0.70136 0.84743 0.38192
 C268 C 0.73771 0.85952 0.42000
 C269 C 0.65219 0.73967 0.36826
 H270 H 0.67479 0.72586 0.42312
 H271 H 0.63140 0.65723 0.39288
 H272 H 0.67878 0.83261 0.34840
 H273 H 0.72282 0.90080 0.37870
 C274 C -0.02600 0.24108 0.74263
 C275 C -0.07155 0.26434 0.74223
 C276 C -0.07704 0.30340 0.72393
 C277 C -0.02919 0.14945 0.77315
 C278 C 0.01023 0.29784 0.70674
 C279 C 0.01581 0.25910 0.72503
 C280 C -0.02700 0.19290 0.75982
 C281 C -0.03746 0.31896 0.70577
 H282 H -0.10458 0.25019 0.75568
 H283 H -0.11452 0.31859 0.72354
 H284 H 0.04194 0.30981 0.69309
 H285 H 0.05102 0.24115 0.72512
 C286 C 0.79812 0.02724 0.07088
 C287 C 0.77544 -0.03246 0.06208
 C288 C 0.72780 -0.05021 0.04514
 C289 C 0.89389 0.05721 0.10121
 C290 C 0.72413 0.05107 0.04581
 C291 C 0.77217 0.06892 0.06280
 C292 C 0.84973 0.04555 0.08763
 C293 C 0.70201 -0.00844 0.03666
 H294 H 0.79510 -0.06513 0.06820
 H295 H 0.71096 -0.09681 0.03866
 H296 H 0.70548 0.08440 0.03950
 H297 H 0.78959 0.11540 0.06944
 C298 C 0.32016 0.31240 0.41286
 C299 C 0.34663 0.38130 0.40965
 C300 C 0.38463 0.41834 0.39137
 C301 C 0.22945 0.23950 0.44284
 C302 C 0.37201 0.31792 0.37990
 C303 C 0.33414 0.28103 0.39819
 C304 C 0.27253 0.27301 0.42968
 C305 C 0.39614 0.38670 0.37600
 H306 H 0.33557 0.40599 0.42080
 H307 H 0.40196 0.47108 0.38869
 H308 H 0.38081 0.29238 0.36847
 H309 H 0.31366 0.22768 0.40046
 C310 C -0.13556 0.62906 0.74197
 C311 C -0.09939 0.59530 0.74315
 C312 C -0.09324 0.57099 0.72473
 C313 C -0.12359 0.69878 0.77361
 C314 C -0.16212 0.61143 0.70412
 C315 C -0.16827 0.63562 0.72256
 C316 C -0.13134 0.66473 0.75960
 C317 C -0.12281 0.58066 0.70485
 H318 H -0.07322 0.59061 0.75802
 H319 H -0.06205 0.54819 0.72574
 H320 H -0.18611 0.61886 0.68910
 H321 H -0.19603 0.66203 0.72141
   
