data_POSCAR
  _audit_creation_date              2014-09-24
  _audit_creation_method            'ToBaCCo'
  _symmetry_space_group_name_H-M    'P1'
  _symmetry_Int_Tables_number       1
  _symmetry_cell_setting            triclinic
  loop_
  _symmetry_equiv_pos_as_xyz
 x,y,z
_cell_length_a 27.2856
_cell_length_b 26.3996
_cell_length_c 30.9782
_cell_angle_alpha 90.000000
_cell_angle_beta 90.000000
_cell_angle_gamma 90.000000
loop_
  _atom_site_label
  _atom_site_type_symbol
  _atom_site_fract_x
  _atom_site_fract_y
  _atom_site_fract_z
B1 B 0.27094 0.22641 0.21014
 B2 B 0.28338 0.28725 0.22221
 B3 B 0.22544 0.27062 0.21021
 B4 B 0.21522 0.21223 0.23093
 B5 B 0.26755 0.19412 0.25654
 B6 B 0.31006 0.24077 0.25064
 B7 B 0.23369 0.27926 0.29723
 B8 B 0.22110 0.21849 0.28497
 B9 B 0.27904 0.23516 0.29713
 B10 B 0.28939 0.29360 0.27634
 B11 B 0.23699 0.31175 0.25080
 B12 B 0.19458 0.26504 0.25669
 B13 B 0.72908 0.77359 0.21014
 B14 B 0.71665 0.71276 0.22221
 B15 B 0.77459 0.72938 0.21021
 B16 B 0.78480 0.78777 0.23093
 B17 B 0.73248 0.80588 0.25654
 B18 B 0.68997 0.75924 0.25064
 B19 B 0.76633 0.72075 0.29723
 B20 B 0.77893 0.78152 0.28497
 B21 B 0.72099 0.76485 0.29713
 B22 B 0.71063 0.70640 0.27634
 B23 B 0.76304 0.68826 0.25080
 B24 B 0.80545 0.73496 0.25669
 B25 B 0.72099 0.23516 -0.29714
 B26 B 0.77893 0.21849 -0.28499
 B27 B 0.76634 0.27926 -0.29724
 B28 B 0.71064 0.29360 -0.27636
 B29 B 0.68997 0.24077 -0.25065
 B30 B 0.73248 0.19412 -0.25655
 B31 B 0.77459 0.27062 -0.21023
 B32 B 0.71665 0.28725 -0.22222
 B33 B 0.72908 0.22641 -0.21015
 B34 B 0.78480 0.21223 -0.23094
 B35 B 0.80545 0.26504 -0.25671
 B36 B 0.76304 0.31175 -0.25082
 B37 B 0.27904 0.76485 -0.29714
 B38 B 0.22110 0.78152 -0.28499
 B39 B 0.23369 0.72075 -0.29724
 B40 B 0.28939 0.70640 -0.27636
 B41 B 0.31006 0.75924 -0.25065
 B42 B 0.26755 0.80588 -0.25655
 B43 B 0.22544 0.72938 -0.21023
 B44 B 0.28338 0.71275 -0.22222
 B45 B 0.27094 0.77359 -0.21015
 B46 B 0.21523 0.78777 -0.23094
 B47 B 0.19457 0.73496 -0.25671
 B48 B 0.23699 0.68826 -0.25082
 B49 B 1.22544 1.27062 0.78977
 B50 B 1.28338 1.28725 0.77778
 B51 B 1.27094 1.22641 0.78985
 B52 B 1.21522 1.21223 0.76906
 B53 B 1.19458 1.26505 0.74329
 B54 B 1.23699 1.31175 0.74918
 B55 B 1.27904 1.23516 0.70286
 B56 B 1.22109 1.21849 0.71501
 B57 B 1.23369 1.27926 0.70276
 B58 B 1.28939 1.29360 0.72364
 B59 B 1.31006 1.24077 0.74934
 B60 B 1.26755 1.19412 0.74345
 B61 B 0.77458 0.72938 0.78977
 B62 B 0.71664 0.71276 0.77778
 B63 B 0.72908 0.77359 0.78985
 B64 B 0.78480 0.78777 0.76906
 B65 B 0.80545 0.73496 0.74329
 B66 B 0.76304 0.68826 0.74918
 B67 B 0.72099 0.76485 0.70286
 B68 B 0.77893 0.78152 0.71501
 B69 B 0.76633 0.72075 0.70276
 B70 B 0.71063 0.70640 0.72364
 B71 B 0.68997 0.75924 0.74934
 B72 B 0.73248 0.80588 0.74345
 B73 B 1.23369 0.72075 0.29723
 B74 B 1.22110 0.78152 0.28497
 B75 B 1.27904 0.76485 0.29713
 B76 B 1.28939 0.70640 0.27634
 B77 B 1.23699 0.68826 0.25080
 B78 B 1.19457 0.73496 0.25669
 B79 B 1.27094 0.77359 0.21014
 B80 B 1.28338 0.71276 0.22221
 B81 B 1.22544 0.72938 0.21021
 B82 B 1.21522 0.78777 0.23093
 B83 B 1.26755 0.80588 0.25654
 B84 B 1.31006 0.75924 0.25064
 B85 B 0.77459 1.27062 0.21021
 B86 B 0.71665 1.28725 0.22221
 B87 B 0.72908 1.22641 0.21014
 B88 B 0.78480 1.21223 0.23093
 B89 B 0.80545 1.26504 0.25669
 B90 B 0.76304 1.31175 0.25080
 B91 B 0.72099 1.23516 0.29713
 B92 B 0.77893 1.21849 0.28497
 B93 B 0.76634 1.27926 0.29723
 B94 B 0.71064 1.29360 0.27634
 B95 B 0.68997 1.24077 0.25064
 B96 B 0.73247 1.19412 0.25654
 N97 N 0.58726 1.05314 0.04635
 N98 N 0.62480 1.08238 0.05655
 N99 N 0.55422 0.94684 0.07732
 N100 N 0.56921 0.91780 0.10959
 N101 N 0.58726 0.94687 0.04636
 N102 N 0.62481 0.91763 0.05655
 N103 N 0.55422 1.05316 0.07732
 N104 N 0.56921 1.08220 0.10959
 C105 C 0.61282 1.10089 0.09568
 C106 C 0.61282 0.89911 0.09568
 N107 N 0.41276 0.94686 0.04635
 N108 N 0.37522 0.91762 0.05655
 N109 N 0.44580 1.05316 0.07732
 N110 N 0.43082 1.08220 0.10959
 N111 N 0.41276 1.05314 0.04635
 N112 N 0.37522 1.08238 0.05655
 N113 N 0.44580 0.94684 0.07732
 N114 N 0.43082 0.91780 0.10959
 Mn115 Mn 0.50001 1.00000 0.07766
 C116 C 0.38721 0.89911 0.09568
 C117 C 0.38721 1.10089 0.09568
 N118 N 0.58726 0.94686 -0.04637
 N119 N 0.62481 0.91763 -0.05656
 N120 N 0.55422 1.05316 -0.07733
 N121 N 0.56921 1.08220 -0.10961
 N122 N 0.58726 1.05314 -0.04637
 N123 N 0.62480 1.08238 -0.05657
 N124 N 0.55422 0.94684 -0.07733
 N125 N 0.56921 0.91780 -0.10961
 Mn126 Mn 0.58704 1.00000 -0.00001
 C127 C 0.61282 0.89911 -0.09569
 C128 C 0.61282 1.10089 -0.09569
 N129 N 0.41276 1.05314 -0.04637
 N130 N 0.37522 1.08238 -0.05657
 N131 N 0.44580 0.94684 -0.07733
 N132 N 0.43082 0.91780 -0.10961
 N133 N 0.41276 0.94686 -0.04637
 N134 N 0.37522 0.91762 -0.05656
 N135 N 0.44580 1.05316 -0.07733
 N136 N 0.43082 1.08220 -0.10961
 Mn137 Mn 0.41298 1.00000 -0.00001
 Mn138 Mn 0.50001 1.00000 -0.07767
 Cl139 Cl 0.50001 1.00000 -0.00001
 C140 C 0.38721 1.10089 -0.09569
 C141 C 0.38721 0.89911 -0.09569
 N142 N 0.94804 0.58983 0.54646
 N143 N 0.91138 0.62174 0.55270
 N144 N 1.05209 0.55438 0.57618
 N145 N 1.08896 0.56111 0.60324
 N146 N 1.05198 0.58983 0.54646
 N147 N 1.08864 0.62175 0.55270
 N148 N 0.94794 0.55438 0.57618
 N149 N 0.91106 0.56111 0.60324
 C150 C 0.88809 0.60287 0.58786
 C151 C 1.11193 0.60288 0.58786
 N152 N 1.05199 0.41018 0.54646
 N153 N 1.08865 0.37826 0.55270
 N154 N 0.94794 0.44562 0.57618
 N155 N 0.91106 0.43890 0.60324
 N156 N 0.94804 0.41018 0.54646
 N157 N 0.91138 0.37826 0.55270
 N158 N 1.05209 0.44562 0.57618
 N159 N 1.08896 0.43890 0.60324
 Mn160 Mn 1.00001 0.50000 0.57676
 C161 C 1.11193 0.39713 0.58786
 C162 C 0.88810 0.39713 0.58786
 N163 N 1.05198 0.58983 0.45352
 N164 N 1.08864 0.62175 0.44728
 N165 N 0.94794 0.55438 0.42380
 N166 N 0.91106 0.56111 0.39674
 N167 N 0.94804 0.58983 0.45352
 N168 N 0.91138 0.62174 0.44728
 N169 N 1.05209 0.55438 0.42380
 N170 N 1.08896 0.56111 0.39674
 Mn171 Mn 1.00001 0.59053 0.49999
 C172 C 1.11193 0.60288 0.41213
 C173 C 0.88809 0.60287 0.41213
 N174 N 0.94804 0.41018 0.45352
 N175 N 0.91138 0.37826 0.44728
 N176 N 1.05209 0.44562 0.42380
 N177 N 1.08896 0.43890 0.39674
 N178 N 1.05199 0.41018 0.45352
 N179 N 1.08865 0.37826 0.44728
 N180 N 0.94794 0.44562 0.42380
 N181 N 0.91106 0.43889 0.39674
 Mn182 Mn 1.00001 0.40948 0.49999
 Mn183 Mn 1.00001 0.50000 0.42323
 Cl184 Cl 1.00001 0.50000 0.49999
 C185 C 0.88810 0.39713 0.41213
 C186 C 1.11193 0.39713 0.41213
 N187 N 0.94853 0.55595 -0.07719
 N188 N 0.91984 0.57078 -0.10927
 N189 N 1.05140 0.59038 -0.04646
 N190 N 1.08013 0.62886 -0.05669
 N191 N 1.05149 0.55595 -0.07719
 N192 N 1.08018 0.57079 -0.10927
 N193 N 0.94862 0.59038 -0.04646
 N194 N 0.91990 0.62886 -0.05669
 C195 C 0.90161 0.61587 -0.09557
 C196 C 1.09841 0.61587 -0.09557
 N197 N 1.05149 0.55595 0.07718
 N198 N 1.08018 0.57079 0.10925
 N199 N 0.94862 0.59038 0.04645
 N200 N 0.91990 0.62886 0.05667
 N201 N 0.94853 0.55595 0.07718
 N202 N 0.91984 0.57079 0.10925
 N203 N 1.05140 0.59038 0.04645
 N204 N 1.08013 0.62886 0.05667
 Mn205 Mn 1.00001 0.59021 -0.00001
 C206 C 1.09841 0.61587 0.09556
 C207 C 0.90161 0.61587 0.09556
 N208 N 1.05150 0.44405 -0.07719
 N209 N 1.08018 0.42922 -0.10927
 N210 N 0.94862 0.40962 -0.04646
 N211 N 0.91990 0.37114 -0.05669
 N212 N 0.94853 0.44405 -0.07719
 N213 N 0.91985 0.42922 -0.10927
 N214 N 1.05140 0.40962 -0.04646
 N215 N 1.08013 0.37115 -0.05669
 Mn216 Mn 1.00001 0.50000 -0.07752
 C217 C 1.09842 0.38413 -0.09557
 C218 C 0.90161 0.38413 -0.09557
 N219 N 0.94853 0.44405 0.07718
 N220 N 0.91985 0.42922 0.10925
 N221 N 1.05140 0.40962 0.04645
 N222 N 1.08013 0.37115 0.05667
 N223 N 1.05150 0.44405 0.07718
 N224 N 1.08018 0.42922 0.10925
 N225 N 0.94862 0.40962 0.04645
 N226 N 0.91990 0.37114 0.05667
 Mn227 Mn 1.00001 0.50000 0.07751
 Mn228 Mn 1.00001 0.40980 -0.00001
 Cl229 Cl 1.00001 0.50000 -0.00001
 C230 C 0.90161 0.38413 0.09556
 C231 C 1.09842 0.38413 0.09556
 N232 N 0.58683 1.05370 0.54639
 N233 N 0.61829 1.09102 0.55278
 N234 N 0.55281 0.94615 0.57635
 N235 N 0.56024 0.90859 0.60383
 N236 N 0.58683 0.94631 0.54639
 N237 N 0.61829 0.90899 0.55278
 N238 N 0.55280 1.05386 0.57635
 N239 N 0.56023 1.09142 0.60383
 C240 C 0.60078 1.11488 0.58829
 C241 C 0.60079 0.88512 0.58829
 N242 N 0.41320 0.94630 0.54639
 N243 N 0.38174 0.90899 0.55278
 N244 N 0.44722 1.05386 0.57635
 N245 N 0.43979 1.09142 0.60383
 N246 N 0.41320 1.05370 0.54639
 N247 N 0.38174 1.09101 0.55278
 N248 N 0.44722 0.94615 0.57635
 N249 N 0.43979 0.90859 0.60383
 Mn250 Mn 0.50001 1.00000 0.57696
 C251 C 0.39924 0.88512 0.58829
 C252 C 0.39924 1.11488 0.58829
 N253 N 0.58683 0.94631 0.45359
 N254 N 0.61829 0.90899 0.44721
 N255 N 0.55280 1.05386 0.42363
 N256 N 0.56023 1.09142 0.39615
 N257 N 0.58683 1.05370 0.45359
 N258 N 0.61829 1.09102 0.44721
 N259 N 0.55281 0.94615 0.42363
 N260 N 0.56024 0.90859 0.39615
 Mn261 Mn 0.58742 1.00000 0.49999
 C262 C 0.60079 0.88512 0.41169
 C263 C 0.60078 1.11488 0.41169
 N264 N 0.41320 1.05370 0.45359
 N265 N 0.38174 1.09101 0.44721
 N266 N 0.44722 0.94615 0.42363
 N267 N 0.43979 0.90858 0.39615
 N268 N 0.41320 0.94630 0.45359
 N269 N 0.38174 0.90899 0.44721
 N270 N 0.44722 1.05385 0.42363
 N271 N 0.43979 1.09142 0.39615
 Mn272 Mn 0.41260 1.00000 0.49999
 Mn273 Mn 0.50001 1.00000 0.42302
 Cl274 Cl 0.50001 1.00000 0.49999
 C275 C 0.39924 1.11488 0.41169
 C276 C 0.39924 0.88512 0.41169
 N277 N 1.08727 1.05265 0.54696
 N278 N 1.12417 1.08057 0.56086
 N279 N 1.05171 0.94733 0.57554
 N280 N 1.06295 0.91916 0.60904
 N281 N 1.08728 0.94736 0.54697
 N282 N 1.12418 0.91944 0.56086
 N283 N 1.05171 1.05268 0.57553
 N284 N 1.06295 1.08085 0.60904
 C285 C 1.10758 1.09855 0.59908
 C286 C 1.10758 0.90146 0.59908
 N287 N 0.91275 0.94735 0.54697
 N288 N 0.87585 0.91944 0.56086
 N289 N 0.94831 1.05268 0.57553
 N290 N 0.93708 1.08085 0.60904
 N291 N 0.91275 1.05265 0.54696
 N292 N 0.87585 1.08056 0.56086
 N293 N 0.94831 0.94733 0.57554
 N294 N 0.93708 0.91916 0.60904
 Mn295 Mn 1.00001 1.00000 0.57542
 C296 C 0.89245 0.90146 0.59908
 C297 C 0.89244 1.09854 0.59908
 N298 N 1.08728 0.94736 0.45302
 N299 N 1.12418 0.91944 0.43912
 N300 N 1.05171 1.05268 0.42445
 N301 N 1.06295 1.08085 0.39095
 N302 N 1.08727 1.05265 0.45302
 N303 N 1.12417 1.08057 0.43912
 N304 N 1.05171 0.94733 0.42445
 N305 N 1.06295 0.91916 0.39095
 Mn306 Mn 1.08787 1.00000 0.49999
 C307 C 1.10758 0.90146 0.40091
 C308 C 1.10758 1.09855 0.40091
 N309 N 0.91275 1.05265 0.45302
 N310 N 0.87585 1.08056 0.43912
 N311 N 0.94831 0.94733 0.42445
 N312 N 0.93708 0.91916 0.39095
 N313 N 0.91275 0.94735 0.45302
 N314 N 0.87585 0.91944 0.43912
 N315 N 0.94831 1.05267 0.42445
 N316 N 0.93708 1.08084 0.39095
 Mn317 Mn 0.91216 1.00000 0.49999
 Mn318 Mn 1.00001 1.00000 0.42457
 Cl319 Cl 1.00001 1.00000 0.49999
 C320 C 0.89244 1.09854 0.40091
 C321 C 0.89245 0.90146 0.40091
 N322 N 0.58763 0.55256 0.04719
 N323 N 0.62468 0.57944 0.06234
 N324 N 0.55139 0.44729 0.07509
 N325 N 0.56209 0.41983 0.10908
 N326 N 0.58763 0.44745 0.04719
 N327 N 0.62469 0.42058 0.06234
 N328 N 0.55139 0.55272 0.07508
 N329 N 0.56209 0.58018 0.10908
 C330 C 0.60723 0.59712 0.10042
 C331 C 0.60723 0.40289 0.10042
 N332 N 0.41240 0.44745 0.04719
 N333 N 0.37534 0.42057 0.06234
 N334 N 0.44863 0.55272 0.07508
 N335 N 0.43793 0.58018 0.10908
 N336 N 0.41239 0.55255 0.04719
 N337 N 0.37534 0.57943 0.06234
 N338 N 0.44864 0.44728 0.07509
 N339 N 0.43794 0.41983 0.10908
 Mn340 Mn 0.50001 0.50000 0.07484
 C341 C 0.39280 0.40288 0.10042
 C342 C 0.39280 0.59712 0.10042
 N343 N 0.58763 0.44745 -0.04720
 N344 N 0.62469 0.42058 -0.06236
 N345 N 0.55139 0.55272 -0.07510
 N346 N 0.56209 0.58018 -0.10910
 N347 N 0.58763 0.55256 -0.04720
 N348 N 0.62468 0.57943 -0.06236
 N349 N 0.55139 0.44728 -0.07510
 N350 N 0.56209 0.41983 -0.10910
 Mn351 Mn 0.58832 0.50000 -0.00001
 C352 C 0.60723 0.40289 -0.10043
 C353 C 0.60723 0.59712 -0.10043
 N354 N 0.41239 0.55255 -0.04720
 N355 N 0.37534 0.57943 -0.06236
 N356 N 0.44864 0.44728 -0.07510
 N357 N 0.43794 0.41982 -0.10910
 N358 N 0.41239 0.44744 -0.04720
 N359 N 0.37534 0.42057 -0.06236
 N360 N 0.44863 0.55272 -0.07510
 N361 N 0.43793 0.58017 -0.10910
 Mn362 Mn 0.41171 0.50000 -0.00001
 Mn363 Mn 0.50001 0.50000 -0.07486
 Cl364 Cl 0.50001 0.50000 -0.00001
 C365 C 0.39280 0.59712 -0.10043
 C366 C 0.39280 0.40288 -0.10043
 C367 C 0.35894 1.13897 0.17115
 C368 C 0.35418 1.19671 0.16615
 C369 C 0.29767 1.19301 0.17175
 C370 C 0.30285 1.13454 0.17624
 C371 C 0.29204 1.18664 0.12232
 C372 C 0.34850 1.19082 0.11683
 C373 C 0.35345 1.13337 0.12223
 C374 C 0.29747 1.12833 0.12687
 H375 H 0.38644 1.11943 0.19166
 H376 H 0.38022 1.22273 0.18207
 H377 H 0.28408 1.10980 0.20004
 H378 H 0.26485 1.20470 0.10082
 H379 H 0.36752 1.21327 0.09164
 H380 H 0.27423 1.09959 0.11060
 C381 C 0.79425 0.62522 0.61698
 C382 C 0.79880 0.62979 0.66666
 C383 C 0.79279 0.68826 0.66377
 C384 C 0.78783 0.68367 0.61411
 C385 C 0.84923 0.69318 0.65876
 C386 C 0.85481 0.63551 0.66220
 C387 C 0.85013 0.63165 0.61301
 C388 C 0.84421 0.68920 0.60938
 H389 H 0.77172 0.59676 0.59962
 H390 H 0.78023 0.60409 0.68984
 H391 H 0.76087 0.70186 0.59258
 H392 H 0.87503 0.71857 0.67563
 H393 H 0.88237 0.61577 0.68251
 H394 H 0.86281 0.71325 0.58503
 C395 C 0.64109 0.86104 0.17115
 C396 C 0.64585 0.80329 0.16615
 C397 C 0.70236 0.80700 0.17175
 C398 C 0.69718 0.86547 0.17624
 C399 C 0.70799 0.81337 0.12232
 C400 C 0.65153 0.80919 0.11683
 C401 C 0.64658 0.86664 0.12223
 C402 C 0.70256 0.87168 0.12687
 H403 H 0.61359 0.88057 0.19166
 H404 H 0.61981 0.77727 0.18206
 H405 H 0.71594 0.89021 0.20004
 H406 H 0.73518 0.79531 0.10083
 H407 H 0.63251 0.78673 0.09164
 H408 H 0.72580 0.90042 0.11060
 C409 C 1.14521 0.36449 0.66220
 C410 C 1.15080 0.30682 0.65876
 C411 C 1.20724 0.31174 0.66377
 C412 C 1.20122 0.37021 0.66667
 C413 C 1.21219 0.31634 0.61411
 C414 C 1.15582 0.31080 0.60938
 C415 C 1.14990 0.36835 0.61301
 C416 C 1.20578 0.37479 0.61698
 H417 H 1.11765 0.38423 0.68251
 H418 H 1.12500 0.28144 0.67563
 H419 H 1.21979 0.39592 0.68984
 H420 H 1.23916 0.29815 0.59258
 H421 H 1.13722 0.28676 0.58503
 H422 H 1.22830 0.40325 0.59962
 C423 C 0.64108 1.13897 -0.17117
 C424 C 0.64585 1.19672 -0.16616
 C425 C 0.70236 1.19301 -0.17176
 C426 C 0.69717 1.13454 -0.17625
 C427 C 0.70799 1.18664 -0.12233
 C428 C 0.65153 1.19082 -0.11684
 C429 C 0.64658 1.13337 -0.12224
 C430 C 0.70256 1.12833 -0.12689
 H431 H 0.61358 1.11944 -0.19167
 H432 H 0.61981 1.22274 -0.18208
 H433 H 0.71594 1.10980 -0.20006
 H434 H 0.73519 1.20469 -0.10084
 H435 H 0.63251 1.21327 -0.09165
 H436 H 0.72579 1.09958 -0.11062
 C437 C 1.15582 0.68921 0.39061
 C438 C 1.21219 0.68366 0.38587
 C439 C 1.20723 0.68826 0.33622
 C440 C 1.15080 0.69319 0.34123
 C441 C 1.20122 0.62979 0.33332
 C442 C 1.20577 0.62522 0.38300
 C443 C 1.14989 0.63165 0.38697
 C444 C 1.14521 0.63552 0.33779
 H445 H 1.13722 0.71325 0.41496
 H446 H 1.23916 0.70186 0.40741
 H447 H 1.12500 0.71857 0.32436
 H448 H 1.21978 0.60409 0.31014
 H449 H 1.22830 0.59675 0.40036
 H450 H 1.11765 0.61578 0.31748
 C451 C 0.35894 0.86103 -0.17117
 C452 C 0.35418 0.80328 -0.16616
 C453 C 0.29767 0.80699 -0.17176
 C454 C 0.30285 0.86546 -0.17625
 C455 C 0.29204 0.81336 -0.12233
 C456 C 0.34850 0.80918 -0.11684
 C457 C 0.35345 0.86663 -0.12224
 C458 C 0.29747 0.87167 -0.12688
 H459 H 0.38644 0.88056 -0.19167
 H460 H 0.38022 0.77727 -0.18208
 H461 H 0.28409 0.89020 -0.20005
 H462 H 0.26485 0.79531 -0.10084
 H463 H 0.36752 0.78673 -0.09165
 H464 H 0.27424 0.90042 -0.11061
 C465 C 0.79425 0.37478 0.38300
 C466 C 0.79881 0.37021 0.33332
 C467 C 0.79279 0.31174 0.33622
 C468 C 0.78784 0.31634 0.38587
 C469 C 0.84923 0.30682 0.34123
 C470 C 0.85482 0.36449 0.33779
 C471 C 0.85013 0.36835 0.38697
 C472 C 0.84421 0.31080 0.39060
 H473 H 0.77173 0.40325 0.40036
 H474 H 0.78024 0.39592 0.31015
 H475 H 0.76087 0.29814 0.40741
 H476 H 0.87503 0.28143 0.32436
 H477 H 0.88238 0.38422 0.31748
 H478 H 0.86281 0.28675 0.41495
 C479 C 1.13538 0.35566 0.17103
 C480 C 1.13488 0.29744 0.17551
 C481 C 1.19172 0.29620 0.17171
 C482 C 1.19150 0.35480 0.16670
 C483 C 1.18674 0.29068 0.12214
 C484 C 1.13000 0.29222 0.12598
 C485 C 1.13113 0.35036 0.12197
 C486 C 1.18699 0.34926 0.11729
 H487 H 1.11432 0.38237 0.19157
 H488 H 1.11204 0.27605 0.19890
 H489 H 1.21449 0.38328 0.18317
 H490 H 1.20639 0.26428 0.10054
 H491 H 1.10412 0.26654 0.10910
 H492 H 1.20751 0.37076 0.09244
 C493 C 0.62737 0.78903 0.61687
 C494 C 0.68423 0.78612 0.61430
 C495 C 0.68800 0.79062 0.66404
 C496 C 0.63114 0.79313 0.66667
 C497 C 0.68923 0.84925 0.65977
 C498 C 0.68604 0.84466 0.61036
 C499 C 0.63005 0.84716 0.61370
 C500 C 0.63315 0.85138 0.66295
 H501 H 0.60141 0.76430 0.59907
 H502 H 0.70373 0.75998 0.59247
 H503 H 0.60738 0.77192 0.68947
 H504 H 0.71213 0.87718 0.67697
 H505 H 0.70821 0.86581 0.58638
 H506 H 0.61221 0.87820 0.68349
 C507 C 1.13000 0.70779 -0.12600
 C508 C 1.18674 0.70932 -0.12215
 C509 C 1.19172 0.70381 -0.17173
 C510 C 1.13488 0.70257 -0.17553
 C511 C 1.19150 0.64521 -0.16672
 C512 C 1.18698 0.65075 -0.11731
 C513 C 1.13113 0.64965 -0.12199
 C514 C 1.13538 0.64435 -0.17105
 H515 H 1.10412 0.73347 -0.10911
 H516 H 1.20639 0.73572 -0.10055
 H517 H 1.11204 0.72396 -0.19892
 H518 H 1.21449 0.61672 -0.18318
 H519 H 1.20751 0.62924 -0.09245
 H520 H 1.11431 0.61764 -0.19159
 C521 C 0.63315 1.14863 0.33703
 C522 C 0.63114 1.20688 0.33332
 C523 C 0.68800 1.20938 0.33595
 C524 C 0.68922 1.15075 0.34021
 C525 C 0.68423 1.21389 0.38568
 C526 C 0.62737 1.21098 0.38312
 C527 C 0.63005 1.15285 0.38629
 C528 C 0.68604 1.15534 0.38963
 H529 H 0.61221 1.12181 0.31650
 H530 H 0.60738 1.22809 0.31052
 H531 H 0.71212 1.12282 0.32302
 H532 H 0.70373 1.24002 0.40752
 H533 H 0.60141 1.23571 0.40091
 H534 H 0.70821 1.13419 0.41360
 C535 C 0.86464 0.64435 0.17103
 C536 C 0.86515 0.70256 0.17551
 C537 C 0.80831 0.70381 0.17171
 C538 C 0.80853 0.64521 0.16670
 C539 C 0.81329 0.70932 0.12214
 C540 C 0.87003 0.70779 0.12598
 C541 C 0.86889 0.64965 0.12197
 C542 C 0.81304 0.65075 0.11729
 H543 H 0.88571 0.61764 0.19157
 H544 H 0.88799 0.72396 0.19890
 H545 H 0.78553 0.61672 0.18317
 H546 H 0.79364 0.73572 0.10054
 H547 H 0.89590 0.73347 0.10910
 H548 H 0.79252 0.62925 0.09244
 C549 C 0.31398 1.15534 0.61036
 C550 C 0.31080 1.15075 0.65977
 C551 C 0.31203 1.20938 0.66404
 C552 C 0.31580 1.21389 0.61430
 C553 C 0.36889 1.20687 0.66667
 C554 C 0.36687 1.14863 0.66295
 C555 C 0.36998 1.15285 0.61370
 C556 C 0.37266 1.21098 0.61687
 H557 H 0.29182 1.13420 0.58638
 H558 H 0.28790 1.12282 0.67697
 H559 H 0.29630 1.24003 0.59247
 H560 H 0.39264 1.22808 0.68947
 H561 H 0.38781 1.12180 0.68349
 H562 H 0.39861 1.23570 0.59907
 C563 C 0.81304 0.34925 -0.11731
 C564 C 0.80853 0.35480 -0.16672
 C565 C 0.80831 0.29620 -0.17173
 C566 C 0.81329 0.29068 -0.12215
 C567 C 0.86515 0.29744 -0.17553
 C568 C 0.86465 0.35565 -0.17105
 C569 C 0.86890 0.35035 -0.12199
 C570 C 0.87003 0.29222 -0.12600
 H571 H 0.79252 0.37076 -0.09245
 H572 H 0.78554 0.38328 -0.18318
 H573 H 0.79364 0.26428 -0.10055
 H574 H 0.88799 0.27604 -0.19892
 H575 H 0.88571 0.38236 -0.19159
 H576 H 0.89590 0.26653 -0.10911
 C577 C 0.31399 0.84466 0.38963
 C578 C 0.31080 0.84925 0.34021
 C579 C 0.31203 0.79062 0.33595
 C580 C 0.31580 0.78612 0.38568
 C581 C 0.36889 0.79313 0.33332
 C582 C 0.36688 0.85137 0.33703
 C583 C 0.36998 0.84715 0.38629
 C584 C 0.37266 0.78902 0.38312
 H585 H 0.29182 0.86581 0.41360
 H586 H 0.28791 0.87718 0.32302
 H587 H 0.29630 0.75998 0.40752
 H588 H 0.39264 0.77191 0.31052
 H589 H 0.38782 0.87819 0.31650
 H590 H 0.39861 0.76430 0.40091
 C591 C 1.13474 1.18537 0.36741
 C592 C 1.19127 1.18658 0.36581
 C593 C 1.18909 1.18323 0.31615
 C594 C 1.13257 1.18174 0.31762
 C595 C 1.19066 1.12482 0.31850
 C596 C 1.19302 1.12821 0.36837
 C597 C 1.13712 1.12773 0.36994
 C598 C 1.13415 1.12343 0.32057
 H599 H 1.11042 1.20889 0.38789
 H600 H 1.21435 1.21205 0.38545
 H601 H 1.10727 1.20267 0.29598
 H602 H 1.21251 1.09937 0.29747
 H603 H 1.21655 1.10470 0.38955
 H604 H 1.11021 1.09688 0.30248
 C605 C 0.69171 0.62544 -0.13609
 C606 C 0.68759 0.61992 -0.18575
 C607 C 0.68550 0.67815 -0.18992
 C608 C 0.68944 0.68361 -0.14043
 C609 C 0.62912 0.67652 -0.18677
 C610 C 0.63118 0.61837 -0.18203
 C611 C 0.63597 0.62481 -0.13290
 C612 C 0.63308 0.68226 -0.13722
 H613 H 0.71598 0.60294 -0.11478
 H614 H 0.70883 0.59377 -0.20663
 H615 H 0.71286 0.70999 -0.12208
 H616 H 0.60303 0.69652 -0.20833
 H617 H 0.60677 0.59089 -0.19857
 H618 H 0.60947 0.70653 -0.11674
 C619 C 0.86587 1.12343 0.67942
 C620 C 0.86746 1.18173 0.68236
 C621 C 0.81093 1.18323 0.68384
 C622 C 0.80936 1.12482 0.68148
 C623 C 0.80876 1.18658 0.63417
 C624 C 0.86528 1.18537 0.63257
 C625 C 0.86290 1.12773 0.63005
 C626 C 0.80700 1.12821 0.63161
 H627 H 0.88981 1.09688 0.69751
 H628 H 0.89275 1.20267 0.70401
 H629 H 0.78751 1.09937 0.70251
 H630 H 0.78567 1.21206 0.61454
 H631 H 0.88961 1.20889 0.61210
 H632 H 0.78347 1.10470 0.61043
 C633 C 0.36884 0.61837 0.18202
 C634 C 0.37090 0.67652 0.18676
 C635 C 0.31452 0.67815 0.18990
 C636 C 0.31243 0.61992 0.18573
 C637 C 0.31058 0.68361 0.14041
 C638 C 0.36694 0.68225 0.13720
 C639 C 0.36405 0.62480 0.13288
 C640 C 0.30831 0.62544 0.13607
 H641 H 0.39325 0.59089 0.19855
 H642 H 0.39699 0.69651 0.20831
 H643 H 0.29119 0.59377 0.20662
 H644 H 0.28716 0.70999 0.12206
 H645 H 0.39055 0.70653 0.11672
 H646 H 0.28404 0.60294 0.11476
 C647 C 1.13416 0.87658 0.67942
 C648 C 1.13257 0.81827 0.68237
 C649 C 1.18909 0.81678 0.68384
 C650 C 1.19066 0.87518 0.68148
 C651 C 1.19127 0.81342 0.63417
 C652 C 1.13474 0.81464 0.63257
 C653 C 1.13713 0.87228 0.63005
 C654 C 1.19302 0.87180 0.63162
 H655 H 1.11022 0.90313 0.69751
 H656 H 1.10728 0.79734 0.70401
 H657 H 1.21251 0.90063 0.70251
 H658 H 1.21435 0.78795 0.61454
 H659 H 1.11042 0.79112 0.61210
 H660 H 1.21655 0.89530 0.61043
 C661 C 0.69171 0.37457 0.13607
 C662 C 0.68759 0.38008 0.18574
 C663 C 0.68551 0.32186 0.18990
 C664 C 0.68945 0.31639 0.14041
 C665 C 0.62912 0.32349 0.18676
 C666 C 0.63119 0.38164 0.18202
 C667 C 0.63598 0.37520 0.13288
 C668 C 0.63308 0.31775 0.13720
 H669 H 0.71598 0.39707 0.11477
 H670 H 0.70884 0.40623 0.20662
 H671 H 0.71286 0.29002 0.12206
 H672 H 0.60303 0.30349 0.20831
 H673 H 0.60677 0.40912 0.19855
 H674 H 0.60948 0.29348 0.11672
 C675 C 0.80701 0.87179 0.36837
 C676 C 0.80937 0.87518 0.31850
 C677 C 0.81093 0.81678 0.31615
 C678 C 0.80876 0.81342 0.36581
 C679 C 0.86746 0.81827 0.31762
 C680 C 0.86587 0.87657 0.32057
 C681 C 0.86290 0.87227 0.36994
 C682 C 0.86528 0.81463 0.36741
 H683 H 0.78348 0.89530 0.38955
 H684 H 0.78752 0.90063 0.29748
 H685 H 0.78568 0.78795 0.38545
 H686 H 0.89275 0.79733 0.29598
 H687 H 0.88981 0.90312 0.30248
 H688 H 0.88961 0.79111 0.38789
 C689 C 0.36885 0.38163 -0.18203
 C690 C 0.37091 0.32348 -0.18677
 C691 C 0.31452 0.32185 -0.18992
 C692 C 0.31244 0.38008 -0.18575
 C693 C 0.31058 0.31639 -0.14042
 C694 C 0.36695 0.31775 -0.13722
 C695 C 0.36405 0.37520 -0.13289
 C696 C 0.30832 0.37456 -0.13608
 H697 H 0.39326 0.40911 -0.19856
 H698 H 0.39700 0.30349 -0.20833
 H699 H 0.29120 0.40623 -0.20663
 H700 H 0.28717 0.29001 -0.12208
 H701 H 0.39055 0.29347 -0.11674
 H702 H 0.28405 0.39707 -0.11478
 C703 C 1.13538 0.35566 -0.17105
 C704 C 1.19150 0.35480 -0.16672
 C705 C 1.19172 0.29620 -0.17173
 C706 C 1.13488 0.29744 -0.17553
 C707 C 1.18674 0.29068 -0.12215
 C708 C 1.18699 0.34926 -0.11731
 C709 C 1.13113 0.35036 -0.12198
 C710 C 1.13000 0.29222 -0.12600
 H711 H 1.11432 0.38237 -0.19159
 H712 H 1.21449 0.38328 -0.18318
 H713 H 1.11204 0.27605 -0.19892
 H714 H 1.20639 0.26428 -0.10055
 H715 H 1.20751 0.37076 -0.09245
 H716 H 1.10412 0.26654 -0.10911
 C717 C 0.63315 0.85138 0.33704
 C718 C 0.68923 0.84925 0.34021
 C719 C 0.68800 0.79062 0.33595
 C720 C 0.63114 0.79313 0.33332
 C721 C 0.68423 0.78612 0.38568
 C722 C 0.68604 0.84466 0.38963
 C723 C 0.63005 0.84715 0.38629
 C724 C 0.62737 0.78903 0.38312
 H725 H 0.61221 0.87820 0.31650
 H726 H 0.71212 0.87718 0.32302
 H727 H 0.60738 0.77192 0.31052
 H728 H 0.70373 0.75998 0.40752
 H729 H 0.70821 0.86581 0.41360
 H730 H 0.60141 0.76430 0.40091
 C731 C 0.87002 0.70778 -0.12600
 C732 C 0.86515 0.70256 -0.17553
 C733 C 0.80831 0.70381 -0.17173
 C734 C 0.81329 0.70932 -0.12215
 C735 C 0.80853 0.64520 -0.16672
 C736 C 0.86464 0.64435 -0.17105
 C737 C 0.86889 0.64965 -0.12199
 C738 C 0.81304 0.65075 -0.11731
 H739 H 0.89590 0.73347 -0.10911
 H740 H 0.88799 0.72396 -0.19892
 H741 H 0.79364 0.73572 -0.10055
 H742 H 0.78553 0.61672 -0.18318
 H743 H 0.88571 0.61764 -0.19159
 H744 H 0.79252 0.62924 -0.09245
 C745 C 0.36687 1.14863 0.33703
 C746 C 0.31080 1.15075 0.34021
 C747 C 0.31203 1.20938 0.33595
 C748 C 0.36889 1.20687 0.33332
 C749 C 0.31580 1.21389 0.38568
 C750 C 0.31398 1.15534 0.38963
 C751 C 0.36998 1.15285 0.38629
 C752 C 0.37266 1.21098 0.38312
 H753 H 0.38781 1.12180 0.31650
 H754 H 0.28790 1.12282 0.32302
 H755 H 0.39264 1.22808 0.31052
 H756 H 0.29630 1.24003 0.40752
 H757 H 0.29182 1.13420 0.41360
 H758 H 0.39862 1.23570 0.40091
 C759 C 1.18698 0.65075 0.11729
 C760 C 1.18673 0.70932 0.12214
 C761 C 1.19171 0.70381 0.17171
 C762 C 1.19150 0.64521 0.16670
 C763 C 1.13488 0.70257 0.17551
 C764 C 1.13000 0.70779 0.12598
 C765 C 1.13113 0.64965 0.12197
 C766 C 1.13538 0.64435 0.17103
 H767 H 1.20751 0.62925 0.09244
 H768 H 1.20639 0.73572 0.10054
 H769 H 1.21449 0.61673 0.18317
 H770 H 1.11204 0.72396 0.19890
 H771 H 1.10412 0.73347 0.10910
 H772 H 1.11432 0.61764 0.19157
 C773 C 0.62737 1.21098 0.61687
 C774 C 0.63114 1.20688 0.66667
 C775 C 0.68800 1.20938 0.66404
 C776 C 0.68423 1.21389 0.61430
 C777 C 0.68922 1.15075 0.65977
 C778 C 0.63315 1.14863 0.66295
 C779 C 0.63005 1.15285 0.61370
 C780 C 0.68604 1.15534 0.61036
 H781 H 0.60141 1.23571 0.59907
 H782 H 0.60738 1.22809 0.68946
 H783 H 0.70373 1.24003 0.59247
 H784 H 0.71212 1.12282 0.67697
 H785 H 0.61221 1.12181 0.68349
 H786 H 0.70821 1.13420 0.58638
 C787 C 0.81304 0.34926 0.11729
 C788 C 0.81329 0.29068 0.12214
 C789 C 0.80831 0.29620 0.17171
 C790 C 0.80853 0.35480 0.16671
 C791 C 0.86515 0.29744 0.17551
 C792 C 0.87003 0.29222 0.12598
 C793 C 0.86890 0.35035 0.12197
 C794 C 0.86465 0.35565 0.17103
 H795 H 0.79252 0.37076 0.09244
 H796 H 0.79364 0.26428 0.10054
 H797 H 0.78554 0.38328 0.18317
 H798 H 0.88799 0.27604 0.19890
 H799 H 0.89590 0.26653 0.10910
 H800 H 0.88571 0.38236 0.19157
 C801 C 0.36688 0.85137 0.66295
 C802 C 0.31080 0.84925 0.65977
 C803 C 0.31203 0.79062 0.66404
 C804 C 0.36889 0.79313 0.66667
 C805 C 0.31580 0.78612 0.61430
 C806 C 0.31399 0.84466 0.61036
 C807 C 0.36998 0.84715 0.61370
 C808 C 0.37266 0.78903 0.61687
 H809 H 0.38782 0.87819 0.68349
 H810 H 0.28791 0.87718 0.67697
 H811 H 0.39264 0.77192 0.68946
 H812 H 0.29630 0.75998 0.59247
 H813 H 0.29182 0.86581 0.58639
 H814 H 0.39861 0.76430 0.59907
 C815 C 0.29747 1.12833 -0.12689
 C816 C 0.29203 1.18664 -0.12233
 C817 C 0.29767 1.19301 -0.17176
 C818 C 0.30285 1.13454 -0.17625
 C819 C 0.35418 1.19672 -0.16616
 C820 C 0.34850 1.19082 -0.11684
 C821 C 0.35345 1.13337 -0.12224
 C822 C 0.35894 1.13897 -0.17117
 H823 H 0.27423 1.09958 -0.11062
 H824 H 0.26484 1.20469 -0.10084
 H825 H 0.28408 1.10980 -0.20006
 H826 H 0.38022 1.22273 -0.18208
 H827 H 0.36751 1.21327 -0.09165
 H828 H 0.38644 1.11944 -0.19167
 C829 C 0.79425 0.62522 0.38300
 C830 C 0.78783 0.68366 0.38587
 C831 C 0.79279 0.68826 0.33622
 C832 C 0.79880 0.62979 0.33332
 C833 C 0.84923 0.69318 0.34123
 C834 C 0.84421 0.68920 0.39060
 C835 C 0.85013 0.63165 0.38697
 C836 C 0.85481 0.63551 0.33778
 H837 H 0.77172 0.59676 0.40036
 H838 H 0.76087 0.70186 0.40741
 H839 H 0.78023 0.60409 0.31015
 H840 H 0.87503 0.71857 0.32436
 H841 H 0.86281 0.71325 0.41495
 H842 H 0.88237 0.61577 0.31748
 C843 C 0.70256 1.12833 0.12687
 C844 C 0.70799 1.18664 0.12232
 C845 C 0.70236 1.19301 0.17175
 C846 C 0.69718 1.13454 0.17624
 C847 C 0.64585 1.19672 0.16615
 C848 C 0.65153 1.19082 0.11683
 C849 C 0.64658 1.13337 0.12223
 C850 C 0.64109 1.13897 0.17115
 H851 H 0.72579 1.09959 0.11060
 H852 H 0.73518 1.20470 0.10082
 H853 H 0.71594 1.10980 0.20004
 H854 H 0.61981 1.22274 0.18206
 H855 H 0.63251 1.21328 0.09164
 H856 H 0.61359 1.11944 0.19166
 C857 C 1.20577 0.62522 0.61698
 C858 C 1.21219 0.68367 0.61411
 C859 C 1.20723 0.68827 0.66377
 C860 C 1.20122 0.62979 0.66667
 C861 C 1.15080 0.69319 0.65875
 C862 C 1.15582 0.68921 0.60938
 C863 C 1.14989 0.63166 0.61301
 C864 C 1.14521 0.63552 0.66220
 H865 H 1.22830 0.59676 0.59962
 H866 H 1.23915 0.70186 0.59258
 H867 H 1.21979 0.60409 0.68984
 H868 H 1.12500 0.71857 0.67563
 H869 H 1.13721 0.71325 0.58503
 H870 H 1.11765 0.61578 0.68250
 C871 C 0.64109 0.86104 -0.17117
 C872 C 0.69718 0.86546 -0.17625
 C873 C 0.70236 0.80700 -0.17176
 C874 C 0.64585 0.80329 -0.16616
 C875 C 0.70799 0.81337 -0.12233
 C876 C 0.70256 0.87167 -0.12689
 C877 C 0.64658 0.86663 -0.12224
 C878 C 0.65153 0.80918 -0.11684
 H879 H 0.61359 0.88056 -0.19167
 H880 H 0.71594 0.89021 -0.20006
 H881 H 0.61981 0.77727 -0.18208
 H882 H 0.73518 0.79531 -0.10084
 H883 H 0.72579 0.90042 -0.11061
 H884 H 0.63251 0.78673 -0.09165
 C885 C 1.14521 0.36449 0.33779
 C886 C 1.20122 0.37021 0.33332
 C887 C 1.20724 0.31174 0.33622
 C888 C 1.15080 0.30682 0.34123
 C889 C 1.21219 0.31634 0.38587
 C890 C 1.20578 0.37479 0.38300
 C891 C 1.14990 0.36835 0.38697
 C892 C 1.15582 0.31080 0.39060
 H893 H 1.11766 0.38423 0.31748
 H894 H 1.21979 0.39592 0.31015
 H895 H 1.12500 0.28144 0.32436
 H896 H 1.23915 0.29814 0.40741
 H897 H 1.22830 0.40325 0.40037
 H898 H 1.13721 0.28676 0.41495
 C899 C 0.29747 0.87168 0.12687
 C900 C 0.29203 0.81337 0.12232
 C901 C 0.29767 0.80699 0.17175
 C902 C 0.30285 0.86546 0.17624
 C903 C 0.35418 0.80329 0.16615
 C904 C 0.34850 0.80918 0.11683
 C905 C 0.35345 0.86663 0.12223
 C906 C 0.35894 0.86103 0.17115
 H907 H 0.27424 0.90042 0.11060
 H908 H 0.26484 0.79531 0.10083
 H909 H 0.28409 0.89021 0.20004
 H910 H 0.38022 0.77727 0.18206
 H911 H 0.36751 0.78673 0.09164
 H912 H 0.38644 0.88056 0.19166
 C913 C 0.85482 0.36449 0.66220
 C914 C 0.79881 0.37021 0.66667
 C915 C 0.79279 0.31174 0.66377
 C916 C 0.84923 0.30682 0.65875
 C917 C 0.78783 0.31634 0.61411
 C918 C 0.79425 0.37479 0.61698
 C919 C 0.85013 0.36835 0.61301
 C920 C 0.84421 0.31080 0.60938
 H921 H 0.88238 0.38422 0.68251
 H922 H 0.78024 0.39592 0.68984
 H923 H 0.87503 0.28143 0.67562
 H924 H 0.76087 0.29815 0.59258
 H925 H 0.77173 0.40325 0.59962
 H926 H 0.86281 0.28675 0.58503
 C927 C 1.19302 1.12821 0.63162
 C928 C 1.19126 1.18659 0.63417
 C929 C 1.18909 1.18323 0.68384
 C930 C 1.19066 1.12482 0.68148
 C931 C 1.13257 1.18174 0.68236
 C932 C 1.13474 1.18537 0.63257
 C933 C 1.13712 1.12773 0.63005
 C934 C 1.13415 1.12343 0.67942
 H935 H 1.21655 1.10470 0.61043
 H936 H 1.21435 1.21206 0.61454
 H937 H 1.21251 1.09937 0.70251
 H938 H 1.10727 1.20267 0.70401
 H939 H 1.11041 1.20890 0.61210
 H940 H 1.11021 1.09688 0.69751
 C941 C 0.69171 0.62544 0.13607
 C942 C 0.68944 0.68361 0.14041
 C943 C 0.68550 0.67815 0.18990
 C944 C 0.68759 0.61992 0.18573
 C945 C 0.62912 0.67652 0.18676
 C946 C 0.63308 0.68226 0.13720
 C947 C 0.63597 0.62481 0.13288
 C948 C 0.63118 0.61837 0.18202
 H949 H 0.71598 0.60294 0.11476
 H950 H 0.71286 0.70999 0.12206
 H951 H 0.70883 0.59377 0.20662
 H952 H 0.60303 0.69652 0.20831
 H953 H 0.60948 0.70653 0.11672
 H954 H 0.60677 0.59089 0.19855
 C955 C 1.13416 0.87658 0.32057
 C956 C 1.19066 0.87518 0.31850
 C957 C 1.18909 0.81678 0.31615
 C958 C 1.13257 0.81827 0.31762
 C959 C 1.19127 0.81342 0.36581
 C960 C 1.19302 0.87180 0.36837
 C961 C 1.13713 0.87228 0.36994
 C962 C 1.13474 0.81464 0.36741
 H963 H 1.11022 0.90313 0.30248
 H964 H 1.21251 0.90063 0.29748
 H965 H 1.10728 0.79734 0.29598
 H966 H 1.21435 0.78795 0.38545
 H967 H 1.21655 0.89530 0.38956
 H968 H 1.11042 0.79111 0.38789
 C969 C 0.63119 0.38164 -0.18203
 C970 C 0.68759 0.38008 -0.18575
 C971 C 0.68551 0.32185 -0.18992
 C972 C 0.62912 0.32349 -0.18677
 C973 C 0.68945 0.31639 -0.14042
 C974 C 0.69171 0.37457 -0.13608
 C975 C 0.63598 0.37520 -0.13289
 C976 C 0.63308 0.31775 -0.13722
 H977 H 0.60677 0.40912 -0.19856
 H978 H 0.70884 0.40623 -0.20663
 H979 H 0.60303 0.30349 -0.20833
 H980 H 0.71286 0.29001 -0.12208
 H981 H 0.71598 0.39707 -0.11478
 H982 H 0.60948 0.29348 -0.11673
 C983 C 0.80700 1.12821 0.36837
 C984 C 0.80876 1.18658 0.36581
 C985 C 0.81093 1.18322 0.31615
 C986 C 0.80936 1.12482 0.31850
 C987 C 0.86746 1.18173 0.31762
 C988 C 0.86528 1.18536 0.36741
 C989 C 0.86290 1.12773 0.36994
 C990 C 0.86587 1.12343 0.32057
 H991 H 0.78347 1.10470 0.38955
 H992 H 0.78567 1.21205 0.38545
 H993 H 0.78751 1.09937 0.29748
 H994 H 0.89275 1.20267 0.29597
 H995 H 0.88961 1.20889 0.38789
 H996 H 0.88981 1.09687 0.30248
 C997 C 0.36884 0.61836 -0.18203
 C998 C 0.31243 0.61992 -0.18575
 C999 C 0.31452 0.67815 -0.18992
 C1000 C 0.37090 0.67651 -0.18677
 C1001 C 0.31058 0.68361 -0.14042
 C1002 C 0.30832 0.62544 -0.13609
 C1003 C 0.36405 0.62480 -0.13290
 C1004 C 0.36695 0.68225 -0.13722
 H1005 H 0.39325 0.59088 -0.19856
 H1006 H 0.29119 0.59377 -0.20663
 H1007 H 0.39699 0.69651 -0.20833
 H1008 H 0.28717 0.70999 -0.12208
 H1009 H 0.28405 0.60293 -0.11478
 H1010 H 0.39055 0.70653 -0.11674
 C1011 C 0.86587 0.87657 0.67942
 C1012 C 0.80937 0.87518 0.68149
 C1013 C 0.81094 0.81678 0.68384
 C1014 C 0.86746 0.81827 0.68236
 C1015 C 0.80876 0.81342 0.63417
 C1016 C 0.80701 0.87180 0.63162
 C1017 C 0.86290 0.87227 0.63005
 C1018 C 0.86528 0.81464 0.63257
 H1019 H 0.88982 0.90312 0.69751
 H1020 H 0.78752 0.90063 0.70251
 H1021 H 0.89275 0.79733 0.70401
 H1022 H 0.78568 0.78795 0.61454
 H1023 H 0.78348 0.89530 0.61044
 H1024 H 0.88961 0.79111 0.61210
 C1025 C 0.36885 0.38163 0.18202
 C1026 C 0.31244 0.38008 0.18574
 C1027 C 0.31452 0.32185 0.18991
 C1028 C 0.37091 0.32348 0.18676
 C1029 C 0.31058 0.31639 0.14041
 C1030 C 0.30832 0.37457 0.13607
 C1031 C 0.36405 0.37520 0.13288
 C1032 C 0.36695 0.31775 0.13720
 H1033 H 0.39326 0.40911 0.19855
 H1034 H 0.29120 0.40623 0.20662
 H1035 H 0.39700 0.30349 0.20831
 H1036 H 0.28717 0.29001 0.12207
 H1037 H 0.28405 0.39707 0.11477
 H1038 H 0.39055 0.29347 0.11672
   
