data_POSCAR
  _audit_creation_date              2014-09-24
  _audit_creation_method            'ToBaCCo'
  _symmetry_space_group_name_H-M    'P1'
  _symmetry_Int_Tables_number       1
  _symmetry_cell_setting            triclinic
  loop_
  _symmetry_equiv_pos_as_xyz
 x,y,z
_cell_length_a 21.9947
_cell_length_b 32.7806
_cell_length_c 47.7498
_cell_angle_alpha 90.392000
_cell_angle_beta 83.390300
_cell_angle_gamma 146.974500
loop_
  _atom_site_label
  _atom_site_type_symbol
  _atom_site_fract_x
  _atom_site_fract_y
  _atom_site_fract_z
C1 C 0.14781 0.21327 0.20570
 C2 C 0.15193 0.24134 0.18193
 C3 C 0.15412 0.22489 0.15557
 C4 C 0.16089 0.18675 0.15179
 C5 C 0.16403 0.16335 0.17440
 C6 C 0.15365 0.17457 0.20177
 C7 C 0.14162 0.21688 0.23445
 N8 N 0.14259 0.18089 0.24816
 C9 C 0.15106 0.15575 0.22778
 C10 C 0.19001 0.13939 0.16319
 N11 N 0.20175 0.14777 0.13419
 C12 C 0.18288 0.17634 0.12738
 C13 C 0.16250 0.25952 0.13586
 N14 N 0.16998 0.30017 0.14875
 C15 C 0.16271 0.28928 0.17721
 H16 H 0.13839 0.24502 0.24416
 H17 H 0.15227 0.12387 0.23099
 H18 H 0.20318 0.12001 0.17524
 H19 H 0.19495 0.19565 0.10609
 H20 H 0.16576 0.25645 0.11333
 H21 H 0.16903 0.31624 0.19290
 C22 C -0.11114 0.83321 0.22196
 C23 C -0.11250 0.80814 0.19736
 C24 C -0.13066 0.81614 0.17251
 C25 C -0.15018 0.84708 0.17193
 C26 C -0.15223 0.86891 0.19610
 C27 C -0.13151 0.86296 0.22088
 C28 C -0.10435 0.82903 0.25008
 N29 N -0.12114 0.85510 0.26571
 C30 C -0.13880 0.87509 0.24752
 C31 C -0.19190 0.88426 0.19153
 N32 N -0.21395 0.87316 0.16471
 C33 C -0.18707 0.85093 0.15246
 C34 C -0.14475 0.77796 0.15360
 N35 N -0.13726 0.74553 0.16608
 C36 C -0.11585 0.76469 0.19273
 H37 H -0.09186 0.80619 0.25843
 H38 H -0.15904 0.89530 0.25279
 H39 H -0.20830 0.89856 0.20771
 H40 H -0.19980 0.83371 0.13175
 H41 H -0.16811 0.76947 0.13313
 H42 H -0.10854 0.74569 0.20827
 C43 C -0.11190 0.23908 -0.29445
 C44 C -0.08012 0.27790 -0.27081
 C45 C -0.08417 0.25410 -0.24565
 C46 C -0.11768 0.19487 -0.24306
 C47 C -0.15529 0.15448 -0.26480
 C48 C -0.15160 0.17681 -0.29042
 C49 C -0.09890 0.25330 -0.32390
 N50 N -0.12539 0.20315 -0.33671
 C51 C -0.16110 0.15539 -0.31594
 C52 C -0.18339 0.09930 -0.25619
 N53 N -0.15707 0.10904 -0.23016
 C54 C -0.11895 0.16650 -0.22175
 C55 C -0.04911 0.29807 -0.22619
 N56 N -0.02195 0.35024 -0.23780
 C57 C -0.04008 0.33934 -0.26525
 H58 H -0.06063 0.30144 -0.33525
 H59 H -0.18541 0.11048 -0.31938
 H60 H -0.22016 0.05559 -0.26786
 H61 H -0.09850 0.18394 -0.20098
 H62 H -0.04523 0.29179 -0.20450
 H63 H -0.02608 0.37277 -0.27974
 C64 C 0.15100 0.84754 -0.25684
 C65 C 0.09270 0.79133 -0.23421
 C66 C 0.07106 0.79630 -0.20687
 C67 C 0.10868 0.85742 -0.20272
 C68 C 0.18154 0.91770 -0.22443
 C69 C 0.20403 0.91310 -0.25159
 C70 C 0.14271 0.84324 -0.28510
 N71 N 0.19026 0.90525 -0.29681
 C72 C 0.23965 0.95201 -0.27690
 C73 C 0.23198 0.97798 -0.21290
 N74 N 0.19380 0.95696 -0.18414
 C75 C 0.11426 0.88187 -0.17822
 C76 C 0.06981 0.76424 -0.18803
 N77 N 0.10860 0.75168 -0.20278
 C78 C 0.11408 0.76240 -0.23082
 H79 H 0.08786 0.79223 -0.29428
 H80 H 0.28638 1.00684 -0.27928
 H81 H 0.30504 1.03583 -0.22392
 H82 H 0.07728 0.85033 -0.15689
 H83 H 0.07278 0.77057 -0.16567
 H84 H 0.15895 0.76812 -0.24776
 C85 C 0.15564 1.13928 0.78885
 C86 C 0.16558 1.13035 0.81590
 C87 C 0.16882 1.15958 0.83782
 C88 C 0.16635 1.20013 0.83289
 C89 C 0.16364 1.21320 0.80594
 C90 C 0.15442 1.18016 0.78373
 C91 C 0.15469 1.11902 0.76342
 N92 N 0.15159 1.14538 0.74263
 C93 C 0.15022 1.18231 0.75510
 C94 C 0.17382 1.26104 0.80751
 N95 N 0.17839 1.27446 0.83490
 C96 C 0.17378 1.23709 0.85038
 C97 C 0.19594 1.15348 0.86022
 N98 N 0.21177 1.12268 0.85235
 C99 C 0.19219 1.10741 0.82536
 H100 H 0.15462 1.08618 0.76062
 H101 H 0.15430 1.21339 0.74395
 H102 H 0.17535 1.28290 0.79012
 H103 H 0.17802 1.23782 0.87277
 H104 H 0.21634 1.17821 0.87941
 H105 H 0.20501 1.08668 0.81282
 C106 C 0.86934 0.81757 0.78649
 C107 C 0.85729 0.82903 0.81338
 C108 C 0.84198 0.79737 0.83778
 C109 C 0.83872 0.75280 0.83547
 C110 C 0.84776 0.73943 0.80884
 C111 C 0.86586 0.77381 0.78371
 C112 C 0.86801 0.83384 0.76042
 N113 N 0.86342 0.80122 0.74093
 C114 C 0.86710 0.76692 0.75487
 C115 C 0.83120 0.68883 0.81396
 N116 N 0.81817 0.67397 0.84269
 C117 C 0.82081 0.71250 0.85577
 C118 C 0.81384 0.80844 0.86065
 N119 N 0.80978 0.84489 0.85036
 C120 C 0.83766 0.85770 0.82137
 H121 H 0.86596 0.86510 0.75658
 H122 H 0.86113 0.73365 0.74560
 H123 H 0.83451 0.66803 0.79729
 H124 H 0.80838 0.71095 0.87854
 H125 H 0.78839 0.78512 0.88278
 H126 H 0.83242 0.87878 0.80640
 C127 C 0.18900 0.81463 1.29412
 C128 C 0.15812 0.82966 1.27847
 C129 C 0.07217 0.77763 1.26360
 C130 C 0.01680 0.70910 1.26307
 C131 C 0.03866 0.68970 1.28040
 C132 C 0.11818 0.74088 1.29866
 C133 C 0.23691 0.84748 1.31730
 N134 N 0.17041 0.79146 1.33977
 C135 C 0.10186 0.72665 1.32839
 C136 C 0.01641 0.64163 1.26590
 N137 N -0.02491 0.62834 1.24209
 C138 C -0.02737 0.66830 1.24114
 C139 C 0.07357 0.81343 1.24781
 N140 N 0.15669 0.88559 1.25352
 C141 C 0.20285 0.89317 1.27391
 H142 H 0.28935 0.90339 1.31968
 H143 H 0.02752 0.67011 1.34101
 H144 H 0.04189 0.62555 1.27060
 H145 H -0.03976 0.67877 1.22281
 H146 H 0.02839 0.79166 1.23048
 H147 H 0.27722 0.94585 1.28134
 C148 C 0.78707 1.12200 1.28148
 C149 C 0.81902 1.11859 1.25554
 C150 C 0.90628 1.18233 1.23468
 C151 C 0.94901 1.24577 1.23657
 C152 C 0.90607 1.24564 1.26027
 C153 C 0.83442 1.18696 1.28448
 C154 C 0.76335 1.09076 1.30799
 N155 N 0.80600 1.13798 1.32716
 C156 C 0.84612 1.19555 1.31301
 C157 C 0.89839 1.28048 1.24886
 N158 N 0.93809 1.30258 1.21982
 C159 C 0.98113 1.28898 1.21348
 C160 C 0.90274 1.15907 1.21030
 N161 N 0.81367 1.08333 1.21460
 C162 C 0.76124 1.05707 1.24255
 H163 H 0.73304 1.04269 1.31127
 H164 H 0.89992 1.24802 1.32077
 H165 H 0.84973 1.27784 1.26038
 H166 H 1.01369 1.29611 1.19225
 H167 H 0.94593 1.19251 1.18922
 H168 H 0.67948 0.99800 1.25168
 O169 O 0.36274 0.84932 0.95796
 O170 O 0.38892 0.94826 1.07340
 O171 O 0.61386 0.97635 1.02657
 O172 O 0.18671 0.83264 0.99164
 O173 O 0.44854 0.90598 1.05426
 O174 O 0.29097 0.88719 0.94473
 O175 O 0.24024 0.89035 1.05356
 O176 O 0.47815 0.88258 0.98720
 C177 C 0.43276 0.85670 0.96265
 C178 C 0.29039 0.91233 1.07607
 C179 C 0.53935 0.93374 1.05041
 C180 C 0.19565 0.84164 0.96227
 O181 O 0.41442 0.99498 0.96962
 O182 O 0.58809 1.04144 1.02790
 O183 O 0.62702 1.01469 0.97047
 O184 O 0.43503 1.00740 1.02619
 O185 O 0.43552 1.00800 1.02633
 O186 O 0.51199 0.98181 0.94205
 O187 O 0.27888 0.94925 1.00026
 O188 O 0.59956 1.04758 1.02331
 Co189 Co 0.37194 0.91511 0.96764
 Co190 Co 0.42531 0.94471 1.03944
 Co191 Co 0.53049 0.95904 1.00896
 Co192 Co 0.30841 0.91647 1.01317
 O193 O 0.40464 0.92049 1.00405
 C194 C 0.35108 0.99085 0.97660
 C195 C 0.66146 1.09239 1.04221
 C196 C 0.60478 1.01447 0.94551
 C197 C 0.48270 1.06350 1.03712
 O198 O -0.03567 0.44804 0.05114
 O199 O -0.00744 0.53017 -0.05702
 O200 O -0.00776 0.40176 -0.02961
 O201 O 0.08936 0.57462 0.02766
 O202 O 0.04201 0.47908 -0.06035
 O203 O 0.07876 0.56889 0.03070
 O204 O 0.06840 0.60513 -0.02240
 O205 O -0.04294 0.38672 0.02472
 C206 C -0.00525 0.42639 0.04459
 C207 C 0.06085 0.59441 -0.04921
 C208 C 0.05260 0.44841 -0.05276
 C209 C 0.12719 0.59404 0.05178
 O210 O -0.13014 0.47529 0.05979
 O211 O -0.13705 0.39329 -0.07100
 O212 O -0.24474 0.30446 0.02790
 O213 O -0.15613 0.47866 -0.01138
 O214 O -0.21792 0.39001 -0.03110
 O215 O -0.14919 0.39419 0.05492
 O216 O -0.04200 0.56910 0.03066
 O217 O -0.21614 0.31293 -0.03097
 Co218 Co -0.08036 0.47051 0.02864
 Co219 Co -0.08154 0.44133 -0.04306
 Co220 Co -0.12073 0.36123 -0.00246
 Co221 Co -0.03354 0.52647 0.00982
 O222 O -0.03255 0.46859 -0.00724
 C223 C -0.11007 0.52398 0.05443
 C224 C -0.19125 0.32964 -0.05906
 C225 C -0.23200 0.32261 0.05310
 C226 C -0.21929 0.42692 -0.03001
 O227 O 1.09012 0.07277 0.46491
 O228 O 0.69140 -0.12162 0.52872
 O229 O 0.85522 -0.03182 0.48308
 O230 O 1.01336 0.02420 0.56186
 O231 O 0.85506 -0.03123 0.48433
 O232 O 1.15206 0.11916 0.52314
 O233 O 0.84671 -0.03571 0.54574
 O234 O 1.06820 0.06161 0.46157
 C235 C 1.14398 0.09424 0.43970
 C236 C 0.75441 -0.06955 0.54384
 C237 C 0.90111 0.02869 0.48709
 C238 C 1.10913 0.09532 0.55056
 O239 O 1.14814 0.04009 0.52542
 O240 O 0.69252 -0.16667 0.48045
 O241 O 0.98407 -0.06085 0.45557
 O242 O 0.80210 -0.11207 0.58239
 O243 O 0.70680 -0.18628 0.54697
 O244 O 1.13063 0.01654 0.47533
 O245 O 0.97170 -0.07033 0.55576
 O246 O 0.85196 -0.07966 0.44326
 Co247 Co 1.11916 0.05740 0.49706
 Co248 Co 0.78374 -0.10982 0.51139
 Co249 Co 0.92269 -0.04812 0.47247
 Co250 Co 0.88772 -0.06736 0.54889
 O251 O 0.94546 -0.04136 0.50885
 C252 C 1.08576 -0.01451 0.54572
 C253 C 0.74023 -0.14242 0.45225
 C254 C 1.06862 -0.03299 0.45954
 C255 C 0.71371 -0.17834 0.57607
 C256 C 1.14970 0.12772 0.31597
 C257 C 1.13058 0.15162 0.33445
 C258 C 1.11132 0.18298 0.32516
 C259 C 1.11378 0.19123 0.29655
 C260 C 1.13628 0.17139 0.27696
 C261 C 1.15189 0.14064 0.28757
 O262 O 1.13988 0.13494 0.34365
 C263 C 1.15156 0.10871 0.36031
 C264 C 1.13415 0.14212 0.36033
 C265 C 1.12311 0.16293 0.38600
 C266 C 1.12793 0.14813 0.41188
 C267 C 1.14023 0.11298 0.41306
 C268 C 1.15350 0.09641 0.38822
 H269 H 1.09584 0.19948 0.34019
 H270 H 1.09716 0.21251 0.29020
 H271 H 1.16977 0.12517 0.27313
 H272 H 1.11194 0.18924 0.38475
 H273 H 1.12333 0.16456 0.43071
 H274 H 1.16553 0.07063 0.39039
 C275 C 0.79907 -0.14639 0.33819
 C276 C 0.81103 -0.17351 0.35400
 C277 C 0.86644 -0.17754 0.34191
 C278 C 0.89729 -0.16237 0.31190
 C279 C 0.87045 -0.14488 0.29469
 C280 C 0.82802 -0.13159 0.30861
 O281 O 0.75239 -0.14102 0.35376
 C282 C 0.73051 -0.16794 0.38008
 C283 C 0.76175 -0.19064 0.38122
 C284 C 0.73713 -0.22680 0.40623
 C285 C 0.68866 -0.23295 0.43141
 C286 C 0.67985 -0.19459 0.43158
 C287 C 0.68802 -0.16977 0.40515
 H288 H 0.88665 -0.19081 0.35509
 H289 H 0.94047 -0.16537 0.30240
 H290 H 0.80878 -0.11575 0.29739
 H291 H 0.75659 -0.24809 0.40644
 H292 H 0.67891 -0.25483 0.45139
 H293 H 0.68021 -0.14127 0.40439
 C294 C 0.88855 0.13888 0.60754
 C295 C 0.82086 0.11908 0.59105
 C296 C 0.79686 0.14751 0.59375
 C297 C 0.83332 0.18987 0.61620
 C298 C 0.89238 0.20255 0.63499
 C299 C 0.93333 0.18575 0.62754
 O300 O 0.88984 0.09958 0.60596
 C301 C 0.82324 0.05428 0.58781
 C302 C 0.78033 0.06415 0.57700
 C303 C 0.71177 0.02193 0.55644
 C304 C 0.69198 -0.02907 0.54624
 C305 C 0.73807 -0.03790 0.55759
 C306 C 0.79764 0.00116 0.57991
 H307 H 0.74265 0.13149 0.58115
 H308 H 0.80235 0.20323 0.62121
 H309 H 0.98027 0.19559 0.64104
 H310 H 0.68072 0.03136 0.54744
 H311 H 0.64628 -0.05831 0.52896
 H312 H 0.83270 -0.00477 0.58951
 C313 C 1.10399 -0.13055 0.63159
 C314 C 1.15711 -0.06177 0.62775
 C315 C 1.19034 -0.01709 0.65038
 C316 C 1.18956 -0.03476 0.67590
 C317 C 1.16932 -0.08801 0.67920
 C318 C 1.11957 -0.13710 0.65843
 O319 O 1.13804 -0.08025 0.61263
 C320 C 1.10139 -0.10363 0.58713
 C321 C 1.18018 -0.03991 0.60119
 C322 C 1.26305 0.03849 0.58870
 C323 C 1.24043 0.04672 0.56604
 C324 C 1.13711 -0.01882 0.55843
 C325 C 1.07846 -0.08876 0.56620
 H326 H 1.21627 0.02895 0.64659
 H327 H 1.20873 -0.00419 0.69239
 H328 H 1.08878 -0.18515 0.66274
 H329 H 1.32746 0.08552 0.59975
 H330 H 1.29239 0.10163 0.55794
 H331 H 1.01336 -0.13389 0.55464
 C332 C 0.31518 1.11415 1.10219
 C333 C 0.29943 1.11067 1.07475
 C334 C 0.25271 1.11942 1.06579
 C335 C 0.21776 1.13026 1.08618
 C336 C 0.23414 1.13530 1.11482
 C337 C 0.28481 1.12756 1.12265
 O338 O 0.35947 1.10303 1.10627
 C339 C 0.37191 1.09245 1.08077
 C340 C 0.33684 1.09694 1.06077
 C341 C 0.34988 1.09324 1.03224
 C342 C 0.40209 1.08503 1.02412
 C343 C 0.42844 1.07274 1.04468
 C344 C 0.41680 1.07919 1.07330
 H345 H 0.23921 1.11505 1.04418
 H346 H 0.17245 1.13057 1.07974
 H347 H 0.30215 1.13291 1.14378
 H348 H 0.32432 1.09910 1.01681
 H349 H 0.42518 1.09099 1.00195
 H350 H 0.44149 1.07332 1.08907
 C351 C 0.20729 0.95608 0.88473
 C352 C 0.25321 0.94392 0.87794
 C353 C 0.33155 0.97978 0.85296
 C354 C 0.34984 1.02128 0.83271
 C355 C 0.26317 1.00264 0.83464
 C356 C 0.20935 0.98510 0.86263
 O357 O 0.14158 0.92103 0.91076
 C358 C 0.14135 0.88251 0.91954
 C359 C 0.19907 0.88926 0.89879
 C360 C 0.17187 0.83289 0.89851
 C361 C 0.10328 0.77905 0.92366
 C362 C 0.09890 0.79936 0.94920
 C363 C 0.08965 0.83719 0.94621
 H364 H 0.37391 0.97431 0.84902
 H365 H 0.40423 1.04494 0.81225
 H366 H 0.14675 0.97416 0.86574
 H367 H 0.19407 0.82714 0.87939
 H368 H 0.07797 0.73316 0.92467
 H369 H 0.06681 0.84451 0.96461
 C370 C 0.66861 0.87104 1.11465
 C371 C 0.62218 0.87561 1.13297
 C372 C 0.63379 0.88459 1.16102
 C373 C 0.69507 0.88830 1.17096
 C374 C 0.73664 0.87724 1.15349
 C375 C 0.72302 0.86890 1.12457
 O376 O 0.66212 0.87447 1.08769
 C377 C 0.60997 0.88109 1.08932
 C378 C 0.58252 0.88079 1.11677
 C379 C 0.53632 0.89311 1.12364
 C380 C 0.51411 0.90424 1.10134
 C381 C 0.54781 0.90958 1.07274
 C382 C 0.59468 0.89658 1.06644
 H383 H 0.60145 0.89228 1.17440
 H384 H 0.70714 0.89889 1.19252
 H385 H 0.75395 0.86169 1.10992
 H386 H 0.52177 0.89685 1.14526
 H387 H 0.47669 0.91314 1.10625
 H388 H 0.62164 0.90085 1.04460
 C389 C 0.66157 0.97291 0.83298
 C390 C 0.75459 1.01724 0.84604
 C391 C 0.86340 1.06160 0.83024
 C392 C 0.88845 1.08523 0.80131
 C393 C 0.80697 1.05898 0.78869
 C394 C 0.69379 0.99755 0.80353
 O395 O 0.70883 1.01216 0.85535
 C396 C 0.65524 1.01496 0.86843
 C397 C 0.74038 1.03168 0.86943
 C398 C 0.80163 1.06080 0.89351
 C399 C 0.76162 1.05987 0.91847
 C400 C 0.67784 1.04210 0.91862
 C401 C 0.64128 1.03124 0.89313
 H402 H 0.93249 1.09313 0.84093
 H403 H 0.97491 1.13262 0.78965
 H404 H 0.62730 0.96863 0.79222
 H405 H 0.86459 1.07251 0.89283
 H406 H 0.79115 1.06920 0.93787
 H407 H 0.58614 1.02640 0.89295
 C408 C 0.15223 0.40324 0.12043
 C409 C 0.19721 0.41851 0.09225
 C410 C 0.24234 0.40647 0.08223
 C411 C 0.24216 0.37522 0.10147
 C412 C 0.18626 0.34964 0.13221
 C413 C 0.14257 0.36920 0.14242
 O414 O 0.10792 0.41576 0.12321
 C415 C 0.12340 0.43780 0.09647
 C416 C 0.17776 0.44011 0.07704
 C417 C 0.18936 0.45048 0.04781
 C418 C 0.14275 0.45856 0.03802
 C419 C 0.07511 0.44803 0.05735
 C420 C 0.07220 0.44348 0.08703
 H421 H 0.27602 0.42002 0.05972
 H422 H 0.27945 0.36751 0.09336
 H423 H 0.16066 0.35405 0.14109
 H424 H 0.22388 0.44576 0.03303
 H425 H 0.14895 0.46484 0.01513
 H426 H 0.02213 0.43609 0.10221
 C427 C -0.09219 0.36926 -0.17483
 C428 C -0.01950 0.38859 -0.16153
 C429 C 0.08368 0.43131 -0.17655
 C430 C 0.10190 0.44155 -0.20659
 C431 C 0.01049 0.40047 -0.22027
 C432 C -0.07903 0.37470 -0.20473
 O433 O -0.18525 0.32970 -0.15668
 C434 C -0.17367 0.32055 -0.13177
 C435 C -0.07842 0.35052 -0.13398
 C436 C -0.06425 0.33286 -0.11181
 C437 C -0.13768 0.29671 -0.08484
 C438 C -0.21553 0.28593 -0.08019
 C439 C -0.24418 0.28776 -0.10492
 H440 H 0.14215 0.44954 -0.16555
 H441 H 0.17291 0.46370 -0.21826
 H442 H -0.15147 0.34224 -0.21407
 H443 H 0.00406 0.34928 -0.11520
 H444 H -0.11901 0.29048 -0.06684
 H445 H -0.30443 0.27879 -0.10250
 C446 C 0.21713 0.72887 -0.16510
 C447 C 0.27800 0.78712 -0.14967
 C448 C 0.31496 0.84663 -0.15811
 C449 C 0.27555 0.84150 -0.18091
 C450 C 0.19168 0.77377 -0.19279
 C451 C 0.17277 0.72119 -0.18735
 O452 O 0.17508 0.67225 -0.15092
 C453 C 0.20270 0.69282 -0.12553
 C454 C 0.26061 0.76092 -0.12317
 C455 C 0.25375 0.77701 -0.09690
 C456 C 0.18617 0.72115 -0.07249
 C457 C 0.13958 0.65627 -0.07397
 C458 C 0.15156 0.64332 -0.10113
 H459 H 0.36001 0.89024 -0.14517
 H460 H 0.29472 0.88403 -0.18587
 H461 H 0.11124 0.67011 -0.19662
 H462 H 0.28768 0.82652 -0.09586
 H463 H 0.15623 0.72173 -0.05319
 H464 H 0.10909 0.59103 -0.10378
 C465 C -0.18749 0.63572 0.11431
 C466 C -0.23162 0.58052 0.13294
 C467 C -0.24091 0.57919 0.16234
 C468 C -0.20579 0.63565 0.17306
 C469 C -0.16556 0.69100 0.15452
 C470 C -0.15677 0.69054 0.12458
 O471 O -0.16212 0.63738 0.08727
 C472 C -0.18910 0.58288 0.08890
 C473 C -0.23616 0.54441 0.11627
 C474 C -0.25926 0.49085 0.12343
 C475 C -0.22129 0.48251 0.10243
 C476 C -0.16285 0.52664 0.07471
 C477 C -0.15311 0.57396 0.06739
 H478 H -0.26973 0.53792 0.17649
 H479 H -0.21052 0.63583 0.19583
 H480 H -0.12170 0.73375 0.10955
 H481 H -0.29777 0.46049 0.14506
 H482 H -0.23216 0.44457 0.10833
 H483 H -0.11168 0.60682 0.04623
 C484 C 1.14452 0.15142 0.66559
 C485 C 1.20897 0.15420 0.65510
 C486 C 1.24247 0.14407 0.67278
 C487 C 1.21651 0.13671 0.70230
 C488 C 1.16199 0.14277 0.71397
 C489 C 1.12261 0.14824 0.69506
 O490 O 1.10623 0.15000 0.64523
 C491 C 1.15088 0.15456 0.62139
 C492 C 1.21813 0.16032 0.62624
 C493 C 1.27709 0.16896 0.60426
 C494 C 1.26145 0.16780 0.57638
 C495 C 1.17632 0.14726 0.57158
 C496 C 1.12511 0.14518 0.59416
 H497 H 1.28457 0.13985 0.66425
 H498 H 1.24488 0.13028 0.71580
 H499 H 1.07389 0.14784 0.70303
 H500 H 1.33032 0.17397 0.60849
 H501 H 1.30557 0.17402 0.55891
 H502 H 1.05901 0.12917 0.59132
 C503 C 0.74574 -0.21935 0.68213
 C504 C 0.75605 -0.24582 0.66330
 C505 C 0.81532 -0.24797 0.66754
 C506 C 0.85649 -0.22845 0.69317
 C507 C 0.83879 -0.20681 0.71420
 C508 C 0.78692 -0.19894 0.70750
 O509 O 0.69783 -0.21358 0.67310
 C510 C 0.67643 -0.23734 0.64799
 C511 C 0.70797 -0.25940 0.64117
 C512 C 0.69928 -0.28160 0.61491
 C513 C 0.66869 -0.27313 0.59401
 C514 C 0.65395 -0.23886 0.59908
 C515 C 0.64510 -0.22913 0.62753
 H516 H 0.82904 -0.26451 0.65173
 H517 H 0.90233 -0.23005 0.69655
 H518 H 0.77227 -0.18153 0.72209
 H519 H 0.72370 -0.29922 0.60983
 H520 H 0.67235 -0.28328 0.57269
 H521 H 0.63585 -0.20189 0.63200
 C522 C 1.09797 -0.15834 0.38436
 C523 C 1.10477 -0.16901 0.41085
 C524 C 1.12181 -0.20096 0.41551
 C525 C 1.13574 -0.22021 0.39170
 C526 C 1.13375 -0.20623 0.36401
 C527 C 1.10957 -0.17774 0.36106
 O528 O 1.08684 -0.12452 0.38331
 C529 C 1.08682 -0.11279 0.40980
 C530 C 1.09737 -0.13884 0.42775
 C531 C 1.10162 -0.13007 0.45641
 C532 C 1.09695 -0.09198 0.46652
 C533 C 1.08749 -0.06419 0.44801
 C534 C 1.07995 -0.07640 0.41947
 H535 H 1.12813 -0.20828 0.43650
 H536 H 1.15453 -0.24147 0.39451
 H537 H 1.10685 -0.16621 0.34043
 H538 H 1.10687 -0.15248 0.47052
 H539 H 1.09578 -0.08700 0.48899
 H540 H 1.06905 -0.05800 0.40519
 C541 C 0.84677 0.09196 0.38586
 C542 C 0.87835 0.13685 0.40490
 C543 C 0.88672 0.18337 0.39918
 C544 C 0.86048 0.18268 0.37323
 C545 C 0.82699 0.13633 0.35312
 C546 C 0.81950 0.08983 0.36032
 O547 O 0.84333 0.05169 0.39464
 C548 C 0.87223 0.07063 0.42007
 C549 C 0.89445 0.12238 0.42761
 C550 C 0.92306 0.14730 0.45410
 C551 C 0.92843 0.11767 0.47305
 C552 C 0.90503 0.06398 0.46550
 C553 C 0.87690 0.04062 0.43853
 H554 H 0.91176 0.21877 0.41419
 H555 H 0.86244 0.21630 0.36929
 H556 H 0.79465 0.05291 0.34653
 H557 H 0.93762 0.18651 0.46027
 H558 H 0.94761 0.13468 0.49393
 H559 H 0.85819 -0.00041 0.43206
 C560 C 0.16072 0.34612 -0.10609
 C561 C 0.20327 0.40513 -0.12443
 C562 C 0.23719 0.42343 -0.15629
 C563 C 0.22781 0.38305 -0.17184
 C564 C 0.18871 0.32140 -0.15390
 C565 C 0.15791 0.30630 -0.12178
 O566 O 0.18016 0.39877 -0.10670
 C567 C 0.14964 0.39620 -0.07934
 C568 C 0.20173 0.43657 -0.10778
 C569 C 0.23628 0.49846 -0.11659
 C570 C 0.19237 0.50568 -0.09815
 C571 C 0.12664 0.45952 -0.07127
 C572 C 0.11832 0.41369 -0.06247
 H573 H 0.26568 0.46690 -0.16785
 H574 H 0.20861 0.35033 -0.16452
 H575 H 0.14343 0.31392 -0.10181
 H576 H 0.28395 0.53202 -0.13785
 H577 H 0.20499 0.54396 -0.10546
 H578 H 0.07687 0.38340 -0.04074
 C579 C -0.14803 0.28859 0.15120
 C580 C -0.19599 0.29886 0.15927
 C581 C -0.19505 0.31637 0.18628
 C582 C -0.14634 0.32075 0.20590
 C583 C -0.09945 0.30768 0.19858
 C584 C -0.10089 0.29182 0.17039
 O585 O -0.15673 0.27250 0.12477
 C586 C -0.21359 0.27113 0.11586
 C587 C -0.24095 0.28593 0.13629
 C588 C -0.29436 0.29174 0.13085
 C589 C -0.31884 0.28335 0.10341
 C590 C -0.28202 0.27541 0.08093
 C591 C -0.23390 0.26508 0.08793
 H592 H -0.23384 0.32399 0.19248
 H593 H -0.14809 0.33219 0.22703
 H594 H -0.07203 0.27795 0.16341
 H595 H -0.30456 0.31083 0.14620
 H596 H -0.34858 0.29635 0.09830
 H597 H -0.19667 0.26476 0.07117
 C598 C -0.20632 0.57954 -0.10171
 C599 C -0.22445 0.53581 -0.11753
 C600 C -0.22572 0.53727 -0.14645
 C601 C -0.21030 0.58424 -0.15968
 C602 C -0.19447 0.62926 -0.14402
 C603 C -0.19135 0.62674 -0.11432
 O604 O -0.20589 0.57067 -0.07455
 C605 C -0.22606 0.51927 -0.07329
 C606 C -0.23850 0.49599 -0.09894
 C607 C -0.26012 0.44260 -0.10245
 C608 C -0.26957 0.41147 -0.07853
 C609 C -0.24983 0.43779 -0.05205
 C610 C -0.23015 0.49165 -0.04950
 H611 H -0.23807 0.50326 -0.15853
 H612 H -0.21232 0.58396 -0.18214
 H613 H -0.17645 0.66080 -0.10122
 H614 H -0.26653 0.42717 -0.12323
 H615 H -0.28595 0.37018 -0.08123
 H616 H -0.21171 0.51512 -0.03006
 C617 C 0.04933 0.59026 0.18057
 C618 C 0.00048 0.58730 0.16171
 C619 C -0.08023 0.57612 0.17104
 C620 C -0.10428 0.57384 0.19932
 C621 C -0.03648 0.59690 0.21738
 C622 C 0.03240 0.60066 0.20823
 O623 O 0.04034 0.59055 0.15228
 C624 C 0.08742 0.58547 0.13424
 C625 C 0.04108 0.59934 0.13520
 C626 C 0.04080 0.62469 0.10948
 C627 C 0.07719 0.62785 0.08274
 C628 C 0.08731 0.59139 0.08042
 C629 C 0.10302 0.57893 0.10533
 H630 H -0.11728 0.57213 0.15606
 H631 H -0.16576 0.56333 0.20634
 H632 H 0.07884 0.61364 0.22325
 H633 H 0.01509 0.64193 0.11155
 H634 H 0.09460 0.65685 0.06396
 H635 H 0.13756 0.56771 0.10210
 C636 C 0.27135 1.08891 0.91065
 C637 C 0.37133 1.12709 0.89699
 C638 C 0.42263 1.16468 0.86878
 C639 C 0.36880 1.16288 0.85404
 C640 C 0.26515 1.12329 0.86757
 C641 C 0.21665 1.08673 0.89637
 O642 O 0.23063 1.05025 0.93626
 C643 C 0.30548 1.06341 0.93876
 C644 C 0.39319 1.11011 0.91526
 C645 C 0.47173 1.12262 0.91149
 C646 C 0.46043 1.08641 0.93272
 C647 C 0.36863 1.03614 0.95685
 C648 C 0.29237 1.02655 0.96028
 H649 H 0.49949 1.19238 0.85817
 H650 H 0.40744 1.19219 0.83213
 H651 H 0.13611 1.05489 0.90667
 H652 H 0.53558 1.15552 0.89212
 H653 H 0.52108 1.09543 0.92972
 H654 H 0.22114 0.98780 0.97821
 C655 C 0.21681 0.95319 1.18188
 C656 C 0.30805 0.97826 1.17574
 C657 C 0.37668 1.00709 1.19472
 C658 C 0.34003 0.99940 1.22269
 C659 C 0.22533 0.94815 1.23144
 C660 C 0.17195 0.93665 1.21069
 O661 O 0.16010 0.92376 1.16059
 C662 C 0.21200 0.92510 1.14208
 C663 C 0.29397 0.95011 1.15244
 C664 C 0.31190 0.91891 1.14667
 C665 C 0.26547 0.87663 1.12463
 C666 C 0.22805 0.88288 1.10556
 C667 C 0.18287 0.89571 1.11640
 H668 H 0.44992 1.02838 1.18876
 H669 H 0.38883 1.01598 1.23784
 H670 H 0.08567 0.89886 1.21658
 H671 H 0.35314 0.92273 1.15985
 H672 H 0.28223 0.85425 1.11893
 H673 H 0.13111 0.88524 1.10531
 C674 C 0.70905 1.05713 1.15337
 C675 C 0.77564 1.07051 1.13291
 C676 C 0.83329 1.06874 1.13983
 C677 C 0.82534 1.05596 1.16901
 C678 C 0.76369 1.04737 1.19041
 C679 C 0.69834 1.04260 1.18225
 O680 O 0.65635 1.05736 1.14263
 C681 C 0.68948 1.07054 1.11464
 C682 C 0.76338 1.07973 1.10749
 C683 C 0.81160 1.09667 1.07917
 C684 C 0.77584 1.09915 1.05750
 C685 C 0.69458 1.08537 1.06454
 C686 C 0.65616 1.07509 1.09342
 H687 H 0.87998 1.07501 1.12353
 H688 H 0.87403 1.05854 1.17524
 H689 H 0.64560 1.03244 1.19805
 H690 H 0.87405 1.10744 1.07391
 H691 H 0.80825 1.10942 1.03530
 H692 H 0.59795 1.06767 1.09914
 C693 C 0.64760 0.82033 0.91214
 C694 C 0.62886 0.84240 0.89402
 C695 C 0.68309 0.87648 0.86329
 C696 C 0.75153 0.88417 0.85055
 C697 C 0.76098 0.85376 0.86572
 C698 C 0.71516 0.82751 0.89550
 O699 O 0.59403 0.82720 0.91129
 C700 C 0.53531 0.80613 0.93789
 C701 C 0.55740 0.82835 0.90830
 C702 C 0.51296 0.83995 0.89594
 C703 C 0.46837 0.84607 0.91410
 C704 C 0.45543 0.83349 0.94336
 C705 C 0.48336 0.81113 0.95395
 H706 H 0.66877 0.89416 0.85058
 H707 H 0.79262 0.91162 0.82851
 H708 H 0.73119 0.81000 0.90738
 H709 H 0.52660 0.85188 0.87311
 H710 H 0.45487 0.86766 0.90513
 H711 H 0.46319 0.79587 0.97686
   
