data_POSCAR
  _audit_creation_date              2014-09-24
  _audit_creation_method            'ToBaCCo'
  _symmetry_space_group_name_H-M    'P1'
  _symmetry_Int_Tables_number       1
  _symmetry_cell_setting            triclinic
  loop_
  _symmetry_equiv_pos_as_xyz
 x,y,z
_cell_length_a 23.3746
_cell_length_b 23.3773
_cell_length_c 30.2566
_cell_angle_alpha 89.994600
_cell_angle_beta 89.990600
_cell_angle_gamma 90.003900
loop_
  _atom_site_label
  _atom_site_type_symbol
  _atom_site_fract_x
  _atom_site_fract_y
  _atom_site_fract_z
B1 B 0.27449 0.23145 0.29572
 B2 B 0.20517 0.22421 0.28282
 B3 B 0.23326 0.28965 0.29090
 B4 B 0.30000 0.28990 0.27031
 B5 B 0.31317 0.22309 0.24927
 B6 B 0.25399 0.18213 0.25785
 B7 B 0.22390 0.26981 0.20334
 B8 B 0.29332 0.27708 0.21613
 B9 B 0.26521 0.21174 0.20802
 B10 B 0.19854 0.21135 0.22869
 B11 B 0.18534 0.27815 0.24975
 B12 B 0.24455 0.31911 0.24109
 B13 B 0.72394 0.76945 0.29642
 B14 B 0.79335 0.77663 0.28355
 B15 B 0.76515 0.71129 0.29160
 B16 B 0.69844 0.71110 0.27100
 B17 B 0.68533 0.77799 0.25007
 B18 B 0.74461 0.81882 0.25872
 B19 B 0.77433 0.73128 0.20392
 B20 B 0.70501 0.72413 0.21688
 B21 B 0.73322 0.78952 0.20888
 B22 B 0.79997 0.78960 0.22939
 B23 B 0.81306 0.72270 0.25031
 B24 B 0.75379 0.68187 0.24172
 B25 B 0.71188 0.23352 -0.29267
 B26 B 0.77730 0.20544 -0.28460
 B27 B 0.76996 0.27476 -0.29753
 B28 B 0.71154 0.30023 -0.27207
 B29 B 0.68243 0.24481 -0.24279
 B30 B 0.72339 0.18563 -0.25144
 B31 B 0.79003 0.26563 -0.20996
 B32 B 0.72456 0.29363 -0.21791
 B33 B 0.73189 0.22427 -0.20503
 B34 B 0.79028 0.19890 -0.23048
 B35 B 0.81937 0.25431 -0.25980
 B36 B 0.77840 0.31348 -0.25118
 B37 B 0.29006 0.76572 -0.29030
 B38 B 0.22458 0.79372 -0.28239
 B39 B 0.23194 0.72433 -0.29516
 B40 B 0.29033 0.69904 -0.26965
 B41 B 0.31939 0.75455 -0.24042
 B42 B 0.27839 0.81368 -0.24917
 B43 B 0.21186 0.73381 -0.20754
 B44 B 0.27731 0.70574 -0.21552
 B45 B 0.26992 0.77510 -0.20274
 B46 B 0.21152 0.80046 -0.22826
 B47 B 0.18246 0.74494 -0.25745
 B48 B 0.22344 0.68581 -0.24868
 B49 B 1.22420 1.26948 0.79657
 B50 B 1.29375 1.27620 0.78367
 B51 B 1.26493 1.21103 0.79156
 B52 B 1.19810 1.21136 0.77105
 B53 B 1.18546 1.27840 0.75027
 B54 B 1.24515 1.31878 0.75891
 B55 B 1.27390 1.23113 0.70386
 B56 B 1.20443 1.22439 0.71685
 B57 B 1.23325 1.28964 0.70901
 B58 B 1.30012 1.28920 0.72944
 B59 B 1.31275 1.22216 0.75021
 B60 B 1.25309 1.18177 0.74161
 B61 B 0.77428 0.73154 0.79588
 B62 B 0.70482 0.72471 0.78295
 B63 B 0.73351 0.79001 0.79085
 B64 B 0.80036 0.78973 0.77036
 B65 B 0.81309 0.72276 0.74949
 B66 B 0.75352 0.68224 0.75807
 B67 B 0.72440 0.77003 0.70327
 B68 B 0.79397 0.77686 0.71612
 B69 B 0.76524 0.71166 0.70816
 B70 B 0.69845 0.71180 0.72874
 B71 B 0.68570 0.77877 0.74962
 B72 B 0.74530 0.81929 0.74096
 B73 B 1.23158 0.72483 0.29512
 B74 B 1.22494 0.79435 0.28214
 B75 B 1.29013 0.76555 0.29014
 B76 B 1.28978 0.69868 0.26973
 B77 B 1.22279 0.68604 0.24877
 B78 B 1.18239 0.74572 0.25727
 B79 B 1.27036 0.77441 0.20248
 B80 B 1.27701 0.70495 0.21550
 B81 B 1.21186 0.73381 0.20741
 B82 B 1.21215 0.80066 0.22788
 B83 B 1.27911 0.81329 0.24877
 B84 B 1.31951 0.75361 0.24030
 B85 B 0.79028 1.26550 0.20975
 B86 B 0.72506 1.29428 0.21762
 B87 B 0.73174 1.22477 0.20471
 B88 B 0.78988 1.19865 0.23019
 B89 B 0.81953 1.25362 0.25963
 B90 B 0.77912 1.31329 0.25104
 B91 B 0.71180 1.23384 0.29239
 B92 B 0.77698 1.20498 0.28441
 B93 B 0.77027 1.27447 0.29736
 B94 B 0.71212 1.30066 0.27186
 B95 B 0.68246 1.24568 0.24248
 B96 B 0.72285 1.18602 0.25108
 O97 O 0.56887 1.11008 0.07822
 O98 O 0.63951 1.06297 0.03965
 C99 C 0.62187 1.10072 0.06846
 O100 O 0.43161 0.88472 0.07184
 O101 O 0.36038 0.93734 0.03875
 C102 C 0.37841 0.89599 0.06422
 O103 O 0.58481 0.90643 0.08155
 O104 O 0.64716 0.96251 0.04169
 C105 C 0.63549 0.92465 0.07237
 O106 O 0.41418 1.10042 0.07729
 O107 O 0.35223 1.04091 0.04017
 C108 C 0.36356 1.08130 0.06890
 Zr109 Zr 0.49378 1.07135 0.05550
 O110 O 0.49071 1.06295 0.12524
 O111 O 0.48651 1.16123 0.06161
 Zr112 Zr 0.50565 0.92997 0.05534
 O113 O 0.50101 0.94009 0.12468
 O114 O 0.51421 0.84023 0.06255
 O115 O 0.55185 1.00499 0.06409
 O116 O 0.44867 0.99622 0.06366
 O117 O 0.41432 1.09831 -0.07890
 O118 O 0.35224 1.04061 -0.04021
 C119 C 0.36364 1.07997 -0.06979
 O120 O 0.58470 0.90683 -0.08183
 O121 O 0.64712 0.96226 -0.04157
 C122 C 0.63542 0.92479 -0.07252
 O123 O 0.43114 0.88713 -0.07393
 O124 O 0.36020 0.93784 -0.03868
 C125 C 0.37807 0.89750 -0.06514
 O126 O 0.56897 1.10967 -0.07845
 O127 O 0.63957 1.06267 -0.03979
 C128 C 0.62195 1.10027 -0.06870
 Zr129 Zr 0.49386 1.07187 -0.05488
 O130 O 0.48966 1.06858 -0.12482
 O131 O 0.49019 1.16245 -0.05480
 Zr132 Zr 0.50579 0.92958 -0.05479
 O133 O 0.49799 0.93004 -0.12456
 O134 O 0.51949 0.84001 -0.05425
 Zr135 Zr 0.58756 1.00770 0.00001
 Zr136 Zr 0.41210 0.99384 0.00012
 O137 O 0.44948 0.99639 -0.06317
 O138 O 0.55155 1.00509 -0.06391
 O139 O 0.44116 1.07924 0.00026
 O140 O 0.55741 0.92311 0.00023
 O141 O 0.54313 1.08625 0.00025
 O142 O 0.45531 0.91445 0.00020
 H143 H 0.42297 0.99342 0.08964
 H144 H 0.58597 0.89182 0.00002
 H145 H 0.42453 0.99358 -0.08955
 H146 H 0.56480 1.12265 0.00003
 H147 H 0.53558 0.82561 0.03675
 H148 H 0.49368 0.82336 -0.03172
 H149 H 0.52728 0.95642 -0.13644
 H150 H 0.52662 1.05381 -0.13596
 H151 H 0.45756 1.17410 -0.03598
 H152 H 0.49686 1.17817 0.03281
 H153 H 0.52855 1.04935 0.13554
 H154 H 0.50010 0.90097 0.13725
 O155 O 1.06899 0.60980 0.57835
 O156 O 1.13957 0.56275 0.53967
 C157 C 1.12198 0.60039 0.56856
 O158 O 0.93137 0.38485 0.57192
 O159 O 0.86022 0.43746 0.53870
 C160 C 0.87818 0.39617 0.56423
 O161 O 1.08475 0.40632 0.58154
 O162 O 1.14711 0.46249 0.54176
 C163 C 1.13544 0.42458 0.57241
 O164 O 0.91421 0.60025 0.57746
 O165 O 0.85222 0.54088 0.54024
 C166 C 0.86358 0.58119 0.56904
 Zr167 Zr 0.99379 0.57123 0.55558
 O168 O 0.99074 0.56275 0.62532
 O169 O 0.98653 0.66111 0.56175
 Zr170 Zr 1.00558 0.42983 0.55529
 O171 O 1.00106 0.43972 0.62466
 O172 O 1.01377 0.34000 0.56220
 O173 O 1.05181 0.50482 0.56409
 O174 O 0.94866 0.49611 0.56366
 O175 O 0.91432 0.59845 0.42122
 O176 O 0.85221 0.54068 0.45983
 C177 C 0.86363 0.58011 0.43030
 O178 O 1.08466 0.40679 0.41817
 O179 O 1.14710 0.46216 0.45845
 C180 C 1.13538 0.42470 0.42750
 O181 O 0.93127 0.38693 0.42614
 O182 O 0.86027 0.43765 0.46129
 C183 C 0.87819 0.39724 0.43490
 O184 O 1.06882 0.60986 0.42167
 O185 O 1.13947 0.56276 0.46021
 C186 C 1.12181 0.60048 0.43138
 Zr187 Zr 0.99382 0.57190 0.44521
 O188 O 0.98963 0.56863 0.37526
 O189 O 0.99013 0.66248 0.44537
 Zr190 Zr 1.00577 0.42964 0.44517
 O191 O 0.99789 0.43042 0.37540
 O192 O 1.01945 0.34007 0.44551
 Zr193 Zr 1.08754 0.50764 0.50002
 Zr194 Zr 0.91206 0.49382 0.50012
 O195 O 0.94941 0.49644 0.43685
 O196 O 1.05153 0.50514 0.43611
 O197 O 0.94114 0.57921 0.50036
 O198 O 1.05737 0.42306 0.50018
 O199 O 1.04313 0.58619 0.50034
 O200 O 0.95525 0.41444 0.50014
 H201 H 0.92300 0.49330 0.58966
 H202 H 1.08594 0.39179 0.49996
 H203 H 0.92443 0.49364 0.41048
 H204 H 1.06481 0.62258 0.50017
 H205 H 1.03658 0.32558 0.53707
 H206 H 0.99438 0.32349 0.46856
 H207 H 1.02749 0.45647 0.36354
 H208 H 1.02661 0.55391 0.36412
 H209 H 0.95761 0.67410 0.46432
 H210 H 0.99718 0.67812 0.53305
 H211 H 1.02854 0.54899 0.63559
 H212 H 1.00014 0.40056 0.63716
 O213 O 0.88464 0.57009 -0.07393
 O214 O 0.93559 0.64107 -0.03896
 C215 C 0.89522 0.62320 -0.06542
 O216 O 0.90395 0.41627 0.08136
 O217 O 0.96055 0.35407 0.04182
 C218 C 0.92260 0.36564 0.07244
 O219 O 0.88267 0.56989 0.07213
 O220 O 0.93519 0.64101 0.03873
 C221 C 0.89406 0.62307 0.06448
 O222 O 0.90526 0.41666 -0.08251
 O223 O 0.96009 0.35420 -0.04177
 C224 C 0.92310 0.36592 -0.07306
 Zr225 Zr 0.92758 0.49549 -0.05512
 O226 O 0.83797 0.48246 -0.05692
 O227 O 0.93442 0.50015 -0.12474
 Zr228 Zr 0.92724 0.49559 0.05504
 O229 O 0.83726 0.48778 0.06125
 O230 O 0.93666 0.49988 0.12446
 O231 O 0.91214 0.54598 -0.00013
 O232 O 0.92071 0.44381 -0.00011
 O233 O 1.10689 0.43252 -0.07890
 O234 O 1.06058 0.36191 -0.03970
 C235 C 1.09802 0.37958 -0.06873
 O236 O 1.09824 0.58678 0.07716
 O237 O 1.03871 0.64892 0.04024
 C238 C 1.07928 0.63744 0.06880
 O239 O 1.10744 0.43222 0.07814
 O240 O 1.06036 0.36164 0.03951
 C241 C 1.09818 0.37927 0.06823
 O242 O 1.09634 0.58681 -0.07874
 O243 O 1.03876 0.64901 -0.04007
 C244 C 1.07833 0.63753 -0.06949
 Zr245 Zr 1.06960 0.50744 -0.05481
 O246 O 1.16020 0.51093 -0.05431
 O247 O 1.06680 0.51080 -0.12475
 Zr248 Zr 1.06873 0.50736 0.05557
 O249 O 1.15857 0.51426 0.06223
 O250 O 1.05976 0.51040 0.12527
 Zr251 Zr 0.99154 0.58920 0.00005
 Zr252 Zr 1.00528 0.41373 -0.00003
 O253 O 1.08384 0.45813 0.00031
 O254 O 1.07688 0.56001 0.00038
 O255 O 1.00292 0.44970 -0.06383
 O256 O 0.99361 0.55249 0.06356
 O257 O 0.99424 0.55207 -0.06326
 O258 O 1.00226 0.44942 0.06402
 H259 H 0.88950 0.41517 -0.00048
 H260 H 0.99090 0.57811 0.08957
 H261 H 1.12029 0.43654 0.00005
 H262 H 0.99161 0.57713 -0.08960
 H263 H 0.89742 0.50044 0.13683
 H264 H 1.04658 0.47239 0.13553
 H265 H 1.17566 0.50481 0.03330
 H266 H 1.17180 0.54367 -0.03559
 H267 H 1.04363 0.47801 -0.13515
 H268 H 0.89480 0.49925 -0.13639
 H269 H 0.82130 0.50446 -0.03212
 H270 H 0.82324 0.46333 0.03692
 O271 O 0.60657 0.93226 0.57869
 O272 O 0.56015 0.86169 0.53959
 C273 C 0.59767 0.87934 0.56856
 O274 O 0.38445 1.07011 0.57382
 O275 O 0.43497 1.14100 0.53833
 C276 C 0.39476 1.12317 0.56498
 O277 O 0.40401 0.91630 0.58126
 O278 O 0.46052 0.85408 0.54163
 C279 C 0.42265 0.86567 0.57233
 O280 O 0.59721 1.08667 0.57760
 O281 O 0.53821 1.14884 0.54024
 C282 C 0.57849 1.13734 0.56905
 Zr283 Zr 0.56837 1.00721 0.55546
 O284 O 0.55697 1.00638 0.62476
 O285 O 0.65814 1.01542 0.56240
 Zr286 Zr 0.42653 0.99541 0.55426
 O287 O 0.42644 1.00232 0.62409
 O288 O 0.33694 0.98171 0.55313
 O289 O 0.50180 0.94947 0.56370
 O290 O 0.49321 1.05203 0.56318
 O291 O 0.59744 1.08689 0.42186
 O292 O 0.53904 1.14896 0.45995
 C293 C 0.57904 1.13756 0.43086
 O294 O 0.40394 0.91602 0.41859
 O295 O 0.46038 0.85387 0.45818
 C296 C 0.42254 0.86541 0.42752
 O297 O 0.38280 1.06968 0.42771
 O298 O 0.43568 1.14087 0.46060
 C299 C 0.39445 1.12289 0.43499
 O300 O 0.60807 0.93235 0.42181
 O301 O 0.56082 0.86178 0.46036
 C302 C 0.59869 0.87940 0.43166
 Zr303 Zr 0.57009 1.00741 0.44519
 O304 O 0.56736 1.01177 0.37525
 O305 O 0.66067 1.01101 0.44578
 Zr306 Zr 0.42814 0.99561 0.44404
 O307 O 0.43607 1.00421 0.37451
 O308 O 0.33875 0.98577 0.43586
 Zr309 Zr 0.50528 0.91371 0.49970
 Zr310 Zr 0.49145 1.08909 0.49978
 O311 O 0.49483 1.05221 0.43636
 O312 O 0.50351 0.94958 0.43565
 O313 O 0.57678 1.05995 0.50042
 O314 O 0.42063 0.94388 0.49914
 O315 O 0.58385 0.95799 0.50035
 O316 O 0.41194 1.04593 0.49916
 H317 H 0.49053 1.07720 0.58945
 H318 H 0.38931 0.91534 0.49933
 H319 H 0.49230 1.07778 0.41031
 H320 H 0.62026 0.93634 0.50039
 H321 H 0.32013 1.00936 0.53202
 H322 H 0.32328 0.96967 0.46357
 H323 H 0.45305 0.96857 0.36271
 H324 H 0.55183 0.97515 0.36408
 H325 H 0.67214 1.04228 0.46599
 H326 H 0.67590 1.00174 0.53474
 H327 H 0.59564 1.01004 0.63786
 H328 H 0.45468 0.97461 0.63574
 O329 O 0.94008 0.86810 0.43939
 O330 O 0.96938 0.93655 0.38978
 C331 C 0.94547 0.88824 0.39987
 O332 O 0.87038 1.05933 0.56028
 O333 O 0.93902 1.03045 0.60984
 C334 C 0.89052 1.05397 0.59977
 O335 O 0.86790 1.05392 0.43884
 O336 O 0.93734 1.02685 0.38936
 C337 C 0.88795 1.04876 0.39925
 O338 O 0.94563 0.86579 0.56107
 O339 O 0.97332 0.93516 0.61039
 C340 C 0.95097 0.88595 0.60063
 Zr341 Zr 0.96066 0.90564 0.50003
 O342 O 0.87676 0.87200 0.50481
 O343 O 0.99507 0.82199 0.49534
 Zr344 Zr 0.90824 1.03947 0.49966
 O345 O 0.82417 1.00610 0.50439
 O346 O 0.87570 1.12382 0.49487
 O347 O 0.92372 0.96844 0.46033
 O348 O 0.92442 0.96893 0.53835
 O349 O 1.13202 0.93760 0.56015
 O350 O 1.06370 0.96708 0.60980
 C351 C 1.11203 0.94319 0.59970
 O352 O 1.06180 1.12974 0.43937
 O353 O 1.03279 1.06124 0.38973
 C354 C 1.05626 1.10978 0.39984
 O355 O 1.05634 1.13226 0.56068
 O356 O 1.02941 1.06282 0.61019
 C357 C 1.05112 1.11231 0.60029
 O358 O 1.13443 0.94324 0.43862
 O359 O 1.06505 0.97073 0.38924
 C360 C 1.11439 0.94862 0.39903
 Zr361 Zr 1.09439 0.95805 0.49955
 O362 O 1.17820 0.99208 0.50423
 O363 O 1.12756 0.87398 0.49478
 Zr364 Zr 1.04210 1.09177 0.49993
 O365 O 1.12665 1.12384 0.50471
 O366 O 1.00916 1.17598 0.49525
 Zr367 Zr 1.00124 0.99878 0.43353
 Zr368 Zr 1.00134 0.99882 0.56604
 O369 O 1.07829 1.02858 0.53834
 O370 O 1.07888 1.02904 0.46013
 O371 O 1.03164 0.92122 0.53938
 O372 O 0.97146 1.07568 0.46128
 O373 O 1.03111 0.92183 0.46121
 O374 O 0.97105 1.07635 0.53934
 H375 H 0.89257 0.95714 0.55795
 H376 H 0.95959 1.10747 0.44165
 H377 H 1.11001 1.04037 0.55807
 H378 H 1.04281 0.89007 0.44150
 H379 H 0.89152 1.14617 0.51979
 H380 H 0.98196 1.18155 0.51992
 H381 H 1.14881 1.10819 0.47962
 H382 H 1.18436 1.01746 0.47851
 H383 H 1.11006 0.85099 0.51866
 H384 H 1.01949 0.81545 0.52156
 H385 H 0.85359 0.88963 0.48109
 H386 H 0.81822 0.97988 0.47915
 O387 O 0.63498 0.44407 0.06095
 O388 O 0.56482 0.46951 0.11031
 C389 C 0.61458 0.44840 0.10051
 O390 O 0.55543 0.63252 -0.06129
 O391 O 0.53062 0.56214 -0.11064
 C392 C 0.55130 0.61210 -0.10082
 O393 O 0.56098 0.63033 0.06005
 O394 O 0.53304 0.56148 0.10978
 C395 C 0.55600 0.61023 0.09960
 O396 O 0.63246 0.43855 -0.06058
 O397 O 0.56360 0.46687 -0.11018
 C398 C 0.61221 0.44353 -0.10010
 Zr399 Zr 0.59495 0.45934 0.00003
 O400 O 0.67791 0.49548 -0.00469
 O401 O 0.63036 0.37620 0.00463
 Zr402 Zr 0.54084 0.59231 -0.00043
 O403 O 0.62443 0.62670 -0.00520
 O404 O 0.50564 0.67565 0.00418
 O405 O 0.57860 0.53010 0.03943
 O406 O 0.57787 0.52946 -0.03876
 O407 O 0.44633 0.36525 -0.06119
 O408 O 0.47160 0.43548 -0.11054
 C409 C 0.45040 0.38577 -0.10073
 O410 O 0.36771 0.55309 0.06107
 O411 O 0.43817 0.52829 0.11035
 C412 C 0.38828 0.54907 0.10058
 O413 O 0.36984 0.55843 -0.06040
 O414 O 0.43879 0.53054 -0.11007
 C415 C 0.39011 0.55364 -0.09992
 O416 O 0.44124 0.36772 0.06049
 O417 O 0.46960 0.43670 0.10997
 C418 C 0.44616 0.38816 0.09997
 Zr419 Zr 0.46196 0.40513 -0.00024
 O420 O 0.37892 0.36940 -0.00468
 O421 O 0.49834 0.32228 0.00437
 Zr422 Zr 0.40775 0.53818 0.00014
 O423 O 0.32455 0.50260 -0.00440
 O424 O 0.37290 0.62158 0.00480
 Zr425 Zr 0.50143 0.49886 0.06619
 Zr426 Zr 0.50126 0.49874 -0.06646
 O427 O 0.42476 0.46798 -0.03852
 O428 O 0.42425 0.46750 0.03953
 O429 O 0.53259 0.42157 -0.03973
 O430 O 0.47064 0.57535 0.03833
 O431 O 0.53214 0.42226 0.03843
 O432 O 0.47001 0.57590 -0.03973
 H433 H 0.60970 0.54133 -0.05837
 H434 H 0.45869 0.60729 0.05777
 H435 H 0.39272 0.45611 -0.05790
 H436 H 0.54398 0.39037 0.05797
 H437 H 0.48081 0.68175 -0.02187
 H438 H 0.39091 0.64518 -0.01848
 H439 H 0.31814 0.47864 0.02209
 H440 H 0.35470 0.38886 0.01750
 H441 H 0.52085 0.31532 -0.02280
 H442 H 0.61093 0.35202 -0.01758
 H443 H 0.68461 0.51872 0.02214
 H444 H 0.64786 0.60897 0.01831
 N445 N 0.28250 1.19271 0.12476
 C446 C 0.28066 1.17167 0.16666
 N447 N 0.29595 1.11625 0.17311
 N448 N 0.31530 1.08439 0.13969
 C449 C 0.31946 1.10598 0.09808
 N450 N 0.30246 1.16095 0.09141
 N451 N 0.79586 0.61609 0.67325
 C452 C 0.78062 0.67154 0.66682
 N453 N 0.78259 0.69262 0.62494
 N454 N 0.80256 0.66088 0.59159
 C455 C 0.81949 0.60588 0.59823
 N456 N 0.81525 0.58425 0.63983
 N457 N 0.71726 0.81203 0.12586
 C458 C 0.71763 0.83091 0.16837
 N459 N 0.70122 0.88571 0.17626
 N460 N 0.68217 0.91900 0.14361
 C461 C 0.67961 0.89962 0.10131
 N462 N 0.69776 0.84530 0.09322
 N463 N 1.20149 0.38590 0.67629
 C464 C 1.21773 0.33102 0.66848
 N465 N 1.21705 0.31195 0.62602
 N466 N 1.19750 0.34514 0.59336
 C467 C 1.17956 0.39955 0.60135
 N468 N 1.18237 0.41910 0.64360
 N469 N 0.66890 1.21948 -0.13673
 C470 C 0.71218 1.19594 -0.16018
 N471 N 0.73146 1.14307 -0.14844
 N472 N 0.70668 1.11378 -0.11573
 C473 C 0.66185 1.13664 -0.09343
 N474 N 0.64422 1.19031 -0.10417
 N475 N 1.16824 0.71987 0.36326
 C476 C 1.21180 0.69657 0.33999
 N477 N 1.23142 0.64388 0.35191
 N478 N 1.20671 0.61449 0.38459
 C479 C 1.16159 0.63707 0.40670
 N480 N 1.14363 0.69059 0.39581
 N481 N 0.26973 0.85560 -0.14567
 C482 C 0.28931 0.80299 -0.15772
 N483 N 0.33200 0.77894 -0.13393
 N484 N 0.35604 0.80754 -0.10079
 C485 C 0.33824 0.86106 -0.08979
 N486 N 0.29387 0.88429 -0.11240
 N487 N 0.83266 0.27848 0.36604
 C488 C 0.78967 0.30227 0.34243
 N489 N 0.76973 0.35468 0.35465
 N490 N 0.79381 0.38348 0.38789
 C491 C 0.83849 0.36056 0.41031
 N492 N 0.85663 0.30718 0.39917
 N493 N 1.21838 0.33290 0.13522
 C494 C 1.19531 0.28938 0.15866
 N495 N 1.14253 0.26966 0.14710
 N496 N 1.11279 0.29434 0.11463
 C497 C 1.13510 0.33947 0.09240
 N498 N 1.18874 0.35747 0.10287
 N499 N 0.64307 0.76950 0.64698
 C500 C 0.69572 0.78954 0.65858
 N501 N 0.71836 0.83345 0.63532
 N502 N 0.68843 0.85801 0.60313
 C503 C 0.63490 0.83966 0.59263
 N504 N 0.61302 0.79417 0.61467
 N505 N 1.11547 0.70486 -0.17319
 C506 C 1.17123 0.71870 -0.16643
 N507 N 1.19178 0.71636 -0.12442
 N508 N 1.15914 0.69726 -0.09127
 C509 C 1.10381 0.68161 -0.09824
 N510 N 1.08278 0.68628 -0.13998
 N511 N 0.61544 1.20534 0.32714
 C512 C 0.67134 1.21883 0.33362
 N513 N 0.69231 1.21609 0.37549
 N514 N 0.65992 1.19695 0.40876
 C515 C 0.60444 1.18166 0.40208
 N516 N 0.58300 1.18672 0.36049
 N517 N 0.77700 0.66915 0.13500
 C518 C 0.80166 0.71165 0.15866
 N519 N 0.85411 0.73106 0.14604
 N520 N 0.88203 0.70698 0.11233
 C521 C 0.85819 0.66283 0.08981
 N522 N 0.80483 0.64517 0.10144
 N523 N 0.35388 1.23123 0.64618
 C524 C 0.30139 1.21166 0.65861
 N525 N 0.27704 1.16908 0.63488
 N526 N 0.30520 1.14517 0.60144
 C527 C 0.35860 1.16298 0.59002
 N528 N 0.38214 1.20723 0.61261
 N529 N 0.88523 0.30057 -0.17749
 C530 C 0.83123 0.28179 -0.16944
 N531 N 0.81269 0.28090 -0.12682
 N532 N 0.84544 0.30132 -0.09418
 C533 C 0.89892 0.32174 -0.10243
 N534 N 0.91800 0.32052 -0.14485
 N535 N 0.38555 0.79917 0.32321
 C536 C 0.33110 0.78144 0.33085
 N537 N 0.31180 0.78150 0.37327
 N538 N 0.34429 0.80183 0.40607
 C539 C 0.39826 0.82119 0.39824
 N540 N 0.41808 0.81903 0.35604
 N541 N 1.14072 1.14236 0.30285
 C542 C 1.15996 1.19558 0.31285
 N543 N 1.13867 1.22295 0.34857
 N544 N 1.10161 1.19665 0.37484
 C545 C 1.08374 1.14273 0.36563
 N546 N 1.10340 1.11613 0.32897
 N547 N 0.63673 0.72429 -0.15156
 C548 C 0.65863 0.69647 -0.18693
 N549 N 0.63865 0.64351 -0.19700
 N550 N 0.60015 0.61803 -0.17136
 C551 C 0.57974 0.64506 -0.13507
 N552 N 0.59847 0.69871 -0.12575
 N553 N 0.85990 1.14229 0.69487
 C554 C 0.80593 1.15997 0.68560
 N555 N 0.77751 1.13615 0.65134
 N556 N 0.80351 1.09833 0.62554
 C557 C 0.85812 1.08202 0.63398
 N558 N 0.88579 1.10413 0.66930
 N559 N 0.35881 0.63982 0.19503
 C560 C 0.30515 0.65842 0.18566
 N561 N 0.27632 0.63428 0.15167
 N562 N 0.30157 0.59536 0.12627
 C563 C 0.35589 0.57803 0.13482
 N564 N 0.38393 0.60058 0.16988
 N565 N 1.22396 0.85945 0.65139
 C566 C 1.19633 0.83884 0.68724
 N567 N 1.14332 0.85880 0.69709
 N568 N 1.11761 0.89621 0.67073
 C569 C 1.14451 0.91523 0.63398
 N570 N 1.19818 0.89657 0.62487
 N571 N 0.72547 0.36178 0.15178
 C572 C 0.69732 0.34054 0.18724
 N573 N 0.64460 0.36126 0.19714
 N574 N 0.61970 0.39986 0.17125
 C575 C 0.64707 0.41962 0.13487
 N576 N 0.70048 0.40012 0.12571
 N577 N 0.85731 0.85862 0.30435
 C578 C 0.83886 0.80490 0.31359
 N579 N 0.86194 0.77631 0.34807
 N580 N 0.89984 0.80186 0.37408
 C581 C 0.91697 0.85620 0.36564
 N582 N 0.89555 0.88407 0.33013
 N583 N 0.36348 0.27503 -0.15185
 C584 C 0.34028 0.30397 -0.18618
 N585 N 0.35988 0.35725 -0.19563
 N586 N 0.39924 0.38189 -0.17030
 C587 C 0.42093 0.35372 -0.13496
 N588 N 0.40253 0.29980 -0.12627
 N589 N 1.21842 0.33325 -0.13570
 C590 C 1.19571 0.28916 -0.15870
 N591 N 1.14307 0.26924 -0.14693
 N592 N 1.11313 0.29418 -0.11468
 C593 C 1.13510 0.33985 -0.09290
 N594 N 1.18860 0.35808 -0.10358
 N595 N 0.64269 0.76952 0.35281
 C596 C 0.69549 0.78909 0.34116
 N597 N 0.71866 0.83267 0.36447
 N598 N 0.68912 0.85740 0.39680
 C599 C 0.63547 0.83953 0.40738
 N600 N 0.61304 0.79436 0.38527
 N601 N 0.77751 0.66919 -0.13532
 C602 C 0.80180 0.71193 -0.15893
 N603 N 0.85427 0.73150 -0.14647
 N604 N 0.88255 0.70736 -0.11297
 C605 C 0.85907 0.66297 -0.09051
 N606 N 0.80570 0.64514 -0.10196
 N607 N 0.27734 1.16905 0.36449
 C608 C 0.30191 1.21167 0.34092
 N609 N 0.35438 1.23106 0.35351
 N610 N 0.38236 1.20687 0.38714
 C611 C 0.35858 1.16261 0.40959
 N612 N 0.30523 1.14494 0.39797
 N613 N 1.11554 0.70549 0.17250
 C614 C 1.17153 0.71874 0.16613
 N615 N 1.19270 0.71566 0.12433
 N616 N 1.16042 0.69644 0.09104
 C617 C 1.10484 0.68141 0.09762
 N618 N 1.08319 0.68681 0.13913
 N619 N 0.69212 1.21568 0.62422
 C620 C 0.67135 1.21833 0.66616
 N621 N 0.61547 1.20480 0.67279
 N622 N 0.58287 1.18626 0.63952
 C623 C 0.60411 1.18130 0.59786
 N624 N 0.65958 1.19660 0.59103
 N625 N 0.88556 0.29972 0.17687
 C626 C 0.83133 0.28144 0.16911
 N627 N 0.81227 0.28109 0.12664
 N628 N 0.84477 0.30154 0.09387
 C629 C 0.89850 0.32145 0.10181
 N630 N 0.91810 0.31970 0.14408
 N631 N 0.31246 0.78083 0.62652
 C632 C 0.33118 0.78176 0.66908
 N633 N 0.38524 0.80049 0.67695
 N634 N 0.41789 0.82036 0.64420
 C635 C 0.39862 0.82153 0.60183
 N636 N 0.34508 0.80116 0.59377
 N637 N 0.29644 1.11546 -0.17406
 C638 C 0.28042 1.17061 -0.16727
 N639 N 0.28173 1.19116 -0.12522
 N640 N 0.30175 1.15918 -0.09201
 C641 C 0.31945 1.10449 -0.09900
 N642 N 0.31592 1.08341 -0.14080
 N643 N 0.78188 0.69140 0.37486
 C644 C 0.78070 0.67092 0.33279
 N645 N 0.79668 0.61576 0.32599
 N646 N 0.81604 0.58365 0.35926
 C647 C 0.81948 0.60467 0.40108
 N648 N 0.80180 0.65937 0.40808
 N649 N 0.66844 1.21998 0.13658
 C650 C 0.71198 1.19661 0.15982
 N651 N 0.73157 1.14393 0.14785
 N652 N 0.70682 1.11463 0.11515
 C653 C 0.66171 1.13728 0.09307
 N654 N 0.64379 1.19079 0.10402
 N655 N 1.23147 0.64311 0.64827
 C656 C 1.21221 0.69599 0.66001
 N657 N 1.16899 0.71958 0.63654
 N658 N 1.14431 0.69045 0.60396
 C659 C 1.16192 0.63677 0.59322
 N660 N 1.20670 0.61387 0.61555
 N661 N 0.71713 0.81219 -0.12615
 C662 C 0.71789 0.83132 -0.16859
 N663 N 0.70164 0.88620 -0.17639
 N664 N 0.68243 0.91935 -0.14370
 C665 C 0.67956 0.89977 -0.10146
 N666 N 0.69751 0.84535 -0.09348
 N667 N 1.20127 0.38581 0.32361
 C668 C 1.21759 0.33096 0.33146
 N669 N 1.21706 0.31199 0.37395
 N670 N 1.19753 0.34524 0.40660
 C671 C 1.17950 0.39962 0.39855
 N672 N 1.18218 0.41906 0.35627
 N673 N 0.26998 0.85415 0.14476
 C674 C 0.28995 0.80190 0.15734
 N675 N 0.33298 0.77789 0.13388
 N676 N 0.35697 0.80624 0.10058
 C677 C 0.33879 0.85947 0.08907
 N678 N 0.29406 0.88260 0.11134
 N679 N 0.83225 0.27814 0.63372
 C680 C 0.78948 0.30234 0.65734
 N681 N 0.76982 0.35478 0.64496
 N682 N 0.79396 0.38318 0.61153
 C683 C 0.83844 0.35983 0.58910
 N684 N 0.85630 0.30644 0.60043
 N685 N 1.13679 1.22415 0.65111
 C686 C 1.15812 1.19639 0.68670
 N687 N 1.13756 1.14369 0.69691
 N688 N 1.09907 1.11837 0.67117
 C689 C 1.07926 1.14531 0.63464
 N690 N 1.09854 1.19874 0.62521
 N691 N 0.63901 0.72304 0.15083
 C692 C 0.65974 0.69573 0.18677
 N693 N 0.64002 0.64271 0.19685
 N694 N 0.60276 0.61662 0.17062
 C695 C 0.58365 0.64315 0.13375
 N696 N 0.60200 0.69688 0.12444
 N697 N 1.14434 0.86128 0.30254
 C698 C 1.19714 0.84072 0.31241
 N699 N 1.22538 0.86231 0.34769
 N700 N 1.20039 0.90076 0.37365
 C701 C 1.14690 0.92007 0.36456
 N702 N 1.11944 0.90000 0.32832
 N703 N 0.64335 0.35881 -0.19739
 C704 C 0.69635 0.33883 -0.18756
 N705 N 0.72402 0.35945 -0.15173
 N706 N 0.69829 0.39665 -0.12524
 C707 C 0.64464 0.41534 -0.13433
 N708 N 0.61769 0.39628 -0.17105
 N709 N 0.77627 1.13453 0.34843
 C710 C 0.80505 1.15837 0.31428
 N711 N 0.85848 1.13927 0.30467
 N712 N 0.88346 1.09986 0.32975
 C713 C 0.85550 1.07761 0.36497
 N714 N 0.80139 1.09545 0.37375
 N715 N 0.35969 0.64228 -0.19498
 C716 C 0.30587 0.66032 -0.18559
 N717 N 0.27746 0.63678 -0.15120
 N718 N 0.30331 0.59883 -0.12541
 C719 C 0.35777 0.58210 -0.13400
 N720 N 0.38543 0.60400 -0.16942
 N721 N 0.86453 0.77531 0.65220
 C722 C 0.84057 0.80463 0.68602
 N723 N 0.85974 0.85815 0.69519
 N724 N 0.89935 0.88264 0.66997
 C725 C 0.92173 0.85408 0.63507
 N726 N 0.90378 0.79993 0.62672
 N727 N 0.36284 0.27634 0.15218
 C728 C 0.33882 0.30536 0.18607
 N729 N 0.35659 0.35942 0.19487
 N730 N 0.39505 0.38473 0.16919
 C731 C 0.41738 0.35640 0.13423
 N732 N 0.40092 0.30175 0.12624
   
