data_POSCAR
  _audit_creation_date              2014-09-24
  _audit_creation_method            'ToBaCCo'
  _symmetry_space_group_name_H-M    'P1'
  _symmetry_Int_Tables_number       1
  _symmetry_cell_setting            triclinic
  loop_
  _symmetry_equiv_pos_as_xyz
 x,y,z
_cell_length_a 49.9082
_cell_length_b 50.9265
_cell_length_c 48.6705
_cell_angle_alpha 88.553700
_cell_angle_beta 89.694200
_cell_angle_gamma 91.496600
loop_
  _atom_site_label
  _atom_site_type_symbol
  _atom_site_fract_x
  _atom_site_fract_y
  _atom_site_fract_z
C1 C 0.18421 0.21473 0.21875
 C2 C 0.18478 0.23260 0.19631
 C3 C 0.20302 0.22979 0.17516
 C4 C 0.22104 0.20906 0.17620
 C5 C 0.22042 0.19156 0.19825
 C6 C 0.20179 0.19432 0.21958
 C7 C 0.16776 0.21175 0.24150
 N8 N 0.17471 0.18975 0.25617
 C9 C 0.19574 0.17919 0.24264
 C10 C 0.23931 0.17308 0.19348
 N11 N 0.25180 0.17871 0.16889
 C12 C 0.24041 0.20089 0.15830
 C13 C 0.19795 0.24893 0.15552
 N14 N 0.17703 0.26329 0.16418
 C15 C 0.16899 0.25340 0.18921
 H16 H 0.15117 0.22421 0.24600
 H17 H 0.20629 0.16176 0.24882
 H18 H 0.24301 0.15660 0.20719
 H19 H 0.24542 0.21072 0.13896
 H20 H 0.20809 0.25146 0.13589
 H21 H 0.15263 0.26054 0.20138
 C22 C -0.18075 0.78464 0.23045
 C23 C -0.18290 0.76519 0.21054
 C24 C -0.20092 0.76794 0.18918
 C25 C -0.21684 0.79022 0.18729
 C26 C -0.21451 0.80933 0.20670
 C27 C -0.19638 0.80652 0.22841
 C28 C -0.16461 0.78772 0.25312
 N29 N -0.16990 0.81113 0.26492
 C30 C -0.18948 0.82257 0.24962
 C31 C -0.23149 0.82904 0.19925
 N32 N -0.24438 0.82258 0.17557
 C33 C -0.23530 0.79861 0.16830
 C34 C -0.19805 0.74680 0.17247
 N35 N -0.17863 0.73133 0.18298
 C36 C -0.16927 0.74245 0.20630
 H37 H -0.14953 0.77410 0.25967
 H38 H -0.19867 0.84110 0.25348
 H39 H -0.23406 0.84665 0.21079
 H40 H -0.24087 0.78797 0.15018
 H41 H -0.20863 0.74349 0.15346
 H42 H -0.15350 0.73475 0.21911
 C43 C -0.18882 0.22120 -0.24968
 C44 C -0.19232 0.24199 -0.23172
 C45 C -0.21414 0.24163 -0.21406
 C46 C -0.23263 0.22042 -0.21398
 C47 C -0.22925 0.20009 -0.23174
 C48 C -0.20713 0.20048 -0.24967
 C49 C -0.16856 0.21533 -0.26763
 N50 N -0.17391 0.19134 -0.27865
 C51 C -0.19775 0.18236 -0.26755
 C52 C -0.24897 0.18142 -0.22578
 N53 N -0.26430 0.18964 -0.20449
 C54 C -0.25424 0.21372 -0.19739
 C55 C -0.21148 0.26321 -0.19775
 N56 N -0.18852 0.27664 -0.20498
 C57 C -0.17669 0.26376 -0.22576
 H58 H -0.15084 0.22758 -0.27127
 H59 H -0.20780 0.16380 -0.27141
 H60 H -0.25068 0.16256 -0.23542
 H61 H -0.26163 0.22576 -0.18118
 H62 H -0.22468 0.26809 -0.18102
 H63 H -0.15784 0.26950 -0.23555
 C64 C 0.21272 0.77555 -0.24142
 C65 C 0.21329 0.75677 -0.21986
 C66 C 0.23219 0.75904 -0.19931
 C67 C 0.25080 0.78022 -0.20007
 C68 C 0.25012 0.79870 -0.22120
 C69 C 0.23086 0.79644 -0.24193
 C70 C 0.19541 0.77937 -0.26299
 N71 N 0.20230 0.80238 -0.27655
 C72 C 0.22418 0.81276 -0.26360
 C73 C 0.26914 0.81782 -0.21578
 N74 N 0.28167 0.81165 -0.19166
 C75 C 0.27028 0.78844 -0.18209
 C76 C 0.22663 0.73931 -0.18007
 N77 N 0.20473 0.72523 -0.18837
 C78 C 0.19656 0.73578 -0.21277
 H79 H 0.17812 0.76690 -0.26719
 H80 H 0.23473 0.83094 -0.26918
 H81 H 0.27269 0.83523 -0.22854
 H82 H 0.27503 0.77812 -0.16316
 H83 H 0.23698 0.73627 -0.16081
 H84 H 0.17934 0.72907 -0.22433
 C85 C 0.20078 1.17690 0.79868
 C86 C 0.22068 1.17934 0.81880
 C87 C 0.21909 1.19868 0.83812
 C88 C 0.19766 1.21598 0.83750
 C89 C 0.17833 1.21370 0.81755
 C90 C 0.17987 1.19403 0.79805
 C91 C 0.19641 1.15929 0.77808
 N92 N 0.17324 1.16528 0.76472
 C93 C 0.16323 1.18676 0.77704
 C94 C 0.15989 1.23267 0.82201
 N95 N 0.16734 1.24674 0.84436
 C96 C 0.19062 1.23636 0.85387
 C97 C 0.24054 1.19589 0.85549
 N98 N 0.25528 1.17538 0.84718
 C99 C 0.24314 1.16522 0.82465
 H100 H 0.20953 1.14345 0.77338
 H101 H 0.14459 1.19611 0.77216
 H102 H 0.14204 1.23523 0.80988
 H103 H 0.20215 1.24304 0.87120
 H104 H 0.24459 1.20765 0.87327
 H105 H 0.25007 1.14883 0.81310
 C106 C 0.76779 0.80622 0.75992
 C107 C 0.75072 0.80668 0.78294
 C108 C 0.75417 0.78909 0.80467
 C109 C 0.77465 0.77079 0.80373
 C110 C 0.79123 0.77028 0.78108
 C111 C 0.78771 0.78802 0.75899
 C112 C 0.77085 0.82236 0.73689
 N113 N 0.79225 0.81442 0.72186
 C114 C 0.80240 0.79317 0.73549
 C115 C 0.81027 0.75190 0.78646
 N116 N 0.80591 0.74097 0.81207
 C117 C 0.78386 0.75264 0.82258
 C118 C 0.73606 0.79504 0.82481
 N119 N 0.72154 0.81580 0.81592
 C120 C 0.73047 0.82302 0.79027
 H121 H 0.75843 0.83890 0.73204
 H122 H 0.82030 0.78295 0.73004
 H123 H 0.82626 0.74746 0.77243
 H124 H 0.77528 0.74919 0.84281
 H125 H 0.73438 0.78548 0.84487
 H126 H 0.72300 0.83907 0.77778
 C127 C 0.22493 0.79625 1.24190
 C128 C 0.24736 0.79315 1.22497
 C129 C 0.24799 0.77267 1.20686
 C130 C 0.22603 0.75495 1.20552
 C131 C 0.20398 0.75802 1.22236
 C132 C 0.20346 0.77882 1.24065
 C133 C 0.21793 0.81572 1.25938
 N134 N 0.19251 0.81071 1.26902
 C135 C 0.18373 0.78789 1.25749
 C136 C 0.18480 0.73975 1.21501
 N137 N 0.19452 0.72555 1.19405
 C138 C 0.21981 0.73475 1.18816
 C139 C 0.27092 0.77625 1.19114
 N140 N 0.28405 0.79846 1.19924
 C141 C 0.26977 0.80878 1.22003
 H142 H 0.23073 0.83239 1.26417
 H143 H 0.16397 0.77888 1.25976
 H144 H 0.16468 0.73799 1.22335
 H145 H 0.23257 0.72780 1.17200
 H146 H 0.27676 0.76445 1.17403
 H147 H 0.27482 0.82686 1.23026
 C148 C 0.77940 1.20925 1.24212
 C149 C 0.75890 1.21170 1.22276
 C150 C 0.75730 1.23426 1.20652
 C151 C 0.77632 1.25478 1.20957
 C152 C 0.79647 1.25235 1.22880
 C153 C 0.79806 1.22934 1.24511
 C154 C 0.78712 1.18856 1.25862
 N155 N 0.81035 1.19530 1.27172
 C156 C 0.81693 1.22051 1.26341
 C157 C 0.81320 1.27412 1.22573
 N158 N 0.80391 1.28973 1.20496
 C159 C 0.78126 1.27795 1.19505
 C160 C 0.73667 1.23020 1.18823
 N161 N 0.72588 1.20569 1.19300
 C162 C 0.73939 1.19434 1.21415
 H163 H 0.77686 1.16963 1.25958
 H164 H 0.83444 1.23183 1.26939
 H165 H 0.83118 1.27785 1.23746
 H166 H 0.76990 1.28491 1.17757
 H167 H 0.73072 1.24367 1.17196
 H168 H 0.73560 1.17469 1.22249
 O169 O 0.52072 0.97451 0.96457
 O170 O 0.48208 0.97603 1.06342
 O171 O 0.56136 0.99922 1.03203
 O172 O 0.47333 0.96653 0.97937
 O173 O 0.53208 0.97756 1.05805
 O174 O 0.47752 0.99428 0.94777
 O175 O 0.47119 0.95810 1.02580
 O176 O 0.55674 0.98872 0.98340
 C177 C 0.54486 0.97170 0.96949
 C178 C 0.47294 0.95670 1.05106
 C179 C 0.55562 0.98100 1.04941
 C180 C 0.46756 0.97288 0.95550
 O181 O 0.48933 1.03767 0.96922
 O182 O 0.53156 1.02875 1.05988
 O183 O 0.53809 1.03809 0.97320
 O184 O 0.45078 1.00622 1.03544
 O185 O 0.48105 1.02680 1.05987
 O186 O 0.52363 1.01775 0.93773
 O187 O 0.45398 1.01698 0.98629
 O188 O 0.54088 1.04711 1.02068
 Co189 Co 0.50587 1.00624 0.96847
 Co190 Co 0.50660 1.00228 1.05551
 Co191 Co 0.54555 1.01682 1.00287
 Co192 Co 0.46555 0.98825 1.00676
 O193 O 0.50496 1.00246 1.01031
 C194 C 0.46475 1.03736 0.97489
 C195 C 0.54027 1.04820 1.04608
 C196 C 0.54112 1.03396 0.94785
 C197 C 0.45720 1.02376 1.05237
 O198 O 0.03151 0.48613 0.03002
 O199 O 0.02189 0.52810 -0.05709
 O200 O -0.00302 0.44916 -0.02935
 O201 O 0.00917 0.57016 0.01521
 O202 O 0.01824 0.47800 -0.05688
 O203 O 0.02771 0.53439 0.03124
 O204 O 0.03261 0.54131 -0.01672
 O205 O 0.00480 0.45336 0.01947
 C206 C 0.02764 0.46199 0.02682
 C207 C 0.03820 0.53947 -0.04155
 C208 C 0.01472 0.45483 -0.04758
 C209 C 0.02461 0.55904 0.03365
 O210 O -0.02446 0.52740 0.04616
 O211 O -0.03287 0.48046 -0.06074
 O212 O -0.04633 0.47548 0.02337
 O213 O -0.01202 0.55974 -0.03466
 O214 O -0.03166 0.52896 -0.05724
 O215 O -0.01609 0.47976 0.05227
 O216 O -0.03579 0.54695 0.00871
 O217 O -0.05287 0.46786 -0.02338
 Co218 Co 0.00328 0.50679 0.03542
 Co219 Co -0.00612 0.50418 -0.05328
 Co220 Co -0.02306 0.46475 -0.00238
 Co221 Co -0.00202 0.54191 -0.00356
 O222 O -0.00811 0.50305 -0.00820
 C223 C -0.04052 0.54170 0.03332
 C224 C -0.05245 0.46945 -0.04880
 C225 C -0.03978 0.47398 0.04754
 C226 C -0.02907 0.55272 -0.05194
 O227 O 1.05486 0.02431 0.47563
 O228 O 0.96945 0.03388 0.51615
 O229 O 0.98531 0.00974 0.43014
 O230 O 1.02758 0.00276 0.55835
 O231 O 0.96866 0.02808 0.46630
 O232 O 1.05545 0.02139 0.52779
 O233 O 0.97968 0.00995 0.55223
 O234 O 1.01547 0.03434 0.46151
 C235 C 1.03972 0.04014 0.46359
 C236 C 0.97219 0.03155 0.54167
 C237 C 0.96687 0.02446 0.44056
 C238 C 1.04657 0.01898 0.55206
 O239 O 1.05779 -0.02896 0.52613
 O240 O 0.95483 -0.02352 0.47534
 O241 O 1.03365 -0.00893 0.44280
 O242 O 0.97564 -0.04150 0.53213
 O243 O 0.94773 -0.01269 0.52453
 O244 O 1.05358 -0.02872 0.47584
 O245 O 1.02108 -0.04687 0.54182
 O246 O 0.99182 -0.03342 0.45601
 Co247 Co 1.05089 -0.00300 0.50093
 Co248 Co 0.96463 0.00508 0.49588
 Co249 Co 1.00318 0.00009 0.46078
 Co250 Co 1.00094 -0.01771 0.54253
 O251 O 1.00709 -0.00491 0.50169
 C252 C 1.04576 -0.04722 0.53904
 C253 C 0.96794 -0.03907 0.46115
 C254 C 1.04958 -0.02597 0.45076
 C255 C 0.95211 -0.03539 0.53236
 C256 C 1.13582 0.15781 0.32718
 C257 C 1.13097 0.18362 0.31804
 C258 C 1.14388 0.19432 0.29456
 C259 C 1.16228 0.17955 0.27953
 C260 C 1.16721 0.15373 0.28914
 C261 C 1.15408 0.14306 0.31237
 C262 C 1.12149 0.14584 0.35153
 C263 C 1.13447 0.12795 0.36907
 C264 C 1.12042 0.11452 0.39019
 C265 C 1.09304 0.11888 0.39470
 C266 C 1.08037 0.13779 0.37805
 C267 C 1.09439 0.15101 0.35665
 C268 C 1.07754 0.10220 0.41515
 C269 C 1.05112 0.09369 0.40951
 C270 C 1.03802 0.07484 0.42651
 C271 C 1.05120 0.06378 0.44926
 C272 C 1.07691 0.07337 0.45591
 C273 C 1.08983 0.09256 0.43922
 H274 H 1.11734 0.19572 0.32920
 H275 H 1.13968 0.21439 0.28874
 H276 H 1.18044 0.14105 0.27835
 H277 H 1.15781 0.12286 0.31831
 H278 H 1.15546 0.12388 0.36615
 H279 H 1.13088 0.09992 0.40224
 H280 H 1.05945 0.14202 0.38118
 H281 H 1.08369 0.16457 0.34351
 H282 H 1.04105 0.10036 0.39108
 H283 H 1.01823 0.06769 0.42079
 H284 H 1.08741 0.06535 0.47352
 H285 H 1.10983 0.09919 0.44469
 C286 C 0.86815 -0.15639 0.33408
 C287 C 0.85182 -0.14109 0.31702
 C288 C 0.83908 -0.15187 0.29431
 C289 C 0.84242 -0.17842 0.28757
 C290 C 0.85897 -0.19370 0.30481
 C291 C 0.87153 -0.18286 0.32773
 C292 C 0.88217 -0.14430 0.35780
 C293 C 0.90857 -0.15095 0.36447
 C294 C 0.92258 -0.13761 0.38493
 C295 C 0.91063 -0.11714 0.39908
 C296 C 0.88383 -0.11134 0.39323
 C297 C 0.86976 -0.12484 0.37301
 C298 C 0.92658 -0.10031 0.41798
 C299 C 0.91450 -0.08888 0.44085
 C300 C 0.92839 -0.06990 0.45592
 C301 C 0.95476 -0.06218 0.44866
 C302 C 0.96746 -0.07488 0.42706
 C303 C 0.95350 -0.09359 0.41181
 H304 H 0.84932 -0.12043 0.32077
 H305 H 0.82738 -0.13879 0.28172
 H306 H 0.86195 -0.21426 0.30120
 H307 H 0.88370 -0.19534 0.34065
 H308 H 0.91882 -0.16575 0.35315
 H309 H 0.94302 -0.14296 0.38921
 H310 H 0.87398 -0.09556 0.40341
 H311 H 0.84926 -0.11959 0.36887
 H312 H 0.89402 -0.09403 0.44663
 H313 H 0.91820 -0.06062 0.47266
 H314 H 0.98775 -0.06929 0.42089
 H315 H 0.96343 -0.10164 0.39421
 C316 C 0.87611 0.15019 0.66797
 C317 C 0.85216 0.13862 0.67815
 C318 C 0.83544 0.15231 0.69549
 C319 C 0.84214 0.17818 0.70343
 C320 C 0.86612 0.18984 0.69255
 C321 C 0.88277 0.17604 0.67510
 C322 C 0.89405 0.13508 0.65017
 C323 C 0.90627 0.14681 0.62666
 C324 C 0.92203 0.13199 0.60927
 C325 C 0.92601 0.10519 0.61514
 C326 C 0.91427 0.09370 0.63901
 C327 C 0.89852 0.10846 0.65630
 C328 C 0.94101 0.08872 0.59587
 C329 C 0.95764 0.06886 0.60596
 C330 C 0.96883 0.05103 0.58814
 C331 C 0.96372 0.05272 0.55980
 C332 C 0.94846 0.07353 0.54946
 C333 C 0.93717 0.09132 0.56734
 H334 H 0.84620 0.11886 0.67258
 H335 H 0.81749 0.14203 0.70270
 H336 H 0.87241 0.20963 0.69727
 H337 H 0.90118 0.18547 0.66758
 H338 H 0.90308 0.16726 0.62134
 H339 H 0.93096 0.14144 0.59114
 H340 H 0.91661 0.07304 0.64395
 H341 H 0.88969 0.09896 0.67446
 H342 H 0.96145 0.06670 0.62777
 H343 H 0.98082 0.03542 0.59667
 H344 H 0.94418 0.07534 0.52772
 H345 H 0.92432 0.10629 0.55893
 C346 C 1.15933 -0.16226 0.65856
 C347 C 1.15561 -0.18914 0.66512
 C348 C 1.16997 -0.20096 0.68650
 C349 C 1.18883 -0.18632 0.70181
 C350 C 1.19296 -0.15950 0.69454
 C351 C 1.17828 -0.14768 0.67350
 C352 C 1.14292 -0.14913 0.63698
 C353 C 1.15376 -0.12806 0.62092
 C354 C 1.13771 -0.11406 0.60261
 C355 C 1.11046 -0.12101 0.59943
 C356 C 1.09994 -0.14289 0.61450
 C357 C 1.11589 -0.15664 0.63318
 C358 C 1.09284 -0.10445 0.58189
 C359 C 1.06615 -0.10025 0.58981
 C360 C 1.05041 -0.08263 0.57500
 C361 C 1.06112 -0.06843 0.55223
 C362 C 1.08739 -0.07325 0.54363
 C363 C 1.10299 -0.09125 0.55812
 H364 H 1.14166 -0.20117 0.65365
 H365 H 1.16649 -0.22174 0.69047
 H366 H 1.20661 -0.14702 0.70576
 H367 H 1.18128 -0.12679 0.66957
 H368 H 1.17461 -0.12205 0.62279
 H369 H 1.14655 -0.09718 0.59168
 H370 H 1.07920 -0.14919 0.61224
 H371 H 1.10672 -0.17261 0.64529
 H372 H 1.05769 -0.10965 0.60818
 H373 H 1.03027 -0.07917 0.58221
 H374 H 1.09604 -0.06276 0.52594
 H375 H 1.12318 -0.09444 0.55095
 C376 C 0.31327 1.13527 1.13287
 C377 C 0.30282 1.12804 1.15884
 C378 C 0.28252 1.14237 1.17076
 C379 C 0.27184 1.16457 1.15708
 C380 C 0.28255 1.17164 1.13086
 C381 C 0.30287 1.15719 1.11899
 C382 C 0.33492 1.11989 1.12043
 C383 C 0.33453 1.11410 1.09234
 C384 C 0.35454 1.09897 1.08090
 C385 C 0.37543 1.08936 1.09729
 C386 C 0.37595 1.09540 1.12530
 C387 C 0.35595 1.11048 1.13672
 C388 C 0.39644 1.07283 1.08537
 C389 C 0.42337 1.07611 1.09319
 C390 C 0.44307 1.06018 1.08250
 C391 C 0.43629 1.04056 1.06377
 C392 C 0.40939 1.03737 1.05581
 C393 C 0.38969 1.05335 1.06647
 H394 H 0.31014 1.11099 1.16992
 H395 H 0.27558 1.13568 1.19081
 H396 H 0.27548 1.18827 1.11909
 H397 H 0.31072 1.16341 1.09902
 H398 H 0.31849 1.12088 1.07929
 H399 H 0.35375 1.09489 1.05919
 H400 H 0.39160 1.08808 1.13853
 H401 H 0.35700 1.11486 1.15835
 H402 H 0.42928 1.09119 1.10740
 H403 H 0.46364 1.06328 1.08891
 H404 H 0.40350 1.02246 1.04140
 H405 H 0.36909 1.05013 1.06029
 C406 C 0.34030 0.85813 0.84816
 C407 C 0.33045 0.86592 0.82240
 C408 C 0.31130 0.85043 0.80902
 C409 C 0.30127 0.82649 0.82102
 C410 C 0.31191 0.81859 0.84672
 C411 C 0.33102 0.83418 0.86001
 C412 C 0.35972 0.87516 0.86298
 C413 C 0.35697 0.87840 0.89142
 C414 C 0.37513 0.89431 0.90554
 C415 C 0.39653 0.90736 0.89160
 C416 C 0.39916 0.90440 0.86309
 C417 C 0.38094 0.88844 0.84892
 C418 C 0.41604 0.92378 0.90702
 C419 C 0.42555 0.94823 0.89632
 C420 C 0.44283 0.96412 0.91175
 C421 C 0.45087 0.95578 0.93808
 C422 C 0.44191 0.93109 0.94843
 C423 C 0.42475 0.91526 0.93307
 H424 H 0.33709 0.88439 0.81280
 H425 H 0.30448 0.85773 0.78936
 H426 H 0.30560 0.80050 0.85709
 H427 H 0.33863 0.82739 0.87967
 H428 H 0.34052 0.86890 0.90273
 H429 H 0.37221 0.89664 0.92740
 H430 H 0.41560 0.91400 0.85185
 H431 H 0.38372 0.88614 0.82704
 H432 H 0.41904 0.95538 0.87637
 H433 H 0.44942 0.98311 0.90336
 H434 H 0.44790 0.92409 0.96862
 H435 H 0.41822 0.89633 0.94166
 C436 C 0.69898 0.86833 1.13313
 C437 C 0.71324 0.87856 1.15536
 C438 C 0.73198 0.86347 1.16939
 C439 C 0.73723 0.83751 1.16163
 C440 C 0.72283 0.82749 1.13905
 C441 C 0.70400 0.84265 1.12512
 C442 C 0.67862 0.88432 1.11875
 C443 C 0.65385 0.87296 1.11123
 C444 C 0.63421 0.88827 1.09886
 C445 C 0.63891 0.91529 1.09365
 C446 C 0.66388 0.92654 1.10066
 C447 C 0.68349 0.91124 1.11310
 C448 C 0.61756 0.93182 1.08177
 C449 C 0.62370 0.95154 1.06181
 C450 C 0.60361 0.96746 1.05119
 C451 C 0.57697 0.96408 1.06040
 C452 C 0.57083 0.94424 1.08021
 C453 C 0.59088 0.92831 1.09076
 H454 H 0.70960 0.89822 1.16224
 H455 H 0.74237 0.87268 1.18613
 H456 H 0.72550 0.80778 1.13208
 H457 H 0.69345 0.83428 1.10790
 H458 H 0.64941 0.85233 1.11550
 H459 H 0.61528 0.87898 1.09341
 H460 H 0.66804 0.94733 1.09712
 H461 H 0.70250 0.92050 1.11837
 H462 H 0.64403 0.95450 1.05424
 H463 H 0.60896 0.98244 1.03579
 H464 H 0.55051 0.94108 1.08774
 H465 H 0.58557 0.91353 1.10638
 C466 C 0.67464 1.14502 0.83649
 C467 C 0.68513 1.16808 0.84790
 C468 C 0.70489 1.18324 0.83406
 C469 C 0.71511 1.17560 0.80841
 C470 C 0.70388 1.15264 0.79682
 C471 C 0.68389 1.13768 0.81063
 C472 C 0.65471 1.12834 0.85202
 C473 C 0.63183 1.11795 0.83907
 C474 C 0.61295 1.10256 0.85405
 C475 C 0.61670 1.09708 0.88223
 C476 C 0.63991 1.10712 0.89495
 C477 C 0.65859 1.12266 0.88006
 C478 C 0.59651 1.08122 0.89853
 C479 C 0.59085 1.08764 0.92585
 C480 C 0.57272 1.07235 0.94168
 C481 C 0.55954 1.05044 0.93051
 C482 C 0.56465 1.04421 0.90308
 C483 C 0.58304 1.05942 0.88724
 H484 H 0.67810 1.17435 0.86772
 H485 H 0.71260 1.20039 0.84428
 H486 H 0.71018 1.14607 0.77694
 H487 H 0.67610 1.11996 0.80135
 H488 H 0.62829 1.12219 0.81750
 H489 H 0.59517 1.09539 0.84369
 H490 H 0.64380 1.10277 0.91642
 H491 H 0.67632 1.12999 0.89042
 H492 H 0.60037 1.10461 0.93503
 H493 H 0.56902 1.07773 0.96273
 H494 H 0.55483 1.02731 0.89406
 H495 H 0.58714 1.05376 0.86638
 C496 C 0.13912 0.32396 0.11747
 C497 C 0.16625 0.31857 0.11294
 C498 C 0.17877 0.29891 0.12842
 C499 C 0.16446 0.28418 0.14877
 C500 C 0.13743 0.28986 0.15346
 C501 C 0.12497 0.30952 0.13810
 C502 C 0.12536 0.34428 0.10064
 C503 C 0.09871 0.33995 0.09238
 C504 C 0.08517 0.35931 0.07766
 C505 C 0.09796 0.38347 0.07053
 C506 C 0.12482 0.38764 0.07825
 C507 C 0.13839 0.36824 0.09314
 C508 C 0.08267 0.40448 0.05629
 C509 C 0.08590 0.43092 0.06368
 C510 C 0.06899 0.45006 0.05288
 C511 C 0.04836 0.44306 0.03474
 C512 C 0.04608 0.41697 0.02623
 C513 C 0.06317 0.39795 0.03669
 H514 H 0.17768 0.32922 0.09710
 H515 H 0.19969 0.29531 0.12446
 H516 H 0.12562 0.27880 0.16867
 H517 H 0.10418 0.31345 0.14246
 H518 H 0.08821 0.32157 0.09739
 H519 H 0.06438 0.35552 0.07250
 H520 H 0.13535 0.40593 0.07289
 H521 H 0.15886 0.37226 0.09932
 H522 H 0.10057 0.43662 0.07886
 H523 H 0.07115 0.47003 0.05986
 H524 H 0.03052 0.41106 0.01208
 H525 H 0.06059 0.37795 0.02997
 C526 C -0.15645 0.34309 -0.16330
 C527 C -0.13938 0.32500 -0.17533
 C528 C -0.14989 0.30351 -0.18934
 C529 C -0.17772 0.29943 -0.19152
 C530 C -0.19483 0.31756 -0.17969
 C531 C -0.18432 0.33919 -0.16579
 C532 C -0.14508 0.36547 -0.14768
 C533 C -0.15722 0.37330 -0.12317
 C534 C -0.14540 0.39310 -0.10752
 C535 C -0.12110 0.40547 -0.11597
 C536 C -0.10942 0.39813 -0.14089
 C537 C -0.12130 0.37849 -0.15659
 C538 C -0.10691 0.42461 -0.09816
 C539 C -0.09185 0.44584 -0.10984
 C540 C -0.07523 0.46140 -0.09351
 C541 C -0.07355 0.45629 -0.06509
 C542 C -0.09001 0.43632 -0.05308
 C543 C -0.10642 0.42055 -0.06946
 H544 H -0.11784 0.32706 -0.17332
 H545 H -0.13620 0.28965 -0.19779
 H546 H -0.21636 0.31510 -0.18135
 H547 H -0.19801 0.35294 -0.15714
 H548 H -0.17543 0.36356 -0.11559
 H549 H -0.15511 0.39848 -0.08861
 H550 H -0.09053 0.40691 -0.14790
 H551 H -0.11165 0.37327 -0.17559
 H552 H -0.09228 0.44996 -0.13176
 H553 H -0.06298 0.47685 -0.10330
 H554 H -0.08905 0.43186 -0.03123
 H555 H -0.11753 0.40427 -0.05976
 C556 C 0.16449 0.66298 -0.14289
 C557 C 0.15024 0.67971 -0.16060
 C558 C 0.16345 0.69997 -0.17551
 C559 C 0.19126 0.70413 -0.17304
 C560 C 0.20555 0.68758 -0.15514
 C561 C 0.19230 0.66720 -0.14023
 C562 C 0.15013 0.64137 -0.12730
 C563 C 0.15631 0.63556 -0.09968
 C564 C 0.14141 0.61636 -0.08467
 C565 C 0.12006 0.60254 -0.09699
 C566 C 0.11442 0.60794 -0.12481
 C567 C 0.12931 0.62700 -0.13977
 C568 C 0.10250 0.58374 -0.08078
 C569 C 0.09140 0.56131 -0.09312
 C570 C 0.07151 0.54601 -0.07965
 C571 C 0.06254 0.55255 -0.05338
 C572 C 0.07502 0.57374 -0.04010
 C573 C 0.09473 0.58928 -0.05373
 H574 H 0.12872 0.67742 -0.16264
 H575 H 0.15174 0.71271 -0.18858
 H576 H 0.22702 0.69015 -0.15299
 H577 H 0.20388 0.65450 -0.12695
 H578 H 0.17214 0.64638 -0.08943
 H579 H 0.14644 0.61251 -0.06336
 H580 H 0.09788 0.59804 -0.13490
 H581 H 0.12430 0.63069 -0.16111
 H582 H 0.09745 0.55606 -0.11361
 H583 H 0.06246 0.52958 -0.09023
 H584 H 0.06840 0.57928 -0.01987
 H585 H 0.10270 0.60648 -0.04367
 C586 C -0.14821 0.66433 0.14329
 C587 C -0.13135 0.68034 0.15927
 C588 C -0.14143 0.70192 0.17276
 C589 C -0.16858 0.70817 0.17043
 C590 C -0.18555 0.69199 0.15483
 C591 C -0.17552 0.67027 0.14150
 C592 C -0.13704 0.64221 0.12778
 C593 C -0.14607 0.63678 0.10113
 C594 C -0.13409 0.61740 0.08572
 C595 C -0.11266 0.60307 0.09648
 C596 C -0.10427 0.60790 0.12348
 C597 C -0.11637 0.62713 0.13895
 C598 C -0.09769 0.58471 0.07906
 C599 C -0.08646 0.56191 0.09059
 C600 C -0.06907 0.54690 0.07519
 C601 C -0.06271 0.55423 0.04786
 C602 C -0.07537 0.57590 0.03573
 C603 C -0.09256 0.59104 0.05119
 H604 H -0.11012 0.67670 0.16070
 H605 H -0.12778 0.71423 0.18426
 H606 H -0.20664 0.69610 0.15300
 H607 H -0.18917 0.65812 0.12978
 H608 H -0.16179 0.64812 0.09175
 H609 H -0.14132 0.61398 0.06515
 H610 H -0.08764 0.59752 0.13238
 H611 H -0.10922 0.63044 0.15957
 H612 H -0.09047 0.55610 0.11179
 H613 H -0.05979 0.53014 0.08499
 H614 H -0.07078 0.58211 0.01474
 H615 H -0.10058 0.60856 0.04165
 C616 C 1.13662 0.12353 0.70061
 C617 C 1.15835 0.11303 0.71491
 C618 C 1.17079 0.12698 0.73590
 C619 C 1.16166 0.15185 0.74346
 C620 C 1.13992 0.16230 0.72864
 C621 C 1.12768 0.14837 0.70756
 C622 C 1.12309 0.10854 0.67867
 C623 C 1.11565 0.12117 0.65397
 C624 C 1.10269 0.10709 0.63341
 C625 C 1.09675 0.08011 0.63720
 C626 C 1.10412 0.06750 0.66193
 C627 C 1.11723 0.08155 0.68241
 C628 C 1.08322 0.06509 0.61530
 C629 C 1.06265 0.04658 0.62186
 C630 C 1.05042 0.03192 0.60128
 C631 C 1.05863 0.03534 0.57371
 C632 C 1.07896 0.05411 0.56713
 C633 C 1.09108 0.06886 0.58769
 H634 H 1.16583 0.09398 0.70978
 H635 H 1.18710 0.11765 0.74647
 H636 H 1.13228 0.18144 0.73279
 H637 H 1.11087 0.15693 0.69694
 H638 H 1.12010 0.14191 0.65045
 H639 H 1.09707 0.11735 0.61464
 H640 H 1.10004 0.04667 0.66529
 H641 H 1.12249 0.07137 0.70135
 H642 H 1.05594 0.04353 0.64292
 H643 H 1.03473 0.01771 0.60703
 H644 H 1.08575 0.05725 0.54610
 H645 H 1.10704 0.08281 0.58207
 C646 C 0.82952 -0.14650 0.65395
 C647 C 0.80844 -0.13481 0.66790
 C648 C 0.79530 -0.14808 0.68984
 C649 C 0.80307 -0.17345 0.69861
 C650 C 0.82323 -0.18555 0.68327
 C651 C 0.83623 -0.17226 0.66140
 C652 C 0.84572 -0.13146 0.63295
 C653 C 0.87376 -0.13311 0.63303
 C654 C 0.88943 -0.11851 0.61408
 C655 C 0.87751 -0.10192 0.59441
 C656 C 0.84941 -0.10031 0.59420
 C657 C 0.83366 -0.11490 0.61334
 C658 C 0.89469 -0.08571 0.57514
 C659 C 0.88865 -0.05941 0.56883
 C660 C 0.90671 -0.04329 0.55359
 C661 C 0.93120 -0.05312 0.54462
 C662 C 0.93656 -0.07972 0.54961
 C663 C 0.91845 -0.09587 0.56455
 H664 H 0.80287 -0.11490 0.66265
 H665 H 0.78002 -0.13767 0.70055
 H666 H 0.82929 -0.20536 0.68790
 H667 H 0.85188 -0.18209 0.65047
 H668 H 0.88370 -0.14521 0.64828
 H669 H 0.91102 -0.11971 0.61536
 H670 H 0.83960 -0.08787 0.57919
 H671 H 0.81207 -0.11338 0.61269
 H672 H 0.87063 -0.05092 0.57681
 H673 H 0.90211 -0.02282 0.55002
 H674 H 0.95515 -0.08788 0.54261
 H675 H 0.92338 -0.11620 0.56842
 C676 C 1.14790 -0.14142 0.32084
 C677 C 1.17274 -0.13256 0.31014
 C678 C 1.18765 -0.14844 0.29317
 C679 C 1.17808 -0.17378 0.28616
 C680 C 1.15304 -0.18251 0.29720
 C681 C 1.13825 -0.16658 0.31427
 C682 C 1.13227 -0.12457 0.33908
 C683 C 1.11969 -0.13531 0.36284
 C684 C 1.10564 -0.11932 0.38047
 C685 C 1.10379 -0.09226 0.37467
 C686 C 1.11599 -0.08157 0.35068
 C687 C 1.13015 -0.09756 0.33310
 C688 C 1.08976 -0.07517 0.39399
 C689 C 1.07283 -0.05541 0.38424
 C690 C 1.05973 -0.03934 0.40263
 C691 C 1.06346 -0.04265 0.43109
 C692 C 1.08047 -0.06235 0.44078
 C693 C 1.09344 -0.07844 0.42245
 H694 H 1.18084 -0.11334 0.31515
 H695 H 1.20643 -0.14029 0.28536
 H696 H 1.14467 -0.20177 0.29321
 H697 H 1.11907 -0.17389 0.32214
 H698 H 1.12117 -0.15601 0.36809
 H699 H 1.09619 -0.12814 0.39866
 H700 H 1.11506 -0.06075 0.34581
 H701 H 1.13939 -0.08880 0.31477
 H702 H 1.06945 -0.05262 0.36242
 H703 H 1.04668 -0.02437 0.39457
 H704 H 1.08377 -0.06538 0.46260
 H705 H 1.10667 -0.09324 0.43053
 C706 C 0.85599 0.14518 0.32237
 C707 C 0.83064 0.13705 0.31313
 C708 C 0.81534 0.15375 0.29672
 C709 C 0.82498 0.17922 0.28880
 C710 C 0.85040 0.18733 0.29872
 C711 C 0.86561 0.17056 0.31518
 C712 C 0.87235 0.12718 0.33942
 C713 C 0.88667 0.13656 0.36209
 C714 C 0.90185 0.11956 0.37828
 C715 C 0.90312 0.09279 0.37212
 C716 C 0.88897 0.08344 0.34933
 C717 C 0.87371 0.10043 0.33319
 C718 C 0.91899 0.07472 0.38958
 C719 C 0.93488 0.05555 0.37772
 C720 C 0.95024 0.03895 0.39426
 C721 C 0.94995 0.04118 0.42296
 C722 C 0.93378 0.06006 0.43482
 C723 C 0.91850 0.07666 0.41831
 H724 H 0.82244 0.11777 0.31884
 H725 H 0.79590 0.14632 0.29061
 H726 H 0.85919 0.20641 0.29357
 H727 H 0.88522 0.17731 0.32184
 H728 H 0.88583 0.15701 0.36754
 H729 H 0.91279 0.12740 0.39552
 H730 H 0.88939 0.06288 0.34421
 H731 H 0.86314 0.09269 0.31566
 H732 H 0.93583 0.05375 0.35562
 H733 H 0.96252 0.02456 0.38458
 H734 H 0.93309 0.06218 0.45689
 H735 H 0.90613 0.09094 0.42807
 C736 C 0.12556 0.30963 -0.12235
 C737 C 0.11792 0.29910 -0.14754
 C738 C 0.13174 0.27834 -0.15858
 C739 C 0.15382 0.26733 -0.14478
 C740 C 0.16140 0.27822 -0.11943
 C741 C 0.14741 0.29897 -0.10840
 C742 C 0.11058 0.33159 -0.11072
 C743 C 0.10406 0.33165 -0.08260
 C744 C 0.08908 0.35189 -0.07192
 C745 C 0.08042 0.37252 -0.08913
 C746 C 0.08727 0.37262 -0.11716
 C747 C 0.10217 0.35238 -0.12784
 C748 C 0.06392 0.39367 -0.07805
 C749 C 0.06852 0.41995 -0.08667
 C750 C 0.05255 0.43979 -0.07678
 C751 C 0.03159 0.43379 -0.05808
 C752 C 0.02705 0.40751 -0.04938
 C753 C 0.04308 0.38768 -0.05920
 H754 H 0.10094 0.30674 -0.15865
 H755 H 0.12499 0.27143 -0.17820
 H756 H 0.17784 0.27069 -0.10755
 H757 H 0.15389 0.30686 -0.08900
 H758 H 0.11009 0.31578 -0.06896
 H759 H 0.08433 0.35144 -0.05017
 H760 H 0.08067 0.38812 -0.13098
 H761 H 0.10715 0.35302 -0.14953
 H762 H 0.08464 0.42520 -0.10090
 H763 H 0.05668 0.45986 -0.08377
 H764 H 0.01097 0.40221 -0.03510
 H765 H 0.03883 0.36757 -0.05247
 C766 C -0.15643 0.35741 0.16845
 C767 C -0.18411 0.35318 0.16504
 C768 C -0.19726 0.33147 0.17766
 C769 C -0.18295 0.31328 0.19371
 C770 C -0.15533 0.31800 0.19763
 C771 C -0.14227 0.33986 0.18526
 C772 C -0.14194 0.37891 0.15306
 C773 C -0.12222 0.39445 0.16585
 C774 C -0.10705 0.41321 0.15059
 C775 C -0.11108 0.41659 0.12214
 C776 C -0.13130 0.40138 0.10957
 C777 C -0.14663 0.38289 0.12488
 C778 C -0.09328 0.43451 0.10515
 C779 C -0.10329 0.44780 0.08184
 C780 C -0.08596 0.46157 0.06369
 C781 C -0.05830 0.46275 0.06868
 C782 C -0.04840 0.45104 0.09283
 C783 C -0.06569 0.43688 0.11080
 H784 H -0.19554 0.36661 0.15242
 H785 H -0.21860 0.32886 0.17462
 H786 H -0.14345 0.30438 0.20945
 H787 H -0.12084 0.34246 0.18792
 H788 H -0.11841 0.39192 0.18763
 H789 H -0.09199 0.42486 0.16104
 H790 H -0.13462 0.40295 0.08764
 H791 H -0.16141 0.37089 0.11442
 H792 H -0.12449 0.44702 0.07722
 H793 H -0.09412 0.47074 0.04535
 H794 H -0.02711 0.45161 0.09708
 H795 H -0.05717 0.42672 0.12835
 C796 C -0.14627 0.68482 -0.14767
 C797 C -0.13905 0.69506 -0.17374
 C798 C -0.15491 0.71350 -0.18716
 C799 C -0.17866 0.72244 -0.17490
 C800 C -0.18581 0.71178 -0.14866
 C801 C -0.16983 0.69334 -0.13530
 C802 C -0.12919 0.66536 -0.13346
 C803 C -0.12419 0.66697 -0.10515
 C804 C -0.10781 0.64882 -0.09189
 C805 C -0.09615 0.62863 -0.10664
 C806 C -0.10121 0.62700 -0.13493
 C807 C -0.11753 0.64516 -0.14818
 C808 C -0.07885 0.60925 -0.09260
 C809 C -0.08090 0.58252 -0.09897
 C810 C -0.06465 0.56423 -0.08584
 C811 C -0.04594 0.57226 -0.06606
 C812 C -0.04386 0.59899 -0.05967
 C813 C -0.06017 0.61729 -0.07279
 H814 H -0.12077 0.68914 -0.18366
 H815 H -0.14794 0.72074 -0.20700
 H816 H -0.20381 0.71727 -0.13813
 H817 H -0.17614 0.68547 -0.11536
 H818 H -0.13267 0.68248 -0.09331
 H819 H -0.10450 0.65042 -0.07001
 H820 H -0.09229 0.61183 -0.14690
 H821 H -0.12122 0.64325 -0.16995
 H822 H -0.09537 0.57567 -0.11385
 H823 H -0.06683 0.54375 -0.09112
 H824 H -0.02965 0.60577 -0.04450
 H825 H -0.05792 0.63780 -0.06768
 C826 C 0.14727 0.67051 0.14922
 C827 C 0.16948 0.68354 0.13673
 C828 C 0.18538 0.70113 0.15155
 C829 C 0.17949 0.70593 0.17925
 C830 C 0.15779 0.69213 0.19193
 C831 C 0.14180 0.67472 0.17706
 C832 C 0.12926 0.65335 0.13303
 C833 C 0.10132 0.65540 0.13533
 C834 C 0.08422 0.63986 0.11953
 C835 C 0.09470 0.62179 0.10127
 C836 C 0.12263 0.61951 0.09918
 C837 C 0.13976 0.63525 0.11480
 C838 C 0.07653 0.60559 0.08424
 C839 C 0.08080 0.57864 0.08141
 C840 C 0.06371 0.56342 0.06524
 C841 C 0.04221 0.57494 0.05134
 C842 C 0.03789 0.60186 0.05420
 C843 C 0.05482 0.61703 0.07059
 H844 H 0.17398 0.68082 0.11521
 H845 H 0.20168 0.71161 0.14100
 H846 H 0.15303 0.69489 0.21336
 H847 H 0.12508 0.66457 0.18731
 H848 H 0.09270 0.66938 0.14902
 H849 H 0.06276 0.64185 0.12168
 H850 H 0.13122 0.60586 0.08509
 H851 H 0.16122 0.63320 0.11276
 H852 H 0.09722 0.56931 0.09195
 H853 H 0.06747 0.54269 0.06342
 H854 H 0.02142 0.61121 0.04376
 H855 H 0.05123 0.63781 0.07225
 C856 C 0.32533 1.14634 0.88660
 C857 C 0.31685 1.17186 0.89144
 C858 C 0.29414 1.18152 0.87830
 C859 C 0.27914 1.16569 0.86032
 C860 C 0.28776 1.14007 0.85564
 C861 C 0.31064 1.13060 0.86849
 C862 C 0.34901 1.13571 0.90084
 C863 C 0.36817 1.12192 0.88615
 C864 C 0.38929 1.10991 0.89985
 C865 C 0.39150 1.11120 0.92855
 C866 C 0.37281 1.12568 0.94316
 C867 C 0.35185 1.13799 0.92939
 C868 C 0.41176 1.09544 0.94320
 C869 C 0.40403 1.07924 0.96580
 C870 C 0.42180 1.06122 0.97701
 C871 C 0.44775 1.05926 0.96606
 C872 C 0.45609 1.07664 0.94464
 C873 C 0.43817 1.09445 0.93316
 H874 H 0.32798 1.18444 0.90518
 H875 H 0.28854 1.20146 0.88214
 H876 H 0.27664 1.12703 0.84246
 H877 H 0.31653 1.11067 0.86475
 H878 H 0.36653 1.12006 0.86410
 H879 H 0.40323 1.09863 0.88812
 H880 H 0.37413 1.12702 0.96528
 H881 H 0.33725 1.14841 0.94118
 H882 H 0.38376 1.07946 0.97381
 H883 H 0.41490 1.04812 0.99359
 H884 H 0.47598 1.07552 0.93579
 H885 H 0.44466 1.10690 0.91589
 C886 C 0.35263 0.83490 1.16012
 C887 C 0.34950 0.80736 1.16115
 C888 C 0.32705 0.79532 1.17405
 C889 C 0.30739 0.81059 1.18624
 C890 C 0.31058 0.83807 1.18515
 C891 C 0.33284 0.85006 1.17222
 C892 C 0.37585 0.84813 1.14582
 C893 C 0.38748 0.87115 1.15638
 C894 C 0.40698 0.88557 1.14142
 C895 C 0.41563 0.87719 1.11561
 C896 C 0.40510 0.85335 1.10574
 C897 C 0.38537 0.83900 1.12065
 C898 C 0.43360 0.89457 1.09824
 C899 C 0.42924 0.89722 1.06978
 C900 C 0.44324 0.91645 1.05409
 C901 C 0.46165 0.93366 1.06657
 C902 C 0.46719 0.93007 1.09464
 C903 C 0.45347 0.91060 1.11027
 H904 H 0.36449 0.79513 1.15220
 H905 H 0.32518 0.77410 1.17476
 H906 H 0.29549 0.85041 1.19373
 H907 H 0.33420 0.87132 1.17114
 H908 H 0.38099 0.87844 1.17597
 H909 H 0.41433 0.90395 1.14960
 H910 H 0.41161 0.84610 1.08615
 H911 H 0.37678 0.82137 1.11190
 H912 H 0.41392 0.88547 1.05984
 H913 H 0.43854 0.91878 1.03247
 H914 H 0.48156 0.94285 1.10471
 H915 H 0.45784 0.90867 1.13198
 C916 C 0.66279 1.16791 1.14880
 C917 C 0.68354 1.15332 1.16049
 C918 C 0.70424 1.16577 1.17469
 C919 C 0.70481 1.19315 1.17753
 C920 C 0.68441 1.20790 1.16532
 C921 C 0.66357 1.19538 1.15109
 C922 C 0.64050 1.15417 1.13447
 C923 C 0.63036 1.16414 1.10953
 C924 C 0.61080 1.14990 1.09518
 C925 C 0.60094 1.12546 1.10555
 C926 C 0.61052 1.11600 1.13095
 C927 C 0.62995 1.13021 1.14524
 C928 C 0.58220 1.10882 1.08938
 C929 C 0.56242 1.09293 1.10276
 C930 C 0.54781 1.07409 1.08833
 C931 C 0.55239 1.07093 1.06014
 C932 C 0.57071 1.08807 1.04630
 C933 C 0.58558 1.10676 1.06081
 H934 H 0.68391 1.13221 1.15847
 H935 H 0.72000 1.15391 1.18321
 H936 H 0.68425 1.22901 1.16732
 H937 H 0.64778 1.20712 1.14241
 H938 H 0.63816 1.18252 1.10067
 H939 H 0.60365 1.15785 1.07581
 H940 H 0.60373 1.09710 1.13940
 H941 H 0.63701 1.12221 1.16463
 H942 H 0.55883 1.09447 1.12461
 H943 H 0.53353 1.06138 1.09945
 H944 H 0.57468 1.08606 1.02456
 H945 H 0.60076 1.11853 1.04989
 C946 C 0.66254 0.85406 0.86340
 C947 C 0.66862 0.82776 0.86916
 C948 C 0.68761 0.81511 0.85335
 C949 C 0.70118 0.82858 0.83158
 C950 C 0.69487 0.85490 0.82577
 C951 C 0.67571 0.86745 0.84143
 C952 C 0.64293 0.86777 0.88055
 C953 C 0.62380 0.88395 0.86822
 C954 C 0.60621 0.89794 0.88437
 C955 C 0.60752 0.89622 0.91320
 C956 C 0.62632 0.87968 0.92554
 C957 C 0.64377 0.86547 0.90937
 C958 C 0.59037 0.91292 0.93011
 C959 C 0.60150 0.92716 0.95182
 C960 C 0.58629 0.94544 0.96556
 C961 C 0.55959 0.94969 0.95798
 C962 C 0.54801 0.93439 0.93732
 C963 C 0.56329 0.91627 0.92344
 H964 H 0.65851 0.81689 0.88577
 H965 H 0.69151 0.79472 0.85814
 H966 H 0.70514 0.86609 0.80954
 H967 H 0.67166 0.88787 0.83678
 H968 H 0.62258 0.88589 0.84606
 H969 H 0.59213 0.91077 0.87430
 H970 H 0.62766 0.87791 0.94771
 H971 H 0.65844 0.85326 0.91939
 H972 H 0.62236 0.92511 0.95729
 H973 H 0.59572 0.95691 0.98146
 H974 H 0.52746 0.93721 0.93107
 H975 H 0.55413 0.90529 0.90702
   
