data_POSCAR
  _audit_creation_date              2014-09-24
  _audit_creation_method            'ToBaCCo'
  _symmetry_space_group_name_H-M    'P1'
  _symmetry_Int_Tables_number       1
  _symmetry_cell_setting            triclinic
  loop_
  _symmetry_equiv_pos_as_xyz
 x,y,z
_cell_length_a 20.9707
_cell_length_b 18.8744
_cell_length_c 19.0294
_cell_angle_alpha 90.558400
_cell_angle_beta 86.671200
_cell_angle_gamma 93.638400
loop_
  _atom_site_label
  _atom_site_type_symbol
  _atom_site_fract_x
  _atom_site_fract_y
  _atom_site_fract_z
C1 C 0.32704 0.32139 0.22511
 H2 H 0.32968 0.32576 0.28162
 C3 C 0.37067 0.36135 0.18096
 H4 H 0.40654 0.39689 0.20372
 C5 C 0.27762 0.26877 0.12673
 H6 H 0.24164 0.23222 0.10579
 C7 C 0.32051 0.30758 0.08070
 H8 H 0.31724 0.30127 0.02437
 N9 N 0.28148 0.27638 0.19756
 C10 C 0.12581 0.25259 0.36078
 H11 H 0.11574 0.19580 0.36167
 C12 C 0.08690 0.29612 0.40200
 H13 H 0.04800 0.27271 0.43578
 C14 C 0.18534 0.35323 0.31250
 H15 H 0.22228 0.37590 0.27628
 C16 C 0.14761 0.39853 0.35255
 H17 H 0.15694 0.45536 0.34734
 Zn18 Zn 0.22485 0.22101 0.25997
 N19 N 0.17463 0.28154 0.31783
 C20 C 0.24584 0.12493 0.36905
 N21 N 0.27420 0.16402 0.31478
 C22 C 0.33805 0.16209 0.29773
 C23 C 0.37639 0.12270 0.33787
 C24 C 0.28248 0.08454 0.41047
 C25 C 0.11912 0.19150 0.17933
 C26 C 0.08021 0.15168 0.13459
 C27 C 0.14425 0.05151 0.15009
 C28 C 0.18175 0.09309 0.19498
 N29 N 0.16928 0.16206 0.20750
 H30 H 0.19493 0.12506 0.38057
 H31 H 0.35962 0.19076 0.25275
 H32 H 0.42723 0.12277 0.32419
 H33 H 0.25983 0.05457 0.45438
 H34 H 0.11067 0.24664 0.18991
 H35 H 0.04195 0.17666 0.11047
 H36 H 0.15606 -0.00240 0.13772
 H37 H 0.22229 0.07118 0.21756
 C38 C 0.09773 0.36981 0.39801
 C39 C 0.36748 0.35434 0.10778
 C40 C 0.09369 0.08120 0.11851
 C41 C 0.34846 0.08411 0.39551
 C42 C 0.85246 0.88093 0.18379
 H43 H 0.85803 0.89311 0.23885
 C44 C 0.88151 0.92651 0.13201
 H45 H 0.90949 0.97385 0.14723
 C46 C 0.80648 0.80670 0.09655
 H47 H 0.77701 0.76031 0.08263
 C48 C 0.83480 0.85057 0.04325
 H49 H 0.82624 0.83812 -0.01125
 N50 N 0.81351 0.82402 0.16543
 C51 C 0.66497 0.80298 0.33638
 H52 H 0.66482 0.74673 0.34686
 C53 C 0.62240 0.84480 0.37463
 H54 H 0.58964 0.82050 0.41478
 C55 C 0.70754 0.90297 0.27082
 H56 H 0.73975 0.92548 0.22952
 C57 C 0.66590 0.94667 0.30791
 H58 H 0.66690 1.00266 0.29567
 Zn59 Zn 0.76374 0.77209 0.23724
 N60 N 0.70722 0.83270 0.28642
 C61 C 0.81370 0.74961 0.37080
 N62 N 0.81915 0.73364 0.30082
 C63 C 0.86302 0.68857 0.27497
 C64 C 0.90119 0.65474 0.32050
 C65 C 0.85095 0.71698 0.41814
 C66 C 0.66595 0.71841 0.15378
 C67 C 0.62588 0.66747 0.12159
 C68 C 0.67829 0.57589 0.17955
 C69 C 0.71759 0.62861 0.21052
 N70 N 0.71147 0.69837 0.19635
 H71 H 0.77986 0.78687 0.39039
 H72 H 0.86706 0.67743 0.21906
 H73 H 0.93466 0.61766 0.29914
 H74 H 0.84521 0.72875 0.47387
 H75 H 0.66121 0.77422 0.14439
 H76 H 0.59049 0.68449 0.08726
 H77 H 0.68380 0.52052 0.19060
 H78 H 0.75271 0.61355 0.24592
 C79 C 0.62313 0.91775 0.36058
 C80 C 0.87113 0.91209 0.06114
 C81 C 0.63224 0.59512 0.13419
 C82 C 0.89446 0.66817 0.39330
 C83 C 0.84792 0.35891 0.68902
 H84 H 0.85369 0.36339 0.74506
 C85 C 0.88634 0.40193 0.64252
 H86 H 0.92178 0.43946 0.66328
 C87 C 0.79532 0.30327 0.59423
 H88 H 0.76061 0.26388 0.57554
 C89 C 0.83322 0.34512 0.54565
 H90 H 0.82721 0.33829 0.48981
 N91 N 0.80281 0.31154 0.66453
 C92 C 0.66971 0.28715 0.84947
 H93 H 0.66913 0.23067 0.85889
 C94 C 0.63157 0.32987 0.89271
 H95 H 0.60187 0.30603 0.93568
 C96 C 0.70750 0.38676 0.78060
 H97 H 0.73560 0.40873 0.73578
 C98 C 0.67036 0.43123 0.82253
 H99 H 0.67076 0.48720 0.81040
 Zn100 Zn 0.75460 0.25621 0.73390
 N101 N 0.70694 0.31615 0.79484
 C102 C 0.82180 0.21252 0.85247
 N103 N 0.81452 0.20698 0.78192
 C104 C 0.85324 0.16747 0.73973
 C105 C 0.90148 0.13123 0.76797
 C106 C 0.86992 0.17708 0.88300
 C107 C 0.65241 0.21568 0.65057
 C108 C 0.61109 0.16888 0.61502
 C109 C 0.65908 0.07071 0.66766
 C110 C 0.69981 0.11934 0.70182
 N111 N 0.69675 0.19030 0.69148
 H112 H 0.79131 0.24531 0.88479
 H113 H 0.84689 0.16487 0.68372
 H114 H 0.93259 0.10073 0.73363
 H115 H 0.87641 0.18252 0.93891
 H116 H 0.65022 0.27238 0.64436
 H117 H 0.57700 0.18988 0.58139
 H118 H 0.66246 0.01430 0.67514
 H119 H 0.73404 0.10017 0.73618
 C120 C 0.63174 0.40291 0.87891
 C121 C 0.87898 0.39531 0.56978
 C122 C 0.61499 0.09536 0.62291
 C123 C 0.91021 0.13634 0.84007
 C124 C 0.38399 0.78643 0.73535
 H125 H 0.40059 0.74820 0.77062
 C126 C 0.42880 0.82649 0.69251
 H127 H 0.47928 0.81808 0.69425
 C128 C 0.29917 0.84607 0.69053
 H129 H 0.24899 0.85547 0.69148
 C130 C 0.34220 0.88688 0.64666
 H131 H 0.32427 0.92610 0.61301
 N132 N 0.32021 0.79530 0.73218
 C133 C 0.14171 0.78212 0.84947
 H134 H 0.12116 0.73240 0.82966
 C135 C 0.10194 0.83111 0.88166
 H136 H 0.05071 0.81905 0.88608
 C137 C 0.23325 0.85993 0.86493
 H138 H 0.28436 0.87121 0.85696
 C139 C 0.19524 0.91041 0.89711
 H140 H 0.21699 0.96089 0.91381
 Zn141 Zn 0.25793 0.73760 0.78610
 N142 N 0.20587 0.79802 0.84042
 C143 C 0.29353 0.68778 0.91699
 N144 N 0.30028 0.67823 0.84603
 C145 C 0.34050 0.63058 0.81717
 C146 C 0.37770 0.59229 0.85993
 C147 C 0.32976 0.65042 0.96167
 C148 C 0.16933 0.71904 0.68043
 C149 C 0.13165 0.68240 0.63217
 C150 C 0.16680 0.57246 0.67537
 C151 C 0.20404 0.61118 0.72273
 N152 N 0.20558 0.68340 0.72374
 H153 H 0.26144 0.72590 0.93893
 H154 H 0.34545 0.62431 0.76059
 H155 H 0.41062 0.55597 0.83598
 H156 H 0.32527 0.65951 1.01796
 H157 H 0.16850 0.77596 0.68400
 H158 H 0.10321 0.71167 0.59823
 H159 H 0.16594 0.51503 0.67476
 H160 H 0.23132 0.58328 0.75870
 C161 C 0.12889 0.89678 0.90430
 C162 C 0.40783 0.87621 0.64665
 C163 C 0.13065 0.60818 0.62918
 C164 C 0.37309 0.60313 0.93309
 Si165 Si -0.01333 0.02265 -0.04284
 Si166 Si 0.01160 0.53770 0.48301
 Si167 Si 0.49071 0.00111 0.49271
 Si168 Si 0.50400 0.48720 0.01647
 N169 N 0.09010 -0.04691 -0.07246
 N170 N 0.02959 -0.05463 -0.06272
 N171 N 0.05673 0.41447 0.43865
 N172 N 0.06308 0.48162 0.43335
 N173 N 0.58155 -0.03646 0.39900
 N174 N 0.54023 -0.05948 0.44616
 N175 N 0.59193 0.44901 -0.08058
 N176 N 0.55365 0.42673 -0.03027
 N177 N -0.04333 0.10817 -0.13544
 N178 N 0.00356 0.08160 -0.11483
 N179 N -0.07041 0.63155 0.44268
 N180 N -0.03117 0.58591 0.42237
 N181 N 0.38617 0.04598 0.44059
 N182 N 0.44678 0.04738 0.43232
 N183 N 0.41307 0.56880 -0.02099
 N184 N 0.45504 0.52725 -0.04386
 N185 N -0.11120 -0.04309 0.01447
 N186 N -0.09701 0.00050 -0.03160
 N187 N -0.08125 0.43744 0.52023
 N188 N -0.04194 0.48584 0.54149
 N189 N 0.45334 -0.08575 0.59978
 N190 N 0.43501 -0.04605 0.55240
 N191 N 0.41089 0.39401 0.05997
 N192 N 0.45297 0.43972 0.08066
 N193 N 0.06245 0.04236 0.06396
 N194 N 0.01633 0.06665 0.03327
 N195 N 0.09205 0.56767 0.58173
 N196 N 0.05943 0.59570 0.53632
 N197 N 0.57567 0.04506 0.58533
 N198 N 0.53895 0.06468 0.53946
 N199 N 0.59299 0.54070 0.10146
 N200 N 0.55233 0.55546 0.05766
   
