data_POSCAR
  _audit_creation_date              2014-09-24
  _audit_creation_method            'ToBaCCo'
  _symmetry_space_group_name_H-M    'P1'
  _symmetry_Int_Tables_number       1
  _symmetry_cell_setting            triclinic
  loop_
  _symmetry_equiv_pos_as_xyz
 x,y,z
_cell_length_a 25.8460
_cell_length_b 25.7501
_cell_length_c 24.6507
_cell_angle_alpha 90.240500
_cell_angle_beta 90.008100
_cell_angle_gamma 89.884200
loop_
  _atom_site_label
  _atom_site_type_symbol
  _atom_site_fract_x
  _atom_site_fract_y
  _atom_site_fract_z
C1 C 0.32035 0.38752 1.39068
 N2 N 0.33847 0.34057 1.40724
 C3 C 0.38048 0.31836 1.38322
 N4 N 0.40446 0.34386 1.34215
 C5 C 0.38685 0.39074 1.32490
 N6 N 0.34482 0.41227 1.34933
 C7 C 1.18089 0.61648 0.89186
 N8 N 1.15720 0.59155 0.84992
 C9 C 1.11260 0.60992 0.82825
 N10 N 1.09140 0.65403 0.84891
 C11 C 1.11442 0.68009 0.89047
 N12 N 1.15926 0.66094 0.91193
 C13 C 0.67538 -0.11134 0.09565
 N14 N 0.65166 -0.08621 0.13753
 C15 C 0.60907 -0.10665 0.16153
 N16 N 0.58998 -0.15259 0.14316
 C17 C 0.61328 -0.17849 0.10171
 N18 N 0.65603 -0.15757 0.07826
 C19 C -0.18118 1.12108 -0.39467
 N20 N -0.15763 1.16316 -0.41665
 C21 C -0.11225 1.18139 -0.39619
 N22 N -0.09049 1.15674 -0.35316
 C23 C -0.11335 1.11448 -0.33062
 N24 N -0.15877 1.09680 -0.35163
 C25 C 0.68175 0.61923 0.59499
 N26 N 0.65966 0.66441 0.57875
 C27 C 0.61826 0.68447 0.60572
 N28 N 0.59905 0.65852 0.64920
 C29 C 0.62084 0.61322 0.66564
 N30 N 0.66223 0.59377 0.63843
 C31 C 0.81767 0.38173 0.10277
 N32 N 0.84263 0.41143 0.14011
 C33 C 0.88685 0.39429 0.16388
 N34 N 0.90654 0.34715 0.14974
 C35 C 0.88208 0.31708 0.11220
 N36 N 0.83749 0.33457 0.08942
 C37 C 0.31542 0.11736 0.89673
 N38 N 0.33696 0.16320 0.91164
 C39 C 0.37870 0.18201 0.88486
 N40 N 0.39892 0.15477 0.84262
 C41 C 0.37771 0.10872 0.82743
 N42 N 0.33588 0.09024 0.85451
 C43 C 0.18269 0.87846 0.39140
 N44 N 0.15956 0.83566 0.41235
 C45 C 0.11295 0.81923 0.39317
 N46 N 0.08968 0.84603 0.35238
 C47 C 0.11245 0.88889 0.33132
 N48 N 0.15871 0.90478 0.35103
 Zn49 Zn 0.05745 0.96694 0.01939
 Zn50 Zn 0.01304 1.06106 -0.03164
 Zn51 Zn -0.04024 0.95761 -0.04506
 Zn52 Zn -0.03951 1.01225 0.06248
 O53 O -0.00250 0.99940 0.00099
 O54 O 0.11388 1.00056 -0.00224
 O55 O -0.01019 1.06353 -0.09966
 O56 O -0.00925 0.89532 -0.05749
 O57 O 0.08116 1.07293 -0.03611
 O58 O 0.06225 0.90374 -0.00890
 O59 O -0.04971 0.98781 -0.11035
 O60 O -0.10222 0.98492 0.05985
 O61 O -0.01436 1.11628 0.00249
 O62 O -0.10437 0.94376 -0.01906
 O63 O -0.05054 1.07961 0.07414
 O64 O -0.00973 0.98821 0.12279
 O65 O 0.06467 0.95873 0.09074
 C66 C 0.11966 1.04468 -0.02389
 C67 C -0.03557 1.03171 -0.12867
 C68 C 0.03339 0.87715 -0.03989
 C69 C -0.12609 0.95784 0.02495
 C70 C -0.03967 1.11938 0.04643
 C71 C 0.03438 0.96786 0.13005
 Zn72 Zn 0.43529 0.03011 0.51387
 Zn73 Zn 0.53553 0.04472 0.45363
 Zn74 Zn 0.53262 -0.01275 0.55988
 Zn75 Zn 0.48640 -0.06029 0.46210
 O76 O 0.49763 0.00075 0.49727
 O77 O 0.42831 0.09309 0.48537
 O78 O 0.59696 0.06244 0.48407
 O79 O 0.49889 0.00852 0.61922
 O80 O 0.50116 0.10453 0.43969
 O81 O 0.42492 0.03727 0.58528
 O82 O 0.59355 0.01888 0.56135
 O83 O 0.51467 -0.11482 0.49456
 O84 O 0.54998 0.01633 0.38773
 O85 O 0.54619 -0.08053 0.57002
 O86 O 0.51196 -0.06009 0.39577
 O87 O 0.41970 -0.07544 0.45365
 O88 O 0.38140 -0.00606 0.48855
 C89 C 0.45675 0.12041 0.45481
 C90 C 0.61708 0.04887 0.52899
 C91 C 0.45411 0.02784 0.62544
 C92 C 0.53782 -0.11936 0.53950
 C93 C 0.53735 -0.02763 0.36808
 C94 C 0.37930 -0.04961 0.46459
 Zn95 Zn 1.03790 0.51790 0.43491
 Zn96 Zn 1.04046 0.45695 0.53889
 Zn97 Zn 0.98399 0.55861 0.53286
 Zn98 Zn 0.94216 0.46684 0.47509
 O99 O 1.00135 0.49990 0.49552
 O100 O 1.10133 0.49091 0.43498
 O101 O 1.05055 0.48400 0.60607
 O102 O 1.01006 0.61604 0.50387
 O103 O 1.10410 0.44509 0.51082
 O104 O 1.04721 0.58667 0.42882
 O105 O 1.00675 0.55782 0.60085
 O106 O 0.88455 0.49899 0.49733
 O107 O 1.01070 0.39395 0.54830
 O108 O 0.91586 0.56947 0.53675
 O109 O 0.93866 0.40232 0.50048
 O110 O 0.93578 0.46144 0.40321
 O111 O 1.00807 0.49685 0.37286
 C112 C 1.12540 0.46163 0.46769
 C113 C 1.03431 0.52607 0.62744
 C114 C 1.03502 0.62365 0.46048
 C115 C 0.87788 0.54206 0.52141
 C116 C 0.96841 0.37545 0.53023
 C117 C 0.96512 0.47449 0.36441
 Zn118 Zn 0.51407 0.43899 1.02728
 Zn119 Zn 0.46253 0.54360 1.03739
 Zn120 Zn 0.56248 0.53091 0.97674
 Zn121 Zn 0.46624 0.48769 0.93039
 O122 O 0.50111 0.50044 0.99321
 O123 O 0.48942 0.43857 1.09459
 O124 O 0.49473 0.60488 1.05047
 O125 O 0.61713 0.49620 1.00159
 O126 O 0.45052 0.51491 1.10319
 O127 O 0.58168 0.42472 1.03422
 O128 O 0.56780 0.59392 1.00496
 O129 O 0.49887 0.51042 0.87119
 O130 O 0.39962 0.55855 1.00872
 O131 O 0.57280 0.53845 0.90564
 O132 O 0.40392 0.51682 0.93010
 O133 O 0.45415 0.42028 0.91923
 O134 O 0.48544 0.38447 0.99382
 C135 C 0.46404 0.47122 1.12264
 C136 C 0.53868 0.62138 1.03490
 C137 C 0.62110 0.45221 1.02396
 C138 C 0.54356 0.52979 0.86537
 C139 C 0.37925 0.54457 0.96396
 C140 C 0.46199 0.38090 0.94879
 C141 C 1.25043 0.38537 0.45829
 C142 C 1.27665 0.40996 0.41554
 C143 C 1.25653 0.45822 0.39812
 C144 C 1.20845 0.47641 0.41729
 C145 C 1.17945 0.44731 0.45490
 C146 C 1.20331 0.40378 0.47771
 C147 C 1.18288 0.35035 0.48651
 C148 C 1.23436 0.33007 0.46525
 H149 H 1.27603 0.48058 0.36715
 H150 H 1.19279 0.51187 0.40038
 H151 H 1.14962 0.34101 0.45958
 H152 H 1.17666 0.34198 0.53022
 H153 H 1.23092 0.30891 0.42600
 H154 H 1.25764 0.30997 0.49677
 C155 C 0.25135 0.61717 0.95983
 C156 C 0.22650 0.59542 0.91433
 C157 C 0.24925 0.54999 0.89213
 C158 C 0.29796 0.53242 0.90983
 C159 C 0.32535 0.55919 0.95074
 C160 C 0.29931 0.59938 0.97757
 C161 C 0.31709 0.65248 0.99272
 C162 C 0.26451 0.67201 0.97392
 H163 H 0.23111 0.52932 0.85888
 H164 H 0.31512 0.49916 0.88963
 H165 H 0.34967 0.66615 0.96704
 H166 H 0.32312 0.65669 1.03717
 H167 H 0.26651 0.69765 0.93780
 H168 H 0.24052 0.68658 1.00811
 C169 C -0.25728 0.95500 0.09227
 C170 C -0.27990 0.90956 0.07180
 C171 C -0.25481 0.88547 0.02709
 C172 C -0.20577 0.90272 0.00928
 C173 C -0.18047 0.94384 0.03627
 C174 C -0.20894 0.97127 0.07537
 C175 C -0.19455 0.99020 0.13068
 C176 C -0.24763 0.97238 0.14933
 H177 H -0.27149 0.85163 0.00764
 H178 H -0.18634 0.88163 -0.02292
 H179 H -0.18980 1.03308 0.13208
 H180 H -0.16237 0.96755 0.14905
 H181 H -0.27341 1.00502 0.16147
 H182 H -0.24607 0.93951 0.17841
 C183 C 0.74146 0.06221 0.60696
 C184 C 0.76876 0.10262 0.58312
 C185 C 0.74472 0.12555 0.53709
 C186 C 0.69555 0.10807 0.51810
 C187 C 0.66895 0.06753 0.54495
 C188 C 0.69446 0.04599 0.58916
 C189 C 0.68880 0.00644 0.63254
 C190 C 0.74205 0.02470 0.65275
 H191 H 0.76346 0.15714 0.51600
 H192 H 0.67824 0.12680 0.48327
 H193 H 0.68888 -0.03383 0.61612
 H194 H 0.65668 0.01587 0.66094
 H195 H 0.77278 -0.00515 0.64770
 H196 H 0.74038 0.04449 0.69284
 C197 C 0.44158 0.24569 0.37573
 C198 C 0.39750 0.26876 0.39897
 C199 C 0.36991 0.23897 0.43733
 C200 C 0.38880 0.19052 0.45480
 C201 C 0.43616 0.17059 0.43507
 C202 C 0.46041 0.19806 0.39339
 C203 C 0.51537 0.21471 0.38758
 C204 C 0.49488 0.26682 0.36819
 H205 H 0.33431 0.25338 0.45505
 H206 H 0.36706 0.16962 0.48522
 H207 H 0.53591 0.19248 0.35537
 H208 H 0.53592 0.21702 0.42715
 H209 H 0.50368 0.27452 0.32483
 H210 H 0.50361 0.29942 0.39645
 C211 C 0.95788 0.24582 0.60190
 C212 C 0.91185 0.22500 0.58066
 C213 C 0.89059 0.25026 0.53491
 C214 C 0.91079 0.29787 0.51670
 C215 C 0.95291 0.32162 0.54347
 C216 C 0.97790 0.29274 0.58370
 C217 C 0.99521 0.30835 0.63913
 C218 C 0.97336 0.25709 0.65916
 H219 H 0.85658 0.23500 0.51477
 H220 H 0.89149 0.31735 0.48349
 H221 H 0.97405 0.34288 0.65494
 H222 H 1.03806 0.31054 0.64222
 H223 H 0.93956 0.26192 0.68666
 H224 H 1.00369 0.22990 0.67383
 C225 C 0.11645 0.75622 -0.04944
 C226 C 0.09153 0.72576 -0.08879
 C227 C 0.04219 0.74309 -0.10654
 C228 C 0.02184 0.79140 -0.08937
 C229 C 0.05047 0.82396 -0.05454
 C230 C 0.09661 0.80401 -0.03330
 C231 C 0.14882 0.82838 -0.03042
 C232 C 0.17071 0.77627 -0.04793
 H233 H 0.01986 0.72035 -0.13519
 H234 H -0.01505 0.80417 -0.10539
 H235 H 0.15956 0.83937 0.01175
 H236 H 0.15426 0.85938 -0.06117
 H237 H 0.19390 0.75795 -0.01542
 H238 H 0.18928 0.77696 -0.08861
 C239 C 0.55007 0.75093 1.10791
 C240 C 0.59554 0.77216 1.08600
 C241 C 0.62435 0.74052 1.05008
 C242 C 0.60612 0.69137 1.03426
 C243 C 0.55812 0.67255 1.05305
 C244 C 0.53180 0.70244 1.09171
 C245 C 0.47686 0.72019 1.09188
 C246 C 0.49660 0.77318 1.10933
 H247 H 0.66080 0.75370 1.03348
 H248 H 0.62912 0.66883 1.00595
 H249 H 0.45369 0.70053 1.12372
 H250 H 0.45926 0.71999 1.05070
 H251 H 0.48431 0.78405 1.15100
 H252 H 0.49054 0.80380 1.07827
 C253 C 0.39219 0.46288 1.25622
 C254 C 0.41251 0.41733 1.27902
 C255 C 0.45748 0.39641 1.25487
 C256 C 0.47616 0.41608 1.20543
 C257 C 0.45058 0.45738 1.17906
 C258 C 0.41092 0.48257 1.20757
 C259 C 0.35825 0.49864 1.18928
 C260 C 0.33773 0.47712 1.24244
 H261 H 0.47633 0.36269 1.27206
 H262 H 0.50874 0.39683 1.18634
 H263 H 0.34489 0.47660 1.15301
 H264 H 0.35447 0.54154 1.18627
 H265 H 0.31243 0.44259 1.23700
 H266 H 0.32211 0.50765 1.26996
 C267 C 0.54729 -0.10665 0.23932
 C268 C 0.58526 -0.08102 0.20926
 C269 C 0.60129 -0.03163 0.22815
 C270 C 0.58409 -0.01229 0.27889
 C271 C 0.55102 -0.04227 0.31176
 C272 C 0.53089 -0.08794 0.28912
 C273 C 0.52668 -0.14123 0.31241
 C274 C 0.54472 -0.16179 0.25781
 H275 H 0.62922 -0.00929 0.20537
 H276 H 0.59912 0.02437 0.29362
 H277 H 0.48599 -0.15172 0.32193
 H278 H 0.55493 -0.14833 0.34563
 H279 H 0.51437 -0.18422 0.23620
 H280 H 0.58338 -0.18078 0.25938
 C281 C -0.10897 1.04281 -0.26080
 C282 C -0.08856 1.08819 -0.28374
 C283 C -0.04307 1.10839 -0.25991
 C284 C -0.02381 1.08812 -0.21087
 C285 C -0.04917 1.04673 -0.18470
 C286 C -0.08961 1.02260 -0.21263
 C287 C -0.14189 1.00739 -0.19291
 C288 C -0.16318 1.02922 -0.24551
 H289 H -0.02408 1.14194 -0.27711
 H290 H 0.00913 1.10681 -0.19198
 H291 H -0.15416 1.02972 -0.15638
 H292 H -0.14610 0.96456 -0.18975
 H293 H -0.18818 1.06397 -0.23954
 H294 H -0.17927 0.99842 -0.27210
 C295 C 1.10966 0.53809 0.75844
 C296 C 1.08721 0.58209 0.78273
 C297 C 1.03985 0.59970 0.76098
 C298 C 1.02053 0.57878 0.71217
 C299 C 1.04788 0.53948 0.68407
 C300 C 1.09038 0.51719 0.71042
 C301 C 1.14322 0.50487 0.68959
 C302 C 1.16436 0.52770 0.74208
 H303 H 1.01941 0.63196 0.77949
 H304 H 0.98603 0.59582 0.69469
 H305 H 1.15354 0.52786 0.65307
 H306 H 1.14984 0.46235 0.68583
 H307 H 1.18698 0.56391 0.73600
 H308 H 1.18314 0.49826 0.76846
 C309 C 0.76460 0.63204 0.54505
 C310 C 0.72736 0.59861 0.56651
 C311 C 0.73670 0.54472 0.56285
 C312 C 0.78486 0.52587 0.54449
 C313 C 0.82493 0.56069 0.53144
 C314 C 0.81258 0.61357 0.52886
 C315 C 0.83998 0.66021 0.55057
 C316 C 0.78730 0.68060 0.56817
 H317 H 0.70794 0.51736 0.57690
 H318 H 0.79204 0.48442 0.54483
 H319 H 0.85791 0.68362 0.51781
 H320 H 0.86586 0.65103 0.58529
 H321 H 0.77496 0.71566 0.54539
 H322 H 0.78274 0.68332 0.61295
 C323 C 0.75329 0.44944 1.08598
 C324 C 0.77109 0.39861 1.07976
 C325 C 0.73805 0.36476 1.04995
 C326 C 0.68884 0.38181 1.03128
 C327 C 0.67252 0.43365 1.03972
 C328 C 0.70738 0.46624 1.06578
 C329 C 0.71182 0.51861 1.09106
 C330 C 0.76422 0.49989 1.11356
 H331 H 0.74888 0.32463 1.04299
 H332 H 0.66369 0.35456 1.01065
 H333 H 0.68220 0.52521 1.12305
 H334 H 0.71529 0.54987 1.06033
 H335 H 0.76460 0.49630 1.15844
 H336 H 0.79808 0.52012 1.09569
 C337 C 0.25851 1.04556 -0.06953
 C338 C 0.26892 1.09860 -0.07505
 C339 C 0.23264 1.13398 -0.05320
 C340 C 0.18433 1.11646 -0.03432
 C341 C 0.17225 1.06315 -0.03528
 C342 C 0.21166 1.02823 -0.04917
 C343 C 0.21072 0.98262 -0.08674
 C344 C 0.26200 1.00178 -0.10929
 H345 H 0.23981 1.17537 -0.05460
 H346 H 0.15566 1.14468 -0.02150
 H347 H 0.17844 0.98450 -0.11651
 H348 H 0.21419 0.94524 -0.06462
 H349 H 0.25925 1.01486 -0.15213
 H350 H 0.29490 0.97531 -0.10033
 C351 C 0.25355 -0.05955 0.38954
 C352 C 0.23190 -0.10590 0.40869
 C353 C 0.26288 -0.13685 0.44325
 C354 C 0.31170 -0.11915 0.46096
 C355 C 0.32937 -0.06952 0.44619
 C356 C 0.30077 -0.04171 0.40817
 C357 C 0.28347 0.01356 0.40839
 C358 C 0.23149 -0.00585 0.38787
 H359 H 0.24939 -0.17428 0.45719
 H360 H 0.33449 -0.14313 0.48794
 H361 H 0.30469 0.03722 0.37808
 H362 H 0.28163 0.03050 0.44992
 H363 H 0.22276 0.00672 0.34575
 H364 H 0.19946 -0.00009 0.41743
 C365 C 0.60894 -0.24654 0.53863
 C366 C 0.59504 -0.26925 0.58818
 C367 C 0.55590 -0.24402 0.61878
 C368 C 0.53698 -0.19491 0.60313
 C369 C 0.55541 -0.17103 0.55574
 C370 C 0.58872 -0.19927 0.52224
 C371 C 0.63850 -0.18306 0.49681
 C372 C 0.66084 -0.23476 0.51507
 H373 H 0.54190 -0.26054 0.65632
 H374 H 0.50894 -0.17517 0.62857
 H375 H 0.65625 -0.14900 0.51749
 H376 H 0.63522 -0.17975 0.45199
 H377 H 0.69134 -0.23064 0.54660
 H378 H 0.67074 -0.26111 0.48076
 C379 C 1.04566 0.75260 0.39014
 C380 C 1.08958 0.77469 0.41455
 C381 C 1.10961 0.74959 0.46105
 C382 C 1.08994 0.70127 0.47771
 C383 C 1.05088 0.67659 0.44753
 C384 C 1.02712 0.70449 0.40600
 C385 C 1.01403 0.68874 0.34942
 C386 C 1.03435 0.74140 0.33173
 H387 H 1.14186 0.76595 0.48333
 H388 H 1.10750 0.68174 0.51194
 H389 H 0.97164 0.68438 0.34341
 H390 H 1.03793 0.65564 0.33459
 H391 H 1.00366 0.76727 0.31537
 H392 H 1.06999 0.73882 0.30656
 C393 C -0.12409 1.23726 0.05913
 C394 C -0.09919 1.26751 0.09876
 C395 C -0.05626 1.24492 0.12555
 C396 C -0.03684 1.19608 0.10907
 C397 C -0.05919 1.16968 0.06488
 C398 C -0.10459 1.18963 0.04272
 C399 C -0.11902 1.19831 -0.01510
 C400 C -0.14047 1.25069 0.00271
 H401 H -0.03687 1.26521 0.15828
 H402 H -0.00335 1.17997 0.12940
 H403 H -0.14945 1.17090 -0.02907
 H404 H -0.08476 1.20137 -0.04218
 H405 H -0.18323 1.25343 -0.00118
 H406 H -0.11869 1.28418 -0.01408
 C407 C 0.39567 0.25100 0.95338
 C408 C 0.39949 0.23312 0.89992
 C409 C 0.41983 0.26718 0.86073
 C410 C 0.43966 0.31597 0.87630
 C411 C 0.44107 0.33057 0.93146
 C412 C 0.41662 0.29824 0.96889
 C413 C 0.43531 0.27733 1.02175
 C414 C 0.41220 0.22547 1.00483
 H415 H 0.42087 0.25596 0.81836
 H416 H 0.45570 0.34126 0.84563
 H417 H 0.41507 0.29546 1.05684
 H418 H 0.47824 0.27656 1.02473
 H419 H 0.37862 0.21380 1.03013
 H420 H 0.44168 0.19459 0.99810
 C421 C 0.54707 0.58576 0.72488
 C422 C 0.59998 0.58518 0.71266
 C423 C 0.63291 0.55657 0.74705
 C424 C 0.61416 0.53632 0.79621
 C425 C 0.56182 0.54273 0.81075
 C426 C 0.52826 0.56416 0.77237
 C427 C 0.48825 0.60561 0.77886
 C428 C 0.50903 0.62944 0.72691
 H429 H 0.67381 0.55328 0.73812
 H430 H 0.64099 0.51795 0.82394
 H431 H 0.49476 0.63022 0.81540
 H432 H 0.44835 0.59010 0.77450
 H433 H 0.52766 0.66783 0.73358
 H434 H 0.48102 0.62784 0.69273
 C435 C 0.45128 0.07957 0.76825
 C436 C 0.39836 0.08003 0.78040
 C437 C 0.36491 0.05322 0.74483
 C438 C 0.38332 0.03407 0.69479
 C439 C 0.43579 0.03973 0.68051
 C440 C 0.46970 0.05893 0.71993
 C441 C 0.51095 0.09919 0.71548
 C442 C 0.49060 0.12199 0.76838
 H443 H 0.32391 0.05087 0.75349
 H444 H 0.35615 0.01725 0.66627
 H445 H 0.50534 0.12518 0.68004
 H446 H 0.55035 0.08221 0.71931
 H447 H 0.47320 0.16121 0.76334
 H448 H 0.51837 0.11828 0.80258
 C449 C 0.12026 0.94654 0.25106
 C450 C 0.08920 0.91659 0.28524
 C451 C 0.03616 0.91244 0.27235
 C452 C 0.01707 0.93240 0.22298
 C453 C 0.05114 0.95514 0.18528
 C454 C 0.10192 0.96460 0.20196
 C455 C 0.15245 0.95547 0.17415
 C456 C 0.17274 0.93573 0.22819
 H457 H 0.01016 0.89151 0.29881
 H458 H -0.02316 0.92629 0.21251
 H459 H 0.17092 0.99232 0.16113
 H460 H 0.15041 0.92466 0.14249
 H461 H 0.20284 0.96126 0.24630
 H462 H 0.18240 0.89362 0.22773
 C463 C 0.87918 0.45465 0.24271
 C464 C 0.91030 0.42454 0.20835
 C465 C 0.96344 0.42071 0.22102
 C466 C 0.98265 0.44098 0.27039
 C467 C 0.94860 0.46358 0.30846
 C468 C 0.89765 0.47284 0.29197
 C469 C 0.84734 0.46348 0.31997
 C470 C 0.82695 0.44358 0.26592
 H471 H 0.98936 0.39935 0.19456
 H472 H 1.02289 0.43471 0.28078
 H473 H 0.82862 0.50025 0.33339
 H474 H 0.84974 0.43269 0.35136
 H475 H 0.79647 0.46893 0.24840
 H476 H 0.81767 0.40143 0.26611
   
