data_POSCAR
  _audit_creation_date              2014-09-24
  _audit_creation_method            'ToBaCCo'
  _symmetry_space_group_name_H-M    'P1'
  _symmetry_Int_Tables_number       1
  _symmetry_cell_setting            triclinic
  loop_
  _symmetry_equiv_pos_as_xyz
 x,y,z
_cell_length_a 34.9204
_cell_length_b 35.5149
_cell_length_c 34.3405
_cell_angle_alpha 90.498600
_cell_angle_beta 89.831700
_cell_angle_gamma 90.509500
loop_
  _atom_site_label
  _atom_site_type_symbol
  _atom_site_fract_x
  _atom_site_fract_y
  _atom_site_fract_z
C1 C 0.32810 0.28852 0.23280
 H2 H 0.33919 0.27274 0.25695
 C3 C 0.35256 0.31267 0.21245
 H4 H 0.38233 0.31490 0.22099
 C5 C 0.27573 0.30633 0.19356
 H6 H 0.24571 0.30407 0.18649
 C7 C 0.29912 0.33110 0.17267
 H8 H 0.28686 0.34719 0.14924
 N9 N 0.29042 0.28567 0.22309
 C10 C 0.19421 0.26747 0.30172
 H11 H 0.19089 0.23717 0.30036
 C12 C 0.16848 0.28903 0.32352
 H13 H 0.14600 0.27452 0.33897
 C14 C 0.22836 0.32229 0.28305
 H15 H 0.25169 0.33521 0.26716
 C16 C 0.20310 0.34492 0.30411
 H17 H 0.20711 0.37513 0.30309
 Zn18 Zn 0.25724 0.25398 0.25251
 N19 N 0.22356 0.28430 0.28226
 C20 C 0.28166 0.22607 0.32541
 N21 N 0.28698 0.22367 0.28620
 C22 C 0.31465 0.20130 0.27067
 C23 C 0.33832 0.18034 0.29480
 C24 C 0.30459 0.20549 0.35058
 C25 C 0.19713 0.24088 0.20057
 C26 C 0.17338 0.22066 0.17519
 C27 C 0.21084 0.16517 0.18725
 C28 C 0.23375 0.18640 0.21270
 N29 N 0.22697 0.22375 0.21839
 H30 H 0.26012 0.24448 0.33738
 H31 H 0.31885 0.20035 0.23946
 H32 H 0.36000 0.16262 0.28175
 H33 H 0.30025 0.20829 0.38170
 H34 H 0.19143 0.27025 0.20646
 H35 H 0.14982 0.23471 0.16112
 H36 H 0.21632 0.13546 0.18342
 H37 H 0.25672 0.17284 0.22791
 C38 C 0.17272 0.32847 0.32522
 C39 C 0.33806 0.33462 0.18217
 C40 C 0.18047 0.18247 0.16798
 C41 C 0.33363 0.18248 0.33540
 C42 C 0.82715 0.78908 0.22026
 H43 H 0.83949 0.77054 0.24143
 C44 C 0.85123 0.81277 0.19892
 H45 H 0.88167 0.81172 0.20453
 C46 C 0.77264 0.81424 0.18963
 H47 H 0.74196 0.81492 0.18619
 C48 C 0.79557 0.83904 0.16826
 H49 H 0.78161 0.85732 0.14779
 N50 N 0.78857 0.79000 0.21524
 C51 C 0.69381 0.77124 0.29557
 H52 H 0.68988 0.74108 0.29287
 C53 C 0.66877 0.79232 0.31866
 H54 H 0.64616 0.77754 0.33364
 C55 C 0.72895 0.82615 0.27917
 H56 H 0.75252 0.83927 0.26385
 C57 C 0.70436 0.84834 0.30156
 H58 H 0.70904 0.87848 0.30195
 Zn59 Zn 0.75595 0.75823 0.24543
 N60 N 0.72328 0.78833 0.27656
 C61 C 0.78185 0.73032 0.31755
 N62 N 0.78603 0.72724 0.27824
 C63 C 0.81223 0.70344 0.26231
 C64 C 0.83551 0.68170 0.28612
 C65 C 0.80440 0.70900 0.34239
 C66 C 0.69537 0.74629 0.19348
 C67 C 0.67086 0.72629 0.16865
 C68 C 0.70589 0.66972 0.18266
 C69 C 0.72959 0.69074 0.20750
 N70 N 0.72444 0.72851 0.21193
 H71 H 0.76145 0.74976 0.32986
 H72 H 0.81548 0.70180 0.23101
 H73 H 0.85599 0.66284 0.27278
 H74 H 0.80093 0.71234 0.37357
 H75 H 0.69072 0.77596 0.19858
 H76 H 0.64786 0.74080 0.15412
 H77 H 0.71007 0.63969 0.17977
 H78 H 0.75179 0.67665 0.22333
 C79 C 0.67382 0.83157 0.32219
 C80 C 0.83572 0.83880 0.17262
 C81 C 0.67638 0.68768 0.16271
 C82 C 0.83188 0.68448 0.32679
 C83 C 0.81403 0.27471 0.71407
 H84 H 0.82945 0.26269 0.73807
 C85 C 0.83415 0.29520 0.68607
 H86 H 0.86490 0.29840 0.68873
 C87 C 0.75533 0.28687 0.68240
 H88 H 0.72460 0.28377 0.68115
 C89 C 0.77429 0.30805 0.65404
 H90 H 0.75793 0.32074 0.63093
 N91 N 0.77535 0.27029 0.71145
 C92 C 0.69257 0.25753 0.80569
 H93 H 0.69017 0.22720 0.80761
 C94 C 0.67019 0.28041 0.82977
 H95 H 0.65132 0.26705 0.85062
 C96 C 0.72179 0.31107 0.77733
 H97 H 0.74221 0.32293 0.75705
 C98 C 0.69972 0.33500 0.80055
 H99 H 0.70346 0.36487 0.79691
 Zn100 Zn 0.74862 0.24104 0.74923
 N101 N 0.71802 0.27312 0.78042
 C102 C 0.78320 0.21932 0.82038
 N103 N 0.78454 0.21545 0.78103
 C104 C 0.81166 0.19379 0.76365
 C105 C 0.83883 0.17507 0.78587
 C106 C 0.80934 0.20061 0.84384
 C107 C 0.68305 0.21849 0.70729
 C108 C 0.65843 0.19376 0.68748
 C109 C 0.70102 0.14283 0.70272
 C110 C 0.72468 0.16842 0.72244
 N111 N 0.71580 0.20566 0.72378
 H112 H 0.76204 0.23721 0.83383
 H113 H 0.81224 0.19111 0.73224
 H114 H 0.85875 0.15733 0.77031
 H115 H 0.80761 0.20556 0.87490
 H116 H 0.67598 0.24800 0.70955
 H117 H 0.63315 0.20465 0.67356
 H118 H 0.70874 0.11337 0.70135
 H119 H 0.75019 0.15836 0.73636
 C120 C 0.67340 0.31992 0.82748
 C121 C 0.81428 0.31196 0.65539
 C122 C 0.66754 0.15549 0.68492
 C123 C 0.83826 0.17793 0.82702
 C124 C 0.31416 0.76763 0.71134
 H125 H 0.32872 0.75380 0.73484
 C126 C 0.33552 0.78822 0.68431
 H127 H 0.36635 0.78979 0.68732
 C128 C 0.25643 0.78409 0.68000
 H129 H 0.22560 0.78279 0.67862
 C130 C 0.27664 0.80528 0.65260
 H131 H 0.26107 0.81966 0.63001
 N132 N 0.27531 0.76559 0.70857
 C133 C 0.19006 0.75672 0.80093
 H134 H 0.18625 0.72652 0.80278
 C135 C 0.16771 0.78060 0.82400
 H136 H 0.14727 0.76794 0.84353
 C137 C 0.22218 0.80893 0.77308
 H138 H 0.24347 0.81990 0.75319
 C139 C 0.20020 0.83381 0.79525
 H140 H 0.20445 0.86369 0.79101
 Zn141 Zn 0.24645 0.73764 0.74575
 N142 N 0.21686 0.77115 0.77635
 C143 C 0.27859 0.71498 0.81765
 N144 N 0.28021 0.71026 0.77832
 C145 C 0.30530 0.68572 0.76175
 C146 C 0.32863 0.66345 0.78494
 C147 C 0.30144 0.69334 0.84193
 C148 C 0.18078 0.71839 0.70206
 C149 C 0.15538 0.69489 0.68164
 C150 C 0.19446 0.64179 0.69855
 C151 C 0.21889 0.66618 0.71888
 N152 N 0.21225 0.70390 0.71960
 H153 H 0.25914 0.73510 0.83040
 H154 H 0.30675 0.68302 0.73037
 H155 H 0.34815 0.64396 0.77107
 H156 H 0.29882 0.69679 0.87318
 H157 H 0.17527 0.74824 0.70398
 H158 H 0.13113 0.70700 0.66695
 H159 H 0.20048 0.61192 0.69766
 H160 H 0.24317 0.65471 0.73377
 C161 C 0.17267 0.81991 0.82168
 C162 C 0.31675 0.80734 0.65439
 C163 C 0.16241 0.65616 0.67954
 C164 C 0.32638 0.66661 0.82567
 C165 C 0.06697 0.06009 0.00699
 H166 H 0.06976 0.05837 -0.02436
 C167 C 0.08965 0.08553 0.02813
 H168 H 0.10995 0.10331 0.01285
 C169 C 0.03608 0.03993 0.06478
 H170 H 0.01459 0.02279 0.07894
 C171 C 0.05790 0.06522 0.08700
 H172 H 0.05359 0.06645 0.11822
 N173 N 0.04114 0.03761 0.02553
 C174 C 0.02087 -0.05213 -0.06025
 H175 H -0.01008 -0.05188 -0.06146
 C176 C 0.04136 -0.07654 -0.08444
 H177 H 0.02583 -0.09456 -0.10459
 C178 C 0.07839 -0.02835 -0.03277
 H179 H 0.09272 -0.01004 -0.01209
 C180 C 0.10002 -0.05261 -0.05611
 H181 H 0.13082 -0.05258 -0.05281
 Zn182 Zn 0.00967 0.00549 -0.00534
 N183 N 0.03958 -0.02793 -0.03586
 C184 C -0.02007 0.03411 -0.07672
 N185 N -0.02001 0.03718 -0.03721
 C186 C -0.04022 0.06452 -0.01864
 C187 C -0.06177 0.09007 -0.03984
 C188 C -0.04171 0.05875 -0.09906
 C189 C -0.00565 -0.04669 0.05324
 C190 C -0.02792 -0.06813 0.07869
 C191 C -0.08466 -0.04468 0.04738
 C192 C -0.06126 -0.02312 0.02299
 N193 N -0.02255 -0.02405 0.02677
 H194 H -0.00325 0.01276 -0.09111
 H195 H -0.03921 0.06668 0.01279
 H196 H -0.07699 0.11200 -0.02433
 H197 H -0.04196 0.05505 -0.13036
 H198 H 0.02526 -0.04732 0.05519
 H199 H -0.01369 -0.08474 0.10050
 H200 H -0.11534 -0.04380 0.04332
 H201 H -0.07409 -0.00578 0.00096
 C202 C 0.08159 -0.07672 -0.08297
 C203 C 0.08506 0.08849 0.06867
 C204 C -0.06811 -0.06717 0.07628
 C205 C -0.06282 0.08745 -0.08071
 C206 C 0.04322 0.54754 0.51705
 H207 H 0.04672 0.54992 0.48585
 C208 C 0.06707 0.56811 0.54202
 H209 H 0.08880 0.58652 0.52984
 C210 C 0.01039 0.52069 0.57070
 H211 H -0.01189 0.50235 0.58174
 C212 C 0.03330 0.54118 0.59677
 H213 H 0.02884 0.53797 0.62779
 N214 N 0.01632 0.52358 0.53165
 C215 C 0.00519 0.44431 0.43449
 H216 H -0.02532 0.44512 0.42925
 C217 C 0.02871 0.42267 0.41029
 H218 H 0.01603 0.40735 0.38612
 C219 C 0.05859 0.46371 0.47221
 H220 H 0.07009 0.47900 0.49690
 C221 C 0.08308 0.44218 0.44903
 H222 H 0.11316 0.44132 0.45642
 Zn223 Zn -0.01258 0.49501 0.49516
 N224 N 0.02054 0.46512 0.46408
 C225 C -0.03368 0.53228 0.42521
 N226 N -0.03961 0.52974 0.46428
 C227 C -0.06385 0.55348 0.48315
 C228 C -0.08378 0.58074 0.46258
 C229 C -0.05311 0.55908 0.40347
 C230 C -0.03116 0.43565 0.54451
 C231 C -0.05447 0.40951 0.56356
 C232 C -0.10951 0.43689 0.53259
 C233 C -0.08513 0.46271 0.51432
 N234 N -0.04674 0.46177 0.52075
 H235 H -0.01358 0.51390 0.41081
 H236 H -0.06748 0.55132 0.51435
 H237 H -0.10262 0.59959 0.47830
 H238 H -0.04839 0.56012 0.37234
 H239 H -0.00047 0.43528 0.54874
 H240 H -0.04135 0.38964 0.58303
 H241 H -0.13992 0.43778 0.52666
 H242 H -0.09688 0.48306 0.49456
 C243 C 0.06838 0.42178 0.41708
 C244 C 0.06261 0.56462 0.58245
 C245 C -0.09427 0.40971 0.55757
 C246 C -0.07849 0.58392 0.42215
 C247 C 0.54880 0.04592 0.52333
 H248 H 0.55178 0.04904 0.49215
 C249 C 0.57292 0.06608 0.54839
 H250 H 0.59428 0.08494 0.53628
 C251 C 0.51693 0.01774 0.57683
 H252 H 0.49489 -0.00093 0.58777
 C253 C 0.54017 0.03774 0.60300
 H254 H 0.53618 0.03384 0.63400
 N255 N 0.52219 0.02157 0.53778
 C256 C 0.50927 -0.05514 0.43877
 H257 H 0.47867 -0.05402 0.43413
 C258 C 0.53225 -0.07614 0.41347
 H259 H 0.51904 -0.09069 0.38908
 C260 C 0.56344 -0.03696 0.47599
 H261 H 0.57545 -0.02234 0.50086
 C262 C 0.58741 -0.05794 0.45171
 H263 H 0.61761 -0.05910 0.45847
 Zn264 Zn 0.49271 -0.00598 0.50095
 N265 N 0.52525 -0.03521 0.46865
 C266 C 0.47148 0.03317 0.43227
 N267 N 0.46550 0.02959 0.47123
 C268 C 0.44096 0.05262 0.49066
 C269 C 0.42059 0.08001 0.47073
 C270 C 0.45169 0.06019 0.41118
 C271 C 0.47401 -0.06645 0.54911
 C272 C 0.45054 -0.09299 0.56741
 C273 C 0.39573 -0.06479 0.53681
 C274 C 0.42025 -0.03862 0.51932
 N275 N 0.45860 -0.03974 0.52594
 H276 H 0.49185 0.01540 0.41743
 H277 H 0.43730 0.04966 0.52179
 H278 H 0.40135 0.09817 0.48683
 H279 H 0.45642 0.06203 0.38009
 H280 H 0.50468 -0.06702 0.55344
 H281 H 0.46350 -0.11336 0.58643
 H282 H 0.36537 -0.06371 0.53068
 H283 H 0.40862 -0.01788 0.49992
 C284 C 0.57203 -0.07737 0.41944
 C285 C 0.56909 0.06172 0.58879
 C286 C 0.41076 -0.09256 0.56123
 C287 C 0.42584 0.08413 0.43040
 C288 C 0.56096 0.56023 0.00778
 H289 H 0.56322 0.55742 -0.02354
 C290 C 0.58317 0.58711 0.02746
 H291 H 0.60253 0.60498 0.01108
 C292 C 0.53214 0.54097 0.06699
 H293 H 0.51173 0.52344 0.08224
 C294 C 0.55353 0.56771 0.08779
 H295 H 0.54999 0.56976 0.11906
 N296 N 0.53643 0.53750 0.02773
 C297 C 0.52034 0.44401 -0.05435
 H298 H 0.48946 0.44370 -0.05689
 C299 C 0.54214 0.41843 -0.07592
 H300 H 0.52764 0.39917 -0.09564
 C301 C 0.57634 0.47009 -0.02579
 H302 H 0.58954 0.48969 -0.00560
 C303 C 0.59920 0.44475 -0.04644
 H304 H 0.62985 0.44539 -0.04188
 Zn305 Zn 0.50627 0.50280 -0.00133
 N306 N 0.53768 0.46958 -0.03040
 C307 C 0.47547 0.52810 -0.07366
 N308 N 0.47467 0.53157 -0.03419
 C309 C 0.45130 0.55675 -0.01620
 C310 C 0.42624 0.57853 -0.03787
 C311 C 0.45083 0.54939 -0.09653
 C312 C 0.49405 0.45182 0.05922
 C313 C 0.47305 0.43026 0.08569
 C314 C 0.41486 0.45108 0.05507
 C315 C 0.43698 0.47245 0.02936
 N316 N 0.47580 0.47305 0.03238
 H317 H 0.49515 0.50890 -0.08755
 H318 H 0.45171 0.55937 0.01521
 H319 H 0.40714 0.59760 -0.02277
 H320 H 0.45194 0.54623 -0.12789
 H321 H 0.52500 0.45230 0.06054
 H322 H 0.48817 0.41452 0.10759
 H323 H 0.38404 0.45088 0.05189
 H324 H 0.42302 0.48841 0.00695
 C325 C 0.58223 0.41850 -0.07212
 C326 C 0.57949 0.59120 0.06800
 C327 C 0.43282 0.43004 0.08418
 C328 C 0.42538 0.57468 -0.07861
 C329 C 0.11057 -0.16103 -0.14506
 C330 C 0.14903 -0.15338 -0.15461
 C331 C 0.16344 -0.11737 -0.14396
 C332 C 0.14127 -0.09188 -0.12206
 C333 C 0.10395 -0.10156 -0.10963
 C334 C 0.08867 -0.13562 -0.12367
 C335 C 0.06782 -0.16579 -0.10228
 C336 C 0.09211 -0.19374 -0.12478
 H337 H 0.19253 -0.10917 -0.15100
 H338 H 0.15394 -0.06500 -0.11411
 H339 H 0.03701 -0.16723 -0.11022
 H340 H 0.07380 -0.16523 -0.07049
 H341 H 0.07512 -0.21182 -0.14502
 H342 H 0.11215 -0.20900 -0.10551
 C343 C 0.10631 0.34428 0.35080
 C344 C 0.14561 0.35280 0.34770
 C345 C 0.15792 0.38768 0.36375
 C346 C 0.13264 0.41092 0.38476
 C347 C 0.09416 0.40000 0.39085
 C348 C 0.08135 0.36752 0.37131
 C349 C 0.05805 0.33541 0.38617
 C350 C 0.08558 0.30975 0.36466
 H351 H 0.18757 0.39653 0.36173
 H352 H 0.14374 0.43689 0.39718
 H353 H 0.02870 0.33487 0.37372
 H354 H 0.05946 0.33280 0.41838
 H355 H 0.07184 0.29379 0.34038
 H356 H 0.10281 0.29261 0.38498
 C357 C 0.60807 -0.15289 0.34966
 C358 C 0.64740 -0.14462 0.34611
 C359 C 0.66034 -0.11045 0.36328
 C360 C 0.63567 -0.08773 0.38563
 C361 C 0.59720 -0.09850 0.39202
 C362 C 0.58373 -0.13017 0.37153
 C363 C 0.56040 -0.16257 0.38566
 C364 C 0.58727 -0.18771 0.36265
 H365 H 0.69004 -0.10181 0.36109
 H366 H 0.64726 -0.06231 0.39881
 H367 H 0.53082 -0.16243 0.37380
 H368 H 0.56240 -0.16632 0.41770
 H369 H 0.57292 -0.20270 0.33809
 H370 H 0.60473 -0.20571 0.38195
 C371 C 0.66523 0.37847 -0.13045
 C372 C 0.65043 0.34457 -0.14592
 C373 C 0.61410 0.33285 -0.13192
 C374 C 0.59249 0.35587 -0.10665
 C375 C 0.60637 0.39153 -0.09456
 C376 C 0.64399 0.40087 -0.10516
 C377 C 0.65960 0.43663 -0.12127
 C378 C 0.68222 0.41253 -0.14963
 H379 H 0.60134 0.30661 -0.14177
 H380 H 0.56447 0.34603 -0.09762
 H381 H 0.67799 0.45200 -0.09997
 H382 H 0.63729 0.45390 -0.13547
 H383 H 0.71369 0.41474 -0.14524
 H384 H 0.67241 0.41617 -0.18013
 C385 C -0.14162 0.15463 -0.11006
 C386 C -0.13556 0.15991 -0.15030
 C387 C -0.10042 0.14581 -0.16533
 C388 C -0.07585 0.12396 -0.14240
 C389 C -0.08554 0.11471 -0.10375
 C390 C -0.11756 0.13256 -0.08776
 C391 C -0.14978 0.11625 -0.06470
 C392 C -0.17631 0.14008 -0.08896
 H393 H -0.09107 0.15154 -0.19471
 H394 H -0.04975 0.11360 -0.15554
 H395 H -0.14878 0.12516 -0.03361
 H396 H -0.15359 0.08548 -0.06979
 H397 H -0.19072 0.16234 -0.07148
 H398 H -0.19562 0.12316 -0.10812
 C399 C -0.15661 0.64970 0.38897
 C400 C -0.14313 0.66256 0.35299
 C401 C -0.10477 0.65438 0.34322
 C402 C -0.08295 0.63009 0.36644
 C403 C -0.09901 0.61326 0.39994
 C404 C -0.13521 0.62572 0.41175
 C405 C -0.16979 0.60372 0.42390
 C406 C -0.19325 0.63003 0.39893
 H407 H -0.09194 0.66572 0.31704
 H408 H -0.05403 0.62362 0.35735
 H409 H -0.17584 0.60684 0.45555
 H410 H -0.16950 0.57421 0.41280
 H411 H -0.21274 0.64827 0.41624
 H412 H -0.20661 0.61582 0.37331
 C413 C 0.34571 0.14763 0.39748
 C414 C 0.35918 0.16154 0.36191
 C415 C 0.39806 0.15520 0.35274
 C416 C 0.42052 0.13145 0.37590
 C417 C 0.40463 0.11339 0.40878
 C418 C 0.36778 0.12421 0.42024
 C419 C 0.33397 0.10067 0.43153
 C420 C 0.30978 0.12636 0.40658
 H421 H 0.41082 0.16746 0.32698
 H422 H 0.44981 0.12623 0.36717
 H423 H 0.32736 0.10309 0.46313
 H424 H 0.33565 0.07136 0.42001
 H425 H 0.28929 0.14355 0.42386
 H426 H 0.29738 0.11200 0.38056
 C427 C 0.36145 0.65384 -0.11210
 C428 C 0.34893 0.64159 -0.14880
 C429 C 0.35728 0.60408 -0.15965
 C430 C 0.38125 0.58180 -0.13648
 C431 C 0.39751 0.59645 -0.10185
 C432 C 0.38506 0.63193 -0.08932
 C433 C 0.40767 0.66532 -0.07559
 C434 C 0.38178 0.68934 -0.10056
 H435 H 0.34608 0.59215 -0.18645
 H436 H 0.38766 0.55349 -0.14623
 H437 H 0.43789 0.66483 -0.08590
 H438 H 0.40394 0.67062 -0.04386
 H439 H 0.39693 0.70282 -0.12540
 H440 H 0.36319 0.70840 -0.08317
 C441 C -0.10107 -0.14333 0.14631
 C442 C -0.14017 -0.13586 0.15201
 C443 C -0.15362 -0.10137 0.13695
 C444 C -0.12998 -0.07824 0.11377
 C445 C -0.09228 -0.08904 0.10412
 C446 C -0.07804 -0.12081 0.12290
 C447 C -0.05708 -0.15374 0.10641
 C448 C -0.08220 -0.17847 0.13191
 H449 H -0.18236 -0.09177 0.14290
 H450 H -0.14178 -0.05236 0.10284
 H451 H -0.02647 -0.15381 0.11520
 H452 H -0.06231 -0.15788 0.07473
 H453 H -0.06587 -0.19276 0.15517
 H454 H -0.10201 -0.19706 0.11506
 C455 C -0.17968 0.36687 0.61012
 C456 C -0.16487 0.33352 0.62512
 C457 C -0.12894 0.32177 0.61089
 C458 C -0.10671 0.34548 0.58694
 C459 C -0.11972 0.38172 0.57701
 C460 C -0.15766 0.39039 0.58681
 C461 C -0.17387 0.42502 0.60522
 C462 C -0.19801 0.39922 0.63071
 H463 H -0.11722 0.29503 0.61967
 H464 H -0.07871 0.33600 0.57780
 H465 H -0.19119 0.44151 0.58442
 H466 H -0.15209 0.44160 0.62177
 H467 H -0.22917 0.40083 0.62449
 H468 H -0.19028 0.40082 0.66208
 C469 C 0.32446 -0.13629 0.61138
 C470 C 0.33869 -0.17022 0.62556
 C471 C 0.37489 -0.18173 0.61175
 C472 C 0.39773 -0.15742 0.58901
 C473 C 0.38506 -0.12086 0.57983
 C474 C 0.34703 -0.11225 0.58923
 C475 C 0.33074 -0.07804 0.60841
 C476 C 0.30599 -0.10441 0.63264
 H477 H 0.38625 -0.20882 0.61981
 H478 H 0.42584 -0.16680 0.58009
 H479 H 0.31390 -0.06083 0.58783
 H480 H 0.35233 -0.06209 0.62584
 H481 H 0.27497 -0.10239 0.62593
 H482 H 0.31318 -0.10378 0.66417
 C483 C 0.40173 0.35300 0.15365
 C484 C 0.36337 0.36150 0.16129
 C485 C 0.35004 0.39676 0.14874
 C486 C 0.37309 0.41998 0.12505
 C487 C 0.40993 0.40837 0.11308
 C488 C 0.42434 0.37573 0.13013
 C489 C 0.44373 0.34268 0.11186
 C490 C 0.41896 0.31778 0.13768
 H491 H 0.32140 0.40588 0.15609
 H492 H 0.36142 0.44633 0.11515
 H493 H 0.47465 0.34166 0.11932
 H494 H 0.43716 0.33957 0.08032
 H495 H 0.43564 0.30254 0.16000
 H496 H 0.39800 0.30017 0.12116
 C497 C 0.16951 0.14538 0.10640
 C498 C 0.15546 0.16104 0.14108
 C499 C 0.11572 0.15834 0.14795
 C500 C 0.09226 0.13583 0.12365
 C501 C 0.10799 0.11618 0.09151
 C502 C 0.14627 0.12390 0.08207
 C503 C 0.17807 0.09811 0.07112
 C504 C 0.20364 0.12154 0.09795
 H505 H 0.10319 0.17195 0.17324
 H506 H 0.06219 0.13281 0.13082
 H507 H 0.18604 0.10055 0.03988
 H508 H 0.17316 0.06887 0.08146
 H509 H 0.22639 0.13731 0.08211
 H510 H 0.21360 0.10544 0.12351
 C511 C 0.09953 0.62333 0.66720
 C512 C 0.13761 0.63057 0.65662
 C513 C 0.15267 0.61019 0.62480
 C514 C 0.12859 0.58765 0.60123
 C515 C 0.08906 0.58447 0.60950
 C516 C 0.07600 0.60050 0.64444
 C517 C 0.04163 0.62392 0.65263
 C518 C 0.06742 0.64909 0.67751
 H519 H 0.18260 0.61325 0.61697
 H520 H 0.14064 0.57381 0.57586
 H521 H 0.01971 0.60842 0.66988
 H522 H 0.03066 0.63803 0.62617
 H523 H 0.06020 0.64815 0.70903
 H524 H 0.07095 0.67778 0.66535
 C525 C 0.60585 0.11996 0.67390
 C526 C 0.64341 0.12875 0.66262
 C527 C 0.65857 0.10921 0.63027
 C528 C 0.63481 0.08612 0.60690
 C529 C 0.59556 0.08154 0.61588
 C530 C 0.58271 0.09658 0.65135
 C531 C 0.54758 0.11841 0.66090
 C532 C 0.57293 0.14420 0.68558
 H533 H 0.68818 0.11350 0.62179
 H534 H 0.64683 0.07309 0.58106
 H535 H 0.52679 0.10174 0.67841
 H536 H 0.53532 0.13249 0.63502
 H537 H 0.56660 0.14242 0.71725
 H538 H 0.57484 0.17320 0.67388
 C539 C 0.66385 0.65048 0.10163
 C540 C 0.65064 0.66638 0.13652
 C541 C 0.61120 0.66322 0.14476
 C542 C 0.58736 0.63994 0.12161
 C543 C 0.60243 0.61997 0.08935
 C544 C 0.64024 0.62821 0.07848
 C545 C 0.67221 0.60282 0.06695
 C546 C 0.69818 0.62722 0.09243
 H547 H 0.59932 0.67692 0.17032
 H548 H 0.55760 0.63648 0.12988
 H549 H 0.67911 0.60481 0.03541
 H550 H 0.66824 0.57370 0.07801
 H551 H 0.72003 0.64316 0.07552
 H552 H 0.70938 0.61186 0.11796
   
