data_POSCAR
  _audit_creation_date              2014-09-24
  _audit_creation_method            'ToBaCCo'
  _symmetry_space_group_name_H-M    'P1'
  _symmetry_Int_Tables_number       1
  _symmetry_cell_setting            triclinic
  loop_
  _symmetry_equiv_pos_as_xyz
 x,y,z
_cell_length_a 20.3718
_cell_length_b 20.3718
_cell_length_c 36.3289
_cell_angle_alpha 90.000000
_cell_angle_beta 90.000000
_cell_angle_gamma 119.999800
loop_
  _atom_site_label
  _atom_site_type_symbol
  _atom_site_fract_x
  _atom_site_fract_y
  _atom_site_fract_z
Zn1 Zn 0.94986 0.04795 1.01678
 Zn2 Zn 1.09809 0.05013 1.01677
 Zn3 Zn 0.95205 -0.09809 1.01677
 Zn4 Zn 1.00000 -0.00000 0.95025
 O5 O 1.00000 -0.00000 1.00027
 O6 O 1.00880 0.12913 1.04462
 O7 O 1.12034 -0.00881 1.04462
 O8 O 0.87086 -0.12034 1.04462
 O9 O 1.11815 0.13066 1.04464
 O10 O 0.86934 -0.01252 1.04464
 O11 O 1.01251 -0.11816 1.04464
 O12 O 0.95489 -0.09284 0.93111
 O13 O 1.16678 0.08538 0.98016
 O14 O 0.91860 -0.16679 0.98016
 O15 O 1.09283 0.04772 0.93111
 O16 O 0.95227 0.04511 0.93111
 O17 O 0.91461 0.08139 0.98016
 C18 C 1.07758 0.15872 1.05461
 C19 C 1.08114 -0.07758 1.05461
 C20 C 0.84128 -0.08115 1.05461
 C21 C 0.92289 -0.15835 0.94544
 C22 C 1.15835 0.08124 0.94544
 C23 C 0.91876 0.07710 0.94544
 Zn24 Zn 0.04795 0.94986 0.51677
 Zn25 Zn -0.09809 0.95205 0.51677
 Zn26 Zn 0.05014 1.09808 0.51677
 Zn27 Zn -0.00000 1.00000 0.45025
 O28 O -0.00000 1.00000 0.50027
 O29 O -0.01251 0.86933 0.54464
 O30 O -0.11815 1.01251 0.54464
 O31 O 0.13066 1.11815 0.54464
 O32 O -0.12034 0.87086 0.54462
 O33 O 0.12914 1.00880 0.54462
 O34 O -0.00880 1.12033 0.54462
 O35 O 0.04772 1.09283 0.43111
 O36 O -0.16678 0.91860 0.48016
 O37 O 0.08539 1.16678 0.48016
 O38 O -0.09284 0.95489 0.43111
 O39 O 0.04511 0.95227 0.43111
 O40 O 0.08139 0.91461 0.48016
 C41 C -0.08114 0.84128 0.55461
 C42 C -0.07758 1.08114 0.55461
 C43 C 0.15872 1.07757 0.55461
 C44 C 0.08124 1.15834 0.44544
 C45 C -0.15835 0.92289 0.44544
 C46 C 0.07711 0.91876 0.44544
 O47 O 0.21926 0.53496 0.28119
 O48 O 0.22216 0.66293 0.29261
 C49 C 0.25749 0.73340 0.29901
 O50 O 0.31570 0.78074 0.28119
 O51 O 0.44078 0.77784 0.29261
 C52 C 0.47591 0.74250 0.29901
 O53 O 0.46504 0.68429 0.28119
 O54 O 0.33706 0.55922 0.29261
 C55 C 0.26659 0.52408 0.29901
 O56 O 0.22219 0.55874 0.20808
 O57 O 0.21889 0.68386 0.21948
 C58 C 0.26601 0.74240 0.20177
 O59 O 0.33655 0.77781 0.20808
 O60 O 0.46497 0.78110 0.21948
 C61 C 0.47639 0.73398 0.20177
 O62 O 0.44126 0.66344 0.20808
 O63 O 0.31614 0.53503 0.21948
 C64 C 0.25760 0.52361 0.20177
 Cr65 Cr 0.22490 0.61228 0.25033
 Cr66 Cr 0.38738 0.77510 0.25033
 Cr67 Cr 0.38772 0.61261 0.25033
 O68 O 0.33333 0.66666 0.25027
 O69 O 0.77784 0.44077 0.79261
 O70 O 0.78074 0.31570 0.78119
 C71 C 0.73340 0.25749 0.79901
 O72 O 0.66293 0.22216 0.79261
 O73 O 0.53496 0.21926 0.78119
 C74 C 0.52408 0.26659 0.79901
 O75 O 0.55922 0.33706 0.79261
 O76 O 0.68429 0.46503 0.78119
 C77 C 0.74251 0.47591 0.79901
 O78 O 0.78111 0.46496 0.71948
 O79 O 0.77781 0.33655 0.70808
 C80 C 0.74240 0.26601 0.70177
 O81 O 0.68386 0.21889 0.71948
 O82 O 0.55874 0.22218 0.70808
 C83 C 0.52361 0.25760 0.70177
 O84 O 0.53503 0.31614 0.71948
 O85 O 0.66344 0.44125 0.70808
 C86 C 0.73398 0.47638 0.70177
 Cr87 Cr 0.77510 0.38738 0.75033
 Cr88 Cr 0.61228 0.22490 0.75033
 Cr89 Cr 0.61262 0.38772 0.75033
 O90 O 0.66666 0.33333 0.75027
 C91 C 0.17288 0.35311 0.12595
 C92 C 0.21742 0.32279 0.11387
 C93 C 0.18674 0.26008 0.09033
 C94 C 0.11088 0.22672 0.07859
 C95 C 0.06684 0.25824 0.09053
 C96 C 0.09767 0.32096 0.11408
 C97 C 0.20336 0.41507 0.15174
 C98 C 0.22844 0.46555 0.17411
 H99 H 0.27562 0.34704 0.12300
 H100 H 0.22223 0.23731 0.08165
 H101 H 0.00830 0.23401 0.08202
 H102 H 0.06258 0.34379 0.12338
 C103 C 0.64688 0.81975 0.12595
 C104 C 0.67721 0.89462 0.11387
 C105 C 0.73991 0.92665 0.09033
 C106 C 0.77328 0.88415 0.07859
 C107 C 0.74175 0.80858 0.09053
 C108 C 0.67904 0.77671 0.11408
 C109 C 0.58492 0.78828 0.15174
 C110 C 0.53444 0.76288 0.17411
 H111 H 0.65295 0.92857 0.12300
 H112 H 0.76268 0.98491 0.08165
 H113 H 0.76599 0.77429 0.08202
 H114 H 0.65621 0.71878 0.12338
 C115 C 0.18024 0.82712 0.12594
 C116 C 0.10537 0.78258 0.11387
 C117 C 0.07335 0.81325 0.09033
 C118 C 0.11584 0.88912 0.07858
 C119 C 0.19141 0.93316 0.09053
 C120 C 0.22329 0.90232 0.11408
 C121 C 0.21171 0.79664 0.15174
 C122 C 0.23712 0.77156 0.17411
 H123 H 0.07143 0.72438 0.12300
 H124 H 0.01509 0.77777 0.08165
 H125 H 0.22571 0.99169 0.08202
 H126 H 0.28121 0.93741 0.12338
 C127 C 0.81976 0.64688 0.62595
 C128 C 0.77671 0.67903 0.61408
 C129 C 0.80859 0.74175 0.59053
 C130 C 0.88416 0.77328 0.57859
 C131 C 0.92665 0.73991 0.59033
 C132 C 0.89463 0.67720 0.61387
 C133 C 0.78828 0.58492 0.65174
 C134 C 0.76288 0.53444 0.67411
 H135 H 0.71879 0.65621 0.62338
 H136 H 0.77429 0.76598 0.58202
 H137 H 0.98491 0.76268 0.58165
 H138 H 0.92857 0.65295 0.62300
 C139 C 0.35312 0.17287 0.62595
 C140 C 0.32279 0.21742 0.61387
 C141 C 0.26009 0.18674 0.59033
 C142 C 0.22672 0.11088 0.57859
 C143 C 0.25825 0.06683 0.59053
 C144 C 0.32096 0.09767 0.61408
 C145 C 0.41507 0.20336 0.65174
 C146 C 0.46556 0.22844 0.67411
 H147 H 0.34704 0.27561 0.62300
 H148 H 0.23731 0.22222 0.58165
 H149 H 0.23401 0.00830 0.58202
 H150 H 0.34379 0.06258 0.62338
 C151 C 0.82712 0.18024 0.62595
 C152 C 0.78258 0.10537 0.61387
 C153 C 0.81326 0.07334 0.59033
 C154 C 0.88912 0.11584 0.57858
 C155 C 0.93316 0.19141 0.59053
 C156 C 0.90232 0.22329 0.61408
 C157 C 0.79664 0.21171 0.65174
 C158 C 0.77156 0.23711 0.67411
 H159 H 0.72438 0.07143 0.62300
 H160 H 0.77777 0.01508 0.58165
 H161 H 0.99169 0.22571 0.58202
 H162 H 0.93742 0.28121 0.62338
 C163 C 0.35172 0.18032 0.87359
 C164 C 0.27835 0.14331 0.85907
 C165 C 0.21572 0.11127 0.88249
 C166 C 0.22546 0.11574 0.92095
 C167 C 0.29952 0.15320 0.93539
 C168 C 0.36232 0.18531 0.91179
 C169 C 0.41535 0.21246 0.84884
 C170 C 0.46628 0.23796 0.82674
 H171 H 0.26951 0.13909 0.82955
 H172 H 0.15960 0.08292 0.87041
 H173 H 0.30891 0.15761 0.96485
 H174 H 0.41896 0.21385 0.92331
 C175 C 0.82860 0.64828 0.87359
 C176 C 0.86495 0.72164 0.85907
 C177 C 0.89556 0.78428 0.88249
 C178 C 0.89028 0.77453 0.92095
 C179 C 0.85368 0.70048 0.93539
 C180 C 0.82299 0.63768 0.91179
 C181 C 0.79711 0.58464 0.84884
 C182 C 0.77168 0.53371 0.82674
 H183 H 0.86958 0.73048 0.82955
 H184 H 0.92332 0.84039 0.87041
 H185 H 0.84869 0.69108 0.96485
 H186 H 0.79488 0.58104 0.92331
 C187 C 0.81967 0.17139 0.87359
 C188 C 0.81469 0.17701 0.91180
 C189 C 0.84679 0.14631 0.93539
 C190 C 0.88425 0.10971 0.92095
 C191 C 0.88872 0.10444 0.88250
 C192 C 0.85669 0.13504 0.85907
 C193 C 0.78753 0.20289 0.84884
 C194 C 0.76203 0.22831 0.82674
 H195 H 0.78615 0.20511 0.92331
 H196 H 0.84239 0.15130 0.96485
 H197 H 0.91707 0.07668 0.87041
 H198 H 0.86090 0.13041 0.82955
 C199 C 0.64828 0.82860 0.37359
 C200 C 0.63768 0.82298 0.41179
 C201 C 0.70048 0.85368 0.43539
 C202 C 0.77453 0.89028 0.42095
 C203 C 0.78428 0.89556 0.38250
 C204 C 0.72164 0.86496 0.35907
 C205 C 0.58464 0.79710 0.34884
 C206 C 0.53372 0.77168 0.32674
 H207 H 0.58104 0.79487 0.42331
 H208 H 0.69108 0.84868 0.46485
 H209 H 0.84039 0.92332 0.37041
 H210 H 0.73049 0.86959 0.32955
 C211 C 0.18032 0.35171 0.37359
 C212 C 0.18532 0.36232 0.41179
 C213 C 0.15321 0.29952 0.43539
 C214 C 0.11574 0.22546 0.42095
 C215 C 0.11127 0.21571 0.38249
 C216 C 0.14330 0.27835 0.35907
 C217 C 0.21246 0.41535 0.34884
 C218 C 0.23797 0.46628 0.32674
 H219 H 0.21386 0.41896 0.42331
 H220 H 0.15762 0.30891 0.46485
 H221 H 0.08291 0.15960 0.37041
 H222 H 0.13909 0.26951 0.32955
 C223 C 0.17139 0.81967 0.37359
 C224 C 0.17701 0.81468 0.41179
 C225 C 0.14631 0.84679 0.43539
 C226 C 0.10972 0.88425 0.42095
 C227 C 0.10444 0.88872 0.38250
 C228 C 0.13504 0.85669 0.35907
 C229 C 0.20289 0.78753 0.34884
 C230 C 0.22832 0.76203 0.32674
 H231 H 0.20511 0.78615 0.42331
 H232 H 0.15130 0.84238 0.46485
 H233 H 0.07668 0.91707 0.37041
 H234 H 0.13042 0.86090 0.32955
   
