data_POSCAR
  _audit_creation_date              2014-09-24
  _audit_creation_method            'ToBaCCo'
  _symmetry_space_group_name_H-M    'P1'
  _symmetry_Int_Tables_number       1
  _symmetry_cell_setting            triclinic
  loop_
  _symmetry_equiv_pos_as_xyz
 x,y,z
_cell_length_a 43.9395
_cell_length_b 44.0732
_cell_length_c 44.2971
_cell_angle_alpha 91.767800
_cell_angle_beta 91.877200
_cell_angle_gamma 92.397800
loop_
  _atom_site_label
  _atom_site_type_symbol
  _atom_site_fract_x
  _atom_site_fract_y
  _atom_site_fract_z
N1 N 0.16053 0.22995 0.24058
 N2 N 0.16984 0.20578 0.25417
 C3 C 0.15188 0.20013 0.27759
 C4 C 0.13005 0.22193 0.27875
 C5 C 0.13638 0.24049 0.25483
 H6 H 0.15443 0.18141 0.29251
 H7 H 0.12422 0.26005 0.24794
 Cu8 Cu 0.20408 0.18378 0.23942
 Cu9 Cu 0.17978 0.24566 0.20499
 Cu10 Cu 0.24153 0.20732 0.17890
 N11 N 0.23911 0.16289 0.22488
 N12 N 0.25363 0.17219 0.20120
 C13 C 0.27652 0.15365 0.19575
 C14 C 0.27641 0.13138 0.21718
 C15 C 0.25229 0.13809 0.23532
 H16 H 0.29190 0.15619 0.17738
 H17 H 0.24473 0.12582 0.25463
 N18 N 0.22580 0.24333 0.15945
 N19 N 0.20232 0.25794 0.16934
 C20 C 0.19695 0.28113 0.15107
 C21 C 0.21807 0.28117 0.12851
 C22 C 0.23599 0.25683 0.13467
 H23 H 0.17882 0.29667 0.15392
 H24 H 0.25501 0.24929 0.12201
 H25 H 0.19607 0.20489 0.18971
 H26 H 0.22229 0.22950 0.21493
 N27 N 0.66016 0.72812 0.74002
 N28 N 0.66913 0.70356 0.75315
 C29 C 0.65078 0.69742 0.77615
 C30 C 0.62904 0.71931 0.77750
 C31 C 0.63585 0.73843 0.75415
 H32 H 0.65297 0.67831 0.79063
 H33 H 0.62400 0.75831 0.74764
 Cu34 Cu 0.70361 0.68187 0.73848
 Cu35 Cu 0.68005 0.74469 0.70519
 Cu36 Cu 0.74156 0.70637 0.67860
 N37 N 0.73817 0.66067 0.72331
 N38 N 0.75291 0.67039 0.69992
 C39 C 0.77561 0.65174 0.69413
 C40 C 0.77518 0.62896 0.71503
 C41 C 0.75101 0.63546 0.73320
 H42 H 0.79122 0.65466 0.67600
 H43 H 0.74328 0.62285 0.75221
 N44 N 0.72655 0.74318 0.66011
 N45 N 0.70316 0.75779 0.67021
 C46 C 0.69820 0.78151 0.65252
 C47 C 0.71948 0.78190 0.63012
 C48 C 0.73709 0.75721 0.63577
 H49 H 0.68022 0.79717 0.65564
 H50 H 0.75599 0.74969 0.62293
 H51 H 0.69599 0.70400 0.68918
 H52 H 0.72231 0.72795 0.71493
 N53 N 0.32594 0.74084 0.75503
 N54 N 0.31905 0.76485 0.77133
 C55 C 0.33890 0.76824 0.79521
 C56 C 0.35933 0.74505 0.79380
 C57 C 0.35018 0.72815 0.76793
 H58 H 0.33897 0.78668 0.81186
 H59 H 0.36098 0.70868 0.75836
 Cu60 Cu 0.28566 0.78997 0.75865
 Cu61 Cu 0.30497 0.72885 0.71686
 Cu62 Cu 0.24603 0.77308 0.69364
 N63 N 0.25318 0.81541 0.74428
 N64 N 0.23731 0.80782 0.71936
 C65 C 0.21642 0.82859 0.71427
 C66 C 0.21919 0.85088 0.73710
 C67 C 0.24295 0.84164 0.75582
 H68 H 0.20099 0.82773 0.69476
 H69 H 0.25216 0.85302 0.77627
 N70 N 0.25825 0.73721 0.67041
 N71 N 0.28098 0.72048 0.67890
 C72 C 0.28539 0.69946 0.65688
 C73 C 0.26445 0.70323 0.63330
 C74 C 0.24758 0.72734 0.64291
 H75 H 0.30332 0.68343 0.65750
 H76 H 0.22964 0.73785 0.63032
 H77 H 0.29169 0.77184 0.70672
 H78 H 0.26426 0.74721 0.72739
 N79 N 0.82818 0.24087 0.25550
 N80 N 0.82193 0.26541 0.27132
 C81 C 0.84187 0.26886 0.29511
 C82 C 0.86193 0.24524 0.29410
 C83 C 0.85215 0.22788 0.26860
 H84 H 0.84236 0.28779 0.31121
 H85 H 0.86228 0.20788 0.25934
 Cu86 Cu 0.78980 0.29150 0.25761
 Cu87 Cu 0.80688 0.22872 0.21741
 Cu88 Cu 0.74876 0.27400 0.19386
 N89 N 0.75706 0.31695 0.24395
 N90 N 0.74095 0.30936 0.21916
 C91 C 0.72064 0.33062 0.21380
 C92 C 0.72410 0.35311 0.23629
 C93 C 0.74743 0.34355 0.25522
 H94 H 0.70479 0.32983 0.19462
 H95 H 0.75710 0.35538 0.27525
 N96 N 0.76005 0.23749 0.17107
 N97 N 0.78250 0.22040 0.17958
 C98 C 0.78636 0.19907 0.15770
 C99 C 0.76534 0.20301 0.13421
 C100 C 0.74902 0.22753 0.14372
 H101 H 0.80397 0.18270 0.15833
 H102 H 0.73123 0.23829 0.13116
 H103 H 0.79461 0.27158 0.20609
 H104 H 0.76700 0.24842 0.22797
 N105 N 0.81269 0.75144 0.25168
 N106 N 0.80123 0.72940 0.23357
 C107 C 0.82121 0.72319 0.21214
 C108 C 0.84686 0.74233 0.21694
 C109 C 0.84050 0.76006 0.24229
 H110 H 0.81749 0.70539 0.19494
 H111 H 0.85514 0.77756 0.25347
 Cu112 Cu 0.76253 0.70884 0.24075
 Cu113 Cu 0.79091 0.76613 0.28672
 Cu114 Cu 0.72814 0.72163 0.30613
 N115 N 0.73259 0.68000 0.25553
 N116 N 0.71921 0.68487 0.28120
 C117 C 0.70135 0.66031 0.28704
 C118 C 0.70387 0.63877 0.26383
 C119 C 0.72384 0.65225 0.24416
 H120 H 0.68862 0.65781 0.30735
 H121 H 0.73220 0.64241 0.22354
 N122 N 0.74132 0.75967 0.32826
 N123 N 0.76534 0.77663 0.32116
 C124 C 0.76897 0.80021 0.34129
 C125 C 0.74610 0.79800 0.36212
 C126 C 0.72906 0.77195 0.35296
 H127 H 0.78728 0.81733 0.34110
 H128 H 0.70958 0.76204 0.36387
 H129 H 0.77314 0.72289 0.29345
 H130 H 0.74738 0.74977 0.27437
 N131 N 0.32331 0.24407 -0.23953
 N132 N 0.31945 0.21564 -0.24908
 C133 C 0.34002 0.20952 -0.26993
 C134 C 0.35821 0.23553 -0.27382
 C135 C 0.34677 0.25707 -0.25398
 H136 H 0.34137 0.18759 -0.28126
 H137 H 0.35472 0.28045 -0.25022
 Cu138 Cu 0.28816 0.18874 -0.23372
 Cu139 Cu 0.29746 0.26145 -0.20887
 Cu140 Cu 0.23408 0.21690 -0.19060
 N141 N 0.25002 0.16647 -0.22836
 N142 N 0.22866 0.17730 -0.21157
 C143 C 0.20539 0.15642 -0.21090
 C144 C 0.21262 0.13119 -0.22840
 C145 C 0.24115 0.13857 -0.23910
 H146 H 0.18500 0.15924 -0.19828
 H147 H 0.25499 0.12441 -0.25294
 N148 N 0.24401 0.25748 -0.17185
 N149 N 0.26826 0.27436 -0.17845
 C150 C 0.27038 0.29903 -0.15960
 C151 C 0.24634 0.29762 -0.14005
 C152 C 0.23010 0.27094 -0.14873
 H153 H 0.28893 0.31593 -0.15920
 H154 H 0.21060 0.26099 -0.13789
 H155 H 0.28127 0.22190 -0.18974
 H156 H 0.26045 0.23430 -0.22447
 N157 N 0.67054 0.25536 -0.26003
 N158 N 0.67946 0.27775 -0.27695
 C159 C 0.65756 0.28203 -0.29826
 C160 C 0.63341 0.26119 -0.29437
 C161 C 0.64285 0.24455 -0.26991
 H162 H 0.65870 0.29976 -0.31454
 H163 H 0.63020 0.22666 -0.25908
 Cu164 Cu 0.71762 0.30060 -0.26724
 Cu165 Cu 0.69359 0.24392 -0.22430
 Cu166 Cu 0.76105 0.28523 -0.20598
 N167 N 0.75578 0.32329 -0.25737
 N168 N 0.77256 0.31755 -0.23327
 C169 C 0.79622 0.33806 -0.23067
 C170 C 0.79415 0.35786 -0.25439
 C171 C 0.76815 0.34756 -0.27085
 H172 H 0.81299 0.33909 -0.21224
 H173 H 0.75816 0.35772 -0.29049
 N174 N 0.74527 0.25148 -0.18154
 N175 N 0.71981 0.23570 -0.18898
 C176 C 0.71466 0.21479 -0.16808
 C177 C 0.73783 0.21740 -0.14616
 C178 C 0.75696 0.24092 -0.15553
 H179 H 0.69526 0.19891 -0.16877
 H180 H 0.77759 0.24998 -0.14405
 H181 H 0.71474 0.28616 -0.21467
 H182 H 0.73620 0.25884 -0.23787
 N183 N 0.17069 0.75553 0.23912
 N184 N 0.17862 0.77886 0.22295
 C185 C 0.15632 0.78300 0.20198
 C186 C 0.13314 0.76104 0.20530
 C187 C 0.14333 0.74398 0.22905
 H188 H 0.15638 0.80137 0.18638
 H189 H 0.13130 0.72526 0.23924
 Cu190 Cu 0.21623 0.80256 0.23316
 Cu191 Cu 0.19419 0.74399 0.27455
 Cu192 Cu 0.26037 0.78700 0.29375
 N193 N 0.25379 0.82625 0.24336
 N194 N 0.27088 0.82023 0.26715
 C195 C 0.29428 0.84099 0.27004
 C196 C 0.29176 0.86141 0.24684
 C197 C 0.26572 0.85101 0.23031
 H198 H 0.31127 0.84152 0.28827
 H199 H 0.25546 0.86120 0.21083
 N200 N 0.24562 0.75231 0.31747
 N201 N 0.22069 0.73583 0.30965
 C202 C 0.21599 0.71457 0.33029
 C203 C 0.23891 0.71769 0.35244
 C204 C 0.25743 0.74184 0.34346
 H205 H 0.19699 0.69820 0.32937
 H206 H 0.27763 0.75151 0.35530
 H207 H 0.21392 0.78679 0.28531
 H208 H 0.23627 0.76086 0.26140
 N209 N 0.49419 0.42100 0.50019
 N210 N 0.47087 0.43042 0.51521
 C211 C 0.46585 0.41182 0.53821
 C212 C 0.48700 0.38942 0.53750
 C213 C 0.50461 0.39594 0.51298
 H214 H 0.44759 0.41386 0.55382
 H215 H 0.52356 0.38339 0.50502
 Cu216 Cu 0.44846 0.46520 0.50244
 Cu217 Cu 0.50897 0.44179 0.46499
 Cu218 Cu 0.47015 0.50472 0.44263
 N219 N 0.42685 0.50054 0.48981
 N220 N 0.43587 0.51615 0.46669
 C221 C 0.41712 0.53908 0.46243
 C222 C 0.39496 0.53775 0.48392
 C223 C 0.40182 0.51292 0.50090
 H224 H 0.41887 0.55492 0.44435
 H225 H 0.38940 0.50446 0.51978
 N226 N 0.50538 0.48960 0.42122
 N227 N 0.52036 0.46591 0.43003
 C228 C 0.54301 0.46113 0.41096
 C229 C 0.54219 0.48270 0.38894
 C230 C 0.51797 0.50034 0.39611
 H231 H 0.55847 0.44276 0.41246
 H232 H 0.51013 0.51955 0.38392
 H233 H 0.49355 0.48390 0.47704
 H234 H 0.46778 0.45892 0.45175
 N235 N -0.00795 -0.08072 1.00123
 N236 N -0.03139 -0.07149 1.01618
 C237 C -0.03649 -0.09030 1.03901
 C238 C -0.01524 -0.11262 1.03825
 C239 C 0.00249 -0.10585 1.01389
 H240 H -0.05486 -0.08846 1.05451
 H241 H 0.02151 -0.11828 1.00593
 Cu242 Cu -0.05380 -0.03667 1.00348
 Cu243 Cu 0.00692 -0.05970 0.96623
 Cu244 Cu -0.03193 0.00322 0.94393
 N245 N -0.07547 -0.00132 0.99091
 N246 N -0.06634 0.01442 0.96791
 C247 C -0.08509 0.03734 0.96367
 C248 C -0.10737 0.03590 0.98502
 C249 C -0.10059 0.01099 1.00193
 H250 H -0.08322 0.05329 0.94569
 H251 H -0.11310 0.00242 1.02070
 N252 N 0.00344 -0.01174 0.92263
 N253 N 0.01844 -0.03543 0.93143
 C254 C 0.04115 -0.04012 0.91241
 C255 C 0.04037 -0.01849 0.89045
 C256 C 0.01610 -0.00091 0.89760
 H257 H 0.05661 -0.05849 0.91389
 H258 H 0.00824 0.01831 0.88541
 H259 H -0.00876 -0.01760 0.97827
 H260 H -0.03436 -0.04255 0.95279
 N261 N 1.01958 0.60357 0.97821
 N262 N 1.04541 0.60005 0.99323
 C263 C 1.04780 0.62052 1.01659
 C264 C 1.02195 0.63761 1.01617
 C265 C 1.00469 0.62617 0.99139
 H266 H 1.06638 0.62219 1.03325
 H267 H 0.98271 0.63353 0.98362
 Cu268 Cu 1.07203 0.56756 0.98155
 Cu269 Cu 1.00619 0.57802 0.94336
 Cu270 Cu 1.05389 0.52178 0.92060
 N271 N 1.09804 0.53488 0.96914
 N272 N 1.09122 0.51787 0.94475
 C273 C 1.11169 0.49617 0.94217
 C274 C 1.13233 0.49938 0.96641
 C275 C 1.12296 0.52424 0.98310
 H276 H 1.11040 0.47806 0.92509
 H277 H 1.13290 0.53318 1.00435
 N278 N 1.01496 0.52915 0.89930
 N279 N 0.99650 0.55010 0.90856
 C280 C 0.97137 0.54898 0.89034
 C281 C 0.97405 0.52628 0.86845
 C282 C 1.00207 0.51424 0.87476
 H283 H 0.95270 0.56401 0.89244
 H284 H 1.01213 0.49577 0.86257
 H285 H 1.02933 0.53987 0.95525
 H286 H 1.04935 0.56733 0.93055
 N287 N 0.51960 0.10460 0.47938
 N288 N 0.54529 0.10088 0.49459
 C289 C 0.54800 0.12179 0.51755
 C290 C 0.52253 0.13941 0.51666
 C291 C 0.50513 0.12778 0.49204
 H292 H 0.56656 0.12346 0.53423
 H293 H 0.48335 0.13543 0.48401
 Cu294 Cu 0.57132 0.06778 0.48334
 Cu295 Cu 0.50590 0.07864 0.44488
 Cu296 Cu 0.55323 0.02174 0.42274
 N297 N 0.59747 0.03511 0.47124
 N298 N 0.59061 0.01797 0.44694
 C299 C 0.61114 -0.00366 0.44437
 C300 C 0.63189 -0.00028 0.46851
 C301 C 0.62252 0.02463 0.48513
 H302 H 0.60984 -0.02181 0.42733
 H303 H 0.63259 0.03375 0.50626
 N304 N 0.51425 0.02907 0.40145
 N305 N 0.49595 0.05026 0.41049
 C306 C 0.47076 0.04903 0.39236
 C307 C 0.47323 0.02602 0.37077
 C308 C 0.50120 0.01391 0.37713
 H309 H 0.45219 0.06422 0.39429
 H310 H 0.51112 -0.00476 0.36512
 H311 H 0.52858 0.04026 0.45697
 H312 H 0.54899 0.06737 0.43223
 N313 N -0.02712 0.10517 0.53882
 N314 N -0.05328 0.09909 0.52419
 C315 C -0.05628 0.11835 0.50142
 C316 C -0.03052 0.13752 0.50152
 C317 C -0.01250 0.12851 0.52568
 H318 H -0.07497 0.11716 0.48487
 H319 H 0.01001 0.13751 0.53258
 Cu320 Cu -0.07954 0.06436 0.53325
 Cu321 Cu -0.01287 0.08054 0.57204
 Cu322 Cu -0.05285 0.01214 0.57943
 N323 N -0.09813 0.02367 0.53347
 N324 N -0.08706 0.00316 0.55117
 C325 C -0.10393 -0.02286 0.54718
 C326 C -0.12696 -0.01853 0.52583
 C327 C -0.12258 0.01143 0.51765
 H328 H -0.10036 -0.04309 0.55977
 H329 H -0.13622 0.02351 0.50162
 N330 N -0.01781 0.02531 0.60606
 N331 N -0.00260 0.05154 0.60373
 C332 C 0.02026 0.05347 0.62491
 C333 C 0.01940 0.02705 0.64121
 C334 C -0.00514 0.00990 0.62860
 H335 H 0.03685 0.07224 0.62765
 H336 H -0.01314 -0.01233 0.63527
 H337 H -0.03252 0.04256 0.55032
 H338 H -0.05378 0.05945 0.58230
 N339 N 0.47221 0.60351 0.03820
 N340 N 0.44591 0.59746 0.02382
 C341 C 0.44283 0.61655 0.00092
 C342 C 0.46869 0.63556 0.00068
 C343 C 0.48684 0.62664 0.02477
 H344 H 0.42400 0.61537 -0.01547
 H345 H 0.50944 0.63556 0.03143
 Cu346 Cu 0.41961 0.56294 0.03345
 Cu347 Cu 0.48661 0.57917 0.07151
 Cu348 Cu 0.44671 0.51089 0.07972
 N349 N 0.40107 0.52226 0.03404
 N350 N 0.41223 0.50179 0.05174
 C351 C 0.39538 0.47573 0.04783
 C352 C 0.37227 0.48000 0.02653
 C353 C 0.37659 0.50995 0.01831
 H354 H 0.39912 0.45549 0.06036
 H355 H 0.36296 0.52198 0.00224
 N356 N 0.48200 0.52425 0.10600
 N357 N 0.49710 0.55049 0.10333
 C358 C 0.52018 0.55267 0.12425
 C359 C 0.51962 0.52640 0.14075
 C360 C 0.49502 0.50904 0.12853
 H361 H 0.53674 0.57149 0.12664
 H362 H 0.48722 0.48683 0.13544
 H363 H 0.46668 0.54103 0.05021
 H364 H 0.44576 0.55815 0.08232
 N365 N 0.52678 -0.10016 0.01832
 N366 N 0.54908 -0.09141 0.00111
 C367 C 0.54827 -0.10924 -0.02411
 C368 C 0.52427 -0.13041 -0.02263
 C369 C 0.51117 -0.12407 0.00474
 H370 H 0.56431 -0.10737 -0.04201
 H371 H 0.49154 -0.13568 0.01387
 Cu372 Cu 0.57740 -0.05796 0.01330
 Cu373 Cu 0.51885 -0.07863 0.05606
 Cu374 Cu 0.56720 -0.01650 0.07690
 N375 N 0.60469 -0.02369 0.02548
 N376 N 0.60093 -0.00749 0.05038
 C377 C 0.62241 0.01534 0.05249
 C378 C 0.64044 0.01341 0.02741
 C379 C 0.62848 -0.01171 0.01089
 H380 H 0.62405 0.03270 0.07033
 H381 H 0.63627 -0.02039 -0.01045
 N382 N 0.53186 -0.02953 0.10065
 N383 N 0.51427 -0.05381 0.09320
 C384 C 0.49165 -0.05611 0.11286
 C385 C 0.49481 -0.03198 0.13353
 C386 C 0.52059 -0.01557 0.12512
 H387 H 0.47304 -0.07296 0.11115
 H388 H 0.52989 0.00546 0.13554
 H389 H 0.53791 -0.03696 0.04410
 H390 H 0.56310 -0.06219 0.06578
 N391 N 1.02803 0.40216 0.51807
 N392 N 1.04643 0.41358 0.49815
 C393 C 1.04319 0.39690 0.47225
 C394 C 1.02170 0.37355 0.47608
 C395 C 1.01265 0.37755 0.50560
 H396 H 1.05654 0.40064 0.45255
 H397 H 0.99649 0.36344 0.51735
 Cu398 Cu 1.07488 0.44740 0.50868
 Cu399 Cu 1.02702 0.41943 0.55903
 Cu400 Cu 1.06358 0.49070 0.57009
 N401 N 1.10455 0.47911 0.52246
 N402 N 1.10020 0.49628 0.54658
 C403 C 1.12261 0.51813 0.54927
 C404 C 1.14204 0.51443 0.52546
 C405 C 1.12986 0.48928 0.50907
 H406 H 1.12371 0.53630 0.56630
 H407 H 1.13819 0.47970 0.48833
 N408 N 1.03246 0.47460 0.59720
 N409 N 1.01928 0.44721 0.59344
 C410 C 0.99776 0.44365 0.61412
 C411 C 0.99717 0.47011 0.63174
 C412 C 1.01969 0.48916 0.62042
 H413 H 0.98222 0.42403 0.61485
 H414 H 1.02562 0.51232 0.62778
 H415 H 1.03479 0.46154 0.54239
 H416 H 1.06797 0.44583 0.56310
 C417 C 0.35743 0.03034 0.22994
 C418 C 0.33956 -0.00027 0.22851
 C419 C 0.35645 -0.02455 0.23499
 C420 C 0.39031 -0.01607 0.24211
 C421 C 0.37314 0.03218 0.26133
 C422 C 0.39039 0.00815 0.26784
 C423 C 0.38367 0.02581 0.20825
 C424 C 0.40083 0.00158 0.21461
 H425 H 0.31523 -0.00228 0.22360
 H426 H 0.40423 -0.03581 0.24731
 H427 H 0.37260 0.05221 0.27607
 H428 H 0.38800 0.03938 0.18887
 C429 C 0.14805 -0.04218 0.74947
 C430 C 0.16726 -0.01230 0.75167
 C431 C 0.15109 0.01277 0.75778
 C432 C 0.11682 0.00573 0.76109
 C433 C 0.13125 -0.04323 0.77912
 C434 C 0.11503 -0.01834 0.78548
 C435 C 0.12309 -0.03632 0.72538
 C436 C 0.10674 -0.01138 0.73143
 H437 H 0.19164 -0.01124 0.74866
 H438 H 0.10357 0.02609 0.76595
 H439 H 0.13143 -0.06281 0.79330
 H440 H 0.12020 -0.04855 0.70393
 C441 C 0.65105 0.46046 0.24832
 C442 C 0.66948 0.49081 0.25075
 C443 C 0.65258 0.51543 0.25657
 C444 C 0.61846 0.50746 0.25965
 C445 C 0.63393 0.45891 0.27783
 C446 C 0.61712 0.48342 0.28410
 C447 C 0.62577 0.46544 0.22424
 C448 C 0.60894 0.49009 0.23004
 H449 H 0.69389 0.49245 0.24799
 H450 H 0.60455 0.52738 0.26431
 H451 H 0.63419 0.43924 0.29189
 H452 H 0.62154 0.45156 0.20396
 C453 C 0.85740 0.52887 0.72760
 C454 C 0.84014 0.49795 0.72654
 C455 C 0.85761 0.47410 0.73308
 C456 C 0.89137 0.48327 0.73987
 C457 C 0.87338 0.53126 0.75886
 C458 C 0.89118 0.50766 0.76543
 C459 C 0.88352 0.52467 0.70572
 C460 C 0.90130 0.50090 0.71212
 H461 H 0.81582 0.49538 0.72172
 H462 H 0.90568 0.46384 0.74516
 H463 H 0.87251 0.55135 0.77349
 H464 H 0.88738 0.53818 0.68621
 C465 C 0.23067 0.36342 0.02820
 C466 C 0.22879 0.34605 -0.00231
 C467 C 0.23526 0.36328 -0.02642
 C468 C 0.24280 0.39692 -0.01790
 C469 C 0.26245 0.37907 0.02985
 C470 C 0.26892 0.39667 0.00602
 C471 C 0.20895 0.38962 0.02394
 C472 C 0.21529 0.40710 -0.00014
 H473 H 0.22354 0.32183 -0.00444
 H474 H 0.24806 0.41110 -0.03751
 H475 H 0.27748 0.37834 0.04968
 H476 H 0.18934 0.39345 0.03735
 C477 C 0.75113 0.14260 -0.03998
 C478 C 0.75286 0.16144 -0.01028
 C479 C 0.75849 0.14517 0.01481
 C480 C 0.76212 0.11116 0.00796
 C481 C 0.78112 0.12615 -0.04046
 C482 C 0.78719 0.10990 -0.01549
 C483 C 0.72703 0.11704 -0.03479
 C484 C 0.73261 0.10084 -0.00964
 H485 H 0.74974 0.18570 -0.00938
 H486 H 0.76668 0.09779 0.02831
 H487 H 0.79558 0.12629 -0.05980
 H488 H 0.70684 0.11220 -0.04891
 C489 C 0.25275 0.64339 0.45882
 C490 C 0.25387 0.66219 0.48853
 C491 C 0.25962 0.64598 0.51364
 C492 C 0.26396 0.61210 0.50679
 C493 C 0.28308 0.62753 0.45857
 C494 C 0.28926 0.61135 0.48356
 C495 C 0.22908 0.61735 0.46375
 C496 C 0.23477 0.60125 0.48894
 H497 H 0.25026 0.68635 0.48943
 H498 H 0.26857 0.59878 0.52716
 H499 H 0.29763 0.62787 0.43931
 H500 H 0.20908 0.61216 0.44946
 C501 C 0.73192 0.86494 0.53046
 C502 C 0.73002 0.84720 0.50018
 C503 C 0.73600 0.86416 0.47578
 C504 C 0.74311 0.89798 0.48378
 C505 C 0.76352 0.88103 0.53163
 C506 C 0.76948 0.89832 0.50745
 C507 C 0.70986 0.89084 0.52612
 C508 C 0.71567 0.90804 0.50172
 H509 H 0.72525 0.82287 0.49844
 H510 H 0.74798 0.91196 0.46394
 H511 H 0.77887 0.88065 0.55126
 H512 H 0.69075 0.89505 0.54011
 C513 C 0.02982 0.23304 0.36141
 C514 C -0.00065 0.23046 0.34362
 C515 C -0.02538 0.23595 0.36027
 C516 C -0.01749 0.24335 0.39384
 C517 C 0.03061 0.26459 0.37699
 C518 C 0.00607 0.27011 0.39395
 C519 C 0.02566 0.21110 0.38752
 C520 C 0.00093 0.21647 0.40445
 H521 H -0.00225 0.22569 0.31946
 H522 H -0.03762 0.24789 0.40752
 H523 H 0.05030 0.28020 0.37661
 H524 H 0.04043 0.19282 0.39244
 C525 C -0.04302 0.74697 0.14628
 C526 C -0.01281 0.74787 0.16474
 C527 C 0.01239 0.75320 0.14821
 C528 C 0.00511 0.75695 0.11438
 C529 C -0.04275 0.77691 0.12979
 C530 C -0.01776 0.78241 0.11318
 C531 C -0.03866 0.72258 0.12134
 C532 C -0.01354 0.72777 0.10465
 H533 H -0.01162 0.74447 0.18885
 H534 H 0.02555 0.76114 0.10082
 H535 H -0.06171 0.79183 0.13032
 H536 H -0.05209 0.70149 0.11888
 C537 C 0.45927 0.24968 0.64656
 C538 C 0.48946 0.25082 0.66489
 C539 C 0.51462 0.25585 0.64834
 C540 C 0.50738 0.25961 0.61456
 C541 C 0.45937 0.27957 0.62984
 C542 C 0.48447 0.28509 0.61330
 C543 C 0.46334 0.22554 0.62126
 C544 C 0.48863 0.23052 0.60478
 H545 H 0.49063 0.24774 0.68907
 H546 H 0.52786 0.26374 0.60103
 H547 H 0.44022 0.29426 0.62984
 H548 H 0.44802 0.20606 0.61660
 C549 C 0.52879 0.73035 0.86011
 C550 C 0.49810 0.72862 0.84269
 C551 C 0.47377 0.73464 0.85971
 C552 C 0.48221 0.74161 0.89323
 C553 C 0.53054 0.76178 0.87594
 C554 C 0.50642 0.76782 0.89331
 C555 C 0.52439 0.70827 0.88604
 C556 C 0.50007 0.71416 0.90337
 H557 H 0.49604 0.72381 0.81856
 H558 H 0.46231 0.74647 0.90713
 H559 H 0.55068 0.77679 0.87550
 H560 H 0.53850 0.68934 0.89040
 C561 C 0.10044 0.20289 0.32258
 C562 C 0.10498 0.22450 0.30028
 C563 C 0.08505 0.24851 0.29850
 C564 C 0.06121 0.25076 0.31833
 C565 C 0.05659 0.22929 0.34077
 C566 C 0.07656 0.20518 0.34255
 H567 H 0.11516 0.18396 0.32464
 H568 H 0.08761 0.26570 0.28179
 H569 H 0.04616 0.26948 0.31614
 H570 H 0.07400 0.18773 0.35889
 C571 C 0.58304 0.74490 0.79624
 C572 C 0.60376 0.72163 0.79880
 C573 C 0.59991 0.70064 0.82180
 C574 C 0.57599 0.70289 0.84174
 C575 C 0.55527 0.72628 0.83918
 C576 C 0.55922 0.74713 0.81607
 H577 H 0.58499 0.76153 0.77892
 H578 H 0.61533 0.68238 0.82457
 H579 H 0.57419 0.68613 0.85887
 H580 H 0.54369 0.76539 0.81340
 C581 C 0.40526 0.71593 0.80794
 C582 C 0.38686 0.74074 0.81346
 C583 C 0.39597 0.76191 0.83684
 C584 C 0.42358 0.75913 0.85313
 C585 C 0.44262 0.73531 0.84614
 C586 C 0.43281 0.71336 0.82396
 H587 H 0.39898 0.69873 0.79070
 H588 H 0.38238 0.78117 0.84200
 H589 H 0.43073 0.77639 0.87013
 H590 H 0.44686 0.69445 0.81853
 C591 C -0.10361 0.26182 0.33706
 C592 C -0.11202 0.24117 0.31290
 C593 C -0.09286 0.21691 0.30713
 C594 C -0.06543 0.21459 0.32346
 C595 C -0.05639 0.23618 0.34624
 C596 C -0.07612 0.25927 0.35357
 H597 H -0.11764 0.28056 0.34285
 H598 H -0.09829 0.19993 0.28945
 H599 H -0.05087 0.19616 0.31778
 H600 H -0.06964 0.27623 0.37108
 C601 C -0.12281 0.72392 0.17336
 C602 C -0.12488 0.74277 0.19935
 C603 C -0.09977 0.76217 0.20809
 C604 C -0.07342 0.76275 0.19125
 C605 C -0.07116 0.74369 0.16538
 C606 C -0.09648 0.72449 0.15651
 H607 H -0.14170 0.70894 0.16552
 H608 H -0.10039 0.77720 0.22779
 H609 H -0.05483 0.77857 0.19822
 H610 H -0.09672 0.71042 0.13614
 C611 C 0.39977 0.26664 0.70541
 C612 C 0.38276 0.23894 0.70657
 C613 C 0.39120 0.21447 0.68781
 C614 C 0.41552 0.21762 0.66847
 C615 C 0.43206 0.24549 0.66682
 C616 C 0.42415 0.26973 0.68608
 H617 H 0.39463 0.28609 0.71951
 H618 H 0.37936 0.19251 0.68794
 H619 H 0.42140 0.19774 0.65551
 H620 H 0.43701 0.29124 0.68624
 C621 C 0.58215 0.23736 0.69843
 C622 C 0.60479 0.25883 0.69004
 C623 C 0.59763 0.27830 0.66634
 C624 C 0.56854 0.27696 0.65234
 C625 C 0.54591 0.25632 0.66177
 C626 C 0.55317 0.23624 0.68458
 H627 H 0.58628 0.22146 0.71601
 H628 H 0.61417 0.29497 0.65873
 H629 H 0.56350 0.29271 0.63474
 H630 H 0.53638 0.21953 0.69177
 C631 C 0.08038 0.73708 0.19891
 C632 C 0.10276 0.75812 0.18938
 C633 C 0.09536 0.77680 0.16523
 C634 C 0.06614 0.77489 0.15149
 C635 C 0.04372 0.75440 0.16169
 C636 C 0.05128 0.73528 0.18529
 H637 H 0.08494 0.72213 0.21724
 H638 H 0.11193 0.79316 0.15709
 H639 H 0.06088 0.79003 0.13343
 H640 H 0.03469 0.71879 0.19323
 C641 C 0.32096 0.10213 0.19980
 C642 C 0.29719 0.10578 0.21991
 C643 C 0.29343 0.08466 0.24273
 C644 C 0.31288 0.06062 0.24535
 C645 C 0.33674 0.05685 0.22532
 C646 C 0.34051 0.07803 0.20244
 H647 H 0.32471 0.11789 0.18193
 H648 H 0.27551 0.08649 0.25874
 H649 H 0.30937 0.04483 0.26331
 H650 H 0.35840 0.07656 0.18647
 C651 C 0.81969 0.59993 0.69729
 C652 C 0.79603 0.60341 0.71756
 C653 C 0.79262 0.58229 0.74043
 C654 C 0.81238 0.55850 0.74303
 C655 C 0.83620 0.55497 0.72290
 C656 C 0.83955 0.57610 0.69991
 H657 H 0.82315 0.61566 0.67935
 H658 H 0.77480 0.58402 0.75657
 H659 H 0.80920 0.54275 0.76108
 H660 H 0.85737 0.57485 0.68386
 C661 C 0.80636 0.40432 0.71609
 C662 C 0.81307 0.38601 0.74071
 C663 C 0.83692 0.39581 0.76122
 C664 C 0.85251 0.42388 0.75799
 C665 C 0.84439 0.44275 0.73437
 C666 C 0.82170 0.43234 0.71306
 H667 H 0.78871 0.39755 0.69939
 H668 H 0.84303 0.38233 0.78030
 H669 H 0.86990 0.43144 0.77476
 H670 H 0.81540 0.44620 0.69427
 C671 C 0.33466 -0.10297 0.26226
 C672 C 0.30998 -0.11199 0.24228
 C673 C 0.30319 -0.09299 0.21814
 C674 C 0.31914 -0.06526 0.21520
 C675 C 0.34251 -0.05568 0.23608
 C676 C 0.35074 -0.07515 0.25914
 H677 H 0.34118 -0.11679 0.28094
 H678 H 0.28507 -0.09886 0.20165
 H679 H 0.31278 -0.05099 0.19675
 H680 H 0.36868 -0.06828 0.27559
 C681 C 0.17717 -0.11839 0.71979
 C682 C 0.20194 -0.12291 0.73996
 C683 C 0.20877 -0.10064 0.76293
 C684 C 0.19158 -0.07470 0.76535
 C685 C 0.16701 -0.07014 0.74501
 C686 C 0.15989 -0.09266 0.72241
 H687 H 0.17038 -0.13490 0.70206
 H688 H 0.22744 -0.10291 0.77909
 H689 H 0.19734 -0.05815 0.78344
 H690 H 0.14067 -0.09129 0.70685
 C691 C 0.68766 0.38962 0.21458
 C692 C 0.70681 0.38129 0.23871
 C693 C 0.70895 0.40001 0.26498
 C694 C 0.69153 0.42578 0.26737
 C695 C 0.67118 0.43336 0.24377
 C696 C 0.67022 0.41526 0.21698
 H697 H 0.68598 0.37640 0.19359
 H698 H 0.72364 0.39457 0.28394
 H699 H 0.69345 0.43958 0.28806
 H700 H 0.65630 0.42045 0.19752
 C701 C 0.70184 0.58564 0.24165
 C702 C 0.69035 0.60733 0.26173
 C703 C 0.66623 0.59848 0.28008
 C704 C 0.65399 0.56864 0.27843
 C705 C 0.66567 0.54699 0.25850
 C706 C 0.68967 0.55584 0.24009
 H707 H 0.72050 0.59145 0.22729
 H708 H 0.65668 0.61458 0.29567
 H709 H 0.63569 0.56243 0.29313
 H710 H 0.69886 0.53983 0.22414
 C711 C 0.20382 0.08069 0.74461
 C712 C 0.19517 0.10177 0.76686
 C713 C 0.17063 0.09386 0.78509
 C714 C 0.15582 0.06512 0.78176
 C715 C 0.16536 0.04379 0.76025
 C716 C 0.18916 0.05206 0.74140
 H717 H 0.22208 0.08611 0.72964
 H718 H 0.16334 0.10946 0.80247
 H719 H 0.13759 0.05927 0.79668
 H720 H 0.19648 0.03637 0.72409
 C721 C 0.24321 0.29856 0.08163
 C722 C 0.22076 0.30229 0.10313
 C723 C 0.20100 0.32638 0.10005
 C724 C 0.20362 0.34623 0.07614
 C725 C 0.22609 0.34243 0.05454
 C726 C 0.24582 0.31831 0.05780
 H727 H 0.25895 0.28043 0.08302
 H728 H 0.18347 0.33015 0.11613
 H729 H 0.18802 0.36441 0.07515
 H730 H 0.26351 0.31482 0.04173
 C731 C 0.70139 0.82633 0.60112
 C732 C 0.72238 0.80345 0.60513
 C733 C 0.74610 0.80119 0.58480
 C734 C 0.74867 0.82112 0.56111
 C735 C 0.72774 0.84407 0.55695
 C736 C 0.70398 0.84637 0.57737
 H737 H 0.68272 0.82882 0.61617
 H738 H 0.76285 0.78406 0.58699
 H739 H 0.76721 0.81863 0.54581
 H740 H 0.68710 0.86329 0.57539
 C741 C 0.71750 0.81117 0.40854
 C742 C 0.74196 0.81744 0.38966
 C743 C 0.76290 0.84153 0.39818
 C744 C 0.76017 0.85788 0.42556
 C745 C 0.73665 0.85027 0.44498
 C746 C 0.71496 0.82729 0.43584
 H747 H 0.70051 0.79332 0.40277
 H748 H 0.78192 0.84726 0.38424
 H749 H 0.77725 0.87547 0.43219
 H750 H 0.69626 0.82135 0.45017
 C751 C 0.21660 0.31142 -0.09453
 C752 C 0.24150 0.31744 -0.11292
 C753 C 0.26254 0.34131 -0.10399
 C754 C 0.25968 0.35743 -0.07651
 C755 C 0.23589 0.34985 -0.05741
 C756 C 0.21393 0.32731 -0.06709
 H757 H 0.19946 0.29382 -0.10070
 H758 H 0.28183 0.34695 -0.11759
 H759 H 0.27692 0.37473 -0.06953
 H760 H 0.19497 0.32146 -0.05304
 C761 C 0.76752 0.20105 -0.10029
 C762 C 0.74084 0.19905 -0.11869
 C763 C 0.71681 0.17916 -0.11063
 C764 C 0.71959 0.16119 -0.08537
 C765 C 0.74666 0.16234 -0.06740
 C766 C 0.77029 0.18309 -0.07493
 H767 H 0.78646 0.21624 -0.10554
 H768 H 0.69554 0.17742 -0.12364
 H769 H 0.70010 0.14687 -0.08024
 H770 H 0.79120 0.18516 -0.06123
 C771 C 0.26868 0.70178 0.39838
 C772 C 0.24203 0.69946 0.37995
 C773 C 0.21814 0.67945 0.38806
 C774 C 0.22102 0.66164 0.41342
 C775 C 0.24810 0.66305 0.43138
 C776 C 0.27157 0.68398 0.42383
 H777 H 0.28751 0.71707 0.39306
 H778 H 0.19688 0.67752 0.37503
 H779 H 0.20162 0.64725 0.41866
 H780 H 0.29244 0.68629 0.43756
 C781 C 0.28189 0.66384 0.59591
 C782 C 0.26236 0.68732 0.60315
 C783 C 0.24128 0.69617 0.58085
 C784 C 0.24028 0.68257 0.55198
 C785 C 0.26025 0.65968 0.54460
 C786 C 0.28079 0.65012 0.56694
 H787 H 0.29834 0.65623 0.61239
 H788 H 0.22560 0.71386 0.58535
 H789 H 0.22370 0.68993 0.53545
 H790 H 0.29655 0.63258 0.56184
 C791 C 0.78179 0.16306 0.09686
 C792 C 0.76274 0.18692 0.10415
 C793 C 0.74162 0.19600 0.08199
 C794 C 0.74014 0.18225 0.05320
 C795 C 0.75963 0.15896 0.04573
 C796 C 0.78018 0.14917 0.06795
 H797 H 0.79823 0.15527 0.11324
 H798 H 0.72628 0.21398 0.08653
 H799 H 0.72355 0.18980 0.03677
 H800 H 0.79557 0.13132 0.06277
 C801 C 0.50239 0.33644 0.54840
 C802 C 0.48896 0.36342 0.55775
 C803 C 0.47618 0.36503 0.58634
 C804 C 0.47579 0.33993 0.60474
 C805 C 0.48793 0.31248 0.59490
 C806 C 0.50181 0.31114 0.56680
 H807 H 0.51231 0.33446 0.52642
 H808 H 0.46627 0.38566 0.59452
 H809 H 0.46565 0.34198 0.62662
 H810 H 0.51112 0.29025 0.55847
 C811 C 0.00021 0.83434 0.04876
 C812 C -0.01326 0.86123 0.05830
 C813 C -0.02602 0.86262 0.08691
 C814 C -0.02635 0.83739 0.10512
 C815 C -0.01423 0.80999 0.09506
 C816 C -0.00035 0.80889 0.06695
 H817 H 0.01017 0.83255 0.02678
 H818 H -0.03594 0.88320 0.09524
 H819 H -0.03646 0.83928 0.12702
 H820 H 0.00897 0.78807 0.05846
 C821 C -0.01742 0.66861 0.04073
 C822 C 0.01331 0.66147 0.03828
 C823 C 0.03536 0.67703 0.05734
 C824 C 0.02678 0.69914 0.07847
 C825 C -0.00404 0.70576 0.08119
 C826 C -0.02599 0.69039 0.06199
 H827 H -0.03509 0.65697 0.02665
 H828 H 0.05922 0.67219 0.05592
 H829 H 0.04415 0.71044 0.09321
 H830 H -0.04987 0.69522 0.06343
 C831 C 0.53657 0.17894 0.55754
 C832 C 0.51434 0.16391 0.53828
 C833 C 0.48385 0.17212 0.54018
 C834 C 0.47566 0.19422 0.56130
 C835 C 0.49776 0.20881 0.58090
 C836 C 0.52837 0.20133 0.57854
 H837 H 0.56027 0.17335 0.55650
 H838 H 0.46605 0.16100 0.52588
 H839 H 0.45194 0.19978 0.56240
 H840 H 0.54582 0.21208 0.59357
 C841 C 0.00798 0.16851 0.47371
 C842 C -0.02259 0.15977 0.47829
 C843 C -0.04544 0.17122 0.45937
 C844 C -0.03783 0.19026 0.43584
 C845 C -0.00721 0.19801 0.43060
 C846 C 0.01559 0.18733 0.45003
 H847 H 0.02616 0.16011 0.48779
 H848 H -0.06924 0.16523 0.46249
 H849 H -0.05586 0.19809 0.42116
 H850 H 0.03937 0.19340 0.44684
 C851 C 0.45371 0.66936 0.95863
 C852 C 0.47660 0.65763 0.97730
 C853 C 0.50720 0.66599 0.97239
 C854 C 0.51478 0.68473 0.94866
 C855 C 0.49192 0.69575 0.92952
 C856 C 0.46130 0.68838 0.93507
 H857 H 0.42990 0.66363 0.96201
 H858 H 0.52542 0.65734 0.98625
 H859 H 0.53858 0.69050 0.94520
 H860 H 0.44324 0.69649 0.92060
 C861 C 0.50046 0.81803 0.96357
 C862 C 0.51584 0.84484 0.95497
 C863 C 0.52481 0.84719 0.92497
 C864 C 0.52012 0.82268 0.90447
 C865 C 0.50654 0.79518 0.91354
 C866 C 0.49591 0.79335 0.94303
 H867 H 0.49330 0.81556 0.98655
 H868 H 0.53601 0.86780 0.91741
 H869 H 0.52792 0.82497 0.88168
 H870 H 0.48561 0.77237 0.95075
 C871 C 0.00006 0.32069 0.46379
 C872 C 0.01330 0.34821 0.45420
 C873 C 0.02048 0.35067 0.42367
 C874 C 0.01651 0.32566 0.40369
 C875 C 0.00515 0.29765 0.41373
 C876 C -0.00402 0.29560 0.44368
 H877 H -0.00579 0.31801 0.48713
 H878 H 0.02995 0.37170 0.41526
 H879 H 0.02321 0.32796 0.38052
 H880 H -0.01265 0.27418 0.45203
 C881 C 0.36975 0.58633 0.47382
 C882 C 0.36870 0.55755 0.48654
 C883 C 0.34196 0.54754 0.50051
 C884 C 0.31634 0.56542 0.50048
 C885 C 0.31709 0.59365 0.48660
 C886 C 0.34432 0.60420 0.47396
 H887 H 0.39018 0.59502 0.46347
 H888 H 0.34039 0.52541 0.51041
 H889 H 0.29563 0.55654 0.51017
 H890 H 0.34590 0.62622 0.46378
 C891 C 0.86756 0.08453 -0.02512
 C892 C 0.86639 0.05575 -0.01241
 C893 C 0.83959 0.04581 0.00150
 C894 C 0.81402 0.06379 0.00142
 C895 C 0.81489 0.09202 -0.01247
 C896 C 0.84219 0.10248 -0.02505
 H897 H 0.88804 0.09319 -0.03538
 H898 H 0.83794 0.02369 0.01142
 H899 H 0.79327 0.05502 0.01111
 H900 H 0.84387 0.12449 -0.03520
 C901 C 0.68076 0.05459 0.03992
 C902 C 0.66539 0.03473 0.01853
 C903 C 0.67360 0.03579 -0.01186
 C904 C 0.69598 0.05671 -0.02079
 C905 C 0.71088 0.07695 0.00044
 C906 C 0.70348 0.07538 0.03097
 H907 H 0.67514 0.05420 0.06351
 H908 H 0.66220 0.02105 -0.02904
 H909 H 0.70147 0.05725 -0.04443
 H910 H 0.71449 0.09093 0.04775
 C911 C 0.18248 0.55534 0.53820
 C912 C 0.16763 0.53507 0.51685
 C913 C 0.17660 0.53551 0.48667
 C914 C 0.19905 0.55641 0.47783
 C915 C 0.21329 0.57717 0.49898
 C916 C 0.20529 0.57607 0.52938
 H917 H 0.17624 0.55543 0.56164
 H918 H 0.16560 0.52042 0.46953
 H919 H 0.20500 0.55665 0.45430
 H920 H 0.21581 0.59202 0.54607
 C921 C 0.16827 0.45895 -0.04750
 C922 C 0.15601 0.47790 -0.02528
 C923 C 0.16512 0.47471 0.00511
 C924 C 0.18494 0.45212 0.01322
 C925 C 0.19636 0.43256 -0.00892
 C926 C 0.18843 0.43663 -0.03940
 H927 H 0.16193 0.46107 -0.07114
 H928 H 0.15605 0.48885 0.02278
 H929 H 0.19108 0.44970 0.03688
 H930 H 0.19684 0.42177 -0.05689
 C931 C 0.66523 0.97549 0.50706
 C932 C 0.65575 0.97840 0.47674
 C933 C 0.66781 0.95930 0.45452
 C934 C 0.68815 0.93712 0.46256
 C935 C 0.69649 0.93335 0.49300
 C936 C 0.68526 0.95305 0.51513
 H937 H 0.65632 0.98974 0.52474
 H938 H 0.66118 0.96118 0.43092
 H939 H 0.69641 0.92215 0.44509
 H940 H 0.69170 0.95087 0.53875
 C941 C 0.85016 0.92855 0.52261
 C942 C 0.84778 0.95948 0.51652
 C943 C 0.82038 0.96925 0.50353
 C944 C 0.79525 0.94886 0.49873
 C945 C 0.79716 0.91848 0.50692
 C946 C 0.82511 0.90831 0.51794
 H947 H 0.87112 0.92002 0.53182
 H948 H 0.81778 0.99289 0.49850
 H949 H 0.77385 0.95728 0.49037
 H950 H 0.82728 0.88483 0.52390
 C951 C 0.34927 0.42706 0.02341
 C952 C 0.34711 0.45794 0.01703
 C953 C 0.32001 0.46764 0.00331
 C954 C 0.29498 0.44723 -0.00204
 C955 C 0.29666 0.41686 0.00628
 C956 C 0.32432 0.40678 0.01814
 H957 H 0.36999 0.41857 0.03321
 H958 H 0.31755 0.49123 -0.00196
 H959 H 0.27383 0.45563 -0.01102
 H960 H 0.32635 0.38332 0.02425
 C961 C 0.55249 0.49939 0.33634
 C962 C 0.56215 0.48514 0.36275
 C963 C 0.59079 0.47220 0.36365
 C964 C 0.60895 0.47256 0.33844
 C965 C 0.59882 0.48563 0.31156
 C966 C 0.57064 0.49956 0.31093
 H967 H 0.53047 0.50947 0.33491
 H968 H 0.59922 0.46167 0.38385
 H969 H 0.63093 0.46239 0.33997
 H970 H 0.56207 0.50958 0.29051
 C971 C 0.05079 -0.00163 0.83791
 C972 C 0.06036 -0.01602 0.86428
 C973 C 0.08892 -0.02913 0.86513
 C974 C 0.10704 -0.02889 0.83989
 C975 C 0.09695 -0.01575 0.81304
 C976 C 0.06892 -0.00155 0.81248
 H977 H 0.02885 0.00860 0.83652
 H978 H 0.09730 -0.03977 0.88529
 H979 H 0.12891 -0.03927 0.84135
 H980 H 0.06042 0.00855 0.79207
 C981 C 0.04276 -0.01306 0.67216
 C982 C 0.04095 0.01779 0.66542
 C983 C 0.06018 0.03929 0.68166
 C984 C 0.08099 0.03000 0.70386
 C985 C 0.08319 -0.00095 0.70989
 C986 C 0.06364 -0.02230 0.69404
 H987 H 0.02857 -0.03035 0.66007
 H988 H 0.05923 0.06323 0.67718
 H989 H 0.09598 0.04691 0.71561
 H990 H 0.06464 -0.04628 0.69844
 C991 C 0.54391 0.48680 0.17174
 C992 C 0.54159 0.51755 0.16476
 C993 C 0.56081 0.53941 0.18050
 C994 C 0.58211 0.53060 0.20242
 C995 C 0.58484 0.49977 0.20871
 C996 C 0.56533 0.47803 0.19336
 H997 H 0.52971 0.46928 0.16001
 H998 H 0.55948 0.56328 0.17583
 H999 H 0.59708 0.54780 0.21377
 H1000 H 0.56673 0.45413 0.19798
 C1001 C 0.45317 -0.04596 0.16849
 C1002 C 0.47274 -0.02361 0.15660
 C1003 C 0.46968 0.00693 0.16551
 C1004 C 0.44667 0.01508 0.18485
 C1005 C 0.42656 -0.00720 0.19599
 C1006 C 0.43044 -0.03784 0.18819
 H1007 H 0.45516 -0.06972 0.16225
 H1008 H 0.48430 0.02469 0.15667
 H1009 H 0.44438 0.03886 0.19088
 H1010 H 0.41516 -0.05543 0.19640
 C1011 C 0.95633 0.45488 0.66743
 C1012 C 0.97437 0.47782 0.65444
 C1013 C 0.96928 0.50832 0.66211
 C1014 C 0.94600 0.51574 0.68137
 C1015 C 0.92737 0.49285 0.69355
 C1016 C 0.93313 0.46233 0.68691
 H1017 H 0.95982 0.43115 0.66227
 H1018 H 0.98260 0.52662 0.65255
 H1019 H 0.94239 0.53947 0.68652
 H1020 H 0.91903 0.44424 0.69589
 C1021 C 0.92162 0.52626 0.84484
 C1022 C 0.95206 0.51800 0.84318
 C1023 C 0.96143 0.50322 0.81669
 C1024 C 0.94118 0.49842 0.79176
 C1025 C 0.91124 0.50826 0.79297
 C1026 C 0.90144 0.52138 0.82005
 H1027 H 0.91341 0.53698 0.86513
 H1028 H 0.98474 0.49660 0.81469
 H1029 H 0.94944 0.48848 0.77109
 H1030 H 0.87828 0.52858 0.82185
 C1031 C 0.42075 0.02598 0.34735
 C1032 C 0.45115 0.01764 0.34562
 C1033 C 0.46045 0.00285 0.31911
 C1034 C 0.44017 -0.00177 0.29417
 C1035 C 0.41031 0.00826 0.29542
 C1036 C 0.40055 0.02130 0.32256
 H1037 H 0.41260 0.03670 0.36768
 H1038 H 0.48373 -0.00384 0.31707
 H1039 H 0.44838 -0.01165 0.27345
 H1040 H 0.37745 0.02865 0.32436
   
