data_POSCAR
  _audit_creation_date              2014-09-24
  _audit_creation_method            'ToBaCCo'
  _symmetry_space_group_name_H-M    'P1'
  _symmetry_Int_Tables_number       1
  _symmetry_cell_setting            triclinic
  loop_
  _symmetry_equiv_pos_as_xyz
 x,y,z
_cell_length_a 29.5407
_cell_length_b 31.0522
_cell_length_c 35.5388
_cell_angle_alpha 89.114800
_cell_angle_beta 91.010900
_cell_angle_gamma 89.242300
loop_
  _atom_site_label
  _atom_site_type_symbol
  _atom_site_fract_x
  _atom_site_fract_y
  _atom_site_fract_z
C1 C 1.21925 0.28843 0.32412
 H2 H 1.24551 0.26710 0.33524
 C3 C 1.19425 0.31302 0.34900
 H4 H 1.20147 0.30996 0.37893
 C5 C 1.17868 0.31909 0.27205
 H6 H 1.17324 0.32176 0.24192
 C7 C 1.15243 0.34416 0.29612
 H8 H 1.12726 0.36617 0.28408
 N9 N 1.21094 0.29135 0.28638
 C10 C 1.23147 0.18806 0.20518
 H11 H 1.26743 0.18295 0.20915
 C12 C 1.20770 0.16242 0.17999
 H13 H 1.22595 0.13837 0.16426
 C14 C 1.16402 0.22474 0.22134
 H15 H 1.14694 0.24893 0.23751
 C16 C 1.13879 0.19967 0.19640
 H17 H 1.10285 0.20602 0.19335
 Zn18 Zn 1.24668 0.25523 0.25504
 N19 N 1.20976 0.21936 0.22453
 C20 C 1.26272 0.18572 0.30444
 N21 N 1.28323 0.21897 0.28664
 C22 C 1.32764 0.22750 0.29312
 C23 C 1.35306 0.20244 0.31895
 C24 C 1.28666 0.15997 0.33069
 C25 C 1.27901 0.33219 0.21971
 C26 C 1.30509 0.35571 0.19430
 C27 C 1.34305 0.28964 0.17752
 C28 C 1.31614 0.26745 0.20295
 N29 N 1.28429 0.28867 0.22305
 H30 H 1.22726 0.17976 0.29876
 H31 H 1.34312 0.25453 0.27907
 H32 H 1.38824 0.21050 0.32392
 H33 H 1.26844 0.13407 0.34381
 H34 H 1.25431 0.34879 0.23641
 H35 H 1.30028 0.39026 0.19227
 H36 H 1.36783 0.27195 0.16154
 H37 H 1.32104 0.23317 0.20677
 C38 C 1.16088 0.16830 0.17492
 C39 C 1.15993 0.34086 0.33527
 C40 C 1.33707 0.33415 0.17225
 C41 C 1.33263 0.16857 0.33903
 C42 C 0.71548 -0.21145 0.31391
 H43 H 0.74196 -0.23351 0.32331
 C44 C 0.69088 -0.18939 0.34072
 H45 H 0.69916 -0.19464 0.37028
 C46 C 0.67220 -0.17826 0.26456
 H47 H 0.66486 -0.17434 0.23477
 C48 C 0.64636 -0.15558 0.29065
 H49 H 0.62003 -0.13365 0.28041
 N50 N 0.70623 -0.20548 0.27654
 C51 C 0.72703 -0.29635 0.18498
 H52 H 0.76333 -0.29463 0.18260
 C53 C 0.70271 -0.32275 0.16084
 H54 H 0.72068 -0.34084 0.13983
 C55 C 0.65979 -0.27526 0.21538
 H56 H 0.64324 -0.25683 0.23683
 C57 C 0.63400 -0.30147 0.19176
 H58 H 0.59773 -0.30188 0.19509
 Zn59 Zn 0.74214 -0.23761 0.24227
 N60 N 0.70544 -0.27293 0.21139
 C61 C 0.77280 -0.31568 0.27652
 N62 N 0.78256 -0.27344 0.27083
 C63 C 0.81923 -0.25534 0.28763
 C64 C 0.84682 -0.27959 0.31245
 C65 C 0.79951 -0.34113 0.30114
 C66 C 0.76521 -0.15949 0.20289
 C67 C 0.79073 -0.13483 0.17787
 C68 C 0.84091 -0.19598 0.17055
 C69 C 0.81451 -0.21937 0.19551
 N70 N 0.77704 -0.20123 0.21075
 H71 H 0.74343 -0.32935 0.26290
 H72 H 0.82606 -0.22159 0.28273
 H73 H 0.87512 -0.26436 0.32645
 H74 H 0.79093 -0.37460 0.30523
 H75 H 0.73584 -0.14527 0.21567
 H76 H 0.78068 -0.10170 0.17233
 H77 H 0.87028 -0.21135 0.15846
 H78 H 0.82393 -0.25228 0.20265
 C79 C 0.65561 -0.32567 0.16392
 C80 C 0.65570 -0.16119 0.32941
 C81 C 0.82880 -0.15342 0.16081
 C82 C 0.83633 -0.32267 0.32035
 C83 C 0.72090 0.28180 -0.18398
 H84 H 0.74502 0.25751 -0.17448
 C85 C 0.69526 0.30296 -0.15728
 H86 H 0.70084 0.29520 -0.12771
 C87 C 0.68305 0.32031 -0.23342
 H88 H 0.67782 0.32659 -0.26312
 C89 C 0.65612 0.34202 -0.20749
 H90 H 0.63142 0.36563 -0.21770
 N91 N 0.71520 0.29112 -0.22134
 C92 C 0.73778 0.20503 -0.31544
 H93 H 0.77366 0.20950 -0.31932
 C94 C 0.71341 0.17891 -0.33989
 H95 H 0.73086 0.16337 -0.36266
 C96 C 0.67160 0.22029 -0.28111
 H97 H 0.65553 0.23658 -0.25813
 C98 C 0.64586 0.19439 -0.30494
 H99 H 0.60998 0.19202 -0.30008
 Zn100 Zn 0.75263 0.26031 -0.25568
 N101 N 0.71667 0.22512 -0.28681
 C102 C 0.78943 0.18131 -0.22636
 N103 N 0.79371 0.22489 -0.22677
 C104 C 0.82472 0.24439 -0.20420
 C105 C 0.85210 0.22004 -0.17935
 C106 C 0.81597 0.15570 -0.20168
 C107 C 0.76274 0.32598 -0.31136
 C108 C 0.78603 0.35205 -0.33673
 C109 C 0.85623 0.31992 -0.31384
 C110 C 0.83151 0.29455 -0.28899
 N111 N 0.78562 0.29818 -0.28775
 H112 H 0.76440 0.16640 -0.24427
 H113 H 0.82702 0.27914 -0.20461
 H114 H 0.87580 0.23624 -0.16096
 H115 H 0.81177 0.12115 -0.20170
 H116 H 0.72624 0.32719 -0.31136
 H117 H 0.76659 0.37364 -0.35527
 H118 H 0.89241 0.31491 -0.31354
 H119 H 0.84932 0.27096 -0.27153
 C120 C 0.66686 0.17313 -0.33487
 C121 C 0.66234 0.33339 -0.16878
 C122 C 0.83361 0.34943 -0.33859
 C123 C 0.84704 0.17528 -0.17709
 C124 C 1.22411 -0.22019 -0.17743
 H125 H 1.25025 -0.24234 -0.16743
 C126 C 1.19965 -0.19660 -0.15143
 H127 H 1.20743 -0.20083 -0.12169
 C128 C 1.18216 -0.18773 -0.22794
 H129 H 1.17552 -0.18445 -0.25789
 C130 C 1.15663 -0.16357 -0.20281
 H131 H 1.13117 -0.14127 -0.21394
 N132 N 1.21540 -0.21521 -0.21498
 C133 C 1.23490 -0.30411 -0.30802
 H134 H 1.27123 -0.30322 -0.31033
 C135 C 1.20993 -0.32933 -0.33273
 H136 H 1.22766 -0.34632 -0.35447
 C137 C 1.16815 -0.28198 -0.27742
 H138 H 1.15200 -0.26399 -0.25551
 C139 C 1.14176 -0.30672 -0.30171
 H140 H 1.10535 -0.30704 -0.29859
 Zn141 Zn 1.25114 -0.24754 -0.24900
 N142 N 1.21389 -0.28079 -0.28120
 C143 C 1.27863 -0.32768 -0.21741
 N144 N 1.28987 -0.28553 -0.22106
 C145 C 1.32723 -0.26970 -0.20353
 C146 C 1.35466 -0.29655 -0.18065
 C147 C 1.30510 -0.35565 -0.19487
 C148 C 1.27682 -0.16793 -0.28350
 C149 C 1.30204 -0.14202 -0.30759
 C150 C 1.34950 -0.20365 -0.32072
 C151 C 1.32336 -0.22836 -0.29643
 N152 N 1.28726 -0.21053 -0.27890
 H153 H 1.24841 -0.33942 -0.23118
 H154 H 1.33499 -0.23589 -0.20655
 H155 H 1.38305 -0.28259 -0.16588
 H156 H 1.29515 -0.38894 -0.19168
 H157 H 1.24855 -0.15395 -0.26907
 H158 H 1.29265 -0.10839 -0.31151
 H159 H 1.37681 -0.21933 -0.33530
 H160 H 1.33174 -0.26203 -0.29182
 C161 C 1.16262 -0.33103 -0.32964
 C162 C 1.16533 -0.16797 -0.16389
 C163 C 1.33877 -0.15979 -0.32672
 C164 C 1.34357 -0.34026 -0.17601
 C165 C 0.26130 0.19163 0.69204
 H166 H 0.22467 0.19185 0.69125
 C167 C 0.28532 0.16537 0.66770
 H168 H 0.26692 0.14545 0.64806
 C169 C 0.32964 0.21768 0.71851
 H170 H 0.34676 0.23828 0.73825
 C171 C 0.35507 0.19196 0.69454
 H172 H 0.39160 0.19258 0.69685
 N173 N 0.28362 0.21682 0.71699
 C174 C 0.18521 0.23445 0.80518
 H175 H 0.18229 0.26922 0.80523
 C176 C 0.16106 0.20987 0.83093
 H177 H 0.13936 0.22629 0.85054
 C178 C 0.21820 0.17147 0.78012
 H179 H 0.24135 0.15665 0.76086
 C180 C 0.19484 0.14554 0.80551
 H181 H 0.20061 0.11121 0.80444
 Zn182 Zn 0.24734 0.25092 0.74858
 N183 N 0.21292 0.21503 0.78032
 C184 C 0.16340 0.28324 0.71784
 N185 N 0.20931 0.28598 0.71711
 C186 C 0.22998 0.31337 0.69287
 C187 C 0.20433 0.34071 0.66911
 C188 C 0.13641 0.30972 0.69422
 C189 C 0.31137 0.26543 0.80576
 C190 C 0.33607 0.28916 0.83187
 C191 C 0.30214 0.35437 0.80557
 C192 C 0.27805 0.32935 0.77996
 N193 N 0.28319 0.28572 0.78037
 H194 H 0.14761 0.26038 0.73650
 H195 H 0.26657 0.31410 0.69222
 H196 H 0.22162 0.36188 0.64981
 H197 H 0.09990 0.30723 0.69505
 H198 H 0.31402 0.23064 0.80611
 H199 H 0.35800 0.27237 0.85214
 H200 H 0.29612 0.38877 0.80524
 H201 H 0.25421 0.34487 0.76061
 C202 C 0.16577 0.16469 0.83172
 C203 C 0.33277 0.16554 0.66847
 C204 C 0.33170 0.33422 0.83206
 C205 C 0.15682 0.33941 0.66996
 C206 C 0.75986 0.68334 0.69705
 H207 H 0.72322 0.68356 0.69624
 C208 C 0.78393 0.65821 0.67183
 H209 H 0.76536 0.63971 0.65131
 C210 C 0.82817 0.70925 0.72372
 H211 H 0.84528 0.72980 0.74350
 C212 C 0.85358 0.68491 0.69880
 H213 H 0.89018 0.68664 0.69982
 N214 N 0.78217 0.70768 0.72267
 C215 C 0.68280 0.72520 0.81010
 H216 H 0.68181 0.76000 0.81126
 C217 C 0.65688 0.70088 0.83475
 H218 H 0.63579 0.71753 0.85467
 C219 C 0.71280 0.66182 0.78336
 H220 H 0.73554 0.64671 0.76394
 C221 C 0.68762 0.63612 0.80765
 H222 H 0.69155 0.60167 0.80551
 Zn223 Zn 0.74701 0.74120 0.75542
 N224 N 0.70992 0.70548 0.78498
 C225 C 0.66541 0.77686 0.72382
 N226 N 0.71132 0.77986 0.72512
 C227 C 0.73317 0.80824 0.70253
 C228 C 0.70872 0.83559 0.67783
 C229 C 0.63965 0.80338 0.69932
 C230 C 0.81081 0.74558 0.81350
 C231 C 0.83869 0.76431 0.84059
 C232 C 0.81254 0.83442 0.81849
 C233 C 0.78516 0.81428 0.79171
 N234 N 0.78507 0.77061 0.78954
 H235 H 0.64868 0.75316 0.74103
 H236 H 0.76978 0.80909 0.70330
 H237 H 0.72707 0.85705 0.65952
 H238 H 0.60317 0.80022 0.69830
 H239 H 0.80942 0.71088 0.81161
 H240 H 0.85885 0.74377 0.85945
 H241 H 0.81090 0.86912 0.82009
 H242 H 0.76339 0.83357 0.77322
 C243 C 0.65925 0.65561 0.83422
 C244 C 0.83152 0.65859 0.67278
 C245 C 0.84008 0.80926 0.84332
 C246 C 0.66119 0.83339 0.67608
 C247 C 0.76827 0.17950 0.19500
 H248 H 0.73165 0.17908 0.19447
 C249 C 0.79259 0.15409 0.17018
 H250 H 0.77420 0.13467 0.15022
 C251 C 0.83630 0.20747 0.22049
 H252 H 0.85318 0.22899 0.23956
 C253 C 0.86193 0.18285 0.19599
 H254 H 0.89848 0.18530 0.19666
 N255 N 0.79036 0.20498 0.21986
 C256 C 0.69398 0.22499 0.30890
 H257 H 0.69398 0.25981 0.30960
 C258 C 0.66923 0.20174 0.33510
 H259 H 0.64988 0.21890 0.35586
 C260 C 0.72089 0.16040 0.28193
 H261 H 0.74232 0.14443 0.26202
 C262 C 0.69656 0.13580 0.30764
 H263 H 0.69991 0.10112 0.30696
 Zn264 Zn 0.75523 0.23892 0.25212
 N265 N 0.71906 0.20415 0.28300
 C266 C 0.67300 0.27470 0.22224
 N267 N 0.71895 0.27666 0.22186
 C268 C 0.74043 0.30448 0.19852
 C269 C 0.71552 0.33267 0.17496
 C270 C 0.64676 0.30203 0.19887
 C271 C 0.82015 0.24654 0.30903
 C272 C 0.84727 0.26711 0.33553
 C273 C 0.81721 0.33554 0.31256
 C274 C 0.79081 0.31361 0.28636
 N275 N 0.79297 0.26993 0.28494
 H276 H 0.65658 0.25151 0.24019
 H277 H 0.77704 0.30457 0.19815
 H278 H 0.73342 0.35390 0.15612
 H279 H 0.61020 0.29987 0.19919
 H280 H 0.82039 0.21174 0.30779
 H281 H 0.86856 0.24791 0.35461
 H282 H 0.81358 0.37014 0.31354
 H283 H 0.76777 0.33152 0.26791
 C284 C 0.67033 0.15660 0.33478
 C285 C 0.84015 0.15537 0.17078
 C286 C 0.84612 0.31216 0.33760
 C287 C 0.66796 0.33176 0.17515
 C288 C 0.26693 0.68588 0.19287
 H289 H 0.23034 0.68749 0.19350
 C290 C 0.28838 0.65966 0.16694
 H291 H 0.26811 0.64097 0.14763
 C292 C 0.33776 0.70904 0.21689
 H293 H 0.35682 0.72876 0.23610
 C294 C 0.36064 0.68346 0.19118
 H295 H 0.39727 0.68304 0.19165
 N296 N 0.29172 0.70967 0.21730
 C297 C 0.19595 0.73420 0.30616
 H298 H 0.19603 0.76904 0.30610
 C299 C 0.17057 0.71173 0.33253
 H300 H 0.15082 0.72955 0.35259
 C301 C 0.22325 0.66876 0.28106
 H302 H 0.24508 0.65214 0.26185
 C303 C 0.19838 0.64496 0.30698
 H304 H 0.20179 0.61027 0.30706
 Zn305 Zn 0.25904 0.74570 0.24975
 N306 N 0.22154 0.71255 0.28109
 C307 C 0.17812 0.78153 0.21690
 N308 N 0.22409 0.78379 0.21847
 C309 C 0.24681 0.81045 0.19495
 C310 C 0.22325 0.83633 0.16856
 C311 C 0.15321 0.80655 0.19060
 C312 C 0.32503 0.75107 0.30616
 C313 C 0.35261 0.77028 0.33320
 C314 C 0.32534 0.83998 0.31092
 C315 C 0.29843 0.81926 0.28414
 N316 N 0.29870 0.77559 0.28231
 H317 H 0.16073 0.75948 0.23529
 H318 H 0.28342 0.81099 0.19628
 H319 H 0.24194 0.85714 0.14985
 H320 H 0.11668 0.80433 0.18993
 H321 H 0.32400 0.71633 0.30453
 H322 H 0.37289 0.74968 0.35197
 H323 H 0.32343 0.87468 0.31125
 H324 H 0.27646 0.83816 0.26549
 C325 C 0.17159 0.66655 0.33328
 C326 C 0.33574 0.65869 0.16549
 C327 C 0.35282 0.81541 0.33651
 C328 C 0.17597 0.83394 0.16560
 O329 O 1.09059 0.05136 0.03042
 O330 O 0.91789 -0.04176 0.02019
 O331 O 0.95259 0.08887 0.02189
 O332 O 1.05576 -0.07917 0.02422
 O333 O 0.92679 0.02953 0.04132
 O334 O 1.08076 -0.02153 0.04743
 O335 O 0.97899 -0.06889 0.04286
 O336 O 1.02723 0.07717 0.04780
 C337 C 1.06793 0.07048 0.05458
 C338 C 0.93814 -0.06178 0.04634
 C339 C 0.93139 0.06840 0.04606
 C340 C 1.07513 -0.06057 0.05078
 O341 O 1.09139 -0.04456 -0.02590
 O342 O 0.92241 0.05865 -0.03210
 O343 O 1.06102 0.08774 -0.02196
 O344 O 0.95195 -0.07398 -0.03086
 O345 O 0.93069 -0.01294 -0.05229
 O346 O 1.08545 0.02947 -0.04447
 O347 O 1.02920 -0.06697 -0.04897
 O348 O 0.98641 0.08212 -0.04847
 Co349 Co 1.07926 0.00393 0.00143
 Co350 Co 0.93215 0.00814 -0.00532
 Co351 Co 1.00660 0.07632 -0.00037
 Co352 Co 1.00408 -0.06455 -0.00303
 O353 O 1.00553 0.00593 -0.00177
 C354 C 1.07043 -0.06240 -0.05207
 C355 C 0.94594 0.07736 -0.05604
 C356 C 1.08077 0.06890 -0.04769
 C357 C 0.93391 -0.05198 -0.05685
 O358 O 1.08068 0.55527 0.53001
 O359 O 0.90699 0.46288 0.51852
 O360 O 0.94310 0.59332 0.52272
 O361 O 1.04476 0.42489 0.52209
 O362 O 0.91659 0.53377 0.54122
 O363 O 1.07013 0.48174 0.54663
 O364 O 0.96811 0.43510 0.54063
 O365 O 1.01755 0.58078 0.54780
 C366 C 1.05815 0.57404 0.55445
 C367 C 0.92705 0.44160 0.54398
 C368 C 0.92172 0.57252 0.54661
 C369 C 1.06470 0.44247 0.54881
 O370 O 1.08100 0.46009 0.47305
 O371 O 0.91219 0.56467 0.46852
 O372 O 1.05106 0.59240 0.47775
 O373 O 0.94163 0.43227 0.46699
 O374 O 0.91977 0.49357 0.44666
 O375 O 1.07532 0.53398 0.45535
 O376 O 1.01902 0.43882 0.44891
 O377 O 0.97614 0.58768 0.45174
 Co378 Co 1.06894 0.50812 0.50089
 Co379 Co 0.92167 0.51341 0.49411
 Co380 Co 0.99674 0.58094 0.49972
 Co381 Co 0.99353 0.44040 0.49492
 O382 O 0.99523 0.51069 0.49747
 C383 C 1.06033 0.44335 0.44620
 C384 C 0.93554 0.58333 0.44446
 C385 C 1.07076 0.57336 0.45208
 C386 C 0.92417 0.45479 0.44115
 O387 O 0.58851 0.04581 0.52996
 O388 O 0.41118 -0.04723 0.52402
 O389 O 0.45126 0.08242 0.53349
 O390 O 0.54828 -0.08445 0.52546
 O391 O 0.42335 0.02260 0.55061
 O392 O 0.57677 -0.02768 0.54842
 O393 O 0.47272 -0.07503 0.54436
 O394 O 0.52737 0.06953 0.55247
 C395 C 0.56863 0.06431 0.55591
 C396 C 0.43186 -0.06909 0.54859
 C397 C 0.43099 0.06067 0.55762
 C398 C 0.57005 -0.06677 0.55134
 O399 O 0.58372 -0.05065 0.47549
 O400 O 0.41423 0.05779 0.48030
 O401 O 0.55341 0.08226 0.47955
 O402 O 0.44432 -0.07485 0.47011
 O403 O 0.42017 -0.01222 0.45425
 O404 O 0.57692 0.02345 0.45670
 O405 O 0.52090 -0.06881 0.45169
 O406 O 0.47658 0.07969 0.45956
 Co407 Co 0.57335 -0.00185 0.50261
 Co408 Co 0.42527 0.00484 0.50237
 Co409 Co 0.50186 0.07114 0.50589
 Co410 Co 0.49682 -0.06841 0.49829
 O411 O 0.49931 0.00142 0.50234
 C412 C 0.56216 -0.06547 0.44834
 C413 C 0.43531 0.07685 0.45510
 C414 C 0.57165 0.06279 0.45328
 C415 C 0.42454 -0.05056 0.44648
 O416 O 0.58545 0.54221 0.03151
 O417 O 0.41827 0.44295 0.02792
 O418 O 0.44581 0.57449 0.02500
 O419 O 0.55785 0.41056 0.02480
 O420 O 0.42338 0.51511 0.04662
 O421 O 0.57957 0.46887 0.04845
 O422 O 0.48200 0.41774 0.04770
 O423 O 0.52173 0.56626 0.04986
 C424 C 0.56284 0.56141 0.05568
 C425 C 0.44121 0.42390 0.05319
 C426 C 0.42788 0.55402 0.05095
 C427 C 0.57696 0.42941 0.05110
 O428 O 0.58800 0.44721 -0.02606
 O429 O 0.41509 0.54161 -0.02783
 O430 O 0.55291 0.57778 -0.02041
 O431 O 0.45066 0.41058 -0.02362
 O432 O 0.42510 0.46931 -0.04641
 O433 O 0.57795 0.52030 -0.04352
 O434 O 0.52595 0.42155 -0.04663
 O435 O 0.47753 0.56859 -0.04531
 Co436 Co 0.57508 0.49457 0.00246
 Co437 Co 0.42808 0.49238 0.00018
 Co438 Co 0.49971 0.56403 0.00221
 Co439 Co 0.50390 0.42289 0.00062
 O440 O 0.50168 0.49348 0.00141
 C441 C 0.56646 0.42891 -0.05166
 C442 C 0.43681 0.56274 -0.05155
 C443 C 0.57234 0.55955 -0.04657
 C444 C 0.43090 0.43022 -0.04992
 C445 C 1.13763 0.14300 0.14541
 C446 C 1.09263 0.13763 0.14286
 C447 C 1.06971 0.11499 0.11154
 C448 C 1.09084 0.08870 0.08768
 H449 H 1.07075 0.15178 0.16349
 H450 H 1.03365 0.12094 0.10795
 H451 H 1.15928 0.12900 0.12455
 H452 H 1.12638 0.08083 0.09138
 C453 C 1.13416 0.64434 0.64374
 C454 C 1.14977 0.61015 0.62496
 C455 C 1.12438 0.58799 0.59487
 C456 C 1.07991 0.59296 0.58774
 H457 H 1.18401 0.59854 0.63016
 H458 H 1.14416 0.56707 0.57719
 H459 H 1.09969 0.65564 0.63935
 H460 H 1.05882 0.61215 0.60574
 C461 C 0.64189 0.14629 0.63763
 C462 C 0.59965 0.13185 0.64230
 C463 C 0.57458 0.10761 0.61325
 C464 C 0.59455 0.08408 0.58673
 H465 H 0.58109 0.13971 0.66722
 H466 H 0.53796 0.10943 0.61404
 H467 H 0.65935 0.13884 0.61198
 H468 H 0.63097 0.07997 0.58667
 C469 C 0.63108 0.64702 0.13659
 C470 C 0.58808 0.63419 0.13997
 C471 C 0.56451 0.60854 0.11097
 C472 C 0.58607 0.58239 0.08728
 H473 H 0.56815 0.64430 0.16352
 H474 H 0.52796 0.61168 0.10921
 H475 H 0.64983 0.63752 0.11211
 H476 H 0.62227 0.57715 0.08995
 C477 C 0.85692 -0.13022 0.13302
 C478 C 0.84283 -0.09524 0.11317
 C479 C 0.86929 -0.07481 0.08281
 C480 C 0.91395 -0.08068 0.07835
 H481 H 0.80902 -0.08247 0.11688
 H482 H 0.85064 -0.05376 0.06331
 H483 H 0.88935 -0.14482 0.12694
 H484 H 0.93384 -0.09976 0.09844
 C485 C 0.85501 0.37416 0.63553
 C486 C 0.90217 0.37487 0.63026
 C487 C 0.92409 0.39747 0.60150
 C488 C 0.90285 0.42293 0.57326
 H489 H 0.92469 0.35659 0.64880
 H490 H 0.96063 0.39379 0.60106
 H491 H 0.83387 0.39452 0.61740
 H492 H 0.86668 0.42844 0.57302
 C493 C 0.36309 -0.13244 0.64585
 C494 C 0.40493 -0.14156 0.63388
 C495 C 0.42844 -0.11633 0.60467
 C496 C 0.40730 -0.09058 0.57910
 H497 H 0.42400 -0.16823 0.64640
 H498 H 0.46467 -0.12162 0.60288
 H499 H 0.34584 -0.10342 0.63581
 H500 H 0.37092 -0.08621 0.57926
 C501 C 0.36470 0.35639 0.14358
 C502 C 0.35169 0.39324 0.12611
 C503 C 0.37610 0.41290 0.09426
 C504 C 0.41976 0.40510 0.08664
 H505 H 0.31960 0.40813 0.13282
 H506 H 0.35676 0.43531 0.07646
 H507 H 0.39476 0.33958 0.13440
 H508 H 0.44056 0.38483 0.10516
 C509 C 0.87368 0.15066 -0.14814
 C510 C 0.85923 0.11390 -0.13235
 C511 C 0.88214 0.09210 -0.09984
 C512 C 0.92572 0.09754 -0.09017
 H513 H 0.82693 0.10093 -0.14097
 H514 H 0.86177 0.07037 -0.08330
 H515 H 0.90377 0.16578 -0.13703
 H516 H 0.94745 0.11709 -0.10745
 C517 C 0.86352 0.65345 0.34948
 C518 C 0.84704 0.62047 0.36967
 C519 C 0.87087 0.59931 0.40204
 C520 C 0.91497 0.60358 0.41048
 H521 H 0.81272 0.61008 0.36455
 H522 H 0.85037 0.57907 0.41986
 H523 H 0.89641 0.66621 0.35656
 H524 H 0.93683 0.62204 0.39247
 C525 C 0.35764 0.14663 0.36554
 C526 C 0.34095 0.11487 0.39016
 C527 C 0.36640 0.09365 0.41863
 C528 C 0.41323 0.09710 0.42456
 H529 H 0.30559 0.10669 0.38940
 H530 H 0.34772 0.07268 0.43725
 H531 H 0.39265 0.15571 0.36894
 H532 H 0.43382 0.11504 0.40516
 C533 C 0.36874 0.63019 -0.14970
 C534 C 0.41079 0.63751 -0.13664
 C535 C 0.43426 0.61063 -0.10741
 C536 C 0.41298 0.58436 -0.08338
 H537 H 0.42974 0.66428 -0.14770
 H538 H 0.47032 0.61551 -0.10385
 H539 H 0.35160 0.60120 -0.14106
 H540 H 0.37672 0.58037 -0.08525
 C541 C 1.14076 -0.14276 -0.13543
 C542 C 1.09949 -0.12504 -0.14118
 C543 C 1.07472 -0.10232 -0.11140
 C544 C 1.09542 -0.08183 -0.08311
 H545 H 1.08131 -0.13008 -0.16739
 H546 H 1.03807 -0.10219 -0.11333
 H547 H 1.15653 -0.14106 -0.10776
 H548 H 1.13195 -0.07947 -0.08215
 C549 C 1.13414 0.36627 0.36287
 C550 C 1.09244 0.38284 0.35648
 C551 C 1.06631 0.40474 0.38605
 C552 C 1.08593 0.42521 0.41488
 H553 H 1.07504 0.37717 0.33003
 H554 H 1.02971 0.40392 0.38372
 H555 H 1.14922 0.36856 0.39074
 H556 H 1.12235 0.42846 0.41625
 C557 C 0.63102 -0.13804 0.35913
 C558 C 0.58961 -0.12015 0.35471
 C559 C 0.56516 -0.10001 0.38615
 C560 C 0.58632 -0.08245 0.41578
 H561 H 0.57124 -0.12313 0.32831
 H562 H 0.52850 -0.09942 0.38446
 H563 H 0.64698 -0.13832 0.38679
 H564 H 0.62286 -0.08042 0.41667
 C565 C 0.63672 0.35588 -0.13930
 C566 C 0.59529 0.37347 -0.14447
 C567 C 0.57001 0.39309 -0.11328
 C568 C 0.59071 0.41239 -0.08433
 H569 H 0.57770 0.37047 -0.17124
 H570 H 0.53338 0.39198 -0.11462
 H571 H 0.65178 0.35528 -0.11128
 H572 H 0.62709 0.41624 -0.08420
 C573 C 1.14222 0.14123 -0.14074
 C574 C 1.14407 0.09620 -0.13562
 C575 C 1.12338 0.07354 -0.10622
 C576 C 1.09928 0.09256 -0.07708
 H577 H 1.16267 0.07652 -0.15493
 H578 H 1.12747 0.03879 -0.10600
 H579 H 1.12171 0.16008 -0.12214
 H580 H 1.09444 0.12702 -0.07607
 C581 C 1.14679 0.64373 0.36337
 C582 C 1.13631 0.60179 0.36254
 C583 C 1.11374 0.57855 0.39353
 C584 C 1.09121 0.59782 0.42117
 H585 H 1.14561 0.58253 0.33876
 H586 H 1.11554 0.54369 0.39299
 H587 H 1.13750 0.66278 0.38729
 H588 H 1.08692 0.63242 0.42152
 C589 C 0.64632 0.13300 0.36473
 C590 C 0.63488 0.09139 0.36286
 C591 C 0.61300 0.06777 0.39392
 C592 C 0.59035 0.08699 0.42152
 H593 H 0.64309 0.07282 0.33838
 H594 H 0.61562 0.03293 0.39364
 H595 H 0.63843 0.15118 0.38952
 H596 H 0.58514 0.12151 0.42138
 C597 C 0.63439 0.63232 -0.13899
 C598 C 0.63454 0.58722 -0.13482
 C599 C 0.61347 0.56458 -0.10566
 C600 C 0.58971 0.58351 -0.07626
 H601 H 0.65255 0.56744 -0.15442
 H602 H 0.61717 0.52979 -0.10575
 H603 H 0.61468 0.65134 -0.11993
 H604 H 0.58444 0.61792 -0.07527
 C605 C 0.86874 -0.17196 -0.12651
 C606 C 0.88011 -0.13044 -0.12531
 C607 C 0.90616 -0.11353 -0.09315
 C608 C 0.91227 -0.07121 -0.09000
 H609 H 0.86968 -0.10825 -0.14766
 H610 H 0.91851 -0.13546 -0.07114
 H611 H 0.88102 -0.19345 -0.10412
 H612 H 0.89876 -0.04945 -0.11170
 C613 C 0.87337 0.33280 0.36757
 C614 C 0.87994 0.37522 0.36965
 C615 C 0.90373 0.39335 0.40227
 C616 C 0.90458 0.43584 0.40713
 H617 H 0.86687 0.39715 0.34807
 H618 H 0.91878 0.37174 0.42340
 H619 H 0.88810 0.31201 0.38947
 H620 H 0.88884 0.45734 0.38626
 C621 C 0.37821 -0.16731 0.36448
 C622 C 0.38045 -0.12341 0.37281
 C623 C 0.40453 -0.10943 0.40439
 C624 C 0.40418 -0.06598 0.41380
 H625 H 0.36250 -0.09944 0.35578
 H626 H 0.42243 -0.13271 0.42243
 H627 H 0.39765 -0.18918 0.38287
 H628 H 0.38623 -0.04298 0.39549
 C629 C 0.35612 0.35822 -0.13822
 C630 C 0.36344 0.40086 -0.13952
 C631 C 0.38572 0.42484 -0.10872
 C632 C 0.41165 0.40624 -0.08159
 H633 H 0.35146 0.42001 -0.16339
 H634 H 0.38047 0.45944 -0.10875
 H635 H 0.36786 0.33936 -0.11408
 H636 H 0.41913 0.37209 -0.08184
 C637 C 1.15187 -0.13966 0.13627
 C638 C 1.11243 -0.15111 0.12019
 C639 C 1.09027 -0.12651 0.08878
 C640 C 1.09561 -0.08414 0.08317
 H641 H 1.09728 -0.18142 0.12799
 H642 H 1.06795 -0.14407 0.07018
 H643 H 1.16923 -0.11163 0.12562
 H644 H 1.11553 -0.06573 0.10290
 C645 C 1.12806 0.36682 0.64454
 C646 C 1.14093 0.40572 0.63210
 C647 C 1.11456 0.43246 0.60457
 C648 C 1.08563 0.41608 0.57928
 H649 H 1.17197 0.41944 0.64287
 H650 H 1.12258 0.46639 0.60304
 H651 H 1.09494 0.35492 0.63685
 H652 H 1.07939 0.38183 0.57893
 C653 C 0.63352 -0.14029 0.64886
 C654 C 0.64684 -0.10209 0.63514
 C655 C 0.62091 -0.07625 0.60661
 C656 C 0.59130 -0.09292 0.58194
 H657 H 0.67764 -0.08793 0.64586
 H658 H 0.62943 -0.04250 0.60417
 H659 H 0.60060 -0.15243 0.64087
 H660 H 0.58427 -0.12703 0.58253
 C661 C 0.63980 0.35900 0.14920
 C662 C 0.65331 0.39713 0.13552
 C663 C 0.62697 0.42262 0.10713
 C664 C 0.59938 0.40457 0.08174
 H665 H 0.68448 0.41101 0.14581
 H666 H 0.63358 0.45682 0.10521
 H667 H 0.60645 0.34740 0.14180
 H668 H 0.59493 0.37002 0.08178
 C669 C 0.86777 0.13080 0.14405
 C670 C 0.85398 0.09418 0.12830
 C671 C 0.88016 0.07117 0.09971
 C672 C 0.90880 0.09100 0.07656
 H673 H 0.82283 0.07947 0.13713
 H674 H 0.87285 0.03740 0.09590
 H675 H 0.90112 0.14294 0.13806
 H676 H 0.91425 0.12530 0.07844
 C677 C 0.85889 0.63422 0.64566
 C678 C 0.84458 0.59811 0.62929
 C679 C 0.87046 0.57515 0.60041
 C680 C 0.89956 0.59484 0.57756
 H681 H 0.81314 0.58373 0.63782
 H682 H 0.86247 0.54162 0.59606
 H683 H 0.89245 0.64600 0.63993
 H684 H 0.90569 0.62897 0.58001
 C685 C 0.35730 0.13789 0.64171
 C686 C 0.39944 0.14579 0.63022
 C687 C 0.42148 0.12166 0.59991
 C688 C 0.41149 0.08106 0.59085
 H689 H 0.41711 0.17376 0.64025
 H690 H 0.44718 0.13859 0.58437
 H691 H 0.33834 0.11229 0.62873
 H692 H 0.38811 0.06258 0.60751
 C693 C 0.35767 0.63174 0.13687
 C694 C 0.39799 0.64096 0.12224
 C695 C 0.41784 0.61690 0.09091
 C696 C 0.40872 0.57567 0.08362
 H697 H 0.41565 0.66954 0.13091
 H698 H 0.44178 0.63401 0.07364
 H699 H 0.33806 0.60568 0.12534
 H700 H 0.38744 0.55707 0.10207
   
