data_POSCAR
  _audit_creation_date              2014-09-24
  _audit_creation_method            'ToBaCCo'
  _symmetry_space_group_name_H-M    'P1'
  _symmetry_Int_Tables_number       1
  _symmetry_cell_setting            triclinic
  loop_
  _symmetry_equiv_pos_as_xyz
 x,y,z
_cell_length_a 44.3767
_cell_length_b 44.5858
_cell_length_c 44.5163
_cell_angle_alpha 89.997000
_cell_angle_beta 90.004400
_cell_angle_gamma 89.932300
loop_
  _atom_site_label
  _atom_site_type_symbol
  _atom_site_fract_x
  _atom_site_fract_y
  _atom_site_fract_z
C1 C 0.16910 0.17121 0.20554
 N2 N 0.19407 0.15861 0.19306
 C3 C 0.20667 0.17020 0.16775
 N4 N 0.19390 0.19480 0.15491
 C5 C 0.16898 0.20774 0.16701
 N6 N 0.15675 0.19580 0.19229
 C7 C -0.16625 0.83142 0.20900
 N8 N -0.19154 0.84364 0.19679
 C9 C -0.20484 0.83127 0.17222
 N10 N -0.19242 0.80626 0.15983
 C11 C -0.16718 0.79368 0.17167
 N12 N -0.15425 0.80641 0.19622
 C13 C -0.17145 0.16726 -0.20761
 N14 N -0.19595 0.15428 -0.19470
 C15 C -0.20891 0.16620 -0.16971
 N16 N -0.19696 0.19155 -0.15763
 C17 C -0.17250 0.20490 -0.17018
 N18 N -0.15990 0.19260 -0.19512
 C19 C 0.17053 0.83136 -0.20641
 N20 N 0.15749 0.80645 -0.19464
 C21 C 0.16906 0.79309 -0.16974
 N22 N 0.19395 0.80499 -0.15657
 C23 C 0.20735 0.82994 -0.16799
 N24 N 0.19541 0.84294 -0.19294
 C25 C 0.17065 1.16981 0.79428
 N26 N 0.19523 1.15738 0.80765
 C27 C 0.20723 1.16955 0.83293
 N28 N 0.19434 1.19447 0.84493
 C29 C 0.16975 1.20730 0.83199
 N30 N 0.15811 1.19477 0.80667
 C31 C 0.83233 0.83292 0.79093
 N32 N 0.80739 0.84501 0.80393
 C33 C 0.79466 0.83216 0.82850
 N34 N 0.80715 0.80688 0.84015
 C35 C 0.83209 0.79436 0.82755
 N36 N 0.84447 0.80759 0.80294
 C37 C 0.16679 0.82871 1.20765
 N38 N 0.15395 0.80410 1.19496
 C39 C 0.16605 0.79121 1.17006
 N40 N 0.19133 0.80322 1.15777
 C41 C 0.20452 0.82779 1.17010
 N42 N 0.19210 0.84038 1.19500
 C43 C 0.83257 1.17076 1.20717
 N44 N 0.80759 1.15779 1.19520
 C45 C 0.79417 1.16940 1.17035
 N46 N 0.80602 1.19432 1.15739
 C47 C 0.83098 1.20769 1.16894
 N48 N 0.84406 1.19570 1.19384
 O49 O 0.45767 1.05217 1.05489
 O50 O 0.42483 1.02269 1.02833
 C51 C 0.43062 1.04391 1.04738
 O52 O 0.54248 1.04887 0.94775
 O53 O 0.57549 1.02190 0.97678
 C54 C 0.56958 1.04112 0.95572
 O55 O 0.45760 1.05180 0.95075
 O56 O 0.42472 1.02316 0.97820
 C57 C 0.43053 1.04398 0.95872
 O58 O 0.54244 1.04972 1.05751
 O59 O 0.57541 1.02285 1.02840
 C60 C 0.56953 1.04215 1.04938
 Zr61 Zr 0.50011 1.03537 1.04071
 O62 O 0.50332 1.08274 1.04024
 O63 O 0.49678 1.03562 1.08815
 Zr64 Zr 0.50006 1.03486 0.96469
 O65 O 0.50339 1.08221 0.96410
 O66 O 0.49658 1.03425 0.91726
 O67 O 0.47322 1.04098 1.00269
 O68 O 0.52619 1.04064 1.00266
 O69 O 0.54269 0.94536 1.05811
 O70 O 0.57552 0.97202 1.02870
 C71 C 0.56975 0.95294 1.04991
 O72 O 0.45791 0.94212 0.95101
 O73 O 0.42494 0.97149 0.97761
 C74 C 0.43082 0.95031 0.95853
 O75 O 0.54275 0.94509 0.94827
 O76 O 0.57562 0.97242 0.97705
 C77 C 0.56982 0.95301 0.95615
 O78 O 0.45783 0.94251 1.05518
 O79 O 0.42485 0.97110 1.02770
 C80 C 0.43073 0.95030 1.04720
 Zr81 Zr 0.50027 0.95944 1.04116
 O82 O 0.50377 0.91208 1.04148
 O83 O 0.49683 0.95986 1.08860
 Zr84 Zr 0.50026 0.95907 0.96515
 O85 O 0.50378 0.91171 0.96554
 O86 O 0.49689 0.95880 0.91772
 Zr87 Zr 0.45547 0.99714 1.00295
 Zr88 Zr 0.54489 0.99725 1.00301
 O89 O 0.52641 0.95380 1.00318
 O90 O 0.47343 0.95334 1.00317
 O91 O 0.52707 0.99747 1.04689
 O92 O 0.47400 0.99693 0.95944
 O93 O 0.47407 0.99738 1.04644
 O94 O 0.52703 0.99697 0.95910
 H95 H 0.53978 1.05826 1.00248
 H96 H 0.46032 0.99693 0.94185
 H97 H 0.54010 0.93623 1.00319
 H98 H 0.46041 0.99736 1.06404
 H99 H 0.51377 1.02246 0.90946
 H100 H 0.51359 0.97116 0.90979
 H101 H 0.48678 0.90390 0.97758
 H102 H 0.48716 0.90415 1.02898
 H103 H 0.51378 0.97197 1.09639
 H104 H 0.51359 1.02335 1.09606
 H105 H 0.48621 1.09047 1.02827
 H106 H 0.48703 1.09017 0.97692
 O107 O 0.05166 0.45750 -0.05539
 O108 O 0.02232 0.42478 -0.02855
 C109 C 0.04346 0.43056 -0.04779
 O110 O 0.04886 0.54183 0.05200
 O111 O 0.02165 0.57469 0.02309
 C112 C 0.04099 0.56881 0.04412
 O113 O 0.05167 0.45743 0.04914
 O114 O 0.02232 0.42473 0.02228
 C115 C 0.04346 0.43050 0.04153
 O116 O 0.04897 0.54194 -0.05802
 O117 O 0.02169 0.57472 -0.02910
 C118 C 0.04112 0.56890 -0.05006
 Zr119 Zr 0.03494 0.49974 -0.04100
 O120 O 0.08254 0.50303 -0.04038
 O121 O 0.03542 0.49648 -0.08843
 Zr122 Zr 0.03498 0.49967 0.03479
 O123 O 0.08256 0.50303 0.03400
 O124 O 0.03568 0.49631 0.08221
 O125 O 0.04079 0.47283 -0.00312
 O126 O 0.04045 0.52581 -0.00308
 O127 O -0.05526 0.54221 -0.05813
 O128 O -0.02797 0.57486 -0.02912
 C129 C -0.04730 0.56913 -0.05019
 O130 O -0.05816 0.45765 0.04928
 O131 O -0.02897 0.42485 0.02230
 C132 C -0.04999 0.43069 0.04166
 O133 O -0.05519 0.54209 0.05208
 O134 O -0.02796 0.57481 0.02311
 C135 C -0.04725 0.56902 0.04420
 O136 O -0.05829 0.45773 -0.05538
 O137 O -0.02899 0.42490 -0.02855
 C138 C -0.05012 0.43075 -0.04779
 Zr139 Zr -0.04152 0.49992 -0.04097
 O140 O -0.08909 0.50349 -0.04012
 O141 O -0.04227 0.49665 -0.08839
 Zr142 Zr -0.04150 0.49985 0.03479
 O143 O -0.08908 0.50340 0.03379
 O144 O -0.04241 0.49654 0.08221
 Zr145 Zr -0.00331 0.45525 -0.00312
 Zr146 Zr -0.00321 0.54424 -0.00304
 O147 O -0.04692 0.52604 -0.00306
 O148 O -0.04738 0.47302 -0.00310
 O149 O -0.00325 0.52644 -0.04691
 O150 O -0.00328 0.47388 0.04033
 O151 O -0.00332 0.47394 -0.04655
 O152 O -0.00323 0.52634 0.04078
 H153 H 0.05802 0.53950 -0.00304
 H154 H -0.00327 0.46045 0.05806
 H155 H -0.06442 0.53987 -0.00304
 H156 H -0.00333 0.46050 -0.06427
 H157 H 0.02249 0.51233 0.09018
 H158 H -0.02879 0.51216 0.09019
 H159 H -0.09691 0.48572 0.02288
 H160 H -0.09692 0.48603 -0.02887
 H161 H -0.02885 0.51247 -0.09632
 H162 H 0.02252 0.51278 -0.09633
 H163 H 0.09034 0.48569 -0.02889
 H164 H 0.09037 0.48555 0.02274
 O165 O 1.05786 -0.04888 0.54226
 O166 O 1.02842 -0.02212 0.57503
 C167 C 1.04961 -0.04131 0.56924
 O168 O 1.05474 0.05819 0.45761
 O169 O 1.02766 0.02914 0.42482
 C170 C 1.04694 0.05018 0.43062
 O171 O 1.05746 0.05555 0.54222
 O172 O 1.02821 0.02867 0.57500
 C173 C 1.04927 0.04794 0.56921
 O174 O 1.05501 -0.05176 0.45769
 O175 O 1.02764 -0.02300 0.42482
 C176 C 1.04705 -0.04395 0.43069
 Zr177 Zr 1.04115 -0.03454 0.49995
 O178 O 1.08873 -0.03350 0.49653
 O179 O 1.04219 -0.08188 0.50330
 Zr180 Zr 1.04076 0.04118 0.49992
 O181 O 1.08835 0.04085 0.49659
 O182 O 1.04088 0.08854 0.50319
 O183 O 1.04679 0.00335 0.52683
 O184 O 1.04647 0.00330 0.47379
 O185 O 0.95069 -0.05183 0.45768
 O186 O 0.97736 -0.02245 0.42487
 C187 C 0.95826 -0.04366 0.43069
 O188 O 0.94747 0.05516 0.54209
 O189 O 0.97691 0.02851 0.57495
 C190 C 0.95566 0.04761 0.56910
 O191 O 0.95053 0.05791 0.45747
 O192 O 0.97803 0.02913 0.42471
 C193 C 0.95854 0.05004 0.43050
 O194 O 0.94802 -0.04920 0.54217
 O195 O 0.97718 -0.02229 0.57500
 C196 C 0.95617 -0.04161 0.56916
 Zr197 Zr 0.96470 -0.03477 0.49990
 O198 O 0.91710 -0.03423 0.49651
 O199 O 0.96438 -0.08213 0.50320
 Zr200 Zr 0.96439 0.04091 0.49984
 O201 O 0.91681 0.04020 0.49632
 O202 O 0.96369 0.08826 0.50314
 Zr203 Zr 1.00271 0.00319 0.54452
 Zr204 Zr 1.00283 0.00310 0.45537
 O205 O 0.95913 0.00305 0.47374
 O206 O 0.95865 0.00306 0.52676
 O207 O 1.00296 -0.04065 0.47326
 O208 O 1.00252 0.04657 0.52584
 O209 O 1.00293 -0.04019 0.52585
 O210 O 1.00259 0.04692 0.47319
 H211 H 1.06403 0.00330 0.46004
 H212 H 1.00242 0.06426 0.53932
 H213 H 0.94151 0.00308 0.46006
 H214 H 1.00299 -0.05789 0.53931
 H215 H 1.02811 0.09637 0.48675
 H216 H 0.97671 0.09620 0.48697
 H217 H 0.90900 0.02862 0.51359
 H218 H 0.90923 -0.02290 0.51393
 H219 H 0.97729 -0.09001 0.48689
 H220 H 1.02864 -0.08988 0.48760
 H221 H 1.09649 -0.02241 0.51415
 H222 H 1.09621 0.02915 0.51377
 C223 C 1.12920 0.13331 0.28306
 C224 C 1.11667 0.15892 0.26991
 C225 C 1.12993 0.17160 0.24441
 C226 C 1.15603 0.15879 0.23156
 C227 C 1.16853 0.13306 0.24526
 C228 C 1.15518 0.12048 0.27075
 C229 C 1.11509 0.11985 0.30886
 C230 C 1.10313 0.10833 0.33025
 C231 C 1.08874 0.09420 0.35552
 C232 C 1.09700 0.10193 0.38486
 C233 C 1.08329 0.08780 0.40935
 C234 C 1.06113 0.06569 0.40479
 C235 C 1.05286 0.05825 0.37516
 C236 C 1.06659 0.07242 0.35075
 H237 H 1.09652 0.16901 0.27925
 H238 H 1.11951 0.19136 0.23477
 H239 H 1.18855 0.12243 0.23628
 H240 H 1.16504 0.10060 0.28076
 H241 H 1.11413 0.11877 0.38879
 H242 H 1.09019 0.09408 0.43182
 H243 H 1.03587 0.04140 0.37078
 H244 H 1.06001 0.06627 0.32813
 C245 C 0.87539 -0.12842 0.28442
 C246 C 0.88768 -0.15437 0.27172
 C247 C 0.87389 -0.16777 0.24688
 C248 C 0.84748 -0.15535 0.23427
 C249 C 0.83528 -0.12923 0.24747
 C250 C 0.84916 -0.11593 0.27230
 C251 C 0.88984 -0.11441 0.30973
 C252 C 0.90194 -0.10251 0.33083
 C253 C 0.91636 -0.08808 0.35591
 C254 C 0.90855 -0.09601 0.38530
 C255 C 0.92226 -0.08169 0.40967
 C256 C 0.94398 -0.05919 0.40493
 C257 C 0.95177 -0.05151 0.37524
 C258 C 0.93803 -0.06587 0.35094
 H259 H 0.90800 -0.16421 0.28095
 H260 H 0.88410 -0.18780 0.23759
 H261 H 0.81505 -0.11888 0.23864
 H262 H 0.83947 -0.09582 0.28198
 H263 H 0.89179 -0.11318 0.38939
 H264 H 0.91573 -0.08818 0.43219
 H265 H 0.96842 -0.03435 0.37073
 H266 H 0.94424 -0.05957 0.32826
 C267 C 0.86939 0.12829 0.71585
 C268 C 0.88115 0.15463 0.72821
 C269 C 0.86760 0.16765 0.75339
 C270 C 0.84196 0.15447 0.76672
 C271 C 0.83025 0.12799 0.75384
 C272 C 0.84389 0.11507 0.72866
 C273 C 0.88375 0.11460 0.69031
 C274 C 0.89595 0.10300 0.66908
 C275 C 0.91074 0.08903 0.64394
 C276 C 0.90268 0.09678 0.61455
 C277 C 0.91721 0.08329 0.59015
 C278 C 0.94004 0.06184 0.59486
 C279 C 0.94789 0.05416 0.62454
 C280 C 0.93333 0.06768 0.64887
 H281 H 0.90091 0.16504 0.71846
 H282 H 0.87741 0.18798 0.76241
 H283 H 0.81061 0.11705 0.76321
 H284 H 0.83461 0.09465 0.71927
 H285 H 0.88521 0.11328 0.61049
 H286 H 0.91058 0.08972 0.56764
 H287 H 0.96531 0.03773 0.62903
 H288 H 0.93973 0.06150 0.67153
 C289 C 1.13211 -0.12566 0.71604
 C290 C 1.15801 -0.11386 0.72947
 C291 C 1.17065 -0.12790 0.75458
 C292 C 1.15748 -0.15399 0.76664
 C293 C 1.13151 -0.16576 0.75282
 C294 C 1.11894 -0.15166 0.72772
 C295 C 1.11877 -0.11091 0.69055
 C296 C 1.10731 -0.09855 0.66933
 C297 C 1.09330 -0.08383 0.64418
 C298 C 1.07104 -0.06213 0.64906
 C299 C 1.05696 -0.04816 0.62470
 C300 C 1.06496 -0.05575 0.59504
 C301 C 1.08753 -0.07748 0.59038
 C302 C 1.10157 -0.09142 0.61481
 H303 H 1.16837 -0.09372 0.72062
 H304 H 1.19063 -0.11822 0.76461
 H305 H 1.12078 -0.18578 0.76145
 H306 H 1.09886 -0.16097 0.71750
 H307 H 1.06446 -0.05609 0.67171
 H308 H 1.03973 -0.03153 0.62915
 H309 H 1.09425 -0.08386 0.56789
 H310 H 1.11877 -0.10822 0.61079
 C311 C 0.28322 1.12934 1.12843
 C312 C 0.27052 1.15491 1.11536
 C313 C 0.24533 1.16855 1.12839
 C314 C 0.23234 1.15676 1.15483
 C315 C 0.24556 1.13103 1.16784
 C316 C 0.27075 1.11749 1.15471
 C317 C 0.30882 1.11505 1.11464
 C318 C 0.33012 1.10296 1.10297
 C319 C 0.35538 1.08834 1.08893
 C320 C 0.35051 1.06595 1.06746
 C321 C 0.37497 1.05155 1.05389
 C322 C 0.40471 1.05938 1.06163
 C323 C 0.40936 1.08202 1.08318
 C324 C 0.38483 1.09637 1.09673
 H325 H 0.28000 1.16427 1.09499
 H326 H 0.23604 1.18825 1.11757
 H327 H 0.23645 1.12116 1.18813
 H328 H 0.28042 1.09767 1.16500
 H329 H 0.32780 1.05957 1.06124
 H330 H 0.37052 1.03428 1.03737
 H331 H 0.43191 1.08862 1.08966
 H332 H 0.38885 1.11369 1.11332
 C333 C 0.28375 0.86766 0.87446
 C334 C 0.27191 0.88087 0.84853
 C335 C 0.24677 0.86836 0.83438
 C336 C 0.23296 0.84231 0.84599
 C337 C 0.24531 0.82914 0.87209
 C338 C 0.27046 0.84175 0.88615
 C339 C 0.30930 0.88096 0.88924
 C340 C 0.33056 0.89239 0.90159
 C341 C 0.35576 0.90642 0.91628
 C342 C 0.35080 0.92848 0.93807
 C343 C 0.37520 0.94262 0.95196
 C344 C 0.40498 0.93487 0.94419
 C345 C 0.40971 0.91248 0.92239
 C346 C 0.38524 0.89839 0.90853
 H347 H 0.28204 0.90096 0.83930
 H348 H 0.23818 0.87929 0.81441
 H349 H 0.23555 0.80913 0.88184
 H350 H 0.27946 0.83135 0.90625
 H351 H 0.32807 0.93488 0.94423
 H352 H 0.37069 0.95969 0.96867
 H353 H 0.43230 0.90596 0.91587
 H354 H 0.38933 0.88135 0.89166
 C355 C 0.71769 0.87115 1.13369
 C356 C 0.72997 0.84513 1.12110
 C357 C 0.75545 0.83180 1.13389
 C358 C 0.76917 0.84436 1.15959
 C359 C 0.75636 0.87051 1.17215
 C360 C 0.73088 0.88374 1.15926
 C361 C 0.69188 0.88519 1.12004
 C362 C 0.67045 0.89705 1.10835
 C363 C 0.64511 0.91131 1.09405
 C364 C 0.61569 0.90343 1.10212
 C365 C 0.59111 0.91705 1.08790
 C366 C 0.59568 0.93873 1.06537
 C367 C 0.62540 0.94658 1.05756
 C368 C 0.64990 0.93295 1.07181
 H369 H 0.71993 0.83521 1.10126
 H370 H 0.76439 0.81174 1.12345
 H371 H 0.76603 0.88097 1.19187
 H372 H 0.72155 0.90392 1.16917
 H373 H 0.61174 0.88669 1.11931
 H374 H 0.56857 0.91047 1.09448
 H375 H 0.62979 0.96321 1.04038
 H376 H 0.67259 0.93921 1.06540
 C377 C 0.71590 1.12415 0.87072
 C378 C 0.72880 1.11194 0.84481
 C379 C 0.75356 1.12586 0.83133
 C380 C 0.76591 1.15233 0.84362
 C381 C 0.75252 1.16445 0.86971
 C382 C 0.72776 1.15043 0.88309
 C383 C 0.69063 1.10960 0.88477
 C384 C 0.66954 1.09743 0.89669
 C385 C 0.64444 1.08296 0.91112
 C386 C 0.64951 1.06120 0.93320
 C387 C 0.62518 1.04745 0.94759
 C388 C 0.59537 1.05532 0.94007
 C389 C 0.59053 1.07710 0.91768
 C390 C 0.61493 1.09082 0.90333
 H391 H 0.71977 1.09158 0.83505
 H392 H 0.76301 1.11571 0.81133
 H393 H 0.76114 1.18472 0.87998
 H394 H 0.71792 1.16007 0.90318
 H395 H 0.67228 1.05495 0.93939
 H396 H 0.62977 1.03076 0.96467
 H397 H 0.56792 1.08369 0.91132
 H398 H 0.61075 1.10764 0.88626
 C399 C 0.12809 0.28432 0.12470
 C400 C 0.15403 0.27140 0.11236
 C401 C 0.16744 0.24659 0.12617
 C402 C 0.15505 0.23433 0.15257
 C403 C 0.12902 0.24761 0.16486
 C404 C 0.11566 0.27242 0.15100
 C405 C 0.11406 0.30960 0.11025
 C406 C 0.10213 0.33068 0.09814
 C407 C 0.08770 0.35575 0.08370
 C408 C 0.09584 0.38508 0.09134
 C409 C 0.08156 0.40944 0.07756
 C410 C 0.05890 0.40475 0.05593
 C411 C 0.05100 0.37512 0.04832
 C412 C 0.06532 0.35082 0.06214
 H413 H 0.16383 0.28044 0.09199
 H414 H 0.18744 0.23698 0.11608
 H415 H 0.11885 0.23880 0.18514
 H416 H 0.09557 0.28225 0.16073
 H417 H 0.11315 0.38913 0.10801
 H418 H 0.08822 0.43191 0.08394
 H419 H 0.03370 0.37065 0.03176
 H420 H 0.05885 0.32820 0.05606
 C421 C -0.13382 0.28363 -0.12994
 C422 C -0.12116 0.27147 -0.15602
 C423 C -0.13384 0.24601 -0.16926
 C424 C -0.15941 0.23230 -0.15653
 C425 C -0.17209 0.24487 -0.13039
 C426 C -0.15934 0.27034 -0.11721
 C427 C -0.12023 0.30937 -0.11592
 C428 C -0.10856 0.33071 -0.10406
 C429 C -0.09425 0.35590 -0.08976
 C430 C -0.07195 0.35106 -0.06808
 C431 C -0.05770 0.37539 -0.05436
 C432 C -0.06555 0.40501 -0.06216
 C433 C -0.08812 0.40963 -0.08391
 C434 C -0.10234 0.38522 -0.09761
 H435 H -0.10136 0.28157 -0.16604
 H436 H -0.12349 0.23699 -0.18935
 H437 H -0.19174 0.23495 -0.11998
 H438 H -0.16929 0.27955 -0.09698
 H439 H -0.06551 0.32846 -0.06183
 H440 H -0.04048 0.37095 -0.03769
 H441 H -0.09473 0.43209 -0.09044
 H442 H -0.11958 0.38921 -0.11439
 C443 C 0.12599 0.71550 -0.13181
 C444 C 0.11431 0.72882 -0.15778
 C445 C 0.12840 0.75394 -0.17025
 C446 C 0.15440 0.76612 -0.15685
 C447 C 0.16605 0.75242 -0.13081
 C448 C 0.15190 0.72731 -0.11840
 C449 C 0.11114 0.69001 -0.11865
 C450 C 0.09867 0.66881 -0.10738
 C451 C 0.08377 0.64369 -0.09358
 C452 C 0.09188 0.61436 -0.10137
 C453 C 0.07784 0.58997 -0.08745
 C454 C 0.05549 0.59463 -0.06548
 C455 C 0.04734 0.62425 -0.05802
 C456 C 0.06141 0.64857 -0.07199
 H457 H 0.09423 0.71988 -0.16833
 H458 H 0.11881 0.76387 -0.19029
 H459 H 0.18600 0.76116 -0.11990
 H460 H 0.16111 0.71718 -0.09826
 H461 H 0.10918 0.61034 -0.11807
 H462 H 0.08467 0.56751 -0.09374
 H463 H 0.03021 0.62871 -0.04127
 H464 H 0.05495 0.67118 -0.06579
 C465 C -0.12733 0.71587 0.13061
 C466 C -0.15364 0.72838 0.11862
 C467 C -0.16673 0.75357 0.13205
 C468 C -0.15362 0.76663 0.15771
 C469 C -0.12724 0.75375 0.16969
 C470 C -0.11421 0.72856 0.15620
 C471 C -0.11357 0.69032 0.11639
 C472 C -0.10196 0.66907 0.10426
 C473 C -0.08802 0.64390 0.08951
 C474 C -0.09648 0.61461 0.09698
 C475 C -0.08315 0.59019 0.08237
 C476 C -0.06119 0.59479 0.06002
 C477 C -0.05276 0.62438 0.05281
 C478 C -0.06610 0.64872 0.06746
 H479 H -0.16397 0.71875 0.09879
 H480 H -0.18702 0.76285 0.12223
 H481 H -0.11654 0.76318 0.18939
 H482 H -0.09381 0.71907 0.16564
 H483 H -0.11343 0.61064 0.11403
 H484 H -0.09017 0.56776 0.08850
 H485 H -0.03590 0.62878 0.03579
 H486 H -0.05938 0.67131 0.06152
 C487 C 1.13248 0.13021 0.71674
 C488 C 1.15810 0.11758 0.72999
 C489 C 1.17087 0.13073 0.75549
 C490 C 1.15815 0.15683 0.76826
 C491 C 1.13243 0.16942 0.75446
 C492 C 1.11976 0.15618 0.72897
 C493 C 1.11892 0.11620 0.69095
 C494 C 1.10729 0.10433 0.66956
 C495 C 1.09306 0.09002 0.64430
 C496 C 1.07086 0.06830 0.64909
 C497 C 1.05671 0.05454 0.62468
 C498 C 1.06459 0.06234 0.59504
 C499 C 1.08707 0.08413 0.59047
 C500 C 1.10118 0.09787 0.61496
 H501 H 1.16811 0.09743 0.72071
 H502 H 1.19062 0.12024 0.76521
 H503 H 1.12187 0.18945 0.76338
 H504 H 1.09989 0.16612 0.71889
 H505 H 1.06440 0.06205 0.67171
 H506 H 1.03956 0.03785 0.62908
 H507 H 1.09369 0.09067 0.56800
 H508 H 1.11835 0.11467 0.61101
 C509 C 0.87241 -0.12553 0.71542
 C510 C 0.88486 -0.15180 0.72730
 C511 C 0.87159 -0.16565 0.75217
 C512 C 0.84553 -0.15340 0.76563
 C513 C 0.83315 -0.12696 0.75324
 C514 C 0.84652 -0.11320 0.72838
 C515 C 0.88637 -0.11107 0.69010
 C516 C 0.89818 -0.09888 0.66900
 C517 C 0.91244 -0.08430 0.64392
 C518 C 0.90429 -0.09186 0.61452
 C519 C 0.91838 -0.07790 0.59016
 C520 C 0.94086 -0.05615 0.59491
 C521 C 0.94877 -0.04862 0.62461
 C522 C 0.93464 -0.06261 0.64891
 H523 H 0.90493 -0.16153 0.71742
 H524 H 0.88192 -0.18591 0.76082
 H525 H 0.81317 -0.11670 0.76274
 H526 H 0.83670 -0.09285 0.71934
 H527 H 0.88712 -0.10862 0.61042
 H528 H 0.91173 -0.08424 0.56764
 H529 H 0.96594 -0.03197 0.62914
 H530 H 0.94111 -0.05658 0.67159
 C531 C 1.12750 -0.13050 0.28403
 C532 C 1.15379 -0.11861 0.27150
 C533 C 1.16692 -0.13214 0.24637
 C534 C 1.15388 -0.15788 0.23327
 C535 C 1.12745 -0.16971 0.24632
 C536 C 1.11441 -0.15609 0.27145
 C537 C 1.11372 -0.11618 0.30954
 C538 C 1.10208 -0.10399 0.33075
 C539 C 1.08810 -0.08921 0.35588
 C540 C 1.06614 -0.06722 0.35096
 C541 C 1.05271 -0.05257 0.37528
 C542 C 1.06110 -0.05974 0.40494
 C543 C 1.08313 -0.08200 0.40965
 C544 C 1.09653 -0.09660 0.38526
 H545 H 1.16409 -0.09877 0.28107
 H546 H 1.18721 -0.12224 0.23721
 H547 H 1.11661 -0.18943 0.23712
 H548 H 1.09403 -0.16546 0.28098
 H549 H 1.05944 -0.06133 0.32830
 H550 H 1.03581 -0.03562 0.37079
 H551 H 1.09011 -0.08808 0.43214
 H552 H 1.11352 -0.11360 0.38931
 C553 C 0.87492 0.13297 0.28350
 C554 C 0.88668 0.15887 0.27027
 C555 C 0.87265 0.17151 0.24514
 C556 C 0.84652 0.15836 0.23276
 C557 C 0.83483 0.13231 0.24651
 C558 C 0.84895 0.11978 0.27162
 C559 C 0.88966 0.11966 0.30903
 C560 C 0.90197 0.10820 0.33028
 C561 C 0.91661 0.09416 0.35548
 C562 C 0.90833 0.10182 0.38483
 C563 C 0.92210 0.08766 0.40929
 C564 C 0.94434 0.06559 0.40468
 C565 C 0.95264 0.05823 0.37504
 C566 C 0.93885 0.07243 0.35065
 H567 H 0.90681 0.16926 0.27930
 H568 H 0.88246 0.19151 0.23543
 H569 H 0.81483 0.12140 0.23788
 H570 H 0.83966 0.09970 0.28171
 H571 H 0.89112 0.11860 0.38881
 H572 H 0.91517 0.09388 0.43176
 H573 H 0.96970 0.04140 0.37062
 H574 H 0.94542 0.06632 0.32802
 C575 C 0.12899 0.28378 -0.12899
 C576 C 0.15458 0.27104 -0.11582
 C577 C 0.16818 0.24587 -0.12876
 C578 C 0.15635 0.23295 -0.15520
 C579 C 0.13062 0.24622 -0.16833
 C580 C 0.11710 0.27138 -0.15528
 C581 C 0.11468 0.30932 -0.11527
 C582 C 0.10256 0.33055 -0.10362
 C583 C 0.08789 0.35570 -0.08957
 C584 C 0.06542 0.35085 -0.06808
 C585 C 0.05102 0.37518 -0.05445
 C586 C 0.05891 0.40479 -0.06215
 C587 C 0.08161 0.40942 -0.08374
 C588 C 0.09598 0.38501 -0.09735
 H589 H 0.16395 0.28047 -0.09542
 H590 H 0.18790 0.23655 -0.11785
 H591 H 0.12072 0.23716 -0.18863
 H592 H 0.09727 0.28109 -0.16566
 H593 H 0.05900 0.32824 -0.06188
 H594 H 0.03369 0.37075 -0.03791
 H595 H 0.08826 0.43187 -0.09020
 H596 H 0.11336 0.38901 -0.11396
 C597 C -0.13151 0.28413 0.12688
 C598 C -0.11817 0.27231 0.15277
 C599 C -0.13061 0.24716 0.16681
 C600 C -0.15671 0.23333 0.15512
 C601 C -0.17001 0.24568 0.12909
 C602 C -0.15747 0.27083 0.11514
 C603 C -0.11827 0.30964 0.11213
 C604 C -0.10695 0.33084 0.09970
 C605 C -0.09313 0.35594 0.08480
 C606 C -0.07112 0.35103 0.06285
 C607 C -0.05724 0.37533 0.04866
 C608 C -0.06520 0.40496 0.05628
 C609 C -0.08753 0.40964 0.07826
 C610 C -0.10137 0.38527 0.09242
 H611 H -0.09803 0.28244 0.16203
 H612 H -0.11959 0.23856 0.18674
 H613 H -0.19007 0.23592 0.11928
 H614 H -0.16797 0.27981 0.09508
 H615 H -0.06457 0.32841 0.05678
 H616 H -0.04019 0.37085 0.03184
 H617 H -0.09421 0.43212 0.08467
 H618 H -0.11839 0.38932 0.10939
 C619 C -0.12827 0.71680 -0.13439
 C620 C -0.11566 0.72988 -0.16001
 C621 C -0.12882 0.75540 -0.17275
 C622 C -0.15491 0.76833 -0.16000
 C623 C -0.16749 0.75470 -0.13427
 C624 C -0.15424 0.72919 -0.12163
 C625 C -0.11429 0.69098 -0.12085
 C626 C -0.10251 0.66957 -0.10918
 C627 C -0.08836 0.64427 -0.09484
 C628 C -0.06624 0.64894 -0.07296
 C629 C -0.05278 0.62451 -0.05856
 C630 C -0.06129 0.59497 -0.06587
 C631 C -0.08343 0.59051 -0.08807
 C632 C -0.09688 0.61502 -0.10243
 H633 H -0.09552 0.72046 -0.17006
 H634 H -0.11834 0.76499 -0.19251
 H635 H -0.18750 0.76374 -0.12368
 H636 H -0.16417 0.71924 -0.10176
 H637 H -0.05947 0.67149 -0.06692
 H638 H -0.03578 0.62882 -0.04165
 H639 H -0.09052 0.56812 -0.09425
 H640 H -0.11400 0.61117 -0.11934
 C641 C 0.12368 0.71463 0.12941
 C642 C 0.11135 0.72748 0.15532
 C643 C 0.12519 0.75229 0.16866
 C644 C 0.15160 0.76461 0.15622
 C645 C 0.16388 0.75139 0.13022
 C646 C 0.14999 0.72659 0.11694
 C647 C 0.10919 0.68938 0.11543
 C648 C 0.09707 0.66834 0.10350
 C649 C 0.08265 0.64333 0.08902
 C650 C 0.06066 0.64835 0.06706
 C651 C 0.04698 0.62413 0.05257
 C652 C 0.05514 0.59447 0.05986
 C653 C 0.07715 0.58967 0.08214
 C654 C 0.09081 0.61396 0.09658
 H655 H 0.09098 0.71840 0.16515
 H656 H 0.11511 0.76185 0.18864
 H657 H 0.18416 0.76024 0.12003
 H658 H 0.15971 0.71681 0.09687
 H659 H 0.05418 0.67101 0.06104
 H660 H 0.03009 0.62867 0.03560
 H661 H 0.08397 0.56718 0.08832
 H662 H 0.10782 0.60984 0.11355
 C663 C 0.28384 1.12859 0.87561
 C664 C 0.27187 1.11617 0.84933
 C665 C 0.24705 1.12954 0.83535
 C666 C 0.23382 1.15557 0.84750
 C667 C 0.24614 1.16794 0.87389
 C668 C 0.27096 1.15452 0.88782
 C669 C 0.30917 1.11458 0.89015
 C670 C 0.33031 1.10271 0.90232
 C671 C 0.35547 1.08835 0.91680
 C672 C 0.38495 1.09596 0.90870
 C673 C 0.40941 1.08169 0.92244
 C674 C 0.40468 1.05954 0.94449
 C675 C 0.37490 1.05220 0.95259
 C676 C 0.35051 1.06651 0.93882
 H677 H 0.28167 1.09608 0.83970
 H678 H 0.23819 1.11940 0.81510
 H679 H 0.23657 1.18794 0.88388
 H680 H 0.28005 1.16431 0.90816
 H681 H 0.38904 1.11283 0.89168
 H682 H 0.43198 1.08791 0.91567
 H683 H 0.37040 1.03532 0.96950
 H684 H 0.32777 1.06046 0.94526
 C685 C 0.28315 0.86669 1.12937
 C686 C 0.27002 0.84105 1.11690
 C687 C 0.24458 0.82825 1.13023
 C688 C 0.23187 0.84098 1.15628
 C689 C 0.24541 0.86668 1.16875
 C690 C 0.27085 0.87942 1.15536
 C691 C 0.30891 0.88027 1.11524
 C692 C 0.33029 0.89190 1.10329
 C693 C 0.35557 0.90612 1.08894
 C694 C 0.35070 0.92783 1.06678
 C695 C 0.37513 0.94207 1.05309
 C696 C 0.40488 0.93477 1.06140
 C697 C 0.40954 0.91275 1.08359
 C698 C 0.38502 0.89855 1.09726
 H699 H 0.27935 0.83103 1.09676
 H700 H 0.23479 0.80849 1.12002
 H701 H 0.23628 0.87708 1.18876
 H702 H 0.28082 0.89931 1.16518
 H703 H 0.32798 0.93386 1.06016
 H704 H 0.37067 0.95886 1.03607
 H705 H 0.43210 0.90657 1.09053
 H706 H 0.38904 0.88176 1.11440
 C707 C 0.71650 1.12655 1.13181
 C708 C 0.72826 1.15255 1.11872
 C709 C 0.75340 1.16661 1.13133
 C710 C 0.76717 1.15480 1.15727
 C711 C 0.75504 1.12872 1.17036
 C712 C 0.72989 1.11471 1.15768
 C713 C 0.69098 1.11184 1.11843
 C714 C 0.66973 1.09950 1.10696
 C715 C 0.64455 1.08479 1.09294
 C716 C 0.61506 1.09254 1.10096
 C717 C 0.59060 1.07857 1.08695
 C718 C 0.59536 1.05665 1.06467
 C719 C 0.62514 1.04891 1.05693
 C720 C 0.64952 1.06291 1.07097
 H721 H 0.71808 1.16189 1.09866
 H722 H 0.76209 1.18663 1.12065
 H723 H 0.76503 1.11900 1.19031
 H724 H 0.72098 1.09457 1.16799
 H725 H 0.61096 1.10947 1.11794
 H726 H 0.56801 1.08507 1.09347
 H727 H 0.62967 1.03212 1.03993
 H728 H 0.67227 1.05674 1.06460
 C729 C 0.71705 0.87231 0.87015
 C730 C 0.72949 0.84601 0.88201
 C731 C 0.75462 0.83283 0.86840
 C732 C 0.76769 0.84583 0.84269
 C733 C 0.75488 0.87222 0.83086
 C734 C 0.72975 0.88535 0.84453
 C735 C 0.69150 0.88613 0.88448
 C736 C 0.67023 0.89780 0.89663
 C737 C 0.64499 0.91180 0.91133
 C738 C 0.61554 0.90353 0.90378
 C739 C 0.59104 0.91698 0.91825
 C740 C 0.59570 0.93891 0.94053
 C741 C 0.62544 0.94713 0.94785
 C742 C 0.64988 0.93365 0.93334
 H743 H 0.71985 0.83575 0.90186
 H744 H 0.76386 0.81254 0.87812
 H745 H 0.76431 0.88285 0.81112
 H746 H 0.72030 0.90573 0.83517
 H747 H 0.61152 0.88664 0.88676
 H748 H 0.56848 0.91012 0.91204
 H749 H 0.62990 0.96395 0.96483
 H750 H 0.67259 0.94023 0.93934
   
