data_POSCAR
  _audit_creation_date              2014-09-24
  _audit_creation_method            'ToBaCCo'
  _symmetry_space_group_name_H-M    'P1'
  _symmetry_Int_Tables_number       1
  _symmetry_cell_setting            triclinic
  loop_
  _symmetry_equiv_pos_as_xyz
 x,y,z
_cell_length_a 31.1899
_cell_length_b 31.1273
_cell_length_c 37.7984
_cell_angle_alpha 90.016100
_cell_angle_beta 90.012100
_cell_angle_gamma 90.004400
loop_
  _atom_site_label
  _atom_site_type_symbol
  _atom_site_fract_x
  _atom_site_fract_y
  _atom_site_fract_z
Si1 Si 1.25009 0.24946 0.25010
 Si2 Si 0.74958 -0.24994 0.25004
 Si3 Si 0.75061 0.25056 -0.24992
 Si4 Si 1.25034 -0.24966 -0.24996
 Si5 Si 0.24926 0.24986 0.74997
 Si6 Si 0.74977 0.74935 0.75013
 Si7 Si 0.75013 0.25015 0.24999
 Si8 Si 0.25041 0.75047 0.25010
 O9 O 1.08193 0.04868 0.02518
 O10 O 0.91885 -0.05045 0.02475
 O11 O 0.95071 0.08102 0.02424
 O12 O 1.05003 -0.08291 0.02555
 O13 O 0.92688 0.02185 0.04402
 O14 O 1.07372 -0.02352 0.04505
 O15 O 0.97789 -0.07416 0.04475
 O16 O 1.02262 0.07295 0.04421
 C17 C 1.06134 0.06765 0.04868
 C18 C 0.93908 -0.06896 0.04871
 C19 C 0.93183 0.06078 0.04801
 C20 C 1.06893 -0.06247 0.04923
 O21 O 1.08225 -0.05093 -0.02328
 O22 O 0.91902 0.04851 -0.02460
 O23 O 1.05031 0.08062 -0.02399
 O24 O 0.95108 -0.08302 -0.02373
 O25 O 0.92758 -0.02381 -0.04374
 O26 O 1.07443 0.02122 -0.04313
 O27 O 1.02319 -0.07489 -0.04302
 O28 O 0.97832 0.07227 -0.04401
 Co29 Co 1.07057 -0.00113 0.00092
 Co30 Co 0.93062 -0.00098 0.00015
 Co31 Co 1.00049 0.06914 0.00014
 Co32 Co 1.00054 -0.07115 0.00085
 O33 O 1.00056 -0.00102 0.00052
 C34 C 1.06197 -0.06968 -0.04709
 C35 C 0.93950 0.06734 -0.04827
 C36 C 1.06927 0.06006 -0.04753
 C37 C 0.93248 -0.06275 -0.04765
 O38 O 1.08282 0.55112 0.52307
 O39 O 0.91948 0.45141 0.52425
 O40 O 0.95163 0.58297 0.52383
 O41 O 1.05075 0.41954 0.52393
 O42 O 0.92809 0.52366 0.54365
 O43 O 1.07498 0.47896 0.54302
 O44 O 0.97874 0.42779 0.54378
 O45 O 1.02378 0.57492 0.54292
 C46 C 1.06259 0.56983 0.54693
 C47 C 0.93990 0.43262 0.54796
 C48 C 0.93303 0.56258 0.54768
 C49 C 1.06976 0.44012 0.54745
 O50 O 1.08253 0.45140 0.47478
 O51 O 0.91925 0.55063 0.47530
 O52 O 1.05040 0.58300 0.47427
 O53 O 0.95131 0.41916 0.47539
 O54 O 0.92738 0.47839 0.45577
 O55 O 1.07423 0.52361 0.45482
 O56 O 1.02323 0.42722 0.45564
 O57 O 0.97824 0.57428 0.45522
 Co58 Co 1.07110 0.50126 0.49896
 Co59 Co 0.93111 0.50104 0.49970
 Co60 Co 1.00101 0.57122 0.49909
 Co61 Co 1.00101 0.43098 0.49966
 O62 O 1.00107 0.50112 0.49935
 C63 C 1.06198 0.43240 0.45126
 C64 C 0.93942 0.56917 0.45133
 C65 C 1.06935 0.56255 0.45061
 C66 C 0.93238 0.43948 0.45168
 O67 O 0.58118 0.04902 0.52503
 O68 O 0.41800 -0.05024 0.52374
 O69 O 0.44990 0.08132 0.52431
 O70 O 0.54916 -0.08247 0.52392
 O71 O 0.42581 0.02192 0.54347
 O72 O 0.57261 -0.02331 0.54403
 O73 O 0.47710 -0.07425 0.54337
 O74 O 0.52189 0.07290 0.54441
 C75 C 0.56071 0.06789 0.54869
 C76 C 0.43833 -0.06900 0.54752
 C77 C 0.43086 0.06079 0.54782
 C78 C 0.56774 -0.06226 0.54788
 O79 O 0.58126 -0.04983 0.47543
 O80 O 0.41835 0.04926 0.47512
 O81 O 0.54959 0.08165 0.47621
 O82 O 0.45006 -0.08234 0.47490
 O83 O 0.42649 -0.02297 0.45533
 O84 O 0.57331 0.02249 0.45634
 O85 O 0.52214 -0.07355 0.45554
 O86 O 0.47768 0.07361 0.45617
 Co87 Co 0.56957 -0.00042 0.50017
 Co88 Co 0.42966 -0.00050 0.49945
 Co89 Co 0.49976 0.06978 0.50024
 Co90 Co 0.49962 -0.07055 0.49947
 O91 O 0.49964 -0.00041 0.49983
 C92 C 0.56094 -0.06834 0.45150
 C93 C 0.43897 0.06825 0.45165
 C94 C 0.56845 0.06143 0.45242
 C95 C 0.43119 -0.06193 0.45119
 O96 O 0.57272 0.52251 0.04425
 O97 O 0.42591 0.47778 0.04474
 O98 O 0.47640 0.57373 0.04510
 O99 O 0.52177 0.42661 0.04396
 O100 O 0.41714 0.55007 0.02554
 O101 O 0.58080 0.45049 0.02416
 O102 O 0.44961 0.41861 0.02476
 O103 O 0.54847 0.58199 0.02531
 C104 C 0.56746 0.56131 0.04877
 C105 C 0.43109 0.43890 0.04870
 C106 C 0.43753 0.56899 0.04924
 C107 C 0.56062 0.43155 0.04792
 O108 O 0.57207 0.47832 -0.04402
 O109 O 0.42519 0.52315 -0.04301
 O110 O 0.52113 0.57454 -0.04305
 O111 O 0.47613 0.42741 -0.04378
 O112 O 0.41705 0.45089 -0.02371
 O113 O 0.58040 0.55041 -0.02388
 O114 O 0.54832 0.41884 -0.02472
 O115 O 0.44912 0.58235 -0.02327
 Co116 Co 0.56893 0.50043 0.00016
 Co117 Co 0.42891 0.50047 0.00086
 Co118 Co 0.49879 0.57063 0.00098
 Co119 Co 0.49895 0.43042 0.00010
 O120 O 0.49890 0.50050 0.00053
 C121 C 0.56718 0.43942 -0.04833
 C122 C 0.43038 0.56202 -0.04708
 C123 C 0.55990 0.56942 -0.04742
 C124 C 0.43726 0.43228 -0.04765
 C125 C 1.15179 0.16913 0.12129
 C126 C 1.13283 0.18968 0.15511
 C127 C 1.17006 0.17060 0.17657
 C128 C 1.18935 0.15038 0.14309
 C129 C 1.12581 0.12821 0.12879
 C130 C 1.16304 0.10909 0.15022
 C131 C 1.10644 0.14841 0.16224
 C132 C 1.14412 0.12969 0.18417
 C133 C 1.19537 0.19512 0.20210
 C134 C 1.21683 0.21621 0.22204
 C135 C 1.10192 0.10556 0.10122
 C136 C 1.08300 0.08780 0.07764
 H137 H 1.15469 0.18510 0.09514
 H138 H 1.12070 0.22310 0.15743
 H139 H 1.22372 0.15148 0.13552
 H140 H 1.17515 0.07568 0.14788
 H141 H 1.07205 0.14730 0.16976
 H142 H 1.14129 0.11380 0.21035
 C143 C 1.16075 0.60942 0.65177
 C144 C 1.19117 0.64772 0.64437
 C145 C 1.17095 0.67203 0.67555
 C146 C 1.14091 0.63412 0.68344
 C147 C 1.12727 0.62993 0.62723
 C148 C 1.10699 0.65423 0.65840
 C149 C 1.15734 0.66785 0.61945
 C150 C 1.13746 0.69249 0.65099
 C151 C 1.19594 0.69639 0.70143
 C152 C 1.21719 0.71733 0.72165
 C153 C 1.10355 0.60743 0.59945
 C154 C 1.08458 0.58981 0.57581
 H155 H 1.17003 0.57499 0.65175
 H156 H 1.22605 0.64532 0.63890
 H157 H 1.13448 0.62057 0.71007
 H158 H 1.07210 0.65662 0.66382
 H159 H 1.16384 0.68148 0.59285
 H160 H 1.12816 0.72692 0.65097
 C161 C 0.62598 0.17838 0.63220
 C162 C 0.62100 0.17344 0.67277
 C163 C 0.67006 0.17181 0.67626
 C164 C 0.67535 0.17709 0.63608
 C165 C 0.62569 0.12922 0.62852
 C166 C 0.67475 0.12762 0.63204
 C167 C 0.62031 0.12385 0.66869
 C168 C 0.66981 0.12264 0.67263
 C169 C 0.69546 0.19638 0.70188
 C170 C 0.71700 0.21742 0.72190
 C171 C 0.60165 0.10632 0.60102
 C172 C 0.58258 0.08833 0.57755
 H173 H 0.60772 0.20108 0.61529
 H174 H 0.59917 0.19255 0.68981
 H175 H 0.69825 0.19923 0.62292
 H176 H 0.69661 0.10854 0.61501
 H177 H 0.59739 0.10169 0.68178
 H178 H 0.68812 0.09999 0.68955
 C179 C 0.67599 0.61890 0.13755
 C180 C 0.68243 0.66818 0.13703
 C181 C 0.67098 0.66974 0.17652
 C182 C 0.66488 0.62079 0.17747
 C183 C 0.62838 0.62564 0.12877
 C184 C 0.61682 0.62713 0.16826
 C185 C 0.63452 0.67459 0.12788
 C186 C 0.62336 0.67652 0.16777
 C187 C 0.69556 0.69502 0.20204
 C188 C 0.71660 0.71653 0.22198
 C189 C 0.60557 0.60184 0.10124
 C190 C 0.58770 0.58296 0.07769
 H191 H 0.69735 0.59493 0.12481
 H192 H 0.70968 0.68533 0.12448
 H193 H 0.67766 0.59900 0.19819
 H194 H 0.58955 0.60994 0.18073
 H195 H 0.62178 0.69643 0.10719
 H196 H 0.60204 0.70051 0.18053
 C197 C 0.83490 -0.15744 0.12038
 C198 C 0.85328 -0.19227 0.14531
 C199 C 0.82948 -0.17122 0.17637
 C200 C 0.81074 -0.13671 0.15179
 C201 C 0.87384 -0.12894 0.12863
 C202 C 0.85006 -0.10781 0.15967
 C203 C 0.89261 -0.16345 0.15320
 C204 C 0.86841 -0.14274 0.18472
 C205 C 0.80418 -0.19571 0.20190
 C206 C 0.78276 -0.21677 0.22188
 C207 C 0.89788 -0.10640 0.10111
 C208 C 0.91702 -0.08881 0.07758
 H209 H 0.82138 -0.16324 0.09362
 H210 H 0.85432 -0.22726 0.13970
 H211 H 0.77679 -0.12601 0.15153
 H212 H 0.84905 -0.07280 0.16522
 H213 H 0.92656 -0.17415 0.15344
 H214 H 0.88185 -0.13702 0.21151
 C215 C 0.88554 0.37078 0.66751
 C216 C 0.83733 0.37781 0.67583
 C217 C 0.83076 0.32888 0.67570
 C218 C 0.87852 0.32146 0.66782
 C219 C 0.87498 0.37133 0.62780
 C220 C 0.86835 0.32241 0.62772
 C221 C 0.82722 0.37874 0.63569
 C222 C 0.82028 0.32950 0.63597
 C223 C 0.80546 0.30442 0.70143
 C224 C 0.78402 0.28350 0.72160
 C225 C 0.89896 0.39418 0.60026
 C226 C 0.91802 0.41216 0.57679
 H227 H 0.91266 0.38803 0.68017
 H228 H 0.82430 0.40032 0.69591
 H229 H 0.89935 0.29764 0.68133
 H230 H 0.88134 0.29985 0.60766
 H231 H 0.80636 0.40253 0.62219
 H232 H 0.79318 0.31227 0.62325
 C233 C 0.33558 -0.15850 0.61999
 C234 C 0.35457 -0.19230 0.64556
 C235 C 0.33011 -0.17104 0.67618
 C236 C 0.31077 -0.13756 0.65095
 C237 C 0.37383 -0.12895 0.62792
 C238 C 0.34939 -0.10761 0.65851
 C239 C 0.39320 -0.16243 0.65313
 C240 C 0.36834 -0.14151 0.68422
 C241 C 0.30505 -0.19545 0.70195
 C242 C 0.28370 -0.21648 0.72202
 C243 C 0.39752 -0.10647 0.60014
 C244 C 0.41644 -0.08890 0.57647
 H245 H 0.32237 -0.16525 0.59328
 H246 H 0.35642 -0.22739 0.64053
 H247 H 0.27660 -0.12762 0.65037
 H248 H 0.34757 -0.07250 0.66348
 H249 H 0.42737 -0.17237 0.65369
 H250 H 0.38148 -0.13484 0.71096
 C251 C 0.33273 0.34424 0.12047
 C252 C 0.35247 0.30964 0.14491
 C253 C 0.32851 0.32959 0.17638
 C254 C 0.30843 0.36385 0.15229
 C255 C 0.37094 0.37376 0.12861
 C256 C 0.34699 0.39378 0.16006
 C257 C 0.39107 0.33952 0.15268
 C258 C 0.36671 0.35909 0.18462
 C259 C 0.30400 0.30434 0.20193
 C260 C 0.28300 0.28288 0.22192
 C261 C 0.39357 0.39771 0.10108
 C262 C 0.41121 0.41682 0.07756
 H263 H 0.31901 0.33839 0.09379
 H264 H 0.35444 0.27477 0.13898
 H265 H 0.27419 0.37356 0.15243
 H266 H 0.34504 0.42867 0.16594
 H267 H 0.42532 0.32982 0.15250
 H268 H 0.38035 0.36487 0.21133
 C269 C 0.83432 0.15542 -0.12014
 C270 C 0.85227 0.19198 -0.14357
 C271 C 0.83045 0.17144 -0.17587
 C272 C 0.81216 0.13519 -0.15278
 C273 C 0.87464 0.12875 -0.12810
 C274 C 0.85285 0.10813 -0.16037
 C275 C 0.89296 0.16500 -0.15118
 C276 C 0.87076 0.14480 -0.18392
 C277 C 0.80520 0.19610 -0.20152
 C278 C 0.78384 0.21722 -0.22160
 C279 C 0.89861 0.10581 -0.10058
 C280 C 0.91764 0.08780 -0.07712
 H281 H 0.81956 0.15958 -0.09363
 H282 H 0.85178 0.22671 -0.13692
 H283 H 0.77866 0.12319 -0.15371
 H284 H 0.85336 0.07338 -0.16697
 H285 H 0.92645 0.17701 -0.15023
 H286 H 0.88546 0.14071 -0.21045
 C287 C 0.88648 0.63272 0.33232
 C288 C 0.83922 0.62329 0.32210
 C289 C 0.82970 0.67166 0.32381
 C290 C 0.87649 0.68150 0.33357
 C291 C 0.87406 0.62935 0.37154
 C292 C 0.86449 0.67771 0.37318
 C293 C 0.82727 0.61952 0.36178
 C294 C 0.81738 0.66822 0.36305
 C295 C 0.80437 0.69612 0.29827
 C296 C 0.78290 0.71710 0.27827
 C297 C 0.89812 0.60675 0.39903
 C298 C 0.91730 0.58911 0.42252
 H299 H 0.91519 0.61783 0.32004
 H300 H 0.82852 0.60124 0.30077
 H301 H 0.89641 0.70726 0.32165
 H302 H 0.87514 0.69982 0.39449
 H303 H 0.80734 0.59377 0.37370
 H304 H 0.78869 0.68308 0.37539
 C305 C 0.38710 0.13195 0.33225
 C306 C 0.33985 0.12257 0.32198
 C307 C 0.33041 0.17096 0.32361
 C308 C 0.37719 0.18074 0.33341
 C309 C 0.37460 0.12868 0.37146
 C310 C 0.36511 0.17706 0.37302
 C311 C 0.32782 0.11891 0.36165
 C312 C 0.31801 0.16762 0.36284
 C313 C 0.30508 0.19540 0.29806
 C314 C 0.28356 0.21640 0.27811
 C315 C 0.39846 0.10608 0.39906
 C316 C 0.41734 0.08836 0.42266
 H317 H 0.41582 0.11698 0.32004
 H318 H 0.32915 0.10049 0.30067
 H319 H 0.39718 0.20645 0.32148
 H320 H 0.37576 0.19921 0.39430
 H321 H 0.30781 0.09322 0.37359
 H322 H 0.28932 0.18257 0.37512
 C323 C 0.38320 0.62895 -0.16660
 C324 C 0.33560 0.62169 -0.17694
 C325 C 0.32843 0.67048 -0.17572
 C326 C 0.37558 0.67818 -0.16586
 C327 C 0.37042 0.62673 -0.12740
 C328 C 0.36320 0.67552 -0.12624
 C329 C 0.32326 0.61907 -0.13729
 C330 C 0.31574 0.66819 -0.13650
 C331 C 0.30412 0.69555 -0.20157
 C332 C 0.28323 0.71692 -0.22172
 C333 C 0.39287 0.60299 -0.09963
 C334 C 0.41045 0.58401 -0.07598
 H335 H 0.41123 0.61251 -0.17862
 H336 H 0.32397 0.59988 -0.19811
 H337 H 0.39680 0.70277 -0.17793
 H338 H 0.37479 0.69738 -0.10509
 H339 H 0.30201 0.59450 -0.12523
 H340 H 0.28774 0.68460 -0.12442
 C341 C 1.12046 -0.12410 -0.16753
 C342 C 1.16986 -0.12221 -0.17210
 C343 C 1.17063 -0.17135 -0.17578
 C344 C 1.12169 -0.17366 -0.17167
 C345 C 1.12674 -0.12949 -0.12746
 C346 C 1.12757 -0.17862 -0.13119
 C347 C 1.17568 -0.12720 -0.13160
 C348 C 1.17682 -0.17665 -0.13570
 C349 C 1.19575 -0.19563 -0.20161
 C350 C 1.21709 -0.21656 -0.22175
 C351 C 1.10293 -0.10711 -0.09968
 C352 C 1.08394 -0.08958 -0.07603
 H353 H 1.09698 -0.10220 -0.18025
 H354 H 1.18754 -0.09933 -0.18926
 H355 H 1.09981 -0.19304 -0.18846
 H356 H 1.10992 -0.20156 -0.11405
 H357 H 1.19759 -0.10785 -0.11481
 H358 H 1.20027 -0.19853 -0.12290
 C359 C 1.12021 0.37583 0.33133
 C360 C 1.16962 0.37757 0.32684
 C361 C 1.17034 0.32837 0.32379
 C362 C 1.12139 0.32619 0.32782
 C363 C 1.12636 0.37117 0.37147
 C364 C 1.12713 0.32198 0.36837
 C365 C 1.17531 0.37331 0.36741
 C366 C 1.17640 0.32380 0.36394
 C367 C 1.19551 0.30368 0.29828
 C368 C 1.21688 0.28255 0.27830
 C369 C 1.10258 0.39409 0.39894
 C370 C 1.08368 0.41205 0.42242
 H371 H 1.09680 0.39752 0.31829
 H372 H 1.18739 0.40010 0.30944
 H373 H 1.09954 0.30653 0.31122
 H374 H 1.10940 0.29939 0.38575
 H375 H 1.19720 0.39295 0.38400
 H376 H 1.19978 0.30213 0.37706
 C377 C 0.66116 -0.16115 0.37984
 C378 C 0.64169 -0.19205 0.35210
 C379 C 0.66970 -0.17099 0.32355
 C380 C 0.68952 -0.14041 0.35094
 C381 C 0.62571 -0.12848 0.37140
 C382 C 0.65370 -0.10734 0.34286
 C383 C 0.60584 -0.15905 0.34402
 C384 C 0.63426 -0.13833 0.31500
 C385 C 0.69486 -0.19559 0.29799
 C386 C 0.71625 -0.21673 0.27805
 C387 C 0.60188 -0.10583 0.39898
 C388 C 0.58288 -0.08820 0.42257
 H389 H 0.67197 -0.17028 0.40680
 H390 H 0.63703 -0.22715 0.35560
 H391 H 0.72421 -0.13303 0.35347
 H392 H 0.65833 -0.07222 0.33942
 H393 H 0.57115 -0.16642 0.34152
 H394 H 0.62354 -0.12928 0.28801
 C395 C 0.66395 0.34161 -0.11958
 C396 C 0.64375 0.31068 -0.14697
 C397 C 0.67194 0.33085 -0.17587
 C398 C 0.69246 0.36145 -0.14882
 C399 C 0.62899 0.37482 -0.12810
 C400 C 0.65717 0.39504 -0.15699
 C401 C 0.60841 0.34423 -0.15513
 C402 C 0.63700 0.36404 -0.18449
 C403 C 0.69664 0.30564 -0.20152
 C404 C 0.71768 0.28419 -0.22160
 C405 C 0.60589 0.39865 -0.10060
 C406 C 0.58774 0.41760 -0.07715
 H407 H 0.67481 0.33260 -0.09261
 H408 H 0.63848 0.27572 -0.14311
 H409 H 0.72728 0.36827 -0.14648
 H410 H 0.66243 0.43001 -0.16081
 H411 H 0.57359 0.33742 -0.15743
 H412 H 0.62620 0.37298 -0.21149
 C413 C 1.11485 0.13010 -0.16640
 C414 C 1.12489 0.17883 -0.16411
 C415 C 1.17109 0.16953 -0.17592
 C416 C 1.16149 0.12123 -0.17866
 C417 C 1.12943 0.12503 -0.12779
 C418 C 1.17563 0.11576 -0.13961
 C419 C 1.13907 0.17333 -0.12511
 C420 C 1.18557 0.16439 -0.13729
 C421 C 1.19526 0.19496 -0.20169
 C422 C 1.21611 0.21648 -0.22181
 C423 C 1.10705 0.10096 -0.10009
 C424 C 1.08942 0.08189 -0.07648
 H425 H 1.08550 0.11570 -0.17803
 H426 H 1.10429 0.20503 -0.17449
 H427 H 1.17098 0.10011 -0.20100
 H428 H 1.19626 0.08957 -0.12924
 H429 H 1.12963 0.19450 -0.10279
 H430 H 1.21490 0.17877 -0.12559
 C431 C 1.14228 0.61076 0.33364
 C432 C 1.12776 0.65430 0.31764
 C433 C 1.17346 0.67174 0.32270
 C434 C 1.18835 0.62863 0.33826
 C435 C 1.13091 0.62761 0.37070
 C436 C 1.17660 0.64510 0.37568
 C437 C 1.11601 0.67072 0.35515
 C438 C 1.16205 0.68851 0.35978
 C439 C 1.19802 0.69706 0.29693
 C440 C 1.21906 0.71859 0.27684
 C441 C 1.10797 0.60363 0.39831
 C442 C 1.08992 0.58454 0.42179
 H443 H 1.13391 0.57851 0.32317
 H444 H 1.10792 0.65834 0.29348
 H445 H 1.21834 0.61155 0.33105
 H446 H 1.19651 0.64111 0.39981
 H447 H 1.08603 0.68782 0.36236
 H448 H 1.17041 0.72075 0.37030
 C449 C 0.60847 0.15594 0.34499
 C450 C 0.64286 0.19055 0.35291
 C451 C 0.67187 0.17042 0.32455
 C452 C 0.63788 0.13617 0.31617
 C453 C 0.62949 0.12652 0.37264
 C454 C 0.65849 0.10634 0.34429
 C455 C 0.66350 0.16079 0.38093
 C456 C 0.69283 0.14099 0.35222
 C457 C 0.69632 0.19552 0.29873
 C458 C 0.71723 0.21684 0.27850
 C459 C 0.60672 0.10266 0.40026
 C460 C 0.58882 0.08357 0.42372
 H461 H 0.57351 0.16181 0.34234
 H462 H 0.63670 0.22546 0.35618
 H463 H 0.62763 0.12635 0.28923
 H464 H 0.66465 0.07144 0.34107
 H465 H 0.67382 0.17067 0.40784
 H466 H 0.72779 0.13510 0.35492
 C467 C 0.67380 0.62808 -0.13105
 C468 C 0.66893 0.62240 -0.17158
 C469 C 0.66917 0.67149 -0.17576
 C470 C 0.67441 0.67748 -0.13564
 C471 C 0.62475 0.62977 -0.12763
 C472 C 0.62504 0.67885 -0.13185
 C473 C 0.61942 0.62370 -0.16774
 C474 C 0.62012 0.67321 -0.17237
 C475 C 0.69461 0.69564 -0.20153
 C476 C 0.71619 0.71642 -0.22165
 C477 C 0.60072 0.60733 -0.09994
 C478 C 0.58169 0.58965 -0.07635
 H479 H 0.69562 0.60929 -0.11377
 H480 H 0.68726 0.59947 -0.18823
 H481 H 0.69730 0.69984 -0.12271
 H482 H 0.60674 0.70183 -0.11522
 H483 H 0.59651 0.60131 -0.18060
 H484 H 0.59834 0.69203 -0.18967
 C485 C 0.88465 -0.13112 -0.16664
 C486 C 0.87561 -0.18009 -0.16525
 C487 C 0.82879 -0.17129 -0.17562
 C488 C 0.83740 -0.12275 -0.17747
 C489 C 0.87151 -0.12764 -0.12757
 C490 C 0.82470 -0.11888 -0.13797
 C491 C 0.86287 -0.17618 -0.12577
 C492 C 0.81575 -0.16775 -0.13653
 C493 C 0.80412 -0.19626 -0.20139
 C494 C 0.78299 -0.21748 -0.22153
 C495 C 0.89438 -0.10388 -0.09995
 C496 C 0.91227 -0.08485 -0.07644
 H497 H 0.91326 -0.11577 -0.17868
 H498 H 0.89626 -0.20553 -0.17678
 H499 H 0.82664 -0.10107 -0.19904
 H500 H 0.80401 -0.09345 -0.12645
 H501 H 0.87358 -0.19790 -0.10423
 H502 H 0.78716 -0.18307 -0.12443
 C503 C 0.82923 0.35026 0.37884
 C504 C 0.81059 0.36907 0.34421
 C505 C 0.82882 0.33044 0.32386
 C506 C 0.84713 0.31131 0.35815
 C507 C 0.87132 0.37446 0.37183
 C508 C 0.88958 0.33583 0.35151
 C509 C 0.85303 0.39367 0.33756
 C510 C 0.87090 0.35460 0.31676
 C511 C 0.80428 0.30521 0.29816
 C512 C 0.78326 0.28374 0.27810
 C513 C 0.89412 0.39836 0.39943
 C514 C 0.91203 0.41743 0.42291
 H515 H 0.81233 0.34871 0.40466
 H516 H 0.77785 0.38247 0.34092
 H517 H 0.84444 0.27717 0.36635
 H518 H 0.92232 0.32244 0.35482
 H519 H 0.85573 0.42782 0.32942
 H520 H 0.88774 0.35609 0.29092
 C521 C 0.38916 -0.16276 0.34833
 C522 C 0.34916 -0.19090 0.35566
 C523 C 0.32709 -0.17108 0.32317
 C524 C 0.36672 -0.14329 0.31540
 C525 C 0.36959 -0.12700 0.37126
 C526 C 0.34753 -0.10711 0.33879
 C527 C 0.32995 -0.15482 0.37894
 C528 C 0.30756 -0.13532 0.34612
 C529 C 0.30258 -0.19635 0.29731
 C530 C 0.28162 -0.21781 0.27710
 C531 C 0.39251 -0.10303 0.39890
 C532 C 0.41058 -0.08394 0.42238
 H533 H 0.42296 -0.17381 0.34951
 H534 H 0.34961 -0.22562 0.36236
 H535 H 0.38159 -0.13880 0.28898
 H536 H 0.34709 -0.07238 0.33213
 H537 H 0.31502 -0.15937 0.40533
 H538 H 0.27375 -0.12426 0.34496
 C539 C 0.37270 0.32207 -0.13145
 C540 C 0.32335 0.32292 -0.13555
 C541 C 0.32889 0.32850 -0.17568
 C542 C 0.37793 0.32730 -0.17197
 C543 C 0.37248 0.37121 -0.12758
 C544 C 0.37810 0.37687 -0.16769
 C545 C 0.32345 0.37237 -0.13131
 C546 C 0.32862 0.37764 -0.17185
 C547 C 0.30391 0.30388 -0.20148
 C548 C 0.28263 0.28284 -0.22165
 C549 C 0.39619 0.39410 -0.09995
 C550 C 0.41519 0.41202 -0.07644
 H551 H 0.39107 0.29946 -0.11454
 H552 H 0.30058 0.30047 -0.12260
 H553 H 0.40004 0.30850 -0.18900
 H554 H 0.40090 0.39934 -0.18058
 H555 H 0.30130 0.39115 -0.11430
 H556 H 0.31022 0.40020 -0.18878
 C557 C 1.12198 -0.12509 0.16917
 C558 C 1.12453 -0.17482 0.17108
 C559 C 1.17313 -0.17145 0.17724
 C560 C 1.17099 -0.12215 0.17577
 C561 C 1.13055 -0.12745 0.12917
 C562 C 1.17915 -0.12413 0.13536
 C563 C 1.13273 -0.17675 0.13067
 C564 C 1.18162 -0.17374 0.13723
 C565 C 1.19774 -0.19664 0.20307
 C566 C 1.21886 -0.21801 0.22322
 C567 C 1.10760 -0.10352 0.10153
 C568 C 1.08953 -0.08445 0.07805
 H569 H 1.09719 -0.10482 0.18202
 H570 H 1.10230 -0.19591 0.18604
 H571 H 1.18697 -0.09994 0.19460
 H572 H 1.20142 -0.10306 0.12042
 H573 H 1.11679 -0.19900 0.11186
 H574 H 1.20639 -0.19399 0.12431
 C575 C 1.10995 0.35887 0.66244
 C576 C 1.13149 0.31464 0.65615
 C577 C 1.17146 0.33065 0.67591
 C578 C 1.15035 0.37448 0.68267
 C579 C 1.12985 0.37519 0.62778
 C580 C 1.16983 0.39121 0.64754
 C581 C 1.15100 0.33136 0.62111
 C582 C 1.19127 0.34701 0.64123
 C583 C 1.19557 0.30515 0.70169
 C584 C 1.21633 0.28352 0.72180
 C585 C 1.10750 0.39927 0.60006
 C586 C 1.08989 0.41832 0.57643
 H587 H 1.07624 0.36405 0.67084
 H588 H 1.11598 0.28288 0.65999
 H589 H 1.15037 0.39190 0.70830
 H590 H 1.18534 0.42296 0.64369
 H591 H 1.15105 0.31387 0.59551
 H592 H 1.22497 0.34186 0.63277
 C593 C 0.60800 -0.14914 0.65994
 C594 C 0.63541 -0.18970 0.65255
 C595 C 0.67125 -0.17097 0.67579
 C596 C 0.64426 -0.13080 0.68365
 C597 C 0.62864 -0.12724 0.62775
 C598 C 0.66448 -0.10849 0.65099
 C599 C 0.65566 -0.16741 0.61998
 C600 C 0.69180 -0.14904 0.64358
 C601 C 0.69583 -0.19600 0.70157
 C602 C 0.71683 -0.21729 0.72174
 C603 C 0.60581 -0.10345 0.60014
 C604 C 0.58795 -0.08440 0.57664
 H605 H 0.57326 -0.14890 0.66633
 H606 H 0.62373 -0.22337 0.65348
 H607 H 0.63987 -0.11605 0.71015
 H608 H 0.67616 -0.07482 0.65004
 H609 H 0.66011 -0.18223 0.59352
 H610 H 0.72653 -0.14925 0.63713
 C611 C 0.61342 0.36765 0.16696
 C612 C 0.62301 0.31877 0.16604
 C613 C 0.66989 0.32830 0.17573
 C614 C 0.66076 0.37677 0.17710
 C615 C 0.62581 0.37056 0.12769
 C616 C 0.67269 0.38007 0.13739
 C617 C 0.63499 0.32210 0.12638
 C618 C 0.68219 0.33128 0.13645
 C619 C 0.69514 0.30392 0.20151
 C620 C 0.71659 0.28304 0.22167
 C621 C 0.60186 0.39329 0.10009
 C622 C 0.58274 0.41117 0.07663
 H623 H 0.58485 0.38288 0.17918
 H624 H 0.60285 0.29331 0.17812
 H625 H 0.67164 0.39897 0.19827
 H626 H 0.69287 0.40552 0.12531
 H627 H 0.62416 0.29984 0.10523
 H628 H 0.71074 0.31606 0.12417
 C629 C 0.82231 0.12339 0.13364
 C630 C 0.83009 0.12091 0.17407
 C631 C 0.82871 0.17020 0.17582
 C632 C 0.82058 0.17300 0.13579
 C633 C 0.87098 0.12607 0.12780
 C634 C 0.86956 0.17536 0.12959
 C635 C 0.87920 0.12318 0.16781
 C636 C 0.87739 0.17292 0.17002
 C637 C 0.80427 0.19543 0.20157
 C638 C 0.78328 0.21682 0.22171
 C639 C 0.89368 0.10208 0.10021
 C640 C 0.91152 0.08292 0.07674
 H641 H 0.79989 0.10278 0.11839
 H642 H 0.81360 0.09881 0.19266
 H643 H 0.79622 0.19376 0.12289
 H644 H 0.88602 0.19749 0.11100
 H645 H 0.90358 0.10240 0.18065
 H646 H 0.89976 0.19356 0.18528
 C647 C 0.83068 0.61084 0.64575
 C648 C 0.84881 0.62546 0.68200
 C649 C 0.82896 0.67003 0.67601
 C650 C 0.81049 0.65577 0.64020
 C651 C 0.87190 0.62686 0.62783
 C652 C 0.85202 0.67143 0.62192
 C653 C 0.89047 0.64108 0.66362
 C654 C 0.87018 0.68605 0.65810
 C655 C 0.80417 0.69481 0.70182
 C656 C 0.78298 0.71599 0.72194
 C657 C 0.89488 0.60337 0.60013
 C658 C 0.91281 0.58453 0.57655
 H659 H 0.81470 0.57965 0.64036
 H660 H 0.84719 0.60685 0.70702
 H661 H 0.77734 0.66206 0.63085
 H662 H 0.85357 0.69010 0.59693
 H663 H 0.92364 0.63476 0.67291
 H664 H 0.88615 0.71725 0.66348
 C665 C 0.37722 0.17343 0.63568
 C666 C 0.32809 0.18035 0.63602
 C667 C 0.32755 0.16978 0.67572
 C668 C 0.37637 0.16323 0.67581
 C669 C 0.36982 0.12559 0.62775
 C670 C 0.36936 0.11493 0.66743
 C671 C 0.32101 0.13219 0.62772
 C672 C 0.32013 0.12194 0.66780
 C673 C 0.30315 0.19506 0.70145
 C674 C 0.28223 0.21650 0.72159
 C675 C 0.39255 0.10165 0.60016
 C676 C 0.41045 0.08264 0.57665
 H677 H 0.40095 0.19435 0.62218
 H678 H 0.31086 0.20751 0.62337
 H679 H 0.39884 0.17627 0.69589
 H680 H 0.38660 0.08774 0.68002
 H681 H 0.29848 0.11919 0.60766
 H682 H 0.29638 0.10105 0.68131
 C683 C 0.38112 0.67785 0.13949
 C684 C 0.33228 0.68651 0.13809
 C685 C 0.32883 0.67354 0.17722
 C686 C 0.37735 0.66522 0.17904
 C687 C 0.37271 0.63084 0.12914
 C688 C 0.36932 0.61779 0.16826
 C689 C 0.32418 0.63921 0.12738
 C690 C 0.32038 0.62653 0.16689
 C691 C 0.30365 0.69816 0.20305
 C692 C 0.28221 0.71920 0.22321
 C693 C 0.39656 0.60780 0.10151
 C694 C 0.41558 0.58966 0.07804
 H695 H 0.40634 0.69877 0.12796
 H696 H 0.31681 0.71501 0.12590
 H697 H 0.39897 0.67617 0.20056
 H698 H 0.38480 0.58926 0.18039
 H699 H 0.30251 0.62830 0.10588
 H700 H 0.29515 0.60565 0.17843
   
