data_POSCAR
  _audit_creation_date              2014-09-24
  _audit_creation_method            'ToBaCCo'
  _symmetry_space_group_name_H-M    'P1'
  _symmetry_Int_Tables_number       1
  _symmetry_cell_setting            triclinic
  loop_
  _symmetry_equiv_pos_as_xyz
 x,y,z
_cell_length_a 44.9346
_cell_length_b 44.9346
_cell_length_c 36.6944
_cell_angle_alpha 89.962500
_cell_angle_beta 89.962200
_cell_angle_gamma 89.997800
loop_
  _atom_site_label
  _atom_site_type_symbol
  _atom_site_fract_x
  _atom_site_fract_y
  _atom_site_fract_z
O1 O 0.02856 0.30606 -0.03470
 O2 O -0.02997 0.30576 0.03618
 O3 O 0.02840 0.30595 0.03629
 O4 O -0.02980 0.30598 -0.03481
 O5 O -0.02947 0.25676 -0.03471
 O6 O 0.02830 0.25673 0.03593
 O7 O -0.02962 0.25655 0.03582
 O8 O 0.02844 0.25684 -0.03459
 Cu9 Cu -0.00071 0.31094 0.00075
 Cu10 Cu -0.00058 0.25180 0.00060
 C11 C 0.03852 0.28139 -0.04634
 C12 C -0.03982 0.28100 0.04770
 C13 C 0.03832 0.28124 0.04784
 C14 C -0.03960 0.28127 -0.04650
 O15 O 0.52921 0.80560 0.46422
 O16 O 0.47096 0.80566 0.53538
 O17 O 0.52933 0.80551 0.53522
 O18 O 0.47084 0.80564 0.46438
 O19 O 0.47099 0.75642 0.46461
 O20 O 0.52903 0.75629 0.53499
 O21 O 0.47110 0.75644 0.53516
 O22 O 0.52892 0.75638 0.46445
 Cu23 Cu 0.50009 0.81060 0.49980
 Cu24 Cu 0.50000 0.75146 0.49980
 C25 C 0.53904 0.78088 0.45259
 C26 C 0.46106 0.78096 0.54702
 C27 C 0.53919 0.78077 0.54680
 C28 C 0.46090 0.78094 0.45281
 O29 O 1.03035 0.69519 0.03538
 O30 O 0.97195 0.69498 -0.03555
 O31 O 1.03032 0.69509 -0.03562
 O32 O 0.97198 0.69504 0.03544
 O33 O 0.97210 0.74426 0.03509
 O34 O 1.02998 0.74430 -0.03552
 O35 O 0.97205 0.74419 -0.03545
 O36 O 1.03002 0.74439 0.03503
 Cu37 Cu 1.00117 0.69007 -0.00008
 Cu38 Cu 1.00103 0.74921 -0.00022
 C39 C 1.04019 0.71993 0.04693
 C40 C 0.96200 0.71965 -0.04720
 C41 C 1.04014 0.71981 -0.04731
 C42 C 0.96205 0.71974 0.04699
 O43 O 0.52903 0.19339 0.53549
 O44 O 0.47083 0.19328 0.46437
 O45 O 0.52920 0.19345 0.46451
 O46 O 0.47067 0.19333 0.53538
 O47 O 0.47081 0.24254 0.53511
 O48 O 0.52888 0.24266 0.46470
 O49 O 0.47096 0.24250 0.46457
 O50 O 0.52872 0.24261 0.53523
 Cu51 Cu 0.49994 0.18836 0.49994
 Cu52 Cu 0.49983 0.24750 0.49990
 C53 C 0.53884 0.21812 0.54709
 C54 C 0.46094 0.21798 0.45273
 C55 C 0.53906 0.21818 0.45291
 C56 C 0.46073 0.21802 0.54695
 O57 O 0.69392 0.02859 -0.03476
 O58 O 0.69426 -0.02993 0.03611
 O59 O 0.69413 0.02844 0.03622
 O60 O 0.69398 -0.02977 -0.03488
 O61 O 0.74319 -0.02947 -0.03494
 O62 O 0.74334 0.02829 0.03571
 O63 O 0.74347 -0.02963 0.03559
 O64 O 0.74314 0.02844 -0.03482
 Cu65 Cu 0.68907 -0.00068 0.00071
 Cu66 Cu 0.74821 -0.00059 0.00036
 C67 C 0.71858 0.03853 -0.04649
 C68 C 0.71903 -0.03981 0.04756
 C69 C 0.71886 0.03834 0.04769
 C70 C 0.71867 -0.03958 -0.04665
 O71 O 0.19423 0.52909 0.46448
 O72 O 0.19436 0.47085 0.53564
 O73 O 0.19429 0.52922 0.53548
 O74 O 0.19440 0.47072 0.46466
 O75 O 0.24362 0.47104 0.46484
 O76 O 0.24350 0.52909 0.53521
 O77 O 0.24357 0.47116 0.53537
 O78 O 0.24345 0.52898 0.46465
 Cu79 Cu 0.18932 0.49996 0.50007
 Cu80 Cu 0.24846 0.50008 0.50001
 C81 C 0.21892 0.53900 0.45281
 C82 C 0.21909 0.46103 0.54725
 C83 C 0.21898 0.53916 0.54705
 C84 C 0.21914 0.46086 0.45306
 O85 O 0.30483 1.03035 0.03544
 O86 O 0.30501 0.97194 -0.03549
 O87 O 0.30486 1.03032 -0.03555
 O88 O 0.30504 0.97199 0.03550
 O89 O 0.25583 0.97206 0.03532
 O90 O 0.25565 1.02995 -0.03529
 O91 O 0.25579 0.97201 -0.03522
 O92 O 0.25562 1.02998 0.03526
 Cu93 Cu 0.30993 1.00117 -0.00003
 Cu94 Cu 0.25080 1.00099 0.00002
 C95 C 0.28009 1.04017 0.04707
 C96 C 0.28032 0.96197 -0.04706
 C97 C 0.28012 1.04013 -0.04716
 C98 C 0.28036 0.96203 0.04714
 O99 O 0.80664 0.52894 0.53522
 O100 O 0.80654 0.47073 0.46412
 O101 O 0.80660 0.52910 0.46423
 O102 O 0.80646 0.47058 0.53511
 O103 O 0.75724 0.47091 0.53489
 O104 O 0.75738 0.52897 0.46448
 O105 O 0.75732 0.47105 0.46437
 O106 O 0.75742 0.52882 0.53501
 Cu107 Cu 0.81156 0.49983 0.49967
 Cu108 Cu 0.75242 0.49995 0.49969
 C109 C 0.78194 0.53884 0.54685
 C110 C 0.78181 0.46093 0.45251
 C111 C 0.78191 0.53905 0.45266
 C112 C 0.78171 0.46073 0.54670
 C113 C 0.24170 0.20341 0.18869
 C114 C 0.21596 0.21604 0.17404
 C115 C 0.20343 0.24172 0.18895
 C116 C 0.21682 0.25542 0.21944
 C117 C 0.24299 0.24280 0.23462
 C118 C 0.25552 0.21666 0.21921
 C119 C 0.28144 0.20454 0.23468
 C120 C 0.29485 0.21782 0.26478
 C121 C 0.28282 0.24372 0.28046
 C122 C 0.25666 0.25634 0.26526
 C123 C 0.20479 0.28131 0.23511
 C124 C 0.21822 0.29462 0.26518
 C125 C 0.24414 0.28250 0.28066
 C126 C 0.25797 0.29577 0.31115
 C127 C 0.28368 0.28311 0.32584
 C128 C 0.29619 0.25741 0.31097
 H129 H 0.29156 0.18463 0.22362
 H130 H 0.31477 0.20762 0.27569
 H131 H 0.18487 0.29151 0.22421
 H132 H 0.20809 0.31453 0.27624
 H133 H 0.20550 0.20569 0.15059
 H134 H 0.29414 0.29347 0.34929
 C135 C 0.74257 0.70402 0.31077
 C136 C 0.71679 0.71649 0.32552
 C137 C 0.70412 0.74215 0.31070
 C138 C 0.71742 0.75597 0.28019
 C139 C 0.74365 0.74352 0.26492
 C140 C 0.75632 0.71741 0.28026
 C141 C 0.78230 0.70545 0.26472
 C142 C 0.79564 0.71888 0.23463
 C143 C 0.78347 0.74474 0.21901
 C144 C 0.75724 0.75719 0.23427
 C145 C 0.70526 0.78183 0.26457
 C146 C 0.71860 0.79526 0.23448
 C147 C 0.74458 0.78330 0.21893
 C148 C 0.75832 0.79669 0.18842
 C149 C 0.78411 0.78422 0.17368
 C150 C 0.79678 0.75856 0.18851
 H151 H 0.79253 0.68558 0.27573
 H152 H 0.81562 0.70880 0.22367
 H153 H 0.68528 0.79191 0.27553
 H154 H 0.70836 0.81513 0.22346
 H155 H 0.70639 0.70603 0.34897
 H156 H 0.79451 0.79468 0.15022
 C157 C 0.79665 0.24180 0.18864
 C158 C 0.78410 0.21605 0.17393
 C159 C 0.75843 0.20344 0.18881
 C160 C 0.74467 0.21676 0.21933
 C161 C 0.75720 0.24294 0.23456
 C162 C 0.78333 0.25555 0.21917
 C163 C 0.79537 0.28148 0.23469
 C164 C 0.78201 0.29483 0.26481
 C165 C 0.75613 0.28271 0.28047
 C166 C 0.74360 0.25653 0.26523
 C167 C 0.71880 0.20464 0.23499
 C168 C 0.70543 0.21800 0.26509
 C169 C 0.71747 0.24393 0.28061
 C170 C 0.70414 0.25768 0.31113
 C171 C 0.71670 0.28342 0.32586
 C172 C 0.74238 0.29602 0.31099
 H173 H 0.81526 0.29168 0.22364
 H174 H 0.79215 0.31477 0.27575
 H175 H 0.70866 0.18470 0.22406
 H176 H 0.68554 0.20780 0.27614
 H177 H 0.79450 0.20564 0.15046
 H178 H 0.70629 0.29383 0.34933
 C179 C 0.29592 0.74225 0.31079
 C180 C 0.28335 0.71650 0.32551
 C181 C 0.25767 0.70392 0.31068
 C182 C 0.24391 0.71729 0.28019
 C183 C 0.25645 0.74350 0.26496
 C184 C 0.28259 0.75607 0.28032
 C185 C 0.29462 0.78204 0.26481
 C186 C 0.28126 0.79545 0.23475
 C187 C 0.25538 0.78338 0.21912
 C188 C 0.24284 0.75716 0.23433
 C189 C 0.21804 0.70521 0.26455
 C190 C 0.20468 0.71861 0.23447
 C191 C 0.21672 0.74458 0.21896
 C192 C 0.20340 0.75839 0.18847
 C193 C 0.21595 0.78417 0.17379
 C194 C 0.24162 0.79676 0.18864
 H195 H 0.31452 0.79220 0.27584
 H196 H 0.29139 0.81542 0.22382
 H197 H 0.20790 0.68525 0.27548
 H198 H 0.18479 0.70845 0.22344
 H199 H 0.29376 0.70604 0.34894
 H200 H 0.20555 0.79463 0.15035
 C201 C 0.70362 0.25764 0.68881
 C202 C 0.71628 0.28330 0.67394
 C203 C 0.74195 0.29589 0.68876
 C204 C 0.75560 0.28262 0.71940
 C205 C 0.74296 0.25651 0.73478
 C206 C 0.71684 0.24394 0.71943
 C207 C 0.70469 0.21807 0.73507
 C208 C 0.71794 0.20476 0.76528
 C209 C 0.74381 0.21685 0.78092
 C210 C 0.75645 0.24296 0.76555
 C211 C 0.78147 0.29470 0.73503
 C212 C 0.79471 0.28140 0.76525
 C213 C 0.78256 0.25554 0.78090
 C214 C 0.79577 0.24184 0.81153
 C215 C 0.78313 0.21617 0.82638
 C216 C 0.75747 0.20357 0.81154
 H217 H 0.68479 0.20790 0.72405
 H218 H 0.70772 0.18488 0.77631
 H219 H 0.79169 0.31459 0.72400
 H220 H 0.81460 0.29158 0.77628
 H221 H 0.70594 0.29366 0.65039
 H222 H 0.79347 0.20580 0.84992
 C223 C 0.29609 0.74226 0.68913
 C224 C 0.28348 0.71655 0.67439
 C225 C 0.25776 0.70401 0.68921
 C226 C 0.24401 0.71738 0.71971
 C227 C 0.25659 0.74355 0.73496
 C228 C 0.28276 0.75608 0.71961
 C229 C 0.29485 0.78200 0.73511
 C230 C 0.28149 0.79542 0.76518
 C231 C 0.25557 0.78339 0.78082
 C232 C 0.24300 0.75720 0.76559
 C233 C 0.21809 0.70534 0.73535
 C234 C 0.20475 0.71874 0.76544
 C235 C 0.21684 0.74466 0.78095
 C236 C 0.20353 0.75847 0.81145
 C237 C 0.21611 0.78420 0.82615
 C238 C 0.24181 0.79677 0.81130
 H239 H 0.31478 0.79214 0.72409
 H240 H 0.29166 0.81535 0.77611
 H241 H 0.20792 0.68542 0.72442
 H242 H 0.18483 0.70860 0.77648
 H243 H 0.29390 0.70611 0.65095
 H244 H 0.20569 0.79464 0.84959
 C245 C 0.24164 0.20370 0.81185
 C246 C 0.21599 0.21642 0.82665
 C247 C 0.20351 0.24216 0.81181
 C248 C 0.21688 0.25582 0.78123
 C249 C 0.24296 0.24310 0.76590
 C250 C 0.25543 0.21691 0.78126
 C251 C 0.28126 0.20469 0.76565
 C252 C 0.29465 0.21793 0.73546
 C253 C 0.28268 0.24387 0.71982
 C254 C 0.25660 0.25660 0.73517
 C255 C 0.20491 0.28176 0.76559
 C256 C 0.21831 0.29501 0.73542
 C257 C 0.24415 0.28279 0.71981
 C258 C 0.25794 0.29601 0.68923
 C259 C 0.28357 0.28328 0.67440
 C260 C 0.29604 0.25752 0.68923
 H261 H 0.29134 0.18474 0.77668
 H262 H 0.31451 0.20766 0.72445
 H263 H 0.18505 0.29203 0.77660
 H264 H 0.20823 0.31496 0.72440
 H265 H 0.20555 0.20609 0.85017
 H266 H 0.29400 0.29361 0.65088
 C267 C 0.74260 0.70358 0.68871
 C268 C 0.71686 0.71610 0.67393
 C269 C 0.70420 0.74176 0.68874
 C270 C 0.71747 0.75551 0.71928
 C271 C 0.74367 0.74299 0.73457
 C272 C 0.75632 0.71690 0.71922
 C273 C 0.78227 0.70488 0.73476
 C274 C 0.79560 0.71824 0.76487
 C275 C 0.78345 0.74408 0.78050
 C276 C 0.75724 0.75659 0.76524
 C277 C 0.70532 0.78135 0.73492
 C278 C 0.71863 0.79469 0.76505
 C279 C 0.74458 0.78267 0.78060
 C280 C 0.75829 0.79598 0.81113
 C281 C 0.78405 0.78348 0.82587
 C282 C 0.79674 0.75785 0.81102
 H283 H 0.79250 0.68501 0.72374
 H284 H 0.81556 0.70813 0.77582
 H285 H 0.68537 0.79147 0.72396
 H286 H 0.70840 0.81455 0.77608
 H287 H 0.70648 0.70569 0.65046
 H288 H 0.79443 0.79390 0.84934
 C289 C 0.27946 0.06263 0.07180
 C290 C 0.27750 0.08315 0.09282
 C291 C 0.27343 0.10780 0.11615
 C292 C 0.26846 0.12926 0.13487
 C293 C 0.26090 0.15480 0.15528
 C294 C 0.25297 0.17683 0.17131
 C295 C 0.78135 0.56254 0.57300
 C296 C 0.77927 0.58311 0.59390
 C297 C 0.77502 0.60783 0.61702
 C298 C 0.76986 0.62936 0.63553
 C299 C 0.76208 0.65494 0.65566
 C300 C 0.75399 0.67701 0.67148
 C301 C 0.71972 0.93768 0.07223
 C302 C 0.72178 0.91710 0.09317
 C303 C 0.72599 0.89239 0.11638
 C304 C 0.73111 0.87088 0.13498
 C305 C 0.73884 0.84531 0.15523
 C306 C 0.74691 0.82326 0.17114
 C307 C 0.21975 0.43731 0.57340
 C308 C 0.22185 0.41671 0.59430
 C309 C 0.22606 0.39197 0.61744
 C310 C 0.23113 0.37041 0.63597
 C311 C 0.23878 0.34478 0.65613
 C312 C 0.24673 0.32266 0.67198
 C313 C 0.93766 0.28032 0.07236
 C314 C 0.91708 0.27826 0.09330
 C315 C 0.89237 0.27404 0.11651
 C316 C 0.87085 0.26893 0.13512
 C317 C 0.84528 0.26121 0.15539
 C318 C 0.82322 0.25316 0.17132
 C319 C 0.43734 0.78037 0.57319
 C320 C 0.41676 0.77833 0.59411
 C321 C 0.39202 0.77418 0.61728
 C322 C 0.37046 0.76913 0.63583
 C323 C 0.34484 0.76150 0.65602
 C324 C 0.32273 0.75353 0.67188
 C325 C 0.06264 0.72056 0.07166
 C326 C 0.08316 0.72252 0.09268
 C327 C 0.10780 0.72659 0.11601
 C328 C 0.12927 0.73156 0.13473
 C329 C 0.15480 0.73913 0.15512
 C330 C 0.17683 0.74708 0.17113
 C331 C 0.56255 0.21879 0.57322
 C332 C 0.58313 0.22094 0.59409
 C333 C 0.60785 0.22524 0.61718
 C334 C 0.62938 0.23043 0.63566
 C335 C 0.65497 0.23823 0.65577
 C336 C 0.67704 0.24631 0.67157
 C337 C 0.71910 0.06232 0.92744
 C338 C 0.72112 0.08295 0.90657
 C339 C 0.72529 0.10772 0.88343
 C340 C 0.73037 0.12928 0.86489
 C341 C 0.73807 0.15489 0.84468
 C342 C 0.74610 0.17697 0.82880
 C343 C 0.21949 0.56270 0.42662
 C344 C 0.22151 0.58327 0.40566
 C345 C 0.22566 0.60799 0.38246
 C346 C 0.23072 0.62954 0.36389
 C347 C 0.23837 0.65516 0.34370
 C348 C 0.24636 0.67727 0.32786
 C349 C 0.27977 0.93819 0.92687
 C350 C 0.27776 0.91757 0.90602
 C351 C 0.27364 0.89279 0.88292
 C352 C 0.26864 0.87121 0.86441
 C353 C 0.26105 0.84556 0.84426
 C354 C 0.25310 0.82343 0.82844
 C355 C 0.78114 0.43722 0.42639
 C356 C 0.77901 0.41663 0.40552
 C357 C 0.77471 0.39190 0.38244
 C358 C 0.76954 0.37035 0.36398
 C359 C 0.76176 0.34474 0.34391
 C360 C 0.75370 0.32265 0.32815
 C361 C 0.06232 0.28085 0.92758
 C362 C 0.08295 0.27880 0.90672
 C363 C 0.10771 0.27458 0.88360
 C364 C 0.12926 0.26945 0.86507
 C365 C 0.15487 0.26169 0.84489
 C366 C 0.17693 0.25360 0.82904
 C367 C 0.56276 0.78024 0.42643
 C368 C 0.58335 0.77818 0.40553
 C369 C 0.60810 0.77400 0.38239
 C370 C 0.62967 0.76894 0.36386
 C371 C 0.65531 0.76131 0.34372
 C372 C 0.67744 0.75336 0.32789
 C373 C 0.93822 0.72019 0.92672
 C374 C 0.91759 0.72218 0.90586
 C375 C 0.89282 0.72625 0.88274
 C376 C 0.87123 0.73121 0.86422
 C377 C 0.84557 0.73874 0.84404
 C378 C 0.82343 0.74663 0.82821
 C379 C 0.43725 0.21857 0.42657
 C380 C 0.41669 0.22066 0.40565
 C381 C 0.39199 0.22492 0.38251
 C382 C 0.37046 0.23009 0.36400
 C383 C 0.34487 0.23789 0.34389
 C384 C 0.32279 0.24600 0.32811
 C385 C 0.71926 0.93675 0.92717
 C386 C 0.72136 0.91620 0.90624
 C387 C 0.72566 0.89153 0.88305
 C388 C 0.73086 0.87005 0.86449
 C389 C 0.73871 0.84452 0.84429
 C390 C 0.74685 0.82250 0.82841
 C391 C 0.21981 0.43706 0.42702
 C392 C 0.22191 0.41643 0.40619
 C393 C 0.22611 0.39167 0.38309
 C394 C 0.23116 0.37011 0.36456
 C395 C 0.23879 0.34449 0.34435
 C396 C 0.24673 0.32239 0.32845
 C397 C 0.27949 0.06259 0.92812
 C398 C 0.27752 0.08315 0.90714
 C399 C 0.27341 0.10785 0.88390
 C400 C 0.26840 0.12938 0.86529
 C401 C 0.26079 0.15498 0.84505
 C402 C 0.25286 0.17707 0.82914
 C403 C 0.78131 0.56284 0.42658
 C404 C 0.77923 0.58347 0.40572
 C405 C 0.77497 0.60823 0.38260
 C406 C 0.76983 0.62978 0.36407
 C407 C 0.76206 0.65537 0.34389
 C408 C 0.75398 0.67744 0.32802
 C409 C 0.06259 0.72040 0.92794
 C410 C 0.08313 0.72236 0.90693
 C411 C 0.10780 0.72647 0.88365
 C412 C 0.12931 0.73151 0.86500
 C413 C 0.15487 0.73916 0.84470
 C414 C 0.17694 0.74716 0.82877
 C415 C 0.56287 0.21887 0.42686
 C416 C 0.58352 0.22103 0.40603
 C417 C 0.60829 0.22533 0.38295
 C418 C 0.62985 0.23050 0.36445
 C419 C 0.65547 0.23827 0.34428
 C420 C 0.67754 0.24633 0.32842
 C421 C 0.93671 0.28064 0.92735
 C422 C 0.91615 0.27853 0.90644
 C423 C 0.89146 0.27424 0.88330
 C424 C 0.86994 0.26907 0.86478
 C425 C 0.84438 0.26128 0.84463
 C426 C 0.82233 0.25319 0.82879
 C427 C 0.43712 0.78036 0.42674
 C428 C 0.41650 0.77832 0.40588
 C429 C 0.39175 0.77417 0.38274
 C430 C 0.37021 0.76914 0.36419
 C431 C 0.34461 0.76151 0.34396
 C432 C 0.32253 0.75355 0.32807
 C433 C 0.27981 0.93828 0.07325
 C434 C 0.27778 0.91765 0.09412
 C435 C 0.27362 0.89286 0.11721
 C436 C 0.26856 0.87126 0.13568
 C437 C 0.26089 0.84559 0.15576
 C438 C 0.25290 0.82344 0.17152
 C439 C 0.78101 0.43694 0.57279
 C440 C 0.77883 0.41633 0.59366
 C441 C 0.77449 0.39159 0.61679
 C442 C 0.76929 0.37006 0.63534
 C443 C 0.76147 0.34449 0.65556
 C444 C 0.75336 0.32245 0.67146
 C445 C 0.71955 0.06207 0.07378
 C446 C 0.72172 0.08268 0.09460
 C447 C 0.72605 0.10745 0.11761
 C448 C 0.73125 0.12903 0.13600
 C449 C 0.73905 0.15468 0.15598
 C450 C 0.74712 0.17680 0.17169
 C451 C 0.21956 0.56292 0.57315
 C452 C 0.22160 0.58351 0.59405
 C453 C 0.22575 0.60822 0.61725
 C454 C 0.23079 0.62974 0.63584
 C455 C 0.23843 0.65533 0.65610
 C456 C 0.24641 0.67740 0.67199
 C457 C 0.93829 0.72035 0.07309
 C458 C 0.91766 0.72242 0.09394
 C459 C 0.89287 0.72663 0.11701
 C460 C 0.87128 0.73171 0.13547
 C461 C 0.84561 0.73938 0.15555
 C462 C 0.82346 0.74735 0.17133
 C463 C 0.43697 0.21863 0.57307
 C464 C 0.41637 0.22072 0.59398
 C465 C 0.39166 0.22498 0.61718
 C466 C 0.37016 0.23014 0.63577
 C467 C 0.34461 0.23793 0.65603
 C468 C 0.32258 0.24605 0.67194
 C469 C 0.06204 0.28060 0.07394
 C470 C 0.08265 0.27847 0.09478
 C471 C 0.10743 0.27418 0.11780
 C472 C 0.12901 0.26900 0.13620
 C473 C 0.15466 0.26119 0.15619
 C474 C 0.17678 0.25310 0.17188
 C475 C 0.56297 0.78009 0.57287
 C476 C 0.58358 0.77798 0.59373
 C477 C 0.60832 0.77376 0.61686
 C478 C 0.62986 0.76867 0.63541
 C479 C 0.65547 0.76101 0.65562
 C480 C 0.67756 0.75304 0.67150
   
