data_POSCAR
  _audit_creation_date              2014-09-24
  _audit_creation_method            'ToBaCCo'
  _symmetry_space_group_name_H-M    'P1'
  _symmetry_Int_Tables_number       1
  _symmetry_cell_setting            triclinic
  loop_
  _symmetry_equiv_pos_as_xyz
 x,y,z
_cell_length_a 35.4452
_cell_length_b 35.2438
_cell_length_c 29.5490
_cell_angle_alpha 90.054800
_cell_angle_beta 89.560300
_cell_angle_gamma 87.720100
loop_
  _atom_site_label
  _atom_site_type_symbol
  _atom_site_fract_x
  _atom_site_fract_y
  _atom_site_fract_z
O1 O -0.03543 0.31797 0.04587
 O2 O 0.03460 0.32079 -0.04670
 O3 O -0.03983 0.31914 -0.04229
 O4 O 0.03777 0.31875 0.04018
 O5 O 0.04124 0.25605 0.03766
 O6 O -0.03597 0.25645 -0.04453
 O7 O 0.03736 0.25869 -0.04953
 O8 O -0.03187 0.25537 0.04332
 Cu9 Cu -0.00131 0.32550 -0.00083
 Cu10 Cu 0.00287 0.25039 -0.00362
 C11 C -0.04514 0.28602 0.06088
 C12 C 0.04916 0.29036 -0.06319
 C13 C -0.05144 0.28778 -0.05686
 C14 C 0.05316 0.28724 0.05225
 O15 O 0.53256 0.82055 0.45901
 O16 O 0.46338 0.81264 0.55225
 O17 O 0.53669 0.81658 0.54740
 O18 O 0.45933 0.81604 0.46465
 O19 O 0.46555 0.75353 0.46088
 O20 O 0.54290 0.75418 0.54277
 O21 O 0.47030 0.75012 0.54861
 O22 O 0.53887 0.75826 0.45577
 Cu23 Cu 0.49746 0.82277 0.50614
 Cu24 Cu 0.50491 0.74778 0.50141
 C25 C 0.54817 0.79075 0.44199
 C26 C 0.45531 0.77991 0.56641
 C27 C 0.55328 0.78547 0.55886
 C28 C 0.44882 0.78451 0.44940
 O29 O 0.96599 0.68453 -0.03556
 O30 O 1.04256 0.68893 0.04798
 O31 O 0.97002 0.68629 0.05109
 O32 O 1.04113 0.68456 -0.04097
 O33 O 1.03759 0.74692 -0.04384
 O34 O 0.96549 0.74892 0.04585
 O35 O 1.03850 0.75148 0.04436
 O36 O 0.96484 0.74683 -0.04165
 Cu37 Cu 1.00572 0.67967 0.00538
 Cu38 Cu 1.00150 0.75474 0.00077
 C39 C 0.95148 0.71508 -0.05190
 C40 C 1.05253 0.72120 0.06163
 C41 C 0.95551 0.71808 0.06368
 C42 C 1.05140 0.71549 -0.05854
 O43 O 0.54353 0.18726 0.54013
 O44 O 0.46720 0.18400 0.45538
 O45 O 0.54108 0.18758 0.45155
 O46 O 0.47104 0.17877 0.54323
 O47 O 0.46452 0.24129 0.54683
 O48 O 0.53227 0.24999 0.45286
 O49 O 0.45923 0.24644 0.45983
 O50 O 0.53665 0.24978 0.54103
 Cu51 Cu 0.50662 0.17813 0.49704
 Cu52 Cu 0.49761 0.25310 0.50034
 C53 C 0.55250 0.21935 0.55561
 C54 C 0.44979 0.21478 0.44408
 C55 C 0.54830 0.22016 0.43632
 C56 C 0.45572 0.20859 0.56051
 O57 O 0.67898 0.04250 -0.04203
 O58 O 0.68177 -0.03057 0.04822
 O59 O 0.68185 0.04312 0.04605
 O60 O 0.67289 -0.03194 -0.03974
 O61 O 0.73482 -0.03557 -0.04927
 O62 O 0.74375 0.03501 0.04146
 O63 O 0.74229 -0.04170 0.03310
 O64 O 0.74089 0.03515 -0.04963
 Cu65 Cu 0.67257 0.00645 0.00368
 Cu66 Cu 0.74661 -0.00085 -0.00508
 C67 C 0.70976 0.05106 -0.06123
 C68 C 0.71236 -0.05009 0.05397
 C69 C 0.71453 0.05129 0.05907
 C70 C 0.70222 -0.04699 -0.05849
 O71 O 0.18319 0.45955 0.54533
 O72 O 0.18099 0.53615 0.45951
 O73 O 0.17766 0.46255 0.45747
 O74 O 0.18342 0.53422 0.54783
 O75 O 0.24572 0.52945 0.54434
 O76 O 0.23992 0.45912 0.45293
 O77 O 0.24330 0.53213 0.45638
 O78 O 0.24546 0.45534 0.53994
 Cu79 Cu 0.17503 0.49861 0.50328
 Cu80 Cu 0.24982 0.49374 0.49818
 C81 C 0.21477 0.44396 0.55631
 C82 C 0.21207 0.54659 0.44279
 C83 C 0.20790 0.44846 0.44000
 C84 C 0.21550 0.54440 0.56094
 O85 O 0.32604 0.95597 -0.04105
 O86 O 0.32312 1.03127 0.04564
 O87 O 0.32577 0.95761 0.04612
 O88 O 0.32183 1.03110 -0.04311
 O89 O 0.25991 1.02925 -0.04285
 O90 O 0.26347 0.95738 0.04649
 O91 O 0.26089 1.03081 0.04573
 O92 O 0.26426 0.95564 -0.04039
 Cu93 Cu 0.33048 0.99437 0.00148
 Cu94 Cu 0.25593 0.99359 0.00218
 C95 C 0.29585 0.94162 -0.05444
 C96 C 0.29137 1.04312 0.06133
 C97 C 0.29511 0.94455 0.06085
 C98 C 0.29000 1.04232 -0.05893
 O99 O 0.82970 0.53658 0.54295
 O100 O 0.82344 0.46121 0.45634
 O101 O 0.82741 0.53551 0.45430
 O102 O 0.82819 0.46296 0.54418
 O103 O 0.76602 0.46640 0.54600
 O104 O 0.76555 0.54165 0.45988
 O105 O 0.76117 0.46768 0.45869
 O106 O 0.76755 0.54021 0.54727
 Cu107 Cu 0.83343 0.49867 0.49885
 Cu108 Cu 0.75888 0.50451 0.50327
 C109 C 0.79946 0.55132 0.55985
 C110 C 0.79114 0.45148 0.44324
 C111 C 0.79649 0.55195 0.44272
 C112 C 0.79715 0.45144 0.55954
 C113 C 0.29214 0.32235 0.34626
 C114 C 0.32032 0.29465 0.34737
 C115 C 0.30885 0.26531 0.32006
 N116 N 0.27489 0.27451 0.30173
 C117 C 0.26470 0.30948 0.31746
 C118 C 0.32747 0.22912 0.31680
 C119 C 0.31795 0.20180 0.28416
 C120 C 0.33037 0.16400 0.28443
 C121 C 0.31599 0.14753 0.24630
 C122 C 0.29499 0.17569 0.22399
 N123 N 0.29673 0.20875 0.24697
 C124 C 0.27612 0.17066 0.18257
 C125 C 0.24873 0.19677 0.16505
 C126 C 0.23207 0.19365 0.12295
 C127 C 0.20472 0.22212 0.12045
 C128 C 0.20548 0.24167 0.16113
 N129 N 0.23226 0.22600 0.18842
 C130 C 0.17964 0.27145 0.17364
 C131 C 0.18231 0.29273 0.21391
 C132 C 0.15410 0.31722 0.23098
 C133 C 0.16817 0.33329 0.26946
 C134 C 0.20461 0.31819 0.27477
 N135 N 0.21316 0.29395 0.24040
 C136 C 0.22957 0.32852 0.30932
 H137 H 0.29184 0.34869 0.36509
 H138 H 0.34582 0.29556 0.36719
 H139 H 0.23972 0.28204 0.23289
 H140 H 0.34797 0.14974 0.30944
 H141 H 0.32039 0.11814 0.23626
 H142 H 0.23843 0.17259 0.09702
 H143 H 0.18594 0.22734 0.09223
 H144 H 0.15333 0.35398 0.29084
 H145 H 0.28714 0.23526 0.23555
 H146 H 0.12631 0.32305 0.21707
 C147 C 0.79871 0.83235 0.16367
 C148 C 0.82825 0.80602 0.16590
 C149 C 0.81472 0.77488 0.18850
 N150 N 0.77808 0.78115 0.19993
 C151 C 0.76812 0.81615 0.18462
 C152 C 0.83440 0.73960 0.19337
 C153 C 0.82203 0.71125 0.22310
 C154 C 0.83558 0.67380 0.22372
 C155 C 0.81840 0.65669 0.25993
 C156 C 0.79472 0.68417 0.28008
 N157 N 0.79731 0.71732 0.25763
 C158 C 0.77403 0.67936 0.32052
 C159 C 0.74422 0.70470 0.33423
 C160 C 0.72640 0.70433 0.37613
 C161 C 0.69763 0.73154 0.37462
 C162 C 0.69882 0.74754 0.33180
 N163 N 0.72720 0.73098 0.30712
 C164 C 0.67221 0.77480 0.31496
 C165 C 0.67642 0.79287 0.27276
 C166 C 0.64766 0.81135 0.24892
 C167 C 0.66408 0.82678 0.21104
 C168 C 0.70252 0.81796 0.21350
 N169 N 0.70968 0.79728 0.25126
 C170 C 0.73042 0.83071 0.18321
 H171 H 0.79923 0.85965 0.14698
 H172 H 0.85614 0.80899 0.15150
 H173 H 0.73616 0.79022 0.26449
 H174 H 0.85623 0.66042 0.20105
 H175 H 0.82322 0.62756 0.27066
 H176 H 0.73322 0.68614 0.40465
 H177 H 0.67778 0.73838 0.40172
 H178 H 0.64941 0.84308 0.18513
 H179 H 0.78640 0.74363 0.26855
 H180 H 0.61799 0.81346 0.25789
 C181 C 0.70254 0.32976 0.34563
 C182 C 0.67460 0.30401 0.34392
 C183 C 0.68746 0.27514 0.31512
 N184 N 0.72239 0.28231 0.29948
 C185 C 0.73164 0.31573 0.31799
 C186 C 0.66844 0.24132 0.30712
 C187 C 0.68063 0.21348 0.27513
 C188 C 0.66662 0.17738 0.27205
 C189 C 0.68474 0.15969 0.23597
 C190 C 0.70923 0.18550 0.21789
 N191 N 0.70617 0.21835 0.24159
 C192 C 0.73229 0.17874 0.17923
 C193 C 0.76143 0.20251 0.16558
 C194 C 0.78183 0.19842 0.12554
 C195 C 0.80906 0.22493 0.12652
 C196 C 0.80449 0.24427 0.16720
 N197 N 0.77549 0.23038 0.19112
 C198 C 0.82896 0.27191 0.18310
 C199 C 0.82269 0.29292 0.22336
 C200 C 0.84972 0.31369 0.24487
 C201 C 0.83239 0.33043 0.28206
 C202 C 0.79518 0.31963 0.28204
 N203 N 0.78942 0.29709 0.24586
 C204 C 0.76744 0.33179 0.31410
 H205 H 0.70189 0.35544 0.36580
 H206 H 0.64818 0.30598 0.36253
 H207 H 0.76354 0.28815 0.23465
 H208 H 0.64544 0.16506 0.29344
 H209 H 0.68026 0.13112 0.22428
 H210 H 0.77784 0.17809 0.09868
 H211 H 0.83027 0.22901 0.10061
 H212 H 0.84569 0.34854 0.30631
 H213 H 0.71790 0.24381 0.23261
 H214 H 0.87895 0.31633 0.23495
 C215 C 0.28678 0.68001 0.36572
 C216 C 0.31422 0.70628 0.36684
 C217 C 0.30463 0.73348 0.33464
 N218 N 0.27192 0.72499 0.31444
 C219 C 0.26115 0.69205 0.33300
 C220 C 0.32514 0.76635 0.32620
 C221 C 0.31707 0.79236 0.29086
 C222 C 0.33312 0.82744 0.28634
 C223 C 0.31932 0.84328 0.24700
 C224 C 0.29518 0.81748 0.22861
 N225 N 0.29436 0.78636 0.25524
 C226 C 0.27615 0.82248 0.18709
 C227 C 0.24667 0.79971 0.17241
 C228 C 0.22903 0.80327 0.13081
 C229 C 0.20052 0.77815 0.13086
 C230 C 0.20175 0.75990 0.17240
 N231 N 0.22976 0.77336 0.19785
 C232 C 0.17564 0.73314 0.18697
 C233 C 0.17907 0.71193 0.22745
 C234 C 0.15152 0.68902 0.24476
 C235 C 0.16630 0.67193 0.28292
 C236 C 0.20232 0.68519 0.28814
 N237 N 0.21002 0.70913 0.25389
 C238 C 0.22774 0.67333 0.32241
 H239 H 0.28568 0.65510 0.38701
 H240 H 0.33837 0.70549 0.38906
 H241 H 0.23627 0.71945 0.24626
 H242 H 0.35291 0.84024 0.30889
 H243 H 0.32640 0.87062 0.23340
 H244 H 0.23562 0.82238 0.10347
 H245 H 0.18090 0.77406 0.10356
 H246 H 0.15212 0.65193 0.30426
 H247 H 0.28237 0.76094 0.24703
 H248 H 0.12379 0.68467 0.23105
 C249 C 0.81421 0.20928 0.86058
 C250 C 0.78712 0.18262 0.85911
 C251 C 0.76121 0.19478 0.82677
 N252 N 0.77145 0.22811 0.80875
 C253 C 0.80407 0.23683 0.82900
 C254 C 0.72791 0.17592 0.81616
 C255 C 0.70300 0.18715 0.78107
 C256 C 0.66722 0.17346 0.77531
 C257 C 0.65293 0.18982 0.73647
 C258 C 0.68045 0.21290 0.71938
 N259 N 0.71101 0.21075 0.74654
 C260 C 0.67727 0.23384 0.67863
 C261 C 0.70289 0.26140 0.66486
 C262 C 0.70203 0.27974 0.62337
 C263 C 0.72962 0.30591 0.62441
 C264 C 0.74627 0.30293 0.66664
 N265 N 0.72973 0.27585 0.69134
 C266 C 0.77452 0.32673 0.68251
 C267 C 0.79292 0.32194 0.72451
 C268 C 0.81587 0.34835 0.74389
 C269 C 0.82987 0.33238 0.78309
 C270 C 0.81507 0.29665 0.78657
 N271 N 0.79290 0.29040 0.75051
 C272 C 0.82391 0.27026 0.82127
 H273 H 0.83847 0.20856 0.88263
 H274 H 0.78644 0.15734 0.87981
 H275 H 0.78198 0.26462 0.74155
 H276 H 0.65293 0.15362 0.79676
 H277 H 0.62548 0.18498 0.72226
 H278 H 0.68324 0.27502 0.59539
 H279 H 0.73628 0.32530 0.59737
 H280 H 0.84898 0.34551 0.80621
 H281 H 0.73723 0.22139 0.73937
 H282 H 0.82215 0.37614 0.73096
 C283 C 0.30183 0.66732 0.65500
 C284 C 0.32912 0.69379 0.65568
 C285 C 0.31751 0.72101 0.68725
 N286 N 0.28398 0.71213 0.70569
 C287 C 0.27446 0.67915 0.68628
 C288 C 0.33631 0.75487 0.69571
 C289 C 0.32488 0.78148 0.72935
 C290 C 0.33759 0.81810 0.73246
 C291 C 0.32135 0.83402 0.77075
 C292 C 0.29950 0.80655 0.79026
 N293 N 0.30197 0.77456 0.76494
 C294 C 0.28016 0.81064 0.83213
 C295 C 0.25226 0.78568 0.84663
 C296 C 0.23469 0.78688 0.88872
 C297 C 0.20675 0.76106 0.88744
 C298 C 0.20848 0.74464 0.84480
 N299 N 0.23620 0.75981 0.81990
 C300 C 0.18212 0.71924 0.82800
 C301 C 0.18734 0.69860 0.78722
 C302 C 0.15974 0.67805 0.76646
 C303 C 0.17614 0.66141 0.72864
 C304 C 0.21322 0.67255 0.72708
 N305 N 0.21999 0.69466 0.76334
 C306 C 0.23983 0.66141 0.69321
 H307 H 0.30182 0.64262 0.63321
 H308 H 0.35420 0.69343 0.63454
 H309 H 0.24619 0.70371 0.77331
 H310 H 0.35679 0.83189 0.70972
 H311 H 0.32567 0.86240 0.78319
 H312 H 0.24077 0.80508 0.91705
 H313 H 0.18698 0.75545 0.91449
 H314 H 0.16220 0.64342 0.70483
 H315 H 0.29231 0.74822 0.77423
 H316 H 0.13077 0.67526 0.77741
 C317 C 0.20455 0.22826 0.88122
 C318 C 0.23226 0.19996 0.88240
 C319 C 0.24983 0.19971 0.84035
 N320 N 0.23357 0.22654 0.81341
 C321 C 0.20583 0.24402 0.83827
 C322 C 0.27744 0.17227 0.82583
 C323 C 0.29922 0.17604 0.78593
 C324 C 0.32248 0.14753 0.76715
 C325 C 0.33958 0.16286 0.72983
 C326 C 0.32590 0.20016 0.72650
 N327 N 0.30188 0.20816 0.76130
 C328 C 0.33667 0.22612 0.69280
 C329 C 0.31710 0.26116 0.68489
 C330 C 0.32933 0.28929 0.65611
 C331 C 0.30083 0.31666 0.65443
 C332 C 0.27180 0.30406 0.68151
 N333 N 0.28185 0.27019 0.70018
 C334 C 0.23518 0.32142 0.68425
 C335 C 0.20821 0.31095 0.71692
 C336 C 0.17021 0.32190 0.71638
 C337 C 0.15438 0.30772 0.75523
 C338 C 0.18314 0.28835 0.77822
 N339 N 0.21587 0.29068 0.75483
 C340 C 0.17927 0.27126 0.82116
 H341 H 0.18504 0.23569 0.90847
 H342 H 0.23836 0.18122 0.91064
 H343 H 0.24256 0.28262 0.76662
 H344 H 0.32685 0.11870 0.77916
 H345 H 0.35965 0.14810 0.70761
 H346 H 0.35566 0.28983 0.63743
 H347 H 0.30102 0.34231 0.63433
 H348 H 0.12509 0.31145 0.76554
 H349 H 0.29067 0.23489 0.76998
 H350 H 0.15547 0.33863 0.69087
 C351 C 0.70470 0.72304 0.62951
 C352 C 0.73387 0.69637 0.63028
 C353 C 0.74989 0.69826 0.67286
 N354 N 0.73123 0.72497 0.69818
 C355 C 0.70374 0.74033 0.67168
 C356 C 0.77992 0.67402 0.68809
 C357 C 0.79902 0.67861 0.72950
 C358 C 0.82587 0.65293 0.74663
 C359 C 0.83906 0.66844 0.78591
 C360 C 0.81961 0.70305 0.79209
 N361 N 0.79576 0.70922 0.75711
 C362 C 0.82540 0.72838 0.82848
 C363 C 0.80181 0.76088 0.83823
 C364 C 0.80840 0.78687 0.87230
 C365 C 0.77930 0.81359 0.87115
 C366 C 0.75552 0.80299 0.83677
 N367 N 0.76910 0.77052 0.81707
 C368 C 0.72124 0.82267 0.82564
 C369 C 0.69756 0.81252 0.78974
 C370 C 0.66099 0.82695 0.78361
 C371 C 0.64822 0.81141 0.74412
 C372 C 0.67741 0.78805 0.72715
 N373 N 0.70745 0.78919 0.75497
 C374 C 0.67638 0.76829 0.68557
 H375 H 0.68615 0.72883 0.60121
 H376 H 0.74221 0.67761 0.60263
 H377 H 0.73445 0.77834 0.74795
 H378 H 0.83538 0.62600 0.73203
 H379 H 0.86061 0.65561 0.80737
 H380 H 0.83166 0.78670 0.89581
 H381 H 0.77596 0.83794 0.89334
 H382 H 0.62072 0.81702 0.72935
 H383 H 0.78102 0.73443 0.75013
 H384 H 0.64517 0.84674 0.80523
 C385 C 0.26379 0.07137 0.13418
 C386 C 0.28978 0.07229 0.09736
 C387 C 0.31365 0.10289 0.09331
 C388 C 0.31027 0.13363 0.12285
 C389 C 0.28293 0.13463 0.15723
 C390 C 0.25996 0.10314 0.16388
 C391 C 0.24188 0.03947 0.14265
 C392 C 0.21587 0.03957 0.17830
 C393 C 0.21128 0.07119 0.20633
 C394 C 0.23312 0.10272 0.19940
 H395 H 0.24505 0.01391 0.12257
 H396 H 0.19927 0.01491 0.18429
 H397 H 0.19098 0.07112 0.23389
 H398 H 0.22911 0.12651 0.22236
 H399 H 0.33392 0.10385 0.06573
 H400 H 0.32791 0.15768 0.11758
 C401 C 0.82443 0.61285 0.59300
 C402 C 0.80038 0.58142 0.59499
 C403 C 0.77348 0.57987 0.62998
 C404 C 0.76884 0.60910 0.66134
 C405 C 0.79092 0.64097 0.65887
 C406 C 0.81959 0.64276 0.62545
 C407 C 0.85202 0.61642 0.55867
 C408 C 0.87465 0.64789 0.55702
 C409 C 0.87005 0.67671 0.58899
 C410 C 0.84268 0.67439 0.62281
 H411 H 0.85655 0.59538 0.53265
 H412 H 0.89582 0.65000 0.53068
 H413 H 0.88765 0.70109 0.58740
 H414 H 0.83978 0.69753 0.64685
 H415 H 0.75500 0.55617 0.63234
 H416 H 0.74673 0.60759 0.68673
 C417 C 0.72835 0.88223 0.06920
 C418 C 0.71312 0.91849 0.08296
 C419 C 0.69876 0.92312 0.12707
 C420 C 0.70379 0.89433 0.15909
 C421 C 0.72012 0.85884 0.14692
 C422 C 0.72958 0.85175 0.10080
 C423 C 0.74014 0.87476 0.02406
 C424 C 0.75160 0.83826 0.01026
 C425 C 0.75130 0.80831 0.04076
 C426 C 0.74022 0.81480 0.08550
 H427 H 0.73954 0.89655 -0.00152
 H428 H 0.75998 0.83304 -0.02455
 H429 H 0.75953 0.77987 0.02965
 H430 H 0.73962 0.79053 0.10785
 H431 H 0.68652 0.95032 0.13799
 H432 H 0.69588 0.90018 0.19395
 C433 C 0.22359 0.37376 0.57144
 C434 C 0.21616 0.41128 0.58736
 C435 C 0.21179 0.41795 0.63382
 C436 C 0.21658 0.38831 0.66477
 C437 C 0.22450 0.35100 0.64996
 C438 C 0.22599 0.34321 0.60283
 C439 C 0.22901 0.36592 0.52496
 C440 C 0.23466 0.32869 0.50954
 C441 C 0.23489 0.29864 0.54005
 C442 C 0.23062 0.30568 0.58627
 H443 H 0.22892 0.38842 0.50021
 H444 H 0.23846 0.32313 0.47371
 H445 H 0.23863 0.26976 0.52792
 H446 H 0.23100 0.28153 0.60888
 H447 H 0.20631 0.44657 0.64631
 H448 H 0.21524 0.39468 0.70063
 C449 C 0.92790 0.25608 0.13193
 C450 C 0.92644 0.28443 0.09774
 C451 C 0.89549 0.31046 0.09648
 C452 C 0.86485 0.30688 0.12565
 C453 C 0.86437 0.27734 0.15713
 C454 C 0.89629 0.25220 0.16140
 C455 C 0.96021 0.23192 0.13818
 C456 C 0.96069 0.20375 0.17132
 C457 C 0.92930 0.19927 0.19910
 C458 C 0.89738 0.22331 0.19445
 H459 H 0.98569 0.23501 0.11845
 H460 H 0.98564 0.18544 0.17564
 H461 H 0.92986 0.17735 0.22475
 H462 H 0.87382 0.21936 0.21725
 H463 H 0.89415 0.33277 0.07133
 H464 H 0.84064 0.32642 0.12248
 C465 C 0.43509 0.75366 0.64224
 C466 C 0.42746 0.77612 0.60331
 C467 C 0.39154 0.79343 0.59784
 C468 C 0.36260 0.78690 0.62858
 C469 C 0.36900 0.76354 0.66622
 C470 C 0.40558 0.74737 0.67398
 C471 C 0.47154 0.73780 0.65072
 C472 C 0.47854 0.71575 0.68914
 C473 C 0.44954 0.70922 0.71985
 C474 C 0.41335 0.72487 0.71254
 H475 H 0.49499 0.74271 0.62819
 H476 H 0.50666 0.70382 0.69521
 H477 H 0.45516 0.69211 0.74963
 H478 H 0.39163 0.71943 0.73739
 H479 H 0.38537 0.81093 0.56857
 H480 H 0.33472 0.79951 0.62252
 C481 C 0.07865 0.75065 0.13309
 C482 C 0.08131 0.72349 0.09742
 C483 C 0.11290 0.69832 0.09486
 C484 C 0.14260 0.70098 0.12509
 C485 C 0.14149 0.72877 0.15890
 C486 C 0.10920 0.75341 0.16380
 C487 C 0.04613 0.77463 0.13969
 C488 C 0.04424 0.80109 0.17483
 C489 C 0.07449 0.80427 0.20410
 C490 C 0.10671 0.78070 0.19882
 H491 H 0.02149 0.77283 0.11869
 H492 H 0.01906 0.81912 0.17948
 H493 H 0.07284 0.82489 0.23129
 H494 H 0.12943 0.78375 0.22266
 H495 H 0.11525 0.67723 0.06817
 H496 H 0.16720 0.68198 0.12126
 C497 C 0.57836 0.24683 0.62817
 C498 C 0.58199 0.22158 0.59066
 C499 C 0.61530 0.19919 0.58518
 C500 C 0.64553 0.20285 0.61455
 C501 C 0.64333 0.22901 0.65021
 C502 C 0.60953 0.25096 0.65767
 C503 C 0.54424 0.26753 0.63775
 C504 C 0.54146 0.29263 0.67422
 C505 C 0.57235 0.29751 0.70207
 C506 C 0.60609 0.27686 0.69411
 H507 H 0.51918 0.26414 0.61789
 H508 H 0.51512 0.30829 0.68100
 H509 H 0.57004 0.31710 0.73029
 H510 H 0.62927 0.28114 0.71694
 H511 H 0.61844 0.17961 0.55698
 H512 H 0.67125 0.18584 0.60877
 C513 C 0.72943 0.07429 0.86133
 C514 C 0.70994 0.08033 0.90302
 C515 C 0.69347 0.11624 0.91274
 C516 C 0.69826 0.14665 0.88338
 C517 C 0.71916 0.14180 0.84325
 C518 C 0.73408 0.10530 0.83125
 C519 C 0.74427 0.03802 0.84872
 C520 C 0.76370 0.03258 0.80787
 C521 C 0.76869 0.06305 0.77880
 C522 C 0.75407 0.09913 0.79022
 H523 H 0.74063 0.01354 0.86999
 H524 H 0.77487 0.00456 0.79870
 H525 H 0.78383 0.05867 0.74715
 H526 H 0.75835 0.12203 0.76658
 H527 H 0.67853 0.12127 0.94445
 H528 H 0.68674 0.17452 0.89275
 C529 C 0.23508 0.57194 0.36767
 C530 C 0.21239 0.57615 0.40733
 C531 C 0.19174 0.61034 0.41487
 C532 C 0.19580 0.64124 0.38610
 C533 C 0.21977 0.63838 0.34829
 C534 C 0.23862 0.60329 0.33786
 C535 C 0.25407 0.53714 0.35664
 C536 C 0.27631 0.53350 0.31764
 C537 C 0.28005 0.56431 0.28879
 C538 C 0.26141 0.59894 0.29864
 H539 H 0.25158 0.51237 0.37764
 H540 H 0.29062 0.50657 0.30970
 H541 H 0.29732 0.56133 0.25854
 H542 H 0.26477 0.62213 0.27514
 H543 H 0.17375 0.61382 0.44442
 H544 H 0.18112 0.66797 0.39415
 C545 C 0.32762 0.88321 0.90902
 C546 C 0.29623 0.90993 0.91576
 C547 C 0.26212 0.90313 0.89343
 C548 C 0.25806 0.87164 0.86611
 C549 C 0.28739 0.84449 0.86074
 C550 C 0.32241 0.84990 0.88214
 C551 C 0.36343 0.88695 0.92949
 C552 C 0.39238 0.85937 0.92389
 C553 C 0.38668 0.82702 0.89853
 C554 C 0.35208 0.82211 0.87804
 H555 H 0.37052 0.91043 0.95041
 H556 H 0.41937 0.86294 0.93993
 H557 H 0.40917 0.80552 0.89487
 H558 H 0.34880 0.79614 0.85919
 H559 H 0.23785 0.92268 0.89663
 H560 H 0.23129 0.86802 0.84948
 C561 C 0.78690 0.38166 0.42620
 C562 C 0.78805 0.41977 0.41116
 C563 C 0.78434 0.42793 0.36504
 C564 C 0.77880 0.39900 0.33382
 C565 C 0.77718 0.36114 0.34792
 C566 C 0.78228 0.35203 0.39425
 C567 C 0.78955 0.37241 0.47251
 C568 C 0.78888 0.33479 0.48694
 C569 C 0.78564 0.30569 0.45554
 C570 C 0.78237 0.31407 0.40959
 H571 H 0.79190 0.39419 0.49781
 H572 H 0.79098 0.32817 0.52263
 H573 H 0.78543 0.27649 0.46686
 H574 H 0.77992 0.29061 0.38629
 H575 H 0.78489 0.45702 0.35328
 H576 H 0.77490 0.40623 0.29850
 C577 C 0.10306 0.32195 0.89601
 C578 C 0.07913 0.29053 0.90452
 C579 C 0.08775 0.25593 0.88191
 C580 C 0.11916 0.25102 0.85407
 C581 C 0.14430 0.28000 0.84821
 C582 C 0.13642 0.31581 0.86870
 C583 C 0.09640 0.35878 0.91477
 C584 C 0.12169 0.38756 0.90799
 C585 C 0.15438 0.38083 0.88272
 C586 C 0.16182 0.34540 0.86329
 H587 H 0.07200 0.36705 0.93461
 H588 H 0.11595 0.41533 0.92279
 H589 H 0.17406 0.40324 0.87805
 H590 H 0.18779 0.34145 0.84412
 H591 H 0.07014 0.23171 0.88599
 H592 H 0.12464 0.22369 0.83797
 C593 C 0.60515 0.82114 0.40314
 C594 C 0.57757 0.79268 0.40581
 C595 C 0.57998 0.76216 0.37513
 C596 C 0.60964 0.75799 0.34434
 C597 C 0.63808 0.78420 0.34293
 C598 C 0.63565 0.81654 0.37140
 C599 C 0.60442 0.85329 0.43194
 C600 C 0.63239 0.87994 0.42927
 C601 C 0.66195 0.87520 0.39841
 C602 C 0.66378 0.84379 0.36982
 H603 H 0.58267 0.85885 0.45680
 H604 H 0.63114 0.90444 0.45143
 H605 H 0.68364 0.89594 0.39670
 H606 H 0.68741 0.84111 0.34649
 H607 H 0.55922 0.74041 0.37591
 H608 H 0.61129 0.73318 0.32260
 C609 C 0.88981 0.68974 0.92367
 C610 C 0.92056 0.71453 0.91850
 C611 C 0.91908 0.74171 0.88369
 C612 C 0.88916 0.74412 0.85370
 C613 C 0.85849 0.72076 0.85848
 C614 C 0.85849 0.69331 0.89349
 C615 C 0.88746 0.66390 0.96022
 C616 C 0.85636 0.64125 0.96548
 C617 C 0.82647 0.64429 0.93540
 C618 C 0.82721 0.67029 0.90002
 H619 H 0.90865 0.66135 0.98609
 H620 H 0.85520 0.62162 0.99357
 H621 H 0.80228 0.62684 0.93996
 H622 H 0.80292 0.67238 0.87808
 H623 H 0.94183 0.76105 0.87895
 H624 H 0.88925 0.76543 0.82729
 C625 C 0.37977 0.21978 0.42928
 C626 C 0.41735 0.21408 0.41324
 C627 C 0.42422 0.20975 0.36678
 C628 C 0.39464 0.21302 0.33595
 C629 C 0.35724 0.21921 0.35090
 C630 C 0.34940 0.22035 0.39808
 C631 C 0.37167 0.22539 0.47569
 C632 C 0.33447 0.22933 0.49126
 C633 C 0.30471 0.22755 0.46099
 C634 C 0.31196 0.22315 0.41482
 H635 H 0.39395 0.22680 0.50026
 H636 H 0.32871 0.23333 0.52702
 H637 H 0.27588 0.22991 0.47326
 H638 H 0.28805 0.22204 0.39236
 H639 H 0.45288 0.20567 0.35416
 H640 H 0.40107 0.21200 0.30006
 C641 C 0.68324 0.88604 0.92258
 C642 C 0.69946 0.92078 0.90986
 C643 C 0.71887 0.92294 0.86853
 C644 C 0.72361 0.89138 0.84056
 C645 C 0.70976 0.85640 0.85346
 C646 C 0.68881 0.85351 0.89419
 C647 C 0.66340 0.88215 0.96387
 C648 C 0.64940 0.84728 0.97666
 C649 C 0.65483 0.81566 0.94880
 C650 C 0.67436 0.81859 0.90792
 H651 H 0.65896 0.90555 0.98712
 H652 H 0.63450 0.84474 1.00856
 H653 H 0.64399 0.78867 0.95901
 H654 H 0.67813 0.79333 0.88725
 H655 H 0.73176 0.94896 0.85851
 H656 H 0.73987 0.89375 0.80956
 C657 C 0.18755 0.38463 0.41015
 C658 C 0.20667 0.41903 0.40444
 C659 C 0.22907 0.42391 0.36577
 C660 C 0.23398 0.39523 0.33378
 C661 C 0.21787 0.36012 0.34034
 C662 C 0.19393 0.35464 0.37822
 C663 C 0.16374 0.37843 0.44780
 C664 C 0.14701 0.34365 0.45395
 C665 C 0.15376 0.31428 0.42311
 C666 C 0.17707 0.31953 0.38564
 H667 H 0.15822 0.39985 0.47336
 H668 H 0.12907 0.33931 0.48315
 H669 H 0.14097 0.28724 0.42833
 H670 H 0.18171 0.29590 0.36261
 H671 H 0.24391 0.44978 0.36082
 H672 H 0.25234 0.39964 0.30493
 C673 C 0.25635 0.07543 0.87743
 C674 C 0.28787 0.07048 0.90709
 C675 C 0.31698 0.09645 0.90437
 C676 C 0.31338 0.12885 0.87755
 C677 C 0.28104 0.13606 0.85172
 C678 C 0.25273 0.10884 0.85033
 C679 C 0.22947 0.04711 0.87177
 C680 C 0.19871 0.05281 0.84312
 C681 C 0.19441 0.08621 0.81847
 C682 C 0.22130 0.11381 0.82147
 H683 H 0.23246 0.01959 0.88762
 H684 H 0.17842 0.03088 0.83947
 H685 H 0.17060 0.09036 0.79604
 H686 H 0.21752 0.13868 0.80032
 H687 H 0.34178 0.09316 0.92544
 H688 H 0.33559 0.14911 0.87793
 C689 C 0.82328 0.61156 0.40543
 C690 C 0.79546 0.58341 0.40899
 C691 C 0.76326 0.58676 0.38165
 C692 C 0.75748 0.61728 0.35247
 C693 C 0.78350 0.64592 0.34967
 C694 C 0.81687 0.64317 0.37575
 C695 C 0.85670 0.61017 0.43140
 C696 C 0.88286 0.63856 0.42799
 C697 C 0.87626 0.66933 0.39944
 C698 C 0.84354 0.67187 0.37374
 H699 H 0.86356 0.58759 0.45461
 H700 H 0.90839 0.63675 0.44788
 H701 H 0.89654 0.69144 0.39731
 H702 H 0.83938 0.69660 0.35243
 H703 H 0.74184 0.56570 0.38334
 H704 H 0.73194 0.61906 0.33254
 C705 C 0.08405 0.74608 0.87658
 C706 C 0.07941 0.71514 0.90714
 C707 C 0.10575 0.68417 0.90525
 C708 C 0.13829 0.68551 0.87864
 C709 C 0.14529 0.71742 0.85235
 C710 C 0.11766 0.74747 0.84989
 C711 C 0.05538 0.77466 0.86983
 C712 C 0.06092 0.80497 0.84057
 C713 C 0.09457 0.80717 0.81647
 C714 C 0.12256 0.77857 0.82057
 H715 H 0.02779 0.77336 0.88534
 H716 H 0.03873 0.82661 0.83609
 H717 H 0.09864 0.83069 0.79365
 H718 H 0.14771 0.78075 0.79990
 H719 H 0.10269 0.65969 0.92695
 H720 H 0.15893 0.66202 0.87986
 C721 C 0.56903 0.24400 0.35939
 C722 C 0.57659 0.22354 0.39984
 C723 C 0.61267 0.20710 0.40692
 C724 C 0.64172 0.21230 0.37589
 C725 C 0.63539 0.23359 0.33653
 C726 C 0.59874 0.24905 0.32746
 C727 C 0.53250 0.25905 0.34955
 C728 C 0.52564 0.27916 0.30962
 C729 C 0.55484 0.28454 0.27877
 C730 C 0.59110 0.26963 0.28743
 H731 H 0.50887 0.25504 0.37220
 H732 H 0.49749 0.29052 0.30250
 H733 H 0.54931 0.30017 0.24785
 H734 H 0.61299 0.27411 0.26247
 H735 H 0.61878 0.19128 0.43762
 H736 H 0.66968 0.20038 0.38309
 C737 C 0.87999 0.30272 0.92376
 C738 C 0.91631 0.28721 0.91193
 C739 C 0.92153 0.26807 0.87067
 C740 C 0.89156 0.26401 0.84114
 C741 C 0.85537 0.27849 0.85233
 C742 C 0.84927 0.29829 0.89362
 C743 C 0.87309 0.32123 0.96557
 C744 C 0.83703 0.33556 0.97703
 C745 C 0.80717 0.33164 0.94728
 C746 C 0.81307 0.31313 0.90595
 H747 H 0.89527 0.32458 0.98990
 H748 H 0.83221 0.34967 1.00923
 H749 H 0.77925 0.34282 0.95637
 H750 H 0.78909 0.31043 0.88388
 H751 H 0.94905 0.25579 0.86146
 H752 H 0.89637 0.24860 0.80974
 C753 C 0.38097 0.80156 0.42741
 C754 C 0.41671 0.78342 0.41795
 C755 C 0.42162 0.76166 0.37848
 C756 C 0.39201 0.75753 0.34849
 C757 C 0.35643 0.77453 0.35744
 C758 C 0.35059 0.79693 0.39684
 C759 C 0.37417 0.82300 0.46727
 C760 C 0.33865 0.83982 0.47636
 C761 C 0.30915 0.83555 0.44623
 C762 C 0.31489 0.81425 0.40684
 H763 H 0.39591 0.82683 0.49199
 H764 H 0.33395 0.85615 0.50708
 H765 H 0.28163 0.84864 0.45352
 H766 H 0.29117 0.81138 0.38443
 H767 H 0.44865 0.74753 0.37093
 H768 H 0.39659 0.74016 0.31853
 C769 C 0.31753 0.87954 0.08994
 C770 C 0.29552 0.91393 0.09493
 C771 C 0.27029 0.91815 0.13151
 C772 C 0.26583 0.88892 0.16234
 C773 C 0.28646 0.85453 0.15754
 C774 C 0.31314 0.84976 0.12192
 C775 C 0.34241 0.87314 0.05287
 C776 C 0.36322 0.83890 0.04835
 C777 C 0.35947 0.81024 0.08021
 C778 C 0.33455 0.81541 0.11660
 H779 H 0.34584 0.89407 0.02675
 H780 H 0.38226 0.83451 0.01986
 H781 H 0.37568 0.78373 0.07648
 H782 H 0.33210 0.79229 0.14040
 H783 H 0.25308 0.94404 0.13560
 H784 H 0.24513 0.89260 0.18933
 C785 C 0.82157 0.38740 0.59212
 C786 C 0.79635 0.42005 0.59308
 C787 C 0.76686 0.42178 0.62511
 C788 C 0.76113 0.39197 0.65476
 C789 C 0.78469 0.35930 0.65355
 C790 C 0.81555 0.35694 0.62289
 C791 C 0.85152 0.38309 0.56030
 C792 C 0.87508 0.35045 0.55960
 C793 C 0.86937 0.32122 0.59010
 C794 C 0.83983 0.32422 0.62136
 H795 H 0.85697 0.40396 0.53478
 H796 H 0.89776 0.34770 0.53492
 H797 H 0.88771 0.29592 0.58924
 H798 H 0.83610 0.30062 0.64414
 H799 H 0.74741 0.44627 0.62663
 H800 H 0.73743 0.39393 0.67815
 C801 C 0.74534 0.07860 0.12908
 C802 C 0.71842 0.08123 0.09372
 C803 C 0.69508 0.11415 0.08994
 C804 C 0.69925 0.14492 0.11875
 C805 C 0.72688 0.14377 0.15224
 C806 C 0.74989 0.11038 0.15816
 C807 C 0.76725 0.04492 0.13703
 C808 C 0.79390 0.04317 0.17153
 C809 C 0.79903 0.07460 0.19902
 C810 C 0.77717 0.10790 0.19268
 H811 H 0.76359 0.01941 0.11751
 H812 H 0.81052 0.01719 0.17713
 H813 H 0.81974 0.07303 0.22574
 H814 H 0.78157 0.13149 0.21526
 H815 H 0.67420 0.11660 0.06340
 H816 H 0.68147 0.17033 0.11409
 C817 C 0.20262 0.61192 0.58806
 C818 C 0.21799 0.57462 0.59523
 C819 C 0.23832 0.56646 0.63472
 C820 C 0.24374 0.59452 0.66698
 C821 C 0.22962 0.63171 0.66020
 C822 C 0.20875 0.64075 0.62070
 C823 C 0.18254 0.62165 0.54837
 C824 C 0.16862 0.65871 0.54122
 C825 C 0.17456 0.68681 0.57319
 C826 C 0.19451 0.67809 0.61255
 H827 H 0.17757 0.60091 0.52245
 H828 H 0.15329 0.66568 0.51059
 H829 H 0.16379 0.71555 0.56738
 H830 H 0.19871 0.70082 0.63641
 H831 H 0.25039 0.53815 0.64041
 H832 H 0.26006 0.58750 0.69688
 C833 C 0.93441 0.72024 0.14550
 C834 C 0.92598 0.71955 0.09877
 C835 C 0.88852 0.72335 0.08460
 C836 C 0.85937 0.72861 0.11596
 C837 C 0.86690 0.73098 0.16237
 C838 C 0.90466 0.72664 0.17764
 C839 C 0.97185 0.71545 0.16091
 C840 C 0.97993 0.71784 0.20692
 C841 C 0.95096 0.72495 0.23828
 C842 C 0.91363 0.72937 0.22395
 H843 H 0.99506 0.70975 0.13758
 H844 H 1.00883 0.71434 0.21826
 H845 H 0.95745 0.72702 0.27391
 H846 H 0.89200 0.73504 0.24936
 H847 H 0.88186 0.72288 0.04886
 H848 H 0.83063 0.73186 0.10388
 C849 C 0.39331 0.18585 0.59138
 C850 C 0.42695 0.20599 0.59670
 C851 C 0.43150 0.22818 0.63549
 C852 C 0.40296 0.23210 0.66786
 C853 C 0.36837 0.21520 0.66154
 C854 C 0.36337 0.19141 0.62350
 C855 C 0.38784 0.16176 0.55393
 C856 C 0.35369 0.14415 0.54798
 C857 C 0.32422 0.15039 0.57876
 C858 C 0.32881 0.17388 0.61610
 H859 H 0.40937 0.15666 0.52839
 H860 H 0.34988 0.12602 0.51891
 H861 H 0.29762 0.13702 0.57362
 H862 H 0.30510 0.17809 0.63906
 H863 H 0.45703 0.24354 0.64017
 H864 H 0.40700 0.25035 0.69681
 C865 C 0.11811 0.30785 0.07563
 C866 C 0.08551 0.28650 0.08341
 C867 C 0.08427 0.26216 0.12080
 C868 C 0.11449 0.25866 0.15044
 C869 C 0.14688 0.27938 0.14356
 C870 C 0.14886 0.30452 0.10637
 C871 C 0.12168 0.33117 0.03707
 C872 C 0.15412 0.35155 0.02988
 C873 C 0.18369 0.34896 0.06057
 C874 C 0.18128 0.32558 0.09842
 H875 H 0.09994 0.33355 0.01175
 H876 H 0.15640 0.36933 0.00021
 H877 H 0.20878 0.36486 0.05479
 H878 H 0.20505 0.32397 0.12122
 H879 H 0.05974 0.24544 0.12691
 H880 H 0.11296 0.23907 0.17856
 C881 C 0.61399 0.81119 0.59169
 C882 C 0.58456 0.78482 0.59196
 C883 C 0.58559 0.75524 0.62373
 C884 C 0.61476 0.75121 0.65467
 C885 C 0.64409 0.77651 0.65483
 C886 C 0.64381 0.80703 0.62372
 C887 C 0.61562 0.84059 0.55934
 C888 C 0.64498 0.86578 0.55948
 C889 C 0.67357 0.86204 0.59131
 C890 C 0.67324 0.83286 0.62304
 H891 H 0.59480 0.84433 0.53326
 H892 H 0.64566 0.88824 0.53458
 H893 H 0.69632 0.88164 0.59114
 H894 H 0.69627 0.83062 0.64685
 H895 H 0.56372 0.73464 0.62437
 H896 H 0.61496 0.72761 0.67815
   
