data_POSCAR
  _audit_creation_date              2014-09-24
  _audit_creation_method            'ToBaCCo'
  _symmetry_space_group_name_H-M    'P1'
  _symmetry_Int_Tables_number       1
  _symmetry_cell_setting            triclinic
  loop_
  _symmetry_equiv_pos_as_xyz
 x,y,z
_cell_length_a 52.7011
_cell_length_b 52.7113
_cell_length_c 21.2315
_cell_angle_alpha 90.028600
_cell_angle_beta 89.880100
_cell_angle_gamma 120.027600
loop_
  _atom_site_label
  _atom_site_type_symbol
  _atom_site_fract_x
  _atom_site_fract_y
  _atom_site_fract_z
C1 C 0.16398 0.46583 0.49919
 C2 C 0.17902 0.46937 0.44276
 C3 C 0.20564 0.46945 0.44275
 C4 C 0.21687 0.46439 0.49899
 C5 C 0.20072 0.46004 0.55533
 C6 C 0.17496 0.46161 0.55553
 C7 C 0.24527 0.46403 0.49901
 C8 C 0.26151 0.46878 0.55522
 C9 C 0.28772 0.46808 0.55513
 C10 C 0.29895 0.46418 0.49877
 C11 C 0.28382 0.46024 0.44253
 C12 C 0.25680 0.45931 0.44270
 H13 H 0.14375 0.46658 0.49933
 H14 H 0.21744 0.47382 0.39872
 H15 H 0.20782 0.45540 0.59938
 H16 H 0.25439 0.47341 0.59930
 H17 H 0.31969 0.46447 0.49860
 H18 H 0.24517 0.45491 0.39859
 C19 C 0.53282 -0.30276 0.50432
 C20 C 0.53619 -0.28842 0.44708
 C21 C 0.53754 -0.26118 0.44582
 C22 C 0.53376 -0.24867 0.50167
 C23 C 0.52951 -0.26417 0.55887
 C24 C 0.52987 -0.29056 0.56023
 C25 C 0.53390 -0.21999 0.50021
 C26 C 0.53838 -0.20338 0.55585
 C27 C 0.53722 -0.17742 0.55473
 C28 C 0.53334 -0.16666 0.49784
 C29 C 0.52972 -0.18208 0.44211
 C30 C 0.52920 -0.20889 0.44330
 H31 H 0.53227 -0.32364 0.50531
 H32 H 0.54156 -0.25013 0.40099
 H33 H 0.52556 -0.25630 0.60269
 H34 H 0.54279 -0.21018 0.60050
 H35 H 0.53290 -0.14629 0.49699
 H36 H 0.52476 -0.22084 0.39959
 C37 C 1.30050 0.83629 0.49677
 C38 C 1.28864 0.82124 0.44066
 C39 C 1.26219 0.79451 0.44152
 C40 C 1.24634 0.78319 0.49839
 C41 C 1.25854 0.79938 0.55441
 C42 C 1.28578 0.82524 0.55362
 C43 C 1.21764 0.75468 0.49933
 C44 C 1.20645 0.73854 0.55589
 C45 C 1.17960 0.71218 0.55656
 C46 C 1.16429 0.70075 0.50053
 C47 C 1.17519 0.71581 0.44400
 C48 C 1.20115 0.74294 0.44349
 H49 H 1.32141 0.85659 0.49639
 H50 H 1.25453 0.78271 0.39764
 H51 H 1.24726 0.79230 0.59904
 H52 H 1.21843 0.74588 0.59960
 H53 H 1.14391 0.67991 0.50071
 H54 H 1.20810 0.75447 0.39915
 C55 C 0.83442 0.53454 0.49935
 C56 C 0.82331 0.53869 0.44321
 C57 C 0.79743 0.54003 0.44371
 C58 C 0.78133 0.53555 0.50025
 C59 C 0.79276 0.53060 0.55626
 C60 C 0.81944 0.53086 0.55583
 C61 C 0.75275 0.53555 0.50072
 C62 C 0.74108 0.53995 0.55727
 C63 C 0.71382 0.53860 0.55771
 C64 C 0.69864 0.53455 0.50142
 C65 C 0.71003 0.53095 0.44498
 C66 C 0.73643 0.53067 0.44467
 H67 H 0.85471 0.53394 0.49901
 H68 H 0.79024 0.54458 0.39969
 H69 H 0.78112 0.52614 0.60048
 H70 H 0.75284 0.54443 0.60125
 H71 H 0.67774 0.53395 0.50147
 H72 H 0.74365 0.52626 0.40048
 C73 C 0.46579 0.30060 0.50256
 C74 C 0.46173 0.28554 0.44611
 C75 C 0.46074 0.25849 0.44586
 C76 C 0.46556 0.24687 0.50188
 C77 C 0.47042 0.26303 0.55826
 C78 C 0.46975 0.28927 0.55868
 C79 C 0.46604 0.21852 0.50133
 C80 C 0.46223 0.20240 0.55749
 C81 C 0.46391 0.17666 0.55681
 C82 C 0.46770 0.16576 0.49985
 C83 C 0.47073 0.18079 0.44383
 C84 C 0.47072 0.20732 0.44458
 H85 H 0.46610 0.32135 0.50262
 H86 H 0.45621 0.24692 0.40162
 H87 H 0.47512 0.25580 0.60205
 H88 H 0.45790 0.20945 0.60202
 H89 H 0.46850 0.14557 0.49904
 H90 H 0.47472 0.21899 0.40057
 C91 C 0.70136 0.16455 0.49838
 C92 C 0.71320 0.18007 0.44273
 C93 C 0.73943 0.20700 0.44419
 C94 C 0.75509 0.21809 0.50130
 C95 C 0.74292 0.20137 0.55677
 C96 C 0.71589 0.17532 0.55538
 C97 C 0.78356 0.24686 0.50321
 C98 C 0.79469 0.26229 0.56058
 C99 C 0.82142 0.28877 0.56212
 C100 C 0.83662 0.30106 0.50626
 C101 C 0.82575 0.28675 0.44906
 C102 C 0.79994 0.25951 0.44756
 H103 H 0.68060 0.14412 0.49743
 H104 H 0.74699 0.21904 0.40056
 H105 H 0.75401 0.20817 0.60154
 H106 H 0.78279 0.25431 0.60432
 H107 H 0.85690 0.32198 0.50712
 H108 H 0.79307 0.24861 0.40258
 N109 N 0.96936 0.53108 0.06429
 N110 N 0.95000 0.53933 0.07733
 N111 N 1.03085 0.54467 0.10895
 N112 N 1.04996 0.55992 0.15330
 N113 N 1.03093 0.56211 0.06466
 N114 N 1.05008 0.58974 0.07787
 N115 N 0.96928 0.51359 0.10846
 N116 N 0.94990 0.50944 0.15255
 C117 C 0.93777 0.52520 0.13192
 C118 C 1.06205 0.58784 0.13270
 N119 N 1.03150 0.47211 0.06966
 N120 N 1.05216 0.46570 0.08287
 N121 N 0.96963 0.45903 0.11153
 N122 N 0.95025 0.44443 0.15608
 N123 N 0.96988 0.44095 0.06924
 N124 N 0.95068 0.41354 0.08399
 N125 N 1.03121 0.49024 0.11178
 N126 N 1.05163 0.49670 0.15462
 Mn127 Mn 1.00023 0.50186 0.11067
 C128 C 1.06468 0.48156 0.13550
 C129 C 0.93833 0.41622 0.13759
 N130 N 1.03144 0.56089 -0.07139
 N131 N 1.05202 0.58808 -0.08425
 N132 N 0.97002 0.51169 -0.11391
 N133 N 0.94938 0.50497 -0.15633
 N134 N 0.96971 0.52977 -0.07174
 N135 N 0.94881 0.53591 -0.08444
 N136 N 1.03160 0.54268 -0.11344
 N137 N 1.05224 0.55688 -0.15590
 Mn138 Mn 1.00036 0.54625 -0.00363
 C139 C 1.06496 0.58502 -0.13661
 C140 C 0.93620 0.51995 -0.13688
 N141 N 0.97002 0.43978 -0.06679
 N142 N 0.94939 0.41242 -0.07804
 N143 N 1.03175 0.48819 -0.11062
 N144 N 1.05106 0.49224 -0.15481
 N145 N 1.03171 0.47073 -0.06642
 N146 N 1.05099 0.46240 -0.07951
 N147 N 0.97018 0.45733 -0.11089
 N148 N 0.94974 0.44252 -0.15316
 Mn149 Mn 1.00078 0.45562 0.00146
 Mn150 Mn 1.00091 0.49999 -0.11272
 Cl151 Cl 1.00057 0.50093 -0.00100
 C152 C 0.93680 0.41470 -0.13167
 C153 C 1.06317 0.47647 -0.13416
 N154 N 0.46884 0.43818 0.06562
 N155 N 0.46061 0.41063 0.07917
 N156 N 0.45509 0.48633 0.10853
 N157 N 0.43968 0.49037 0.15230
 N158 N 0.43781 0.46869 0.06439
 N159 N 0.41013 0.46022 0.07713
 N160 N 0.48609 0.45579 0.10981
 N161 N 0.49010 0.44075 0.15443
 C162 C 0.47451 0.41277 0.13413
 C163 C 0.41183 0.47439 0.13149
 N164 N 0.52803 0.55939 0.06928
 N165 N 0.53610 0.58676 0.08407
 N166 N 0.54059 0.51055 0.11237
 N167 N 0.55460 0.50407 0.15502
 N168 N 0.55895 0.52872 0.07017
 N169 N 0.58606 0.53516 0.08312
 N170 N 0.50971 0.54122 0.11155
 N171 N 0.50481 0.55572 0.15609
 Mn172 Mn 0.49787 0.49849 0.11105
 C173 C 0.52099 0.58396 0.13765
 C174 C 0.58278 0.51929 0.13571
 N175 N 0.43956 0.46984 -0.07163
 N176 N 0.41244 0.46335 -0.08466
 N177 N 0.48905 0.45758 -0.11257
 N178 N 0.49584 0.44352 -0.15460
 N179 N 0.47074 0.43932 -0.07045
 N180 N 0.46451 0.41222 -0.08282
 N181 N 0.45792 0.48800 -0.11382
 N182 N 0.44389 0.49442 -0.15657
 Mn183 Mn 0.45396 0.45372 -0.00311
 C184 C 0.41570 0.47917 -0.13733
 C185 C 0.48068 0.41541 -0.13495
 N186 N 0.56072 0.52999 -0.06590
 N187 N 0.58841 0.53853 -0.07885
 N188 N 0.51219 0.54268 -0.11084
 N189 N 0.50629 0.55726 -0.15317
 N190 N 0.52944 0.56037 -0.06678
 N191 N 0.53582 0.58762 -0.07812
 N192 N 0.54342 0.51238 -0.11001
 N193 N 0.55882 0.50840 -0.15397
 Mn194 Mn 0.54457 0.54491 0.00173
 Mn195 Mn 0.50064 0.50014 -0.11231
 Cl196 Cl 0.49926 0.49931 -0.00061
 C197 C 0.58669 0.52442 -0.13333
 C198 C 0.52086 0.58509 -0.13176
 N199 N 0.43973 -0.03053 0.06846
 N200 N 0.41239 -0.05108 0.08032
 N201 N 0.48871 0.03090 0.11179
 N202 N 0.49507 0.05159 0.15393
 N203 N 0.47109 0.03121 0.06855
 N204 N 0.46490 0.05217 0.08025
 N205 N 0.45746 -0.03064 0.11168
 N206 N 0.44280 -0.05120 0.15394
 C207 C 0.41488 -0.06393 0.13334
 C208 C 0.48038 0.06481 0.13321
 N209 N 0.56085 0.03038 0.06945
 N210 N 0.58814 0.05091 0.08164
 N211 N 0.51164 -0.03117 0.11217
 N212 N 0.50514 -0.05189 0.15435
 N213 N 0.52948 -0.03139 0.06918
 N214 N 0.53566 -0.05233 0.08108
 N215 N 0.54291 0.03042 0.11241
 N216 N 0.55738 0.05091 0.15485
 Mn217 Mn 0.50018 -0.00012 0.11252
 C218 C 0.58541 0.06367 0.13463
 C219 C 0.51997 -0.06506 0.13390
 N220 N 0.47121 0.03125 -0.06753
 N221 N 0.46323 0.05068 -0.08168
 N222 N 0.45782 -0.03044 -0.11080
 N223 N 0.44295 -0.04968 -0.15527
 N224 N 0.43999 -0.03030 -0.06763
 N225 N 0.41247 -0.04943 -0.08171
 N226 N 0.48908 0.03114 -0.11067
 N227 N 0.49374 0.05048 -0.15516
 Mn228 Mn 0.45522 0.00041 0.00052
 C229 C 0.47790 0.06278 -0.13583
 C230 C 0.41484 -0.06162 -0.13586
 N231 N 0.52999 -0.03115 -0.06687
 N232 N 0.53800 -0.05059 -0.08076
 N233 N 0.54359 0.03059 -0.11006
 N234 N 0.55869 0.04992 -0.15429
 N235 N 0.56120 0.03036 -0.06661
 N236 N 0.58878 0.04952 -0.08025
 N237 N 0.51235 -0.03095 -0.11030
 N238 N 0.50786 -0.05026 -0.15473
 Mn239 Mn 0.54566 -0.00045 0.00133
 Mn240 Mn 0.50071 0.00008 -0.11095
 Cl241 Cl 0.50044 -0.00002 0.00075
 C242 C 0.52357 -0.06260 -0.13506
 C243 C 0.58669 0.06182 -0.13443
 C244 C 1.16718 0.47242 0.38824
 C245 C 1.15505 0.47448 0.34207
 C246 C 1.13892 0.47630 0.29102
 C247 C 1.12369 0.47753 0.25027
 C248 C 1.10435 0.47880 0.20618
 C249 C 1.08674 0.47994 0.17191
 C250 C 0.53672 0.69799 0.39284
 C251 C 0.53606 0.68417 0.34698
 C252 C 0.53411 0.66597 0.29622
 C253 C 0.53170 0.64895 0.25554
 C254 C 0.52824 0.62751 0.21111
 C255 C 0.52498 0.60813 0.17599
 C256 C 0.30309 -0.16688 0.38561
 C257 C 0.31696 -0.15472 0.33899
 C258 C 0.33463 -0.13853 0.28751
 C259 C 0.35099 -0.12323 0.24655
 C260 C 0.37169 -0.10378 0.20253
 C261 C 0.39068 -0.08608 0.16868
 C262 C 0.83816 0.53999 0.38518
 C263 C 0.85145 0.53979 0.33903
 C264 C 0.86795 0.53831 0.28808
 C265 C 0.88280 0.53617 0.24744
 C266 C 0.90106 0.53287 0.20335
 C267 C 0.91739 0.52955 0.16889
 C268 C 0.46023 0.29914 0.38843
 C269 C 0.46028 0.31258 0.34242
 C270 C 0.46164 0.33046 0.29148
 C271 C 0.46368 0.34731 0.25070
 C272 C 0.46690 0.36870 0.20633
 C273 C 0.47018 0.38821 0.17155
 C274 C 0.69796 0.16768 0.38452
 C275 C 0.68388 0.15534 0.33833
 C276 C 0.66591 0.13887 0.28751
 C277 C 0.64933 0.12335 0.24714
 C278 C 0.62849 0.10369 0.20367
 C279 C 0.60949 0.08589 0.17006
 C280 C 0.46319 0.16255 -0.38879
 C281 C 0.46366 0.14924 -0.34299
 C282 C 0.46538 0.13271 -0.29251
 C283 C 0.46759 0.11783 -0.25217
 C284 C 0.47085 0.09954 -0.20822
 C285 C 0.47397 0.08318 -0.17356
 C286 C 0.70096 0.53974 -0.38734
 C287 C 0.68760 0.53955 -0.34095
 C288 C 0.66972 0.53804 -0.28977
 C289 C 0.65278 0.53586 -0.24895
 C290 C 0.63122 0.53245 -0.20472
 C291 C 0.61152 0.52899 -0.17022
 C292 C 0.83320 0.30290 -0.38252
 C293 C 0.84540 0.31661 -0.33584
 C294 C 0.86172 0.33423 -0.28447
 C295 C 0.87716 0.35060 -0.24374
 C296 C 0.89675 0.37134 -0.20004
 C297 C 0.91456 0.39040 -0.16653
 C298 C 0.53839 -0.16221 -0.38802
 C299 C 0.53808 -0.14877 -0.34235
 C300 C 0.53646 -0.13223 -0.29181
 C301 C 0.53424 -0.11741 -0.25135
 C302 C 0.53090 -0.09921 -0.20730
 C303 C 0.52766 -0.08293 -0.17263
 C304 C 0.30347 0.47109 -0.38743
 C305 C 0.31779 0.47293 -0.34166
 C306 C 0.33587 0.47450 -0.29110
 C307 C 0.35243 0.47555 -0.25080
 C308 C 0.37315 0.47663 -0.20722
 C309 C 0.39196 0.47765 -0.17335
 C310 C 1.16784 0.69737 -0.38869
 C311 C 1.15572 0.68317 -0.34240
 C312 C 1.13954 0.66516 -0.29131
 C313 C 1.12424 0.64859 -0.25062
 C314 C 1.10480 0.62781 -0.20671
 C315 C 1.08710 0.60891 -0.17267
 C316 C 0.83210 0.52771 -0.38682
 C317 C 0.84446 0.52578 -0.34099
 C318 C 0.86083 0.52415 -0.29032
 C319 C 0.87630 0.52310 -0.24993
 C320 C 0.89594 0.52210 -0.20639
 C321 C 0.91382 0.52122 -0.17264
 C322 C 0.47267 0.30401 -0.38665
 C323 C 0.47460 0.31806 -0.34029
 C324 C 0.47624 0.33585 -0.28907
 C325 C 0.47730 0.35225 -0.24830
 C326 C 0.47835 0.37285 -0.20445
 C327 C 0.47930 0.39164 -0.17060
 C328 C 0.70177 0.16013 -0.38744
 C329 C 0.68800 0.14682 -0.34168
 C330 C 0.66979 0.13050 -0.29100
 C331 C 0.65267 0.11590 -0.25045
 C332 C 0.63100 0.09797 -0.20639
 C333 C 0.61131 0.08190 -0.17181
 C334 C 1.16100 0.46055 -0.38957
 C335 C 1.14797 0.46083 -0.34306
 C336 C 1.13185 0.46248 -0.29163
 C337 C 1.11732 0.46480 -0.25055
 C338 C 1.09940 0.46836 -0.20605
 C339 C 1.08331 0.47189 -0.17132
 C340 C 0.52767 0.69540 -0.38439
 C341 C 0.52631 0.68189 -0.33749
 C342 C 0.52523 0.66460 -0.28572
 C343 C 0.52450 0.64851 -0.24459
 C344 C 0.52363 0.62806 -0.20051
 C345 C 0.52263 0.60920 -0.16675
 C346 C 0.29988 -0.15992 -0.38890
 C347 C 0.31372 -0.14674 -0.34316
 C348 C 0.33201 -0.13045 -0.29262
 C349 C 0.34915 -0.11581 -0.25220
 C350 C 0.37079 -0.09783 -0.20820
 C351 C 0.39038 -0.08173 -0.17354
 C352 C 0.52689 -0.16967 0.38395
 C353 C 0.52524 -0.15736 0.33766
 C354 C 0.52390 -0.14092 0.28665
 C355 C 0.52305 -0.12535 0.24615
 C356 C 0.52219 -0.10557 0.20264
 C357 C 0.52135 -0.08757 0.16911
 C358 C 0.29733 0.45884 0.38460
 C359 C 0.31074 0.45902 0.33838
 C360 C 0.32865 0.46056 0.28732
 C361 C 0.34562 0.46280 0.24659
 C362 C 0.36723 0.46630 0.20252
 C363 C 0.38698 0.46981 0.16819
 C364 C 1.16018 0.70212 0.38641
 C365 C 1.14694 0.68862 0.34038
 C366 C 1.13066 0.67068 0.28942
 C367 C 1.11606 0.65374 0.24867
 C368 C 1.09814 0.63220 0.20444
 C369 C 1.08209 0.61255 0.16984
 C370 C 0.47342 0.16833 0.38565
 C371 C 0.47499 0.15616 0.33903
 C372 C 0.47626 0.13999 0.28742
 C373 C 0.47708 0.12465 0.24634
 C374 C 0.47795 0.10510 0.20226
 C375 C 0.47886 0.08722 0.16843
 C376 C 0.69431 0.52786 0.38752
 C377 C 0.68012 0.52593 0.34151
 C378 C 0.66224 0.52425 0.29053
 C379 C 0.64583 0.52312 0.24983
 C380 C 0.62524 0.52195 0.20587
 C381 C 0.60649 0.52087 0.17179
 C382 C 0.84067 0.30123 0.39189
 C383 C 0.85380 0.31526 0.34623
 C384 C 0.86994 0.33366 0.29566
 C385 C 0.88443 0.35085 0.25511
 C386 C 0.90226 0.37246 0.21086
 C387 C 0.91827 0.39197 0.17586
   
