data_POSCAR
  _audit_creation_date              2014-09-24
  _audit_creation_method            'ToBaCCo'
  _symmetry_space_group_name_H-M    'P1'
  _symmetry_Int_Tables_number       1
  _symmetry_cell_setting            triclinic
  loop_
  _symmetry_equiv_pos_as_xyz
 x,y,z
_cell_length_a 40.8440
_cell_length_b 41.2501
_cell_length_c 41.2536
_cell_angle_alpha 90.373500
_cell_angle_beta 89.778100
_cell_angle_gamma 89.275800
loop_
  _atom_site_label
  _atom_site_type_symbol
  _atom_site_fract_x
  _atom_site_fract_y
  _atom_site_fract_z
C1 C 0.18641 1.23024 0.18990
 C2 C 0.21428 1.21482 0.17624
 C3 C 0.22800 1.18686 0.19006
 C4 C 0.21396 1.17406 0.21819
 C5 C 0.18604 1.18856 0.23273
 C6 C 0.17292 1.21688 0.21837
 H7 H 0.22432 1.22303 0.15347
 H8 H 0.22432 1.15188 0.22775
 H9 H 0.15345 1.22992 0.23075
 C10 C 0.81414 0.77273 0.18959
 C11 C 0.78578 0.78682 0.17572
 C12 C 0.77108 0.81491 0.18898
 C13 C 0.78461 0.82904 0.21676
 C14 C 0.81267 0.81570 0.23117
 C15 C 0.82712 0.78762 0.21763
 H16 H 0.77612 0.77750 0.15320
 H17 H 0.77305 0.85038 0.22743
 H18 H 0.84832 0.77735 0.22953
 C19 C 0.81017 1.23355 -0.18430
 C20 C 0.82417 1.21943 -0.21252
 C21 C 0.81110 1.19139 -0.22671
 C22 C 0.78333 1.17736 -0.21284
 C23 C 0.76873 1.19083 -0.18496
 C24 C 0.78209 1.21886 -0.17107
 H25 H 0.84619 1.22920 -0.22304
 H26 H 0.77385 1.15511 -0.22302
 H27 H 0.76948 1.22975 -0.15055
 C28 C 0.18824 0.76433 -0.19158
 C29 C 0.17467 0.77917 -0.21932
 C30 C 0.18832 0.80717 -0.23274
 C31 C 0.21631 0.82041 -0.21857
 C32 C 0.23053 0.80621 -0.19116
 C33 C 0.21658 0.77822 -0.17801
 H34 H 0.15408 0.76846 -0.23160
 H35 H 0.22628 0.84264 -0.22810
 H36 H 0.22734 0.76832 -0.15626
 C37 C 0.54785 1.04231 -0.01330
 H38 H 0.54812 1.04206 0.01292
 C39 C 0.57017 1.06124 -0.03020
 H40 H 0.58764 1.07574 -0.01699
 C41 C 0.52544 1.02292 -0.06262
 H42 H 0.50844 1.00744 -0.07515
 C43 C 0.54740 1.04151 -0.08048
 H44 H 0.54706 1.04051 -0.10673
 N45 N 0.52599 1.02376 -0.02962
 C46 C 0.44776 1.00666 0.04014
 H47 H 0.44750 0.98044 0.03976
 C48 C 0.42499 1.02392 0.05903
 H49 H 0.40718 1.01099 0.07336
 C50 C 0.47068 1.05563 0.02123
 H51 H 0.48807 1.06790 0.00598
 C52 C 0.44831 1.07384 0.03978
 H53 H 0.44873 1.10007 0.03898
 Zn54 Zn 0.49853 0.99714 -0.00446
 N55 N 0.47011 1.02265 0.02189
 C56 C 0.52479 0.97217 0.05431
 N57 N 0.52628 0.97093 0.02134
 C58 C 0.54931 0.95248 0.00568
 C59 C 0.57195 0.93413 0.02327
 C60 C 0.54700 0.95418 0.07283
 C61 C 0.44928 0.98695 -0.04995
 C62 C 0.42725 0.96935 -0.06869
 C63 C 0.45172 0.91979 -0.04860
 C64 C 0.47334 0.93832 -0.03022
 N65 N 0.47177 0.97128 -0.03127
 H66 H 0.50689 0.98759 0.06632
 H67 H 0.55031 0.95242 -0.02053
 H68 H 0.59040 0.91977 0.01061
 H69 H 0.54593 0.95557 0.09904
 H70 H 0.44820 1.01317 -0.04985
 H71 H 0.40919 0.98202 -0.08321
 H72 H 0.45280 0.89358 -0.04734
 H73 H 0.49081 0.92632 -0.01463
 C74 C 0.42524 1.05781 0.05878
 C75 C 0.57001 1.06075 -0.06409
 C76 C 0.42839 0.93548 -0.06788
 C77 C 0.57085 0.93511 0.05714
 C78 C -0.00735 0.55083 1.04478
 H79 H 0.01913 0.55101 1.04430
 C80 C -0.02460 0.57357 1.06361
 H81 H -0.01139 0.59127 1.07780
 C82 C -0.05701 0.52820 1.02610
 H83 H -0.06954 0.51095 1.01093
 C84 C -0.07520 0.55055 1.04459
 H85 H -0.10171 0.55026 1.04383
 N86 N -0.02368 0.52867 1.02664
 C87 C 0.04704 0.45022 1.00980
 H88 H 0.04684 0.44923 0.98358
 C89 C 0.06574 0.42780 1.02720
 H90 H 0.08012 0.40953 1.01439
 C91 C 0.02762 0.47450 1.05861
 H92 H 0.01217 0.49223 1.07077
 C93 C 0.04596 0.45250 1.07695
 H94 H 0.04481 0.45355 1.10318
 Zn95 Zn 0.00182 0.50048 1.00009
 N96 N 0.02855 0.47302 1.02564
 C97 C 0.06094 0.52534 0.97361
 N98 N 0.02762 0.52696 0.97310
 C99 C 0.01149 0.54919 0.95467
 C100 C 0.02893 0.57084 0.93554
 C101 C 0.07933 0.54659 0.95482
 C102 C -0.04400 0.45167 0.99127
 C103 C -0.06322 0.42961 0.97430
 C104 C -0.04343 0.45218 0.92409
 C105 C -0.02456 0.47387 0.94200
 N106 N -0.02529 0.47330 0.97500
 H107 H 0.07331 0.50806 0.98900
 H108 H -0.01499 0.55031 0.95518
 H109 H 0.01588 0.58864 0.92115
 H110 H 0.10583 0.54542 0.95558
 H111 H -0.04365 0.45138 1.01749
 H112 H -0.07785 0.41231 0.98745
 H113 H -0.04250 0.45254 0.89784
 H114 H -0.00893 0.49066 0.92951
 C115 C 0.06507 0.42887 1.06108
 C116 C -0.05882 0.57348 1.06343
 C117 C -0.06284 0.42981 0.94041
 C118 C 0.06315 0.56959 0.93571
 C119 C 1.04655 -0.00899 0.55059
 H120 H 1.04641 0.01723 0.55158
 C121 C 1.06547 -0.02674 0.57249
 H122 H 1.08008 -0.01420 0.59036
 C123 C 1.02677 -0.05745 0.52686
 H124 H 1.01109 -0.06932 0.50955
 C125 C 1.04533 -0.07613 0.54834
 H126 H 1.04411 -0.10234 0.54732
 N127 N 1.02778 -0.02449 0.52831
 C128 C 1.00999 0.04679 0.45261
 H129 H 0.98351 0.04677 0.45224
 C130 C 1.02722 0.06556 0.43046
 H131 H 1.01400 0.08019 0.41301
 C132 C 1.05966 0.02692 0.47509
 H133 H 1.07220 0.01130 0.49203
 C134 C 1.07785 0.04534 0.45332
 H135 H 1.10435 0.04408 0.45374
 Zn136 Zn 1.00078 0.00156 0.50160
 N137 N 1.02634 0.02806 0.47441
 C138 C 0.97496 0.06015 0.52896
 N139 N 0.97407 0.02717 0.52953
 C140 C 0.95554 0.01130 0.55169
 C141 C 0.93671 0.02867 0.57432
 C142 C 0.95648 0.07846 0.55120
 C143 C 0.99096 -0.04291 0.45150
 C144 C 0.97344 -0.06130 0.42913
 C145 C 0.92313 -0.04133 0.45350
 C146 C 0.94160 -0.02330 0.47546
 N147 N 0.97491 -0.02450 0.47412
 H148 H 0.99044 0.07232 0.51173
 H149 H 0.95576 -0.01493 0.55196
 H150 H 0.92226 0.01583 0.59205
 H151 H 0.95757 0.10468 0.55084
 H152 H 1.01744 -0.04294 0.45063
 H153 H 0.98643 -0.07566 0.41102
 H154 H 0.89663 -0.04001 0.45445
 H155 H 0.92929 -0.00792 0.49306
 C156 C 1.06145 0.06474 0.43075
 C157 C 1.06473 -0.06061 0.57143
 C158 C 0.93922 -0.06040 0.43007
 C159 C 0.93729 0.06255 0.57414
 C160 C 0.12360 0.29167 1.16340
 C161 C 0.14230 0.31160 1.14356
 C162 C 0.17574 0.30523 1.13962
 C163 C 0.19042 0.27877 1.15512
 C164 C 0.17188 0.25794 1.17502
 C165 C 0.13812 0.26522 1.17900
 C166 C 0.12684 0.33795 1.12648
 C167 C 0.11342 0.35954 1.11190
 C168 C 0.09715 0.38426 1.09452
 C169 C 0.08278 0.40488 1.07941
 H170 H 0.09757 0.29621 1.16637
 H171 H 0.19052 0.32069 1.12446
 H172 H 0.21656 0.27549 1.15208
 H173 H 0.12217 0.24971 1.19278
 C174 C -0.17262 0.69646 1.14078
 C175 C -0.13900 0.69129 1.14456
 C176 C -0.12099 0.71249 1.16382
 C177 C -0.13637 0.73900 1.17900
 C178 C -0.17034 0.74506 1.17514
 C179 C -0.18816 0.72296 1.15586
 C180 C -0.12271 0.66487 1.12789
 C181 C -0.10867 0.64320 1.11361
 C182 C -0.09177 0.61837 1.09651
 C183 C -0.07696 0.59764 1.08160
 H184 H -0.18688 0.68002 1.12608
 H185 H -0.09483 0.70889 1.16666
 H186 H -0.12092 0.75546 1.19228
 H187 H -0.21439 0.72527 1.15298
 C188 C -0.14131 0.30937 0.82821
 C189 C -0.14505 0.31433 0.86154
 C190 C -0.16431 0.29325 0.87956
 C191 C -0.17945 0.26701 0.86447
 C192 C -0.17558 0.26111 0.83081
 C193 C -0.15637 0.28314 0.81296
 C194 C -0.12825 0.34036 0.87754
 C195 C -0.11381 0.36165 0.89135
 C196 C -0.09648 0.38598 0.90798
 C197 C -0.08134 0.40625 0.92256
 H198 H -0.12663 0.32574 0.81395
 H199 H -0.16711 0.29669 0.90549
 H200 H -0.19270 0.25058 0.87988
 H201 H -0.15352 0.28100 0.78697
 C202 C 0.12442 0.70511 0.83447
 C203 C 0.14285 0.68385 0.85350
 C204 C 0.17646 0.68854 0.85693
 C205 C 0.19157 0.71466 0.84178
 C206 C 0.17330 0.73686 0.82278
 C207 C 0.13936 0.73123 0.81923
 C208 C 0.12694 0.65796 0.87039
 C209 C 0.11309 0.63683 0.88487
 C210 C 0.09629 0.61275 0.90220
 C211 C 0.08145 0.59275 0.91731
 H212 H 0.09827 0.70188 0.83191
 H213 H 0.19104 0.67204 0.87145
 H214 H 0.21780 0.71661 0.84440
 H215 H 0.12361 0.74780 0.80616
 C216 C 1.12231 0.16451 0.29348
 C217 C 1.14062 0.14493 0.31431
 C218 C 1.17414 0.14048 0.30883
 C219 C 1.18927 0.15515 0.28234
 C220 C 1.17111 0.17469 0.26057
 C221 C 1.13728 0.17928 0.26698
 C222 C 1.12469 0.12853 0.34059
 C223 C 1.11090 0.11443 0.36208
 C224 C 1.09422 0.09753 0.38663
 C225 C 1.07953 0.08276 0.40705
 H226 H 1.09622 0.16787 0.29732
 H227 H 1.18862 0.12553 0.32499
 H228 H 1.21544 0.15173 0.27978
 H229 H 1.12162 0.19285 0.25076
 C230 C 1.17672 -0.14782 0.68796
 C231 C 1.14259 -0.14455 0.68687
 C232 C 1.12343 -0.15756 0.71166
 C233 C 1.13830 -0.17356 0.73758
 C234 C 1.17260 -0.17676 0.73908
 C235 C 1.19166 -0.16383 0.71390
 C236 C 1.12710 -0.12716 0.66084
 C237 C 1.11359 -0.11232 0.63954
 C238 C 1.09717 -0.09464 0.61521
 C239 C 1.08265 -0.07927 0.59496
 H240 H 1.19178 -0.13784 0.66889
 H241 H 1.09700 -0.15502 0.71114
 H242 H 1.12298 -0.18281 0.75681
 H243 H 1.21809 -0.16620 0.71422
 C244 C 0.85451 -0.17152 0.31228
 C245 C 0.85774 -0.13778 0.31288
 C246 C 0.84561 -0.11925 0.28720
 C247 C 0.83059 -0.13436 0.26085
 C248 C 0.82753 -0.16829 0.25981
 C249 C 0.83949 -0.18671 0.28592
 C250 C 0.87432 -0.12212 0.33930
 C251 C 0.88860 -0.10859 0.36092
 C252 C 0.90577 -0.09227 0.38562
 C253 C 0.92081 -0.07795 0.40619
 H254 H 0.86380 -0.18610 0.33205
 H255 H 0.84812 -0.09313 0.28734
 H256 H 0.82203 -0.11957 0.24094
 H257 H 0.83713 -0.21283 0.28599
 C258 C 0.82418 0.14786 0.69278
 C259 C 0.85831 0.14445 0.69199
 C260 C 0.87702 0.15686 0.71744
 C261 C 0.86171 0.17242 0.74370
 C262 C 0.82740 0.17579 0.74486
 C263 C 0.80879 0.16342 0.71905
 C264 C 0.87423 0.12754 0.66555
 C265 C 0.88801 0.11309 0.64387
 C266 C 0.90466 0.09583 0.61903
 C267 C 0.91930 0.08082 0.59830
 H268 H 0.80946 0.13833 0.67320
 H269 H 0.90345 0.15419 0.71717
 H270 H 0.87667 0.18117 0.76344
 H271 H 0.78236 0.16589 0.71916
 C272 C 0.28239 1.12030 0.15441
 C273 C 0.30836 1.13818 0.14186
 C274 C 0.30840 1.17194 0.14552
 C275 C 0.28243 1.18779 0.16147
 C276 C 0.25611 1.17002 0.17399
 C277 C 0.25643 1.13608 0.17036
 C278 C 0.33451 1.12183 0.12461
 C279 C 0.35597 1.10774 0.10990
 C280 C 0.38060 1.09080 0.09239
 C281 C 0.40119 1.07596 0.07720
 H282 H 0.28202 1.09418 0.15155
 H283 H 0.32839 1.18601 0.13589
 H284 H 0.28296 1.21391 0.16413
 H285 H 0.23627 1.12179 0.17924
 C286 C 0.71200 1.15622 -0.12128
 C287 C 0.68715 1.14322 -0.14045
 C288 C 0.68859 1.14626 -0.17420
 C289 C 0.71492 1.16203 -0.18874
 C290 C 0.74016 1.17497 -0.16965
 C291 C 0.73831 1.17199 -0.13574
 C292 C 0.66071 1.12610 -0.12538
 C293 C 0.63908 1.11151 -0.11218
 C294 C 0.61438 1.09413 -0.09609
 C295 C 0.59384 1.07904 -0.08180
 H296 H 0.71121 1.15386 -0.09514
 H297 H 0.66948 1.13628 -0.18927
 H298 H 0.71550 1.16423 -0.21488
 H299 H 0.75757 1.18125 -0.12042
 C300 C 0.31113 0.84951 -0.17897
 C301 C 0.31183 0.85288 -0.14520
 C302 C 0.28635 0.84044 -0.12644
 C303 C 0.26012 0.82493 -0.14134
 C304 C 0.25902 0.82164 -0.17529
 C305 C 0.28489 0.83400 -0.19395
 C306 C 0.33814 0.86986 -0.12971
 C307 C 0.35965 0.88441 -0.11627
 C308 C 0.38423 0.90182 -0.09998
 C309 C 0.40467 0.91699 -0.08561
 H310 H 0.33072 0.85906 -0.19373
 H311 H 0.28655 0.84309 -0.10029
 H312 H 0.24033 0.81619 -0.12635
 H313 H 0.28483 0.83158 -0.22011
 C314 C 0.69062 0.82583 0.14418
 C315 C 0.68917 0.85955 0.14069
 C316 C 0.71412 0.87868 0.15347
 C317 C 0.74055 0.86419 0.16946
 C318 C 0.74240 0.83030 0.17289
 C319 C 0.71707 0.81127 0.16018
 C320 C 0.66259 0.87462 0.12335
 C321 C 0.64081 0.88773 0.10856
 C322 C 0.61587 0.90366 0.09095
 C323 C 0.59507 0.91773 0.07567
 H324 H 0.67143 0.81080 0.13438
 H325 H 0.71333 0.90478 0.15076
 H326 H 0.75989 0.87946 0.17853
 H327 H 0.71766 0.78516 0.16272
   
