data_POSCAR
  _audit_creation_date              2014-09-24
  _audit_creation_method            'ToBaCCo'
  _symmetry_space_group_name_H-M    'P1'
  _symmetry_Int_Tables_number       1
  _symmetry_cell_setting            triclinic
  loop_
  _symmetry_equiv_pos_as_xyz
 x,y,z
_cell_length_a 39.0224
_cell_length_b 39.6859
_cell_length_c 39.2287
_cell_angle_alpha 90.866900
_cell_angle_beta 90.172300
_cell_angle_gamma 91.010200
loop_
  _atom_site_label
  _atom_site_type_symbol
  _atom_site_fract_x
  _atom_site_fract_y
  _atom_site_fract_z
C1 C 0.17431 0.20281 0.20292
 C2 C 0.17233 0.22415 0.17488
 C3 C 0.19752 0.22363 0.14997
 C4 C 0.22542 0.20190 0.15327
 C5 C 0.22760 0.18174 0.18150
 C6 C 0.20204 0.18220 0.20640
 C7 C 0.15244 0.19614 0.22958
 N8 N 0.16650 0.17205 0.24946
 C9 C 0.19716 0.16381 0.23539
 C10 C 0.25634 0.16280 0.17813
 N11 N 0.27233 0.17048 0.14830
 C12 C 0.25329 0.19462 0.13296
 C13 C 0.18873 0.24713 0.12601
 N14 N 0.15939 0.26207 0.13635
 C15 C 0.14913 0.24810 0.16602
 H16 H 0.12813 0.20814 0.23395
 H17 H 0.21389 0.14424 0.24410
 H18 H 0.26365 0.14356 0.19581
 H19 H 0.25890 0.20634 0.10886
 H20 H 0.20315 0.25378 0.10349
 H21 H 0.12671 0.25534 0.18038
 C22 C -0.22100 0.76624 0.27788
 C23 C -0.22130 0.73965 0.25381
 C24 C -0.24699 0.73741 0.22953
 C25 C -0.27291 0.76148 0.22911
 C26 C -0.27270 0.78736 0.25289
 C27 C -0.24653 0.78979 0.27743
 C28 C -0.19668 0.77761 0.30100
 N29 N -0.20655 0.80780 0.31471
 C30 C -0.23742 0.81498 0.30027
 C31 C -0.29793 0.80922 0.24378
 N32 N -0.31372 0.79761 0.21464
 C33 C -0.29832 0.76803 0.20589
 C34 C -0.23833 0.71226 0.20682
 N35 N -0.20800 0.69887 0.21660
 C36 C -0.19758 0.71560 0.24553
 H37 H -0.17300 0.76489 0.30603
 H38 H -0.25151 0.83794 0.30377
 H39 H -0.30250 0.83285 0.25684
 H40 H -0.30339 0.75282 0.18333
 H41 H -0.25220 0.70592 0.18363
 H42 H -0.17388 0.71170 0.25912
 C43 C -0.19879 0.23059 -0.25124
 C44 C -0.20162 0.25883 -0.22938
 C45 C -0.22237 0.25704 -0.20089
 C46 C -0.24030 0.22707 -0.19361
 C47 C -0.23710 0.19936 -0.21490
 C48 C -0.21675 0.20130 -0.24413
 C49 C -0.17877 0.22386 -0.27935
 N50 N -0.18448 0.19122 -0.28981
 C51 C -0.20790 0.17751 -0.26809
 C52 C -0.25425 0.17294 -0.20008
 N53 N -0.26832 0.18379 -0.17021
 C54 C -0.26004 0.21717 -0.16635
 C55 C -0.21775 0.28661 -0.18269
 N56 N -0.19463 0.30650 -0.19920
 C57 C -0.18476 0.28964 -0.22794
 H58 H -0.16144 0.24177 -0.29107
 H59 H -0.21657 0.15148 -0.26804
 H60 H -0.25641 0.14770 -0.21077
 H61 H -0.26607 0.23285 -0.14444
 H62 H -0.22876 0.29214 -0.15799
 H63 H -0.16582 0.29847 -0.24595
 C64 C 0.19521 0.78945 -0.23555
 C65 C 0.19516 0.76497 -0.21013
 C66 C 0.22478 0.75909 -0.19180
 C67 C 0.25471 0.77796 -0.19843
 C68 C 0.25461 0.80214 -0.22327
 C69 C 0.22467 0.80789 -0.24196
 C70 C 0.16959 0.80248 -0.25532
 N71 N 0.18261 0.82875 -0.27363
 C72 C 0.21653 0.83195 -0.26528
 C73 C 0.28526 0.81959 -0.22104
 N74 N 0.30428 0.80708 -0.19498
 C75 C 0.28550 0.78112 -0.18148
 C76 C 0.21647 0.73629 -0.16688
 N77 N 0.18254 0.72843 -0.16955
 C78 C 0.16933 0.74586 -0.19593
 H79 H 0.14308 0.79419 -0.25467
 H80 H 0.23456 0.85030 -0.27511
 H81 H 0.29178 0.84106 -0.23646
 H82 H 0.29194 0.76702 -0.15908
 H83 H 0.23344 0.72730 -0.14726
 H84 H 0.14267 0.74531 -0.20368
 C85 C 0.20879 1.18958 0.78626
 C86 C 0.23139 1.18663 0.81400
 C87 C 0.22744 1.20682 0.84286
 C88 C 0.20117 1.23053 0.84416
 C89 C 0.17885 1.23288 0.81702
 C90 C 0.18279 1.21249 0.78796
 C91 C 0.20480 1.17203 0.75585
 N92 N 0.17677 1.18369 0.73891
 C93 C 0.16352 1.20874 0.75884
 C94 C 0.15462 1.25598 0.82578
 N95 N 0.16172 1.26847 0.85761
 C96 C 0.19050 1.25305 0.86891
 C97 C 0.25108 1.19676 0.86657
 N98 N 0.26943 1.17126 0.85271
 C99 C 0.25772 1.16500 0.82055
 H100 H 0.22069 1.15137 0.74786
 H101 H 0.14110 1.22332 0.75347
 H102 H 0.13385 1.26362 0.80945
 H103 H 0.20212 1.25669 0.89380
 H104 H 0.25432 1.20678 0.89222
 H105 H 0.26683 1.14525 0.80371
 C106 C 0.77758 0.79967 0.73045
 C107 C 0.74857 0.79597 0.75128
 C108 C 0.74614 0.76914 0.77322
 C109 C 0.77262 0.74583 0.77490
 C110 C 0.80134 0.74974 0.75489
 C111 C 0.80408 0.77713 0.73279
 C112 C 0.78783 0.82425 0.70811
 N113 N 0.82026 0.81770 0.69734
 C114 C 0.83039 0.78896 0.71270
 C115 C 0.82395 0.72524 0.76407
 N116 N 0.80993 0.70655 0.78964
 C117 C 0.77834 0.71933 0.79620
 C118 C 0.71789 0.77409 0.79336
 N119 N 0.70327 0.80371 0.78488
 C120 C 0.72179 0.81701 0.75878
 H121 H 0.77328 0.84627 0.70174
 H122 H 0.85491 0.77706 0.70922
 H123 H 0.84958 0.72295 0.75403
 H124 H 0.76041 0.71051 0.81516
 H125 H 0.70988 0.75796 0.81394
 H126 H 0.71802 0.84158 0.74793
 C127 C 0.23559 0.80073 1.24826
 C128 C 0.26410 0.80011 1.22644
 C129 C 0.26285 0.78078 1.19677
 C130 C 0.23310 0.76207 1.18831
 C131 C 0.20499 0.76320 1.20963
 C132 C 0.20633 0.78250 1.23977
 C133 C 0.22850 0.81866 1.27767
 N134 N 0.19545 0.81193 1.28731
 C135 C 0.18200 0.78958 1.26389
 C136 C 0.17891 0.74503 1.19409
 N137 N 0.19053 0.73261 1.16394
 C138 C 0.22371 0.74276 1.16016
 C139 C 0.29257 0.78731 1.17915
 N140 N 0.31190 0.81027 1.19715
 C141 C 0.29464 0.81809 1.22625
 H142 H 0.24599 0.83656 1.28982
 H143 H 0.15635 0.77888 1.26383
 H144 H 0.15322 0.74129 1.20385
 H145 H 0.23944 0.73732 1.13813
 H146 H 0.29853 0.77767 1.15394
 H147 H 0.30301 0.83642 1.24535
 C148 C 0.80123 1.19816 1.24127
 C149 C 0.77847 1.19608 1.21358
 C150 C 0.77062 1.22472 1.19579
 C151 C 0.78586 1.25576 1.20523
 C152 C 0.80796 1.25791 1.23283
 C153 C 0.81544 1.22887 1.25131
 C154 C 0.81621 1.17385 1.26052
 N155 N 0.83916 1.18881 1.28249
 C156 C 0.83847 1.22267 1.27716
 C157 C 0.82264 1.28971 1.23282
 N158 N 0.81063 1.30685 1.20550
 C159 C 0.78770 1.28609 1.18889
 C160 C 0.74959 1.21486 1.16901
 N161 N 0.74460 1.18092 1.17019
 C162 C 0.76237 1.16924 1.19726
 H163 H 0.81062 1.14709 1.25839
 H164 H 0.85516 1.24132 1.28936
 H165 H 0.84246 1.29850 1.25026
 H166 H 0.77560 1.29107 1.16470
 H167 H 0.73930 1.23104 1.14965
 H168 H 0.76347 1.14309 1.20460
 O169 O 0.54924 0.97402 0.93032
 O170 O 0.48931 0.97660 1.07437
 O171 O 0.55627 0.93950 1.03020
 O172 O 0.45985 0.94108 0.97165
 O173 O 0.55094 0.97599 1.07015
 O174 O 0.48581 0.96926 0.93096
 O175 O 0.47232 0.94048 1.03581
 O176 O 0.55828 0.93857 0.96913
 C177 C 0.55763 0.94503 0.93846
 C178 C 0.47744 0.94773 1.06639
 C179 C 0.55654 0.94619 1.06110
 C180 C 0.46734 0.94477 0.94087
 O181 O 0.48146 1.03326 0.94795
 O182 O 0.55040 1.03790 1.03995
 O183 O 0.58658 1.00207 0.96989
 O184 O 0.44858 1.00321 1.03953
 O185 O 0.48918 1.03938 1.04690
 O186 O 0.54689 1.03669 0.95516
 O187 O 0.44325 1.00455 0.97703
 O188 O 0.58817 1.00092 1.03137
 Co189 Co 0.51618 1.00210 0.94706
 Co190 Co 0.51982 1.00590 1.05317
 Co191 Co 0.56772 0.97187 1.00030
 Co192 Co 0.46186 0.97367 1.00592
 O193 O 0.51603 0.98857 1.00132
 C194 C 0.45116 1.02832 0.95732
 C195 C 0.58109 1.03066 1.03898
 C196 C 0.57782 1.03064 0.95952
 C197 C 0.45816 1.03256 1.04715
 O198 O 0.02645 0.48049 0.05511
 O199 O 0.03391 0.54261 -0.03788
 O200 O -0.01017 0.44592 -0.03515
 O201 O -0.00023 0.58489 0.03099
 O202 O 0.03018 0.48179 -0.04229
 O203 O 0.03317 0.54482 0.04659
 O204 O -0.00057 0.58306 -0.03043
 O205 O -0.00649 0.44380 0.02718
 C206 C 0.01938 0.45079 0.04566
 C207 C 0.02891 0.57335 -0.03763
 C208 C 0.02051 0.45197 -0.04177
 C209 C 0.02860 0.57534 0.04142
 O210 O -0.03026 0.55113 0.07086
 O211 O -0.03396 0.48639 -0.07061
 O212 O -0.06996 0.46458 0.03316
 O213 O -0.06533 0.55629 -0.03013
 O214 O -0.02847 0.54677 -0.06886
 O215 O -0.03727 0.48886 0.07237
 O216 O -0.06617 0.56145 0.03138
 O217 O -0.07141 0.47421 -0.03181
 Co218 Co -0.00332 0.51659 0.05537
 Co219 Co -0.00114 0.51452 -0.05032
 Co220 Co -0.03778 0.46281 -0.00168
 Co221 Co -0.03186 0.56680 0.00039
 O222 O -0.01853 0.51496 0.00125
 C223 C -0.05945 0.56047 0.06220
 C224 C -0.06386 0.47671 -0.06256
 C225 C -0.06353 0.47158 0.06381
 C226 C -0.05798 0.55573 -0.06082
 O227 O 1.07760 0.03729 0.46623
 O228 O 0.92666 0.02724 0.52049
 O229 O 0.98439 0.02187 0.43174
 O230 O 1.03318 0.06096 0.54272
 O231 O 0.96667 0.05089 0.47551
 O232 O 1.08016 0.03681 0.53109
 O233 O 0.97340 0.05160 0.53854
 O234 O 1.04510 0.01084 0.42809
 C235 C 1.06686 0.03375 0.43615
 C236 C 0.94131 0.04796 0.54211
 C237 C 0.97164 0.04860 0.44397
 C238 C 1.06477 0.06081 0.54449
 O239 O 1.07445 -0.02796 0.52967
 O240 O 0.93690 -0.00606 0.46269
 O241 O 1.03284 -0.05202 0.45514
 O242 O 0.98076 -0.01221 0.56352
 O243 O 0.95591 -0.02919 0.51785
 O244 O 1.08018 -0.02703 0.46574
 O245 O 1.04276 -0.00203 0.56802
 O246 O 0.97467 -0.04222 0.45789
 Co247 Co 1.07194 0.00476 0.49809
 Co248 Co 0.96351 0.01093 0.49802
 Co249 Co 1.00955 -0.01382 0.44726
 Co250 Co 1.00802 0.02276 0.54852
 O251 O 1.01531 0.00476 0.49685
 C252 C 1.06439 -0.02422 0.55981
 C253 C 0.94483 -0.03418 0.45139
 C254 C 1.06442 -0.05236 0.45488
 C255 C 0.96103 -0.03276 0.54864
 C256 C 1.12098 0.12001 0.33073
 C257 C 1.15703 0.12259 0.32815
 C258 C 1.17204 0.14020 0.30114
 C259 C 1.15177 0.15691 0.27711
 C260 C 1.11598 0.15668 0.28174
 C261 C 1.10079 0.13820 0.30788
 C262 C 1.10599 0.09826 0.35797
 C263 C 1.07086 0.08948 0.35922
 C264 C 1.05832 0.06824 0.38452
 C265 C 1.08032 0.05599 0.40956
 C266 C 1.11526 0.06453 0.40865
 C267 C 1.12839 0.08464 0.38244
 C268 C 1.17790 0.10783 0.35270
 C269 C 1.16384 0.09004 0.37981
 H270 H 1.20555 0.11033 0.35113
 H271 H 1.18104 0.07937 0.39834
 H272 H 1.19972 0.14153 0.29947
 H273 H 1.09928 0.16924 0.26415
 H274 H 1.03127 0.06162 0.38477
 H275 H 1.13240 0.05438 0.42757
 H276 H 1.07321 0.13840 0.30975
 H277 H 1.05288 0.09806 0.34043
 C278 C 0.85239 -0.12568 0.37758
 C279 C 0.86648 -0.15601 0.36509
 C280 C 0.84650 -0.17852 0.34505
 C281 C 0.81220 -0.17144 0.33653
 C282 C 0.79815 -0.14169 0.35040
 C283 C 0.81780 -0.11928 0.37045
 C284 C 0.87510 -0.10161 0.39757
 C285 C 0.86400 -0.07009 0.41005
 C286 C 0.88654 -0.04826 0.42773
 C287 C 0.92058 -0.05732 0.43346
 C288 C 0.93179 -0.08869 0.42141
 C289 C 0.90950 -0.11071 0.40347
 C290 C 0.90067 -0.16359 0.37219
 C291 C 0.92166 -0.14150 0.39105
 H292 H 0.91149 -0.18691 0.36278
 H293 H 0.94800 -0.14846 0.39563
 H294 H 0.85857 -0.20099 0.33544
 H295 H 0.77175 -0.13526 0.34613
 H296 H 0.87734 -0.02414 0.43677
 H297 H 0.95814 -0.09588 0.42561
 H298 H 0.80538 -0.09700 0.37996
 H299 H 0.83820 -0.06165 0.40619
 C300 C 0.86766 0.13676 0.63378
 C301 C 0.83574 0.12490 0.64604
 C302 C 0.81824 0.14344 0.67107
 C303 C 0.83160 0.17437 0.68406
 C304 C 0.86232 0.18696 0.66992
 C305 C 0.88012 0.16843 0.64538
 C306 C 0.88678 0.11494 0.60905
 C307 C 0.92039 0.12269 0.59839
 C308 C 0.93769 0.10096 0.57645
 C309 C 0.92187 0.07117 0.56414
 C310 C 0.88831 0.06327 0.57422
 C311 C 0.87095 0.08457 0.59710
 C312 C 0.82144 0.09457 0.63330
 C313 C 0.83842 0.07512 0.60896
 H314 H 0.79672 0.08568 0.64233
 H315 H 0.82628 0.05186 0.59998
 H316 H 0.79379 0.13374 0.67984
 H317 H 0.87377 0.21052 0.67868
 H318 H 0.96370 0.10749 0.56917
 H319 H 0.87620 0.03997 0.56525
 H320 H 0.90372 0.17932 0.63601
 H321 H 0.93410 0.14496 0.60729
 C322 C 1.12802 -0.11004 0.65850
 C323 C 1.16128 -0.10042 0.66972
 C324 C 1.17925 -0.12085 0.69226
 C325 C 1.16478 -0.15121 0.70443
 C326 C 1.13139 -0.16025 0.69335
 C327 C 1.11338 -0.14011 0.67083
 C328 C 1.11005 -0.08781 0.63380
 C329 C 1.07725 -0.09560 0.62023
 C330 C 1.06216 -0.07451 0.59651
 C331 C 1.07922 -0.04520 0.58614
 C332 C 1.11157 -0.03692 0.59949
 C333 C 1.12714 -0.05799 0.62314
 C334 C 1.17657 -0.07041 0.65841
 C335 C 1.15984 -0.04962 0.63569
 H336 H 1.20200 -0.06292 0.66714
 H337 H 1.17286 -0.02678 0.62758
 H338 H 1.20434 -0.11225 0.70065
 H339 H 1.11900 -0.18338 0.70122
 H340 H 1.03747 -0.08145 0.58564
 H341 H 1.12477 -0.01426 0.59102
 H342 H 1.08808 -0.14873 0.66330
 H343 H 1.06305 -0.11801 0.62713
 C344 C 0.35707 1.11779 1.10970
 C345 C 0.33927 1.14007 1.08849
 C346 C 0.31157 1.15852 1.10157
 C347 C 0.30118 1.15515 1.13587
 C348 C 0.32099 1.13465 1.15709
 C349 C 0.34830 1.11639 1.14432
 C350 C 0.38448 1.09648 1.09443
 C351 C 0.40059 1.07080 1.11268
 C352 C 0.42495 1.05061 1.09705
 C353 C 0.43417 1.05578 1.06316
 C354 C 0.41883 1.08140 1.04466
 C355 C 0.39337 1.10127 1.05983
 C356 C 0.34906 1.14350 1.05431
 C357 C 0.37591 1.12493 1.04045
 H358 H 0.33576 1.16080 1.03799
 H359 H 0.38244 1.12846 1.01389
 H360 H 0.29759 1.17437 1.08444
 H361 H 0.31595 1.13262 1.18402
 H362 H 0.43642 1.03055 1.11139
 H363 H 0.42598 1.08510 1.01829
 H364 H 0.36223 1.10136 1.16216
 H365 H 0.39414 1.06519 1.13870
 C366 C 0.38921 0.85442 0.85325
 C367 C 0.37477 0.86864 0.82385
 C368 C 0.34796 0.85169 0.80636
 C369 C 0.33427 0.82078 0.81820
 C370 C 0.35134 0.80547 0.84551
 C371 C 0.37827 0.82194 0.86269
 C372 C 0.41406 0.87536 0.87407
 C373 C 0.42653 0.86498 0.90588
 C374 C 0.44548 0.88716 0.92665
 C375 C 0.45309 0.92001 0.91608
 C376 C 0.44317 0.92986 0.88340
 C377 C 0.42303 0.90807 0.86267
 C378 C 0.38610 0.90040 0.81290
 C379 C 0.40994 0.91958 0.83176
 H380 H 0.37555 0.91110 0.78997
 H381 H 0.41699 0.94445 0.82281
 H382 H 0.33691 0.86399 0.78470
 H383 H 0.34379 0.78088 0.85449
 H384 H 0.45324 0.87895 0.95170
 H385 H 0.44879 0.95535 0.87522
 H386 H 0.38956 0.80903 0.88382
 H387 H 0.42062 0.84046 0.91598
 C388 C 0.61821 0.85201 1.15314
 C389 C 0.62839 0.86484 1.18547
 C390 C 0.64961 0.84590 1.20659
 C391 C 0.66206 0.81422 1.19587
 C392 C 0.64979 0.80091 1.16446
 C393 C 0.62835 0.81940 1.14354
 C394 C 0.59838 0.87435 1.13002
 C395 C 0.58886 0.86467 1.09655
 C396 C 0.57383 0.88765 1.07475
 C397 C 0.56764 0.92076 1.08577
 C398 C 0.57490 0.93001 1.11971
 C399 C 0.59056 0.90726 1.14171
 C400 C 0.61831 0.89703 1.19615
 C401 C 0.59978 0.91776 1.17476
 H402 H 0.62570 0.90676 1.22112
 H403 H 0.59349 0.94281 1.18388
 H404 H 0.65694 0.85683 1.23094
 H405 H 0.65706 0.77639 1.15507
 H406 H 0.56804 0.87973 1.04879
 H407 H 0.56999 0.95549 1.12855
 H408 H 0.62066 0.80787 1.11960
 H409 H 0.59374 0.83988 1.08627
 C410 C 0.67204 1.12356 0.89516
 C411 C 0.69661 1.10881 0.87344
 C412 C 0.71635 1.12904 0.85176
 C413 C 0.71322 1.16436 0.85203
 C414 C 0.69057 1.17901 0.87564
 C415 C 0.67004 1.15894 0.89662
 C416 C 0.64902 1.10069 0.91524
 C417 C 0.62036 1.11234 0.93348
 C418 C 0.59783 1.08960 0.94904
 C419 C 0.60385 1.05492 0.94755
 C420 C 0.63311 1.04318 0.93092
 C421 C 0.65503 1.06560 0.91387
 C422 C 0.70141 1.07392 0.87343
 C423 C 0.68155 1.05285 0.89379
 H424 H 0.72075 1.06267 0.85731
 H425 H 0.68609 1.02599 0.89267
 H426 H 0.73491 1.11704 0.83535
 H427 H 0.68731 1.20600 0.87695
 H428 H 0.57522 1.09905 0.96169
 H429 H 0.63742 1.01628 0.92911
 H430 H 0.65267 1.17160 0.91368
 H431 H 0.61410 1.13869 0.93476
 C432 C 0.10533 0.34248 0.09162
 C433 C 0.11801 0.34543 0.12541
 C434 C 0.13611 0.31890 0.13971
 C435 C 0.14299 0.28983 0.12049
 C436 C 0.13248 0.28767 0.08639
 C437 C 0.11361 0.31360 0.07207
 C438 C 0.08363 0.37026 0.07837
 C439 C 0.06597 0.36796 0.04698
 C440 C 0.04498 0.39405 0.03647
 C441 C 0.04175 0.42334 0.05656
 C442 C 0.05939 0.42600 0.08767
 C443 C 0.07948 0.39945 0.09908
 C444 C 0.11259 0.37478 0.14475
 C445 C 0.09437 0.40151 0.13158
 H446 H 0.12276 0.37720 0.17043
 H447 H 0.09102 0.42376 0.14750
 H448 H 0.14497 0.32072 0.16591
 H449 H 0.13796 0.26539 0.07124
 H450 H 0.03135 0.39137 0.01247
 H451 H 0.05642 0.44830 0.10364
 H452 H 0.10570 0.31058 0.04581
 H453 H 0.06741 0.34595 0.03061
 C454 C -0.14822 0.39350 -0.15162
 C455 C -0.13061 0.37564 -0.17748
 C456 C -0.14658 0.34804 -0.19432
 C457 C -0.18006 0.33772 -0.18577
 C458 C -0.19822 0.35708 -0.16188
 C459 C -0.18263 0.38457 -0.14504
 C460 C -0.12879 0.41982 -0.13113
 C461 C -0.14270 0.43612 -0.10226
 C462 C -0.12207 0.45663 -0.08112
 C463 C -0.08733 0.46201 -0.08861
 C464 C -0.07396 0.44819 -0.11879
 C465 C -0.09409 0.42650 -0.13953
 C466 C -0.09672 0.38456 -0.18548
 C467 C -0.07897 0.40968 -0.16714
 H468 H -0.08339 0.37129 -0.20567
 H469 H -0.05247 0.41493 -0.17370
 H470 H -0.13212 0.33359 -0.21275
 H471 H -0.22446 0.35054 -0.15559
 H472 H -0.13296 0.46714 -0.05800
 H473 H -0.04701 0.45190 -0.12459
 H474 H -0.19776 0.39798 -0.12651
 H475 H -0.16892 0.43205 -0.09455
 C476 C 0.12434 0.66374 -0.10485
 C477 C 0.11078 0.69462 -0.11588
 C478 C 0.13019 0.71578 -0.13699
 C479 C 0.16334 0.70705 -0.14702
 C480 C 0.17737 0.67722 -0.13496
 C481 C 0.15813 0.65569 -0.11425
 C482 C 0.10173 0.64076 -0.08435
 C483 C 0.11153 0.60826 -0.07449
 C484 C 0.08836 0.58678 -0.05799
 C485 C 0.05507 0.59731 -0.05053
 C486 C 0.04571 0.63021 -0.05859
 C487 C 0.06840 0.65166 -0.07594
 C488 C 0.07785 0.70414 -0.10606
 C489 C 0.05724 0.68327 -0.08623
 H490 H 0.06768 0.72798 -0.11413
 H491 H 0.03176 0.69161 -0.07970
 H492 H 0.11957 0.73924 -0.14558
 H493 H 0.20303 0.67017 -0.14229
 H494 H 0.09622 0.56152 -0.05190
 H495 H 0.02000 0.63861 -0.05304
 H496 H 0.17008 0.63287 -0.10610
 H497 H 0.13651 0.59854 -0.08024
 C498 C -0.15005 0.63010 0.15533
 C499 C -0.13424 0.64798 0.18277
 C500 C -0.15347 0.66993 0.20329
 C501 C -0.18875 0.67411 0.19742
 C502 C -0.20465 0.65450 0.17152
 C503 C -0.18567 0.63295 0.15072
 C504 C -0.12799 0.60943 0.13208
 C505 C -0.14045 0.59398 0.10178
 C506 C -0.11831 0.57722 0.07963
 C507 C -0.08336 0.57489 0.08738
 C508 C -0.07089 0.58906 0.11805
 C509 C -0.09268 0.60697 0.13994
 C510 C -0.09921 0.64423 0.18933
 C511 C -0.07901 0.62374 0.16870
 H512 H -0.08714 0.65752 0.21064
 H513 H -0.05198 0.62191 0.17472
 H514 H -0.14046 0.68439 0.22315
 H515 H -0.23191 0.65586 0.16696
 H516 H -0.12845 0.56651 0.05604
 H517 H -0.04377 0.58783 0.12394
 H518 H -0.19937 0.61887 0.13113
 H519 H -0.16694 0.59550 0.09413
 C520 C 1.13210 0.14281 0.64864
 C521 C 1.16454 0.13197 0.65975
 C522 C 1.17979 0.14629 0.68924
 C523 C 1.16315 0.17143 0.70860
 C524 C 1.13152 0.18300 0.69613
 C525 C 1.11634 0.16901 0.66684
 C526 C 1.11543 0.12504 0.61870
 C527 C 1.08212 0.13234 0.60718
 C528 C 1.06634 0.11267 0.58160
 C529 C 1.08349 0.08556 0.56650
 C530 C 1.11746 0.07947 0.57625
 C531 C 1.13327 0.09854 0.60251
 C532 C 1.18133 0.10636 0.64178
 C533 C 1.16609 0.09011 0.61371
 H534 H 1.20638 0.09825 0.64997
 H535 H 1.17983 0.06991 0.60121
 H536 H 1.20456 0.13727 0.69691
 H537 H 1.11737 0.20240 0.70911
 H538 H 1.04013 0.11791 0.57453
 H539 H 1.13095 0.05844 0.56493
 H540 H 1.09194 0.17883 0.65926
 H541 H 1.06726 0.15227 0.61837
 C542 C 0.87865 -0.12287 0.63031
 C543 C 0.89499 -0.14115 0.65614
 C544 C 0.87551 -0.16225 0.67742
 C545 C 0.83939 -0.16301 0.67556
 C546 C 0.82335 -0.14279 0.65127
 C547 C 0.84263 -0.12355 0.62858
 C548 C 0.90030 -0.10183 0.60719
 C549 C 0.88733 -0.08761 0.57728
 C550 C 0.90799 -0.06665 0.55751
 C551 C 0.94177 -0.05874 0.56747
 C552 C 0.95542 -0.07387 0.59648
 C553 C 0.93528 -0.09646 0.61558
 C554 C 0.93037 -0.13690 0.66160
 C555 C 0.94983 -0.11402 0.64260
 H556 H 0.94294 -0.15043 0.68176
 H557 H 0.97679 -0.11059 0.64867
 H558 H 0.88846 -0.17627 0.69696
 H559 H 0.79572 -0.14271 0.64884
 H560 H 0.89701 -0.05542 0.53505
 H561 H 0.98160 -0.06816 0.60407
 H562 H 0.82889 -0.10866 0.61042
 H563 H 0.86137 -0.09251 0.56874
 C564 C 1.14290 -0.14063 0.36837
 C565 C 1.12467 -0.15990 0.34354
 C566 C 1.14236 -0.17659 0.31730
 C567 C 1.17840 -0.17377 0.31442
 C568 C 1.19624 -0.15502 0.33983
 C569 C 1.17889 -0.13888 0.36632
 C570 C 1.12293 -0.12140 0.39461
 C571 C 1.13873 -0.10119 0.42015
 C572 C 1.11925 -0.08047 0.44119
 C573 C 1.08349 -0.07957 0.43768
 C574 C 1.06719 -0.10172 0.41434
 C575 C 1.08665 -0.12239 0.39264
 C576 C 1.08874 -0.16140 0.34420
 C577 C 1.07015 -0.14287 0.36805
 H578 H 1.07470 -0.17635 0.32529
 H579 H 1.04240 -0.14400 0.36672
 H580 H 1.12737 -0.19027 0.29830
 H581 H 1.22386 -0.15276 0.33977
 H582 H 1.13242 -0.06400 0.45941
 H583 H 1.03954 -0.10136 0.41155
 H584 H 1.19425 -0.12466 0.38454
 H585 H 1.16614 -0.10012 0.42364
 C586 C 0.90223 0.13705 0.35086
 C587 C 0.89059 0.12145 0.32019
 C588 C 0.86915 0.13869 0.29799
 C589 C 0.86029 0.17239 0.30447
 C590 C 0.87404 0.18865 0.33377
 C591 C 0.89423 0.17109 0.35693
 C592 C 0.92272 0.11647 0.37520
 C593 C 0.93112 0.12732 0.40872
 C594 C 0.94807 0.10589 0.43111
 C595 C 0.95783 0.07364 0.42021
 C596 C 0.95066 0.06329 0.38655
 C597 C 0.93232 0.08376 0.36456
 C598 C 0.90077 0.08882 0.31146
 C599 C 0.92192 0.07073 0.33277
 H600 H 0.89242 0.07713 0.28762
 H601 H 0.92914 0.04557 0.32478
 H602 H 0.86064 0.12605 0.27475
 H603 H 0.86801 0.21458 0.33973
 H604 H 0.95296 0.11426 0.45710
 H605 H 0.95736 0.03815 0.37799
 H606 H 0.90350 0.18456 0.37933
 H607 H 0.92359 0.15168 0.41842
 C608 C 0.10481 0.34398 -0.09322
 C609 C 0.08920 0.32208 -0.11765
 C610 C 0.10837 0.29709 -0.13386
 C611 C 0.14296 0.29214 -0.12527
 C612 C 0.15760 0.31233 -0.09902
 C613 C 0.13897 0.33817 -0.08352
 C614 C 0.08399 0.37211 -0.07861
 C615 C 0.09815 0.39830 -0.05795
 C616 C 0.07767 0.42458 -0.04608
 C617 C 0.04263 0.42474 -0.05384
 C618 C 0.02831 0.39878 -0.07410
 C619 C 0.04879 0.37315 -0.08730
 C620 C 0.05438 0.32491 -0.12559
 C621 C 0.03441 0.34940 -0.11010
 H622 H 0.04228 0.30772 -0.14389
 H623 H 0.00750 0.35041 -0.11692
 H624 H 0.09571 0.28070 -0.15246
 H625 H 0.18403 0.30938 -0.09142
 H626 H 0.08908 0.44460 -0.03051
 H627 H 0.00131 0.39929 -0.08073
 H628 H 0.15168 0.35329 -0.06402
 H629 H 0.12503 0.39929 -0.05140
 C630 C -0.14211 0.39235 0.15849
 C631 C -0.17459 0.38019 0.14730
 C632 C -0.19139 0.35417 0.16487
 C633 C -0.17540 0.33814 0.19231
 C634 C -0.14377 0.35136 0.20413
 C635 C -0.12751 0.37817 0.18771
 C636 C -0.12347 0.41767 0.13705
 C637 C -0.09116 0.43162 0.14605
 C638 C -0.07268 0.45121 0.12297
 C639 C -0.08592 0.45728 0.09041
 C640 C -0.11929 0.44602 0.08236
 C641 C -0.13818 0.42649 0.10546
 C642 C -0.18913 0.39244 0.11733
 C643 C -0.17106 0.41465 0.09655
 H644 H -0.21413 0.38333 0.10886
 H645 H -0.18267 0.42201 0.07271
 H646 H -0.21622 0.34534 0.15583
 H647 H -0.13045 0.34019 0.22518
 H648 H -0.04713 0.45999 0.12994
 H649 H -0.13002 0.45126 0.05750
 H650 H -0.10274 0.38624 0.19732
 H651 H -0.07927 0.42688 0.17032
 C652 C -0.13885 0.63205 -0.15499
 C653 C -0.16942 0.64606 -0.14233
 C654 C -0.18712 0.66981 -0.16150
 C655 C -0.17434 0.68118 -0.19304
 C656 C -0.14421 0.66644 -0.20563
 C657 C -0.12688 0.64227 -0.18708
 C658 C -0.11959 0.60840 -0.13277
 C659 C -0.08892 0.59305 -0.14302
 C660 C -0.06996 0.57432 -0.12007
 C661 C -0.08109 0.57028 -0.08640
 C662 C -0.11286 0.58329 -0.07669
 C663 C -0.13208 0.60232 -0.09953
 C664 C -0.18148 0.63738 -0.10995
 C665 C -0.16305 0.61624 -0.08890
 H666 H -0.20501 0.64797 -0.10027
 H667 H -0.17289 0.61124 -0.06363
 H668 H -0.20984 0.68063 -0.15049
 H669 H -0.13376 0.67317 -0.23012
 H670 H -0.04577 0.56409 -0.12839
 H671 H -0.12195 0.57991 -0.05085
 H672 H -0.10376 0.63247 -0.19811
 H673 H -0.07865 0.59587 -0.16831
 C674 C 0.12867 0.66921 0.09941
 C675 C 0.11551 0.69950 0.11319
 C676 C 0.13637 0.72066 0.13367
 C677 C 0.17053 0.71253 0.14022
 C678 C 0.18427 0.68378 0.12478
 C679 C 0.16361 0.66222 0.10468
 C680 C 0.10444 0.64551 0.08088
 C681 C 0.11379 0.61297 0.06985
 C682 C 0.08937 0.59060 0.05584
 C683 C 0.05523 0.60028 0.05190
 C684 C 0.04605 0.63318 0.06105
 C685 C 0.07007 0.65547 0.07625
 C686 C 0.08146 0.70820 0.10702
 C687 C 0.05937 0.68687 0.08851
 H688 H 0.07159 0.73167 0.11709
 H689 H 0.03309 0.69452 0.08489
 H690 H 0.12598 0.74337 0.14497
 H691 H 0.21071 0.67733 0.12939
 H692 H 0.09704 0.56535 0.04877
 H693 H 0.01962 0.64075 0.05839
 H694 H 0.17533 0.64007 0.09396
 H695 H 0.13946 0.60386 0.07298
 C696 C 0.34545 1.11342 0.90219
 C697 C 0.35119 1.12599 0.86904
 C698 C 0.32592 1.14483 0.85287
 C699 C 0.29545 1.15262 0.86974
 C700 C 0.29047 1.14170 0.90319
 C701 C 0.31502 1.12213 0.91922
 C702 C 0.37225 1.09168 0.91769
 C703 C 0.36736 1.07445 0.94854
 C704 C 0.39286 1.05374 0.96135
 C705 C 0.42417 1.05047 0.94427
 C706 C 0.42922 1.06751 0.91356
 C707 C 0.40333 1.08728 0.89979
 C708 C 0.38223 1.12005 0.85239
 C709 C 0.40802 1.10173 0.86775
 H710 H 0.38681 1.13005 0.82722
 H711 H 0.43172 1.09811 0.85393
 H712 H 0.33007 1.15394 0.82727
 H713 H 0.26711 1.14770 0.91663
 H714 H 0.38818 1.04045 0.98484
 H715 H 0.45298 1.06441 0.89967
 H716 H 0.30982 1.11424 0.94492
 H717 H 0.34380 1.07605 0.96274
 C718 C 0.39796 0.86107 1.15303
 C719 C 0.37826 0.87738 1.17842
 C720 C 0.35107 0.86001 1.19424
 C721 C 0.34282 0.82649 1.18491
 C722 C 0.36383 0.80983 1.16135
 C723 C 0.39106 0.82675 1.14568
 C724 C 0.42375 0.88166 1.13364
 C725 C 0.44201 0.86865 1.10556
 C726 C 0.46157 0.88996 1.08506
 C727 C 0.46410 0.92456 1.09242
 C728 C 0.44863 0.93733 1.12201
 C729 C 0.42782 0.91633 1.14216
 C730 C 0.38486 0.91132 1.18683
 C731 C 0.40926 0.93032 1.16924
 H732 H 0.37017 0.92370 1.20664
 H733 H 0.41256 0.95677 1.17598
 H734 H 0.33516 0.87329 1.21237
 H735 H 0.35876 0.78372 1.15442
 H736 H 0.47356 0.87960 1.06242
 H737 H 0.45024 0.96415 1.12764
 H738 H 0.40578 0.81267 1.12733
 H739 H 0.44019 0.84247 1.09792
 C740 C 0.68174 1.11885 1.10476
 C741 C 0.67122 1.15162 1.11433
 C742 C 0.69267 1.17246 1.13474
 C743 C 0.72401 1.16066 1.14698
 C744 C 0.73434 1.12821 1.13752
 C745 C 0.71368 1.10762 1.11653
 C746 C 0.65754 1.09688 1.08413
 C747 C 0.66602 1.06437 1.07239
 C748 C 0.64154 1.04363 1.05620
 C749 C 0.60798 1.05470 1.05124
 C750 C 0.59991 1.08788 1.06070
 C751 C 0.62443 1.10902 1.07695
 C752 C 0.63883 1.16287 1.10463
 C753 C 0.61577 1.14187 1.08676
 H754 H 0.63074 1.18794 1.11191
 H755 H 0.59061 1.15139 1.08086
 H756 H 0.68432 1.19733 1.14245
 H757 H 0.75853 1.11872 1.14650
 H758 H 0.64864 1.01834 1.04864
 H759 H 0.57421 1.09691 1.05642
 H760 H 0.72284 1.08276 1.11058
 H761 H 0.69120 1.05421 1.07596
 C762 C 0.62978 0.85864 0.84340
 C763 C 0.64710 0.83119 0.85773
 C764 C 0.67023 0.81260 0.83803
 C765 C 0.67671 0.82069 0.80385
 C766 C 0.65825 0.84694 0.78926
 C767 C 0.63514 0.86568 0.80868
 C768 C 0.60765 0.87969 0.86631
 C769 C 0.59113 0.90896 0.85534
 C770 C 0.57355 0.92941 0.87851
 C771 C 0.57174 0.92107 0.91309
 C772 C 0.58644 0.89102 0.92385
 C773 C 0.60468 0.87064 0.90098
 C774 C 0.64207 0.82295 0.89196
 C775 C 0.62117 0.84214 0.91306
 H776 H 0.65504 0.80168 0.90282
 H777 H 0.61872 0.83510 0.93954
 H778 H 0.68425 0.79272 0.85007
 H779 H 0.66195 0.85336 0.76281
 H780 H 0.56226 0.95238 0.86951
 H781 H 0.58516 0.88425 0.95051
 H782 H 0.62215 0.88583 0.79615
 H783 H 0.59234 0.91708 0.82926
   
