data_POSCAR
  _audit_creation_date              2014-09-24
  _audit_creation_method            'ToBaCCo'
  _symmetry_space_group_name_H-M    'P1'
  _symmetry_Int_Tables_number       1
  _symmetry_cell_setting            triclinic
  loop_
  _symmetry_equiv_pos_as_xyz
 x,y,z
_cell_length_a 85.7902
_cell_length_b 85.8047
_cell_length_c 24.3467
_cell_angle_alpha 90.118600
_cell_angle_beta 89.889400
_cell_angle_gamma 120.004100
loop_
  _atom_site_label
  _atom_site_type_symbol
  _atom_site_fract_x
  _atom_site_fract_y
  _atom_site_fract_z
C1 C 0.24926 0.49879 0.52713
 C2 C 0.24913 0.49875 0.47108
 C3 C 0.23362 0.49731 0.43968
 C4 C 0.26436 0.49987 0.43870
 C5 C 0.26333 0.49735 0.55850
 C6 C 0.23523 0.50004 0.55953
 C7 C 0.21613 0.48324 0.44962
 C8 C 0.20152 0.48232 0.42156
 C9 C 0.20388 0.49543 0.38182
 C10 C 0.22185 0.50923 0.37118
 C11 C 0.23639 0.51007 0.39958
 C12 C 0.26114 0.48677 0.39882
 C13 C 0.27546 0.48718 0.37013
 C14 C 0.29327 0.50077 0.38056
 C15 C 0.29640 0.51418 0.41938
 C16 C 0.28207 0.51379 0.44793
 C17 C 0.27352 0.51031 0.59832
 C18 C 0.28726 0.50945 0.62640
 C19 C 0.29099 0.49555 0.61538
 C20 C 0.28041 0.48230 0.57654
 C21 C 0.26664 0.48314 0.54862
 C22 C 0.23152 0.51400 0.55018
 C23 C 0.21765 0.51453 0.57878
 C24 C 0.20737 0.50121 0.61775
 C25 C 0.21152 0.48758 0.62829
 C26 C 0.22536 0.48705 0.59956
 H27 H 0.21377 0.47287 0.47921
 H28 H 0.18855 0.47069 0.43000
 H29 H 0.22501 0.52021 0.34344
 H30 H 0.24984 0.52108 0.39135
 H31 H 0.24757 0.47595 0.39099
 H32 H 0.27263 0.47657 0.34085
 H33 H 0.28480 0.52425 0.47768
 H34 H 0.27110 0.52132 0.60669
 H35 H 0.29527 0.51993 0.65577
 H36 H 0.28271 0.47123 0.56797
 H37 H 0.25864 0.47277 0.51895
 H38 H 0.23925 0.52439 0.52030
 H39 H 0.21500 0.52538 0.57052
 H40 H 0.20374 0.47704 0.65768
 H41 H 0.22806 0.47620 0.60749
 H42 H 0.30994 0.52501 0.42755
 C43 C 0.50094 -0.24983 0.52749
 C44 C 0.50102 -0.24961 0.47145
 C45 C 0.49986 -0.26482 0.43888
 C46 C 0.50250 -0.23406 0.44023
 C47 C 0.49964 -0.23585 0.55999
 C48 C 0.50238 -0.26392 0.55874
 C49 C 0.51295 -0.26160 0.39899
 C50 C 0.51250 -0.27591 0.37011
 C51 C 0.49885 -0.29372 0.38037
 C52 C 0.48544 -0.29684 0.41918
 C53 C 0.48589 -0.28252 0.44793
 C54 C 0.51664 -0.21653 0.45050
 C55 C 0.51754 -0.20191 0.42253
 C56 C 0.50445 -0.20455 0.38325
 C57 C 0.49060 -0.22218 0.37192
 C58 C 0.48968 -0.23680 0.40005
 C59 C 0.48566 -0.23215 0.55058
 C60 C 0.48513 -0.21829 0.57911
 C61 C 0.49845 -0.20798 0.61807
 C62 C 0.51207 -0.21213 0.62874
 C63 C 0.51262 -0.22597 0.60007
 C64 C 0.48953 -0.27403 0.59872
 C65 C 0.49041 -0.28774 0.62694
 C66 C 0.50428 -0.29170 0.61610
 C67 C 0.51744 -0.28098 0.57668
 C68 C 0.51653 -0.26726 0.54876
 H69 H 0.52381 -0.24804 0.39129
 H70 H 0.52310 -0.27309 0.34083
 H71 H 0.47458 -0.31036 0.42722
 H72 H 0.47543 -0.28524 0.47770
 H73 H 0.52691 -0.21418 0.48046
 H74 H 0.52857 -0.18853 0.43137
 H75 H 0.47872 -0.25023 0.39137
 H76 H 0.47529 -0.23988 0.52066
 H77 H 0.47428 -0.21563 0.57076
 H78 H 0.52260 -0.20434 0.65815
 H79 H 0.52347 -0.22866 0.60804
 H80 H 0.47849 -0.27164 0.60703
 H81 H 0.47958 -0.29570 0.65519
 H82 H 0.52892 -0.28261 0.56827
 H83 H 0.52692 -0.25921 0.51919
 H84 H 0.48024 -0.22463 0.34222
 C85 C 1.24913 0.75112 0.52944
 C86 C 1.24924 0.75147 0.47341
 C87 C 1.26341 0.76701 0.44233
 C88 C 1.23503 0.73647 0.44065
 C89 C 1.23366 0.73692 0.56067
 C90 C 1.26436 0.76509 0.56210
 C91 C 1.26692 0.78453 0.45275
 C92 C 1.28073 0.79915 0.42493
 C93 C 1.29135 0.79667 0.38520
 C94 C 1.28722 0.77881 0.37395
 C95 C 1.27343 0.76424 0.40206
 C96 C 1.22525 0.74002 0.40147
 C97 C 1.21129 0.72595 0.37228
 C98 C 1.20693 0.70803 0.38142
 C99 C 1.21713 0.70457 0.41951
 C100 C 1.23110 0.71866 0.44866
 C101 C 1.23648 0.72662 0.59964
 C102 C 1.22198 0.71287 0.62807
 C103 C 1.20414 0.70909 0.61867
 C104 C 1.20161 0.71998 0.58022
 C105 C 1.21616 0.73370 0.55190
 C106 C 1.28204 0.76891 0.55269
 C107 C 1.29637 0.78269 0.58161
 C108 C 1.29342 0.79298 0.62143
 C109 C 1.27540 0.78849 0.63177
 C110 C 1.26114 0.77474 0.60257
 H111 H 1.25895 0.78690 0.48260
 H112 H 1.28250 0.81230 0.43368
 H113 H 1.29510 0.77590 0.34544
 H114 H 1.27090 0.75078 0.39342
 H115 H 1.22819 0.75369 0.39434
 H116 H 1.20390 0.72907 0.34252
 H117 H 1.23869 0.71567 0.47807
 H118 H 1.24996 0.72912 0.60766
 H119 H 1.22504 0.70569 0.65866
 H120 H 1.18835 0.71755 0.56960
 H121 H 1.21373 0.74169 0.52244
 H122 H 1.28476 0.76123 0.52267
 H123 H 1.30966 0.78475 0.57351
 H124 H 1.27213 0.79610 0.66027
 H125 H 1.24756 0.77199 0.61042
 H126 H 1.21403 0.69092 0.42773
 C127 C 0.75055 0.50098 0.52940
 C128 C 0.75031 0.50087 0.47336
 C129 C 0.76430 0.49958 0.44082
 C130 C 0.73620 0.50226 0.44211
 C131 C 0.73535 0.49983 0.56199
 C132 C 0.76612 0.50248 0.56060
 C133 C 0.77414 0.51255 0.40071
 C134 C 0.78797 0.51200 0.37196
 C135 C 0.79213 0.49838 0.38257
 C136 C 0.78186 0.48508 0.42158
 C137 C 0.76801 0.48561 0.45020
 C138 C 0.73286 0.51646 0.45202
 C139 C 0.71911 0.51730 0.42402
 C140 C 0.70856 0.50408 0.38509
 C141 C 0.71228 0.49017 0.37412
 C142 C 0.72602 0.48931 0.40226
 C143 C 0.71767 0.48591 0.55300
 C144 C 0.70335 0.48544 0.58177
 C145 C 0.70629 0.49883 0.62102
 C146 C 0.72429 0.51241 0.63100
 C147 C 0.73857 0.51285 0.60195
 C148 C 0.76342 0.48976 0.60090
 C149 C 0.77803 0.49071 0.62920
 C150 C 0.79585 0.50453 0.61813
 C151 C 0.79827 0.51755 0.57834
 C152 C 0.78361 0.51657 0.55033
 H153 H 0.77144 0.52339 0.39277
 H154 H 0.79574 0.52252 0.34252
 H155 H 0.78452 0.47423 0.42989
 H156 H 0.76029 0.47525 0.48016
 H157 H 0.74085 0.52683 0.48171
 H158 H 0.71680 0.52838 0.43258
 H159 H 0.72845 0.47831 0.39387
 H160 H 0.71496 0.47541 0.52342
 H161 H 0.69006 0.47416 0.57401
 H162 H 0.72755 0.52339 0.65907
 H163 H 0.75214 0.52372 0.60948
 H164 H 0.74999 0.47876 0.60943
 H165 H 0.77518 0.47998 0.65775
 H166 H 0.81138 0.52899 0.56970
 H167 H 0.78593 0.52686 0.52049
 H168 H 0.70430 0.47971 0.34470
 C169 C 0.49848 0.24909 0.52811
 C170 C 0.49857 0.24923 0.47207
 C171 C 0.49713 0.26328 0.44063
 C172 C 0.49985 0.23520 0.43971
 C173 C 0.49705 0.23359 0.55950
 C174 C 0.49957 0.26430 0.56052
 C175 C 0.48290 0.26657 0.45036
 C176 C 0.48204 0.28030 0.42228
 C177 C 0.49530 0.29087 0.38345
 C178 C 0.50924 0.28717 0.37262
 C179 C 0.51010 0.27346 0.40085
 C180 C 0.48686 0.22532 0.39966
 C181 C 0.48741 0.21148 0.37099
 C182 C 0.50104 0.20734 0.38162
 C183 C 0.51435 0.21764 0.42061
 C184 C 0.51381 0.23150 0.44915
 C185 C 0.50985 0.23637 0.59961
 C186 C 0.50900 0.22181 0.62792
 C187 C 0.49520 0.20396 0.61703
 C188 C 0.48208 0.20147 0.57750
 C189 C 0.48296 0.21607 0.54949
 C190 C 0.51343 0.28199 0.55136
 C191 C 0.51384 0.29631 0.58000
 C192 C 0.50046 0.29336 0.61930
 C193 C 0.48693 0.27534 0.62941
 C194 C 0.48655 0.26107 0.60049
 H195 H 0.47252 0.25858 0.48001
 H196 H 0.47095 0.28259 0.43072
 H197 H 0.51971 0.29517 0.34327
 H198 H 0.52114 0.27106 0.39260
 H199 H 0.47601 0.22801 0.39166
 H200 H 0.47688 0.20369 0.34157
 H201 H 0.52419 0.23924 0.47905
 H202 H 0.52084 0.24982 0.60794
 H203 H 0.51980 0.22472 0.65627
 H204 H 0.47065 0.18834 0.56905
 H205 H 0.47261 0.21370 0.51980
 H206 H 0.52393 0.28472 0.52177
 H207 H 0.52508 0.30961 0.57212
 H208 H 0.47596 0.27206 0.65752
 H209 H 0.47572 0.24749 0.60815
 H210 H 0.52521 0.21499 0.42895
 C211 C 0.75136 0.24927 0.52775
 C212 C 0.75102 0.24925 0.47172
 C213 C 0.73682 0.23384 0.44027
 C214 C 0.76499 0.26453 0.43928
 C215 C 0.76690 0.26339 0.55895
 C216 C 0.73634 0.23502 0.56035
 C217 C 0.73356 0.21629 0.44888
 C218 C 0.71983 0.20181 0.42031
 C219 C 0.70919 0.20464 0.38219
 C220 C 0.71280 0.22230 0.37268
 C221 C 0.72655 0.23677 0.40129
 C222 C 0.77474 0.26136 0.39881
 C223 C 0.78854 0.27571 0.36998
 C224 C 0.79277 0.29350 0.38086
 C225 C 0.78260 0.29658 0.42030
 C226 C 0.76878 0.28222 0.44900
 C227 C 0.76414 0.27338 0.59937
 C228 C 0.77872 0.28716 0.62747
 C229 C 0.79658 0.29134 0.61605
 C230 C 0.79906 0.28073 0.57621
 C231 C 0.78443 0.26693 0.54842
 C232 C 0.71854 0.23111 0.55235
 C233 C 0.70443 0.21711 0.58135
 C234 C 0.70788 0.20687 0.61929
 C235 C 0.72579 0.21120 0.62842
 C236 C 0.73988 0.22519 0.59937
 H237 H 0.74156 0.21379 0.47811
 H238 H 0.71730 0.18836 0.42883
 H239 H 0.70505 0.22494 0.34292
 H240 H 0.72898 0.25024 0.39370
 H241 H 0.77199 0.24781 0.39060
 H242 H 0.79622 0.27291 0.34023
 H243 H 0.76115 0.28491 0.47924
 H244 H 0.75068 0.27083 0.60811
 H245 H 0.77581 0.29502 0.65608
 H246 H 0.81221 0.28254 0.56734
 H247 H 0.78680 0.25898 0.51846
 H248 H 0.71556 0.23874 0.52307
 H249 H 0.69078 0.21403 0.57315
 H250 H 0.72890 0.20377 0.65806
 H251 H 0.75354 0.22811 0.60650
 H252 H 0.78532 0.31011 0.42885
 N253 N 0.98118 0.51826 0.06187
 N254 N 0.96720 0.52059 0.06860
 N255 N 1.01919 0.52643 0.09882
 N256 N 1.03312 0.53512 0.13188
 N257 N 1.01908 0.53730 0.06115
 N258 N 1.03295 0.55369 0.06756
 N259 N 0.98130 0.50741 0.09959
 N260 N 0.96742 0.50207 0.13300
 C261 C 0.95876 0.51043 0.11325
 C262 C 1.04157 0.55213 0.11194
 N263 N 1.01921 0.48216 0.05915
 N264 N 1.03291 0.47939 0.06550
 N265 N 0.98139 0.47393 0.09835
 N266 N 0.96754 0.46520 0.13169
 N267 N 0.98131 0.46316 0.05986
 N268 N 0.96739 0.44680 0.06599
 N269 N 1.01927 0.49293 0.09763
 N270 N 1.03300 0.49776 0.13121
 Mn271 Mn 1.00029 0.50018 0.09928
 C272 C 1.04140 0.48921 0.11066
 C273 C 0.95893 0.44827 0.11109
 N274 N 1.01885 0.53748 -0.05707
 N275 N 1.03250 0.55396 -0.06382
 N276 N 0.98095 0.50770 -0.09489
 N277 N 0.96724 0.50289 -0.12857
 N278 N 0.98097 0.51845 -0.05639
 N279 N 0.96729 0.52124 -0.06283
 N280 N 1.01882 0.52674 -0.09559
 N281 N 1.03246 0.53562 -0.12959
 Mn282 Mn 1.00002 0.52807 0.00242
 C283 C 1.04088 0.55260 -0.10926
 C284 C 0.95883 0.51144 -0.10807
 N285 N 0.98116 0.46334 -0.05841
 N286 N 0.96754 0.44686 -0.06553
 N287 N 1.01894 0.49324 -0.09678
 N288 N 1.03278 0.49852 -0.13032
 N289 N 1.01904 0.48238 -0.05909
 N290 N 1.03296 0.47997 -0.06596
 N291 N 0.98105 0.47419 -0.09613
 N292 N 0.96736 0.46539 -0.12996
 Mn293 Mn 1.00018 0.47256 0.00037
 Mn294 Mn 0.99994 0.50047 -0.09653
 Cl295 Cl 1.00011 0.50032 0.00137
 C296 C 0.95904 0.44834 -0.11035
 C297 C 1.04140 0.49010 -0.11066
 N298 N 0.48173 0.46266 0.05785
 N299 N 0.47892 0.44619 0.06448
 N300 N 0.47369 0.49242 0.09672
 N301 N 0.46503 0.49760 0.13021
 N302 N 0.46283 0.48165 0.05858
 N303 N 0.44648 0.47922 0.06510
 N304 N 0.49259 0.47344 0.09597
 N305 N 0.49747 0.46460 0.12958
 C306 C 0.48883 0.44760 0.10943
 C307 C 0.44805 0.48924 0.11006
 N308 N 0.51805 0.53680 0.05877
 N309 N 0.52047 0.55315 0.06526
 N310 N 0.52618 0.50699 0.09611
 N311 N 0.53499 0.50210 0.12981
 N312 N 0.53699 0.51785 0.05807
 N313 N 0.55346 0.52066 0.06485
 N314 N 0.50725 0.52594 0.09684
 N315 N 0.50203 0.53458 0.13024
 Mn316 Mn 0.49993 0.49969 0.09709
 C317 C 0.51041 0.55157 0.11012
 C318 C 0.55201 0.51074 0.10980
 N319 N 0.46277 0.48173 -0.05968
 N320 N 0.44631 0.47896 -0.06638
 N321 N 0.49251 0.47364 -0.09847
 N322 N 0.49770 0.46499 -0.13193
 N323 N 0.48171 0.46278 -0.06041
 N324 N 0.47926 0.44643 -0.06695
 N325 N 0.47358 0.49260 -0.09773
 N326 N 0.46477 0.49751 -0.13137
 Mn327 Mn 0.47206 0.47201 -0.00092
 C328 C 0.44776 0.48889 -0.11130
 C329 C 0.48930 0.44800 -0.11184
 N330 N 0.53692 0.51794 -0.06019
 N331 N 0.55326 0.52032 -0.06655
 N332 N 0.50717 0.52615 -0.09761
 N333 N 0.50230 0.53499 -0.13125
 N334 N 0.51802 0.53693 -0.05948
 N335 N 0.52083 0.55340 -0.06614
 N336 N 0.52607 0.50717 -0.09834
 N337 N 0.53472 0.50193 -0.13169
 Mn338 Mn 0.52769 0.52758 -0.00071
 Mn339 Mn 0.49983 0.49989 -0.09872
 Cl340 Cl 0.49988 0.49979 -0.00082
 C341 C 0.55169 0.51028 -0.11144
 C342 C 0.51094 0.55199 -0.11111
 N343 N 0.46318 -0.01894 0.05861
 N344 N 0.44670 -0.03254 0.06580
 N345 N 0.49310 0.01886 0.09681
 N346 N 0.49839 0.03271 0.13030
 N347 N 0.48223 0.01895 0.05911
 N348 N 0.47982 0.03286 0.06594
 N349 N 0.47405 -0.01902 0.09633
 N350 N 0.46525 -0.03269 0.13023
 C351 C 0.44819 -0.04101 0.11066
 C352 C 0.48996 0.04132 0.11061
 N353 N 0.53733 0.01874 0.05712
 N354 N 0.55381 0.03240 0.06379
 N355 N 0.50756 -0.01914 0.09509
 N356 N 0.50274 -0.03282 0.12883
 N357 N 0.51829 -0.01913 0.05660
 N358 N 0.52108 -0.03281 0.06311
 N359 N 0.52660 0.01874 0.09562
 N360 N 0.53549 0.03239 0.12955
 Mn361 Mn 0.50033 -0.00014 0.09665
 C362 C 0.55246 0.04081 0.10919
 C363 C 0.51129 -0.04125 0.10837
 N364 N 0.48198 0.01905 -0.05913
 N365 N 0.47921 0.03274 -0.06553
 N366 N 0.47373 -0.01880 -0.09815
 N367 N 0.46498 -0.03268 -0.13138
 N368 N 0.46297 -0.01885 -0.05965
 N369 N 0.44660 -0.03277 -0.06568
 N370 N 0.49273 0.01908 -0.09761
 N371 N 0.49756 0.03279 -0.13125
 Mn372 Mn 0.47239 0.00005 -0.00026
 C373 C 0.48902 0.04120 -0.11073
 C374 C 0.44805 -0.04127 -0.11072
 N375 N 0.51807 -0.01899 -0.06166
 N376 N 0.52042 -0.03295 -0.06837
 N377 N 0.52624 0.01899 -0.09879
 N378 N 0.53492 0.03291 -0.13189
 N379 N 0.53712 0.01891 -0.06111
 N380 N 0.55350 0.03277 -0.06756
 N381 N 0.50721 -0.01889 -0.09939
 N382 N 0.50188 -0.03277 -0.13278
 Mn383 Mn 0.52790 -0.00012 -0.00229
 Mn384 Mn 0.49998 0.00010 -0.09916
 Cl385 Cl 0.50015 -0.00003 -0.00125
 C386 C 0.51026 -0.04142 -0.11301
 C387 C 0.55194 0.04137 -0.11197
 C388 C 1.17690 0.50381 0.27895
 C389 C 1.15968 0.49404 0.30138
 C390 C 1.15712 0.48460 0.35023
 C391 C 1.17171 0.48495 0.37684
 C392 C 1.18946 0.49486 0.35529
 C393 C 1.19158 0.50426 0.30530
 C394 C 1.14461 0.49376 0.27457
 C395 C 1.13190 0.49349 0.25257
 C396 C 1.11692 0.49311 0.22733
 C397 C 1.10403 0.49271 0.20620
 C398 C 1.08853 0.49213 0.18147
 C399 C 1.08093 0.50169 0.20516
 C400 C 1.06563 0.50083 0.18190
 C401 C 1.05774 0.49037 0.13468
 C402 C 1.06553 0.48093 0.11088
 C403 C 1.08083 0.48180 0.13420
 H404 H 1.17900 0.51103 0.24068
 H405 H 1.14383 0.47712 0.36833
 H406 H 1.16882 0.47813 0.41592
 H407 H 1.20433 0.51139 0.28416
 H408 H 1.08678 0.50972 0.24175
 H409 H 1.05994 0.50827 0.20102
 H410 H 1.05976 0.47280 0.07443
 H411 H 1.08660 0.47435 0.11555
 C412 C 0.49529 0.66102 0.35398
 C413 C 0.49986 0.66239 0.29830
 C414 C 0.50382 0.67798 0.26911
 C415 C 0.50334 0.69221 0.29559
 C416 C 0.49887 0.69101 0.35167
 C417 C 0.49478 0.67522 0.38052
 C418 C 0.50080 0.64792 0.27151
 C419 C 0.50171 0.63578 0.24963
 C420 C 0.50289 0.62156 0.22463
 C421 C 0.50398 0.60938 0.20382
 C422 C 0.50537 0.59481 0.17961
 C423 C 0.51617 0.59782 0.13321
 C424 C 0.51778 0.58372 0.11037
 C425 C 0.50861 0.56645 0.13381
 C426 C 0.49770 0.56351 0.18021
 C427 C 0.49611 0.57762 0.20296
 H428 H 0.49228 0.64904 0.37702
 H429 H 0.50736 0.67917 0.22597
 H430 H 0.50636 0.70411 0.27215
 H431 H 0.49156 0.67399 0.42389
 H432 H 0.52341 0.61107 0.11483
 H433 H 0.52624 0.58635 0.07455
 H434 H 0.49045 0.55034 0.19903
 H435 H 0.48772 0.57515 0.23890
 C436 C 0.32628 -0.17567 0.27952
 C437 C 0.33479 -0.15875 0.30452
 C438 C 0.32890 -0.15649 0.35584
 C439 C 0.31458 -0.17108 0.38227
 C440 C 0.30577 -0.18840 0.35792
 C441 C 0.31196 -0.19033 0.30578
 C442 C 0.34964 -0.14369 0.27771
 C443 C 0.36210 -0.13102 0.25560
 C444 C 0.37672 -0.11610 0.23012
 C445 C 0.38920 -0.10327 0.20865
 C446 C 0.40409 -0.08785 0.18339
 C447 C 0.40133 -0.08018 0.13638
 C448 C 0.41572 -0.06498 0.11245
 C449 C 0.43305 -0.05726 0.13536
 C450 C 0.43574 -0.06512 0.18234
 C451 C 0.42133 -0.08032 0.20621
 H452 H 0.33065 -0.17753 0.23948
 H453 H 0.33551 -0.14345 0.37580
 H454 H 0.31109 -0.16872 0.42291
 H455 H 0.30545 -0.20296 0.28372
 H456 H 0.38804 -0.08590 0.11838
 H457 H 0.41327 -0.05922 0.07621
 H458 H 0.44895 -0.05947 0.20079
 H459 H 0.42362 -0.08615 0.24260
 C460 C 0.82541 0.50312 0.27168
 C461 C 0.83706 0.49925 0.30113
 C462 C 0.83386 0.49480 0.35686
 C463 C 0.81914 0.49433 0.38319
 C464 C 0.80742 0.49833 0.35407
 C465 C 0.81068 0.50267 0.29795
 C466 C 0.85251 0.50020 0.27457
 C467 C 0.86559 0.50113 0.25284
 C468 C 0.88104 0.50236 0.22797
 C469 C 0.89434 0.50352 0.20719
 C470 C 0.91035 0.50502 0.18295
 C471 C 0.91833 0.49578 0.20598
 C472 C 0.93408 0.49749 0.18317
 C473 C 0.94203 0.50850 0.13703
 C474 C 0.93388 0.51766 0.11392
 C475 C 0.91812 0.51593 0.13681
 H476 H 0.82776 0.50656 0.22850
 H477 H 0.84284 0.49187 0.38010
 H478 H 0.81715 0.49121 0.42660
 H479 H 0.80179 0.50561 0.27431
 H480 H 0.91242 0.48731 0.24171
 H481 H 0.94004 0.49024 0.20173
 H482 H 0.93969 0.52619 0.07831
 H483 H 0.91206 0.52315 0.11868
 C484 C 0.48975 0.33142 0.35755
 C485 C 0.49394 0.33453 0.30164
 C486 C 0.49851 0.32333 0.27229
 C487 C 0.49891 0.30909 0.29877
 C488 C 0.49472 0.30586 0.35500
 C489 C 0.49012 0.31718 0.38410
 C490 C 0.49360 0.34925 0.27457
 C491 C 0.49328 0.36163 0.25238
 C492 C 0.49284 0.37617 0.22693
 C493 C 0.49241 0.38861 0.20565
 C494 C 0.49180 0.40350 0.18076
 C495 C 0.48139 0.40078 0.13370
 C496 C 0.48050 0.41517 0.11021
 C497 C 0.49000 0.43245 0.13364
 C498 C 0.50053 0.43509 0.18066
 C499 C 0.50141 0.42068 0.20408
 H500 H 0.48625 0.34004 0.38071
 H501 H 0.50174 0.32560 0.22895
 H502 H 0.50230 0.30049 0.27516
 H503 H 0.48709 0.31521 0.42758
 H504 H 0.47390 0.38753 0.11533
 H505 H 0.47231 0.41276 0.07392
 H506 H 0.50802 0.44826 0.19950
 H507 H 0.50950 0.42293 0.24052
 C508 C 0.66347 0.17382 0.31871
 C509 C 0.66564 0.15964 0.29957
 C510 C 0.68211 0.16023 0.30684
 C511 C 0.69633 0.17491 0.33340
 C512 C 0.69424 0.18920 0.35303
 C513 C 0.67766 0.18851 0.34524
 C514 C 0.65091 0.14437 0.27316
 C515 C 0.63851 0.13154 0.25142
 C516 C 0.62396 0.11644 0.22638
 C517 C 0.61150 0.10348 0.20534
 C518 C 0.59661 0.08791 0.18062
 C519 C 0.59928 0.08025 0.13326
 C520 C 0.58487 0.06495 0.10978
 C521 C 0.56763 0.05712 0.13351
 C522 C 0.56504 0.06496 0.18086
 C523 C 0.57946 0.08026 0.20427
 H524 H 0.65075 0.17346 0.31349
 H525 H 0.68395 0.14933 0.29210
 H526 H 0.70899 0.17515 0.33819
 H527 H 0.67556 0.19918 0.36054
 H528 H 0.61250 0.08607 0.11462
 H529 H 0.58724 0.05921 0.07324
 H530 H 0.55190 0.05923 0.19992
 H531 H 0.57725 0.08608 0.24092
 C532 C 0.50236 0.17635 -0.27714
 C533 C 0.49385 0.15939 -0.30191
 C534 C 0.48569 0.15710 -0.35312
 C535 C 0.48603 0.17168 -0.37968
 C536 C 0.49463 0.18904 -0.35556
 C537 C 0.50277 0.19102 -0.30353
 C538 C 0.49358 0.14434 -0.27503
 C539 C 0.49331 0.13164 -0.25298
 C540 C 0.49293 0.11667 -0.22768
 C541 C 0.49253 0.10379 -0.20650
 C542 C 0.49195 0.08830 -0.18172
 C543 C 0.50149 0.08069 -0.20538
 C544 C 0.50063 0.06540 -0.18207
 C545 C 0.49018 0.05754 -0.13482
 C546 C 0.48075 0.06534 -0.11105
 C547 C 0.48163 0.08063 -0.13443
 H548 H 0.50861 0.17825 -0.23719
 H549 H 0.47919 0.14403 -0.37292
 H550 H 0.48016 0.16929 -0.42024
 H551 H 0.50896 0.20368 -0.28165
 H552 H 0.50951 0.08651 -0.24200
 H553 H 0.50806 0.05969 -0.20117
 H554 H 0.47263 0.05959 -0.07458
 H555 H 0.47419 0.08641 -0.11579
 C556 C 0.67973 0.50772 -0.27326
 C557 C 0.66274 0.49964 -0.29764
 C558 C 0.66001 0.49099 -0.34826
 C559 C 0.67423 0.49052 -0.37477
 C560 C 0.69165 0.49880 -0.35122
 C561 C 0.69403 0.50733 -0.29958
 C562 C 0.64817 0.50054 -0.27130
 C563 C 0.63598 0.50143 -0.24975
 C564 C 0.62171 0.50261 -0.22508
 C565 C 0.60951 0.50372 -0.20449
 C566 C 0.59493 0.50514 -0.18048
 C567 C 0.57777 0.49593 -0.20402
 C568 C 0.56366 0.49755 -0.18142
 C569 C 0.56657 0.50844 -0.13499
 C570 C 0.58382 0.51757 -0.11138
 C571 C 0.59792 0.51593 -0.13405
 H572 H 0.68196 0.51435 -0.23376
 H573 H 0.64691 0.48481 -0.36777
 H574 H 0.67155 0.48436 -0.41498
 H575 H 0.70673 0.51327 -0.27805
 H576 H 0.57531 0.48755 -0.23997
 H577 H 0.55049 0.49033 -0.20037
 H578 H 0.58643 0.52602 -0.07553
 H579 H 0.61116 0.52312 -0.11553
 C580 C 0.82430 0.32629 -0.27839
 C581 C 0.84120 0.33484 -0.30355
 C582 C 0.84342 0.32897 -0.35495
 C583 C 0.82882 0.31462 -0.38129
 C584 C 0.81153 0.30578 -0.35676
 C585 C 0.80963 0.31195 -0.30455
 C586 C 0.85626 0.34971 -0.27684
 C587 C 0.86894 0.36219 -0.25482
 C588 C 0.88388 0.37682 -0.22942
 C589 C 0.89672 0.38932 -0.20804
 C590 C 0.91216 0.40422 -0.18285
 C591 C 0.91967 0.42145 -0.20572
 C592 C 0.93489 0.43586 -0.18193
 C593 C 0.94278 0.43319 -0.13498
 C594 C 0.93507 0.41588 -0.11202
 C595 C 0.91985 0.40148 -0.13587
 H596 H 0.82246 0.33064 -0.23829
 H597 H 0.85644 0.33561 -0.37505
 H598 H 0.83115 0.31115 -0.42199
 H599 H 0.79702 0.30541 -0.28237
 H600 H 0.91382 0.42372 -0.24209
 H601 H 0.94053 0.44906 -0.20042
 H602 H 0.94085 0.41344 -0.07580
 H603 H 0.91415 0.38820 -0.11783
 C604 C 0.50317 -0.17465 -0.27124
 C605 C 0.49930 -0.16302 -0.30077
 C606 C 0.49485 -0.16625 -0.35650
 C607 C 0.49439 -0.18098 -0.38274
 C608 C 0.49840 -0.19268 -0.35354
 C609 C 0.50273 -0.18939 -0.29741
 C610 C 0.50021 -0.14758 -0.27428
 C611 C 0.50112 -0.13451 -0.25259
 C612 C 0.50233 -0.11907 -0.22774
 C613 C 0.50346 -0.10578 -0.20698
 C614 C 0.50493 -0.08979 -0.18273
 C615 C 0.49566 -0.08183 -0.20576
 C616 C 0.49734 -0.06610 -0.18294
 C617 C 0.50835 -0.05813 -0.13679
 C618 C 0.51753 -0.06626 -0.11368
 C619 C 0.51584 -0.08199 -0.13658
 H620 H 0.50661 -0.17229 -0.22806
 H621 H 0.49191 -0.15729 -0.37981
 H622 H 0.49127 -0.18300 -0.42615
 H623 H 0.50568 -0.19827 -0.27371
 H624 H 0.48719 -0.08775 -0.24149
 H625 H 0.49008 -0.06016 -0.20149
 H626 H 0.52607 -0.06043 -0.07806
 H627 H 0.52308 -0.08804 -0.11845
 C628 C 0.32356 0.49875 -0.27379
 C629 C 0.33476 0.49423 -0.30331
 C630 C 0.33162 0.49008 -0.35925
 C631 C 0.31735 0.49045 -0.38564
 C632 C 0.30602 0.49499 -0.35636
 C633 C 0.30928 0.49915 -0.30011
 C634 C 0.34950 0.49388 -0.27639
 C635 C 0.36188 0.49354 -0.25428
 C636 C 0.37642 0.49309 -0.22890
 C637 C 0.38886 0.49263 -0.20764
 C638 C 0.40372 0.49198 -0.18274
 C639 C 0.40098 0.48155 -0.13571
 C640 C 0.41535 0.48062 -0.11219
 C641 C 0.43263 0.49010 -0.13555
 C642 C 0.43531 0.50065 -0.18254
 C643 C 0.42093 0.50157 -0.20599
 H644 H 0.32585 0.50195 -0.23043
 H645 H 0.34024 0.48662 -0.38254
 H646 H 0.31535 0.48745 -0.42913
 H647 H 0.30068 0.50250 -0.27636
 H648 H 0.38772 0.47407 -0.11739
 H649 H 0.41291 0.47242 -0.07594
 H650 H 0.44849 0.50813 -0.20132
 H651 H 0.42320 0.50968 -0.24239
 C652 C 1.15828 0.68058 -0.31933
 C653 C 1.15952 0.66595 -0.29983
 C654 C 1.17552 0.66563 -0.30657
 C655 C 1.19024 0.67983 -0.33294
 C656 C 1.18928 0.69477 -0.35348
 C657 C 1.17293 0.69482 -0.34583
 C658 C 1.14428 0.65115 -0.27349
 C659 C 1.13147 0.63872 -0.25179
 C660 C 1.11640 0.62413 -0.22677
 C661 C 1.10346 0.61165 -0.20571
 C662 C 1.08792 0.59676 -0.18092
 C663 C 1.08029 0.59941 -0.13350
 C664 C 1.06501 0.58501 -0.10995
 C665 C 1.05717 0.56777 -0.13366
 C666 C 1.06499 0.56518 -0.18109
 C667 C 1.08027 0.57961 -0.20457
 H668 H 1.14597 0.68103 -0.31390
 H669 H 1.17657 0.65426 -0.29200
 H670 H 1.20200 0.67851 -0.33911
 H671 H 1.17145 0.70609 -0.35833
 H672 H 1.08611 0.61263 -0.11486
 H673 H 1.05929 0.58738 -0.07335
 H674 H 1.05926 0.55204 -0.20015
 H675 H 1.08607 0.57740 -0.24128
 C676 C 0.82361 0.49776 -0.27561
 C677 C 0.84058 0.50629 -0.30036
 C678 C 0.84282 0.51435 -0.35173
 C679 C 0.82819 0.51387 -0.37845
 C680 C 0.81083 0.50524 -0.35433
 C681 C 0.80890 0.49720 -0.30214
 C682 C 0.85568 0.50669 -0.27332
 C683 C 0.86840 0.50705 -0.25111
 C684 C 0.88339 0.50751 -0.22563
 C685 C 0.89628 0.50796 -0.20432
 C686 C 0.91178 0.50856 -0.17943
 C687 C 0.91941 0.51885 -0.13206
 C688 C 0.93468 0.51972 -0.10855
 C689 C 0.94251 0.51030 -0.13227
 C690 C 0.93469 0.49988 -0.17961
 C691 C 0.91941 0.49903 -0.20304
 H692 H 0.82175 0.49159 -0.23554
 H693 H 0.85589 0.52087 -0.37153
 H694 H 0.83055 0.51966 -0.41911
 H695 H 0.79624 0.49100 -0.28026
 H696 H 0.91361 0.52628 -0.11345
 H697 H 0.94041 0.52781 -0.07202
 H698 H 0.94041 0.49246 -0.19868
 H699 H 0.91362 0.49102 -0.23971
 C700 C 0.49152 0.31990 -0.27500
 C701 C 0.49956 0.33688 -0.29941
 C702 C 0.50819 0.33960 -0.35008
 C703 C 0.50868 0.32539 -0.37658
 C704 C 0.50044 0.30798 -0.35299
 C705 C 0.49193 0.30561 -0.30131
 C706 C 0.49867 0.35144 -0.27300
 C707 C 0.49780 0.36363 -0.25134
 C708 C 0.49666 0.37791 -0.22652
 C709 C 0.49559 0.39011 -0.20577
 C710 C 0.49423 0.40470 -0.18155
 C711 C 0.48345 0.40171 -0.13510
 C712 C 0.48187 0.41582 -0.11221
 C713 C 0.49107 0.43310 -0.13561
 C714 C 0.50195 0.43602 -0.18206
 C715 C 0.50351 0.42189 -0.20488
 H716 H 0.48492 0.31767 -0.23546
 H717 H 0.51434 0.35269 -0.36962
 H718 H 0.51482 0.32806 -0.41682
 H719 H 0.48602 0.29292 -0.27975
 H720 H 0.47620 0.38845 -0.11673
 H721 H 0.47343 0.41320 -0.07635
 H722 H 0.50922 0.44920 -0.20086
 H723 H 0.51188 0.42436 -0.24084
 C724 C 0.66377 0.17799 -0.30542
 C725 C 0.66407 0.16195 -0.29853
 C726 C 0.67875 0.16066 -0.31792
 C727 C 0.69304 0.17530 -0.34429
 C728 C 0.69284 0.19147 -0.35166
 C729 C 0.67805 0.19266 -0.33183
 C730 C 0.64926 0.14671 -0.27228
 C731 C 0.63689 0.13380 -0.25074
 C732 C 0.62244 0.11852 -0.22603
 C733 C 0.61012 0.10535 -0.20535
 C734 C 0.59543 0.08948 -0.18118
 C735 C 0.59837 0.08160 -0.13499
 C736 C 0.58418 0.06596 -0.11223
 C737 C 0.56689 0.05802 -0.13552
 C738 C 0.56403 0.06608 -0.18169
 C739 C 0.57823 0.08172 -0.20438
 H740 H 0.65248 0.17914 -0.29050
 H741 H 0.67909 0.14829 -0.31303
 H742 H 0.70409 0.17386 -0.35981
 H743 H 0.67759 0.20498 -0.33634
 H744 H 0.61163 0.08749 -0.11673
 H745 H 0.58676 0.06006 -0.07660
 H746 H 0.55084 0.06027 -0.20040
 H747 H 0.57581 0.08770 -0.24015
 C748 C 1.16571 0.50491 -0.35616
 C749 C 1.16252 0.50043 -0.30045
 C750 C 1.17415 0.49650 -0.27114
 C751 C 1.18884 0.49691 -0.29753
 C752 C 1.19210 0.50127 -0.35364
 C753 C 1.18040 0.50534 -0.38262
 C754 C 1.14712 0.49956 -0.27372
 C755 C 1.13410 0.49870 -0.25181
 C756 C 1.11872 0.49756 -0.22670
 C757 C 1.10548 0.49649 -0.20571
 C758 C 1.08956 0.49511 -0.18119
 C759 C 1.08161 0.50440 -0.20415
 C760 C 1.06595 0.50282 -0.18106
 C761 C 1.05805 0.49190 -0.13471
 C762 C 1.06617 0.48270 -0.11168
 C763 C 1.08184 0.48430 -0.13485
 H764 H 1.15675 0.50790 -0.37930
 H765 H 1.17181 0.49304 -0.22797
 H766 H 1.19772 0.49392 -0.27399
 H767 H 1.18238 0.50849 -0.42601
 H768 H 1.08747 0.51280 -0.24003
 H769 H 1.06000 0.51009 -0.19958
 H770 H 1.06040 0.47423 -0.07591
 H771 H 1.08787 0.47705 -0.11676
 C772 C 0.51403 0.67110 -0.35406
 C773 C 0.50579 0.66514 -0.30292
 C774 C 0.49715 0.67348 -0.27822
 C775 C 0.49668 0.68770 -0.30459
 C776 C 0.50490 0.69396 -0.35654
 C777 C 0.51363 0.68532 -0.38060
 C778 C 0.50613 0.65038 -0.27604
 C779 C 0.50646 0.63799 -0.25396
 C780 C 0.50690 0.62344 -0.22861
 C781 C 0.50734 0.61099 -0.20737
 C782 C 0.50797 0.59610 -0.18250
 C783 C 0.49837 0.57891 -0.20582
 C784 C 0.49924 0.56451 -0.18239
 C785 C 0.50977 0.56715 -0.13534
 C786 C 0.51927 0.58442 -0.11192
 C787 C 0.51837 0.59881 -0.13542
 H788 H 0.52063 0.66461 -0.37381
 H789 H 0.49085 0.66906 -0.23833
 H790 H 0.49039 0.69409 -0.28274
 H791 H 0.51956 0.68886 -0.42110
 H792 H 0.49028 0.57666 -0.24226
 H793 H 0.49176 0.55134 -0.20123
 H794 H 0.52745 0.58684 -0.07562
 H795 H 0.52586 0.61206 -0.11704
 C796 C 0.33966 -0.16859 -0.34758
 C797 C 0.33691 -0.16282 -0.29668
 C798 C 0.31992 -0.17185 -0.27218
 C799 C 0.30565 -0.18649 -0.29866
 C800 C 0.30804 -0.19247 -0.35061
 C801 C 0.32546 -0.18323 -0.37425
 C802 C 0.35144 -0.14738 -0.27018
 C803 C 0.36360 -0.13432 -0.24851
 C804 C 0.37785 -0.11889 -0.22376
 C805 C 0.39005 -0.10560 -0.20316
 C806 C 0.40466 -0.08961 -0.17925
 C807 C 0.40174 -0.08181 -0.13269
 C808 C 0.41589 -0.06607 -0.11016
 C809 C 0.43311 -0.05797 -0.13406
 C810 C 0.43595 -0.06595 -0.18063
 C811 C 0.42180 -0.08167 -0.20308
 H812 H 0.35275 -0.16157 -0.36717
 H813 H 0.31768 -0.16758 -0.23247
 H814 H 0.29295 -0.19336 -0.27705
 H815 H 0.32815 -0.18658 -0.41465
 H816 H 0.38853 -0.08783 -0.11394
 H817 H 0.41333 -0.06024 -0.07420
 H818 H 0.44909 -0.06003 -0.19982
 H819 H 0.42421 -0.08760 -0.23913
 C820 C 0.50165 -0.17512 0.27186
 C821 C 0.50605 -0.15942 0.30130
 C822 C 0.51000 -0.15844 0.35737
 C823 C 0.50953 -0.17309 0.38397
 C824 C 0.50510 -0.18894 0.35478
 C825 C 0.50116 -0.18980 0.29839
 C826 C 0.50648 -0.14433 0.27415
 C827 C 0.50685 -0.13161 0.25187
 C828 C 0.50733 -0.11663 0.22630
 C829 C 0.50778 -0.10375 0.20492
 C830 C 0.50839 -0.08826 0.17995
 C831 C 0.51868 -0.08066 0.13256
 C832 C 0.51955 -0.06540 0.10898
 C833 C 0.51014 -0.05755 0.13265
 C834 C 0.49973 -0.06535 0.18001
 C835 C 0.49888 -0.08061 0.20351
 H836 H 0.49862 -0.17601 0.22840
 H837 H 0.51336 -0.14638 0.38060
 H838 H 0.51237 -0.17211 0.42756
 H839 H 0.49791 -0.20174 0.27470
 H840 H 0.52610 -0.08648 0.11400
 H841 H 0.52765 -0.05969 0.07244
 H842 H 0.49232 -0.05961 0.19904
 H843 H 0.49087 -0.08638 0.24019
 C844 C 0.33851 0.50420 0.35454
 C845 C 0.33718 0.49965 0.29885
 C846 C 0.32161 0.49574 0.26954
 C847 C 0.30738 0.49626 0.29591
 C848 C 0.30855 0.50070 0.35200
 C849 C 0.32431 0.50474 0.38098
 C850 C 0.35166 0.49870 0.27212
 C851 C 0.36380 0.49779 0.25023
 C852 C 0.37802 0.49662 0.22518
 C853 C 0.39020 0.49553 0.20428
 C854 C 0.40478 0.49417 0.17996
 C855 C 0.40177 0.48341 0.13344
 C856 C 0.41587 0.48183 0.11047
 C857 C 0.43316 0.49100 0.13388
 C858 C 0.43609 0.50186 0.18039
 C859 C 0.42197 0.50342 0.20328
 H860 H 0.35047 0.50718 0.37768
 H861 H 0.32045 0.49223 0.22639
 H862 H 0.29551 0.49328 0.27238
 H863 H 0.32551 0.50795 0.42436
 H864 H 0.38851 0.47618 0.11507
 H865 H 0.41325 0.47341 0.07456
 H866 H 0.44927 0.50911 0.19920
 H867 H 0.42445 0.51178 0.23930
 C868 C 1.16079 0.67895 0.31814
 C869 C 1.16209 0.66427 0.29883
 C870 C 1.17812 0.66395 0.30592
 C871 C 1.19277 0.67822 0.33246
 C872 C 1.19156 0.69301 0.35222
 C873 C 1.17541 0.69322 0.34463
 C874 C 1.14687 0.64946 0.27247
 C875 C 1.13397 0.63709 0.25085
 C876 C 1.11871 0.62265 0.22607
 C877 C 1.10554 0.61033 0.20534
 C878 C 1.08968 0.59564 0.18114
 C879 C 1.08179 0.59857 0.13496
 C880 C 1.06615 0.58438 0.11220
 C881 C 1.05822 0.56709 0.13547
 C882 C 1.06630 0.56423 0.18162
 C883 C 1.08194 0.57844 0.20430
 H884 H 1.14843 0.67930 0.31309
 H885 H 1.17928 0.65266 0.29107
 H886 H 1.20508 0.67776 0.33714
 H887 H 1.17396 0.70427 0.36010
 H888 H 1.08767 0.61183 0.11672
 H889 H 1.06024 0.58695 0.07658
 H890 H 1.06051 0.55105 0.20031
 H891 H 1.08793 0.57603 0.24007
 C892 C 0.49637 0.17410 0.27065
 C893 C 0.50029 0.16248 0.30003
 C894 C 0.50475 0.16568 0.35576
 C895 C 0.50518 0.18037 0.38214
 C896 C 0.50112 0.19206 0.35309
 C897 C 0.49677 0.18880 0.29696
 C898 C 0.49943 0.14707 0.27337
 C899 C 0.49857 0.13405 0.25151
 C900 C 0.49743 0.11867 0.22644
 C901 C 0.49636 0.10542 0.20549
 C902 C 0.49499 0.08950 0.18101
 C903 C 0.50428 0.08156 0.20398
 C904 C 0.50270 0.06590 0.18093
 C905 C 0.49177 0.05797 0.13461
 C906 C 0.48256 0.06608 0.11156
 C907 C 0.48416 0.08175 0.13469
 H908 H 0.49292 0.17175 0.22747
 H909 H 0.50773 0.15673 0.37896
 H910 H 0.50831 0.18237 0.42555
 H911 H 0.49379 0.19767 0.27337
 H912 H 0.51269 0.08743 0.23985
 H913 H 0.50998 0.05996 0.19946
 H914 H 0.47408 0.06030 0.07581
 H915 H 0.47690 0.08778 0.11659
 C916 C 0.67613 0.50094 0.27382
 C917 C 0.66492 0.50550 0.30315
 C918 C 0.66801 0.50966 0.35910
 C919 C 0.68223 0.50925 0.38569
 C920 C 0.69357 0.50467 0.35662
 C921 C 0.69036 0.50051 0.30035
 C922 C 0.65022 0.50588 0.27602
 C923 C 0.63787 0.50623 0.25373
 C924 C 0.62335 0.50669 0.22815
 C925 C 0.61093 0.50714 0.20673
 C926 C 0.59606 0.50776 0.18168
 C927 C 0.59882 0.51818 0.13461
 C928 C 0.58445 0.51908 0.11094
 C929 C 0.56715 0.50956 0.13419
 C930 C 0.56446 0.49903 0.18122
 C931 C 0.57885 0.49815 0.20481
 H932 H 0.67388 0.49774 0.23046
 H933 H 0.65939 0.51315 0.38225
 H934 H 0.68419 0.51226 0.42919
 H935 H 0.69897 0.49713 0.27674
 H936 H 0.61209 0.52568 0.11637
 H937 H 0.58690 0.52727 0.07466
 H938 H 0.55127 0.49153 0.19992
 H939 H 0.57656 0.49005 0.24124
 C940 C 0.82581 0.32188 0.26941
 C941 C 0.83758 0.33741 0.29875
 C942 C 0.83452 0.33873 0.35460
 C943 C 0.81983 0.32454 0.38115
 C944 C 0.80800 0.30880 0.35214
 C945 C 0.81112 0.30766 0.29589
 C946 C 0.85299 0.35186 0.27194
 C947 C 0.86603 0.36397 0.25002
 C948 C 0.88144 0.37817 0.22500
 C949 C 0.89470 0.39033 0.20420
 C950 C 0.91066 0.40492 0.18011
 C951 C 0.91842 0.40197 0.13350
 C952 C 0.93413 0.41610 0.11080
 C953 C 0.94225 0.43334 0.13459
 C954 C 0.93431 0.43621 0.18120
 C955 C 0.91862 0.42208 0.20381
 H956 H 0.82804 0.32073 0.22614
 H957 H 0.84358 0.35066 0.37776
 H958 H 0.81795 0.32572 0.42464
 H959 H 0.80214 0.29581 0.27233
 H960 H 0.91238 0.38874 0.11484
 H961 H 0.93994 0.41352 0.07481
 H962 H 0.94025 0.44936 0.20030
 H963 H 0.91273 0.42451 0.23990
   
