data_POSCAR
  _audit_creation_date              2014-09-24
  _audit_creation_method            'ToBaCCo'
  _symmetry_space_group_name_H-M    'P1'
  _symmetry_Int_Tables_number       1
  _symmetry_cell_setting            triclinic
  loop_
  _symmetry_equiv_pos_as_xyz
 x,y,z
_cell_length_a 46.0293
_cell_length_b 46.1302
_cell_length_c 29.2480
_cell_angle_alpha 90.041800
_cell_angle_beta 89.884800
_cell_angle_gamma 89.365800
loop_
  _atom_site_label
  _atom_site_type_symbol
  _atom_site_fract_x
  _atom_site_fract_y
  _atom_site_fract_z
C1 C -0.02677 0.27219 0.02664
 C2 C -0.02774 0.27298 -0.02232
 C3 C -0.00121 0.27537 -0.04630
 C4 C 0.02610 0.27539 -0.02455
 C5 C 0.02685 0.27252 0.02390
 C6 C 0.00058 0.27099 0.04820
 H7 H 0.00162 0.26945 0.08517
 H8 H -0.00172 0.27681 -0.08325
 C9 C 0.47311 0.78131 0.52162
 C10 C 0.47318 0.78094 0.47311
 C11 C 0.49998 0.78086 0.45003
 C12 C 0.52650 0.78087 0.47359
 C13 C 0.52641 0.78072 0.52208
 C14 C 0.49963 0.78107 0.54516
 H15 H 0.49935 0.78073 0.58225
 H16 H 0.50029 0.78038 0.41295
 C17 C 1.02775 0.72499 0.02102
 C18 C 1.02650 0.72459 -0.02768
 C19 C 0.99945 0.72448 -0.04975
 C20 C 0.97285 0.72469 -0.02566
 C21 C 0.97414 0.72388 0.02302
 C22 C 1.00118 0.72409 0.04508
 H23 H 1.00113 0.72394 0.08215
 H24 H 0.99950 0.72470 -0.08683
 C25 C 0.52674 0.22074 0.52713
 C26 C 0.52724 0.22122 0.47864
 C27 C 0.50070 0.22128 0.45499
 C28 C 0.47392 0.22115 0.47796
 C29 C 0.47340 0.22121 0.52648
 C30 C 0.49996 0.22086 0.55011
 H31 H 0.49989 0.22103 0.58720
 H32 H 0.50079 0.22179 0.41791
 C33 C 0.72776 -0.02896 0.03061
 C34 C 0.72628 -0.02815 -0.01812
 C35 C 0.72581 -0.00138 -0.04075
 C36 C 0.72653 0.02512 -0.01715
 C37 C 0.72694 0.02460 0.03135
 C38 C 0.72764 -0.00218 0.05416
 H39 H 0.72829 -0.00181 0.09120
 H40 H 0.72554 -0.00139 -0.07783
 C41 C 0.22328 0.47521 0.51804
 C42 C 0.22343 0.47472 0.46951
 C43 C 0.22329 0.50120 0.44578
 C44 C 0.22315 0.52792 0.46866
 C45 C 0.22342 0.52839 0.51714
 C46 C 0.22346 0.50194 0.54091
 H47 H 0.22388 0.50208 0.57800
 H48 H 0.22357 0.50111 0.40869
 C49 C 0.26811 1.02856 0.02065
 C50 C 0.26976 1.02911 -0.02835
 C51 C 0.27155 1.00226 -0.05177
 C52 C 0.26960 0.97541 -0.02912
 C53 C 0.26711 0.97529 0.01914
 C54 C 0.26573 1.00160 0.04278
 H55 H 0.26469 1.00076 0.07982
 H56 H 0.27245 1.00211 -0.08877
 C57 C 0.77914 0.52455 0.53110
 C58 C 0.77905 0.52478 0.48261
 C59 C 0.77907 0.49825 0.45905
 C60 C 0.77908 0.47162 0.48212
 C61 C 0.77876 0.47133 0.53064
 C62 C 0.77886 0.49791 0.55420
 H63 H 0.77842 0.49794 0.59128
 H64 H 0.77871 0.49827 0.42196
 O65 O 0.23020 0.26477 0.18830
 O66 O 0.29768 0.25644 0.25502
 O67 O 0.27194 0.22682 0.19141
 O68 O 0.25664 0.29551 0.25130
 O69 O 0.23388 0.27166 0.30592
 O70 O 0.24632 0.20344 0.24334
 O71 O 0.27381 0.23123 0.30686
 O72 O 0.20571 0.24326 0.24353
 Cu73 Cu 0.26648 0.26339 0.21618
 Cu74 Cu 0.23748 0.23505 0.28028
 C75 C 0.20649 0.25544 0.20466
 C76 C 0.29725 0.24204 0.29202
 C77 C 0.26140 0.20350 0.20691
 C78 C 0.24315 0.29522 0.28921
 O79 O 0.75862 0.79356 0.24853
 O80 O 0.76996 0.72615 0.31355
 O81 O 0.79849 0.75337 0.24950
 O82 O 0.72973 0.76647 0.31114
 O83 O 0.70622 0.74218 0.25789
 O84 O 0.77517 0.72778 0.19760
 O85 O 0.74577 0.70177 0.26119
 O86 O 0.73614 0.76891 0.19458
 Cu87 Cu 0.76659 0.76227 0.28609
 Cu88 Cu 0.73842 0.73274 0.22247
 C89 C 0.74573 0.79265 0.21025
 C90 C 0.75960 0.70256 0.29868
 C91 C 0.79851 0.73841 0.21302
 C92 C 0.70627 0.75658 0.29491
 O93 O 0.74432 0.29576 0.25946
 O94 O 0.73335 0.22787 0.19520
 O95 O 0.70521 0.25582 0.25920
 O96 O 0.77286 0.26840 0.19496
 O97 O 0.79766 0.24406 0.24721
 O98 O 0.73009 0.23176 0.31167
 O99 O 0.75841 0.20385 0.24750
 O100 O 0.76975 0.27164 0.31124
 Cu101 Cu 0.73650 0.26434 0.22181
 Cu102 Cu 0.76643 0.23535 0.28462
 C103 C 0.75886 0.29520 0.29634
 C104 C 0.74398 0.20429 0.21054
 C105 C 0.70619 0.24186 0.29656
 C106 C 0.79679 0.25846 0.21025
 O107 O 0.20481 0.75671 0.23833
 O108 O 0.27189 0.76909 0.30348
 O109 O 0.24362 0.79703 0.23943
 O110 O 0.23266 0.72868 0.30154
 O111 O 0.25801 0.70517 0.24878
 O112 O 0.26979 0.77382 0.18732
 O113 O 0.29722 0.74523 0.25109
 O114 O 0.23029 0.73410 0.18475
 Cu115 Cu 0.23578 0.76526 0.27607
 Cu116 Cu 0.26636 0.73717 0.21270
 C117 C 0.20619 0.74359 0.20022
 C118 C 0.29592 0.75910 0.28856
 C119 C 0.25838 0.79705 0.20269
 C120 C 0.24343 0.70529 0.28571
 O121 O 0.77159 0.26432 0.81220
 O122 O 0.70343 0.25438 0.74863
 O123 O 0.73157 0.22615 0.81280
 O124 O 0.74374 0.29354 0.74891
 O125 O 0.76711 0.26882 0.69529
 O126 O 0.75527 0.20133 0.75960
 O127 O 0.72722 0.22908 0.69612
 O128 O 0.79562 0.24051 0.75822
 Cu129 Cu 0.73510 0.26217 0.78582
 Cu130 Cu 0.76370 0.23250 0.72189
 C131 C 0.79512 0.25382 0.79622
 C132 C 0.70373 0.23989 0.71167
 C133 C 0.74171 0.20238 0.79743
 C134 C 0.75739 0.29266 0.71118
 O135 O 0.29462 0.74621 0.73958
 O136 O 0.22590 0.73225 0.79979
 O137 O 0.25568 0.70611 0.73635
 O138 O 0.26425 0.77312 0.80316
 O139 O 0.24202 0.79814 0.74888
 O140 O 0.23098 0.73065 0.68420
 O141 O 0.20225 0.75838 0.74833
 O142 O 0.27075 0.77047 0.68616
 Cu143 Cu 0.26258 0.73702 0.77508
 Cu144 Cu 0.23404 0.76683 0.71154
 C145 C 0.29435 0.76042 0.70241
 C146 C 0.20242 0.74317 0.78454
 C147 C 0.24172 0.70698 0.69898
 C148 C 0.25472 0.79702 0.78730
 O149 O 0.25569 0.29875 0.74189
 O150 O 0.26350 0.23073 0.80738
 O151 O 0.29428 0.25724 0.74467
 O152 O 0.22631 0.27326 0.80649
 O153 O 0.20176 0.24906 0.75434
 O154 O 0.26962 0.23500 0.69052
 O155 O 0.24048 0.20719 0.75279
 O156 O 0.22987 0.27563 0.69005
 Cu157 Cu 0.26250 0.26728 0.78040
 Cu158 Cu 0.23298 0.23935 0.71662
 C159 C 0.24118 0.29875 0.70497
 C160 C 0.25332 0.20740 0.79114
 C161 C 0.29352 0.24381 0.70680
 C162 C 0.20250 0.26368 0.79117
 O163 O 0.74241 0.70370 0.74825
 O164 O 0.72890 0.77262 0.80881
 O165 O 0.70247 0.74385 0.74498
 O166 O 0.76957 0.73307 0.81179
 O167 O 0.79464 0.75524 0.75789
 O168 O 0.72738 0.76769 0.69276
 O169 O 0.75495 0.79561 0.75700
 O170 O 0.76716 0.72692 0.69513
 Cu171 Cu 0.73337 0.73593 0.78377
 Cu172 Cu 0.76346 0.76372 0.72031
 C173 C 0.75688 0.70361 0.71123
 C174 C 0.73992 0.79578 0.79348
 C175 C 0.70354 0.75771 0.70753
 C176 C 0.79351 0.74235 0.79616
 C177 C 0.27302 0.10034 0.10483
 N178 N 0.28752 0.09976 0.06439
 N179 N 0.28634 0.07653 0.03736
 C180 C 0.27014 0.05321 0.04918
 N181 N 0.25675 0.05351 0.09069
 N182 N 0.25797 0.07664 0.11778
 C183 C 0.27198 0.12667 0.13292
 N184 N 0.25669 0.12707 0.17266
 N185 N 0.25383 0.15144 0.19671
 C186 C 0.26609 0.17633 0.18184
 N187 N 0.28163 0.17590 0.14232
 N188 N 0.28451 0.15149 0.11826
 C189 C 0.77211 0.59949 0.61181
 N190 N 0.75222 0.57809 0.61525
 N191 N 0.75451 0.55435 0.58944
 C192 C 0.77670 0.55118 0.55911
 N193 N 0.79709 0.57215 0.55680
 N194 N 0.79468 0.59601 0.58230
 C195 C 0.76885 0.62624 0.63870
 N196 N 0.78464 0.65002 0.62820
 N197 N 0.78095 0.67463 0.65149
 C198 C 0.76150 0.67628 0.68638
 N199 N 0.74588 0.65243 0.69714
 N200 N 0.74940 0.62789 0.67359
 C201 C 0.73499 0.89550 0.10691
 N202 N 0.73427 0.92179 0.12765
 N203 N 0.73188 0.94596 0.10298
 C204 C 0.73025 0.94502 0.05649
 N205 N 0.73145 0.91854 0.03617
 N206 N 0.73358 0.89431 0.06070
 C207 C 0.73736 0.86880 0.13394
 N208 N 0.73231 0.84262 0.11442
 N209 N 0.73461 0.81835 0.13887
 C210 C 0.74226 0.81938 0.18363
 N211 N 0.74736 0.84555 0.20313
 N212 N 0.74480 0.86984 0.17878
 C213 C 0.22919 0.40126 0.60080
 N214 N 0.25022 0.42165 0.60173
 N215 N 0.24835 0.44502 0.57510
 C216 C 0.22546 0.44880 0.54641
 N217 N 0.20398 0.42888 0.54660
 N218 N 0.20597 0.40537 0.57291
 C219 C 0.23180 0.37494 0.62881
 N220 N 0.21474 0.35174 0.62031
 N221 N 0.21768 0.32752 0.64473
 C222 C 0.23759 0.32570 0.67882
 N223 N 0.25449 0.34898 0.68759
 N224 N 0.25174 0.37312 0.66287
 C225 C 0.90047 0.27384 0.10990
 N226 N 0.92523 0.26017 0.12341
 N227 N 0.94876 0.26019 0.09686
 C228 C 0.94843 0.27347 0.05533
 N229 N 0.92405 0.28846 0.04315
 N230 N 0.90045 0.28842 0.06963
 C231 C 0.87376 0.27135 0.13717
 N232 N 0.84824 0.28276 0.12191
 N233 N 0.82372 0.27891 0.14537
 C234 C 0.82383 0.26345 0.18487
 N235 N 0.84938 0.25224 0.20026
 N236 N 0.87387 0.25606 0.17680
 C237 C 0.39816 0.77489 0.60230
 N238 N 0.41953 0.75445 0.60470
 N239 N 0.44323 0.75651 0.57876
 C240 C 0.44639 0.77901 0.54934
 N241 N 0.42545 0.79994 0.54807
 N242 N 0.40160 0.79775 0.57368
 C243 C 0.37150 0.77191 0.62942
 N244 N 0.34746 0.78796 0.61934
 N245 N 0.32291 0.78444 0.64282
 C246 C 0.32161 0.76494 0.67748
 N247 N 0.34573 0.74908 0.68784
 N248 N 0.37019 0.75241 0.66408
 C249 C 0.10357 0.73196 0.09668
 N250 N 0.07735 0.73048 0.11764
 N251 N 0.05314 0.72812 0.09314
 C252 C 0.05392 0.72730 0.04659
 N253 N 0.08033 0.72922 0.02602
 N254 N 0.10464 0.73131 0.05039
 C255 C 0.13027 0.73449 0.12368
 N256 N 0.15669 0.72990 0.10409
 N257 N 0.18091 0.73238 0.12862
 C258 C 0.17956 0.73977 0.17352
 N259 N 0.15314 0.74441 0.19307
 N260 N 0.12893 0.74166 0.16865
 C261 C 0.60080 0.22671 0.60944
 N262 N 0.57973 0.24750 0.61096
 N263 N 0.55630 0.24559 0.58451
 C264 C 0.55314 0.22289 0.55543
 N265 N 0.57376 0.20163 0.55503
 N266 N 0.59733 0.20366 0.58116
 C267 C 0.62720 0.22947 0.63709
 N268 N 0.65101 0.21283 0.62793
 N269 N 0.67534 0.21605 0.65190
 C270 C 0.67666 0.23585 0.68617
 N271 N 0.65277 0.25232 0.69562
 N272 N 0.62852 0.24929 0.67136
 C273 C 0.73245 0.10084 0.90324
 N274 N 0.74103 0.10095 0.94756
 N275 N 0.73932 0.07701 0.97280
 C276 C 0.72831 0.05221 0.95517
 N277 N 0.72003 0.05219 0.91055
 N278 N 0.72215 0.07597 0.88503
 C279 C 0.73434 0.12716 0.87551
 N280 N 0.73710 0.12547 0.82936
 N281 N 0.73935 0.14946 0.80430
 C282 C 0.73839 0.17595 0.82449
 N283 N 0.73534 0.17763 0.87058
 N284 N 0.73354 0.15365 0.89569
 C285 C 0.22956 0.60206 0.38671
 N286 N 0.20656 0.59874 0.41530
 N287 N 0.20438 0.57514 0.44126
 C288 C 0.22542 0.55431 0.44037
 N289 N 0.24806 0.55732 0.41097
 N290 N 0.25012 0.58079 0.38469
 C291 C 0.23251 0.62854 0.35934
 N292 N 0.25233 0.62991 0.32498
 N293 N 0.25553 0.65424 0.30102
 C294 C 0.23921 0.67814 0.31086
 N295 N 0.21940 0.67676 0.34521
 N296 N 0.21601 0.65237 0.36888
 C297 C 0.26408 0.89958 0.89111
 N298 N 0.25433 0.89992 0.93484
 N299 N 0.25589 0.92395 0.95988
 C300 C 0.26788 0.94843 0.94276
 N301 N 0.27727 0.94809 0.89862
 N302 N 0.27531 0.92418 0.87322
 C303 C 0.26237 0.87298 0.86385
 N304 N 0.26054 0.87417 0.81757
 N305 N 0.25816 0.84992 0.79311
 C306 C 0.25801 0.82365 0.81402
 N307 N 0.26017 0.82246 0.86024
 N308 N 0.26210 0.84672 0.88473
 C309 C 0.77237 0.39754 0.39996
 N310 N 0.79560 0.40094 0.42792
 N311 N 0.79785 0.42449 0.45403
 C312 C 0.77665 0.44518 0.45394
 N313 N 0.75376 0.44207 0.42519
 N314 N 0.75163 0.41867 0.39875
 C315 C 0.76944 0.37122 0.37213
 N316 N 0.74953 0.37006 0.33799
 N317 N 0.74642 0.34595 0.31342
 C318 C 0.76290 0.32205 0.32239
 N319 N 0.78279 0.32321 0.35655
 N320 N 0.78609 0.34739 0.38084
 C321 C 0.09956 0.27907 0.89386
 N322 N 0.07380 0.27043 0.87651
 N323 N 0.05014 0.26997 0.90271
 C324 C 0.05121 0.27772 0.94758
 N325 N 0.07688 0.28745 0.96424
 N326 N 0.10061 0.28799 0.93805
 C327 C 0.12609 0.27691 0.86606
 N328 N 0.15201 0.28569 0.88288
 N329 N 0.17631 0.28194 0.85863
 C330 C 0.17557 0.26913 0.81683
 N331 N 0.14963 0.26052 0.79990
 N332 N 0.12534 0.26437 0.82407
 C333 C 0.60186 0.77300 0.39371
 N334 N 0.58041 0.75315 0.39063
 N335 N 0.55656 0.75569 0.41624
 C336 C 0.55331 0.77811 0.44599
 N337 N 0.57434 0.79847 0.44792
 N338 N 0.59833 0.79580 0.42263
 C339 C 0.62870 0.76947 0.36700
 N340 N 0.65264 0.78506 0.37744
 N341 N 0.67733 0.78107 0.35429
 C342 C 0.67889 0.76153 0.31962
 N343 N 0.65488 0.74612 0.30891
 N344 N 0.63027 0.74993 0.33232
 C345 C 0.89667 0.73105 0.89910
 N346 N 0.92290 0.72989 0.87799
 N347 N 0.94724 0.72771 0.90234
 C348 C 0.94657 0.72676 0.94889
 N349 N 0.92015 0.72837 0.96960
 N350 N 0.89572 0.73028 0.94539
 C351 C 0.86983 0.73343 0.87227
 N352 N 0.87088 0.74051 0.82728
 N353 N 0.84654 0.74318 0.80302
 C354 C 0.82027 0.73857 0.82275
 N355 N 0.81921 0.73126 0.86768
 N356 N 0.84356 0.72884 0.89205
 C357 C 0.39980 0.22821 0.39571
 N358 N 0.40382 0.20473 0.42303
 N359 N 0.42741 0.20235 0.44914
 C360 C 0.44750 0.22367 0.44968
 N361 N 0.44380 0.24681 0.42155
 N362 N 0.42036 0.24907 0.39510
 C363 C 0.37343 0.23128 0.36792
 N364 N 0.37188 0.25133 0.33403
 N365 N 0.34771 0.25454 0.30946
 C366 C 0.32413 0.23801 0.31822
 N367 N 0.32566 0.21799 0.35215
 N368 N 0.34992 0.21459 0.37643
 C369 C 0.72828 0.89873 0.89675
 N370 N 0.70601 0.90284 0.92668
 N371 N 0.70512 0.92618 0.95361
 C372 C 0.72682 0.94589 0.95222
 N373 N 0.74870 0.94209 0.92154
 N374 N 0.74944 0.91893 0.89436
 C375 C 0.73013 0.87247 0.86843
 N376 N 0.74958 0.87065 0.83356
 N377 N 0.75227 0.84640 0.80908
 C378 C 0.73577 0.82299 0.81883
 N379 N 0.71625 0.82482 0.85362
 N380 N 0.71339 0.84917 0.87787
 C381 C 0.22972 0.39868 0.39059
 N382 N 0.21440 0.39891 0.43026
 N383 N 0.21239 0.42295 0.45535
 C384 C 0.22577 0.44762 0.44213
 N385 N 0.24085 0.44739 0.40211
 N386 N 0.24285 0.42339 0.37688
 C387 C 0.23243 0.37202 0.36344
 N388 N 0.24717 0.37189 0.32318
 N389 N 0.25024 0.34749 0.29916
 C390 C 0.23871 0.32235 0.31457
 N391 N 0.22389 0.32251 0.35474
 N392 N 0.22077 0.34691 0.37870
 C393 C 0.26103 0.10373 0.89337
 N394 N 0.25327 0.10376 0.93806
 N395 N 0.25570 0.07972 0.96299
 C396 C 0.26679 0.05478 0.94495
 N397 N 0.27367 0.05472 0.89960
 N398 N 0.27087 0.07864 0.87434
 C399 C 0.25924 0.13057 0.86650
 N400 N 0.25660 0.12974 0.82029
 N401 N 0.25474 0.15423 0.79621
 C402 C 0.25597 0.18040 0.81741
 N403 N 0.25888 0.18120 0.86355
 N404 N 0.26030 0.15674 0.88767
 C405 C 0.77221 0.60027 0.40297
 N406 N 0.79011 0.59940 0.43974
 N407 N 0.79233 0.57551 0.46509
 C408 C 0.77652 0.55169 0.45507
 N409 N 0.75893 0.55248 0.41783
 N410 N 0.75676 0.57632 0.39232
 C411 C 0.76939 0.62673 0.37544
 N412 N 0.75309 0.62694 0.33681
 N413 N 0.75018 0.65106 0.31216
 C414 C 0.76337 0.67587 0.32533
 N415 N 0.77969 0.67567 0.36395
 N416 N 0.78269 0.65151 0.38851
 C417 C 0.09940 0.72879 0.88666
 N418 N 0.07847 0.74972 0.88540
 N419 N 0.05532 0.74824 0.91265
 C420 C 0.05229 0.72582 0.94226
 N421 N 0.07274 0.70436 0.94245
 N422 N 0.09604 0.70598 0.91546
 C423 C 0.12570 0.73146 0.85857
 N424 N 0.14958 0.71490 0.86741
 N425 N 0.17395 0.71844 0.84349
 C426 C 0.17524 0.73851 0.80962
 N427 N 0.15126 0.75485 0.80044
 N428 N 0.12697 0.75148 0.82463
 C429 C 0.60336 0.22839 0.39980
 N430 N 0.57834 0.24181 0.38675
 N431 N 0.55432 0.23951 0.41193
 C432 C 0.55436 0.22382 0.45126
 N433 N 0.57934 0.21015 0.46383
 N434 N 0.60340 0.21246 0.43877
 C435 C 0.62998 0.23134 0.37250
 N436 N 0.65539 0.21922 0.38681
 N437 N 0.67966 0.22237 0.36246
 C438 C 0.67936 0.23770 0.32285
 N439 N 0.65393 0.24973 0.30846
 N440 N 0.62969 0.24662 0.33285
 C441 C 0.89803 0.26206 0.89959
 N442 N 0.92264 0.27256 0.88063
 N443 N 0.94637 0.27604 0.90592
 C444 C 0.94664 0.26920 0.95124
 N445 N 0.92222 0.25744 0.96927
 N446 N 0.89829 0.25434 0.94428
 C447 C 0.87138 0.25977 0.87255
 N448 N 0.84502 0.26087 0.89337
 N449 N 0.82072 0.25943 0.86886
 C450 C 0.82193 0.25650 0.82272
 N451 N 0.84829 0.25518 0.80189
 N452 N 0.87260 0.25708 0.82635
 C453 C 0.39792 0.77333 0.39291
 N454 N 0.42295 0.75948 0.38086
 N455 N 0.44671 0.76194 0.40645
 C456 C 0.44639 0.77826 0.44518
 N457 N 0.42144 0.79242 0.45667
 N458 N 0.39763 0.78993 0.43122
 C459 C 0.37153 0.77014 0.36531
 N460 N 0.34601 0.78239 0.37906
 N461 N 0.32194 0.77902 0.35448
 C462 C 0.32253 0.76334 0.31519
 N463 N 0.34807 0.75118 0.30135
 N464 N 0.37212 0.75449 0.32599
 C465 C 0.26658 0.90024 0.10001
 N466 N 0.24709 0.92202 0.10741
 N467 N 0.24726 0.94573 0.08149
 C468 C 0.26685 0.94853 0.04705
 N469 N 0.28683 0.92702 0.04037
 N470 N 0.28654 0.90319 0.06612
 C471 C 0.26553 0.87373 0.12771
 N472 N 0.28147 0.84991 0.11598
 N473 N 0.27950 0.82554 0.14019
 C474 C 0.26166 0.82419 0.17716
 N475 N 0.24594 0.84809 0.18910
 N476 N 0.24779 0.87238 0.16475
 C477 C 0.77145 0.39553 0.60935
 N478 N 0.75807 0.42052 0.62257
 N479 N 0.76044 0.44447 0.59747
 C480 C 0.77617 0.44437 0.55808
 N481 N 0.78984 0.41943 0.54540
 N482 N 0.78746 0.39544 0.57037
 C483 C 0.76835 0.36893 0.63637
 N484 N 0.78025 0.34354 0.62155
 N485 N 0.77693 0.31927 0.64555
 C486 C 0.76166 0.31951 0.68530
 N487 N 0.74986 0.34492 0.70022
 N488 N 0.75312 0.36919 0.67617
 C489 C 0.73026 0.10003 0.11146
 N490 N 0.74868 0.07742 0.11929
 N491 N 0.74735 0.05344 0.09403
 C492 C 0.72757 0.05115 0.05988
 N493 N 0.70852 0.07343 0.05294
 N494 N 0.70998 0.09752 0.07803
 C495 C 0.73293 0.12698 0.13796
 N496 N 0.71825 0.15142 0.12551
 N497 N 0.72166 0.17606 0.14867
 C498 C 0.73978 0.17712 0.18522
 N499 N 0.75430 0.15263 0.19781
 N500 N 0.75102 0.12807 0.17451
 C501 C 0.22995 0.60435 0.59565
 N502 N 0.24458 0.57985 0.60775
 N503 N 0.24250 0.55585 0.58265
 C504 C 0.22583 0.55544 0.54437
 N505 N 0.21089 0.57986 0.53282
 N506 N 0.21299 0.60390 0.55779
 C507 C 0.23261 0.63094 0.62283
 N508 N 0.21955 0.65598 0.60905
 N509 N 0.22234 0.68022 0.63339
 C510 C 0.23822 0.68026 0.67245
 N511 N 0.25119 0.65520 0.68630
 N512 N 0.24846 0.63099 0.66191
 C513 C 0.90144 0.72588 0.10944
 N514 N 0.90542 0.70359 0.07963
 N515 N 0.92864 0.70268 0.05233
 C516 C 0.94835 0.72438 0.05319
 N517 N 0.94470 0.74626 0.08377
 N518 N 0.92166 0.74703 0.11133
 C519 C 0.87524 0.72784 0.13799
 N520 N 0.87361 0.74729 0.17279
 N521 N 0.84935 0.75019 0.19735
 C522 C 0.82574 0.73393 0.18773
 N523 N 0.82738 0.71441 0.15303
 N524 N 0.85174 0.71132 0.12871
 C525 C 0.39705 0.22853 0.60520
 N526 N 0.39703 0.21364 0.56518
 N527 N 0.42117 0.21126 0.54021
 C528 C 0.44622 0.22379 0.55392
 N529 N 0.44622 0.23842 0.59429
 N530 N 0.42213 0.24080 0.61939
 C531 C 0.37029 0.23172 0.63226
 N532 N 0.37045 0.24616 0.67272
 N533 N 0.34604 0.24968 0.69673
 C534 C 0.32057 0.23892 0.68116
 N535 N 0.32042 0.22439 0.64077
 N536 N 0.34484 0.22083 0.61679
 C537 C 0.10306 0.26387 0.10194
 N538 N 0.08031 0.28012 0.11728
 N539 N 0.05629 0.28294 0.09226
 C540 C 0.05401 0.26951 0.05106
 N541 N 0.07638 0.25229 0.03671
 N542 N 0.10062 0.24987 0.06132
 C543 C 0.12993 0.26172 0.12866
 N544 N 0.15602 0.25862 0.10740
 N545 N 0.18048 0.25714 0.13163
 C546 C 0.17967 0.25826 0.17799
 N547 N 0.15356 0.26112 0.19927
 N548 N 0.12914 0.26314 0.17501
 C549 C 0.60155 0.77246 0.60263
 N550 N 0.57696 0.75810 0.61373
 N551 N 0.55323 0.76075 0.58800
 C552 C 0.55317 0.77776 0.55006
 N553 N 0.57766 0.79246 0.53957
 N554 N 0.60144 0.78977 0.56515
 C555 C 0.62793 0.76908 0.63037
 N556 N 0.65315 0.78159 0.61719
 N557 N 0.67722 0.77808 0.64190
 C558 C 0.67691 0.76202 0.68076
 N559 N 0.65166 0.74960 0.69405
 N560 N 0.62761 0.75303 0.66927
   
