data_POSCAR
  _audit_creation_date              2014-09-24
  _audit_creation_method            'ToBaCCo'
  _symmetry_space_group_name_H-M    'P1'
  _symmetry_Int_Tables_number       1
  _symmetry_cell_setting            triclinic
  loop_
  _symmetry_equiv_pos_as_xyz
 x,y,z
_cell_length_a 20.0960
_cell_length_b 19.8881
_cell_length_c 40.1500
_cell_angle_alpha 87.828600
_cell_angle_beta 88.852900
_cell_angle_gamma 118.959900
loop_
  _atom_site_label
  _atom_site_type_symbol
  _atom_site_fract_x
  _atom_site_fract_y
  _atom_site_fract_z
C1 C -0.00523 0.11509 0.53981
 H2 H 0.05013 0.12010 0.53477
 C3 C -0.01252 0.16539 0.56093
 H4 H 0.03756 0.20770 0.57262
 C5 C -0.13759 0.05207 0.53091
 H6 H -0.18586 0.00860 0.51871
 C7 C -0.14757 0.10108 0.55208
 H8 H -0.20388 0.09447 0.55633
 N9 N -0.06713 0.05998 0.52528
 C10 C 0.00806 -0.10418 0.50004
 H11 H 0.00725 -0.10058 0.47311
 C12 C 0.02580 -0.15681 0.51591
 H13 H 0.03953 -0.19313 0.50104
 C14 C -0.01231 -0.06365 0.55222
 H15 H -0.02894 -0.02852 0.56628
 C16 C 0.00416 -0.11620 0.56912
 H17 H 0.00226 -0.11910 0.59611
 Zn18 Zn -0.04715 0.00040 0.49528
 N19 N -0.01081 -0.05918 0.51829
 C20 C 0.09723 0.07996 0.45986
 N21 N 0.02585 0.07100 0.46318
 C22 C 0.00531 0.11673 0.44514
 C23 C 0.05715 0.17372 0.42238
 C24 C 0.15122 0.13681 0.43753
 C25 C -0.19256 -0.12642 0.49480
 C26 C -0.25505 -0.18715 0.48111
 C27 C -0.20099 -0.13155 0.42609
 C28 C -0.13953 -0.07188 0.44095
 N29 N -0.13613 -0.07072 0.47470
 H30 H 0.11289 0.04403 0.47491
 H31 H -0.05146 0.10919 0.44871
 H32 H 0.03979 0.20967 0.40825
 H33 H 0.20729 0.14217 0.43502
 H34 H -0.18766 -0.12499 0.52159
 H35 H -0.29831 -0.23148 0.49788
 H36 H -0.19972 -0.13022 0.39919
 H37 H -0.09313 -0.02825 0.42536
 C38 C 0.02196 -0.16475 0.55083
 C39 C -0.08438 0.15941 0.56693
 C40 C -0.25968 -0.19177 0.44624
 C41 C 0.13146 0.18516 0.41869
 C42 C 1.12492 0.05158 0.11586
 H43 H 1.11798 0.10226 0.11551
 C44 C 1.17945 0.04952 0.09468
 H45 H 1.21411 0.09894 0.07789
 C46 C 1.08878 -0.07345 0.13890
 H47 H 1.05372 -0.12066 0.15656
 C48 C 1.14316 -0.07794 0.11809
 H49 H 1.14810 -0.12967 0.11976
 N50 N 1.08105 -0.00916 0.13739
 C51 C 0.89372 0.03696 0.15760
 H52 H 0.89938 0.04793 0.18386
 C53 C 0.83505 0.03961 0.14052
 H54 H 0.79613 0.05370 0.15360
 C55 C 0.93571 0.00243 0.10881
 H56 H 0.97404 -0.01360 0.09668
 C57 C 0.87700 0.00290 0.09098
 H58 H 0.87215 -0.01066 0.06498
 Zn59 Zn 1.01570 0.00673 0.16642
 N60 N 0.94290 0.01912 0.14154
 C61 C 1.07321 0.16101 0.18702
 N62 N 1.07953 0.09592 0.18902
 C63 C 1.13693 0.09355 0.20543
 C64 C 1.18990 0.15758 0.22141
 C65 C 1.12522 0.22665 0.20262
 C66 C 0.97029 -0.07166 0.23049
 C67 C 0.92195 -0.13196 0.25295
 C68 C 0.85414 -0.20454 0.20638
 C69 C 0.90473 -0.14350 0.18476
 N70 N 0.96051 -0.07821 0.19709
 H71 H 1.02894 0.16279 0.17285
 H72 H 1.14207 0.04183 0.20568
 H73 H 1.23589 0.15429 0.23352
 H74 H 1.11979 0.27825 0.20072
 H75 H 1.01378 -0.01888 0.23993
 H76 H 0.92936 -0.12543 0.27950
 H77 H 0.80919 -0.25555 0.19616
 H78 H 0.89782 -0.14689 0.15812
 C79 C 0.82531 0.02085 0.10702
 C80 C 1.18996 -0.01523 0.09578
 C81 C 0.86170 -0.19828 0.24098
 C82 C 1.18407 0.22525 0.22034
 C83 C 0.20307 1.07475 0.84875
 H84 H 0.21008 1.09234 0.82260
 C85 C 0.26546 1.08051 0.86572
 H86 H 0.31985 1.10182 0.85235
 C87 C 0.12439 1.02575 0.89805
 H88 H 0.06971 1.00506 0.91079
 C89 C 0.18504 1.02982 0.91590
 H90 H 0.17604 1.01269 0.94222
 N91 N 0.13351 1.04526 0.86475
 C92 C -0.07643 1.03067 0.86973
 H93 H -0.05429 1.08401 0.85485
 C94 C -0.13958 1.00900 0.89124
 H95 H -0.16327 1.04738 0.89191
 C96 C -0.06772 0.92060 0.88757
 H97 H -0.03856 0.88705 0.88643
 C98 C -0.13062 0.89688 0.90974
 H99 H -0.14975 0.84441 0.92518
 Zn100 Zn 0.04712 1.02393 0.83930
 N101 N -0.04179 0.98665 0.86808
 C102 C -0.02100 0.87771 0.80919
 N103 N 0.03682 0.95165 0.80738
 C104 C 0.09040 0.97796 0.78192
 C105 C 0.08937 0.92870 0.75792
 C106 C -0.02425 0.82622 0.78563
 C107 C 0.11404 1.18532 0.82255
 C108 C 0.11699 1.24965 0.80569
 C109 C 0.01028 1.16426 0.77407
 C110 C 0.00949 1.10187 0.79141
 N111 N 0.06030 1.11332 0.81531
 H112 H -0.06472 0.85822 0.82883
 H113 H 0.13384 1.03768 0.77998
 H114 H 0.13326 0.95086 0.73811
 H115 H -0.07106 0.76802 0.78774
 H116 H 0.15321 1.19290 0.84198
 H117 H 0.15915 1.30678 0.81209
 H118 H -0.03317 1.15279 0.75630
 H119 H -0.03334 1.04389 0.78659
 C120 C -0.16800 0.94095 0.91181
 C121 C 0.25605 1.05502 0.89935
 C122 C 0.06460 1.23963 0.78114
 C123 C 0.03250 0.85139 0.75983
 C124 C 0.42864 -0.06642 -0.00893
 C125 C 0.42378 -0.09364 0.02459
 C126 C 0.48222 -0.10586 0.03660
 C127 C 0.54677 -0.08934 0.01643
 C128 C 0.55202 -0.06239 -0.01736
 C129 C 0.49284 -0.05061 -0.02919
 H130 H 0.49525 -0.03175 -0.05510
 H131 H 0.47935 -0.12473 0.06256
 C132 C -0.00741 0.45386 0.64480
 C133 C -0.01208 0.43900 0.67971
 C134 C -0.02322 0.48800 0.70068
 C135 C -0.02630 0.55292 0.68780
 C136 C -0.01914 0.56912 0.65281
 C137 C -0.00961 0.51907 0.63182
 H138 H -0.00670 0.52902 0.60497
 H139 H -0.02950 0.47573 0.72745
 C140 C 0.54587 0.56559 0.30821
 C141 C 0.54940 0.57397 0.34332
 C142 C 0.49690 0.51077 0.36430
 C143 C 0.43967 0.44355 0.35133
 C144 C 0.43405 0.43810 0.31640
 C145 C 0.48725 0.49932 0.29540
 H146 H 0.48543 0.49383 0.26861
 H147 H 0.49788 0.51274 0.39109
 C148 C -0.09521 0.21169 0.58903
 C149 C -0.04016 0.28335 0.59375
 C150 C -0.05215 0.33255 0.61687
 C151 C 0.00279 0.40434 0.62107
 H152 H 0.01454 0.30648 0.58047
 H153 H -0.10571 0.30962 0.63118
 H154 H -0.15089 0.19116 0.60114
 H155 H 0.05509 0.42892 0.60577
 C156 C 0.80652 0.74147 0.26506
 C157 C 0.73190 0.70372 0.25995
 C158 C 0.67733 0.64901 0.28563
 C159 C 0.60257 0.62293 0.28344
 H160 H 0.71037 0.71610 0.23732
 H161 H 0.69839 0.63062 0.30680
 H162 H 0.82679 0.73288 0.28883
 H163 H 0.58166 0.63864 0.26144
 C164 C 0.32040 0.05375 -0.08391
 C165 C 0.31029 0.00098 -0.05977
 C166 C 0.37552 -0.00315 -0.04588
 C167 C 0.36476 -0.05973 -0.02365
 H168 H 0.25336 -0.04200 -0.05117
 H169 H 0.43267 0.04060 -0.05381
 H170 H 0.37765 0.09330 -0.09361
 H171 H 0.30723 -0.10127 -0.01507
 C172 C 0.03532 0.77514 0.56720
 C173 C 0.00100 0.73850 0.59633
 C174 C 0.01156 0.67497 0.61035
 C175 C -0.02789 0.63375 0.63790
 H176 H -0.03772 0.75301 0.60933
 H177 H 0.05232 0.66216 0.59807
 H178 H 0.07019 0.75650 0.55364
 H179 H -0.06656 0.64906 0.65044
 C180 C 0.24024 0.29600 0.23584
 C181 C 0.28242 0.29545 0.26112
 C182 C 0.33908 0.36761 0.27491
 C183 C 0.37751 0.36658 0.30155
 H184 H 0.27490 0.24160 0.27218
 H185 H 0.34876 0.42205 0.26348
 H186 H 0.24602 0.35053 0.22646
 H187 H 0.36492 0.31184 0.31370
 C188 C 0.76927 -0.08361 -0.06538
 C189 C 0.72288 -0.04924 -0.06329
 C190 C 0.66312 -0.07462 -0.03942
 C191 C 0.61376 -0.04362 -0.04012
 H192 H 0.73135 -0.00287 -0.08075
 H193 H 0.65324 -0.12132 -0.02190
 H194 H 0.75496 -0.13339 -0.04870
 H195 H 0.61965 -0.00672 -0.06190
 C196 C 0.25051 -0.01318 0.07331
 C197 C 0.27500 -0.06495 0.07404
 C198 C 0.33746 -0.05383 0.05072
 C199 C 0.36089 -0.10602 0.04838
 H200 H 0.25029 -0.11455 0.09146
 H201 H 0.36525 -0.00119 0.03501
 H202 H 0.27810 0.03560 0.05536
 H203 H 0.33698 -0.15633 0.06552
 C204 C 0.68188 0.74529 0.43391
 C205 C 0.67024 0.73064 0.40002
 C206 C 0.61314 0.65972 0.39025
 C207 C 0.60243 0.64468 0.35637
 H208 H 0.70590 0.77294 0.38073
 H209 H 0.57915 0.61673 0.40959
 H210 H 0.64136 0.70101 0.45164
 H211 H 0.63762 0.69253 0.33902
 C212 C 0.06513 0.30836 0.76506
 C213 C 0.03160 0.30705 0.73642
 C214 C 0.02866 0.37531 0.72279
 C215 C -0.00585 0.37260 0.69431
 H216 H 0.00541 0.25528 0.72271
 H217 H 0.05472 0.42777 0.73613
 H218 H 0.09403 0.36212 0.77740
 H219 H -0.02852 0.32030 0.68096
 C220 C 0.76124 0.02044 0.08940
 C221 C 0.72277 -0.03129 0.06704
 C222 C 0.65853 -0.03087 0.05028
 C223 C 0.61094 -0.09039 0.03312
 H224 H 0.73744 -0.07561 0.06162
 H225 H 0.64963 0.01852 0.05204
 H226 H 0.74252 0.06094 0.09641
 H227 H 0.61698 -0.14158 0.03252
 C228 C 0.18575 0.24715 0.39482
 C229 C 0.26137 0.28204 0.39725
 C230 C 0.31173 0.34452 0.37298
 C231 C 0.38732 0.38057 0.37539
 H232 H 0.28656 0.26578 0.41742
 H233 H 0.28666 0.36153 0.35296
 H234 H 0.16221 0.26723 0.37522
 H235 H 0.41168 0.36680 0.39670
 C236 C 0.03506 0.80044 0.73434
 C237 C -0.00552 0.72356 0.73657
 C238 C 0.00427 0.67790 0.71080
 C239 C -0.03744 0.60121 0.71215
 H240 H -0.04466 0.69350 0.75759
 H241 H 0.04736 0.70726 0.69093
 H242 H 0.07483 0.82774 0.71311
 H243 H -0.07687 0.57219 0.73331
   
