data_POSCAR
  _audit_creation_date              2014-09-24
  _audit_creation_method            'ToBaCCo'
  _symmetry_space_group_name_H-M    'P1'
  _symmetry_Int_Tables_number       1
  _symmetry_cell_setting            triclinic
  loop_
  _symmetry_equiv_pos_as_xyz
 x,y,z
_cell_length_a 23.6855
_cell_length_b 23.6896
_cell_length_c 23.7289
_cell_angle_alpha 90.105800
_cell_angle_beta 90.101600
_cell_angle_gamma 90.003500
loop_
  _atom_site_label
  _atom_site_type_symbol
  _atom_site_fract_x
  _atom_site_fract_y
  _atom_site_fract_z
O1 O 0.44889 0.94974 -0.55630
 O2 O 0.55388 0.95029 -0.44138
 O3 O 0.44386 0.94882 -0.44649
 O4 O 0.55872 0.94990 -0.55087
 O5 O 0.55278 1.04280 -0.55566
 O6 O 0.44829 1.04177 -0.44097
 O7 O 0.55783 1.04308 -0.44589
 O8 O 0.44294 1.04261 -0.55025
 Cu9 Cu 0.50138 0.94028 -0.49878
 Cu10 Cu 0.50046 1.05195 -0.49820
 C11 C 0.42711 0.99618 -0.57188
 C12 C 0.57481 0.99686 -0.42466
 C13 C 0.42735 0.99510 -0.42502
 C14 C 0.57446 0.99652 -0.57195
 O15 O -0.55949 1.44877 0.04383
 O16 O -0.44387 1.55238 0.04348
 O17 O -0.55382 1.55861 0.04349
 O18 O -0.45009 1.44278 0.04273
 O19 O -0.44501 1.44872 -0.05003
 O20 O -0.55975 1.55348 -0.04904
 O21 O -0.45008 1.55843 -0.04920
 O22 O -0.55513 1.44361 -0.04876
 Cu23 Cu -0.50179 1.50071 0.05275
 Cu24 Cu -0.50261 1.50101 -0.05864
 C25 C -0.57631 1.42725 -0.00234
 C26 C -0.42809 1.57393 -0.00284
 C27 C -0.57561 1.57514 -0.00264
 C28 C -0.42891 1.42702 -0.00384
 O29 O -0.04465 0.44764 0.44545
 O30 O -0.04448 0.55686 0.55617
 O31 O -0.04511 0.55674 0.44631
 O32 O -0.04620 0.44715 0.55574
 O33 O 0.04698 0.44510 0.55515
 O34 O 0.04809 0.55785 0.44826
 O35 O 0.04851 0.55524 0.55782
 O36 O 0.04857 0.44741 0.44607
 Cu37 Cu -0.05445 0.50211 0.50095
 Cu38 Cu 0.05739 0.50141 0.50188
 C39 C 0.00203 0.42904 0.42674
 C40 C 0.00206 0.57480 0.57616
 C41 C 0.00158 0.57616 0.42872
 C42 C 0.00010 0.42711 0.57387
 O43 O -0.14549 1.00092 -0.07558
 O44 O 0.14513 0.99931 -0.07549
 O45 O -0.00049 1.07448 -0.14595
 O46 O 0.00142 0.92217 -0.14340
 O47 O 0.00158 0.85427 -0.07361
 O48 O -0.00379 1.14451 -0.07818
 O49 O 0.07620 0.99518 -0.14428
 O50 O -0.07663 1.00084 -0.14445
 Zr51 Zr -0.00015 0.99916 -0.09864
 O52 O 0.05114 0.94885 -0.04983
 O53 O -0.05175 1.05100 -0.05152
 C54 C -0.12867 1.00132 -0.12755
 C55 C 0.12833 0.99625 -0.12745
 C56 C -0.00292 1.12680 -0.12996
 C57 C 0.00229 0.87040 -0.12580
 H58 H 0.07455 1.07493 -0.07547
 O59 O 0.05054 1.05116 -0.05110
 H60 H -0.07499 0.92455 -0.07349
 O61 O -0.05097 0.94898 -0.04963
 O62 O 0.14558 1.00245 0.07647
 O63 O -0.14497 1.00002 0.07696
 O64 O 0.07542 1.14642 0.00062
 O65 O 0.07644 0.85573 0.00001
 O66 O -0.07636 0.85543 0.00446
 O67 O -0.07734 1.14565 -0.00426
 O68 O 0.00309 1.07991 0.14400
 O69 O 0.00079 0.92721 0.14693
 O70 O -0.00045 1.14768 0.07420
 O71 O -0.00242 0.85714 0.07915
 O72 O 0.14470 1.07772 0.00112
 O73 O -0.14584 1.07650 -0.00125
 O74 O -0.14533 0.92421 0.00173
 O75 O 0.14524 0.92491 -0.00039
 O76 O 0.07694 1.00552 0.14530
 O77 O -0.07574 0.99963 0.14564
 Zr78 Zr 0.09916 1.00115 0.00048
 Zr79 Zr -0.09941 1.00052 0.00059
 Zr80 Zr -0.00075 1.10014 -0.00107
 Zr81 Zr -0.00004 0.90147 0.00197
 Zr82 Zr 0.00043 1.00252 0.09962
 O83 O -0.05109 0.95030 0.05255
 O84 O 0.05114 1.05326 0.05081
 C85 C 0.12905 1.00441 0.12855
 C86 C -0.12796 0.99903 0.12897
 C87 C 0.12757 1.12971 0.00137
 C88 C 0.12846 0.87281 -0.00090
 C89 C -0.12856 0.87209 0.00346
 C90 C -0.12944 1.12871 -0.00359
 C91 C 0.00212 1.13176 0.12641
 C92 C -0.00138 0.87487 0.13095
 H93 H -0.07525 1.07665 0.07461
 O94 O -0.05111 1.05239 0.05076
 H95 H 0.07529 0.92697 0.07612
 O96 O 0.05107 0.95078 0.05193
 C97 C 0.29961 0.99876 0.30078
 C98 C 0.29447 1.03424 0.34799
 C99 C 0.33680 1.03355 0.38934
 C100 C 0.38290 0.99643 0.38449
 C101 C 0.38688 0.96022 0.33761
 C102 C 0.34572 0.96189 0.29503
 C103 C 0.25593 1.00035 0.25649
 C104 C 0.26205 0.96637 0.20831
 C105 C 0.22088 0.96888 0.16584
 C106 C 0.17309 1.00359 0.17237
 C107 C 0.16695 1.03636 0.22145
 C108 C 0.20884 1.03575 0.26323
 C109 C 0.34991 0.92787 0.24663
 C110 C 0.30899 0.93037 0.20380
 C111 C 0.24707 1.06955 0.35293
 C112 C 0.20469 1.06990 0.31151
 H113 H 0.38533 0.89937 0.24162
 H114 H 0.31397 0.90369 0.16700
 H115 H 0.24251 1.09690 0.38929
 H116 H 0.16859 1.09740 0.31713
 H117 H 0.33353 1.06111 0.42572
 H118 H 0.42265 0.93193 0.33370
 H119 H 0.22523 0.94293 0.12840
 H120 H 0.13003 1.06278 0.22665
 C121 C -0.29853 0.99737 0.30044
 C122 C -0.29523 0.95781 0.34434
 C123 C -0.33746 0.95722 0.38569
 C124 C -0.38167 0.99690 0.38412
 C125 C -0.38391 1.03682 0.34034
 C126 C -0.34285 1.03670 0.29783
 C127 C -0.25476 0.99761 0.25635
 C128 C -0.25905 1.03600 0.21149
 C129 C -0.21775 1.03551 0.16927
 C130 C -0.17168 0.99826 0.17279
 C131 C -0.16739 0.96062 0.21836
 C132 C -0.20943 0.95950 0.25992
 C133 C -0.34532 1.07488 0.25265
 C134 C -0.30434 1.07427 0.20998
 C135 C -0.24964 0.91988 0.34610
 C136 C -0.20723 0.92099 0.30483
 H137 H -0.37939 1.10529 0.25007
 H138 H -0.30794 1.10422 0.17572
 H139 H -0.24653 0.88930 0.37986
 H140 H -0.17261 0.89124 0.30792
 H141 H -0.33546 0.92671 0.41964
 H142 H -0.41820 1.06711 0.33882
 H143 H -0.22066 1.06481 0.13437
 H144 H -0.13199 0.93168 0.22074
 C145 C -0.29960 0.99874 -0.29848
 C146 C -0.31429 1.04922 -0.32565
 C147 C -0.35643 1.04844 -0.36721
 C148 C -0.38326 0.99737 -0.38262
 C149 C -0.36734 0.94698 -0.35504
 C150 C -0.32600 0.94757 -0.31262
 C151 C -0.25568 0.99948 -0.25437
 C152 C -0.24170 0.94911 -0.22642
 C153 C -0.20016 0.95016 -0.18428
 C154 C -0.17238 1.00086 -0.17104
 C155 C -0.18631 1.05088 -0.19944
 C156 C -0.22847 1.05054 -0.24101
 C157 C -0.31064 0.89801 -0.28393
 C158 C -0.26939 0.89881 -0.24136
 C159 C -0.28644 1.09952 -0.31084
 C160 C -0.24406 1.10013 -0.26941
 H161 H -0.33081 0.85827 -0.29433
 H162 H -0.25893 0.85971 -0.22013
 H163 H -0.29734 1.13874 -0.33160
 H164 H -0.22348 1.13975 -0.25940
 H165 H -0.36773 1.08762 -0.38791
 H166 H -0.38749 0.90733 -0.36594
 H167 H -0.18892 0.91171 -0.16218
 H168 H -0.16467 1.08983 -0.18878
 C169 C 0.29988 0.99479 -0.29773
 C170 C 0.29925 0.95274 -0.33953
 C171 C 0.34167 0.95248 -0.38073
 C172 C 0.38344 0.99478 -0.38104
 C173 C 0.38305 1.03700 -0.33923
 C174 C 0.34176 1.03679 -0.29698
 C175 C 0.25583 0.99493 -0.25393
 C176 C 0.25746 1.03604 -0.21120
 C177 C 0.21595 1.03550 -0.16923
 C178 C 0.17223 0.99541 -0.17097
 C179 C 0.17051 0.95500 -0.21441
 C180 C 0.21288 0.95400 -0.25565
 C181 C 0.34159 1.07758 -0.25392
 C182 C 0.30035 1.07699 -0.21152
 C183 C 0.25603 0.91207 -0.33944
 C184 C 0.21335 0.91291 -0.29842
 H185 H 0.37376 1.11009 -0.25283
 H186 H 0.30186 1.10905 -0.17891
 H187 H 0.25500 0.87950 -0.37154
 H188 H 0.18063 0.88097 -0.30003
 H189 H 0.34161 0.92015 -0.41313
 H190 H 0.41541 1.06937 -0.33910
 H191 H 0.21686 1.06685 -0.13587
 H192 H 0.13688 0.92393 -0.21537
 C193 C 0.29810 1.30109 -0.00078
 C194 C 0.32509 1.31447 -0.05165
 C195 C 0.36637 1.35694 -0.05216
 C196 C 0.38171 1.38526 -0.00194
 C197 C 0.35432 1.37059 0.04884
 C198 C 0.31217 1.32904 0.04951
 C199 C 0.25422 1.25694 -0.00014
 C200 C 0.22636 1.24437 0.05059
 C201 C 0.18426 1.20274 0.05081
 C202 C 0.17107 1.17345 0.00103
 C203 C 0.19950 1.18591 -0.04931
 C204 C 0.24096 1.22813 -0.05027
 C205 C 0.28369 1.31500 0.09949
 C206 C 0.24131 1.27357 0.09997
 C207 C 0.31042 1.28494 -0.10099
 C208 C 0.26927 1.24229 -0.10025
 H209 H 0.29410 1.33638 0.13855
 H210 H 0.22023 1.26418 0.13934
 H211 H 0.33108 1.29473 -0.14048
 H212 H 0.25937 1.22038 -0.13917
 H213 H 0.38699 1.36726 -0.09158
 H214 H 0.36516 1.39188 0.08788
 H215 H 0.16215 1.19266 0.08950
 H216 H 0.18882 1.16317 -0.08758
 C217 C 0.29938 0.70184 -0.00209
 C218 C 0.31153 0.67312 -0.05240
 C219 C 0.35366 0.63154 -0.05254
 C220 C 0.38271 0.61742 -0.00242
 C221 C 0.36924 0.64647 0.04786
 C222 C 0.32819 0.68914 0.04805
 C223 C 0.25554 0.74602 -0.00189
 C224 C 0.24428 0.77569 0.04820
 C225 C 0.20281 0.81791 0.04804
 C226 C 0.17224 0.82936 -0.00138
 C227 C 0.18345 0.79920 -0.05109
 C228 C 0.22564 0.75770 -0.05175
 C229 C 0.31550 0.71951 0.09738
 C230 C 0.27450 0.76231 0.09738
 C231 C 0.28113 0.68638 -0.10157
 C232 C 0.23866 0.72772 -0.10117
 H233 H 0.33761 0.71026 0.13630
 H234 H 0.26617 0.78488 0.13625
 H235 H 0.29003 0.66439 -0.14063
 H236 H 0.21600 0.73644 -0.13991
 H237 H 0.36305 0.60963 -0.09158
 H238 H 0.39120 0.63663 0.08675
 H239 H 0.19369 0.84133 0.08627
 H240 H 0.15976 0.80854 -0.08908
 C241 C -0.29980 0.70050 -0.00114
 C242 C -0.34600 0.70625 -0.03790
 C243 C -0.38746 0.66397 -0.03915
 C244 C -0.38370 0.61738 -0.00266
 C245 C -0.33752 0.61254 0.03438
 C246 C -0.29488 0.65360 0.03467
 C247 C -0.25578 0.74448 -0.00002
 C248 C -0.20862 0.73776 0.03531
 C249 C -0.16649 0.77932 0.03559
 C250 C -0.17249 0.82818 0.00256
 C251 C -0.22028 0.83463 -0.03218
 C252 C -0.26169 0.79238 -0.03433
 C253 C -0.24737 0.64864 0.06986
 C254 C -0.20469 0.68976 0.06979
 C255 C -0.34996 0.75433 -0.07229
 C256 C -0.30872 0.79689 -0.07023
 H257 H -0.24297 0.61251 0.09745
 H258 H -0.16854 0.68414 0.09723
 H259 H -0.38544 0.75932 -0.10072
 H260 H -0.31353 0.83347 -0.09717
 H261 H -0.42327 0.66786 -0.06741
 H262 H -0.33440 0.57636 0.06214
 H263 H -0.12959 0.77421 0.06208
 H264 H -0.22451 0.87190 -0.05832
 C265 C -0.30164 1.29961 -0.00455
 C266 C -0.29441 1.34817 -0.03767
 C267 C -0.33690 1.38941 -0.03812
 C268 C -0.38513 1.38306 -0.00423
 C269 C -0.39136 1.33470 0.02945
 C270 C -0.35010 1.29226 0.02870
 C271 C -0.25756 1.25568 -0.00458
 C272 C -0.26567 1.20627 0.02700
 C273 C -0.22398 1.16429 0.02616
 C274 C -0.17372 1.17241 -0.00434
 C275 C -0.16577 1.22264 -0.03489
 C276 C -0.20808 1.26403 -0.03603
 C277 C -0.35637 1.24255 0.06029
 C278 C -0.31508 1.20005 0.05906
 C279 C -0.24470 1.35463 -0.06925
 C280 C -0.20202 1.31350 -0.06803
 H281 H -0.39367 1.23628 0.08591
 H282 H -0.32172 1.16219 0.08371
 H283 H -0.23853 1.39200 -0.09476
 H284 H -0.16411 1.32035 -0.09257
 H285 H -0.33200 1.42697 -0.06370
 H286 H -0.42878 1.32973 0.05523
 H287 H -0.23002 1.12591 0.05017
 H288 H -0.12711 1.22907 -0.05830
 C289 C 0.00289 1.30320 0.29733
 C290 C -0.04217 1.34163 0.30026
 C291 C -0.04261 1.38239 0.34322
 C292 C 0.00226 1.38562 0.38209
 C293 C 0.04749 1.34727 0.37806
 C294 C 0.04768 1.30546 0.33615
 C295 C 0.00310 1.25963 0.25290
 C296 C 0.04731 1.22013 0.25103
 C297 C 0.04661 1.17802 0.20945
 C298 C 0.00290 1.17628 0.16941
 C299 C -0.04046 1.21675 0.17093
 C300 C -0.04103 1.25816 0.21325
 C301 C 0.09157 1.26572 0.33241
 C302 C 0.09123 1.22357 0.29074
 C303 C -0.08573 1.33860 0.26008
 C304 C -0.08500 1.29778 0.21709
 H305 H 0.12631 1.26699 0.36216
 H306 H 0.12571 1.19355 0.28950
 H307 H -0.12061 1.36814 0.26176
 H308 H -0.11933 1.29699 0.18686
 H309 H -0.07729 1.41215 0.34588
 H310 H 0.08194 1.34937 0.40814
 H311 H 0.08029 1.14719 0.20756
 H312 H -0.07423 1.21503 0.14004
 C313 C -0.00209 1.29777 -0.30068
 C314 C 0.04300 1.30026 -0.33897
 C315 C 0.04386 1.34318 -0.37960
 C316 C -0.00062 1.38247 -0.38286
 C317 C -0.04589 1.37889 -0.34463
 C318 C -0.04649 1.33700 -0.30296
 C319 C -0.00274 1.25335 -0.25727
 C320 C -0.04697 1.25189 -0.21791
 C321 C -0.04670 1.21029 -0.17597
 C322 C -0.00340 1.16981 -0.17430
 C323 C 0.04001 1.17097 -0.21458
 C324 C 0.04101 1.21330 -0.25581
 C325 C -0.09041 1.33370 -0.26334
 C326 C -0.09048 1.29205 -0.22132
 C327 C 0.08619 1.25971 -0.33591
 C328 C 0.08504 1.21674 -0.29524
 H329 H -0.12484 1.36379 -0.26460
 H330 H -0.12495 1.29116 -0.19139
 H331 H 0.12110 1.26107 -0.36533
 H332 H 0.11909 1.18621 -0.29442
 H333 H 0.07857 1.34550 -0.40924
 H334 H -0.08005 1.40929 -0.34674
 H335 H -0.08038 1.20874 -0.14522
 H336 H 0.07350 1.13980 -0.21286
 C337 C 0.00239 0.69957 -0.29680
 C338 C -0.04925 0.67958 -0.31801
 C339 C -0.04916 0.63810 -0.36024
 C340 C 0.00218 0.61637 -0.38141
 C341 C 0.05364 0.63714 -0.35932
 C342 C 0.05393 0.67872 -0.31715
 C343 C 0.00247 0.74329 -0.25249
 C344 C 0.05419 0.76353 -0.23143
 C345 C 0.05397 0.80530 -0.18947
 C346 C 0.00255 0.82629 -0.16887
 C347 C -0.04886 0.80584 -0.19015
 C348 C -0.04918 0.76418 -0.23216
 C349 C 0.10480 0.69994 -0.29499
 C350 C 0.10493 0.74167 -0.25288
 C351 C -0.10003 0.70151 -0.29659
 C352 C -0.10000 0.74310 -0.25438
 H353 H 0.14487 0.68420 -0.31037
 H354 H 0.14506 0.75694 -0.23700
 H355 H -0.14016 0.68643 -0.31262
 H356 H -0.14007 0.75893 -0.23906
 H357 H -0.08919 0.62286 -0.37648
 H358 H 0.09359 0.62118 -0.37488
 H359 H 0.09344 0.82168 -0.17300
 H360 H -0.08834 0.82255 -0.17409
 C361 C 0.00021 0.70439 0.30217
 C362 C -0.04390 0.66484 0.30413
 C363 C -0.04338 0.62327 0.34607
 C364 C 0.00149 0.62031 0.38495
 C365 C 0.04581 0.65980 0.38197
 C366 C 0.04500 0.70246 0.34102
 C367 C -0.00049 0.74861 0.25856
 C368 C 0.04286 0.78909 0.25743
 C369 C 0.04170 0.83130 0.21605
 C370 C -0.00147 0.83189 0.17532
 C371 C -0.04432 0.79096 0.17668
 C372 C -0.04447 0.74951 0.21874
 C373 C 0.08786 0.74340 0.33825
 C374 C 0.08663 0.78619 0.29737
 C375 C -0.08753 0.66755 0.26402
 C376 C -0.08764 0.70900 0.22184
 H377 H 0.12253 0.74249 0.36808
 H378 H 0.12039 0.81705 0.29681
 H379 H -0.12174 0.63720 0.26507
 H380 H -0.12191 0.70948 0.19155
 H381 H -0.07738 0.59268 0.34795
 H382 H 0.08021 0.65791 0.41210
 H383 H 0.07486 0.86284 0.21461
 H384 H -0.07782 0.79208 0.14561
   
