data_POSCAR
  _audit_creation_date              2014-09-24
  _audit_creation_method            'ToBaCCo'
  _symmetry_space_group_name_H-M    'P1'
  _symmetry_Int_Tables_number       1
  _symmetry_cell_setting            triclinic
  loop_
  _symmetry_equiv_pos_as_xyz
 x,y,z
_cell_length_a 59.1954
_cell_length_b 59.1015
_cell_length_c 34.7988
_cell_angle_alpha 90.018400
_cell_angle_beta 89.946800
_cell_angle_gamma 91.658500
loop_
  _atom_site_label
  _atom_site_type_symbol
  _atom_site_fract_x
  _atom_site_fract_y
  _atom_site_fract_z
C1 C -0.00122 0.26602 -0.01904
 C2 C -0.00123 0.26574 0.02017
 C3 C -0.02260 0.26613 0.04268
 C4 C 0.02004 0.26405 0.04238
 C5 C 0.02011 0.26691 -0.04177
 C6 C -0.02262 0.26438 -0.04117
 C7 C -0.03845 0.28288 0.03662
 C8 C -0.05906 0.28228 0.05630
 C9 C -0.06452 0.26491 0.08330
 C10 C -0.04768 0.24874 0.09010
 C11 C -0.02720 0.24939 0.07014
 C12 C 0.02597 0.28079 0.06941
 C13 C 0.04632 0.27978 0.08953
 C14 C 0.06096 0.26181 0.08337
 C15 C 0.05467 0.24474 0.05700
 C16 C 0.03438 0.24583 0.03673
 C17 C 0.02330 0.25113 -0.07126
 C18 C 0.04352 0.25114 -0.09195
 C19 C 0.06109 0.26689 -0.08352
 C20 C 0.05761 0.28312 -0.05466
 C21 C 0.03723 0.28328 -0.03430
 C22 C -0.03764 0.24578 -0.03642
 C23 C -0.05788 0.24450 -0.05701
 C24 C -0.06340 0.26177 -0.08284
 C25 C -0.04815 0.28019 -0.08797
 C26 C -0.02786 0.28140 -0.06750
 H27 H -0.03507 0.29623 0.01590
 H28 H -0.07089 0.29494 0.04810
 H29 H -0.04950 0.23580 0.11185
 H30 H -0.01498 0.23652 0.07589
 H31 H 0.01500 0.29485 0.07437
 H32 H 0.05059 0.29298 0.11008
 H33 H 0.02991 0.23259 0.01635
 H34 H 0.01024 0.23852 -0.07788
 H35 H 0.04535 0.23877 -0.11460
 H36 H 0.07078 0.29542 -0.04721
 H37 H 0.03496 0.29599 -0.01234
 H38 H -0.03371 0.23232 -0.01662
 H39 H -0.06938 0.23019 -0.05231
 H40 H -0.05183 0.29356 -0.10809
 H41 H -0.01634 0.29576 -0.07177
 H42 H 0.06567 0.23077 0.05152
 C43 C 0.50120 0.76565 0.48044
 C44 C 0.50132 0.76414 0.51952
 C45 C 0.48007 0.76510 0.54191
 C46 C 0.52243 0.76122 0.54172
 C47 C 0.52244 0.76649 0.45756
 C48 C 0.47962 0.76542 0.45873
 C49 C 0.46713 0.78458 0.54146
 C50 C 0.44682 0.78513 0.56190
 C51 C 0.43896 0.76609 0.58284
 C52 C 0.45219 0.74666 0.58335
 C53 C 0.47266 0.74629 0.56341
 C54 C 0.52818 0.77648 0.57124
 C55 C 0.54839 0.77443 0.59145
 C56 C 0.56317 0.75695 0.58271
 C57 C 0.55707 0.74132 0.55377
 C58 C 0.53682 0.74336 0.53363
 C59 C 0.52515 0.75128 0.42706
 C60 C 0.54552 0.75084 0.40685
 C61 C 0.56367 0.76560 0.41674
 C62 C 0.56061 0.78140 0.44641
 C63 C 0.54012 0.78200 0.46633
 C64 C 0.46427 0.74697 0.46178
 C65 C 0.44397 0.74678 0.44135
 C66 C 0.43870 0.76500 0.41733
 C67 C 0.45422 0.78336 0.41404
 C68 C 0.47459 0.78349 0.43439
 H69 H 0.47280 0.79934 0.52529
 H70 H 0.43739 0.80054 0.56146
 H71 H 0.44654 0.73153 0.59847
 H72 H 0.48245 0.73109 0.56390
 H73 H 0.51725 0.79032 0.57801
 H74 H 0.55270 0.78685 0.61332
 H75 H 0.53244 0.73111 0.51151
 H76 H 0.51166 0.73934 0.41947
 H77 H 0.54708 0.73884 0.38356
 H78 H 0.57423 0.79294 0.45496
 H79 H 0.53823 0.79424 0.48918
 H80 H 0.46804 0.73270 0.47997
 H81 H 0.43227 0.73249 0.44470
 H82 H 0.45073 0.79748 0.39536
 H83 H 0.48636 0.79776 0.43145
 H84 H 0.56790 0.72743 0.54687
 C85 C 1.00076 0.73450 -0.01950
 C86 C 1.00065 0.73495 0.01971
 C87 C 1.02190 0.73491 0.04254
 C88 C 0.97926 0.73634 0.04175
 C89 C 0.97948 0.73325 -0.04227
 C90 C 1.02220 0.73638 -0.04150
 C91 C 1.03834 0.71866 0.03615
 C92 C 1.05853 0.71936 0.05698
 C93 C 1.06249 0.73602 0.08528
 C94 C 1.04562 0.75176 0.09251
 C95 C 1.02559 0.75122 0.07133
 C96 C 0.97359 0.71963 0.06896
 C97 C 0.95329 0.72051 0.08933
 C98 C 0.93847 0.73831 0.08321
 C99 C 0.94445 0.75531 0.05653
 C100 C 0.96470 0.75436 0.03603
 C101 C 0.97600 0.74905 -0.07159
 C102 C 0.95563 0.74897 -0.09178
 C103 C 0.93820 0.73311 -0.08302
 C104 C 0.94203 0.71678 -0.05451
 C105 C 0.96255 0.71670 -0.03466
 C106 C 1.03653 0.75552 -0.03780
 C107 C 1.05686 0.75706 -0.05815
 C108 C 1.06352 0.73934 -0.08266
 C109 C 1.04869 0.72027 -0.08640
 C110 C 1.02822 0.71897 -0.06639
 H111 H 1.03564 0.70554 0.01480
 H112 H 1.07117 0.70707 0.05041
 H113 H 1.04782 0.76448 0.11468
 H114 H 1.01304 0.76376 0.07711
 H115 H 0.98474 0.70573 0.07399
 H116 H 0.94925 0.70737 0.11012
 H117 H 0.96899 0.76758 0.01552
 H118 H 0.98890 0.76181 -0.07832
 H119 H 0.95352 0.76141 -0.11422
 H120 H 0.92899 0.70438 -0.04682
 H121 H 0.96506 0.70398 -0.01281
 H122 H 1.03203 0.76920 -0.01881
 H123 H 1.06770 0.77178 -0.05302
 H124 H 1.05231 0.70657 -0.10585
 H125 H 1.01716 0.70420 -0.06996
 H126 H 0.93330 0.76915 0.05108
 C127 C 0.49793 0.23571 0.48090
 C128 C 0.49822 0.23454 0.52002
 C129 C 0.51989 0.23491 0.54152
 C130 C 0.47703 0.23346 0.54305
 C131 C 0.47664 0.23808 0.45903
 C132 C 0.51904 0.23484 0.45809
 C133 C 0.52467 0.21734 0.56705
 C134 C 0.54531 0.21729 0.58658
 C135 C 0.56146 0.23491 0.58102
 C136 C 0.55637 0.25276 0.55609
 C137 C 0.53573 0.25283 0.53673
 C138 C 0.45973 0.21739 0.53486
 C139 C 0.43932 0.21758 0.55503
 C140 C 0.43601 0.23349 0.58437
 C141 C 0.45369 0.24890 0.59366
 C142 C 0.47400 0.24888 0.57317
 C143 C 0.46241 0.25621 0.46607
 C144 C 0.44200 0.25780 0.44621
 C145 C 0.43553 0.24130 0.41895
 C146 C 0.45008 0.22345 0.41139
 C147 C 0.47052 0.22195 0.43108
 C148 C 0.52597 0.25351 0.43582
 C149 C 0.54632 0.25328 0.41551
 C150 C 0.55993 0.23412 0.41637
 C151 C 0.55253 0.21519 0.43807
 C152 C 0.53234 0.21561 0.45889
 H153 H 0.51259 0.20344 0.57128
 H154 H 0.54881 0.20325 0.60543
 H155 H 0.56827 0.26680 0.55185
 H156 H 0.53210 0.26685 0.51791
 H157 H 0.46193 0.20492 0.51247
 H158 H 0.42610 0.20527 0.54775
 H159 H 0.48715 0.26133 0.58013
 H160 H 0.46701 0.26898 0.48721
 H161 H 0.43106 0.27167 0.45273
 H162 H 0.44566 0.21070 0.39013
 H163 H 0.48138 0.20794 0.42509
 H164 H 0.51590 0.26852 0.43504
 H165 H 0.55159 0.26833 0.39983
 H166 H 0.56224 0.19996 0.43881
 H167 H 0.52705 0.20094 0.47564
 H168 H 0.45154 0.26141 0.61600
 C169 C 0.73316 -0.00383 -0.02081
 C170 C 0.73277 -0.00399 0.01845
 C171 C 0.73473 -0.02536 0.04059
 C172 C 0.73113 0.01723 0.04124
 C173 C 0.73487 0.01768 -0.04292
 C174 C 0.73262 -0.02518 -0.04354
 C175 C 0.71884 -0.03097 0.06910
 C176 C 0.72029 -0.05116 0.08969
 C177 C 0.73775 -0.06642 0.08225
 C178 C 0.75396 -0.06024 0.05398
 C179 C 0.75257 -0.03991 0.03381
 C180 C 0.71440 0.03298 0.03336
 C181 C 0.71395 0.05343 0.05351
 C182 C 0.72984 0.05823 0.08257
 C183 C 0.74595 0.04206 0.09150
 C184 C 0.74661 0.02178 0.07098
 C185 C 0.75206 0.03384 -0.03522
 C186 C 0.75307 0.05432 -0.05520
 C187 C 0.73714 0.05910 -0.08415
 C188 C 0.72041 0.04225 -0.09253
 C189 C 0.71933 0.02188 -0.07217
 C190 C 0.74911 -0.02865 -0.07160
 C191 C 0.74958 -0.04903 -0.09184
 C192 C 0.73350 -0.06671 -0.08464
 C193 C 0.71644 -0.06260 -0.05716
 C194 C 0.71596 -0.04210 -0.03718
 H195 H 0.70496 -0.01990 0.07486
 H196 H 0.70696 -0.05511 0.11007
 H197 H 0.76836 -0.07056 0.04817
 H198 H 0.76549 -0.03552 0.01282
 H199 H 0.70190 0.02958 0.01125
 H200 H 0.70116 0.06549 0.04649
 H201 H 0.75958 0.00985 0.07771
 H202 H 0.76471 0.03060 -0.01360
 H203 H 0.76697 0.06595 -0.04863
 H204 H 0.70730 0.04501 -0.11347
 H205 H 0.70596 0.00956 -0.07864
 H206 H 0.76191 -0.01564 -0.07750
 H207 H 0.76236 -0.05039 -0.11384
 H208 H 0.70392 -0.07544 -0.04930
 H209 H 0.70281 -0.03962 -0.01605
 H210 H 0.75846 0.04541 0.11363
 C211 C 0.23589 0.50272 0.48134
 C212 C 0.23595 0.50296 0.52044
 C213 C 0.23521 0.48165 0.54279
 C214 C 0.23713 0.52444 0.54250
 C215 C 0.23533 0.52397 0.45889
 C216 C 0.23670 0.48127 0.45932
 C217 C 0.21603 0.46714 0.54183
 C218 C 0.21600 0.44645 0.56131
 C219 C 0.23530 0.43986 0.58138
 C220 C 0.25436 0.45454 0.58267
 C221 C 0.25420 0.47543 0.56393
 C222 C 0.22021 0.52921 0.56928
 C223 C 0.22079 0.54973 0.58930
 C224 C 0.23840 0.56579 0.58298
 C225 C 0.25562 0.56069 0.55679
 C226 C 0.25506 0.54015 0.53693
 C227 C 0.25421 0.53085 0.43705
 C228 C 0.25451 0.55162 0.41788
 C229 C 0.23568 0.56549 0.41946
 C230 C 0.21648 0.55824 0.44030
 C231 C 0.21638 0.53768 0.46020
 C232 C 0.25457 0.46648 0.46443
 C233 C 0.25479 0.44592 0.44468
 C234 C 0.23728 0.43989 0.41906
 C235 C 0.21972 0.45505 0.41320
 C236 C 0.21948 0.47558 0.43311
 H237 H 0.20124 0.47177 0.52566
 H238 H 0.20117 0.43532 0.55992
 H239 H 0.26935 0.44979 0.59820
 H240 H 0.26913 0.48646 0.56487
 H241 H 0.20630 0.51724 0.57410
 H242 H 0.20721 0.55325 0.60909
 H243 H 0.26860 0.53651 0.51713
 H244 H 0.26895 0.52043 0.43581
 H245 H 0.26942 0.55688 0.40176
 H246 H 0.20182 0.56875 0.44192
 H247 H 0.20166 0.53252 0.47688
 H248 H 0.26833 0.47085 0.48380
 H249 H 0.26877 0.43481 0.44919
 H250 H 0.20593 0.45080 0.39385
 H251 H 0.20561 0.48685 0.42867
 H252 H 0.26964 0.57252 0.55190
 C253 C 0.26770 1.00431 -0.01932
 C254 C 0.26768 1.00349 0.01985
 C255 C 0.26808 1.02443 0.04356
 C256 C 0.26621 0.98162 0.04083
 C257 C 0.26845 0.98348 -0.04320
 C258 C 0.26585 1.02608 -0.04015
 C259 C 0.28468 1.04151 0.03803
 C260 C 0.28405 1.06170 0.05887
 C261 C 0.26690 1.06533 0.08639
 C262 C 0.25088 1.04747 0.09274
 C263 C 0.25150 1.02740 0.07164
 C264 C 0.28312 0.97613 0.06713
 C265 C 0.28212 0.95540 0.08648
 C266 C 0.26398 0.93995 0.08027
 C267 C 0.24682 0.94571 0.05445
 C268 C 0.24792 0.96637 0.03493
 C269 C 0.25215 0.97958 -0.07173
 C270 C 0.25184 0.95958 -0.09310
 C271 C 0.26788 0.94271 -0.08657
 C272 C 0.28477 0.94730 -0.05861
 C273 C 0.28510 0.96744 -0.03751
 C274 C 0.24688 1.03941 -0.03531
 C275 C 0.24528 1.05997 -0.05480
 C276 C 0.26275 1.06785 -0.07959
 C277 C 0.28169 1.05406 -0.08435
 C278 C 0.28306 1.03338 -0.06518
 H279 H 0.29792 1.03940 0.01695
 H280 H 0.29654 1.07470 0.05164
 H281 H 0.23802 1.04847 0.11469
 H282 H 0.23874 1.01425 0.07689
 H283 H 0.29726 0.98779 0.07226
 H284 H 0.29540 0.95154 0.10661
 H285 H 0.23455 0.97047 0.01511
 H286 H 0.23936 0.99193 -0.07713
 H287 H 0.23920 0.95788 -0.11537
 H288 H 0.29726 0.93506 -0.05125
 H289 H 0.29813 0.97030 -0.01610
 H290 H 0.23335 1.03394 -0.01618
 H291 H 0.23068 1.06998 -0.04887
 H292 H 0.29521 1.05863 -0.10404
 H293 H 0.29770 1.02310 -0.06961
 H294 H 0.23272 0.93409 0.04896
 C295 C 0.76966 0.49735 0.47871
 C296 C 0.76922 0.49712 0.51792
 C297 C 0.76749 0.51836 0.54038
 C298 C 0.76942 0.47565 0.54025
 C299 C 0.76765 0.47609 0.45606
 C300 C 0.77113 0.51888 0.45657
 C301 C 0.78403 0.52413 0.56778
 C302 C 0.78282 0.54435 0.58840
 C303 C 0.76485 0.55897 0.58235
 C304 C 0.74802 0.55288 0.55549
 C305 C 0.74932 0.53273 0.53473
 C306 C 0.78557 0.45922 0.53305
 C307 C 0.78479 0.43867 0.55294
 C308 C 0.76813 0.43432 0.58108
 C309 C 0.75259 0.45123 0.58930
 C310 C 0.75320 0.47162 0.56905
 C311 C 0.74896 0.46120 0.46083
 C312 C 0.74742 0.44102 0.43998
 C313 C 0.76451 0.43542 0.41386
 C314 C 0.78299 0.45059 0.40862
 C315 C 0.78445 0.47083 0.42935
 C316 C 0.75548 0.52280 0.42720
 C317 C 0.75589 0.54338 0.40748
 C318 C 0.77193 0.56047 0.41685
 C319 C 0.78799 0.55634 0.44550
 C320 C 0.78778 0.53562 0.46484
 H321 H 0.79805 0.51313 0.57274
 H322 H 0.79583 0.54849 0.60930
 H323 H 0.73407 0.56388 0.55008
 H324 H 0.73623 0.52837 0.51407
 H325 H 0.79860 0.46217 0.51163
 H326 H 0.79695 0.42602 0.54566
 H327 H 0.74074 0.48414 0.57546
 H328 H 0.73565 0.46516 0.48092
 H329 H 0.73306 0.42959 0.44477
 H330 H 0.79623 0.44685 0.38829
 H331 H 0.79888 0.48224 0.42505
 H332 H 0.74256 0.51012 0.42020
 H333 H 0.74325 0.54620 0.38565
 H334 H 0.80073 0.56914 0.45282
 H335 H 0.80042 0.53274 0.48663
 H336 H 0.73990 0.44872 0.61143
 O337 O 0.22886 0.26291 0.20300
 O338 O 0.28409 0.25872 0.25070
 O339 O 0.26050 0.23309 0.20377
 O340 O 0.25268 0.28843 0.24981
 O341 O 0.23632 0.27141 0.29935
 O342 O 0.24371 0.21612 0.25297
 O343 O 0.26758 0.24142 0.29985
 O344 O 0.21234 0.24596 0.25246
 Cu345 Cu 0.25816 0.26248 0.22182
 Cu346 Cu 0.23831 0.24204 0.28110
 C347 C 0.21114 0.25511 0.21953
 C348 C 0.28528 0.24940 0.28350
 C349 C 0.25339 0.21513 0.22044
 C350 C 0.24336 0.28939 0.28264
 O351 O 0.75678 0.78485 0.25458
 O352 O 0.76426 0.73001 0.30255
 O353 O 0.78804 0.75498 0.25487
 O354 O 0.73280 0.76024 0.30226
 O355 O 0.71623 0.74284 0.25330
 O356 O 0.77151 0.73703 0.20643
 O357 O 0.74723 0.71259 0.25406
 O358 O 0.74058 0.76723 0.20548
 Cu359 Cu 0.76210 0.75923 0.28355
 Cu360 Cu 0.74220 0.73815 0.22497
 C361 C 0.74760 0.78539 0.22162
 C362 C 0.75699 0.71191 0.28650
 C363 C 0.78922 0.74519 0.22245
 C364 C 0.71504 0.75254 0.28579
 O365 O 0.78357 0.24290 0.24782
 O366 O 0.72836 0.23598 0.29567
 O367 O 0.75197 0.21143 0.24868
 O368 O 0.75986 0.26740 0.29409
 O369 O 0.74294 0.28316 0.24484
 O370 O 0.73567 0.22732 0.19893
 O371 O 0.71177 0.25119 0.24554
 O372 O 0.76725 0.25907 0.19839
 Cu373 Cu 0.75758 0.23781 0.27651
 Cu374 Cu 0.73780 0.25679 0.21692
 C375 C 0.78491 0.25221 0.21498
 C376 C 0.71063 0.24241 0.27884
 C377 C 0.74252 0.20981 0.21598
 C378 C 0.75258 0.28485 0.27737
 O379 O 0.26162 0.77219 0.20297
 O380 O 0.25396 0.71697 0.25123
 O381 O 0.22993 0.74071 0.20482
 O382 O 0.28604 0.74809 0.24926
 O383 O 0.27079 0.76544 0.29860
 O384 O 0.21450 0.75740 0.25470
 O385 O 0.23931 0.73398 0.30152
 O386 O 0.24587 0.78894 0.25247
 Cu387 Cu 0.25948 0.74284 0.22209
 Cu388 Cu 0.24108 0.76312 0.28181
 C389 C 0.25480 0.78999 0.21930
 C390 C 0.24545 0.71608 0.28475
 C391 C 0.21261 0.74779 0.22213
 C392 C 0.28804 0.75794 0.28158
 O393 O 0.76200 0.26575 0.69948
 O394 O 0.75371 0.21008 0.74569
 O395 O 0.72999 0.23453 0.69911
 O396 O 0.78548 0.24129 0.74611
 O397 O 0.76943 0.25815 0.79522
 O398 O 0.71381 0.25029 0.74915
 O399 O 0.73815 0.22645 0.79574
 O400 O 0.74520 0.28191 0.74855
 Cu401 Cu 0.75938 0.23628 0.71759
 Cu402 Cu 0.74001 0.25583 0.77712
 C403 C 0.75487 0.28335 0.71600
 C404 C 0.74479 0.20877 0.77887
 C405 C 0.71239 0.24126 0.71608
 C406 C 0.78696 0.25088 0.77874
 O407 O 0.28609 0.75047 0.75087
 O408 O 0.23043 0.74294 0.79721
 O409 O 0.25473 0.71866 0.75118
 O410 O 0.26200 0.77461 0.79682
 O411 O 0.24628 0.79047 0.74650
 O412 O 0.23811 0.73441 0.70163
 O413 O 0.21441 0.75936 0.74770
 O414 O 0.26984 0.76555 0.70028
 Cu415 Cu 0.25989 0.74506 0.77905
 Cu416 Cu 0.24052 0.76403 0.71904
 C417 C 0.28745 0.75911 0.71750
 C418 C 0.21292 0.75009 0.78057
 C419 C 0.24527 0.71696 0.71850
 C420 C 0.25545 0.79213 0.77942
 O421 O 0.25302 0.28896 0.74808
 O422 O 0.25962 0.23434 0.79717
 O423 O 0.28405 0.25849 0.74904
 O424 O 0.22877 0.26494 0.79593
 O425 O 0.21206 0.24775 0.74688
 O426 O 0.26744 0.23998 0.70128
 O427 O 0.24216 0.21681 0.74919
 O428 O 0.23731 0.27119 0.69864
 Cu429 Cu 0.25808 0.26344 0.77741
 Cu430 Cu 0.23807 0.24221 0.71908
 C431 C 0.24416 0.28939 0.71487
 C432 C 0.25178 0.21626 0.78178
 C433 C 0.28523 0.24799 0.71725
 C434 C 0.21095 0.25746 0.77938
 O435 O 0.73084 0.75631 0.70365
 O436 O 0.78596 0.75152 0.75134
 O437 O 0.76203 0.72625 0.70438
 O438 O 0.75482 0.78158 0.75062
 O439 O 0.73823 0.76471 0.80010
 O440 O 0.74497 0.70937 0.75342
 O441 O 0.76934 0.73421 0.80038
 O442 O 0.71408 0.73960 0.75311
 Cu443 Cu 0.76009 0.75562 0.72257
 Cu444 Cu 0.74000 0.73531 0.78177
 C445 C 0.71303 0.74870 0.72011
 C446 C 0.78711 0.74199 0.78397
 C447 C 0.75459 0.70835 0.72083
 C448 C 0.74536 0.78264 0.78332
 C449 C 0.26252 0.12843 0.14543
 C450 C 0.28316 0.12167 0.13008
 C451 C 0.28471 0.10093 0.11106
 C452 C 0.26556 0.08627 0.10653
 C453 C 0.24488 0.09336 0.12228
 C454 C 0.24345 0.11403 0.14145
 C455 C 0.26075 0.15055 0.16520
 C456 C 0.24825 0.15228 0.19936
 C457 C 0.24608 0.17320 0.21750
 C458 C 0.25623 0.19289 0.20173
 C459 C 0.26887 0.19113 0.16768
 C460 C 0.27117 0.17017 0.14969
 H461 H 0.30128 0.09628 0.10130
 H462 H 0.22931 0.08363 0.11853
 H463 H 0.23626 0.17396 0.24372
 H464 H 0.27691 0.20598 0.15482
 H465 H 0.22718 0.11903 0.15232
 H466 H 0.24025 0.13740 0.21218
 H467 H 0.29825 0.13228 0.13337
 H468 H 0.28072 0.16937 0.12319
 C469 C 0.76150 0.62210 0.64357
 C470 C 0.78206 0.61510 0.62801
 C471 C 0.78319 0.59451 0.60844
 C472 C 0.76373 0.58060 0.60377
 C473 C 0.74318 0.58759 0.61936
 C474 C 0.74209 0.60809 0.63918
 C475 C 0.76021 0.64408 0.66391
 C476 C 0.74786 0.64578 0.69823
 C477 C 0.74629 0.66659 0.71699
 C478 C 0.75690 0.68617 0.70167
 C479 C 0.76936 0.68443 0.66744
 C480 C 0.77106 0.66359 0.64884
 H481 H 0.79921 0.58963 0.59642
 H482 H 0.72796 0.57710 0.61645
 H483 H 0.73656 0.66736 0.74331
 H484 H 0.77772 0.69920 0.65489
 H485 H 0.72597 0.61317 0.65056
 H486 H 0.73953 0.63097 0.71070
 H487 H 0.79732 0.62548 0.63123
 H488 H 0.78050 0.66281 0.62222
 C489 C 0.74102 0.87086 0.14212
 C490 C 0.73080 0.88946 0.15918
 C491 C 0.72963 0.91003 0.13958
 C492 C 0.73892 0.91271 0.10234
 C493 C 0.74930 0.89383 0.08563
 C494 C 0.75021 0.87325 0.10516
 C495 C 0.74217 0.84902 0.16280
 C496 C 0.73714 0.82855 0.14368
 C497 C 0.73860 0.80792 0.16295
 C498 C 0.74530 0.80730 0.20166
 C499 C 0.75020 0.82779 0.22084
 C500 C 0.74855 0.84845 0.20165
 H501 H 0.72216 0.92398 0.15461
 H502 H 0.75601 0.89443 0.05672
 H503 H 0.73471 0.79243 0.14736
 H504 H 0.75540 0.82788 0.25067
 H505 H 0.75827 0.85916 0.09137
 H506 H 0.73195 0.82854 0.11385
 H507 H 0.72354 0.88806 0.18769
 H508 H 0.75270 0.86397 0.21696
 C509 C 0.23728 0.37517 0.63706
 C510 C 0.22024 0.39031 0.64626
 C511 C 0.21934 0.41124 0.62766
 C512 C 0.23579 0.41753 0.60031
 C513 C 0.25288 0.40244 0.59125
 C514 C 0.25348 0.38131 0.60918
 C515 C 0.23845 0.35314 0.65694
 C516 C 0.23948 0.33297 0.63578
 C517 C 0.24093 0.31217 0.65463
 C518 C 0.24191 0.31126 0.69494
 C519 C 0.24096 0.33148 0.71606
 C520 C 0.23899 0.35222 0.69722
 H521 H 0.20606 0.42270 0.63507
 H522 H 0.26565 0.40696 0.57007
 H523 H 0.24172 0.29685 0.63767
 H524 H 0.24158 0.33124 0.74716
 H525 H 0.26682 0.36991 0.60184
 H526 H 0.23903 0.33334 0.60467
 H527 H 0.20756 0.38583 0.66760
 H528 H 0.23833 0.36761 0.71405
 C529 C 0.87199 0.26077 0.13947
 C530 C 0.88589 0.24203 0.13802
 C531 C 0.90683 0.24337 0.11953
 C532 C 0.91488 0.26367 0.10172
 C533 C 0.90048 0.28247 0.10358
 C534 C 0.87948 0.28097 0.12199
 C535 C 0.84974 0.25913 0.15915
 C536 C 0.83053 0.26860 0.14262
 C537 C 0.80947 0.26645 0.16075
 C538 C 0.80722 0.25491 0.19593
 C539 C 0.82651 0.24569 0.21266
 C540 C 0.84750 0.24774 0.19444
 H541 H 0.91582 0.22777 0.11787
 H542 H 0.90547 0.29896 0.09267
 H543 H 0.79494 0.27375 0.14712
 H544 H 0.82538 0.23674 0.23977
 H545 H 0.86927 0.29586 0.12332
 H546 H 0.83171 0.27729 0.11526
 H547 H 0.88031 0.22602 0.15044
 H548 H 0.86205 0.24053 0.20812
 C549 C 0.37465 0.76561 0.64191
 C550 C 0.39301 0.75395 0.65704
 C551 C 0.41390 0.75445 0.63833
 C552 C 0.41694 0.76631 0.60359
 C553 C 0.39861 0.77806 0.58852
 C554 C 0.37781 0.77786 0.60757
 C555 C 0.35223 0.76464 0.66146
 C556 C 0.33210 0.76452 0.63993
 C557 C 0.31108 0.76316 0.65820
 C558 C 0.30967 0.76146 0.69837
 C559 C 0.32968 0.76161 0.71999
 C560 C 0.35071 0.76339 0.70179
 H561 H 0.42769 0.74553 0.65122
 H562 H 0.40015 0.78713 0.56159
 H563 H 0.29591 0.76288 0.64080
 H564 H 0.32906 0.76054 0.75104
 H565 H 0.36423 0.78737 0.59532
 H566 H 0.33253 0.76498 0.60885
 H567 H 0.39120 0.74405 0.68308
 H568 H 0.36576 0.76393 0.71942
 C569 C 0.12571 0.73969 0.14694
 C570 C 0.11458 0.75950 0.13703
 C571 C 0.09414 0.75829 0.11701
 C572 C 0.08421 0.73721 0.10684
 C573 C 0.09531 0.71738 0.11714
 C574 C 0.11591 0.71862 0.13678
 C575 C 0.14770 0.74110 0.16719
 C576 C 0.16589 0.72835 0.15440
 C577 C 0.18694 0.73041 0.17241
 C578 C 0.19014 0.74506 0.20391
 C579 C 0.17179 0.75747 0.21719
 C580 C 0.15083 0.75562 0.19883
 H581 H 0.08635 0.77392 0.10887
 H582 H 0.08799 0.70086 0.11041
 H583 H 0.20074 0.72059 0.16159
 H584 H 0.17375 0.76891 0.24134
 H585 H 0.12407 0.70309 0.14445
 H586 H 0.16396 0.71717 0.12988
 H587 H 0.12196 0.77597 0.14404
 H588 H 0.13700 0.76550 0.20941
 C589 C 0.62572 0.23507 0.63919
 C590 C 0.60578 0.22853 0.65872
 C591 C 0.58495 0.22830 0.63981
 C592 C 0.58359 0.23470 0.60101
 C593 C 0.60355 0.24108 0.58142
 C594 C 0.62437 0.24124 0.60028
 C595 C 0.64780 0.23586 0.65942
 C596 C 0.66740 0.22839 0.64109
 C597 C 0.68831 0.22986 0.65967
 C598 C 0.69011 0.23887 0.69696
 C599 C 0.67045 0.24607 0.71547
 C600 C 0.64953 0.24456 0.69692
 H601 H 0.56984 0.22347 0.65573
 H602 H 0.60307 0.24584 0.55139
 H603 H 0.70311 0.22410 0.64465
 H604 H 0.67125 0.25313 0.74417
 H605 H 0.63939 0.24658 0.58456
 H606 H 0.66654 0.22134 0.61239
 H607 H 0.60631 0.22348 0.68861
 H608 H 0.63479 0.25069 0.71161
 C609 C 0.73904 0.12236 0.85689
 C610 C 0.72969 0.10293 0.83925
 C611 C 0.72899 0.08218 0.85853
 C612 C 0.73786 0.08016 0.89606
 C613 C 0.74734 0.09989 0.91338
 C614 C 0.74782 0.12062 0.89414
 C615 C 0.73979 0.14439 0.83647
 C616 C 0.73421 0.16435 0.85577
 C617 C 0.73546 0.18520 0.83686
 C618 C 0.74247 0.18655 0.79831
 C619 C 0.74783 0.16655 0.77889
 C620 C 0.74643 0.14567 0.79775
 H621 H 0.72222 0.06766 0.84304
 H622 H 0.75366 0.09977 0.94252
 H623 H 0.73120 0.20029 0.85263
 H624 H 0.75330 0.16702 0.74919
 H625 H 0.75523 0.13534 0.90839
 H626 H 0.72878 0.16381 0.88549
 H627 H 0.72277 0.10380 0.81051
 H628 H 0.75101 0.13058 0.78228
 C629 C 0.23805 0.62995 0.36259
 C630 C 0.25449 0.62462 0.38993
 C631 C 0.25377 0.60357 0.40821
 C632 C 0.23632 0.58771 0.40004
 C633 C 0.21967 0.59315 0.37317
 C634 C 0.22068 0.61403 0.35423
 C635 C 0.23923 0.65201 0.34263
 C636 C 0.23930 0.65297 0.30233
 C637 C 0.24139 0.67381 0.28345
 C638 C 0.24291 0.69406 0.30459
 C639 C 0.24236 0.69308 0.34492
 C640 C 0.24080 0.67222 0.36378
 H641 H 0.26671 0.59970 0.42900
 H642 H 0.20611 0.58109 0.36645
 H643 H 0.24169 0.67411 0.25234
 H644 H 0.24360 0.70843 0.36189
 H645 H 0.20780 0.61786 0.33332
 H646 H 0.23823 0.63755 0.28551
 H647 H 0.26808 0.63663 0.39665
 H648 H 0.24070 0.67183 0.39490
 C649 C 0.26425 0.87955 0.85375
 C650 C 0.28472 0.88752 0.86964
 C651 C 0.28605 0.90830 0.88884
 C652 C 0.26682 0.92177 0.89304
 C653 C 0.24631 0.91348 0.87670
 C654 C 0.24511 0.89279 0.85734
 C655 C 0.26268 0.85732 0.83400
 C656 C 0.25053 0.85482 0.79952
 C657 C 0.24844 0.83373 0.78153
 C658 C 0.25831 0.81463 0.79780
 C659 C 0.27063 0.81717 0.83213
 C660 C 0.27286 0.83831 0.84996
 H661 H 0.30250 0.91391 0.89906
 H662 H 0.23067 0.92224 0.88015
 H663 H 0.23886 0.83234 0.75509
 H664 H 0.27846 0.80279 0.84537
 H665 H 0.22897 0.88682 0.84605
 H666 H 0.24271 0.86924 0.78638
 H667 H 0.29987 0.87781 0.86667
 H668 H 0.28214 0.83970 0.87670
 C669 C 0.76048 0.37193 0.35312
 C670 C 0.78102 0.37975 0.36919
 C671 C 0.78238 0.40046 0.38856
 C672 C 0.76318 0.41371 0.39249
 C673 C 0.74265 0.40592 0.37631
 C674 C 0.74133 0.38528 0.35672
 C675 C 0.75892 0.34975 0.33316
 C676 C 0.74680 0.34733 0.29864
 C677 C 0.74497 0.32633 0.28026
 C678 C 0.75512 0.30726 0.29615
 C679 C 0.76736 0.30973 0.33056
 C680 C 0.76929 0.33076 0.34880
 H681 H 0.79837 0.40595 0.40104
 H682 H 0.72763 0.41587 0.37863
 H683 H 0.73544 0.32499 0.25377
 H684 H 0.77536 0.29537 0.34356
 H685 H 0.72523 0.37958 0.34493
 H686 H 0.73884 0.36173 0.28572
 H687 H 0.79609 0.36990 0.36657
 H688 H 0.77854 0.33208 0.37559
 C689 C 0.12476 0.26427 0.85631
 C690 C 0.11602 0.28518 0.86708
 C691 C 0.09531 0.28609 0.88636
 C692 C 0.08304 0.26609 0.89565
 C693 C 0.09198 0.24518 0.88508
 C694 C 0.11252 0.24429 0.86545
 C695 C 0.14666 0.26317 0.83584
 C696 C 0.14892 0.24894 0.80381
 C697 C 0.16970 0.24739 0.78509
 C698 C 0.18875 0.25983 0.79831
 C699 C 0.18644 0.27418 0.83021
 C700 C 0.16556 0.27594 0.84864
 H701 H 0.08880 0.30250 0.89350
 H702 H 0.08329 0.22941 0.89251
 H703 H 0.17094 0.23617 0.76061
 H704 H 0.20079 0.28402 0.84101
 H705 H 0.11907 0.22794 0.85800
 H706 H 0.13454 0.23907 0.79318
 H707 H 0.12504 0.30083 0.86004
 H708 H 0.16430 0.28691 0.87344
 C709 C 0.62814 0.76081 0.35986
 C710 C 0.62010 0.78200 0.37078
 C711 C 0.59912 0.78363 0.38892
 C712 C 0.58583 0.76406 0.39684
 C713 C 0.59401 0.74287 0.38604
 C714 C 0.61487 0.74128 0.36760
 C715 C 0.65035 0.75900 0.34058
 C716 C 0.65268 0.74489 0.30843
 C717 C 0.67365 0.74293 0.29048
 C718 C 0.69279 0.75486 0.30457
 C719 C 0.69045 0.76897 0.33677
 C720 C 0.66940 0.77112 0.35446
 H721 H 0.59320 0.80023 0.39631
 H722 H 0.58449 0.72741 0.39244
 H723 H 0.67491 0.73192 0.26573
 H724 H 0.70487 0.77842 0.34824
 H725 H 0.62083 0.72471 0.36000
 H726 H 0.63821 0.73552 0.29696
 H727 H 0.62992 0.79734 0.36476
 H728 H 0.66809 0.78196 0.37941
 C729 C 0.87373 0.73591 0.85956
 C730 C 0.88263 0.71497 0.86964
 C731 C 0.90360 0.71399 0.88798
 C732 C 0.91599 0.73397 0.89702
 C733 C 0.90688 0.75491 0.88718
 C734 C 0.88607 0.75586 0.86847
 C735 C 0.85162 0.73706 0.83982
 C736 C 0.84907 0.75135 0.80797
 C737 C 0.82818 0.75275 0.78962
 C738 C 0.80931 0.74010 0.80303
 C739 C 0.81187 0.72578 0.83489
 C740 C 0.83286 0.72417 0.85295
 H741 H 0.91023 0.69757 0.89459
 H742 H 0.91565 0.77066 0.89446
 H743 H 0.82676 0.76395 0.76516
 H744 H 0.79765 0.71578 0.84582
 H745 H 0.87941 0.77224 0.86152
 H746 H 0.86333 0.76132 0.79708
 H747 H 0.87354 0.69933 0.86273
 H748 H 0.83435 0.71315 0.87762
 C749 C 0.37160 0.24465 0.36061
 C750 C 0.37898 0.22401 0.37535
 C751 C 0.39977 0.22293 0.39411
 C752 C 0.41355 0.24250 0.39878
 C753 C 0.40614 0.26316 0.38418
 C754 C 0.38542 0.26421 0.36514
 C755 C 0.34953 0.24576 0.34070
 C756 C 0.34750 0.25819 0.30653
 C757 C 0.32669 0.25921 0.28778
 C758 C 0.30742 0.24797 0.30296
 C759 C 0.30946 0.23557 0.33718
 C760 C 0.33031 0.23441 0.35576
 H761 H 0.40497 0.20682 0.40541
 H762 H 0.41650 0.27847 0.38715
 H763 H 0.32567 0.26892 0.26148
 H764 H 0.29494 0.22674 0.34964
 H765 H 0.38005 0.28038 0.35436
 H766 H 0.36209 0.26691 0.29408
 H767 H 0.36877 0.20864 0.37199
 H768 H 0.33134 0.22490 0.38227
 C769 C 0.73729 0.86956 0.85810
 C770 C 0.75647 0.88386 0.86161
 C771 C 0.75524 0.90470 0.88029
 C772 C 0.73465 0.91208 0.89600
 C773 C 0.71541 0.89747 0.89213
 C774 C 0.71677 0.87655 0.87359
 C775 C 0.73882 0.84735 0.83849
 C776 C 0.75111 0.84547 0.80415
 C777 C 0.75302 0.82451 0.78607
 C778 C 0.74281 0.80492 0.80207
 C779 C 0.73039 0.80682 0.83632
 C780 C 0.72834 0.82784 0.85426
 H781 H 0.77088 0.91437 0.88364
 H782 H 0.69892 0.90229 0.90196
 H783 H 0.76268 0.82364 0.75969
 H784 H 0.72230 0.79205 0.84936
 H785 H 0.70160 0.86600 0.87070
 H786 H 0.75914 0.86028 0.79112
 H787 H 0.77266 0.87867 0.85066
 H788 H 0.71894 0.82876 0.88090
 C789 C 0.23766 0.37576 0.36009
 C790 C 0.24356 0.37730 0.39914
 C791 C 0.24340 0.39809 0.41823
 C792 C 0.23729 0.41781 0.39874
 C793 C 0.23123 0.41626 0.35976
 C794 C 0.23146 0.39547 0.34063
 C795 C 0.23832 0.35372 0.33969
 C796 C 0.24722 0.35247 0.30232
 C797 C 0.24858 0.33163 0.28361
 C798 C 0.24102 0.31157 0.30182
 C799 C 0.23179 0.31287 0.33896
 C800 C 0.23048 0.33371 0.35769
 H801 H 0.24790 0.39871 0.44837
 H802 H 0.22661 0.43120 0.34392
 H803 H 0.25582 0.33121 0.25504
 H804 H 0.22576 0.29774 0.35375
 H805 H 0.22663 0.39477 0.31063
 H806 H 0.25363 0.36756 0.28787
 H807 H 0.24864 0.36246 0.41481
 H808 H 0.22325 0.33418 0.38627
 C809 C 0.25844 0.13090 0.86174
 C810 C 0.27952 0.12220 0.87098
 C811 C 0.28098 0.10146 0.88998
 C812 C 0.26131 0.08890 0.90089
 C813 C 0.24016 0.09801 0.89171
 C814 C 0.23879 0.11859 0.87219
 C815 C 0.25691 0.15273 0.84112
 C816 C 0.24231 0.15474 0.80960
 C817 C 0.24083 0.17531 0.79010
 C818 C 0.25371 0.19439 0.80204
 C819 C 0.26827 0.19239 0.83367
 C820 C 0.26997 0.17172 0.85285
 H821 H 0.29767 0.09588 0.89732
 H822 H 0.22447 0.08894 0.89800
 H823 H 0.22942 0.17632 0.76589
 H824 H 0.27843 0.20678 0.84350
 H825 H 0.22229 0.12497 0.86543
 H826 H 0.23221 0.14030 0.79979
 H827 H 0.29495 0.13139 0.86320
 H828 H 0.28123 0.17064 0.87725
 C829 C 0.76812 0.62521 0.36088
 C830 C 0.76743 0.60506 0.33931
 C831 C 0.76892 0.58406 0.35742
 C832 C 0.77142 0.58275 0.39745
 C833 C 0.77265 0.60283 0.41901
 C834 C 0.77090 0.62383 0.40096
 C835 C 0.76544 0.64749 0.34175
 C836 C 0.77745 0.66691 0.35475
 C837 C 0.77462 0.68787 0.33701
 C838 C 0.75989 0.68983 0.30562
 C839 C 0.74797 0.67045 0.29250
 C840 C 0.75061 0.64957 0.31047
 H841 H 0.76821 0.56882 0.34012
 H842 H 0.77430 0.60223 0.44999
 H843 H 0.78416 0.70248 0.34760
 H844 H 0.73636 0.67145 0.26856
 H845 H 0.77113 0.63893 0.41857
 H846 H 0.78926 0.66589 0.37836
 H847 H 0.76580 0.60548 0.30833
 H848 H 0.74073 0.63511 0.30017
 C849 C 0.12647 0.74318 0.85782
 C850 C 0.11524 0.76293 0.86755
 C851 C 0.09466 0.76173 0.88722
 C852 C 0.08446 0.74062 0.89728
 C853 C 0.09586 0.72083 0.88689
 C854 C 0.11663 0.72214 0.86776
 C855 C 0.14848 0.74456 0.83755
 C856 C 0.16669 0.73184 0.85032
 C857 C 0.18763 0.73359 0.83178
 C858 C 0.19067 0.74786 0.79978
 C859 C 0.17233 0.76033 0.78669
 C860 C 0.15149 0.75880 0.80556
 H861 H 0.08647 0.77748 0.89306
 H862 H 0.08941 0.70418 0.89487
 H863 H 0.20144 0.72376 0.84249
 H864 H 0.17416 0.77151 0.76217
 H865 H 0.12498 0.70663 0.86053
 H866 H 0.16483 0.72086 0.87510
 H867 H 0.12252 0.77940 0.86023
 H868 H 0.13765 0.76864 0.79498
 C869 C 0.62390 0.23515 0.35606
 C870 C 0.60524 0.24641 0.34104
 C871 C 0.58447 0.24570 0.36014
 C872 C 0.58183 0.23407 0.39519
 C873 C 0.60045 0.22273 0.41015
 C874 C 0.62113 0.22311 0.39070
 C875 C 0.64621 0.23634 0.33607
 C876 C 0.66648 0.23675 0.35722
 C877 C 0.68738 0.23829 0.33856
 C878 C 0.68853 0.23989 0.29836
 C879 C 0.66838 0.23948 0.27711
 C880 C 0.64747 0.23750 0.29570
 H881 H 0.57045 0.25430 0.34730
 H882 H 0.59924 0.21385 0.43730
 H883 H 0.70266 0.23878 0.35569
 H884 H 0.66880 0.24047 0.24603
 H885 H 0.63494 0.21389 0.40289
 H886 H 0.66626 0.23638 0.38831
 H887 H 0.60672 0.25614 0.31478
 H888 H 0.63232 0.23673 0.27833
 C889 C 0.87339 0.25824 0.85601
 C890 C 0.88662 0.23898 0.85949
 C891 C 0.90714 0.24013 0.87928
 C892 C 0.91494 0.26060 0.89579
 C893 C 0.90180 0.27990 0.89205
 C894 C 0.88120 0.27871 0.87247
 C895 C 0.85138 0.25686 0.83567
 C896 C 0.83235 0.26724 0.85114
 C897 C 0.81147 0.26544 0.83253
 C898 C 0.80921 0.25333 0.79790
 C899 C 0.82832 0.24321 0.78217
 C900 C 0.84917 0.24490 0.80092
 H901 H 0.91701 0.22504 0.88144
 H902 H 0.90731 0.29584 0.90479
 H903 H 0.79707 0.27343 0.84541
 H904 H 0.82715 0.23378 0.75553
 H905 H 0.87144 0.29386 0.86996
 H906 H 0.83352 0.27637 0.87809
 H907 H 0.88091 0.22293 0.84740
 H908 H 0.86362 0.23695 0.78812
 C909 C 0.37538 0.76395 0.35626
 C910 C 0.38842 0.74449 0.35808
 C911 C 0.40900 0.74488 0.37770
 C912 C 0.41706 0.76477 0.39582
 C913 C 0.40415 0.78432 0.39366
 C914 C 0.38348 0.78389 0.37419
 C915 C 0.35321 0.76326 0.33631
 C916 C 0.33439 0.77349 0.35282
 C917 C 0.31329 0.77201 0.33483
 C918 C 0.31057 0.76035 0.29984
 C919 C 0.32950 0.75047 0.28300
 C920 C 0.35057 0.75187 0.30107
 H921 H 0.41869 0.72963 0.37856
 H922 H 0.40985 0.79983 0.40761
 H923 H 0.29905 0.77979 0.34858
 H924 H 0.32800 0.74141 0.25603
 H925 H 0.37388 0.79919 0.37299
 H926 H 0.33586 0.78218 0.38015
 H927 H 0.38251 0.72881 0.34488
 H928 H 0.36483 0.74407 0.28743
 C929 C 0.26094 0.87604 0.13985
 C930 C 0.24157 0.88909 0.13641
 C931 C 0.24254 0.90977 0.11694
 C932 C 0.26294 0.91793 0.10074
 C933 C 0.28232 0.90491 0.10423
 C934 C 0.28131 0.88413 0.12344
 C935 C 0.25984 0.85408 0.16054
 C936 C 0.27031 0.83500 0.14534
 C937 C 0.26880 0.81420 0.16448
 C938 C 0.25696 0.81210 0.19940
 C939 C 0.24675 0.83129 0.21481
 C940 C 0.24811 0.85201 0.19553
 H941 H 0.22738 0.91953 0.11494
 H942 H 0.29822 0.91070 0.09172
 H943 H 0.27684 0.79974 0.15185
 H944 H 0.23750 0.83026 0.24165
 H945 H 0.29653 0.87450 0.12589
 H946 H 0.27930 0.83606 0.11825
 H947 H 0.22559 0.88318 0.14846
 H948 H 0.24012 0.86650 0.20815
 C949 C 0.76367 0.37005 0.63977
 C950 C 0.78484 0.37972 0.62993
 C951 C 0.78635 0.40062 0.61114
 C952 C 0.76669 0.41216 0.60139
 C953 C 0.74553 0.40228 0.61099
 C954 C 0.74405 0.38154 0.63016
 C955 C 0.76196 0.34800 0.65990
 C956 C 0.74748 0.34512 0.69162
 C957 C 0.74544 0.32420 0.71017
 C958 C 0.75763 0.30565 0.69707
 C959 C 0.77219 0.30857 0.66540
 C960 C 0.77445 0.32959 0.64716
 H961 H 0.80293 0.40787 0.60475
 H962 H 0.73002 0.41039 0.60317
 H963 H 0.73408 0.32248 0.73446
 H964 H 0.78184 0.29460 0.65471
 H965 H 0.72751 0.37427 0.63692
 H966 H 0.73782 0.35911 0.70218
 H967 H 0.80023 0.37127 0.63737
 H968 H 0.78560 0.33135 0.62258
 C969 C 0.73262 0.12251 0.14095
 C970 C 0.73020 0.12140 0.10075
 C971 C 0.72882 0.10052 0.08194
 C972 C 0.73009 0.08028 0.10281
 C973 C 0.73234 0.08128 0.14293
 C974 C 0.73345 0.10216 0.16182
 C975 C 0.73470 0.14477 0.16086
 C976 C 0.74916 0.14772 0.19266
 C977 C 0.75147 0.16875 0.21086
 C978 C 0.73958 0.18739 0.19744
 C979 C 0.72507 0.18447 0.16579
 C980 C 0.72255 0.16339 0.14786
 H981 H 0.72740 0.10019 0.05091
 H982 H 0.73311 0.06589 0.15969
 H983 H 0.76289 0.17050 0.23504
 H984 H 0.71554 0.19848 0.15498
 H985 H 0.73485 0.10233 0.19284
 H986 H 0.75908 0.13390 0.20306
 H987 H 0.72992 0.13668 0.08364
 H988 H 0.71095 0.16167 0.12394
 C989 C 0.23947 0.62999 0.64189
 C990 C 0.24510 0.62874 0.60271
 C991 C 0.24475 0.60792 0.58367
 C992 C 0.23872 0.58788 0.60333
 C993 C 0.23298 0.58912 0.64247
 C994 C 0.23340 0.60995 0.66156
 C995 C 0.24017 0.65212 0.66215
 C996 C 0.24927 0.65403 0.69933
 C997 C 0.25066 0.67502 0.71785
 C998 C 0.24291 0.69455 0.69962
 C999 C 0.23348 0.69256 0.66268
 C1000 C 0.23215 0.67159 0.64415
 H1001 H 0.24901 0.60754 0.55341
 H1002 H 0.22845 0.57394 0.65845
 H1003 H 0.25805 0.67598 0.74628
 H1004 H 0.22730 0.70726 0.64788
 H1005 H 0.22879 0.61040 0.69166
 H1006 H 0.25581 0.63938 0.71378
 H1007 H 0.25008 0.64384 0.58688
 H1008 H 0.22475 0.67059 0.61572
 C1009 C 0.87526 0.74047 0.14422
 C1010 C 0.88265 0.72004 0.12862
 C1011 C 0.90322 0.71932 0.10903
 C1012 C 0.91677 0.73905 0.10441
 C1013 C 0.90938 0.75949 0.11998
 C1014 C 0.88887 0.76017 0.13980
 C1015 C 0.85333 0.74129 0.16472
 C1016 C 0.85144 0.75361 0.19904
 C1017 C 0.83069 0.75465 0.21805
 C1018 C 0.81135 0.74350 0.20299
 C1019 C 0.81328 0.73108 0.16875
 C1020 C 0.83407 0.72993 0.14989
 H1021 H 0.90841 0.70338 0.09702
 H1022 H 0.91957 0.77491 0.11711
 H1023 H 0.82976 0.76435 0.24438
 H1024 H 0.79871 0.72232 0.15638
 H1025 H 0.88350 0.77620 0.15121
 H1026 H 0.86606 0.76232 0.21135
 H1027 H 0.87258 0.70456 0.13187
 H1028 H 0.83498 0.72050 0.12327
 C1029 C 0.37189 0.23785 0.64232
 C1030 C 0.37292 0.23520 0.60217
 C1031 C 0.39371 0.23343 0.58351
 C1032 C 0.41397 0.23447 0.60448
 C1033 C 0.41301 0.23704 0.64456
 C1034 C 0.39221 0.23860 0.66330
 C1035 C 0.34975 0.24012 0.66206
 C1036 C 0.34757 0.25488 0.69350
 C1037 C 0.32669 0.25728 0.71164
 C1038 C 0.30744 0.24514 0.69857
 C1039 C 0.30959 0.23034 0.66725
 C1040 C 0.33050 0.22779 0.64933
 H1041 H 0.39398 0.23180 0.55251
 H1042 H 0.42838 0.23764 0.66145
 H1043 H 0.32557 0.26891 0.73558
 H1044 H 0.29511 0.22061 0.65667
 H1045 H 0.39205 0.24020 0.69429
 H1046 H 0.36193 0.26494 0.70369
 H1047 H 0.35768 0.23499 0.58499
 H1048 H 0.33161 0.21597 0.62568
 C1049 C 0.12469 0.25947 0.14264
 C1050 C 0.11733 0.27987 0.12692
 C1051 C 0.09658 0.28065 0.10795
 C1052 C 0.08281 0.26102 0.10405
 C1053 C 0.09017 0.24061 0.11973
 C1054 C 0.11086 0.23986 0.13896
 C1055 C 0.14678 0.25860 0.16260
 C1056 C 0.14881 0.24656 0.19717
 C1057 C 0.16966 0.24561 0.21583
 C1058 C 0.18897 0.25654 0.20017
 C1059 C 0.18691 0.26861 0.16561
 C1060 C 0.16603 0.26969 0.14710
 H1061 H 0.09142 0.29657 0.09582
 H1062 H 0.07983 0.22525 0.11740
 H1063 H 0.17067 0.23617 0.24241
 H1064 H 0.20146 0.27720 0.15279
 H1065 H 0.11619 0.22386 0.15049
 H1066 H 0.13421 0.23806 0.20998
 H1067 H 0.12756 0.29528 0.12961
 H1068 H 0.16500 0.27890 0.12029
 C1069 C 0.62686 0.75314 0.64205
 C1070 C 0.60707 0.75829 0.66219
 C1071 C 0.58639 0.75937 0.64302
 C1072 C 0.58503 0.75528 0.60329
 C1073 C 0.60479 0.74997 0.58320
 C1074 C 0.62547 0.74892 0.60235
 C1075 C 0.64890 0.75225 0.66230
 C1076 C 0.66870 0.76119 0.64509
 C1077 C 0.68947 0.76020 0.66397
 C1078 C 0.69092 0.75023 0.70052
 C1079 C 0.67110 0.74140 0.71785
 C1080 C 0.65032 0.74241 0.69896
 H1081 H 0.57143 0.76328 0.65937
 H1082 H 0.60433 0.74697 0.55250
 H1083 H 0.70441 0.76721 0.64986
 H1084 H 0.67165 0.73354 0.74592
 H1085 H 0.64036 0.74464 0.58610
 H1086 H 0.66810 0.76918 0.61712
 H1087 H 0.60763 0.76183 0.69271
 H1088 H 0.63542 0.73513 0.71279
   
