data_POSCAR
  _audit_creation_date              2014-09-24
  _audit_creation_method            'ToBaCCo'
  _symmetry_space_group_name_H-M    'P1'
  _symmetry_Int_Tables_number       1
  _symmetry_cell_setting            triclinic
  loop_
  _symmetry_equiv_pos_as_xyz
 x,y,z
_cell_length_a 23.5977
_cell_length_b 27.4640
_cell_length_c 16.4383
_cell_angle_alpha 89.449700
_cell_angle_beta 89.791800
_cell_angle_gamma 90.174400
loop_
  _atom_site_label
  _atom_site_type_symbol
  _atom_site_fract_x
  _atom_site_fract_y
  _atom_site_fract_z
O1 O 0.25930 0.28908 0.14496
 O2 O 0.32455 0.19526 0.27620
 O3 O 0.25776 0.19401 0.14895
 O4 O 0.32502 0.28979 0.27097
 O5 O 0.25064 0.29026 0.35286
 O6 O 0.18200 0.19656 0.22791
 O7 O 0.24821 0.19472 0.35437
 O8 O 0.18484 0.29077 0.22666
 Cu9 Cu 0.29919 0.24170 0.20215
 Cu10 Cu 0.20904 0.24309 0.29883
 C11 C 0.21115 0.30619 0.16391
 C12 C 0.29732 0.17895 0.33752
 C13 C 0.20809 0.17939 0.16683
 C14 C 0.29913 0.30652 0.33249
 O15 O 0.82032 0.29510 0.29276
 O16 O 0.71287 0.20410 0.34939
 O17 O 0.81774 0.19996 0.29905
 O18 O 0.71497 0.29811 0.33886
 O19 O 0.68699 0.29526 0.21090
 O20 O 0.78897 0.19735 0.17152
 O21 O 0.68373 0.20049 0.22222
 O22 O 0.79242 0.29202 0.16481
 Cu23 Cu 0.76946 0.24949 0.33273
 Cu24 Cu 0.73521 0.24584 0.17953
 C25 C 0.82457 0.30934 0.21940
 C26 C 0.67950 0.18704 0.29621
 C27 C 0.82094 0.18209 0.22819
 C28 C 0.68348 0.31334 0.28145
 O29 O 0.74849 0.78655 0.86728
 O30 O 0.67784 0.69856 0.73274
 O31 O 0.74823 0.69184 0.85537
 O32 O 0.67967 0.79303 0.74609
 O33 O 0.75106 0.79604 0.65889
 O34 O 0.82157 0.69715 0.77203
 O35 O 0.75141 0.70122 0.64939
 O36 O 0.82000 0.79137 0.78048
 Cu37 Cu 0.70622 0.74177 0.80888
 Cu38 Cu 0.79324 0.74659 0.70651
 C39 C 0.79592 0.80457 0.84589
 C40 C 0.70266 0.68495 0.66812
 C41 C 0.79706 0.67774 0.83328
 C42 C 0.70392 0.81209 0.68439
 O43 O 0.20401 0.70644 0.80042
 O44 O 0.29644 0.80591 0.72113
 O45 O 0.20088 0.80168 0.80125
 O46 O 0.30859 0.71222 0.74918
 O47 O 0.27248 0.70393 0.62633
 O48 O 0.16289 0.79504 0.67957
 O49 O 0.26030 0.79511 0.59872
 O50 O 0.16984 0.69754 0.67645
 Cu51 Cu 0.25614 0.75736 0.77995
 Cu52 Cu 0.21175 0.74800 0.63496
 C53 C 0.17144 0.68475 0.75056
 C54 C 0.29362 0.81734 0.64574
 C55 C 0.16369 0.81419 0.74986
 C56 C 0.30919 0.69254 0.67994
 C57 C 1.02397 0.03644 0.04175
 C58 C 0.96543 0.03682 0.02300
 C59 C 0.94219 -0.00100 -0.02294
 C60 C 0.97545 -0.04002 -0.04997
 C61 C 1.03419 -0.03993 -0.03303
 C62 C 1.05721 -0.00266 0.01442
 H63 H 1.10168 -0.00450 0.03027
 H64 H 0.89754 0.00020 -0.03818
 C65 C 0.51916 0.54354 0.52718
 C66 C 0.46296 0.54400 0.49701
 C67 C 0.44291 0.50428 0.45249
 C68 C 0.47683 0.46320 0.43855
 C69 C 0.53323 0.46307 0.46730
 C70 C 0.55307 0.50242 0.51274
 H71 H 0.59560 0.50068 0.53724
 H72 H 0.40011 0.50536 0.42877
 C73 C -0.02687 0.45315 0.01215
 C74 C 0.03029 0.45536 0.03765
 C75 C 0.06283 0.49670 0.01693
 C76 C 0.04029 0.53479 -0.03013
 C77 C -0.01705 0.53263 -0.05516
 C78 C -0.04931 0.49111 -0.03499
 H79 H -0.09268 0.48813 -0.05592
 H80 H 0.10630 0.49947 0.03753
 C81 C 0.47390 0.98351 0.61025
 C82 C 0.53338 0.98116 0.61597
 C83 C 0.56629 1.01755 0.57851
 C84 C 0.54160 1.05489 0.53225
 C85 C 0.48186 1.05642 0.52266
 C86 C 0.44882 1.02076 0.56358
 H87 H 0.40311 1.02231 0.56225
 H88 H 0.61196 1.01699 0.58568
 C89 C 1.18255 0.14418 0.11827
 C90 C 1.12949 0.12823 0.13095
 C91 C 1.10436 0.09051 0.07898
 C92 C 1.05057 0.07606 0.08976
 H93 H 1.10422 0.14282 0.18024
 H94 H 1.13015 0.07474 0.03145
 H95 H 1.20684 0.12961 0.06797
 H96 H 1.02543 0.09438 0.13514
 C97 C 0.67569 0.64945 0.61395
 C98 C 0.62159 0.63563 0.62209
 C99 C 0.59763 0.59792 0.56904
 C100 C 0.54299 0.58492 0.57405
 H101 H 0.59520 0.65143 0.66902
 H102 H 0.62547 0.58009 0.52612
 H103 H 0.70136 0.63419 0.56571
 H104 H 0.51563 0.60510 0.61426
 C105 C -0.13297 0.34689 0.19911
 C106 C -0.12145 0.36075 0.12273
 C107 C -0.08004 0.39982 0.10610
 C108 C -0.06448 0.41127 0.03016
 H109 H -0.14272 0.34340 0.07230
 H110 H -0.06286 0.42026 0.15652
 H111 H -0.11050 0.36376 0.24895
 H112 H -0.08420 0.39288 -0.02053
 C113 C 0.32829 0.85686 0.61054
 C114 C 0.36411 0.88390 0.65365
 C115 C 0.39689 0.92300 0.61321
 C116 C 0.43762 0.94695 0.65231
 H117 H 0.36969 0.87691 0.71814
 H118 H 0.38919 0.93108 0.54948
 H119 H 0.32359 0.86422 0.54596
 H120 H 0.44680 0.93739 0.71495
 C121 C -0.17662 0.64065 -0.12241
 C122 C -0.12396 0.62534 -0.13854
 C123 C -0.09811 0.58596 -0.09005
 C124 C -0.04397 0.57322 -0.10134
 H125 H -0.09949 0.64193 -0.18751
 H126 H -0.12359 0.56764 -0.04403
 H127 H -0.19986 0.62417 -0.07211
 H128 H -0.01893 0.59397 -0.14462
 C129 C 0.32203 1.14069 0.38941
 C130 C 0.37799 1.13476 0.39670
 C131 C 0.40108 1.09499 0.44728
 C132 C 0.45462 1.09631 0.47427
 H133 H 0.40689 1.15968 0.36603
 H134 H 0.37364 1.06433 0.46037
 H135 H 0.29338 1.11766 0.42440
 H136 H 0.47964 1.12821 0.45903
 C137 C 1.12378 -0.15037 -0.22993
 C138 C 1.12161 -0.13073 -0.15555
 C139 C 1.08089 -0.09227 -0.13496
 C140 C 1.07261 -0.07973 -0.05740
 H141 H 1.15006 -0.14336 -0.10819
 H142 H 1.05840 -0.07363 -0.18338
 H143 H 1.09387 -0.13858 -0.27596
 H144 H 1.09805 -0.09660 -0.01017
 C145 C 0.64231 0.35251 0.29550
 C146 C 0.63035 0.36907 0.36973
 C147 C 0.58882 0.40834 0.38084
 C148 C 0.57232 0.42184 0.45501
 H149 H 0.65080 0.35329 0.42268
 H150 H 0.57192 0.42690 0.32773
 H151 H 0.62053 0.36765 0.24313
 H152 H 0.59171 0.40535 0.50819
 C153 C 0.82256 -0.15813 -0.10297
 C154 C 0.87230 -0.13790 -0.12306
 C155 C 0.89744 -0.09859 -0.07474
 C156 C 0.94826 -0.08041 -0.09490
 H157 H 0.89465 -0.14995 -0.17698
 H158 H 0.87454 -0.08467 -0.02268
 H159 H 0.80026 -0.14629 -0.04893
 H160 H 0.97057 -0.09657 -0.14525
 C161 C 0.32471 0.34586 0.38038
 C162 C 0.37633 0.36359 0.36378
 C163 C 0.39961 0.40496 0.40922
 C164 C 0.45250 0.42074 0.39552
 H165 H 0.40146 0.34799 0.31526
 H166 H 0.37330 0.42257 0.45437
 H167 H 0.29998 0.36124 0.42950
 H168 H 0.47867 0.40106 0.35299
 C169 C 0.13516 0.64383 -0.22337
 C170 C 0.12885 0.62961 -0.14597
 C171 C 0.09112 0.58834 -0.12598
 C172 C 0.07776 0.57664 -0.04931
 H173 H 0.15052 0.64874 -0.09774
 H174 H 0.07335 0.56717 -0.17515
 H175 H 0.11201 0.62489 -0.27043
 H176 H 0.09768 0.59571 0.00048
 C177 C 0.63756 1.15345 0.31910
 C178 C 0.63005 1.13977 0.39688
 C179 C 0.58615 1.10448 0.42231
 C180 C 0.58056 1.09299 0.50113
 H181 H 0.65692 1.15492 0.44378
 H182 H 0.55944 1.08731 0.37730
 H183 H 0.61014 1.13866 0.27260
 H184 H 0.60974 1.10864 0.54458
 C185 C 0.18617 0.34466 0.11248
 C186 C 0.13388 0.36154 0.12560
 C187 C 0.11005 0.40104 0.07524
 C188 C 0.05625 0.41504 0.08538
 H189 H 0.10826 0.34623 0.17446
 H190 H 0.13650 0.41836 0.02927
 H191 H 0.21140 0.35949 0.06282
 H192 H 0.03040 0.39531 0.12902
 C193 C 0.67783 0.85371 0.64209
 C194 C 0.63222 0.87618 0.67186
 C195 C 0.60745 0.91844 0.62972
 C196 C 0.56146 0.94039 0.65952
 H197 H 0.61299 0.86347 0.72823
 H198 H 0.62600 0.93082 0.57271
 H199 H 0.69746 0.86696 0.58636
 H200 H 0.54235 0.92619 0.71486
 C201 C 0.86235 0.14325 0.21197
 C202 C 0.87295 0.12796 0.13644
 C203 C 0.91420 0.08909 0.12006
 C204 C 0.92754 0.07767 0.04353
 H205 H 0.85117 0.14466 0.08539
 H206 H 0.93305 0.06925 0.17041
 H207 H 0.88514 0.12748 0.26288
 H208 H 0.90608 0.09589 -0.00635
 C209 C 0.35256 0.65545 0.66429
 C210 C 0.36328 0.63757 0.59068
 C211 C 0.40607 0.59911 0.58091
 C212 C 0.42392 0.58547 0.50755
 H213 H 0.34074 0.65127 0.53791
 H214 H 0.42245 0.58089 0.63469
 H215 H 0.37692 0.64249 0.71593
 H216 H 0.40506 0.60154 0.45363
   
