data_POSCAR
  _audit_creation_date              2014-09-24
  _audit_creation_method            'ToBaCCo'
  _symmetry_space_group_name_H-M    'P1'
  _symmetry_Int_Tables_number       1
  _symmetry_cell_setting            triclinic
  loop_
  _symmetry_equiv_pos_as_xyz
 x,y,z
_cell_length_a 34.4525
_cell_length_b 24.4340
_cell_length_c 28.1557
_cell_angle_alpha 90.070000
_cell_angle_beta 90.005600
_cell_angle_gamma 89.800600
loop_
  _atom_site_label
  _atom_site_type_symbol
  _atom_site_fract_x
  _atom_site_fract_y
  _atom_site_fract_z
C1 C 0.25266 0.27482 0.24971
 C2 C 0.25132 0.21901 0.24817
 C3 C 0.22367 0.19001 0.21655
 C4 C 0.27717 0.18490 0.27835
 C5 C 0.28339 0.30397 0.27659
 C6 C 0.22329 0.30896 0.22482
 C7 C 0.19746 0.15227 0.23555
 C8 C 0.16881 0.12897 0.20689
 C9 C 0.16505 0.14384 0.15851
 C10 C 0.19408 0.17793 0.13901
 C11 C 0.22269 0.20108 0.16774
 C12 C 0.27855 0.19282 0.32766
 C13 C 0.30530 0.16405 0.35534
 C14 C 0.33042 0.12511 0.33465
 C15 C 0.32866 0.11724 0.28508
 C16 C 0.30194 0.14624 0.25739
 C17 C 0.32276 0.29249 0.26847
 C18 C 0.35139 0.31687 0.29641
 C19 C 0.34124 0.35311 0.33341
 C20 C 0.30184 0.36742 0.33892
 C21 C 0.27323 0.34281 0.31108
 C22 C 0.23512 0.34787 0.19137
 C23 C 0.20763 0.37721 0.16512
 C24 C 0.16758 0.36928 0.17268
 C25 C 0.15604 0.33029 0.20665
 C26 C 0.18353 0.30121 0.23296
 H27 H 0.19853 0.14191 0.27292
 H28 H 0.14950 0.09955 0.22303
 H29 H 0.19465 0.18728 0.10145
 H30 H 0.24375 0.22844 0.15204
 H31 H 0.25964 0.22254 0.34453
 H32 H 0.30687 0.17349 0.39283
 H33 H 0.30164 0.14010 0.21928
 H34 H 0.33128 0.26415 0.24072
 H35 H 0.38132 0.30741 0.28841
 H36 H 0.29304 0.39731 0.36525
 H37 H 0.24304 0.35315 0.31720
 H38 H 0.26570 0.35397 0.18425
 H39 H 0.21807 0.40446 0.13782
 H40 H 0.12565 0.32122 0.21218
 H41 H 0.17380 0.27148 0.25881
 H42 H 0.34867 0.08997 0.26721
 C43 C 0.74908 0.22073 0.24945
 C44 C 0.74985 0.27655 0.24980
 C45 C 0.78039 0.30693 0.22373
 C46 C 0.72055 0.30947 0.27603
 C47 C 0.72213 0.18919 0.28003
 C48 C 0.77598 0.18903 0.21870
 C49 C 0.81978 0.29743 0.23335
 C50 C 0.84843 0.32204 0.20570
 C51 C 0.83831 0.35627 0.16737
 C52 C 0.79875 0.36894 0.16044
 C53 C 0.77010 0.34417 0.18808
 C54 C 0.73264 0.34865 0.30921
 C55 C 0.70541 0.37761 0.33619
 C56 C 0.66532 0.36907 0.32968
 C57 C 0.65348 0.32963 0.29615
 C58 C 0.68073 0.30089 0.26910
 C59 C 0.69720 0.15057 0.25964
 C60 C 0.67048 0.12243 0.28774
 C61 C 0.66889 0.13100 0.33723
 C62 C 0.69382 0.17037 0.35732
 C63 C 0.72054 0.19841 0.32918
 C64 C 0.77623 0.19707 0.16941
 C65 C 0.80484 0.17263 0.14134
 C66 C 0.83427 0.14036 0.16205
 C67 C 0.83177 0.12877 0.21102
 C68 C 0.80303 0.15315 0.23906
 H69 H 0.82828 0.27024 0.26191
 H70 H 0.87844 0.31414 0.21462
 H71 H 0.78983 0.39769 0.13333
 H72 H 0.73983 0.35297 0.18088
 H73 H 0.76328 0.35542 0.31544
 H74 H 0.71613 0.40517 0.36316
 H75 H 0.67075 0.27101 0.24345
 H76 H 0.69764 0.14341 0.22167
 H77 H 0.65055 0.09476 0.27038
 H78 H 0.69232 0.18055 0.39465
 H79 H 0.73957 0.22809 0.34564
 H80 H 0.75484 0.22349 0.15289
 H81 H 0.80437 0.17994 0.10344
 H82 H 0.85202 0.10123 0.22806
 H83 H 0.80271 0.14553 0.27694
 H84 H 0.62307 0.32008 0.29144
 C85 C 0.74913 0.77832 0.75545
 C86 C 0.74864 0.72252 0.75602
 C87 C 0.72120 0.69126 0.72584
 C88 C 0.77543 0.69054 0.78665
 C89 C 0.77920 0.80999 0.78120
 C90 C 0.71965 0.81021 0.72864
 C91 C 0.69450 0.65554 0.74676
 C92 C 0.66598 0.63027 0.71916
 C93 C 0.66337 0.64068 0.67000
 C94 C 0.69225 0.67324 0.64882
 C95 C 0.72066 0.69856 0.67645
 C96 C 0.77730 0.70015 0.83572
 C97 C 0.80446 0.67246 0.86371
 C98 C 0.82957 0.63316 0.84355
 C99 C 0.82757 0.62404 0.79415
 C100 C 0.80040 0.65178 0.76622
 C101 C 0.81878 0.80037 0.77310
 C102 C 0.84681 0.82865 0.79910
 C103 C 0.83606 0.86885 0.83279
 C104 C 0.79603 0.87746 0.84104
 C105 C 0.76808 0.84907 0.81498
 C106 C 0.73145 0.84663 0.69314
 C107 C 0.70395 0.87382 0.66527
 C108 C 0.66391 0.86634 0.67319
 C109 C 0.65238 0.82961 0.70903
 C110 C 0.67990 0.80261 0.73694
 H111 H 0.69509 0.64843 0.78472
 H112 H 0.64619 0.60272 0.73670
 H113 H 0.69250 0.67990 0.61082
 H114 H 0.74180 0.72476 0.65947
 H115 H 0.75828 0.73004 0.85216
 H116 H 0.80623 0.68287 0.90099
 H117 H 0.79978 0.64442 0.72827
 H118 H 0.82796 0.77021 0.74717
 H119 H 0.87699 0.81820 0.79322
 H120 H 0.78582 0.90482 0.86854
 H121 H 0.73762 0.85632 0.82228
 H122 H 0.76203 0.85242 0.68582
 H123 H 0.71437 0.89916 0.63658
 H124 H 0.62202 0.82072 0.71491
 H125 H 0.67021 0.77465 0.76426
 H126 H 0.84762 0.59656 0.77660
 C127 C 0.24735 0.72070 0.74868
 C128 C 0.24803 0.77651 0.74820
 C129 C 0.27800 0.80721 0.72144
 C130 C 0.21860 0.80941 0.77421
 C131 C 0.22002 0.69039 0.77970
 C132 C 0.27373 0.68783 0.71815
 C133 C 0.31764 0.79725 0.72894
 C134 C 0.34549 0.82411 0.70160
 C135 C 0.33444 0.86293 0.66714
 C136 C 0.29451 0.87258 0.65985
 C137 C 0.26670 0.84557 0.68715
 C138 C 0.23042 0.84725 0.80859
 C139 C 0.20297 0.87618 0.83524
 C140 C 0.16280 0.86937 0.82701
 C141 C 0.15135 0.83051 0.79259
 C142 C 0.17887 0.80176 0.76598
 C143 C 0.19383 0.65312 0.75986
 C144 C 0.16547 0.62851 0.78810
 C145 C 0.16218 0.64146 0.83689
 C146 C 0.19101 0.67524 0.85712
 C147 C 0.21928 0.69977 0.82881
 C148 C 0.27500 0.69624 0.66891
 C149 C 0.30211 0.66835 0.64097
 C150 C 0.32775 0.62995 0.66137
 C151 C 0.32619 0.62179 0.71090
 C152 C 0.29909 0.64979 0.73881
 H153 H 0.32698 0.76786 0.75538
 H154 H 0.37574 0.81379 0.70697
 H155 H 0.28432 0.89960 0.63216
 H156 H 0.23620 0.85326 0.68044
 H157 H 0.26100 0.85298 0.81597
 H158 H 0.21361 0.90250 0.86321
 H159 H 0.16916 0.77254 0.73961
 H160 H 0.19471 0.64411 0.72219
 H161 H 0.14629 0.59943 0.77128
 H162 H 0.19156 0.68336 0.89492
 H163 H 0.24025 0.72688 0.84508
 H164 H 0.25567 0.72556 0.65230
 H165 H 0.30350 0.67805 0.60354
 H166 H 0.34662 0.59498 0.72855
 H167 H 0.29889 0.64334 0.77686
 H168 H 0.12104 0.82125 0.78670
 O169 O 0.96258 0.01086 -0.06546
 O170 O 1.03824 0.07568 0.00725
 O171 O 1.03803 0.01126 -0.06652
 O172 O 0.96293 0.07477 0.00854
 O173 O 0.96365 0.00239 0.05541
 O174 O 1.03900 -0.06090 -0.01940
 O175 O 1.03922 0.00362 0.05443
 O176 O 0.96359 -0.06144 -0.01850
 Cu177 Cu 1.00037 0.05037 -0.03380
 Cu178 Cu 1.00151 -0.03633 0.02274
 C179 C 0.95017 -0.03633 -0.05443
 C180 C 1.05154 0.05092 0.04344
 C181 C 1.05123 -0.03574 -0.05586
 C182 C 0.95051 0.04944 0.04483
 O183 O 0.46297 0.49178 0.56149
 O184 O 0.54027 0.43454 0.48639
 O185 O 0.53862 0.49696 0.56148
 O186 O 0.46521 0.43159 0.48538
 O187 O 0.46338 0.50534 0.44016
 O188 O 0.53614 0.57093 0.51663
 O189 O 0.53858 0.50840 0.44134
 O190 O 0.46057 0.56542 0.51621
 Cu191 Cu 0.50203 0.45641 0.52835
 Cu192 Cu 0.49957 0.54505 0.47416
 C193 C 0.44831 0.53809 0.55149
 C194 C 0.55235 0.46133 0.45077
 C195 C 0.54982 0.54524 0.55208
 C196 C 0.45193 0.45725 0.44963
 O197 O -0.03836 0.56687 -0.01077
 O198 O 0.03942 0.50871 0.06378
 O199 O 0.03716 0.57191 -0.01086
 O200 O -0.03598 0.50616 0.06478
 O201 O -0.03451 0.43290 0.01880
 O202 O 0.03945 0.49834 -0.05638
 O203 O 0.04081 0.43515 0.01820
 O204 O -0.03611 0.49360 -0.05667
 Cu205 Cu 0.00048 0.54584 0.03128
 Cu206 Cu 0.00269 0.45768 -0.02366
 C207 C -0.05063 0.53992 -0.04634
 C208 C 0.05309 0.46167 0.05393
 C209 C 0.05075 0.54649 -0.04655
 C210 C -0.04784 0.45842 0.05465
 O211 O 0.53895 0.98519 0.43816
 O212 O 0.46307 0.92509 0.51365
 O213 O 0.46317 0.98395 0.43679
 O214 O 0.53836 0.92596 0.51492
 O215 O 0.53736 1.00129 0.55833
 O216 O 0.46175 1.05891 0.48064
 O217 O 0.46207 1.00015 0.55741
 O218 O 0.53759 1.06046 0.48160
 Cu219 Cu 0.50104 0.94758 0.47138
 Cu220 Cu 0.49960 1.03786 0.52374
 C221 C 0.55138 1.03297 0.44717
 C222 C 0.44972 0.95231 0.54851
 C223 C 0.44935 1.03112 0.44566
 C224 C 0.55058 0.95363 0.55007
 C225 C 1.13456 0.12116 0.12873
 C226 C 1.09839 0.10737 0.15363
 C227 C 1.06968 0.08302 0.12360
 C228 C 1.08202 0.07763 0.07423
 C229 C 1.09295 0.13300 0.05982
 C230 C 1.12158 0.15720 0.09006
 C231 C 1.14710 0.07050 0.10557
 C232 C 1.11823 0.04662 0.07560
 H233 H 1.09116 0.12068 0.18936
 H234 H 1.04036 0.07489 0.13582
 H235 H 1.07857 0.15625 0.03205
 H236 H 1.12882 0.20030 0.08723
 H237 H 1.17570 0.05231 0.11002
 H238 H 1.12336 0.00928 0.05555
 C239 C 0.63159 0.61572 0.63923
 C240 C 0.64608 0.56531 0.61166
 C241 C 0.61900 0.54244 0.58267
 C242 C 0.57960 0.57185 0.58353
 C243 C 0.56769 0.57314 0.63604
 C244 C 0.59462 0.59620 0.66519
 C245 C 0.61570 0.65483 0.60082
 C246 C 0.58884 0.63186 0.57157
 H247 H 0.67531 0.54897 0.61473
 H248 H 0.62515 0.50674 0.56090
 H249 H 0.53956 0.55976 0.64887
 H250 H 0.58839 0.60334 0.70241
 H251 H 0.62379 0.69759 0.59787
 H252 H 0.57462 0.65506 0.54365
 C253 C -0.13068 0.38255 0.13639
 C254 C -0.14264 0.39178 0.08417
 C255 C -0.11530 0.41765 0.05758
 C256 C -0.07809 0.43140 0.08504
 C257 C -0.09188 0.46501 0.12812
 C258 C -0.11928 0.43947 0.15478
 C259 C -0.09198 0.35073 0.13233
 C260 C -0.06452 0.37656 0.10588
 H261 H -0.16958 0.37731 0.06871
 H262 H -0.11933 0.42606 0.02004
 H263 H -0.08112 0.50541 0.13711
 H264 H -0.13174 0.45811 0.18634
 H265 H -0.08707 0.30997 0.14636
 H266 H -0.03628 0.35846 0.09877
 C267 C 0.36515 0.88884 0.63547
 C268 C 0.35348 0.94235 0.60992
 C269 C 0.38144 0.96250 0.58069
 C270 C 0.41885 0.92825 0.57985
 C271 C 0.43121 0.92413 0.63213
 C272 C 0.40315 0.90399 0.66126
 C273 C 0.37775 0.84975 0.59548
 C274 C 0.40569 0.87017 0.56645
 H275 H 0.32689 0.96498 0.61640
 H276 H 0.37792 1.00083 0.56168
 H277 H 0.45931 0.93722 0.64532
 H278 H 0.40731 0.90082 0.69937
 H279 H 0.36560 0.80920 0.59045
 H280 H 0.41726 0.84688 0.53678
 C281 C -0.13893 0.60601 -0.12656
 C282 C -0.10179 0.64067 -0.12504
 C283 C -0.07259 0.61843 -0.09882
 C284 C -0.08289 0.56333 -0.07613
 C285 C -0.12016 0.57425 -0.04772
 C286 C -0.14952 0.59621 -0.07399
 C287 C -0.12547 0.54908 -0.14389
 C288 C -0.09606 0.52704 -0.11781
 H289 H -0.09874 0.67956 -0.14326
 H290 H -0.04461 0.63820 -0.09475
 H291 H -0.12373 0.56339 -0.01059
 H292 H -0.17817 0.60297 -0.05907
 H293 H -0.13922 0.52629 -0.17234
 H294 H -0.08463 0.48644 -0.12506
 C295 C 0.36180 1.09748 0.36440
 C296 C 0.39864 1.13267 0.36726
 C297 C 0.42767 1.11026 0.39365
 C298 C 0.41750 1.05452 0.41522
 C299 C 0.37977 1.06426 0.44302
 C300 C 0.35060 1.08627 0.41655
 C301 C 0.37597 1.04118 0.34632
 C302 C 0.40520 1.01896 0.37267
 H303 H 0.40165 1.17198 0.34972
 H304 H 0.45545 1.13034 0.39855
 H305 H 0.37579 1.05259 0.47989
 H306 H 0.32170 1.09219 0.43100
 H307 H 0.36290 1.01897 0.31707
 H308 H 0.41720 0.97882 0.36490
 C309 C 1.13408 -0.10425 -0.14318
 C310 C 1.14613 -0.04936 -0.12008
 C311 C 1.11882 -0.02756 -0.09061
 C312 C 1.08154 -0.06150 -0.08723
 C313 C 1.06801 -0.06818 -0.13885
 C314 C 1.09543 -0.08989 -0.16821
 C315 C 1.12243 -0.14107 -0.10129
 C316 C 1.09512 -0.11891 -0.07215
 H317 H 1.17246 -0.02715 -0.12845
 H318 H 1.12265 0.01171 -0.07315
 H319 H 1.03974 -0.05502 -0.15164
 H320 H 1.09047 -0.09386 -0.20612
 H321 H 1.13469 -0.18146 -0.09507
 H322 H 1.08426 -0.14054 -0.04127
 C323 C 0.63532 0.39610 0.36188
 C324 C 0.59663 0.41062 0.33725
 C325 C 0.56921 0.43151 0.36706
 C326 C 0.58283 0.43701 0.41877
 C327 C 0.59665 0.37929 0.43267
 C328 C 0.62394 0.35811 0.40298
 C329 C 0.64737 0.45027 0.38605
 C330 C 0.62001 0.47126 0.41597
 H331 H 0.59156 0.40661 0.29937
 H332 H 0.54073 0.44429 0.35468
 H333 H 0.58602 0.35676 0.46318
 H334 H 0.63645 0.31772 0.40831
 H335 H 0.67383 0.47243 0.37837
 H336 H 0.62385 0.50993 0.43438
 C337 C 0.86538 -0.10481 -0.13843
 C338 C 0.87800 -0.14141 -0.09673
 C339 C 0.90600 -0.11930 -0.06869
 C340 C 0.91922 -0.06217 -0.08461
 C341 C 0.93154 -0.06940 -0.13664
 C342 C 0.90343 -0.09109 -0.16488
 C343 C 0.85389 -0.04959 -0.11526
 C344 C 0.88189 -0.02788 -0.08688
 H345 H 0.86585 -0.18158 -0.08981
 H346 H 0.91756 -0.14077 -0.03804
 H347 H 0.95954 -0.05680 -0.15045
 H348 H 0.90754 -0.09574 -0.20290
 H349 H 0.82752 -0.02694 -0.12297
 H350 H 0.87850 0.01162 -0.06963
 C351 C 0.37178 0.37968 0.36497
 C352 C 0.41154 0.35040 0.36801
 C353 C 0.43800 0.37687 0.39553
 C354 C 0.42255 0.42973 0.41827
 C355 C 0.40769 0.46430 0.37637
 C356 C 0.38123 0.43813 0.34870
 C357 C 0.35946 0.38576 0.41741
 C358 C 0.38583 0.41228 0.44505
 H359 H 0.41796 0.31058 0.35288
 H360 H 0.46678 0.36034 0.40224
 H361 H 0.41703 0.50578 0.36892
 H362 H 0.36820 0.45731 0.31777
 H363 H 0.33279 0.36929 0.43199
 H364 H 0.38134 0.41904 0.48277
 C365 C 0.13220 0.61794 -0.13354
 C366 C 0.09454 0.60009 -0.15916
 C367 C 0.06782 0.57656 -0.13007
 C368 C 0.08045 0.57341 -0.07789
 C369 C 0.11954 0.54322 -0.07853
 C370 C 0.14647 0.56638 -0.10748
 C371 C 0.11705 0.65625 -0.09385
 C372 C 0.09041 0.63284 -0.06463
 H373 H 0.08770 0.60894 -0.19596
 H374 H 0.03931 0.56439 -0.14260
 H375 H 0.12560 0.50677 -0.05775
 H376 H 0.17549 0.54946 -0.11144
 H377 H 0.12498 0.69903 -0.09030
 H378 H 0.07652 0.65559 -0.03615
 C379 C 0.63809 1.10271 0.36722
 C380 C 0.64833 1.09479 0.42016
 C381 C 0.61948 1.07158 0.44623
 C382 C 0.58305 1.05758 0.41734
 C383 C 0.57101 1.11141 0.39346
 C384 C 0.59969 1.13493 0.36740
 C385 C 0.62698 1.04459 0.35064
 C386 C 0.59809 1.02124 0.37657
 H387 H 0.67654 1.10332 0.43553
 H388 H 0.62301 1.06169 0.48357
 H389 H 0.54227 1.12944 0.39663
 H390 H 0.59543 1.17315 0.34843
 H391 H 0.64176 1.02236 0.32255
 H392 H 0.58810 0.97990 0.36969
 C393 C 0.13718 0.39635 0.14110
 C394 C 0.12479 0.35799 0.10059
 C395 C 0.09709 0.37917 0.07151
 C396 C 0.08390 0.43724 0.08536
 C397 C 0.07120 0.43255 0.13747
 C398 C 0.09905 0.41168 0.16666
 C399 C 0.14914 0.45003 0.11621
 C400 C 0.12136 0.47102 0.08691
 H401 H 0.13690 0.31735 0.09525
 H402 H 0.08570 0.35638 0.04151
 H403 H 0.04305 0.44586 0.15052
 H404 H 0.09465 0.40820 0.20470
 H405 H 0.17589 0.47192 0.12298
 H406 H 0.12511 0.50942 0.06811
 C407 C 0.63363 0.89170 0.64042
 C408 C 0.62194 0.85186 0.60067
 C409 C 0.59453 0.87180 0.57050
 C410 C 0.58095 0.93019 0.58262
 C411 C 0.56758 0.92717 0.63457
 C412 C 0.59511 0.90755 0.66484
 C413 C 0.64568 0.94462 0.61443
 C414 C 0.61825 0.96432 0.58406
 H415 H 0.63428 0.81116 0.59663
 H416 H 0.58361 0.84794 0.54087
 H417 H 0.53924 0.94080 0.64674
 H418 H 0.59023 0.90551 0.70287
 H419 H 0.67223 0.96699 0.62122
 H420 H 0.62210 1.00213 0.56442
 C421 C 0.86665 0.11688 0.13119
 C422 C 0.85390 0.06494 0.10471
 C423 C 0.88165 0.04310 0.07594
 C424 C 0.91992 0.07500 0.07593
 C425 C 0.90844 0.13402 0.06290
 C426 C 0.88091 0.15600 0.09194
 C427 C 0.90441 0.10044 0.15721
 C428 C 0.93203 0.07839 0.12832
 H429 H 0.82530 0.04688 0.10829
 H430 H 0.87672 0.00653 0.05486
 H431 H 0.92179 0.15743 0.03457
 H432 H 0.87147 0.19824 0.08842
 H433 H 0.91043 0.10885 0.19429
 H434 H 0.96066 0.06708 0.14120
 C435 C 0.35945 0.60308 0.63156
 C436 C 0.37350 0.54660 0.64918
 C437 C 0.40310 0.52489 0.62316
 C438 C 0.41587 0.56105 0.58128
 C439 C 0.37847 0.57097 0.55286
 C440 C 0.34892 0.59257 0.57905
 C441 C 0.39623 0.63846 0.62982
 C442 C 0.42563 0.61655 0.60369
 H443 H 0.36006 0.52391 0.67785
 H444 H 0.41501 0.48463 0.63064
 H445 H 0.37498 0.55966 0.51580
 H446 H 0.32018 0.59851 0.56413
 H447 H 0.39891 0.67759 0.64784
 H448 H 0.45341 0.63685 0.59950
   
