data_POSCAR
  _audit_creation_date              2014-09-24
  _audit_creation_method            'ToBaCCo'
  _symmetry_space_group_name_H-M    'P1'
  _symmetry_Int_Tables_number       1
  _symmetry_cell_setting            triclinic
  loop_
  _symmetry_equiv_pos_as_xyz
 x,y,z
_cell_length_a 46.7941
_cell_length_b 35.1095
_cell_length_c 23.0702
_cell_angle_alpha 89.950900
_cell_angle_beta 89.964000
_cell_angle_gamma 90.046400
loop_
  _atom_site_label
  _atom_site_type_symbol
  _atom_site_fract_x
  _atom_site_fract_y
  _atom_site_fract_z
C1 C 0.70120 0.29665 0.55381
 C2 C 0.68915 0.30752 0.50093
 C3 C 0.70135 0.29654 0.44833
 C4 C 0.72635 0.27404 0.44790
 C5 C 0.73886 0.26276 0.50126
 C6 C 0.72625 0.27410 0.55454
 C7 C 0.73902 0.26257 0.60688
 C8 C 0.76366 0.24036 0.60695
 C9 C 0.77651 0.22880 0.55468
 C10 C 0.76400 0.24011 0.50131
 C11 C 0.73914 0.26253 0.39563
 C12 C 0.76378 0.24034 0.39565
 C13 C 0.77657 0.22879 0.44798
 C14 C 0.80160 0.20621 0.44861
 C15 C 0.81369 0.19527 0.50142
 C16 C 0.80153 0.20621 0.55415
 H17 H 0.73003 0.27066 0.64833
 H18 H 0.77259 0.23229 0.64847
 H19 H 0.73018 0.27062 0.35416
 H20 H 0.77275 0.23227 0.35418
 H21 H 0.66991 0.32483 0.50059
 H22 H 0.83292 0.17790 0.50147
 C23 C 0.19959 0.79359 0.55417
 C24 C 0.18743 0.80454 0.50149
 C25 C 0.19949 0.79356 0.44873
 C26 C 0.22445 0.77097 0.44809
 C27 C 0.23703 0.75964 0.50137
 C28 C 0.22455 0.77100 0.55470
 C29 C 0.23733 0.75949 0.60698
 C30 C 0.26195 0.73722 0.60695
 C31 C 0.27472 0.72562 0.55460
 C32 C 0.26212 0.73695 0.50131
 C33 C 0.23716 0.75942 0.39574
 C34 C 0.26178 0.73716 0.39566
 C35 C 0.27459 0.72563 0.44793
 C36 C 0.29955 0.70307 0.44835
 C37 C 0.31176 0.69208 0.50096
 C38 C 0.29973 0.70301 0.55385
 H39 H 0.22838 0.76764 0.64844
 H40 H 0.27094 0.72914 0.64841
 H41 H 0.22814 0.76754 0.35433
 H42 H 0.27071 0.72904 0.35418
 H43 H 0.16824 0.82191 0.50155
 H44 H 0.33097 0.67473 0.50062
 C45 C 0.20068 0.20345 -0.44923
 C46 C 0.18849 0.19245 -0.50182
 C47 C 0.20059 0.20327 -0.55472
 C48 C 0.22568 0.22579 -0.55553
 C49 C 0.23827 0.23714 -0.50229
 C50 C 0.22573 0.22592 -0.44887
 C51 C 0.23854 0.23745 -0.39664
 C52 C 0.26322 0.25961 -0.39677
 C53 C 0.27601 0.27106 -0.44914
 C54 C 0.26345 0.25975 -0.50242
 C55 C 0.23850 0.23728 -0.60791
 C56 C 0.26318 0.25946 -0.60804
 C57 C 0.27602 0.27103 -0.55580
 C58 C 0.30110 0.29358 -0.55524
 C59 C 0.31322 0.30448 -0.50245
 C60 C 0.30104 0.29355 -0.44975
 H61 H 0.22954 0.22940 -0.35514
 H62 H 0.27223 0.26772 -0.35536
 H63 H 0.22950 0.22918 -0.64934
 H64 H 0.27215 0.26750 -0.64956
 H65 H 0.16922 0.17516 -0.50144
 H66 H 0.33247 0.32181 -0.50225
 C67 C -0.30164 0.70587 -0.44848
 C68 C -0.31372 0.69495 -0.50128
 C69 C -0.30158 0.70602 -0.55402
 C70 C -0.27659 0.72875 -0.55451
 C71 C -0.26410 0.74004 -0.50111
 C72 C -0.27666 0.72857 -0.44781
 C73 C -0.26388 0.74010 -0.39545
 C74 C -0.23928 0.76242 -0.39538
 C75 C -0.22651 0.77408 -0.44762
 C76 C -0.23900 0.76283 -0.50100
 C77 C -0.26376 0.74046 -0.60675
 C78 C -0.23916 0.76280 -0.60663
 C79 C -0.22642 0.77431 -0.55426
 C80 C -0.20141 0.79700 -0.55348
 C81 C -0.18937 0.80784 -0.50060
 C82 C -0.20155 0.79672 -0.44801
 H83 H -0.27285 0.73192 -0.35399
 H84 H -0.23033 0.77049 -0.35390
 H85 H -0.27267 0.73241 -0.64828
 H86 H -0.23018 0.77101 -0.64807
 H87 H -0.33291 0.67748 -0.50134
 H88 H -0.17016 0.82525 -0.50025
 N89 N 0.02925 0.95899 -0.10140
 N90 N 0.04921 0.95223 -0.14043
 N91 N -0.03100 0.93288 -0.06136
 N92 N -0.05109 0.90742 -0.07235
 N93 N -0.03081 0.95956 -0.10131
 N94 N -0.05073 0.95305 -0.14050
 N95 N 0.02913 0.93232 -0.06143
 N96 N 0.04904 0.90661 -0.07223
 C97 C 0.06151 0.91979 -0.12123
 C98 C -0.06335 0.92077 -0.12142
 N99 N -0.03076 0.95960 0.10365
 N100 N -0.05077 0.95319 0.14278
 N101 N 0.02915 0.93233 0.06367
 N102 N 0.04899 0.90654 0.07465
 N103 N 0.02929 0.95903 0.10353
 N104 N 0.04919 0.95220 0.14265
 N105 N -0.03097 0.93292 0.06377
 N106 N -0.05115 0.90756 0.07473
 Mn107 Mn -0.00093 0.93218 0.00116
 C108 C -0.06343 0.92097 0.12373
 C109 C 0.06144 0.91970 0.12363
 N110 N -0.03032 1.04156 -0.10143
 N111 N -0.05021 1.04839 -0.14057
 N112 N 0.02993 1.06769 -0.06173
 N113 N 0.05002 1.09315 -0.07289
 N114 N 0.02973 1.04099 -0.10157
 N115 N 0.04965 1.04747 -0.14085
 N116 N -0.03019 1.06825 -0.06156
 N117 N -0.05002 1.09405 -0.07255
 Mn118 Mn -0.00054 1.00028 -0.10195
 C119 C -0.06245 1.08089 -0.12154
 C120 C 0.06227 1.07976 -0.12194
 N121 N 0.02978 1.04103 0.10337
 N122 N 0.04981 1.04746 0.14238
 N123 N -0.03016 1.06829 0.06359
 N124 N -0.04993 1.09415 0.07471
 N125 N -0.03027 1.04160 0.10354
 N126 N -0.05008 1.04850 0.14285
 N127 N 0.02996 1.06770 0.06340
 N128 N 0.05014 1.09307 0.07419
 Mn129 Mn -0.00049 1.00032 0.10405
 Mn130 Mn -0.00011 1.06842 0.00093
 Cl131 Cl -0.00052 1.00030 0.00105
 C132 C 0.06246 1.07968 0.12317
 C133 C -0.06231 1.08103 0.12385
 N134 N 0.53016 0.56768 -0.06341
 N135 N 0.55000 0.59350 -0.07446
 N136 N 0.47021 0.54046 -0.10332
 N137 N 0.45027 0.54694 -0.14249
 N138 N 0.47004 0.56712 -0.06342
 N139 N 0.44995 0.59256 -0.07442
 N140 N 0.53026 0.54101 -0.10331
 N141 N 0.55014 0.54788 -0.14252
 C142 C 0.56241 0.58038 -0.12350
 C143 C 0.43767 0.57920 -0.12345
 N144 N 0.47068 0.43175 -0.06337
 N145 N 0.45081 0.40598 -0.07432
 N146 N 0.53065 0.45901 -0.10330
 N147 N 0.55061 0.45255 -0.14247
 N148 N 0.53080 0.43231 -0.06338
 N149 N 0.55089 0.40689 -0.07437
 N150 N 0.47060 0.45846 -0.10328
 N151 N 0.45070 0.45166 -0.14241
 Mn152 Mn 0.50043 0.49973 -0.10383
 C153 C 0.43840 0.41917 -0.12333
 C154 C 0.56320 0.42028 -0.12342
 N155 N 0.47000 0.56706 0.06170
 N156 N 0.44989 0.59247 0.07265
 N157 N 0.53020 0.54094 0.10165
 N158 N 0.55002 0.54781 0.14090
 N159 N 0.53013 0.56764 0.06173
 N160 N 0.54993 0.59349 0.07281
 N161 N 0.47015 0.54036 0.10162
 N162 N 0.45016 0.54679 0.14074
 Mn163 Mn 0.50008 0.56781 -0.00085
 C164 C 0.43757 0.57905 0.12166
 C165 C 0.56230 0.58035 0.12190
 N166 N 0.53075 0.43227 0.06175
 N167 N 0.55087 0.40688 0.07270
 N168 N 0.47052 0.45836 0.10166
 N169 N 0.45061 0.45151 0.14081
 N170 N 0.47063 0.43169 0.06176
 N171 N 0.45076 0.40590 0.07274
 N172 N 0.53058 0.45894 0.10165
 N173 N 0.55054 0.45249 0.14077
 Mn174 Mn 0.50072 0.43157 -0.00081
 Mn175 Mn 0.50036 0.49965 0.10217
 Cl176 Cl 0.50040 0.49969 -0.00083
 C177 C 0.56316 0.42026 0.12170
 C178 C 0.43832 0.41902 0.12176
 C179 C 0.31437 0.30558 0.39515
 C180 C 0.32698 0.31702 0.35297
 C181 C 0.34316 0.33174 0.30483
 C182 C 0.33713 0.36807 0.28284
 C183 C 0.35495 0.38432 0.24084
 C184 C 0.37886 0.36432 0.22066
 C185 C 0.38441 0.32755 0.24142
 C186 C 0.36660 0.31129 0.28342
 C187 C 0.39907 0.38282 0.18290
 C188 C 0.41666 0.39900 0.15365
 H189 H 0.31923 0.38428 0.29947
 H190 H 0.35060 0.41291 0.22550
 H191 H 0.40299 0.31196 0.22652
 H192 H 0.37161 0.28333 0.30050
 C193 C -0.18811 0.80909 0.39702
 C194 C -0.17549 0.82054 0.35488
 C195 C -0.15929 0.83519 0.30675
 C196 C -0.16470 0.87196 0.28584
 C197 C -0.14680 0.88802 0.24383
 C198 C -0.12344 0.86737 0.22255
 C199 C -0.11854 0.83017 0.24221
 C200 C -0.13643 0.81411 0.28423
 C201 C -0.10307 0.88554 0.18481
 C202 C -0.08532 0.90139 0.15558
 H203 H -0.18216 0.88863 0.30334
 H204 H -0.15064 0.91693 0.22933
 H205 H -0.10038 0.81408 0.22645
 H206 H -0.13190 0.78579 0.30047
 C207 C 0.68526 0.69400 0.39632
 C208 C 0.67277 0.68255 0.35407
 C209 C 0.65675 0.66781 0.30581
 C210 C 0.66292 0.63154 0.28387
 C211 C 0.64527 0.61526 0.24170
 C212 C 0.62136 0.63518 0.22130
 C213 C 0.61567 0.67191 0.24201
 C214 C 0.63333 0.68819 0.28418
 C215 C 0.60131 0.61665 0.18334
 C216 C 0.58384 0.60043 0.15394
 H217 H 0.68082 0.61538 0.30067
 H218 H 0.64972 0.58670 0.22640
 H219 H 0.59710 0.68744 0.22694
 H220 H 0.62820 0.71611 0.30122
 C221 C 0.18727 1.19128 0.39580
 C222 C 0.17464 1.17992 0.35369
 C223 C 0.15842 1.16535 0.30561
 C224 C 0.16386 1.12864 0.28456
 C225 C 0.14594 1.11262 0.24263
 C226 C 0.12252 1.13326 0.22157
 C227 C 0.11759 1.17040 0.24137
 C228 C 0.13551 1.18641 0.28331
 C229 C 0.10213 1.11511 0.18396
 C230 C 0.08436 1.09926 0.15486
 H231 H 0.18136 1.11197 0.30189
 H232 H 0.14980 1.08376 0.22803
 H233 H 0.09939 1.18648 0.22579
 H234 H 0.13095 1.21468 0.29966
 C235 C 0.68787 0.30862 -0.39668
 C236 C 0.67520 0.31998 -0.35457
 C237 C 0.65895 0.33455 -0.30649
 C238 C 0.66454 0.37115 -0.28515
 C239 C 0.64663 0.38717 -0.24318
 C240 C 0.62306 0.36664 -0.22237
 C241 C 0.61796 0.32961 -0.24249
 C242 C 0.63587 0.31360 -0.28446
 C243 C 0.60273 0.38480 -0.18460
 C244 C 0.58502 0.40066 -0.15533
 H245 H 0.68216 0.38774 -0.30226
 H246 H 0.65063 0.41595 -0.22833
 H247 H 0.59965 0.31361 -0.22710
 H248 H 0.63119 0.28541 -0.30104
 C249 C 0.18564 0.80633 -0.39345
 C250 C 0.17303 0.81785 -0.35140
 C251 C 0.15686 0.83264 -0.30339
 C252 C 0.13359 0.81202 -0.28149
 C253 C 0.11575 0.82830 -0.23963
 C254 C 0.12113 0.86526 -0.21951
 C255 C 0.14490 0.88544 -0.24016
 C256 C 0.16273 0.86916 -0.28202
 C257 C 0.10088 0.88373 -0.18196
 C258 C 0.08323 0.89986 -0.15290
 H259 H 0.12870 0.78390 -0.29809
 H260 H 0.09729 0.81257 -0.22435
 H261 H 0.14911 0.91416 -0.22531
 H262 H 0.18051 0.88549 -0.29904
 C263 C 0.31306 0.69103 -0.39663
 C264 C 0.32572 0.67965 -0.35453
 C265 C 0.34196 0.66506 -0.30646
 C266 C 0.36503 0.68600 -0.28449
 C267 C 0.38294 0.66995 -0.24253
 C268 C 0.37784 0.63291 -0.22237
 C269 C 0.35427 0.61239 -0.24312
 C270 C 0.33637 0.62843 -0.28507
 C271 C 0.39816 0.61472 -0.18462
 C272 C 0.41586 0.59884 -0.15536
 H273 H 0.36971 0.71420 -0.30110
 H274 H 0.40124 0.68594 -0.22720
 H275 H 0.35028 0.58360 -0.22824
 H276 H 0.31875 0.61185 -0.30214
 C277 C -0.18531 1.19419 -0.39619
 C278 C -0.17285 1.18277 -0.35389
 C279 C -0.15688 1.16811 -0.30552
 C280 C -0.16306 1.13182 -0.28351
 C281 C -0.14544 1.11560 -0.24123
 C282 C -0.12157 1.13561 -0.22080
 C283 C -0.11588 1.17236 -0.24157
 C284 C -0.13351 1.18858 -0.28384
 C285 C -0.10152 1.11712 -0.18284
 C286 C -0.08402 1.10093 -0.15348
 H287 H -0.18093 1.11560 -0.30034
 H288 H -0.14989 1.08703 -0.22588
 H289 H -0.09733 1.18794 -0.22648
 H290 H -0.12838 1.21651 -0.30094
 C291 C 0.68515 0.69376 -0.39888
 C292 C 0.67267 0.68230 -0.35658
 C293 C 0.65670 0.66762 -0.30816
 C294 C 0.66290 0.63136 -0.28609
 C295 C 0.64531 0.61516 -0.24367
 C296 C 0.62147 0.63515 -0.22314
 C297 C 0.61576 0.67186 -0.24397
 C298 C 0.63335 0.68807 -0.28640
 C299 C 0.60144 0.61666 -0.18502
 C300 C 0.58397 0.60046 -0.15554
 H301 H 0.68076 0.61517 -0.30298
 H302 H 0.64977 0.58661 -0.22827
 H303 H 0.59723 0.68743 -0.22881
 H304 H 0.62822 0.71598 -0.30352
 C305 C 0.18665 1.19095 -0.39673
 C306 C 0.17398 1.17966 -0.35454
 C307 C 0.15775 1.16521 -0.30629
 C308 C 0.16343 1.12875 -0.28444
 C309 C 0.14558 1.11284 -0.24219
 C310 C 0.12199 1.13334 -0.22160
 C311 C 0.11679 1.17023 -0.24224
 C312 C 0.13464 1.18614 -0.28450
 C313 C 0.10171 1.11525 -0.18353
 C314 C 0.08405 1.09941 -0.15405
 H315 H 0.18108 1.11217 -0.30134
 H316 H 0.14965 1.08416 -0.22694
 H317 H 0.09846 1.18620 -0.22704
 H318 H 0.12990 1.21422 -0.30145
 C319 C 0.31502 0.30622 -0.39738
 C320 C 0.32760 0.31764 -0.35525
 C321 C 0.34368 0.33228 -0.30703
 C322 C 0.33761 0.36858 -0.28506
 C323 C 0.35530 0.38473 -0.24286
 C324 C 0.37912 0.36464 -0.22245
 C325 C 0.38471 0.32789 -0.24320
 C326 C 0.36702 0.31174 -0.28540
 C327 C 0.39924 0.38305 -0.18454
 C328 C 0.41678 0.39918 -0.15522
 H329 H 0.31976 0.38484 -0.30185
 H330 H 0.35093 0.41330 -0.22752
 H331 H 0.40322 0.31225 -0.22813
 H332 H 0.37205 0.28380 -0.30246
 C333 C -0.18757 0.80925 -0.39552
 C334 C -0.17494 0.82058 -0.35338
 C335 C -0.15876 0.83509 -0.30519
 C336 C -0.16441 0.87162 -0.28363
 C337 C -0.14659 0.88758 -0.24148
 C338 C -0.12304 0.86708 -0.22070
 C339 C -0.11787 0.83012 -0.24104
 C340 C -0.13569 0.81416 -0.28319
 C341 C -0.10277 0.88522 -0.18276
 C342 C -0.08511 0.90109 -0.15339
 H343 H -0.18203 0.88819 -0.30070
 H344 H -0.15063 0.91630 -0.22646
 H345 H -0.09957 0.81415 -0.22568
 H346 H -0.13097 0.78603 -0.29992
 C347 C 0.31349 0.69046 0.39588
 C348 C 0.32607 0.67912 0.35368
 C349 C 0.34218 0.66460 0.30541
 C350 C 0.33656 0.62800 0.28411
 C351 C 0.35435 0.61204 0.24189
 C352 C 0.37782 0.63263 0.22080
 C353 C 0.38294 0.66967 0.24087
 C354 C 0.36515 0.68562 0.28309
 C355 C 0.39809 0.61451 0.18289
 C356 C 0.41577 0.59866 0.15356
 H357 H 0.31901 0.61136 0.30144
 H358 H 0.35035 0.58325 0.22708
 H359 H 0.40118 0.68571 0.22526
 H360 H 0.36984 0.71382 0.29962
 C361 C -0.18515 1.19421 0.39901
 C362 C -0.17262 1.18282 0.35676
 C363 C -0.15658 1.16819 0.30843
 C364 C -0.13304 1.18853 0.28709
 C365 C -0.11542 1.17236 0.24476
 C366 C -0.12126 1.13578 0.22360
 C367 C -0.14527 1.11589 0.24374
 C368 C -0.16290 1.13206 0.28606
 C369 C -0.10125 1.11731 0.18548
 C370 C -0.08381 1.10112 0.15596
 H371 H -0.12781 1.21634 0.30445
 H372 H -0.09676 1.18785 0.22991
 H373 H -0.14985 1.08744 0.22809
 H374 H -0.18089 1.11594 0.30262
 C375 C 0.68738 0.30908 0.39586
 C376 C 0.67477 0.32038 0.35368
 C377 C 0.65863 0.33485 0.30541
 C378 C 0.66424 0.37143 0.28390
 C379 C 0.64643 0.38734 0.24169
 C380 C 0.62294 0.36673 0.22082
 C381 C 0.61783 0.32972 0.24109
 C382 C 0.63564 0.31380 0.28331
 C383 C 0.60266 0.38482 0.18291
 C384 C 0.58497 0.40065 0.15359
 H385 H 0.68180 0.38809 0.30106
 H386 H 0.65042 0.41612 0.22672
 H387 H 0.59958 0.31366 0.22566
 H388 H 0.63096 0.28563 0.30001
 C389 C 0.18545 0.80627 0.39641
 C390 C 0.17277 0.81776 0.35443
 C391 C 0.15655 0.83252 0.30645
 C392 C 0.13311 0.81203 0.28507
 C393 C 0.11529 0.82828 0.24315
 C394 C 0.12084 0.86508 0.22244
 C395 C 0.14475 0.88513 0.24260
 C396 C 0.16257 0.86888 0.28452
 C397 C 0.10065 0.88355 0.18471
 C398 C 0.08307 0.89970 0.15548
 H399 H 0.12810 0.78404 0.30210
 H400 H 0.09672 0.81266 0.22826
 H401 H 0.14909 0.91374 0.22729
 H402 H 0.18047 0.88512 0.30112
   
