data_POSCAR
  _audit_creation_date              2014-09-24
  _audit_creation_method            'ToBaCCo'
  _symmetry_space_group_name_H-M    'P1'
  _symmetry_Int_Tables_number       1
  _symmetry_cell_setting            triclinic
  loop_
  _symmetry_equiv_pos_as_xyz
 x,y,z
_cell_length_a 31.3055
_cell_length_b 31.3061
_cell_length_c 31.1520
_cell_angle_alpha 89.902600
_cell_angle_beta 89.903100
_cell_angle_gamma 89.879700
loop_
  _atom_site_label
  _atom_site_type_symbol
  _atom_site_fract_x
  _atom_site_fract_y
  _atom_site_fract_z
C1 C 0.17312 0.17172 0.22787
 C2 C 0.15488 0.20834 0.20946
 C3 C 0.17325 0.22673 0.17282
 C4 C 0.20990 0.20851 0.15452
 C5 C 0.22823 0.17188 0.17285
 C6 C 0.20981 0.15350 0.20954
 H7 H 0.12652 0.22257 0.22357
 H8 H 0.22408 0.22287 0.12616
 H9 H 0.22399 0.12517 0.22380
 C10 C -0.17268 0.82727 0.22976
 C11 C -0.15446 0.79066 0.21135
 C12 C -0.17283 0.77240 0.17475
 C13 C -0.20942 0.79074 0.15653
 C14 C -0.22768 0.82732 0.17487
 C15 C -0.20931 0.84558 0.21147
 H16 H -0.12614 0.77636 0.22541
 H17 H -0.22367 0.77658 0.12823
 H18 H -0.22355 0.87389 0.22563
 C19 C -0.17262 0.17327 -0.22892
 C20 C -0.20920 0.15507 -0.21045
 C21 C -0.22763 0.17347 -0.17385
 C22 C -0.20947 0.21007 -0.15568
 C23 C -0.17292 0.22831 -0.17407
 C24 C -0.15450 0.20991 -0.21067
 H25 H -0.22336 0.12674 -0.22448
 H26 H -0.22376 0.22434 -0.12737
 H27 H -0.12622 0.22413 -0.22487
 C28 C 0.17349 0.82764 -0.22877
 C29 C 0.15526 0.79105 -0.21038
 C30 C 0.17356 0.77261 -0.17373
 C31 C 0.21011 0.79077 -0.15544
 C32 C 0.22838 0.82734 -0.17377
 C33 C 0.21007 0.84577 -0.21042
 H34 H 0.12698 0.77688 -0.22449
 H35 H 0.22430 0.77648 -0.12710
 H36 H 0.22431 0.87407 -0.22457
 C37 C 0.17273 1.17270 0.77024
 C38 C 0.20934 1.15447 0.78866
 C39 C 0.22761 1.17284 0.82526
 C40 C 0.20927 1.20944 0.84347
 C41 C 0.17270 1.22770 0.82512
 C42 C 0.15443 1.20934 0.78853
 H43 H 0.22363 1.12614 0.77460
 H44 H 0.22343 1.22368 0.87177
 H45 H 0.12613 1.22358 0.77437
 C46 C 0.82829 0.82689 0.77213
 C47 C 0.79168 0.84513 0.79054
 C48 C 0.77329 0.82675 0.82718
 C49 C 0.79151 0.79010 0.84548
 C50 C 0.82813 0.77177 0.82715
 C51 C 0.84652 0.79020 0.79046
 H52 H 0.77745 0.87349 0.77643
 H53 H 0.77715 0.77592 0.87384
 H54 H 0.87485 0.77601 0.77620
 C55 C 0.17236 0.82653 1.22876
 C56 C 0.15422 0.78996 1.21041
 C57 C 0.17265 0.77165 1.17376
 C58 C 0.20922 0.78991 1.15543
 C59 C 0.22738 0.82645 1.17372
 C60 C 0.20895 0.84475 1.21036
 H61 H 0.12592 0.77572 1.22456
 H62 H 0.22351 0.77572 1.12709
 H63 H 0.22312 0.87303 1.22448
 C64 C 0.82672 1.17264 1.22894
 C65 C 0.79009 1.15452 1.21068
 C66 C 0.77169 1.17294 1.17407
 C67 C 0.78993 1.20949 1.15568
 C68 C 0.82652 1.22765 1.17386
 C69 C 0.84492 1.20923 1.21047
 H70 H 0.77587 1.12623 1.22488
 H71 H 0.77566 1.22377 1.12737
 H72 H 0.87324 1.22339 1.22450
 N73 N 0.54431 1.04630 1.07645
 N74 N 0.57655 1.05177 1.10314
 N75 N 0.45443 1.07583 1.04630
 N76 N 0.42199 1.10232 1.05171
 N77 N 0.45441 1.04616 1.07616
 N78 N 0.42196 1.05161 1.10274
 N79 N 0.54435 1.07597 1.04659
 N80 N 0.57662 1.10247 1.05210
 C81 C 0.59624 1.08689 1.08746
 C82 C 0.40219 1.08671 1.08699
 N83 N 0.45518 1.04615 0.92404
 N84 N 0.42295 1.05157 0.89727
 N85 N 0.54481 1.07597 0.95409
 N86 N 0.57706 1.10256 0.94860
 N87 N 0.54507 1.04628 0.92434
 N88 N 0.57748 1.05183 0.89776
 N89 N 0.45491 1.07582 0.95380
 N90 N 0.42249 1.10227 0.94813
 Mn91 Mn 0.49962 1.07641 1.00020
 C92 C 0.40302 1.08665 0.91279
 C93 C 0.59698 1.08700 0.91338
 N94 N 0.45474 0.95413 1.07631
 N95 N 0.42231 0.94856 1.10287
 N96 N 0.54489 0.92461 1.04684
 N97 N 0.57730 0.89815 1.05249
 N98 N 0.54464 0.95428 1.07661
 N99 N 0.57688 0.94885 1.10336
 N100 N 0.45501 0.92447 1.04654
 N101 N 0.42277 0.89788 1.05199
 Mn102 Mn 0.49952 1.00022 1.07689
 C103 C 0.40283 0.91340 1.08720
 C104 C 0.59679 0.91376 1.08782
 N105 N 0.54540 0.95425 0.92451
 N106 N 0.57785 0.94875 0.89793
 N107 N 0.45546 0.92446 0.95407
 N108 N 0.42320 0.89794 0.94854
 N109 N 0.45550 0.95413 0.92420
 N110 N 0.42328 0.94863 0.89749
 N111 N 0.54535 0.92459 0.95438
 N112 N 0.57774 0.89806 0.94899
 Mn113 Mn 0.50029 1.00020 0.92376
 Mn114 Mn 0.50018 0.92403 1.00046
 Cl115 Cl 0.49990 1.00022 1.00033
 C116 C 0.59756 0.91362 0.91371
 C117 C 0.40360 0.91350 0.91316
 N118 N -0.04629 0.45570 -0.07645
 N119 N -0.05177 0.42346 -0.10314
 N120 N -0.07583 0.54557 -0.04630
 N121 N -0.10232 0.57801 -0.05171
 N122 N -0.04615 0.54560 -0.07617
 N123 N -0.05160 0.57805 -0.10274
 N124 N -0.07597 0.45566 -0.04659
 N125 N -0.10247 0.42339 -0.05210
 C126 C -0.08690 0.40377 -0.08746
 C127 C -0.08671 0.59781 -0.08700
 N128 N -0.04615 0.54483 0.07596
 N129 N -0.05158 0.57705 0.10274
 N130 N -0.07596 0.45520 0.04591
 N131 N -0.10256 0.42296 0.05140
 N132 N -0.04628 0.45494 0.07566
 N133 N -0.05183 0.42253 0.10225
 N134 N -0.07582 0.54510 0.04620
 N135 N -0.10228 0.57751 0.05187
 Mn136 Mn -0.07640 0.50039 -0.00020
 C137 C -0.08667 0.59697 0.08721
 C138 C -0.08700 0.40303 0.08662
 N139 N 0.04588 0.54526 -0.07631
 N140 N 0.05145 0.57770 -0.10287
 N141 N 0.07540 0.45512 -0.04684
 N142 N 0.10187 0.42271 -0.05249
 N143 N 0.04573 0.45537 -0.07660
 N144 N 0.05117 0.42314 -0.10336
 N145 N 0.07554 0.54500 -0.04654
 N146 N 0.10214 0.57724 -0.05199
 Mn147 Mn -0.00021 0.50049 -0.07689
 C148 C 0.08661 0.59718 -0.08720
 C149 C 0.08626 0.40322 -0.08782
 N150 N 0.04575 0.45461 0.07550
 N151 N 0.05126 0.42217 0.10207
 N152 N 0.07554 0.54456 0.04593
 N153 N 0.10206 0.57681 0.05146
 N154 N 0.04587 0.54451 0.07580
 N155 N 0.05136 0.57673 0.10250
 N156 N 0.07542 0.45467 0.04563
 N157 N 0.10195 0.42227 0.05102
 Mn158 Mn -0.00020 0.49972 0.07624
 Mn159 Mn 0.07598 0.49983 -0.00045
 Cl160 Cl -0.00021 0.50011 -0.00033
 C161 C 0.08638 0.40245 0.08630
 C162 C 0.08649 0.59642 0.08683
 N163 N 1.04617 0.07565 0.54465
 N164 N 1.05171 0.10225 0.57699
 N165 N 1.07565 0.04570 0.45433
 N166 N 1.10220 0.05114 0.42181
 N167 N 1.04596 0.07541 0.45430
 N168 N 1.05147 0.10192 0.42175
 N169 N 1.07586 0.04594 0.54466
 N170 N 1.10246 0.05149 0.57701
 C171 C 1.08691 0.08669 0.59672
 C172 C 1.08662 0.08627 0.40194
 N173 N 1.04608 -0.07594 0.45496
 N174 N 1.05155 -0.10259 0.42260
 N175 N 1.07595 -0.04607 0.54504
 N176 N 1.10261 -0.05155 0.57739
 N177 N 1.04632 -0.07572 0.54529
 N178 N 1.05197 -0.10221 0.57782
 N179 N 1.07573 -0.04631 0.45471
 N180 N 1.10222 -0.05196 0.42217
 Mn181 Mn 1.07630 -0.00019 0.49968
 C182 C 1.08663 -0.08714 0.40261
 C183 C 1.08715 -0.08663 0.59739
 N184 N 0.95391 0.07552 0.45470
 N185 N 0.94825 0.10203 0.42219
 N186 N 0.92450 0.04610 0.54530
 N187 N 0.89799 0.05176 0.57782
 N188 N 0.95413 0.07575 0.54504
 N189 N 0.94862 0.10242 0.57738
 N190 N 0.92426 0.04589 0.45496
 N191 N 0.89758 0.05140 0.42263
 Mn192 Mn 1.00004 0.07609 0.49967
 C193 C 0.91305 0.08649 0.40263
 C194 C 0.91353 0.08695 0.59738
 N195 N 0.95431 -0.07564 0.54567
 N196 N 0.94887 -0.10219 0.57818
 N197 N 0.92436 -0.04615 0.45535
 N198 N 0.89774 -0.05170 0.42302
 N199 N 0.95406 -0.07584 0.45534
 N200 N 0.94850 -0.10245 0.42300
 N201 N 0.92460 -0.04595 0.54570
 N202 N 0.89809 -0.05146 0.57825
 Mn203 Mn 1.00019 -0.07629 0.50032
 Mn204 Mn 0.92392 -0.00002 0.50034
 Cl205 Cl 1.00011 -0.00010 0.50000
 C206 C 0.91374 -0.08661 0.59806
 C207 C 0.91330 -0.08690 0.40330
 C208 C 1.15529 0.15400 0.26362
 C209 C 1.13948 0.13842 0.29529
 C210 C 1.12099 0.12026 0.33240
 C211 C 1.10526 0.10477 0.36413
 C212 C 0.84509 -0.15504 0.26543
 C213 C 0.86077 -0.13940 0.29702
 C214 C 0.87908 -0.12111 0.33403
 C215 C 0.89469 -0.10549 0.36565
 C216 C 0.84521 0.15547 0.73539
 C217 C 0.86096 0.13975 0.70378
 C218 C 0.87933 0.12137 0.66674
 C219 C 0.89497 0.10567 0.63509
 C220 C 1.15575 -0.15456 0.73551
 C221 C 1.14002 -0.13889 0.70387
 C222 C 1.12160 -0.12065 0.66680
 C223 C 1.10586 -0.10512 0.63512
 C224 C 0.26398 1.15428 1.15512
 C225 C 0.29564 1.13877 1.13944
 C226 C 0.33274 1.12065 1.12112
 C227 C 0.36444 1.10518 1.10552
 C228 C 0.26600 0.84589 0.84497
 C229 C 0.29754 0.86139 0.86063
 C230 C 0.33449 0.87953 0.87894
 C231 C 0.36604 0.89503 0.89456
 C232 C 0.73464 0.84603 1.15619
 C233 C 0.70305 0.86163 1.14054
 C234 C 0.66605 0.87983 1.12221
 C235 C 0.63443 0.89533 1.10653
 C236 C 0.73473 1.15486 0.84500
 C237 C 0.70318 1.13931 0.86075
 C238 C 0.66620 1.12112 0.87915
 C239 C 0.63461 1.10557 0.89480
 C240 C 0.15456 0.26443 0.15409
 C241 C 0.13890 0.29604 0.13850
 C242 C 0.12057 0.33308 0.12031
 C243 C 0.10494 0.36474 0.10479
 C244 C -0.15439 0.26600 -0.15544
 C245 C -0.13891 0.29758 -0.13985
 C246 C -0.12081 0.33458 -0.12160
 C247 C -0.10534 0.36617 -0.10602
 C248 C 0.15489 0.73496 -0.15500
 C249 C 0.13922 0.70340 -0.13940
 C250 C 0.12088 0.66641 -0.12121
 C251 C 0.10522 0.63481 -0.10570
 C252 C -0.15421 0.73474 0.15593
 C253 C -0.13868 0.70317 0.14018
 C254 C -0.12055 0.66618 0.12173
 C255 C -0.10510 0.63459 0.10597
 C256 C 1.15504 0.15492 0.73458
 C257 C 1.13940 0.13923 0.70299
 C258 C 1.12111 0.12090 0.66599
 C259 C 1.10549 0.10528 0.63438
 C260 C 0.84602 -0.15528 0.73638
 C261 C 0.86160 -0.13947 0.70471
 C262 C 0.87975 -0.12098 0.66760
 C263 C 0.89524 -0.10525 0.63587
 C264 C 1.15456 -0.15573 0.26448
 C265 C 1.13890 -0.14000 0.29612
 C266 C 1.12066 -0.12158 0.33319
 C267 C 1.10512 -0.10585 0.36487
 C268 C 0.84452 0.15481 0.26462
 C269 C 0.86025 0.13907 0.29623
 C270 C 0.87863 0.12070 0.33327
 C271 C 0.89433 0.10506 0.36492
 C272 C 0.15399 0.26539 -0.15620
 C273 C 0.13839 0.29697 -0.14055
 C274 C 0.12019 0.33398 -0.12221
 C275 C 0.10469 0.36559 -0.10653
 C276 C -0.15487 0.26529 0.15501
 C277 C -0.13932 0.29684 0.13925
 C278 C -0.12112 0.33382 0.12086
 C279 C -0.10557 0.36541 0.10520
 C280 C -0.15427 0.73603 -0.15513
 C281 C -0.13876 0.70436 -0.13945
 C282 C -0.12064 0.66727 -0.12113
 C283 C -0.10517 0.63557 -0.10552
 C284 C 0.15410 0.73402 0.15502
 C285 C 0.13858 0.70249 0.13936
 C286 C 0.12044 0.66555 0.12105
 C287 C 0.10495 0.63399 0.10544
 C288 C 0.26526 1.15421 0.84408
 C289 C 0.29682 1.13867 0.85984
 C290 C 0.33380 1.12053 0.87829
 C291 C 0.36539 1.10506 0.89405
 C292 C 0.26504 0.84512 1.15499
 C293 C 0.29660 0.86079 1.13940
 C294 C 0.33359 0.87914 1.12121
 C295 C 0.36519 0.89479 1.10570
 C296 C 0.73401 1.15440 1.15543
 C297 C 0.70243 1.13890 1.13984
 C298 C 0.66545 1.12078 1.12160
 C299 C 0.63385 1.10532 1.10602
 C300 C 0.73559 0.84545 0.84591
 C301 C 0.70398 0.86111 0.86151
 C302 C 0.66694 0.87944 0.87970
 C303 C 0.63528 0.89506 0.89522
   
