data_POSCAR
  _audit_creation_date              2014-09-24
  _audit_creation_method            'ToBaCCo'
  _symmetry_space_group_name_H-M    'P1'
  _symmetry_Int_Tables_number       1
  _symmetry_cell_setting            triclinic
  loop_
  _symmetry_equiv_pos_as_xyz
 x,y,z
_cell_length_a 28.3153
_cell_length_b 29.0393
_cell_length_c 29.2127
_cell_angle_alpha 88.383600
_cell_angle_beta 90.553500
_cell_angle_gamma 92.941600
loop_
  _atom_site_label
  _atom_site_type_symbol
  _atom_site_fract_x
  _atom_site_fract_y
  _atom_site_fract_z
C1 C 0.22856 0.22431 0.27418
 C2 C 0.22589 0.25360 0.23532
 C3 C 0.25602 0.24874 0.19897
 C4 C 0.29002 0.21539 0.20145
 C5 C 0.29340 0.18733 0.24011
 C6 C 0.26177 0.19115 0.27651
 C7 C 0.19790 0.21547 0.30991
 N8 N 0.21049 0.17690 0.33391
 C9 C 0.24985 0.16205 0.31321
 C10 C 0.32739 0.15660 0.23160
 N11 N 0.34339 0.16357 0.18781
 C12 C 0.32090 0.20038 0.16971
 C13 C 0.24094 0.27657 0.16345
 N14 N 0.20289 0.29880 0.17759
 C15 C 0.19310 0.28450 0.22129
 H16 H 0.16707 0.23482 0.31611
 H17 H 0.26537 0.12926 0.32015
 H18 H 0.34009 0.13178 0.25650
 H19 H 0.32438 0.21394 0.13495
 H20 H 0.25479 0.27843 0.12899
 H21 H 0.16282 0.29408 0.24056
 C22 C -0.15554 0.78105 0.22512
 C23 C -0.15799 0.74320 0.19570
 C24 C -0.19277 0.74045 0.16172
 C25 C -0.22464 0.77571 0.15579
 C26 C -0.22148 0.81281 0.18416
 C27 C -0.18742 0.81516 0.21906
 C28 C -0.12649 0.79396 0.26172
 N29 N -0.14176 0.83391 0.27878
 C30 C -0.17775 0.84760 0.25125
 C31 C -0.25371 0.84353 0.16896
 N32 N -0.27730 0.82611 0.13199
 C33 C -0.25922 0.78459 0.12337
 C34 C -0.18429 0.70305 0.13580
 N35 N -0.14472 0.68358 0.15212
 C36 C -0.12863 0.70742 0.18903
 H37 H -0.09803 0.77452 0.27611
 H38 H -0.19560 0.87950 0.25394
 H39 H -0.25922 0.87668 0.18359
 H40 H -0.26819 0.76379 0.09405
 H41 H -0.20267 0.69345 0.10453
 H42 H -0.09575 0.70169 0.20702
 C43 C -0.21612 0.24309 -0.29270
 C44 C -0.21446 0.27600 -0.25818
 C45 C -0.25242 0.27840 -0.22906
 C46 C -0.29168 0.24763 -0.23306
 C47 C -0.29322 0.21470 -0.26625
 C48 C -0.25526 0.21282 -0.29669
 C49 C -0.18254 0.22902 -0.32246
 N50 N -0.20048 0.19162 -0.34538
 C51 C -0.24475 0.18126 -0.32880
 C52 C -0.32988 0.18328 -0.25499
 N53 N -0.35021 0.19631 -0.21555
 C54 C -0.32703 0.23606 -0.20260
 C55 C -0.23874 0.30713 -0.19434
 N56 N -0.19355 0.32296 -0.20159
 C57 C -0.17813 0.30383 -0.24037
 H58 H -0.14638 0.24294 -0.32438
 H59 H -0.26794 0.15246 -0.33893
 H60 H -0.33666 0.15024 -0.27073
 H61 H -0.33276 0.25345 -0.17097
 H62 H -0.25876 0.31293 -0.16381
 H63 H -0.14212 0.30708 -0.25264
 C64 C 0.16886 0.77755 -0.23702
 C65 C 0.17831 0.73605 -0.21282
 C66 C 0.20448 0.73786 -0.17296
 C67 C 0.22516 0.77943 -0.15827
 C68 C 0.21571 0.82024 -0.18094
 C69 C 0.18627 0.81944 -0.22011
 C70 C 0.13836 0.78782 -0.27287
 N71 N 0.13547 0.83451 -0.27677
 C72 C 0.16547 0.85395 -0.24522
 C73 C 0.23972 0.85495 -0.15742
 N74 N 0.26440 0.83552 -0.12210
 C75 C 0.25561 0.78925 -0.12268
 C76 C 0.19975 0.69570 -0.15116
 N77 N 0.17177 0.66650 -0.17660
 C78 C 0.16120 0.69076 -0.21605
 H79 H 0.11686 0.76307 -0.29207
 H80 H 0.17054 0.89063 -0.23983
 H81 H 0.24129 0.89131 -0.16692
 H82 H 0.27059 0.76447 -0.09901
 H83 H 0.21260 0.68889 -0.11682
 H84 H 0.14364 0.67733 -0.24609
 C85 C 0.24466 1.20617 0.73143
 C86 C 0.27169 1.20227 0.77149
 C87 C 0.26784 1.23348 0.80598
 C88 C 0.23839 1.27062 0.79968
 C89 C 0.21261 1.27527 0.75945
 C90 C 0.21583 1.24278 0.72509
 C91 C 0.22949 1.17269 0.70148
 N92 N 0.19118 1.18734 0.67786
 C93 C 0.18489 1.23150 0.69022
 C94 C 0.17893 1.30672 0.76703
 N95 N 0.18423 1.32239 0.81034
 C96 C 0.22049 1.30002 0.83046
 C97 C 0.28867 1.21464 0.84464
 N98 N 0.30477 1.17298 0.83410
 C99 C 0.29565 1.16597 0.78912
 H100 H 0.24102 1.13769 0.70228
 H101 H 0.15741 1.25311 0.67741
 H102 H 0.15096 1.31557 0.74334
 H103 H 0.22965 1.30090 0.86652
 H104 H 0.28920 1.22866 0.87860
 H105 H 0.30363 1.13535 0.77098
 C106 C 0.77865 0.79989 0.75603
 C107 C 0.74755 0.79953 0.79292
 C108 C 0.75414 0.77068 0.83078
 C109 C 0.79226 0.74144 0.83163
 C110 C 0.82274 0.74215 0.79479
 C111 C 0.81582 0.77126 0.75682
 C112 C 0.78545 0.83007 0.71954
 N113 N 0.82562 0.82010 0.69725
 C114 C 0.84448 0.78403 0.72045
 C115 C 0.85981 0.71595 0.80670
 N116 N 0.85332 0.69922 0.85014
 C117 C 0.81136 0.71362 0.86534
 C118 C 0.72320 0.78333 0.86392
 N119 N 0.69804 0.81850 0.84647
 C120 C 0.71293 0.82867 0.80329
 H121 H 0.76525 0.86028 0.71311
 H122 H 0.87771 0.76919 0.71289
 H123 H 0.88962 0.70964 0.78518
 H124 H 0.79730 0.70674 0.89933
 H125 H 0.72142 0.77031 0.89899
 H126 H 0.70152 0.85733 0.78217
 C127 C 0.20377 0.81459 1.27049
 C128 C 0.24342 0.81436 1.24262
 C129 C 0.24777 0.77950 1.21204
 C130 C 0.21241 0.74406 1.20951
 C131 C 0.17288 0.74419 1.23730
 C132 C 0.16861 0.77978 1.26837
 C133 C 0.18733 0.84879 1.29620
 N134 N 0.14278 0.83615 1.30976
 C135 C 0.13132 0.79330 1.29418
 C136 C 0.14122 0.71021 1.22205
 N137 N 0.16110 0.68929 1.18659
 C138 C 0.20431 0.70993 1.17845
 C139 C 0.28493 0.79276 1.18371
 N140 N 0.30318 0.83450 1.19695
 C141 C 0.27782 0.84807 1.23274
 H142 H 0.20556 0.88172 1.30266
 H143 H 0.09695 0.77547 1.29756
 H144 H 0.10553 0.70284 1.23413
 H145 H 0.22683 0.70242 1.15013
 H146 H 0.29558 0.77521 1.15356
 H147 H 0.28196 0.88155 1.24814
 C148 C 0.74005 1.21654 1.28861
 C149 C 0.70746 1.21674 1.25248
 C150 C 0.70943 1.25217 1.21972
 C151 C 0.74520 1.28761 1.22236
 C152 C 0.77770 1.28731 1.25838
 C153 C 0.77512 1.25143 1.29174
 C154 C 0.75403 1.17976 1.31494
 N155 N 0.79717 1.19061 1.33313
 C156 C 0.80982 1.23483 1.32046
 C157 C 0.81587 1.31593 1.24534
 N158 N 0.80799 1.33304 1.20245
 C159 C 0.76490 1.31618 1.18820
 C160 C 0.68286 1.23670 1.18282
 N161 N 0.66755 1.19210 1.19139
 C162 C 0.68135 1.18027 1.23438
 H163 H 0.73684 1.14555 1.31613
 H164 H 0.84467 1.25105 1.32584
 H165 H 0.84977 1.31849 1.26281
 H166 H 0.75203 1.31900 1.15325
 H167 H 0.67964 1.25480 1.15012
 H168 H 0.67789 1.14565 1.24916
 O169 O 0.53250 0.94164 0.91886
 O170 O 0.46552 0.94562 1.07013
 O171 O 0.60727 0.97799 1.02243
 O172 O 0.41883 0.95499 1.00014
 O173 O 0.55037 0.93389 1.04996
 O174 O 0.44309 0.94849 0.93037
 O175 O 0.40674 0.99307 1.06930
 O176 O 0.59478 0.98288 0.94074
 C177 C 0.57623 0.94580 0.92532
 C178 C 0.42592 0.95591 1.08728
 C179 C 0.59276 0.93941 1.03934
 C180 C 0.41370 0.93861 0.96118
 O181 O 0.45212 1.03634 0.91500
 O182 O 0.57463 1.01823 1.08191
 O183 O 0.56748 1.07101 0.94816
 O184 O 0.46143 1.06681 1.04558
 O185 O 0.49192 1.02870 1.09827
 O186 O 0.53861 1.02915 0.89522
 O187 O 0.41075 1.03914 0.97941
 O188 O 0.57467 1.06669 1.02729
 Co189 Co 0.49353 0.98989 0.92262
 Co190 Co 0.52004 0.98339 1.06782
 Co191 Co 0.58064 1.02285 0.98587
 Co192 Co 0.44652 1.00922 1.02263
 O193 O 0.51051 1.00265 0.99504
 C194 C 0.41758 1.04979 0.93749
 C195 C 0.58398 1.05864 1.06767
 C196 C 0.55739 1.06681 0.90716
 C197 C 0.47191 1.06408 1.08646
 O198 O 0.07721 0.44516 0.06880
 O199 O 0.04055 0.50458 -0.09329
 O200 O 0.04909 0.38586 -0.03752
 O201 O 0.05545 0.58798 0.01811
 O202 O 0.01584 0.42447 -0.09306
 O203 O 0.07440 0.52563 0.05384
 O204 O 0.08399 0.52742 -0.03603
 O205 O 0.04026 0.38253 0.04858
 C206 C 0.07486 0.40259 0.06752
 C207 C 0.08006 0.52011 -0.07831
 C208 C 0.04874 0.40001 -0.07835
 C209 C 0.07455 0.56920 0.05411
 O210 O -0.01776 0.52317 0.08045
 O211 O -0.07057 0.44732 -0.05897
 O212 O -0.04932 0.39272 0.04026
 O213 O 0.01021 0.57167 -0.05864
 O214 O -0.04791 0.52509 -0.06297
 O215 O -0.01547 0.43720 0.09310
 O216 O -0.02773 0.55475 0.01510
 O217 O -0.04272 0.38270 -0.04536
 Co218 Co 0.02731 0.48181 0.06748
 Co219 Co -0.01382 0.47503 -0.07156
 Co220 Co -0.00004 0.39397 0.00081
 Co221 Co 0.02779 0.53788 -0.00817
 O222 O 0.00800 0.46957 -0.00365
 C223 C -0.03711 0.55315 0.05627
 C224 C -0.07498 0.40529 -0.06227
 C225 C -0.04688 0.40680 0.08078
 C226 C -0.03035 0.56398 -0.07360
 O227 O 1.09190 0.04073 0.48023
 O228 O 0.89392 0.03242 0.54410
 O229 O 0.95563 0.05433 0.39900
 O230 O 1.03150 0.07327 0.56265
 O231 O 0.90786 0.04916 0.46043
 O232 O 1.08556 0.02740 0.56376
 O233 O 0.95274 0.07620 0.55443
 O234 O 1.04512 0.05326 0.42162
 C235 C 1.08438 0.05938 0.44142
 C236 C 0.90967 0.07093 0.55503
 C237 C 0.91588 0.06320 0.41901
 C238 C 1.07299 0.06708 0.57067
 O239 O 1.05035 -0.05860 0.55140
 O240 O 0.91495 -0.04361 0.45293
 O241 O 1.01868 -0.01938 0.41397
 O242 O 0.93983 -0.01332 0.59435
 O243 O 0.91631 -0.05334 0.53594
 O244 O 1.06811 -0.04696 0.46655
 O245 O 1.02405 -0.01477 0.60298
 O246 O 0.97425 -0.02418 0.41007
 Co247 Co 1.06645 -0.00850 0.51496
 Co248 Co 0.91660 -0.00276 0.49911
 Co249 Co 0.98848 0.02820 0.44338
 Co250 Co 0.98718 0.02850 0.57368
 O251 O 0.99269 0.00635 0.50793
 C252 C 1.04054 -0.05278 0.59253
 C253 C 0.93574 -0.04768 0.41609
 C254 C 1.05348 -0.04463 0.42584
 C255 C 0.91972 -0.04923 0.57818
 C256 C 1.20167 0.12015 0.39823
 C257 C 1.18299 0.15257 0.36606
 C258 C 1.13362 0.15642 0.36492
 C259 C 1.10353 0.12688 0.39062
 C260 C 1.12065 0.09117 0.41837
 C261 C 1.17051 0.08736 0.42206
 C262 C 1.25044 0.12080 0.40899
 C263 C 1.26892 0.08653 0.43716
 C264 C 1.23926 0.05126 0.45550
 C265 C 1.19059 0.05158 0.44812
 H266 H 1.27459 0.14832 0.39668
 H267 H 1.30650 0.08711 0.44443
 H268 H 1.25395 0.02390 0.47621
 H269 H 1.16941 0.02317 0.46249
 H270 H 1.11706 0.18047 0.34176
 H271 H 1.06585 0.13129 0.38745
 C272 C 0.84554 -0.11692 0.34345
 C273 C 0.87559 -0.14254 0.31607
 C274 C 0.92457 -0.13924 0.32517
 C275 C 0.94383 -0.10835 0.35729
 C276 C 0.91496 -0.07953 0.38117
 C277 C 0.86535 -0.08257 0.37268
 C278 C 0.79593 -0.12587 0.34376
 C279 C 0.76642 -0.09688 0.36594
 C280 C 0.78569 -0.05878 0.38848
 C281 C 0.83459 -0.05161 0.39189
 H282 H 0.77954 -0.15557 0.32727
 H283 H 0.72847 -0.10353 0.36488
 H284 H 0.76272 -0.03510 0.40405
 H285 H 0.84783 -0.02093 0.40858
 H286 H 0.94848 -0.15877 0.30558
 H287 H 0.98162 -0.10655 0.36301
 C288 C 0.85899 0.18384 0.59446
 C289 C 0.82358 0.16508 0.62528
 C290 C 0.81421 0.11699 0.62648
 C291 C 0.84142 0.08783 0.60215
 C292 C 0.87932 0.10508 0.57534
 C293 C 0.88766 0.15357 0.57019
 C294 C 0.86415 0.23171 0.58425
 C295 C 0.89889 0.24959 0.55430
 C296 C 0.92814 0.22027 0.53249
 C297 C 0.92224 0.17273 0.53967
 H298 H 0.84029 0.25577 0.59759
 H299 H 0.90248 0.28639 0.54722
 H300 H 0.95464 0.23435 0.50880
 H301 H 0.94410 0.15144 0.51988
 H302 H 0.78763 0.10103 0.64897
 H303 H 0.83409 0.05099 0.60633
 C304 C 1.07579 -0.10841 0.70949
 C305 C 1.10616 -0.14222 0.69400
 C306 C 1.10616 -0.15148 0.64718
 C307 C 1.08276 -0.12367 0.61538
 C308 C 1.05617 -0.08679 0.62906
 C309 C 1.04950 -0.08156 0.67711
 C310 C 1.06801 -0.10347 0.75681
 C311 C 1.03628 -0.07245 0.77221
 C312 C 1.01026 -0.04696 0.74105
 C313 C 1.01609 -0.05186 0.69418
 H314 H 1.08477 -0.12474 0.78248
 H315 H 1.03072 -0.06927 0.80858
 H316 H 0.98439 -0.02412 0.75325
 H317 H 0.99193 -0.03398 0.67232
 H318 H 1.12774 -0.17811 0.63469
 H319 H 1.08732 -0.13008 0.57939
 C320 C 0.38490 1.09209 1.17761
 C321 C 0.37624 1.13892 1.16563
 C322 C 0.40357 1.16061 1.13022
 C323 C 0.43756 1.13727 1.10715
 C324 C 0.44855 1.09246 1.12058
 C325 C 0.42500 1.07131 1.15941
 C326 C 0.35257 1.06362 1.20373
 C327 C 0.36417 1.01991 1.21952
 C328 C 0.40767 1.00329 1.20886
 C329 C 0.43768 1.02837 1.17879
 H330 H 0.31732 1.07386 1.21081
 H331 H 0.33945 0.99902 1.24036
 H332 H 0.41742 0.97000 1.22246
 H333 H 0.47098 1.01379 1.17205
 H334 H 0.39864 1.19604 1.11967
 H335 H 0.45477 1.15406 1.07772
 C336 C 0.28762 0.89840 0.92794
 C337 C 0.29726 0.85753 0.90524
 C338 C 0.34258 0.84013 0.90962
 C339 C 0.37951 0.86555 0.93049
 C340 C 0.37184 0.90787 0.95014
 C341 C 0.32491 0.92348 0.95101
 C342 C 0.24117 0.91389 0.92971
 C343 C 0.23192 0.95437 0.95164
 C344 C 0.26841 0.97970 0.97284
 C345 C 0.31423 0.96438 0.97277
 H346 H 0.21143 0.89451 0.91503
 H347 H 0.19623 0.96598 0.95241
 H348 H 0.26117 1.01125 0.98974
 H349 H 0.34086 0.98507 0.98976
 H350 H 0.35054 0.80853 0.89314
 H351 H 0.41489 0.85303 0.92951
 C352 C 0.64822 0.82958 1.08799
 C353 C 0.69142 0.84994 1.10552
 C354 C 0.70167 0.89718 1.09674
 C355 C 0.67078 0.92419 1.07220
 C356 C 0.62734 0.90574 1.05607
 C357 C 0.61641 0.85765 1.06250
 C358 C 0.63373 0.78315 1.09822
 C359 C 0.59149 0.76383 1.08066
 C360 C 0.56222 0.79040 1.05349
 C361 C 0.57418 0.83691 1.04481
 H362 H 0.65384 0.76143 1.12077
 H363 H 0.58123 0.72808 1.08849
 H364 H 0.52959 0.77512 1.03977
 H365 H 0.55005 0.85619 1.02397
 H366 H 0.73446 0.91358 1.10890
 H367 H 0.68016 0.96071 1.06793
 C368 C 0.58301 1.14001 0.79648
 C369 C 0.62171 1.16845 0.81274
 C370 C 0.63267 1.16663 0.85971
 C371 C 0.61009 1.13476 0.88912
 C372 C 0.57440 1.10360 0.87366
 C373 C 0.55857 1.10795 0.82735
 C374 C 0.56573 1.14525 0.75122
 C375 C 0.52638 1.11895 0.73615
 C376 C 0.50248 1.08812 0.76611
 C377 C 0.51785 1.08308 0.81135
 H378 H 0.58117 1.17083 0.72749
 H379 H 0.51356 1.12347 0.70136
 H380 H 0.47109 1.06880 0.75456
 H381 H 0.49606 1.06120 0.83373
 H382 H 0.66177 1.18758 0.87365
 H383 H 0.62253 1.13343 0.92427
 C384 C 0.19087 0.36371 0.12126
 C385 C 0.17284 0.32597 0.14884
 C386 C 0.12444 0.31357 0.14728
 C387 C 0.09380 0.33795 0.11955
 C388 C 0.11044 0.37560 0.09222
 C389 C 0.15962 0.38800 0.09179
 C390 C 0.23910 0.37844 0.12294
 C391 C 0.25682 0.41406 0.09399
 C392 C 0.22688 0.43599 0.06334
 C393 C 0.17869 0.42343 0.06231
 H394 H 0.26349 0.36304 0.14677
 H395 H 0.29398 0.42476 0.09539
 H396 H 0.24098 0.46356 0.04096
 H397 H 0.15684 0.44145 0.03796
 H398 H 0.11028 0.28454 0.16782
 H399 H 0.05644 0.32794 0.12038
 C400 C -0.17863 0.38669 -0.14685
 C401 C -0.16456 0.34613 -0.16770
 C402 C -0.12404 0.32517 -0.15170
 C403 C -0.09730 0.34364 -0.11591
 C404 C -0.11011 0.38381 -0.09443
 C405 C -0.15217 0.40494 -0.10901
 C406 C -0.21819 0.40987 -0.16337
 C407 C -0.23299 0.44873 -0.14173
 C408 C -0.20893 0.46503 -0.10323
 C409 C -0.16907 0.44339 -0.08679
 H410 H -0.23769 0.39852 -0.19336
 H411 H -0.26356 0.46604 -0.15465
 H412 H -0.22118 0.49466 -0.08602
 H413 H -0.15264 0.45663 -0.05602
 H414 H -0.11333 0.29376 -0.16683
 H415 H -0.06538 0.32684 -0.10583
 C416 C 0.11277 0.59631 -0.17720
 C417 C 0.15386 0.62099 -0.15959
 C418 C 0.17716 0.60041 -0.12154
 C419 C 0.15627 0.56324 -0.09650
 C420 C 0.11483 0.54085 -0.11226
 C421 C 0.09917 0.55224 -0.15733
 C422 C 0.08239 0.61393 -0.21142
 C423 C 0.04796 0.58545 -0.23250
 C424 C 0.04190 0.53932 -0.21889
 C425 C 0.06675 0.52286 -0.18105
 H426 H 0.08129 0.64998 -0.21984
 H427 H 0.02565 0.59938 -0.25924
 H428 H 0.01608 0.51693 -0.23606
 H429 H 0.06014 0.48722 -0.17005
 H430 H 0.21007 0.61517 -0.10825
 H431 H 0.17103 0.55383 -0.06339
 C432 C -0.09659 0.66603 0.08495
 C433 C -0.11793 0.65209 0.12696
 C434 C -0.11398 0.60689 0.14361
 C435 C -0.08927 0.57527 0.11924
 C436 C -0.06822 0.58737 0.07685
 C437 C -0.07262 0.63362 0.05887
 C438 C -0.09776 0.71243 0.06905
 C439 C -0.07788 0.72662 0.02739
 C440 C -0.05590 0.69524 0.00106
 C441 C -0.05293 0.64967 0.01657
 H442 H -0.11341 0.73850 0.08883
 H443 H -0.07938 0.76219 0.01558
 H444 H -0.04051 0.70635 -0.03146
 H445 H -0.03520 0.62836 -0.00590
 H446 H -0.13011 0.59614 0.17589
 H447 H -0.08624 0.54091 0.13403
 C448 C 1.11190 0.16639 0.64760
 C449 C 1.16140 0.15984 0.65161
 C450 C 1.18003 0.12367 0.62747
 C451 C 1.15137 0.09514 0.60013
 C452 C 1.10354 0.10339 0.59309
 C453 C 1.08472 0.14259 0.61361
 C454 C 1.08745 0.19283 0.67881
 C455 C 1.04088 0.20408 0.67045
 C456 C 1.01752 0.18853 0.63145
 C457 C 1.03897 0.15796 0.60328
 H458 H 1.10324 0.20382 0.71074
 H459 H 1.02317 0.22547 0.69396
 H460 H 0.98213 0.19905 0.62374
 H461 H 1.01950 0.14809 0.57299
 H462 H 1.21729 0.11719 0.62964
 H463 H 1.16687 0.06624 0.58432
 C464 C 0.82079 -0.12549 0.63247
 C465 C 0.84720 -0.15297 0.66343
 C466 C 0.89702 -0.14803 0.66216
 C467 C 0.91989 -0.11416 0.63452
 C468 C 0.89403 -0.08323 0.60835
 C469 C 0.84396 -0.08808 0.60802
 C470 C 0.77211 -0.13527 0.62390
 C471 C 0.74579 -0.10502 0.59744
 C472 C 0.76749 -0.06483 0.57885
 C473 C 0.81611 -0.05642 0.58407
 H474 H 0.75417 -0.16660 0.63704
 H475 H 0.70835 -0.11245 0.59194
 H476 H 0.74678 -0.04045 0.55971
 H477 H 0.83151 -0.02462 0.57019
 H478 H 0.91883 -0.16857 0.68443
 H479 H 0.95810 -0.11169 0.63410
 C480 C 1.10999 -0.08932 0.31871
 C481 C 1.11402 -0.13626 0.33242
 C482 C 1.09273 -0.15288 0.37311
 C483 C 1.07307 -0.12264 0.40292
 C484 C 1.07239 -0.07537 0.39193
 C485 C 1.08985 -0.05843 0.34894
 C486 C 1.12403 -0.07294 0.27459
 C487 C 1.12173 -0.02652 0.26193
 C488 C 1.10479 0.00431 0.29254
 C489 C 1.08879 -0.01138 0.33544
 H490 H 1.13604 -0.09597 0.24919
 H491 H 1.13305 -0.01445 0.22819
 H492 H 1.10340 0.04047 0.28280
 H493 H 1.07561 0.01386 0.35741
 H494 H 1.09487 -0.18879 0.38365
 H495 H 1.05894 -0.13609 0.43523
 C496 C 0.83727 0.11866 0.32879
 C497 C 0.82706 0.15975 0.35155
 C498 C 0.84750 0.16841 0.39449
 C499 C 0.87471 0.13586 0.41661
 C500 C 0.88389 0.09459 0.39561
 C501 C 0.86547 0.08564 0.35134
 C502 C 0.82282 0.11098 0.28299
 C503 C 0.83256 0.07029 0.26156
 C504 C 0.85788 0.03694 0.28463
 C505 C 0.87472 0.04463 0.32885
 H506 H 0.80507 0.13660 0.26268
 H507 H 0.82079 0.06481 0.22668
 H508 H 0.86531 0.00534 0.26790
 H509 H 0.89516 0.01819 0.34497
 H510 H 0.84063 0.19987 0.41178
 H511 H 0.88939 0.14326 0.45010
 C512 C 0.16818 0.37833 -0.13166
 C513 C 0.15310 0.34821 -0.16711
 C514 C 0.10429 0.34241 -0.17656
 C515 C 0.07102 0.36073 -0.14831
 C516 C 0.08529 0.38550 -0.10982
 C517 C 0.13414 0.39610 -0.10216
 C518 C 0.21613 0.39366 -0.12686
 C519 C 0.23049 0.42361 -0.09239
 C520 C 0.19750 0.43934 -0.06243
 C521 C 0.14986 0.42569 -0.06703
 H522 H 0.24267 0.38418 -0.15071
 H523 H 0.26730 0.43520 -0.08934
 H524 H 0.20868 0.46319 -0.03622
 H525 H 0.12554 0.43972 -0.04370
 H526 H 0.09132 0.32049 -0.20377
 H527 H 0.03375 0.35350 -0.15525
 C528 C -0.12388 0.32036 0.15235
 C529 C -0.15501 0.35054 0.17232
 C530 C -0.14868 0.39813 0.16382
 C531 C -0.11248 0.41608 0.13522
 C532 C -0.08156 0.38686 0.11451
 C533 C -0.08637 0.33864 0.12406
 C534 C -0.12925 0.27217 0.16016
 C535 C -0.09745 0.24278 0.14175
 C536 C -0.05971 0.26075 0.11558
 C537 C -0.05405 0.30815 0.10688
 H538 H -0.15789 0.25672 0.18051
 H539 H -0.10184 0.20592 0.14821
 H540 H -0.03461 0.23787 0.10203
 H541 H -0.02367 0.32070 0.08748
 H542 H -0.17221 0.42139 0.17925
 H543 H -0.10923 0.45295 0.12834
 C544 C -0.06695 0.67731 -0.13070
 C545 C -0.11693 0.67094 -0.12700
 C546 C -0.13613 0.63198 -0.10320
 C547 C -0.10740 0.59741 -0.08761
 C548 C -0.05834 0.60088 -0.09439
 C549 C -0.03752 0.64126 -0.11629
 C550 C -0.04550 0.72001 -0.14593
 C551 C 0.00330 0.72563 -0.15105
 C552 C 0.03172 0.68907 -0.14099
 C553 C 0.01171 0.64719 -0.12417
 H554 H -0.06609 0.74981 -0.15284
 H555 H 0.01912 0.75844 -0.16306
 H556 H 0.06957 0.69331 -0.14581
 H557 H 0.03551 0.61991 -0.11807
 H558 H -0.17402 0.62673 -0.09923
 H559 H -0.12388 0.56754 -0.06995
 C560 C 0.15682 0.61253 0.15145
 C561 C 0.13810 0.65608 0.15737
 C562 C 0.09946 0.66913 0.13095
 C563 C 0.08008 0.64028 0.09776
 C564 C 0.09873 0.59738 0.08978
 C565 C 0.13785 0.58302 0.11684
 C566 C 0.19422 0.59794 0.17962
 C567 C 0.21360 0.55555 0.17329
 C568 C 0.19665 0.52741 0.13848
 C569 C 0.15967 0.54102 0.11008
 H570 H 0.20839 0.61895 0.20705
 H571 H 0.24220 0.54465 0.19523
 H572 H 0.21239 0.49484 0.13353
 H573 H 0.14956 0.51842 0.08274
 H574 H 0.08511 0.70258 0.13527
 H575 H 0.05003 0.65172 0.07804
 C576 C 0.31757 1.09262 0.86239
 C577 C 0.32699 1.14100 0.86501
 C578 C 0.36245 1.15775 0.89492
 C579 C 0.39037 1.12754 0.91968
 C580 C 0.38480 1.07996 0.91367
 C581 C 0.34884 1.06209 0.88425
 C582 C 0.27761 1.07381 0.83884
 C583 C 0.27160 1.02638 0.83280
 C584 C 0.30499 0.99695 0.85030
 C585 C 0.34317 1.01450 0.87604
 H586 H 0.25037 1.09538 0.82551
 H587 H 0.24114 1.01247 0.81415
 H588 H 0.30083 0.96029 0.84469
 H589 H 0.36798 0.99053 0.88959
 H590 H 0.36979 1.19453 0.89772
 H591 H 0.41796 1.14146 0.94207
 C592 C 0.38277 0.85039 1.16312
 C593 C 0.33655 0.86379 1.17168
 C594 C 0.32235 0.90648 1.15526
 C595 C 0.35239 0.93539 1.12906
 C596 C 0.39813 0.92293 1.11807
 C597 C 0.41426 0.87978 1.13602
 C598 C 0.39840 0.80855 1.18210
 C599 C 0.44378 0.79481 1.17395
 C600 C 0.47456 0.82260 1.14730
 C601 C 0.46038 0.86449 1.12873
 H602 H 0.37597 0.78632 1.20392
 H603 H 0.45525 0.76259 1.18867
 H604 H 0.50999 0.81187 1.14132
 H605 H 0.48705 0.88366 1.10953
 H606 H 0.28706 0.91711 1.16215
 H607 H 0.33907 0.96785 1.11692
 C608 C 0.66574 1.15750 1.11371
 C609 C 0.64814 1.15952 1.15886
 C610 C 0.61163 1.12794 1.17285
 C611 C 0.59213 1.09535 1.14302
 C612 C 0.60602 1.09515 1.09711
 C613 C 0.64161 1.12857 1.08143
 C614 C 0.70781 1.18233 1.10017
 C615 C 0.72191 1.18422 1.05465
 C616 C 0.69473 1.16119 1.02191
 C617 C 0.65522 1.13357 1.03502
 H618 H 0.73103 1.19953 1.12450
 H619 H 0.75374 1.20409 1.04468
 H620 H 0.70475 1.16404 0.98622
 H621 H 0.63540 1.11779 1.00787
 H622 H 0.59848 1.12824 1.20751
 H623 H 0.56492 1.07077 1.15570
 C624 C 0.62395 0.83051 0.88898
 C625 C 0.66809 0.84717 0.87135
 C626 C 0.68189 0.89382 0.87483
 C627 C 0.65214 0.92448 0.89376
 C628 C 0.60721 0.90970 0.90977
 C629 C 0.59330 0.86179 0.90899
 C630 C 0.60929 0.78353 0.88626
 C631 C 0.56619 0.76709 0.90457
 C632 C 0.53695 0.79705 0.92561
 C633 C 0.55013 0.84387 0.92783
 H634 H 0.63093 0.75911 0.87015
 H635 H 0.55554 0.73085 0.90265
 H636 H 0.50382 0.78395 0.94034
 H637 H 0.52642 0.86511 0.94540
 H638 H 0.71574 0.90676 0.86151
 H639 H 0.66389 0.96057 0.89430
   
