data_POSCAR
  _audit_creation_date              2014-09-24
  _audit_creation_method            'ToBaCCo'
  _symmetry_space_group_name_H-M    'P1'
  _symmetry_Int_Tables_number       1
  _symmetry_cell_setting            triclinic
  loop_
  _symmetry_equiv_pos_as_xyz
 x,y,z
_cell_length_a 39.4649
_cell_length_b 40.9486
_cell_length_c 8.5275
_cell_angle_alpha 88.873500
_cell_angle_beta 88.118000
_cell_angle_gamma 90.078600
loop_
  _atom_site_label
  _atom_site_type_symbol
  _atom_site_fract_x
  _atom_site_fract_y
  _atom_site_fract_z
O1 O 0.27975 0.21218 0.06768
 O2 O 0.22755 0.28240 -0.03893
 O3 O 0.29217 0.27435 0.00743
 O4 O 0.21639 0.22057 0.02847
 O5 O 0.20926 0.23259 0.27812
 O6 O 0.28428 0.28557 0.25771
 O7 O 0.21965 0.29385 0.21121
 O8 O 0.27348 0.22321 0.31952
 Cu9 Cu 0.25494 0.24648 -0.00887
 Cu10 Cu 0.24607 0.26009 0.29137
 C11 C 0.28470 0.20501 0.21034
 C12 C 0.21427 0.29998 0.06744
 C13 C 0.30100 0.28932 0.12903
 C14 C 0.20006 0.21710 0.15892
 O15 O 0.79694 0.27317 0.27520
 O16 O 0.73322 0.21513 0.43938
 O17 O 0.79247 0.20949 0.29758
 O18 O 0.73954 0.27774 0.42919
 O19 O 0.71381 0.27860 0.20318
 O20 O 0.76734 0.21030 0.07022
 O21 O 0.70838 0.21517 0.21156
 O22 O 0.77143 0.27363 0.04872
 Cu23 Cu 0.76827 0.24373 0.38263
 Cu24 Cu 0.73770 0.24446 0.11050
 C25 C 0.79483 0.28361 0.13442
 C26 C 0.70967 0.20529 0.35344
 C27 C 0.78901 0.19816 0.16163
 C28 C 0.71747 0.28971 0.33982
 O29 O 0.72424 0.77793 0.63804
 O30 O 0.78137 0.71715 0.80487
 O31 O 0.71966 0.71465 0.70452
 O32 O 0.78397 0.78071 0.76598
 O33 O 0.75873 0.78895 0.99570
 O34 O 0.69823 0.72419 0.94109
 O35 O 0.75926 0.72589 1.04109
 O36 O 0.70025 0.78639 0.87076
 Cu37 Cu 0.75445 0.74685 0.70444
 Cu38 Cu 0.72689 0.75718 0.98501
 C39 C 0.70270 0.79279 0.72413
 C40 C 0.78020 0.71096 0.95117
 C41 C 0.69837 0.70791 0.81655
 C42 C 0.78168 0.79638 0.89391
 O43 O 0.23833 0.71471 0.94165
 O44 O 0.29800 0.77347 0.75403
 O45 O 0.24316 0.77766 0.93032
 O46 O 0.29359 0.71000 0.76836
 O47 O 0.26398 0.71191 0.55322
 O48 O 0.21292 0.77905 0.71757
 O49 O 0.26771 0.77496 0.54094
 O50 O 0.20852 0.71556 0.72711
 Cu51 Cu 0.27141 0.74382 0.86997
 Cu52 Cu 0.23516 0.74543 0.61344
 C53 C 0.21307 0.70519 0.86625
 C54 C 0.29309 0.78430 0.61597
 C55 C 0.21922 0.78985 0.85239
 C56 C 0.28766 0.69961 0.63251
 O57 O 1.03658 -0.03883 0.19010
 O58 O 0.96637 0.02061 0.16846
 O59 O 0.96868 -0.03995 0.16013
 O60 O 1.02756 0.02560 0.22410
 O61 O 1.03967 0.02943 -0.02991
 O62 O 0.97696 -0.03741 -0.09697
 O63 O 0.97594 0.02490 -0.08777
 O64 O 1.04418 -0.03531 -0.06657
 Cu65 Cu 1.00028 -0.00993 0.20926
 Cu66 Cu 1.01099 -0.00459 -0.09521
 C67 C 1.05227 -0.04727 0.06493
 C68 C 0.95906 0.03266 0.03510
 C69 C 0.96048 -0.04831 0.02432
 C70 C 1.04263 0.03998 0.10885
 O71 O 0.54003 0.53489 0.41761
 O72 O 0.48662 0.47125 0.24871
 O73 O 0.47725 0.53207 0.32379
 O74 O 0.54677 0.47263 0.36108
 O75 O 0.52729 0.45895 0.59901
 O76 O 0.45830 0.51819 0.56225
 O77 O 0.46672 0.45715 0.48521
 O78 O 0.52027 0.52053 0.65389
 Cu79 Cu 0.51458 0.50418 0.31464
 Cu80 Cu 0.49111 0.48733 0.59865
 C81 C 0.53945 0.53842 0.56543
 C82 C 0.46775 0.45321 0.33739
 C83 C 0.45595 0.53530 0.43763
 C84 C 0.54880 0.45565 0.48666
 O85 O -0.03992 0.52820 0.20042
 O86 O 0.02972 0.46926 0.13475
 O87 O 0.02640 0.53107 0.19584
 O88 O -0.03619 0.46594 0.13749
 O89 O -0.03571 0.47721 -0.11653
 O90 O 0.02609 0.54233 -0.05808
 O91 O 0.03000 0.48089 -0.11896
 O92 O -0.03966 0.53914 -0.05385
 Cu93 Cu -0.00521 0.49742 0.19240
 Cu94 Cu -0.00490 0.51115 -0.11169
 C95 C -0.05161 0.54387 0.08388
 C96 C 0.04195 0.46519 -0.00321
 C97 C 0.03725 0.54764 0.07695
 C98 C -0.04639 0.46019 0.00100
 O99 O 0.45405 1.02839 0.56152
 O100 O 0.52564 0.96995 0.59827
 O101 O 0.51921 1.03339 0.61867
 O102 O 0.46106 0.96533 0.55761
 O103 O 0.47113 0.96781 0.30159
 O104 O 0.52800 1.03772 0.36236
 O105 O 0.53539 0.97475 0.34284
 O106 O 0.46356 1.02996 0.30466
 Cu107 Cu 0.48900 0.99913 0.60915
 Cu108 Cu 0.50081 1.00327 0.30313
 C109 C 0.44599 1.03791 0.42483
 C110 C 0.54254 0.96221 0.47471
 C111 C 0.53389 1.04708 0.50013
 C112 C 0.45613 0.95475 0.42142
 C113 C 1.13769 0.15117 0.08224
 C114 C 1.11988 0.15078 0.22330
 C115 C 1.12639 0.17202 0.34336
 C116 C 1.15282 0.19448 0.31866
 C117 C 1.17221 0.19564 0.17476
 C118 C 1.16392 0.17386 0.05339
 O119 O 1.12822 0.12748 -0.01219
 C120 C 1.10396 0.11187 0.07199
 C121 C 1.09804 0.12541 0.21660
 C122 C 1.07486 0.11278 0.32720
 C123 C 1.05698 0.08481 0.28827
 C124 C 1.06240 0.06981 0.14063
 C125 C 1.08613 0.08382 0.02974
 H126 H 1.11205 0.17088 0.45371
 H127 H 1.15824 0.21079 0.41320
 H128 H 1.17821 0.17361 -0.05727
 H129 H 1.07085 0.12391 0.44045
 H130 H 1.03881 0.07485 0.37426
 H131 H 1.09104 0.07290 -0.08330
 C132 C 0.64048 0.64080 0.67410
 C133 C 0.62494 0.63158 0.81502
 C134 C 0.63256 0.64545 0.95629
 C135 C 0.65703 0.67013 0.95291
 C136 C 0.67355 0.68071 0.80983
 C137 C 0.66535 0.66546 0.66785
 O138 O 0.62877 0.62441 0.55381
 C139 C 0.60545 0.60462 0.62105
 C140 C 0.60226 0.60819 0.78071
 C141 C 0.57922 0.59046 0.87506
 C142 C 0.55852 0.56794 0.80193
 C143 C 0.56126 0.56325 0.63741
 C144 C 0.58513 0.58207 0.54566
 H145 H 0.61993 0.63773 1.06561
 H146 H 0.66304 0.68103 1.06316
 H147 H 0.67737 0.67295 0.55696
 H148 H 0.57711 0.59393 1.00062
 H149 H 0.54030 0.55421 0.87397
 H150 H 0.58788 0.57917 0.42004
 C151 C -0.13870 0.34982 0.11185
 C152 C -0.13772 0.35709 -0.04640
 C153 C -0.15726 0.34063 -0.15240
 C154 C -0.17903 0.31594 -0.09230
 C155 C -0.18069 0.30817 0.07101
 C156 C -0.15984 0.32521 0.17379
 O157 O -0.11890 0.36892 0.19313
 C158 C -0.10510 0.38872 0.08387
 C159 C -0.11574 0.38252 -0.06466
 C160 C -0.10492 0.40080 -0.19597
 C161 C -0.08207 0.42643 -0.17341
 C162 C -0.07068 0.43333 -0.02107
 C163 C -0.08251 0.41408 0.10934
 H164 H -0.15614 0.34685 -0.27652
 H165 H -0.19475 0.30312 -0.17282
 H166 H -0.16074 0.32017 0.29899
 H167 H -0.11379 0.39559 -0.31153
 H168 H -0.07333 0.44083 -0.27464
 H169 H -0.07454 0.41866 0.22734
 C170 C 0.36114 0.84840 0.56669
 C171 C 0.36138 0.85391 0.40701
 C172 C 0.34001 0.83741 0.30893
 C173 C 0.31748 0.81437 0.37837
 C174 C 0.31703 0.80817 0.54289
 C175 C 0.33938 0.82540 0.63768
 O176 O 0.38252 0.86732 0.63994
 C177 C 0.39665 0.88515 0.52399
 C178 C 0.38478 0.87788 0.37890
 C179 C 0.39602 0.89409 0.24184
 C180 C 0.42025 0.91900 0.25550
 C181 C 0.43234 0.92728 0.40468
 C182 C 0.42045 0.90978 0.54024
 H183 H 0.34045 0.84230 0.18377
 H184 H 0.30053 0.80136 0.30413
 H185 H 0.33939 0.82150 0.76359
 H186 H 0.38632 0.88802 0.12871
 H187 H 0.42900 0.93221 0.15073
 H188 H 0.42909 0.91545 0.65585
 C189 C -0.15270 0.64555 -0.02546
 C190 C -0.15384 0.63804 0.13254
 C191 C -0.17582 0.65358 0.23815
 C192 C -0.19749 0.67774 0.17812
 C193 C -0.19671 0.68589 0.01534
 C194 C -0.17384 0.66941 -0.08718
 O195 O -0.13015 0.62812 -0.10638
 C196 C -0.11664 0.60916 0.00275
 C197 C -0.13018 0.61416 0.15099
 C198 C -0.11941 0.59682 0.28226
 C199 C -0.09360 0.57353 0.25951
 C200 C -0.07916 0.56803 0.10746
 C201 C -0.09112 0.58620 -0.02251
 H202 H -0.17632 0.64731 0.36220
 H203 H -0.21489 0.68996 0.25814
 H204 H -0.17251 0.67484 -0.21199
 H205 H -0.13040 0.60112 0.39800
 H206 H -0.08486 0.55987 0.36030
 H207 H -0.08075 0.58278 -0.14022
 C208 C 0.34540 1.14182 0.36785
 C209 C 0.33551 1.11529 0.28377
 C210 C 0.30920 1.11640 0.17981
 C211 C 0.29238 1.14615 0.16071
 C212 C 0.30185 1.17398 0.24555
 C213 C 0.32844 1.17173 0.35283
 O214 O 0.37299 1.13597 0.44965
 C215 C 0.38054 1.10517 0.41603
 C216 C 0.35819 1.09152 0.31542
 C217 C 0.36222 1.06046 0.25552
 C218 C 0.39092 1.04283 0.29805
 C219 C 0.41462 1.05625 0.40008
 C220 C 0.40917 1.08765 0.46265
 H221 H 0.30252 1.09537 0.11218
 H222 H 0.27214 1.14767 0.07814
 H223 H 0.33669 1.19288 0.41576
 H224 H 0.34443 1.05050 0.17529
 H225 H 0.39511 1.01892 0.24892
 H226 H 0.42748 1.09866 0.53733
 C227 C 1.15350 -0.14589 -0.10172
 C228 C 1.15838 -0.13711 0.05067
 C229 C 1.18355 -0.15070 0.14118
 C230 C 1.20434 -0.17465 0.07265
 C231 C 1.19934 -0.18493 -0.08349
 C232 C 1.17358 -0.16992 -0.17183
 O233 O 1.12827 -0.12990 -0.16760
 C234 C 1.11683 -0.11074 -0.05388
 C235 C 1.13421 -0.11435 0.08250
 C236 C 1.12575 -0.09730 0.21772
 C237 C 1.09832 -0.07553 0.21183
 C238 C 1.08037 -0.07095 0.07160
 C239 C 1.08990 -0.08888 -0.06312
 H240 H 1.18703 -0.14323 0.26064
 H241 H 1.22393 -0.18546 0.14274
 H242 H 1.16900 -0.17676 -0.29140
 H243 H 1.13966 -0.10072 0.32405
 H244 H 1.09143 -0.06190 0.31547
 H245 H 1.07653 -0.08616 -0.17153
 C246 C 0.65304 0.35776 0.35690
 C247 C 0.65223 0.36378 0.51510
 C248 C 0.67262 0.34738 0.62021
 C249 C 0.69457 0.32351 0.56021
 C250 C 0.69549 0.31628 0.39782
 C251 C 0.67452 0.33392 0.29451
 O252 O 0.63126 0.37593 0.27816
 C253 C 0.61634 0.39363 0.38942
 C254 C 0.62814 0.38694 0.53651
 C255 C 0.61513 0.40166 0.67105
 C256 C 0.58878 0.42422 0.65328
 C257 C 0.57648 0.43191 0.50261
 C258 C 0.59063 0.41649 0.36866
 H259 H 0.67148 0.35260 0.74420
 H260 H 0.71036 0.31027 0.64104
 H261 H 0.67461 0.32903 0.17006
 H262 H 0.62465 0.39570 0.78565
 H263 H 0.57817 0.43593 0.75650
 H264 H 0.58134 0.42154 0.25263
 C265 C 0.85434 -0.14423 -0.11741
 C266 C 0.84524 -0.12671 0.01285
 C267 C 0.81643 -0.13305 0.10499
 C268 C 0.79578 -0.15874 0.06245
 C269 C 0.80372 -0.17774 -0.07228
 C270 C 0.83357 -0.17004 -0.16479
 O271 O 0.88393 -0.13427 -0.18294
 C272 C 0.89334 -0.11002 -0.09100
 C273 C 0.87017 -0.10473 0.02967
 C274 C 0.87443 -0.08174 0.14391
 C275 C 0.90414 -0.06343 0.13578
 C276 C 0.92925 -0.06817 0.01511
 C277 C 0.92353 -0.09150 -0.10275
 H278 H 0.81018 -0.11883 0.20756
 H279 H 0.77328 -0.16350 0.13564
 H280 H 0.84080 -0.18408 -0.26676
 H281 H 0.85570 -0.07830 0.23776
 H282 H 0.90761 -0.04544 0.22536
 H283 H 0.94218 -0.09575 -0.19600
 C284 C 0.36597 0.35165 0.24373
 C285 C 0.38415 0.35611 0.10462
 C286 C 0.37697 0.33906 -0.03001
 C287 C 0.34982 0.31672 -0.02089
 C288 C 0.33050 0.31185 0.12127
 C289 C 0.33901 0.32962 0.25544
 O290 O 0.37643 0.37050 0.35743
 C291 C 0.40176 0.38732 0.28885
 C292 C 0.40756 0.37950 0.13413
 C293 C 0.43265 0.39465 0.04004
 C294 C 0.45244 0.41882 0.10821
 C295 C 0.44689 0.42741 0.26772
 C296 C 0.42118 0.41116 0.35900
 H297 H 0.39155 0.34303 -0.13851
 H298 H 0.34372 0.30345 -0.12470
 H299 H 0.32478 0.32679 0.36565
 H300 H 0.43683 0.38816 -0.08158
 H301 H 0.47220 0.43068 0.03695
 H302 H 0.41616 0.41714 0.48065
 C303 C 0.14016 0.64644 -0.07499
 C304 C 0.14210 0.63885 0.08240
 C305 C 0.16677 0.65194 0.17573
 C306 C 0.19025 0.67379 0.10373
 C307 C 0.18856 0.68204 -0.05860
 C308 C 0.16301 0.66810 -0.14851
 O309 O 0.11552 0.63082 -0.14412
 C310 C 0.10151 0.61299 -0.02796
 C311 C 0.11669 0.61697 0.11329
 C312 C 0.10626 0.59989 0.24923
 C313 C 0.07935 0.57758 0.23825
 C314 C 0.06371 0.57278 0.09269
 C315 C 0.07487 0.59116 -0.04141
 H316 H 0.16798 0.64547 0.29914
 H317 H 0.20960 0.68429 0.17463
 H318 H 0.16109 0.67366 -0.27262
 H319 H 0.11868 0.60324 0.35910
 H320 H 0.07122 0.56365 0.34198
 H321 H 0.06365 0.58809 -0.15445
 C322 C 0.63671 1.14803 0.38063
 C323 C 0.63600 1.14041 0.53842
 C324 C 0.65905 1.15321 0.64072
 C325 C 0.68385 1.17480 0.57790
 C326 C 0.68494 1.18351 0.41523
 C327 C 0.66068 1.16983 0.31601
 O328 O 0.61355 1.13209 0.30246
 C329 C 0.59780 1.11408 0.41354
 C330 C 0.61039 1.11842 0.56012
 C331 C 0.59792 1.10154 0.69284
 C332 C 0.57173 1.07889 0.67323
 C333 C 0.55894 1.07330 0.52215
 C334 C 0.57201 1.09156 0.39099
 H335 H 0.65822 1.14654 0.76431
 H336 H 0.70199 1.18481 0.65670
 H337 H 0.66073 1.17541 0.19130
 H338 H 0.60829 1.10532 0.80695
 H339 H 0.56219 1.06509 0.77498
 H340 H 0.56295 1.08783 0.27411
 C341 C 0.14807 0.36679 0.08216
 C342 C 0.14890 0.37692 -0.07257
 C343 C 0.17088 0.36377 -0.18487
 C344 C 0.19264 0.33878 -0.13664
 C345 C 0.19224 0.32756 0.02207
 C346 C 0.16982 0.34214 0.13349
 O347 O 0.12450 0.38195 0.16851
 C348 C 0.11017 0.40198 0.06558
 C349 C 0.12422 0.39979 -0.08340
 C350 C 0.11264 0.41789 -0.21021
 C351 C 0.08547 0.43928 -0.18251
 C352 C 0.07046 0.44224 -0.02968
 C353 C 0.08314 0.42318 0.09615
 H354 H 0.17096 0.37215 -0.30598
 H355 H 0.20964 0.32806 -0.22337
 H356 H 0.16864 0.33391 0.25500
 H357 H 0.12402 0.41554 -0.32672
 H358 H 0.07622 0.45353 -0.28040
 H359 H 0.07215 0.42457 0.21386
 C360 C 0.63726 0.85952 0.66792
 C361 C 0.64323 0.86702 0.51161
 C362 C 0.66724 0.85104 0.41877
 C363 C 0.68621 0.82635 0.48996
 C364 C 0.68109 0.81816 0.65192
 C365 C 0.65605 0.83505 0.74201
 O366 O 0.61276 0.87756 0.73318
 C367 C 0.60322 0.89683 0.61519
 C368 C 0.62127 0.89133 0.47775
 C369 C 0.61571 0.90848 0.33920
 C370 C 0.59011 0.93209 0.34124
 C371 C 0.57054 0.93818 0.48062
 C372 C 0.57747 0.92033 0.62017
 H373 H 0.67127 0.85735 0.29561
 H374 H 0.70513 0.81389 0.41847
 H375 H 0.65146 0.82945 0.86562
 H376 H 0.63048 0.90374 0.23297
 H377 H 0.58544 0.94544 0.23325
 H378 H 0.56294 0.92421 0.72792
 C379 C 0.85428 0.13079 0.15533
 C380 C 0.85256 0.12127 0.00221
 C381 C 0.83030 0.13513 -0.10279
 C382 C 0.80908 0.16015 -0.04835
 C383 C 0.81061 0.17085 0.10858
 C384 C 0.83346 0.15569 0.21209
 O385 O 0.87775 0.11484 0.23442
 C386 C 0.89123 0.09496 0.12831
 C387 C 0.87669 0.09804 -0.01557
 C388 C 0.88761 0.08055 -0.14560
 C389 C 0.91482 0.05909 -0.12688
 C390 C 0.93033 0.05534 0.02034
 C391 C 0.91810 0.07337 0.15035
 H392 H 0.82952 0.12718 -0.22285
 H393 H 0.79182 0.17145 -0.12912
 H394 H 0.83534 0.16326 0.33243
 H395 H 0.87585 0.08356 -0.25785
 H396 H 0.92370 0.04527 -0.22708
 H397 H 0.92959 0.07123 0.26364
 C398 C 0.35167 0.63163 0.59224
 C399 C 0.35180 0.62707 0.43291
 C400 C 0.33081 0.64442 0.33356
 C401 C 0.30905 0.66775 0.40085
 C402 C 0.30899 0.67347 0.56472
 C403 C 0.33051 0.65487 0.66154
 O404 O 0.37380 0.61287 0.66540
 C405 C 0.38838 0.59625 0.54948
 C406 C 0.37600 0.60416 0.40480
 C407 C 0.38873 0.59065 0.26656
 C408 C 0.41538 0.56811 0.27785
 C409 C 0.42822 0.55921 0.42615
 C410 C 0.41430 0.57342 0.56386
 H411 H 0.33138 0.64037 0.20848
 H412 H 0.29289 0.68181 0.32456
 H413 H 0.33110 0.65860 0.78681
 H414 H 0.37876 0.59750 0.15402
 H415 H 0.42571 0.55735 0.17159
 H416 H 0.42390 0.56744 0.67847
   
