data_POSCAR
  _audit_creation_date              2014-09-24
  _audit_creation_method            'ToBaCCo'
  _symmetry_space_group_name_H-M    'P1'
  _symmetry_Int_Tables_number       1
  _symmetry_cell_setting            triclinic
  loop_
  _symmetry_equiv_pos_as_xyz
 x,y,z
_cell_length_a 36.8160
_cell_length_b 38.4658
_cell_length_c 35.3676
_cell_angle_alpha 88.303800
_cell_angle_beta 89.728800
_cell_angle_gamma 90.167800
loop_
  _atom_site_label
  _atom_site_type_symbol
  _atom_site_fract_x
  _atom_site_fract_y
  _atom_site_fract_z
N1 N 0.23693 0.23582 0.20714
 N2 N -0.21627 0.80243 0.22798
 N3 N -0.20836 0.21171 -0.20726
 N4 N 0.23360 0.75529 -0.25121
 N5 N 0.18389 1.21804 0.82935
 N6 N 0.76063 0.77695 0.76938
 N7 N 0.23163 0.77439 1.23966
 N8 N 0.79476 1.20528 1.17648
 O9 O 0.52347 0.96366 0.91623
 O10 O 0.46566 0.96930 1.07701
 O11 O 0.53158 0.92910 1.02911
 O12 O 0.42760 0.93845 0.96539
 O13 O 0.53072 0.96728 1.07111
 O14 O 0.45626 0.96568 0.91876
 O15 O 0.44315 0.93458 1.03593
 O16 O 0.53216 0.92703 0.96166
 C17 C 0.53036 0.93316 0.92726
 C18 C 0.45157 0.94036 1.06927
 C19 C 0.53574 0.93636 1.06259
 C20 C 0.43469 0.94225 0.93085
 O21 O 0.45712 1.03148 0.93531
 O22 O 0.53091 1.03074 1.03498
 O23 O 0.56633 0.98994 0.95684
 O24 O 0.42213 1.00020 1.04080
 O25 O 0.46647 1.03515 1.04417
 O26 O 0.52687 1.02897 0.94001
 O27 O 0.41578 1.00555 0.97152
 O28 O 0.56922 0.99071 1.02458
 Co29 Co 0.49140 0.99619 0.93416
 Co30 Co 0.49787 0.99905 1.05171
 Co31 Co 0.54509 0.96106 0.99338
 Co32 Co 0.43355 0.97070 1.00287
 O33 O 0.49171 0.98197 0.99505
 C34 C 0.42555 1.02998 0.94894
 C35 C 0.56302 1.02171 1.03217
 C36 C 0.55920 1.02014 0.94411
 C37 C 0.43351 1.02991 1.04746
 O38 O 0.02747 0.48228 0.07705
 O39 O 0.01393 0.54952 -0.07143
 O40 O 0.03859 0.46166 -0.00831
 O41 O 0.05019 0.56887 0.03774
 O42 O 0.02773 0.48638 -0.06194
 O43 O 0.02344 0.54566 0.08623
 O44 O 0.04895 0.55994 -0.02686
 O45 O 0.00129 0.44262 0.04619
 C46 C 0.02486 0.45101 0.06938
 C47 C 0.04439 0.55879 -0.06101
 C48 C 0.04820 0.46790 -0.04141
 C49 C 0.04859 0.56367 0.07234
 O50 O -0.04525 0.54622 0.07613
 O51 O -0.04459 0.47547 -0.05036
 O52 O -0.05728 0.46789 0.01537
 O53 O -0.02263 0.58382 -0.02968
 O54 O -0.05316 0.53906 -0.04882
 O55 O -0.04601 0.48078 0.07283
 O56 O -0.02025 0.58790 0.03990
 O57 O -0.01937 0.42946 -0.02377
 Co58 Co -0.00964 0.51353 0.07162
 Co59 Co -0.01266 0.51287 -0.05149
 Co60 Co -0.00882 0.46721 0.00285
 Co61 Co 0.01245 0.57051 0.00498
 O62 O -0.00356 0.51812 0.01011
 C63 C -0.04346 0.57760 0.06472
 C64 C -0.03883 0.44279 -0.05148
 C65 C -0.06664 0.46727 0.04921
 C66 C -0.05080 0.57119 -0.04445
 O67 O 1.08549 0.04067 0.46847
 O68 O 0.95610 0.05810 0.52265
 O69 O 0.97566 0.06151 0.45171
 O70 O 1.04272 0.02149 0.58146
 O71 O 0.93136 0.02967 0.46467
 O72 O 1.07605 0.04706 0.53797
 O73 O 0.97997 0.03913 0.57435
 O74 O 1.03856 0.06619 0.44614
 C75 C 1.07194 0.06478 0.44929
 C76 C 0.96327 0.06260 0.55644
 C77 C 0.94318 0.05508 0.44622
 C78 C 1.06459 0.04539 0.57125
 O79 O 1.07619 -0.02085 0.54557
 O80 O 0.95512 -0.02900 0.48566
 O81 O 1.04541 -0.00188 0.42772
 O82 O 0.96231 -0.02662 0.55327
 O83 O 0.91692 0.00358 0.53230
 O84 O 1.07753 -0.02510 0.47460
 O85 O 1.02387 -0.04282 0.55532
 O86 O 0.97841 -0.00814 0.43297
 Co87 Co 1.07254 0.01087 0.50660
 Co88 Co 0.95785 0.01427 0.50555
 Co89 Co 1.00944 0.02812 0.44461
 Co90 Co 1.00313 -0.00062 0.56084
 O91 O 1.01316 0.01448 0.50261
 C92 C 1.05718 -0.04669 0.55415
 C93 C 0.96107 -0.03196 0.45095
 C94 C 1.06796 -0.02440 0.44041
 C95 C 0.92911 -0.01886 0.55718
 C96 C 1.21272 0.24061 0.27199
 C97 C 1.19380 0.22616 0.30300
 C98 C 1.18606 0.19047 0.30502
 C99 C 1.19799 0.16932 0.27566
 C100 C 1.21634 0.18388 0.24435
 C101 C 1.22354 0.21975 0.24198
 C102 C 1.16309 0.17631 0.33625
 C103 C 1.16739 0.14402 0.35050
 C104 C 1.14287 0.12793 0.37922
 C105 C 1.15683 0.10209 0.40368
 C106 C 1.13387 0.08312 0.42802
 C107 C 1.09617 0.08905 0.42787
 C108 C 1.08222 0.11581 0.40430
 C109 C 1.10541 0.13522 0.38023
 H110 H 1.21765 0.26839 0.27054
 H111 H 1.18464 0.24296 0.32515
 H112 H 1.19152 0.14185 0.27589
 H113 H 1.22332 0.16742 0.22112
 H114 H 1.14263 0.19308 0.34806
 H115 H 1.19021 0.12868 0.34115
 H116 H 1.18553 0.09595 0.40328
 H117 H 1.14556 0.06268 0.44578
 H118 H 1.05330 0.12082 0.40341
 H119 H 1.09374 0.15457 0.36109
 C120 C 0.80131 -0.14225 0.25642
 C121 C 0.82231 -0.12382 0.28178
 C122 C 0.84428 -0.14141 0.30838
 C123 C 0.84445 -0.17801 0.30952
 C124 C 0.82354 -0.19646 0.28393
 C125 C 0.80213 -0.17872 0.25693
 C126 C 0.86845 -0.12061 0.33224
 C127 C 0.88222 -0.13183 0.36542
 C128 C 0.90591 -0.10922 0.38779
 C129 C 0.90243 -0.10931 0.42730
 C130 C 0.92169 -0.08521 0.44838
 C131 C 0.94513 -0.06103 0.43019
 C132 C 0.95054 -0.06277 0.39095
 C133 C 0.93113 -0.08659 0.36996
 H134 H 0.78545 -0.12806 0.23543
 H135 H 0.82192 -0.09565 0.28014
 H136 H 0.86169 -0.19245 0.32901
 H137 H 0.82471 -0.22459 0.28447
 H138 H 0.87411 -0.09416 0.32246
 H139 H 0.87402 -0.15674 0.37775
 H140 H 0.88351 -0.12690 0.44164
 H141 H 0.91715 -0.08461 0.47863
 H142 H 0.96881 -0.04486 0.37618
 H143 H 0.93534 -0.08682 0.33965
 C144 C 0.79012 0.18946 0.72777
 C145 C 0.80804 0.17731 0.69578
 C146 C 0.84614 0.17518 0.69465
 C147 C 0.86594 0.18530 0.72652
 C148 C 0.84802 0.19747 0.75837
 C149 C 0.80997 0.19964 0.75938
 C150 C 0.86386 0.15978 0.66120
 C151 C 0.89952 0.16246 0.65345
 C152 C 0.91758 0.14127 0.62465
 C153 C 0.95231 0.12814 0.63252
 C154 C 0.96823 0.10397 0.60894
 C155 C 0.95014 0.09322 0.57644
 C156 C 0.91673 0.10852 0.56676
 C157 C 0.90039 0.13221 0.59085
 H158 H 0.76075 0.19092 0.72794
 H159 H 0.79205 0.16930 0.67190
 H160 H 0.89513 0.18293 0.72778
 H161 H 0.86389 0.20452 0.78270
 H162 H 0.84691 0.14410 0.64340
 H163 H 0.91696 0.17777 0.67100
 H164 H 0.96625 0.13502 0.65817
 H165 H 0.99404 0.09262 0.61690
 H166 H 0.90223 0.10055 0.54187
 H167 H 0.87401 0.14268 0.58352
 C168 C 1.23582 -0.21253 0.68725
 C169 C 1.21847 -0.19328 0.65849
 C170 C 1.18057 -0.18923 0.65883
 C171 C 1.16025 -0.20524 0.68835
 C172 C 1.17760 -0.22428 0.71712
 C173 C 1.21557 -0.22775 0.71713
 C174 C 1.16371 -0.16509 0.63068
 C175 C 1.12837 -0.16607 0.62149
 C176 C 1.11002 -0.13781 0.59956
 C177 C 1.07240 -0.13354 0.60432
 C178 C 1.05468 -0.10466 0.58819
 C179 C 1.07436 -0.07952 0.56699
 C180 C 1.11147 -0.08495 0.56010
 C181 C 1.12911 -0.11391 0.57595
 H182 H 1.26512 -0.21485 0.68680
 H183 H 1.23477 -0.18089 0.63632
 H184 H 1.13120 -0.20174 0.69053
 H185 H 1.16148 -0.23518 0.74027
 H186 H 1.18104 -0.14468 0.61905
 H187 H 1.11136 -0.18681 0.63305
 H188 H 1.05694 -0.15178 0.62195
 H189 H 1.02596 -0.10125 0.59368
 H190 H 1.12709 -0.06637 0.54307
 H191 H 1.15773 -0.11700 0.57003
 C192 C 0.26525 1.22236 1.14523
 C193 C 0.29073 1.20434 1.12398
 C194 C 0.31591 1.18232 1.14197
 C195 C 0.31679 1.18025 1.18167
 C196 C 0.29196 1.19900 1.20298
 C197 C 0.26510 1.21949 1.18507
 C198 C 0.34013 1.16081 1.11894
 C199 C 0.34475 1.12697 1.12731
 C200 C 0.36646 1.10363 1.10372
 C201 C 0.35557 1.06883 1.10128
 C202 C 0.37658 1.04533 1.08140
 C203 C 0.40950 1.05596 1.06442
 C204 C 0.42022 1.09096 1.06632
 C205 C 0.39872 1.11471 1.08559
 H206 H 0.24498 1.23766 1.13029
 H207 H 0.28975 1.20638 1.09338
 H208 H 0.33657 1.16396 1.19617
 H209 H 0.29316 1.19682 1.23353
 H210 H 0.35135 1.17206 1.09296
 H211 H 0.33006 1.11528 1.15113
 H212 H 0.33085 1.05973 1.11512
 H213 H 0.36772 1.01848 1.08056
 H214 H 0.44553 1.09978 1.05352
 H215 H 0.40804 1.14132 1.08752
 C216 C 0.29079 0.75419 0.78563
 C217 C 0.31765 0.77132 0.80598
 C218 C 0.31744 0.80770 0.80829
 C219 C 0.28966 0.82664 0.79003
 C220 C 0.26264 0.80953 0.77011
 C221 C 0.26276 0.77308 0.76776
 C222 C 0.34449 0.82495 0.83245
 C223 C 0.35522 0.85804 0.82649
 C224 C 0.37843 0.87703 0.85319
 C225 C 0.39860 0.90591 0.83975
 C226 C 0.41797 0.92646 0.86476
 C227 C 0.41699 0.91888 0.90387
 C228 C 0.39730 0.88960 0.91723
 C229 C 0.37826 0.86889 0.89223
 H230 H 0.29152 0.72612 0.78428
 H231 H 0.33852 0.75611 0.82016
 H232 H 0.28782 0.85457 0.79229
 H233 H 0.24098 0.82479 0.75745
 H234 H 0.35584 0.80973 0.85575
 H235 H 0.34667 0.87205 0.80107
 H236 H 0.39890 0.91291 0.80986
 H237 H 0.43279 0.94888 0.85357
 H238 H 0.39595 0.88306 0.94720
 H239 H 0.36226 0.84745 0.90382
 C240 C 0.72147 0.82143 1.24417
 C241 C 0.68714 0.83341 1.23320
 C242 C 0.67779 0.83591 1.19481
 C243 C 0.70353 0.82626 1.16753
 C244 C 0.73784 0.81460 1.17846
 C245 C 0.74732 0.81223 1.21688
 C246 C 0.64280 0.85204 1.18361
 C247 C 0.62641 0.84515 1.15087
 C248 C 0.59690 0.86643 1.13363
 C249 C 0.58091 0.85477 1.10032
 C250 C 0.55874 0.87673 1.07847
 C251 C 0.55207 0.91089 1.08950
 C252 C 0.56550 0.92168 1.12435
 C253 C 0.58787 0.89978 1.14617
 H254 H 0.72814 0.81989 1.27395
 H255 H 0.66799 0.84117 1.25470
 H256 H 0.69793 0.82916 1.13760
 H257 H 0.75746 0.80856 1.15674
 H258 H 0.63132 0.87076 1.20243
 H259 H 0.63667 0.82402 1.13433
 H260 H 0.58723 0.82924 1.09001
 H261 H 0.54850 0.86759 1.05186
 H262 H 0.56071 0.94788 1.13360
 H263 H 0.59964 0.91012 1.17140
 C264 C 0.73189 1.21024 0.82503
 C265 C 0.70342 1.19180 0.84267
 C266 C 0.70366 1.15529 0.84478
 C267 C 0.73246 1.13754 0.82755
 C268 C 0.76090 1.15602 0.80984
 C269 C 0.76110 1.19256 0.80874
 C270 C 0.67302 1.13677 0.86413
 C271 C 0.67572 1.10443 0.87926
 C272 C 0.64520 1.08502 0.89792
 C273 C 0.65313 1.05472 0.91943
 C274 C 0.62530 1.03416 0.93534
 C275 C 0.58876 1.04344 0.93010
 C276 C 0.58073 1.07419 0.90941
 C277 C 0.60855 1.09465 0.89329
 H278 H 0.73134 1.23839 0.82429
 H279 H 0.68137 1.20612 0.85522
 H280 H 0.73307 1.10944 0.82734
 H281 H 0.78312 1.14176 0.79757
 H282 H 0.64807 1.15117 0.86727
 H283 H 0.70178 1.09151 0.87884
 H284 H 0.68103 1.04657 0.92346
 H285 H 0.63239 1.01064 0.95117
 H286 H 0.55283 1.08194 0.90465
 H287 H 0.60090 1.11722 0.87629
 C288 C 0.23353 0.29498 0.17778
 C289 C 0.21296 0.32278 0.16311
 C290 C 0.17491 0.32034 0.16157
 C291 C 0.15777 0.28994 0.17587
 C292 C 0.17824 0.26226 0.19014
 C293 C 0.21625 0.26448 0.19129
 C294 C 0.15355 0.34989 0.14580
 C295 C 0.12096 0.34520 0.12992
 C296 C 0.09755 0.37346 0.11477
 C297 C 0.06896 0.36435 0.09093
 C298 C 0.04521 0.38952 0.07667
 C299 C 0.04938 0.42451 0.08604
 C300 C 0.07775 0.43379 0.11020
 C301 C 0.10162 0.40848 0.12458
 H302 H 0.26283 0.29721 0.17881
 H303 H 0.22674 0.34609 0.15270
 H304 H 0.12850 0.28751 0.17671
 H305 H 0.16438 0.23900 0.20055
 H306 H 0.16565 0.37554 0.14610
 H307 H 0.11102 0.31897 0.12658
 H308 H 0.06498 0.33756 0.08320
 H309 H 0.02360 0.38149 0.05818
 H310 H 0.08153 0.46059 0.11793
 H311 H 0.12268 0.41643 0.14371
 C312 C -0.18855 0.23771 -0.14766
 C313 C -0.17082 0.26399 -0.12851
 C314 C -0.15718 0.29350 -0.14820
 C315 C -0.16223 0.29644 -0.18761
 C316 C -0.18004 0.27010 -0.20675
 C317 C -0.19295 0.24029 -0.18704
 C318 C -0.13559 0.31890 -0.12691
 C319 C -0.12729 0.35122 -0.13953
 C320 C -0.10370 0.37463 -0.11784
 C321 C -0.10853 0.41079 -0.12113
 C322 C -0.08707 0.43324 -0.10010
 C323 C -0.06018 0.41982 -0.07574
 C324 C -0.05444 0.38376 -0.07364
 C325 C -0.07584 0.36141 -0.09449
 H326 H -0.19779 0.21478 -0.13189
 H327 H -0.16707 0.26090 -0.09824
 H328 H -0.15144 0.31828 -0.20404
 H329 H -0.18307 0.27254 -0.23715
 H330 H -0.12647 0.31046 -0.09905
 H331 H -0.13896 0.36148 -0.16555
 H332 H -0.12942 0.42161 -0.13940
 H333 H -0.09189 0.46098 -0.10245
 H334 H -0.03350 0.37267 -0.05562
 H335 H -0.07026 0.33382 -0.09248
 C336 C 0.20395 0.69794 -0.25716
 C337 C 0.18374 0.67025 -0.24137
 C338 C 0.17696 0.66808 -0.20231
 C339 C 0.19117 0.69403 -0.17925
 C340 C 0.21112 0.72178 -0.19507
 C341 C 0.21732 0.72429 -0.23425
 C342 C 0.15235 0.64054 -0.18680
 C343 C 0.15421 0.62886 -0.15080
 C344 C 0.12678 0.60598 -0.13175
 C345 C 0.13513 0.59224 -0.09569
 C346 C 0.10867 0.57530 -0.07365
 C347 C 0.07311 0.57160 -0.08717
 C348 C 0.06506 0.58336 -0.12411
 C349 C 0.09160 0.60064 -0.14622
 H350 H 0.20822 0.69948 -0.28748
 H351 H 0.17281 0.65082 -0.25977
 H352 H 0.18543 0.69402 -0.14922
 H353 H 0.22026 0.74218 -0.17690
 H354 H 0.13219 0.63019 -0.20559
 H355 H 0.17668 0.63729 -0.13362
 H356 H 0.16191 0.59586 -0.08381
 H357 H 0.11573 0.56620 -0.04536
 H358 H 0.03779 0.58091 -0.13510
 H359 H 0.08375 0.61121 -0.17361
 C360 C -0.15986 0.78588 0.19491
 C361 C -0.14031 0.76297 0.17279
 C362 C -0.15610 0.73183 0.16119
 C363 C -0.19233 0.72435 0.17176
 C364 C -0.21183 0.74725 0.19410
 C365 C -0.19578 0.77821 0.20592
 C366 C -0.13385 0.70832 0.13804
 C367 C -0.14116 0.67442 0.13443
 C368 C -0.11682 0.65036 0.11447
 C369 C -0.11836 0.61490 0.12467
 C370 C -0.09487 0.59134 0.10812
 C371 C -0.06939 0.60265 0.08065
 C372 C -0.06864 0.63798 0.06936
 C373 C -0.09221 0.66163 0.08601
 H374 H -0.14705 0.80988 0.20307
 H375 H -0.11263 0.76957 0.16483
 H376 H -0.20604 0.70124 0.16252
 H377 H -0.23958 0.74098 0.20204
 H378 H -0.10908 0.71904 0.12586
 H379 H -0.16416 0.66290 0.14928
 H380 H -0.13729 0.60546 0.14619
 H381 H -0.09642 0.56426 0.11728
 H382 H -0.04966 0.64741 0.04791
 H383 H -0.09109 0.68855 0.07637
 C384 C 1.12934 0.20825 0.79243
 C385 C 1.11159 0.19068 0.76371
 C386 C 1.13076 0.16801 0.74059
 C387 C 1.16809 0.16309 0.74680
 C388 C 1.18576 0.18033 0.77561
 C389 C 1.16672 0.20301 0.79922
 C390 C 1.11091 0.14813 0.71191
 C391 C 1.12687 0.13718 0.68027
 C392 C 1.10861 0.11500 0.65256
 C393 C 1.12147 0.11561 0.61517
 C394 C 1.10674 0.09344 0.58868
 C395 C 1.07914 0.06968 0.59917
 C396 C 1.06616 0.06906 0.63662
 C397 C 1.08066 0.09156 0.66307
 H398 H 1.11346 0.22473 0.81046
 H399 H 1.08271 0.19454 0.75979
 H400 H 1.18359 0.14509 0.73026
 H401 H 1.21454 0.17583 0.77959
 H402 H 1.08229 0.14308 0.71677
 H403 H 1.15443 0.14535 0.67372
 H404 H 1.14319 0.13320 0.60646
 H405 H 1.11741 0.09457 0.56008
 H406 H 1.04501 0.05096 0.64560
 H407 H 1.07074 0.08970 0.69191
 C408 C 0.80342 -0.21649 0.71545
 C409 C 0.82321 -0.19548 0.68975
 C410 C 0.82078 -0.15905 0.69052
 C411 C 0.79862 -0.14401 0.71807
 C412 C 0.77898 -0.16501 0.74381
 C413 C 0.78102 -0.20145 0.74265
 C414 C 0.84334 -0.13770 0.66380
 C415 C 0.83582 -0.10455 0.65374
 C416 C 0.85992 -0.08299 0.62875
 C417 C 0.84528 -0.05483 0.60771
 C418 C 0.86758 -0.03375 0.58435
 C419 C 0.90500 -0.04029 0.58200
 C420 C 0.91970 -0.06802 0.60362
 C421 C 0.89751 -0.08905 0.62678
 H422 H 0.80547 -0.24450 0.71413
 H423 H 0.84044 -0.20772 0.66913
 H424 H 0.79704 -0.11610 0.72058
 H425 H 0.76253 -0.15278 0.76508
 H426 H 0.86654 -0.15031 0.65130
 H427 H 0.81074 -0.09290 0.66309
 H428 H 0.81648 -0.04932 0.60915
 H429 H 0.85559 -0.01241 0.56817
 H430 H 0.94852 -0.07355 0.60268
 H431 H 0.91010 -0.10958 0.64361
 C432 C 1.23068 -0.19649 0.29968
 C433 C 1.21227 -0.17674 0.32611
 C434 C 1.17539 -0.16883 0.32142
 C435 C 1.15665 -0.18286 0.29083
 C436 C 1.17499 -0.20271 0.26437
 C437 C 1.21262 -0.20914 0.26774
 C438 C 1.15774 -0.14576 0.34886
 C439 C 1.12841 -0.12630 0.34068
 C440 C 1.11261 -0.10101 0.36704
 C441 C 1.09070 -0.07405 0.35230
 C442 C 1.07603 -0.04916 0.37600
 C443 C 1.08294 -0.05077 0.41504
 C444 C 1.10414 -0.07821 0.42993
 C445 C 1.11860 -0.10316 0.40631
 H446 H 1.25929 -0.20164 0.30398
 H447 H 1.22721 -0.16682 0.34983
 H448 H 1.12790 -0.17840 0.28696
 H449 H 1.15997 -0.21157 0.24022
 H450 H 1.17141 -0.14278 0.37557
 H451 H 1.11682 -0.12695 0.31265
 H452 H 1.08530 -0.07197 0.32224
 H453 H 1.05953 -0.02852 0.36371
 H454 H 1.10944 -0.08059 0.45999
 H455 H 1.13405 -0.12420 0.41917
 C456 C 0.85044 0.19664 0.21249
 C457 C 0.86865 0.18211 0.24372
 C458 C 0.84990 0.16275 0.27190
 C459 C 0.81207 0.15860 0.26819
 C460 C 0.79379 0.17311 0.23694
 C461 C 0.81262 0.19214 0.20817
 C462 C 0.87134 0.14660 0.30348
 C463 C 0.85705 0.12994 0.33408
 C464 C 0.87941 0.11237 0.36388
 C465 C 0.86387 0.08500 0.38568
 C466 C 0.88429 0.06682 0.41301
 C467 C 0.92068 0.07587 0.41941
 C468 C 0.93594 0.10400 0.39859
 C469 C 0.91554 0.12216 0.37122
 H470 H 0.86636 0.21033 0.19093
 H471 H 0.89779 0.18568 0.24555
 H472 H 0.79620 0.14385 0.28881
 H473 H 0.76464 0.16964 0.23546
 H474 H 0.90057 0.14789 0.30052
 H475 H 0.82797 0.12744 0.33712
 H476 H 0.83602 0.07713 0.38096
 H477 H 0.87179 0.04530 0.42869
 H478 H 0.96385 0.11174 0.40314
 H479 H 0.92820 0.14389 0.35616
 C480 C 0.16612 0.27706 -0.18930
 C481 C 0.15626 0.31071 -0.17956
 C482 C 0.15680 0.32066 -0.14177
 C483 C 0.16777 0.29622 -0.11378
 C484 C 0.17743 0.26248 -0.12341
 C485 C 0.17631 0.25197 -0.16135
 C486 C 0.14208 0.35521 -0.13221
 C487 C 0.15036 0.37159 -0.10036
 C488 C 0.12946 0.40172 -0.08669
 C489 C 0.12702 0.40617 -0.04754
 C490 C 0.10253 0.42993 -0.03278
 C491 C 0.08025 0.45007 -0.05696
 C492 C 0.08528 0.44818 -0.09624
 C493 C 0.10967 0.42419 -0.11104
 H494 H 0.16577 0.27069 -0.21891
 H495 H 0.14774 0.32897 -0.20166
 H496 H 0.16727 0.30238 -0.08415
 H497 H 0.18405 0.24410 -0.10073
 H498 H 0.12207 0.36624 -0.15133
 H499 H 0.17054 0.36046 -0.08146
 H500 H 0.14233 0.38960 -0.02815
 H501 H 0.09948 0.43098 -0.00234
 H502 H 0.06872 0.46362 -0.11556
 H503 H 0.11195 0.42257 -0.14143
 C504 C -0.19318 0.23864 0.11841
 C505 C -0.18197 0.26936 0.09985
 C506 C -0.17124 0.29815 0.12042
 C507 C -0.17102 0.29535 0.16018
 C508 C -0.18182 0.26441 0.17888
 C509 C -0.19339 0.23555 0.15831
 C510 C -0.15807 0.32961 0.09938
 C511 C -0.15996 0.36177 0.11289
 C512 C -0.14217 0.39228 0.09392
 C513 C -0.13017 0.41945 0.11634
 C514 C -0.10794 0.44578 0.10094
 C515 C -0.09761 0.44563 0.06264
 C516 C -0.11260 0.42043 0.03931
 C517 C -0.13474 0.39397 0.05479
 H518 H -0.20098 0.21688 0.10145
 H519 H -0.18173 0.27064 0.06920
 H520 H -0.16182 0.31670 0.17695
 H521 H -0.18193 0.26329 0.20951
 H522 H -0.14576 0.32560 0.07202
 H523 H -0.17230 0.36554 0.14031
 H524 H -0.13605 0.41914 0.14639
 H525 H -0.09706 0.46505 0.11955
 H526 H -0.10535 0.41978 0.00962
 H527 H -0.14489 0.37436 0.03623
 C528 C -0.24003 0.71744 -0.20180
 C529 C -0.22318 0.69069 -0.18073
 C530 C -0.18775 0.69491 -0.16703
 C531 C -0.16902 0.72608 -0.17599
 C532 C -0.18580 0.75270 -0.19714
 C533 C -0.22155 0.74879 -0.21007
 C534 C -0.17056 0.66608 -0.14471
 C535 C -0.14484 0.67163 -0.11874
 C536 C -0.12471 0.64395 -0.09737
 C537 C -0.10150 0.65416 -0.06829
 C538 C -0.07879 0.63014 -0.04995
 C539 C -0.07873 0.59513 -0.06013
 C540 C -0.10314 0.58436 -0.08792
 C541 C -0.12579 0.60853 -0.10655
 H542 H -0.26752 0.71376 -0.21170
 H543 H -0.23803 0.66679 -0.17470
 H544 H -0.14124 0.72989 -0.16716
 H545 H -0.17097 0.77661 -0.20302
 H546 H -0.18034 0.64003 -0.14929
 H547 H -0.13781 0.69822 -0.11256
 H548 H -0.10009 0.68115 -0.06045
 H549 H -0.06045 0.63922 -0.02848
 H550 H -0.10354 0.55757 -0.09651
 H551 H -0.14284 0.59938 -0.12896
 C552 C 0.22058 0.74582 0.18039
 C553 C 0.20289 0.72037 0.16002
 C554 C 0.17957 0.69627 0.17817
 C555 C 0.17430 0.69813 0.21750
 C556 C 0.19195 0.72372 0.23800
 C557 C 0.21532 0.74819 0.21981
 C558 C 0.15975 0.67140 0.15444
 C559 C 0.14367 0.64206 0.16757
 C560 C 0.12195 0.61935 0.14303
 C561 C 0.09359 0.59939 0.15922
 C562 C 0.07051 0.58011 0.13647
 C563 C 0.07550 0.58028 0.09704
 C564 C 0.10515 0.59865 0.08110
 C565 C 0.12827 0.61777 0.10383
 H566 H 0.23731 0.76460 0.16490
 H567 H 0.20710 0.71984 0.12970
 H568 H 0.15591 0.68062 0.23255
 H569 H 0.18741 0.72435 0.26824
 H570 H 0.15800 0.67830 0.12463
 H571 H 0.14468 0.63512 0.19740
 H572 H 0.08846 0.59974 0.18939
 H573 H 0.04801 0.56606 0.14962
 H574 H 0.11009 0.59883 0.05088
 H575 H 0.15083 0.63144 0.09044
 C576 C 0.20090 1.16267 0.85861
 C577 C 0.22609 1.14189 0.87789
 C578 C 0.25939 1.15570 0.88927
 C579 C 0.26633 1.19137 0.88263
 C580 C 0.24090 1.21240 0.86360
 C581 C 0.20802 1.19822 0.85054
 C582 C 0.28606 1.13183 0.90742
 C583 C 0.32210 1.13660 0.90498
 C584 C 0.34861 1.10999 0.91822
 C585 C 0.38287 1.10908 0.90075
 C586 C 0.40792 1.08324 0.91083
 C587 C 0.39932 1.05782 0.93884
 C588 C 0.36548 1.05943 0.95729
 C589 C 0.34043 1.08530 0.94722
 H590 H 0.17558 1.15094 0.85004
 H591 H 0.21986 1.11462 0.88313
 H592 H 0.29135 1.20310 0.89196
 H593 H 0.24757 1.23947 0.85778
 H594 H 0.27552 1.10772 0.91971
 H595 H 0.33270 1.15912 0.88945
 H596 H 0.38999 1.12797 0.87860
 H597 H 0.43388 1.08295 0.89631
 H598 H 0.35831 1.04069 0.97957
 H599 H 0.31486 1.08591 0.96237
 C600 C 0.29274 0.76330 1.21637
 C601 C 0.32588 0.77586 1.20206
 C602 C 0.33334 0.81164 1.20054
 C603 C 0.30726 0.83464 1.21457
 C604 C 0.27412 0.82219 1.22872
 C605 C 0.26580 0.78631 1.22912
 C606 C 0.36597 0.82442 1.17962
 C607 C 0.37997 0.85635 1.18358
 C608 C 0.40489 0.87346 1.15562
 C609 C 0.42234 0.90446 1.16529
 C610 C 0.43991 0.92524 1.13765
 C611 C 0.43996 0.91553 1.09968
 C612 C 0.42478 0.88335 1.09046
 C613 C 0.40733 0.86258 1.11803
 H614 H 0.28786 0.73551 1.21692
 H615 H 0.34540 0.75759 1.19121
 H616 H 0.31127 0.86250 1.21268
 H617 H 0.25405 0.84100 1.23715
 H618 H 0.37733 0.80744 1.15882
 H619 H 0.37096 0.87183 1.20689
 H620 H 0.42081 0.91353 1.19396
 H621 H 0.45152 0.94984 1.14564
 H622 H 0.42459 0.87506 1.06146
 H623 H 0.39380 0.83932 1.10896
 C624 C 0.73571 1.20619 1.14620
 C625 C 0.70718 1.18879 1.12904
 C626 C 0.70760 1.15253 1.12644
 C627 C 0.73656 1.13375 1.14284
 C628 C 0.76511 1.15112 1.16024
 C629 C 0.76549 1.18774 1.16175
 C630 C 0.67689 1.13531 1.10747
 C631 C 0.67990 1.10455 1.09078
 C632 C 0.64938 1.08598 1.07260
 C633 C 0.65704 1.05481 1.05446
 C634 C 0.62912 1.03462 1.03984
 C635 C 0.59281 1.04523 1.04289
 C636 C 0.58512 1.07711 1.05944
 C637 C 0.61299 1.09722 1.07432
 H638 H 0.73446 1.23425 1.14753
 H639 H 0.68487 1.20381 1.11725
 H640 H 0.73725 1.10565 1.14252
 H641 H 0.78758 1.13591 1.17133
 H642 H 0.65166 1.14951 1.10623
 H643 H 0.70620 1.09208 1.09014
 H644 H 0.68471 1.04551 1.05249
 H645 H 0.63590 1.01019 1.02713
 H646 H 0.55734 1.08592 1.06228
 H647 H 0.60534 1.12080 1.08804
 C648 C 0.70010 0.79971 0.75158
 C649 C 0.66692 0.81445 0.76172
 C650 C 0.65681 0.81631 0.79989
 C651 C 0.68023 0.80227 0.82775
 C652 C 0.71349 0.78778 0.81761
 C653 C 0.72415 0.78707 0.77949
 C654 C 0.62427 0.83672 0.81008
 C655 C 0.60651 0.83171 0.84296
 C656 C 0.58032 0.85666 0.85903
 C657 C 0.56275 0.84692 0.89302
 C658 C 0.54410 0.87143 0.91386
 C659 C 0.54243 0.90629 0.90109
 C660 C 0.55718 0.91559 0.86555
 C661 C 0.57620 0.89107 0.84474
 H662 H 0.70773 0.79937 0.72199
 H663 H 0.64956 0.82533 0.73976
 H664 H 0.67408 0.80422 0.85754
 H665 H 0.73175 0.77882 0.83970
 H666 H 0.61605 0.85721 0.79040
 H667 H 0.61321 0.80912 0.86055
 H668 H 0.56525 0.82067 0.90467
 H669 H 0.53264 0.86348 0.94105
 H670 H 0.55633 0.94233 0.85511
 H671 H 0.58939 0.89998 0.81888
   
