data_POSCAR
  _audit_creation_date              2014-09-24
  _audit_creation_method            'ToBaCCo'
  _symmetry_space_group_name_H-M    'P1'
  _symmetry_Int_Tables_number       1
  _symmetry_cell_setting            triclinic
  loop_
  _symmetry_equiv_pos_as_xyz
 x,y,z
_cell_length_a 20.7708
_cell_length_b 20.7102
_cell_length_c 21.3556
_cell_angle_alpha 90.010500
_cell_angle_beta 90.008300
_cell_angle_gamma 89.998200
loop_
  _atom_site_label
  _atom_site_type_symbol
  _atom_site_fract_x
  _atom_site_fract_y
  _atom_site_fract_z
C1 C 1.25038 0.24903 0.25021
 C2 C 0.74928 -0.24925 0.25011
 C3 C 0.74937 0.24903 -0.25004
 C4 C 1.25066 -0.24913 -0.24999
 C5 C 0.24903 0.25089 0.74991
 C6 C 0.75077 0.74949 0.75035
 C7 C 0.75100 0.25055 0.24994
 C8 C 0.24855 0.74829 0.25072
 O9 O 1.10961 0.03362 0.07955
 O10 O 0.88937 -0.03380 0.07812
 O11 O 0.96596 0.10969 0.07784
 O12 O 1.03597 -0.11135 0.07861
 O13 O 0.87758 0.07468 0.04172
 O14 O 1.12412 -0.07448 0.04366
 O15 O 0.92769 -0.12283 0.04487
 O16 O 1.07397 0.12231 0.04390
 C17 C 1.10315 0.09237 0.08563
 C18 C 0.89640 -0.09251 0.08502
 C19 C 0.90725 0.10394 0.08357
 C20 C 1.09466 -0.10518 0.08473
 O21 O 1.11205 -0.03353 -0.07661
 O22 O 0.89043 0.03292 -0.07827
 O23 O 1.03507 0.10890 -0.07775
 O24 O 0.96627 -0.11154 -0.07699
 O25 O 0.87797 -0.07552 -0.04139
 O26 O 1.12359 0.07479 -0.04118
 O27 O 1.07473 -0.12257 -0.04288
 O28 O 0.92724 0.12190 -0.04409
 Co29 Co 1.10567 0.00011 0.00134
 Co30 Co 0.89545 -0.00036 0.00004
 Co31 Co 1.00057 0.10428 0.00007
 Co32 Co 1.00112 -0.10566 0.00082
 O33 O 1.00069 -0.00047 0.00056
 C34 C 1.10529 -0.09223 -0.08346
 C35 C 0.89663 0.09174 -0.08479
 C36 C 1.09383 0.10364 -0.08328
 C37 C 0.90762 -0.10508 -0.08302
 O38 O 1.12221 0.57495 0.54343
 O39 O 0.87838 0.42724 0.54501
 O40 O 0.92565 0.62426 0.54080
 O41 O 1.07538 0.37772 0.54049
 O42 O 0.89101 0.53597 0.57760
 O43 O 1.11192 0.46606 0.57579
 O44 O 0.96716 0.39000 0.57907
 O45 O 1.03345 0.61134 0.57817
 C46 C 1.09207 0.60418 0.58512
 C47 C 0.90849 0.39715 0.58617
 C48 C 0.89654 0.59486 0.58272
 C49 C 1.10542 0.40725 0.58167
 O50 O 1.12207 0.42855 0.45384
 O51 O 0.87810 0.57392 0.45562
 O52 O 1.07478 0.62523 0.45834
 O53 O 0.92562 0.37695 0.45936
 O54 O 0.88959 0.46507 0.42305
 O55 O 1.10898 0.53718 0.42088
 O56 O 1.03344 0.38892 0.42162
 O57 O 0.96673 0.61080 0.42095
 Co58 Co 1.10495 0.50167 0.49853
 Co59 Co 0.89564 0.50065 0.50028
 Co60 Co 1.00014 0.60611 0.49954
 Co61 Co 1.00036 0.39516 0.50018
 O62 O 1.00029 0.50083 0.49964
 C63 C 1.09184 0.39706 0.41379
 C64 C 0.90811 0.60343 0.41406
 C65 C 1.10360 0.59616 0.41599
 C66 C 0.89586 0.40619 0.41773
 O67 O 0.62327 0.07523 0.53939
 O68 O 0.37584 -0.07708 0.53811
 O69 O 0.42709 0.12074 0.54577
 O70 O 0.57159 -0.12228 0.54604
 O71 O 0.38718 0.03155 0.57732
 O72 O 0.60968 -0.03298 0.57894
 O73 O 0.46350 -0.11052 0.57636
 O74 O 0.53563 0.10907 0.57731
 C75 C 0.59442 0.10392 0.58185
 C76 C 0.40477 -0.10519 0.58089
 C77 C 0.39529 0.09023 0.58549
 C78 C 0.60237 -0.09172 0.58652
 O79 O 0.62331 -0.07635 0.46076
 O80 O 0.37603 0.07413 0.45910
 O81 O 0.57183 0.12120 0.45377
 O82 O 0.42738 -0.12318 0.45291
 O83 O 0.38955 -0.03421 0.41925
 O84 O 0.61081 0.03205 0.42116
 O85 O 0.53579 -0.10998 0.42239
 O86 O 0.46374 0.11038 0.42311
 Co87 Co 0.60493 -0.00060 0.50001
 Co88 Co 0.39395 -0.00140 0.49848
 Co89 Co 0.49961 0.10406 0.50004
 Co90 Co 0.49961 -0.10523 0.49937
 O91 O 0.49948 -0.00075 0.49947
 C92 C 0.59454 -0.10462 0.41803
 C93 C 0.40519 0.10403 0.41768
 C94 C 0.60312 0.09081 0.41353
 C95 C 0.39696 -0.09305 0.41186
 O96 O 0.62257 0.57511 0.04171
 O97 O 0.37661 0.42671 0.04321
 O98 O 0.42616 0.62383 0.04467
 O99 O 0.57294 0.37763 0.04356
 O100 O 0.39013 0.53532 0.08023
 O101 O 0.61057 0.46625 0.07811
 O102 O 0.46469 0.38892 0.07769
 O103 O 0.53461 0.61018 0.07859
 C104 C 0.59334 0.60342 0.08426
 C105 C 0.40613 0.39634 0.08422
 C106 C 0.39721 0.59421 0.08672
 C107 C 0.60319 0.40741 0.08467
 O108 O 0.62268 0.42601 -0.04181
 O109 O 0.37632 0.57566 -0.04026
 O110 O 0.57239 0.62334 -0.04323
 O111 O 0.42613 0.37810 -0.04322
 O112 O 0.38762 0.46682 -0.07660
 O113 O 0.60915 0.53468 -0.07819
 O114 O 0.53472 0.39032 -0.07816
 O115 O 0.46429 0.61061 -0.07709
 Co116 Co 0.60458 0.50059 0.00000
 Co117 Co 0.39431 0.50114 0.00161
 Co118 Co 0.49940 0.60545 0.00077
 Co119 Co 0.49965 0.39530 -0.00006
 O120 O 0.49946 0.50056 0.00059
 C121 C 0.59346 0.39713 -0.08405
 C122 C 0.40560 0.60374 -0.08294
 C123 C 0.60214 0.59352 -0.08460
 C124 C 0.39552 0.40809 -0.08385
 C125 C 1.17462 0.10483 0.19229
 C126 C 1.23472 0.14399 0.17266
 C127 C 1.20889 0.20345 0.20853
 C128 C 1.14888 0.16430 0.22871
 C129 C 1.17306 0.22657 0.14924
 C130 C 1.19919 0.16752 0.11337
 C131 C 1.13971 0.12895 0.13353
 C132 C 1.11321 0.18748 0.16913
 H133 H 1.17488 0.05447 0.20991
 H134 H 1.28401 0.12357 0.17324
 H135 H 1.12641 0.16180 0.27569
 H136 H 1.17028 0.27573 0.12911
 H137 H 1.21988 0.16864 0.06544
 H138 H 1.06273 0.20499 0.16751
 C139 C 1.16949 0.69796 0.61386
 C140 C 1.14659 0.73513 0.67240
 C141 C 1.20485 0.70816 0.70924
 C142 C 1.22725 0.67058 0.65063
 C143 C 1.16390 0.64951 0.72994
 C144 C 1.10554 0.67641 0.69253
 C145 C 1.12886 0.63981 0.63427
 C146 C 1.18624 0.61208 0.67090
 H147 H 1.17180 0.71818 0.56575
 H148 H 1.12773 0.78514 0.67170
 H149 H 1.27631 0.66569 0.63099
 H150 H 1.16155 0.62821 0.77752
 H151 H 1.05527 0.67868 0.70987
 H152 H 1.20225 0.56098 0.67025
 C153 C 0.60713 0.17528 0.68794
 C154 C 0.66514 0.14813 0.72535
 C155 C 0.70568 0.20767 0.70625
 C156 C 0.64772 0.23480 0.66914
 C157 C 0.72940 0.17156 0.64730
 C158 C 0.68880 0.11222 0.66612
 C159 C 0.63165 0.14005 0.62955
 C160 C 0.67174 0.19890 0.61025
 H161 H 0.55655 0.17655 0.70452
 H162 H 0.66181 0.12504 0.77203
 H163 H 0.62858 0.28471 0.66886
 H164 H 0.77881 0.16780 0.62822
 H165 H 0.70530 0.06131 0.66461
 H166 H 0.67418 0.21979 0.56243
 C167 C 0.60744 0.67191 0.19258
 C168 C 0.66784 0.64621 0.22754
 C169 C 0.70561 0.70741 0.20804
 C170 C 0.64527 0.73305 0.17344
 C171 C 0.72827 0.67317 0.14770
 C172 C 0.69035 0.61213 0.16676
 C173 C 0.63083 0.63869 0.13267
 C174 C 0.66835 0.69917 0.11320
 H175 H 0.55742 0.67113 0.21085
 H176 H 0.66757 0.62269 0.27417
 H177 H 0.62386 0.78198 0.17428
 H178 H 0.77718 0.67155 0.12716
 H179 H 0.70851 0.56186 0.16374
 H180 H 0.66835 0.72115 0.06578
 C181 C 0.82145 -0.18919 0.11187
 C182 C 0.84847 -0.22616 0.16882
 C183 C 0.79012 -0.20353 0.20792
 C184 C 0.76340 -0.16619 0.15087
 C185 C 0.82797 -0.14278 0.22864
 C186 C 0.88642 -0.16548 0.18911
 C187 C 0.85901 -0.12904 0.13257
 C188 C 0.80138 -0.10554 0.17120
 H189 H 0.81866 -0.20836 0.06339
 H190 H 0.86994 -0.27507 0.16654
 H191 H 0.71366 -0.16422 0.13239
 H192 H 0.83098 -0.12197 0.27638
 H193 H 0.93743 -0.16469 0.20462
 H194 H 0.78211 -0.05560 0.17213
 C195 C 0.83097 0.30265 0.61393
 C196 C 0.85364 0.26518 0.67239
 C197 C 0.79519 0.29186 0.70916
 C198 C 0.77297 0.32967 0.65063
 C199 C 0.83599 0.35049 0.73028
 C200 C 0.89455 0.32388 0.69299
 C201 C 0.87146 0.36079 0.63481
 C202 C 0.81381 0.38817 0.67135
 H203 H 0.82891 0.28262 0.56574
 H204 H 0.87249 0.21517 0.67139
 H205 H 0.72391 0.33433 0.63089
 H206 H 0.83815 0.37163 0.77794
 H207 H 0.94474 0.32157 0.71056
 H208 H 0.79768 0.43923 0.67095
 C209 C 0.39268 -0.17567 0.68739
 C210 C 0.33496 -0.14829 0.72502
 C211 C 0.29425 -0.20784 0.70631
 C212 C 0.35194 -0.23520 0.66901
 C213 C 0.27021 -0.17190 0.64737
 C214 C 0.31100 -0.11256 0.66580
 C215 C 0.36782 -0.14069 0.62902
 C216 C 0.32757 -0.19954 0.61014
 H217 H 0.44337 -0.17692 0.70366
 H218 H 0.33859 -0.12508 0.77165
 H219 H 0.37108 -0.28512 0.66895
 H220 H 0.22077 -0.16788 0.62845
 H221 H 0.29462 -0.06162 0.66416
 H222 H 0.32480 -0.22055 0.56237
 C223 C 0.30942 0.32164 0.11157
 C224 C 0.33271 0.26468 0.15193
 C225 C 0.29419 0.29199 0.20802
 C226 C 0.27124 0.34928 0.16757
 C227 C 0.35391 0.33136 0.22875
 C228 C 0.39231 0.30393 0.17244
 C229 C 0.36876 0.36038 0.13226
 C230 C 0.33106 0.38869 0.18768
 H231 H 0.29109 0.31745 0.06289
 H232 H 0.33569 0.21469 0.13391
 H233 H 0.22202 0.36983 0.16511
 H234 H 0.37372 0.33675 0.27664
 H235 H 0.44242 0.28542 0.17443
 H236 H 0.33103 0.44009 0.20222
 C237 C 0.82164 0.18867 -0.11173
 C238 C 0.84863 0.22556 -0.16874
 C239 C 0.79016 0.20312 -0.20779
 C240 C 0.76343 0.16586 -0.15067
 C241 C 0.82779 0.14222 -0.22849
 C242 C 0.88636 0.16474 -0.18903
 C243 C 0.85902 0.12835 -0.13240
 C244 C 0.80122 0.10506 -0.17098
 H245 H 0.81893 0.20791 -0.06326
 H246 H 0.87022 0.27442 -0.16650
 H247 H 0.71369 0.16411 -0.13218
 H248 H 0.83074 0.12144 -0.27624
 H249 H 0.93720 0.16375 -0.20484
 H250 H 0.78176 0.05520 -0.17191
 C251 C 0.89433 0.67592 0.30706
 C252 C 0.83574 0.64924 0.26984
 C253 C 0.79501 0.70796 0.29083
 C254 C 0.85349 0.73471 0.32752
 C255 C 0.77272 0.67035 0.34942
 C256 C 0.81350 0.61177 0.32886
 C257 C 0.87112 0.63927 0.36529
 C258 C 0.83073 0.69747 0.38603
 H259 H 0.94466 0.67792 0.28972
 H260 H 0.83784 0.62797 0.22223
 H261 H 0.87245 0.78467 0.32848
 H262 H 0.72367 0.66577 0.36918
 H263 H 0.79737 0.56071 0.32946
 H264 H 0.82872 0.71760 0.43419
 C265 C 0.30711 0.17690 0.38983
 C266 C 0.32993 0.23548 0.35128
 C267 C 0.29448 0.20795 0.29350
 C268 C 0.27201 0.14908 0.33209
 C269 C 0.35617 0.17100 0.27412
 C270 C 0.39149 0.19852 0.33217
 C271 C 0.36820 0.14050 0.37031
 C272 C 0.33368 0.11217 0.31319
 H273 H 0.28701 0.17933 0.43796
 H274 H 0.33048 0.28539 0.36977
 H275 H 0.22373 0.12634 0.33280
 H276 H 0.37837 0.16707 0.22713
 H277 H 0.44111 0.21845 0.33234
 H278 H 0.33594 0.06106 0.29781
 C279 C 0.33112 0.69952 -0.11286
 C280 C 0.35453 0.73282 -0.17328
 C281 C 0.29412 0.70733 -0.20784
 C282 C 0.27114 0.67362 -0.14731
 C283 C 0.33152 0.64576 -0.22687
 C284 C 0.39198 0.67131 -0.19193
 C285 C 0.36830 0.63866 -0.13180
 C286 C 0.30872 0.61222 -0.16590
 H287 H 0.33109 0.72183 -0.06556
 H288 H 0.37632 0.78158 -0.17453
 H289 H 0.22222 0.67223 -0.12679
 H290 H 0.33179 0.62204 -0.27342
 H291 H 0.44187 0.67010 -0.21037
 H292 H 0.29022 0.56210 -0.16258
 C293 C 1.17942 -0.18911 -0.11142
 C294 C 1.15185 -0.22562 -0.16841
 C295 C 1.21013 -0.20319 -0.20770
 C296 C 1.23738 -0.16624 -0.15060
 C297 C 1.17257 -0.14210 -0.22794
 C298 C 1.11421 -0.16459 -0.18819
 C299 C 1.14214 -0.12861 -0.13158
 C300 C 1.19967 -0.10528 -0.17043
 H301 H 1.18241 -0.20856 -0.06305
 H302 H 1.13004 -0.27439 -0.16640
 H303 H 1.28719 -0.16443 -0.13232
 H304 H 1.16938 -0.12116 -0.27560
 H305 H 1.06323 -0.16332 -0.20357
 H306 H 1.21925 -0.05547 -0.17121
 C307 C 1.16456 0.38784 0.30839
 C308 C 1.22597 0.35135 0.32896
 C309 C 1.20459 0.29170 0.29089
 C310 C 1.14322 0.32811 0.26965
 C311 C 1.16782 0.26525 0.34843
 C312 C 1.18971 0.32448 0.38642
 C313 C 1.12874 0.36049 0.36547
 C314 C 1.10656 0.30167 0.32759
 H315 H 1.16257 0.43860 0.29194
 H316 H 1.27427 0.37407 0.33011
 H317 H 1.12298 0.33046 0.22168
 H318 H 1.16681 0.21581 0.36803
 H319 H 1.20907 0.32266 0.43487
 H320 H 1.05708 0.28142 0.32698
 C321 C 0.67170 -0.19925 0.38959
 C322 C 0.64765 -0.23497 0.33063
 C323 C 0.70570 -0.20784 0.29368
 C324 C 0.72943 -0.17189 0.35271
 C325 C 0.66528 -0.14821 0.27460
 C326 C 0.60719 -0.17537 0.31186
 C327 C 0.63174 -0.14035 0.37030
 C328 C 0.68894 -0.11246 0.33392
 H329 H 0.67402 -0.22020 0.43739
 H330 H 0.62838 -0.28483 0.33091
 H331 H 0.77880 -0.16819 0.37187
 H332 H 0.66204 -0.12501 0.22796
 H333 H 0.55654 -0.17638 0.29531
 H334 H 0.70544 -0.06156 0.33559
 C335 C 0.60771 0.32836 -0.19243
 C336 C 0.66822 0.35385 -0.22730
 C337 C 0.70576 0.29250 -0.20784
 C338 C 0.64531 0.26707 -0.17330
 C339 C 0.72845 0.32662 -0.14741
 C340 C 0.69074 0.38783 -0.16645
 C341 C 0.63105 0.36151 -0.13241
 C342 C 0.66838 0.30086 -0.11297
 H343 H 0.55789 0.32926 -0.21108
 H344 H 0.66802 0.37737 -0.27393
 H345 H 0.62377 0.21819 -0.17423
 H346 H 0.77736 0.32802 -0.12683
 H347 H 0.70913 0.43801 -0.16342
 H348 H 0.66828 0.27881 -0.06558
 C349 C 1.16868 0.20035 -0.11220
 C350 C 1.22723 0.17399 -0.14850
 C351 C 1.20362 0.20954 -0.20784
 C352 C 1.14464 0.23559 -0.17155
 C353 C 1.16443 0.14918 -0.22727
 C354 C 1.18813 0.11380 -0.16767
 C355 C 1.13010 0.14047 -0.13158
 C356 C 1.10547 0.17510 -0.19041
 H357 H 1.17032 0.22145 -0.06442
 H358 H 1.27643 0.17124 -0.12878
 H359 H 1.12419 0.28499 -0.17250
 H360 H 1.16150 0.12651 -0.27418
 H361 H 1.20579 0.06329 -0.16596
 H362 H 1.05510 0.17525 -0.20762
 C363 C 1.19875 0.67376 0.38764
 C364 C 1.23449 0.65074 0.32847
 C365 C 1.20798 0.70623 0.29292
 C366 C 1.17324 0.73086 0.34864
 C367 C 1.15124 0.66799 0.27261
 C368 C 1.17600 0.60891 0.30998
 C369 C 1.13990 0.63343 0.36813
 C370 C 1.11329 0.69105 0.33070
 H371 H 1.22025 0.67752 0.43511
 H372 H 1.28443 0.63220 0.32850
 H373 H 1.17024 0.78094 0.36631
 H374 H 1.12973 0.66551 0.22527
 H375 H 1.17843 0.55870 0.29205
 H376 H 1.06301 0.70922 0.33019
 C377 C 0.67599 0.18898 0.38624
 C378 C 0.73493 0.16717 0.34795
 C379 C 0.70849 0.20436 0.29063
 C380 C 0.64913 0.22571 0.32900
 C381 C 0.67195 0.14299 0.26925
 C382 C 0.69840 0.10588 0.32697
 C383 C 0.63984 0.12797 0.36516
 C384 C 0.61252 0.16429 0.30827
 H385 H 0.67802 0.20823 0.43474
 H386 H 0.78436 0.16607 0.36724
 H387 H 0.62656 0.27417 0.33049
 H388 H 0.66952 0.12292 0.22118
 H389 H 0.71882 0.05641 0.32596
 H390 H 0.56178 0.16264 0.29202
 C391 C 0.67722 0.69010 -0.11161
 C392 C 0.73416 0.66654 -0.15167
 C393 C 0.70754 0.70547 -0.20784
 C394 C 0.65024 0.72868 -0.16768
 C395 C 0.66809 0.64585 -0.22895
 C396 C 0.69482 0.60706 -0.17254
 C397 C 0.63835 0.63084 -0.13265
 C398 C 0.61074 0.66896 -0.18818
 H399 H 0.68121 0.70838 -0.06288
 H400 H 0.78387 0.66316 -0.13338
 H401 H 0.63004 0.77816 -0.16515
 H402 H 0.66312 0.62613 -0.27694
 H403 H 0.71317 0.55681 -0.17467
 H404 H 0.55962 0.66935 -0.20314
 C405 C 0.81277 -0.11398 -0.16687
 C406 C 0.83577 -0.14925 -0.22678
 C407 C 0.79623 -0.20935 -0.20736
 C408 C 0.77327 -0.17392 -0.14774
 C409 C 0.85524 -0.23605 -0.17153
 C410 C 0.89479 -0.17585 -0.19043
 C411 C 0.87088 -0.14134 -0.13130
 C412 C 0.83187 -0.20091 -0.11192
 H413 H 0.79560 -0.06331 -0.16478
 H414 H 0.83828 -0.12633 -0.27360
 H415 H 0.72416 -0.17092 -0.12785
 H416 H 0.87529 -0.28561 -0.17251
 H417 H 0.94504 -0.17638 -0.20794
 H418 H 0.83043 -0.22228 -0.06426
 C419 C 0.80139 0.39194 0.33231
 C420 C 0.82875 0.35677 0.27408
 C421 C 0.79215 0.29471 0.29338
 C422 C 0.76484 0.33001 0.35137
 C423 C 0.85109 0.27230 0.33175
 C424 C 0.88766 0.33436 0.31294
 C425 C 0.85951 0.36882 0.37025
 C426 C 0.82349 0.30730 0.38969
 H427 H 0.78101 0.44145 0.33263
 H428 H 0.83241 0.37921 0.22715
 H429 H 0.71515 0.33034 0.37003
 H430 H 0.87379 0.22388 0.33226
 H431 H 0.93861 0.33675 0.29742
 H432 H 0.82127 0.28696 0.43775
 C433 C 0.32469 -0.10802 0.30405
 C434 C 0.34998 -0.16847 0.26849
 C435 C 0.28996 -0.20753 0.28975
 C436 C 0.26478 -0.14688 0.32487
 C437 C 0.32676 -0.22885 0.34950
 C438 C 0.38632 -0.18992 0.32846
 C439 C 0.36023 -0.13043 0.36325
 C440 C 0.30098 -0.16892 0.38435
 H441 H 0.32392 -0.05817 0.28508
 H442 H 0.37243 -0.16731 0.22142
 H443 H 0.21579 -0.12577 0.32529
 H444 H 0.33110 -0.27690 0.37173
 H445 H 0.43679 -0.20749 0.32980
 H446 H 0.28038 -0.16921 0.43234
 C447 C 0.30373 0.39371 -0.17284
 C448 C 0.33131 0.35500 -0.22895
 C449 C 0.29218 0.29505 -0.20813
 C450 C 0.26477 0.33390 -0.15222
 C451 C 0.34932 0.27244 -0.16744
 C452 C 0.38847 0.33252 -0.18760
 C453 C 0.35998 0.37057 -0.13236
 C454 C 0.32152 0.31091 -0.11164
 H455 H 0.28487 0.44375 -0.17526
 H456 H 0.33683 0.37458 -0.27693
 H457 H 0.21496 0.33697 -0.13418
 H458 H 0.36995 0.22313 -0.16488
 H459 H 0.43973 0.33261 -0.20208
 H460 H 0.31719 0.29268 -0.06292
 C461 C 1.10806 -0.20097 0.17046
 C462 C 1.16932 -0.23831 0.15099
 C463 C 1.20540 -0.21202 0.20937
 C464 C 1.14377 -0.17461 0.22894
 C465 C 1.22787 -0.15260 0.17097
 C466 C 1.19233 -0.17939 0.11299
 C467 C 1.13153 -0.14258 0.13271
 C468 C 1.16647 -0.11539 0.19026
 H469 H 1.05837 -0.22071 0.17030
 H470 H 1.16759 -0.28758 0.13100
 H471 H 1.12122 -0.17115 0.27583
 H472 H 1.27605 -0.12977 0.16915
 H473 H 1.21252 -0.18155 0.06488
 H474 H 1.16487 -0.06454 0.20648
 C475 C 1.17711 0.30810 0.61013
 C476 C 1.23582 0.33038 0.64859
 C477 C 1.20807 0.29529 0.70652
 C478 C 1.14907 0.27336 0.66801
 C479 C 1.17194 0.35769 0.72570
 C480 C 1.19974 0.39263 0.66753
 C481 C 1.14156 0.36998 0.62943
 C482 C 1.11299 0.33575 0.68668
 H483 H 1.17934 0.28773 0.56207
 H484 H 1.28555 0.33031 0.63004
 H485 H 1.12597 0.22512 0.66763
 H486 H 1.16811 0.38012 0.77263
 H487 H 1.22055 0.44196 0.66726
 H488 H 1.06212 0.33872 0.70220
 C489 C 0.61231 -0.16446 0.69217
 C490 C 0.64884 -0.22596 0.67160
 C491 C 0.70834 -0.20436 0.70963
 C492 C 0.67189 -0.14289 0.73082
 C493 C 0.73454 -0.16749 0.65202
 C494 C 0.67545 -0.18957 0.61407
 C495 C 0.63931 -0.12850 0.63497
 C496 C 0.69804 -0.10611 0.67279
 H497 H 0.56177 -0.16267 0.70881
 H498 H 0.62630 -0.27444 0.67034
 H499 H 0.66973 -0.12257 0.77880
 H500 H 0.78393 -0.16644 0.63264
 H501 H 0.67728 -0.20911 0.56568
 H502 H 0.71840 -0.05661 0.67343
 C503 C 0.67786 0.31044 0.11176
 C504 C 0.73473 0.33366 0.15210
 C505 C 0.70779 0.29468 0.20807
 C506 C 0.65055 0.27179 0.16764
 C507 C 0.66844 0.35439 0.22917
 C508 C 0.69554 0.39325 0.17297
 C509 C 0.63915 0.36982 0.13278
 C510 C 0.61116 0.33162 0.18810
 H511 H 0.68199 0.29228 0.06299
 H512 H 0.78450 0.33686 0.13394
 H513 H 0.63017 0.22239 0.16494
 H514 H 0.66322 0.37401 0.27717
 H515 H 0.71411 0.44340 0.17534
 H516 H 0.55989 0.33144 0.20277
 C517 C 0.81257 0.11367 0.16751
 C518 C 0.83586 0.14906 0.22726
 C519 C 0.79649 0.20927 0.20772
 C520 C 0.77329 0.17372 0.14825
 C521 C 0.85556 0.23559 0.17171
 C522 C 0.89491 0.17526 0.19071
 C523 C 0.87069 0.14062 0.13173
 C524 C 0.83193 0.20033 0.11224
 H525 H 0.79515 0.06308 0.16564
 H526 H 0.83852 0.12627 0.27412
 H527 H 0.72415 0.17088 0.12839
 H528 H 0.87580 0.28507 0.17256
 H529 H 0.94530 0.17549 0.20800
 H530 H 0.83047 0.22152 0.06451
 C531 C 0.80138 0.60840 0.66751
 C532 C 0.82831 0.64321 0.72613
 C533 C 0.79187 0.70538 0.70694
 C534 C 0.76493 0.67043 0.64859
 C535 C 0.85105 0.72803 0.66908
 C536 C 0.88748 0.66589 0.68783
 C537 C 0.85977 0.63181 0.63012
 C538 C 0.82383 0.69341 0.61078
 H539 H 0.78107 0.55887 0.66674
 H540 H 0.83157 0.62051 0.77298
 H541 H 0.71532 0.67018 0.62970
 H542 H 0.87374 0.77645 0.66887
 H543 H 0.93820 0.66330 0.70382
 H544 H 0.82194 0.71404 0.56283
 C545 C 0.30023 0.10591 0.67243
 C546 C 0.32718 0.14262 0.73021
 C547 C 0.29129 0.20446 0.70910
 C548 C 0.26433 0.16766 0.65171
 C549 C 0.35076 0.22526 0.67067
 C550 C 0.38673 0.16336 0.69111
 C551 C 0.35891 0.12744 0.63417
 C552 C 0.32340 0.18895 0.61336
 H553 H 0.27926 0.05667 0.67336
 H554 H 0.32968 0.12246 0.77823
 H555 H 0.21489 0.16705 0.63245
 H556 H 0.37379 0.27352 0.66943
 H557 H 0.43737 0.16100 0.70744
 H558 H 0.32142 0.20834 0.56492
 C559 C 0.30044 0.66815 0.11552
 C560 C 0.26675 0.64490 0.17582
 C561 C 0.29072 0.70642 0.21033
 C562 C 0.32500 0.72907 0.14965
 C563 C 0.35273 0.66971 0.23001
 C564 C 0.32845 0.60834 0.19535
 C565 C 0.36137 0.63176 0.13531
 C566 C 0.38652 0.69226 0.16909
 H567 H 0.27864 0.66748 0.06804
 H568 H 0.21884 0.62154 0.17558
 H569 H 0.32666 0.77746 0.12773
 H570 H 0.37693 0.66970 0.27628
 H571 H 0.33006 0.55857 0.21443
 H572 H 0.43637 0.71137 0.16630
   
