data_POSCAR
  _audit_creation_date              2014-09-24
  _audit_creation_method            'ToBaCCo'
  _symmetry_space_group_name_H-M    'P1'
  _symmetry_Int_Tables_number       1
  _symmetry_cell_setting            triclinic
  loop_
  _symmetry_equiv_pos_as_xyz
 x,y,z
_cell_length_a 16.6138
_cell_length_b 16.4981
_cell_length_c 13.0663
_cell_angle_alpha 90.003800
_cell_angle_beta 90.191600
_cell_angle_gamma 90.131200
loop_
  _atom_site_label
  _atom_site_type_symbol
  _atom_site_fract_x
  _atom_site_fract_y
  _atom_site_fract_z
C1 C 0.12775 0.25109 0.02264
 C2 C 0.14336 0.17789 0.07353
 C3 C 0.19006 0.17951 0.16350
 C4 C 0.22329 0.25271 0.20196
 C5 C 0.19832 0.32583 0.15460
 C6 C 0.14828 0.32516 0.06794
 C7 C 0.27805 0.25227 0.29493
 C8 C 0.30226 0.32485 0.34442
 C9 C 0.35118 0.32330 0.43212
 C10 C 0.37045 0.24884 0.47683
 C11 C 0.35603 0.17633 0.42363
 C12 C 0.31149 0.17889 0.33202
 H13 H 0.08801 0.25132 -0.04337
 H14 H 0.19800 0.12313 0.20400
 H15 H 0.21403 0.38433 0.18530
 H16 H 0.28705 0.38365 0.31449
 H17 H 0.40927 0.24843 0.54376
 H18 H 0.30484 0.12305 0.28985
 C19 C 0.87612 0.24761 0.02885
 C20 C 0.85311 0.32149 0.07156
 C21 C 0.80126 0.32204 0.15599
 C22 C 0.77524 0.24883 0.20262
 C23 C 0.80750 0.17535 0.16395
 C24 C 0.85669 0.17449 0.07691
 C25 C 0.72042 0.24883 0.29512
 C26 C 0.68609 0.17580 0.33221
 C27 C 0.64134 0.17384 0.42345
 C28 C 0.62829 0.24651 0.47658
 C29 C 0.64910 0.32070 0.43224
 C30 C 0.69769 0.32165 0.34474
 H31 H 0.91860 0.24748 -0.03402
 H32 H 0.78463 0.38062 0.18521
 H33 H 0.79807 0.11834 0.20250
 H34 H 0.69219 0.11985 0.29025
 H35 H 0.58955 0.24664 0.54325
 H36 H 0.71408 0.38033 0.31540
 C37 C 0.62419 0.75070 0.52850
 C38 C 0.64853 0.67718 0.57125
 C39 C 0.70084 0.67742 0.65543
 C40 C 0.72522 0.75086 0.70307
 C41 C 0.69225 0.82395 0.66401
 C42 C 0.64288 0.82414 0.57646
 C43 C 0.77935 0.75096 0.79667
 C44 C 0.81429 0.82373 0.83425
 C45 C 0.86061 0.82488 0.92494
 C46 C 0.87371 0.75173 0.97718
 C47 C 0.85043 0.67802 0.93340
 C48 C 0.80073 0.67796 0.84683
 H49 H 0.58147 0.75019 0.46555
 H50 H 0.71905 0.61899 0.68351
 H51 H 0.70141 0.88102 0.70267
 H52 H 0.80770 0.87984 0.79269
 H53 H 0.91351 0.75066 1.04315
 H54 H 0.78242 0.61945 0.81881
 C55 C 0.37510 0.74888 0.52701
 C56 C 0.35018 0.82292 0.56777
 C57 C 0.29741 0.82355 0.65121
 C58 C 0.27341 0.75050 0.69980
 C59 C 0.30715 0.67719 0.66307
 C60 C 0.35669 0.67605 0.57634
 C61 C 0.21927 0.75060 0.79265
 C62 C 0.18353 0.67787 0.82853
 C63 C 0.13964 0.67570 0.92049
 C64 C 0.12853 0.74808 0.97495
 C65 C 0.15121 0.82234 0.93211
 C66 C 0.19938 0.82326 0.84442
 H67 H 0.41802 0.74864 0.46464
 H68 H 0.27833 0.88208 0.67811
 H69 H 0.29846 0.62069 0.70318
 H70 H 0.18831 0.62244 0.78507
 H71 H 0.09028 0.74830 1.04207
 H72 H 0.21815 0.88183 0.81700
 O73 O 0.91985 -0.05079 -0.11012
 O74 O 1.07037 0.10399 -0.04536
 O75 O 1.08160 -0.05543 -0.10420
 O76 O 0.92422 0.09421 -0.04567
 O77 O 0.92738 0.05274 0.11501
 O78 O 1.08410 -0.09785 0.05609
 O79 O 1.08742 0.05190 0.10846
 O80 O 0.93551 -0.10272 0.04398
 Cu81 Cu 1.00195 0.02425 -0.09321
 Cu82 Cu 1.00640 -0.02617 0.09775
 C83 C 0.90479 -0.10612 -0.04536
 C84 C 1.10104 0.10785 0.04372
 C85 C 1.10660 -0.10464 -0.03612
 C86 C 0.90231 0.10165 0.04684
 O87 O 0.42277 0.44373 0.39280
 O88 O 0.57894 0.59536 0.45078
 O89 O 0.57930 0.44226 0.39371
 O90 O 0.42625 0.59515 0.45583
 O91 O 0.42596 0.55408 0.61671
 O92 O 0.57921 0.40068 0.55434
 O93 O 0.58132 0.55428 0.61169
 O94 O 0.42480 0.40199 0.55333
 Cu95 Cu 0.50169 0.52259 0.40700
 Cu96 Cu 0.50302 0.47378 0.60013
 C97 C 0.39928 0.39508 0.46192
 C98 C 0.60357 0.60341 0.54225
 C99 C 0.60300 0.39330 0.46257
 C100 C 0.40293 0.60320 0.54776
 O101 O -0.08041 0.59590 0.05384
 O102 O 0.07988 0.44768 0.10729
 O103 O 0.07084 0.60047 0.04156
 O104 O -0.07693 0.44331 0.10997
 O105 O -0.07953 0.40289 -0.05115
 O106 O 0.07579 0.55404 -0.11650
 O107 O 0.07404 0.40342 -0.05202
 O108 O -0.08057 0.55680 -0.10791
 Cu109 Cu -0.00075 0.52520 0.09458
 Cu110 Cu -0.00314 0.47555 -0.09807
 C111 C -0.10426 0.60462 -0.03782
 C112 C 0.10118 0.39757 0.03864
 C113 C 0.09594 0.60656 -0.04999
 C114 C -0.10159 0.39466 0.04123
 O115 O 0.42216 1.09968 0.54516
 O116 O 0.57394 0.94699 0.61286
 O117 O 0.57220 1.09844 0.54373
 O118 O 0.41740 0.94653 0.60584
 O119 O 0.41999 0.90273 0.44613
 O120 O 0.57659 1.05314 0.38503
 O121 O 0.57301 0.90297 0.45330
 O122 O 0.41948 1.05499 0.38604
 Cu123 Cu 0.49638 1.02640 0.59337
 Cu124 Cu 0.49744 0.97458 0.40156
 C125 C 0.39839 1.10662 0.45313
 C126 C 0.59676 0.89664 0.54550
 C127 C 0.59747 1.10476 0.45233
 C128 C 0.39510 0.89632 0.53747
   
