data_POSCAR
  _audit_creation_date              2014-09-24
  _audit_creation_method            'ToBaCCo'
  _symmetry_space_group_name_H-M    'P1'
  _symmetry_Int_Tables_number       1
  _symmetry_cell_setting            triclinic
  loop_
  _symmetry_equiv_pos_as_xyz
 x,y,z
_cell_length_a 37.5406
_cell_length_b 37.5406
_cell_length_c 37.5406
_cell_angle_alpha 90.000000
_cell_angle_beta 90.000000
_cell_angle_gamma 90.000000
loop_
  _atom_site_label
  _atom_site_type_symbol
  _atom_site_fract_x
  _atom_site_fract_y
  _atom_site_fract_z
N1 N 0.15799 1.23955 0.13233
 N2 N 0.13013 1.23782 0.15382
 C3 C 0.10775 1.26608 0.14566
 C4 C 0.12228 1.28828 0.11836
 C5 C 0.15452 1.26939 0.11147
 H6 H 0.08301 1.27123 0.15950
 H7 H 0.17405 1.27671 0.09163
 Cu8 Cu 0.12876 1.19713 0.19195
 Cu9 Cu 0.19729 1.20056 0.13323
 Cu10 Cu 0.19195 1.13256 0.19722
 N11 N 0.12725 1.15986 0.23335
 N12 N 0.15128 1.13416 0.23495
 C13 C 0.14361 1.11296 0.26415
 C14 C 0.11316 1.12535 0.28315
 C15 C 0.10435 1.15551 0.26168
 H16 H 0.15953 1.09021 0.27181
 H17 H 0.08216 1.17317 0.26666
 N18 N 0.23217 1.13317 0.15797
 N19 N 0.23461 1.15868 0.13362
 C20 C 0.26395 1.15135 0.11236
 C21 C 0.28192 1.11960 0.12308
 C22 C 0.25976 1.10975 0.15239
 H23 H 0.27220 1.16807 0.09041
 H24 H 0.26370 1.08651 0.16886
 H25 H 0.16874 1.15894 0.15486
 H26 H 0.19409 1.18632 0.18657
 N27 N 0.84313 0.76224 0.13177
 N28 N 0.86947 0.76294 0.15516
 C29 C 0.89142 0.73406 0.14843
 C30 C 0.87869 0.71300 0.11949
 C31 C 0.84759 0.73276 0.11049
 H32 H 0.91484 0.72792 0.16404
 H33 H 0.82939 0.72584 0.08926
 Cu34 Cu 0.87062 0.80373 0.19302
 Cu35 Cu 0.80516 0.80258 0.13095
 Cu36 Cu 0.80733 0.86818 0.19769
 N37 N 0.87183 0.84106 0.23422
 N38 N 0.84776 0.86673 0.23569
 C39 C 0.85539 0.88803 0.26482
 C40 C 0.88585 0.87571 0.28387
 C41 C 0.89471 0.84552 0.26253
 H42 H 0.83947 0.91082 0.27238
 H43 H 0.91693 0.82792 0.26755
 N44 N 0.76742 0.86745 0.15811
 N45 N 0.76602 0.84276 0.13283
 C46 C 0.73679 0.85009 0.11140
 C47 C 0.71784 0.88098 0.12296
 C48 C 0.73930 0.89032 0.15294
 H49 H 0.72941 0.83408 0.08862
 H50 H 0.73456 0.91289 0.17011
 H51 H 0.83242 0.84366 0.15565
 H52 H 0.80568 0.81473 0.18462
 N53 N 0.84423 1.23489 -0.13106
 N54 N 0.86984 1.23318 -0.15526
 C55 C 0.89248 1.26169 -0.14965
 C56 C 0.88142 1.28316 -0.12035
 C57 C 0.85001 1.26460 -0.11030
 H58 H 0.91523 1.26742 -0.16637
 H59 H 0.83226 1.27282 -0.08916
 Cu60 Cu 0.86936 1.19219 -0.19312
 Cu61 Cu 0.80423 1.19662 -0.12902
 Cu62 Cu 0.80345 1.13119 -0.19529
 N63 N 0.86887 1.15376 -0.23385
 N64 N 0.84260 1.13035 -0.23405
 C65 C 0.84698 1.10823 -0.26284
 C66 C 0.87782 1.11671 -0.28317
 C67 C 0.89067 1.14628 -0.26278
 H68 H 0.82872 1.08680 -0.26884
 H69 H 0.91418 1.16161 -0.26928
 N70 N 0.76515 1.13186 -0.15475
 N71 N 0.76485 1.15645 -0.12940
 C72 C 0.73613 1.14935 -0.10720
 C73 C 0.71652 1.11867 -0.11837
 C74 C 0.73702 1.10925 -0.14891
 H75 H 0.72953 1.16541 -0.08421
 H76 H 0.73159 1.08686 -0.16610
 H77 H 0.83042 1.15538 -0.15358
 H78 H 0.80420 1.18515 -0.18241
 N79 N 0.15526 0.76512 -0.13150
 N80 N 0.12986 0.76665 -0.15595
 C81 C 0.10744 0.73791 -0.15060
 C82 C 0.11837 0.71653 -0.12119
 C83 C 0.14952 0.73536 -0.11079
 H84 H 0.08489 0.73204 -0.16753
 H85 H 0.16704 0.72738 -0.08936
 Cu86 Cu 0.13023 0.80789 -0.19369
 Cu87 Cu 0.19416 0.80449 -0.12889
 Cu88 Cu 0.19494 0.87029 -0.19448
 N89 N 0.13071 0.84649 -0.23433
 N90 N 0.15677 0.87015 -0.23424
 C91 C 0.15238 0.89239 -0.26293
 C92 C 0.12178 0.88371 -0.28353
 C93 C 0.10907 0.85390 -0.26340
 H94 H 0.17036 0.91414 -0.26859
 H95 H 0.08574 0.83840 -0.27014
 N96 N 0.23417 0.86846 -0.15477
 N97 N 0.23450 0.84372 -0.12954
 C98 C 0.26336 0.85061 -0.10744
 C99 C 0.28303 0.88128 -0.11858
 C100 C 0.26244 0.89090 -0.14899
 H101 H 0.26988 0.83456 -0.08443
 H102 H 0.26778 0.91343 -0.16602
 H103 H 0.16776 0.84559 -0.15355
 H104 H 0.19495 0.81658 -0.18218
 C105 C 0.49972 1.00004 0.00353
 C106 C 0.00052 0.49966 0.99937
 C107 C 0.99987 0.00064 0.50003
 C108 C 0.06518 0.37067 1.08321
 C109 C 0.09185 0.39031 1.06768
 C110 C 0.12698 0.37775 1.06746
 C111 C 0.13547 0.34432 1.08348
 C112 C 0.10992 0.32254 1.10164
 C113 C 0.07360 0.33704 1.10138
 O114 O 0.03308 0.38690 1.07830
 C115 C 0.03985 0.41738 1.05974
 C116 C 0.07558 0.42078 1.05318
 C117 C 0.08881 0.45091 1.03549
 C118 C 0.06497 0.47755 1.02236
 C119 C 0.02696 0.47447 1.02418
 C120 C 0.01493 0.44402 1.04584
 H121 H 0.14769 0.39318 1.05463
 H122 H 0.16305 0.33611 1.08241
 H123 H 0.05235 0.32217 1.11394
 H124 H 0.11723 0.45407 1.03183
 H125 H 0.07704 0.50053 1.01014
 H126 H -0.01333 0.43980 1.04956
 C127 C -0.06337 0.62911 1.08252
 C128 C -0.09045 0.60761 1.07051
 C129 C -0.12607 0.61855 1.07351
 C130 C -0.13451 0.65224 1.08911
 C131 C -0.10825 0.67607 1.10295
 C132 C -0.07152 0.66339 1.09939
 O133 O -0.03115 0.61394 1.07574
 C134 C -0.03811 0.58233 1.05936
 C135 C -0.07408 0.57724 1.05581
 C136 C -0.08726 0.54606 1.03991
 C137 C -0.06329 0.52014 1.02553
 C138 C -0.02538 0.52467 1.02487
 C139 C -0.01320 0.55605 1.04496
 H140 H -0.14720 0.60161 1.06363
 H141 H -0.16233 0.65961 1.09073
 H142 H -0.04990 0.67996 1.10878
 H143 H -0.11572 0.54170 1.03831
 H144 H -0.07516 0.49652 1.01429
 H145 H 0.01507 0.56136 1.04684
 C146 C -0.06300 0.36296 0.92626
 C147 C -0.08352 0.39191 0.91709
 C148 C -0.11448 0.38712 0.89652
 C149 C -0.12481 0.35213 0.88514
 C150 C -0.10464 0.32086 0.89309
 C151 C -0.07272 0.32720 0.91435
 O152 O -0.03499 0.37307 0.94671
 C153 C -0.03784 0.40892 0.95055
 C154 C -0.06689 0.42192 0.93271
 C155 C -0.07371 0.45886 0.93259
 C156 C -0.05110 0.48288 0.95211
 C157 C -0.02195 0.47124 0.97385
 C158 C -0.01486 0.43280 0.97056
 H159 H -0.13076 0.40987 0.88956
 H160 H -0.14898 0.34944 0.86964
 H161 H -0.05614 0.30487 0.92190
 H162 H -0.09609 0.46923 0.91768
 H163 H -0.05729 0.51102 0.95115
 H164 H 0.00831 0.42101 0.98274
 C165 C 0.06318 0.63657 0.92567
 C166 C 0.08322 0.60755 0.91567
 C167 C 0.11373 0.61235 0.89442
 C168 C 0.12411 0.64740 0.88324
 C169 C 0.10445 0.67875 0.89212
 C170 C 0.07298 0.67240 0.91404
 O171 O 0.03552 0.62644 0.94657
 C172 C 0.03813 0.59053 0.94992
 C173 C 0.06666 0.57749 0.93130
 C174 C 0.07306 0.54047 0.93056
 C175 C 0.05070 0.51645 0.95039
 C176 C 0.02234 0.52811 0.97317
 C177 C 0.01536 0.56661 0.97012
 H178 H 0.12963 0.58955 0.88678
 H179 H 0.14791 0.65007 0.86719
 H180 H 0.05679 0.69477 0.92226
 H181 H 0.09493 0.53005 0.91494
 H182 H 0.05655 0.48826 0.94888
 H183 H -0.00763 0.57847 0.98253
 C184 C 1.07758 0.06832 0.36860
 C185 C 1.05703 0.09372 0.38510
 C186 C 1.05385 0.12792 0.37032
 C187 C 1.07202 0.13666 0.33798
 C188 C 1.09432 0.11220 0.31911
 C189 C 1.09687 0.07692 0.33567
 O190 O 1.07619 0.03705 0.38691
 C191 C 1.05457 0.04295 0.41545
 C192 C 1.04233 0.07735 0.41555
 C193 C 1.01928 0.08914 0.44263
 C194 C 1.00787 0.06524 0.47013
 C195 C 1.01886 0.02875 0.47206
 C196 C 1.04321 0.01813 0.44327
 H197 H 1.03746 0.14773 0.38336
 H198 H 1.06873 0.16340 0.32780
 H199 H 1.11298 0.05659 0.32312
 H200 H 1.00959 0.11629 0.44237
 H201 H 0.98916 0.07554 0.48940
 H202 H 1.05221 -0.00921 0.44194
 C203 C 1.06550 -0.07904 0.63112
 C204 C 1.09154 -0.05934 0.61453
 C205 C 1.12589 -0.05750 0.62906
 C206 C 1.13412 -0.07607 0.66127
 C207 C 1.10894 -0.09741 0.68038
 C208 C 1.07351 -0.09865 0.66402
 O209 O 1.03425 -0.07652 0.61292
 C210 C 1.04083 -0.05504 0.58443
 C211 C 1.07560 -0.04393 0.58421
 C212 C 1.08803 -0.02110 0.55719
 C213 C 1.06441 -0.00877 0.52982
 C214 C 1.02764 -0.01870 0.52801
 C215 C 1.01636 -0.04284 0.55672
 H216 H 1.14623 -0.04186 0.61592
 H217 H 1.16107 -0.07382 0.67116
 H218 H 1.05266 -0.11396 0.67671
 H219 H 1.11548 -0.01230 0.55740
 H220 H 1.07512 0.00967 0.51051
 H221 H 0.98878 -0.05108 0.55803
 C222 C 0.92171 -0.06712 0.36902
 C223 C 0.94223 -0.09254 0.38553
 C224 C 0.94528 -0.12679 0.37088
 C225 C 0.92700 -0.13557 0.33864
 C226 C 0.90474 -0.11108 0.31975
 C227 C 0.90233 -0.07574 0.33618
 O228 O 0.92325 -0.03580 0.38722
 C229 C 0.94493 -0.04170 0.41571
 C230 C 0.95707 -0.07614 0.41587
 C231 C 0.98018 -0.08793 0.44289
 C232 C 0.99174 -0.06400 0.47028
 C233 C 0.98084 -0.02748 0.47215
 C234 C 0.95643 -0.01686 0.44342
 H235 H 0.96163 -0.14661 0.38395
 H236 H 0.93017 -0.16236 0.32854
 H237 H 0.88625 -0.05541 0.32359
 H238 H 0.98979 -0.11510 0.44266
 H239 H 1.01050 -0.07431 0.48950
 H240 H 0.94750 0.01051 0.44206
 C241 C 0.93419 0.07982 0.63139
 C242 C 0.90816 0.06023 0.61468
 C243 C 0.87379 0.05833 0.62915
 C244 C 0.86552 0.07676 0.66143
 C245 C 0.89069 0.09798 0.68068
 C246 C 0.92615 0.09927 0.66438
 O247 O 0.96546 0.07737 0.61321
 C248 C 0.95890 0.05604 0.58460
 C249 C 0.92412 0.04495 0.58431
 C250 C 0.91169 0.02225 0.55718
 C251 C 0.93533 0.01002 0.52979
 C252 C 0.97211 0.01992 0.52804
 C253 C 0.98338 0.04395 0.55685
 H254 H 0.85345 0.04277 0.61590
 H255 H 0.83855 0.07447 0.67125
 H256 H 0.94700 0.11450 0.67717
 H257 H 0.88424 0.01346 0.55734
 H258 H 0.92460 -0.00835 0.51042
 H259 H 1.01096 0.05217 0.55821
 C260 C 0.37017 1.08613 0.06799
 C261 C 0.37937 1.05762 0.08884
 C262 C 0.35934 1.04854 0.11893
 C263 C 0.32891 1.06904 0.12854
 C264 C 0.31682 1.09934 0.10887
 C265 C 0.33877 1.10774 0.07745
 O266 O 0.39337 1.08928 0.04005
 C267 C 0.41756 1.06228 0.04365
 C268 C 0.40965 1.04241 0.07327
 C269 C 0.42964 1.01235 0.08199
 C270 C 0.45857 1.00179 0.06005
 C271 C 0.47055 1.02108 0.02919
 C272 C 0.44795 1.05211 0.02079
 H273 H 0.36697 1.02586 0.13501
 H274 H 0.31474 1.06072 0.15213
 H275 H 0.33163 1.13017 0.06085
 H276 H 0.42235 0.99631 0.10481
 H277 H 0.47103 0.97677 0.06695
 H278 H 0.45306 1.06710 -0.00327
 C279 C 0.62903 1.08563 -0.06187
 C280 C 0.61926 1.05737 -0.08279
 C281 C 0.63865 1.04833 -0.11327
 C282 C 0.66903 1.06864 -0.12324
 C283 C 0.68174 1.09868 -0.10356
 C284 C 0.66046 1.10702 -0.07168
 O285 O 0.60629 1.08874 -0.03355
 C286 C 0.58184 1.06195 -0.03702
 C287 C 0.58916 1.04227 -0.06691
 C288 C 0.56892 1.01241 -0.07560
 C289 C 0.54027 1.00184 -0.05335
 C290 C 0.52881 1.02099 -0.02221
 C291 C 0.55171 1.05180 -0.01383
 H292 H 0.63054 1.02583 -0.12938
 H293 H 0.68266 1.06026 -0.14711
 H294 H 0.66810 1.12927 -0.05503
 H295 H 0.57581 0.99650 -0.09864
 H296 H 0.52765 0.97692 -0.06029
 H297 H 0.54700 1.06662 0.01042
 C298 C 0.37059 0.91428 -0.06209
 C299 C 0.38009 0.94281 -0.08276
 C300 C 0.36052 0.95204 -0.11306
 C301 C 0.33023 0.93164 -0.12312
 C302 C 0.31777 0.90132 -0.10369
 C303 C 0.33924 0.89279 -0.07198
 O304 O 0.39348 0.91102 -0.03391
 C305 C 0.41775 0.93800 -0.03721
 C306 C 0.41017 0.95794 -0.06685
 C307 C 0.43017 0.98803 -0.07533
 C308 C 0.45885 0.99854 -0.05310
 C309 C 0.47059 0.97913 -0.02223
 C310 C 0.44794 0.94809 -0.01407
 H311 H 0.36842 0.97475 -0.12897
 H312 H 0.31645 0.94019 -0.14684
 H313 H 0.33181 0.87033 -0.05553
 H314 H 0.42307 1.00413 -0.09817
 H315 H 0.47132 1.02361 -0.05983
 H316 H 0.45287 0.93303 0.00999
 C317 C 0.62969 0.91440 0.06766
 C318 C 0.61986 0.94231 0.08903
 C319 C 0.63945 0.95101 0.11953
 C320 C 0.67005 0.93072 0.12901
 C321 C 0.68279 0.90104 0.10881
 C322 C 0.66131 0.89305 0.07697
 O323 O 0.60683 0.91154 0.03941
 C324 C 0.58222 0.93812 0.04336
 C325 C 0.58954 0.95745 0.07347
 C326 C 0.56906 0.98705 0.08261
 C327 C 0.54023 0.99770 0.06057
 C328 C 0.52882 0.97891 0.02919
 C329 C 0.55193 0.94836 0.02040
 H330 H 0.63132 0.97322 0.13602
 H331 H 0.68385 0.93874 0.15292
 H332 H 0.66895 0.87110 0.05995
 H333 H 0.57590 1.00270 0.10583
 H334 H 0.52745 1.02245 0.06785
 H335 H 0.54728 0.93382 -0.00403
   
