data_POSCAR
  _audit_creation_date              2014-09-24
  _audit_creation_method            'ToBaCCo'
  _symmetry_space_group_name_H-M    'P1'
  _symmetry_Int_Tables_number       1
  _symmetry_cell_setting            triclinic
  loop_
  _symmetry_equiv_pos_as_xyz
 x,y,z
_cell_length_a 35.6669
_cell_length_b 37.3153
_cell_length_c 36.2199
_cell_angle_alpha 89.867000
_cell_angle_beta 89.854400
_cell_angle_gamma 89.333900
loop_
  _atom_site_label
  _atom_site_type_symbol
  _atom_site_fract_x
  _atom_site_fract_y
  _atom_site_fract_z
C1 C 0.18218 0.14006 0.18418
 C2 C 0.16462 0.12450 0.21490
 C3 C 0.12937 0.13714 0.22746
 C4 C 0.11211 0.16585 0.20836
 C5 C 0.13014 0.18250 0.17863
 C6 C 0.16546 0.16978 0.16658
 C7 C 0.21598 0.12589 0.17055
 C8 C 0.23404 0.14116 0.13960
 C9 C 0.21829 0.17265 0.12392
 C10 C 0.18394 0.18669 0.13685
 C11 C 0.16719 0.21687 0.12005
 C12 C 0.13189 0.22933 0.13198
 C13 C 0.11344 0.21195 0.16097
 H14 H 0.17779 0.10143 0.22794
 H15 H 0.08551 0.17679 0.21779
 H16 H 0.22849 0.10314 0.18472
 H17 H 0.23115 0.18498 0.10001
 H18 H 0.18115 0.23031 0.09737
 H19 H 0.08626 0.22186 0.17012
 C20 C -0.19144 0.85665 0.20076
 C21 C -0.17094 0.87154 0.22974
 C22 C -0.13940 0.85354 0.24462
 C23 C -0.12880 0.82007 0.22958
 C24 C -0.15000 0.80432 0.20151
 C25 C -0.18160 0.82254 0.18718
 C26 C -0.22135 0.87573 0.18488
 C27 C -0.24256 0.86098 0.15594
 C28 C -0.23365 0.82585 0.14397
 C29 C -0.20305 0.80685 0.15895
 C30 C -0.19274 0.77292 0.14531
 C31 C -0.16086 0.75495 0.15907
 C32 C -0.13986 0.77069 0.18737
 H33 H -0.17870 0.89804 0.23952
 H34 H -0.10514 0.80525 0.24084
 H35 H -0.22866 0.90184 0.19598
 H36 H -0.24884 0.81396 0.12130
 H37 H -0.20864 0.76107 0.12308
 H38 H -0.11542 0.75673 0.19823
 C39 C -0.18224 0.15350 -0.19012
 C40 C -0.16947 0.14362 -0.22531
 C41 C -0.14093 0.16293 -0.24295
 C42 C -0.12631 0.19349 -0.22581
 C43 C -0.13850 0.20350 -0.19034
 C44 C -0.16602 0.18291 -0.17214
 C45 C -0.21034 0.13384 -0.17234
 C46 C -0.22185 0.14224 -0.13599
 C47 C -0.20423 0.17095 -0.11785
 C48 C -0.17697 0.19147 -0.13579
 C49 C -0.16057 0.22054 -0.11785
 C50 C -0.13375 0.24150 -0.13594
 C51 C -0.12294 0.23307 -0.17226
 H52 H -0.18116 0.12038 -0.23879
 H53 H -0.10426 0.20840 -0.23935
 H54 H -0.22201 0.11098 -0.18646
 H55 H -0.21301 0.17881 -0.09035
 H56 H -0.16891 0.22721 -0.08986
 H57 H -0.10183 0.24903 -0.18598
 C58 C 0.20157 0.83844 -0.19840
 C59 C 0.18622 0.85179 -0.23139
 C60 C 0.15393 0.83635 -0.24705
 C61 C 0.13685 0.80768 -0.22819
 C62 C 0.15126 0.79485 -0.19469
 C63 C 0.18417 0.80970 -0.18006
 C64 C 0.23406 0.85341 -0.18340
 C65 C 0.24968 0.83955 -0.15070
 C66 C 0.23243 0.81070 -0.13272
 C67 C 0.19946 0.79600 -0.14689
 C68 C 0.18112 0.76825 -0.12817
 C69 C 0.14740 0.75463 -0.14189
 C70 C 0.13284 0.76772 -0.17527
 H71 H 0.20057 0.87327 -0.24555
 H72 H 0.11108 0.79633 -0.23847
 H73 H 0.24751 0.87563 -0.19727
 H74 H 0.24425 0.80033 -0.10723
 H75 H 0.19241 0.75791 -0.10244
 H76 H 0.10713 0.75664 -0.18608
 C77 C 0.13099 1.19332 0.81539
 C78 C 0.11534 1.17587 0.78496
 C79 C 0.13481 1.14782 0.76671
 C80 C 0.17060 1.13756 0.77992
 C81 C 0.18605 1.15402 0.81107
 C82 C 0.16638 1.18231 0.82855
 C83 C 0.11170 1.22166 0.83280
 C84 C 0.12770 1.23995 0.86290
 C85 C 0.16291 1.22807 0.87611
 C86 C 0.18186 1.19921 0.85962
 C87 C 0.21564 1.18638 0.87442
 C88 C 0.23447 1.15718 0.85824
 C89 C 0.22023 1.14177 0.82592
 H90 H 0.08846 1.18529 0.77473
 H91 H 0.18567 1.11528 0.76747
 H92 H 0.08502 1.23046 0.82155
 H93 H 0.17506 1.24018 0.90040
 H94 H 0.22702 1.19856 0.89906
 H95 H 0.23483 1.11918 0.81346
 C96 C 0.84269 0.79077 0.78611
 C97 C 0.85661 0.80963 0.75544
 C98 C 0.83637 0.83884 0.74011
 C99 C 0.80172 0.84863 0.75618
 C100 C 0.78843 0.83111 0.78774
 C101 C 0.80889 0.80207 0.80282
 C102 C 0.86245 0.76122 0.80070
 C103 C 0.84992 0.74364 0.83299
 C104 C 0.81656 0.75616 0.85005
 C105 C 0.79582 0.78480 0.83499
 C106 C 0.76254 0.79694 0.85200
 C107 C 0.74277 0.82652 0.83753
 C108 C 0.75559 0.84314 0.80520
 H109 H 0.88275 0.80080 0.74291
 H110 H 0.78609 0.87159 0.74578
 H111 H 0.88865 0.75315 0.78780
 H112 H 0.80568 0.74276 0.87432
 H113 H 0.75273 0.78430 0.87717
 H114 H 0.74022 0.86595 0.79406
 C115 C 0.14499 0.80799 1.18758
 C116 C 0.12620 0.82511 1.21694
 C117 C 0.13880 0.85819 1.23035
 C118 C 0.17089 0.87374 1.21489
 C119 C 0.19047 0.85660 1.18627
 C120 C 0.17729 0.82378 1.17229
 C121 C 0.13151 0.77584 1.17268
 C122 C 0.14900 0.75991 1.14160
 C123 C 0.18192 0.77560 1.12750
 C124 C 0.19632 0.80692 1.14285
 C125 C 0.22936 0.82185 1.12886
 C126 C 0.24286 0.85411 1.14310
 C127 C 0.22303 0.87173 1.17135
 H128 H 0.10131 0.81325 1.22881
 H129 H 0.18083 0.89904 1.22556
 H130 H 0.10594 0.76475 1.18387
 H131 H 0.19711 0.76299 1.10497
 H132 H 0.24438 0.80872 1.10650
 H133 H 0.23339 0.89684 1.18208
 C134 C 0.85566 1.19614 1.19957
 C135 C 0.87249 1.17684 1.22864
 C136 C 0.85751 1.14401 1.24105
 C137 C 0.82482 1.13122 1.22374
 C138 C 0.80695 1.15092 1.19569
 C139 C 0.82227 1.18358 1.18363
 C140 C 0.87217 1.22736 1.18553
 C141 C 0.85540 1.24648 1.15626
 C142 C 0.82104 1.23487 1.14194
 C143 C 0.80447 1.20341 1.15523
 C144 C 0.77099 1.19088 1.13985
 C145 C 0.75581 1.15824 1.15165
 C146 C 0.77399 1.13832 1.17939
 H147 H 0.89836 1.18668 1.24027
 H148 H 0.81196 1.10668 1.23319
 H149 H 0.89839 1.23660 1.19700
 H150 H 0.80805 1.24948 1.11935
 H151 H 0.75725 1.20592 1.11798
 H152 H 0.76222 1.11309 1.18839
 O153 O 0.55206 0.93597 0.92976
 O154 O 0.59437 0.96737 0.96431
 C155 C 0.58607 0.94394 0.93941
 O156 O 0.45670 1.07113 0.92256
 O157 O 0.41243 1.04309 0.95802
 C158 C 0.42224 1.06548 0.93251
 O159 O 0.56126 1.05821 0.92179
 O160 O 0.59877 1.02627 0.96167
 C161 C 0.59379 1.04754 0.93372
 O162 O 0.44610 0.94103 0.93109
 O163 O 0.40735 0.98169 0.96013
 C164 C 0.41316 0.95452 0.93854
 Zr165 Zr 0.49991 0.95800 0.94827
 O166 O 0.49738 0.95432 0.89000
 O167 O 0.49731 0.90174 0.95439
 Zr168 Zr 0.50722 1.04832 0.94344
 O169 O 0.50478 1.04771 0.88510
 O170 O 0.51626 1.10432 0.94259
 O171 O 0.53694 0.99998 0.93966
 O172 O 0.47141 1.00553 0.93816
 O173 O 0.44234 0.94736 1.05744
 O174 O 0.40552 0.98501 1.02250
 C175 C 0.40989 0.95999 1.04702
 O176 O 0.55885 1.06715 1.05714
 O177 O 0.59752 1.02906 1.02469
 C178 C 0.59184 1.05428 1.04865
 O179 O 0.45379 1.07929 1.05101
 O180 O 0.41098 1.04577 1.01927
 C181 C 0.41973 1.07130 1.04172
 O182 O 0.54731 0.94059 1.06307
 O183 O 0.59229 0.96919 1.02873
 C184 C 0.58190 0.94682 1.05416
 Zr185 Zr 0.49713 0.96285 1.04139
 O186 O 0.49201 0.96784 1.09942
 O187 O 0.49502 0.90638 1.04583
 Zr188 Zr 0.50504 1.05313 1.03664
 O189 O 0.49942 1.05518 1.09481
 O190 O 0.51370 1.10910 1.03460
 Zr191 Zr 0.55778 1.00077 0.99412
 Zr192 Zr 0.44691 1.01031 0.99085
 O193 O 0.46851 1.01112 1.04486
 O194 O 0.53425 1.00538 1.04732
 O195 O 0.46463 0.95641 0.99419
 O196 O 0.53910 1.05438 0.99049
 O197 O 0.53050 0.95114 0.99603
 O198 O 0.47337 1.06053 0.98874
 H199 H 0.45518 1.00577 0.91599
 H200 H 0.55776 1.07383 0.98958
 H201 H 0.45094 1.01359 1.06595
 H202 H 0.54566 0.92874 0.99721
 H203 H 0.49355 1.11618 0.95277
 H204 H 0.49609 1.11913 1.01613
 H205 H 0.51993 1.04043 1.10547
 H206 H 0.51560 0.97818 1.10868
 H207 H 0.48072 0.89776 1.02430
 H208 H 0.49730 0.89180 0.92905
 H209 H 0.51941 0.96694 0.87994
 H210 H 0.52074 1.02750 0.87664
 O211 O 0.06933 0.44985 -0.04887
 O212 O 0.02806 0.41262 -0.01944
 C213 C 0.05665 0.41834 -0.04066
 O214 O 0.05850 0.55089 0.08188
 O215 O 0.03102 0.59147 0.04231
 C216 C 0.05179 0.58337 0.07044
 O217 O 0.06028 0.44962 0.07601
 O218 O 0.02405 0.41237 0.04107
 C219 C 0.04989 0.41797 0.06542
 O220 O 0.07101 0.55024 -0.05245
 O221 O 0.03493 0.59141 -0.02110
 C222 C 0.06158 0.58289 -0.04398
 Zr223 Zr 0.04833 0.50120 -0.03410
 O224 O 0.10759 0.50193 -0.03162
 O225 O 0.05074 0.49721 -0.09239
 Zr226 Zr 0.04115 0.50125 0.05922
 O227 O 0.10013 0.50314 0.06494
 O228 O 0.03560 0.49619 0.11721
 O229 O 0.05064 0.46916 0.01303
 O230 O 0.05310 0.53176 0.01310
 O231 O -0.06020 0.55737 -0.06290
 O232 O -0.02823 0.59466 -0.02404
 C233 C -0.05092 0.58895 -0.05122
 O234 O -0.07802 0.45717 0.06850
 O235 O -0.04095 0.41618 0.03800
 C236 C -0.06826 0.42449 0.06019
 O237 O -0.06957 0.55807 0.07202
 O238 O -0.03034 0.59480 0.03927
 C239 C -0.05642 0.58943 0.06348
 O240 O -0.06700 0.45668 -0.06090
 O241 O -0.03641 0.41601 -0.02382
 C242 C -0.05928 0.42407 -0.05038
 Zr243 Zr -0.04614 0.50608 -0.04096
 O244 O -0.10509 0.51266 -0.04408
 O245 O -0.04232 0.50261 -0.09916
 Zr246 Zr -0.05329 0.50632 0.05234
 O247 O -0.11205 0.51353 0.04779
 O248 O -0.05796 0.50240 0.11048
 Zr249 Zr -0.00484 0.45059 0.00913
 Zr250 Zr 0.00008 0.55671 0.00900
 O251 O -0.05507 0.53757 0.00527
 O252 O -0.05847 0.47462 0.00517
 O253 O 0.00312 0.53561 -0.04482
 O254 O -0.00789 0.47263 0.06250
 O255 O 0.00030 0.47257 -0.04420
 O256 O -0.00511 0.53563 0.06285
 H257 H 0.07580 0.54671 0.01486
 H258 H -0.00988 0.45618 0.08391
 H259 H -0.07623 0.55497 0.00408
 H260 H 0.00150 0.45634 -0.06580
 H261 H 0.02142 0.51740 0.12613
 H262 H -0.04236 0.52145 0.12123
 H263 H -0.12149 0.49411 0.03191
 H264 H -0.11652 0.49188 -0.03155
 H265 H -0.02418 0.52082 -0.10742
 H266 H 0.04032 0.51975 -0.10276
 H267 H 0.11550 0.48350 -0.01349
 H268 H 0.11098 0.48447 0.04866
 O269 O 1.06161 -0.07305 0.44922
 O270 O 1.03125 -0.03430 0.40993
 C271 C 1.05218 -0.06224 0.41641
 O272 O 0.93466 -0.05697 0.55744
 O273 O 0.97586 -0.02905 0.59620
 C274 C 0.94791 -0.05009 0.59000
 O275 O 0.93233 -0.05807 0.45365
 O276 O 0.96928 -0.02837 0.41179
 C277 C 0.94249 -0.05005 0.42022
 O278 O 1.07084 -0.06854 0.55264
 O279 O 1.04034 -0.03168 0.59389
 C280 C 1.06408 -0.05695 0.58585
 Zr281 Zr 1.04912 -0.05005 0.50123
 O282 O 1.04530 -0.10642 0.50609
 O283 O 1.10792 -0.05465 0.49407
 Zr284 Zr 0.95454 -0.04091 0.50477
 O285 O 0.94952 -0.09730 0.50826
 O286 O 0.89547 -0.03472 0.50368
 O287 O 0.99991 -0.05235 0.47021
 O288 O 1.00255 -0.05220 0.53487
 O289 O 1.08195 0.05489 0.55215
 O290 O 1.04374 0.02626 0.59362
 C291 C 1.07134 0.04712 0.58557
 O292 O 0.94736 0.07262 0.45333
 O293 O 0.97428 0.03369 0.41171
 C294 C 0.95418 0.06175 0.41986
 O295 O 0.94528 0.06764 0.55781
 O296 O 0.97904 0.03057 0.59625
 C297 C 0.95478 0.05600 0.59041
 O298 O 1.07584 0.05767 0.44810
 O299 O 1.03587 0.02812 0.40930
 C300 C 1.06321 0.04981 0.41551
 Zr301 Zr 1.05758 0.04015 0.50090
 O302 O 1.06223 0.09655 0.50449
 O303 O 1.11643 0.03473 0.49494
 Zr304 Zr 0.96305 0.04935 0.50476
 O305 O 0.96724 0.10567 0.50944
 O306 O 0.90391 0.05420 0.50213
 Zr307 Zr 1.00395 -0.00021 0.44809
 Zr308 Zr 1.00806 -0.00064 0.55743
 O309 O 1.01205 0.05114 0.53478
 O310 O 1.00975 0.05180 0.46999
 O311 O 1.06182 -0.00570 0.53355
 O312 O 0.95078 0.00511 0.47295
 O313 O 1.05887 -0.00557 0.46869
 O314 O 0.95268 0.00467 0.53792
 H315 H 1.00183 -0.07328 0.55153
 H316 H 0.92843 0.00756 0.45691
 H317 H 1.01428 0.07192 0.55157
 H318 H 1.08001 -0.00787 0.45102
 H319 H 0.88810 -0.02018 0.52538
 H320 H 0.89354 0.04125 0.52364
 H321 H 0.98590 0.11352 0.49098
 H322 H 1.04923 0.10708 0.48287
 H323 H 1.12546 0.01888 0.51503
 H324 H 1.11987 -0.04220 0.51497
 H325 H 1.02537 -0.11416 0.48906
 H326 H 0.96177 -0.10771 0.48616
 C327 C 1.07247 0.11962 0.26121
 C328 C 1.11191 0.12168 0.25872
 C329 C 1.13355 0.10860 0.28856
 C330 C 1.11629 0.09456 0.32018
 C331 C 1.07684 0.09195 0.32167
 C332 C 1.05523 0.10446 0.29205
 C333 C 1.05966 0.07711 0.35291
 C334 C 1.08136 0.06609 0.38324
 C335 C 1.12043 0.06982 0.38210
 C336 C 1.13785 0.08356 0.35060
 H337 H 1.16379 0.11101 0.28823
 H338 H 1.02492 0.10268 0.29279
 H339 H 1.02939 0.07464 0.35393
 H340 H 1.16812 0.08566 0.35007
 H341 H 1.05470 0.12836 0.23866
 H342 H 1.13754 0.06128 0.40525
 C343 C 0.92009 -0.13627 0.27705
 C344 C 0.88091 -0.13124 0.27406
 C345 C 0.86226 -0.11078 0.30136
 C346 C 0.88202 -0.09601 0.33089
 C347 C 0.92138 -0.10026 0.33270
 C348 C 0.94013 -0.12042 0.30567
 C349 C 0.94121 -0.08460 0.36177
 C350 C 0.92185 -0.06622 0.38979
 C351 C 0.88270 -0.06306 0.38851
 C352 C 0.86291 -0.07742 0.35895
 H353 H 0.83201 -0.10770 0.30081
 H354 H 0.97031 -0.12406 0.30673
 H355 H 0.97150 -0.08731 0.36310
 H356 H 0.83269 -0.07419 0.35816
 H357 H 0.93573 -0.15107 0.25635
 H358 H 0.86757 -0.04884 0.41002
 C359 C 0.88073 0.17146 0.69142
 C360 C 0.87560 0.14913 0.72226
 C361 C 0.88695 0.11306 0.72028
 C362 C 0.90323 0.09928 0.68803
 C363 C 0.90777 0.12161 0.65675
 C364 C 0.89640 0.15773 0.65877
 C365 C 0.92397 0.10744 0.62433
 C366 C 0.93649 0.07155 0.62342
 C367 C 0.93201 0.04989 0.65491
 C368 C 0.91532 0.06352 0.68677
 H369 H 0.88370 0.09585 0.74422
 H370 H 0.89981 0.17536 0.63523
 H371 H 0.92759 0.12439 0.60027
 H372 H 0.91208 0.04611 0.71053
 H373 H 0.87219 0.19938 0.69249
 H374 H 0.94114 0.02210 0.65479
 C375 C 1.11957 -0.17317 0.69493
 C376 C 1.13840 -0.15029 0.71960
 C377 C 1.14037 -0.11352 0.71066
 C378 C 1.12285 -0.09985 0.67893
 C379 C 1.10436 -0.12323 0.65449
 C380 C 1.10324 -0.15987 0.66259
 C381 C 1.08642 -0.10938 0.62297
 C382 C 1.08542 -0.07231 0.61669
 C383 C 1.10346 -0.04923 0.64128
 C384 C 1.12252 -0.06291 0.67187
 H385 H 1.15335 -0.09491 0.72950
 H386 H 1.08926 -0.17822 0.64418
 H387 H 1.07196 -0.12712 0.60423
 H388 H 1.13630 -0.04453 0.69041
 H389 H 1.11836 -0.20175 0.69985
 H390 H 1.10281 -0.02052 0.63670
 C391 C 0.27039 1.08654 1.12564
 C392 C 0.26625 1.12424 1.12403
 C393 C 0.29454 1.14405 1.10596
 C394 C 0.32614 1.12666 1.09058
 C395 C 0.32900 1.08891 1.09203
 C396 C 0.30108 1.06917 1.10958
 C397 C 0.35980 1.07136 1.07593
 C398 C 0.38844 1.09093 1.05910
 C399 C 0.38634 1.12848 1.05868
 C400 C 0.35515 1.14627 1.07399
 H401 H 0.29300 1.17305 1.10510
 H402 H 0.30287 1.04017 1.11075
 H403 H 0.36190 1.04239 1.07699
 H404 H 0.35370 1.17526 1.07285
 H405 H 0.24896 1.06988 1.13776
 H406 H 0.40835 1.14391 1.04579
 C407 C 0.31520 0.83429 0.87330
 C408 C 0.28367 0.85571 0.86512
 C409 C 0.28442 0.89258 0.87263
 C410 C 0.31623 0.90793 0.88858
 C411 C 0.34813 0.88630 0.89620
 C412 C 0.34734 0.84951 0.88838
 C413 C 0.38006 0.90174 0.91190
 C414 C 0.38009 0.93832 0.92106
 C415 C 0.34804 0.95943 0.91385
 C416 C 0.31652 0.94446 0.89743
 H417 H 0.25992 0.90910 0.86677
 H418 H 0.37143 0.83248 0.89420
 H419 H 0.40453 0.88519 0.91775
 H420 H 0.29228 0.96139 0.89191
 H421 H 0.31503 0.80581 0.86762
 H422 H 0.34751 0.98772 0.92055
 C423 C 0.73128 0.91898 1.13556
 C424 C 0.72849 0.88135 1.13889
 C425 C 0.69635 0.86468 1.12452
 C426 C 0.66778 0.88500 1.10769
 C427 C 0.67167 0.92246 1.10377
 C428 C 0.70346 0.93916 1.11783
 C429 C 0.64359 0.94262 1.08601
 C430 C 0.61113 0.92594 1.07324
 C431 C 0.60684 0.88892 1.07826
 C432 C 0.63515 0.86849 1.09498
 H433 H 0.69256 0.83608 1.12779
 H434 H 0.70689 0.96786 1.11506
 H435 H 0.64657 0.97129 1.08275
 H436 H 0.63149 0.83985 1.09802
 H437 H 0.75585 0.93296 1.14504
 H438 H 0.58190 0.87568 1.06846
 C439 C 0.74879 1.11812 0.92037
 C440 C 0.74916 1.12287 0.88165
 C441 C 0.71915 1.10880 0.86105
 C442 C 0.68900 1.09199 0.87869
 C443 C 0.68927 1.08749 0.91742
 C444 C 0.71950 1.10024 0.93791
 C445 C 0.65874 1.07136 0.93512
 C446 C 0.62721 1.06120 0.91470
 C447 C 0.62703 1.06591 0.87626
 C448 C 0.65792 1.08071 0.85830
 H449 H 0.71772 1.11297 0.83147
 H450 H 0.72022 1.09693 0.96764
 H451 H 0.65874 1.06820 0.96490
 H452 H 0.65711 1.08411 0.82860
 H453 H 0.77173 1.12722 0.93731
 H454 H 0.60294 1.05813 0.86013
 C455 C 0.07962 0.25694 0.09612
 C456 C 0.11379 0.26078 0.11471
 C457 C 0.12876 0.29501 0.11967
 C458 C 0.10927 0.32542 0.10679
 C459 C 0.07492 0.32134 0.08790
 C460 C 0.06048 0.28697 0.08247
 C461 C 0.05544 0.35167 0.07498
 C462 C 0.06950 0.38623 0.08101
 C463 C 0.10338 0.39000 0.10032
 C464 C 0.12317 0.35986 0.11295
 H465 H 0.15485 0.29794 0.13463
 H466 H 0.03411 0.28338 0.06821
 H467 H 0.02933 0.34827 0.06020
 H468 H 0.14935 0.36350 0.12750
 H469 H 0.06765 0.23063 0.09251
 H470 H 0.11501 0.41626 0.10510
 C471 C -0.09982 0.26631 -0.08183
 C472 C -0.11683 0.27191 -0.11630
 C473 C -0.11903 0.30671 -0.13104
 C474 C -0.10496 0.33585 -0.11111
 C475 C -0.08770 0.32988 -0.07650
 C476 C -0.08509 0.29501 -0.06220
 C477 C -0.07342 0.35886 -0.05666
 C478 C -0.07636 0.39398 -0.07066
 C479 C -0.09411 0.39970 -0.10483
 C480 C -0.10814 0.37087 -0.12494
 H481 H -0.13253 0.31112 -0.15747
 H482 H -0.07197 0.28998 -0.03571
 H483 H -0.05996 0.35396 -0.03028
 H484 H -0.12141 0.37597 -0.15135
 H485 H -0.09790 0.23960 -0.07015
 H486 H -0.09658 0.42641 -0.11638
 C487 C 0.08936 0.73272 -0.11116
 C488 C 0.12694 0.72685 -0.12132
 C489 C 0.14448 0.69404 -0.11288
 C490 C 0.12434 0.66687 -0.09518
 C491 C 0.08653 0.67303 -0.08478
 C492 C 0.06939 0.70615 -0.09268
 C493 C 0.06633 0.64575 -0.06731
 C494 C 0.08309 0.61204 -0.06114
 C495 C 0.12055 0.60611 -0.07182
 C496 C 0.14113 0.63340 -0.08837
 H497 H 0.17339 0.68938 -0.12109
 H498 H 0.04043 0.71130 -0.08506
 H499 H 0.03732 0.65042 -0.05944
 H500 H 0.17000 0.62818 -0.09624
 H501 H 0.07554 0.75799 -0.11750
 H502 H 0.13406 0.58037 -0.06706
 C503 C -0.17264 0.69252 0.13610
 C504 C -0.14780 0.72080 0.14243
 C505 C -0.10997 0.71670 0.13248
 C506 C -0.09692 0.68488 0.11638
 C507 C -0.12186 0.65626 0.11042
 C508 C -0.15971 0.66037 0.12045
 C509 C -0.10853 0.62439 0.09405
 C510 C -0.07088 0.62146 0.08277
 C511 C -0.04652 0.65017 0.08890
 C512 C -0.05933 0.68147 0.10577
 H513 H -0.09078 0.73865 0.13667
 H514 H -0.17932 0.63886 0.11599
 H515 H -0.12750 0.60244 0.08912
 H516 H -0.03989 0.70315 0.11017
 H517 H -0.20193 0.69519 0.14368
 H518 H -0.01731 0.64835 0.08072
 C519 C 1.07915 0.12567 0.73453
 C520 C 1.11840 0.12995 0.73637
 C521 C 1.14066 0.11590 0.70730
 C522 C 1.12407 0.09872 0.67707
 C523 C 1.08485 0.09417 0.67638
 C524 C 1.06271 0.10764 0.70519
 C525 C 1.06824 0.07658 0.64665
 C526 C 1.09007 0.06455 0.61676
 C527 C 1.12892 0.06993 0.61696
 C528 C 1.14591 0.08648 0.64718
 H529 H 1.17071 0.11976 0.70709
 H530 H 1.03256 0.10431 0.70501
 H531 H 1.03808 0.07305 0.64629
 H532 H 1.17602 0.08999 0.64705
 H533 H 1.06093 0.13478 0.75661
 H534 H 1.14610 0.06085 0.59405
 C535 C 0.82679 -0.12593 0.68335
 C536 C 0.85090 -0.14117 0.71015
 C537 C 0.88970 -0.13468 0.70721
 C538 C 0.90382 -0.11271 0.67902
 C539 C 0.87932 -0.09848 0.65195
 C540 C 0.84092 -0.10540 0.65430
 C541 C 0.89367 -0.07754 0.62303
 C542 C 0.93199 -0.06954 0.62168
 C543 C 0.95589 -0.08257 0.64953
 C544 C 0.94202 -0.10433 0.67773
 H545 H 0.90883 -0.14490 0.72803
 H546 H 0.82171 -0.09469 0.63382
 H547 H 0.87509 -0.06736 0.60169
 H548 H 0.96119 -0.11470 0.69842
 H549 H 0.79695 -0.13090 0.68392
 H550 H 0.98563 -0.07699 0.64873
 C551 C 1.10722 -0.08729 0.25624
 C552 C 1.11868 -0.12318 0.26061
 C553 C 1.11263 -0.14051 0.29453
 C554 C 1.09644 -0.12176 0.32426
 C555 C 1.08510 -0.08557 0.31963
 C556 C 1.09022 -0.06873 0.28537
 C557 C 1.06973 -0.06656 0.34956
 C558 C 1.06651 -0.08290 0.38443
 C559 C 1.07780 -0.11889 0.38870
 C560 C 1.09232 -0.13824 0.35882
 H561 H 1.12182 -0.16810 0.29811
 H562 H 1.08177 -0.04102 0.28134
 H563 H 1.06137 -0.03874 0.34598
 H564 H 1.10089 -0.16591 0.36290
 H565 H 1.11161 -0.07359 0.23021
 H566 H 1.07533 -0.13214 0.41522
 C567 C 0.87358 0.08642 0.27082
 C568 C 0.87472 0.12426 0.27015
 C569 C 0.89281 0.14182 0.29962
 C570 C 0.90813 0.12222 0.32930
 C571 C 0.90720 0.08439 0.32896
 C572 C 0.89009 0.06681 0.29950
 C573 C 0.92290 0.06478 0.35836
 C574 C 0.93806 0.08254 0.38893
 C575 C 0.93804 0.12014 0.38956
 C576 C 0.92369 0.13984 0.35976
 H577 H 0.89317 0.17083 0.30073
 H578 H 0.88915 0.03780 0.29877
 H579 H 0.92249 0.03572 0.35794
 H580 H 0.92442 0.16884 0.36069
 H581 H 0.86120 0.07158 0.24839
 H582 H 0.94979 0.13425 0.41285
 C583 C 0.06963 0.27171 -0.11868
 C584 C 0.10916 0.26959 -0.12048
 C585 C 0.12996 0.29798 -0.10535
 C586 C 0.11195 0.32757 -0.08913
 C587 C 0.07244 0.32868 -0.08666
 C588 C 0.05156 0.30064 -0.10150
 C589 C 0.05451 0.35810 -0.06989
 C590 C 0.07561 0.38701 -0.05696
 C591 C 0.11478 0.38610 -0.06031
 C592 C 0.13288 0.35638 -0.07585
 H593 H 0.16025 0.29813 -0.10769
 H594 H 0.02120 0.30112 -0.09991
 H595 H 0.02417 0.35900 -0.06781
 H596 H 0.16321 0.35608 -0.07778
 H597 H 0.05243 0.25028 -0.12904
 H598 H 0.13140 0.40821 -0.05042
 C599 C -0.08727 0.27358 0.12845
 C600 C -0.12507 0.27719 0.13898
 C601 C -0.14426 0.30958 0.13162
 C602 C -0.12585 0.33803 0.11395
 C603 C -0.08804 0.33375 0.10283
 C604 C -0.06898 0.30149 0.11034
 C605 C -0.06980 0.36185 0.08460
 C606 C -0.08844 0.39468 0.07812
 C607 C -0.12580 0.39896 0.08986
 C608 C -0.14448 0.37075 0.10728
 H609 H -0.17335 0.31266 0.13989
 H610 H -0.03994 0.29782 0.10214
 H611 H -0.04079 0.35842 0.07618
 H612 H -0.17340 0.37461 0.11575
 H613 H -0.07210 0.24875 0.13350
 H614 H -0.14068 0.42402 0.08522
 C615 C -0.11011 0.68981 -0.17485
 C616 C -0.12960 0.71429 -0.15188
 C617 C -0.12823 0.70873 -0.11333
 C618 C -0.10813 0.67969 -0.09821
 C619 C -0.09024 0.65458 -0.12172
 C620 C -0.09127 0.66002 -0.15998
 C621 C -0.07158 0.62460 -0.10648
 C622 C -0.06928 0.62049 -0.06800
 C623 C -0.08578 0.64640 -0.04490
 C624 C -0.10548 0.67550 -0.05984
 H625 H -0.14140 0.72783 -0.09475
 H626 H -0.07752 0.64121 -0.17847
 H627 H -0.05849 0.60480 -0.12436
 H628 H -0.11867 0.69468 -0.04137
 H629 H -0.11089 0.69249 -0.20461
 H630 H -0.08432 0.64353 -0.01515
 C631 C 0.13650 0.72550 0.08537
 C632 C 0.13348 0.72959 0.12405
 C633 C 0.11443 0.70295 0.14434
 C634 C 0.09959 0.67284 0.12651
 C635 C 0.10214 0.66998 0.08769
 C636 C 0.12059 0.69640 0.06745
 C637 C 0.08630 0.64064 0.06968
 C638 C 0.06923 0.61329 0.09003
 C639 C 0.06788 0.61549 0.12867
 C640 C 0.08252 0.64531 0.14679
 H641 H 0.11259 0.70463 0.17415
 H642 H 0.12275 0.69458 0.03765
 H643 H 0.08767 0.63878 0.03981
 H644 H 0.08056 0.64683 0.17660
 H645 H 0.14966 0.74570 0.06839
 H646 H 0.05460 0.59460 0.14469
 C647 C 0.26401 1.13109 0.91440
 C648 C 0.26716 1.14101 0.87711
 C649 C 0.30108 1.13492 0.85824
 C650 C 0.33169 1.11902 0.87662
 C651 C 0.32786 1.10848 0.91396
 C652 C 0.29403 1.11478 0.93264
 C653 C 0.35780 1.09150 0.93202
 C654 C 0.39189 1.08526 0.91355
 C655 C 0.39600 1.09678 0.87683
 C656 C 0.36600 1.11333 0.85839
 H657 H 0.30363 1.14279 0.82952
 H658 H 0.29073 1.10696 0.96129
 H659 H 0.35455 1.08311 0.96054
 H660 H 0.36954 1.12141 0.82986
 H661 H 0.23794 1.13541 0.92924
 H662 H 0.42206 1.09213 0.86210
 C663 C 0.31137 0.84979 1.12955
 C664 C 0.27765 0.86949 1.12812
 C665 C 0.27702 0.90351 1.11159
 C666 C 0.30977 0.91758 1.09601
 C667 C 0.34382 0.89784 1.09800
 C668 C 0.34433 0.86401 1.11496
 C669 C 0.37662 0.91203 1.08255
 C670 C 0.37563 0.94525 1.06416
 C671 C 0.34140 0.96423 1.06172
 C672 C 0.30891 0.95077 1.07790
 H673 H 0.25086 0.91854 1.11012
 H674 H 0.37009 0.84841 1.11659
 H675 H 0.40269 0.89687 1.08418
 H676 H 0.28302 0.96612 1.07585
 H677 H 0.31217 0.82347 1.14223
 H678 H 0.33966 0.98964 1.04734
 C679 C 0.68805 1.16421 1.13432
 C680 C 0.72160 1.14415 1.13416
 C681 C 0.72253 1.11038 1.11723
 C682 C 0.69033 1.09672 1.10044
 C683 C 0.65634 1.11663 1.10141
 C684 C 0.65554 1.15040 1.11841
 C685 C 0.62393 1.10253 1.08507
 C686 C 0.62541 1.06924 1.06686
 C687 C 0.65974 1.05030 1.06534
 C688 C 0.69169 1.06364 1.08235
 H689 H 0.74854 1.09503 1.11669
 H690 H 0.62987 1.16619 1.11925
 H691 H 0.59786 1.11772 1.08596
 H692 H 0.71759 1.04821 1.08103
 H693 H 0.68693 1.19032 1.14730
 H694 H 0.66198 1.02495 1.05101
 C695 C 0.67868 0.82150 0.86581
 C696 C 0.71024 0.84212 0.85734
 C697 C 0.71068 0.87844 0.86715
 C698 C 0.67987 0.89428 0.88498
 C699 C 0.64763 0.87376 0.89260
 C700 C 0.64741 0.83730 0.88305
 C701 C 0.61643 0.89010 0.90981
 C702 C 0.61780 0.92628 0.92041
 C703 C 0.65026 0.94609 0.91319
 C704 C 0.68088 0.93036 0.89534
 H705 H 0.73524 0.89429 0.86104
 H706 H 0.62311 0.82105 0.88887
 H707 H 0.59156 0.87462 0.91565
 H708 H 0.70542 0.94638 0.88978
 H709 H 0.67798 0.79342 0.85838
 H710 H 0.65176 0.97407 0.92096
   
