data_POSCAR
  _audit_creation_date              2014-09-24
  _audit_creation_method            'ToBaCCo'
  _symmetry_space_group_name_H-M    'P1'
  _symmetry_Int_Tables_number       1
  _symmetry_cell_setting            triclinic
  loop_
  _symmetry_equiv_pos_as_xyz
 x,y,z
_cell_length_a 19.8635
_cell_length_b 19.9837
_cell_length_c 47.9735
_cell_angle_alpha 83.434200
_cell_angle_beta 92.770000
_cell_angle_gamma 119.887100
loop_
  _atom_site_label
  _atom_site_type_symbol
  _atom_site_fract_x
  _atom_site_fract_y
  _atom_site_fract_z
C1 C 0.02930 0.12612 0.53738
 H2 H 0.08423 0.12814 0.53513
 C3 C 0.02306 0.17267 0.55538
 H4 H 0.07315 0.21027 0.56719
 C5 C -0.10297 0.07443 0.52461
 H6 H -0.15147 0.03637 0.51236
 C7 C -0.11178 0.12039 0.54246
 H8 H -0.16737 0.11749 0.54410
 N9 N -0.03331 0.07757 0.52275
 C10 C 0.00482 -0.11082 0.50775
 H11 H 0.00432 -0.10635 0.48506
 C12 C 0.00154 -0.17623 0.52308
 H13 H -0.00086 -0.22183 0.51212
 C14 C 0.00112 -0.06045 0.54971
 H15 H -0.00247 -0.01714 0.56007
 C16 C -0.00075 -0.12408 0.56582
 H17 H -0.00399 -0.12828 0.58847
 Zn18 Zn -0.01326 0.02002 0.49919
 N19 N 0.00337 -0.05518 0.52120
 C20 C 0.14108 0.08909 0.47656
 N21 N 0.07484 0.09309 0.47750
 C22 C 0.06921 0.15332 0.46362
 C23 C 0.13149 0.21260 0.44777
 C24 C 0.20522 0.14764 0.46092
 C25 C -0.16206 -0.09880 0.48660
 C26 C -0.21416 -0.15517 0.46974
 C27 C -0.13338 -0.07829 0.42956
 C28 C -0.08317 -0.02366 0.44709
 N29 N -0.09649 -0.03626 0.47521
 H30 H 0.14431 0.04095 0.48803
 H31 H 0.01591 0.15509 0.46494
 H32 H 0.12588 0.25979 0.43657
 H33 H 0.25790 0.14435 0.46021
 H34 H -0.17071 -0.10817 0.50911
 H35 H -0.26237 -0.20700 0.47998
 H36 H -0.12111 -0.06593 0.40722
 H37 H -0.03103 0.02629 0.43827
 C38 C -0.00149 -0.18332 0.55249
 C39 C -0.04825 0.16940 0.55829
 C40 C -0.19724 -0.14852 0.44090
 C41 C 0.20080 0.21067 0.44662
 C42 C 1.18610 0.10757 0.12947
 H43 H 1.19179 0.16333 0.13185
 C44 C 1.23746 0.10318 0.11204
 H45 H 1.28299 0.15572 0.10100
 C46 C 1.11914 -0.02906 0.14084
 H47 H 1.07263 -0.08014 0.15210
 C48 C 1.16920 -0.03616 0.12333
 H49 H 1.16109 -0.09297 0.12099
 N50 N 1.12785 0.04207 0.14312
 C51 C 0.94275 0.09542 0.15045
 H52 H 0.94068 0.09830 0.17276
 C53 C 0.88575 0.09865 0.13295
 H54 H 0.84073 0.10568 0.14175
 C55 C 1.00018 0.07666 0.11207
 H56 H 1.04260 0.06471 0.10412
 C57 C 0.94407 0.07871 0.09399
 H58 H 0.94443 0.06893 0.07226
 Zn59 Zn 1.06154 0.05895 0.16453
 N60 N 0.99808 0.08394 0.13982
 C61 C 1.12353 0.20628 0.18654
 N62 N 1.12702 0.14002 0.18640
 C63 C 1.18174 0.12955 0.20124
 C64 C 1.23523 0.18639 0.21738
 C65 C 1.17625 0.26496 0.20249
 C66 C 0.92869 -0.08597 0.17609
 C67 C 0.86650 -0.14307 0.19284
 C68 C 0.94006 -0.08832 0.23391
 C69 C 1.00008 -0.03147 0.21644
 N70 N 0.99276 -0.03024 0.18807
 H71 H 1.08039 0.21391 0.17422
 H72 H 1.18372 0.07667 0.20045
 H73 H 1.27798 0.17691 0.22932
 H74 H 1.17323 0.31756 0.20260
 H75 H 0.92381 -0.08304 0.15348
 H76 H 0.81416 -0.18472 0.18308
 H77 H 0.94576 -0.08746 0.25646
 H78 H 1.05059 0.01369 0.22567
 C79 C 0.88573 0.08948 0.10437
 C80 C 1.22807 0.03057 0.10832
 C81 C 0.87086 -0.14251 0.22207
 C82 C 1.23331 0.25532 0.21787
 C83 C 0.02801 0.86022 0.87311
 H84 H -0.02289 0.80483 0.87036
 C85 C 0.08689 0.86357 0.89090
 H86 H 0.08158 0.81060 0.90182
 C87 C 0.09721 0.99688 0.86197
 H88 H 0.10094 1.04841 0.85049
 C89 C 0.15740 1.00294 0.87981
 H90 H 0.20734 1.05938 0.88220
 N91 N 0.03362 0.92628 0.85940
 C92 C -0.20222 0.88219 0.84798
 H93 H -0.20963 0.88015 0.82554
 C94 C -0.25551 0.88853 0.86391
 H95 H -0.30620 0.88672 0.85375
 C96 C -0.12594 0.88920 0.88820
 H97 H -0.07348 0.89349 0.89745
 C98 C -0.17750 0.89579 0.90485
 H99 H -0.16358 0.90413 0.92674
 Zn100 Zn -0.05218 0.91164 0.83684
 N101 N -0.13749 0.88560 0.86013
 C102 C -0.13783 0.76852 0.81129
 N103 N -0.06905 0.83490 0.81358
 C104 C -0.00475 0.85073 0.79907
 C105 C -0.00819 0.79989 0.78080
 C106 C -0.14385 0.71568 0.79312
 C107 C -0.02665 1.06380 0.82714
 C108 C -0.02828 1.12633 0.81141
 C109 C -0.04568 1.06276 0.76956
 C110 C -0.04361 1.00166 0.78602
 N111 N -0.03490 1.00285 0.81430
 H112 H -0.18781 0.75687 0.82335
 H113 H 0.04925 0.90370 0.80156
 H114 H 0.04323 0.81379 0.76908
 H115 H -0.19872 0.66313 0.79109
 H116 H -0.02202 1.06229 0.84974
 H117 H -0.02273 1.17415 0.82180
 H118 H -0.05430 1.06040 0.74715
 H119 H -0.05256 0.95184 0.77624
 C120 C -0.24094 0.90058 0.89247
 C121 C 0.15163 0.93572 0.89485
 C122 C -0.03979 1.12501 0.78236
 C123 C -0.07846 0.73204 0.77745
 O124 O 0.48319 0.06782 0.01662
 O125 O 0.59040 0.03181 -0.03502
 O126 O 0.46072 0.03320 -0.03412
 O127 O 0.62174 0.08139 0.01474
 O128 O 0.57077 -0.04160 0.03142
 O129 O 0.40340 -0.08920 -0.01576
 O130 O 0.53316 -0.09143 -0.01802
 O131 O 0.43283 -0.05397 0.03511
 Cu132 Cu 0.54515 0.06594 -0.01100
 Cu133 Cu 0.48009 -0.08123 0.01007
 C134 C 0.43723 0.01178 0.03392
 C135 C 0.57847 -0.03672 -0.03572
 C136 C 0.40337 -0.03521 -0.03264
 C137 C 0.62567 0.02845 0.03071
 O138 O -0.10776 0.49730 0.63664
 O139 O -0.11497 0.35728 0.69596
 O140 O -0.13154 0.48349 0.68977
 O141 O -0.12319 0.36099 0.64081
 O142 O 0.00486 0.42097 0.64375
 O143 O -0.00373 0.54547 0.69330
 O144 O 0.01275 0.42275 0.69792
 O145 O 0.01995 0.55954 0.63947
 Cu146 Cu -0.13082 0.41814 0.66625
 Cu147 Cu 0.02098 0.49351 0.66883
 C148 C -0.04149 0.55237 0.62782
 C149 C -0.05161 0.36587 0.70675
 C150 C -0.06976 0.53617 0.69953
 C151 C -0.05854 0.36862 0.63427
 O152 O 0.49445 0.45270 0.30675
 O153 O 0.61669 0.57418 0.36125
 O154 O 0.48972 0.43829 0.36168
 O155 O 0.62785 0.57901 0.30789
 O156 O 0.56285 0.64256 0.30391
 O157 O 0.42525 0.50237 0.35871
 O158 O 0.55111 0.63730 0.35754
 O159 O 0.42821 0.51501 0.30379
 Cu160 Cu 0.56301 0.50404 0.33489
 Cu161 Cu 0.48480 0.58008 0.33056
 C162 C 0.44099 0.46408 0.29573
 C163 C 0.60636 0.62832 0.36788
 C164 C 0.43470 0.44664 0.36967
 C165 C 0.62054 0.63613 0.29733
 C166 C -0.01068 0.34642 0.59164
 C167 C -0.00969 0.29826 0.57303
 C168 C -0.05522 0.21733 0.57809
 C169 C -0.10156 0.18418 0.60278
 C170 C -0.10264 0.23320 0.62175
 C171 C -0.05746 0.31504 0.61580
 C172 C -0.14679 0.19827 0.64666
 N173 N -0.18762 0.11988 0.65183
 N174 N -0.18681 0.07398 0.63397
 C175 C -0.14497 0.10333 0.60974
 H176 H 0.02457 0.40876 0.58695
 H177 H 0.02699 0.32434 0.55446
 H178 H -0.14830 0.23218 0.66236
 H179 H -0.14541 0.06308 0.59640
 C180 C 0.71112 0.67079 0.25781
 C181 C 0.77104 0.72378 0.23953
 C182 C 0.80261 0.80370 0.24026
 C183 C 0.77105 0.83066 0.25926
 C184 C 0.71206 0.77682 0.27866
 C185 C 0.68103 0.69590 0.27755
 C186 C 0.68827 0.80651 0.29904
 N187 N 0.71727 0.88407 0.29849
 N188 N 0.76890 0.93414 0.27916
 C189 C 0.79657 0.91017 0.25951
 H190 H 0.68861 0.60937 0.25674
 H191 H 0.79420 0.70219 0.22510
 H192 H 0.64791 0.76959 0.31568
 H193 H 0.83786 0.95358 0.24421
 C194 C 0.34855 -0.02412 -0.07891
 C195 C 0.28838 -0.02918 -0.09629
 C196 C 0.21334 -0.05951 -0.08551
 C197 C 0.19878 -0.08489 -0.05645
 C198 C 0.25982 -0.08101 -0.03879
 C199 C 0.33537 -0.05018 -0.05027
 C200 C 0.24360 -0.10496 -0.00995
 N201 N 0.17144 -0.13060 0.00030
 N202 N 0.11447 -0.13354 -0.01623
 C203 C 0.12567 -0.11129 -0.04416
 H204 H 0.40620 0.00082 -0.08787
 H205 H 0.30048 -0.00921 -0.11840
 H206 H 0.28746 -0.10250 0.00472
 H207 H 0.07761 -0.11327 -0.05632
 C208 C -0.08842 0.63822 0.60462
 C209 C -0.07692 0.70376 0.58717
 C210 C -0.01162 0.74520 0.56942
 C211 C 0.04151 0.71760 0.56842
 C212 C 0.02841 0.64927 0.58557
 C213 C -0.03510 0.61167 0.60487
 C214 C 0.07947 0.62070 0.58264
 N215 N 0.14176 0.66065 0.56512
 N216 N 0.15638 0.72699 0.55024
 C217 C 0.10870 0.75699 0.55137
 H218 H -0.13764 0.61015 0.61893
 H219 H -0.11870 0.72337 0.58795
 H220 H 0.06989 0.56636 0.59365
 H221 H 0.12417 0.81143 0.53902
 C222 C 0.31097 0.38354 0.27647
 C223 C 0.26073 0.33378 0.25755
 C224 C 0.28956 0.31556 0.23526
 C225 C 0.37102 0.35151 0.23115
 C226 C 0.42229 0.40212 0.25047
 C227 C 0.39157 0.41630 0.27376
 C228 C 0.50272 0.43854 0.24525
 N229 N 0.52942 0.42411 0.22248
 N230 N 0.48131 0.37636 0.20445
 C231 C 0.40317 0.33987 0.20792
 H232 H 0.28653 0.39451 0.29395
 H233 H 0.19867 0.30712 0.26089
 H234 H 0.54471 0.47947 0.25865
 H235 H 0.36703 0.30322 0.19222
 C236 C 0.64692 -0.10471 -0.04683
 C237 C 0.69181 -0.11895 -0.06395
 C238 C 0.71266 -0.08208 -0.09143
 C239 C 0.68727 -0.02805 -0.10139
 C240 C 0.63833 -0.01636 -0.08416
 C241 C 0.62043 -0.05310 -0.05629
 C242 C 0.60909 0.03213 -0.09552
 N243 N 0.63330 0.07211 -0.12118
 N244 N 0.68477 0.06700 -0.13622
 C245 C 0.71323 0.01930 -0.12713
 H246 H 0.63384 -0.13366 -0.02567
 H247 H 0.70905 -0.16084 -0.05560
 H248 H 0.56679 0.03840 -0.08447
 H249 H 0.75729 0.02082 -0.13990
 C250 C 0.38039 -0.00525 0.08065
 C251 C 0.32851 -0.00281 0.09849
 C252 C 0.27905 0.02520 0.08822
 C253 C 0.28075 0.04974 0.05920
 C254 C 0.33441 0.04848 0.04107
 C255 C 0.38514 0.02122 0.05208
 C256 C 0.33289 0.07161 0.01227
 N257 N 0.28131 0.09418 0.00254
 N258 N 0.23075 0.09486 0.01955
 C259 C 0.22845 0.07318 0.04745
 H260 H 0.41753 -0.02771 0.08926
 H261 H 0.32745 -0.02223 0.12058
 H262 H 0.37085 0.07077 -0.00282
 H263 H 0.18480 0.07322 0.06004
 C264 C 0.62984 0.69548 0.41043
 C265 C 0.67790 0.74840 0.42890
 C266 C 0.75910 0.79275 0.42455
 C267 C 0.79156 0.77546 0.40216
 C268 C 0.74195 0.72375 0.38279
 C269 C 0.66055 0.68321 0.38720
 C270 C 0.77591 0.71428 0.35951
 N271 N 0.85405 0.74717 0.35755
 N272 N 0.90043 0.78865 0.37730
 C273 C 0.87199 0.80274 0.39967
 H274 H 0.56765 0.66464 0.41409
 H275 H 0.64974 0.75843 0.44542
 H276 H 0.74147 0.68077 0.34290
 H277 H 0.91259 0.83356 0.41559
 C278 C 0.00881 0.28939 0.72614
 C279 C 0.01173 0.23134 0.74412
 C280 C -0.04480 0.18853 0.76500
 C281 C -0.10537 0.20543 0.76802
 C282 C -0.10775 0.26575 0.74989
 C283 C -0.05087 0.30684 0.72830
 C284 C -0.16642 0.28335 0.75443
 N285 N -0.22078 0.24096 0.77480
 N286 N -0.22034 0.18247 0.79100
 C287 C -0.16472 0.16313 0.78829
 H288 H 0.05287 0.31972 0.70983
 H289 H 0.05824 0.21904 0.74149
 H290 H -0.16921 0.33095 0.74240
 H291 H -0.16768 0.11484 0.80197
 C292 C 0.68308 0.00926 0.07578
 C293 C 0.74511 0.02580 0.09392
 C294 C 0.82096 0.08287 0.08582
 C295 C 0.83392 0.12559 0.05901
 C296 C 0.77138 0.10654 0.03999
 C297 C 0.69469 0.04857 0.04876
 C298 C 0.78890 0.14483 0.01253
 N299 N 0.86221 0.20202 0.00561
 N300 N 0.91957 0.22315 0.02408
 C301 C 0.90795 0.18704 0.05051
 H302 H 0.62533 -0.03512 0.08291
 H303 H 0.73401 -0.00795 0.11421
 H304 H 0.74609 0.12935 -0.00380
 H305 H 0.95664 0.20698 0.06465
 C306 C 0.34876 0.31044 0.38823
 C307 C 0.29294 0.25332 0.40693
 C308 C 0.26693 0.27329 0.42953
 C309 C 0.30103 0.35256 0.43417
 C310 C 0.35760 0.41085 0.41500
 C311 C 0.37991 0.38930 0.39143
 C312 C 0.39149 0.48872 0.42062
 N313 N 0.36942 0.50654 0.44371
 N314 N 0.31633 0.45187 0.46166
 C315 C 0.28167 0.37562 0.45777
 H316 H 0.36586 0.29294 0.37051
 H317 H 0.26781 0.19306 0.40316
 H318 H 0.43628 0.53556 0.40726
 H319 H 0.24038 0.33378 0.47343
 C320 C -0.03266 0.59863 0.74350
 C321 C -0.03639 0.64413 0.76262
 C322 C -0.08212 0.67944 0.75734
 C323 C -0.12424 0.66948 0.73201
 C324 C -0.12042 0.62318 0.71245
 C325 C -0.07468 0.58685 0.71852
 C326 C -0.16009 0.61767 0.68693
 N327 N -0.20154 0.65482 0.68174
 N328 N -0.20549 0.69775 0.70018
 C329 C -0.16802 0.70670 0.72502
 H330 H 0.00281 0.57170 0.74840
 H331 H -0.00288 0.65230 0.78169
 H332 H -0.15761 0.58559 0.67077
 H333 H -0.17222 0.74350 0.73886
   
