data_POSCAR
  _audit_creation_date              2014-09-24
  _audit_creation_method            'ToBaCCo'
  _symmetry_space_group_name_H-M    'P1'
  _symmetry_Int_Tables_number       1
  _symmetry_cell_setting            triclinic
  loop_
  _symmetry_equiv_pos_as_xyz
 x,y,z
_cell_length_a 40.7345
_cell_length_b 43.1653
_cell_length_c 19.0046
_cell_angle_alpha 91.265900
_cell_angle_beta 89.063500
_cell_angle_gamma 90.501400
loop_
  _atom_site_label
  _atom_site_type_symbol
  _atom_site_fract_x
  _atom_site_fract_y
  _atom_site_fract_z
C1 C 0.17836 0.23441 0.18207
 C2 C 0.16644 0.26413 0.16980
 C3 C 0.18343 0.29091 0.19122
 C4 C 0.21331 0.28813 0.22718
 C5 C 0.22445 0.25843 0.24600
 C6 C 0.20637 0.23149 0.22544
 C7 C 0.21500 0.20313 0.25463
 C8 C 0.24285 0.20048 0.29533
 C9 C 0.26336 0.22623 0.30990
 C10 C 0.25327 0.25577 0.28703
 C11 C 0.23240 0.31434 0.24447
 C12 C 0.26114 0.31168 0.28208
 C13 C 0.27159 0.28278 0.30572
 C14 C 0.30011 0.28019 0.34657
 C15 C 0.30975 0.25093 0.36850
 C16 C 0.29238 0.22363 0.35032
 H17 H 0.19947 0.18282 0.24939
 H18 H 0.24712 0.17803 0.31717
 H19 H 0.22561 0.33724 0.22820
 H20 H 0.27493 0.33276 0.29224
 H21 H 0.14376 0.26657 0.14135
 H22 H 0.33188 0.24965 0.39864
 C23 C 0.69185 0.21646 0.32548
 C24 C 0.67741 0.24543 0.34087
 C25 C 0.69185 0.27332 0.31985
 C26 C 0.72172 0.27278 0.28107
 C27 C 0.73743 0.24411 0.26614
 C28 C 0.72275 0.21590 0.28882
 C29 C 0.74003 0.18812 0.27583
 C30 C 0.76988 0.18781 0.23934
 C31 C 0.78445 0.21529 0.21530
 C32 C 0.76806 0.24373 0.22867
 C33 C 0.73656 0.30031 0.25766
 C34 C 0.76585 0.29980 0.21933
 C35 C 0.78226 0.27184 0.20474
 C36 C 0.81228 0.27127 0.16609
 C37 C 0.82802 0.24296 0.15328
 C38 C 0.81481 0.21503 0.17774
 H39 H 0.73140 0.16607 0.29464
 H40 H 0.78124 0.16552 0.23005
 H41 H 0.72576 0.32272 0.26857
 H42 H 0.77539 0.32175 0.20139
 H43 H 0.65328 0.24671 0.36519
 H44 H 0.85174 0.24289 0.12658
 C45 C 0.68389 0.72950 0.68480
 C46 C 0.66864 0.75803 0.67506
 C47 C 0.68330 0.78598 0.69714
 C48 C 0.71472 0.78561 0.72794
 C49 C 0.73065 0.75701 0.73795
 C50 C 0.71493 0.72884 0.71731
 C51 C 0.73085 0.70072 0.72908
 C52 C 0.76110 0.70017 0.76163
 C53 C 0.77740 0.72776 0.78162
 C54 C 0.76226 0.75655 0.76915
 C55 C 0.73071 0.81317 0.74874
 C56 C 0.76154 0.81280 0.77887
 C57 C 0.77839 0.78483 0.78843
 C58 C 0.81029 0.78418 0.81854
 C59 C 0.82418 0.75513 0.83164
 C60 C 0.80816 0.72721 0.81480
 H61 H 0.72014 0.67867 0.71346
 H62 H 0.77149 0.67768 0.77069
 H63 H 0.71970 0.83557 0.74167
 H64 H 0.77124 0.83501 0.79573
 H65 H 0.64419 0.75830 0.65345
 H66 H 0.84887 0.75360 0.85111
 C67 C 0.20349 0.70780 0.85487
 C68 C 0.19304 0.73522 0.88950
 C69 C 0.20421 0.76458 0.86955
 C70 C 0.22961 0.76673 0.81760
 C71 C 0.24110 0.73941 0.78248
 C72 C 0.22843 0.70992 0.80171
 C73 C 0.24244 0.68326 0.76974
 C74 C 0.26661 0.68541 0.71766
 C75 C 0.27815 0.71430 0.69487
 C76 C 0.26583 0.74158 0.72868
 C77 C 0.24568 0.79498 0.80355
 C78 C 0.26925 0.79719 0.75022
 C79 C 0.27886 0.77099 0.71020
 C80 C 0.30210 0.77323 0.65419
 C81 C 0.31257 0.74608 0.61926
 C82 C 0.30246 0.71667 0.64095
 H83 H 0.23588 0.66016 0.78579
 H84 H 0.27628 0.66390 0.69635
 H85 H 0.24090 0.81571 0.83477
 H86 H 0.28039 0.81969 0.74220
 H87 H 0.17302 0.73433 0.92758
 H88 H 0.32872 0.74779 0.57373
 O89 O 0.98236 -0.02612 -0.04926
 O90 O 1.04661 0.03345 -0.01594
 O91 O 1.04552 -0.02257 -0.06934
 O92 O 0.98285 0.03172 -0.00473
 O93 O 0.98915 0.01596 0.10388
 O94 O 1.05039 -0.04100 0.03748
 O95 O 1.05299 0.01508 0.09051
 O96 O 0.98722 -0.04168 0.06001
 Cu97 Cu 1.01369 0.00586 -0.04554
 Cu98 Cu 1.02047 -0.01459 0.08375
 C99 C 0.97398 -0.04407 0.00028
 C100 C 1.06089 0.03408 0.04316
 C101 C 1.05841 -0.04122 -0.02755
 C102 C 0.97552 0.03352 0.06033
 O103 O 0.47487 0.47996 0.40372
 O104 O 0.53645 0.53834 0.45870
 O105 O 0.53878 0.48131 0.40806
 O106 O 0.47306 0.53662 0.45302
 O107 O 0.47012 0.51857 0.56081
 O108 O 0.53673 0.46394 0.51648
 O109 O 0.53397 0.52081 0.56697
 O110 O 0.47341 0.46182 0.51153
 Cu111 Cu 0.50614 0.51079 0.41997
 Cu112 Cu 0.50340 0.48958 0.54987
 C113 C 0.46392 0.46077 0.44821
 C114 C 0.54525 0.53985 0.52253
 C115 C 0.54866 0.46293 0.45430
 C116 C 0.46047 0.53708 0.51459
 O117 O 0.01970 0.47591 0.03268
 O118 O -0.04288 0.53477 -0.00233
 O119 O -0.04414 0.47749 0.04099
 O120 O 0.02084 0.53319 -0.00495
 O121 O 0.01898 0.51766 -0.11630
 O122 O -0.04546 0.46057 -0.06946
 O123 O -0.04512 0.51797 -0.11275
 O124 O 0.01796 0.46023 -0.07867
 Cu125 Cu -0.01163 0.50697 0.02775
 Cu126 Cu -0.01378 0.48758 -0.10547
 C127 C 0.02956 0.45815 -0.01748
 C128 C -0.05437 0.53654 -0.06391
 C129 C -0.05535 0.45907 -0.00581
 C130 C 0.03113 0.53491 -0.06813
 O131 O 0.45711 1.04173 0.58938
 O132 O 0.51932 0.98038 0.59760
 O133 O 0.52091 1.04031 0.58072
 O134 O 0.45581 0.98243 0.61036
 O135 O 0.45294 0.97344 0.49572
 O136 O 0.51709 1.03287 0.46578
 O137 O 0.51632 0.97289 0.48253
 O138 O 0.45325 1.03314 0.47482
 Cu139 Cu 0.48870 1.01206 0.60598
 Cu140 Cu 0.48454 1.00233 0.46814
 C141 C 0.44457 1.04784 0.53060
 C142 C 0.52820 0.96603 0.54141
 C143 C 0.52986 1.04673 0.51847
 C144 C 0.44365 0.96774 0.55835
 C145 C 1.16102 0.20956 0.14996
 C146 C 1.17502 0.18172 0.12583
 C147 C 1.15516 0.15658 0.09323
 C148 C 1.16344 0.12571 0.10517
 C149 C 1.14381 0.10145 0.07922
 C150 C 1.11566 0.10771 0.04021
 C151 C 1.10859 0.13848 0.02445
 C152 C 1.12803 0.16275 0.05098
 C153 C 1.09278 0.08278 0.01753
 C154 C 1.08678 0.05697 0.05873
 H155 H 1.20101 0.17771 0.13155
 H156 H 1.18460 0.12039 0.13642
 H157 H 1.15060 0.07787 0.09008
 H158 H 1.08739 0.14381 -0.00665
 H159 H 1.12175 0.18625 0.03828
 H160 H 1.07761 0.08650 -0.02778
 H161 H 1.13575 0.21361 0.13614
 H162 H 1.09973 0.05460 0.10759
 C163 C 0.66602 0.70064 0.66456
 C164 C 0.65022 0.69728 0.60013
 C165 C 0.63223 0.66886 0.57712
 C166 C 0.63610 0.64007 0.60936
 C167 C 0.61842 0.61400 0.58598
 C168 C 0.59655 0.61609 0.52981
 C169 C 0.59350 0.64455 0.49635
 C170 C 0.61108 0.67063 0.51982
 C171 C 0.57680 0.58924 0.50438
 C172 C 0.56818 0.56424 0.54649
 H173 H 0.65072 0.71670 0.56494
 H174 H 0.65306 0.63724 0.65180
 H175 H 0.62242 0.59220 0.61133
 H176 H 0.57709 0.64672 0.45248
 H177 H 0.60792 0.69236 0.49340
 H178 H 0.56642 0.59040 0.45236
 H179 H 0.66545 0.68200 0.70151
 H180 H 0.57622 0.56361 0.60039
 C181 C -0.17146 0.30010 0.14183
 C182 C -0.15759 0.30237 0.07442
 C183 C -0.14102 0.33070 0.04836
 C184 C -0.14666 0.36022 0.07889
 C185 C -0.12987 0.38623 0.05379
 C186 C -0.10710 0.38330 -0.00236
 C187 C -0.10261 0.35410 -0.03477
 C188 C -0.11937 0.32807 -0.00964
 C189 C -0.08744 0.40998 -0.02772
 C190 C -0.07939 0.43536 0.01561
 H191 H -0.15817 0.28213 0.03966
 H192 H -0.16427 0.36356 0.12147
 H193 H -0.13510 0.40858 0.07807
 H194 H -0.08555 0.35127 -0.07872
 H195 H -0.11499 0.30571 -0.03490
 H196 H -0.07616 0.40813 -0.07966
 H197 H -0.17034 0.31962 0.17827
 H198 H -0.08828 0.43644 0.06955
 C199 C 0.31522 0.80359 0.63013
 C200 C 0.34729 0.80703 0.60397
 C201 C 0.36127 0.83679 0.58033
 C202 C 0.35162 0.86533 0.61074
 C203 C 0.36746 0.89278 0.59114
 C204 C 0.39307 0.89212 0.54060
 C205 C 0.40184 0.86376 0.50860
 C206 C 0.38640 0.83630 0.52899
 C207 C 0.41191 0.92028 0.52216
 C208 C 0.41919 0.94333 0.57212
 H209 H 0.36311 0.78702 0.59998
 H210 H 0.33270 0.86644 0.65134
 H211 H 0.35981 0.91442 0.61590
 H212 H 0.42150 0.86271 0.46955
 H213 H 0.39430 0.81455 0.50502
 H214 H 0.42406 0.92085 0.47103
 H215 H 0.29931 0.82352 0.63232
 H216 H 0.40967 0.94148 0.62540
 C217 C -0.17503 0.69775 -0.17019
 C218 C -0.15997 0.69312 -0.10577
 C219 C -0.14211 0.66460 -0.08825
 C220 C -0.14656 0.63631 -0.12524
 C221 C -0.12873 0.61015 -0.10748
 C222 C -0.10610 0.61169 -0.05231
 C223 C -0.10258 0.63963 -0.01394
 C224 C -0.12036 0.66578 -0.03174
 C225 C -0.08579 0.58489 -0.03333
 C226 C -0.07814 0.56066 -0.08043
 H227 H -0.16052 0.71180 -0.06670
 H228 H -0.16407 0.63399 -0.16718
 H229 H -0.13316 0.58874 -0.13654
 H230 H -0.08559 0.64138 0.02927
 H231 H -0.11678 0.68714 -0.00174
 H232 H -0.07417 0.58558 0.01758
 H233 H -0.17433 0.67988 -0.21083
 H234 H -0.08766 0.56047 -0.13321
 C235 C 0.30526 1.19446 0.36840
 C236 C 0.32764 1.19032 0.42271
 C237 C 0.34551 1.16112 0.43403
 C238 C 0.36065 1.15705 0.49892
 C239 C 0.37994 1.13108 0.51029
 C240 C 0.38455 1.10845 0.45665
 C241 C 0.36919 1.11243 0.39188
 C242 C 0.34995 1.13846 0.38048
 C243 C 0.40651 1.08149 0.46424
 C244 C 0.42018 1.07269 0.52768
 H245 H 0.33156 1.20884 0.46100
 H246 H 0.35803 1.17436 0.54075
 H247 H 0.39179 1.12954 0.56048
 H248 H 0.37261 1.09559 0.34932
 H249 H 0.33962 1.14112 0.32895
 H250 H 0.41270 1.06816 0.41695
 H251 H 0.29775 1.17400 0.33917
 H252 H 0.41361 1.08442 0.57662
 C253 C 1.18768 -0.20983 -0.09924
 C254 C 1.17976 -0.18314 -0.13552
 C255 C 1.15888 -0.15835 -0.10441
 C256 C 1.14030 -0.14036 -0.14927
 C257 C 1.11968 -0.11723 -0.12198
 C258 C 1.11767 -0.11113 -0.04890
 C259 C 1.13652 -0.12899 -0.00405
 C260 C 1.15707 -0.15226 -0.03143
 C261 C 1.09551 -0.08721 -0.01776
 C262 C 1.08256 -0.06330 -0.05662
 H263 H 1.18552 -0.18206 -0.19127
 H264 H 1.14120 -0.14467 -0.20565
 H265 H 1.10490 -0.10485 -0.15855
 H266 H 1.13543 -0.12484 0.05237
 H267 H 1.17168 -0.16519 0.00460
 H268 H 1.08933 -0.08839 0.03780
 H269 H 1.17520 -0.21320 -0.04916
 H270 H 1.08976 -0.06059 -0.11113
 C271 C 0.67414 0.30263 0.33578
 C272 C 0.66013 0.30887 0.40211
 C273 C 0.64130 0.33723 0.42052
 C274 C 0.64355 0.36436 0.38088
 C275 C 0.62487 0.39038 0.39983
 C276 C 0.60354 0.38982 0.45882
 C277 C 0.60220 0.36310 0.49953
 C278 C 0.62084 0.33713 0.48061
 C279 C 0.58237 0.41633 0.47980
 C280 C 0.57356 0.43972 0.43428
 H281 H 0.66229 0.29157 0.44221
 H282 H 0.66000 0.36592 0.33589
 H283 H 0.62762 0.41088 0.36859
 H284 H 0.58627 0.36212 0.54566
 H285 H 0.61895 0.31672 0.51265
 H286 H 0.57110 0.41609 0.53186
 H287 H 0.67187 0.31908 0.29418
 H288 H 0.58297 0.43982 0.38077
 C289 C 0.82882 -0.18832 -0.16824
 C290 C 0.85566 -0.18634 -0.12299
 C291 C 0.87585 -0.15792 -0.11210
 C292 C 0.89505 -0.15551 -0.05161
 C293 C 0.91497 -0.12957 -0.03926
 C294 C 0.91608 -0.10516 -0.08718
 C295 C 0.89748 -0.10783 -0.14857
 C296 C 0.87756 -0.13391 -0.16108
 C297 C 0.93748 -0.07753 -0.07618
 C298 C 0.94920 -0.06859 -0.01017
 H299 H 0.86083 -0.20547 -0.08923
 H300 H 0.89478 -0.17392 -0.01374
 H301 H 0.92995 -0.12925 0.00715
 H302 H 0.89843 -0.08970 -0.18710
 H303 H 0.86419 -0.13533 -0.20973
 H304 H 0.94435 -0.06393 -0.12145
 H305 H 0.82201 -0.16725 -0.19313
 H306 H 0.94115 -0.08079 0.03618
 C307 C 0.31988 0.30784 0.36843
 C308 C 0.35409 0.30725 0.37199
 C309 C 0.37384 0.33418 0.39592
 C310 C 0.36504 0.36471 0.38077
 C311 C 0.38492 0.38963 0.40235
 C312 C 0.41371 0.38439 0.43993
 C313 C 0.42217 0.35394 0.45576
 C314 C 0.40269 0.32903 0.43297
 C315 C 0.43511 0.41011 0.46415
 C316 C 0.44028 0.43683 0.42547
 H317 H 0.36703 0.28600 0.35926
 H318 H 0.34320 0.36933 0.35117
 H319 H 0.37755 0.41294 0.39037
 H320 H 0.44422 0.34940 0.48482
 H321 H 0.40996 0.30567 0.44497
 H322 H 0.44953 0.40668 0.51074
 H323 H 0.30725 0.32895 0.38352
 H324 H 0.42869 0.43919 0.37502
 C325 C 0.18674 0.67953 -0.13170
 C326 C 0.16772 0.67405 -0.07108
 C327 C 0.14507 0.64724 -0.06418
 C328 C 0.13107 0.63223 -0.12307
 C329 C 0.10780 0.60854 -0.11440
 C330 C 0.09796 0.59942 -0.04653
 C331 C 0.11217 0.61435 0.01204
 C332 C 0.13533 0.63804 0.00333
 C333 C 0.07226 0.57555 -0.03374
 C334 C 0.05738 0.55718 -0.08593
 H335 H 0.17014 0.68927 -0.02543
 H336 H 0.13711 0.63938 -0.17595
 H337 H 0.09719 0.59820 -0.16110
 H338 H 0.10499 0.60795 0.06495
 H339 H 0.14545 0.64943 0.04959
 H340 H 0.06446 0.57236 0.02044
 H341 H 0.18778 0.66100 -0.17062
 H342 H 0.06491 0.55865 -0.14053
 C343 C 0.67447 1.18889 0.34243
 C344 C 0.64921 1.18734 0.39331
 C345 C 0.62897 1.15921 0.40556
 C346 C 0.61243 1.15642 0.47044
 C347 C 0.59191 1.13102 0.48336
 C348 C 0.58744 1.10770 0.43138
 C349 C 0.60364 1.11067 0.36609
 C350 C 0.62423 1.13612 0.35318
 C351 C 0.56484 1.08105 0.44215
 C352 C 0.55488 1.07107 0.50858
 H353 H 0.64524 1.20674 0.42934
 H354 H 0.61516 1.17415 0.51121
 H355 H 0.57899 1.13033 0.53341
 H356 H 0.60015 1.09335 0.32469
 H357 H 0.63558 1.13794 0.30159
 H358 H 0.55580 1.06875 0.39597
 H359 H 0.68078 1.16747 0.31563
 H360 H 0.56514 1.08166 0.55549
 C361 C 0.16851 0.32143 0.17816
 C362 C 0.15392 0.32771 0.11419
 C363 C 0.13466 0.35587 0.10158
 C364 C 0.12982 0.36467 0.03200
 C365 C 0.10962 0.38960 0.01733
 C366 C 0.09318 0.40591 0.07217
 C367 C 0.09879 0.39765 0.14195
 C368 C 0.11921 0.37281 0.15666
 C369 C 0.06972 0.43109 0.05869
 C370 C 0.05444 0.43448 -0.00583
 H371 H 0.15685 0.31111 0.07096
 H372 H 0.14155 0.35206 -0.01131
 H373 H 0.10707 0.39584 -0.03704
 H374 H 0.08658 0.40989 0.18518
 H375 H 0.12180 0.36632 0.21092
 H376 H 0.06270 0.44634 0.10232
 H377 H 0.16908 0.33901 0.21958
 H378 H 0.05981 0.41873 -0.04940
 C379 C 0.66431 0.81505 0.69273
 C380 C 0.64643 0.82231 0.63330
 C381 C 0.62651 0.85076 0.62707
 C382 C 0.60537 0.85284 0.56977
 C383 C 0.58572 0.87890 0.56191
 C384 C 0.58696 0.90367 0.61118
 C385 C 0.60813 0.90171 0.66829
 C386 C 0.62791 0.87573 0.67601
 C387 C 0.56556 0.93110 0.60645
 C388 C 0.55190 0.94057 0.54369
 H389 H 0.64677 0.80603 0.58907
 H390 H 0.60370 0.83401 0.53131
 H391 H 0.56908 0.87909 0.51818
 H392 H 0.60951 0.92046 0.70700
 H393 H 0.64421 0.87570 0.72020
 H394 H 0.56071 0.94457 0.65422
 H395 H 0.66448 0.83056 0.73801
 H396 H 0.55818 0.92878 0.49455
 C397 C 0.83415 0.18627 0.16655
 C398 C 0.85042 0.17972 0.10282
 C399 C 0.87131 0.15220 0.08967
 C400 C 0.88524 0.13548 0.14436
 C401 C 0.90601 0.11043 0.12912
 C402 C 0.91333 0.10167 0.05883
 C403 C 0.89927 0.11840 0.00460
 C404 C 0.87863 0.14338 0.01981
 C405 C 0.93620 0.07626 0.03885
 C406 C 0.95130 0.05653 0.08570
 H407 H 0.84675 0.19509 0.05936
 H408 H 0.88098 0.14206 0.19893
 H409 H 0.91658 0.09859 0.17268
 H410 H 0.90453 0.11233 -0.05003
 H411 H 0.86843 0.15596 -0.02332
 H412 H 0.94189 0.07322 -0.01677
 H413 H 0.83507 0.16994 0.20871
 H414 H 0.94599 0.05798 0.14154
 C415 C 0.31802 0.68897 0.60680
 C416 C 0.35131 0.68891 0.58782
 C417 C 0.36866 0.66138 0.55941
 C418 C 0.36012 0.63121 0.57981
 C419 C 0.37917 0.60596 0.55711
 C420 C 0.40688 0.61051 0.51332
 C421 C 0.41465 0.64050 0.49122
 C422 C 0.39602 0.66575 0.51490
 C423 C 0.42848 0.58474 0.49074
 C424 C 0.43489 0.55973 0.53355
 H425 H 0.36572 0.70993 0.59456
 H426 H 0.33950 0.62718 0.61517
 H427 H 0.37225 0.58299 0.57397
 H428 H 0.43583 0.64453 0.45731
 H429 H 0.40314 0.68882 0.49889
 H430 H 0.44266 0.58732 0.44244
 H431 H 0.30355 0.66824 0.59743
 H432 H 0.42301 0.55815 0.58473
   
