data_POSCAR
  _audit_creation_date              2014-09-24
  _audit_creation_method            'ToBaCCo'
  _symmetry_space_group_name_H-M    'P1'
  _symmetry_Int_Tables_number       1
  _symmetry_cell_setting            triclinic
  loop_
  _symmetry_equiv_pos_as_xyz
 x,y,z
_cell_length_a 27.6898
_cell_length_b 27.6954
_cell_length_c 27.6718
_cell_angle_alpha 89.949700
_cell_angle_beta 90.151300
_cell_angle_gamma 90.031200
loop_
  _atom_site_label
  _atom_site_type_symbol
  _atom_site_fract_x
  _atom_site_fract_y
  _atom_site_fract_z
O1 O -0.12376 0.06731 0.00275
 O2 O 0.12479 0.06256 -0.00448
 O3 O 0.00152 0.12440 0.06434
 O4 O 0.00201 0.12396 -0.06637
 O5 O -0.00038 0.06489 -0.12514
 O6 O 0.00158 0.06565 0.12364
 O7 O 0.06701 0.12271 -0.00379
 O8 O -0.06372 0.12524 0.00158
 Zr9 Zr 0.00088 0.08481 -0.00087
 O10 O 0.04308 0.04265 -0.04522
 O11 O -0.04285 0.04464 0.04394
 C12 C -0.10848 0.11153 0.00299
 C13 C 0.11119 0.10732 -0.00514
 C14 C 0.00150 0.11010 0.10896
 C15 C 0.00158 0.10948 -0.11090
 H16 H 0.06595 0.06299 0.06226
 O17 O 0.04454 0.04268 0.04211
 H18 H -0.06499 0.06491 -0.06401
 O19 O -0.04437 0.04407 -0.04356
 O20 O 0.12209 -0.06816 -0.00078
 O21 O -0.12631 -0.06331 0.00033
 O22 O 0.06705 -0.00233 0.12270
 O23 O 0.06212 0.00017 -0.12606
 O24 O -0.06836 -0.00134 -0.12361
 O25 O -0.06349 0.00330 0.12502
 O26 O -0.00036 -0.12411 0.06598
 O27 O -0.00633 -0.12456 -0.06476
 O28 O 0.00204 -0.06483 0.12451
 O29 O -0.00610 -0.06594 -0.12422
 O30 O 0.12485 -0.00379 0.06266
 O31 O -0.12363 0.00402 0.06700
 O32 O -0.12622 -0.00017 -0.06368
 O33 O 0.12227 -0.00084 -0.06811
 O34 O 0.06178 -0.12579 0.00078
 O35 O -0.06845 -0.12327 -0.00020
 Zr36 Zr 0.08425 -0.00191 -0.00198
 Zr37 Zr -0.08570 0.00136 0.00102
 Zr38 Zr 0.00097 0.00020 0.08462
 Zr39 Zr -0.00235 -0.00041 -0.08546
 Zr40 Zr -0.00246 -0.08509 0.00024
 O41 O -0.04615 -0.04326 -0.04320
 O42 O 0.04314 -0.04466 0.04299
 C43 C 0.10656 -0.11232 0.00055
 C44 C -0.11271 -0.10810 -0.00048
 C45 C 0.11123 -0.00386 0.10743
 C46 C 0.10693 0.00042 -0.11241
 C47 C -0.11258 -0.00154 -0.10843
 C48 C -0.10824 0.00470 0.11126
 C49 C 0.00154 -0.10947 0.11047
 C50 C -0.00763 -0.11030 -0.10934
 H51 H -0.06498 -0.06293 0.06537
 O52 O -0.04439 -0.04277 0.04431
 H53 H 0.06093 -0.06581 -0.06552
 O54 O 0.04111 -0.04481 -0.04458
 O55 O 0.37433 0.56372 0.00511
 O56 O 0.62283 0.56815 -0.00157
 O57 O 0.49727 0.62342 0.06883
 O58 O 0.49831 0.62620 -0.06201
 O59 O 0.49824 0.56841 -0.12215
 O60 O 0.49955 0.56324 0.12656
 O61 O 0.56294 0.62612 0.00068
 O62 O 0.43236 0.62369 0.00568
 Zr63 Zr 0.49833 0.58561 0.00255
 O64 O 0.54199 0.54609 -0.04285
 O65 O 0.45591 0.54277 0.04606
 C66 C 0.38811 0.60841 0.00646
 C67 C 0.60766 0.61244 -0.00118
 C68 C 0.49772 0.60805 0.11311
 C69 C 0.49865 0.61256 -0.10679
 H70 H 0.56413 0.56451 0.06538
 O71 O 0.54342 0.54407 0.04464
 H72 H 0.43334 0.56502 -0.06130
 O73 O 0.45459 0.54438 -0.04130
 O74 O 0.62486 0.43738 -0.00043
 O75 O 0.37625 0.43319 -0.00003
 O76 O 0.56720 0.49703 0.12395
 O77 O 0.56270 0.50533 -0.12455
 O78 O 0.43212 0.50053 -0.12268
 O79 O 0.43665 0.49939 0.12615
 O80 O 0.50406 0.37508 0.06329
 O81 O 0.49850 0.37785 -0.06753
 O82 O 0.50417 0.43279 0.12354
 O83 O 0.49655 0.43823 -0.12510
 O84 O 0.62513 0.49943 0.06415
 O85 O 0.37653 0.49965 0.06813
 O86 O 0.37414 0.49811 -0.06293
 O87 O 0.62273 0.50507 -0.06643
 O88 O 0.56676 0.37748 -0.00090
 O89 O 0.43620 0.37529 -0.00237
 Zr90 Zr 0.58460 0.50206 -0.00054
 Zr91 Zr 0.41456 0.49918 0.00199
 Zr92 Zr 0.50116 0.49890 0.08570
 Zr93 Zr 0.49809 0.50240 -0.08422
 Zr94 Zr 0.50081 0.41568 -0.00114
 O95 O 0.45558 0.45702 -0.04342
 O96 O 0.54476 0.45668 0.04288
 C97 C 0.61104 0.39266 -0.00016
 C98 C 0.39146 0.38896 -0.00194
 C99 C 0.61148 0.49717 0.10886
 C100 C 0.60746 0.50611 -0.11073
 C101 C 0.38784 0.49855 -0.10771
 C102 C 0.39188 0.50026 0.11244
 C103 C 0.50527 0.38865 0.10807
 C104 C 0.49665 0.39341 -0.11174
 H105 H 0.43737 0.43427 0.06472
 O106 O 0.45740 0.45545 0.04412
 H107 H 0.56356 0.43864 -0.06569
 O108 O 0.54309 0.45863 -0.04442
 O109 O -0.12696 0.56181 0.50066
 O110 O 0.12160 0.56951 0.50214
 O111 O -0.00715 0.62348 0.56700
 O112 O -0.00212 0.62565 0.43636
 O113 O 0.00046 0.56755 0.37661
 O114 O -0.00613 0.56373 0.62531
 O115 O 0.06085 0.62665 0.50148
 O116 O -0.06982 0.62253 0.50246
 Zr117 Zr -0.00327 0.58531 0.50125
 O118 O 0.04250 0.54617 0.45780
 O119 O -0.04636 0.54208 0.54381
 C120 C -0.11392 0.60677 0.50238
 C121 C 0.10579 0.61353 0.50157
 C122 C -0.00808 0.60835 0.61129
 C123 C -0.00044 0.61187 0.39161
 H124 H 0.06060 0.56550 0.56660
 O125 O 0.04093 0.54465 0.54526
 H126 H -0.06597 0.56349 0.43570
 O127 O -0.04498 0.54324 0.45636
 O128 O 0.12583 0.43900 0.50297
 O129 O -0.12259 0.43108 0.49497
 O130 O 0.06284 0.49864 0.62595
 O131 O 0.06650 0.50649 0.37721
 O132 O -0.06411 0.49839 0.37472
 O133 O -0.06778 0.49840 0.62343
 O134 O 0.00354 0.37516 0.56414
 O135 O 0.00302 0.37716 0.43326
 O136 O 0.00065 0.43327 0.62387
 O137 O 0.00196 0.43692 0.37497
 O138 O 0.12271 0.50139 0.56806
 O139 O -0.12591 0.49725 0.56342
 O140 O -0.12391 0.49587 0.43272
 O141 O 0.12454 0.50742 0.43733
 O142 O 0.06871 0.37822 0.50133
 O143 O -0.06166 0.37413 0.49517
 Zr144 Zr 0.08438 0.50303 0.50192
 Zr145 Zr -0.08559 0.49770 0.49872
 Zr146 Zr -0.00188 0.49904 0.58530
 Zr147 Zr 0.00064 0.50169 0.41518
 Zr148 Zr 0.00220 0.41545 0.49919
 O149 O -0.04226 0.45591 0.45511
 O150 O 0.04402 0.45723 0.54444
 C151 C 0.11276 0.39404 0.50281
 C152 C -0.10656 0.38713 0.49348
 C153 C 0.10761 0.49933 0.61234
 C154 C 0.11072 0.50862 0.39256
 C155 C -0.10880 0.49611 0.38843
 C156 C -0.11208 0.49813 0.60821
 C157 C 0.00283 0.38899 0.60891
 C158 C 0.00249 0.39222 0.38890
 H159 H -0.06392 0.43321 0.56236
 O160 O -0.04352 0.45474 0.54249
 H161 H 0.06667 0.43940 0.43629
 O162 O 0.04504 0.45891 0.45685
 O163 O 0.37836 0.06886 0.49942
 O164 O 0.62677 0.06129 0.49737
 O165 O 0.50254 0.12584 0.56223
 O166 O 0.50619 0.12251 0.43186
 O167 O 0.50489 0.06227 0.37420
 O168 O 0.50011 0.06842 0.62275
 O169 O 0.56962 0.12199 0.49529
 O170 O 0.43902 0.12611 0.49843
 Zr171 Zr 0.50313 0.08482 0.49805
 O172 O 0.54587 0.04130 0.45568
 O173 O 0.45783 0.04604 0.54250
 C174 C 0.39410 0.11296 0.49940
 C175 C 0.61364 0.10611 0.49486
 C176 C 0.50086 0.11258 0.60710
 C177 C 0.50683 0.10700 0.38771
 H178 H 0.56646 0.06385 0.56321
 O179 O 0.54532 0.04328 0.54303
 H180 H 0.43867 0.06460 0.43384
 O181 O 0.45858 0.04379 0.45501
 O182 O 0.62295 -0.06911 0.50419
 O183 O 0.37457 -0.06180 0.49890
 O184 O 0.56514 -0.00049 0.62501
 O185 O 0.56678 -0.00254 0.37635
 O186 O 0.43596 -0.00238 0.37524
 O187 O 0.43452 0.00592 0.62377
 O188 O 0.49850 -0.12272 0.56801
 O189 O 0.49594 -0.12569 0.43711
 O190 O 0.49985 -0.06249 0.62576
 O191 O 0.49807 -0.06796 0.37688
 O192 O 0.62440 -0.00373 0.56650
 O193 O 0.37601 0.00620 0.56412
 O194 O 0.37673 0.00074 0.43378
 O195 O 0.62531 -0.00323 0.43598
 O196 O 0.56227 -0.12634 0.50481
 O197 O 0.43183 -0.12241 0.50069
 Zr198 Zr 0.58554 -0.00267 0.50083
 Zr199 Zr 0.41574 0.00239 0.49929
 Zr200 Zr 0.50014 0.00199 0.58508
 Zr201 Zr 0.50112 -0.00201 0.41497
 Zr202 Zr 0.49823 -0.08503 0.50175
 O203 O 0.45575 -0.04362 0.45670
 O204 O 0.54282 -0.04414 0.54525
 C205 C 0.60721 -0.11320 0.50565
 C206 C 0.38778 -0.10668 0.49938
 C207 C 0.60967 -0.00289 0.61089
 C208 C 0.61118 -0.00250 0.39134
 C209 C 0.39141 -0.00133 0.38943
 C210 C 0.39012 0.00730 0.60879
 C211 C 0.49952 -0.10727 0.61218
 C212 C 0.49605 -0.11214 0.39222
 H213 H 0.43442 -0.06095 0.56505
 O214 O 0.45570 -0.04137 0.54415
 H215 H 0.56347 -0.06749 0.43765
 O216 O 0.54329 -0.04593 0.45764
 C217 C 0.29000 0.28167 -0.00388
 C218 C 0.27582 0.26065 -0.04832
 C219 C 0.23995 0.22393 -0.04903
 C220 C 0.21786 0.20916 -0.00540
 C221 C 0.23294 0.22923 0.03917
 C222 C 0.26954 0.26522 0.03998
 C223 C 0.28516 0.28362 0.08508
 C224 C 0.26516 0.26689 0.12809
 C225 C 0.22866 0.23249 0.12728
 C226 C 0.21252 0.21378 0.08343
 C227 C 0.22731 0.20244 -0.09370
 C228 C 0.24973 0.21668 -0.13639
 C229 C 0.28419 0.25311 -0.13579
 C230 C 0.29716 0.27511 -0.09243
 C231 C 0.17999 0.17301 -0.00620
 C232 C 0.14849 0.14303 -0.00616
 C233 C 0.32584 0.31993 -0.00328
 C234 C 0.35566 0.35163 -0.00278
 H235 H 0.31333 0.31060 0.08763
 H236 H 0.27822 0.28049 0.16223
 H237 H 0.21292 0.22008 0.16080
 H238 H 0.18428 0.18678 0.08469
 H239 H 0.20049 0.17410 -0.09604
 H240 H 0.24040 0.19932 -0.17011
 H241 H 0.30121 0.26413 -0.16904
 H242 H 0.32444 0.30307 -0.09383
 C243 C 0.28184 -0.20929 0.50049
 C244 C 0.28320 -0.24743 0.46649
 C245 C 0.24690 -0.28368 0.46723
 C246 C 0.20915 -0.28120 0.50156
 C247 C 0.20798 -0.24325 0.53581
 C248 C 0.24461 -0.20729 0.53543
 C249 C 0.24312 -0.17002 0.57039
 C250 C 0.20633 -0.16820 0.60461
 C251 C 0.17026 -0.20313 0.60471
 C252 C 0.17094 -0.24037 0.57086
 C253 C 0.24953 -0.32202 0.43351
 C254 C 0.28704 -0.32448 0.40013
 C255 C 0.32218 -0.28867 0.39897
 C256 C 0.32045 -0.25047 0.43166
 C257 C 0.17187 -0.31799 0.50183
 C258 C 0.14137 -0.34899 0.50175
 C259 C 0.31909 -0.17251 0.49989
 C260 C 0.35031 -0.14225 0.49947
 H261 H 0.27032 -0.14198 0.57170
 H262 H 0.20576 -0.13947 0.63113
 H263 H 0.14158 -0.20133 0.63112
 H264 H 0.14221 -0.26682 0.57253
 H265 H 0.22294 -0.35065 0.43278
 H266 H 0.28892 -0.35443 0.37516
 H267 H 0.35109 -0.29063 0.37278
 H268 H 0.34876 -0.22361 0.42949
 C269 C 0.71102 0.71819 -0.00171
 C270 C 0.74919 0.71590 0.03242
 C271 C 0.78580 0.75191 0.03241
 C272 C 0.78398 0.79011 -0.00163
 C273 C 0.74576 0.79248 -0.03566
 C274 C 0.70901 0.75658 -0.03551
 C275 C 0.67072 0.76024 -0.06931
 C276 C 0.66881 0.79826 -0.10230
 C277 C 0.70513 0.83289 -0.10298
 C278 C 0.74325 0.83023 -0.07012
 C279 C 0.82371 0.74869 0.06671
 C280 C 0.82536 0.71099 0.10007
 C281 C 0.78938 0.67601 0.10035
 C282 C 0.75167 0.67821 0.06696
 C283 C 0.82117 0.82713 -0.00137
 C284 C 0.85214 0.85776 -0.00102
 C285 C 0.67407 0.68090 -0.00207
 C286 C 0.64366 0.64970 -0.00193
 H287 H 0.64174 0.73402 -0.07039
 H288 H 0.63892 0.80092 -0.12741
 H289 H 0.70366 0.86213 -0.12896
 H290 H 0.77054 0.85816 -0.07191
 H291 H 0.85248 0.77512 0.06806
 H292 H 0.85479 0.70887 0.12579
 H293 H 0.79072 0.64692 0.12649
 H294 H 0.72457 0.65009 0.06858
 C295 C 0.72148 0.20636 0.48800
 C296 C 0.75588 0.20836 0.52588
 C297 C 0.79239 0.24438 0.52533
 C298 C 0.79383 0.27853 0.48725
 C299 C 0.76037 0.27558 0.44858
 C300 C 0.72413 0.23924 0.44888
 C301 C 0.69107 0.23685 0.40983
 C302 C 0.69368 0.26958 0.37164
 C303 C 0.72904 0.30522 0.37141
 C304 C 0.76213 0.30835 0.40933
 C305 C 0.82685 0.24527 0.56322
 C306 C 0.82526 0.21148 0.60052
 C307 C 0.78912 0.17666 0.60145
 C308 C 0.75471 0.17496 0.56466
 C309 C 0.82909 0.31721 0.48854
 C310 C 0.85836 0.34931 0.49048
 C311 C 0.68310 0.17084 0.48973
 C312 C 0.65127 0.14132 0.49188
 H313 H 0.66297 0.20971 0.40837
 H314 H 0.66805 0.26736 0.34214
 H315 H 0.73077 0.33064 0.34176
 H316 H 0.78910 0.33659 0.40747
 H317 H 0.85562 0.27172 0.56421
 H318 H 0.85233 0.21219 0.62874
 H319 H 0.78789 0.15067 0.63067
 H320 H 0.72748 0.14701 0.56681
 C321 C 0.71633 0.28944 0.00142
 C322 C 0.71431 0.25102 -0.03227
 C323 C 0.75021 0.21441 -0.03129
 C324 C 0.78807 0.21664 0.00316
 C325 C 0.79021 0.25518 0.03669
 C326 C 0.75425 0.29176 0.03576
 C327 C 0.75732 0.33016 0.06938
 C328 C 0.79494 0.33240 0.10286
 C329 C 0.82989 0.29642 0.10403
 C330 C 0.82773 0.25815 0.07142
 C331 C 0.74722 0.17611 -0.06504
 C332 C 0.70985 0.17412 -0.09883
 C333 C 0.67500 0.21019 -0.10010
 C334 C 0.67698 0.24826 -0.06725
 C335 C 0.82501 0.17954 0.00374
 C336 C 0.85555 0.14860 0.00374
 C337 C 0.67917 0.32630 0.00093
 C338 C 0.64811 0.35671 0.00045
 H339 H 0.73091 0.35894 0.07001
 H340 H 0.79705 0.36227 0.12795
 H341 H 0.85892 0.29823 0.13025
 H342 H 0.85581 0.23108 0.07367
 H343 H 0.77356 0.14727 -0.06563
 H344 H 0.70788 0.14439 -0.12409
 H345 H 0.64619 0.20861 -0.12658
 H346 H 0.64897 0.27540 -0.06961
 C347 C 0.70910 -0.22031 0.50653
 C348 C 0.73115 -0.23334 0.46227
 C349 C 0.76757 -0.26952 0.46154
 C350 C 0.78153 -0.29273 0.50502
 C351 C 0.75916 -0.28005 0.54920
 C352 C 0.72282 -0.24376 0.54996
 C353 C 0.70094 -0.23181 0.59455
 C354 C 0.71448 -0.25512 0.63714
 C355 C 0.75010 -0.29044 0.63644
 C356 C 0.77234 -0.30288 0.59309
 C357 C 0.78940 -0.28152 0.41692
 C358 C 0.77563 -0.25849 0.37427
 C359 C 0.73977 -0.22343 0.37492
 C360 C 0.71767 -0.21084 0.41829
 C361 C 0.81908 -0.32939 0.50429
 C362 C 0.85047 -0.35959 0.50349
 C363 C 0.67272 -0.18248 0.50727
 C364 C 0.64274 -0.15088 0.50703
 H365 H 0.67309 -0.20452 0.59696
 H366 H 0.69719 -0.24579 0.67086
 H367 H 0.76049 -0.30839 0.66964
 H368 H 0.79982 -0.33063 0.59438
 H369 H 0.81737 -0.30868 0.41451
 H370 H 0.79292 -0.26785 0.34055
 H371 H 0.72909 -0.20578 0.34166
 H372 H 0.69000 -0.18329 0.41691
 C373 C 0.29188 0.21956 0.50030
 C374 C 0.29397 0.25702 0.53507
 C375 C 0.25746 0.29311 0.53592
 C376 C 0.21931 0.29174 0.50176
 C377 C 0.21766 0.25472 0.46650
 C378 C 0.25398 0.21847 0.46584
 C379 C 0.25143 0.18171 0.43037
 C380 C 0.21410 0.18084 0.39651
 C381 C 0.17871 0.21639 0.39701
 C382 C 0.18026 0.25297 0.43154
 C383 C 0.26016 0.33003 0.57117
 C384 C 0.29814 0.33159 0.60428
 C385 C 0.33408 0.29661 0.60312
 C386 C 0.33206 0.25949 0.56921
 C387 C 0.18180 0.32837 0.50276
 C388 C 0.15040 0.35852 0.50314
 C389 C 0.32846 0.18200 0.50013
 C390 C 0.35856 0.15056 0.49987
 H391 H 0.27818 0.15332 0.42839
 H392 H 0.21260 0.15237 0.36978
 H393 H 0.14984 0.21560 0.37056
 H394 H 0.15187 0.27979 0.43047
 H395 H 0.23315 0.35816 0.57338
 H396 H 0.29980 0.36022 0.63085
 H397 H 0.36378 0.29833 0.62855
 H398 H 0.36078 0.23301 0.56988
 C399 C 0.28071 0.70924 0.00576
 C400 C 0.25925 0.72517 0.04927
 C401 C 0.22188 0.76027 0.04780
 C402 C 0.20689 0.77977 0.00293
 C403 C 0.22673 0.76217 -0.04071
 C404 C 0.26392 0.72689 -0.03929
 C405 C 0.28323 0.70973 -0.08339
 C406 C 0.26554 0.72621 -0.12760
 C407 C 0.22869 0.76023 -0.12895
 C408 C 0.20972 0.77854 -0.08613
 C409 C 0.19981 0.77459 0.09158
 C410 C 0.21409 0.75453 0.13550
 C411 C 0.25134 0.72100 0.13706
 C412 C 0.27393 0.70642 0.09458
 C413 C 0.17138 0.81817 0.00179
 C414 C 0.14196 0.85013 0.00117
 C415 C 0.31916 0.67381 0.00712
 C416 C 0.35088 0.64412 0.00740
 H417 H 0.31173 0.68303 -0.08422
 H418 H 0.28024 0.71224 -0.16097
 H419 H 0.21450 0.77222 -0.16334
 H420 H 0.18109 0.80499 -0.08905
 H421 H 0.17078 0.80072 0.09228
 H422 H 0.19603 0.76490 0.16846
 H423 H 0.26248 0.70596 0.17132
 H424 H 0.30250 0.67993 0.09762
 C425 C 0.00411 0.28757 0.28486
 C426 C -0.03047 0.24994 0.28693
 C427 C -0.03031 0.21300 0.25132
 C428 C 0.00408 0.21423 0.21355
 C429 C 0.03917 0.25143 0.21192
 C430 C 0.03920 0.28822 0.24771
 C431 C 0.07464 0.32501 0.24539
 C432 C 0.10909 0.32542 0.20875
 C433 C 0.10914 0.28939 0.17382
 C434 C 0.07466 0.25274 0.17518
 C435 C -0.06466 0.17526 0.25464
 C436 C -0.09811 0.17402 0.29215
 C437 C -0.09875 0.21050 0.32658
 C438 C -0.06543 0.24814 0.32416
 C439 C 0.00319 0.17737 0.17632
 C440 C 0.00233 0.14672 0.14546
 C441 C 0.00382 0.32520 0.32131
 C442 C 0.00326 0.35605 0.35197
 H443 H 0.07613 0.35377 0.27180
 H444 H 0.13584 0.35389 0.20740
 H445 H 0.13598 0.28987 0.14545
 H446 H 0.07621 0.22547 0.14725
 H447 H -0.06576 0.14613 0.22862
 H448 H -0.12357 0.14449 0.29460
 H449 H -0.12502 0.20951 0.35547
 H450 H -0.06722 0.27555 0.35194
 C451 C 0.49882 0.22133 0.70704
 C452 C 0.54262 0.24047 0.72540
 C453 C 0.54154 0.27650 0.76193
 C454 C 0.49668 0.29386 0.77917
 C455 C 0.45300 0.27725 0.75827
 C456 C 0.45403 0.24036 0.72259
 C457 C 0.40985 0.22376 0.70277
 C458 C 0.36603 0.24409 0.71670
 C459 C 0.36518 0.28121 0.75043
 C460 C 0.40796 0.29720 0.77173
 C461 C 0.58577 0.29489 0.77998
 C462 C 0.62977 0.27903 0.76159
 C463 C 0.63078 0.24447 0.72524
 C464 C 0.58786 0.22481 0.70764
 C465 C 0.49568 0.32889 0.81817
 C466 C 0.49570 0.35806 0.85048
 C467 C 0.49980 0.18250 0.67182
 C468 C 0.50035 0.15034 0.64249
 H469 H 0.40873 0.19554 0.67577
 H470 H 0.33265 0.23154 0.70059
 H471 H 0.33120 0.29789 0.75994
 H472 H 0.40543 0.32590 0.79812
 H473 H 0.58685 0.32224 0.80787
 H474 H 0.66324 0.29401 0.77528
 H475 H 0.66500 0.23308 0.71037
 H476 H 0.59052 0.19787 0.67947
 C477 C -0.01118 0.71204 0.71574
 C478 C 0.03271 0.73481 0.72891
 C479 C 0.03279 0.77121 0.76500
 C480 C -0.01097 0.78428 0.78788
 C481 C -0.05472 0.76096 0.77526
 C482 C -0.05492 0.72505 0.73865
 C483 C -0.09921 0.70283 0.72590
 C484 C -0.14196 0.71519 0.74928
 C485 C -0.14155 0.74939 0.78599
 C486 C -0.09863 0.77250 0.79867
 C487 C 0.07708 0.79365 0.77751
 C488 C 0.12006 0.78028 0.75514
 C489 C 0.12003 0.74448 0.72000
 C490 C 0.07695 0.72200 0.70676
 C491 C -0.01079 0.82177 0.82431
 C492 C -0.00979 0.85292 0.85456
 C493 C -0.01111 0.67500 0.67887
 C494 C -0.01021 0.64438 0.64810
 H495 H -0.10125 0.67555 0.69798
 H496 H -0.17548 0.69767 0.73930
 H497 H -0.17468 0.75809 0.80471
 H498 H -0.10020 0.79921 0.82714
 H499 H 0.07902 0.82161 0.80474
 H500 H 0.15356 0.79777 0.76516
 H501 H 0.15353 0.73416 0.70278
 H502 H 0.07878 0.69449 0.67908
 C503 C 0.49530 -0.21764 0.28864
 C504 C 0.46042 -0.21701 0.25109
 C505 C 0.46037 -0.25398 0.21545
 C506 C 0.49574 -0.29087 0.21703
 C507 C 0.53110 -0.29109 0.25412
 C508 C 0.53087 -0.25438 0.29003
 C509 C 0.56681 -0.25518 0.32653
 C510 C 0.60195 -0.29118 0.32753
 C511 C 0.60203 -0.32717 0.29256
 C512 C 0.56712 -0.32730 0.25617
 C513 C 0.42484 -0.25286 0.17856
 C514 C 0.39102 -0.21569 0.17628
 C515 C 0.39176 -0.17901 0.21049
 C516 C 0.42561 -0.17973 0.24786
 C517 C 0.49640 -0.32781 0.17978
 C518 C 0.49695 -0.35810 0.14851
 C519 C 0.49490 -0.18035 0.32558
 C520 C 0.49505 -0.14933 0.35617
 H521 H 0.56827 -0.22797 0.35453
 H522 H 0.62925 -0.29116 0.35563
 H523 H 0.62926 -0.35517 0.29363
 H524 H 0.56874 -0.35601 0.22972
 H525 H 0.42299 -0.28043 0.15093
 H526 H 0.36434 -0.21518 0.14761
 H527 H 0.36611 -0.14971 0.20792
 H528 H 0.42447 -0.15054 0.27380
 C529 C 0.00012 0.71727 0.28767
 C530 C 0.04406 0.74035 0.27536
 C531 C 0.04463 0.77667 0.23898
 C532 C 0.00131 0.78949 0.21484
 C533 C -0.04277 0.76691 0.22766
 C534 C -0.04335 0.73064 0.26410
 C535 C -0.08784 0.70854 0.27615
 C536 C -0.13055 0.72208 0.25310
 C537 C -0.13005 0.75778 0.21780
 C538 C -0.08675 0.77991 0.20491
 C539 C 0.08890 0.79963 0.22781
 C540 C 0.13132 0.78714 0.25196
 C541 C 0.13089 0.75131 0.28712
 C542 C 0.08787 0.72803 0.29881
 C543 C 0.00198 0.82591 0.17694
 C544 C 0.00205 0.85619 0.14553
 C545 C -0.00030 0.67997 0.32469
 C546 C -0.00036 0.64895 0.35534
 H547 H -0.09011 0.68069 0.30351
 H548 H -0.16421 0.70479 0.26267
 H549 H -0.16337 0.76824 0.20013
 H550 H -0.08821 0.80736 0.17710
 H551 H 0.09116 0.82763 0.20060
 H552 H 0.16469 0.80543 0.24342
 H553 H 0.16403 0.74163 0.30558
 H554 H 0.08934 0.70051 0.32656
 C555 C 0.49925 -0.21027 0.71758
 C556 C 0.45538 -0.23320 0.73037
 C557 C 0.45524 -0.26941 0.76673
 C558 C 0.49902 -0.28263 0.78969
 C559 C 0.54298 -0.26019 0.77644
 C560 C 0.54304 -0.22360 0.74048
 C561 C 0.58731 -0.20118 0.72816
 C562 C 0.63033 -0.21494 0.75045
 C563 C 0.63042 -0.25136 0.78501
 C564 C 0.58730 -0.27363 0.79826
 C565 C 0.41097 -0.29183 0.77906
 C566 C 0.36812 -0.27906 0.75583
 C567 C 0.36832 -0.24390 0.71998
 C568 C 0.41129 -0.22094 0.70739
 C569 C 0.49891 -0.31955 0.82672
 C570 C 0.49883 -0.35041 0.85730
 C571 C 0.49942 -0.17343 0.68044
 C572 C 0.49954 -0.14304 0.64938
 H573 H 0.58918 -0.17288 0.70125
 H574 H 0.66378 -0.19730 0.74083
 H575 H 0.66401 -0.26210 0.80199
 H576 H 0.58915 -0.30146 0.82567
 H577 H 0.40900 -0.31958 0.80655
 H578 H 0.33466 -0.29678 0.76546
 H579 H 0.33502 -0.23447 0.70173
 H580 H 0.40957 -0.19370 0.67938
 C581 C 0.50879 0.20959 0.28190
 C582 C 0.55261 0.22425 0.26011
 C583 C 0.55217 0.26074 0.22402
 C584 C 0.50795 0.28232 0.21010
 C585 C 0.46405 0.26728 0.23151
 C586 C 0.46447 0.23074 0.26752
 C587 C 0.42013 0.21616 0.28840
 C588 C 0.37665 0.23713 0.27408
 C589 C 0.37628 0.27294 0.23888
 C590 C 0.41934 0.28800 0.21771
 C591 C 0.59636 0.27474 0.20251
 C592 C 0.63972 0.25311 0.21616
 C593 C 0.64014 0.21748 0.25152
 C594 C 0.59724 0.20314 0.27350
 C595 C 0.50754 0.32002 0.17384
 C596 C 0.50682 0.35140 0.14377
 C597 C 0.50913 0.17292 0.31923
 C598 C 0.50856 0.14268 0.35044
 H599 H 0.41855 0.18842 0.31591
 H600 H 0.34309 0.22555 0.29040
 H601 H 0.34246 0.28916 0.22792
 H602 H 0.41715 0.31595 0.19044
 H603 H 0.59788 0.30233 0.17483
 H604 H 0.67313 0.26395 0.19911
 H605 H 0.67390 0.20091 0.26199
 H606 H 0.59944 0.17528 0.30086
 C607 C 0.00312 0.28471 0.71389
 C608 C -0.04086 0.26257 0.72772
 C609 C -0.04096 0.22631 0.76416
 C610 C 0.00282 0.21286 0.78708
 C611 C 0.04653 0.23618 0.77439
 C612 C 0.04678 0.27179 0.73731
 C613 C 0.09106 0.29403 0.72475
 C614 C 0.13369 0.28213 0.74877
 C615 C 0.13318 0.24834 0.78587
 C616 C 0.09037 0.22507 0.79834
 C617 C -0.08536 0.20454 0.77714
 C618 C -0.12849 0.21867 0.75528
 C619 C -0.12846 0.25452 0.72012
 C620 C -0.08523 0.27607 0.70606
 C621 C 0.00279 0.17528 0.82383
 C622 C 0.00241 0.14417 0.85440
 C623 C 0.00334 0.32135 0.67624
 C624 C 0.00336 0.35204 0.64527
 H625 H 0.09317 0.32104 0.69656
 H626 H 0.16721 0.29968 0.73893
 H627 H 0.16617 0.24005 0.80507
 H628 H 0.09195 0.19869 0.82717
 H629 H -0.08728 0.17667 0.80450
 H630 H -0.16212 0.20184 0.76581
 H631 H -0.16212 0.26554 0.70346
 H632 H -0.08705 0.30357 0.67831
 C633 C 0.28757 -0.00227 0.28464
 C634 C 0.26610 0.04151 0.26926
 C635 C 0.23020 0.04087 0.23250
 C636 C 0.21650 -0.00349 0.21101
 C637 C 0.23836 -0.04719 0.22610
 C638 C 0.27355 -0.04664 0.26353
 C639 C 0.29398 -0.09091 0.27904
 C640 C 0.28052 -0.13437 0.25763
 C641 C 0.24728 -0.13471 0.21998
 C642 C 0.22595 -0.09184 0.20451
 C643 C 0.20878 0.08503 0.21806
 C644 C 0.22258 0.12855 0.23927
 C645 C 0.25800 0.12921 0.27493
 C646 C 0.27958 0.08629 0.28998
 C647 C 0.17945 -0.00421 0.17394
 C648 C 0.14840 -0.00442 0.14341
 C649 C 0.32438 -0.00175 0.32188
 C650 C 0.35505 -0.00159 0.35274
 H651 H 0.32054 -0.09243 0.30775
 H652 H 0.29652 -0.16791 0.26986
 H653 H 0.23797 -0.16840 0.20273
 H654 H 0.19986 -0.09408 0.17541
 H655 H 0.18120 0.08641 0.19032
 H656 H 0.20564 0.16193 0.22802
 H657 H 0.26866 0.16313 0.29120
 H658 H 0.30677 0.08861 0.31804
 C659 C 0.21146 0.49783 0.71802
 C660 C 0.24971 0.53178 0.71600
 C661 C 0.28634 0.53143 0.75212
 C662 C 0.28457 0.49712 0.79007
 C663 C 0.24639 0.46314 0.79208
 C664 C 0.20957 0.46368 0.75613
 C665 C 0.17134 0.42989 0.75942
 C666 C 0.16956 0.39652 0.79711
 C667 C 0.20592 0.39550 0.83181
 C668 C 0.24397 0.42836 0.82953
 C669 C 0.32420 0.56570 0.74926
 C670 C 0.32586 0.59930 0.71180
 C671 C 0.28997 0.59977 0.67661
 C672 C 0.25226 0.56648 0.67849
 C673 C 0.32175 0.49718 0.82725
 C674 C 0.35274 0.49764 0.85798
 C675 C 0.17429 0.49800 0.68079
 C676 C 0.14372 0.49846 0.64963
 H677 H 0.14235 0.42907 0.73314
 H678 H 0.13974 0.37138 0.79946
 H679 H 0.20453 0.36925 0.86080
 H680 H 0.27131 0.42628 0.85747
 H681 H 0.35294 0.56685 0.77582
 H682 H 0.35522 0.62505 0.71001
 H683 H 0.29138 0.62603 0.64763
 H684 H 0.22521 0.56828 0.65025
 C685 C 0.71359 -0.00368 0.71580
 C686 C 0.72688 0.04027 0.73832
 C687 C 0.76257 0.04036 0.77528
 C688 C 0.78470 -0.00350 0.78944
 C689 C 0.77179 -0.04737 0.76658
 C690 C 0.73625 -0.04743 0.72945
 C691 C 0.72449 -0.09157 0.70647
 C692 C 0.74738 -0.13438 0.71971
 C693 C 0.78174 -0.13439 0.75637
 C694 C 0.79391 -0.09154 0.77975
 C695 C 0.77544 0.08475 0.79720
 C696 C 0.75379 0.12782 0.78281
 C697 C 0.71891 0.12771 0.74664
 C698 C 0.70540 0.08458 0.72455
 C699 C 0.82148 -0.00324 0.82677
 C700 C 0.85234 -0.00259 0.85746
 C701 C 0.67668 -0.00383 0.67858
 C702 C 0.64601 -0.00365 0.64768
 H703 H 0.69785 -0.09342 0.67785
 H704 H 0.73847 -0.16770 0.70136
 H705 H 0.79923 -0.16772 0.76658
 H706 H 0.82098 -0.09340 0.80797
 H707 H 0.80233 0.08669 0.82558
 H708 H 0.76398 0.16144 0.79996
 H709 H 0.70223 0.16121 0.73565
 H710 H 0.67812 0.08642 0.69654
 C711 C -0.21280 0.49428 0.28327
 C712 C -0.23479 0.53829 0.26921
 C713 C -0.27084 0.53844 0.23255
 C714 C -0.28503 0.49450 0.21053
 C715 C -0.26336 0.45043 0.22488
 C716 C -0.22705 0.45033 0.26130
 C717 C -0.20583 0.40586 0.27500
 C718 C -0.22010 0.36272 0.25336
 C719 C -0.25575 0.36280 0.21792
 C720 C -0.27720 0.40604 0.20361
 C721 C -0.29207 0.58293 0.21886
 C722 C -0.27839 0.62597 0.24105
 C723 C -0.24357 0.62574 0.27729
 C724 C -0.22172 0.58258 0.29120
 C725 C -0.32225 0.49476 0.17352
 C726 C -0.35336 0.49564 0.14299
 C727 C -0.17564 0.49430 0.32037
 C728 C -0.14494 0.49481 0.35132
 H729 H -0.17809 0.40394 0.30255
 H730 H -0.20348 0.32903 0.26424
 H731 H -0.26659 0.32923 0.20114
 H732 H -0.30461 0.40427 0.17572
 H733 H -0.31951 0.58495 0.19102
 H734 H -0.29511 0.65963 0.23026
 H735 H -0.23351 0.65916 0.29479
 H736 H -0.19468 0.58434 0.31945
 C737 C 0.28324 0.00716 0.71045
 C738 C 0.25952 0.05025 0.72416
 C739 C 0.22236 0.04881 0.75953
 C740 C 0.20952 0.00433 0.78134
 C741 C 0.23255 -0.03892 0.76680
 C742 C 0.26941 -0.03751 0.73115
 C743 C 0.29163 -0.08126 0.71691
 C744 C 0.27781 -0.12512 0.73727
 C745 C 0.24192 -0.12647 0.77220
 C746 C 0.21943 -0.08401 0.78699
 C747 C 0.19860 0.09225 0.77201
 C748 C 0.21107 0.13577 0.75004
 C749 C 0.24776 0.13730 0.71592
 C750 C 0.27191 0.09514 0.70304
 C751 C 0.17294 0.00305 0.81890
 C752 C 0.14277 0.00183 0.85026
 C753 C 0.32148 0.00849 0.67467
 C754 C 0.35307 0.00859 0.64479
 H755 H 0.31974 -0.08211 0.68984
 H756 H 0.29505 -0.15822 0.72587
 H757 H 0.23143 -0.16060 0.78787
 H758 H 0.19157 -0.08700 0.81419
 H759 H 0.16990 0.09299 0.79849
 H760 H 0.19212 0.16848 0.75948
 H761 H 0.25740 0.17129 0.69917
 H762 H 0.30007 0.09807 0.67615
 C763 C 0.21656 0.50983 0.29009
 C764 C 0.23973 0.55277 0.27484
 C765 C 0.27691 0.55058 0.23957
 C766 C 0.28992 0.50560 0.21903
 C767 C 0.26724 0.46260 0.23489
 C768 C 0.23044 0.46473 0.27052
 C769 C 0.20834 0.42123 0.28592
 C770 C 0.22253 0.37691 0.26703
 C771 C 0.25861 0.37486 0.23235
 C772 C 0.28072 0.41705 0.21614
 C773 C 0.30060 0.59378 0.22595
 C774 C 0.28774 0.63789 0.24641
 C775 C 0.25046 0.64020 0.27986
 C776 C 0.22671 0.59820 0.29421
 C777 C 0.32619 0.50359 0.18127
 C778 C 0.35614 0.50192 0.14978
 C779 C 0.17899 0.51151 0.32648
 C780 C 0.14778 0.51104 0.35670
 H781 H 0.18006 0.42091 0.31282
 H782 H 0.20544 0.34397 0.27938
 H783 H 0.26961 0.34036 0.21810
 H784 H 0.30868 0.41348 0.18913
 H785 H 0.32956 0.59389 0.19976
 H786 H 0.30686 0.67043 0.23628
 H787 H 0.24028 0.67465 0.29524
 H788 H 0.19836 0.60170 0.32083
 C789 C 0.71704 0.00055 0.28905
 C790 C 0.73934 0.04505 0.27731
 C791 C 0.77518 0.04676 0.24071
 C792 C 0.78907 0.00381 0.21679
 C793 C 0.76738 -0.04084 0.22916
 C794 C 0.73110 -0.04245 0.26531
 C795 C 0.70968 -0.08742 0.27691
 C796 C 0.72379 -0.12962 0.25346
 C797 C 0.75943 -0.12810 0.21823
 C798 C 0.78108 -0.08433 0.20605
 C799 C 0.79637 0.09178 0.22892
 C800 C 0.78292 0.13381 0.25307
 C801 C 0.74868 0.13194 0.28966
 C802 C 0.72673 0.08825 0.30153
 C803 C 0.82567 0.00534 0.17950
 C804 C 0.85595 0.00563 0.14838
 C805 C 0.67937 -0.00090 0.32525
 C806 C 0.64808 -0.00182 0.35533
 H807 H 0.68190 -0.09047 0.30417
 H808 H 0.70694 -0.16368 0.26265
 H809 H 0.77031 -0.16098 0.20016
 H810 H 0.80860 -0.08501 0.17837
 H811 H 0.82358 0.09496 0.20110
 H812 H 0.79950 0.16794 0.24366
 H813 H 0.73903 0.16452 0.30893
 H814 H 0.70002 0.08871 0.33000
 C815 C -0.21662 0.50051 0.71225
 C816 C -0.21297 0.53441 0.75038
 C817 C -0.24950 0.53647 0.78629
 C818 C -0.28915 0.50423 0.78417
 C819 C -0.29229 0.46965 0.74661
 C820 C -0.25595 0.46785 0.71048
 C821 C -0.25978 0.43289 0.67336
 C822 C -0.29830 0.40049 0.67211
 C823 C -0.33381 0.40221 0.70747
 C824 C -0.33107 0.43635 0.74434
 C825 C -0.24519 0.57079 0.82396
 C826 C -0.20549 0.60163 0.82653
 C827 C -0.16942 0.59912 0.79181
 C828 C -0.17313 0.56631 0.75384
 C829 C -0.32609 0.50585 0.82122
 C830 C -0.35657 0.50652 0.85220
 C831 C -0.17983 0.49923 0.67500
 C832 C -0.14905 0.49854 0.64430
 H833 H -0.23299 0.43009 0.64510
 H834 H -0.30058 0.37389 0.64355
 H835 H -0.36366 0.37697 0.70634
 H836 H -0.35956 0.43624 0.77104
 H837 H -0.27222 0.57393 0.85196
 H838 H -0.20257 0.62742 0.85577
 H839 H -0.13832 0.62265 0.79436
 H840 H -0.14424 0.56595 0.72758
   
