data_POSCAR
  _audit_creation_date              2014-09-24
  _audit_creation_method            'ToBaCCo'
  _symmetry_space_group_name_H-M    'P1'
  _symmetry_Int_Tables_number       1
  _symmetry_cell_setting            triclinic
  loop_
  _symmetry_equiv_pos_as_xyz
 x,y,z
_cell_length_a 30.5687
_cell_length_b 30.5200
_cell_length_c 36.7207
_cell_angle_alpha 90.008800
_cell_angle_beta 90.011000
_cell_angle_gamma 90.011200
loop_
  _atom_site_label
  _atom_site_type_symbol
  _atom_site_fract_x
  _atom_site_fract_y
  _atom_site_fract_z
C1 C 1.25008 0.24956 0.25013
 C2 C 0.74967 -0.24991 0.25005
 C3 C 0.75045 0.25047 -0.24992
 C4 C 1.25025 -0.24970 -0.24991
 C5 C 0.24946 0.24990 0.74996
 C6 C 0.74988 0.74947 0.75012
 C7 C 0.75014 0.25012 0.25000
 C8 C 0.25032 0.75039 0.25005
 O9 O 1.08353 0.04994 0.02574
 O10 O 0.91707 -0.05121 0.02539
 O11 O 0.94964 0.08289 0.02497
 O12 O 1.05092 -0.08426 0.02605
 O13 O 0.92532 0.02251 0.04530
 O14 O 1.07514 -0.02371 0.04615
 O15 O 0.97734 -0.07542 0.04590
 O16 O 1.02305 0.07462 0.04545
 C17 C 1.06258 0.06929 0.04997
 C18 C 0.93773 -0.07019 0.04999
 C19 C 0.93036 0.06222 0.04942
 C20 C 1.07023 -0.06343 0.05042
 O21 O 1.08378 -0.05160 -0.02420
 O22 O 0.91722 0.04981 -0.02529
 O23 O 1.05116 0.08257 -0.02480
 O24 O 0.94992 -0.08433 -0.02458
 O25 O 0.92588 -0.02393 -0.04509
 O26 O 1.07572 0.02201 -0.04459
 O27 O 1.02349 -0.07601 -0.04450
 O28 O 0.97769 0.07407 -0.04532
 Co29 Co 1.07186 -0.00083 0.00074
 Co30 Co 0.92907 -0.00071 0.00011
 Co31 Co 1.00039 0.07081 0.00010
 Co32 Co 1.00041 -0.07226 0.00069
 O33 O 1.00044 -0.00074 0.00041
 C34 C 1.06307 -0.07076 -0.04869
 C35 C 0.93807 0.06904 -0.04965
 C36 C 1.07051 0.06164 -0.04905
 C37 C 0.93088 -0.06365 -0.04915
 O38 O 1.08426 0.55186 0.52403
 O39 O 0.91756 0.45015 0.52495
 O40 O 0.95039 0.58433 0.52473
 O41 O 1.05149 0.41766 0.52481
 O42 O 0.92628 0.52382 0.54503
 O43 O 1.07617 0.47825 0.54454
 O44 O 0.97799 0.42605 0.54512
 O45 O 1.02399 0.57611 0.54443
 C46 C 1.06360 0.57099 0.54855
 C47 C 0.93835 0.43095 0.54937
 C48 C 0.93132 0.56352 0.54922
 C49 C 1.07089 0.43862 0.54904
 O50 O 1.08404 0.45020 0.47430
 O51 O 0.91738 0.55144 0.47470
 O52 O 1.05121 0.58439 0.47378
 O53 O 0.95015 0.41735 0.47468
 O54 O 0.92573 0.47778 0.45452
 O55 O 1.07557 0.52385 0.45377
 O56 O 1.02358 0.42561 0.45445
 O57 O 0.97760 0.57559 0.45411
 Co58 Co 1.07231 0.50103 0.49918
 Co59 Co 0.92946 0.50081 0.49977
 Co60 Co 1.00079 0.57238 0.49928
 Co61 Co 1.00080 0.42937 0.49975
 O62 O 1.00085 0.50089 0.49949
 C63 C 1.06314 0.43082 0.45005
 C64 C 0.93798 0.57044 0.45009
 C65 C 1.07057 0.56355 0.44944
 C66 C 0.93083 0.43810 0.45029
 O67 O 0.58295 0.05010 0.52571
 O68 O 0.41646 -0.05111 0.52467
 O69 O 0.44901 0.08306 0.52500
 O70 O 0.55031 -0.08401 0.52470
 O71 O 0.42451 0.02252 0.54487
 O72 O 0.57428 -0.02365 0.54533
 O73 O 0.47680 -0.07560 0.54483
 O74 O 0.52247 0.07449 0.54566
 C75 C 0.56207 0.06940 0.55004
 C76 C 0.43723 -0.07030 0.54910
 C77 C 0.42959 0.06218 0.54924
 C78 C 0.56936 -0.06338 0.54930
 O79 O 0.58299 -0.05076 0.47472
 O80 O 0.41675 0.05027 0.47445
 O81 O 0.55067 0.08334 0.47546
 O82 O 0.44912 -0.08392 0.47440
 O83 O 0.42505 -0.02341 0.45420
 O84 O 0.57485 0.02298 0.45502
 O85 O 0.52265 -0.07503 0.45435
 O86 O 0.47727 0.07506 0.45485
 Co87 Co 0.57109 -0.00034 0.50017
 Co88 Co 0.42835 -0.00043 0.49957
 Co89 Co 0.49985 0.07124 0.50022
 Co90 Co 0.49973 -0.07188 0.49960
 O91 O 0.49975 -0.00034 0.49989
 C92 C 0.56224 -0.06975 0.45016
 C93 C 0.43775 0.06966 0.45027
 C94 C 0.56992 0.06270 0.45098
 C95 C 0.42985 -0.06315 0.44999
 O96 O 0.57438 0.52296 0.04551
 O97 O 0.42458 0.47724 0.04590
 O98 O 0.47618 0.57515 0.04620
 O99 O 0.52241 0.42511 0.04527
 O100 O 0.41573 0.55095 0.02605
 O101 O 0.58267 0.44946 0.02494
 O102 O 0.44880 0.41687 0.02543
 O103 O 0.54971 0.58358 0.02588
 C104 C 0.56909 0.56256 0.05006
 C105 C 0.42980 0.43758 0.05000
 C106 C 0.43651 0.57028 0.05044
 C107 C 0.56205 0.43013 0.04938
 O108 O 0.57386 0.47770 -0.04529
 O109 O 0.42400 0.52345 -0.04448
 O110 O 0.52188 0.57581 -0.04451
 O111 O 0.47598 0.42574 -0.04510
 O112 O 0.41568 0.44976 -0.02455
 O113 O 0.58234 0.55126 -0.02468
 O114 O 0.54962 0.41708 -0.02536
 O115 O 0.44839 0.58385 -0.02419
 Co116 Co 0.57059 0.50035 0.00014
 Co117 Co 0.42774 0.50035 0.00071
 Co118 Co 0.49905 0.57191 0.00081
 Co119 Co 0.49919 0.42891 0.00010
 O120 O 0.49915 0.50038 0.00044
 C121 C 0.56888 0.43802 -0.04967
 C122 C 0.42922 0.56310 -0.04867
 C123 C 0.56146 0.57064 -0.04894
 C124 C 0.43633 0.43070 -0.04913
 C125 C 1.12885 0.18156 0.13584
 C126 C 1.12431 0.17636 0.17762
 C127 C 1.17439 0.17496 0.18074
 C128 C 1.17926 0.18053 0.13937
 C129 C 1.12884 0.13145 0.13198
 C130 C 1.17893 0.13010 0.13514
 C131 C 1.12387 0.12579 0.17335
 C132 C 1.17444 0.12485 0.17694
 C133 C 1.20045 0.20019 0.20673
 C134 C 1.22256 0.22198 0.22696
 C135 C 1.10424 0.10819 0.10382
 C136 C 1.08479 0.08996 0.07968
 H137 H 1.10984 0.20462 0.11863
 H138 H 1.10218 0.19568 0.19542
 H139 H 1.20233 0.20331 0.12570
 H140 H 1.20110 0.11081 0.11736
 H141 H 1.10078 0.10299 0.18695
 H142 H 1.19349 0.10186 0.19417
 C143 C 1.17945 0.62811 0.63668
 C144 C 1.18338 0.67860 0.63870
 C145 C 1.17498 0.67631 0.67990
 C146 C 1.17143 0.62614 0.67831
 C147 C 1.12996 0.63295 0.63068
 C148 C 1.12146 0.63058 0.67187
 C149 C 1.13356 0.68311 0.63233
 C150 C 1.12548 0.68118 0.67393
 C151 C 1.20077 0.70140 0.70618
 C152 C 1.22273 0.72301 0.72666
 C153 C 1.10554 0.60976 0.60235
 C154 C 1.08608 0.59159 0.57817
 H155 H 1.20136 0.60603 0.62104
 H156 H 1.20912 0.69863 0.62536
 H157 H 1.18731 0.60304 0.69756
 H158 H 1.09570 0.61053 0.68514
 H159 H 1.11773 0.70628 0.61311
 H160 H 1.10362 0.70328 0.68957
 C161 C 0.62959 0.18247 0.63499
 C162 C 0.62421 0.17830 0.67680
 C163 C 0.67421 0.17602 0.68061
 C164 C 0.67991 0.18054 0.63920
 C165 C 0.62862 0.13227 0.63187
 C166 C 0.67863 0.13003 0.63571
 C167 C 0.62283 0.12766 0.67326
 C168 C 0.67330 0.12582 0.67753
 C169 C 0.70035 0.20130 0.70665
 C170 C 0.72259 0.22302 0.72693
 C171 C 0.60396 0.10877 0.60374
 C172 C 0.58442 0.09033 0.57968
 H173 H 0.61137 0.20554 0.61721
 H174 H 0.60212 0.19843 0.69400
 H175 H 0.70366 0.20254 0.62546
 H176 H 0.70076 0.10993 0.61853
 H177 H 0.59906 0.10564 0.68694
 H178 H 0.69156 0.10280 0.69533
 C179 C 0.68168 0.62783 0.13614
 C180 C 0.68147 0.67837 0.13929
 C181 C 0.67546 0.67402 0.18066
 C182 C 0.67603 0.62381 0.17792
 C183 C 0.63169 0.62863 0.13196
 C184 C 0.62558 0.62419 0.17332
 C185 C 0.63116 0.67884 0.13474
 C186 C 0.62547 0.67487 0.17653
 C187 C 0.70073 0.70007 0.20663
 C188 C 0.72241 0.72228 0.22686
 C189 C 0.60825 0.60413 0.10383
 C190 C 0.58988 0.58475 0.07972
 H191 H 0.70452 0.60821 0.11921
 H192 H 0.70474 0.70093 0.12561
 H193 H 0.69477 0.60151 0.19600
 H194 H 0.60230 0.60160 0.18694
 H195 H 0.61246 0.70118 0.11668
 H196 H 0.60268 0.69453 0.19348
 C197 C 0.82068 -0.13297 0.13339
 C198 C 0.82260 -0.18312 0.13928
 C199 C 0.82525 -0.17541 0.18056
 C200 C 0.82294 -0.12558 0.17509
 C201 C 0.87088 -0.13194 0.13185
 C202 C 0.87362 -0.12413 0.17311
 C203 C 0.87313 -0.18178 0.13736
 C204 C 0.87546 -0.17442 0.17905
 C205 C 0.79921 -0.20063 0.20654
 C206 C 0.77713 -0.22238 0.22680
 C207 C 0.89558 -0.10874 0.10372
 C208 C 0.91521 -0.09064 0.07963
 H209 H 0.79844 -0.11567 0.11430
 H210 H 0.80133 -0.20766 0.12567
 H211 H 0.80200 -0.10280 0.19094
 H212 H 0.89492 -0.09958 0.18665
 H213 H 0.89404 -0.20462 0.12153
 H214 H 0.89764 -0.19177 0.19816
 C215 C 0.87736 0.37311 0.67252
 C216 C 0.82686 0.37466 0.67662
 C217 C 0.82627 0.32449 0.68000
 C218 C 0.87630 0.32250 0.67636
 C219 C 0.87176 0.36809 0.63114
 C220 C 0.87112 0.31792 0.63457
 C221 C 0.82173 0.37003 0.63482
 C222 C 0.82076 0.31955 0.63861
 C223 C 0.80023 0.29932 0.70617
 C224 C 0.77811 0.27773 0.72662
 C225 C 0.89641 0.39154 0.60298
 C226 C 0.91595 0.40998 0.57894
 H227 H 0.90092 0.39542 0.68614
 H228 H 0.80838 0.39772 0.69423
 H229 H 0.89846 0.30268 0.69375
 H230 H 0.88957 0.29481 0.61698
 H231 H 0.79953 0.38982 0.61744
 H232 H 0.79722 0.29726 0.62493
 C233 C 0.32114 -0.13774 0.63066
 C234 C 0.32717 -0.18683 0.63983
 C235 C 0.32597 -0.17537 0.68055
 C236 C 0.31956 -0.12659 0.67179
 C237 C 0.37106 -0.13204 0.63140
 C238 C 0.36994 -0.12048 0.67211
 C239 C 0.37742 -0.18083 0.64019
 C240 C 0.37589 -0.16973 0.68135
 C241 C 0.30009 -0.20052 0.70672
 C242 C 0.27798 -0.22222 0.72701
 C243 C 0.39546 -0.10889 0.60305
 C244 C 0.41487 -0.09079 0.57882
 H245 H 0.29891 -0.12434 0.60951
 H246 H 0.30930 -0.21439 0.62685
 H247 H 0.29548 -0.10460 0.68512
 H248 H 0.38784 -0.09289 0.68501
 H249 H 0.40148 -0.20287 0.62688
 H250 H 0.39806 -0.18317 0.70252
 C251 C 0.31766 0.36915 0.13436
 C252 C 0.32037 0.31888 0.13921
 C253 C 0.32414 0.32547 0.18056
 C254 C 0.32106 0.37541 0.17612
 C255 C 0.36778 0.37088 0.13182
 C256 C 0.37164 0.37757 0.17316
 C257 C 0.37082 0.32094 0.13629
 C258 C 0.37427 0.32715 0.17808
 C259 C 0.29893 0.29946 0.20657
 C260 C 0.27729 0.27730 0.22686
 C261 C 0.39109 0.39547 0.10369
 C262 C 0.40929 0.41504 0.07960
 H263 H 0.29464 0.38669 0.11607
 H264 H 0.29901 0.29447 0.12556
 H265 H 0.30031 0.39748 0.19282
 H266 H 0.39302 0.40201 0.18674
 H267 H 0.39155 0.29883 0.11960
 H268 H 0.39722 0.30956 0.19639
 C269 C 0.82135 0.13133 -0.13422
 C270 C 0.82174 0.18173 -0.13881
 C271 C 0.82601 0.17569 -0.18020
 C272 C 0.82525 0.12560 -0.17602
 C273 C 0.87151 0.13191 -0.13145
 C274 C 0.87586 0.12579 -0.17283
 C275 C 0.87221 0.18200 -0.13568
 C276 C 0.87616 0.17631 -0.17747
 C277 C 0.79999 0.20103 -0.20628
 C278 C 0.77795 0.22284 -0.22662
 C279 C 0.89616 0.10842 -0.10332
 C280 C 0.91570 0.08998 -0.07927
 H281 H 0.79906 0.11259 -0.11614
 H282 H 0.79921 0.20499 -0.12508
 H283 H 0.80565 0.10270 -0.19292
 H284 H 0.89841 0.10251 -0.18649
 H285 H 0.89178 0.20496 -0.11880
 H286 H 0.89841 0.19509 -0.19556
 C287 C 0.87670 0.62758 0.32702
 C288 C 0.82621 0.62583 0.32292
 C289 C 0.82547 0.67600 0.31970
 C290 C 0.87548 0.67819 0.32332
 C291 C 0.87107 0.63245 0.36839
 C292 C 0.87027 0.68262 0.36511
 C293 C 0.82106 0.63030 0.36473
 C294 C 0.81993 0.68079 0.36108
 C295 C 0.79941 0.70118 0.29370
 C296 C 0.77728 0.72283 0.27340
 C297 C 0.89576 0.60918 0.39648
 C298 C 0.91540 0.59100 0.42053
 H299 H 0.90035 0.60540 0.31338
 H300 H 0.80778 0.60281 0.30523
 H301 H 0.89752 0.69818 0.30597
 H302 H 0.88866 0.70570 0.38278
 H303 H 0.79897 0.61034 0.38207
 H304 H 0.79630 0.70295 0.37479
 C305 C 0.37696 0.12644 0.32682
 C306 C 0.32643 0.12516 0.32298
 C307 C 0.32617 0.17530 0.31940
 C308 C 0.37622 0.17703 0.32277
 C309 C 0.37167 0.13181 0.36818
 C310 C 0.37135 0.18194 0.36455
 C311 C 0.32161 0.13012 0.36477
 C312 C 0.32097 0.18057 0.36077
 C313 C 0.30007 0.20047 0.29342
 C314 C 0.27785 0.22216 0.27322
 C315 C 0.39621 0.10854 0.39637
 C316 C 0.41560 0.09032 0.42053
 H317 H 0.40030 0.10389 0.31323
 H318 H 0.30765 0.10214 0.30555
 H319 H 0.39833 0.19662 0.30516
 H320 H 0.39008 0.20502 0.38196
 H321 H 0.29945 0.11057 0.38236
 H322 H 0.29766 0.20310 0.37443
 C323 C 0.37351 0.62438 -0.17216
 C324 C 0.32307 0.62437 -0.17681
 C325 C 0.32409 0.67454 -0.18002
 C326 C 0.37408 0.67502 -0.17584
 C327 C 0.36739 0.62944 -0.13085
 C328 C 0.36837 0.67960 -0.13409
 C329 C 0.31739 0.62901 -0.13508
 C330 C 0.31806 0.67950 -0.13870
 C331 C 0.29903 0.70043 -0.20625
 C332 C 0.27747 0.72254 -0.22664
 C333 C 0.39055 0.60501 -0.10251
 C334 C 0.40868 0.58556 -0.07832
 H335 H 0.39660 0.60141 -0.18555
 H336 H 0.30415 0.60199 -0.19471
 H337 H 0.39707 0.69424 -0.19294
 H338 H 0.38725 0.70203 -0.11621
 H339 H 0.29435 0.60983 -0.11800
 H340 H 0.29498 0.70245 -0.12524
 C341 C 1.12501 -0.12568 -0.17223
 C342 C 1.17561 -0.12545 -0.17551
 C343 C 1.17480 -0.17546 -0.18009
 C344 C 1.12467 -0.17614 -0.17729
 C345 C 1.12953 -0.13233 -0.13093
 C346 C 1.12878 -0.18234 -0.13556
 C347 C 1.17966 -0.13169 -0.13377
 C348 C 1.17923 -0.18202 -0.13878
 C349 C 1.20071 -0.20052 -0.20630
 C350 C 1.22273 -0.22219 -0.22667
 C351 C 1.10501 -0.10928 -0.10259
 C352 C 1.08551 -0.09123 -0.07838
 H353 H 1.10240 -0.10222 -0.18561
 H354 H 1.19517 -0.10237 -0.19227
 H355 H 1.10239 -0.19470 -0.19551
 H356 H 1.10926 -0.20548 -0.11883
 H357 H 1.20199 -0.11316 -0.11556
 H358 H 1.20181 -0.20546 -0.12533
 C359 C 1.12365 0.37277 0.32699
 C360 C 1.17415 0.37419 0.32288
 C361 C 1.17457 0.32400 0.31973
 C362 C 1.12455 0.32214 0.32337
 C363 C 1.12928 0.36795 0.36837
 C364 C 1.12976 0.31777 0.36516
 C365 C 1.17931 0.36978 0.36470
 C366 C 1.18011 0.31928 0.36112
 C367 C 1.20050 0.29865 0.29376
 C368 C 1.22254 0.27690 0.27347
 C369 C 1.10481 0.39149 0.39644
 C370 C 1.08539 0.40993 0.42048
 H371 H 1.10013 0.39506 0.31332
 H372 H 1.19271 0.39705 0.30517
 H373 H 1.10237 0.30225 0.30604
 H374 H 1.11124 0.29485 0.38286
 H375 H 1.20153 0.38964 0.38201
 H376 H 1.20361 0.29700 0.37485
 C377 C 0.66662 -0.16273 0.37706
 C378 C 0.64736 -0.19659 0.35013
 C379 C 0.67391 -0.17533 0.31933
 C380 C 0.69352 -0.14179 0.34591
 C381 C 0.62860 -0.13164 0.36811
 C382 C 0.65513 -0.11029 0.33733
 C383 C 0.60896 -0.16517 0.34154
 C384 C 0.63592 -0.14426 0.31026
 C385 C 0.69986 -0.20064 0.29334
 C386 C 0.72198 -0.22243 0.27314
 C387 C 0.60411 -0.10835 0.39630
 C388 C 0.58464 -0.09020 0.42046
 H389 H 0.67898 -0.17008 0.40483
 H390 H 0.64447 -0.23236 0.35508
 H391 H 0.72858 -0.13248 0.34739
 H392 H 0.65800 -0.07451 0.33243
 H393 H 0.57390 -0.17449 0.34008
 H394 H 0.62364 -0.13700 0.28245
 C395 C 0.67458 0.34645 -0.12351
 C396 C 0.65633 0.30709 -0.14529
 C397 C 0.67622 0.32652 -0.18016
 C398 C 0.69480 0.36555 -0.15873
 C399 C 0.63218 0.37177 -0.13141
 C400 C 0.65204 0.39128 -0.16627
 C401 C 0.61357 0.33274 -0.15283
 C402 C 0.63383 0.35180 -0.18817
 C403 C 0.70157 0.30053 -0.20625
 C404 C 0.72323 0.27835 -0.22660
 C405 C 0.60851 0.39627 -0.10329
 C406 C 0.58994 0.41570 -0.07926
 H407 H 0.69111 0.34448 -0.09664
 H408 H 0.65837 0.27220 -0.13693
 H409 H 0.72848 0.37878 -0.16144
 H410 H 0.64999 0.42619 -0.17458
 H411 H 0.57990 0.31951 -0.15010
 H412 H 0.61737 0.35370 -0.21507
 C413 C 1.12578 0.12388 -0.17255
 C414 C 1.12537 0.17458 -0.17571
 C415 C 1.17533 0.17400 -0.18027
 C416 C 1.17617 0.12377 -0.17758
 C417 C 1.13236 0.12827 -0.13123
 C418 C 1.18231 0.12774 -0.13583
 C419 C 1.13156 0.17849 -0.13396
 C420 C 1.18181 0.17829 -0.13893
 C421 C 1.20029 0.20015 -0.20645
 C422 C 1.22191 0.22231 -0.22681
 C423 C 1.10931 0.10354 -0.10294
 C424 C 1.09119 0.08398 -0.07876
 H425 H 1.10245 0.10120 -0.18604
 H426 H 1.10226 0.19413 -0.19243
 H427 H 1.19479 0.10158 -0.19584
 H428 H 1.20548 0.10823 -0.11914
 H429 H 1.11297 0.20073 -0.11572
 H430 H 1.20512 0.20095 -0.12539
 C431 C 1.12794 0.62516 0.32615
 C432 C 1.12722 0.67580 0.32243
 C433 C 1.17728 0.67558 0.31855
 C434 C 1.17843 0.62539 0.32181
 C435 C 1.13361 0.63019 0.36753
 C436 C 1.18367 0.63002 0.36360
 C437 C 1.13250 0.68038 0.36423
 C438 C 1.18286 0.68053 0.35995
 C439 C 1.20255 0.70166 0.29236
 C440 C 1.22430 0.72393 0.27204
 C441 C 1.11010 0.60557 0.39577
 C442 C 1.09161 0.58602 0.41984
 H443 H 1.10509 0.60211 0.31254
 H444 H 1.10427 0.69489 0.30520
 H445 H 1.19758 0.60304 0.30407
 H446 H 1.20668 0.61097 0.38081
 H447 H 1.11339 0.70278 0.38196
 H448 H 1.20570 0.70356 0.37361
 C449 C 0.61171 0.16230 0.34278
 C450 C 0.64918 0.19497 0.35119
 C451 C 0.67618 0.17460 0.32023
 C452 C 0.63911 0.14231 0.31135
 C453 C 0.63259 0.12939 0.36925
 C454 C 0.65958 0.10897 0.33830
 C455 C 0.66967 0.16171 0.37802
 C456 C 0.69700 0.14168 0.34671
 C457 C 0.70133 0.20048 0.29398
 C458 C 0.72291 0.22251 0.27349
 C459 C 0.60920 0.10486 0.39746
 C460 C 0.59081 0.08530 0.42150
 H461 H 0.57636 0.17049 0.34149
 H462 H 0.64517 0.23061 0.35620
 H463 H 0.62686 0.13464 0.28361
 H464 H 0.66359 0.07331 0.33333
 H465 H 0.68201 0.16945 0.40572
 H466 H 0.73235 0.13348 0.34803
 C467 C 0.67805 0.63138 -0.13413
 C468 C 0.67365 0.62569 -0.17590
 C469 C 0.67361 0.67577 -0.18008
 C470 C 0.67838 0.68177 -0.13873
 C471 C 0.62795 0.63273 -0.13105
 C472 C 0.62795 0.68281 -0.13528
 C473 C 0.62308 0.62664 -0.17239
 C474 C 0.62350 0.67716 -0.17704
 C475 C 0.69978 0.70070 -0.20626
 C476 C 0.72204 0.72220 -0.22663
 C477 C 0.60327 0.60961 -0.10277
 C478 C 0.58376 0.59141 -0.07862
 H479 H 0.70022 0.61231 -0.11618
 H480 H 0.69274 0.60250 -0.19292
 H481 H 0.70140 0.70470 -0.12517
 H482 H 0.60890 0.70605 -0.11827
 H483 H 0.60004 0.60369 -0.18588
 H484 H 0.60138 0.69626 -0.19500
 C485 C 0.87435 -0.12538 -0.17238
 C486 C 0.87459 -0.17604 -0.17594
 C487 C 0.82458 -0.17530 -0.18000
 C488 C 0.82389 -0.12510 -0.17690
 C489 C 0.86837 -0.13022 -0.13103
 C490 C 0.81836 -0.12953 -0.13513
 C491 C 0.86902 -0.18041 -0.13416
 C492 C 0.81869 -0.18005 -0.13864
 C493 C 0.79923 -0.20110 -0.20617
 C494 C 0.77743 -0.22305 -0.22656
 C495 C 0.89182 -0.10574 -0.10281
 C496 C 0.91015 -0.08621 -0.07872
 H497 H 0.89753 -0.10260 -0.18591
 H498 H 0.89741 -0.19545 -0.19304
 H499 H 0.80505 -0.10267 -0.19479
 H500 H 0.79548 -0.11016 -0.11805
 H501 H 0.88783 -0.20289 -0.11628
 H502 H 0.79553 -0.20280 -0.12504
 C503 C 0.81811 0.37105 0.36499
 C504 C 0.82272 0.37631 0.32321
 C505 C 0.82455 0.32620 0.31950
 C506 C 0.81960 0.32063 0.36088
 C507 C 0.86820 0.37153 0.36843
 C508 C 0.87000 0.32142 0.36469
 C509 C 0.87325 0.37720 0.32706
 C510 C 0.87465 0.32662 0.32289
 C511 C 0.79930 0.30019 0.29339
 C512 C 0.77759 0.27800 0.27311
 C513 C 0.89161 0.39608 0.39664
 C514 C 0.90998 0.41561 0.42072
 H515 H 0.79511 0.38957 0.38260
 H516 H 0.80300 0.39858 0.30584
 H517 H 0.79727 0.29709 0.37452
 H518 H 0.88969 0.29911 0.38205
 H519 H 0.89560 0.40076 0.31350
 H520 H 0.89759 0.30806 0.30526
 C521 C 0.36909 -0.17988 0.36392
 C522 C 0.31865 -0.18129 0.36045
 C523 C 0.32307 -0.17515 0.31907
 C524 C 0.37320 -0.17411 0.32213
 C525 C 0.36671 -0.12983 0.36813
 C526 C 0.37122 -0.12361 0.32676
 C527 C 0.31658 -0.13093 0.36503
 C528 C 0.32066 -0.12511 0.32325
 C529 C 0.29786 -0.20116 0.29279
 C530 C 0.27620 -0.22332 0.27231
 C531 C 0.39023 -0.10522 0.39638
 C532 C 0.40875 -0.08565 0.42043
 H533 H 0.38923 -0.20218 0.38092
 H534 H 0.29677 -0.20527 0.37406
 H535 H 0.39623 -0.19213 0.30419
 H536 H 0.39310 -0.09961 0.31321
 H537 H 0.29350 -0.11295 0.38295
 H538 H 0.30049 -0.10285 0.30624
 C539 C 0.37045 0.31788 -0.13500
 C540 C 0.32003 0.31841 -0.13869
 C541 C 0.32502 0.32414 -0.18005
 C542 C 0.37511 0.32325 -0.17677
 C543 C 0.36995 0.36799 -0.13102
 C544 C 0.37502 0.37381 -0.17236
 C545 C 0.31986 0.36884 -0.13433
 C546 C 0.32447 0.37426 -0.17611
 C547 C 0.29922 0.29884 -0.20626
 C548 C 0.27719 0.27717 -0.22668
 C549 C 0.39434 0.39150 -0.10278
 C550 C 0.41381 0.40989 -0.07869
 H551 H 0.38960 0.29494 -0.11779
 H552 H 0.29715 0.29536 -0.12513
 H553 H 0.39752 0.30423 -0.19453
 H554 H 0.39793 0.39688 -0.18587
 H555 H 0.29740 0.38783 -0.11658
 H556 H 0.30527 0.39714 -0.19334
 C557 C 1.12721 -0.12544 0.17370
 C558 C 1.12694 -0.17612 0.17713
 C559 C 1.17696 -0.17542 0.18133
 C560 C 1.17766 -0.12520 0.17835
 C561 C 1.13328 -0.13008 0.13232
 C562 C 1.18329 -0.12945 0.13656
 C563 C 1.13262 -0.18031 0.13534
 C564 C 1.18295 -0.17998 0.13994
 C565 C 1.20228 -0.20140 0.20755
 C566 C 1.22412 -0.22348 0.22794
 C567 C 1.10977 -0.10546 0.10408
 C568 C 1.09128 -0.08590 0.08002
 H569 H 1.10402 -0.10273 0.18728
 H570 H 1.10403 -0.19558 0.19411
 H571 H 1.19643 -0.10280 0.19633
 H572 H 1.20627 -0.11002 0.11961
 H573 H 1.11388 -0.20276 0.11737
 H574 H 1.20612 -0.20268 0.12630
 C575 C 1.12742 0.37765 0.67260
 C576 C 1.12564 0.32707 0.67664
 C577 C 1.17570 0.32632 0.68030
 C578 C 1.17791 0.37642 0.67673
 C579 C 1.13276 0.37208 0.63125
 C580 C 1.18281 0.37127 0.63496
 C581 C 1.13059 0.32197 0.63486
 C582 C 1.18095 0.32084 0.63894
 C583 C 1.20061 0.30009 0.70647
 C584 C 1.22212 0.27778 0.72679
 C585 C 1.10970 0.39679 0.60296
 C586 C 1.09157 0.41632 0.57877
 H587 H 1.10512 0.40131 0.68610
 H588 H 1.10243 0.30860 0.69410
 H589 H 1.19765 0.39851 0.69426
 H590 H 1.20608 0.38970 0.61753
 H591 H 1.11089 0.29984 0.61734
 H592 H 1.20323 0.29720 0.62537
 C593 C 0.62639 -0.12473 0.67243
 C594 C 0.62569 -0.17535 0.67628
 C595 C 0.67574 -0.17503 0.68006
 C596 C 0.67688 -0.12488 0.67667
 C597 C 0.63198 -0.12998 0.63107
 C598 C 0.68203 -0.12972 0.63490
 C599 C 0.63088 -0.18013 0.63450
 C600 C 0.68125 -0.18020 0.63869
 C601 C 0.70100 -0.20086 0.70626
 C602 C 0.72264 -0.22288 0.72670
 C603 C 0.60851 -0.10551 0.60287
 C604 C 0.59014 -0.08598 0.57882
 H605 H 0.60354 -0.10163 0.68596
 H606 H 0.60283 -0.19440 0.69363
 H607 H 0.69608 -0.10247 0.69433
 H608 H 0.70494 -0.11070 0.61758
 H609 H 0.61171 -0.20259 0.61685
 H610 H 0.70408 -0.20328 0.62510
 C611 C 0.62420 0.37376 0.17247
 C612 C 0.62401 0.32325 0.17721
 C613 C 0.67414 0.32403 0.18010
 C614 C 0.67479 0.37410 0.17583
 C615 C 0.62878 0.36751 0.13112
 C616 C 0.67891 0.36826 0.13405
 C617 C 0.62818 0.31745 0.13545
 C618 C 0.67864 0.31788 0.13874
 C619 C 0.70015 0.29892 0.20629
 C620 C 0.72232 0.27735 0.22669
 C621 C 0.60418 0.39087 0.10292
 C622 C 0.58461 0.40924 0.07888
 H623 H 0.60151 0.39702 0.18600
 H624 H 0.60174 0.30446 0.19527
 H625 H 0.69424 0.39711 0.19275
 H626 H 0.70123 0.38701 0.11600
 H627 H 0.60877 0.29439 0.11854
 H628 H 0.70130 0.29463 0.12515
 C629 C 0.81799 0.12826 0.13566
 C630 C 0.82396 0.12428 0.17742
 C631 C 0.82452 0.17451 0.18017
 C632 C 0.81819 0.17881 0.13881
 C633 C 0.86796 0.12908 0.13120
 C634 C 0.86847 0.17931 0.13399
 C635 C 0.87437 0.12469 0.17255
 C636 C 0.87449 0.17538 0.17576
 C637 C 0.79935 0.20049 0.20634
 C638 C 0.77765 0.22256 0.22672
 C639 C 0.89126 0.10443 0.10300
 C640 C 0.90955 0.08481 0.07895
 H641 H 0.79500 0.10863 0.11888
 H642 H 0.80539 0.10196 0.19560
 H643 H 0.79482 0.20134 0.12521
 H644 H 0.88701 0.20167 0.11582
 H645 H 0.89776 0.10214 0.18608
 H646 H 0.89742 0.19505 0.19256
 C647 C 0.81848 0.62978 0.63452
 C648 C 0.82283 0.62401 0.67627
 C649 C 0.82457 0.67407 0.68041
 C650 C 0.81986 0.68015 0.63906
 C651 C 0.86859 0.62945 0.63131
 C652 C 0.87029 0.67951 0.63548
 C653 C 0.87339 0.62327 0.67264
 C654 C 0.87468 0.67379 0.67725
 C655 C 0.79914 0.69973 0.70661
 C656 C 0.77733 0.72171 0.72696
 C657 C 0.89215 0.60524 0.60301
 C658 C 0.91056 0.58591 0.57886
 H659 H 0.79562 0.61144 0.61664
 H660 H 0.80304 0.60149 0.69336
 H661 H 0.79757 0.70382 0.62554
 H662 H 0.89005 0.70207 0.61841
 H663 H 0.89570 0.59958 0.68611
 H664 H 0.89749 0.69217 0.69515
 C665 C 0.36865 0.17880 0.63463
 C666 C 0.31826 0.17950 0.63860
 C667 C 0.32345 0.17413 0.67997
 C668 C 0.37353 0.17382 0.67642
 C669 C 0.36693 0.12867 0.63107
 C670 C 0.37221 0.12322 0.67243
 C671 C 0.31686 0.12904 0.63466
 C672 C 0.32169 0.12401 0.67645
 C673 C 0.29833 0.20016 0.70613
 C674 C 0.27674 0.22227 0.72655
 C675 C 0.39029 0.10406 0.60289
 C676 C 0.40867 0.08455 0.57882
 H677 H 0.38820 0.20107 0.61713
 H678 H 0.29581 0.20292 0.62496
 H679 H 0.39653 0.19252 0.69391
 H680 H 0.39467 0.09978 0.68600
 H681 H 0.29380 0.11038 0.61720
 H682 H 0.30211 0.10178 0.69396
 C683 C 0.36984 0.68381 0.13587
 C684 C 0.31946 0.68259 0.13990
 C685 C 0.32489 0.67747 0.18129
 C686 C 0.37495 0.67904 0.17766
 C687 C 0.37007 0.63364 0.13228
 C688 C 0.37557 0.62843 0.17366
 C689 C 0.32000 0.63211 0.13595
 C690 C 0.32506 0.62729 0.17775
 C691 C 0.29892 0.70277 0.20753
 C692 C 0.27673 0.72449 0.22793
 C693 C 0.39458 0.61002 0.10405
 C694 C 0.41407 0.59143 0.08000
 H695 H 0.38848 0.70685 0.11837
 H696 H 0.29613 0.70512 0.12625
 H697 H 0.39728 0.69860 0.19510
 H698 H 0.39893 0.60589 0.18725
 H699 H 0.29762 0.61258 0.11852
 H700 H 0.30638 0.60431 0.19527
   
