data_POSCAR
  _audit_creation_date              2014-09-24
  _audit_creation_method            'ToBaCCo'
  _symmetry_space_group_name_H-M    'P1'
  _symmetry_Int_Tables_number       1
  _symmetry_cell_setting            triclinic
  loop_
  _symmetry_equiv_pos_as_xyz
 x,y,z
_cell_length_a 37.8486
_cell_length_b 37.4108
_cell_length_c 39.2431
_cell_angle_alpha 89.990200
_cell_angle_beta 89.954100
_cell_angle_gamma 90.146400
loop_
  _atom_site_label
  _atom_site_type_symbol
  _atom_site_fract_x
  _atom_site_fract_y
  _atom_site_fract_z
C1 C 0.26248 0.38744 0.00191
 C2 C 0.27682 0.37490 0.03224
 C3 C 0.30612 0.35237 0.03123
 C4 C 0.32260 0.34318 -0.00013
 C5 C 0.30866 0.35846 -0.03044
 C6 C 0.27740 0.37900 -0.02983
 C7 C 0.35193 0.31566 -0.00112
 C8 C 0.36185 0.29802 -0.03182
 C9 C 0.38490 0.26831 -0.03164
 C10 C 0.39759 0.25618 0.00004
 C11 C 0.38939 0.27389 0.03035
 C12 C 0.36819 0.30429 0.02945
 H13 H 0.24022 0.40554 0.00348
 H14 H 0.31446 0.34146 0.05530
 H15 H 0.32066 0.35301 -0.05477
 H16 H 0.35007 0.30533 -0.05579
 H17 H 0.41567 0.23383 0.00141
 H18 H 0.36380 0.31778 0.05334
 C19 C 0.73601 0.60877 0.00489
 C20 C 0.71957 0.61585 0.03596
 C21 C 0.68994 0.63818 0.03677
 C22 C 0.67846 0.65651 0.00705
 C23 C 0.69600 0.64879 -0.02405
 C24 C 0.72425 0.62468 -0.02519
 C25 C 0.65080 0.68555 0.00905
 C26 C 0.63536 0.70059 -0.02077
 C27 C 0.61438 0.73175 -0.01908
 C28 C 0.60590 0.74530 0.01328
 C29 C 0.61872 0.72967 0.04298
 C30 C 0.64149 0.70058 0.04092
 H31 H 0.75821 0.59050 0.00414
 H32 H 0.67719 0.64166 0.06111
 H33 H 0.68930 0.66214 -0.04751
 H34 H 0.64092 0.68949 -0.04550
 H35 H 0.58760 0.76738 0.01584
 H36 H 0.65241 0.69115 0.06461
 C37 C 0.73915 0.39057 0.99453
 C38 C 0.72227 0.38247 0.96389
 C39 C 0.69362 0.35875 0.96390
 C40 C 0.68339 0.34056 0.99412
 C41 C 0.70165 0.34871 1.02465
 C42 C 0.72893 0.37417 1.02502
 C43 C 0.65516 0.31215 0.99345
 C44 C 0.63718 0.30137 1.02356
 C45 C 0.61158 0.27380 1.02299
 C46 C 0.60431 0.25727 0.99155
 C47 C 0.62069 0.26823 0.96152
 C48 C 0.64622 0.29510 0.96250
 H49 H 0.76037 0.41012 0.99455
 H50 H 0.68024 0.35430 0.93998
 H51 H 0.69583 0.33475 1.04811
 H52 H 0.64172 0.31551 1.04714
 H53 H 0.58616 0.23492 0.99004
 H54 H 0.65943 0.30155 0.93890
 C55 C 0.26830 0.60244 0.99269
 C56 C 0.28605 0.61296 0.96321
 C57 C 0.31380 0.63756 0.96546
 C58 C 0.32173 0.65496 0.99672
 C59 C 0.30303 0.64381 1.02625
 C60 C 0.27674 0.61729 1.02434
 C61 C 0.34666 0.68656 0.99763
 C62 C 0.36058 0.70016 1.02875
 C63 C 0.37983 0.73262 1.02960
 C64 C 0.38797 0.74924 0.99845
 C65 C 0.37633 0.73546 0.96745
 C66 C 0.35507 0.70500 0.96715
 H67 H 0.24736 0.58269 0.99076
 H68 H 0.32780 0.64364 0.94221
 H69 H 0.30724 0.65647 1.05063
 H70 H 0.35527 0.68664 1.05248
 H71 H 0.40550 0.77219 0.99787
 H72 H 0.34467 0.69693 0.94277
 C73 C -0.00561 0.28157 0.40808
 C74 C 0.02678 0.28625 0.39154
 C75 C 0.02879 0.30804 0.36258
 C76 C -0.00152 0.32583 0.35000
 C77 C -0.03389 0.32095 0.36768
 C78 C -0.03607 0.29825 0.39601
 C79 C 0.00015 0.34718 0.31747
 C80 C -0.03085 0.35391 0.29828
 C81 C -0.02961 0.37234 0.26704
 C82 C 0.00359 0.38245 0.25424
 C83 C 0.03464 0.37634 0.27249
 C84 C 0.03279 0.35995 0.30454
 H85 H -0.00743 0.26356 0.42968
 H86 H 0.05376 0.30923 0.34925
 H87 H -0.05780 0.33423 0.35975
 H88 H -0.05602 0.34335 0.30638
 H89 H 0.00556 0.39778 0.23089
 H90 H 0.05702 0.35708 0.31881
 C91 C 0.00157 0.72378 0.59669
 C92 C 0.03383 0.71260 0.61015
 C93 C 0.03428 0.68661 0.63572
 C94 C 0.00260 0.67075 0.64783
 C95 C -0.02972 0.68160 0.63249
 C96 C -0.03027 0.70897 0.60798
 C97 C 0.00337 0.64611 0.67835
 C98 C -0.02748 0.63972 0.69799
 C99 C -0.02618 0.62069 0.72895
 C100 C 0.00684 0.60889 0.74067
 C101 C 0.03760 0.61409 0.72166
 C102 C 0.03558 0.63110 0.68998
 H103 H 0.00115 0.74476 0.57761
 H104 H 0.05959 0.68080 0.64702
 H105 H -0.05475 0.67020 0.64004
 H106 H -0.05241 0.65133 0.69079
 H107 H 0.00881 0.59344 0.76394
 H108 H 0.05965 0.63317 0.67537
 C109 C 1.00276 0.72870 0.39436
 C110 C 0.97133 0.72316 0.37675
 C111 C 0.97041 0.69851 0.35009
 C112 C 1.00085 0.67877 0.34090
 C113 C 1.03279 0.68552 0.35883
 C114 C 1.03390 0.71033 0.38592
 C115 C 0.99887 0.65180 0.31249
 C116 C 1.02936 0.64182 0.29373
 C117 C 1.02684 0.61911 0.26508
 C118 C 0.99318 0.60669 0.25549
 C119 C 0.96294 0.61556 0.27383
 C120 C 0.96587 0.63695 0.30283
 H121 H 1.00296 0.74876 0.41427
 H122 H 0.94591 0.69583 0.33624
 H123 H 1.05629 0.67027 0.35322
 H124 H 1.05476 0.65337 0.29986
 H125 H 0.99012 0.58822 0.23443
 H126 H 0.94205 0.64222 0.31716
 C127 C 0.99508 0.26332 0.61432
 C128 C 0.96325 0.27579 0.62755
 C129 C 0.96359 0.30352 0.65145
 C130 C 0.99575 0.31991 0.66173
 C131 C 1.02757 0.30738 0.64668
 C132 C 1.02726 0.27820 0.62425
 C133 C 0.99607 0.34764 0.68972
 C134 C 1.02765 0.35626 0.70747
 C135 C 1.02737 0.37858 0.73636
 C136 C 0.99474 0.39159 0.74795
 C137 C 0.96340 0.38436 0.73059
 C138 C 0.96429 0.36389 0.70083
 H139 H 0.99486 0.24175 0.59585
 H140 H 0.93852 0.31074 0.66249
 H141 H 1.05289 0.31910 0.65262
 H142 H 1.05242 0.34406 0.70064
 H143 H 0.99353 0.40944 0.76966
 H144 H 0.93970 0.36030 0.68738
 C145 C 0.38877 0.01081 0.26444
 C146 C 0.38055 0.04137 0.28314
 C147 C 0.35978 0.03842 0.31258
 C148 C 0.34515 0.00498 0.32234
 C149 C 0.35448 -0.02559 0.30293
 C150 C 0.37653 -0.02309 0.27419
 C151 C 0.31823 0.00210 0.35062
 C152 C 0.30906 -0.03160 0.36478
 C153 C 0.27984 -0.03519 0.38641
 C154 C 0.26176 -0.00471 0.39707
 C155 C 0.27144 0.02923 0.38543
 C156 C 0.29915 0.03251 0.36183
 H157 H 0.40646 0.01372 0.24287
 H158 H 0.35469 0.06248 0.32693
 H159 H 0.34282 -0.05130 0.30830
 H160 H 0.32344 -0.05558 0.35847
 H161 H 0.23994 -0.00755 0.41481
 H162 H 0.30434 0.05877 0.35156
 C163 C 0.61726 0.00899 0.74059
 C164 C 0.62491 0.03868 0.72038
 C165 C 0.64384 0.03416 0.69009
 C166 C 0.65803 0.00036 0.68111
 C167 C 0.64884 -0.02948 0.70170
 C168 C 0.62808 -0.02555 0.73131
 C169 C 0.68404 -0.00314 0.65204
 C170 C 0.69373 -0.03698 0.63853
 C171 C 0.72098 -0.03983 0.61442
 C172 C 0.73690 -0.00897 0.60160
 C173 C 0.72746 0.02476 0.61363
 C174 C 0.70166 0.02752 0.63910
 H175 H 0.60054 0.01300 0.76269
 H176 H 0.64779 0.05751 0.67438
 H177 H 0.65933 -0.05563 0.69630
 H178 H 0.68126 -0.06141 0.64692
 H179 H 0.75712 -0.01144 0.58215
 H180 H 0.69693 0.05379 0.64941
 C181 C 0.40129 1.00419 0.72340
 C182 C 0.38597 0.97089 0.71702
 C183 C 0.35869 0.96805 0.69299
 C184 C 0.34675 0.99852 0.67476
 C185 C 0.36326 1.03181 0.68164
 C186 C 0.38975 1.03464 0.70633
 C187 C 0.31609 0.99598 0.65036
 C188 C 0.29640 1.02680 0.64125
 C189 C 0.26616 1.02439 0.62053
 C190 C 0.25522 0.99043 0.60959
 C191 C 0.27430 0.95967 0.61755
 C192 C 0.30521 0.96257 0.63694
 H193 H 0.42183 1.00661 0.74255
 H194 H 0.34616 0.94227 0.69006
 H195 H 0.35603 1.05588 0.66822
 H196 H 0.30289 1.05265 0.65170
 H197 H 0.23280 0.98776 0.59262
 H198 H 0.32013 0.93850 0.64162
 C199 C 0.61144 0.99753 0.26251
 C200 C 0.61906 0.96673 0.28104
 C201 C 0.63960 0.96919 0.31058
 C202 C 0.65477 1.00228 0.32064
 C203 C 0.64572 1.03326 0.30162
 C204 C 0.62394 1.03121 0.27263
 C205 C 0.68183 1.00412 0.34890
 C206 C 0.69242 1.03736 0.36314
 C207 C 0.72125 1.03947 0.38542
 C208 C 0.73791 1.00816 0.39606
 C209 C 0.72712 0.97475 0.38396
 C210 C 0.69956 0.97286 0.36015
 H211 H 0.59380 0.99505 0.24088
 H212 H 0.64400 0.94491 0.32478
 H213 H 0.65725 1.05890 0.30748
 H214 H 0.67945 1.06206 0.35656
 H215 H 0.75952 1.00993 0.41411
 H216 H 0.69351 0.94688 0.34974
 O217 O 0.87515 0.82402 0.46573
 O218 O 0.82373 0.86502 0.53421
 O219 O 0.87309 0.81736 0.53126
 O220 O 0.82758 0.87303 0.46888
 O221 O 0.78594 0.83216 0.46268
 O222 O 0.83311 0.77475 0.52545
 O223 O 0.78204 0.82410 0.52838
 O224 O 0.83460 0.78206 0.45944
 Cu225 Cu 0.85389 0.84892 0.50069
 Cu226 Cu 0.80474 0.79900 0.49355
 C227 C 0.86404 0.79595 0.45102
 C228 C 0.79385 0.85224 0.54255
 C229 C 0.86163 0.78645 0.53867
 C230 C 0.79900 0.86257 0.45524
 O231 O 0.11806 0.17434 0.47236
 O232 O 0.16409 0.12291 0.53694
 O233 O 0.11973 0.17476 0.53804
 O234 O 0.16556 0.12491 0.47124
 O235 O 0.20915 0.16416 0.47182
 O236 O 0.16186 0.21570 0.53826
 O237 O 0.20750 0.16230 0.53855
 O238 O 0.16035 0.21504 0.47213
 Cu239 Cu 0.13767 0.14531 0.50455
 Cu240 Cu 0.18918 0.19331 0.50514
 C241 C 0.13061 0.20360 0.46146
 C242 C 0.19349 0.13322 0.54886
 C243 C 0.13252 0.20386 0.54929
 C244 C 0.19541 0.13552 0.46040
 O245 O 0.13491 0.81368 0.52893
 O246 O 0.18219 0.85778 0.46015
 O247 O 0.13501 0.80597 0.46521
 O248 O 0.18388 0.85971 0.52675
 O249 O 0.22563 0.81866 0.52943
 O250 O 0.17756 0.76565 0.46409
 O251 O 0.22569 0.81875 0.46308
 O252 O 0.17457 0.77048 0.53008
 Cu253 Cu 0.15531 0.83872 0.49435
 Cu254 Cu 0.20522 0.78925 0.49652
 C255 C 0.14578 0.78420 0.54074
 C256 C 0.21238 0.84714 0.45070
 C257 C 0.14684 0.77591 0.45558
 C258 C 0.21254 0.84813 0.53933
 O259 O 0.86886 0.18304 0.53390
 O260 O 0.82212 0.14242 0.46244
 O261 O 0.86749 0.19476 0.46907
 O262 O 0.82458 0.13176 0.52723
 O263 O 0.78064 0.16951 0.53535
 O264 O 0.82361 0.23302 0.47571
 O265 O 0.77708 0.17891 0.46996
 O266 O 0.82590 0.22223 0.54090
 Cu267 Cu 0.85010 0.15933 0.49712
 Cu268 Cu 0.79726 0.20485 0.50585
 C269 C 0.85573 0.20957 0.54952
 C270 C 0.79113 0.15243 0.45484
 C271 C 0.85356 0.22493 0.46329
 C272 C 0.79547 0.13969 0.54136
 O273 O 0.53317 0.83607 0.88121
 O274 O 0.46996 0.88316 0.82741
 O275 O 0.46547 0.83699 0.87545
 O276 O 0.53807 0.88319 0.83304
 O277 O 0.54189 0.84053 0.79447
 O278 O 0.46870 0.79270 0.83844
 O279 O 0.47289 0.84030 0.78891
 O280 O 0.53723 0.79215 0.84396
 Cu281 Cu 0.50154 0.86416 0.85796
 Cu282 Cu 0.50562 0.81205 0.81251
 C283 C 0.54555 0.80592 0.87251
 C284 C 0.46042 0.87005 0.79910
 C285 C 0.45482 0.80689 0.86470
 C286 C 0.55210 0.87050 0.80635
 O287 O 0.52984 0.17603 0.12723
 O288 O 0.46783 0.13148 0.18450
 O289 O 0.46400 0.17400 0.13419
 O290 O 0.53621 0.12740 0.17521
 O291 O 0.54240 0.16986 0.21370
 O292 O 0.47152 0.22019 0.16852
 O293 O 0.47357 0.17531 0.22178
 O294 O 0.53935 0.21884 0.16496
 Cu295 Cu 0.49947 0.14742 0.15211
 Cu296 Cu 0.50729 0.20028 0.19633
 C297 C 0.54367 0.20580 0.13539
 C298 C 0.45945 0.14601 0.21256
 C299 C 0.45648 0.20565 0.14288
 C300 C 0.55128 0.13962 0.20155
 O301 O 0.53474 0.13098 0.81002
 O302 O 0.46415 0.16936 0.86138
 O303 O 0.46738 0.12930 0.80605
 O304 O 0.53262 0.17277 0.86076
 O305 O 0.53252 0.22036 0.82752
 O306 O 0.46540 0.17714 0.77304
 O307 O 0.46347 0.21786 0.82952
 O308 O 0.53367 0.17723 0.77496
 Cu309 Cu 0.49918 0.14603 0.83803
 Cu310 Cu 0.49823 0.20310 0.79797
 C311 C 0.54622 0.14705 0.78384
 C312 C 0.45266 0.20057 0.85555
 C313 C 0.45663 0.14509 0.77943
 C314 C 0.54427 0.20363 0.85328
 O315 O 0.46548 0.82951 0.13067
 O316 O 0.53093 0.87362 0.18442
 O317 O 0.53319 0.82801 0.13630
 O318 O 0.46334 0.87855 0.17690
 O319 O 0.45626 0.83682 0.21603
 O320 O 0.52762 0.78451 0.17398
 O321 O 0.52463 0.83196 0.22386
 O322 O 0.45886 0.78626 0.16837
 Cu323 Cu 0.49867 0.85663 0.15334
 Cu324 Cu 0.49109 0.80553 0.19953
 C325 C 0.45132 0.80019 0.13974
 C326 C 0.53910 0.86054 0.21318
 C327 C 0.54246 0.79782 0.14772
 C328 C 0.44813 0.86711 0.20352
 O329 O 0.87310 0.54179 0.82993
 O330 O 0.82084 0.47365 0.87286
 O331 O 0.86873 0.47318 0.82682
 O332 O 0.82499 0.54253 0.87642
 O333 O 0.78323 0.54724 0.83746
 O334 O 0.82858 0.47762 0.78624
 O335 O 0.77898 0.47779 0.83390
 O336 O 0.83277 0.54697 0.78968
 Cu337 Cu 0.85091 0.50743 0.85545
 Cu338 Cu 0.80164 0.51295 0.80775
 C339 C 0.86256 0.55567 0.80235
 C340 C 0.79113 0.46402 0.86111
 C341 C 0.85662 0.46368 0.79809
 C342 C 0.79645 0.55638 0.86597
 O343 O 0.17432 0.46088 0.12395
 O344 O 0.12333 0.53032 0.16622
 O345 O 0.17181 0.52978 0.11970
 O346 O 0.12804 0.46170 0.17187
 O347 O 0.16883 0.46738 0.21172
 O348 O 0.21396 0.53522 0.15816
 O349 O 0.16425 0.53663 0.20574
 O350 O 0.21670 0.46570 0.16229
 Cu351 Cu 0.14528 0.49521 0.14163
 Cu352 Cu 0.19519 0.50180 0.18844
 C353 C 0.20416 0.45143 0.13540
 C354 C 0.13438 0.54513 0.19326
 C355 C 0.20065 0.54376 0.12956
 C356 C 0.14054 0.45312 0.20074
 O357 O 0.82199 0.53012 0.12930
 O358 O 0.87317 0.46142 0.17210
 O359 O 0.82664 0.46167 0.12458
 O360 O 0.86828 0.53023 0.17723
 O361 O 0.82697 0.52391 0.21657
 O362 O 0.78381 0.45508 0.16228
 O363 O 0.83158 0.45442 0.21099
 O364 O 0.77886 0.52424 0.16680
 Cu365 Cu 0.85172 0.49652 0.14711
 Cu366 Cu 0.80098 0.48893 0.19316
 C367 C 0.79159 0.53862 0.14003
 C368 C 0.86159 0.44611 0.19865
 C369 C 0.79809 0.44685 0.13395
 C370 C 0.85524 0.53859 0.20594
 O371 O 0.18433 0.53520 0.86757
 O372 O 0.13062 0.46599 0.82825
 O373 O 0.18023 0.46691 0.87284
 O374 O 0.13611 0.53427 0.82131
 O375 O 0.17554 0.52727 0.78039
 O376 O 0.22114 0.45917 0.83343
 O377 O 0.17008 0.45804 0.78757
 O378 O 0.22586 0.52808 0.82861
 Cu379 Cu 0.15387 0.50132 0.85137
 Cu380 Cu 0.20226 0.49266 0.80326
 C381 C 0.21452 0.54291 0.85569
 C382 C 0.14052 0.45028 0.80129
 C383 C 0.20826 0.45178 0.86249
 C384 C 0.14765 0.54192 0.79188
 C385 C 0.22365 0.38242 0.06866
 C386 C 0.26028 0.38624 0.06467
 C387 C 0.27934 0.40666 0.08849
 C388 C 0.26143 0.42582 0.11394
 C389 C 0.22433 0.42473 0.11562
 C390 C 0.20587 0.40147 0.09384
 H391 H 0.20849 0.36666 0.05067
 H392 H 0.30762 0.41010 0.08566
 H393 H 0.27626 0.44360 0.13038
 H394 H 0.17731 0.39976 0.09484
 C395 C 0.77194 0.60673 0.07281
 C396 C 0.73566 0.60146 0.06744
 C397 C 0.71652 0.57977 0.09019
 C398 C 0.73419 0.56123 0.11620
 C399 C 0.77107 0.56428 0.11954
 C400 C 0.78943 0.58841 0.09857
 H401 H 0.78712 0.62376 0.05589
 H402 H 0.68850 0.57541 0.08646
 H403 H 0.71952 0.54266 0.13201
 H404 H 0.81779 0.59164 0.10089
 C405 C 0.71742 0.42153 0.91183
 C406 C 0.73688 0.39763 0.93205
 C407 C 0.77261 0.39167 0.92450
 C408 C 0.78944 0.41137 0.89913
 C409 C 0.77088 0.43742 0.88075
 C410 C 0.73439 0.44135 0.88616
 H411 H 0.68989 0.42667 0.91744
 H412 H 0.78801 0.37317 0.93964
 H413 H 0.81755 0.40771 0.89519
 H414 H 0.71975 0.46165 0.87250
 C415 C 0.28996 0.57695 0.90920
 C416 C 0.27182 0.60130 0.93001
 C417 C 0.23722 0.61114 0.92155
 C418 C 0.21976 0.59454 0.89466
 C419 C 0.23658 0.56775 0.87565
 C420 C 0.27240 0.56028 0.88194
 H421 H 0.31666 0.56898 0.91551
 H422 H 0.22292 0.63007 0.93724
 H423 H 0.19221 0.60080 0.89023
 H424 H 0.28576 0.53943 0.86782
 C425 C 0.08742 0.28215 0.41711
 C426 C 0.05744 0.26535 0.40332
 C427 C 0.05472 0.22804 0.40443
 C428 C 0.08017 0.20790 0.42124
 C429 C 0.10883 0.22466 0.43754
 C430 C 0.11306 0.26187 0.43420
 H431 H 0.08987 0.31100 0.41646
 H432 H 0.03195 0.21462 0.39359
 H433 H 0.07642 0.17924 0.42294
 H434 H 0.13487 0.27546 0.44654
 C435 C 0.09445 0.71035 0.58416
 C436 C 0.06672 0.73019 0.59859
 C437 C 0.06881 0.76757 0.59885
 C438 C 0.09654 0.78499 0.58247
 C439 C 0.12271 0.76541 0.56528
 C440 C 0.12233 0.72791 0.56746
 H441 H 0.09332 0.68142 0.58386
 H442 H 0.04799 0.78332 0.61036
 H443 H 0.09635 0.81394 0.58154
 H444 H 0.14204 0.71221 0.55423
 C445 C 0.90904 0.72462 0.39828
 C446 C 0.93956 0.74301 0.38780
 C447 C 0.94197 0.77997 0.39348
 C448 C 0.91595 0.79764 0.41204
 C449 C 0.88691 0.77873 0.42528
 C450 C 0.88280 0.74240 0.41690
 H451 H 0.90680 0.69605 0.39433
 H452 H 0.96516 0.79474 0.38538
 H453 H 0.91959 0.82577 0.41762
 H454 H 0.86062 0.72719 0.42669
 C455 C 0.92763 0.22176 0.61403
 C456 C 0.93002 0.25914 0.61566
 C457 C 0.90341 0.27996 0.60063
 C458 C 0.87681 0.26358 0.58126
 C459 C 0.87686 0.22634 0.57667
 C460 C 0.90143 0.20550 0.59454
 H461 H 0.94758 0.20521 0.62594
 H462 H 0.90484 0.30886 0.60156
 H463 H 0.85809 0.28015 0.56767
 H464 H 0.90166 0.17669 0.59181
 C465 C 0.42060 0.09488 0.28661
 C466 C 0.39357 0.07599 0.26988
 C467 C 0.38459 0.08544 0.23639
 C468 C 0.40452 0.11069 0.21868
 C469 C 0.43350 0.12738 0.23427
 C470 C 0.44041 0.12070 0.26887
 H471 H 0.42829 0.08753 0.31224
 H472 H 0.36402 0.07097 0.22298
 H473 H 0.39871 0.11546 0.19203
 H474 H 0.46297 0.13300 0.28120
 C475 C 0.58755 0.09368 0.71332
 C476 C 0.61247 0.07410 0.73214
 C477 C 0.62045 0.08477 0.76555
 C478 C 0.60101 0.11168 0.78127
 C479 C 0.57360 0.12881 0.76374
 C480 C 0.56822 0.12111 0.72909
 H481 H 0.58088 0.08574 0.68758
 H482 H 0.63975 0.07019 0.78042
 H483 H 0.60550 0.11717 0.80804
 H484 H 0.54689 0.13378 0.71528
 C485 C 0.41520 0.91098 0.72215
 C486 C 0.39797 0.94006 0.73746
 C487 C 0.39726 0.94266 0.77308
 C488 C 0.41577 0.91831 0.79306
 C489 C 0.43551 0.89081 0.77784
 C490 C 0.43386 0.88639 0.74229
 H491 H 0.41622 0.90872 0.69465
 H492 H 0.38397 0.96482 0.78535
 H493 H 0.41598 0.92208 0.82042
 H494 H 0.44876 0.86539 0.72992
 C495 C 0.57970 0.91273 0.28565
 C496 C 0.60546 0.93234 0.26780
 C497 C 0.61317 0.92318 0.23393
 C498 C 0.59316 0.89744 0.21709
 C499 C 0.56527 0.88004 0.23384
 C500 C 0.55972 0.88648 0.26873
 H501 H 0.57313 0.91969 0.31168
 H502 H 0.63293 0.93799 0.21972
 H503 H 0.59804 0.89269 0.19025
 H504 H 0.53812 0.87350 0.28201
 C505 C 0.40323 0.21386 0.93811
 C506 C 0.39558 0.25074 0.93786
 C507 C 0.40147 0.26967 0.90717
 C508 C 0.41834 0.25313 0.87934
 C509 C 0.42858 0.21706 0.88114
 C510 C 0.41914 0.19734 0.91024
 H511 H 0.39709 0.19742 0.96005
 H512 H 0.39596 0.29799 0.90550
 H513 H 0.42493 0.26903 0.85716
 H514 H 0.42555 0.16922 0.91228
 C515 C 0.59702 0.78724 0.95245
 C516 C 0.60189 0.74986 0.95144
 C517 C 0.59258 0.73176 0.92111
 C518 C 0.57566 0.75005 0.89436
 C519 C 0.56849 0.78683 0.89711
 C520 C 0.58067 0.80528 0.92588
 H521 H 0.60588 0.80300 0.97396
 H522 H 0.59571 0.70311 0.91888
 H523 H 0.56666 0.73512 0.87237
 H524 H 0.57656 0.83379 0.92849
 C525 C 0.40307 0.72857 0.08872
 C526 C 0.39181 0.74874 0.06030
 C527 C 0.39506 0.78630 0.06212
 C528 C 0.41238 0.80273 0.08911
 C529 C 0.42695 0.78241 0.11552
 C530 C 0.42086 0.74528 0.11595
 H531 H 0.40101 0.69971 0.08879
 H532 H 0.38456 0.80336 0.04228
 H533 H 0.41551 0.83152 0.08859
 H534 H 0.43165 0.72896 0.13620
 C535 C 0.55968 0.24630 0.04974
 C536 C 0.59359 0.26181 0.05270
 C537 C 0.60924 0.26266 0.08547
 C538 C 0.59299 0.24519 0.11317
 C539 C 0.56111 0.22665 0.10842
 C540 C 0.54415 0.22846 0.07687
 H541 H 0.54466 0.24795 0.02634
 H542 H 0.63495 0.27463 0.08947
 H543 H 0.60597 0.24489 0.13776
 H544 H 0.51851 0.21607 0.07319
 C545 C 0.21076 0.05286 0.60367
 C546 C 0.24743 0.05499 0.60943
 C547 C 0.26505 0.08698 0.60042
 C548 C 0.24728 0.11382 0.58217
 C549 C 0.21145 0.10958 0.57364
 C550 C 0.19310 0.07972 0.58625
 H551 H 0.19557 0.02990 0.61205
 H552 H 0.29320 0.08996 0.60444
 H553 H 0.26202 0.13675 0.57306
 H554 H 0.16518 0.07612 0.58122
 C555 C 0.77241 0.08051 0.39089
 C556 C 0.73634 0.07409 0.39646
 C557 C 0.71687 0.09823 0.41639
 C558 C 0.73415 0.12647 0.43314
 C559 C 0.77100 0.13067 0.43008
 C560 C 0.78955 0.10849 0.40748
 H561 H 0.78780 0.06238 0.37533
 H562 H 0.68900 0.09367 0.42100
 H563 H 0.71927 0.14307 0.45059
 H564 H 0.81787 0.11125 0.40440
 C565 C 0.77156 0.91878 0.61056
 C566 C 0.73582 0.92548 0.60368
 C567 C 0.71758 0.90312 0.58095
 C568 C 0.73584 0.87637 0.56307
 C569 C 0.77247 0.87217 0.56760
 C570 C 0.78975 0.89250 0.59261
 H571 H 0.78608 0.93588 0.62793
 H572 H 0.69011 0.90823 0.57502
 H573 H 0.72205 0.86126 0.54364
 H574 H 0.81792 0.88968 0.59664
 C575 C 0.28557 0.90512 0.41565
 C576 C 0.26566 0.92941 0.39631
 C577 C 0.22997 0.92195 0.38978
 C578 C 0.21351 0.89268 0.40492
 C579 C 0.23237 0.87021 0.42697
 C580 C 0.26896 0.87553 0.43093
 H581 H 0.31315 0.91046 0.42097
 H582 H 0.21427 0.94014 0.37458
 H583 H 0.18536 0.88904 0.40125
 H584 H 0.28399 0.85872 0.44805
 C585 C 0.09027 0.39636 0.73519
 C586 C 0.05881 0.38894 0.75331
 C587 C 0.05834 0.39567 0.78863
 C588 C 0.08642 0.41291 0.80447
 C589 C 0.11582 0.42435 0.78558
 C590 C 0.11837 0.41441 0.75114
 H591 H 0.09200 0.39154 0.70804
 H592 H 0.03581 0.38830 0.80417
 H593 H 0.08416 0.41897 0.83138
 H594 H 0.14091 0.42263 0.73601
 C595 C 0.05350 0.60001 0.21123
 C596 C 0.05684 0.60782 0.24623
 C597 C 0.08962 0.60070 0.26203
 C598 C 0.11619 0.58201 0.24439
 C599 C 0.11075 0.57101 0.21052
 C600 C 0.07989 0.58192 0.19377
 H601 H 0.02996 0.60722 0.19716
 H602 H 0.09371 0.60645 0.28877
 H603 H 0.13997 0.57435 0.25783
 H604 H 0.07522 0.57499 0.16735
 C605 C 0.93992 0.38713 0.21381
 C606 C 0.93935 0.38276 0.24948
 C607 C 0.90846 0.39308 0.26721
 C608 C 0.88150 0.41177 0.25036
 C609 C 0.88462 0.41965 0.21552
 C610 C 0.91306 0.40535 0.19715
 H611 H 0.96171 0.37730 0.19861
 H612 H 0.90647 0.39008 0.29457
 H613 H 0.85957 0.42219 0.26503
 H614 H 0.91551 0.40980 0.16998
 C615 C 0.94450 0.60849 0.78346
 C616 C 0.94293 0.61225 0.74775
 C617 C 0.91078 0.60383 0.73128
 C618 C 0.88305 0.58765 0.74942
 C619 C 0.88671 0.58038 0.78433
 C620 C 0.91682 0.59291 0.80144
 H621 H 0.96758 0.61684 0.79772
 H622 H 0.90814 0.60628 0.70392
 H623 H 0.85989 0.57859 0.73566
 H624 H 0.91990 0.58888 0.82861
 C625 C 0.77932 0.61570 0.94131
 C626 C 0.74228 0.61558 0.94254
 C627 C 0.72318 0.60143 0.91497
 C628 C 0.74097 0.58453 0.88811
 C629 C 0.77799 0.58164 0.88867
 C630 C 0.79701 0.59881 0.91470
 H631 H 0.79454 0.62690 0.96212
 H632 H 0.69457 0.60097 0.91552
 H633 H 0.72572 0.57131 0.86845
 H634 H 0.82558 0.59733 0.91559
 C635 C 0.22347 0.39518 0.93974
 C636 C 0.26056 0.39136 0.94016
 C637 C 0.27965 0.40213 0.91095
 C638 C 0.26249 0.42003 0.88417
 C639 C 0.22598 0.42669 0.88593
 C640 C 0.20657 0.41256 0.91315
 H641 H 0.20719 0.38509 0.96032
 H642 H 0.30812 0.39969 0.90988
 H643 H 0.27804 0.43055 0.86327
 H644 H 0.17822 0.41622 0.91469
 C645 C 0.27442 0.59330 0.08412
 C646 C 0.25677 0.60520 0.05478
 C647 C 0.21991 0.60123 0.05281
 C648 C 0.20143 0.58309 0.07825
 C649 C 0.21934 0.56869 0.10641
 C650 C 0.25581 0.57517 0.10981
 H651 H 0.30284 0.59595 0.08613
 H652 H 0.20561 0.61071 0.03069
 H653 H 0.17328 0.57900 0.07510
 H654 H 0.27029 0.56435 0.13122
 C655 C 0.72755 0.39625 0.08539
 C656 C 0.74701 0.38476 0.05692
 C657 C 0.78390 0.38860 0.05708
 C658 C 0.80069 0.40672 0.08350
 C659 C 0.78098 0.42121 0.11051
 C660 C 0.74448 0.41439 0.11208
 H661 H 0.69906 0.39352 0.08585
 H662 H 0.79955 0.37934 0.03571
 H663 H 0.82896 0.41102 0.08188
 H664 H 0.72870 0.42517 0.13268
 C665 C 0.91257 0.70779 0.57484
 C666 C 0.93646 0.72577 0.59628
 C667 C 0.93165 0.76235 0.60247
 C668 C 0.90546 0.78136 0.58545
 C669 C 0.88318 0.76422 0.56194
 C670 C 0.88594 0.72695 0.55778
 H671 H 0.91598 0.67959 0.56958
 H672 H 0.94968 0.77668 0.61904
 H673 H 0.90385 0.80998 0.58932
 H674 H 0.86930 0.71316 0.53956
 C675 C 0.90674 0.26556 0.39234
 C676 C 0.92960 0.28781 0.41097
 C677 C 0.92306 0.29360 0.44573
 C678 C 0.89536 0.27568 0.46209
 C679 C 0.87432 0.25125 0.44403
 C680 C 0.87953 0.24697 0.40890
 H681 H 0.91185 0.26020 0.36567
 H682 H 0.94082 0.31013 0.46061
 H683 H 0.89222 0.27861 0.48940
 H684 H 0.86406 0.22758 0.39480
 C685 C 0.08483 0.28024 0.59223
 C686 C 0.05997 0.26118 0.61168
 C687 C 0.06332 0.22396 0.61479
 C688 C 0.08879 0.20564 0.59620
 C689 C 0.11176 0.22419 0.57441
 C690 C 0.11078 0.26178 0.57372
 H691 H 0.08258 0.30894 0.58941
 H692 H 0.04463 0.20879 0.62998
 H693 H 0.08931 0.17671 0.59748
 H694 H 0.12822 0.27660 0.55696
 C695 C 0.06256 0.72773 0.43904
 C696 C 0.06511 0.71835 0.40434
 C697 C 0.09839 0.72177 0.38821
 C698 C 0.12662 0.73884 0.40517
 C699 C 0.12193 0.75164 0.43851
 C700 C 0.09039 0.74434 0.45568
 H701 H 0.03836 0.72344 0.45324
 H702 H 0.10167 0.71465 0.36165
 H703 H 0.15102 0.74410 0.39162
 H704 H 0.08666 0.75307 0.48179
 C705 C 0.60711 0.91202 0.73569
 C706 C 0.61674 0.94479 0.75104
 C707 C 0.61094 0.94867 0.78633
 C708 C 0.59243 0.92293 0.80468
 C709 C 0.57896 0.89242 0.78842
 C710 C 0.58793 0.88627 0.75417
 H711 H 0.61107 0.90762 0.70869
 H712 H 0.61992 0.97223 0.79987
 H713 H 0.58701 0.92798 0.83136
 H714 H 0.57808 0.86283 0.74103
 C715 C 0.39400 0.94899 0.22038
 C716 C 0.38721 0.94636 0.25559
 C717 C 0.39460 0.91359 0.27200
 C718 C 0.41249 0.88628 0.25460
 C719 C 0.42238 0.89094 0.22037
 C720 C 0.41116 0.92170 0.20309
 H721 H 0.38666 0.97258 0.20607
 H722 H 0.38980 0.91019 0.29901
 H723 H 0.42060 0.86268 0.26850
 H724 H 0.41732 0.92565 0.17639
 C725 C 0.60523 0.09437 0.27055
 C726 C 0.61359 0.06190 0.25407
 C727 C 0.60757 0.05941 0.21874
 C728 C 0.58997 0.08632 0.20135
 C729 C 0.57765 0.11664 0.21863
 C730 C 0.58685 0.12132 0.25303
 H731 H 0.60951 0.09764 0.29765
 H732 H 0.61560 0.03602 0.20445
 H733 H 0.58418 0.08226 0.17459
 H734 H 0.57769 0.14449 0.26699
 C735 C 0.44005 0.07674 0.71225
 C736 C 0.40408 0.06943 0.71712
 C737 C 0.38410 0.09128 0.73892
 C738 C 0.40062 0.11837 0.75775
 C739 C 0.43702 0.12413 0.75430
 C740 C 0.45637 0.10409 0.73060
 H741 H 0.45595 0.05967 0.69609
 H742 H 0.35646 0.08544 0.74349
 H743 H 0.38555 0.13321 0.77645
 H744 H 0.48467 0.10780 0.72824
 C745 C 0.61209 0.78113 0.08217
 C746 C 0.60749 0.74454 0.07604
 C747 C 0.58670 0.72411 0.09848
 C748 C 0.56777 0.74091 0.12468
 C749 C 0.56956 0.77820 0.12840
 C750 C 0.59337 0.79780 0.10818
 H751 H 0.62814 0.79725 0.06519
 H752 H 0.58275 0.69582 0.09392
 H753 H 0.54949 0.72530 0.13988
 H754 H 0.59550 0.82655 0.11083
 C755 C 0.42149 0.27912 0.08643
 C756 C 0.40154 0.25881 0.06319
 C757 C 0.39471 0.22276 0.07034
 C758 C 0.40982 0.20645 0.09865
 C759 C 0.43243 0.22574 0.12034
 C760 C 0.43702 0.26261 0.11484
 H761 H 0.42681 0.30710 0.08147
 H762 H 0.37878 0.20681 0.05313
 H763 H 0.40564 0.17805 0.10235
 H764 H 0.45467 0.27797 0.13091
 C765 C 0.59426 0.27337 0.90348
 C766 C 0.60922 0.25200 0.92909
 C767 C 0.60751 0.21469 0.92620
 C768 C 0.58845 0.19897 0.89983
 C769 C 0.57054 0.22029 0.87602
 C770 C 0.57502 0.25758 0.87699
 H771 H 0.59514 0.30225 0.90543
 H772 H 0.61909 0.19774 0.94557
 H773 H 0.58609 0.17011 0.89918
 H774 H 0.56166 0.27459 0.85878
 C775 C 0.40637 0.73290 0.91061
 C776 C 0.38833 0.75273 0.93554
 C777 C 0.38705 0.79006 0.93268
 C778 C 0.40648 0.80753 0.90754
 C779 C 0.42749 0.78800 0.88466
 C780 C 0.42583 0.75047 0.88520
 H781 H 0.40777 0.70404 0.91243
 H782 H 0.37291 0.80582 0.95139
 H783 H 0.40682 0.83648 0.90736
 H784 H 0.44175 0.73480 0.86782
 C785 C 0.72653 0.91274 0.40891
 C786 C 0.74556 0.94228 0.39633
 C787 C 0.78253 0.94246 0.39915
 C788 C 0.79990 0.91535 0.41671
 C789 C 0.78078 0.88715 0.43158
 C790 C 0.74406 0.88528 0.42640
 H791 H 0.69799 0.91198 0.40702
 H792 H 0.79792 0.96446 0.38898
 H793 H 0.82829 0.91720 0.41977
 H794 H 0.72870 0.86378 0.43754
 C795 C 0.28251 0.90308 0.58384
 C796 C 0.26115 0.92505 0.60430
 C797 C 0.22503 0.91707 0.60745
 C798 C 0.20978 0.89018 0.58785
 C799 C 0.23044 0.87024 0.56513
 C800 C 0.26720 0.87560 0.56442
 H801 H 0.31040 0.90888 0.58090
 H802 H 0.20812 0.93339 0.62338
 H803 H 0.18144 0.88619 0.58912
 H804 H 0.28356 0.86053 0.54694
 C805 C 0.26990 0.08989 0.41278
 C806 C 0.25187 0.06075 0.39830
 C807 C 0.21484 0.05959 0.40023
 C808 C 0.19640 0.08535 0.41867
 C809 C 0.21455 0.11295 0.43555
 C810 C 0.25136 0.11587 0.43129
 H811 H 0.29847 0.09127 0.41168
 H812 H 0.20026 0.03772 0.38879
 H813 H 0.16799 0.08272 0.42098
 H814 H 0.26602 0.13691 0.44394
 C815 C 0.72592 0.08701 0.58960
 C816 C 0.74538 0.05683 0.59960
 C817 C 0.78193 0.05613 0.59346
 C818 C 0.79830 0.08385 0.57574
 C819 C 0.77859 0.11312 0.56400
 C820 C 0.74243 0.11502 0.57197
 H821 H 0.69767 0.08812 0.59391
 H822 H 0.79772 0.03356 0.60153
 H823 H 0.82631 0.08183 0.57039
 H824 H 0.72660 0.13726 0.56319
 C825 C 0.91897 0.61183 0.22732
 C826 C 0.92848 0.60288 0.26075
 C827 C 0.90871 0.57694 0.27833
 C828 C 0.88184 0.55797 0.26147
 C829 C 0.87485 0.56468 0.22688
 C830 C 0.89251 0.59287 0.21053
 H831 H 0.93387 0.63171 0.21326
 H832 H 0.91586 0.56932 0.30400
 H833 H 0.86886 0.53610 0.27455
 H834 H 0.88752 0.59872 0.18396
 C835 C 0.90807 0.42128 0.72636
 C836 C 0.92998 0.39816 0.74500
 C837 C 0.92282 0.39215 0.77961
 C838 C 0.89665 0.41157 0.79620
 C839 C 0.87689 0.43718 0.77845
 C840 C 0.88150 0.44071 0.74305
 H841 H 0.91320 0.42626 0.69962
 H842 H 0.93908 0.37403 0.79432
 H843 H 0.89327 0.40807 0.82342
 H844 H 0.86661 0.46045 0.72892
 C845 C 0.07955 0.61061 0.77017
 C846 C 0.07158 0.60181 0.73626
 C847 C 0.09352 0.57774 0.71875
 C848 C 0.12103 0.56029 0.73603
 C849 C 0.12661 0.56672 0.77092
 C850 C 0.10664 0.59315 0.78735
 H851 H 0.06326 0.62943 0.78405
 H852 H 0.08775 0.57049 0.69262
 H853 H 0.13590 0.53975 0.72294
 H854 H 0.11056 0.59874 0.81418
 C855 C 0.07542 0.38125 0.22306
 C856 C 0.06835 0.38894 0.25743
 C857 C 0.08997 0.41357 0.27468
 C858 C 0.11613 0.43260 0.25687
 C859 C 0.12054 0.42734 0.22164
 C860 C 0.10104 0.40045 0.20530
 H861 H 0.05923 0.36219 0.20930
 H862 H 0.08472 0.42017 0.30107
 H863 H 0.13073 0.45344 0.26991
 H864 H 0.10418 0.39576 0.17822
   
