data_POSCAR
  _audit_creation_date              2014-09-24
  _audit_creation_method            'ToBaCCo'
  _symmetry_space_group_name_H-M    'P1'
  _symmetry_Int_Tables_number       1
  _symmetry_cell_setting            triclinic
  loop_
  _symmetry_equiv_pos_as_xyz
 x,y,z
_cell_length_a 26.2221
_cell_length_b 26.1851
_cell_length_c 26.3397
_cell_angle_alpha 89.835000
_cell_angle_beta 90.215000
_cell_angle_gamma 89.727900
loop_
  _atom_site_label
  _atom_site_type_symbol
  _atom_site_fract_x
  _atom_site_fract_y
  _atom_site_fract_z
O1 O 0.56617 0.12855 -0.02527
 O2 O 0.62562 0.06674 -0.00595
 C3 C 0.61257 0.11321 -0.01806
 O4 O 0.42526 0.03079 0.12721
 O5 O 0.36994 0.01196 0.06220
 C6 C 0.37998 0.02398 0.10905
 O7 O 0.56498 0.04114 0.12936
 O8 O 0.62520 0.02081 0.06971
 C9 C 0.61177 0.03536 0.11505
 O10 O 0.42602 0.12061 -0.03853
 O11 O 0.37000 0.05729 -0.01602
 C12 C 0.38043 0.10287 -0.03268
 Zr13 Zr 0.49694 0.08917 -0.01747
 O14 O 0.48683 0.15491 0.02826
 O15 O 0.50049 0.13753 -0.08170
 Zr16 Zr 0.49661 0.02360 0.09199
 O17 O 0.48780 0.09108 0.13514
 O18 O 0.50219 -0.02047 0.15941
 O19 O 0.54225 0.06675 0.04376
 O20 O 0.45158 0.06323 0.04063
 O21 O 0.43109 -0.02666 -0.12253
 O22 O 0.37357 -0.01741 -0.05758
 C23 C 0.38470 -0.02489 -0.10474
 O24 O 0.57378 -0.12199 0.03713
 O25 O 0.62941 -0.05640 0.02115
 C26 C 0.61922 -0.10370 0.03237
 O27 O 0.43329 -0.12463 0.03992
 O28 O 0.37393 -0.06392 0.01718
 C29 C 0.38684 -0.10953 0.03234
 O30 O 0.57682 -0.02761 -0.11717
 O31 O 0.63026 -0.01004 -0.05007
 C32 C 0.62206 -0.02170 -0.09714
 Zr33 Zr 0.50280 -0.02069 -0.08334
 O34 O 0.50122 -0.09151 -0.12191
 O35 O 0.50804 0.01872 -0.15340
 Zr36 Zr 0.50241 -0.08663 0.02653
 O37 O 0.50030 -0.15373 -0.01818
 O38 O 0.50761 -0.13118 0.09347
 Zr39 Zr 0.57652 0.00384 0.00722
 Zr40 Zr 0.42299 -0.00127 0.00283
 O41 O 0.45833 -0.06314 -0.03430
 O42 O 0.54894 -0.06069 -0.03203
 O43 O 0.45443 0.03779 -0.06007
 O44 O 0.54397 -0.03504 0.06895
 O45 O 0.54433 0.04050 -0.05687
 O46 O 0.45388 -0.03837 0.06705
 H47 H 0.42708 0.08853 0.05440
 H48 H 0.56671 -0.04970 0.09541
 H49 H 0.43650 -0.08953 -0.05010
 H50 H 0.56671 0.05698 -0.08225
 H51 H 0.47049 -0.04054 0.16270
 H52 H 0.48591 -0.11446 0.11919
 H53 H 0.53214 -0.15517 -0.03817
 H54 H 0.53369 -0.10944 -0.11438
 H55 H 0.48002 0.04415 -0.15454
 H56 H 0.50101 0.11509 -0.11174
 H57 H 0.51990 0.16271 0.04466
 H58 H 0.50935 0.11754 0.11931
 O59 O 0.00127 0.41219 -0.11881
 O60 O 0.00032 0.36556 -0.04510
 C61 C 0.00158 0.36928 -0.09415
 O62 O 0.12924 0.57204 -0.00954
 O63 O 0.06146 0.62686 -0.02061
 C64 C 0.10970 0.61740 -0.01648
 O65 O 0.12894 0.42685 0.00069
 O66 O 0.06113 0.37328 0.01379
 C67 C 0.10924 0.38192 0.00851
 O68 O -0.00725 0.55247 -0.13925
 O69 O -0.00271 0.61763 -0.08166
 C70 C -0.00671 0.60051 -0.12767
 Zr71 Zr -0.00139 0.48780 -0.09170
 O72 O 0.05514 0.48572 -0.14888
 O73 O -0.05880 0.47405 -0.14660
 Zr74 Zr 0.09220 0.49971 -0.00431
 O75 O 0.14700 0.49797 -0.06311
 O76 O 0.15123 0.50041 0.05070
 O77 O 0.05207 0.44753 -0.04852
 O78 O 0.05185 0.53691 -0.06111
 O79 O -0.12759 0.57370 -0.01102
 O80 O -0.05955 0.62799 -0.01973
 C81 C -0.10789 0.61880 -0.01802
 O82 O -0.00012 0.44854 0.13492
 O83 O 0.00075 0.38328 0.07714
 C84 C -0.00033 0.40058 0.12316
 O85 O 0.00778 0.58860 0.11393
 O86 O 0.00354 0.63546 0.04046
 C87 C 0.00707 0.63154 0.08938
 O88 O -0.12760 0.42995 0.01249
 O89 O -0.05976 0.37427 0.01779
 C90 C -0.10799 0.38447 0.01853
 Zr91 Zr -0.09070 0.50139 -0.00042
 O92 O -0.14639 0.51452 0.05610
 O93 O -0.14856 0.48920 -0.05529
 Zr94 Zr 0.00309 0.51317 0.08709
 O95 O -0.05194 0.52779 0.14389
 O96 O 0.06196 0.51449 0.14234
 Zr97 Zr 0.00062 0.42522 0.00877
 Zr98 Zr 0.00076 0.57582 -0.01333
 O99 O -0.05004 0.55213 0.04373
 O100 O -0.05085 0.46327 0.05710
 O101 O -0.05336 0.53872 -0.05949
 O102 O 0.05440 0.46335 0.05423
 O103 O -0.05273 0.44983 -0.04614
 O104 O 0.05476 0.55244 0.04174
 H105 H 0.07225 0.55704 -0.08556
 H106 H 0.07597 0.44316 0.07793
 H107 H -0.07046 0.57798 0.06218
 H108 H -0.07425 0.42428 -0.06364
 H109 H 0.14572 0.53072 0.07233
 H110 H 0.08559 0.54234 0.13316
 H111 H -0.07810 0.50083 0.14140
 H112 H -0.14141 0.48835 0.08285
 H113 H -0.14592 0.51670 -0.08096
 H114 H -0.08574 0.50009 -0.14167
 H115 H 0.07867 0.45716 -0.14083
 H116 H 0.14226 0.46572 -0.08196
 O117 O -0.13094 0.00860 0.56496
 O118 O -0.06608 0.01088 0.62392
 C119 C -0.11427 0.01087 0.61122
 O120 O -0.00180 -0.13825 0.44304
 O121 O -0.00030 -0.07789 0.37974
 C122 C -0.00032 -0.12476 0.39569
 O123 O -0.01130 -0.12187 0.58336
 O124 O -0.00604 -0.04970 0.63219
 C125 C -0.01057 -0.09857 0.62677
 O126 O -0.12708 0.00270 0.42290
 O127 O -0.05886 -0.01119 0.37044
 C128 C -0.10687 -0.00392 0.37829
 Zr129 Zr -0.09134 0.00318 0.49584
 O130 O -0.15266 -0.04906 0.49450
 O131 O -0.14105 0.06679 0.49093
 Zr132 Zr -0.00506 -0.09257 0.50888
 O133 O -0.06526 -0.14619 0.50793
 O134 O 0.04851 -0.15183 0.52240
 O135 O -0.05642 -0.04643 0.54795
 O136 O -0.05469 -0.05604 0.45916
 O137 O 0.00280 0.11778 0.41456
 O138 O 0.00434 0.04527 0.36586
 C139 C 0.00353 0.09447 0.37114
 O140 O 0.12753 0.00830 0.56920
 O141 O 0.06131 0.01089 0.62620
 C142 C 0.10969 0.01244 0.61478
 O143 O 0.12811 -0.01756 0.42907
 O144 O 0.06095 -0.02059 0.37308
 C145 C 0.10900 -0.02248 0.38362
 O146 O 0.00801 0.13283 0.55545
 O147 O 0.00166 0.07281 0.61880
 C148 C 0.00629 0.11945 0.60284
 Zr149 Zr 0.00397 0.08791 0.48905
 O150 O 0.06388 0.14090 0.47897
 O151 O -0.05044 0.14784 0.48640
 Zr152 Zr 0.09031 -0.00768 0.50025
 O153 O 0.15545 0.03862 0.49145
 O154 O 0.13921 -0.07079 0.51448
 Zr155 Zr -0.00158 0.00591 0.57462
 Zr156 Zr 0.00057 -0.01073 0.42347
 O157 O 0.05471 0.04186 0.45036
 O158 O 0.05399 0.05172 0.53892
 O159 O -0.04941 0.04793 0.44636
 O160 O 0.04849 -0.05196 0.54991
 O161 O -0.05060 0.05700 0.53619
 O162 O 0.05001 -0.06267 0.46040
 H163 H -0.07660 -0.07818 0.43792
 H164 H 0.06840 -0.07094 0.57592
 H165 H 0.07718 0.05969 0.42597
 H166 H -0.07111 0.08146 0.55634
 H167 H 0.07527 -0.14897 0.49619
 H168 H 0.14176 -0.09073 0.48272
 H169 H 0.14313 0.07431 0.49054
 H170 H 0.08689 0.13790 0.50871
 H171 H -0.07777 0.13725 0.46271
 H172 H -0.17610 0.05280 0.49046
 H173 H -0.14666 -0.07390 0.52225
 H174 H -0.08876 -0.13741 0.53590
 C175 C -0.34872 0.15266 -0.02517
 C176 C -0.30318 0.15460 0.00195
 C177 C -0.27349 0.20233 0.00332
 N178 N -0.22847 0.20439 0.02871
 N179 N -0.20245 0.24797 0.03104
 C180 C -0.22071 0.29119 0.00849
 N181 N -0.26584 0.28916 -0.01658
 N182 N -0.29169 0.24562 -0.01907
 C183 C -0.19169 0.33920 0.00924
 C184 C -0.14140 0.34031 0.02591
 H185 H -0.29132 0.12248 0.02523
 H186 H -0.20874 0.37314 -0.00738
 H187 H -0.36032 0.18565 -0.04738
 H188 H -0.12384 0.30545 0.03994
 C189 C 0.34782 0.85142 0.04088
 C190 C 0.30252 0.84898 0.01332
 C191 C 0.27259 0.80135 0.01179
 N192 N 0.22914 0.79889 -0.01618
 N193 N 0.20327 0.75530 -0.01951
 C194 C 0.22007 0.71238 0.00465
 N195 N 0.26354 0.71483 0.03252
 N196 N 0.28929 0.75843 0.03597
 C197 C 0.19144 0.66407 0.00190
 C198 C 0.14307 0.66218 -0.01986
 H199 H 0.29127 0.88062 -0.01091
 H200 H 0.20720 0.63038 0.02017
 H201 H 0.35909 0.81890 0.06393
 H202 H 0.12657 0.69682 -0.03559
 C203 C 0.33930 0.13855 -0.04576
 C204 C 0.29615 0.14428 -0.01581
 C205 C 0.26676 0.19242 -0.01669
 N206 N 0.22596 0.19850 0.01419
 N207 N 0.20119 0.24301 0.01587
 C208 C 0.21656 0.28330 -0.01288
 N209 N 0.25738 0.27725 -0.04371
 N210 N 0.28203 0.23269 -0.04551
 C211 C 0.18906 0.33249 -0.01170
 C212 C 0.14220 0.33671 0.01238
 H213 H 0.28737 0.11582 0.01276
 H214 H 0.20408 0.36462 -0.03279
 H215 H 0.34841 0.16810 -0.07310
 H216 H 0.12615 0.30333 0.03062
 C217 C -0.33955 0.85933 0.04116
 C218 C -0.29757 0.85465 0.00934
 C219 C -0.26807 0.80644 0.00780
 N220 N -0.22700 0.80179 -0.02305
 N221 N -0.20181 0.75754 -0.02616
 C222 C -0.21704 0.71611 0.00104
 N223 N -0.25819 0.72072 0.03167
 N224 N -0.28320 0.76497 0.03494
 C225 C -0.18901 0.66719 -0.00109
 C226 C -0.14126 0.66370 -0.02361
 H227 H -0.28943 0.88439 -0.01809
 H228 H -0.20426 0.63452 0.01901
 H229 H -0.34795 0.82844 0.06723
 H230 H -0.12487 0.69749 -0.04076
 C231 C 0.00957 -0.32135 0.11946
 C232 C 0.01587 -0.32410 0.17194
 C233 C 0.01389 -0.27982 0.20557
 N234 N 0.01696 -0.28761 0.25633
 N235 N 0.01384 -0.24858 0.28828
 C236 C 0.00752 -0.20022 0.27069
 N237 N 0.00478 -0.19224 0.21979
 N238 N 0.00779 -0.23144 0.18769
 C239 C 0.00357 -0.15734 0.30625
 C240 C 0.00181 -0.16601 0.35843
 H241 H 0.02082 -0.36100 0.19008
 H242 H 0.00188 -0.11878 0.29130
 H243 H 0.00528 -0.28474 0.10065
 H244 H 0.00261 -0.20477 0.37293
 C245 C 0.00311 0.32188 0.87599
 C246 C 0.00807 0.32384 0.82336
 C247 C 0.00838 0.27871 0.79058
 N248 N 0.01348 0.28535 0.73985
 N249 N 0.01303 0.24552 0.70872
 C250 C 0.00744 0.19740 0.72706
 N251 N 0.00249 0.19060 0.77794
 N252 N 0.00294 0.23059 0.80923
 C253 C 0.00600 0.15358 0.69223
 C254 C 0.00927 0.16096 0.63991
 H255 H 0.01158 0.36054 0.80463
 H256 H 0.00151 0.11551 0.70772
 H257 H 0.00043 0.28546 0.89537
 H258 H 0.01353 0.19928 0.62493
 C259 C -0.00138 0.36425 0.16548
 C260 C -0.00019 0.31152 0.15867
 C261 C -0.00003 0.27666 0.20244
 N262 N 0.00196 0.22534 0.19551
 N263 N 0.00247 0.19374 0.23530
 C264 C 0.00102 0.21250 0.28333
 N265 N -0.00101 0.26371 0.29015
 N266 N -0.00152 0.29519 0.25048
 C267 C 0.00162 0.17902 0.32794
 C268 C 0.00358 0.12596 0.32490
 H269 H 0.00114 0.29555 0.12080
 H270 H 0.00030 0.19729 0.36477
 H271 H -0.00258 0.37987 0.20350
 H272 H 0.00475 0.10730 0.28827
 C273 C -0.01048 -0.36637 0.83388
 C274 C -0.01049 -0.31342 0.84023
 C275 C -0.01424 -0.27900 0.79630
 N276 N -0.01107 -0.22770 0.80261
 N277 N -0.01340 -0.19646 0.76263
 C278 C -0.01910 -0.21552 0.71504
 N279 N -0.02259 -0.26671 0.70884
 N280 N -0.02021 -0.29787 0.74872
 C281 C -0.02000 -0.18240 0.67022
 C282 C -0.01407 -0.12970 0.67299
 H283 H -0.00705 -0.29671 0.87769
 H284 H -0.02385 -0.20064 0.63354
 H285 H -0.01368 -0.38171 0.79580
 H286 H -0.01074 -0.11110 0.70953
 C287 C 0.34038 -0.03206 0.86134
 C288 C 0.33820 -0.01454 0.81136
 C289 C 0.28949 -0.01278 0.78252
 N290 N 0.28695 0.01247 0.73753
 N291 N 0.24316 0.01547 0.71175
 C292 C 0.19995 -0.00656 0.72983
 N293 N 0.20251 -0.03202 0.77477
 N294 N 0.24632 -0.03487 0.80069
 C295 C 0.15169 -0.00510 0.70008
 C296 C 0.14881 0.02125 0.65406
 H297 H 0.37192 0.00200 0.79443
 H298 H 0.11979 -0.02814 0.71231
 H299 H 0.30554 -0.04532 0.87889
 H300 H 0.18195 0.04248 0.64181
 C301 C -0.35343 0.04363 0.15130
 C302 C -0.30164 0.03173 0.14810
 C303 C -0.27029 0.03106 0.19490
 N304 N -0.22304 0.00975 0.19501
 N305 N -0.19648 0.00572 0.23815
 C306 C -0.21622 0.02264 0.28280
 N307 N -0.26314 0.04443 0.28256
 N308 N -0.28963 0.04844 0.23952
 C309 C -0.18777 0.01775 0.33097
 C310 C -0.13896 -0.00304 0.33248
 H311 H -0.28547 0.01754 0.11304
 H312 H -0.20493 0.03218 0.36546
 H313 H -0.36779 0.05648 0.18770
 H314 H -0.12162 -0.01596 0.29748
 C315 C 0.33877 0.03201 0.14545
 C316 C 0.29825 -0.00152 0.15102
 C317 C 0.26955 -0.00307 0.19909
 N318 N 0.22853 -0.03398 0.20419
 N319 N 0.20379 -0.03664 0.24826
 C320 C 0.21951 -0.00897 0.28903
 N321 N 0.26074 0.02156 0.28402
 N322 N 0.28526 0.02441 0.23995
 C323 C 0.19148 -0.01001 0.33738
 C324 C 0.14267 -0.03013 0.33998
 H325 H 0.29071 -0.02991 0.12215
 H326 H 0.20733 0.00966 0.36991
 H327 H 0.34636 0.05927 0.17538
 H328 H 0.12577 -0.04645 0.30614
 C329 C -0.33187 -0.02674 0.87095
 C330 C -0.33225 -0.02040 0.81835
 C331 C -0.28474 -0.01660 0.78817
 N332 N -0.28753 -0.00312 0.73849
 N333 N -0.24536 0.00173 0.71082
 C334 C -0.19846 -0.00667 0.73154
 N335 N -0.19560 -0.02045 0.78126
 N336 N -0.23787 -0.02512 0.80907
 C337 C -0.15164 -0.00233 0.70006
 C338 C -0.15499 0.01420 0.64971
 H339 H -0.36834 -0.01457 0.79899
 H340 H -0.11524 -0.01449 0.71558
 H341 H -0.29550 -0.03013 0.89036
 H342 H -0.19215 0.02541 0.63527
   
