data_POSCAR
  _audit_creation_date              2014-09-24
  _audit_creation_method            'ToBaCCo'
  _symmetry_space_group_name_H-M    'P1'
  _symmetry_Int_Tables_number       1
  _symmetry_cell_setting            triclinic
  loop_
  _symmetry_equiv_pos_as_xyz
 x,y,z
_cell_length_a 29.0532
_cell_length_b 29.2922
_cell_length_c 39.1606
_cell_angle_alpha 90.000200
_cell_angle_beta 90.000100
_cell_angle_gamma 90.000000
loop_
  _atom_site_label
  _atom_site_type_symbol
  _atom_site_fract_x
  _atom_site_fract_y
  _atom_site_fract_z
B1 B 0.27254 0.23372 0.28585
 B2 B 0.21768 0.22439 0.27572
 B3 B 0.23559 0.27719 0.28397
 B4 B 0.28946 0.28387 0.26877
 B5 B 0.30426 0.23297 0.25018
 B6 B 0.25932 0.19576 0.25503
 B7 B 0.22963 0.26732 0.21634
 B8 B 0.28453 0.27657 0.22641
 B9 B 0.26659 0.22374 0.21817
 B10 B 0.21273 0.21712 0.23339
 B11 B 0.19798 0.26799 0.25200
 B12 B 0.24289 0.30521 0.24717
 B13 B 0.72747 0.76635 0.28587
 B14 B 0.78233 0.77569 0.27574
 B15 B 0.76442 0.72288 0.28398
 B16 B 0.71054 0.71620 0.26879
 B17 B 0.69575 0.76711 0.25019
 B18 B 0.74068 0.80432 0.25505
 B19 B 0.77038 0.73276 0.21636
 B20 B 0.71547 0.72350 0.22642
 B21 B 0.73342 0.77634 0.21818
 B22 B 0.78727 0.78295 0.23341
 B23 B 0.80203 0.73209 0.25201
 B24 B 0.75712 0.69487 0.24718
 B25 B 0.73342 0.22371 -0.21808
 B26 B 0.71548 0.27654 -0.22632
 B27 B 0.77038 0.26729 -0.21625
 B28 B 0.78728 0.21709 -0.23330
 B29 B 0.74069 0.19573 -0.25494
 B30 B 0.69576 0.23294 -0.25008
 B31 B 0.76443 0.27716 -0.28388
 B32 B 0.78233 0.22436 -0.27563
 B33 B 0.72747 0.23369 -0.28576
 B34 B 0.71055 0.28384 -0.26868
 B35 B 0.75712 0.30517 -0.24708
 B36 B 0.80204 0.26796 -0.25191
 B37 B 0.27256 0.76637 -0.28575
 B38 B 0.21770 0.77571 -0.27562
 B39 B 0.23561 0.72290 -0.28387
 B40 B 0.28949 0.71622 -0.26867
 B41 B 0.30428 0.76712 -0.25008
 B42 B 0.25935 0.80433 -0.25493
 B43 B 0.22965 0.73277 -0.21624
 B44 B 0.28455 0.72351 -0.22631
 B45 B 0.26661 0.77635 -0.21807
 B46 B 0.21275 0.78297 -0.23329
 B47 B 0.19800 0.73211 -0.25190
 B48 B 0.24291 0.69489 -0.24707
 B49 B 1.22571 1.26468 0.78556
 B50 B 1.28052 1.27617 0.77661
 B51 B 1.26425 1.22259 0.78387
 B52 B 1.21114 1.21437 0.76758
 B53 B 1.19515 1.26515 0.74932
 B54 B 1.23857 1.30377 0.75547
 B55 B 1.27207 1.23421 0.71651
 B56 B 1.21722 1.22280 0.72540
 B57 B 1.23353 1.27641 0.71815
 B58 B 1.28662 1.28457 0.73446
 B59 B 1.30257 1.23383 0.75274
 B60 B 1.25917 1.19519 0.74662
 B61 B 0.77428 0.73538 0.78554
 B62 B 0.71947 0.72389 0.77660
 B63 B 0.73574 0.77747 0.78386
 B64 B 0.78886 0.78570 0.76757
 B65 B 0.80484 0.73492 0.74930
 B66 B 0.76142 0.69630 0.75545
 B67 B 0.72793 0.76587 0.71650
 B68 B 0.78278 0.77727 0.72538
 B69 B 0.76647 0.72367 0.71813
 B70 B 0.71338 0.71551 0.73444
 B71 B 0.69743 0.76624 0.75272
 B72 B 0.74083 0.80488 0.74661
 B73 B 1.23354 0.72364 0.28196
 B74 B 1.21723 0.77724 0.27471
 B75 B 1.27208 0.76584 0.28359
 B76 B 1.28663 0.71548 0.26565
 B77 B 1.23858 0.69627 0.24464
 B78 B 1.19516 0.73490 0.25079
 B79 B 1.26426 0.77745 0.21624
 B80 B 1.28053 0.72387 0.22349
 B81 B 1.22572 0.73536 0.21455
 B82 B 1.21115 0.78567 0.23252
 B83 B 1.25918 0.80485 0.25349
 B84 B 1.30258 0.76621 0.24737
 B85 B 0.77431 1.26471 0.21456
 B86 B 0.71950 1.27620 0.22350
 B87 B 0.73577 1.22262 0.21624
 B88 B 0.78888 1.21439 0.23253
 B89 B 0.80487 1.26516 0.25080
 B90 B 0.76145 1.30379 0.24465
 B91 B 0.72796 1.23422 0.28360
 B92 B 0.78281 1.22282 0.27472
 B93 B 0.76649 1.27642 0.28197
 B94 B 0.71341 1.28458 0.26566
 B95 B 0.69745 1.23385 0.24738
 B96 B 0.74086 1.19521 0.25350
 O97 O 0.44868 1.08574 0.02643
 O98 O 0.55136 0.91434 0.02643
 O99 O 0.41090 0.94574 0.02064
 O100 O 0.58914 1.05434 0.02063
 O101 O 0.47317 0.92202 0.04186
 O102 O 0.52687 1.07806 0.04185
 O103 O 0.57922 0.97818 0.04309
 O104 O 0.42082 1.02190 0.04309
 C105 C 0.42596 1.06329 0.04776
 C106 C 0.57408 0.93680 0.04777
 C107 C 0.43111 0.92577 0.04412
 C108 C 0.56892 1.07431 0.04412
 O109 O 0.55136 1.08573 -0.02631
 O110 O 0.44868 0.91434 -0.02631
 O111 O 0.41090 1.05434 -0.02052
 O112 O 0.58914 0.94573 -0.02052
 O113 O 0.52686 0.92201 -0.04173
 O114 O 0.47317 1.07806 -0.04174
 O115 O 0.57922 1.02189 -0.04297
 O116 O 0.42082 0.97818 -0.04297
 Co117 Co 0.50002 1.07412 0.00006
 Co118 Co 0.50002 0.92596 0.00006
 Co119 Co 0.42450 1.00004 0.00006
 Co120 Co 0.57554 1.00004 0.00006
 O121 O 0.50002 1.00004 0.00006
 C122 C 0.57408 1.06328 -0.04765
 C123 C 0.42596 0.93679 -0.04764
 C124 C 0.43111 1.07430 -0.04400
 C125 C 0.56892 0.92577 -0.04400
 O126 O 0.94868 0.58573 0.52645
 O127 O 1.05135 0.41435 0.52645
 O128 O 0.91090 0.44573 0.52063
 O129 O 1.08914 0.55435 0.52062
 O130 O 0.97317 0.42203 0.54185
 O131 O 1.02686 0.57805 0.54184
 O132 O 1.07922 0.47820 0.54309
 O133 O 0.92082 0.52188 0.54309
 C134 C 0.92594 0.56327 0.54777
 C135 C 1.07409 0.43682 0.54777
 C136 C 0.93112 0.42574 0.54409
 C137 C 1.06892 0.57434 0.54409
 O138 O 1.05135 0.58572 0.47367
 O139 O 0.94868 0.41435 0.47367
 O140 O 0.91090 0.55435 0.47949
 O141 O 1.08914 0.44572 0.47950
 O142 O 1.02686 0.42202 0.45828
 O143 O 0.97318 0.57806 0.45827
 O144 O 1.07922 0.52187 0.45702
 O145 O 0.92082 0.47820 0.45703
 Co146 Co 1.00002 0.57411 0.50006
 Co147 Co 1.00002 0.42596 0.50006
 Co148 Co 0.92450 0.50004 0.50006
 Co149 Co 1.07554 0.50004 0.50006
 O150 O 1.00002 0.50004 0.50006
 C151 C 1.07409 0.56326 0.45234
 C152 C 0.92594 0.43681 0.45235
 C153 C 0.93112 0.57433 0.45603
 C154 C 1.06892 0.42574 0.45603
 O155 O 1.05722 0.47540 0.05864
 O156 O 1.05722 0.52469 -0.05856
 O157 O 1.05729 0.42156 -0.01806
 O158 O 1.05729 0.57853 0.01814
 O159 O 1.03196 0.44747 -0.06513
 O160 O 1.03196 0.55262 0.06522
 O161 O 1.03146 0.58751 -0.03942
 O162 O 1.03146 0.41258 0.03950
 C163 C 1.06142 0.43365 0.05584
 C164 C 1.06142 0.56644 -0.05576
 C165 C 1.06145 0.42503 -0.04928
 C166 C 1.06145 0.57506 0.04937
 O167 O 0.94277 0.52469 0.05864
 O168 O 0.94277 0.47539 -0.05855
 O169 O 0.94271 0.42156 0.01815
 O170 O 0.94271 0.57853 -0.01806
 O171 O 0.96803 0.55261 -0.06514
 O172 O 0.96804 0.44748 0.06522
 O173 O 0.96853 0.58751 0.03950
 O174 O 0.96854 0.41258 -0.03941
 Co175 Co 1.00000 0.50005 0.05573
 Co176 Co 1.00000 0.50004 -0.05564
 Co177 Co 1.00000 0.42547 0.00005
 Co178 Co 1.00000 0.57462 0.00004
 O179 O 1.00000 0.50004 0.00004
 C180 C 0.93857 0.56645 0.05584
 C181 C 0.93857 0.43364 -0.05575
 C182 C 0.93855 0.42503 0.04937
 C183 C 0.93854 0.57505 -0.04928
 O184 O 0.55676 0.97428 0.55851
 O185 O 0.55676 1.02581 0.44158
 O186 O 0.55775 0.92136 0.48272
 O187 O 0.55775 1.07873 0.51737
 O188 O 0.53368 0.94834 0.43543
 O189 O 0.53368 1.05176 0.56466
 O190 O 0.52966 1.08820 0.46002
 O191 O 0.52966 0.91189 0.54006
 C192 C 0.56007 0.93245 0.55617
 C193 C 0.56007 1.06765 0.44392
 C194 C 0.56282 0.92567 0.45157
 C195 C 0.56282 1.07442 0.54851
 O196 O 0.44324 1.02582 0.55851
 O197 O 0.44324 0.97427 0.44158
 O198 O 0.44224 0.92136 0.51737
 O199 O 0.44224 1.07872 0.48271
 O200 O 0.46631 1.05175 0.43542
 O201 O 0.46632 0.94834 0.56466
 O202 O 0.47033 1.08821 0.54006
 O203 O 0.47034 0.91188 0.46003
 Co204 Co 0.50000 1.00005 0.55554
 Co205 Co 0.50000 1.00004 0.44454
 Co206 Co 0.50000 0.92523 0.50005
 Co207 Co 0.49999 1.07486 0.50004
 O208 O 0.50000 1.00005 0.50004
 C209 C 0.43992 1.06765 0.55617
 C210 C 0.43992 0.93244 0.44392
 C211 C 0.43717 0.92568 0.54852
 C212 C 0.43717 1.07441 0.45157
 O213 O 1.08488 1.03827 0.46319
 O214 O 0.91517 1.03826 0.53690
 O215 O 0.94426 1.02415 0.43366
 O216 O 1.05578 1.02416 0.56643
 O217 O 0.92146 1.05523 0.47876
 O218 O 1.07859 1.05524 0.52134
 O219 O 0.98020 1.05809 0.55856
 O220 O 1.01985 1.05809 0.44153
 C221 C 1.06137 1.06543 0.44550
 C222 C 0.93867 1.06542 0.55459
 C223 C 0.92471 1.05650 0.44752
 C224 C 1.07533 1.05651 0.55257
 O225 O 1.08489 0.96180 0.53690
 O226 O 0.91517 0.96179 0.46320
 O227 O 1.05578 0.97590 0.43366
 O228 O 0.94427 0.97590 0.56644
 O229 O 0.92147 0.94482 0.52134
 O230 O 1.07859 0.94483 0.47875
 O231 O 1.01986 0.94198 0.55856
 O232 O 0.98020 0.94197 0.44153
 Co233 Co 1.07435 1.00003 0.50005
 Co234 Co 0.92570 1.00003 0.50005
 Co235 Co 1.00002 1.00003 0.44408
 Co236 Co 1.00003 1.00003 0.55601
 O237 O 1.00003 1.00003 0.50005
 C238 C 1.06138 0.93464 0.55459
 C239 C 0.93867 0.93463 0.44551
 C240 C 1.07533 0.94356 0.44752
 C241 C 0.92472 0.94356 0.55258
 O242 O 0.57865 0.55541 -0.02090
 O243 O 0.42141 0.55541 0.02099
 O244 O 0.47981 0.55794 -0.05842
 O245 O 0.52024 0.55795 0.05851
 O246 O 0.41481 0.53767 -0.03711
 O247 O 0.58524 0.53769 0.03720
 O248 O 0.44451 0.52484 0.06627
 O249 O 0.55554 0.52484 -0.06618
 C250 C 0.57517 0.55702 -0.05212
 C251 C 0.42488 0.55702 0.05221
 C252 C 0.43820 0.56493 -0.05477
 C253 C 0.56185 0.56495 0.05486
 O254 O 0.57865 0.44465 0.02099
 O255 O 0.42141 0.44464 -0.02089
 O256 O 0.52024 0.44211 -0.05841
 O257 O 0.47982 0.44212 0.05852
 O258 O 0.41482 0.46238 0.03721
 O259 O 0.58525 0.46238 -0.03711
 O260 O 0.55555 0.47523 0.06627
 O261 O 0.44451 0.47521 -0.06618
 Co262 Co 0.57447 0.50003 0.00005
 Co263 Co 0.42559 0.50003 0.00005
 Co264 Co 0.50003 0.50002 -0.05585
 Co265 Co 0.50003 0.50003 0.05595
 O266 O 0.50003 0.50003 0.00005
 C267 C 0.57517 0.44304 0.05221
 C268 C 0.42488 0.44303 -0.05211
 C269 C 0.56185 0.43511 -0.05476
 C270 C 0.43821 0.43512 0.05487
 C271 C 0.28481 1.19758 0.18688
 C272 C 0.30341 1.17654 0.16429
 C273 C 0.32805 1.15176 0.13933
 C274 C 0.35047 1.13073 0.11872
 C275 C 0.37745 1.10649 0.09478
 C276 C 0.40019 1.08634 0.07387
 C277 C 0.78456 0.69736 0.68687
 C278 C 0.80313 0.67630 0.66429
 C279 C 0.82780 0.65154 0.63932
 C280 C 0.85028 0.63057 0.61870
 C281 C 0.87732 0.60640 0.59476
 C282 C 0.90012 0.58630 0.57386
 C283 C 0.71520 0.80250 0.18689
 C284 C 0.69660 0.82354 0.16431
 C285 C 0.67197 0.84833 0.13934
 C286 C 0.64955 0.86935 0.11873
 C287 C 0.62258 0.89360 0.09479
 C288 C 0.59985 0.91375 0.07388
 C289 C 1.21544 0.30272 0.68689
 C290 C 1.19687 0.32378 0.66430
 C291 C 1.17221 0.34855 0.63933
 C292 C 1.14974 0.36952 0.61872
 C293 C 1.12270 0.39369 0.59477
 C294 C 1.09991 0.41379 0.57387
 C295 C 0.71520 1.19754 -0.18679
 C296 C 0.69661 1.17651 -0.16420
 C297 C 0.67197 1.15173 -0.13923
 C298 C 0.64955 1.13071 -0.11862
 C299 C 0.62258 1.10647 -0.09467
 C300 C 0.59984 1.08632 -0.07376
 C301 C 1.21545 0.69733 0.31322
 C302 C 1.19688 0.67627 0.33581
 C303 C 1.17222 0.65151 0.36078
 C304 C 1.14975 0.63055 0.38140
 C305 C 1.12270 0.60638 0.40534
 C306 C 1.09991 0.58628 0.42625
 C307 C 0.28483 0.80251 -0.18678
 C308 C 0.30343 0.82355 -0.16419
 C309 C 0.32806 0.84833 -0.13922
 C310 C 0.35048 0.86935 -0.11861
 C311 C 0.37745 0.89359 -0.09466
 C312 C 0.40019 0.91374 -0.07375
 C313 C 0.78458 0.30273 0.31323
 C314 C 0.80316 0.32379 0.33582
 C315 C 0.82782 0.34855 0.36079
 C316 C 0.85029 0.36952 0.38141
 C317 C 0.87733 0.39369 0.40535
 C318 C 0.90012 0.41379 0.42625
 C319 C 1.20841 0.28724 0.18340
 C320 C 1.19030 0.30743 0.16009
 C321 C 1.16754 0.33392 0.13497
 C322 C 1.14656 0.35764 0.11509
 C323 C 1.11979 0.38567 0.09329
 C324 C 1.09465 0.40866 0.07570
 C325 C 0.70542 0.78462 0.68369
 C326 C 0.68697 0.80450 0.66042
 C327 C 0.66430 0.83105 0.63535
 C328 C 0.64364 0.85508 0.61551
 C329 C 0.61741 0.88360 0.59376
 C330 C 0.59276 0.90703 0.57616
 C331 C 1.20842 0.71286 -0.18330
 C332 C 1.19031 0.69266 -0.16000
 C333 C 1.16755 0.66618 -0.13488
 C334 C 1.14657 0.64245 -0.11500
 C335 C 1.11979 0.61442 -0.09320
 C336 C 1.09465 0.59144 -0.07561
 C337 C 0.70544 1.21548 0.31640
 C338 C 0.68698 1.19559 0.33968
 C339 C 0.66431 1.16904 0.36475
 C340 C 0.64365 1.14502 0.38458
 C341 C 0.61741 1.11650 0.40634
 C342 C 0.59275 1.09307 0.42393
 C343 C 0.79160 0.71285 0.18341
 C344 C 0.80971 0.69266 0.16011
 C345 C 0.83247 0.66618 0.13498
 C346 C 0.85344 0.64245 0.11510
 C347 C 0.88021 0.61443 0.09329
 C348 C 0.90535 0.59144 0.07570
 C349 C 0.29458 1.21546 0.68371
 C350 C 0.31303 1.19558 0.66043
 C351 C 0.33571 1.16904 0.63536
 C352 C 0.35636 1.14501 0.61552
 C353 C 0.38259 1.11650 0.59376
 C354 C 0.40724 1.09307 0.57616
 C355 C 0.79161 0.28720 -0.18331
 C356 C 0.80972 0.30740 -0.16000
 C357 C 0.83247 0.33389 -0.13488
 C358 C 0.85344 0.35762 -0.11500
 C359 C 0.88021 0.38565 -0.09320
 C360 C 0.90535 0.40864 -0.07561
 C361 C 0.29459 0.78458 0.31640
 C362 C 0.31304 0.80447 0.33967
 C363 C 0.33571 0.83103 0.36474
 C364 C 0.35636 0.85506 0.38458
 C365 C 0.38259 0.88358 0.40633
 C366 C 0.40724 0.90701 0.42393
 C367 C 1.18673 1.20056 0.30178
 C368 C 1.16507 1.18334 0.32449
 C369 C 1.14182 1.16337 0.35214
 C370 C 1.12304 1.14511 0.37580
 C371 C 1.10173 1.12120 0.40256
 C372 C 1.08348 1.09764 0.42368
 C373 C 0.69064 0.69939 -0.19627
 C374 C 0.67112 0.68148 -0.17277
 C375 C 0.65046 0.66051 -0.14434
 C376 C 0.63371 0.64123 -0.12026
 C377 C 0.61427 0.61590 -0.09339
 C378 C 0.59699 0.59097 -0.07266
 C379 C 0.81328 1.20053 0.69830
 C380 C 0.83494 1.18332 0.67560
 C381 C 0.85820 1.16335 0.64795
 C382 C 0.87699 1.14510 0.62429
 C383 C 0.89830 1.12119 0.59753
 C384 C 0.91656 1.09764 0.57641
 C385 C 0.30937 0.69936 0.19636
 C386 C 0.32889 0.68146 0.17286
 C387 C 0.34955 0.66049 0.14443
 C388 C 0.36631 0.64122 0.12035
 C389 C 0.38576 0.61589 0.09348
 C390 C 0.40304 0.59096 0.07275
 C391 C 1.18676 0.79953 0.69831
 C392 C 1.16510 0.81675 0.67560
 C393 C 1.14184 0.83672 0.64795
 C394 C 1.12307 0.85497 0.62430
 C395 C 1.10175 0.87888 0.59754
 C396 C 1.08350 0.90243 0.57641
 C397 C 0.69067 0.30070 0.19637
 C398 C 0.67114 0.31861 0.17287
 C399 C 0.65049 0.33957 0.14444
 C400 C 0.63373 0.35885 0.12036
 C401 C 0.61429 0.38417 0.09348
 C402 C 0.59701 0.40910 0.07275
 C403 C 0.81327 0.79951 0.30180
 C404 C 0.83493 0.81673 0.32451
 C405 C 0.85820 0.83669 0.35216
 C406 C 0.87698 0.85495 0.37581
 C407 C 0.89830 0.87886 0.40257
 C408 C 0.91656 0.90242 0.42369
 C409 C 0.30936 0.30068 -0.19625
 C410 C 0.32888 0.31858 -0.17275
 C411 C 0.34955 0.33955 -0.14432
 C412 C 0.36631 0.35883 -0.12025
 C413 C 0.38576 0.38416 -0.09338
 C414 C 0.40304 0.40909 -0.07265
 C415 C 1.20361 0.28236 -0.18113
 C416 C 1.18579 0.30040 -0.15676
 C417 C 1.16390 0.32449 -0.12997
 C418 C 1.14384 0.34673 -0.10869
 C419 C 1.11818 0.37399 -0.08569
 C420 C 1.09388 0.39752 -0.06790
 C421 C 0.70670 0.78519 0.31935
 C422 C 0.68930 0.80350 0.34380
 C423 C 0.66744 0.82747 0.37071
 C424 C 0.64713 0.84933 0.39212
 C425 C 0.62094 0.87596 0.41525
 C426 C 0.59605 0.89888 0.43308
 C427 C 0.79638 0.71770 -0.18114
 C428 C 0.81421 0.69967 -0.15678
 C429 C 0.83609 0.67557 -0.12999
 C430 C 0.85615 0.65334 -0.10870
 C431 C 0.88181 0.62609 -0.08570
 C432 C 0.90611 0.60255 -0.06791
 C433 C 0.29330 1.21488 0.31934
 C434 C 0.31069 1.19657 0.34379
 C435 C 0.33255 1.17260 0.37070
 C436 C 0.35286 1.15074 0.39211
 C437 C 0.37906 1.12412 0.41525
 C438 C 0.40394 1.10120 0.43308
 C439 C 1.20362 0.71768 0.18124
 C440 C 1.18580 0.69965 0.15687
 C441 C 1.16391 0.67556 0.13007
 C442 C 1.14385 0.65334 0.10878
 C443 C 1.11819 0.62609 0.08578
 C444 C 1.09388 0.60256 0.06799
 C445 C 0.70671 1.21486 0.68075
 C446 C 0.68931 1.19655 0.65630
 C447 C 0.66745 1.17259 0.62939
 C448 C 0.64714 1.15074 0.60798
 C449 C 0.62094 1.12412 0.58484
 C450 C 0.59606 1.10121 0.56701
 C451 C 0.79641 0.28239 0.18125
 C452 C 0.81423 0.30042 0.15688
 C453 C 0.83611 0.32451 0.13008
 C454 C 0.85617 0.34674 0.10879
 C455 C 0.88182 0.37400 0.08579
 C456 C 0.90612 0.39753 0.06800
 C457 C 0.29333 0.78521 0.68076
 C458 C 0.31072 0.80352 0.65631
 C459 C 0.33257 0.82749 0.62939
 C460 C 0.35287 0.84934 0.60799
 C461 C 0.37906 0.87596 0.58484
 C462 C 0.40394 0.89888 0.56701
 C463 C 0.28289 1.19705 -0.18475
 C464 C 0.30262 1.17763 -0.16192
 C465 C 0.32903 1.15546 -0.13663
 C466 C 0.35304 1.13683 -0.11575
 C467 C 0.38163 1.11519 -0.09151
 C468 C 0.40526 1.09664 -0.07035
 C469 C 0.78315 0.69748 0.31538
 C470 C 0.80288 0.67808 0.33822
 C471 C 0.82924 0.65586 0.36350
 C472 C 0.85319 0.63716 0.38437
 C473 C 0.88171 0.61540 0.40859
 C474 C 0.90529 0.59676 0.42972
 C475 C 0.71714 1.19707 0.18486
 C476 C 0.69740 1.17766 0.16203
 C477 C 0.67100 1.15548 0.13674
 C478 C 0.64699 1.13685 0.11586
 C479 C 0.61840 1.11520 0.09162
 C480 C 0.59478 1.09665 0.07046
 C481 C 1.21688 0.69750 0.68473
 C482 C 1.19715 0.67811 0.66190
 C483 C 1.17079 0.65588 0.63662
 C484 C 1.14684 0.63718 0.61575
 C485 C 1.11833 0.61541 0.59153
 C486 C 1.09475 0.59676 0.57039
 C487 C 0.71711 0.80301 -0.18476
 C488 C 0.69738 0.82243 -0.16193
 C489 C 0.67098 0.84461 -0.13664
 C490 C 0.64698 0.86323 -0.11575
 C491 C 0.61839 0.88488 -0.09151
 C492 C 0.59477 0.90343 -0.07035
 C493 C 1.21686 0.30259 0.31537
 C494 C 1.19713 0.32199 0.33821
 C495 C 1.17077 0.34421 0.36349
 C496 C 1.14683 0.36291 0.38436
 C497 C 1.11832 0.38467 0.40858
 C498 C 1.09475 0.40332 0.42972
 C499 C 0.28290 0.80299 0.18486
 C500 C 0.30263 0.82241 0.16203
 C501 C 0.32904 0.84459 0.13674
 C502 C 0.35305 0.86322 0.11586
 C503 C 0.38164 0.88487 0.09162
 C504 C 0.40526 0.90343 0.07047
 C505 C 0.78315 0.30256 0.68472
 C506 C 0.80289 0.32196 0.66189
 C507 C 0.82925 0.34419 0.63661
 C508 C 0.85319 0.36290 0.61575
 C509 C 0.88171 0.38466 0.59153
 C510 C 0.90528 0.40332 0.57040
 C511 C 1.18853 1.19834 0.69813
 C512 C 1.16932 1.18047 0.67445
 C513 C 1.14915 1.15958 0.64577
 C514 C 1.13285 1.14040 0.62147
 C515 C 1.11390 1.11521 0.59430
 C516 C 1.09696 1.09038 0.57333
 C517 C 0.68473 0.69964 0.20022
 C518 C 0.66349 0.68231 0.17732
 C519 C 0.64087 0.66222 0.14941
 C520 C 0.62266 0.64394 0.12551
 C521 C 0.60191 0.62013 0.09843
 C522 C 0.58395 0.59679 0.07702
 C523 C 1.18853 0.80171 0.30197
 C524 C 1.16933 0.81958 0.32565
 C525 C 1.14916 0.84048 0.35432
 C526 C 1.13285 0.85966 0.37863
 C527 C 1.11390 0.88486 0.40579
 C528 C 1.09696 0.90968 0.42676
 C529 C 0.68474 0.30041 -0.20012
 C530 C 0.66350 0.31774 -0.17722
 C531 C 0.64088 0.33784 -0.14931
 C532 C 0.62267 0.35612 -0.12540
 C533 C 0.60192 0.37993 -0.09833
 C534 C 0.58396 0.40327 -0.07692
 C535 C 0.81150 1.19835 0.30198
 C536 C 0.83071 1.18048 0.32566
 C537 C 0.85088 1.15958 0.35433
 C538 C 0.86718 1.14040 0.37863
 C539 C 0.88614 1.11520 0.40580
 C540 C 0.90309 1.09037 0.42676
 C541 C 0.31530 0.69964 -0.20011
 C542 C 0.33654 0.68231 -0.17722
 C543 C 0.35916 0.66221 -0.14931
 C544 C 0.37738 0.64393 -0.12541
 C545 C 0.39813 0.62011 -0.09834
 C546 C 0.41609 0.59677 -0.07693
 C547 C 0.81148 0.80174 0.69812
 C548 C 0.83069 0.81961 0.67444
 C549 C 0.85087 0.84050 0.64577
 C550 C 0.86718 0.85967 0.62147
 C551 C 0.88614 0.88487 0.59430
 C552 C 0.90309 0.90969 0.57334
 C553 C 0.31528 0.30044 0.20021
 C554 C 0.33652 0.31777 0.17732
 C555 C 0.35916 0.33786 0.14941
 C556 C 0.37738 0.35614 0.12551
 C557 C 0.39814 0.37995 0.09844
 C558 C 0.41610 0.40328 0.07703
   
