data_POSCAR
  _audit_creation_date              2014-09-24
  _audit_creation_method            'ToBaCCo'
  _symmetry_space_group_name_H-M    'P1'
  _symmetry_Int_Tables_number       1
  _symmetry_cell_setting            triclinic
  loop_
  _symmetry_equiv_pos_as_xyz
 x,y,z
_cell_length_a 41.1418
_cell_length_b 40.0335
_cell_length_c 39.9307
_cell_angle_alpha 90.717000
_cell_angle_beta 90.148300
_cell_angle_gamma 89.985600
loop_
  _atom_site_label
  _atom_site_type_symbol
  _atom_site_fract_x
  _atom_site_fract_y
  _atom_site_fract_z
C1 C 0.30013 0.29750 0.23803
 H2 H 0.30150 0.29863 0.26508
 C3 C 0.32103 0.31697 0.21888
 H4 H 0.33836 0.33315 0.23151
 C5 C 0.27599 0.27460 0.18895
 H6 H 0.25878 0.25770 0.17734
 C7 C 0.29643 0.29360 0.16883
 H8 H 0.29435 0.29126 0.14187
 N9 N 0.27789 0.27719 0.22289
 C10 C 0.20109 0.26428 0.29677
 H11 H 0.19984 0.23730 0.29741
 C12 C 0.18004 0.28347 0.31651
 H13 H 0.16270 0.27094 0.33238
 C14 C 0.22511 0.31312 0.27488
 H15 H 0.24235 0.32462 0.25827
 C16 C 0.20451 0.33328 0.29418
 H17 H 0.20648 0.36016 0.29235
 Zn18 Zn 0.25073 0.25134 0.25067
 N19 N 0.22334 0.27928 0.27683
 C20 C 0.27624 0.22804 0.31245
 N21 N 0.27815 0.22567 0.27851
 C22 C 0.30053 0.20562 0.26336
 C23 C 0.32153 0.18613 0.28249
 C24 C 0.29678 0.20900 0.33256
 C25 C 0.20113 0.23791 0.20437
 C26 C 0.18027 0.21851 0.18452
 C27 C 0.20522 0.16895 0.20703
 C28 C 0.22561 0.18932 0.22643
 N29 N 0.22353 0.22315 0.22443
 H30 H 0.25890 0.24474 0.32408
 H31 H 0.30190 0.20465 0.23631
 H32 H 0.33894 0.17011 0.26985
 H33 H 0.29465 0.21112 0.35952
 H34 H 0.19963 0.26488 0.20369
 H35 H 0.16282 0.23084 0.16854
 H36 H 0.20745 0.14209 0.20889
 H37 H 0.24297 0.17800 0.24314
 C38 C 0.18167 0.31850 0.31549
 C39 C 0.31925 0.31528 0.18376
 C40 C 0.18225 0.18349 0.18557
 C41 C 0.31970 0.18752 0.31761
 C42 C 0.80060 0.79741 0.23570
 H43 H 0.80211 0.79849 0.26275
 C44 C 0.82116 0.81721 0.21651
 H45 H 0.83832 0.83348 0.22928
 C46 C 0.77639 0.77445 0.18673
 H47 H 0.75925 0.75742 0.17519
 C48 C 0.79647 0.79376 0.16653
 H49 H 0.79405 0.79135 0.13959
 N50 N 0.77846 0.77695 0.22066
 C51 C 0.70165 0.76394 0.29447
 H52 H 0.70045 0.73696 0.29512
 C53 C 0.68052 0.78309 0.31415
 H54 H 0.66317 0.77053 0.32998
 C55 C 0.72563 0.81282 0.27262
 H56 H 0.74289 0.82435 0.25605
 C57 C 0.70495 0.83294 0.29186
 H58 H 0.70687 0.85983 0.29003
 Zn59 Zn 0.75141 0.75104 0.24853
 N60 N 0.72393 0.77897 0.27459
 C61 C 0.77675 0.72802 0.31045
 N62 N 0.77880 0.72546 0.27652
 C63 C 0.80113 0.70518 0.26161
 C64 C 0.82186 0.68559 0.28096
 C65 C 0.79700 0.70890 0.33076
 C66 C 0.70173 0.73751 0.20239
 C67 C 0.68072 0.71808 0.18274
 C68 C 0.70572 0.66856 0.20525
 C69 C 0.72626 0.68895 0.22446
 N70 N 0.72421 0.72277 0.22238
 H71 H 0.75946 0.74490 0.32190
 H72 H 0.80263 0.70405 0.23457
 H73 H 0.83920 0.66936 0.26851
 H74 H 0.79473 0.71116 0.35770
 H75 H 0.70024 0.76448 0.20166
 H76 H 0.66319 0.73040 0.16683
 H77 H 0.70791 0.64170 0.20719
 H78 H 0.74367 0.67766 0.24113
 C79 C 0.68209 0.81812 0.31313
 C80 C 0.81920 0.81578 0.18129
 C81 C 0.68263 0.68307 0.18390
 C82 C 0.81981 0.68713 0.31607
 C83 C 0.80114 0.29389 0.73843
 H84 H 0.80263 0.29500 0.76547
 C85 C 0.82183 0.31353 0.71920
 H86 H 0.83913 0.32978 0.73176
 C87 C 0.77679 0.27106 0.68943
 H88 H 0.75953 0.25416 0.67788
 C89 C 0.79701 0.29022 0.66925
 H90 H 0.79474 0.28799 0.64229
 N91 N 0.77884 0.27358 0.72337
 C92 C 0.70180 0.26137 0.79709
 H93 H 0.70037 0.23440 0.79781
 C94 C 0.68074 0.28075 0.81663
 H95 H 0.66324 0.26840 0.83243
 C96 C 0.72622 0.30998 0.77516
 H97 H 0.74361 0.32131 0.75859
 C98 C 0.70563 0.33033 0.79425
 H99 H 0.70776 0.35719 0.79233
 Zn100 Zn 0.75150 0.24794 0.75121
 N101 N 0.72425 0.27615 0.77722
 C102 C 0.77656 0.22456 0.81311
 N103 N 0.77862 0.22207 0.77921
 C104 C 0.80080 0.20167 0.76428
 C105 C 0.82141 0.18190 0.78356
 C106 C 0.79666 0.20528 0.83343
 C107 C 0.70178 0.23495 0.70499
 C108 C 0.68068 0.21576 0.68521
 C109 C 0.70522 0.16596 0.70764
 C110 C 0.72586 0.18612 0.72698
 N111 N 0.72409 0.21996 0.72499
 H112 H 0.75938 0.24155 0.82457
 H113 H 0.80230 0.20062 0.73724
 H114 H 0.83855 0.16572 0.77070
 H115 H 0.79412 0.20781 0.86034
 H116 H 0.70052 0.26193 0.70433
 H117 H 0.66330 0.22828 0.66928
 H118 H 0.70720 0.13907 0.70949
 H119 H 0.74314 0.17463 0.74365
 C120 C 0.68257 0.31577 0.81547
 C121 C 0.81978 0.31202 0.68408
 C122 C 0.68232 0.18073 0.68625
 C123 C 0.81952 0.18322 0.81885
 C124 C 0.30023 0.79603 0.73709
 H125 H 0.30171 0.79707 0.76414
 C126 C 0.32114 0.81548 0.71792
 H127 H 0.33858 0.83154 0.73053
 C128 C 0.27579 0.77344 0.68803
 H129 H 0.25844 0.75667 0.67644
 C130 C 0.29622 0.79242 0.66790
 H131 H 0.29401 0.79021 0.64094
 N132 N 0.27783 0.77590 0.72197
 C133 C 0.20122 0.76345 0.79612
 H134 H 0.19982 0.73648 0.79680
 C135 C 0.18037 0.78279 0.81595
 H136 H 0.16303 0.77039 0.83191
 C137 C 0.22543 0.81213 0.77408
 H138 H 0.24267 0.82350 0.75738
 C139 C 0.20504 0.83243 0.79346
 H140 H 0.20716 0.85930 0.79160
 Zn141 Zn 0.25062 0.75018 0.74983
 N142 N 0.22348 0.77830 0.77607
 C143 C 0.27625 0.72688 0.81154
 N144 N 0.27801 0.72439 0.77760
 C145 C 0.30023 0.70417 0.76242
 C146 C 0.32124 0.68467 0.78152
 C147 C 0.29680 0.70783 0.83162
 C148 C 0.20080 0.73704 0.70371
 C149 C 0.17973 0.71775 0.68398
 C150 C 0.20447 0.66805 0.70642
 C151 C 0.22508 0.68831 0.72570
 N152 N 0.22319 0.72214 0.72369
 H153 H 0.25904 0.74371 0.82319
 H154 H 0.30148 0.70312 0.73536
 H155 H 0.33853 0.66854 0.76886
 H156 H 0.29482 0.71007 0.85858
 H157 H 0.19946 0.76401 0.70302
 H158 H 0.16229 0.73019 0.66807
 H159 H 0.20654 0.64118 0.70830
 H160 H 0.24243 0.67689 0.74235
 C161 C 0.18221 0.81781 0.81490
 C162 C 0.31919 0.81395 0.68280
 C163 C 0.18149 0.68273 0.68506
 C164 C 0.31959 0.68621 0.81665
 Si165 Si -0.00181 0.00014 0.00029
 Si166 Si -0.00366 0.49968 0.50065
 Si167 Si 0.49795 -0.00068 0.49949
 Si168 Si 0.49831 0.49931 -0.00060
 N169 N 0.14307 -0.10829 -0.14591
 C170 C 0.12118 -0.12255 -0.12520
 N171 N 0.11917 -0.15631 -0.12415
 N172 N 0.13850 -0.17524 -0.14323
 C173 C 0.16054 -0.16112 -0.16405
 N174 N 0.16239 -0.12723 -0.16498
 C175 C 0.10051 -0.10215 -0.10450
 C176 C 0.08322 -0.08501 -0.08705
 C177 C 0.06270 -0.06461 -0.06620
 N178 N 0.04155 -0.07887 -0.04466
 N179 N 0.02259 -0.05992 -0.02521
 C180 C 0.02419 -0.02613 -0.02669
 N181 N 0.04536 -0.01188 -0.04823
 N182 N 0.06432 -0.03082 -0.06769
 N183 N 0.11819 0.34392 0.37615
 C184 C 0.11999 0.37769 0.37514
 N185 N 0.14189 0.39211 0.35455
 N186 N 0.16141 0.37331 0.33556
 C187 C 0.15977 0.33941 0.33645
 N188 N 0.13772 0.32513 0.35715
 C189 C 0.09913 0.39793 0.39578
 C190 C 0.08170 0.41496 0.41319
 C191 C 0.06105 0.43525 0.43401
 N192 N 0.06281 0.46904 0.43285
 N193 N 0.04378 0.48788 0.45234
 C194 C 0.02242 0.47353 0.47360
 N195 N 0.02066 0.43973 0.47473
 N196 N 0.03969 0.42087 0.45525
 N197 N 0.64219 -0.10835 0.35218
 C198 C 0.62030 -0.12280 0.37275
 N199 N 0.61854 -0.15658 0.37374
 N200 N 0.63809 -0.17533 0.35474
 C201 C 0.66013 -0.16101 0.33405
 N202 N 0.66173 -0.12711 0.33318
 C203 C 0.59949 -0.10259 0.39347
 C204 C 0.58214 -0.08557 0.41098
 C205 C 0.56166 -0.06525 0.43194
 N206 N 0.54049 -0.07959 0.45341
 N207 N 0.52172 -0.06070 0.47312
 C208 C 0.52355 -0.02690 0.47199
 N209 N 0.54470 -0.01259 0.45047
 N210 N 0.56347 -0.03147 0.43076
 N211 N 0.64292 0.38977 -0.14611
 C212 C 0.62080 0.37558 -0.12562
 N213 N 0.61882 0.34182 -0.12445
 N214 N 0.63838 0.32284 -0.14322
 C215 C 0.66064 0.33690 -0.16382
 N216 N 0.66247 0.37077 -0.16487
 C217 C 0.59996 0.39604 -0.10519
 C218 C 0.58258 0.41329 -0.08793
 C219 C 0.56207 0.43387 -0.06727
 N220 N 0.54089 0.41982 -0.04562
 N221 N 0.52209 0.43897 -0.02617
 C222 C 0.52391 0.47274 -0.02777
 N223 N 0.54506 0.48677 -0.04947
 N224 N 0.56386 0.46764 -0.06891
 N225 N -0.12019 0.12341 -0.15710
 C226 C -0.12245 0.12485 -0.12327
 N227 N -0.14414 0.14604 -0.10894
 N228 N -0.16305 0.16518 -0.12787
 C229 C -0.16105 0.16393 -0.16191
 N230 N -0.13910 0.14255 -0.17602
 C231 C -0.10225 0.10407 -0.10287
 C232 C -0.08537 0.08660 -0.08566
 C233 C -0.06535 0.06579 -0.06511
 N234 N -0.07906 0.04434 -0.04324
 N235 N -0.06047 0.02507 -0.02410
 C236 C -0.02761 0.02665 -0.02623
 N237 N -0.01392 0.04810 -0.04811
 N238 N -0.03250 0.06738 -0.06725
 N239 N -0.14234 0.64823 0.39013
 C240 C -0.12065 0.62695 0.37586
 N241 N -0.11828 0.62550 0.34202
 N242 N -0.13707 0.64472 0.32304
 C243 C -0.15892 0.66609 0.33718
 N244 N -0.16112 0.66744 0.37114
 C245 C -0.10079 0.60591 0.39634
 C246 C -0.08434 0.58815 0.41369
 C247 C -0.06503 0.56690 0.43449
 N248 N -0.03212 0.56818 0.43329
 N249 N -0.01424 0.54845 0.45268
 C250 C -0.02870 0.52683 0.47388
 N251 N -0.06162 0.52559 0.47505
 N252 N -0.07951 0.54530 0.45567
 N253 N 0.38249 0.12653 0.34280
 C254 C 0.38037 0.12782 0.37665
 N255 N 0.35856 0.14876 0.39120
 N256 N 0.33942 0.16784 0.37245
 C257 C 0.34136 0.16665 0.33847
 N258 N 0.36334 0.14562 0.32406
 C259 C 0.40052 0.10681 0.39686
 C260 C 0.41714 0.08898 0.41396
 C261 C 0.43654 0.06754 0.43447
 N262 N 0.42210 0.04567 0.45538
 N263 N 0.44002 0.02569 0.47443
 C264 C 0.47294 0.02691 0.47319
 N265 N 0.48736 0.04882 0.45227
 N266 N 0.46945 0.06883 0.43320
 N267 N 0.38239 0.62522 -0.15820
 C268 C 0.38046 0.62670 -0.12433
 N269 N 0.35876 0.64777 -0.10978
 N270 N 0.33955 0.66677 -0.12853
 C271 C 0.34130 0.66539 -0.16251
 N272 N 0.36317 0.64423 -0.17694
 C273 C 0.40070 0.60580 -0.10411
 C274 C 0.41738 0.58808 -0.08695
 C275 C 0.43681 0.56680 -0.06631
 N276 N 0.42240 0.54516 -0.04514
 N277 N 0.44035 0.52538 -0.02591
 C278 C 0.47327 0.52658 -0.02722
 N279 N 0.48766 0.54825 -0.04841
 N280 N 0.46972 0.56806 -0.06767
 N281 N -0.14385 -0.14629 0.10853
 C282 C -0.12219 -0.12504 0.12297
 N283 N -0.11993 -0.12357 0.15681
 N284 N -0.13879 -0.14275 0.17565
 C285 C -0.16066 -0.16415 0.16139
 N286 N -0.16271 -0.16546 0.12737
 C287 C -0.10205 -0.10423 0.10266
 C288 C -0.08520 -0.08673 0.08555
 C289 C -0.06521 -0.06587 0.06513
 N290 N -0.04416 -0.04386 0.07946
 N291 N -0.02561 -0.02449 0.06049
 C292 C -0.02753 -0.02653 0.02661
 N293 N -0.04860 -0.04854 0.01229
 N294 N -0.06716 -0.06791 0.03126
 N295 N -0.11839 0.37374 0.65852
 C296 C -0.12076 0.37231 0.62467
 N297 N -0.14242 0.35103 0.61026
 N298 N -0.16117 0.33178 0.62913
 C299 C -0.15898 0.33310 0.66310
 N300 N -0.13716 0.35448 0.67739
 C301 C -0.10091 0.39337 0.60432
 C302 C -0.08446 0.41116 0.58709
 C303 C -0.06512 0.43242 0.56642
 N304 N -0.07958 0.45402 0.54516
 N305 N -0.06168 0.47374 0.52590
 C306 C -0.02876 0.47249 0.52729
 N307 N -0.01432 0.45086 0.54858
 N308 N -0.03221 0.43113 0.56785
 N309 N 0.38204 -0.12535 0.65747
 C310 C 0.37986 -0.12682 0.62361
 N311 N 0.35795 -0.14778 0.60912
 N312 N 0.33880 -0.16668 0.62792
 C313 C 0.34082 -0.16531 0.66190
 N314 N 0.36288 -0.14426 0.67626
 C315 C 0.40007 -0.10607 0.60334
 C316 C 0.41676 -0.08850 0.58613
 C317 C 0.43624 -0.06743 0.56544
 N318 N 0.42190 -0.04594 0.54398
 N319 N 0.43990 -0.02638 0.52468
 C320 C 0.47281 -0.02767 0.52620
 N321 N 0.48715 -0.04916 0.54770
 N322 N 0.46915 -0.06874 0.56702
 N323 N 0.35829 0.35323 0.11007
 C324 C 0.38007 0.37432 0.12455
 N325 N 0.38208 0.37601 0.15841
 N326 N 0.36286 0.35717 0.17721
 C327 C 0.34092 0.33598 0.16286
 N328 N 0.33908 0.33440 0.12888
 C329 C 0.40036 0.39497 0.10424
 C330 C 0.41708 0.41243 0.08695
 C331 C 0.43658 0.43333 0.06611
 N332 N 0.46949 0.43205 0.06774
 N333 N 0.48749 0.45143 0.04821
 C334 C 0.47316 0.47266 0.02645
 N335 N 0.44026 0.47392 0.02489
 N336 N 0.42224 0.45457 0.04440
 N337 N 0.14327 0.10945 0.14631
 C338 C 0.12125 0.12362 0.12556
 N339 N 0.11910 0.15737 0.12451
 N340 N 0.13842 0.17638 0.14362
 C341 C 0.16058 0.16234 0.16448
 N342 N 0.16258 0.12846 0.16541
 C343 C 0.10060 0.10314 0.10484
 C344 C 0.08331 0.08590 0.08738
 C345 C 0.06281 0.06536 0.06656
 N346 N 0.04103 0.07947 0.04547
 N347 N 0.02206 0.06039 0.02606
 C348 C 0.02429 0.02661 0.02714
 N349 N 0.04609 0.01252 0.04823
 N350 N 0.06506 0.03159 0.06764
 N351 N 0.14185 0.60890 0.64609
 C352 C 0.11982 0.62320 0.62544
 N353 N 0.11789 0.65696 0.62435
 N354 N 0.13742 0.67586 0.64334
 C355 C 0.15959 0.66170 0.66411
 N356 N 0.16137 0.62781 0.66508
 C357 C 0.09898 0.60283 0.60481
 C358 C 0.08156 0.58566 0.58742
 C359 C 0.06096 0.56517 0.56666
 N360 N 0.06272 0.56697 0.53282
 N361 N 0.04373 0.54780 0.51352
 C362 C 0.02239 0.52624 0.52745
 N363 N 0.02062 0.52448 0.56130
 N364 N 0.03962 0.54364 0.58061
 N365 N 0.64260 0.10711 0.64699
 C366 C 0.62069 0.12152 0.62629
 N367 N 0.61884 0.15529 0.62529
 N368 N 0.63834 0.17409 0.64441
 C369 C 0.66041 0.15981 0.66521
 N370 N 0.66210 0.12592 0.66610
 C371 C 0.59995 0.10126 0.60544
 C372 C 0.58268 0.08419 0.58781
 C373 C 0.56233 0.06380 0.56669
 N374 N 0.52950 0.06612 0.56866
 N375 N 0.51064 0.04720 0.54897
 C376 C 0.52404 0.02540 0.52669
 N377 N 0.55687 0.02308 0.52475
 N378 N 0.57573 0.04199 0.54443
 N379 N 0.64322 0.60898 0.14521
 C380 C 0.62109 0.62313 0.12458
 N381 N 0.61900 0.65688 0.12341
 N382 N 0.63849 0.67591 0.14232
 C383 C 0.66077 0.66190 0.16306
 N384 N 0.66270 0.62802 0.16410
 C385 C 0.60034 0.60262 0.10398
 C386 C 0.58307 0.58532 0.08657
 C387 C 0.56271 0.56466 0.06573
 N388 N 0.52988 0.56700 0.06770
 N389 N 0.51102 0.54782 0.04826
 C390 C 0.52440 0.52573 0.02627
 N391 N 0.55723 0.52340 0.02432
 N392 N 0.57610 0.54256 0.04375
   
