data_POSCAR
  _audit_creation_date              2014-09-24
  _audit_creation_method            'ToBaCCo'
  _symmetry_space_group_name_H-M    'P1'
  _symmetry_Int_Tables_number       1
  _symmetry_cell_setting            triclinic
  loop_
  _symmetry_equiv_pos_as_xyz
 x,y,z
_cell_length_a 39.6873
_cell_length_b 39.6798
_cell_length_c 39.6676
_cell_angle_alpha 89.914500
_cell_angle_beta 90.164100
_cell_angle_gamma 89.960400
loop_
  _atom_site_label
  _atom_site_type_symbol
  _atom_site_fract_x
  _atom_site_fract_y
  _atom_site_fract_z
C1 C 0.24872 0.96465 -0.02471
 C2 C 0.25049 0.96434 0.01089
 C3 C 0.25305 0.99479 0.02835
 C4 C 0.25365 1.02565 0.01145
 C5 C 0.25152 1.02631 -0.02398
 C6 C 0.24920 0.99578 -0.04170
 H7 H 0.24772 0.99626 -0.06906
 H8 H 0.25449 0.99442 0.05574
 C9 C 0.75117 0.46228 0.51106
 C10 C 0.74887 0.46203 0.47553
 C11 C 0.74969 0.49278 0.45795
 C12 C 0.75286 0.52348 0.47509
 C13 C 0.75559 0.52340 0.51037
 C14 C 0.75466 0.49296 0.52791
 H15 H 0.75651 0.49318 0.55526
 H16 H 0.74777 0.49284 0.43065
 C17 C 0.75400 1.01054 0.96278
 C18 C 0.75566 0.97500 0.96254
 C19 C 0.75456 0.95746 0.99329
 C20 C 0.75174 0.97466 1.02403
 C21 C 0.75020 1.01004 1.02396
 C22 C 0.75141 1.02750 0.99348
 H23 H 0.75009 1.05486 0.99367
 H24 H 0.75573 0.93011 0.99324
 C25 C 0.25069 0.47747 0.52497
 C26 C 0.24962 0.51283 0.52438
 C27 C 0.25052 0.52978 0.49360
 C28 C 0.25239 0.51230 0.46311
 C29 C 0.25361 0.47671 0.46340
 C30 C 0.25276 0.45973 0.49449
 H31 H 0.25359 0.43238 0.49498
 H32 H 0.24957 0.55716 0.49339
 C33 C 0.96185 0.24596 -0.01157
 C34 C 0.96149 0.24430 0.02405
 C35 C 0.99222 0.24518 0.04171
 C36 C 1.02304 0.24773 0.02465
 C37 C 1.02311 0.24923 -0.01074
 C38 C 0.99269 0.24828 -0.02836
 H39 H 0.99311 0.24958 -0.05575
 H40 H 0.99209 0.24401 0.06907
 C41 C 0.46384 0.74522 0.52355
 C42 C 0.46351 0.74652 0.48796
 C43 C 0.49397 0.74825 0.47047
 C44 C 0.52474 0.74898 0.48744
 C45 C 0.52537 0.74786 0.52280
 C46 C 0.49493 0.74588 0.54055
 H47 H 0.49545 0.74501 0.56790
 H48 H 0.49373 0.74927 0.44309
 C49 C -0.02289 0.74910 -0.02658
 C50 C 0.01251 0.74689 -0.02593
 C51 C 0.02947 0.74751 0.00492
 C52 C 0.01205 0.75017 0.03534
 C53 C -0.02347 0.75200 0.03502
 C54 C -0.04052 0.75150 0.00395
 H55 H -0.06785 0.75303 0.00359
 H56 H 0.05684 0.74603 0.00530
 C57 C 0.51005 0.24640 0.47633
 C58 C 0.47478 0.24905 0.47618
 C59 C 0.45761 0.25200 0.50688
 C60 C 0.47513 0.25260 0.53771
 C61 C 0.51066 0.25037 0.53753
 C62 C 0.52754 0.24718 0.50685
 H63 H 0.55486 0.24535 0.50668
 H64 H 0.43032 0.25384 0.50677
 C65 C 1.03574 0.02401 0.24863
 C66 C 1.03627 -0.01158 0.25046
 C67 C 1.00595 -0.02923 0.25322
 C68 C 0.97503 -0.01251 0.25390
 C69 C 0.97418 0.02284 0.25165
 C70 C 1.00453 0.04076 0.24919
 H71 H 1.00375 0.06809 0.24764
 H72 H 1.00646 -0.05660 0.25471
 C73 C 0.53764 0.52441 0.74910
 C74 C 0.53729 0.48890 0.75140
 C75 C 0.50656 0.47212 0.75472
 C76 C 0.47617 0.48972 0.75550
 C77 C 0.47618 0.52499 0.75276
 C78 C 0.50694 0.54205 0.74974
 H79 H 0.50698 0.56934 0.74782
 H80 H 0.50626 0.44479 0.75658
 C81 C 1.02387 0.97728 0.75100
 C82 C 0.98855 0.97713 0.74957
 C83 C 0.97089 1.00747 0.75070
 C84 C 0.98768 1.03834 0.75318
 C85 C 1.02328 1.03876 0.75479
 C86 C 1.04093 1.00808 0.75368
 H87 H 1.06826 1.00816 0.75481
 H88 H 0.94351 1.00697 0.74946
 C89 C 0.52237 0.47471 0.25051
 C90 C 0.48702 0.47541 0.24940
 C91 C 0.47020 0.50624 0.25036
 C92 C 0.48782 0.53665 0.25234
 C93 C 0.52340 0.53624 0.25363
 C94 C 0.54025 0.50511 0.25271
 H95 H 0.56758 0.50453 0.25358
 H96 H 0.44283 0.50655 0.24937
 O97 O 0.26238 0.16339 0.18817
 O98 O 0.30075 0.15408 0.23646
 O99 O 0.17482 0.20152 0.23844
 O100 O 0.16298 0.24550 0.27279
 O101 O 0.21403 0.25098 0.14929
 O102 O 0.26136 0.28933 0.14098
 O103 O 0.26184 0.29757 0.32313
 O104 O 0.22197 0.25059 0.33141
 O105 O 0.34849 0.24978 0.28376
 O106 O 0.35713 0.21025 0.23463
 O107 O 0.30934 0.33575 0.23824
 O108 O 0.25963 0.34506 0.19727
 O109 O 0.26259 0.33741 0.28203
 O110 O 0.22675 0.34896 0.23589
 O111 O 0.34914 0.29464 0.23831
 O112 O 0.36005 0.24826 0.20099
 O113 O 0.30783 0.25171 0.32384
 O114 O 0.26534 0.21565 0.33663
 O115 O 0.26167 0.20470 0.14842
 O116 O 0.29763 0.25076 0.13871
 O117 O 0.17408 0.24934 0.19019
 O118 O 0.16518 0.28732 0.23658
 O119 O 0.21585 0.16164 0.23623
 O120 O 0.26218 0.15075 0.27157
 Zr121 Zr 0.26078 0.18933 0.23476
 O122 O 0.29147 0.21808 0.26717
 Zr123 Zr 0.20117 0.24790 0.23574
 O124 O 0.23009 0.28015 0.26673
 Zr125 Zr 0.25993 0.24931 0.17622
 O126 O 0.29221 0.27985 0.20515
 Zr127 Zr 0.26243 0.25110 0.29680
 O128 O 0.23122 0.21832 0.26818
 Zr129 Zr 0.32157 0.24991 0.23780
 O130 O 0.29293 0.21906 0.20507
 Zr131 Zr 0.26284 0.30971 0.23720
 O132 O 0.23015 0.28117 0.20604
 O133 O 0.22904 0.21734 0.20390
 O134 O 0.29427 0.28214 0.26909
 C135 C 0.26263 0.17365 0.15731
 C136 C 0.18485 0.17057 0.23825
 C137 C 0.18316 0.25088 0.15915
 C138 C 0.26207 0.32851 0.31310
 C139 C 0.33881 0.25079 0.31465
 C140 C 0.34019 0.32564 0.23866
 H141 H 0.30514 0.20277 0.28136
 H142 H 0.30630 0.29362 0.18995
 H143 H 0.21459 0.20291 0.18955
 H144 H 0.21493 0.29414 0.28064
 H145 H 0.20734 0.23131 0.32526
 H146 H 0.17006 0.25994 0.29183
 H147 H 0.35392 0.26433 0.18291
 H148 H 0.31629 0.23634 0.14695
 H149 H 0.27095 0.19369 0.32641
 H150 H 0.24654 0.15764 0.28971
 H151 H 0.28058 0.34348 0.18390
 H152 H 0.24390 0.30572 0.14791
 H153 H 0.31682 0.16062 0.21857
 H154 H 0.35406 0.19544 0.25446
 H155 H 0.17265 0.30438 0.21997
 H156 H 0.20740 0.34164 0.24973
 O157 O 0.74896 0.85011 0.21478
 O158 O 0.71074 0.85853 0.26230
 O159 O 0.83688 0.81118 0.26383
 O160 O 0.84849 0.76756 0.29933
 O161 O 0.79828 0.76201 0.17559
 O162 O 0.75027 0.72434 0.16639
 O163 O 0.75114 0.71591 0.34941
 O164 O 0.79074 0.76181 0.35715
 O165 O 0.66442 0.76137 0.31035
 O166 O 0.65511 0.80264 0.26111
 O167 O 0.70240 0.67673 0.26290
 O168 O 0.75229 0.66730 0.22357
 O169 O 0.74890 0.67600 0.30851
 O170 O 0.78512 0.66382 0.26196
 O171 O 0.66255 0.71778 0.26320
 O172 O 0.65085 0.76418 0.22785
 O173 O 0.70558 0.76003 0.35018
 O174 O 0.74532 0.79821 0.36099
 O175 O 0.74982 0.80926 0.17471
 O176 O 0.71449 0.76274 0.16394
 O177 O 0.83821 0.76351 0.21672
 O178 O 0.84679 0.72560 0.26254
 O179 O 0.79570 0.85096 0.26195
 O180 O 0.74821 0.86188 0.29760
 Zr181 Zr 0.75081 0.82340 0.26080
 O182 O 0.72047 0.79446 0.29317
 Zr183 Zr 0.81067 0.76490 0.26169
 O184 O 0.78198 0.73251 0.29248
 Zr185 Zr 0.75188 0.76394 0.20197
 O186 O 0.71966 0.73319 0.23088
 Zr187 Zr 0.75008 0.76170 0.32251
 O188 O 0.78101 0.79462 0.29410
 Zr189 Zr 0.69029 0.76258 0.26381
 O190 O 0.71870 0.79363 0.23099
 Zr191 Zr 0.74897 0.70302 0.26302
 O192 O 0.78154 0.73179 0.23189
 O193 O 0.78263 0.79568 0.22986
 O194 O 0.71794 0.73049 0.29500
 C195 C 0.74859 0.84028 0.18389
 C196 C 0.82671 0.84204 0.26350
 C197 C 0.82923 0.76190 0.18567
 C198 C 0.75013 0.68507 0.33956
 C199 C 0.67457 0.76019 0.34120
 C200 C 0.67146 0.68673 0.26289
 H201 H 0.70706 0.80961 0.30768
 H202 H 0.70549 0.71959 0.21555
 H203 H 0.79697 0.81009 0.21543
 H204 H 0.79722 0.71848 0.30640
 H205 H 0.80490 0.78160 0.35164
 H206 H 0.84187 0.75231 0.31790
 H207 H 0.65821 0.75076 0.20822
 H208 H 0.69574 0.77704 0.17202
 H209 H 0.75678 0.81867 0.35272
 H210 H 0.76639 0.85757 0.31417
 H211 H 0.73235 0.67026 0.20884
 H212 H 0.76738 0.70762 0.17356
 H213 H 0.69441 0.85172 0.24467
 H214 H 0.65709 0.81600 0.28206
 H215 H 0.83872 0.70811 0.24670
 H216 H 0.80404 0.67066 0.27670
 O217 O 0.74995 0.16121 0.79405
 O218 O 0.71846 0.14903 0.74851
 O219 O 0.83889 0.20654 0.75027
 O220 O 0.85085 0.25207 0.71867
 O221 O 0.79382 0.25020 0.83931
 O222 O 0.74836 0.28174 0.85140
 O223 O 0.74743 0.29297 0.66171
 O224 O 0.78065 0.24888 0.64907
 O225 O 0.66117 0.25206 0.70763
 O226 O 0.64873 0.21897 0.75190
 O227 O 0.70703 0.33870 0.74827
 O228 O 0.75130 0.35134 0.78140
 O229 O 0.74933 0.33511 0.70024
 O230 O 0.79243 0.34286 0.75087
 O231 O 0.66492 0.30013 0.74999
 O232 O 0.65739 0.24948 0.79307
 O233 O 0.69955 0.25052 0.66541
 O234 O 0.75023 0.20757 0.65766
 O235 O 0.74939 0.19990 0.83619
 O236 O 0.70841 0.24925 0.84384
 O237 O 0.83583 0.25096 0.80056
 O238 O 0.84327 0.29202 0.75112
 O239 O 0.80022 0.16440 0.74958
 O240 O 0.75075 0.15676 0.70856
 Zr241 Zr 0.75266 0.18976 0.75037
 O242 O 0.71842 0.21848 0.72145
 Zr243 Zr 0.81031 0.25017 0.75300
 O244 O 0.78142 0.27909 0.71888
 Zr245 Zr 0.75011 0.24744 0.81076
 O246 O 0.72105 0.28153 0.78201
 Zr247 Zr 0.74731 0.24948 0.69049
 O248 O 0.78197 0.22016 0.71889
 Zr249 Zr 0.69007 0.25248 0.75108
 O250 O 0.71861 0.21797 0.78043
 Zr251 Zr 0.75053 0.30999 0.74793
 O252 O 0.78001 0.28159 0.78246
 O253 O 0.78270 0.21749 0.78302
 O254 O 0.71735 0.28255 0.71793
 C255 C 0.74889 0.16921 0.82520
 C256 C 0.83091 0.17539 0.74916
 C257 C 0.82494 0.25135 0.83128
 C258 C 0.74795 0.32412 0.66959
 C259 C 0.66893 0.25162 0.67645
 C260 C 0.67589 0.33079 0.74877
 H261 H 0.70366 0.20320 0.70840
 H262 H 0.70802 0.29626 0.79728
 H263 H 0.79715 0.20307 0.79744
 H264 H 0.79662 0.29218 0.70411
 H265 H 0.80297 0.25547 0.65798
 H266 H 0.84248 0.24181 0.69752
 H267 H 0.65632 0.27204 0.80360
 H268 H 0.69535 0.22827 0.84039
 H269 H 0.72768 0.19700 0.65661
 H270 H 0.77170 0.16024 0.69551
 H271 H 0.74464 0.34244 0.80369
 H272 H 0.75860 0.30289 0.84305
 H273 H 0.69728 0.15733 0.75867
 H274 H 0.65762 0.19669 0.74522
 H275 H 0.83987 0.30504 0.77211
 H276 H 0.80295 0.34390 0.72830
 O277 O 0.23834 0.82483 0.79844
 O278 O 0.27580 0.83418 0.75028
 O279 O 0.15000 0.78538 0.74804
 O280 O 0.13899 0.74222 0.71301
 O281 O 0.18909 0.73738 0.83674
 O282 O 0.23701 0.69905 0.84609
 O283 O 0.23848 0.69029 0.66405
 O284 O 0.19715 0.73621 0.65554
 O285 O 0.32357 0.73760 0.70243
 O286 O 0.33285 0.77711 0.75249
 O287 O 0.28423 0.65130 0.75036
 O288 O 0.23504 0.64241 0.78957
 O289 O 0.23906 0.65055 0.70527
 O290 O 0.20140 0.63971 0.75156
 O291 O 0.32429 0.69207 0.74905
 O292 O 0.33667 0.73847 0.78502
 O293 O 0.28258 0.73670 0.66243
 O294 O 0.23957 0.77245 0.65042
 O295 O 0.23743 0.78378 0.83842
 O296 O 0.27286 0.73770 0.84875
 O297 O 0.14936 0.73850 0.79537
 O298 O 0.14142 0.69977 0.74983
 O299 O 0.19081 0.82550 0.75009
 O300 O 0.23753 0.83676 0.71483
 Zr301 Zr 0.23631 0.79847 0.75193
 O302 O 0.26708 0.76960 0.71974
 Zr303 Zr 0.17690 0.73964 0.75060
 O304 O 0.20573 0.70744 0.71988
 Zr305 Zr 0.23552 0.73893 0.81068
 O306 O 0.26780 0.70821 0.78196
 Zr307 Zr 0.23787 0.73670 0.69007
 O308 O 0.20672 0.76944 0.71844
 Zr309 Zr 0.29729 0.73751 0.74898
 O310 O 0.26866 0.76865 0.78162
 Zr311 Zr 0.23833 0.67814 0.75002
 O312 O 0.20582 0.70681 0.78095
 O313 O 0.20460 0.77056 0.78261
 O314 O 0.26971 0.70544 0.71791
 C315 C 0.23878 0.81482 0.82942
 C316 C 0.15981 0.81628 0.74823
 C317 C 0.15824 0.73735 0.82644
 C318 C 0.23915 0.65946 0.67423
 C319 C 0.31360 0.73725 0.67145
 C320 C 0.31511 0.66106 0.74977
 H321 H 0.28074 0.78490 0.70564
 H322 H 0.28190 0.69453 0.79733
 H323 H 0.19025 0.78508 0.79689
 H324 H 0.19071 0.69339 0.70582
 H325 H 0.18225 0.75534 0.66149
 H326 H 0.14527 0.72649 0.69474
 H327 H 0.32948 0.72447 0.80434
 H328 H 0.29187 0.75146 0.84034
 H329 H 0.24750 0.79389 0.66023
 H330 H 0.22183 0.82973 0.69673
 H331 H 0.25469 0.64566 0.80461
 H332 H 0.21930 0.68282 0.83936
 H333 H 0.29261 0.82707 0.76736
 H334 H 0.33013 0.79163 0.73238
 H335 H 0.14910 0.68287 0.76656
 H336 H 0.18358 0.64566 0.73511
 O337 O 0.24847 0.35246 0.71790
 O338 O 0.21005 0.36081 0.76544
 O339 O 0.33617 0.31332 0.76713
 O340 O 0.34773 0.26964 0.80252
 O341 O 0.29764 0.26426 0.67875
 O342 O 0.24953 0.22671 0.66947
 O343 O 0.25017 0.21810 0.85250
 O344 O 0.28993 0.26391 0.86028
 O345 O 0.16366 0.26381 0.81335
 O346 O 0.15457 0.30527 0.76412
 O347 O 0.20148 0.17922 0.76585
 O348 O 0.25139 0.16965 0.72660
 O349 O 0.24788 0.17827 0.81152
 O350 O 0.28418 0.16606 0.76502
 O351 O 0.16174 0.22037 0.76615
 O352 O 0.15010 0.26670 0.73094
 O353 O 0.20476 0.26234 0.85325
 O354 O 0.24459 0.30044 0.86413
 O355 O 0.24932 0.31163 0.67781
 O356 O 0.21389 0.26519 0.66697
 O357 O 0.33753 0.26569 0.71991
 O358 O 0.34598 0.22772 0.76569
 O359 O 0.29504 0.35315 0.76526
 O360 O 0.24757 0.36428 0.80061
 Zr361 Zr 0.25015 0.32570 0.76393
 O362 O 0.21978 0.29681 0.79629
 Zr363 Zr 0.30992 0.26709 0.76485
 O364 O 0.28116 0.23472 0.79560
 Zr365 Zr 0.25121 0.26630 0.70506
 O366 O 0.21890 0.23562 0.73393
 Zr367 Zr 0.24929 0.26394 0.82563
 O368 O 0.28026 0.29683 0.79725
 Zr369 Zr 0.18958 0.26505 0.76685
 O370 O 0.21804 0.29604 0.73403
 Zr371 Zr 0.24812 0.20535 0.76606
 O372 O 0.28077 0.23406 0.73498
 O373 O 0.28198 0.29796 0.73301
 O374 O 0.21712 0.23286 0.79803
 C375 C 0.24813 0.34264 0.68699
 C376 C 0.32602 0.34419 0.76685
 C377 C 0.32858 0.26409 0.68885
 C378 C 0.24908 0.18727 0.84259
 C379 C 0.17377 0.26254 0.84421
 C380 C 0.17058 0.18931 0.76581
 H381 H 0.20638 0.31198 0.81080
 H382 H 0.20472 0.22207 0.71857
 H383 H 0.29637 0.31235 0.71861
 H384 H 0.29635 0.22064 0.80952
 H385 H 0.30415 0.28367 0.85480
 H386 H 0.34108 0.25436 0.82106
 H387 H 0.15755 0.25352 0.71118
 H388 H 0.19518 0.27958 0.67499
 H389 H 0.25623 0.32083 0.85594
 H390 H 0.26551 0.35979 0.81740
 H391 H 0.23149 0.17267 0.71184
 H392 H 0.26661 0.20996 0.67662
 H393 H 0.19389 0.35421 0.74759
 H394 H 0.15640 0.31846 0.78518
 H395 H 0.33787 0.21024 0.74985
 H396 H 0.30309 0.17284 0.77981
 O397 O 0.76683 0.66332 0.68671
 O398 O 0.80504 0.65397 0.73493
 O399 O 0.67916 0.70143 0.73687
 O400 O 0.66708 0.74540 0.77097
 O401 O 0.71840 0.75079 0.64763
 O402 O 0.76564 0.78917 0.63932
 O403 O 0.76600 0.79738 0.82149
 O404 O 0.72622 0.75044 0.82983
 O405 O 0.85272 0.74989 0.78214
 O406 O 0.86157 0.71045 0.73309
 O407 O 0.81328 0.83573 0.73664
 O408 O 0.76369 0.84504 0.69574
 O409 O 0.76663 0.83726 0.78042
 O410 O 0.73067 0.84872 0.73421
 O411 O 0.85324 0.79477 0.73677
 O412 O 0.86420 0.74830 0.69930
 O413 O 0.81204 0.75170 0.82220
 O414 O 0.76946 0.71547 0.83498
 O415 O 0.76611 0.70458 0.64690
 O416 O 0.80200 0.75071 0.63718
 O417 O 0.67842 0.74915 0.68851
 O418 O 0.66946 0.78721 0.73493
 O419 O 0.72020 0.66155 0.73469
 O420 O 0.76652 0.65079 0.77013
 Zr421 Zr 0.76511 0.68927 0.73322
 O422 O 0.79579 0.71804 0.76558
 Zr423 Zr 0.70544 0.74778 0.73409
 O424 O 0.73425 0.77999 0.76513
 Zr425 Zr 0.76425 0.74920 0.67463
 O426 O 0.79641 0.77983 0.70355
 Zr427 Zr 0.76664 0.75097 0.79517
 O428 O 0.73546 0.71822 0.76657
 Zr429 Zr 0.82581 0.74995 0.73620
 O430 O 0.79724 0.71901 0.70352
 Zr431 Zr 0.76691 0.80960 0.73559
 O432 O 0.73435 0.78104 0.70436
 O433 O 0.73336 0.71722 0.70230
 O434 O 0.79841 0.78209 0.76747
 C435 C 0.76711 0.67356 0.65585
 C436 C 0.68920 0.67050 0.73673
 C437 C 0.68753 0.75069 0.65748
 C438 C 0.76615 0.82831 0.81147
 C439 C 0.84302 0.75088 0.81302
 C440 C 0.84416 0.82572 0.73711
 H441 H 0.80951 0.70275 0.77974
 H442 H 0.81046 0.79365 0.68836
 H443 H 0.71895 0.70275 0.68795
 H444 H 0.71906 0.79394 0.77906
 H445 H 0.71152 0.73124 0.82361
 H446 H 0.67422 0.75962 0.79015
 H447 H 0.85823 0.76463 0.68140
 H448 H 0.82068 0.73634 0.64546
 H449 H 0.77587 0.69367 0.82489
 H450 H 0.75091 0.65774 0.78827
 H451 H 0.78455 0.84337 0.68226
 H452 H 0.74823 0.80560 0.64627
 H453 H 0.82125 0.66065 0.71723
 H454 H 0.85841 0.69553 0.75283
 H455 H 0.67685 0.80420 0.71821
 H456 H 0.71146 0.84147 0.74828
 O457 O 0.24988 0.66184 0.29291
 O458 O 0.21821 0.64981 0.24738
 O459 O 0.33883 0.70703 0.24928
 O460 O 0.35093 0.75251 0.21764
 O461 O 0.29368 0.75083 0.33817
 O462 O 0.24825 0.78239 0.35021
 O463 O 0.24796 0.79361 0.16047
 O464 O 0.28099 0.74936 0.14796
 O465 O 0.16137 0.75297 0.20620
 O466 O 0.14874 0.71979 0.25034
 O467 O 0.20720 0.83943 0.24697
 O468 O 0.25141 0.85203 0.28014
 O469 O 0.24967 0.83576 0.19898
 O470 O 0.29261 0.84346 0.24976
 O471 O 0.16506 0.80091 0.24875
 O472 O 0.15731 0.75018 0.29160
 O473 O 0.19987 0.75120 0.16410
 O474 O 0.25047 0.70821 0.15646
 O475 O 0.24909 0.70056 0.33500
 O476 O 0.20825 0.75004 0.34255
 O477 O 0.33576 0.75155 0.29950
 O478 O 0.34342 0.79247 0.25009
 O479 O 0.30007 0.66496 0.24842
 O480 O 0.25064 0.65734 0.20745
 Zr481 Zr 0.25258 0.69040 0.24922
 O482 O 0.21850 0.71919 0.22018
 Zr483 Zr 0.31033 0.75072 0.25192
 O484 O 0.28160 0.77971 0.21774
 Zr485 Zr 0.25001 0.74810 0.30956
 O486 O 0.22108 0.78224 0.28073
 Zr487 Zr 0.24754 0.75013 0.18928
 O488 O 0.28203 0.72073 0.21778
 Zr489 Zr 0.19013 0.75323 0.24974
 O490 O 0.21852 0.71869 0.27918
 Zr491 Zr 0.25067 0.81065 0.24670
 O492 O 0.28002 0.78220 0.28130
 O493 O 0.28261 0.71809 0.28191
 O494 O 0.21753 0.78326 0.21662
 C495 C 0.24867 0.66985 0.32405
 C496 C 0.33078 0.67590 0.24808
 C497 C 0.32481 0.75198 0.33019
 C498 C 0.24852 0.82477 0.16832
 C499 C 0.16924 0.75243 0.17505
 C500 C 0.17605 0.83155 0.24756
 H501 H 0.20374 0.70394 0.20710
 H502 H 0.20804 0.79698 0.29598
 H503 H 0.29701 0.70366 0.29636
 H504 H 0.29687 0.79276 0.20302
 H505 H 0.30327 0.75610 0.15687
 H506 H 0.34259 0.74220 0.19651
 H507 H 0.15637 0.77268 0.30228
 H508 H 0.19515 0.72910 0.33909
 H509 H 0.22792 0.69763 0.15542
 H510 H 0.27156 0.66082 0.19437
 H511 H 0.24479 0.84313 0.30245
 H512 H 0.25847 0.80354 0.34187
 H513 H 0.19712 0.65814 0.25768
 H514 H 0.15761 0.69750 0.24368
 H515 H 0.33994 0.80558 0.27101
 H516 H 0.30321 0.84446 0.22724
 O517 O 0.73541 0.32107 0.29800
 O518 O 0.77265 0.33058 0.24978
 O519 O 0.64691 0.28169 0.24776
 O520 O 0.63583 0.23849 0.21277
 O521 O 0.68628 0.23372 0.33637
 O522 O 0.73415 0.19525 0.34553
 O523 O 0.73549 0.18673 0.16359
 O524 O 0.69399 0.23244 0.15510
 O525 O 0.82045 0.23415 0.20183
 O526 O 0.82984 0.27348 0.25194
 O527 O 0.78123 0.14768 0.24972
 O528 O 0.73205 0.13883 0.28912
 O529 O 0.73598 0.14697 0.20480
 O530 O 0.69849 0.13598 0.25100
 O531 O 0.82124 0.18849 0.24826
 O532 O 0.83368 0.23486 0.28441
 O533 O 0.77943 0.23328 0.16187
 O534 O 0.73612 0.26897 0.15002
 O535 O 0.73465 0.27996 0.33793
 O536 O 0.77000 0.23390 0.34821
 O537 O 0.64641 0.23485 0.29513
 O538 O 0.63840 0.19604 0.24958
 O539 O 0.68774 0.32179 0.24973
 O540 O 0.73435 0.33309 0.21440
 Zr541 Zr 0.73324 0.29479 0.25149
 O542 O 0.76399 0.26599 0.21923
 Zr543 Zr 0.67383 0.23595 0.25026
 O544 O 0.70266 0.20382 0.21946
 Zr545 Zr 0.73261 0.23518 0.31018
 O546 O 0.76487 0.20453 0.28140
 Zr547 Zr 0.73474 0.23311 0.18960
 O548 O 0.70359 0.26577 0.21805
 Zr549 Zr 0.79425 0.23391 0.24840
 O550 O 0.76566 0.26498 0.28111
 Zr551 Zr 0.73532 0.17451 0.24952
 O552 O 0.70283 0.20310 0.28052
 O553 O 0.70162 0.26685 0.28221
 O554 O 0.76664 0.20185 0.21737
 C555 C 0.73598 0.31100 0.32895
 C556 C 0.65675 0.31259 0.24792
 C557 C 0.65540 0.23375 0.32617
 C558 C 0.73616 0.15590 0.17378
 C559 C 0.81045 0.23389 0.17086
 C560 C 0.81209 0.15748 0.24900
 H561 H 0.77762 0.28134 0.20515
 H562 H 0.77900 0.19084 0.29674
 H563 H 0.68731 0.28138 0.29653
 H564 H 0.68763 0.18976 0.20541
 H565 H 0.67897 0.25144 0.16113
 H566 H 0.64207 0.22276 0.19449
 H567 H 0.82666 0.22060 0.30360
 H568 H 0.78907 0.24752 0.33972
 H569 H 0.74464 0.29026 0.15969
 H570 H 0.71872 0.32598 0.19626
 H571 H 0.75184 0.14193 0.30401
 H572 H 0.71633 0.17910 0.33890
 H573 H 0.78956 0.32345 0.26676
 H574 H 0.82702 0.28810 0.23191
 H575 H 0.64607 0.17920 0.26637
 H576 H 0.68049 0.14209 0.23482
 C577 C 0.26046 0.10104 0.07731
 C578 C 0.26149 0.13539 0.06979
 C579 C 0.26273 0.15895 0.09587
 C580 C 0.25611 0.05385 0.03087
 C581 C 0.26224 0.11374 0.13710
 C582 C 0.26103 0.09024 0.11095
 C583 C 0.25822 0.07647 0.05091
 C584 C 0.26289 0.14840 0.12988
 H585 H 0.26105 0.14396 0.04385
 H586 H 0.26319 0.18544 0.08933
 H587 H 0.26229 0.10476 0.16290
 H588 H 0.26022 0.06360 0.11696
 C589 C 0.76456 0.60079 0.57620
 C590 C 0.76546 0.63510 0.56852
 C591 C 0.76691 0.65874 0.59449
 C592 C 0.75902 0.55345 0.53018
 C593 C 0.76697 0.61365 0.63588
 C594 C 0.76555 0.59008 0.60984
 C595 C 0.76174 0.57616 0.54999
 C596 C 0.76740 0.64828 0.62851
 H597 H 0.76467 0.64358 0.54255
 H598 H 0.76720 0.68522 0.58786
 H599 H 0.76728 0.60475 0.66170
 H600 H 0.76483 0.56346 0.61594
 C601 C 0.74799 0.91432 0.10474
 C602 C 0.75023 0.92471 0.13839
 C603 C 0.74999 0.90074 0.16437
 C604 C 0.75034 0.95626 0.05307
 C605 C 0.74503 0.85614 0.12292
 C606 C 0.74523 0.88005 0.09715
 C607 C 0.74919 0.93819 0.07748
 C608 C 0.74760 0.86611 0.15687
 H609 H 0.75242 0.95122 0.14450
 H610 H 0.75208 0.90927 0.19020
 H611 H 0.74308 0.82978 0.11615
 H612 H 0.74350 0.87174 0.07119
 C613 C 0.24752 0.41665 0.60775
 C614 C 0.24492 0.38236 0.60020
 C615 C 0.24476 0.35847 0.62600
 C616 C 0.24950 0.45846 0.55594
 C617 C 0.24947 0.40312 0.66741
 C618 C 0.24967 0.42708 0.64140
 C619 C 0.24854 0.44049 0.58043
 C620 C 0.24721 0.36848 0.65995
 H621 H 0.24325 0.37402 0.57425
 H622 H 0.24291 0.33211 0.61924
 H623 H 0.25147 0.41168 0.69324
 H624 H 0.25174 0.45360 0.64749
 C625 C 0.75207 0.08303 0.89082
 C626 C 0.75931 0.11517 0.90376
 C627 C 0.75734 0.14372 0.88295
 C628 C 0.75414 0.03179 0.93334
 C629 C 0.74024 0.10789 0.83652
 C630 C 0.74221 0.07956 0.85727
 C631 C 0.75351 0.05397 0.91255
 C632 C 0.74814 0.14031 0.84894
 H633 H 0.76664 0.11813 0.92992
 H634 H 0.76372 0.16819 0.89321
 H635 H 0.73278 0.10425 0.81049
 H636 H 0.73612 0.05497 0.84709
 C637 C 0.25077 0.58398 0.39031
 C638 C 0.24256 0.58014 0.35636
 C639 C 0.24106 0.60831 0.33533
 C640 C 0.25243 0.53313 0.43334
 C641 C 0.25540 0.64472 0.38224
 C642 C 0.25690 0.61634 0.40331
 C643 C 0.25190 0.55509 0.41230
 C644 C 0.24778 0.64097 0.34787
 H645 H 0.23740 0.55538 0.34608
 H646 H 0.23485 0.60435 0.30904
 H647 H 0.26083 0.66936 0.39262
 H648 H 0.26300 0.61959 0.42974
 C649 C 0.24340 0.88840 0.90937
 C650 C 0.24212 0.85401 0.91697
 C651 C 0.24061 0.83021 0.89098
 C652 C 0.24675 0.93617 0.95595
 C653 C 0.24161 0.87505 0.84950
 C654 C 0.24311 0.89881 0.87556
 C655 C 0.24515 0.91334 0.93584
 C656 C 0.24036 0.84039 0.85684
 H657 H 0.24232 0.84558 0.94296
 H658 H 0.23965 0.80377 0.89771
 H659 H 0.24143 0.88386 0.82364
 H660 H 0.24409 0.92538 0.86931
 C661 C 0.74151 0.38423 0.40896
 C662 C 0.74103 0.39477 0.37520
 C663 C 0.73917 0.37112 0.34910
 C664 C 0.74600 0.43178 0.45553
 C665 C 0.73817 0.32615 0.39048
 C666 C 0.74004 0.34986 0.41651
 C667 C 0.74383 0.40903 0.43544
 C668 C 0.73778 0.33646 0.35639
 H669 H 0.74217 0.42135 0.36903
 H670 H 0.73889 0.37999 0.32327
 H671 H 0.73711 0.29971 0.39715
 H672 H 0.74041 0.34135 0.44248
 C673 C 0.10377 0.25105 0.08519
 C674 C 0.13740 0.24959 0.07471
 C675 C 0.16345 0.24991 0.09866
 C676 C 0.05204 0.24894 0.04319
 C677 C 0.12211 0.25339 0.14340
 C678 C 0.09627 0.25309 0.11953
 C679 C 0.07645 0.24996 0.06131
 C680 C 0.15605 0.25164 0.13334
 H681 H 0.14347 0.24797 0.04815
 H682 H 0.18928 0.24847 0.09004
 H683 H 0.11539 0.25480 0.16980
 H684 H 0.07032 0.25424 0.12791
 C685 C 0.60820 0.75095 0.58355
 C686 C 0.64182 0.74930 0.57306
 C687 C 0.66786 0.74959 0.59700
 C688 C 0.55634 0.74899 0.54179
 C689 C 0.62653 0.75338 0.64174
 C690 C 0.60070 0.75312 0.61788
 C691 C 0.58086 0.74992 0.55973
 C692 C 0.66046 0.75145 0.63167
 H693 H 0.64787 0.74757 0.54651
 H694 H 0.69368 0.74800 0.58840
 H695 H 0.61981 0.75491 0.66813
 H696 H 0.57476 0.75441 0.62625
 C697 C 0.07826 0.73977 0.89882
 C698 C 0.11185 0.73911 0.90973
 C699 C 0.13801 0.73781 0.88631
 C700 C 0.03185 0.74432 0.94588
 C701 C 0.09685 0.73746 0.84097
 C702 C 0.07077 0.73877 0.86445
 C703 C 0.05186 0.74212 0.92330
 C704 C 0.13082 0.73719 0.85162
 H705 H 0.11782 0.73990 0.93639
 H706 H 0.16379 0.73769 0.89535
 H707 H 0.09034 0.73700 0.81445
 H708 H 0.04485 0.73929 0.85581
 C709 C 0.57589 0.23729 0.39900
 C710 C 0.60953 0.23622 0.40971
 C711 C 0.63553 0.23449 0.38613
 C712 C 0.52990 0.24303 0.44631
 C713 C 0.59409 0.23442 0.34104
 C714 C 0.56817 0.23618 0.36468
 C715 C 0.54971 0.24027 0.42363
 C716 C 0.62811 0.23382 0.35149
 H717 H 0.61569 0.23709 0.43633
 H718 H 0.66135 0.23411 0.39502
 H719 H 0.58742 0.23395 0.31456
 H720 H 0.54221 0.23701 0.35619
 C721 C 0.90926 0.75748 0.11243
 C722 C 0.87550 0.75740 0.10187
 C723 C 0.84939 0.75887 0.12552
 C724 C 0.95608 0.75413 0.06504
 C725 C 0.89076 0.76056 0.17052
 C726 C 0.91679 0.75909 0.14683
 C727 C 0.93580 0.75574 0.08765
 C728 C 0.85667 0.76043 0.16020
 H729 H 0.86934 0.75616 0.07528
 H730 H 0.82357 0.75874 0.11662
 H731 H 0.89742 0.76177 0.19698
 H732 H 0.94274 0.75918 0.15536
 C733 C 0.40854 0.25912 0.61557
 C734 C 0.37477 0.25921 0.60505
 C735 C 0.34870 0.26089 0.62871
 C736 C 0.45509 0.25515 0.56797
 C737 C 0.39011 0.26248 0.67367
 C738 C 0.41611 0.26080 0.64996
 C739 C 0.43501 0.25707 0.59073
 C740 C 0.35601 0.26249 0.66338
 H741 H 0.36857 0.25792 0.57846
 H742 H 0.32287 0.26086 0.61984
 H743 H 0.39680 0.26372 0.70013
 H744 H 0.44208 0.26075 0.65846
 C745 C 0.89095 0.24819 0.91736
 C746 C 0.90382 0.24151 0.88508
 C747 C 0.88288 0.24345 0.85660
 C748 C 0.93394 0.24603 0.96830
 C749 C 0.83639 0.25936 0.89275
 C750 C 0.85729 0.25743 0.92102
 C751 C 0.91288 0.24673 0.94634
 C752 C 0.84876 0.25205 0.86018
 H753 H 0.93006 0.23464 0.88196
 H754 H 0.89312 0.23752 0.83204
 H755 H 0.81029 0.26634 0.89656
 H756 H 0.84714 0.26307 0.94571
 C757 C 0.39081 0.74909 0.41622
 C758 C 0.35711 0.75818 0.41990
 C759 C 0.33619 0.76001 0.39165
 C760 C 0.43374 0.74679 0.46715
 C761 C 0.38275 0.74432 0.35548
 C762 C 0.40371 0.74248 0.38394
 C763 C 0.41272 0.74761 0.44517
 C764 C 0.34860 0.75276 0.35909
 H765 H 0.34695 0.76375 0.44460
 H766 H 0.31007 0.76687 0.39546
 H767 H 0.39301 0.73844 0.33091
 H768 H 0.42997 0.73572 0.38082
 C769 C 0.11159 0.09036 0.24312
 C770 C 0.14596 0.08290 0.24125
 C771 C 0.16965 0.10898 0.23966
 C772 C 0.06407 0.04353 0.24657
 C773 C 0.12473 0.15028 0.24177
 C774 C 0.10108 0.12412 0.24336
 C775 C 0.08678 0.06378 0.24492
 C776 C 0.15937 0.14307 0.23993
 H777 H 0.15446 0.05695 0.24104
 H778 H 0.19608 0.10235 0.23824
 H779 H 0.11586 0.17609 0.24200
 H780 H 0.07451 0.13025 0.24480
 C781 C 0.61577 0.59067 0.74222
 C782 C 0.65008 0.58302 0.74024
 C783 C 0.67387 0.60898 0.73841
 C784 C 0.56799 0.54430 0.74642
 C785 C 0.62910 0.65047 0.74046
 C786 C 0.60537 0.62445 0.74229
 C787 C 0.59084 0.56428 0.74440
 C788 C 0.66370 0.64309 0.73854
 H789 H 0.65847 0.55703 0.74018
 H790 H 0.70027 0.60226 0.73694
 H791 H 0.62033 0.67632 0.74059
 H792 H 0.57884 0.63070 0.74381
 C793 C 0.91680 0.10930 0.75179
 C794 C 0.88446 0.09629 0.75788
 C795 C 0.85607 0.11731 0.75621
 C796 C 0.96758 0.06623 0.75339
 C797 C 0.89245 0.16416 0.74177
 C798 C 0.92063 0.14319 0.74344
 C799 C 0.94568 0.08731 0.75294
 C800 C 0.85980 0.15162 0.74844
 H801 H 0.88121 0.06989 0.76407
 H802 H 0.83144 0.10692 0.76161
 H803 H 0.89640 0.19042 0.73545
 H804 H 0.94538 0.15346 0.73828
 C805 C 0.41647 0.60961 0.25056
 C806 C 0.42040 0.64351 0.24230
 C807 C 0.39229 0.66456 0.24067
 C808 C 0.46714 0.56647 0.25237
 C809 C 0.35577 0.61775 0.25498
 C810 C 0.38410 0.59666 0.25661
 C811 C 0.44529 0.58757 0.25179
 C812 C 0.35961 0.65208 0.24731
 H813 H 0.44519 0.65373 0.23720
 H814 H 0.39630 0.69082 0.23443
 H815 H 0.33111 0.60742 0.26034
 H816 H 0.38078 0.57025 0.26274
 C817 C 0.08569 0.89530 0.74745
 C818 C 0.11998 0.90298 0.74539
 C819 C 0.14393 0.87725 0.74524
 C820 C 0.04348 0.94672 0.74961
 C821 C 0.09932 0.83569 0.74887
 C822 C 0.07532 0.86161 0.74906
 C823 C 0.06173 0.92247 0.74854
 C824 C 0.13396 0.84327 0.74717
 H825 H 0.12828 0.92897 0.74414
 H826 H 0.17029 0.88410 0.74383
 H827 H 0.09079 0.80982 0.75047
 H828 H 0.04879 0.85541 0.75071
 C829 C 0.58288 0.39183 0.24710
 C830 C 0.61718 0.39935 0.24459
 C831 C 0.64101 0.37354 0.24446
 C832 C 0.54124 0.44369 0.24922
 C833 C 0.59630 0.33218 0.24897
 C834 C 0.57239 0.35820 0.24915
 C835 C 0.55911 0.41916 0.24819
 C836 C 0.63095 0.33962 0.24684
 H837 H 0.62556 0.42529 0.24300
 H838 H 0.66739 0.38028 0.24270
 H839 H 0.58771 0.30636 0.25092
 H840 H 0.54586 0.35213 0.25115
 C841 C 0.89957 0.92180 0.26122
 C842 C 0.86525 0.92942 0.26181
 C843 C 0.84160 0.90342 0.26311
 C844 C 0.94688 0.96809 0.25653
 C845 C 0.88667 0.86210 0.26357
 C846 C 0.91026 0.88817 0.26229
 C847 C 0.92423 0.94810 0.25880
 C848 C 0.85203 0.86941 0.26376
 H849 H 0.85676 0.95537 0.26096
 H850 H 0.81512 0.91003 0.26322
 H851 H 0.89556 0.83629 0.26399
 H852 H 0.93688 0.88208 0.26181
 C853 C 0.39878 0.42387 0.76434
 C854 C 0.36447 0.43151 0.76517
 C855 C 0.34085 0.40552 0.76662
 C856 C 0.44608 0.46994 0.75884
 C857 C 0.38594 0.36419 0.76682
 C858 C 0.40950 0.39026 0.76540
 C859 C 0.42338 0.45011 0.76153
 C860 C 0.35131 0.37152 0.76718
 H861 H 0.35599 0.45746 0.76434
 H862 H 0.31438 0.41213 0.76688
 H863 H 0.39483 0.33838 0.76717
 H864 H 0.43612 0.38418 0.76473
 C865 C 0.10073 0.25671 0.92345
 C866 C 0.13503 0.25702 0.93127
 C867 C 0.15875 0.25910 0.90543
 C868 C 0.05322 0.25192 0.96937
 C869 C 0.11379 0.26065 0.86389
 C870 C 0.09014 0.25858 0.88979
 C871 C 0.07598 0.25416 0.94957
 C872 C 0.14840 0.26090 0.87141
 H873 H 0.14343 0.25553 0.95724
 H874 H 0.18521 0.25916 0.91218
 H875 H 0.10497 0.26193 0.83806
 H876 H 0.06353 0.25830 0.88356
 C877 C 0.60175 0.75499 0.42071
 C878 C 0.63608 0.75521 0.42839
 C879 C 0.65972 0.75702 0.40247
 C880 C 0.55454 0.75111 0.46706
 C881 C 0.61463 0.75843 0.36107
 C882 C 0.59105 0.75662 0.38707
 C883 C 0.57711 0.75290 0.44699
 C884 C 0.64927 0.75864 0.36847
 H885 H 0.64457 0.75391 0.45435
 H886 H 0.68620 0.75705 0.40914
 H887 H 0.60573 0.75957 0.33525
 H888 H 0.56442 0.75642 0.38094
 C889 C 0.91718 0.75020 0.89221
 C890 C 0.88289 0.75245 0.89981
 C891 C 0.85896 0.75284 0.87404
 C892 C 0.95901 0.74920 0.94409
 C893 C 0.90354 0.74893 0.83255
 C894 C 0.92755 0.74853 0.85854
 C895 C 0.94108 0.74956 0.91952
 C896 C 0.86891 0.75097 0.84005
 H897 H 0.87460 0.75381 0.92578
 H898 H 0.83261 0.75452 0.88085
 H899 H 0.91206 0.74750 0.80669
 H900 H 0.95408 0.74683 0.85241
 C901 C 0.41311 0.24993 0.39378
 C902 C 0.42342 0.24847 0.36008
 C903 C 0.39936 0.24891 0.33412
 C904 C 0.45534 0.24904 0.44540
 C905 C 0.35484 0.25242 0.37569
 C906 C 0.37882 0.25199 0.40144
 C907 C 0.43713 0.24934 0.42102
 C908 C 0.36473 0.25079 0.34168
 H909 H 0.44994 0.24692 0.35388
 H910 H 0.40785 0.24765 0.30824
 H911 H 0.32850 0.25396 0.38256
 H912 H 0.37057 0.25320 0.42743
 C913 C 0.08360 0.75246 0.10830
 C914 C 0.11606 0.74724 0.09522
 C915 C 0.14430 0.74766 0.11655
 C916 C 0.03290 0.75122 0.06507
 C917 C 0.10750 0.75892 0.16389
 C918 C 0.07948 0.75850 0.14261
 C919 C 0.05480 0.75187 0.08617
 C920 C 0.14030 0.75323 0.15124
 H921 H 0.11950 0.74270 0.06853
 H922 H 0.16906 0.74324 0.10601
 H923 H 0.10328 0.76361 0.19043
 H924 H 0.05461 0.76279 0.15298
 C925 C 0.58305 0.25239 0.60986
 C926 C 0.61557 0.24829 0.59653
 C927 C 0.64387 0.24835 0.61781
 C928 C 0.53199 0.25145 0.56695
 C929 C 0.60699 0.25696 0.66564
 C930 C 0.57892 0.25689 0.64441
 C931 C 0.55413 0.25201 0.58783
 C932 C 0.63988 0.25246 0.65273
 H933 H 0.61902 0.24489 0.56966
 H934 H 0.66868 0.24490 0.60706
 H935 H 0.60272 0.26046 0.69235
 H936 H 0.55401 0.26024 0.65500
 C937 C 0.88372 0.23777 0.09080
 C938 C 0.84937 0.23565 0.08326
 C939 C 0.82568 0.23408 0.10931
 C940 C 0.93121 0.24188 0.04412
 C941 C 0.87061 0.23647 0.15070
 C942 C 0.89425 0.23804 0.12459
 C943 C 0.90850 0.23992 0.06427
 C944 C 0.83596 0.23463 0.14342
 H945 H 0.84086 0.23537 0.05729
 H946 H 0.79925 0.23261 0.10263
 H947 H 0.87947 0.23693 0.17654
 H948 H 0.92081 0.23963 0.13077
 C949 C 0.38672 0.74018 0.59121
 C950 C 0.39734 0.74079 0.62497
 C951 C 0.37376 0.73957 0.65117
 C952 C 0.43389 0.74337 0.54413
 C953 C 0.32873 0.73689 0.60989
 C954 C 0.35235 0.73812 0.58378
 C955 C 0.41139 0.74186 0.56455
 C956 C 0.33909 0.73775 0.64398
 H957 H 0.42392 0.74235 0.63106
 H958 H 0.38267 0.74026 0.67698
 H959 H 0.30228 0.73542 0.60328
 H960 H 0.34377 0.73757 0.55784
 C961 C 0.25042 0.10768 0.91631
 C962 C 0.25144 0.14131 0.92691
 C963 C 0.25088 0.16742 0.90304
 C964 C 0.25141 0.05566 0.95796
 C965 C 0.24818 0.12613 0.85813
 C966 C 0.24873 0.10024 0.88192
 C967 C 0.25106 0.08027 0.94009
 C968 C 0.24933 0.16008 0.86832
 H969 H 0.25270 0.14734 0.95351
 H970 H 0.25174 0.19326 0.91176
 H971 H 0.24692 0.11943 0.83171
 H972 H 0.24788 0.07430 0.87344
 C973 C 0.75194 0.60580 0.41353
 C974 C 0.75043 0.59819 0.37918
 C975 C 0.74974 0.62398 0.35528
 C976 C 0.75291 0.55420 0.45565
 C977 C 0.75195 0.66547 0.40004
 C978 C 0.75265 0.63948 0.42400
 C979 C 0.75260 0.57856 0.43747
 C980 C 0.75056 0.65797 0.36535
 H981 H 0.74981 0.57221 0.37080
 H982 H 0.74862 0.61717 0.32888
 H983 H 0.75256 0.69134 0.40866
 H984 H 0.75375 0.64562 0.45058
 C985 C 0.74194 0.07627 0.10115
 C986 C 0.74113 0.10989 0.09039
 C987 C 0.73896 0.13593 0.11390
 C988 C 0.74718 0.03006 0.05395
 C989 C 0.73822 0.09459 0.15902
 C990 C 0.74040 0.06861 0.13545
 C991 C 0.74471 0.04999 0.07658
 C992 C 0.73757 0.12858 0.14852
 H993 H 0.74235 0.11597 0.06378
 H994 H 0.73860 0.16174 0.10498
 H995 H 0.73724 0.08796 0.18550
 H996 H 0.74105 0.04266 0.14397
 C997 C 0.24369 0.57972 0.60142
 C998 C 0.24301 0.61337 0.59071
 C999 C 0.24135 0.63943 0.61428
 C1000 C 0.24746 0.53325 0.55421
 C1001 C 0.24096 0.59810 0.65939
 C1002 C 0.24262 0.57210 0.63576
 C1003 C 0.24569 0.55336 0.57679
 C1004 C 0.24034 0.63210 0.64893
 H1005 H 0.24387 0.61946 0.56409
 H1006 H 0.24101 0.66524 0.60537
 H1007 H 0.24027 0.59148 0.68587
 H1008 H 0.24316 0.54615 0.64427
 C1009 C 0.76240 0.90836 0.88475
 C1010 C 0.76396 0.91589 0.85037
 C1011 C 0.76547 0.88984 0.82666
 C1012 C 0.75821 0.95497 0.93228
 C1013 C 0.76411 0.84849 0.87165
 C1014 C 0.76261 0.87461 0.89530
 C1015 C 0.76023 0.93485 0.90954
 C1016 C 0.76540 0.85576 0.83697
 H1017 H 0.76384 0.94184 0.84185
 H1018 H 0.76649 0.89650 0.80020
 H1019 H 0.76405 0.82267 0.88052
 H1020 H 0.76144 0.86846 0.92189
 C1021 C 0.25890 0.40894 0.38620
 C1022 C 0.25880 0.37521 0.39686
 C1023 C 0.26006 0.34897 0.37328
 C1024 C 0.25557 0.45610 0.43341
 C1025 C 0.26176 0.39012 0.32816
 C1026 C 0.26050 0.41628 0.35177
 C1027 C 0.25716 0.43566 0.41089
 C1028 C 0.26143 0.35606 0.33857
 H1029 H 0.25761 0.36917 0.42348
 H1030 H 0.25980 0.32318 0.38225
 H1031 H 0.26286 0.39668 0.30168
 H1032 H 0.26064 0.44220 0.34315
 C1033 C 0.24841 0.89148 0.08261
 C1034 C 0.24323 0.85703 0.07838
 C1035 C 0.24291 0.83576 0.10640
 C1036 C 0.24951 0.93464 0.03184
 C1037 C 0.25259 0.88334 0.14342
 C1038 C 0.25291 0.90466 0.11518
 C1039 C 0.24892 0.91360 0.05379
 C1040 C 0.24782 0.84853 0.13933
 H1041 H 0.23954 0.84655 0.05343
 H1042 H 0.23888 0.80912 0.10208
 H1043 H 0.25639 0.89399 0.16826
 H1044 H 0.25681 0.93145 0.11871
 C1045 C 0.74797 0.39034 0.58361
 C1046 C 0.74028 0.35630 0.57988
 C1047 C 0.73971 0.33526 0.60805
 C1048 C 0.74971 0.43294 0.53241
 C1049 C 0.75401 0.38230 0.64428
 C1050 C 0.75458 0.40340 0.61587
 C1051 C 0.74880 0.41218 0.55461
 C1052 C 0.74691 0.34785 0.64062
 H1053 H 0.73486 0.34596 0.55518
 H1054 H 0.73376 0.30892 0.60414
 H1055 H 0.75962 0.39277 0.66886
 H1056 H 0.76037 0.42989 0.61903
 C1057 C 0.09019 0.11637 0.76174
 C1058 C 0.12389 0.10569 0.76179
 C1059 C 0.15013 0.12922 0.76342
 C1060 C 0.04335 0.06903 0.75738
 C1061 C 0.10900 0.17434 0.76522
 C1062 C 0.08284 0.15075 0.76359
 C1063 C 0.06356 0.09170 0.75946
 C1064 C 0.14303 0.16391 0.76499
 H1065 H 0.12991 0.07909 0.76039
 H1066 H 0.17590 0.12026 0.76321
 H1067 H 0.10247 0.20081 0.76648
 H1068 H 0.05693 0.15937 0.76361
 C1069 C 0.59118 0.61345 0.25940
 C1070 C 0.62492 0.60288 0.25935
 C1071 C 0.65111 0.62652 0.26075
 C1072 C 0.54409 0.56617 0.25576
 C1073 C 0.60988 0.67152 0.26250
 C1074 C 0.58377 0.64785 0.26109
 C1075 C 0.56452 0.58871 0.25749
 C1076 C 0.64395 0.66121 0.26220
 H1077 H 0.63101 0.57629 0.25808
 H1078 H 0.67691 0.61763 0.26049
 H1079 H 0.60329 0.69798 0.26366
 H1080 H 0.55784 0.65640 0.26120
 C1081 C 0.10933 0.91710 0.24782
 C1082 C 0.14368 0.92136 0.24210
 C1083 C 0.16495 0.89338 0.24161
 C1084 C 0.06607 0.96769 0.24928
 C1085 C 0.11756 0.85636 0.25214
 C1086 C 0.09624 0.88456 0.25264
 C1087 C 0.08719 0.94585 0.24852
 C1088 C 0.15228 0.86049 0.24688
 H1089 H 0.15407 0.94630 0.23814
 H1090 H 0.19151 0.89770 0.23718
 H1091 H 0.10700 0.83154 0.25624
 H1092 H 0.06952 0.88101 0.25694
 C1093 C 0.60936 0.41648 0.74867
 C1094 C 0.64362 0.42054 0.74234
 C1095 C 0.66480 0.39249 0.74192
 C1096 C 0.56659 0.46751 0.75013
 C1097 C 0.61748 0.35577 0.75374
 C1098 C 0.59624 0.38405 0.75416
 C1099 C 0.58739 0.44537 0.74936
 C1100 C 0.65213 0.35972 0.74790
 H1101 H 0.65402 0.44538 0.73785
 H1102 H 0.69130 0.39667 0.73701
 H1103 H 0.60693 0.33104 0.75838
 H1104 H 0.56959 0.38066 0.75893
 C1105 C 0.89129 0.08351 0.25035
 C1106 C 0.85762 0.07303 0.25140
 C1107 C 0.83163 0.09698 0.25080
 C1108 C 0.94310 0.04173 0.25151
 C1109 C 0.87313 0.14171 0.24796
 C1110 C 0.89889 0.11784 0.24855
 C1111 C 0.91858 0.05965 0.25109
 C1112 C 0.83914 0.13166 0.24917
 H1113 H 0.85147 0.04647 0.25274
 H1114 H 0.80576 0.08838 0.25173
 H1115 H 0.87995 0.16810 0.24662
 H1116 H 0.92486 0.12621 0.24766
 C1117 C 0.39408 0.58681 0.75150
 C1118 C 0.40183 0.62114 0.74998
 C1119 C 0.37614 0.64511 0.74928
 C1120 C 0.44552 0.54451 0.75267
 C1121 C 0.33447 0.60052 0.75148
 C1122 C 0.36036 0.57647 0.75219
 C1123 C 0.42123 0.56277 0.75226
 C1124 C 0.34210 0.63518 0.75011
 H1125 H 0.42784 0.62941 0.74937
 H1126 H 0.38305 0.67149 0.74817
 H1127 H 0.30857 0.59199 0.75211
 H1128 H 0.35410 0.54992 0.75330
 C1129 C 0.92317 0.89912 0.74223
 C1130 C 0.88947 0.90954 0.74124
 C1131 C 0.86364 0.88576 0.73936
 C1132 C 0.96885 0.94691 0.74685
 C1133 C 0.90536 0.84102 0.73930
 C1134 C 0.93112 0.86488 0.74120
 C1135 C 0.94919 0.92401 0.74466
 C1136 C 0.87129 0.85120 0.73843
 H1137 H 0.88314 0.93610 0.74208
 H1138 H 0.83777 0.89444 0.73880
 H1139 H 0.91219 0.81461 0.73869
 H1140 H 0.95714 0.85663 0.74200
 C1141 C 0.41991 0.39851 0.24331
 C1142 C 0.38626 0.40920 0.24267
 C1143 C 0.36019 0.38561 0.24098
 C1144 C 0.46647 0.44566 0.24717
 C1145 C 0.40153 0.34056 0.24047
 C1146 C 0.42752 0.36419 0.24217
 C1147 C 0.44629 0.42313 0.24535
 C1148 C 0.36752 0.35098 0.23990
 H1149 H 0.38018 0.43581 0.24358
 H1150 H 0.33439 0.39450 0.24066
 H1151 H 0.40815 0.31409 0.23974
 H1152 H 0.45347 0.35570 0.24268
   
