data_POSCAR
  _audit_creation_date              2014-09-24
  _audit_creation_method            'ToBaCCo'
  _symmetry_space_group_name_H-M    'P1'
  _symmetry_Int_Tables_number       1
  _symmetry_cell_setting            triclinic
  loop_
  _symmetry_equiv_pos_as_xyz
 x,y,z
_cell_length_a 17.9357
_cell_length_b 17.2557
_cell_length_c 17.2557
_cell_angle_alpha 90.000000
_cell_angle_beta 90.000000
_cell_angle_gamma 90.000000
loop_
  _atom_site_label
  _atom_site_type_symbol
  _atom_site_fract_x
  _atom_site_fract_y
  _atom_site_fract_z
C1 C 0.25000 0.50000 1.00000
 C2 C 0.75000 0.50000 0.00000
 C3 C 0.00000 0.24672 0.50000
 C4 C 1.00000 0.75328 0.50000
 C5 C 0.50000 0.00000 0.25328
 C6 C 0.50000 -0.00000 0.74672
 C7 C 0.37455 0.05745 0.42417
 H8 H 0.38000 0.09055 0.47712
 C9 C 0.43306 0.05604 0.37116
 H10 H 0.48234 0.09014 0.38345
 C11 C 0.30400 -0.02754 0.34565
 H12 H 0.25366 -0.06075 0.33641
 C13 C 0.36064 -0.02843 0.28961
 H14 H 0.35052 -0.05849 0.23574
 N15 N 0.31328 0.01276 0.41271
 C16 C 0.12545 0.07583 0.55745
 H17 H 0.12000 0.02288 0.59055
 C18 C 0.06694 0.12884 0.55604
 H19 H 0.01766 0.11655 0.59014
 C20 C 0.19600 0.15435 0.47246
 H21 H 0.24634 0.16359 0.43926
 C22 C 0.13936 0.21039 0.47158
 H23 H 0.14948 0.26426 0.44151
 Zn24 Zn 0.25000 -0.00000 0.50000
 N25 N 0.18672 0.08729 0.51276
 C26 C 0.30400 0.02754 0.65435
 N27 N 0.31328 -0.01276 0.58729
 C28 C 0.37455 -0.05745 0.57583
 C29 C 0.43306 -0.05604 0.62884
 C30 C 0.36064 0.02843 0.71039
 C31 C 0.12545 -0.07583 0.44255
 C32 C 0.06694 -0.12884 0.44396
 C33 C 0.13936 -0.21039 0.52842
 C34 C 0.19600 -0.15435 0.52754
 N35 N 0.18672 -0.08729 0.48724
 H36 H 0.25366 0.06075 0.66359
 H37 H 0.38000 -0.09055 0.52288
 H38 H 0.48234 -0.09014 0.61655
 H39 H 0.35052 0.05849 0.76426
 H40 H 0.12000 -0.02288 0.40945
 H41 H 0.01766 -0.11655 0.40986
 H42 H 0.14948 -0.26426 0.55849
 H43 H 0.24634 -0.16359 0.56074
 C44 C 0.07010 0.19433 0.50703
 C45 C 0.42990 0.00703 0.30567
 C46 C 0.07010 -0.19433 0.49297
 C47 C 0.42990 -0.00703 0.69433
 C48 C 0.62545 0.05745 0.57584
 H49 H 0.62000 0.09055 0.52289
 C50 C 0.56694 0.05604 0.62884
 H51 H 0.51766 0.09015 0.61656
 C52 C 0.69600 -0.02755 0.65435
 H53 H 0.74634 -0.06076 0.66358
 C54 C 0.63936 -0.02844 0.71039
 H55 H 0.64948 -0.05851 0.76426
 N56 N 0.68672 0.01275 0.58729
 C57 C 0.87455 0.07584 0.44255
 H58 H 0.88000 0.02289 0.40945
 C59 C 0.93306 0.12884 0.44396
 H60 H 0.98234 0.11656 0.40985
 C61 C 0.80400 0.15435 0.52755
 H62 H 0.75366 0.16358 0.56076
 C63 C 0.86064 0.21039 0.52844
 H64 H 0.85052 0.26426 0.55851
 Zn65 Zn 0.75000 -0.00000 0.50000
 N66 N 0.81328 0.08729 0.48725
 C67 C 0.69600 0.02755 0.34565
 N68 N 0.68672 -0.01275 0.41271
 C69 C 0.62545 -0.05745 0.42416
 C70 C 0.56694 -0.05604 0.37116
 C71 C 0.63936 0.02844 0.28961
 C72 C 0.87455 -0.07584 0.55745
 C73 C 0.93306 -0.12884 0.55604
 C74 C 0.86064 -0.21039 0.47156
 C75 C 0.80400 -0.15435 0.47245
 N76 N 0.81328 -0.08729 0.51275
 H77 H 0.74634 0.06076 0.33642
 H78 H 0.62000 -0.09055 0.47711
 H79 H 0.51766 -0.09015 0.38344
 H80 H 0.64948 0.05851 0.23574
 H81 H 0.88000 -0.02289 0.59055
 H82 H 0.98234 -0.11656 0.59015
 H83 H 0.85052 -0.26426 0.44149
 H84 H 0.75366 -0.16358 0.43924
 C85 C 0.92990 0.19433 0.49298
 C86 C 0.57010 0.00702 0.69433
 C87 C 0.92990 -0.19433 0.50702
 C88 C 0.57010 -0.00702 0.30567
 C89 C 0.44642 0.12737 1.08038
 H90 H 0.41269 0.12195 1.02868
 C91 C 0.44538 0.06899 1.13585
 H92 H 0.40991 0.01918 1.12605
 C93 C 0.53387 0.19855 1.15419
 H94 H 0.56868 0.24906 1.16113
 C95 C 0.53254 0.14222 1.21264
 H96 H 0.56326 0.15289 1.26541
 N97 N 0.49303 0.18870 1.08839
 C98 C 0.41369 0.37216 0.93709
 H99 H 0.45747 0.37400 0.89402
 C100 C 0.35720 0.42741 0.93582
 H101 H 0.35768 0.47108 0.89074
 C102 C 0.36394 0.31655 1.05132
 H103 H 0.36834 0.27459 1.09758
 C104 C 0.30735 0.37193 1.05346
 H105 H 0.27045 0.37118 1.10283
 Zn106 Zn 0.50000 0.25363 1.00000
 N107 N 0.41605 0.31830 0.99428
 C108 C 0.46613 0.19855 0.84581
 N109 N 0.50697 0.18870 0.91160
 C110 C 0.55359 0.12737 0.91961
 C111 C 0.55463 0.06900 0.86414
 C112 C 0.46745 0.14222 0.78736
 C113 C 0.58631 0.37216 1.06291
 C114 C 0.64280 0.42741 1.06418
 C115 C 0.69265 0.37193 0.94654
 C116 C 0.63606 0.31655 0.94867
 N117 N 0.58395 0.31830 1.00571
 H118 H 0.43130 0.24905 0.83887
 H119 H 0.58732 0.12197 0.97131
 H120 H 0.59010 0.01919 0.87394
 H121 H 0.43672 0.15288 0.73459
 H122 H 0.54252 0.37400 1.10597
 H123 H 0.64232 0.47108 1.10926
 H124 H 0.72955 0.37118 0.89717
 H125 H 0.63166 0.27459 0.90242
 C126 C 0.30296 0.42926 0.99514
 C127 C 0.49393 0.07220 1.20026
 C128 C 0.69704 0.42926 1.00486
 C129 C 0.50607 0.07220 0.79973
 C130 C 0.44642 0.87263 -0.08038
 H131 H 0.41269 0.87805 -0.02868
 C132 C 0.44538 0.93101 -0.13585
 H133 H 0.40991 0.98082 -0.12605
 C134 C 0.53387 0.80145 -0.15419
 H135 H 0.56868 0.75094 -0.16113
 C136 C 0.53254 0.85778 -0.21264
 H137 H 0.56326 0.84711 -0.26541
 N138 N 0.49303 0.81130 -0.08839
 C139 C 0.41369 0.62784 0.06291
 H140 H 0.45747 0.62600 0.10598
 C141 C 0.35720 0.57259 0.06418
 H142 H 0.35768 0.52892 0.10926
 C143 C 0.36394 0.68345 -0.05132
 H144 H 0.36834 0.72541 -0.09758
 C145 C 0.30735 0.62807 -0.05346
 H146 H 0.27045 0.62882 -0.10283
 Zn147 Zn 0.50000 0.74637 0.00000
 N148 N 0.41605 0.68170 0.00572
 C149 C 0.46613 0.80145 0.15419
 N150 N 0.50697 0.81130 0.08840
 C151 C 0.55359 0.87263 0.08039
 C152 C 0.55463 0.93100 0.13586
 C153 C 0.46745 0.85778 0.21264
 C154 C 0.58631 0.62784 -0.06291
 C155 C 0.64280 0.57259 -0.06418
 C156 C 0.69265 0.62807 0.05346
 C157 C 0.63606 0.68345 0.05133
 N158 N 0.58395 0.68170 -0.00571
 H159 H 0.43130 0.75095 0.16113
 H160 H 0.58732 0.87803 0.02869
 H161 H 0.59010 0.98081 0.12606
 H162 H 0.43672 0.84712 0.26541
 H163 H 0.54252 0.62600 -0.10597
 H164 H 0.64232 0.52892 -0.10926
 H165 H 0.72955 0.62882 0.10283
 H166 H 0.63166 0.72541 0.09758
 C167 C 0.30296 0.57074 0.00486
 C168 C 0.49393 0.92780 -0.20026
 C169 C 0.69704 0.57074 -0.00486
 C170 C 0.50607 0.92780 0.20027
 C171 C 1.08631 0.43709 0.12784
 H172 H 1.04253 0.39402 0.12600
 C173 C 1.14280 0.43582 0.07259
 H174 H 1.14232 0.39074 0.02892
 C175 C 1.13606 0.55132 0.18345
 H176 H 1.13166 0.59758 0.22541
 C177 C 1.19265 0.55346 0.12807
 H178 H 1.22955 0.60283 0.12882
 N179 N 1.08395 0.49428 0.18170
 C180 C 0.94641 0.41961 0.37263
 H181 H 0.91268 0.47131 0.37803
 C182 C 0.94537 0.36414 0.43100
 H183 H 0.90990 0.37394 0.48081
 C184 C 1.03387 0.34581 0.30145
 H185 H 1.06870 0.33887 0.25095
 C186 C 1.03255 0.28736 0.35778
 H187 H 1.06328 0.23459 0.34712
 Zn188 Zn 1.00000 0.50000 0.24637
 N189 N 0.99303 0.41160 0.31130
 C190 C 0.86394 0.44867 0.18345
 N191 N 0.91605 0.50571 0.18170
 C192 C 0.91369 0.56291 0.12784
 C193 C 0.85720 0.56418 0.07259
 C194 C 0.80735 0.44654 0.12807
 C195 C 1.05358 0.58038 0.37263
 C196 C 1.05462 0.63585 0.43101
 C197 C 0.96746 0.71264 0.35778
 C198 C 0.96613 0.65419 0.30145
 N199 N 1.00697 0.58839 0.31130
 H200 H 0.86834 0.40242 0.22541
 H201 H 0.95748 0.60597 0.12600
 H202 H 0.85768 0.60926 0.02892
 H203 H 0.77044 0.39717 0.12882
 H204 H 1.08731 0.52868 0.37805
 H205 H 1.09009 0.62605 0.48082
 H206 H 0.93674 0.76541 0.34711
 H207 H 0.93132 0.66113 0.25094
 C208 C 0.99393 0.29973 0.42779
 C209 C 1.19704 0.49514 0.07074
 C210 C 1.00607 0.70026 0.42780
 C211 C 0.80296 0.50486 0.07074
 C212 C -0.08631 0.43709 0.87216
 H213 H -0.04252 0.39403 0.87400
 C214 C -0.14280 0.43582 0.92741
 H215 H -0.14232 0.39074 0.97108
 C216 C -0.13606 0.55133 0.81655
 H217 H -0.13166 0.59758 0.77459
 C218 C -0.19265 0.55346 0.87193
 H219 H -0.22956 0.60283 0.87118
 N220 N -0.08395 0.49429 0.81830
 C221 C 0.05358 0.41962 0.62737
 H222 H 0.08731 0.47132 0.62195
 C223 C 0.05462 0.36415 0.56899
 H224 H 0.09009 0.37395 0.51918
 C225 C -0.03387 0.34581 0.69855
 H226 H -0.06868 0.33887 0.74906
 C227 C -0.03254 0.28736 0.64222
 H228 H -0.06326 0.23459 0.65289
 Zn229 Zn -0.00000 0.50000 0.75363
 N230 N 0.00697 0.41161 0.68870
 C231 C 0.13606 0.44868 0.81655
 N232 N 0.08395 0.50572 0.81830
 C233 C 0.08631 0.56291 0.87216
 C234 C 0.14280 0.56418 0.92741
 C235 C 0.19265 0.44654 0.87193
 C236 C -0.05359 0.58039 0.62737
 C237 C -0.05463 0.63586 0.56900
 C238 C 0.03255 0.71264 0.64222
 C239 C 0.03387 0.65419 0.69855
 N240 N -0.00697 0.58840 0.68870
 H241 H 0.13166 0.40242 0.77459
 H242 H 0.04253 0.60598 0.87400
 H243 H 0.14232 0.60926 0.97108
 H244 H 0.22955 0.39717 0.87118
 H245 H -0.08732 0.52869 0.62197
 H246 H -0.09010 0.62606 0.51919
 H247 H 0.06328 0.76541 0.65288
 H248 H 0.06870 0.66113 0.74905
 C249 C 0.00607 0.29974 0.57220
 C250 C -0.19704 0.49514 0.92926
 C251 C -0.00607 0.70027 0.57221
 C252 C 0.19704 0.50486 0.92926
   
