data_POSCAR
  _audit_creation_date              2014-09-24
  _audit_creation_method            'ToBaCCo'
  _symmetry_space_group_name_H-M    'P1'
  _symmetry_Int_Tables_number       1
  _symmetry_cell_setting            triclinic
  loop_
  _symmetry_equiv_pos_as_xyz
 x,y,z
_cell_length_a 44.1115
_cell_length_b 44.1660
_cell_length_c 14.4067
_cell_angle_alpha 91.417400
_cell_angle_beta 90.365900
_cell_angle_gamma 120.057600
loop_
  _atom_site_label
  _atom_site_type_symbol
  _atom_site_fract_x
  _atom_site_fract_y
  _atom_site_fract_z
C1 C 0.17737 0.48469 0.40438
 C2 C 0.16534 0.48826 0.49077
 C3 C 0.18660 0.49979 0.57158
 C4 C 0.22203 0.50801 0.56513
 C5 C 0.23452 0.50270 0.47883
 C6 C 0.21223 0.49137 0.39774
 C7 C 0.22432 0.48385 0.31528
 C8 C 0.25731 0.48728 0.31175
 C9 C 0.27949 0.49804 0.39068
 C10 C 0.26855 0.50647 0.47490
 C11 C 0.24446 0.51850 0.64388
 C12 C 0.27781 0.52266 0.63959
 C13 C 0.29055 0.51629 0.55641
 C14 C 0.32335 0.51700 0.55310
 C15 C 0.33361 0.50981 0.46674
 C16 C 0.31197 0.49947 0.38792
 H17 H 0.20791 0.47367 0.25342
 H18 H 0.26504 0.48065 0.24662
 H19 H 0.23621 0.52238 0.71136
 H20 H 0.29266 0.52974 0.70404
 H21 H 0.13904 0.48440 0.49307
 H22 H 0.35908 0.51215 0.45897
 C23 C 0.50696 -0.17889 0.58387
 C24 C 0.50239 -0.16680 0.49957
 C25 C 0.49912 -0.18473 0.41511
 C26 C 0.50102 -0.21575 0.41493
 C27 C 0.50308 -0.22981 0.50068
 C28 C 0.50511 -0.21172 0.58576
 C29 C 0.50685 -0.22612 0.66976
 C30 C 0.50636 -0.25778 0.67082
 C31 C 0.50611 -0.27539 0.58765
 C32 C 0.50547 -0.26073 0.50130
 C33 C 0.50323 -0.23173 0.33164
 C34 C 0.50863 -0.26024 0.33240
 C35 C 0.50946 -0.27553 0.41618
 C36 C 0.51706 -0.30319 0.41958
 C37 C 0.51640 -0.31769 0.50502
 C38 C 0.50961 -0.30549 0.58888
 H39 H 0.50863 -0.21306 0.73572
 H40 H 0.50844 -0.26703 0.73801
 H41 H 0.50275 -0.22111 0.26508
 H42 H 0.51267 -0.26966 0.26645
 H43 H 0.50243 -0.14221 0.49979
 H44 H 0.51880 -0.34095 0.50375
 C45 C 1.18333 0.68641 0.39705
 C46 C 1.16828 0.66605 0.47412
 C47 C 1.18487 0.67510 0.56248
 C48 C 1.21768 0.70692 0.57204
 C49 C 1.23419 0.72670 0.49216
 C50 C 1.21725 0.71573 0.40404
 C51 C 1.23415 0.73488 0.32580
 C52 C 1.26746 0.76430 0.33350
 C53 C 1.28473 0.77677 0.42058
 C54 C 1.26695 0.75849 0.50100
 C55 C 1.23357 0.72076 0.65960
 C56 C 1.26418 0.75288 0.66863
 C57 C 1.28095 0.77255 0.59057
 C58 C 1.31184 0.80546 0.60057
 C59 C 1.33090 0.82161 0.52092
 C60 C 1.31802 0.80810 0.43023
 H61 H 1.22177 0.72707 0.25752
 H62 H 1.27851 0.77792 0.27037
 H63 H 1.22200 0.70799 0.72331
 H64 H 1.27494 0.76179 0.73816
 H65 H 1.14348 0.64224 0.46223
 H66 H 1.35561 0.84567 0.53010
 C67 C 0.68003 0.48721 0.44531
 C68 C 0.66867 0.49315 0.53132
 C69 C 0.69096 0.50575 0.60996
 C70 C 0.72479 0.50979 0.60452
 C71 C 0.73546 0.50038 0.52092
 C72 C 0.71332 0.48960 0.44048
 C73 C 0.72538 0.48204 0.35767
 C74 C 0.75763 0.48316 0.35512
 C75 C 0.77912 0.49185 0.43528
 C76 C 0.76828 0.50148 0.51832
 C77 C 0.74722 0.52051 0.68307
 C78 C 0.77898 0.52148 0.68062
 C79 C 0.78995 0.51172 0.59955
 C80 C 0.82054 0.50912 0.60039
 C81 C 0.83005 0.49798 0.51945
 C82 C 0.81122 0.49152 0.43526
 H83 H 0.70979 0.47469 0.29414
 H84 H 0.76526 0.47663 0.28982
 H85 H 0.74000 0.52682 0.74924
 H86 H 0.79408 0.52865 0.74494
 H87 H 0.64290 0.49051 0.53499
 H88 H 0.85372 0.49623 0.52076
 C89 C 0.48309 0.18084 0.40319
 C90 C 0.48745 0.16616 0.48320
 C91 C 0.49600 0.18413 0.56947
 C92 C 0.49901 0.21756 0.57583
 C93 C 0.49641 0.23356 0.49400
 C94 C 0.48948 0.21551 0.40675
 C95 C 0.48848 0.23233 0.32627
 C96 C 0.49472 0.26657 0.33124
 C97 C 0.50025 0.28450 0.41741
 C98 C 0.49981 0.26729 0.49977
 C99 C 0.50353 0.23499 0.66198
 C100 C 0.50447 0.26690 0.66809
 C101 C 0.50192 0.28327 0.58802
 C102 C 0.50242 0.31561 0.59410
 C103 C 0.50603 0.33363 0.51166
 C104 C 0.50503 0.31867 0.42370
 H105 H 0.48337 0.21930 0.25861
 H106 H 0.49398 0.27840 0.26702
 H107 H 0.50533 0.22369 0.72609
 H108 H 0.50822 0.27903 0.73654
 H109 H 0.48442 0.14026 0.47728
 H110 H 0.50758 0.35886 0.51436
 C111 C 0.67805 0.19303 0.58605
 C112 C 0.66332 0.17690 0.49940
 C113 C 0.68058 0.19030 0.41698
 C114 C 0.71156 0.22308 0.41871
 C115 C 0.72771 0.23942 0.50548
 C116 C 0.71153 0.22367 0.58950
 C117 C 0.73022 0.23761 0.67374
 C118 C 0.76443 0.26592 0.67536
 C119 C 0.78032 0.28339 0.59367
 C120 C 0.76116 0.27027 0.50781
 C121 C 0.72732 0.23925 0.33620
 C122 C 0.75854 0.27103 0.33846
 C123 C 0.77621 0.28656 0.42315
 C124 C 0.80955 0.31678 0.42469
 C125 C 0.82887 0.32803 0.50807
 C126 C 0.81564 0.31158 0.59205
 H127 H 0.71930 0.22547 0.73886
 H128 H 0.77812 0.27329 0.74152
 H129 H 0.71539 0.22761 0.26917
 H130 H 0.76958 0.28239 0.27269
 H131 H 0.63847 0.15257 0.49560
 H132 H 0.85495 0.35088 0.50810
 O133 O 1.06429 0.57899 0.13113
 O134 O 1.09269 0.56431 0.02151
 C135 C 1.09242 0.58382 0.08969
 O136 O 0.96767 0.42560 0.18915
 O137 O 0.92180 0.43057 0.13080
 C138 C 0.93492 0.41672 0.18502
 O139 O 1.06270 0.47474 0.13710
 O140 O 1.09207 0.51444 0.02493
 C141 C 1.09112 0.49590 0.09437
 O142 O 0.96860 0.53693 0.18259
 O143 O 0.92220 0.48480 0.12811
 C144 C 0.93564 0.51302 0.18085
 Zr145 Zr 1.01117 0.54003 0.10738
 O146 O 1.02453 0.55400 0.24939
 O147 O 1.01176 0.58745 0.08579
 Zr148 Zr 1.01043 0.46324 0.11548
 O149 O 1.02135 0.47221 0.26010
 O150 O 1.01398 0.41725 0.11994
 O151 O 1.04259 0.51713 0.10948
 O152 O 0.98292 0.48853 0.14777
 O153 O 0.93724 0.51487 -0.13679
 O154 O 0.90676 0.47296 -0.03009
 C155 C 0.90847 0.49248 -0.09812
 O156 O 1.02911 0.45186 -0.19058
 O157 O 1.07596 0.50311 -0.13302
 C158 C 1.06204 0.47555 -0.18795
 O159 O 0.93439 0.40578 -0.12430
 O160 O 0.90574 0.42219 -0.01999
 C161 C 0.90614 0.40126 -0.08387
 O162 O 1.02938 0.55521 -0.20722
 O163 O 1.07634 0.55410 -0.14148
 C164 C 1.06222 0.56439 -0.20364
 Zr165 Zr 0.98867 0.52471 -0.11729
 O166 O 0.97195 0.51883 -0.25768
 O167 O 0.99416 0.57522 -0.11200
 Zr168 Zr 0.98723 0.44734 -0.11039
 O169 O 0.97000 0.43445 -0.25078
 O170 O 0.99014 0.40104 -0.10178
 Zr171 Zr 1.05018 0.51796 -0.03522
 Zr172 Zr 0.94849 0.46939 0.03180
 O173 O 0.95727 0.47105 -0.11215
 O174 O 1.01601 0.49896 -0.15223
 O175 O 0.96914 0.52348 0.01445
 O176 O 1.02841 0.46390 -0.01643
 O177 O 1.03020 0.55228 -0.02529
 O178 O 0.96833 0.43476 0.02299
 H179 H 0.97282 0.48443 0.21053
 H180 H 1.04341 0.45324 -0.02403
 H181 H 0.93752 0.46038 -0.15787
 H182 H 1.04633 0.57732 -0.03747
 H183 H 0.99295 0.39832 0.08739
 H184 H 0.97077 0.38467 -0.06258
 H185 H 0.98558 0.45488 -0.28785
 H186 H 0.97297 0.49850 -0.28398
 H187 H 0.97527 0.57413 -0.07296
 H188 H 1.01910 0.60067 0.14604
 H189 H 1.02130 0.53288 0.28017
 H190 H 1.04304 0.49516 0.26912
 O191 O 0.41934 0.48718 0.13129
 O192 O 0.43411 0.53032 0.02595
 C193 C 0.41489 0.51085 0.09176
 O194 O 0.57200 0.53921 0.20022
 O195 O 0.56450 0.48749 0.13748
 C196 C 0.57937 0.51422 0.19551
 O197 O 0.52421 0.58787 0.14826
 O198 O 0.48380 0.57828 0.03315
 C199 C 0.50290 0.59552 0.10533
 O200 O 0.45949 0.43192 0.17966
 O201 O 0.51005 0.43531 0.12588
 C202 C 0.48255 0.42185 0.17779
 Zr203 Zr 0.45688 0.47163 0.10705
 O204 O 0.44462 0.47160 0.24869
 O205 O 0.40841 0.42544 0.08039
 Zr206 Zr 0.53532 0.54661 0.12362
 O207 O 0.52949 0.55071 0.26838
 O208 O 0.58259 0.59537 0.12948
 O209 O 0.48145 0.52610 0.11459
 O210 O 0.50871 0.49377 0.15058
 O211 O 0.47802 0.42087 -0.14160
 O212 O 0.52005 0.43112 -0.03086
 C213 C 0.50032 0.41389 -0.10234
 O214 O 0.54399 0.57503 -0.18113
 O215 O 0.49443 0.57311 -0.12524
 C216 C 0.52132 0.58538 -0.17899
 O217 O 0.58763 0.52522 -0.12142
 O218 O 0.57126 0.47990 -0.02255
 C219 C 0.59098 0.50023 -0.08670
 O220 O 0.43826 0.47434 -0.20687
 O221 O 0.44210 0.52342 -0.13697
 C222 C 0.43026 0.49882 -0.20138
 Zr223 Zr 0.46891 0.46303 -0.11738
 O224 O 0.47173 0.45092 -0.25872
 O225 O 0.41785 0.41880 -0.11455
 Zr226 Zr 0.54801 0.53802 -0.10182
 O227 O 0.56029 0.53456 -0.24203
 O228 O 0.59512 0.58656 -0.08273
 Zr229 Zr 0.47927 0.53265 -0.02956
 Zr230 Zr 0.52580 0.47717 0.03403
 O231 O 0.52249 0.48419 -0.10928
 O232 O 0.49597 0.51616 -0.14721
 O233 O 0.47117 0.44485 0.01271
 O234 O 0.53370 0.56397 -0.00668
 O235 O 0.44354 0.47860 -0.02502
 O236 O 0.56186 0.53136 0.03107
 H237 H 0.51283 0.48769 0.21332
 H238 H 0.54466 0.58965 -0.01220
 H239 H 0.53171 0.47460 -0.15705
 H240 H 0.41847 0.47032 -0.03833
 H241 H 0.60135 0.59132 0.10624
 H242 H 0.61204 0.58230 -0.04828
 H243 H 0.53849 0.52617 -0.27939
 H244 H 0.49225 0.47164 -0.28358
 H245 H 0.41943 0.40029 -0.08120
 H246 H 0.39584 0.41998 0.13983
 H247 H 0.46569 0.49078 0.28024
 H248 H 0.50640 0.54882 0.27778
 O249 O 0.47458 0.06229 0.13949
 O250 O 0.51465 0.09191 0.02735
 C251 C 0.49585 0.09073 0.09726
 O252 O 0.54119 -0.02731 0.18511
 O253 O 0.49010 -0.07493 0.13003
 C254 C 0.51837 -0.06046 0.18186
 O255 O 0.57951 0.06773 0.13796
 O256 O 0.56456 0.09478 0.02749
 C257 C 0.58353 0.09546 0.09740
 O258 O 0.42807 -0.03293 0.19413
 O259 O 0.43473 -0.07801 0.13481
 C260 C 0.42081 -0.06530 0.19184
 Zr261 Zr 0.46358 0.01005 0.11606
 O262 O 0.46707 0.02188 0.26034
 O263 O 0.41467 0.00766 0.10398
 Zr264 Zr 0.54225 0.01407 0.11267
 O265 O 0.55149 0.02524 0.25711
 O266 O 0.59158 0.01776 0.09682
 O267 O 0.51748 0.04362 0.11265
 O268 O 0.49054 -0.01543 0.15065
 O269 O 0.41152 -0.06616 -0.12868
 O270 O 0.42800 -0.09377 -0.02366
 C271 C 0.40822 -0.09401 -0.09098
 O272 O 0.56346 0.03253 -0.19519
 O273 O 0.55815 0.07798 -0.13287
 C274 C 0.57139 0.06501 -0.19100
 O275 O 0.52182 -0.06083 -0.13021
 O276 O 0.47978 -0.09119 -0.02305
 C277 C 0.50001 -0.08956 -0.09001
 O278 O 0.45583 0.02673 -0.19479
 O279 O 0.50501 0.07494 -0.13377
 C280 C 0.47851 0.05990 -0.19180
 Zr281 Zr 0.45107 -0.01328 -0.10897
 O282 O 0.43725 -0.02993 -0.24934
 O283 O 0.40415 -0.01158 -0.09489
 Zr284 Zr 0.52982 -0.00954 -0.11276
 O285 O 0.52251 -0.02698 -0.25367
 O286 O 0.58040 -0.00394 -0.10952
 Zr287 Zr 0.51996 0.05087 -0.03200
 Zr288 Zr 0.47347 -0.05033 0.03476
 O289 O 0.47639 -0.04192 -0.10924
 O290 O 0.50315 0.01648 -0.14933
 O291 O 0.43723 -0.03263 0.02376
 O292 O 0.55538 0.03239 -0.01941
 O293 O 0.46554 0.02808 -0.01583
 O294 O 0.52798 -0.02791 0.01958
 H295 H 0.48696 -0.02478 0.21392
 H296 H 0.58061 0.04894 -0.02869
 H297 H 0.46730 -0.06159 -0.15561
 H298 H 0.45476 0.04283 -0.02519
 H299 H 0.60364 0.02562 0.15829
 H300 H 0.58064 -0.01937 -0.06117
 H301 H 0.51516 -0.01262 -0.28850
 H302 H 0.45800 -0.02904 -0.27764
 H303 H 0.38810 -0.03143 -0.05669
 H304 H 0.41008 0.01436 0.16621
 H305 H 0.49140 0.04060 0.27456
 H306 H 0.54214 0.04076 0.27423
 C307 C 1.15212 0.47257 0.33162
 C308 C 1.15678 0.48723 0.24872
 C309 C 1.12519 0.47865 0.19240
 C310 C 1.12466 0.50011 0.12934
 H311 H 1.18214 0.50856 0.22971
 H312 H 1.10065 0.45601 0.21104
 H313 H 1.12515 0.45519 0.35098
 H314 H 1.14891 0.52273 0.10925
 C315 C 0.52850 0.68388 0.34544
 C316 C 0.51088 0.66982 0.26528
 C317 C 0.51965 0.64649 0.21044
 C318 C 0.49856 0.62457 0.14311
 H319 H 0.48747 0.67084 0.24802
 H320 H 0.54234 0.64477 0.23197
 H321 H 0.54845 0.67732 0.36345
 H322 H 0.47603 0.62623 0.11996
 C323 C 0.33818 -0.17442 0.35164
 C324 C 0.36112 -0.13980 0.35098
 C325 C 0.38217 -0.12209 0.26892
 C326 C 0.39660 -0.08731 0.26389
 H327 H 0.36333 -0.12321 0.41025
 H328 H 0.38613 -0.13707 0.21454
 H329 H 0.33431 -0.18911 0.28719
 H330 H 0.39087 -0.07348 0.31794
 C331 C 0.82635 0.48479 0.34985
 C332 C 0.86070 0.50467 0.33295
 C333 C 0.87877 0.49720 0.25697
 C334 C 0.91326 0.51885 0.24648
 H335 H 0.87656 0.52699 0.37925
 H336 H 0.86456 0.47376 0.21324
 H337 H 0.80968 0.46324 0.30250
 H338 H 0.92654 0.54211 0.29143
 C339 C 0.50895 0.33940 0.33986
 C340 C 0.49136 0.35659 0.32988
 C341 C 0.49740 0.38037 0.25273
 C342 C 0.47682 0.39439 0.24335
 H343 H 0.47235 0.35364 0.38152
 H344 H 0.51919 0.38743 0.20693
 H345 H 0.52670 0.34070 0.28642
 H346 H 0.45498 0.38637 0.28967
 C347 C 0.66963 0.16533 0.33697
 C348 C 0.64999 0.16512 0.26596
 C349 C 0.63147 0.13323 0.20606
 C350 C 0.60941 0.13008 0.13768
 H351 H 0.64477 0.18647 0.25853
 H352 H 0.63336 0.11055 0.22448
 H353 H 0.67323 0.14299 0.34539
 H354 H 0.60777 0.15272 0.11761
 C355 C 0.50240 0.16766 -0.34935
 C356 C 0.48332 0.13322 -0.33686
 C357 C 0.49162 0.11561 -0.26369
 C358 C 0.47267 0.08079 -0.25988
 H359 H 0.46120 0.11726 -0.38329
 H360 H 0.51321 0.13071 -0.21505
 H361 H 0.52370 0.18387 -0.30100
 H362 H 0.45121 0.06644 -0.30955
 C363 C 0.68020 0.51651 -0.30998
 C364 C 0.64843 0.49755 -0.27433
 C365 C 0.63709 0.51177 -0.19742
 C366 C 0.61486 0.49098 -0.13405
 H367 H 0.63034 0.47156 -0.30269
 H368 H 0.64381 0.53895 -0.19994
 H369 H 0.69896 0.54027 -0.27242
 H370 H 0.60957 0.46431 -0.12936
 C371 C 0.84075 0.32275 -0.33500
 C372 C 0.83725 0.33167 -0.24786
 C373 C 0.86948 0.35141 -0.18966
 C374 C 0.87180 0.37251 -0.11855
 H375 H 0.81298 0.32971 -0.22532
 H376 H 0.89321 0.35241 -0.21372
 H377 H 0.86736 0.33104 -0.35602
 H378 H 0.84833 0.37198 -0.09431
 C379 C 0.52027 -0.15291 -0.33774
 C380 C 0.50231 -0.15534 -0.26128
 C381 C 0.51370 -0.12368 -0.20144
 C382 C 0.49518 -0.12298 -0.12912
 H383 H 0.47781 -0.17903 -0.24869
 H384 H 0.53584 -0.09939 -0.22343
 H385 H 0.54363 -0.12818 -0.35111
 H386 H 0.47317 -0.14717 -0.10626
 C387 C 0.34528 0.52337 -0.36686
 C388 C 0.36716 0.51049 -0.36027
 C389 C 0.39000 0.51584 -0.27844
 C390 C 0.40673 0.49756 -0.27622
 H391 H 0.36698 0.49310 -0.41478
 H392 H 0.39281 0.53373 -0.22180
 H393 H 0.34364 0.53739 -0.30648
 H394 H 0.40237 0.47926 -0.33341
 C395 C 1.16899 0.65267 -0.36167
 C396 C 1.13453 0.62949 -0.35818
 C397 C 1.11815 0.60631 -0.27927
 C398 C 1.08318 0.58747 -0.27792
 H399 H 1.11686 0.62865 -0.41182
 H400 H 1.13402 0.60526 -0.22312
 H401 H 1.18481 0.65431 -0.30211
 H402 H 1.06827 0.59007 -0.33428
 C403 C 0.84229 0.51852 -0.32022
 C404 C 0.85146 0.49676 -0.28363
 C405 C 0.87630 0.50837 -0.20488
 C406 C 0.87584 0.48572 -0.14434
 H407 H 0.84110 0.47044 -0.31273
 H408 H 0.89801 0.53508 -0.20414
 H409 H 0.84916 0.54270 -0.28229
 H410 H 0.85331 0.45957 -0.14201
 C411 C 0.49515 0.32748 -0.32132
 C412 C 0.50465 0.36083 -0.30176
 C413 C 0.48870 0.37043 -0.22621
 C414 C 0.50741 0.38838 -0.15067
 H415 H 0.52253 0.38171 -0.34519
 H416 H 0.46415 0.36926 -0.24287
 H417 H 0.47988 0.30846 -0.27010
 H418 H 0.53204 0.38950 -0.13516
 C419 C 0.65809 0.17630 -0.32937
 C420 C 0.64076 0.14145 -0.32381
 C421 C 0.61531 0.12254 -0.25141
 C422 C 0.59752 0.08760 -0.25738
 H423 H 0.64438 0.12596 -0.37752
 H424 H 0.61072 0.13667 -0.19586
 H425 H 0.65632 0.19244 -0.27424
 H426 H 0.60322 0.07434 -0.31313
 C427 C 1.17173 0.50337 -0.34487
 C428 C 1.13751 0.48279 -0.32878
 C429 C 1.11906 0.48990 -0.25472
 C430 C 1.08424 0.46977 -0.25243
 H431 H 1.12181 0.46011 -0.37413
 H432 H 1.13318 0.51206 -0.20671
 H433 H 1.18775 0.52320 -0.29281
 H434 H 1.07090 0.44783 -0.30167
 C435 C 0.50529 0.67575 -0.32938
 C436 C 0.52086 0.65679 -0.31735
 C437 C 0.51182 0.63149 -0.24373
 C438 C 0.52786 0.61274 -0.24374
 H439 H 0.54105 0.65949 -0.36452
 H440 H 0.49197 0.62734 -0.19366
 H441 H 0.48858 0.67614 -0.27518
 H442 H 0.54783 0.61796 -0.29462
 C443 C 0.32131 -0.17613 -0.31292
 C444 C 0.35432 -0.15432 -0.28525
 C445 C 0.36232 -0.13030 -0.20502
 C446 C 0.38463 -0.12778 -0.13826
 H447 H 0.37605 -0.15280 -0.32368
 H448 H 0.35493 -0.11041 -0.21052
 H449 H 0.30074 -0.17984 -0.26577
 H450 H 0.39090 -0.14846 -0.13200
 C451 C 0.49494 -0.16939 0.32890
 C452 C 0.51462 -0.13505 0.31648
 C453 C 0.50676 -0.11690 0.24437
 C454 C 0.52574 -0.08204 0.24332
 H455 H 0.53591 -0.11933 0.36556
 H456 H 0.48472 -0.13147 0.19662
 H457 H 0.47447 -0.18593 0.27884
 H458 H 0.54773 -0.06822 0.29178
 C459 C 0.32279 0.48594 0.30821
 C460 C 0.34360 0.50710 0.24380
 C461 C 0.36367 0.49589 0.18580
 C462 C 0.38769 0.51766 0.12772
 H463 H 0.34902 0.53390 0.24210
 H464 H 0.36146 0.47075 0.19844
 H465 H 0.31841 0.45957 0.31214
 H466 H 0.38952 0.54248 0.11323
 C467 C 1.16061 0.67740 0.31372
 C468 C 1.16068 0.65623 0.24642
 C469 C 1.12912 0.63602 0.18731
 C470 C 1.12659 0.61164 0.12628
 H471 H 1.18162 0.65014 0.24399
 H472 H 1.10617 0.63821 0.20184
 H473 H 1.13868 0.68194 0.31853
 H474 H 1.14962 0.60986 0.10996
 C475 C 0.46912 0.15729 0.32054
 C476 C 0.49001 0.15783 0.25350
 C477 C 0.47941 0.12591 0.19616
 C478 C 0.50092 0.12435 0.13416
 H479 H 0.51655 0.17971 0.25007
 H480 H 0.45532 0.10225 0.21220
 H481 H 0.44335 0.13439 0.32641
 H482 H 0.52461 0.14807 0.11630
 C483 C 0.65702 0.48048 0.36194
 C484 C 0.64293 0.50077 0.34756
 C485 C 0.61784 0.49485 0.27107
 C486 C 0.60599 0.51733 0.26347
 H487 H 0.64991 0.52272 0.39556
 H488 H 0.60862 0.47233 0.22392
 H489 H 0.65177 0.45932 0.31303
 H490 H 0.61604 0.53962 0.31190
 C491 C 0.82529 0.33728 0.34063
 C492 C 0.85898 0.34935 0.32272
 C493 C 0.87769 0.37516 0.25160
 C494 C 0.91232 0.38912 0.24762
 H495 H 0.87386 0.34138 0.36583
 H496 H 0.86385 0.38373 0.20659
 H497 H 0.80957 0.34376 0.29623
 H498 H 0.92531 0.38002 0.29417
   
