data_POSCAR
  _audit_creation_date              2014-09-24
  _audit_creation_method            'ToBaCCo'
  _symmetry_space_group_name_H-M    'P1'
  _symmetry_Int_Tables_number       1
  _symmetry_cell_setting            triclinic
  loop_
  _symmetry_equiv_pos_as_xyz
 x,y,z
_cell_length_a 41.9501
_cell_length_b 41.9230
_cell_length_c 41.9769
_cell_angle_alpha 89.963400
_cell_angle_beta 90.000900
_cell_angle_gamma 89.927000
loop_
  _atom_site_label
  _atom_site_type_symbol
  _atom_site_fract_x
  _atom_site_fract_y
  _atom_site_fract_z
O1 O 0.27653 1.03122 0.46930
 O2 O 0.27642 0.96914 0.53138
 O3 O 0.27641 0.96907 0.46931
 O4 O 0.27652 1.03131 0.53140
 O5 O 0.22382 1.03147 0.53140
 O6 O 0.22370 0.96923 0.46931
 O7 O 0.22370 0.96931 0.53139
 O8 O 0.22381 1.03138 0.46930
 Cu9 Cu 0.28178 1.00017 0.50035
 Cu10 Cu 0.21845 1.00037 0.50035
 C11 C 0.25019 1.04176 0.45881
 C12 C 0.25004 0.95874 0.54186
 C13 C 0.25003 0.95864 0.45882
 C14 C 0.25019 1.04190 0.54189
 O15 O 0.77583 -0.03150 0.46971
 O16 O 0.77596 0.03052 0.53170
 O17 O 0.77588 -0.03162 0.53176
 O18 O 0.77588 0.03061 0.46966
 O19 O 0.72316 0.03073 0.46972
 O20 O 0.72317 -0.03150 0.53182
 O21 O 0.72323 0.03064 0.53176
 O22 O 0.72310 -0.03138 0.46977
 Cu23 Cu 0.78121 -0.00051 0.50071
 Cu24 Cu 0.71785 -0.00037 0.50078
 C25 C 0.74944 -0.04189 0.45927
 C26 C 0.74962 0.04105 0.54218
 C27 C 0.74953 -0.04208 0.54228
 C28 C 0.74952 0.04118 0.45920
 O29 O 0.22356 0.46800 0.96934
 O30 O 0.22358 0.53008 1.03134
 O31 O 0.22359 0.53012 0.96930
 O32 O 0.22358 0.46794 1.03139
 O33 O 0.27629 0.46786 1.03139
 O34 O 0.27631 0.53004 0.96930
 O35 O 0.27630 0.53000 1.03134
 O36 O 0.27628 0.46792 0.96933
 Cu37 Cu 0.21826 0.49904 1.00035
 Cu38 Cu 0.28162 0.49894 1.00034
 C39 C 0.24992 0.45749 0.95886
 C40 C 0.24994 0.54052 1.04179
 C41 C 0.24995 0.54057 0.95883
 C42 C 0.24993 0.45740 1.04187
 O43 O 0.46966 0.27603 1.03142
 O44 O 0.53164 0.27616 0.96941
 O45 O 0.46955 0.27597 0.96936
 O46 O 0.53176 0.27619 1.03148
 O47 O 0.53197 0.22345 1.03155
 O48 O 0.46976 0.22322 0.96944
 O49 O 0.53186 0.22340 0.96948
 O50 O 0.46987 0.22328 1.03150
 Cu51 Cu 0.50063 0.28141 1.00041
 Cu52 Cu 0.50089 0.21802 1.00050
 C53 C 0.45931 0.24964 1.04192
 C54 C 0.54220 0.24980 0.95898
 C55 C 0.45915 0.24956 0.95891
 C56 C 0.54237 0.24986 1.04202
 O57 O 0.46956 0.77645 -0.03166
 O58 O 0.53154 0.77667 0.03038
 O59 O 0.53168 0.77664 -0.03170
 O60 O 0.46944 0.77648 0.03040
 O61 O 0.46967 0.72373 0.03045
 O62 O 0.53191 0.72390 -0.03164
 O63 O 0.53176 0.72391 0.03043
 O64 O 0.46979 0.72370 -0.03160
 Cu65 Cu 0.50054 0.78188 -0.00065
 Cu66 Cu 0.50081 0.71850 -0.00059
 C67 C 0.45921 0.75004 -0.04208
 C68 C 0.54209 0.75033 0.04088
 C69 C 0.54231 0.75030 -0.04216
 C70 C 0.45905 0.75008 0.04091
 O71 O 1.03142 0.46952 0.27601
 O72 O 0.96937 0.53163 0.27615
 O73 O 0.96933 0.46948 0.27609
 O74 O 1.03148 0.53166 0.27606
 O75 O 1.03141 0.53174 0.22339
 O76 O 0.96926 0.46957 0.22341
 O77 O 0.96930 0.53171 0.22347
 O78 O 1.03135 0.46960 0.22332
 Cu79 Cu 1.00041 0.50057 0.28139
 Cu80 Cu 1.00032 0.50067 0.21809
 C81 C 1.04185 0.45908 0.24964
 C82 C 0.95886 0.54214 0.24983
 C83 C 0.95880 0.45902 0.24976
 C84 C 1.04195 0.54220 0.24972
 O85 O -0.03156 0.46947 0.77642
 O86 O 0.03049 0.53143 0.77650
 O87 O -0.03163 0.53163 0.77646
 O88 O 0.03053 0.46929 0.77645
 O89 O 0.03056 0.46936 0.72377
 O90 O -0.03159 0.53170 0.72379
 O91 O 0.03052 0.53150 0.72381
 O92 O -0.03153 0.46954 0.72373
 Cu93 Cu -0.00055 0.50046 0.78177
 Cu94 Cu -0.00051 0.50054 0.71846
 C95 C -0.04199 0.45904 0.75006
 C96 C 0.04099 0.54190 0.75017
 C97 C -0.04211 0.54220 0.75012
 C98 C 0.04104 0.45880 0.75011
 O99 O 0.46811 0.96961 0.22361
 O100 O 0.53012 1.03168 0.22376
 O101 O 0.53017 0.96958 0.22369
 O102 O 0.46805 1.03173 0.22370
 O103 O 0.46799 1.03164 0.27638
 O104 O 0.53011 0.96949 0.27638
 O105 O 0.53006 1.03159 0.27645
 O106 O 0.46805 0.96952 0.27630
 Cu107 Cu 0.49911 1.00067 0.21837
 Cu108 Cu 0.49904 1.00055 0.28170
 C109 C 0.45763 0.95908 0.24993
 C110 C 0.54057 1.04210 0.25013
 C111 C 0.54062 0.95905 0.25004
 C112 C 0.45754 1.04219 0.25004
 O113 O 1.03107 0.27629 0.53086
 O114 O 0.96905 0.27636 0.46879
 O115 O 0.96900 0.27627 0.53081
 O116 O 1.03112 0.27641 0.46884
 O117 O 1.03122 0.22365 0.46879
 O118 O 0.96909 0.22352 0.53077
 O119 O 0.96915 0.22360 0.46875
 O120 O 1.03116 0.22353 0.53081
 Cu121 Cu 1.00005 0.28166 0.49983
 Cu122 Cu 1.00017 0.21825 0.49977
 C123 C 1.04158 0.24990 0.54131
 C124 C 0.95863 0.24999 0.45831
 C125 C 0.95856 0.24987 0.54124
 C126 C 1.04166 0.25005 0.45835
 O127 O -0.03096 0.72351 0.53109
 O128 O 0.03101 0.72341 0.46898
 O129 O 0.03110 0.72343 0.53102
 O130 O -0.03106 0.72352 0.46906
 O131 O -0.03104 0.77628 0.46903
 O132 O 0.03111 0.77618 0.53098
 O133 O 0.03102 0.77617 0.46895
 O134 O -0.03094 0.77627 0.53105
 Cu135 Cu 0.00002 0.71814 0.50004
 Cu136 Cu 0.00004 0.78155 0.50000
 C137 C -0.04140 0.74991 0.54156
 C138 C 0.04147 0.74977 0.45848
 C139 C 0.04158 0.74979 0.54146
 C140 C -0.04154 0.74991 0.45859
 O141 O 0.72397 0.46924 1.03109
 O142 O 0.72409 0.53127 0.96905
 O143 O 0.72404 0.46919 0.96910
 O144 O 0.72404 0.53133 1.03106
 O145 O 0.77676 0.53122 1.03111
 O146 O 0.77677 0.46908 0.96914
 O147 O 0.77682 0.53116 0.96910
 O148 O 0.77670 0.46912 1.03115
 Cu149 Cu 0.71870 0.50027 1.00007
 Cu150 Cu 0.78209 0.50014 1.00014
 C151 C 0.75031 0.45870 1.04158
 C152 C 0.75047 0.54167 0.95860
 C153 C 0.75040 0.45866 0.95866
 C154 C 0.75040 0.54176 1.04154
 O155 O 0.46842 1.03155 0.72349
 O156 O 0.53051 0.96941 0.72358
 O157 O 0.46846 0.96944 0.72357
 O158 O 0.53050 1.03150 0.72351
 O159 O 0.53049 1.03152 0.77620
 O160 O 0.46845 0.96947 0.77626
 O161 O 0.53050 0.96944 0.77627
 O162 O 0.46841 1.03158 0.77617
 Cu163 Cu 0.49947 1.00048 0.71821
 Cu164 Cu 0.49945 1.00051 0.78155
 C165 C 0.45793 1.04205 0.74981
 C166 C 0.54098 0.95894 0.74994
 C167 C 0.45800 0.95896 0.74993
 C168 C 0.54098 1.04196 0.74985
 C169 C 0.25029 0.22638 0.27357
 C170 C 0.22656 0.25020 0.27352
 C171 C 0.22656 0.27391 0.24970
 C172 C 0.25031 0.27385 0.22596
 C173 C 0.27407 0.25008 0.22607
 C174 C 0.27406 0.22633 0.24985
 C175 C 0.74967 0.77413 0.27386
 C176 C 0.77349 0.75041 0.27384
 C177 C 0.77359 0.72674 0.25004
 C178 C 0.74989 0.72677 0.22626
 C179 C 0.72608 0.75050 0.22629
 C180 C 0.72596 0.77419 0.25008
 C181 C 0.75010 0.22630 0.72632
 C182 C 0.72638 0.22629 0.75009
 C183 C 0.72642 0.25005 0.77381
 C184 C 0.75016 0.27379 0.77379
 C185 C 0.77386 0.27378 0.75000
 C186 C 0.77383 0.25004 0.72625
 C187 C 0.25000 0.77350 0.72647
 C188 C 0.22628 0.74973 0.72649
 C189 C 0.22632 0.72596 0.75024
 C190 C 0.25009 0.72591 0.77396
 C191 C 0.27381 0.74967 0.77391
 C192 C 0.27377 0.77347 0.75019
 C193 C 0.22644 0.24944 0.72608
 C194 C 0.22636 0.27318 0.74987
 C195 C 0.25013 0.27310 0.77363
 C196 C 0.27396 0.24934 0.77361
 C197 C 0.27399 0.22563 0.74980
 C198 C 0.25024 0.22565 0.72602
 C199 C 0.77378 0.75030 0.72636
 C200 C 0.74996 0.77406 0.72630
 C201 C 0.72621 0.77407 0.75009
 C202 C 0.72625 0.75033 0.77390
 C203 C 0.75006 0.72655 0.77386
 C204 C 0.77385 0.72651 0.75012
 C205 C 0.22604 0.74975 0.27343
 C206 C 0.24977 0.77355 0.27345
 C207 C 0.27351 0.77356 0.24966
 C208 C 0.27358 0.74978 0.22591
 C209 C 0.24984 0.72599 0.22595
 C210 C 0.22605 0.72596 0.24969
 C211 C 0.77351 0.25002 0.27380
 C212 C 0.74970 0.22630 0.27386
 C213 C 0.72596 0.22634 0.25008
 C214 C 0.72600 0.25005 0.22625
 C215 C 0.74982 0.27375 0.22625
 C216 C 0.77358 0.27377 0.25000
 C217 C 0.25023 0.06586 0.43459
 C218 C 0.25025 0.08611 0.41420
 C219 C 0.25025 0.11028 0.38986
 C220 C 0.22155 0.12457 0.38043
 C221 C 0.22154 0.14807 0.35678
 C222 C 0.25025 0.15739 0.34252
 C223 C 0.27895 0.14309 0.35191
 C224 C 0.27895 0.11956 0.37554
 C225 C 0.25025 0.18162 0.31829
 C226 C 0.25026 0.20194 0.29799
 H227 H 0.19922 0.11754 0.39134
 H228 H 0.19922 0.15893 0.34962
 H229 H 0.30127 0.15015 0.34102
 H230 H 0.30127 0.10865 0.38265
 C231 C 0.74940 0.93401 0.43510
 C232 C 0.74939 0.91378 0.41474
 C233 C 0.74940 0.88965 0.39044
 C234 C 0.72124 0.88255 0.37397
 C235 C 0.72126 0.85910 0.35031
 C236 C 0.74945 0.84272 0.34303
 C237 C 0.77761 0.84982 0.35947
 C238 C 0.77758 0.87324 0.38315
 C239 C 0.74949 0.81864 0.31872
 C240 C 0.74955 0.79844 0.29834
 H241 H 0.69932 0.89511 0.37943
 H242 H 0.69936 0.85374 0.33774
 H243 H 0.79954 0.83729 0.35397
 H244 H 0.79948 0.87857 0.39575
 C245 C 0.74968 0.06524 0.56626
 C246 C 0.74973 0.08559 0.58649
 C247 C 0.74981 0.10990 0.61063
 C248 C 0.73058 0.10660 0.63771
 C249 C 0.73066 0.13024 0.66118
 C250 C 0.74996 0.15724 0.65762
 C251 C 0.76919 0.16056 0.63054
 C252 C 0.76912 0.13691 0.60708
 C253 C 0.75003 0.18152 0.68173
 C254 C 0.75007 0.20186 0.70196
 H255 H 0.71556 0.08580 0.64067
 H256 H 0.71573 0.12746 0.68206
 H257 H 0.78417 0.18138 0.62758
 H258 H 0.78408 0.13968 0.58622
 C259 C 0.25000 0.93455 0.56600
 C260 C 0.24997 0.91421 0.58629
 C261 C 0.24996 0.88991 0.61050
 C262 C 0.22215 0.87249 0.61668
 C263 C 0.22214 0.84888 0.64022
 C264 C 0.24994 0.84258 0.65762
 C265 C 0.27775 0.85998 0.65143
 C266 C 0.27776 0.88362 0.62792
 C267 C 0.24994 0.81830 0.68180
 C268 C 0.24996 0.79796 0.70207
 H269 H 0.20053 0.87717 0.60335
 H270 H 0.20051 0.83557 0.64486
 H271 H 0.29938 0.85526 0.66474
 H272 H 0.29938 0.89695 0.62332
 C273 C 0.43518 0.24961 0.06606
 C274 C 0.41487 0.24963 0.08634
 C275 C 0.39062 0.24971 0.11052
 C276 C 0.38114 0.22102 0.12477
 C277 C 0.35749 0.22111 0.14823
 C278 C 0.34328 0.24989 0.15752
 C279 C 0.35279 0.27858 0.14332
 C280 C 0.37641 0.27849 0.11983
 C281 C 0.31895 0.24998 0.18158
 C282 C 0.29856 0.25004 0.20176
 H283 H 0.39200 0.19864 0.11774
 H284 H 0.35028 0.19880 0.15909
 H285 H 0.34197 0.30096 0.15040
 H286 H 0.38358 0.30080 0.10896
 C287 C 0.43503 0.74995 0.93383
 C288 C 0.41467 0.74989 0.91359
 C289 C 0.39036 0.74981 0.88947
 C290 C 0.38390 0.77765 0.87213
 C291 C 0.36022 0.77759 0.84871
 C292 C 0.34295 0.74970 0.84254
 C293 C 0.34941 0.72186 0.85985
 C294 C 0.37308 0.72192 0.88330
 C295 C 0.31864 0.74965 0.81846
 C296 C 0.29828 0.74964 0.79825
 H297 H 0.39713 0.79934 0.87674
 H298 H 0.35535 0.79925 0.83546
 H299 H 0.33620 0.70016 0.85521
 H300 H 0.37790 0.70027 0.89658
 C301 C 0.56616 0.75041 0.06508
 C302 C 0.58639 0.75045 0.08545
 C303 C 0.61050 0.75049 0.10977
 C304 C 0.62702 0.72234 0.11701
 C305 C 0.65045 0.72237 0.14069
 C306 C 0.65743 0.75054 0.15717
 C307 C 0.64093 0.77870 0.14993
 C308 C 0.61748 0.77867 0.12627
 C309 C 0.68153 0.75057 0.18147
 C310 C 0.70174 0.75055 0.20183
 H311 H 0.62179 0.70043 0.10438
 H312 H 0.66307 0.70047 0.14616
 H313 H 0.64621 0.80061 0.16254
 H314 H 0.60483 0.80055 0.12085
 C315 C 0.56629 0.24986 0.93480
 C316 C 0.58652 0.24991 0.91445
 C317 C 0.61065 0.24997 0.89014
 C318 C 0.60795 0.22955 0.86388
 C319 C 0.63140 0.22962 0.84023
 C320 C 0.65764 0.25009 0.84279
 C321 C 0.66033 0.27054 0.86902
 C322 C 0.63687 0.27048 0.89267
 C323 C 0.68179 0.25008 0.81855
 C324 C 0.70205 0.25006 0.79823
 H325 H 0.58775 0.21362 0.86169
 H326 H 0.62909 0.21378 0.81998
 H327 H 0.68051 0.28649 0.87117
 H328 H 0.63916 0.28638 0.91288
 C329 C 0.06599 0.43489 0.24959
 C330 C 0.08629 0.41454 0.24956
 C331 C 0.11049 0.39025 0.24954
 C332 C 0.10258 0.35871 0.25719
 C333 C 0.12613 0.33509 0.25718
 C334 C 0.15766 0.34295 0.24956
 C335 C 0.16558 0.37449 0.24191
 C336 C 0.14203 0.39810 0.24189
 C337 C 0.18186 0.31869 0.24959
 C338 C 0.20215 0.29836 0.24964
 H339 H 0.07826 0.35240 0.26314
 H340 H 0.11977 0.31075 0.26308
 H341 H 0.18992 0.38080 0.23602
 H342 H 0.14839 0.42243 0.23594
 C343 C 0.93393 0.43484 0.75003
 C344 C 0.91372 0.41447 0.75002
 C345 C 0.88961 0.39014 0.75002
 C346 C 0.86355 0.39246 0.77076
 C347 C 0.84011 0.36879 0.77077
 C348 C 0.84266 0.34275 0.75003
 C349 C 0.86874 0.34040 0.72933
 C350 C 0.89218 0.36407 0.72931
 C351 C 0.81853 0.31849 0.74999
 C352 C 0.79827 0.29818 0.74998
 H353 H 0.86136 0.41251 0.78688
 H354 H 0.82005 0.37077 0.78691
 H355 H 0.87096 0.32030 0.71327
 H356 H 0.91226 0.36205 0.71321
 C357 C 0.06520 0.56596 0.75020
 C358 C 0.08558 0.58617 0.75022
 C359 C 0.10991 0.61028 0.75024
 C360 C 0.12712 0.61660 0.77813
 C361 C 0.15077 0.64006 0.77815
 C362 C 0.15729 0.65723 0.75027
 C363 C 0.14011 0.65090 0.72237
 C364 C 0.11644 0.62746 0.72236
 C365 C 0.18157 0.68135 0.75028
 C366 C 0.20190 0.70159 0.75028
 H367 H 0.12224 0.60344 0.79980
 H368 H 0.16392 0.64483 0.79984
 H369 H 0.14502 0.66404 0.70069
 H370 H 0.10326 0.62274 0.70068
 C371 C 0.93468 0.56629 0.24988
 C372 C 0.91433 0.58658 0.24991
 C373 C 0.89004 0.61079 0.24994
 C374 C 0.88275 0.62714 0.27811
 C375 C 0.85911 0.65066 0.27814
 C376 C 0.84271 0.65792 0.24998
 C377 C 0.85000 0.64159 0.22180
 C378 C 0.87363 0.61805 0.22178
 C379 C 0.81843 0.68209 0.24999
 C380 C 0.79808 0.70236 0.25000
 H381 H 0.89531 0.62169 0.30001
 H382 H 0.85359 0.66315 0.30005
 H383 H 0.83746 0.64707 0.19990
 H384 H 0.87910 0.60554 0.19987
 C385 C 0.06573 0.24987 0.56546
 C386 C 0.08604 0.24982 0.58576
 C387 C 0.11030 0.24976 0.60998
 C388 C 0.12727 0.22173 0.61663
 C389 C 0.15083 0.22165 0.64019
 C390 C 0.15752 0.24962 0.65715
 C391 C 0.14058 0.27766 0.65050
 C392 C 0.11699 0.27772 0.62696
 C393 C 0.18173 0.24954 0.68136
 C394 C 0.20203 0.24948 0.70167
 H395 H 0.12227 0.19997 0.60364
 H396 H 0.16378 0.19984 0.64520
 H397 H 0.14561 0.29941 0.66347
 H398 H 0.10401 0.29953 0.62200
 C399 C 0.93449 0.74994 0.56575
 C400 C 0.91423 0.74999 0.58610
 C401 C 0.89003 0.75007 0.61037
 C402 C 0.88081 0.72141 0.62487
 C403 C 0.85724 0.72148 0.64842
 C404 C 0.84284 0.75022 0.65757
 C405 C 0.85209 0.77888 0.64313
 C406 C 0.87563 0.77880 0.61955
 C407 C 0.81857 0.75028 0.68173
 C408 C 0.79823 0.75031 0.70198
 H409 H 0.89180 0.69907 0.61795
 H410 H 0.85024 0.69919 0.65945
 H411 H 0.84114 0.80123 0.65011
 H412 H 0.88260 0.80109 0.60851
 C413 C 0.06558 0.74973 0.43429
 C414 C 0.08585 0.74972 0.41395
 C415 C 0.11005 0.74972 0.38967
 C416 C 0.10489 0.73354 0.36093
 C417 C 0.12841 0.73355 0.33733
 C418 C 0.15717 0.74972 0.34241
 C419 C 0.16234 0.76588 0.37114
 C420 C 0.13881 0.76589 0.39473
 C421 C 0.18135 0.74972 0.31816
 C422 C 0.20164 0.74973 0.29785
 H423 H 0.08273 0.72096 0.35679
 H424 H 0.12418 0.72101 0.31517
 H425 H 0.18452 0.77842 0.37529
 H426 H 0.14303 0.77847 0.41687
 C427 C 0.93445 0.25001 0.43418
 C428 C 0.91411 0.25001 0.41390
 C429 C 0.88983 0.25000 0.38972
 C430 C 0.88351 0.27783 0.37231
 C431 C 0.85988 0.27783 0.34882
 C432 C 0.84251 0.24999 0.34264
 C433 C 0.84883 0.22216 0.36003
 C434 C 0.87244 0.22217 0.38354
 C435 C 0.81825 0.24998 0.31847
 C436 C 0.79793 0.24999 0.29820
 H437 H 0.89681 0.29948 0.37691
 H438 H 0.85514 0.29948 0.33551
 H439 H 0.83555 0.20050 0.35539
 H440 H 0.87714 0.20053 0.39687
 C441 C 0.24992 0.43337 0.93468
 C442 C 0.24992 0.41310 0.91434
 C443 C 0.24994 0.38892 0.89005
 C444 C 0.22197 0.38231 0.87306
 C445 C 0.22199 0.35880 0.84944
 C446 C 0.24999 0.34185 0.84272
 C447 C 0.27797 0.34847 0.85968
 C448 C 0.27794 0.37195 0.88332
 C449 C 0.25003 0.31771 0.81844
 C450 C 0.25007 0.29746 0.79809
 H451 H 0.20019 0.39529 0.87807
 H452 H 0.20023 0.35383 0.83647
 H453 H 0.29975 0.33551 0.85462
 H454 H 0.29969 0.37688 0.89632
 C455 C 0.75026 0.43453 0.06570
 C456 C 0.75020 0.41419 0.08598
 C457 C 0.75014 0.38991 0.11017
 C458 C 0.72230 0.37254 0.11632
 C459 C 0.72223 0.34895 0.13987
 C460 C 0.75000 0.34264 0.15730
 C461 C 0.77785 0.35998 0.15113
 C462 C 0.77791 0.38360 0.12761
 C463 C 0.74993 0.31843 0.18150
 C464 C 0.74987 0.29814 0.20181
 H465 H 0.70070 0.37725 0.10296
 H466 H 0.70057 0.33568 0.14451
 H467 H 0.79946 0.35524 0.16447
 H468 H 0.79956 0.39690 0.12302
 C469 C 0.75050 0.56579 0.93442
 C470 C 0.75047 0.58607 0.91409
 C471 C 0.75040 0.61028 0.88983
 C472 C 0.72167 0.62463 0.88060
 C473 C 0.72158 0.64818 0.85702
 C474 C 0.75023 0.65749 0.84264
 C475 C 0.77896 0.64314 0.85185
 C476 C 0.77904 0.61955 0.87540
 C477 C 0.75014 0.68176 0.81849
 C478 C 0.75009 0.70210 0.79824
 H479 H 0.69939 0.61761 0.89161
 H480 H 0.69923 0.65910 0.85000
 H481 H 0.80123 0.65019 0.84086
 H482 H 0.80138 0.60859 0.88237
 C483 C 0.24995 0.56474 0.06588
 C484 C 0.24995 0.58512 0.08611
 C485 C 0.24995 0.60945 0.11025
 C486 C 0.23370 0.60448 0.13899
 C487 C 0.23371 0.62813 0.16245
 C488 C 0.24994 0.65685 0.15724
 C489 C 0.26618 0.66184 0.12851
 C490 C 0.26620 0.63817 0.10506
 C491 C 0.24992 0.68117 0.18136
 C492 C 0.24990 0.70153 0.20159
 H493 H 0.22107 0.58235 0.14324
 H494 H 0.22111 0.62404 0.18461
 H495 H 0.27876 0.68399 0.12426
 H496 H 0.27883 0.64226 0.08292
 C497 C 0.43504 0.06493 0.74978
 C498 C 0.41469 0.08525 0.74976
 C499 C 0.39040 0.10949 0.74975
 C500 C 0.38378 0.12655 0.77767
 C501 C 0.36014 0.15010 0.77767
 C502 C 0.34308 0.15669 0.74974
 C503 C 0.34971 0.13966 0.72181
 C504 C 0.37332 0.11608 0.72182
 C505 C 0.31881 0.18091 0.74974
 C506 C 0.29846 0.20121 0.74976
 H507 H 0.39684 0.12164 0.79940
 H508 H 0.35516 0.16313 0.79940
 H509 H 0.33666 0.14461 0.70008
 H510 H 0.37826 0.10303 0.70010
 C511 C 0.43353 0.93487 0.24988
 C512 C 0.41330 0.91449 0.24982
 C513 C 0.38916 0.89015 0.24976
 C514 C 0.36036 0.89513 0.26593
 C515 C 0.33690 0.87147 0.26587
 C516 C 0.34218 0.84274 0.24967
 C517 C 0.37098 0.83774 0.23352
 C518 C 0.39442 0.86142 0.23355
 C519 C 0.31808 0.81841 0.24964
 C520 C 0.29786 0.79804 0.24964
 H521 H 0.35606 0.91726 0.27854
 H522 H 0.31470 0.87556 0.27840
 H523 H 0.37529 0.81558 0.22096
 H524 H 0.41661 0.85733 0.22098
 C525 C 0.56476 0.06621 0.25018
 C526 C 0.58511 0.08647 0.25020
 C527 C 0.60942 0.11063 0.25020
 C528 C 0.62672 0.11693 0.27805
 C529 C 0.65036 0.14040 0.27805
 C530 C 0.65681 0.15764 0.25019
 C531 C 0.63953 0.15135 0.22234
 C532 C 0.61587 0.12789 0.22235
 C533 C 0.68111 0.18176 0.25017
 C534 C 0.70148 0.20199 0.25014
 H535 H 0.62192 0.10371 0.29971
 H536 H 0.66357 0.14513 0.29971
 H537 H 0.64437 0.16453 0.20066
 H538 H 0.60264 0.12320 0.20069
 C539 C 0.56516 0.93476 0.74997
 C540 C 0.58551 0.91444 0.74999
 C541 C 0.60980 0.89021 0.75001
 C542 C 0.60199 0.85864 0.75771
 C543 C 0.62561 0.83508 0.75770
 C544 C 0.65712 0.84300 0.75003
 C545 C 0.66494 0.87456 0.74236
 C546 C 0.64132 0.89812 0.74233
 C547 C 0.68139 0.81878 0.75003
 C548 C 0.70174 0.79849 0.75005
 H549 H 0.57769 0.85227 0.76368
 H550 H 0.61931 0.81073 0.76362
 H551 H 0.68925 0.88093 0.73643
 H552 H 0.64761 0.92245 0.73634
 C553 C 0.74953 0.93498 0.56516
 C554 C 0.74955 0.91461 0.58548
 C555 C 0.74958 0.89030 0.60976
 C556 C 0.77026 0.86413 0.60733
 C557 C 0.77030 0.84053 0.63091
 C558 C 0.74967 0.84300 0.65706
 C559 C 0.72896 0.86913 0.65947
 C560 C 0.72891 0.89273 0.63588
 C561 C 0.74978 0.81877 0.68138
 C562 C 0.74986 0.79848 0.70177
 H563 H 0.78632 0.86198 0.58723
 H564 H 0.78635 0.82038 0.62876
 H565 H 0.71287 0.87125 0.67955
 H566 H 0.71280 0.91283 0.63801
 C567 C 0.24993 0.43450 0.06475
 C568 C 0.24995 0.41416 0.08508
 C569 C 0.24998 0.38989 0.10937
 C570 C 0.27100 0.36397 0.10719
 C571 C 0.27104 0.34040 0.13079
 C572 C 0.25009 0.34267 0.15669
 C573 C 0.22904 0.36855 0.15885
 C574 C 0.22899 0.39212 0.13524
 C575 C 0.25019 0.31848 0.18101
 C576 C 0.25026 0.29823 0.20141
 H577 H 0.28731 0.36199 0.08728
 H578 H 0.28735 0.32044 0.12885
 H579 H 0.21270 0.37050 0.17875
 H580 H 0.21262 0.41204 0.13716
 C581 C 0.25023 0.06481 0.56480
 C582 C 0.25026 0.08515 0.58515
 C583 C 0.25029 0.10943 0.60947
 C584 C 0.26691 0.10448 0.63802
 C585 C 0.26691 0.12803 0.66164
 C586 C 0.25031 0.15666 0.65683
 C587 C 0.23370 0.16163 0.62828
 C588 C 0.23368 0.13807 0.60466
 C589 C 0.25030 0.18090 0.68114
 C590 C 0.25028 0.20120 0.70151
 H591 H 0.27983 0.08245 0.64202
 H592 H 0.27979 0.12391 0.68363
 H593 H 0.22081 0.18368 0.62427
 H594 H 0.22074 0.14218 0.58270
 C595 C 0.24998 0.93442 0.43461
 C596 C 0.24994 0.91409 0.41426
 C597 C 0.24990 0.88981 0.38994
 C598 C 0.27772 0.88341 0.37257
 C599 C 0.27768 0.85984 0.34897
 C600 C 0.24981 0.84258 0.34259
 C601 C 0.22199 0.84898 0.35994
 C602 C 0.22204 0.87252 0.38357
 C603 C 0.24978 0.81833 0.31829
 C604 C 0.24976 0.79802 0.29794
 H605 H 0.29940 0.89661 0.37727
 H606 H 0.29933 0.85507 0.33573
 H607 H 0.20030 0.83581 0.35520
 H608 H 0.20039 0.87725 0.39683
 C609 C 0.74952 0.06540 0.43500
 C610 C 0.74952 0.08575 0.41466
 C611 C 0.74954 0.11003 0.39035
 C612 C 0.76580 0.13878 0.39536
 C613 C 0.76581 0.16237 0.37176
 C614 C 0.74958 0.15730 0.34303
 C615 C 0.73333 0.12856 0.33801
 C616 C 0.73330 0.10499 0.36162
 C617 C 0.74961 0.18156 0.31873
 C618 C 0.74965 0.20187 0.29837
 H619 H 0.77844 0.14296 0.41747
 H620 H 0.77843 0.18452 0.37591
 H621 H 0.72074 0.12438 0.31587
 H622 H 0.72065 0.08286 0.35748
 C623 C 0.56525 0.75036 0.93497
 C624 C 0.58563 0.75042 0.91466
 C625 C 0.60997 0.75047 0.89040
 C626 C 0.60756 0.77120 0.86429
 C627 C 0.63116 0.77121 0.84072
 C628 C 0.65729 0.75049 0.84312
 C629 C 0.65974 0.72980 0.86925
 C630 C 0.63613 0.72977 0.89281
 C631 C 0.68153 0.75043 0.81880
 C632 C 0.70182 0.75038 0.79843
 H633 H 0.58746 0.78732 0.86216
 H634 H 0.62904 0.78736 0.82067
 H635 H 0.67987 0.71373 0.87140
 H636 H 0.63828 0.71365 0.91288
 C637 C 0.06586 0.25011 0.43424
 C638 C 0.08620 0.25017 0.41396
 C639 C 0.11048 0.25027 0.38976
 C640 C 0.10791 0.27089 0.36360
 C641 C 0.13150 0.27095 0.34005
 C642 C 0.15772 0.25039 0.34258
 C643 C 0.16034 0.22981 0.36876
 C644 C 0.13675 0.22974 0.39231
 C645 C 0.18190 0.25036 0.31831
 C646 C 0.20216 0.25030 0.29797
 H647 H 0.08772 0.28688 0.36141
 H648 H 0.12929 0.28699 0.31992
 H649 H 0.18057 0.21388 0.37097
 H650 H 0.13898 0.21372 0.41245
 C651 C 0.56526 0.24993 0.06494
 C652 C 0.58558 0.24998 0.08531
 C653 C 0.60982 0.25002 0.10966
 C654 C 0.60464 0.23401 0.13852
 C655 C 0.62817 0.23404 0.16216
 C656 C 0.65702 0.25007 0.15705
 C657 C 0.66222 0.26608 0.12820
 C658 C 0.63868 0.26606 0.10457
 C659 C 0.68126 0.25007 0.18137
 C660 C 0.70155 0.25006 0.20174
 H661 H 0.58244 0.22152 0.14274
 H662 H 0.62387 0.22162 0.18438
 H663 H 0.68445 0.27851 0.12397
 H664 H 0.64297 0.27853 0.08236
 C665 C 0.43493 0.24947 0.93470
 C666 C 0.41458 0.24941 0.91436
 C667 C 0.39029 0.24936 0.89005
 C668 C 0.36159 0.26582 0.89493
 C669 C 0.33801 0.26577 0.87135
 C670 C 0.34302 0.24929 0.84274
 C671 C 0.37170 0.23284 0.83784
 C672 C 0.39527 0.23287 0.86144
 C673 C 0.31876 0.24928 0.81844
 C674 C 0.29844 0.24929 0.79810
 H675 H 0.35746 0.27865 0.91695
 H676 H 0.31592 0.27853 0.87541
 H677 H 0.37585 0.22006 0.81580
 H678 H 0.41735 0.22006 0.85738
 C679 C 0.43481 0.75000 0.06510
 C680 C 0.41444 0.74996 0.08542
 C681 C 0.39010 0.74993 0.10968
 C682 C 0.37279 0.72206 0.11601
 C683 C 0.34918 0.72202 0.13957
 C684 C 0.34273 0.74985 0.15690
 C685 C 0.36003 0.77772 0.15056
 C686 C 0.38366 0.77776 0.12703
 C687 C 0.31843 0.74981 0.18114
 C688 C 0.29807 0.74979 0.20145
 H689 H 0.37754 0.70040 0.10277
 H690 H 0.33599 0.70032 0.14428
 H691 H 0.35523 0.79939 0.16378
 H692 H 0.39688 0.79945 0.12236
 C693 C 0.93498 0.56517 0.75012
 C694 C 0.91465 0.58558 0.75013
 C695 C 0.89035 0.60994 0.75016
 C696 C 0.86326 0.60660 0.76943
 C697 C 0.83966 0.63022 0.76943
 C698 C 0.84302 0.65733 0.75018
 C699 C 0.87010 0.66070 0.73092
 C700 C 0.89370 0.63706 0.73090
 C701 C 0.81872 0.68165 0.75016
 C702 C 0.79836 0.70201 0.75014
 H703 H 0.86039 0.58575 0.78442
 H704 H 0.81881 0.62735 0.78439
 H705 H 0.87297 0.68157 0.71595
 H706 H 0.91452 0.63992 0.71590
 C707 C 0.43467 0.06510 0.25004
 C708 C 0.41437 0.08547 0.25003
 C709 C 0.39015 0.10980 0.25002
 C710 C 0.36313 0.10653 0.26938
 C711 C 0.33958 0.13017 0.26935
 C712 C 0.34298 0.15718 0.24998
 C713 C 0.36999 0.16047 0.23064
 C714 C 0.39353 0.13682 0.23065
 C715 C 0.31878 0.18148 0.24995
 C716 C 0.29849 0.20184 0.24990
 H717 H 0.36028 0.08573 0.28445
 H718 H 0.31877 0.12740 0.28438
 H719 H 0.37284 0.18129 0.21560
 H720 H 0.41432 0.13959 0.21559
 C721 C 0.06488 0.56509 0.24971
 C722 C 0.08525 0.58541 0.24970
 C723 C 0.10959 0.60966 0.24970
 C724 C 0.12689 0.61608 0.22186
 C725 C 0.15050 0.63964 0.22186
 C726 C 0.15695 0.65689 0.24970
 C727 C 0.13968 0.65047 0.27755
 C728 C 0.11605 0.62693 0.27755
 C729 C 0.18125 0.68114 0.24969
 C730 C 0.20158 0.70147 0.24969
 H731 H 0.12212 0.60290 0.20019
 H732 H 0.16367 0.64442 0.20018
 H733 H 0.14449 0.66363 0.29923
 H734 H 0.10285 0.62219 0.29922
 C735 C 0.93460 0.43479 0.24976
 C736 C 0.91427 0.41444 0.24979
 C737 C 0.88999 0.39013 0.24983
 C738 C 0.89516 0.36124 0.26586
 C739 C 0.87158 0.33764 0.26588
 C740 C 0.84270 0.34282 0.24990
 C741 C 0.83752 0.37171 0.23389
 C742 C 0.86110 0.39529 0.23383
 C743 C 0.81843 0.31855 0.24994
 C744 C 0.79809 0.29823 0.24997
 H745 H 0.91738 0.35696 0.27830
 H746 H 0.87587 0.31539 0.27832
 H747 H 0.81527 0.37599 0.22148
 H748 H 0.85682 0.41752 0.22136
 C749 C 0.06524 0.43451 0.75010
 C750 C 0.08557 0.41410 0.75008
 C751 C 0.10986 0.38974 0.75007
 C752 C 0.13844 0.39451 0.76671
 C753 C 0.16204 0.37088 0.76666
 C754 C 0.15718 0.34234 0.75000
 C755 C 0.12861 0.33755 0.73338
 C756 C 0.10502 0.36119 0.73340
 C757 C 0.18148 0.31803 0.74994
 C758 C 0.20184 0.29767 0.74991
 H759 H 0.14247 0.41648 0.77968
 H760 H 0.18404 0.37487 0.77956
 H761 H 0.12458 0.31556 0.72044
 H762 H 0.08304 0.35721 0.72046
 C763 C 0.93427 0.74996 0.43447
 C764 C 0.91394 0.75000 0.41418
 C765 C 0.88967 0.75008 0.38996
 C766 C 0.86129 0.76709 0.39471
 C767 C 0.83771 0.76716 0.37117
 C768 C 0.84243 0.75024 0.34279
 C769 C 0.87081 0.73324 0.33802
 C770 C 0.89438 0.73315 0.36157
 C771 C 0.81820 0.75032 0.31858
 C772 C 0.79790 0.75037 0.29828
 H773 H 0.85741 0.78026 0.41658
 H774 H 0.81583 0.78034 0.37509
 H775 H 0.87470 0.72012 0.31613
 H776 H 0.91624 0.71993 0.35766
 C777 C 0.93435 0.24984 0.56536
 C778 C 0.91401 0.24984 0.58563
 C779 C 0.88973 0.24989 0.60984
 C780 C 0.87538 0.22121 0.61919
 C781 C 0.85184 0.22125 0.64278
 C782 C 0.84256 0.24999 0.65708
 C783 C 0.85686 0.27867 0.64770
 C784 C 0.88042 0.27862 0.62414
 C785 C 0.81841 0.25003 0.68138
 C786 C 0.79819 0.25005 0.70176
 H787 H 0.88240 0.19886 0.60829
 H788 H 0.84092 0.19894 0.64988
 H789 H 0.84979 0.30102 0.65857
 H790 H 0.89136 0.30093 0.61708
 C791 C 0.06574 0.74976 0.56562
 C792 C 0.08604 0.74975 0.58594
 C793 C 0.11025 0.74974 0.61022
 C794 C 0.10505 0.73366 0.63903
 C795 C 0.12857 0.73367 0.66263
 C796 C 0.15738 0.74974 0.65750
 C797 C 0.16259 0.76581 0.62869
 C798 C 0.13906 0.76582 0.60510
 C799 C 0.18157 0.74974 0.68175
 C800 C 0.20185 0.74974 0.70206
 H801 H 0.08286 0.72115 0.64323
 H802 H 0.12430 0.72121 0.68484
 H803 H 0.18481 0.77827 0.62449
 H804 H 0.14332 0.77832 0.58291
 C805 C 0.75039 0.56596 0.06566
 C806 C 0.75037 0.58631 0.08593
 C807 C 0.75033 0.61060 0.11013
 C808 C 0.76737 0.60594 0.13847
 C809 C 0.76728 0.62952 0.16201
 C810 C 0.75018 0.65786 0.15728
 C811 C 0.73317 0.66254 0.12894
 C812 C 0.73323 0.63894 0.10541
 C813 C 0.75008 0.68209 0.18149
 C814 C 0.74999 0.70238 0.20180
 H815 H 0.78067 0.58411 0.14236
 H816 H 0.78049 0.62567 0.18386
 H817 H 0.71990 0.68439 0.12505
 H818 H 0.71997 0.64279 0.08358
 C819 C 0.24996 0.56479 0.93466
 C820 C 0.24998 0.58515 0.91435
 C821 C 0.25003 0.60946 0.89011
 C822 C 0.26639 0.63813 0.89515
 C823 C 0.26642 0.66176 0.87160
 C824 C 0.25010 0.65679 0.84291
 C825 C 0.23375 0.62812 0.83785
 C826 C 0.23370 0.60450 0.86141
 C827 C 0.25012 0.68108 0.81870
 C828 C 0.25012 0.70143 0.79840
 H829 H 0.27909 0.64222 0.91724
 H830 H 0.27910 0.68386 0.87576
 H831 H 0.22108 0.62402 0.81574
 H832 H 0.22097 0.58242 0.85726
 C833 C 0.75040 0.43448 0.93452
 C834 C 0.75039 0.41416 0.91422
 C835 C 0.75037 0.38993 0.88998
 C836 C 0.75766 0.39790 0.85839
 C837 C 0.75760 0.37435 0.83481
 C838 C 0.75029 0.34273 0.84275
 C839 C 0.74303 0.33474 0.87433
 C840 C 0.74305 0.35830 0.89790
 C841 C 0.75023 0.31852 0.81852
 C842 C 0.75019 0.29823 0.79821
 H843 H 0.76335 0.42229 0.85200
 H844 H 0.76320 0.38078 0.81045
 H845 H 0.73738 0.31035 0.88072
 H846 H 0.73738 0.35188 0.92226
 C847 C 0.56482 0.93487 0.25004
 C848 C 0.58517 0.91455 0.25005
 C849 C 0.60947 0.89031 0.25008
 C850 C 0.63762 0.89484 0.26746
 C851 C 0.66126 0.87128 0.26746
 C852 C 0.65681 0.84310 0.25011
 C853 C 0.62866 0.83855 0.23275
 C854 C 0.60504 0.86212 0.23272
 C855 C 0.68110 0.81889 0.25011
 C856 C 0.70147 0.79860 0.25010
 H857 H 0.64129 0.91654 0.28096
 H858 H 0.68296 0.87503 0.28093
 H859 H 0.62498 0.81682 0.21928
 H860 H 0.58336 0.85838 0.21920
 C861 C 0.56522 0.06605 0.74983
 C862 C 0.58561 0.08627 0.74985
 C863 C 0.60997 0.11039 0.74991
 C864 C 0.62438 0.11971 0.72126
 C865 C 0.64803 0.14318 0.72132
 C866 C 0.65738 0.15740 0.75003
 C867 C 0.64302 0.14805 0.77868
 C868 C 0.61934 0.12461 0.77861
 C869 C 0.68164 0.18159 0.75008
 C870 C 0.70195 0.20188 0.75011
 H871 H 0.61732 0.10886 0.69894
 H872 H 0.65899 0.15026 0.69904
 H873 H 0.65014 0.15886 0.80101
 H874 H 0.60837 0.11757 0.80090
 C875 C 0.43390 0.93475 0.74995
 C876 C 0.41366 0.91437 0.74999
 C877 C 0.38951 0.89003 0.75004
 C878 C 0.39492 0.86111 0.76592
 C879 C 0.37146 0.83744 0.76595
 C880 C 0.34251 0.84262 0.75012
 C881 C 0.33709 0.87153 0.73426
 C882 C 0.36056 0.89519 0.73420
 C883 C 0.31838 0.81831 0.75017
 C884 C 0.29814 0.79794 0.75019
 H885 H 0.41722 0.85687 0.77823
 H886 H 0.37588 0.81515 0.77826
 H887 H 0.31476 0.87578 0.72198
 H888 H 0.35614 0.91746 0.72185
   
