data_POSCAR
  _audit_creation_date              2014-09-24
  _audit_creation_method            'ToBaCCo'
  _symmetry_space_group_name_H-M    'P1'
  _symmetry_Int_Tables_number       1
  _symmetry_cell_setting            triclinic
  loop_
  _symmetry_equiv_pos_as_xyz
 x,y,z
_cell_length_a 50.0593
_cell_length_b 50.5184
_cell_length_c 48.1415
_cell_angle_alpha 91.565400
_cell_angle_beta 91.485300
_cell_angle_gamma 89.884500
loop_
  _atom_site_label
  _atom_site_type_symbol
  _atom_site_fract_x
  _atom_site_fract_y
  _atom_site_fract_z
N1 N 0.30603 0.25843 0.23409
 N2 N 0.29532 0.28142 0.22815
 C3 C 0.30817 0.29169 0.20674
 C4 C 0.32793 0.27408 0.19871
 C5 C 0.32601 0.25318 0.21658
 H6 H 0.30295 0.31019 0.19719
 H7 H 0.33820 0.23548 0.21689
 Cu8 Cu 0.26461 0.29512 0.24779
 Cu9 Cu 0.29340 0.23762 0.26449
 Cu10 Cu 0.22816 0.25141 0.28239
 N11 N 0.22789 0.30238 0.25728
 N12 N 0.21327 0.28472 0.26944
 C13 C 0.18839 0.29438 0.27232
 C14 C 0.18742 0.31950 0.26150
 C15 C 0.21291 0.32394 0.25217
 H16 H 0.17237 0.28414 0.28214
 H17 H 0.21991 0.34129 0.24191
 N18 N 0.24738 0.21916 0.29392
 N19 N 0.27254 0.21447 0.28787
 C20 C 0.28071 0.19226 0.30035
 C21 C 0.25968 0.18241 0.31503
 C22 C 0.23884 0.19994 0.31038
 H23 H 0.30055 0.18393 0.29890
 H24 H 0.21924 0.19930 0.31925
 H25 H 0.25582 0.24809 0.25131
 H26 H 0.26718 0.26325 0.28537
 N27 N 0.70775 -0.25643 0.21908
 N28 N 0.71855 -0.27921 0.21184
 C29 C 0.70456 -0.28983 0.19002
 C30 C 0.68407 -0.27252 0.18281
 C31 C 0.68691 -0.25145 0.20178
 H32 H 0.70947 -0.30839 0.17966
 H33 H 0.67435 -0.23410 0.20351
 Cu34 Cu 0.75070 -0.29197 0.23081
 Cu35 Cu 0.72050 -0.23559 0.25133
 Cu36 Cu 0.77649 -0.25899 0.28689
 N37 N 0.78282 -0.30426 0.25019
 N38 N 0.79211 -0.29191 0.27278
 C39 C 0.81396 -0.30469 0.28230
 C40 C 0.81911 -0.32601 0.26439
 C41 C 0.79881 -0.32499 0.24420
 H42 H 0.82581 -0.29817 0.30027
 H43 H 0.79571 -0.33843 0.22658
 N44 N 0.75785 -0.22603 0.29780
 N45 N 0.73628 -0.21741 0.28451
 C46 C 0.72790 -0.19491 0.29717
 C47 C 0.74518 -0.18890 0.31927
 C48 C 0.76399 -0.20897 0.31902
 H49 H 0.71074 -0.18343 0.29059
 H50 H 0.78070 -0.21111 0.33347
 H51 H 0.76002 -0.24743 0.24938
 H52 H 0.73805 -0.26657 0.27226
 N53 N 0.69956 0.26158 0.78036
 N54 N 0.70974 0.28492 0.78704
 C55 C 0.69620 0.29565 0.80840
 C56 C 0.67662 0.27796 0.81561
 C57 C 0.67937 0.25656 0.79735
 H58 H 0.70082 0.31453 0.81851
 H59 H 0.66761 0.23861 0.79651
 Cu60 Cu 0.74053 0.29862 0.76823
 Cu61 Cu 0.71344 0.23923 0.75054
 Cu62 Cu 0.77333 0.25851 0.72347
 N63 N 0.77618 0.30700 0.75599
 N64 N 0.78895 0.29117 0.73879
 C65 C 0.81285 0.30177 0.73356
 C66 C 0.81539 0.32575 0.74826
 C67 C 0.79155 0.32828 0.76235
 H68 H 0.82705 0.29266 0.71975
 H69 H 0.78561 0.34433 0.77613
 N70 N 0.75419 0.22626 0.71056
 N71 N 0.73089 0.21936 0.72031
 C72 C 0.72236 0.19718 0.70674
 C73 C 0.74131 0.18962 0.68767
 C74 C 0.76125 0.20847 0.69071
 H75 H 0.70392 0.18703 0.71070
 H76 H 0.77931 0.20939 0.67894
 H77 H 0.75194 0.25257 0.75893
 H78 H 0.73350 0.26771 0.72891
 N79 N 0.29775 -0.25842 0.76129
 N80 N 0.28738 -0.28154 0.76665
 C81 C 0.30001 -0.29140 0.78912
 C82 C 0.31927 -0.27340 0.79845
 C83 C 0.31726 -0.25267 0.78026
 H84 H 0.29514 -0.31003 0.79831
 H85 H 0.32926 -0.23488 0.78056
 Cu86 Cu 0.25776 -0.29622 0.74440
 Cu87 Cu 0.28579 -0.23840 0.72930
 Cu88 Cu 0.22228 -0.25468 0.70409
 N89 N 0.22174 -0.30461 0.73124
 N90 N 0.20756 -0.28795 0.71644
 C91 C 0.18309 -0.29822 0.71130
 C92 C 0.18175 -0.32280 0.72355
 C93 C 0.20687 -0.32608 0.73600
 H94 H 0.16762 -0.28845 0.69932
 H95 H 0.21384 -0.34247 0.74819
 N96 N 0.24116 -0.22221 0.69382
 N97 N 0.26567 -0.21652 0.70279
 C98 C 0.27377 -0.19425 0.69083
 C99 C 0.25337 -0.18542 0.67346
 C100 C 0.23296 -0.20359 0.67597
 H101 H 0.29309 -0.18512 0.69452
 H102 H 0.21391 -0.20371 0.66487
 H103 H 0.24783 -0.24963 0.73834
 H104 H 0.26174 -0.26530 0.70627
 N105 N 0.69977 -0.25317 0.77305
 N106 N 0.70939 -0.27689 0.77780
 C107 C 0.69554 -0.28777 0.79819
 C108 C 0.67632 -0.26980 0.80680
 C109 C 0.67963 -0.24805 0.79037
 H110 H 0.69966 -0.30701 0.80666
 H111 H 0.66821 -0.22986 0.79093
 Cu112 Cu 0.73985 -0.29098 0.75795
 Cu113 Cu 0.71405 -0.23074 0.74483
 Cu114 Cu 0.77391 -0.25058 0.71696
 N115 N 0.77571 -0.29951 0.74595
 N116 N 0.78905 -0.28348 0.73040
 C117 C 0.81317 -0.29402 0.72536
 C118 C 0.81525 -0.31817 0.73844
 C119 C 0.79089 -0.32089 0.75134
 H120 H 0.82787 -0.28474 0.71282
 H121 H 0.78455 -0.33702 0.76388
 N122 N 0.75515 -0.21809 0.70592
 N123 N 0.73190 -0.21092 0.71602
 C124 C 0.72349 -0.18879 0.70352
 C125 C 0.74246 -0.18156 0.68479
 C126 C 0.76231 -0.20054 0.68692
 H127 H 0.70501 -0.17856 0.70784
 H128 H 0.78027 -0.20182 0.67497
 H129 H 0.73383 -0.25919 0.72114
 H130 H 0.75220 -0.24506 0.75261
 N131 N 0.29459 0.25709 0.77664
 N132 N 0.28477 0.28057 0.78295
 C133 C 0.29815 0.29082 0.80531
 C134 C 0.31733 0.27270 0.81361
 C135 C 0.31445 0.25149 0.79495
 H136 H 0.29386 0.30980 0.81515
 H137 H 0.32609 0.23344 0.79455
 Cu138 Cu 0.25501 0.29531 0.76191
 Cu139 Cu 0.28106 0.23587 0.74497
 Cu140 Cu 0.22319 0.25825 0.71223
 N141 N 0.22001 0.30504 0.74728
 N142 N 0.20804 0.29107 0.72719
 C143 C 0.18460 0.30268 0.72050
 C144 C 0.18161 0.32491 0.73759
 C145 C 0.20443 0.32575 0.75441
 H146 H 0.17047 0.29518 0.70484
 H147 H 0.20944 0.34048 0.77042
 N148 N 0.24179 0.22554 0.70042
 N149 N 0.26418 0.21736 0.71252
 C150 C 0.27227 0.19493 0.69953
 C151 C 0.25395 0.18849 0.67846
 C152 C 0.23485 0.20828 0.67966
 H153 H 0.28990 0.18375 0.70530
 H154 H 0.21736 0.21008 0.66619
 H155 H 0.26294 0.26549 0.72225
 H156 H 0.24251 0.25004 0.74945
 N157 N 0.30444 -0.26554 0.22449
 N158 N 0.29337 -0.28817 0.21661
 C159 C 0.30580 -0.29789 0.19404
 C160 C 0.32565 -0.28028 0.18735
 C161 C 0.32422 -0.25998 0.20718
 H162 H 0.30026 -0.31601 0.18288
 H163 H 0.33662 -0.24247 0.20896
 Cu164 Cu 0.26295 -0.30219 0.23570
 Cu165 Cu 0.29246 -0.24546 0.25688
 Cu166 Cu 0.22716 -0.25875 0.27406
 N167 N 0.22653 -0.30961 0.24577
 N168 N 0.21214 -0.29197 0.25930
 C169 C 0.18745 -0.30174 0.26246
 C170 C 0.18637 -0.32693 0.25042
 C171 C 0.21159 -0.33131 0.24007
 H172 H 0.17169 -0.29161 0.27345
 H173 H 0.21844 -0.34877 0.22886
 N174 N 0.24656 -0.22667 0.28739
 N175 N 0.27180 -0.22228 0.28176
 C176 C 0.28006 -0.20007 0.29541
 C177 C 0.25899 -0.18990 0.31041
 C178 C 0.23804 -0.20724 0.30474
 H179 H 0.29993 -0.19187 0.29440
 H180 H 0.21835 -0.20627 0.31342
 H181 H 0.26598 -0.27114 0.27586
 H182 H 0.25471 -0.25515 0.24310
 N183 N 0.70497 0.25507 0.23304
 N184 N 0.71478 0.27860 0.22844
 C185 C 0.70134 0.28921 0.20688
 C186 C 0.68213 0.27128 0.19732
 C187 C 0.68506 0.24978 0.21440
 H188 H 0.70560 0.30831 0.19842
 H189 H 0.67339 0.23178 0.21351
 Cu190 Cu 0.74458 0.29292 0.25052
 Cu191 Cu 0.71851 0.23341 0.26318
 Cu192 Cu 0.77619 0.25536 0.29787
 N193 N 0.77947 0.30245 0.26605
 N194 N 0.79134 0.28835 0.28533
 C195 C 0.81481 0.29980 0.29279
 C196 C 0.81793 0.32202 0.27701
 C197 C 0.79515 0.32305 0.26020
 H198 H 0.82896 0.29210 0.30790
 H199 H 0.79031 0.33776 0.24495
 N200 N 0.75759 0.22250 0.30719
 N201 N 0.73533 0.21446 0.29430
 C202 C 0.72714 0.19194 0.30569
 C203 C 0.74524 0.18530 0.32653
 C204 C 0.76435 0.20505 0.32686
 H205 H 0.70952 0.18090 0.29907
 H206 H 0.78165 0.20675 0.34070
 H207 H 0.73648 0.26274 0.28810
 H208 H 0.75712 0.24755 0.26001
 C209 C 0.26140 0.02221 0.43633
 C210 C 0.26135 -0.00219 0.42189
 C211 C 0.26085 -0.02615 0.43575
 C212 C 0.26037 -0.02586 0.46517
 C213 C 0.26002 -0.00128 0.48018
 C214 C 0.26106 0.02282 0.46576
 C215 C 0.26276 0.04680 0.48119
 C216 C 0.26206 0.04726 0.51006
 C217 C 0.25947 0.02377 0.52476
 C218 C 0.25919 -0.00081 0.50972
 C219 C 0.26124 -0.04942 0.48003
 C220 C 0.26046 -0.04897 0.50890
 C221 C 0.25873 -0.02493 0.52418
 C222 C 0.25759 -0.02430 0.55357
 C223 C 0.25727 0.00012 0.56797
 C224 C 0.25818 0.02410 0.55415
 H225 H 0.26510 0.06552 0.47115
 H226 H 0.26401 0.06631 0.52069
 H227 H 0.26293 -0.06853 0.46955
 H228 H 0.26163 -0.06776 0.51909
 H229 H 0.26135 -0.00254 0.39935
 H230 H 0.25604 0.00047 0.59045
 C231 C 0.73523 0.02591 0.56229
 C232 C 0.73559 0.00204 0.57635
 C233 C 0.73522 -0.02248 0.56212
 C234 C 0.73453 -0.02331 0.53266
 C235 C 0.73501 0.00069 0.51802
 C236 C 0.73469 0.02537 0.53284
 C237 C 0.73283 0.04877 0.51777
 C238 C 0.73321 0.04810 0.48889
 C239 C 0.73546 0.02400 0.47382
 C240 C 0.73535 -0.00000 0.48846
 C241 C 0.73237 -0.04738 0.51743
 C242 C 0.73261 -0.04805 0.48854
 C243 C 0.73510 -0.02468 0.47362
 C244 C 0.73636 -0.02522 0.44423
 C245 C 0.73728 -0.00133 0.43023
 C246 C 0.73683 0.02318 0.44444
 H247 H 0.73071 0.06791 0.52808
 H248 H 0.73134 0.06676 0.47855
 H249 H 0.73010 -0.06601 0.52763
 H250 H 0.73046 -0.06716 0.47807
 H251 H 0.73656 0.00255 0.59890
 H252 H 0.73877 -0.00184 0.40778
 C253 C 0.44415 0.29031 0.03165
 C254 C 0.42978 0.28975 0.00633
 C255 C 0.44259 0.29040 -0.01912
 C256 C 0.47083 0.29190 -0.01943
 C257 C 0.48579 0.29187 0.00602
 C258 C 0.47242 0.29163 0.03166
 C259 C 0.48765 0.29354 0.05657
 C260 C 0.51542 0.29381 0.05638
 C261 C 0.52914 0.29231 0.03128
 C262 C 0.51420 0.29233 0.00583
 C263 C 0.48449 0.29424 -0.04439
 C264 C 0.51227 0.29487 -0.04456
 C265 C 0.52757 0.29302 -0.01979
 C266 C 0.55589 0.29263 -0.01983
 C267 C 0.57025 0.29192 0.00547
 C268 C 0.55742 0.29158 0.03092
 H269 H 0.47830 0.29510 0.07654
 H270 H 0.52599 0.29556 0.07622
 H271 H 0.47385 0.29596 -0.06410
 H272 H 0.52157 0.29707 -0.06438
 H273 H 0.40817 0.28813 0.00642
 H274 H 0.59190 0.29087 0.00530
 C275 C 0.44085 0.71044 -0.03174
 C276 C 0.42783 0.70987 -0.00638
 C277 C 0.44202 0.70867 0.01899
 C278 C 0.47032 0.70786 0.01915
 C279 C 0.48391 0.70915 -0.00629
 C280 C 0.46916 0.70978 -0.03185
 C281 C 0.48312 0.70886 -0.05683
 C282 C 0.51091 0.70919 -0.05673
 C283 C 0.52592 0.71042 -0.03165
 C284 C 0.51234 0.70952 -0.00617
 C285 C 0.48540 0.70490 0.04391
 C286 C 0.51319 0.70522 0.04402
 C287 C 0.52710 0.70863 0.01939
 C288 C 0.55539 0.71025 0.01944
 C289 C 0.56833 0.71177 -0.00590
 C290 C 0.55419 0.71167 -0.03133
 H291 H 0.47276 0.70757 -0.07680
 H292 H 0.52046 0.70819 -0.07662
 H293 H 0.47590 0.70196 0.06351
 H294 H 0.52360 0.70241 0.06368
 H295 H 0.40619 0.71101 -0.00636
 H296 H 0.58992 0.71354 -0.00584
 C297 C -0.02079 0.55333 0.26750
 C298 C 0.00303 0.56638 0.26181
 C299 C 0.02699 0.55259 0.25795
 C300 C 0.02703 0.52457 0.25855
 C301 C 0.00332 0.51102 0.26518
 C302 C -0.02047 0.52546 0.27038
 C303 C -0.04306 0.51170 0.27896
 C304 C -0.04302 0.48423 0.28020
 C305 C -0.02035 0.46935 0.27302
 C306 C 0.00339 0.48292 0.26653
 C307 C 0.04992 0.50972 0.25205
 C308 C 0.04999 0.48225 0.25343
 C309 C 0.02715 0.46846 0.26127
 C310 C 0.02719 0.44054 0.26328
 C311 C 0.00328 0.42744 0.26841
 C312 C -0.02056 0.44129 0.27277
 H313 H -0.06098 0.52204 0.28514
 H314 H -0.06093 0.47480 0.28720
 H315 H 0.06796 0.51913 0.24539
 H316 H 0.06809 0.47192 0.24781
 H317 H 0.00294 0.58777 0.26035
 H318 H 0.00324 0.40599 0.26891
 C319 C -0.02677 0.55942 0.73554
 C320 C -0.00249 0.57244 0.73220
 C321 C 0.02173 0.55864 0.73178
 C322 C 0.02180 0.53078 0.73418
 C323 C -0.00264 0.51725 0.73772
 C324 C -0.02705 0.53160 0.73835
 C325 C -0.05111 0.51766 0.74091
 C326 C -0.05121 0.49027 0.74319
 C327 C -0.02728 0.47570 0.74284
 C328 C -0.00273 0.48925 0.74006
 C329 C 0.04552 0.51603 0.73214
 C330 C 0.04540 0.48861 0.73417
 C331 C 0.02162 0.47480 0.73879
 C332 C 0.02127 0.44686 0.74111
 C333 C -0.00320 0.43392 0.74382
 C334 C -0.02730 0.44784 0.74444
 H335 H -0.07019 0.52775 0.74082
 H336 H -0.07032 0.48056 0.74500
 H337 H 0.06441 0.52550 0.72839
 H338 H 0.06419 0.47839 0.73157
 H339 H -0.00241 0.59380 0.73036
 H340 H -0.00356 0.41253 0.74530
 C341 C 0.38005 0.28156 0.12960
 C342 C 0.37014 0.30417 0.14363
 C343 C 0.35328 0.30172 0.16609
 C344 C 0.34629 0.27663 0.17537
 C345 C 0.35656 0.25401 0.16181
 C346 C 0.37308 0.25643 0.13905
 C347 C 0.39710 0.28416 0.10491
 C348 C 0.41770 0.26587 0.09948
 C349 C 0.43310 0.26792 0.07583
 C350 C 0.42869 0.28867 0.05746
 C351 C 0.40824 0.30698 0.06281
 C352 C 0.39256 0.30473 0.08620
 H353 H 0.34593 0.31951 0.17639
 H354 H 0.35125 0.23440 0.16829
 H355 H 0.44843 0.25326 0.07179
 H356 H 0.40424 0.32291 0.04866
 H357 H 0.37985 0.23856 0.12849
 H358 H 0.42201 0.24996 0.11353
 H359 H 0.37551 0.32384 0.13739
 H360 H 0.37653 0.31882 0.08928
 C361 C 0.62689 0.71856 0.11635
 C362 C 0.63079 0.74322 0.13016
 C363 C 0.64913 0.74602 0.15243
 C364 C 0.66486 0.72444 0.16103
 C365 C 0.66101 0.69980 0.14716
 C366 C 0.64204 0.69682 0.12551
 C367 C 0.60768 0.71566 0.09216
 C368 C 0.61229 0.69690 0.07062
 C369 C 0.59473 0.69455 0.04767
 C370 C 0.57240 0.71125 0.04528
 C371 C 0.56786 0.73023 0.06647
 C372 C 0.58495 0.73206 0.08989
 H373 H 0.65155 0.76548 0.16209
 H374 H 0.67212 0.68245 0.15336
 H375 H 0.59891 0.68000 0.03142
 H376 H 0.55117 0.74382 0.06481
 H377 H 0.63919 0.67729 0.11614
 H378 H 0.62983 0.68436 0.07098
 H379 H 0.62016 0.76067 0.12345
 H380 H 0.58029 0.74644 0.10611
 C381 C 0.62213 0.28573 -0.11680
 C382 C 0.62980 0.26060 -0.12712
 C383 C 0.64719 0.25813 -0.14927
 C384 C 0.65766 0.28070 -0.16141
 C385 C 0.65006 0.30583 -0.15121
 C386 C 0.63234 0.30832 -0.12930
 C387 C 0.60412 0.28827 -0.09270
 C388 C 0.60777 0.30883 -0.07265
 C389 C 0.59158 0.31062 -0.04946
 C390 C 0.57145 0.29186 -0.04570
 C391 C 0.56774 0.27129 -0.06559
 C392 C 0.58366 0.26970 -0.08901
 H393 H 0.65294 0.23848 -0.15642
 H394 H 0.65756 0.32358 -0.16038
 H395 H 0.59503 0.32645 -0.03415
 H396 H 0.55267 0.25629 -0.06283
 H397 H 0.62651 0.32799 -0.12230
 H398 H 0.62362 0.32318 -0.07442
 H399 H 0.62288 0.24275 -0.11769
 H400 H 0.57997 0.25382 -0.10416
 C401 C 0.37239 0.71965 -0.13021
 C402 C 0.36472 0.74470 -0.13979
 C403 C 0.34778 0.74696 -0.16316
 C404 C 0.33774 0.72425 -0.17723
 C405 C 0.34529 0.69923 -0.16774
 C406 C 0.36258 0.69694 -0.14467
 C407 C 0.39027 0.71718 -0.10515
 C408 C 0.38696 0.69624 -0.08682
 C409 C 0.40368 0.69389 -0.06332
 C410 C 0.42398 0.71246 -0.05746
 C411 C 0.42705 0.73367 -0.07534
 C412 C 0.41062 0.73583 -0.09911
 H413 H 0.34205 0.76651 -0.16982
 H414 H 0.33815 0.68136 -0.17841
 H415 H 0.40067 0.67761 -0.04956
 H416 H 0.44223 0.74855 -0.07089
 H417 H 0.36846 0.67733 -0.13836
 H418 H 0.37115 0.68186 -0.09033
 H419 H 0.37138 0.76264 -0.12894
 H420 H 0.41402 0.75203 -0.11282
 C421 C 0.12008 0.37250 0.25914
 C422 C 0.11620 0.34501 0.25978
 C423 C 0.13808 0.32780 0.26062
 C424 C 0.16426 0.33773 0.26042
 C425 C 0.16813 0.36523 0.25938
 C426 C 0.14624 0.38247 0.25897
 C427 C 0.09687 0.39071 0.25919
 C428 C 0.09636 0.41262 0.27778
 C429 C 0.07390 0.42905 0.27882
 C430 C 0.05179 0.42423 0.26085
 C431 C 0.05244 0.40253 0.24202
 C432 C 0.07474 0.38587 0.24125
 H433 H 0.13446 0.30670 0.26120
 H434 H 0.18806 0.37348 0.25937
 H435 H 0.07356 0.44531 0.29395
 H436 H 0.03553 0.39835 0.22810
 H437 H 0.14973 0.40359 0.25834
 H438 H 0.11303 0.41654 0.29208
 H439 H 0.09622 0.33686 0.26013
 H440 H 0.07473 0.36919 0.22663
 C441 C 0.11534 0.62492 0.72486
 C442 C 0.11292 0.64971 0.71252
 C443 C 0.13479 0.66681 0.71184
 C444 C 0.15976 0.65971 0.72369
 C445 C 0.16209 0.63471 0.73589
 C446 C 0.14023 0.61758 0.73638
 C447 C 0.09187 0.60701 0.72614
 C448 C 0.07321 0.60499 0.70382
 C449 C 0.05066 0.58889 0.70548
 C450 C 0.04650 0.57429 0.72933
 C451 C 0.06513 0.57602 0.75155
 C452 C 0.08762 0.59220 0.74998
 H453 H 0.13173 0.68576 0.70234
 H454 H 0.18078 0.62801 0.74500
 H455 H 0.03637 0.58787 0.68820
 H456 H 0.06196 0.56520 0.77030
 H457 H 0.14292 0.59842 0.74562
 H458 H 0.07604 0.61582 0.68502
 H459 H 0.09392 0.65620 0.70384
 H460 H 0.10132 0.59364 0.76772
 C461 C -0.11521 0.62053 0.26821
 C462 C -0.13160 0.62190 0.24410
 C463 C -0.15355 0.63900 0.24308
 C464 C -0.15938 0.65594 0.26586
 C465 C -0.14294 0.65459 0.28998
 C466 C -0.12147 0.63690 0.29126
 C467 C -0.09144 0.60258 0.26904
 C468 C -0.06851 0.60939 0.28525
 C469 C -0.04602 0.59296 0.28547
 C470 C -0.04563 0.56952 0.26913
 C471 C -0.06831 0.56278 0.25269
 C472 C -0.09110 0.57879 0.25306
 H473 H -0.16525 0.63947 0.22391
 H474 H -0.14686 0.66675 0.30827
 H475 H -0.02868 0.59879 0.29809
 H476 H -0.06832 0.54515 0.23938
 H477 H -0.10993 0.63598 0.31053
 H478 H -0.06754 0.62776 0.29731
 H479 H -0.12723 0.61022 0.22561
 H480 H -0.10838 0.57245 0.24069
 C481 C -0.11966 0.37981 0.74741
 C482 C -0.14213 0.38553 0.76339
 C483 C -0.16348 0.36772 0.76385
 C484 C -0.16293 0.34363 0.74831
 C485 C -0.14014 0.33794 0.73259
 C486 C -0.11888 0.35574 0.73219
 C487 C -0.09699 0.39869 0.74655
 C488 C -0.08768 0.41229 0.77081
 C489 C -0.06537 0.42890 0.77008
 C490 C -0.05215 0.43219 0.74510
 C491 C -0.06165 0.41913 0.72080
 C492 C -0.08393 0.40262 0.72147
 H493 H -0.18039 0.37314 0.77632
 H494 H -0.13837 0.31975 0.72044
 H495 H -0.05805 0.43872 0.78906
 H496 H -0.05157 0.42149 0.70138
 H497 H -0.10161 0.35048 0.72011
 H498 H -0.09712 0.40946 0.79049
 H499 H -0.14341 0.40402 0.77522
 H500 H -0.09087 0.39282 0.70235
 C501 C 0.26043 0.11475 0.36770
 C502 C 0.28435 0.12753 0.36134
 C503 C 0.28410 0.14933 0.34409
 C504 C 0.25990 0.15907 0.33300
 C505 C 0.23595 0.14647 0.33946
 C506 C 0.23621 0.12448 0.35650
 C507 C 0.26080 0.09127 0.38573
 C508 C 0.24032 0.08720 0.40464
 C509 C 0.24058 0.06492 0.42126
 C510 C 0.26155 0.04650 0.41966
 C511 C 0.28197 0.05046 0.40081
 C512 C 0.28162 0.07257 0.38402
 H513 H 0.30287 0.15882 0.33987
 H514 H 0.21700 0.15332 0.33100
 H515 H 0.22439 0.06198 0.43534
 H516 H 0.29814 0.03627 0.39900
 H517 H 0.21746 0.11486 0.36052
 H518 H 0.22415 0.10131 0.40674
 H519 H 0.30331 0.12093 0.37001
 H520 H 0.29742 0.07475 0.36933
 C521 C 0.73862 0.12127 0.63220
 C522 C 0.76325 0.13228 0.64125
 C523 C 0.76412 0.15470 0.65893
 C524 C 0.74042 0.16636 0.66833
 C525 C 0.71581 0.15550 0.65929
 C526 C 0.71491 0.13336 0.64126
 C527 C 0.73761 0.09706 0.61381
 C528 C 0.71742 0.07806 0.61670
 C529 C 0.71646 0.05528 0.59960
 C530 C 0.73575 0.05084 0.57938
 C531 C 0.75623 0.06947 0.57672
 C532 C 0.75696 0.09250 0.59350
 H533 H 0.78339 0.16249 0.66578
 H534 H 0.69720 0.16431 0.66586
 H535 H 0.70072 0.04096 0.60230
 H536 H 0.77164 0.06616 0.56162
 H537 H 0.69557 0.12588 0.63425
 H538 H 0.70257 0.08049 0.63251
 H539 H 0.78192 0.12329 0.63517
 H540 H 0.77263 0.10678 0.59042
 C541 C 0.25467 -0.11758 0.62108
 C542 C 0.23027 -0.12802 0.62963
 C543 C 0.22981 -0.15015 0.64645
 C544 C 0.25374 -0.16218 0.65537
 C545 C 0.27811 -0.15185 0.64679
 C546 C 0.27857 -0.12995 0.62972
 C547 C 0.25531 -0.09376 0.60353
 C548 C 0.27580 -0.07489 0.60747
 C549 C 0.27662 -0.05261 0.59098
 C550 C 0.25694 -0.04858 0.57025
 C551 C 0.23615 -0.06704 0.56657
 C552 C 0.23547 -0.08954 0.58284
 H553 H 0.21072 -0.15751 0.65291
 H554 H 0.29688 -0.16092 0.65290
 H555 H 0.29262 -0.03839 0.59445
 H556 H 0.22049 -0.06404 0.55101
 H557 H 0.29770 -0.12289 0.62305
 H558 H 0.29105 -0.07710 0.62360
 H559 H 0.21149 -0.11879 0.62379
 H560 H 0.21954 -0.10374 0.57903
 C561 C 0.74120 -0.12071 0.37465
 C562 C 0.71777 -0.13217 0.36288
 C563 C 0.71911 -0.15428 0.34489
 C564 C 0.74384 -0.16581 0.33869
 C565 C 0.76723 -0.15488 0.35085
 C566 C 0.76597 -0.13243 0.36841
 C567 C 0.73980 -0.09645 0.39293
 C568 C 0.75833 -0.09218 0.41511
 C569 C 0.75727 -0.06911 0.43178
 C570 C 0.73720 -0.05017 0.42719
 C571 C 0.71870 -0.05433 0.40512
 C572 C 0.72005 -0.07710 0.38811
 H573 H 0.70073 -0.16256 0.33610
 H574 H 0.78659 -0.16325 0.34617
 H575 H 0.77209 -0.06604 0.44834
 H576 H 0.70330 -0.03977 0.40094
 H577 H 0.78449 -0.12395 0.37657
 H578 H 0.77360 -0.10670 0.41976
 H579 H 0.69829 -0.12422 0.36767
 H580 H 0.70585 -0.07925 0.37087
 C581 C 0.62109 0.72146 -0.12695
 C582 C 0.62907 0.74675 -0.13502
 C583 C 0.64669 0.74958 -0.15678
 C584 C 0.65704 0.72720 -0.17074
 C585 C 0.64903 0.70194 -0.16284
 C586 C 0.63111 0.69910 -0.14135
 C587 C 0.60300 0.71841 -0.10317
 C588 C 0.60655 0.69728 -0.08498
 C589 C 0.59018 0.69479 -0.06216
 C590 C 0.56998 0.71340 -0.05690
 C591 C 0.56639 0.73459 -0.07487
 C592 C 0.58254 0.73692 -0.09795
 H593 H 0.65273 0.76931 -0.16218
 H594 H 0.65639 0.68434 -0.17347
 H595 H 0.59352 0.67850 -0.04830
 H596 H 0.55124 0.74945 -0.07087
 H597 H 0.62501 0.67935 -0.13613
 H598 H 0.62243 0.68299 -0.08791
 H599 H 0.62223 0.76441 -0.12411
 H600 H 0.57899 0.75326 -0.11166
 C601 C 0.37253 0.28067 -0.11658
 C602 C 0.36216 0.30318 -0.12966
 C603 C 0.34421 0.30057 -0.15227
 C604 C 0.33649 0.27540 -0.16259
 C605 C 0.34708 0.25287 -0.14985
 C606 C 0.36475 0.25546 -0.12699
 C607 C 0.39103 0.28349 -0.09198
 C608 C 0.41203 0.26535 -0.08777
 C609 C 0.42895 0.26772 -0.06428
 C610 C 0.42558 0.28857 -0.04482
 C611 C 0.40470 0.30671 -0.04894
 C612 C 0.38758 0.30419 -0.07222
 H613 H 0.33667 0.31829 -0.16190
 H614 H 0.34124 0.23321 -0.15713
 H615 H 0.44463 0.25320 -0.06119
 H616 H 0.40151 0.32271 -0.03394
 H617 H 0.37190 0.23770 -0.11714
 H618 H 0.41549 0.24935 -0.10266
 H619 H 0.36810 0.32288 -0.12261
 H620 H 0.37130 0.31817 -0.07442
 C621 C 0.37737 0.71414 0.11729
 C622 C 0.37062 0.73894 0.12917
 C623 C 0.35417 0.74072 0.15216
 C624 C 0.34372 0.71777 0.16355
 C625 C 0.35038 0.69298 0.15178
 C626 C 0.36719 0.69116 0.12907
 C627 C 0.39455 0.71228 0.09248
 C628 C 0.39003 0.69247 0.07176
 C629 C 0.40583 0.69101 0.04826
 C630 C 0.42638 0.70938 0.04483
 C631 C 0.43078 0.72935 0.06525
 C632 C 0.41528 0.73060 0.08899
 H633 H 0.34910 0.76012 0.16057
 H634 H 0.34288 0.67494 0.16036
 H635 H 0.40185 0.67565 0.03256
 H636 H 0.44620 0.74405 0.06277
 H637 H 0.37238 0.67170 0.12091
 H638 H 0.37393 0.67839 0.07337
 H639 H 0.37757 0.75710 0.12039
 H640 H 0.41962 0.74590 0.10461
 C641 C 0.62703 0.28036 0.12803
 C642 C 0.63722 0.30265 0.14291
 C643 C 0.65510 0.29967 0.16537
 C644 C 0.66293 0.27435 0.17376
 C645 C 0.65247 0.25205 0.15928
 C646 C 0.63488 0.25501 0.13655
 C647 C 0.60867 0.28357 0.10352
 C648 C 0.58793 0.26532 0.09765
 C649 C 0.57119 0.26800 0.07421
 C650 C 0.57440 0.28931 0.05650
 C651 C 0.59501 0.30756 0.06227
 C652 C 0.61200 0.30471 0.08548
 H653 H 0.66253 0.31723 0.17640
 H654 H 0.65837 0.23228 0.16507
 H655 H 0.55574 0.25339 0.06982
 H656 H 0.59809 0.32392 0.04863
 H657 H 0.62787 0.23741 0.12532
 H658 H 0.58454 0.24899 0.11121
 H659 H 0.63120 0.32245 0.13737
 H660 H 0.62808 0.31881 0.08894
 C661 C -0.11909 0.62836 0.73749
 C662 C -0.14256 0.62199 0.75118
 C663 C -0.16416 0.63959 0.75165
 C664 C -0.16291 0.66408 0.73834
 C665 C -0.13919 0.67036 0.72478
 C666 C -0.11764 0.65279 0.72443
 C667 C -0.09611 0.60971 0.73679
 C668 C -0.08853 0.59542 0.76041
 C669 C -0.06625 0.57867 0.75993
 C670 C -0.05134 0.57577 0.73576
 C671 C -0.05894 0.58982 0.71212
 C672 C -0.08117 0.60653 0.71257
 H673 H -0.18184 0.63366 0.76229
 H674 H -0.13687 0.68890 0.71445
 H675 H -0.06038 0.56826 0.77850
 H676 H -0.04753 0.58791 0.69335
 H677 H -0.09964 0.65854 0.71416
 H678 H -0.09939 0.59772 0.77949
 H679 H -0.14440 0.60317 0.76121
 H680 H -0.08668 0.61696 0.69392
 C681 C -0.11473 0.37488 0.27747
 C682 C -0.12968 0.36934 0.25281
 C683 C -0.15174 0.35248 0.25281
 C684 C -0.15903 0.34023 0.27727
 C685 C -0.14411 0.34543 0.30187
 C686 C -0.12239 0.36280 0.30206
 C687 C -0.09108 0.39280 0.27734
 C688 C -0.06869 0.38843 0.29495
 C689 C -0.04620 0.40471 0.29412
 C690 C -0.04540 0.42556 0.27547
 C691 C -0.06762 0.42992 0.25779
 C692 C -0.09034 0.41405 0.25903
 H693 H -0.16272 0.34851 0.23347
 H694 H -0.14954 0.33643 0.32109
 H695 H -0.02918 0.40075 0.30774
 H696 H -0.06727 0.44550 0.24279
 H697 H -0.11180 0.36693 0.32157
 H698 H -0.06817 0.37201 0.30891
 H699 H -0.12410 0.37761 0.23330
 H700 H -0.10727 0.41843 0.24549
 C701 C 0.11468 0.37853 0.73885
 C702 C 0.12251 0.36599 0.71386
 C703 C 0.14410 0.34844 0.71352
 C704 C 0.15883 0.34351 0.73801
 C705 C 0.15154 0.35635 0.76289
 C706 C 0.12953 0.37343 0.76339
 C707 C 0.09095 0.39646 0.73933
 C708 C 0.08974 0.41813 0.75834
 C709 C 0.06718 0.43450 0.75903
 C710 C 0.04572 0.43014 0.74013
 C711 C 0.04685 0.40861 0.72117
 C712 C 0.06905 0.39186 0.72091
 H713 H 0.14956 0.33905 0.69398
 H714 H 0.16243 0.35267 0.78213
 H715 H 0.06649 0.45063 0.77428
 H716 H 0.03035 0.40460 0.70667
 H717 H 0.12391 0.38218 0.78315
 H718 H 0.10625 0.42261 0.77263
 H719 H 0.11214 0.36986 0.69439
 H720 H 0.06874 0.37502 0.70653
 C721 C 0.11962 0.61966 0.24945
 C722 C 0.11547 0.64716 0.24995
 C723 C 0.13718 0.66450 0.25025
 C724 C 0.16343 0.65467 0.24956
 C725 C 0.16754 0.62714 0.24851
 C726 C 0.14583 0.60978 0.24875
 C727 C 0.09661 0.60143 0.25044
 C728 C 0.09624 0.58159 0.27029
 C729 C 0.07379 0.56546 0.27245
 C730 C 0.05161 0.56840 0.25431
 C731 C 0.05218 0.58798 0.23417
 C732 C 0.07443 0.60444 0.23234
 H733 H 0.13341 0.68562 0.25087
 H734 H 0.18756 0.61901 0.24814
 H735 H 0.07352 0.55096 0.28861
 H736 H 0.03523 0.59073 0.22009
 H737 H 0.14946 0.58863 0.24829
 H738 H 0.11298 0.57918 0.28471
 H739 H 0.09542 0.65521 0.25070
 H740 H 0.07433 0.61958 0.21684
 C741 C 0.73945 -0.11484 0.63103
 C742 C 0.71580 -0.12648 0.64009
 C743 C 0.71682 -0.14804 0.65763
 C744 C 0.74147 -0.15877 0.66617
 C745 C 0.76512 -0.14752 0.65683
 C746 C 0.76413 -0.12567 0.63963
 C747 C 0.73830 -0.09135 0.61301
 C748 C 0.75735 -0.08778 0.59243
 C749 C 0.75639 -0.06549 0.57587
 C750 C 0.73597 -0.04664 0.57901
 C751 C 0.71700 -0.05008 0.59954
 C752 C 0.71820 -0.07210 0.61642
 H753 H 0.69825 -0.15656 0.66415
 H754 H 0.78442 -0.15524 0.66330
 H755 H 0.77156 -0.06293 0.56053
 H756 H 0.70133 -0.03555 0.60262
 H757 H 0.78276 -0.11699 0.63352
 H758 H 0.77293 -0.10229 0.58896
 H759 H 0.69643 -0.11911 0.63342
 H760 H 0.70359 -0.07377 0.63246
 C761 C 0.25959 -0.12091 0.36510
 C762 C 0.23544 -0.13066 0.35328
 C763 C 0.23521 -0.15313 0.33566
 C764 C 0.25914 -0.16620 0.32920
 C765 C 0.28327 -0.15650 0.34098
 C766 C 0.28348 -0.13423 0.35883
 C767 C 0.25997 -0.09682 0.38361
 C768 C 0.28108 -0.07855 0.38268
 C769 C 0.28150 -0.05589 0.39996
 C770 C 0.26080 -0.05094 0.41849
 C771 C 0.23949 -0.06888 0.41927
 C772 C 0.23918 -0.09172 0.40218
 H773 H 0.21632 -0.15996 0.32669
 H774 H 0.30202 -0.16635 0.33678
 H775 H 0.29792 -0.04207 0.39876
 H776 H 0.22310 -0.06515 0.43310
 H777 H 0.30238 -0.12765 0.36798
 H778 H 0.29711 -0.08149 0.36825
 H779 H 0.21672 -0.12066 0.35724
 H780 H 0.22275 -0.10545 0.40367
 C781 C 0.74224 0.11686 0.37771
 C782 C 0.76690 0.12838 0.37153
 C783 C 0.76788 0.15086 0.35528
 C784 C 0.74428 0.16203 0.34442
 C785 C 0.71966 0.15063 0.35054
 C786 C 0.71862 0.12848 0.36719
 C787 C 0.74107 0.09277 0.39484
 C788 C 0.72112 0.07355 0.38950
 C789 C 0.71964 0.05120 0.40583
 C790 C 0.73819 0.04739 0.42769
 C791 C 0.75860 0.06606 0.43260
 C792 C 0.75982 0.08870 0.41661
 H793 H 0.78716 0.15911 0.35065
 H794 H 0.70111 0.15908 0.34278
 H795 H 0.70398 0.03681 0.40138
 H796 H 0.77348 0.06320 0.44899
 H797 H 0.69923 0.12065 0.37203
 H798 H 0.70677 0.07556 0.37249
 H799 H 0.78553 0.11976 0.37879
 H800 H 0.77530 0.10312 0.42158
 C801 C 0.25566 0.11968 0.62371
 C802 C 0.23121 0.13153 0.63085
 C803 C 0.23066 0.15415 0.64823
 C804 C 0.25451 0.16516 0.65925
 C805 C 0.27893 0.15348 0.65213
 C806 C 0.27953 0.13116 0.63437
 C807 C 0.25632 0.09530 0.60559
 C808 C 0.27601 0.07581 0.60996
 C809 C 0.27676 0.05298 0.59297
 C810 C 0.25774 0.04895 0.57137
 C811 C 0.23769 0.06801 0.56728
 C812 C 0.23718 0.09110 0.58396
 H813 H 0.21153 0.16260 0.65362
 H814 H 0.29765 0.16179 0.66001
 H815 H 0.29217 0.03833 0.59677
 H816 H 0.22250 0.06504 0.55108
 H817 H 0.29876 0.12305 0.62885
 H818 H 0.29067 0.07794 0.62679
 H819 H 0.21240 0.12303 0.62353
 H820 H 0.22190 0.10573 0.57972
   
