data_POSCAR
  _audit_creation_date              2014-09-24
  _audit_creation_method            'ToBaCCo'
  _symmetry_space_group_name_H-M    'P1'
  _symmetry_Int_Tables_number       1
  _symmetry_cell_setting            triclinic
  loop_
  _symmetry_equiv_pos_as_xyz
 x,y,z
_cell_length_a 36.9159
_cell_length_b 36.7539
_cell_length_c 37.0699
_cell_angle_alpha 90.233700
_cell_angle_beta 90.036900
_cell_angle_gamma 89.941500
loop_
  _atom_site_label
  _atom_site_type_symbol
  _atom_site_fract_x
  _atom_site_fract_y
  _atom_site_fract_z
C1 C 0.23271 1.09588 -0.00958
 C2 C 0.23940 1.08028 0.02424
 C3 C 0.24399 1.04224 0.02643
 C4 C 0.24123 1.02015 -0.00472
 C5 C 0.23500 1.03706 -0.03847
 C6 C 0.23190 1.07508 -0.04128
 C7 C 0.24501 0.97954 -0.00242
 C8 C 0.25770 0.95972 -0.03257
 C9 C 0.25802 0.92171 -0.03278
 C10 C 0.24662 0.90302 -0.00199
 C11 C 0.23586 0.92170 0.02912
 C12 C 0.23472 0.96001 0.02888
 H13 H 0.22969 1.12521 -0.01150
 H14 H 0.25016 1.02970 0.05197
 H15 H 0.23145 1.02056 -0.06233
 H16 H 0.26724 0.97364 -0.05640
 H17 H 0.24533 0.87358 -0.00223
 H18 H 0.22423 0.97414 0.05230
 C19 C 0.74514 0.59191 0.49508
 C20 C 0.75494 0.57323 0.52658
 C21 C 0.75842 0.53539 0.52526
 C22 C 0.75049 0.51551 0.49349
 C23 C 0.74098 0.53501 0.46217
 C24 C 0.73939 0.57317 0.46260
 C25 C 0.75126 0.47473 0.49361
 C26 C 0.75565 0.45429 0.46149
 C27 C 0.75508 0.41608 0.46195
 C28 C 0.75331 0.39819 0.49532
 C29 C 0.74876 0.41789 0.52746
 C30 C 0.74692 0.45573 0.52627
 H31 H 0.74182 0.62118 0.49563
 H32 H 0.76761 0.52181 0.54940
 H33 H 0.73358 0.52085 0.43769
 H34 H 0.75940 0.46769 0.43586
 H35 H 0.75649 0.36898 0.49651
 H36 H 0.74149 0.46997 0.55126
 C37 C 0.76981 0.99226 1.08910
 C38 C 0.77640 0.96097 1.06819
 C39 C 0.77989 0.96470 1.03095
 C40 C 0.76984 0.99731 1.01377
 C41 C 0.76155 1.02812 1.03525
 C42 C 0.76281 1.02607 1.07319
 C43 C 0.76492 0.99773 0.97377
 C44 C 0.76766 1.03025 0.95404
 C45 C 0.75990 1.03083 0.91709
 C46 C 0.75298 0.99788 0.89890
 C47 C 0.75168 0.96491 0.91765
 C48 C 0.75579 0.96540 0.95519
 H49 H 0.77072 0.99053 1.11826
 H50 H 0.78773 0.94108 1.01525
 H51 H 0.75283 1.05296 1.02252
 H52 H 0.77500 1.05547 0.96730
 H53 H 0.74934 0.99767 0.86990
 H54 H 0.75082 0.94063 0.96990
 C55 C 0.23609 0.49204 0.59341
 C56 C 0.23632 0.45963 0.57364
 C57 C 0.23956 0.46108 0.53586
 C58 C 0.24466 0.49472 0.51779
 C59 C 0.24637 0.52678 0.53911
 C60 C 0.24189 0.52570 0.57671
 C61 C 0.24834 0.49636 0.47717
 C62 C 0.24232 0.52916 0.45795
 C63 C 0.24657 0.53091 0.42027
 C64 C 0.25602 0.49909 0.40137
 C65 C 0.26038 0.46594 0.41921
 C66 C 0.25789 0.46501 0.45703
 H67 H 0.23152 0.49073 0.62223
 H68 H 0.23690 0.43595 0.52096
 H69 H 0.25187 0.55287 0.52700
 H70 H 0.23379 0.55361 0.47180
 H71 H 0.26022 0.49980 0.37250
 H72 H 0.26451 0.43992 0.47048
 C73 C 1.09945 0.23864 -0.00013
 C74 C 1.08075 0.23670 0.03301
 C75 C 1.04289 0.24161 0.03265
 C76 C 1.02394 0.24996 0.00044
 C77 C 1.04401 0.25272 -0.03181
 C78 C 1.08113 0.24549 -0.03258
 C79 C 0.98360 0.25611 0.00029
 C80 C 0.96318 0.25248 -0.03193
 C81 C 0.92607 0.26116 -0.03323
 C82 C 0.90854 0.27005 -0.00057
 C83 C 0.92751 0.27146 0.03204
 C84 C 0.96508 0.26601 0.03217
 H85 H 1.12859 0.23704 -0.00112
 H86 H 1.02839 0.23836 0.05775
 H87 H 1.03120 0.26060 -0.05680
 H88 H 0.97595 0.24312 -0.05650
 H89 H 0.87957 0.27387 0.00067
 H90 H 0.97950 0.27019 0.05718
 C91 C 0.58796 0.74346 0.50761
 C92 C 0.56965 0.74953 0.54003
 C93 C 0.53180 0.75193 0.53982
 C94 C 0.51183 0.74747 0.50742
 C95 C 0.53148 0.74191 0.47501
 C96 C 0.56934 0.74205 0.47485
 C97 C 0.47107 0.74948 0.50727
 C98 C 0.45180 0.75577 0.47488
 C99 C 0.41397 0.75577 0.47423
 C100 C 0.39484 0.75359 0.50674
 C101 C 0.41286 0.74831 0.53942
 C102 C 0.45083 0.74505 0.53941
 H103 H 0.61706 0.73978 0.50776
 H104 H 0.51860 0.75813 0.56509
 H105 H 0.51804 0.73793 0.44945
 H106 H 0.46556 0.76032 0.44965
 H107 H 0.36557 0.75596 0.50665
 H108 H 0.46432 0.73955 0.56452
 C109 C -0.00350 0.76260 -0.09161
 C110 C 0.02820 0.76945 -0.07255
 C111 C 0.02750 0.76988 -0.03482
 C112 C -0.00478 0.76189 -0.01566
 C113 C -0.03682 0.75531 -0.03587
 C114 C -0.03637 0.75613 -0.07400
 C115 C -0.00441 0.75975 0.02501
 C116 C -0.03643 0.76383 0.04589
 C117 C -0.03594 0.76045 0.08388
 C118 C -0.00195 0.75599 0.10087
 C119 C 0.03009 0.75279 0.08102
 C120 C 0.02849 0.75313 0.04335
 H121 H -0.00246 0.76287 -0.12089
 H122 H 0.05215 0.77728 -0.02090
 H123 H -0.06148 0.74798 -0.02216
 H124 H -0.06200 0.76948 0.03282
 H125 H 0.00076 0.75631 0.12984
 H126 H 0.05304 0.74737 0.02861
 C127 C 0.49761 0.23684 0.40315
 C128 C 0.53200 0.23780 0.41913
 C129 C 0.53461 0.24060 0.45679
 C130 C 0.50343 0.24642 0.47839
 C131 C 0.46941 0.24875 0.46072
 C132 C 0.46629 0.24268 0.42345
 C133 C 0.50612 0.25020 0.51888
 C134 C 0.47512 0.24578 0.54087
 C135 C 0.47644 0.25121 0.57824
 C136 C 0.50987 0.25934 0.59446
 C137 C 0.54164 0.26152 0.57390
 C138 C 0.53943 0.25825 0.53615
 H139 H 0.49503 0.23185 0.37445
 H140 H 0.56123 0.23848 0.46864
 H141 H 0.44515 0.25483 0.47563
 H142 H 0.44945 0.23763 0.52950
 H143 H 0.51151 0.26409 0.62324
 H144 H 0.56361 0.26309 0.52064
 C145 C 1.09238 0.00333 0.24109
 C146 C 1.07571 0.03744 0.24590
 C147 C 1.03752 0.03887 0.24755
 C148 C 1.01651 0.00728 0.24207
 C149 C 1.03420 -0.02608 0.23594
 C150 C 1.07198 -0.02853 0.23708
 C151 C 0.97613 0.00876 0.24274
 C152 C 0.95599 -0.02165 0.25420
 C153 C 0.91799 -0.02181 0.25317
 C154 C 0.90009 0.00983 0.24108
 C155 C 0.91955 0.04088 0.23101
 C156 C 0.95748 0.04007 0.23129
 H157 H 1.12171 0.00133 0.24099
 H158 H 1.02385 0.06411 0.25348
 H159 H 1.01855 -0.05013 0.22977
 H160 H 0.96989 -0.04542 0.26447
 H161 H 0.87095 0.01090 0.23869
 H162 H 0.97223 0.06337 0.22134
 C163 C 0.60243 0.49683 0.73089
 C164 C 0.58578 0.53005 0.73970
 C165 C 0.54840 0.53042 0.74705
 C166 C 0.52711 0.49885 0.74234
 C167 C 0.54453 0.46640 0.73148
 C168 C 0.58227 0.46467 0.72794
 C169 C 0.48711 0.49933 0.74955
 C170 C 0.46870 0.46684 0.75814
 C171 C 0.43131 0.46645 0.76392
 C172 C 0.41210 0.49933 0.76302
 C173 C 0.42962 0.53221 0.75570
 C174 C 0.46691 0.53201 0.74805
 H175 H 0.63153 0.49584 0.72701
 H176 H 0.53621 0.55498 0.75739
 H177 H 0.52893 0.44234 0.72547
 H178 H 0.48310 0.44138 0.76077
 H179 H 0.38302 0.49949 0.76671
 H180 H 0.48000 0.55723 0.74113
 C181 C 1.00808 1.09490 0.75128
 C182 C 0.97429 1.07770 0.75591
 C183 C 0.97400 1.04002 0.76208
 C184 C 1.00592 1.01877 0.75943
 C185 C 1.03896 1.03686 0.75273
 C186 C 1.04037 1.07476 0.74947
 C187 C 1.00444 0.97802 0.76311
 C188 C 1.03561 0.95739 0.77196
 C189 C 1.03445 0.91917 0.77437
 C190 C 1.00068 0.90180 0.76977
 C191 C 0.96926 0.92156 0.76182
 C192 C 0.97165 0.95924 0.75706
 H193 H 1.00993 1.12416 0.75120
 H194 H 0.94839 1.02748 0.76866
 H195 H 1.06397 1.02188 0.74962
 H196 H 1.06109 0.97079 0.77738
 H197 H 0.99826 0.87258 0.77079
 H198 H 0.94811 0.97354 0.74735
 C199 C 0.49703 0.60444 0.24190
 C200 C 0.46353 0.58666 0.23788
 C201 C 0.46290 0.54857 0.23585
 C202 C 0.49468 0.52778 0.24123
 C203 C 0.52759 0.54656 0.24729
 C204 C 0.52915 0.58459 0.24702
 C205 C 0.49352 0.48686 0.24185
 C206 C 0.52550 0.46622 0.23671
 C207 C 0.52569 0.42848 0.24142
 C208 C 0.49285 0.41046 0.24748
 C209 C 0.46038 0.42973 0.25054
 C210 C 0.46089 0.46790 0.24889
 H211 H 0.49824 0.63377 0.24022
 H212 H 0.43722 0.53556 0.23051
 H213 H 0.55234 0.53210 0.25322
 H214 H 0.55079 0.47911 0.22966
 H215 H 0.49221 0.38103 0.24886
 H216 H 0.43600 0.48233 0.25428
 O217 O 0.25681 0.14508 0.20915
 O218 O 0.30144 0.14489 0.25879
 O219 O 0.16336 0.19345 0.25457
 O220 O 0.14938 0.24432 0.28580
 O221 O 0.20687 0.23407 0.15524
 O222 O 0.25604 0.27295 0.14058
 O223 O 0.25843 0.30566 0.33611
 O224 O 0.21615 0.25966 0.35110
 O225 O 0.35002 0.25271 0.29674
 O226 O 0.35887 0.20320 0.24845
 O227 O 0.30595 0.33909 0.24075
 O228 O 0.25417 0.34504 0.19777
 O229 O 0.25682 0.34396 0.28813
 O230 O 0.21545 0.34889 0.23590
 O231 O 0.34943 0.29530 0.24352
 O232 O 0.36265 0.24166 0.20997
 O233 O 0.30757 0.25735 0.34097
 O234 O 0.25720 0.21666 0.35655
 O235 O 0.25730 0.18400 0.16160
 O236 O 0.29725 0.23373 0.14564
 O237 O 0.16259 0.23904 0.19758
 O238 O 0.15372 0.28631 0.24378
 O239 O 0.20782 0.15067 0.26012
 O240 O 0.25583 0.14644 0.30071
 Zr241 Zr 0.25605 0.18012 0.25446
 O242 O 0.28960 0.21528 0.28444
 Zr243 Zr 0.19144 0.24299 0.24707
 O244 O 0.22242 0.28071 0.27745
 Zr245 Zr 0.25535 0.23639 0.18444
 O246 O 0.28867 0.27409 0.21122
 Zr247 Zr 0.25797 0.25346 0.31259
 O248 O 0.22379 0.21583 0.28552
 Zr249 Zr 0.32084 0.24639 0.24875
 O250 O 0.29052 0.20808 0.21883
 Zr251 Zr 0.25687 0.30962 0.24259
 O252 O 0.22297 0.27468 0.21180
 O253 O 0.22208 0.20602 0.21781
 O254 O 0.29131 0.28399 0.27907
 C255 C 0.25742 0.15183 0.17517
 C256 C 0.17444 0.16052 0.25938
 C257 C 0.17345 0.23569 0.16469
 C258 C 0.25781 0.33761 0.32215
 C259 C 0.34056 0.25649 0.32978
 C260 C 0.33920 0.32858 0.24143
 H261 H 0.30494 0.20074 0.30080
 H262 H 0.30348 0.28729 0.19336
 H263 H 0.20662 0.18871 0.20431
 H264 H 0.20609 0.29709 0.29107
 H265 H 0.19748 0.24125 0.34517
 H266 H 0.15686 0.26142 0.30508
 H267 H 0.35482 0.25501 0.18822
 H268 H 0.31579 0.21690 0.15531
 H269 H 0.27702 0.19885 0.35318
 H270 H 0.23987 0.15830 0.31870
 H271 H 0.27426 0.33872 0.18125
 H272 H 0.24030 0.29363 0.14753
 H273 H 0.29323 0.11943 0.25512
 H274 H 0.35731 0.19065 0.27195
 H275 H 0.16121 0.30166 0.22321
 H276 H 0.19775 0.34562 0.25564
 O277 O 0.74192 0.85533 0.21787
 O278 O 0.70540 0.86397 0.26903
 O279 O 0.84003 0.81289 0.26574
 O280 O 0.85325 0.76425 0.30142
 O281 O 0.79872 0.76367 0.16866
 O282 O 0.74880 0.72380 0.15662
 O283 O 0.74691 0.70674 0.35332
 O284 O 0.78740 0.75359 0.36573
 O285 O 0.65318 0.75473 0.31136
 O286 O 0.64344 0.80012 0.26030
 O287 O 0.69729 0.66523 0.25897
 O288 O 0.75073 0.65664 0.21779
 O289 O 0.74598 0.66401 0.30877
 O290 O 0.78780 0.65460 0.25750
 O291 O 0.65405 0.70915 0.26095
 O292 O 0.64158 0.76026 0.22276
 O293 O 0.69699 0.75350 0.35444
 O294 O 0.74613 0.79637 0.36784
 O295 O 0.74706 0.81491 0.17140
 O296 O 0.70786 0.76389 0.15809
 O297 O 0.84130 0.76302 0.21293
 O298 O 0.85093 0.72003 0.26069
 O299 O 0.79460 0.85468 0.26731
 O300 O 0.74493 0.86197 0.30795
 Zr301 Zr 0.74685 0.82447 0.26457
 O302 O 0.71339 0.79181 0.29631
 Zr303 Zr 0.81218 0.76256 0.26158
 O304 O 0.78132 0.72646 0.29339
 Zr305 Zr 0.74919 0.76395 0.19760
 O306 O 0.71536 0.72817 0.22679
 Zr307 Zr 0.74599 0.75638 0.32637
 O308 O 0.77987 0.79244 0.29796
 Zr309 Zr 0.68255 0.75800 0.26266
 O310 O 0.71304 0.79389 0.23036
 Zr311 Zr 0.74677 0.69477 0.26057
 O312 O 0.78107 0.72792 0.22822
 O313 O 0.78161 0.79709 0.22953
 O314 O 0.71249 0.72302 0.29529
 C315 C 0.74306 0.84722 0.18432
 C316 C 0.82822 0.84588 0.26774
 C317 C 0.83184 0.76283 0.17954
 C318 C 0.74638 0.67375 0.34218
 C319 C 0.66373 0.75352 0.34435
 C320 C 0.66399 0.67578 0.25992
 H321 H 0.69795 0.80747 0.31162
 H322 H 0.70071 0.71365 0.20970
 H323 H 0.79673 0.81365 0.21490
 H324 H 0.79769 0.71121 0.30807
 H325 H 0.80604 0.77162 0.35882
 H326 H 0.84640 0.74705 0.32069
 H327 H 0.64914 0.74436 0.20253
 H328 H 0.68858 0.78027 0.16717
 H329 H 0.72595 0.81351 0.36348
 H330 H 0.76225 0.85313 0.32635
 H331 H 0.73076 0.66160 0.20070
 H332 H 0.76511 0.70412 0.16488
 H333 H 0.68524 0.85556 0.25350
 H334 H 0.64462 0.81404 0.28317
 H335 H 0.84240 0.70193 0.24276
 H336 H 0.80576 0.65994 0.27659
 O337 O 0.75349 0.15682 0.79757
 O338 O 0.71833 0.14300 0.74805
 O339 O 0.84914 0.20217 0.74882
 O340 O 0.86088 0.25067 0.71076
 O341 O 0.80308 0.25336 0.84177
 O342 O 0.75309 0.28992 0.85338
 O343 O 0.75116 0.29672 0.65344
 O344 O 0.79020 0.24782 0.64079
 O345 O 0.65987 0.25010 0.69992
 O346 O 0.64691 0.21418 0.75030
 O347 O 0.70636 0.34534 0.74604
 O348 O 0.75630 0.35892 0.78240
 O349 O 0.75154 0.34243 0.69486
 O350 O 0.79779 0.35253 0.74697
 O351 O 0.66174 0.30278 0.74444
 O352 O 0.65283 0.25052 0.79133
 O353 O 0.70223 0.24962 0.65545
 O354 O 0.75612 0.20455 0.64759
 O355 O 0.75351 0.20020 0.84147
 O356 O 0.71147 0.25219 0.84954
 O357 O 0.84779 0.25367 0.79964
 O358 O 0.85629 0.29414 0.74671
 O359 O 0.80712 0.15703 0.74898
 O360 O 0.75554 0.14745 0.70630
 Zr361 Zr 0.75687 0.18545 0.74929
 O362 O 0.72112 0.21568 0.71668
 Zr363 Zr 0.81929 0.25036 0.74990
 O364 O 0.78808 0.28199 0.71414
 Zr365 Zr 0.75491 0.24979 0.81242
 O366 O 0.72232 0.28456 0.78109
 Zr367 Zr 0.75241 0.24924 0.68363
 O368 O 0.78853 0.21722 0.71462
 Zr369 Zr 0.68973 0.25224 0.74766
 O370 O 0.72073 0.21706 0.78073
 Zr371 Zr 0.75411 0.31526 0.74514
 O372 O 0.78698 0.28532 0.78117
 O373 O 0.78955 0.21631 0.78323
 O374 O 0.71936 0.28473 0.71266
 C375 C 0.75213 0.16688 0.83068
 C376 C 0.84013 0.16849 0.74831
 C377 C 0.83650 0.25524 0.83251
 C378 C 0.75001 0.33040 0.66225
 C379 C 0.66918 0.24990 0.66669
 C380 C 0.67308 0.33598 0.74459
 H381 H 0.70579 0.19881 0.70254
 H382 H 0.70780 0.30034 0.79721
 H383 H 0.80503 0.20123 0.79907
 H384 H 0.80424 0.29637 0.69846
 H385 H 0.81189 0.26129 0.64893
 H386 H 0.85180 0.23613 0.69012
 H387 H 0.65314 0.27454 0.80346
 H388 H 0.69472 0.23216 0.84318
 H389 H 0.73308 0.19089 0.64880
 H390 H 0.77613 0.15326 0.69024
 H391 H 0.74273 0.35126 0.80407
 H392 H 0.76723 0.31085 0.84435
 H393 H 0.69671 0.15230 0.76090
 H394 H 0.65506 0.19209 0.73733
 H395 H 0.84997 0.31135 0.76633
 H396 H 0.81046 0.35157 0.72348
 O397 O 0.25484 0.83358 0.80886
 O398 O 0.28603 0.84340 0.75338
 O399 O 0.15363 0.78869 0.77222
 O400 O 0.13497 0.74136 0.73951
 O401 O 0.21088 0.74008 0.86075
 O402 O 0.26121 0.69925 0.86368
 O403 O 0.23591 0.68737 0.66744
 O404 O 0.19162 0.73411 0.66366
 O405 O 0.33240 0.73573 0.69806
 O406 O 0.35127 0.77728 0.74639
 O407 O 0.29503 0.64430 0.75303
 O408 O 0.24992 0.63310 0.79978
 O409 O 0.24254 0.64457 0.71102
 O410 O 0.20566 0.63471 0.76773
 O411 O 0.33882 0.68719 0.74625
 O412 O 0.35529 0.74032 0.78603
 O413 O 0.28318 0.73582 0.66113
 O414 O 0.23168 0.77826 0.65719
 O415 O 0.26277 0.78997 0.85158
 O416 O 0.30188 0.73815 0.85709
 O417 O 0.16173 0.74072 0.82366
 O418 O 0.14634 0.69564 0.77574
 O419 O 0.19614 0.83301 0.76614
 O420 O 0.24070 0.84234 0.71923
 Zr421 Zr 0.24539 0.80373 0.76109
 O422 O 0.27442 0.77190 0.72349
 Zr423 Zr 0.18280 0.73982 0.77094
 O424 O 0.20832 0.70569 0.73278
 Zr425 Zr 0.25493 0.74040 0.82447
 O426 O 0.28363 0.70571 0.78938
 Zr427 Zr 0.23856 0.73683 0.69630
 O428 O 0.20877 0.77145 0.73129
 Zr429 Zr 0.31055 0.73699 0.75041
 O430 O 0.28484 0.77214 0.78789
 Zr431 Zr 0.24695 0.67379 0.75965
 O432 O 0.21850 0.70505 0.79843
 O433 O 0.21735 0.77402 0.79945
 O434 O 0.27606 0.70294 0.72138
 C435 C 0.26176 0.82329 0.84124
 C436 C 0.16322 0.82222 0.77028
 C437 C 0.17655 0.74080 0.85509
 C438 C 0.23898 0.65424 0.67792
 C439 C 0.31749 0.73531 0.66674
 C440 C 0.32795 0.65401 0.74794
 H441 H 0.28734 0.78814 0.70670
 H442 H 0.30059 0.69065 0.80357
 H443 H 0.20459 0.79018 0.81667
 H444 H 0.19018 0.69071 0.71993
 H445 H 0.17404 0.75167 0.67394
 H446 H 0.13964 0.72713 0.71730
 H447 H 0.35405 0.71937 0.80266
 H448 H 0.31987 0.75455 0.84589
 H449 H 0.25189 0.79572 0.65964
 H450 H 0.22099 0.83371 0.70323
 H451 H 0.27030 0.63934 0.81597
 H452 H 0.24331 0.68010 0.85773
 H453 H 0.30783 0.83446 0.76614
 H454 H 0.34302 0.79556 0.72868
 H455 H 0.15594 0.67952 0.79483
 H456 H 0.18732 0.63783 0.74853
 O457 O 0.25750 0.34570 0.70536
 O458 O 0.21626 0.35490 0.75422
 O459 O 0.35066 0.30098 0.76006
 O460 O 0.36263 0.25268 0.79429
 O461 O 0.31128 0.25193 0.66114
 O462 O 0.26101 0.21199 0.64844
 O463 O 0.25520 0.19912 0.84514
 O464 O 0.29552 0.24733 0.85697
 O465 O 0.16220 0.24748 0.80079
 O466 O 0.15373 0.29215 0.74893
 O467 O 0.20646 0.15647 0.74959
 O468 O 0.25994 0.14585 0.71133
 O469 O 0.25220 0.15560 0.80144
 O470 O 0.29693 0.14527 0.75137
 O471 O 0.16357 0.20082 0.74838
 O472 O 0.15220 0.25274 0.71162
 O473 O 0.20521 0.24494 0.84458
 O474 O 0.25308 0.28889 0.85818
 O475 O 0.25851 0.30335 0.66042
 O476 O 0.22096 0.25211 0.64734
 O477 O 0.35261 0.25096 0.70658
 O478 O 0.35944 0.20811 0.75500
 O479 O 0.30649 0.34420 0.75984
 O480 O 0.25433 0.35480 0.79496
 Zr481 Zr 0.25797 0.31545 0.75338
 O482 O 0.22335 0.28385 0.78547
 Zr483 Zr 0.32193 0.25175 0.75405
 O484 O 0.28994 0.21700 0.78594
 Zr485 Zr 0.26079 0.25328 0.68832
 O486 O 0.22577 0.21882 0.71760
 Zr487 Zr 0.25441 0.24838 0.81720
 O488 O 0.28918 0.28329 0.78856
 Zr489 Zr 0.19243 0.24971 0.75219
 O490 O 0.22427 0.28438 0.71950
 Zr491 Zr 0.25579 0.18544 0.75275
 O492 O 0.29120 0.21723 0.72040
 O493 O 0.29326 0.28649 0.72023
 O494 O 0.22104 0.21486 0.78610
 C495 C 0.25688 0.33643 0.67192
 C496 C 0.33968 0.33410 0.76262
 C497 C 0.34404 0.25045 0.67304
 C498 C 0.25311 0.16592 0.83467
 C499 C 0.17216 0.24499 0.83398
 C500 C 0.17342 0.16734 0.74759
 H501 H 0.20781 0.29993 0.80023
 H502 H 0.21136 0.20433 0.70026
 H503 H 0.30924 0.30263 0.70602
 H504 H 0.30574 0.20181 0.80127
 H505 H 0.31377 0.26574 0.85000
 H506 H 0.35430 0.23728 0.81445
 H507 H 0.16013 0.23703 0.69138
 H508 H 0.20112 0.26830 0.65551
 H509 H 0.23254 0.30548 0.85345
 H510 H 0.26801 0.34492 0.81571
 H511 H 0.24224 0.15229 0.69235
 H512 H 0.27772 0.19284 0.65710
 H513 H 0.19753 0.34646 0.73701
 H514 H 0.15563 0.30707 0.77112
 H515 H 0.35131 0.19020 0.73671
 H516 H 0.31283 0.14912 0.77253
 O517 O 0.76191 0.65486 0.69293
 O518 O 0.80768 0.65106 0.74337
 O519 O 0.66761 0.69309 0.74789
 O520 O 0.65447 0.74019 0.78622
 O521 O 0.70483 0.74908 0.65285
 O522 O 0.75510 0.78983 0.64088
 O523 O 0.75913 0.80277 0.83600
 O524 O 0.71767 0.75160 0.84631
 O525 O 0.85178 0.75621 0.79235
 O526 O 0.85944 0.70792 0.73903
 O527 O 0.80626 0.84419 0.74278
 O528 O 0.75159 0.85140 0.70070
 O529 O 0.75780 0.84450 0.79091
 O530 O 0.71664 0.85447 0.74251
 O531 O 0.85034 0.80107 0.73879
 O532 O 0.86590 0.75184 0.70626
 O533 O 0.80964 0.75429 0.83699
 O534 O 0.76400 0.71374 0.85100
 O535 O 0.75825 0.69899 0.65030
 O536 O 0.79367 0.74975 0.63734
 O537 O 0.66248 0.74457 0.69712
 O538 O 0.65295 0.78533 0.74586
 O539 O 0.71387 0.65197 0.74657
 O540 O 0.76218 0.64374 0.78337
 Zr541 Zr 0.76039 0.68396 0.74266
 O542 O 0.79260 0.71708 0.77644
 Zr543 Zr 0.69351 0.74453 0.74464
 O544 O 0.72401 0.78132 0.77649
 Zr545 Zr 0.75511 0.74755 0.67943
 O546 O 0.78924 0.78215 0.70886
 Zr547 Zr 0.76057 0.75201 0.80849
 O548 O 0.72812 0.71484 0.77871
 Zr549 Zr 0.82264 0.75195 0.74357
 O550 O 0.79262 0.71699 0.70953
 Zr551 Zr 0.75736 0.81392 0.74354
 O552 O 0.72257 0.78115 0.71172
 O553 O 0.72412 0.71222 0.71015
 O554 O 0.79289 0.78618 0.77740
 C555 C 0.76159 0.66569 0.65988
 C556 C 0.68022 0.66032 0.74871
 C557 C 0.67189 0.74807 0.66403
 C558 C 0.75841 0.83573 0.82422
 C559 C 0.84242 0.75614 0.82574
 C560 C 0.83958 0.83414 0.73991
 H561 H 0.80858 0.70157 0.79127
 H562 H 0.80347 0.79690 0.69172
 H563 H 0.70886 0.69594 0.69518
 H564 H 0.70753 0.79617 0.79155
 H565 H 0.70203 0.73057 0.84017
 H566 H 0.66031 0.75861 0.80486
 H567 H 0.85583 0.76051 0.68311
 H568 H 0.81457 0.73486 0.64519
 H569 H 0.77805 0.69264 0.84211
 H570 H 0.74838 0.65353 0.80414
 H571 H 0.77351 0.84974 0.68544
 H572 H 0.73654 0.80766 0.64865
 H573 H 0.80139 0.62638 0.73442
 H574 H 0.86369 0.69813 0.76350
 H575 H 0.66068 0.80457 0.72892
 H576 H 0.69723 0.84679 0.75919
 O577 O 0.24199 0.66045 0.29627
 O578 O 0.20521 0.65307 0.24461
 O579 O 0.33675 0.71199 0.25158
 O580 O 0.34714 0.76469 0.21830
 O581 O 0.29039 0.75130 0.34940
 O582 O 0.24010 0.78784 0.36445
 O583 O 0.23756 0.81817 0.16823
 O584 O 0.27919 0.77005 0.15049
 O585 O 0.14759 0.76362 0.20766
 O586 O 0.13549 0.72073 0.25362
 O587 O 0.19204 0.85298 0.26437
 O588 O 0.24123 0.86248 0.30398
 O589 O 0.24036 0.85783 0.21535
 O590 O 0.28311 0.86180 0.26933
 O591 O 0.14829 0.81003 0.25737
 O592 O 0.13932 0.75334 0.29788
 O593 O 0.19011 0.76670 0.16346
 O594 O 0.24483 0.72788 0.14955
 O595 O 0.24094 0.69945 0.34406
 O596 O 0.19918 0.74914 0.35780
 O597 O 0.33493 0.75751 0.30752
 O598 O 0.34380 0.80307 0.25998
 O599 O 0.29510 0.66673 0.24654
 O600 O 0.24410 0.66018 0.20458
 Zr601 Zr 0.24461 0.69434 0.25061
 O602 O 0.20936 0.72814 0.22083
 Zr603 Zr 0.30640 0.75955 0.25797
 O604 O 0.27502 0.79535 0.22659
 Zr605 Zr 0.24210 0.75152 0.32013
 O606 O 0.20883 0.78888 0.29284
 Zr607 Zr 0.24001 0.76630 0.19198
 O608 O 0.27569 0.73043 0.21943
 Zr609 Zr 0.17713 0.76019 0.25550
 O610 O 0.20824 0.72207 0.28508
 Zr611 Zr 0.24050 0.82410 0.26129
 O612 O 0.27401 0.79046 0.29316
 O613 O 0.27700 0.72172 0.28745
 O614 O 0.20634 0.79744 0.22490
 C615 C 0.24049 0.66726 0.33033
 C616 C 0.32801 0.67845 0.24753
 C617 C 0.32377 0.75411 0.34022
 C618 C 0.23852 0.85056 0.18148
 C619 C 0.15705 0.76567 0.17454
 C620 C 0.15899 0.84316 0.26116
 H621 H 0.19444 0.71274 0.20474
 H622 H 0.19384 0.80235 0.31048
 H623 H 0.29260 0.70498 0.30143
 H624 H 0.29122 0.81180 0.21310
 H625 H 0.29837 0.78683 0.15888
 H626 H 0.33761 0.75272 0.19629
 H627 H 0.13977 0.77550 0.31311
 H628 H 0.18157 0.73119 0.34834
 H629 H 0.22481 0.71019 0.15205
 H630 H 0.26262 0.66980 0.18784
 H631 H 0.22632 0.85251 0.32375
 H632 H 0.25554 0.80884 0.35802
 H633 H 0.18464 0.66010 0.26028
 H634 H 0.14347 0.70136 0.23682
 H635 H 0.33685 0.81854 0.28078
 H636 H 0.29830 0.86185 0.24735
 O637 O 0.74478 0.34078 0.29458
 O638 O 0.78343 0.35614 0.24562
 O639 O 0.64912 0.30316 0.23894
 O640 O 0.63417 0.26084 0.19921
 O641 O 0.69250 0.24241 0.32807
 O642 O 0.74218 0.20082 0.33320
 O643 O 0.74303 0.21312 0.13520
 O644 O 0.70077 0.26158 0.13144
 O645 O 0.83568 0.25484 0.18392
 O646 O 0.84864 0.28866 0.23889
 O647 O 0.78918 0.15782 0.22304
 O648 O 0.73856 0.14229 0.26005
 O649 O 0.74203 0.16532 0.17383
 O650 O 0.69849 0.14993 0.22439
 O651 O 0.83437 0.19960 0.22720
 O652 O 0.84614 0.24771 0.27423
 O653 O 0.79173 0.26068 0.14130
 O654 O 0.74234 0.30446 0.13553
 O655 O 0.74441 0.29228 0.33252
 O656 O 0.78340 0.23987 0.33674
 O657 O 0.64914 0.24812 0.28488
 O658 O 0.64001 0.21080 0.22979
 O659 O 0.69255 0.34677 0.24414
 O660 O 0.74366 0.36038 0.20557
 Zr661 Zr 0.74165 0.31695 0.24274
 O662 O 0.77515 0.28892 0.20586
 Zr663 Zr 0.67741 0.25405 0.23607
 O664 O 0.70742 0.22412 0.19793
 Zr665 Zr 0.74126 0.24644 0.29866
 O666 O 0.77399 0.21526 0.26381
 Zr667 Zr 0.74289 0.25853 0.17003
 O668 O 0.70909 0.28956 0.20459
 Zr669 Zr 0.80677 0.24982 0.23273
 O670 O 0.77660 0.28118 0.27045
 Zr671 Zr 0.74137 0.18814 0.22583
 O672 O 0.70839 0.21534 0.26394
 O673 O 0.70792 0.28374 0.27295
 O674 O 0.77611 0.22049 0.19543
 C675 C 0.74572 0.32663 0.32624
 C676 C 0.65930 0.33638 0.24233
 C677 C 0.65927 0.24381 0.31779
 C678 C 0.74294 0.17888 0.14195
 C679 C 0.82499 0.25888 0.15115
 C680 C 0.82267 0.16675 0.22417
 H681 H 0.79050 0.30671 0.19311
 H682 H 0.78848 0.19809 0.27835
 H683 H 0.69284 0.29792 0.29003
 H684 H 0.69090 0.21139 0.18110
 H685 H 0.68242 0.27862 0.14127
 H686 H 0.64194 0.25016 0.17594
 H687 H 0.84169 0.22548 0.28851
 H688 H 0.80251 0.25755 0.33026
 H689 H 0.76179 0.32124 0.14326
 H690 H 0.72611 0.35448 0.18621
 H691 H 0.75495 0.14686 0.28068
 H692 H 0.72480 0.18302 0.32305
 H693 H 0.80315 0.34506 0.25999
 H694 H 0.84243 0.30991 0.22381
 H695 H 0.64630 0.19213 0.24793
 H696 H 0.68309 0.15550 0.20327
 C697 C 0.24204 0.10438 0.05377
 C698 C 0.24920 0.09586 0.08818
 C699 C 0.25169 0.12580 0.11467
 C700 C 0.25680 0.12061 0.14997
 H701 H 0.25323 0.06814 0.09696
 H702 H 0.24858 0.15335 0.10473
 H703 H 0.23818 0.13308 0.04795
 H704 H 0.25922 0.09326 0.16053
 C705 C 0.75966 0.59233 0.56164
 C706 C 0.77147 0.62669 0.56370
 C707 C 0.77212 0.64932 0.59670
 C708 C 0.76428 0.63849 0.63047
 H709 H 0.77983 0.64038 0.53929
 H710 H 0.77861 0.67765 0.59201
 H711 H 0.75279 0.57764 0.58590
 H712 H 0.75932 0.61021 0.63662
 C713 C 0.77722 0.92595 0.08332
 C714 C 0.75967 0.91845 0.11391
 C715 C 0.75898 0.88221 0.13028
 C716 C 0.73971 0.87824 0.16034
 H717 H 0.74386 0.93940 0.12721
 H718 H 0.77587 0.86039 0.11996
 H719 H 0.78902 0.90362 0.06811
 H720 H 0.72443 0.90121 0.17084
 C721 C 0.23314 0.42517 0.59417
 C722 C 0.24974 0.39394 0.58497
 C723 C 0.25213 0.36241 0.60991
 C724 C 0.25423 0.36665 0.64587
 H725 H 0.26289 0.39140 0.55900
 H726 H 0.25446 0.33549 0.59817
 H727 H 0.21949 0.42682 0.61998
 H728 H 0.25423 0.39382 0.65728
 C729 C 0.75949 0.06605 0.89789
 C730 C 0.73681 0.07204 0.87036
 C731 C 0.73748 0.10465 0.84757
 C732 C 0.74958 0.13762 0.85763
 H733 H 0.71830 0.05083 0.86191
 H734 H 0.72685 0.10081 0.82056
 H735 H 0.77774 0.08725 0.90693
 H736 H 0.75761 0.14306 0.88521
 C737 C 0.24258 0.56645 0.40126
 C738 C 0.23334 0.56863 0.36620
 C739 C 0.23320 0.60202 0.34385
 C740 C 0.23907 0.63612 0.35561
 H741 H 0.22619 0.54406 0.35173
 H742 H 0.22828 0.59757 0.31536
 H743 H 0.24797 0.59094 0.41659
 H744 H 0.24289 0.64167 0.38402
 C745 C 0.26650 0.90201 0.93335
 C746 C 0.27952 0.86795 0.93325
 C747 C 0.28019 0.84351 0.90158
 C748 C 0.26721 0.85171 0.86878
 H749 H 0.28802 0.85577 0.95841
 H750 H 0.28937 0.81603 0.90685
 H751 H 0.26016 0.91563 0.90835
 H752 H 0.25867 0.87900 0.86217
 C753 C 0.75659 0.39539 0.42742
 C754 C 0.74242 0.36188 0.42418
 C755 C 0.74312 0.33922 0.39126
 C756 C 0.74751 0.35159 0.35754
 H757 H 0.72969 0.34922 0.44718
 H758 H 0.73767 0.31059 0.39543
 H759 H 0.76858 0.40852 0.40425
 H760 H 0.75099 0.38035 0.35253
 C761 C 0.09879 0.23175 0.06648
 C762 C 0.13365 0.22129 0.06935
 C763 C 0.15564 0.22058 0.10273
 C764 C 0.14608 0.23324 0.13548
 H765 H 0.14847 0.21246 0.04582
 H766 H 0.18297 0.21049 0.09890
 H767 H 0.08358 0.23669 0.09097
 H768 H 0.11884 0.24269 0.14076
 C769 C 0.59023 0.75269 0.57417
 C770 C 0.62344 0.76751 0.57468
 C771 C 0.64924 0.76594 0.60492
 C772 C 0.64286 0.75074 0.63704
 H773 H 0.63379 0.78029 0.55053
 H774 H 0.67581 0.77716 0.59945
 H775 H 0.57811 0.74181 0.59836
 H776 H 0.61631 0.74069 0.64412
 C777 C 0.06116 0.77660 0.90618
 C778 C 0.09302 0.76056 0.91257
 C779 C 0.12058 0.76060 0.88382
 C780 C 0.15229 0.74324 0.88658
 H781 H 0.09713 0.74450 0.93669
 H782 H 0.11388 0.77396 0.85862
 H783 H 0.05742 0.79087 0.88087
 H784 H 0.16052 0.73122 0.91194
 C785 C 0.56527 0.23625 0.39657
 C786 C 0.56562 0.25025 0.36314
 C787 C 0.59629 0.24967 0.33769
 C788 C 0.63080 0.24159 0.34571
 H789 H 0.54146 0.26317 0.35271
 H790 H 0.58955 0.25797 0.31048
 H791 H 0.58959 0.22469 0.40810
 H792 H 0.63866 0.23485 0.37299
 C793 C 0.93099 0.76224 0.10367
 C794 C 0.92841 0.75435 0.13913
 C795 C 0.89588 0.75699 0.16238
 C796 C 0.86128 0.76189 0.15210
 H797 H 0.95169 0.74497 0.15393
 H798 H 0.90161 0.75340 0.19081
 H799 H 0.90653 0.76967 0.08932
 H800 H 0.85434 0.76433 0.12386
 C801 C 0.44209 0.24968 0.59922
 C802 C 0.44107 0.24185 0.63451
 C803 C 0.40832 0.24253 0.65753
 C804 C 0.37408 0.24875 0.64662
 H805 H 0.46589 0.23483 0.64834
 H806 H 0.41350 0.23778 0.68589
 H807 H 0.41720 0.25505 0.58481
 H808 H 0.36771 0.25257 0.61842
 C809 C 0.90757 0.25957 0.93324
 C810 C 0.87402 0.27293 0.92814
 C811 C 0.85190 0.26906 0.89519
 C812 C 0.86324 0.25908 0.86212
 H813 H 0.86010 0.28717 0.94950
 H814 H 0.82357 0.27574 0.89908
 H815 H 0.92144 0.24736 0.91047
 H816 H 0.89162 0.25428 0.85662
 C817 C 0.39456 0.75752 0.43936
 C818 C 0.36393 0.73869 0.43437
 C819 C 0.34085 0.74028 0.40214
 C820 C 0.35071 0.75259 0.36955
 H821 H 0.35361 0.72194 0.45602
 H822 H 0.31370 0.72983 0.40601
 H823 H 0.40608 0.77351 0.41778
 H824 H 0.37826 0.76098 0.36418
 C825 C 0.09837 0.06824 0.24889
 C826 C 0.08739 0.10306 0.25258
 C827 C 0.11297 0.13420 0.25348
 C828 C 0.14782 0.13105 0.26322
 H829 H 0.05903 0.11014 0.25250
 H830 H 0.10257 0.16046 0.24526
 H831 H 0.12715 0.06315 0.24666
 H832 H 0.15823 0.10532 0.27278
 C833 C 0.60890 0.56311 0.74219
 C834 C 0.59642 0.59759 0.74312
 C835 C 0.62018 0.63026 0.74354
 C836 C 0.65548 0.62913 0.75186
 H837 H 0.56768 0.60285 0.74124
 H838 H 0.60798 0.65601 0.73625
 H839 H 0.63774 0.55831 0.74107
 H840 H 0.66795 0.60386 0.76001
 C841 C 0.94098 0.09691 0.75509
 C842 C 0.93770 0.13101 0.74249
 C843 C 0.90439 0.15322 0.74247
 C844 C 0.87021 0.14172 0.74780
 H845 H 0.96079 0.14509 0.73150
 H846 H 0.90914 0.18173 0.73691
 H847 H 0.91679 0.08291 0.76393
 H848 H 0.86422 0.11321 0.75173
 C849 C 0.42887 0.60734 0.23618
 C850 C 0.42491 0.63932 0.25328
 C851 C 0.39224 0.66247 0.25288
 C852 C 0.35822 0.65192 0.24505
 H853 H 0.44744 0.65051 0.26832
 H854 H 0.39702 0.69023 0.26159
 H855 H 0.40617 0.59538 0.22196
 H856 H 0.35232 0.62388 0.23826
 C857 C 0.06719 0.89957 0.77933
 C858 C 0.06868 0.86373 0.78661
 C859 C 0.10166 0.84089 0.78676
 C860 C 0.13424 0.84994 0.77338
 H861 H 0.04444 0.84887 0.79326
 H862 H 0.09752 0.81343 0.79649
 H863 H 0.09241 0.91436 0.77685
 H864 H 0.13959 0.87717 0.76382
 C865 C 0.56036 0.40815 0.23969
 C866 C 0.56562 0.37806 0.25930
 C867 C 0.59728 0.35399 0.25628
 C868 C 0.63042 0.36395 0.24527
 H869 H 0.54449 0.36861 0.27718
 H870 H 0.59273 0.32620 0.26485
 H871 H 0.58161 0.41825 0.22230
 H872 H 0.63658 0.39211 0.23947
 C873 C 0.89957 0.94598 0.26292
 C874 C 0.86368 0.94413 0.26841
 C875 C 0.84288 0.91047 0.27448
 C876 C 0.85451 0.87622 0.26859
 H877 H 0.84738 0.96851 0.26884
 H878 H 0.81470 0.91502 0.28132
 H879 H 0.91552 0.92153 0.26655
 H880 H 0.88243 0.87057 0.26177
 C881 C 0.41254 0.43105 0.76743
 C882 C 0.38066 0.42760 0.78431
 C883 C 0.35705 0.39538 0.78155
 C884 C 0.36692 0.36272 0.76851
 H885 H 0.36930 0.45059 0.79868
 H886 H 0.32926 0.39964 0.78997
 H887 H 0.42468 0.40795 0.75390
 H888 H 0.39485 0.35665 0.76212
 C889 C 0.10079 0.24662 0.93253
 C890 C 0.12930 0.22496 0.92615
 C891 C 0.15312 0.22741 0.89441
 C892 C 0.14426 0.24172 0.86230
 H893 H 0.13779 0.20576 0.94657
 H894 H 0.17997 0.21607 0.89819
 H895 H 0.09152 0.26541 0.91209
 H896 H 0.11689 0.25063 0.85669
 C897 C 0.58967 0.74215 0.44046
 C898 C 0.62049 0.76123 0.43781
 C899 C 0.64506 0.76112 0.40677
 C900 C 0.63602 0.75243 0.37284
 H901 H 0.62996 0.77692 0.46073
 H902 H 0.67236 0.77020 0.41265
 H903 H 0.57902 0.72721 0.41758
 H904 H 0.60836 0.74580 0.36574
 C905 C 0.93315 0.75088 0.90375
 C906 C 0.89827 0.75240 0.91398
 C907 C 0.86798 0.75083 0.88752
 C908 C 0.87189 0.75873 0.85230
 H909 H 0.89102 0.75556 0.94206
 H910 H 0.84146 0.74373 0.89779
 H911 H 0.93880 0.74678 0.87543
 H912 H 0.89769 0.76745 0.84169
 C913 C 0.43120 0.24152 0.40400
 C914 C 0.40013 0.25715 0.41493
 C915 C 0.36760 0.25760 0.39139
 C916 C 0.37071 0.25960 0.35544
 H917 H 0.39799 0.26983 0.44119
 H918 H 0.34110 0.25683 0.40385
 H919 H 0.43162 0.22774 0.37812
 H920 H 0.39732 0.26258 0.34351
 C921 C 0.06463 0.74885 0.10115
 C922 C 0.09695 0.76097 0.08950
 C923 C 0.12951 0.76164 0.11310
 C924 C 0.12671 0.76665 0.14880
 H925 H 0.09987 0.77134 0.06239
 H926 H 0.15596 0.75932 0.10069
 H927 H 0.06258 0.73764 0.12804
 H928 H 0.10022 0.77096 0.16063
 C929 C 0.57637 0.26728 0.59333
 C930 C 0.60880 0.25516 0.58177
 C931 C 0.64141 0.25502 0.60534
 C932 C 0.63870 0.24998 0.64102
 H933 H 0.61169 0.24387 0.55494
 H934 H 0.66785 0.25704 0.59287
 H935 H 0.57445 0.27936 0.61997
 H936 H 0.61219 0.24589 0.65282
 C937 C 0.90647 0.27784 0.06543
 C938 C 0.91385 0.26134 0.09683
 C939 C 0.88787 0.26077 0.12729
 C940 C 0.85192 0.26162 0.12205
 H941 H 0.93879 0.24619 0.10006
 H942 H 0.89861 0.25665 0.15416
 H943 H 0.88172 0.29343 0.06275
 H944 H 0.84119 0.26330 0.09492
 C945 C 0.39055 0.74770 0.57265
 C946 C 0.40073 0.73295 0.60412
 C947 C 0.37710 0.73289 0.63638
 C948 C 0.34081 0.73436 0.63460
 H949 H 0.42736 0.72116 0.60721
 H950 H 0.39031 0.73047 0.66236
 H951 H 0.36406 0.76014 0.57059
 H952 H 0.32722 0.73436 0.60873
 C953 C 0.22944 0.09412 0.92582
 C954 C 0.23616 0.08064 0.89262
 C955 C 0.23933 0.10492 0.86073
 C956 C 0.25202 0.13900 0.86389
 H957 H 0.24047 0.05190 0.88816
 H958 H 0.23197 0.09426 0.83446
 H959 H 0.22379 0.12299 0.92787
 H960 H 0.26100 0.14883 0.88997
 C961 C 0.73165 0.59471 0.42989
 C962 C 0.74229 0.58493 0.39655
 C963 C 0.74150 0.61060 0.36582
 C964 C 0.74643 0.64635 0.37087
 H965 H 0.75343 0.55814 0.39159
 H966 H 0.73913 0.59965 0.33876
 H967 H 0.71977 0.62133 0.43417
 H968 H 0.75103 0.65675 0.39786
 C969 C 0.75620 0.05559 0.09664
 C970 C 0.75109 0.09048 0.08744
 C971 C 0.74593 0.11738 0.11662
 C972 C 0.74479 0.15330 0.11113
 H973 H 0.75188 0.09951 0.05973
 H974 H 0.74423 0.10720 0.14399
 H975 H 0.75603 0.04956 0.12531
 H976 H 0.74665 0.16399 0.08399
 C977 C 0.24247 0.55998 0.59824
 C978 C 0.25326 0.56048 0.63286
 C979 C 0.25189 0.59198 0.65773
 C980 C 0.23921 0.62532 0.65007
 H981 H 0.26399 0.53588 0.64472
 H982 H 0.26193 0.58661 0.68466
 H983 H 0.23406 0.58482 0.58512
 H984 H 0.22998 0.63202 0.62322
 C985 C 0.74585 0.93069 0.89707
 C986 C 0.75677 0.89761 0.90835
 C987 C 0.75558 0.86468 0.88509
 C988 C 0.75853 0.86686 0.84923
 H989 H 0.76799 0.89414 0.93506
 H990 H 0.75455 0.83830 0.89795
 H991 H 0.73392 0.93347 0.87055
 H992 H 0.76177 0.89324 0.83675
 C993 C 0.26740 0.43295 0.39703
 C994 C 0.25686 0.39939 0.40661
 C995 C 0.25897 0.36731 0.38232
 C996 C 0.25806 0.36969 0.34620
 H997 H 0.24536 0.39480 0.43304
 H998 H 0.25867 0.34079 0.39493
 H999 H 0.27920 0.43715 0.37066
 H1000 H 0.25628 0.39602 0.33337
 C1001 C 0.22434 0.89928 0.06015
 C1002 C 0.23257 0.90657 0.09456
 C1003 C 0.22826 0.87750 0.12171
 C1004 C 0.23829 0.88159 0.15618
 H1005 H 0.24551 0.93200 0.10189
 H1006 H 0.21832 0.85122 0.11269
 H1007 H 0.21295 0.87281 0.05377
 H1008 H 0.24725 0.90796 0.16583
 C1009 C 0.74742 0.39966 0.56288
 C1010 C 0.73289 0.36664 0.56683
 C1011 C 0.73449 0.34497 0.60007
 C1012 C 0.74637 0.35652 0.63246
 H1013 H 0.72038 0.35339 0.54385
 H1014 H 0.72579 0.31698 0.59689
 H1015 H 0.75876 0.41400 0.58576
 H1016 H 0.75327 0.38467 0.63737
 C1017 C 0.07601 0.09325 0.74651
 C1018 C 0.07969 0.12519 0.72951
 C1019 C 0.11189 0.14892 0.73127
 C1020 C 0.14463 0.13968 0.74411
 H1021 H 0.05677 0.13649 0.71518
 H1022 H 0.10759 0.17640 0.72168
 H1023 H 0.09896 0.08080 0.75979
 H1024 H 0.15062 0.11198 0.75185
 C1025 C 0.56477 0.60302 0.25135
 C1026 C 0.56767 0.63558 0.26746
 C1027 C 0.60079 0.65806 0.26944
 C1028 C 0.63461 0.64829 0.25973
 H1029 H 0.54369 0.64803 0.27893
 H1030 H 0.59614 0.68545 0.27933
 H1031 H 0.58863 0.58935 0.24114
 H1032 H 0.64076 0.62071 0.25147
 C1033 C 0.09139 0.93626 0.23502
 C1034 C 0.07681 0.90396 0.24387
 C1035 C 0.09944 0.87097 0.24740
 C1036 C 0.13279 0.87308 0.26128
 H1037 H 0.04823 0.90127 0.24948
 H1038 H 0.08838 0.84500 0.23899
 H1039 H 0.11999 0.93747 0.22856
 H1040 H 0.14275 0.89909 0.27097
 C1041 C 0.60190 0.42978 0.72260
 C1042 C 0.58921 0.39713 0.73315
 C1043 C 0.61243 0.36421 0.73460
 C1044 C 0.64756 0.36665 0.74310
 H1045 H 0.56164 0.39418 0.74247
 H1046 H 0.60001 0.33780 0.73077
 H1047 H 0.62938 0.43165 0.71255
 H1048 H 0.65909 0.39316 0.74878
 C1049 C 0.89900 0.07340 0.21972
 C1050 C 0.90871 0.10747 0.22877
 C1051 C 0.88434 0.13940 0.22498
 C1052 C 0.84825 0.13613 0.22290
 H1053 H 0.93467 0.11223 0.24153
 H1054 H 0.89633 0.16618 0.22733
 H1055 H 0.87337 0.06837 0.20651
 H1056 H 0.83586 0.10950 0.22264
 C1057 C 0.40742 0.56575 0.75720
 C1058 C 0.41533 0.59732 0.74090
 C1059 C 0.39011 0.62871 0.74202
 C1060 C 0.35415 0.62417 0.74421
 H1061 H 0.44065 0.60086 0.72674
 H1062 H 0.40143 0.65581 0.74023
 H1063 H 0.38248 0.56370 0.77239
 H1064 H 0.34280 0.59703 0.74359
 C1065 C 0.93496 0.90111 0.75694
 C1066 C 0.90151 0.91575 0.75767
 C1067 C 0.86840 0.89310 0.75458
 C1068 C 0.86848 0.86121 0.73707
 H1069 H 0.89779 0.94434 0.76356
 H1070 H 0.84409 0.90229 0.76821
 H1071 H 0.93767 0.87186 0.75490
 H1072 H 0.89245 0.85246 0.72264
 C1073 C 0.42690 0.40846 0.25616
 C1074 C 0.39448 0.41744 0.24239
 C1075 C 0.36352 0.39174 0.24256
 C1076 C 0.36849 0.35564 0.24012
 H1077 H 0.39050 0.44367 0.22982
 H1078 H 0.33636 0.40289 0.24309
 H1079 H 0.43009 0.38246 0.26944
 H1080 H 0.39565 0.34482 0.23745
   
