data_POSCAR
  _audit_creation_date              2014-09-24
  _audit_creation_method            'ToBaCCo'
  _symmetry_space_group_name_H-M    'P1'
  _symmetry_Int_Tables_number       1
  _symmetry_cell_setting            triclinic
  loop_
  _symmetry_equiv_pos_as_xyz
 x,y,z
_cell_length_a 33.0341
_cell_length_b 31.9679
_cell_length_c 31.8270
_cell_angle_alpha 89.906100
_cell_angle_beta 89.990900
_cell_angle_gamma 89.926400
loop_
  _atom_site_label
  _atom_site_type_symbol
  _atom_site_fract_x
  _atom_site_fract_y
  _atom_site_fract_z
N1 N 0.18857 1.27225 0.15752
 N2 N 0.16290 1.27443 0.18907
 C3 C 0.13546 1.30466 0.18117
 C4 C 0.14481 1.32222 0.14279
 C5 C 0.17846 1.30108 0.12846
 H6 H 0.11007 1.31237 0.20119
 H7 H 0.19364 1.30543 0.09865
 Cu8 Cu 0.16636 1.23609 0.23628
 Cu9 Cu 0.23147 1.23043 0.15521
 Cu10 Cu 0.22976 1.15380 0.23220
 N11 N 0.16102 1.18921 0.27471
 N12 N 0.18603 1.15718 0.27314
 C13 C 0.17480 1.12861 0.30199
 C14 C 0.14111 1.14377 0.32250
 C15 C 0.13291 1.18214 0.30456
 H16 H 0.18936 1.09866 0.30688
 H17 H 0.10792 1.20280 0.31187
 N18 N 0.27144 1.15609 0.18793
 N19 N 0.27210 1.18534 0.15855
 C20 C 0.30273 1.17728 0.13178
 C21 C 0.32206 1.14146 0.14514
 C22 C 0.30163 1.12866 0.18061
 H23 H 0.30967 1.19526 0.10389
 H24 H 0.30754 1.10073 0.19883
 H25 H 0.19729 1.18701 0.18774
 H26 H 0.23580 1.21680 0.21863
 N27 N 0.81404 0.72734 0.15806
 N28 N 0.83937 0.72568 0.18992
 C29 C 0.86732 0.69586 0.18253
 C30 C 0.85874 0.67801 0.14415
 C31 C 0.82492 0.69857 0.12934
 H32 H 0.89251 0.68848 0.20297
 H33 H 0.81007 0.69373 0.09946
 Cu34 Cu 0.83466 0.76394 0.23695
 Cu35 Cu 0.77040 0.76828 0.15508
 Cu36 Cu 0.76983 0.84503 0.23170
 N37 N 0.83874 0.81101 0.27515
 N38 N 0.81320 0.84257 0.27313
 C39 C 0.82366 0.87143 0.30191
 C40 C 0.85742 0.85694 0.32284
 C41 C 0.86644 0.81868 0.30522
 H42 H 0.80858 0.90114 0.30645
 H43 H 0.89173 0.79852 0.31285
 N44 N 0.72867 0.84184 0.18699
 N45 N 0.72889 0.81254 0.15775
 C46 C 0.69841 0.81993 0.13059
 C47 C 0.67825 0.85536 0.14354
 C48 C 0.69804 0.86863 0.17919
 H49 H 0.69214 0.80178 0.10270
 H50 H 0.69141 0.89647 0.19719
 H51 H 0.80343 0.81237 0.18783
 H52 H 0.76509 0.78189 0.21839
 N53 N 0.81091 1.27285 -0.15812
 N54 N 0.83591 1.27474 -0.19024
 C55 C 0.86378 1.30462 -0.18302
 C56 C 0.85547 1.32226 -0.14446
 C57 C 0.82192 1.30151 -0.12938
 H58 H 0.88880 1.31207 -0.20363
 H59 H 0.80742 1.30604 -0.09925
 Cu60 Cu 0.83107 1.23648 -0.23725
 Cu61 Cu 0.76771 1.23156 -0.15467
 Cu62 Cu 0.76709 1.15490 -0.23137
 N63 N 0.83522 1.18949 -0.27557
 N64 N 0.80998 1.15775 -0.27330
 C65 C 0.82052 1.12891 -0.30209
 C66 C 0.85400 1.14359 -0.32331
 C67 C 0.86280 1.18195 -0.30582
 H68 H 0.80576 1.09903 -0.30635
 H69 H 0.88794 1.20220 -0.31358
 N70 N 0.72639 1.15771 -0.18617
 N71 N 0.72662 1.18697 -0.15690
 C72 C 0.69653 1.17930 -0.12937
 C73 C 0.67661 1.14370 -0.14213
 C74 C 0.69614 1.13064 -0.17803
 H75 H 0.69036 1.19736 -0.10140
 H76 H 0.68959 1.10277 -0.19599
 H77 H 0.80082 1.18775 -0.18785
 H78 H 0.76187 1.21797 -0.21792
 N79 N 0.18869 0.72828 -0.15929
 N80 N 0.16348 0.72650 -0.19123
 C81 C 0.13587 0.69637 -0.18397
 C82 C 0.14454 0.67844 -0.14558
 C83 C 0.17806 0.69929 -0.13063
 H84 H 0.11080 0.68888 -0.20447
 H85 H 0.19283 0.69452 -0.10067
 Cu86 Cu 0.16778 0.76512 -0.23812
 Cu87 Cu 0.23179 0.76973 -0.15607
 Cu88 Cu 0.23142 0.84694 -0.23248
 N89 N 0.16304 0.81237 -0.27616
 N90 N 0.18814 0.84423 -0.27398
 C91 C 0.17722 0.87323 -0.30255
 C92 C 0.14364 0.85853 -0.32352
 C93 C 0.13518 0.81999 -0.30613
 H94 H 0.19182 0.90321 -0.30685
 H95 H 0.11011 0.79964 -0.31379
 N96 N 0.27255 0.84397 -0.18772
 N97 N 0.27269 0.81451 -0.15854
 C98 C 0.30302 0.82213 -0.13131
 C99 C 0.32270 0.85789 -0.14417
 C100 C 0.30278 0.87109 -0.17981
 H101 H 0.30953 0.80391 -0.10346
 H102 H 0.30906 0.89910 -0.19775
 H103 H 0.19823 0.81359 -0.18877
 H104 H 0.23706 0.78377 -0.21932
 Si105 Si 0.49995 0.99913 0.00124
 Si106 Si 0.00176 0.49908 0.99918
 Si107 Si 0.99846 0.00112 0.50036
 C108 C 0.08063 0.40701 1.07829
 C109 C 0.08229 0.40647 1.03434
 C110 C 0.05897 0.43461 1.01098
 C111 C 0.12314 0.35158 1.12154
 C112 C 0.03232 0.46415 1.07538
 C113 C 0.05565 0.43595 1.09877
 C114 C 0.10382 0.37715 1.10214
 C115 C 0.03399 0.46372 1.03133
 H116 H 0.10132 0.38407 1.01815
 H117 H 0.06023 0.43350 0.97699
 H118 H 0.01269 0.48572 1.09179
 H119 H 0.05390 0.43642 1.13276
 C120 C -0.07502 0.59106 1.08031
 C121 C -0.03270 0.59154 1.08255
 C122 C -0.00996 0.56335 1.05868
 C123 C -0.11796 0.64689 1.12239
 C124 C -0.07175 0.53387 1.03045
 C125 C -0.09449 0.56208 1.05431
 C126 C -0.09839 0.62120 1.10352
 C127 C -0.02934 0.53428 1.03259
 H128 H -0.01729 0.61402 1.10232
 H129 H 0.02278 0.56447 1.06028
 H130 H -0.08742 0.51238 1.00994
 H131 H -0.12722 0.56167 1.05207
 C132 C -0.07766 0.40778 0.92032
 C133 C -0.05268 0.43666 0.89974
 C134 C -0.02912 0.46459 0.92305
 C135 C -0.12099 0.35302 0.87745
 C136 C -0.05553 0.43488 0.98755
 C137 C -0.07907 0.40702 0.96427
 C138 C -0.10124 0.37829 0.89659
 C139 C -0.03058 0.46395 0.96711
 H140 H -0.05115 0.43732 0.86574
 H141 H -0.00954 0.48615 0.90657
 H142 H -0.05664 0.43362 1.02155
 H143 H -0.09811 0.38467 0.98054
 C144 C 0.07860 0.59108 0.91808
 C145 C 0.03628 0.59168 0.91583
 C146 C 0.01353 0.56346 0.93967
 C147 C 0.12143 0.64712 0.87614
 C148 C 0.07531 0.53370 0.96791
 C149 C 0.09807 0.56194 0.94406
 C150 C 0.10195 0.62131 0.89494
 C151 C 0.03290 0.53425 0.96575
 H152 H 0.02088 0.61428 0.89607
 H153 H -0.01921 0.56469 0.93807
 H154 H 0.09096 0.51209 0.98842
 H155 H 0.13079 0.56144 0.94633
 C156 C 1.07552 0.08178 0.40805
 C157 C 1.09489 0.05587 0.43733
 C158 C 1.07206 0.03216 0.46565
 C159 C 1.11878 0.12342 0.35199
 C160 C 1.01036 0.06039 0.43567
 C161 C 1.03320 0.08410 0.40737
 C162 C 1.09903 0.10478 0.37777
 C163 C 1.02965 0.03437 0.46504
 H164 H 1.12761 0.05356 0.43789
 H165 H 1.08765 0.01171 0.48736
 H166 H 0.97763 0.06203 0.43440
 H167 H 1.01788 0.10381 0.38466
 C168 C 1.07793 -0.07752 0.59239
 C169 C 1.07925 -0.03377 0.59311
 C170 C 1.05565 -0.01054 0.56508
 C171 C 1.12136 -0.12046 0.64737
 C172 C 1.02935 -0.07471 0.53531
 C173 C 1.05295 -0.09796 0.56341
 C174 C 1.10158 -0.10123 0.62202
 C175 C 1.03075 -0.03085 0.53586
 H176 H 1.09828 -0.01761 0.61554
 H177 H 1.05671 0.02330 0.56629
 H178 H 1.00978 -0.09109 0.51366
 H179 H 1.05148 -0.13181 0.56279
 C180 C 0.92195 -0.07991 0.40817
 C181 C 0.90238 -0.05402 0.43725
 C182 C 0.92504 -0.03015 0.46552
 C183 C 0.87925 -0.12220 0.35230
 C184 C 0.98694 -0.05815 0.43584
 C185 C 0.96428 -0.08201 0.40760
 C186 C 0.89868 -0.10320 0.37801
 C187 C 0.96746 -0.03219 0.46504
 H188 H 0.86965 -0.05188 0.43772
 H189 H 0.90931 -0.00975 0.48711
 H190 H 1.01968 -0.05967 0.43467
 H191 H 0.97976 -0.10171 0.38505
 C192 C 0.91906 0.07974 0.59221
 C193 C 0.94397 0.10019 0.56310
 C194 C 0.96749 0.07694 0.53498
 C195 C 0.87602 0.12263 0.64742
 C196 C 0.94117 0.01277 0.56495
 C197 C 0.91768 0.03598 0.59301
 C198 C 0.89561 0.10342 0.62195
 C199 C 0.96607 0.03308 0.53566
 H200 H 0.94549 0.13403 0.56241
 H201 H 0.98703 0.09332 0.51325
 H202 H 0.94010 -0.02107 0.56625
 H203 H 0.89871 0.01982 0.61556
 C204 C 0.40976 1.07682 0.08246
 C205 C 0.40999 1.03308 0.08464
 C206 C 0.43781 1.01013 0.06093
 C207 C 0.35373 1.11930 0.12369
 C208 C 0.46563 1.07456 0.03306
 C209 C 0.43776 1.09753 0.05678
 C210 C 0.37965 1.10020 0.10518
 C211 C 0.46578 1.03072 0.03502
 H212 H 0.38828 1.01671 0.10415
 H213 H 0.43716 0.97629 0.06238
 H214 H 0.48634 1.09113 0.01267
 H215 H 0.43760 1.13135 0.05457
 C216 C 0.58971 1.08032 -0.07703
 C217 C 0.58964 1.08232 -0.03310
 C218 C 0.56201 1.05855 -0.00998
 C219 C 0.64522 1.12195 -0.11984
 C220 C 0.53405 1.03097 -0.07462
 C221 C 0.56174 1.05474 -0.09776
 C222 C 0.61954 1.10323 -0.10060
 C223 C 0.53404 1.03278 -0.03058
 H224 H 0.61132 1.10177 -0.01671
 H225 H 0.56276 1.05991 0.02402
 H226 H 0.51334 1.01070 -0.09121
 H227 H 0.56176 1.05268 -0.13173
 C228 C 0.40992 0.92179 -0.08027
 C229 C 0.41002 0.96554 -0.08219
 C230 C 0.43773 0.98837 -0.05832
 C231 C 0.35422 0.87967 -0.12218
 C232 C 0.46572 0.92381 -0.03078
 C233 C 0.43794 0.90095 -0.05466
 C234 C 0.38000 0.89855 -0.10331
 C235 C 0.46575 0.96766 -0.03252
 H236 H 0.38831 0.98201 -0.10167
 H237 H 0.43700 1.02222 -0.05961
 H238 H 0.48649 0.90715 -0.01050
 H239 H 0.43791 0.86712 -0.05268
 C240 C 0.59028 0.91806 0.07913
 C241 C 0.59001 0.91601 0.03520
 C242 C 0.56216 0.93969 0.01220
 C243 C 0.64645 0.87685 0.12156
 C244 C 0.53435 0.96727 0.07696
 C245 C 0.56227 0.94358 0.09998
 C246 C 0.62045 0.89537 0.10253
 C247 C 0.53418 0.96544 0.03292
 H248 H 0.61172 0.89661 0.01871
 H249 H 0.56279 0.93834 -0.02180
 H250 H 0.51363 0.98751 0.09363
 H251 H 0.56244 0.94568 0.13395
   
