data_POSCAR
  _audit_creation_date              2014-09-24
  _audit_creation_method            'ToBaCCo'
  _symmetry_space_group_name_H-M    'P1'
  _symmetry_Int_Tables_number       1
  _symmetry_cell_setting            triclinic
  loop_
  _symmetry_equiv_pos_as_xyz
 x,y,z
_cell_length_a 33.7654
_cell_length_b 33.9546
_cell_length_c 44.9177
_cell_angle_alpha 90.374400
_cell_angle_beta 88.885100
_cell_angle_gamma 89.905700
loop_
  _atom_site_label
  _atom_site_type_symbol
  _atom_site_fract_x
  _atom_site_fract_y
  _atom_site_fract_z
C1 C -0.00196 0.50091 0.98613
 C2 C 0.00036 0.50131 1.01641
 C3 C -0.00124 0.53869 1.03376
 C4 C 0.00443 0.46431 1.03358
 C5 C -0.00593 0.46348 0.96914
 C6 C -0.00052 0.53783 0.96856
 C7 C 0.02885 0.54756 1.05386
 C8 C 0.02813 0.58305 1.06979
 C9 C -0.00291 0.60992 1.06600
 C10 C -0.03347 0.60086 1.04643
 C11 C -0.03273 0.56535 1.03049
 C12 C 0.03501 0.43737 1.02680
 C13 C 0.03767 0.40198 1.04236
 C14 C 0.01009 0.39339 1.06506
 C15 C -0.01985 0.42053 1.07241
 C16 C -0.02259 0.45589 1.05683
 C17 C -0.03644 0.43672 0.97604
 C18 C -0.03915 0.40106 0.96051
 C19 C -0.01169 0.39200 0.93772
 C20 C 0.01819 0.41892 0.93028
 C21 C 0.02099 0.45456 0.94583
 C22 C -0.03038 0.54588 0.94812
 C23 C -0.02963 0.58078 0.93181
 C24 C 0.00113 0.60784 0.93559
 C25 C 0.03139 0.59970 0.95551
 C26 C 0.03072 0.56477 0.97181
 H27 H 0.05323 0.52728 1.05680
 H28 H 0.05196 0.58954 1.08490
 H29 H -0.05782 0.62120 1.04334
 H30 H -0.05660 0.55870 1.01552
 H31 H 0.05657 0.44365 1.00931
 H32 H 0.06106 0.38126 1.03660
 H33 H -0.04623 0.47637 1.06249
 H34 H -0.05796 0.44340 0.99356
 H35 H -0.06253 0.38052 0.96632
 H36 H 0.03949 0.41225 0.91260
 H37 H 0.04455 0.47489 0.94006
 H38 H -0.05455 0.52538 0.94515
 H39 H -0.05311 0.58676 0.91636
 H40 H 0.05545 0.62035 0.95847
 H41 H 0.05446 0.55874 0.98700
 H42 H -0.04127 0.41420 1.08999
 C43 C 0.50037 -0.00124 0.48476
 C44 C 0.49995 -0.00135 0.51512
 C45 C 0.46235 -0.00381 0.53276
 C46 C 0.53711 0.00117 0.53221
 C47 C 0.53804 -0.00342 0.46715
 C48 C 0.46324 0.00130 0.46764
 C49 C 0.45387 0.02451 0.55490
 C50 C 0.41837 0.02290 0.57135
 C51 C 0.39110 -0.00720 0.56598
 C52 C 0.39963 -0.03596 0.54430
 C53 C 0.43518 -0.03441 0.52785
 C54 C 0.56398 0.03220 0.52752
 C55 C 0.59915 0.03387 0.54340
 C56 C 0.60760 0.00477 0.56430
 C57 C 0.58061 -0.02580 0.56945
 C58 C 0.54546 -0.02751 0.55359
 C59 C 0.56532 -0.03407 0.47155
 C60 C 0.60097 -0.03533 0.45520
 C61 C 0.60948 -0.00622 0.43410
 C62 C 0.58210 0.02393 0.42921
 C63 C 0.54649 0.02525 0.44556
 C64 C 0.45555 -0.02680 0.44542
 C65 C 0.42064 -0.02488 0.42929
 C66 C 0.39319 0.00528 0.43506
 C67 C 0.40093 0.03377 0.45685
 C68 C 0.43589 0.03194 0.47296
 H69 H 0.47452 0.04819 0.55913
 H70 H 0.41209 0.04523 0.58814
 H71 H 0.37880 -0.05949 0.54008
 H72 H 0.44149 -0.05697 0.51127
 H73 H 0.55773 0.05501 0.51153
 H74 H 0.61974 0.05776 0.53935
 H75 H 0.52501 -0.05152 0.55764
 H76 H 0.55901 -0.05689 0.48769
 H77 H 0.62188 -0.05891 0.45904
 H78 H 0.58837 0.04652 0.41287
 H79 H 0.52576 0.04897 0.44172
 H80 H 0.47638 -0.05047 0.44084
 H81 H 0.41499 -0.04697 0.41239
 H82 H 0.37998 0.05738 0.46135
 H83 H 0.44165 0.05437 0.48956
 H84 H 0.58683 -0.04840 0.58563
 C85 C 0.08779 0.00563 0.25758
 H86 H 0.08958 0.00632 0.23351
 C87 C 0.12234 0.00719 0.27412
 H88 H 0.15091 0.00893 0.26280
 C89 C 0.04838 0.00287 0.30182
 H90 H 0.01951 0.00174 0.31255
 C91 C 0.08222 0.00441 0.31921
 H92 H 0.07935 0.00406 0.34327
 N93 N 0.05178 0.00299 0.27157
 C94 C -0.02518 -0.05179 0.20632
 H95 H -0.04889 -0.03035 0.20576
 C96 C -0.02736 -0.08620 0.18921
 H97 H -0.05272 -0.09128 0.17530
 C98 C 0.03651 -0.07188 0.22560
 H99 H 0.06099 -0.06661 0.24020
 C100 C 0.03551 -0.10664 0.20884
 H101 H 0.05942 -0.12780 0.21035
 Zn102 Zn 0.00659 0.00144 0.24728
 N103 N 0.00660 -0.04512 0.22384
 C104 C 0.00825 0.04384 0.19263
 N105 N 0.00844 0.04667 0.22288
 C106 C 0.01124 0.08221 0.23686
 C107 C 0.01297 0.11686 0.22033
 C108 C 0.00992 0.07782 0.17525
 C109 C -0.04744 -0.03036 0.28866
 C110 C -0.08221 -0.03252 0.30594
 C111 C -0.10246 0.03010 0.28591
 C112 C -0.06732 0.03111 0.26901
 N113 N -0.04048 0.00131 0.27089
 H114 H 0.00694 0.01533 0.18190
 H115 H 0.01194 0.08355 0.26091
 H116 H 0.01487 0.14505 0.23165
 H117 H 0.00951 0.07541 0.15119
 H118 H -0.02593 -0.05397 0.28932
 H119 H -0.08751 -0.05776 0.32008
 H120 H -0.12368 0.05392 0.28430
 H121 H -0.06182 0.05551 0.25422
 C122 C 0.00331 -0.11382 0.19048
 C123 C 0.11951 0.00642 0.30520
 C124 C -0.10992 -0.00197 0.30454
 C125 C 0.01216 0.11462 0.18927
 C126 C -0.01134 0.08025 0.76364
 H127 H -0.01166 0.08154 0.73958
 C128 C -0.01343 0.11493 0.78046
 H129 H -0.01523 0.14310 0.76937
 C130 C -0.00899 0.04196 0.80756
 H131 H -0.00781 0.01348 0.81806
 C132 C -0.01101 0.07596 0.82523
 H133 H -0.01098 0.07361 0.84927
 N134 N -0.00868 0.04473 0.77733
 C135 C 0.04829 -0.03258 0.71133
 H136 H 0.02681 -0.05613 0.71031
 C137 C 0.08322 -0.03479 0.69421
 H138 H 0.08867 -0.06003 0.67982
 C139 C 0.06788 0.02885 0.73171
 H140 H 0.06217 0.05327 0.74670
 C141 C 0.10318 0.02777 0.71500
 H142 H 0.12434 0.05155 0.71695
 Zn143 Zn -0.00634 -0.00057 0.75255
 N144 N 0.04109 -0.00088 0.72936
 C145 C -0.04724 0.00059 0.69763
 N146 N -0.05112 0.00099 0.72786
 C147 C -0.08734 0.00389 0.74154
 C148 C -0.12162 0.00551 0.72469
 C149 C -0.08079 0.00212 0.67995
 C150 C 0.02469 -0.05360 0.79354
 C151 C 0.02661 -0.08794 0.81041
 C152 C -0.03552 -0.10864 0.78959
 C153 C -0.03632 -0.07390 0.77315
 N154 N -0.00665 -0.04705 0.77560
 H155 H -0.01822 -0.00076 0.68715
 H156 H -0.08951 0.00479 0.76560
 H157 H -0.15035 0.00752 0.73576
 H158 H -0.07753 0.00151 0.65591
 H159 H 0.04823 -0.03209 0.79466
 H160 H 0.05159 -0.09291 0.82470
 H161 H -0.05922 -0.12990 0.78751
 H162 H -0.06043 -0.06871 0.75822
 C163 C 0.11084 -0.00429 0.69605
 C164 C -0.01310 0.11274 0.81152
 C165 C -0.00381 -0.11567 0.80840
 C166 C -0.11829 0.00446 0.69362
 C167 C -0.00059 -0.21636 0.14209
 C168 C -0.03684 -0.23667 0.13877
 C169 C -0.03769 -0.27282 0.12264
 C170 C -0.00227 -0.28844 0.10993
 C171 C 0.03393 -0.26794 0.11302
 C172 C 0.03477 -0.23180 0.12914
 C173 C 0.07132 -0.21188 0.13195
 C174 C 0.10603 -0.22720 0.11918
 C175 C 0.10521 -0.26253 0.10342
 C176 C 0.06967 -0.28281 0.10031
 C177 C -0.07426 -0.29262 0.11965
 C178 C -0.10903 -0.27714 0.13224
 C179 C -0.10821 -0.24180 0.14800
 C180 C -0.07262 -0.22167 0.15131
 C181 C -0.00295 -0.32565 0.09384
 C182 C -0.00312 -0.35658 0.08050
 C183 C 0.00046 -0.17983 0.15906
 C184 C 0.00161 -0.14965 0.17330
 H185 H 0.07347 -0.18428 0.14400
 H186 H 0.13372 -0.21156 0.12153
 H187 H 0.13226 -0.27431 0.09353
 H188 H 0.07054 -0.31018 0.08783
 H189 H -0.07640 -0.32019 0.10757
 H190 H -0.13676 -0.29266 0.12973
 H191 H -0.13531 -0.22990 0.15772
 H192 H -0.07348 -0.19427 0.16375
 C193 C 0.01547 0.21680 0.14134
 C194 C 0.00647 0.21693 0.11068
 C195 C 0.00626 0.25302 0.09480
 C196 C 0.01506 0.28875 0.10969
 C197 C 0.02465 0.28854 0.14023
 C198 C 0.02485 0.25247 0.15611
 C199 C 0.03442 0.25303 0.18666
 C200 C 0.04360 0.28820 0.20109
 C201 C 0.04342 0.32347 0.18556
 C202 C 0.03406 0.32382 0.15549
 C203 C -0.00295 0.25243 0.06419
 C204 C -0.01167 0.21719 0.04967
 C205 C -0.01141 0.18191 0.06519
 C206 C -0.00249 0.18160 0.09535
 C207 C 0.01369 0.32577 0.09373
 C208 C 0.01223 0.35660 0.08063
 C209 C 0.01452 0.18017 0.15785
 C210 C 0.01353 0.15009 0.17195
 H211 H 0.03500 0.22635 0.19969
 H212 H 0.05091 0.28808 0.22445
 H213 H 0.05059 0.35071 0.19687
 H214 H 0.03435 0.35199 0.14437
 H215 H -0.00347 0.27911 0.05117
 H216 H -0.01869 0.21727 0.02627
 H217 H -0.01817 0.15461 0.05380
 H218 H -0.00264 0.15342 0.10647
 C219 C 0.21474 -0.00768 0.64750
 C220 C 0.24578 0.01824 0.65519
 C221 C 0.28192 0.01779 0.63843
 C222 C 0.28682 -0.00857 0.61407
 C223 C 0.25583 -0.03456 0.60643
 C224 C 0.21968 -0.03413 0.62320
 C225 C 0.18913 -0.06038 0.61514
 C226 C 0.19413 -0.08631 0.59118
 C227 C 0.22946 -0.08671 0.57477
 C228 C 0.26006 -0.06120 0.58220
 C229 C 0.31250 0.04402 0.64654
 C230 C 0.30752 0.06992 0.67051
 C231 C 0.27218 0.07034 0.68690
 C232 C 0.24157 0.04488 0.67944
 C233 C 0.32366 -0.00871 0.59684
 C234 C 0.35436 -0.00833 0.58269
 C235 C 0.17773 -0.00694 0.66452
 C236 C 0.14714 -0.00594 0.67880
 H237 H 0.16112 -0.06116 0.62724
 H238 H 0.17046 -0.10620 0.58532
 H239 H 0.23319 -0.10690 0.55617
 H240 H 0.28700 -0.06261 0.56878
 H241 H 0.34054 0.04480 0.63447
 H242 H 0.33121 0.08976 0.67640
 H243 H 0.26846 0.09052 0.70551
 H244 H 0.21464 0.04632 0.69287
 C245 C -0.21838 0.00673 0.64358
 C246 C -0.24266 0.04077 0.64340
 C247 C -0.27802 0.04089 0.62672
 C248 C -0.28891 0.00695 0.61034
 C249 C -0.26441 -0.02695 0.61027
 C250 C -0.22905 -0.02706 0.62693
 C251 C -0.20511 -0.06133 0.62658
 C252 C -0.21579 -0.09454 0.61022
 C253 C -0.25036 -0.09443 0.59393
 C254 C -0.27451 -0.06111 0.59387
 C255 C -0.30184 0.07523 0.62692
 C256 C -0.29105 0.10851 0.64315
 C257 C -0.25650 0.10839 0.65948
 C258 C -0.23247 0.07499 0.65969
 C259 C -0.32552 0.00667 0.59390
 C260 C -0.35599 0.00605 0.58036
 C261 C -0.18273 0.00625 0.66115
 C262 C -0.15327 0.00557 0.67589
 H263 H -0.17792 -0.06284 0.63888
 H264 H -0.19713 -0.12050 0.61020
 H265 H -0.25852 -0.12030 0.58126
 H266 H -0.30109 -0.06245 0.58083
 H267 H -0.32897 0.07676 0.61454
 H268 H -0.30961 0.13454 0.64306
 H269 H -0.24826 0.13431 0.67205
 H270 H -0.20587 0.07632 0.67271
 C271 C -0.00044 -0.21814 0.85588
 C272 C -0.02493 -0.24997 0.84743
 C273 C -0.02430 -0.28564 0.86381
 C274 C 0.00085 -0.28929 0.88850
 C275 C 0.02537 -0.25748 0.89693
 C276 C 0.02474 -0.22180 0.88055
 C277 C 0.04953 -0.19042 0.88938
 C278 C 0.07418 -0.19416 0.91373
 C279 C 0.07475 -0.22902 0.92977
 C280 C 0.05070 -0.26042 0.92156
 C281 C -0.04911 -0.31702 0.85498
 C282 C -0.07381 -0.31327 0.83067
 C283 C -0.07439 -0.27842 0.81464
 C284 C -0.05030 -0.24703 0.82282
 C285 C 0.00134 -0.32570 0.90527
 C286 C 0.00144 -0.35599 0.91911
 C287 C -0.00131 -0.18165 0.83923
 C288 C -0.00231 -0.15147 0.82527
 H289 H 0.05012 -0.16272 0.87760
 H290 H 0.09294 -0.16986 0.92019
 H291 H 0.09394 -0.23176 0.94868
 H292 H 0.05218 -0.28695 0.93472
 H293 H -0.04972 -0.34473 0.86675
 H294 H -0.09260 -0.33756 0.82423
 H295 H -0.09362 -0.27566 0.79576
 H296 H -0.05181 -0.22052 0.80965
 C297 C -0.01699 0.21499 0.86034
 C298 C -0.00770 0.21524 0.89095
 C299 C -0.00759 0.25138 0.90712
 C300 C -0.01679 0.28703 0.89258
 C301 C -0.02662 0.28670 0.86208
 C302 C -0.02671 0.25059 0.84591
 C303 C -0.03647 0.25103 0.81540
 C304 C -0.04589 0.28615 0.80128
 C305 C -0.04581 0.32146 0.81709
 C306 C -0.03630 0.32192 0.84714
 C307 C 0.00197 0.25093 0.93766
 C308 C 0.01116 0.21578 0.95183
 C309 C 0.01101 0.18045 0.93603
 C310 C 0.00171 0.18000 0.90593
 C311 C -0.01545 0.32411 0.90880
 C312 C -0.01396 0.35504 0.92206
 C313 C -0.01589 0.17833 0.84352
 C314 C -0.01473 0.14823 0.82914
 H315 H -0.03698 0.22431 0.80214
 H316 H -0.05330 0.28595 0.77794
 H317 H -0.05315 0.34866 0.80603
 H318 H -0.03667 0.35013 0.85849
 H319 H 0.00243 0.27766 0.95090
 H320 H 0.01848 0.21598 0.97518
 H321 H 0.01815 0.15323 0.94714
 H322 H 0.00196 0.15179 0.89458
 C323 C -0.21371 -0.00542 0.35316
 C324 C -0.24336 0.02303 0.34771
 C325 C -0.27955 0.02241 0.36440
 C326 C -0.28590 -0.00667 0.38643
 C327 C -0.25626 -0.03514 0.39187
 C328 C -0.22006 -0.03453 0.37517
 C329 C -0.19089 -0.06330 0.38098
 C330 C -0.19727 -0.09185 0.40269
 C331 C -0.23265 -0.09242 0.41904
 C332 C -0.26191 -0.06447 0.41378
 C333 C -0.30873 0.05120 0.35857
 C334 C -0.30235 0.07976 0.33687
 C335 C -0.26697 0.08035 0.32054
 C336 C -0.23771 0.05239 0.32580
 C337 C -0.32286 -0.00714 0.40350
 C338 C -0.35366 -0.00703 0.41752
 C339 C -0.17671 -0.00464 0.33614
 C340 C -0.14615 -0.00363 0.32184
 H341 H -0.16289 -0.06406 0.36884
 H342 H -0.17465 -0.11364 0.40686
 H343 H -0.23746 -0.11465 0.43589
 H344 H -0.28894 -0.06611 0.42706
 H345 H -0.33674 0.05197 0.37068
 H346 H -0.32498 0.10154 0.33271
 H347 H -0.26216 0.10259 0.30371
 H348 H -0.21070 0.05408 0.31252
 C349 C 0.22071 0.00853 0.35399
 C350 C 0.21958 0.02061 0.38423
 C351 C 0.25489 0.02055 0.40097
 C352 C 0.29110 0.00840 0.38737
 C353 C 0.29226 -0.00354 0.35710
 C354 C 0.25697 -0.00344 0.34036
 C355 C 0.25887 -0.01553 0.31013
 C356 C 0.29461 -0.02740 0.29685
 C357 C 0.32910 -0.02753 0.31322
 C358 C 0.32812 -0.01576 0.34300
 C359 C 0.25301 0.03268 0.43117
 C360 C 0.21727 0.04453 0.44447
 C361 C 0.18275 0.04460 0.42810
 C362 C 0.18372 0.03281 0.39832
 C363 C 0.32711 0.00778 0.40452
 C364 C 0.35716 0.00688 0.41856
 C365 C 0.18460 0.00810 0.33695
 C366 C 0.15481 0.00748 0.32259
 H367 H 0.23284 -0.01594 0.29646
 H368 H 0.29552 -0.03657 0.27371
 H369 H 0.35679 -0.03679 0.30280
 H370 H 0.35575 -0.01637 0.35481
 H371 H 0.27908 0.03314 0.44481
 H372 H 0.21636 0.05371 0.46759
 H373 H 0.15507 0.05383 0.43853
 H374 H 0.15610 0.03337 0.38650
   
