data_POSCAR
  _audit_creation_date              2014-09-24
  _audit_creation_method            'ToBaCCo'
  _symmetry_space_group_name_H-M    'P1'
  _symmetry_Int_Tables_number       1
  _symmetry_cell_setting            triclinic
  loop_
  _symmetry_equiv_pos_as_xyz
 x,y,z
_cell_length_a 38.3828
_cell_length_b 37.1745
_cell_length_c 29.4002
_cell_angle_alpha 90.275500
_cell_angle_beta 89.972100
_cell_angle_gamma 89.985900
loop_
  _atom_site_label
  _atom_site_type_symbol
  _atom_site_fract_x
  _atom_site_fract_y
  _atom_site_fract_z
Si1 Si 1.24822 0.25003 0.24876
 Si2 Si 0.75310 -0.24966 0.25106
 Si3 Si 0.75291 0.25025 -0.24920
 Si4 Si 1.24798 -0.24997 -0.25085
 Si5 Si 0.24645 0.25055 0.75122
 Si6 Si 0.75201 0.75025 0.74897
 Si7 Si 0.75123 0.25033 0.24927
 Si8 Si 0.24668 0.75047 0.25101
 O9 O 1.06319 -0.05024 0.08157
 O10 O 1.03088 -0.09105 0.04060
 C11 C 1.05471 -0.08273 0.07011
 O12 O 0.93475 0.04866 0.07775
 O13 O 0.96814 0.08905 0.03800
 C14 C 0.94312 0.08099 0.06580
 O15 O 0.93917 -0.05123 0.08308
 O16 O 0.97083 -0.09154 0.04033
 C17 C 0.94763 -0.08357 0.07078
 O18 O 1.06628 0.04944 0.07527
 O19 O 1.03128 0.08947 0.03734
 C20 C 1.05703 0.08169 0.06407
 Zr21 Zr 1.04381 -0.00048 0.05820
 O22 O 1.03882 0.00419 0.12977
 O23 O 1.09849 -0.00222 0.06615
 Zr24 Zr 0.95698 -0.00108 0.05898
 O25 O 0.96131 0.00369 0.13059
 O26 O 0.90225 -0.00504 0.06532
 O27 O 1.00068 -0.03346 0.06763
 O28 O 1.00025 0.03137 0.06660
 O29 O 1.06422 0.04850 -0.07746
 O30 O 1.03079 0.08895 -0.03737
 C31 C 1.05564 0.08086 -0.06550
 O32 O 0.93840 -0.05225 -0.07996
 O33 O 0.97080 -0.09201 -0.03788
 C34 C 0.94717 -0.08443 -0.06786
 O35 O 0.93433 0.04764 -0.07593
 O36 O 0.96788 0.08853 -0.03683
 C37 C 0.94277 0.08013 -0.06437
 O38 O 1.06154 -0.05147 -0.08125
 O39 O 1.03027 -0.09161 -0.03824
 C40 C 1.05334 -0.08374 -0.06881
 Zr41 Zr 1.04332 -0.00134 -0.05715
 O42 O 1.03988 0.00222 -0.12890
 O43 O 1.09830 -0.00452 -0.06121
 Zr44 Zr 0.95632 -0.00190 -0.05629
 O45 O 0.95937 0.00181 -0.12807
 O46 O 0.90143 -0.00611 -0.06025
 Zr47 Zr 1.00053 -0.05530 0.00120
 Zr48 Zr 0.99975 0.05296 0.00057
 O49 O 0.99957 0.03025 -0.06510
 O50 O 1.00000 -0.03431 -0.06538
 O51 O 1.05041 0.03081 0.00024
 O52 O 0.95024 -0.03251 0.00155
 O53 O 1.05047 -0.03186 0.00061
 O54 O 0.94937 0.03021 0.00121
 H55 H 1.00031 0.04855 0.09248
 H56 H 0.92930 -0.04808 0.00172
 H57 H 0.99931 0.04681 -0.09142
 H58 H 1.07152 -0.04728 0.00032
 H59 H 0.89205 0.00780 0.03917
 H60 H 0.89161 0.00982 -0.03648
 H61 H 0.96898 -0.02115 -0.13974
 H62 H 1.02993 -0.02064 -0.14035
 H63 H 1.10789 0.01251 -0.03849
 H64 H 1.10851 -0.00271 0.03522
 H65 H 1.03244 -0.01975 0.14176
 H66 H 0.97025 -0.01945 0.14233
 O67 O 0.93831 0.44932 0.41773
 O68 O 0.96981 0.40919 0.46042
 C69 C 0.94650 0.41703 0.43014
 O70 O 1.06648 0.54840 0.42231
 O71 O 1.03277 0.58939 0.46110
 C72 C 1.05804 0.58092 0.43373
 O73 O 1.06209 0.44855 0.41810
 O74 O 1.02975 0.40887 0.46040
 C75 C 1.05334 0.41640 0.43035
 O76 O 0.93487 0.54924 0.42272
 O77 O 0.96952 0.58981 0.46073
 C78 C 0.94399 0.58165 0.43375
 Zr79 Zr 0.95729 0.49957 0.44063
 O80 O 0.96314 0.50318 0.36912
 O81 O 0.90274 0.49763 0.43137
 Zr82 Zr 1.04409 0.49895 0.44151
 O83 O 1.04069 0.50267 0.36976
 O84 O 1.09892 0.49480 0.43669
 O85 O 1.00050 0.46645 0.43247
 O86 O 1.00091 0.53130 0.43267
 O87 O 0.93533 0.55059 0.57531
 O88 O 0.96919 0.59045 0.53539
 C89 C 0.94405 0.58277 0.56318
 O90 O 1.06120 0.44987 0.58139
 O91 O 1.02919 0.40952 0.53926
 C92 C 1.05254 0.41752 0.56951
 O93 O 1.06524 0.54963 0.57601
 O94 O 1.03206 0.58997 0.53593
 C95 C 1.05690 0.58193 0.56392
 O96 O 0.93780 0.45062 0.58018
 O97 O 0.96930 0.40983 0.53791
 C98 C 0.94595 0.41814 0.56810
 Zr99 Zr 0.95639 0.50045 0.55595
 O100 O 0.95896 0.50503 0.62772
 O101 O 0.90137 0.49744 0.55889
 Zr102 Zr 1.04336 0.49983 0.55691
 O103 O 1.03913 0.50466 0.62854
 O104 O 1.09815 0.49579 0.56268
 Zr105 Zr 0.99995 0.44564 0.49919
 Zr106 Zr 1.00066 0.55386 0.49843
 O107 O 1.00005 0.53215 0.56440
 O108 O 0.99961 0.46756 0.56553
 O109 O 0.95001 0.53173 0.49806
 O110 O 1.05021 0.46839 0.49949
 O111 O 0.94999 0.46912 0.49845
 O112 O 1.05102 0.53105 0.49909
 H113 H 1.00111 0.54810 0.40660
 H114 H 1.07110 0.45274 0.49981
 H115 H 1.00001 0.54912 0.59051
 H116 H 0.92885 0.45384 0.49853
 H117 H 1.10878 0.50887 0.46221
 H118 H 1.10832 0.51025 0.53788
 H119 H 1.02998 0.48163 0.64033
 H120 H 0.96883 0.48235 0.63960
 H121 H 0.89211 0.51407 0.53567
 H122 H 0.89228 0.49764 0.46206
 H123 H 0.96929 0.47897 0.35749
 H124 H 1.03144 0.47954 0.35815
 O125 O 0.54792 0.06440 0.58127
 O126 O 0.58717 0.03117 0.53952
 C127 C 0.57935 0.05545 0.56976
 O128 O 0.45129 -0.06643 0.57725
 O129 O 0.41215 -0.03233 0.53697
 C130 C 0.41994 -0.05765 0.56546
 O131 O 0.54800 -0.06307 0.58184
 O132 O 0.58702 -0.03041 0.53946
 C133 C 0.57936 -0.05427 0.57003
 O134 O 0.45103 0.06798 0.57599
 O135 O 0.41198 0.03256 0.53693
 C136 C 0.41967 0.05862 0.56478
 Zr137 Zr 0.49933 0.04518 0.55741
 O138 O 0.49512 0.04036 0.62900
 O139 O 0.50177 0.10167 0.56489
 Zr140 Zr 0.49961 -0.04476 0.55689
 O141 O 0.49547 -0.04214 0.62868
 O142 O 0.50351 -0.10151 0.55928
 O143 O 0.53103 0.00037 0.56614
 O144 O 0.46853 0.00016 0.56519
 O145 O 0.45113 0.06616 0.42108
 O146 O 0.41207 0.03195 0.46132
 C147 C 0.41979 0.05726 0.43279
 O148 O 0.54885 -0.06292 0.41748
 O149 O 0.58760 -0.02977 0.46012
 C150 C 0.58012 -0.05380 0.42945
 O151 O 0.45187 -0.06715 0.42119
 O152 O 0.41243 -0.03287 0.46122
 C153 C 0.42039 -0.05845 0.43275
 O154 O 0.54791 0.06384 0.41765
 O155 O 0.58697 0.03160 0.46041
 C156 C 0.57927 0.05533 0.42974
 Zr157 Zr 0.49953 0.04516 0.44223
 O158 O 0.49591 0.04274 0.37039
 O159 O 0.50279 0.10200 0.44035
 Zr160 Zr 0.50001 -0.04495 0.44184
 O161 O 0.49616 -0.04228 0.37005
 O162 O 0.50411 -0.10167 0.43842
 Zr163 Zr 0.55200 0.00045 0.49976
 Zr164 Zr 0.44711 -0.00004 0.49931
 O165 O 0.46901 -0.00008 0.43368
 O166 O 0.53129 0.00026 0.43328
 O167 O 0.46853 0.05229 0.49969
 O168 O 0.53000 -0.05145 0.49946
 O169 O 0.52950 0.05214 0.49993
 O170 O 0.46887 -0.05219 0.49920
 H171 H 0.45225 0.00027 0.59136
 H172 H 0.54535 -0.07289 0.49940
 H173 H 0.45303 -0.00028 0.40722
 H174 H 0.54459 0.07375 0.49998
 H175 H 0.48639 -0.11142 0.53746
 H176 H 0.48794 -0.11160 0.46132
 H177 H 0.51792 -0.03141 0.35843
 H178 H 0.51727 0.03095 0.35880
 H179 H 0.48427 0.11171 0.46034
 H180 H 0.49731 0.11186 0.53451
 H181 H 0.51814 0.03295 0.64086
 H182 H 0.51673 -0.03027 0.64043
 O183 O 0.54904 0.56458 0.08293
 O184 O 0.58776 0.53163 0.03997
 C185 C 0.58030 0.55556 0.07077
 O186 O 0.45146 0.43507 0.07879
 O187 O 0.41231 0.46971 0.03925
 C188 C 0.42009 0.44416 0.06744
 O189 O 0.54824 0.43772 0.08238
 O190 O 0.58721 0.47013 0.03963
 C191 C 0.57957 0.44633 0.07026
 O192 O 0.45214 0.56891 0.07937
 O193 O 0.41268 0.53471 0.03939
 C194 C 0.42066 0.56025 0.06786
 Zr195 Zr 0.50021 0.54646 0.05880
 O196 O 0.49641 0.54311 0.13056
 O197 O 0.50416 0.60312 0.06322
 Zr198 Zr 0.49982 0.45632 0.05790
 O199 O 0.49614 0.45851 0.12975
 O200 O 0.50336 0.39951 0.05964
 O201 O 0.53155 0.50125 0.06700
 O202 O 0.46925 0.50156 0.06684
 O203 O 0.45143 0.56805 -0.07684
 O204 O 0.41232 0.53320 -0.03751
 C205 C 0.42008 0.55884 -0.06556
 O206 O 0.54798 0.43780 -0.08186
 O207 O 0.58722 0.47004 -0.03894
 C208 C 0.57940 0.44628 -0.06982
 O209 O 0.45105 0.43488 -0.07713
 O210 O 0.41214 0.46931 -0.03639
 C211 C 0.41974 0.44381 -0.06511
 O212 O 0.54836 0.56473 -0.08122
 O213 O 0.58745 0.53169 -0.03938
 C214 C 0.57974 0.55572 -0.06970
 Zr215 Zr 0.49979 0.54660 -0.05633
 O216 O 0.49567 0.54439 -0.12814
 O217 O 0.50367 0.60338 -0.05830
 Zr218 Zr 0.49951 0.45650 -0.05700
 O219 O 0.49533 0.45945 -0.12874
 O220 O 0.50299 0.39975 -0.06075
 Zr221 Zr 0.55217 0.50134 0.00044
 Zr222 Zr 0.44731 0.50179 0.00128
 O223 O 0.46887 0.50164 -0.06460
 O224 O 0.53112 0.50144 -0.06582
 O225 O 0.46905 0.55393 0.00147
 O226 O 0.52979 0.44960 0.00022
 O227 O 0.53015 0.55322 0.00106
 O228 O 0.46863 0.44941 0.00061
 H229 H 0.45323 0.50170 0.09329
 H230 H 0.54487 0.42796 0.00004
 H231 H 0.45285 0.50155 -0.09103
 H232 H 0.54551 0.57463 0.00107
 H233 H 0.48561 0.38983 0.03852
 H234 H 0.48695 0.38993 -0.03761
 H235 H 0.51719 0.47001 -0.14050
 H236 H 0.51690 0.53251 -0.14001
 H237 H 0.48594 0.61323 -0.03725
 H238 H 0.48942 0.61316 0.03883
 H239 H 0.51850 0.53289 0.14205
 H240 H 0.51742 0.47041 0.14138
 C241 C 1.17252 0.18969 0.16263
 C242 C 1.17592 0.14899 0.16923
 C243 C 1.15081 0.12974 0.14750
 C244 C 1.12470 0.15304 0.12125
 C245 C 1.14708 0.17585 0.08906
 C246 C 1.17231 0.19520 0.11090
 C247 C 1.13537 0.19893 0.17828
 C248 C 1.11019 0.17963 0.15649
 C249 C 1.19928 0.20986 0.18720
 C250 C 1.22015 0.22592 0.21000
 C251 C 1.09816 0.13109 0.09878
 C252 C 1.07803 0.11008 0.08204
 H253 H 1.19631 0.13636 0.18915
 H254 H 1.14971 0.10058 0.14884
 H255 H 1.14339 0.17679 0.05247
 H256 H 1.19029 0.21271 0.09307
 H257 H 1.12937 0.21898 0.20411
 H258 H 1.08263 0.18311 0.16358
 C259 C 1.17227 0.68947 0.66343
 C260 C 1.13515 0.69826 0.67962
 C261 C 1.11000 0.67897 0.65778
 C262 C 1.12450 0.65287 0.62196
 C263 C 1.15095 0.62951 0.64754
 C264 C 1.17604 0.64875 0.66933
 C265 C 1.17170 0.69552 0.61180
 C266 C 1.14650 0.67619 0.58991
 C267 C 1.19901 0.70965 0.68799
 C268 C 1.21987 0.72576 0.71069
 C269 C 1.09799 0.63098 0.59938
 C270 C 1.07789 0.61010 0.58240
 H271 H 1.12916 0.71798 0.70585
 H272 H 1.08246 0.68213 0.66521
 H273 H 1.15007 0.60032 0.64841
 H274 H 1.19665 0.63609 0.68883
 H275 H 1.18944 0.71337 0.59408
 H276 H 1.14259 0.67747 0.55338
 C277 C 0.68804 0.16891 0.67512
 C278 C 0.64980 0.16902 0.69022
 C279 C 0.62984 0.14417 0.66824
 C280 C 0.64997 0.12151 0.63318
 C281 C 0.68035 0.10503 0.65986
 C282 C 0.70038 0.12995 0.68191
 C283 C 0.68689 0.17397 0.62334
 C284 C 0.66689 0.14908 0.60131
 C285 C 0.70929 0.19590 0.69914
 C286 C 0.72652 0.21794 0.71937
 C287 C 0.62749 0.09531 0.60968
 C288 C 0.60682 0.07571 0.59101
 H289 H 0.63930 0.18703 0.71598
 H290 H 0.60224 0.14094 0.67524
 H291 H 0.68571 0.07638 0.66124
 H292 H 0.72289 0.12261 0.70219
 H293 H 0.70063 0.19520 0.60553
 H294 H 0.66354 0.14898 0.56464
 C295 C 0.68887 0.66856 0.17596
 C296 C 0.65066 0.66842 0.19113
 C297 C 0.63085 0.64348 0.16916
 C298 C 0.65111 0.62100 0.13406
 C299 C 0.68160 0.60466 0.16066
 C300 C 0.70148 0.62969 0.18271
 C301 C 0.68768 0.67367 0.12420
 C302 C 0.66782 0.64867 0.10217
 C303 C 0.70989 0.69565 0.19989
 C304 C 0.72693 0.71783 0.22001
 C305 C 0.62876 0.59480 0.11059
 C306 C 0.60799 0.57538 0.09194
 H307 H 0.64007 0.68634 0.21693
 H308 H 0.60327 0.64004 0.17620
 H309 H 0.68712 0.57604 0.16200
 H310 H 0.72405 0.62249 0.20297
 H311 H 0.70129 0.69500 0.10640
 H312 H 0.66446 0.64857 0.06551
 C313 C 0.83195 -0.19105 0.16851
 C314 C 0.86880 -0.20130 0.18428
 C315 C 0.89454 -0.18211 0.16360
 C316 C 0.88080 -0.15464 0.12926
 C317 C 0.85489 -0.13130 0.15609
 C318 C 0.82925 -0.15042 0.17670
 C319 C 0.83251 -0.19566 0.11661
 C320 C 0.85827 -0.17646 0.09590
 C321 C 0.80446 -0.21100 0.19177
 C322 C 0.78275 -0.22666 0.21350
 C323 C 0.90771 -0.13279 0.10760
 C324 C 0.92760 -0.11184 0.09052
 H325 H 0.87419 -0.22190 0.20938
 H326 H 0.92197 -0.18624 0.17089
 H327 H 0.85654 -0.10220 0.15865
 H328 H 0.80893 -0.13773 0.19687
 H329 H 0.81438 -0.21252 0.09784
 H330 H 0.86226 -0.17686 0.05934
 C331 C 0.83092 0.31025 0.66776
 C332 C 0.86805 0.30025 0.68267
 C333 C 0.89339 0.31970 0.66155
 C334 C 0.87908 0.34719 0.62763
 C335 C 0.85333 0.37024 0.65514
 C336 C 0.82807 0.35085 0.67619
 C337 C 0.83091 0.30583 0.61581
 C338 C 0.85627 0.32530 0.59466
 C339 C 0.80382 0.28990 0.69146
 C340 C 0.78238 0.27387 0.71332
 C341 C 0.90570 0.36924 0.60546
 C342 C 0.92560 0.39009 0.58805
 H343 H 0.87390 0.27962 0.70755
 H344 H 0.92093 0.31577 0.66828
 H345 H 0.85481 0.39935 0.65782
 H346 H 0.80791 0.36332 0.69686
 H347 H 0.81267 0.28891 0.59733
 H348 H 0.85979 0.32505 0.55802
 C349 C 0.31223 -0.16983 0.67236
 C350 C 0.35150 -0.17467 0.67951
 C351 C 0.37120 -0.15034 0.65656
 C352 C 0.34976 -0.12346 0.62862
 C353 C 0.32451 -0.10620 0.66283
 C354 C 0.30476 -0.13060 0.68585
 C355 C 0.30707 -0.17121 0.62056
 C356 C 0.32683 -0.14681 0.59755
 C357 C 0.29131 -0.19622 0.69731
 C358 C 0.27428 -0.21789 0.71802
 C359 C 0.37194 -0.09777 0.60435
 C360 C 0.39251 -0.07828 0.58569
 H361 H 0.36287 -0.19541 0.70075
 H362 H 0.39946 -0.15027 0.65818
 H363 H 0.32228 -0.07740 0.66842
 H364 H 0.28561 -0.12269 0.71118
 H365 H 0.28944 -0.18967 0.60349
 H366 H 0.32610 -0.14436 0.56078
 C367 C 0.31249 0.33099 0.17311
 C368 C 0.35170 0.32698 0.18149
 C369 C 0.37136 0.35159 0.15894
 C370 C 0.34994 0.37791 0.13011
 C371 C 0.32377 0.39483 0.16341
 C372 C 0.30406 0.37015 0.18603
 C373 C 0.30829 0.32926 0.12119
 C374 C 0.32799 0.35393 0.09857
 C375 C 0.29160 0.30429 0.19766
 C376 C 0.27456 0.28239 0.21803
 C377 C 0.37209 0.40388 0.10619
 C378 C 0.39264 0.42352 0.08769
 H379 H 0.36307 0.30659 0.20326
 H380 H 0.39958 0.35224 0.16143
 H381 H 0.32091 0.42360 0.16868
 H382 H 0.28433 0.37780 0.21071
 H383 H 0.29130 0.31037 0.10374
 H384 H 0.32786 0.35619 0.06177
 C385 C 0.82836 0.18905 -0.16375
 C386 C 0.85830 0.17688 -0.19488
 C387 C 0.88304 0.15713 -0.17324
 C388 C 0.87549 0.15146 -0.12256
 C389 C 0.83896 0.13463 -0.12100
 C390 C 0.81421 0.15438 -0.14265
 C391 C 0.84612 0.20926 -0.12436
 C392 C 0.87096 0.18943 -0.10263
 C393 C 0.80192 0.20977 -0.18815
 C394 C 0.78117 0.22614 -0.21069
 C395 C 0.90170 0.12910 -0.10008
 C396 C 0.92168 0.10814 -0.08306
 H397 H 0.85995 0.18330 -0.23080
 H398 H 0.90590 0.14666 -0.19060
 H399 H 0.83304 0.10942 -0.10417
 H400 H 0.78710 0.14613 -0.14440
 H401 H 0.83972 0.23664 -0.11443
 H402 H 0.88588 0.19979 -0.07408
 C403 C 0.82875 0.69022 0.33665
 C404 C 0.86602 0.70116 0.32354
 C405 C 0.89114 0.68158 0.34483
 C406 C 0.87646 0.65305 0.37706
 C407 C 0.85172 0.63030 0.34771
 C408 C 0.82667 0.64982 0.32649
 C409 C 0.82744 0.69336 0.38871
 C410 C 0.85261 0.67374 0.41004
 C411 C 0.80204 0.71064 0.31257
 C412 C 0.78118 0.72672 0.28997
 C413 C 0.90293 0.63086 0.39903
 C414 C 0.92300 0.60984 0.41558
 H415 H 0.87212 0.72250 0.29973
 H416 H 0.91876 0.68610 0.33933
 H417 H 0.85369 0.60129 0.34395
 H418 H 0.80718 0.63758 0.30459
 H419 H 0.80853 0.70954 0.40712
 H420 H 0.85531 0.67312 0.44678
 C421 C 0.31216 0.16992 0.32633
 C422 C 0.31241 0.13243 0.30413
 C423 C 0.33210 0.10790 0.32697
 C424 C 0.34959 0.12326 0.36979
 C425 C 0.31972 0.13903 0.39833
 C426 C 0.30001 0.16358 0.37547
 C427 C 0.35062 0.18052 0.33038
 C428 C 0.37027 0.15604 0.35317
 C429 C 0.29129 0.19645 0.30144
 C430 C 0.27434 0.21814 0.28059
 C431 C 0.37175 0.09740 0.39391
 C432 C 0.39231 0.07783 0.41250
 H433 H 0.29831 0.12573 0.27323
 H434 H 0.33484 0.08021 0.31566
 H435 H 0.31448 0.13156 0.43333
 H436 H 0.27789 0.17715 0.39090
 H437 H 0.36150 0.20513 0.31659
 H438 H 0.39799 0.15974 0.35889
 C439 C 0.31210 0.67054 -0.17279
 C440 C 0.33138 0.64389 -0.20387
 C441 C 0.35114 0.61959 -0.18087
 C442 C 0.34971 0.62427 -0.12899
 C443 C 0.31085 0.62258 -0.11686
 C444 C 0.29104 0.64694 -0.13993
 C445 C 0.34056 0.68784 -0.14337
 C446 C 0.36031 0.66355 -0.12037
 C447 C 0.29115 0.69684 -0.19786
 C448 C 0.27414 0.71836 -0.21885
 C449 C 0.37196 0.59865 -0.10470
 C450 C 0.39258 0.57926 -0.08598
 H451 H 0.32962 0.64405 -0.24073
 H452 H 0.36628 0.59892 -0.19804
 H453 H 0.29989 0.60395 -0.09240
 H454 H 0.26307 0.64918 -0.13520
 H455 H 0.34479 0.71665 -0.14075
 H456 H 0.38146 0.67160 -0.09802
 C457 C 1.16922 -0.19067 -0.16819
 C458 C 1.17246 -0.14991 -0.17431
 C459 C 1.14678 -0.13098 -0.15327
 C460 C 1.12030 -0.15462 -0.12813
 C461 C 1.14219 -0.17746 -0.09542
 C462 C 1.16799 -0.19649 -0.11656
 C463 C 1.13246 -0.20009 -0.18519
 C464 C 1.10669 -0.18110 -0.16408
 C465 C 1.19672 -0.21048 -0.19183
 C466 C 1.21841 -0.22624 -0.21365
 C467 C 1.09335 -0.13295 -0.10605
 C468 C 1.07342 -0.11206 -0.08870
 H469 H 1.19316 -0.13702 -0.19342
 H470 H 1.14548 -0.10181 -0.15439
 H471 H 1.13775 -0.17868 -0.05898
 H472 H 1.18572 -0.21398 -0.09828
 H473 H 1.12715 -0.22003 -0.21140
 H474 H 1.07930 -0.18473 -0.17209
 C475 C 1.16924 0.30910 0.33150
 C476 C 1.13385 0.30666 0.30726
 C477 C 1.10809 0.32567 0.32831
 C478 C 1.12028 0.34519 0.37150
 C479 C 1.15125 0.36837 0.35632
 C480 C 1.17695 0.34942 0.33532
 C481 C 1.16211 0.29676 0.38041
 C482 C 1.13629 0.31581 0.40152
 C483 C 1.19678 0.28928 0.30788
 C484 C 1.21852 0.27357 0.28606
 C485 C 1.09330 0.36690 0.39354
 C486 C 1.07335 0.38787 0.41077
 H487 H 1.12941 0.29124 0.27633
 H488 H 1.08158 0.32656 0.31550
 H489 H 1.15289 0.39724 0.36173
 H490 H 1.20059 0.36198 0.32275
 H491 H 1.17605 0.27504 0.39694
 H492 H 1.12806 0.31042 0.43616
 C493 C 0.68865 -0.16710 0.32455
 C494 C 0.69712 -0.12820 0.31092
 C495 C 0.67724 -0.10307 0.33283
 C496 C 0.65090 -0.11935 0.36618
 C497 C 0.67269 -0.14267 0.39841
 C498 C 0.69254 -0.16777 0.37652
 C499 C 0.64949 -0.17131 0.31583
 C500 C 0.62968 -0.14626 0.33767
 C501 C 0.70968 -0.19432 0.30084
 C502 C 0.72677 -0.21670 0.28112
 C503 C 0.62856 -0.09307 0.38955
 C504 C 0.60781 -0.07361 0.40821
 H505 H 0.71700 -0.12104 0.28629
 H506 H 0.68009 -0.07441 0.32700
 H507 H 0.67260 -0.13967 0.43516
 H508 H 0.70945 -0.18629 0.39452
 H509 H 0.63828 -0.19214 0.29436
 H510 H 0.60148 -0.14567 0.33485
 C511 C 0.68793 0.33232 -0.17485
 C512 C 0.69583 0.37124 -0.18897
 C513 C 0.67583 0.39628 -0.16707
 C514 C 0.64991 0.37996 -0.13318
 C515 C 0.67222 0.35710 -0.10102
 C516 C 0.69220 0.33207 -0.12291
 C517 C 0.64874 0.32762 -0.18298
 C518 C 0.62880 0.35259 -0.16113
 C519 C 0.70917 0.30518 -0.19864
 C520 C 0.72642 0.28296 -0.21854
 C521 C 0.62747 0.40628 -0.10978
 C522 C 0.60684 0.42596 -0.09112
 H523 H 0.71543 0.37848 -0.21394
 H524 H 0.67831 0.42494 -0.17325
 H525 H 0.67238 0.36034 -0.06430
 H526 H 0.70945 0.31388 -0.10492
 H527 H 0.63759 0.30651 -0.20407
 H528 H 0.60057 0.35282 -0.16358
 C529 C 1.17059 0.18911 -0.16437
 C530 C 1.17440 0.14842 -0.17121
 C531 C 1.14937 0.12898 -0.14977
 C532 C 1.12290 0.15208 -0.12353
 C533 C 1.10831 0.17841 -0.15870
 C534 C 1.13340 0.19790 -0.18020
 C535 C 1.17006 0.19478 -0.11260
 C536 C 1.14492 0.17525 -0.09106
 C537 C 1.19731 0.20957 -0.18855
 C538 C 1.21821 0.22593 -0.21085
 C539 C 1.09644 0.12999 -0.10120
 C540 C 1.07643 0.10905 -0.08422
 H541 H 1.19501 0.13594 -0.19108
 H542 H 1.14855 0.09979 -0.15131
 H543 H 1.08075 0.18156 -0.16597
 H544 H 1.12733 0.21778 -0.20595
 H545 H 1.18778 0.21254 -0.09452
 H546 H 1.14107 0.17627 -0.05449
 C547 C 1.17296 0.68942 0.33393
 C548 C 1.17681 0.64876 0.32672
 C549 C 1.15204 0.62910 0.34844
 C550 C 1.12574 0.65197 0.37531
 C551 C 1.11076 0.67844 0.34058
 C552 C 1.13559 0.69814 0.31882
 C553 C 1.17289 0.69480 0.38576
 C554 C 1.14802 0.67507 0.40756
 C555 C 1.19942 0.71018 0.30944
 C556 C 1.22004 0.72681 0.28691
 C557 C 1.09943 0.62971 0.39794
 C558 C 1.07931 0.60888 0.41505
 H559 H 1.19725 0.63644 0.30640
 H560 H 1.15130 0.59993 0.34667
 H561 H 1.08313 0.68154 0.33377
 H562 H 1.12919 0.71812 0.29333
 H563 H 1.19073 0.71253 0.40369
 H564 H 1.14454 0.67590 0.44420
 C565 C 0.68700 0.16887 0.32453
 C566 C 0.69534 0.12988 0.31069
 C567 C 0.67561 0.10488 0.33276
 C568 C 0.64949 0.12133 0.36649
 C569 C 0.62810 0.14812 0.33833
 C570 C 0.64777 0.17305 0.31633
 C571 C 0.69125 0.16981 0.37647
 C572 C 0.67153 0.14483 0.39853
 C573 C 0.70792 0.19593 0.30053
 C574 C 0.72495 0.21801 0.28038
 C575 C 0.62730 0.09508 0.39000
 C576 C 0.60674 0.07548 0.40863
 H577 H 0.71504 0.12256 0.28581
 H578 H 0.67842 0.07619 0.32680
 H579 H 0.59988 0.14755 0.33587
 H580 H 0.63641 0.19378 0.29509
 H581 H 0.70828 0.18841 0.39434
 H582 H 0.67170 0.14203 0.43527
 C583 C 0.68775 0.66862 -0.17583
 C584 C 0.69590 0.62957 -0.18965
 C585 C 0.67611 0.60467 -0.16747
 C586 C 0.65013 0.62125 -0.13365
 C587 C 0.62879 0.64811 -0.16178
 C588 C 0.64851 0.67294 -0.18388
 C589 C 0.69210 0.66957 -0.12391
 C590 C 0.67233 0.64468 -0.10175
 C591 C 0.70874 0.69562 -0.19993
 C592 C 0.72577 0.71772 -0.22007
 C593 C 0.62787 0.59510 -0.10998
 C594 C 0.60727 0.57564 -0.09113
 H595 H 0.71552 0.62215 -0.21459
 H596 H 0.67880 0.57596 -0.17341
 H597 H 0.60056 0.64766 -0.16414
 H598 H 0.63718 0.69370 -0.20511
 H599 H 0.70925 0.68811 -0.10612
 H600 H 0.67258 0.64191 -0.06500
 C601 C 0.83105 -0.19128 -0.16742
 C602 C 0.86786 -0.20116 -0.18391
 C603 C 0.89366 -0.18226 -0.16273
 C604 C 0.88007 -0.15539 -0.12719
 C605 C 0.85773 -0.17780 -0.09449
 C606 C 0.83190 -0.19673 -0.11570
 C607 C 0.82825 -0.15053 -0.17399
 C608 C 0.85396 -0.13169 -0.15289
 C609 C 0.80346 -0.21100 -0.19120
 C610 C 0.78170 -0.22657 -0.21319
 C611 C 0.90711 -0.13379 -0.10497
 C612 C 0.92711 -0.11292 -0.08759
 H613 H 0.87318 -0.22131 -0.20985
 H614 H 0.92106 -0.18618 -0.17047
 H615 H 0.86188 -0.17879 -0.05799
 H616 H 0.81389 -0.21392 -0.09740
 H617 H 0.80780 -0.13756 -0.19348
 H618 H 0.85553 -0.10255 -0.15436
 C619 C 0.83000 0.30959 0.33220
 C620 C 0.86678 0.30014 0.31521
 C621 C 0.89253 0.31933 0.33605
 C622 C 0.87892 0.34602 0.37179
 C623 C 0.85709 0.32334 0.40477
 C624 C 0.83131 0.30412 0.38390
 C625 C 0.82670 0.35031 0.32569
 C626 C 0.85237 0.36944 0.34647
 C627 C 0.80250 0.28956 0.30875
 C628 C 0.78081 0.27374 0.28693
 C629 C 0.90594 0.36786 0.39360
 C630 C 0.92606 0.38875 0.41066
 H631 H 0.87212 0.28006 0.28918
 H632 H 0.91991 0.31572 0.32795
 H633 H 0.86154 0.32239 0.44121
 H634 H 0.81363 0.28673 0.40241
 H635 H 0.80595 0.36305 0.30650
 H636 H 0.85360 0.39860 0.34503
 C637 C 0.31103 -0.17144 0.32667
 C638 C 0.29595 -0.13312 0.32722
 C639 C 0.31622 -0.10875 0.34988
 C640 C 0.34962 -0.12505 0.36981
 C641 C 0.36794 -0.14311 0.32922
 C642 C 0.34772 -0.16741 0.30662
 C643 C 0.31688 -0.18070 0.37694
 C644 C 0.33713 -0.15635 0.39959
 C645 C 0.28946 -0.19783 0.30193
 C646 C 0.27195 -0.21939 0.28118
 C647 C 0.37232 -0.09924 0.39383
 C648 C 0.39300 -0.07952 0.41239
 H649 H 0.27147 -0.12580 0.31125
 H650 H 0.30910 -0.08061 0.35332
 H651 H 0.39453 -0.13726 0.31906
 H652 H 0.35702 -0.18233 0.27719
 H653 H 0.30601 -0.20428 0.39334
 H654 H 0.34356 -0.15910 0.43536
 C655 C 0.31118 0.33089 -0.17140
 C656 C 0.35040 0.32615 -0.17927
 C657 C 0.37028 0.35060 -0.15647
 C658 C 0.34908 0.37753 -0.12791
 C659 C 0.32648 0.35418 -0.09666
 C660 C 0.30655 0.32967 -0.11952
 C661 C 0.30352 0.37010 -0.18441
 C662 C 0.32345 0.39461 -0.16155
 C663 C 0.29003 0.30436 -0.19630
 C664 C 0.27285 0.28263 -0.21710
 C665 C 0.37148 0.40341 -0.10376
 C666 C 0.39216 0.42305 -0.08522
 H667 H 0.36161 0.30539 -0.20088
 H668 H 0.39852 0.35073 -0.15860
 H669 H 0.32610 0.35672 -0.05986
 H670 H 0.28912 0.31121 -0.10228
 H671 H 0.28411 0.37791 -0.20934
 H672 H 0.32110 0.42339 -0.16688
 C673 C 1.17037 -0.18991 0.17034
 C674 C 1.13338 -0.19856 0.18710
 C675 C 1.10797 -0.17930 0.16584
 C676 C 1.12204 -0.15330 0.12990
 C677 C 1.14375 -0.17679 0.09738
 C678 C 1.16919 -0.19608 0.11868
 C679 C 1.17416 -0.14913 0.17641
 C680 C 1.14882 -0.12993 0.15520
 C681 C 1.19754 -0.21018 0.19418
 C682 C 1.21889 -0.22640 0.21604
 C683 C 1.09526 -0.13145 0.10755
 C684 C 1.07521 -0.11075 0.09005
 H685 H 1.12766 -0.21818 0.21331
 H686 H 1.08052 -0.18240 0.17378
 H687 H 1.13947 -0.17820 0.06092
 H688 H 1.18672 -0.21399 0.10048
 H689 H 1.19498 -0.13643 0.19563
 H690 H 1.14796 -0.10074 0.15631
 C691 C 1.16777 0.31047 0.66938
 C692 C 1.13085 0.30079 0.68550
 C693 C 1.10523 0.31988 0.66444
 C694 C 1.11910 0.34672 0.62939
 C695 C 1.14143 0.32421 0.59650
 C696 C 1.16707 0.30510 0.61758
 C697 C 1.17077 0.35119 0.67658
 C698 C 1.14523 0.37022 0.65558
 C699 C 1.19517 0.29049 0.69291
 C700 C 1.21681 0.27455 0.71448
 C701 C 1.09227 0.36845 0.60722
 C702 C 1.07244 0.38927 0.58968
 H703 H 1.12533 0.28063 0.71112
 H704 H 1.07778 0.31612 0.67195
 H705 H 1.13740 0.32330 0.55996
 H706 H 1.18505 0.28783 0.59914
 H707 H 1.19121 0.36400 0.69638
 H708 H 1.14380 0.39937 0.65746
 C709 C 0.68745 -0.16748 0.67540
 C710 C 0.64847 -0.17007 0.68632
 C711 C 0.62872 -0.14517 0.66439
 C712 C 0.64978 -0.11997 0.63356
 C713 C 0.66989 -0.14514 0.60135
 C714 C 0.68968 -0.17009 0.62333
 C715 C 0.69742 -0.12840 0.68674
 C716 C 0.67761 -0.10342 0.66474
 C717 C 0.70848 -0.19458 0.69922
 C718 C 0.72559 -0.21684 0.71896
 C719 C 0.62750 -0.09376 0.61005
 C720 C 0.60690 -0.07425 0.59132
 H721 H 0.63733 -0.18974 0.70931
 H722 H 0.60066 -0.14356 0.66867
 H723 H 0.66876 -0.14344 0.56452
 H724 H 0.70547 -0.18976 0.60530
 H725 H 0.71824 -0.12102 0.70996
 H726 H 0.68147 -0.07469 0.66910
 C727 C 0.68713 0.33255 0.17520
 C728 C 0.64789 0.32848 0.18341
 C729 C 0.62829 0.35349 0.16148
 C730 C 0.64976 0.38026 0.13337
 C731 C 0.67176 0.35675 0.10127
 C732 C 0.69140 0.33168 0.12326
 C733 C 0.69555 0.37150 0.18913
 C734 C 0.67590 0.39659 0.16713
 C735 C 0.70798 0.30536 0.19906
 C736 C 0.72496 0.28309 0.21892
 C737 C 0.62764 0.40659 0.10991
 C738 C 0.60709 0.42621 0.09130
 H739 H 0.63647 0.30776 0.20462
 H740 H 0.60007 0.35415 0.16396
 H741 H 0.67196 0.35961 0.06454
 H742 H 0.70840 0.31306 0.10534
 H743 H 0.71526 0.37872 0.21403
 H744 H 0.67876 0.42527 0.17316
 C745 C 0.82731 0.18958 0.16378
 C746 C 0.82347 0.14892 0.17035
 C747 C 0.84858 0.12937 0.14898
 C748 C 0.87516 0.15236 0.12307
 C749 C 0.88960 0.17882 0.15850
 C750 C 0.86442 0.19841 0.17992
 C751 C 0.82804 0.19505 0.11205
 C752 C 0.85327 0.17541 0.09058
 C753 C 0.80050 0.21009 0.18798
 C754 C 0.77954 0.22632 0.21053
 C755 C 0.90174 0.13017 0.10087
 C756 C 0.92193 0.10918 0.08412
 H757 H 0.80278 0.13652 0.19001
 H758 H 0.84939 0.10019 0.15036
 H759 H 0.91712 0.18199 0.16598
 H760 H 0.87039 0.21840 0.20582
 H761 H 0.81040 0.21275 0.09396
 H762 H 0.85728 0.17629 0.05404
 C763 C 0.82829 0.69059 0.66239
 C764 C 0.82499 0.64987 0.66885
 C765 C 0.85019 0.63070 0.64711
 C766 C 0.87631 0.65407 0.62096
 C767 C 0.89068 0.68064 0.65631
 C768 C 0.86541 0.69987 0.67811
 C769 C 0.82860 0.69618 0.61067
 C770 C 0.85392 0.67691 0.58881
 C771 C 0.80137 0.71069 0.68700
 C772 C 0.78035 0.72660 0.70985
 C773 C 0.90297 0.63217 0.59840
 C774 C 0.92313 0.61121 0.58148
 H775 H 0.80460 0.63716 0.68871
 H776 H 0.85136 0.60153 0.64838
 H777 H 0.91821 0.68415 0.66347
 H778 H 0.87132 0.71987 0.70402
 H779 H 0.81061 0.71368 0.59284
 H780 H 0.85765 0.67791 0.55223
 C781 C 0.31108 0.17119 0.67192
 C782 C 0.30355 0.13190 0.68461
 C783 C 0.32349 0.10756 0.66145
 C784 C 0.34902 0.12488 0.62784
 C785 C 0.37020 0.15170 0.65654
 C786 C 0.35031 0.17598 0.67964
 C787 C 0.30634 0.17270 0.62007
 C788 C 0.32629 0.14835 0.59690
 C789 C 0.28992 0.19751 0.69723
 C790 C 0.27277 0.21898 0.71852
 C791 C 0.37143 0.09914 0.60344
 C792 C 0.39211 0.07952 0.58482
 H793 H 0.28420 0.12391 0.70954
 H794 H 0.32121 0.07875 0.66651
 H795 H 0.39845 0.15163 0.65852
 H796 H 0.36151 0.19665 0.70136
 H797 H 0.28883 0.19121 0.60308
 H798 H 0.32584 0.14601 0.56008
 C799 C 0.31110 0.67304 0.17422
 C800 C 0.30487 0.63385 0.18849
 C801 C 0.32519 0.60957 0.16576
 C802 C 0.34980 0.62680 0.13092
 C803 C 0.37057 0.65490 0.15815
 C804 C 0.35029 0.67912 0.18083
 C805 C 0.30567 0.67318 0.12245
 C806 C 0.32600 0.64889 0.09970
 C807 C 0.28946 0.69932 0.19912
 C808 C 0.27194 0.72071 0.22015
 C809 C 0.37257 0.60106 0.10684
 C810 C 0.39328 0.58136 0.08825
 H811 H 0.28609 0.62586 0.21415
 H812 H 0.32379 0.58084 0.17195
 H813 H 0.39883 0.65570 0.15949
 H814 H 0.36119 0.70060 0.20153
 H815 H 0.28742 0.69076 0.10518
 H816 H 0.32513 0.64569 0.06300
   
