data_POSCAR
  _audit_creation_date              2014-09-24
  _audit_creation_method            'ToBaCCo'
  _symmetry_space_group_name_H-M    'P1'
  _symmetry_Int_Tables_number       1
  _symmetry_cell_setting            triclinic
  loop_
  _symmetry_equiv_pos_as_xyz
 x,y,z
_cell_length_a 49.1324
_cell_length_b 26.2327
_cell_length_c 20.3818
_cell_angle_alpha 90.328300
_cell_angle_beta 89.759800
_cell_angle_gamma 89.967400
loop_
  _atom_site_label
  _atom_site_type_symbol
  _atom_site_fract_x
  _atom_site_fract_y
  _atom_site_fract_z
O1 O 0.72223 0.28034 0.43704
 O2 O 0.76584 0.21139 0.54998
 O3 O 0.72302 0.27084 0.56379
 O4 O 0.76855 0.23310 0.42650
 O5 O 0.79043 0.30616 0.43710
 O6 O 0.74638 0.34211 0.57419
 O7 O 0.79068 0.28044 0.56455
 O8 O 0.74532 0.35165 0.45215
 Cu9 Cu 0.74256 0.24192 0.49318
 Cu10 Cu 0.77121 0.32559 0.51045
 C11 C 0.72588 0.32724 0.42533
 C12 C 0.78623 0.23332 0.57509
 C13 C 0.72645 0.31429 0.59097
 C14 C 0.78718 0.26371 0.40817
 O15 O 0.25113 0.87970 0.57454
 O16 O 0.29744 0.83991 0.44138
 O17 O 0.24783 0.87750 0.44958
 O18 O 0.29928 0.83778 0.57047
 O19 O 0.28123 0.76085 0.57138
 O20 O 0.23065 0.79969 0.44863
 O21 O 0.27989 0.76261 0.44365
 O22 O 0.23305 0.80283 0.57547
 Cu23 Cu 0.27599 0.86626 0.50851
 Cu24 Cu 0.25459 0.77371 0.50992
 C25 C 0.23357 0.84859 0.59658
 C26 C 0.29667 0.79443 0.41983
 C27 C 0.23004 0.84574 0.42997
 C28 C 0.29885 0.79239 0.59210
 O29 O 0.27227 0.24143 -0.57321
 O30 O 0.21978 0.20737 -0.44918
 O31 O 0.26458 0.26325 -0.44953
 O32 O 0.22459 0.19998 -0.57514
 O33 O 0.24496 0.12650 -0.55734
 O34 O 0.28740 0.19238 -0.43211
 O35 O 0.24118 0.13423 -0.43489
 O36 O 0.29150 0.16638 -0.55908
 Cu37 Cu 0.24335 0.23531 -0.51287
 Cu38 Cu 0.26894 0.14906 -0.49145
 C39 C 0.29060 0.20884 -0.58835
 C40 C 0.22110 0.16328 -0.42337
 C41 C 0.28357 0.23974 -0.42103
 C42 C 0.22737 0.15293 -0.58805
 O43 O -0.29511 0.77118 -0.43782
 O44 O -0.24852 0.83638 -0.55464
 O45 O -0.29582 0.79770 -0.56457
 O46 O -0.24959 0.82893 -0.43195
 O47 O -0.22705 0.75692 -0.44636
 O48 O -0.27659 0.72227 -0.57741
 O49 O -0.22852 0.76240 -0.57306
 O50 O -0.27186 0.70022 -0.45262
 Cu51 Cu -0.27498 0.81430 -0.49380
 Cu52 Cu -0.24909 0.72807 -0.51328
 C53 C -0.29151 0.72394 -0.42630
 C54 C -0.23040 0.80976 -0.58411
 C55 C -0.29431 0.75526 -0.59426
 C56 C -0.22949 0.80058 -0.41888
 N57 N 0.02347 1.07763 -0.06097
 N58 N 0.04349 1.11049 -0.07066
 N59 N -0.03404 1.04005 -0.10276
 N60 N -0.05288 1.05154 -0.14642
 N61 N -0.03353 1.07458 -0.05584
 N62 N -0.05176 1.11042 -0.06642
 N63 N 0.02324 1.04293 -0.10763
 N64 N 0.04316 1.05080 -0.14980
 C65 C 0.05564 1.09304 -0.12635
 C66 C -0.06395 1.09530 -0.12255
 N67 N -0.03028 0.89205 -0.06587
 N68 N -0.04925 0.85748 -0.07763
 N69 N 0.02546 0.93367 -0.11284
 N70 N 0.04627 0.93116 -0.15389
 N71 N 0.02667 0.89652 -0.06999
 N72 N 0.04800 0.86715 -0.08149
 N73 N -0.03198 0.92961 -0.10804
 N74 N -0.05230 0.92194 -0.14900
 Mn75 Mn -0.00443 0.98650 -0.10859
 C76 C -0.06294 0.87690 -0.12943
 C77 C 0.06003 0.88937 -0.13386
 N78 N -0.03216 1.07042 0.08519
 N79 N -0.05426 1.09831 0.09554
 N80 N 0.02642 1.03657 0.12317
 N81 N 0.04850 1.04093 0.15940
 N82 N 0.02511 1.07368 0.08041
 N83 N 0.04601 1.10479 0.08697
 N84 N -0.03095 1.03300 0.12752
 N85 N -0.05212 1.03398 0.16726
 Mn86 Mn -0.00427 1.07469 0.01234
 C87 C -0.06643 1.07495 0.14715
 C88 C 0.06042 1.08377 0.13639
 N89 N 0.02884 0.89309 0.07189
 N90 N 0.05085 0.86428 0.07825
 N91 N -0.02907 0.92398 0.12177
 N92 N -0.05020 0.91769 0.16092
 N93 N -0.02861 0.88876 0.07575
 N94 N -0.04934 0.85716 0.08280
 N95 N 0.02803 0.92790 0.11833
 N96 N 0.04923 0.92408 0.15707
 Mn97 Mn -0.00079 0.89186 0.00293
 Mn98 Mn -0.00142 0.98036 0.12335
 Cl99 Cl -0.00277 0.98333 0.00734
 C100 C 0.06336 0.88435 0.13191
 C101 C -0.06258 0.87577 0.13628
 N102 N 0.52150 0.57982 -0.06242
 N103 N 0.53931 0.61620 -0.07446
 N104 N 0.46574 0.53801 -0.10806
 N105 N 0.44563 0.54198 -0.15023
 N106 N 0.46453 0.57472 -0.06393
 N107 N 0.44370 0.60531 -0.07593
 N108 N 0.52305 0.54369 -0.10717
 N109 N 0.54225 0.55441 -0.15055
 C110 C 0.55231 0.59967 -0.12919
 C111 C 0.43205 0.58400 -0.12979
 N112 N 0.46923 0.39294 -0.06260
 N113 N 0.45178 0.35610 -0.07522
 N114 N 0.52584 0.43358 -0.10648
 N115 N 0.54598 0.42704 -0.14873
 N116 N 0.52596 0.39743 -0.06213
 N117 N 0.54589 0.36475 -0.07374
 N118 N 0.46837 0.42813 -0.10810
 N119 N 0.44986 0.41636 -0.15261
 Mn120 Mn 0.49578 0.48589 -0.10824
 C121 C 0.43962 0.37141 -0.13105
 C122 C 0.55833 0.38409 -0.12750
 N123 N 0.46405 0.57566 0.07892
 N124 N 0.44297 0.60610 0.08964
 N125 N 0.52200 0.54359 0.12354
 N126 N 0.54449 0.54549 0.15816
 N127 N 0.52166 0.57976 0.07922
 N128 N 0.54412 0.60760 0.08319
 N129 N 0.46488 0.53956 0.12316
 N130 N 0.44433 0.54381 0.16443
 Mn131 Mn 0.49285 0.57825 0.00803
 C132 C 0.43081 0.58532 0.14310
 C133 C 0.55798 0.58571 0.13322
 N134 N 0.52534 0.39870 0.07909
 N135 N 0.54724 0.37020 0.08631
 N136 N 0.46712 0.43100 0.12285
 N137 N 0.44467 0.42815 0.15806
 N138 N 0.46799 0.39445 0.07863
 N139 N 0.44616 0.36512 0.08336
 N140 N 0.52445 0.43473 0.12389
 N141 N 0.54581 0.43192 0.16273
 Mn142 Mn 0.49714 0.39532 0.00839
 Mn143 Mn 0.49462 0.48724 0.12395
 Cl144 Cl 0.49508 0.48674 0.00781
 C145 C 0.55980 0.39139 0.13880
 C146 C 0.43195 0.38674 0.13346
 C147 C 0.31159 0.26807 0.33391
 C148 C 0.33274 0.27985 0.28993
 C149 C 0.35235 0.24238 0.27340
 C150 C 0.35027 0.19359 0.30026
 C151 C 0.32961 0.18246 0.34506
 C152 C 0.31023 0.21969 0.36334
 C153 C 0.37430 0.25472 0.23224
 C154 C 0.37751 0.30467 0.20948
 C155 C 0.35772 0.34206 0.22550
 C156 C 0.33520 0.32914 0.26442
 C157 C 0.36146 0.39243 0.20491
 C158 C 0.38529 0.40620 0.17213
 C159 C 0.40533 0.36969 0.15770
 C160 C 0.40098 0.31857 0.17421
 H161 H 0.29690 0.29731 0.34704
 H162 H 0.36506 0.16435 0.28799
 H163 H 0.32911 0.14459 0.36594
 H164 H 0.38950 0.22608 0.22037
 H165 H 0.32026 0.35803 0.27727
 H166 H 0.34653 0.42156 0.21656
 H167 H 0.38839 0.44572 0.15908
 H168 H 0.41666 0.29054 0.16380
 C169 C -0.19400 0.80121 0.33509
 C170 C -0.17321 0.82258 0.29704
 C171 C -0.16957 0.87597 0.29682
 C172 C -0.18789 0.90720 0.33157
 C173 C -0.20895 0.88560 0.36859
 C174 C -0.21166 0.83228 0.37265
 C175 C -0.14736 0.89704 0.26304
 C176 C -0.12903 0.86528 0.22902
 C177 C -0.13363 0.81212 0.22621
 C178 C -0.15563 0.79108 0.26054
 C179 C -0.11579 0.78079 0.19014
 C180 C -0.09309 0.80174 0.15878
 C181 C -0.08766 0.85405 0.16420
 C182 C -0.10587 0.88569 0.19864
 H183 H -0.19605 0.76005 0.33612
 H184 H -0.18560 0.94828 0.33120
 H185 H -0.22229 0.91065 0.39634
 H186 H -0.14408 0.93791 0.26417
 H187 H -0.15875 0.75014 0.25987
 H188 H -0.11919 0.74004 0.18697
 H189 H -0.07928 0.77684 0.13219
 H190 H -0.10189 0.92614 0.20213
 C191 C 0.68225 0.69468 0.32844
 C192 C 0.66129 0.68413 0.28356
 C193 C 0.64434 0.72405 0.26134
 C194 C 0.64913 0.77400 0.28279
 C195 C 0.66965 0.78404 0.32814
 C196 C 0.68606 0.74447 0.35247
 C197 C 0.62222 0.71321 0.22018
 C198 C 0.61626 0.66270 0.20259
 C199 C 0.63365 0.62292 0.22354
 C200 C 0.65627 0.63398 0.26289
 C201 C 0.62740 0.57235 0.20745
 C202 C 0.60330 0.56099 0.17468
 C203 C 0.58533 0.59992 0.15607
 C204 C 0.59238 0.65095 0.16772
 H205 H 0.69473 0.66384 0.34679
 H206 H 0.63647 0.80512 0.26605
 H207 H 0.67231 0.82289 0.34522
 H208 H 0.60895 0.74378 0.20430
 H209 H 0.66923 0.60328 0.27983
 H210 H 0.64053 0.54142 0.22266
 H211 H 0.59825 0.52146 0.16530
 H212 H 0.57839 0.68100 0.15396
 C213 C 0.19150 1.16140 0.33095
 C214 C 0.17169 1.13973 0.29054
 C215 C 0.17042 1.08627 0.28295
 C216 C 0.19031 1.05575 0.31255
 C217 C 0.20994 1.07763 0.35362
 C218 C 0.21014 1.13061 0.36512
 C219 C 0.14885 1.06438 0.24767
 C220 C 0.12861 1.09553 0.22034
 C221 C 0.13107 1.14920 0.22443
 C222 C 0.15258 1.17091 0.25947
 C223 C 0.11150 1.18040 0.19500
 C224 C 0.08902 1.15874 0.16407
 C225 C 0.08552 1.10571 0.16328
 C226 C 0.10559 1.07410 0.19042
 H227 H 0.19166 1.20247 0.33743
 H228 H 0.19033 1.01491 0.30506
 H229 H 0.22431 1.05283 0.37793
 H230 H 0.14741 1.02329 0.24309
 H231 H 0.15396 1.21204 0.26431
 H232 H 0.11330 1.22154 0.19706
 H233 H 0.07378 1.18354 0.14299
 H234 H 0.10311 1.03304 0.18883
 C235 C 0.68615 0.30255 -0.33885
 C236 C 0.66603 0.32350 -0.29739
 C237 C 0.66692 0.37594 -0.28099
 C238 C 0.68869 0.40579 -0.30270
 C239 C 0.70898 0.38452 -0.34225
 C240 C 0.70760 0.33310 -0.36268
 C241 C 0.64589 0.39797 -0.24381
 C242 C 0.62428 0.36798 -0.22111
 C243 C 0.62416 0.31491 -0.23387
 C244 C 0.64485 0.29309 -0.27271
 C245 C 0.60318 0.28471 -0.20798
 C246 C 0.58222 0.30709 -0.17113
 C247 C 0.58155 0.36004 -0.16131
 C248 C 0.60268 0.39031 -0.18605
 H249 H 0.68489 0.26270 -0.35298
 H250 H 0.68987 0.44587 -0.28981
 H251 H 0.72518 0.40928 -0.35904
 H252 H 0.64627 0.43849 -0.23282
 H253 H 0.64437 0.25265 -0.28398
 H254 H 0.60288 0.24392 -0.21658
 H255 H 0.56601 0.28328 -0.15222
 H256 H 0.60233 0.43118 -0.17768
 C257 C 0.19462 0.83123 -0.33185
 C258 C 0.17307 0.84898 -0.29252
 C259 C 0.17057 0.90170 -0.27900
 C260 C 0.19058 0.93533 -0.30171
 C261 C 0.21209 0.91742 -0.34047
 C262 C 0.21394 0.86540 -0.35780
 C263 C 0.14790 0.92002 -0.24408
 C264 C 0.12789 0.88612 -0.22169
 C265 C 0.13123 0.83307 -0.23183
 C266 C 0.15367 0.81489 -0.26766
 C267 C 0.11185 0.79911 -0.20661
 C268 C 0.08904 0.81756 -0.17295
 C269 C 0.08493 0.87019 -0.16562
 C270 C 0.10446 0.90438 -0.18967
 H271 H 0.19586 0.79090 -0.34348
 H272 H 0.18935 0.97567 -0.29044
 H273 H 0.22670 0.94484 -0.35878
 H274 H 0.14568 0.96059 -0.23503
 H275 H 0.15584 0.77432 -0.27691
 H276 H 0.11424 0.75834 -0.21330
 H277 H 0.07415 0.79078 -0.15436
 H278 H 0.10148 0.94507 -0.18305
 C279 C 0.32161 0.72372 -0.34315
 C280 C 0.34134 0.70711 -0.29850
 C281 C 0.35870 0.74291 -0.26785
 C282 C 0.35592 0.79485 -0.28255
 C283 C 0.33644 0.81104 -0.32787
 C284 C 0.31915 0.77567 -0.35878
 C285 C 0.37883 0.72607 -0.22410
 C286 C 0.38226 0.67374 -0.21209
 C287 C 0.36487 0.63811 -0.24321
 C288 C 0.34432 0.65505 -0.28531
 C289 C 0.36879 0.58585 -0.23333
 C290 C 0.39031 0.56879 -0.19490
 C291 C 0.40787 0.60359 -0.16410
 C292 C 0.40340 0.65618 -0.17148
 H293 H 0.30852 0.69594 -0.36676
 H294 H 0.36904 0.82290 -0.25963
 H295 H 0.33494 0.85129 -0.33877
 H296 H 0.39223 0.75351 -0.20081
 H297 H 0.33111 0.62757 -0.30918
 H298 H 0.35568 0.55808 -0.25686
 H299 H 0.39346 0.52812 -0.18973
 H300 H 0.41716 0.68314 -0.14854
 C301 C -0.17704 1.22512 -0.34003
 C302 C -0.15852 1.19495 -0.30484
 C303 C -0.15722 1.14178 -0.31684
 C304 C -0.17492 1.11945 -0.36223
 C305 C -0.19357 1.14944 -0.39595
 C306 C -0.19467 1.20250 -0.38577
 C307 C -0.13823 1.11172 -0.28347
 C308 C -0.12080 1.13388 -0.23719
 C309 C -0.12269 1.18674 -0.22353
 C310 C -0.14133 1.21701 -0.25786
 C311 C -0.10584 1.20847 -0.17569
 C312 C -0.08715 1.17829 -0.14215
 C313 C -0.08461 1.12606 -0.15663
 C314 C -0.10153 1.10400 -0.20420
 H315 H -0.17786 1.26593 -0.33157
 H316 H -0.17430 1.07879 -0.37182
 H317 H -0.20682 1.13111 -0.43127
 H318 H -0.13706 1.07110 -0.29341
 H319 H -0.14249 1.25762 -0.24792
 H320 H -0.10710 1.24880 -0.16425
 H321 H -0.07426 1.19612 -0.10566
 H322 H -0.09985 1.06361 -0.21512
 C323 C 0.67029 0.71979 -0.34342
 C324 C 0.65118 0.69130 -0.30733
 C325 C 0.65067 0.63754 -0.31365
 C326 C 0.66974 0.61305 -0.35406
 C327 C 0.68886 0.64144 -0.38888
 C328 C 0.68917 0.69502 -0.38474
 C329 C 0.63102 0.60902 -0.27991
 C330 C 0.61205 0.63337 -0.23889
 C331 C 0.61310 0.68694 -0.23063
 C332 C 0.63248 0.71561 -0.26531
 C333 C 0.59466 0.71092 -0.18782
 C334 C 0.57523 0.68224 -0.15406
 C335 C 0.57354 0.62924 -0.16343
 C336 C 0.59206 0.60496 -0.20590
 H337 H 0.67042 0.76102 -0.33955
 H338 H 0.66975 0.57190 -0.35919
 H339 H 0.70305 0.62128 -0.42051
 H340 H 0.63048 0.56788 -0.28562
 H341 H 0.63300 0.75674 -0.25965
 H342 H 0.59524 0.75185 -0.18049
 H343 H 0.56113 0.70171 -0.12148
 H344 H 0.59107 0.56398 -0.21274
 C345 C 0.18300 1.17369 -0.34075
 C346 C 0.16113 1.15248 -0.30509
 C347 C 0.15413 1.10065 -0.31508
 C348 C 0.16930 1.07062 -0.35875
 C349 C 0.19137 1.09140 -0.39213
 C350 C 0.19831 1.14299 -0.38405
 C351 C 0.13204 1.07940 -0.28146
 C352 C 0.11701 1.10882 -0.23675
 C353 C 0.12426 1.16018 -0.22490
 C354 C 0.14616 1.18190 -0.25963
 C355 C 0.10936 1.18878 -0.17860
 C356 C 0.08732 1.16682 -0.14518
 C357 C 0.07965 1.11623 -0.15825
 C358 C 0.09474 1.08742 -0.20383
 H359 H 0.18832 1.21349 -0.33424
 H360 H 0.16407 1.03101 -0.36723
 H361 H 0.20269 1.06725 -0.42585
 H362 H 0.12654 1.03988 -0.29009
 H363 H 0.15157 1.22147 -0.25119
 H364 H 0.11466 1.22811 -0.16845
 H365 H 0.07596 1.18968 -0.11014
 H366 H 0.08918 1.04812 -0.21369
 C367 C 0.32204 0.24536 -0.33975
 C368 C 0.34090 0.27476 -0.30406
 C369 C 0.33989 0.32862 -0.30735
 C370 C 0.31953 0.35222 -0.34402
 C371 C 0.30075 0.32292 -0.37859
 C372 C 0.30203 0.26929 -0.37790
 C373 C 0.35936 0.35817 -0.27453
 C374 C 0.37965 0.33470 -0.23732
 C375 C 0.38013 0.28094 -0.23186
 C376 C 0.36092 0.25128 -0.26574
 C377 C 0.39984 0.25775 -0.19250
 C378 C 0.41895 0.28747 -0.15919
 C379 C 0.41907 0.34074 -0.16585
 C380 C 0.39941 0.36421 -0.20514
 H381 H 0.32320 0.20411 -0.33859
 H382 H 0.31833 0.39341 -0.34670
 H383 H 0.28563 0.34254 -0.40759
 H384 H 0.35873 0.39941 -0.27801
 H385 H 0.36159 0.21005 -0.26235
 H386 H 0.40044 0.21668 -0.18732
 H387 H 0.43397 0.26869 -0.12899
 H388 H 0.39922 0.40538 -0.20967
 C389 C -0.18942 0.79027 -0.34189
 C390 C -0.16864 0.81248 -0.30349
 C391 C -0.16634 0.86625 -0.30013
 C392 C -0.18515 0.89687 -0.33268
 C393 C -0.20589 0.87475 -0.36923
 C394 C -0.20815 0.82144 -0.37510
 C395 C -0.14517 0.88890 -0.26470
 C396 C -0.12638 0.85874 -0.23120
 C397 C -0.12909 0.80508 -0.23187
 C398 C -0.15006 0.78218 -0.26861
 C399 C -0.11062 0.77546 -0.19598
 C400 C -0.08948 0.79878 -0.16089
 C401 C -0.08618 0.85195 -0.16225
 C402 C -0.10484 0.88166 -0.19718
 H403 H -0.19102 0.74916 -0.34585
 H404 H -0.18373 0.93808 -0.33028
 H405 H -0.21982 0.89977 -0.39463
 H406 H -0.14328 0.93012 -0.26334
 H407 H -0.15189 0.74100 -0.27010
 H408 H -0.11242 0.73430 -0.19534
 H409 H -0.07529 0.77519 -0.13417
 H410 H -0.10261 0.92280 -0.19775
 C411 C 0.31854 0.72566 0.35265
 C412 C 0.33801 0.70884 0.30696
 C413 C 0.35474 0.74457 0.27439
 C414 C 0.35145 0.79672 0.28789
 C415 C 0.33232 0.81314 0.33450
 C416 C 0.31586 0.77775 0.36772
 C417 C 0.37494 0.72744 0.23043
 C418 C 0.37916 0.67497 0.22046
 C419 C 0.36228 0.63947 0.25328
 C420 C 0.34155 0.65663 0.29522
 C421 C 0.36704 0.58718 0.24572
 C422 C 0.38902 0.57008 0.20829
 C423 C 0.40611 0.60474 0.17596
 C424 C 0.40071 0.65723 0.18065
 H425 H 0.30607 0.69790 0.37805
 H426 H 0.36406 0.82473 0.26344
 H427 H 0.33058 0.85353 0.34496
 H428 H 0.38794 0.75480 0.20581
 H429 H 0.32880 0.62925 0.32059
 H430 H 0.35436 0.55952 0.27063
 H431 H 0.39296 0.52954 0.20544
 H432 H 0.41411 0.68413 0.15651
 C433 C -0.18906 1.19756 0.34065
 C434 C -0.16840 1.18336 0.29649
 C435 C -0.15315 1.22129 0.26370
 C436 C -0.15915 1.27284 0.27510
 C437 C -0.17918 1.28667 0.32074
 C438 C -0.19402 1.24920 0.35453
 C439 C -0.13148 1.20712 0.22226
 C440 C -0.12415 1.15563 0.21547
 C441 C -0.13955 1.11785 0.24830
 C442 C -0.16189 1.13186 0.28731
 C443 C -0.13169 1.06670 0.24393
 C444 C -0.10815 1.05322 0.20973
 C445 C -0.09247 1.09024 0.17761
 C446 C -0.10094 1.14137 0.17901
 H447 H -0.20021 1.16840 0.36698
 H448 H -0.14773 1.30247 0.25044
 H449 H -0.18276 1.32675 0.33047
 H450 H -0.11962 1.23623 0.19765
 H451 H -0.17345 1.10280 0.31286
 H452 H -0.14321 1.03732 0.26884
 H453 H -0.10195 1.01371 0.20910
 H454 H -0.08874 1.17017 0.15483
 C455 C 0.69276 0.32431 0.33393
 C456 C 0.67113 0.34549 0.29899
 C457 C 0.66306 0.39633 0.31177
 C458 C 0.67784 0.42591 0.35688
 C459 C 0.69951 0.40441 0.39150
 C460 C 0.70652 0.35304 0.38166
 C461 C 0.63989 0.41606 0.28084
 C462 C 0.62481 0.38545 0.23747
 C463 C 0.63375 0.33543 0.22249
 C464 C 0.65685 0.31581 0.25332
 C465 C 0.61906 0.30535 0.17800
 C466 C 0.59528 0.32410 0.14975
 C467 C 0.58564 0.37290 0.16623
 C468 C 0.60062 0.40362 0.20973
 H469 H 0.69831 0.28477 0.32560
 H470 H 0.67211 0.46510 0.36685
 H471 H 0.70988 0.42712 0.42822
 H472 H 0.63325 0.45465 0.29169
 H473 H 0.66331 0.27700 0.24305
 H474 H 0.62576 0.26711 0.16568
 H475 H 0.58409 0.29992 0.11613
 H476 H 0.59334 0.44140 0.22248
 C477 C 0.19554 0.83182 0.34088
 C478 C 0.17252 0.84828 0.30590
 C479 C 0.16088 0.89633 0.32092
 C480 C 0.17268 0.92751 0.36895
 C481 C 0.19599 0.91166 0.40174
 C482 C 0.20736 0.86355 0.38886
 C483 C 0.13744 0.91242 0.28830
 C484 C 0.12554 0.88153 0.24010
 C485 C 0.13727 0.83395 0.22366
 C486 C 0.16071 0.81746 0.25693
 C487 C 0.12510 0.80370 0.17468
 C488 C 0.10131 0.82014 0.14329
 C489 C 0.08930 0.86689 0.16073
 C490 C 0.10180 0.89752 0.20869
 H491 H 0.20422 0.79454 0.33099
 H492 H 0.16375 0.96408 0.38154
 H493 H 0.20453 0.93626 0.43925
 H494 H 0.12831 0.94888 0.30083
 H495 H 0.16962 0.78071 0.24501
 H496 H 0.13383 0.76717 0.16115
 H497 H 0.09204 0.79597 0.10640
 H498 H 0.09290 0.93396 0.22220
   
