data_POSCAR
  _audit_creation_date              2014-09-24
  _audit_creation_method            'ToBaCCo'
  _symmetry_space_group_name_H-M    'P1'
  _symmetry_Int_Tables_number       1
  _symmetry_cell_setting            triclinic
  loop_
  _symmetry_equiv_pos_as_xyz
 x,y,z
_cell_length_a 56.2118
_cell_length_b 53.7927
_cell_length_c 54.4184
_cell_angle_alpha 90.049700
_cell_angle_beta 90.366800
_cell_angle_gamma 89.727200
loop_
  _atom_site_label
  _atom_site_type_symbol
  _atom_site_fract_x
  _atom_site_fract_y
  _atom_site_fract_z
C1 C 0.21306 0.51742 1.02475
 H2 H 0.21157 0.53079 1.00996
 C3 C 0.19750 0.51871 1.04455
 H4 H 0.18389 0.53294 1.04386
 C5 C 0.23164 0.48164 1.04136
 H6 H 0.24477 0.46700 1.03988
 C7 C 0.21659 0.48232 1.06171
 H8 H 0.21950 0.46854 1.07584
 N9 N 0.22964 0.49909 1.02344
 C10 C 0.28016 0.53045 0.97194
 H11 H 0.27816 0.51768 0.95671
 C12 C 0.29604 0.55021 0.97027
 H13 H 0.30571 0.55278 0.95334
 C14 C 0.26971 0.54237 1.01239
 H15 H 0.25981 0.53884 1.02897
 C16 C 0.28579 0.56208 1.01171
 H17 H 0.28808 0.57341 1.02798
 Zn18 Zn 0.24811 0.49831 0.99455
 N19 N 0.26731 0.52697 0.99271
 C20 C 0.22334 0.51684 0.95264
 N21 N 0.22634 0.49702 0.96787
 C22 C 0.21230 0.47661 0.96586
 C23 C 0.19478 0.47531 0.94762
 C24 C 0.20578 0.51650 0.93438
 C25 C 0.28567 0.46988 1.01283
 C26 C 0.30233 0.45061 1.01385
 C27 C 0.28497 0.43342 0.97688
 C28 C 0.26859 0.45305 0.97658
 N29 N 0.26906 0.47063 0.99457
 H30 H 0.23398 0.53332 0.95515
 H31 H 0.21463 0.46135 0.97860
 H32 H 0.18418 0.45863 0.94614
 H33 H 0.20324 0.53283 0.92304
 H34 H 0.28602 0.48444 1.02656
 H35 H 0.31556 0.45056 1.02840
 H36 H 0.28416 0.41946 0.96257
 H37 H 0.25576 0.45434 0.96178
 C38 C 0.29941 0.56616 0.99049
 C39 C 0.19881 0.50093 1.06366
 C40 C 0.30212 0.43201 0.99574
 C41 C 0.19111 0.49556 0.93169
 C42 C 0.78694 0.51859 -0.01822
 H43 H 0.78983 0.53028 -0.00230
 C44 C 0.80288 0.51930 -0.03776
 H45 H 0.81814 0.53143 -0.03646
 C46 C 0.76422 0.48756 -0.03827
 H47 H 0.74934 0.47494 -0.03827
 C48 C 0.77950 0.48795 -0.05841
 H49 H 0.77577 0.47594 -0.07391
 N50 N 0.76816 0.50279 -0.01873
 C51 C 0.71230 0.53057 0.02898
 H52 H 0.71124 0.51536 0.04192
 C53 C 0.69573 0.54993 0.02994
 H54 H 0.68208 0.54966 0.04389
 C55 C 0.73107 0.54898 -0.00533
 H56 H 0.74456 0.54821 -0.01938
 C57 C 0.71492 0.56882 -0.00495
 H58 H 0.71607 0.58317 -0.01882
 Zn59 Zn 0.74887 0.50165 0.00961
 N60 N 0.72936 0.53030 0.01140
 C61 C 0.76910 0.51817 0.05457
 N62 N 0.76950 0.50000 0.03718
 C63 C 0.78594 0.48138 0.03798
 C64 C 0.80287 0.48052 0.05685
 C65 C 0.78581 0.51812 0.07367
 C66 C 0.71027 0.47467 -0.00831
 C67 C 0.69343 0.45573 -0.00929
 C68 C 0.71402 0.43520 0.02416
 C69 C 0.73040 0.45468 0.02463
 N70 N 0.72830 0.47386 0.00845
 H71 H 0.75621 0.53308 0.05336
 H72 H 0.78619 0.46748 0.02359
 H73 H 0.81615 0.46587 0.05688
 H74 H 0.78534 0.53282 0.08727
 H75 H 0.70881 0.49032 -0.02072
 H76 H 0.67919 0.45673 -0.02276
 H77 H 0.71570 0.42029 0.03742
 H78 H 0.74448 0.45461 0.03821
 C79 C 0.69671 0.56920 0.01260
 C80 C 0.79936 0.50378 -0.05826
 C81 C 0.69511 0.43572 0.00718
 C82 C 0.80310 0.49923 0.07485
 C83 C -0.01632 0.28701 0.47123
 H84 H -0.02942 0.28843 0.48565
 C85 C -0.01644 0.30419 0.45204
 H86 H -0.03034 0.31816 0.45181
 C87 C 0.01704 0.26636 0.45436
 H88 H 0.03055 0.25210 0.45568
 C89 C 0.01731 0.28282 0.43452
 H90 H 0.03142 0.28083 0.42124
 N91 N 0.00030 0.26863 0.47213
 C92 C -0.02920 0.21010 0.51772
 H93 H -0.01589 0.20943 0.53216
 C94 C -0.04807 0.19336 0.51783
 H95 H -0.04934 0.18003 0.53265
 C96 C -0.04353 0.22837 0.48084
 H97 H -0.04141 0.24176 0.46624
 C98 C -0.06272 0.21195 0.48022
 H99 H -0.07521 0.21283 0.46501
 Zn100 Zn -0.00015 0.24770 0.50007
 N101 N -0.02728 0.22714 0.49943
 C102 C -0.01965 0.26866 0.54349
 N103 N -0.00072 0.26862 0.52806
 C104 C 0.01764 0.28466 0.53132
 C105 C 0.01766 0.30131 0.55101
 C106 C -0.02049 0.28518 0.56328
 C107 C 0.02930 0.20983 0.48212
 C108 C 0.04848 0.19325 0.48190
 C109 C 0.06163 0.21031 0.52073
 C110 C 0.04234 0.22676 0.52008
 N111 N 0.02679 0.22641 0.50082
 H112 H -0.03441 0.25628 0.54018
 H113 H 0.03230 0.28451 0.51853
 H114 H 0.03270 0.31356 0.55347
 H115 H -0.03601 0.28529 0.57495
 H116 H 0.01630 0.20947 0.46738
 H117 H 0.05016 0.18012 0.46691
 H118 H 0.07393 0.21090 0.53612
 H119 H 0.03969 0.23952 0.53514
 C120 C -0.06506 0.19401 0.49880
 C121 C 0.00061 0.30247 0.43317
 C122 C 0.06491 0.19336 0.50142
 C123 C -0.00168 0.30186 0.56727
 C124 C 0.98737 0.71076 0.52681
 H125 H 0.97756 0.70781 0.50989
 C126 C 0.98567 0.69356 0.54588
 H127 H 0.97478 0.67725 0.54313
 C128 C 1.01450 0.73499 0.54998
 H129 H 1.02597 0.75094 0.55143
 C130 C 1.01289 0.71856 0.56976
 H131 H 1.02281 0.72261 0.58638
 N132 N 1.00172 0.73090 0.52907
 C133 C 0.97621 0.79026 0.48132
 H134 H 0.99078 0.79141 0.46848
 C135 C 0.95720 0.80694 0.47957
 H136 H 0.95711 0.82065 0.46502
 C137 C 0.95880 0.77084 0.51585
 H138 H 0.95973 0.75696 0.53017
 C139 C 0.93948 0.78726 0.51487
 H140 H 0.92574 0.78592 0.52865
 Zn141 Zn 1.00384 0.75201 0.50134
 N142 N 0.97665 0.77266 0.49921
 C143 C 0.98953 0.73282 0.45485
 N144 N 1.00600 0.73137 0.47323
 C145 C 1.02370 0.71407 0.47276
 C146 C 1.02549 0.69747 0.45313
 C147 C 0.99066 0.71658 0.43486
 C148 C 1.03070 0.79082 0.52152
 C149 C 1.04947 0.80763 0.52342
 C150 C 1.06765 0.78809 0.48820
 C151 C 1.04858 0.77157 0.48705
 N152 N 1.03067 0.77310 0.50369
 H153 H 0.97522 0.74623 0.45584
 H154 H 1.03635 0.71309 0.48781
 H155 H 1.03984 0.68397 0.45302
 H156 H 0.97712 0.71771 0.42065
 H157 H 1.01597 0.79202 0.53417
 H158 H 1.04925 0.82138 0.53795
 H159 H 1.08144 0.78688 0.47445
 H160 H 1.04793 0.75790 0.47254
 C161 C 0.93858 0.80574 0.49663
 C162 C 0.99851 0.69729 0.56784
 C163 C 1.06825 0.80648 0.50654
 C164 C 1.00875 0.69852 0.43388
 C165 C 0.46748 -0.02234 0.28986
 H166 H 0.48041 -0.03729 0.29056
 C167 C 0.44831 -0.02221 0.30602
 H168 H 0.44661 -0.03712 0.31925
 C169 C 0.45451 0.01571 0.27224
 H170 H 0.45717 0.03058 0.25923
 C171 C 0.43521 0.01672 0.28828
 H172 H 0.42292 0.03226 0.28726
 N173 N 0.47010 -0.00369 0.27327
 C174 C 0.51517 -0.03686 0.21706
 H175 H 0.52951 -0.02351 0.21678
 C176 C 0.51542 -0.05702 0.20091
 H177 H 0.52997 -0.05826 0.18806
 C178 C 0.47819 -0.04951 0.23316
 H179 H 0.46354 -0.04636 0.24554
 C180 C 0.47755 -0.06981 0.21716
 H181 H 0.46265 -0.08236 0.21855
 Zn182 Zn 0.49723 -0.00476 0.25294
 N183 N 0.49685 -0.03357 0.23289
 C184 C 0.53983 -0.02425 0.27406
 N185 N 0.52425 -0.00481 0.27392
 C186 C 0.52685 0.01458 0.28975
 C187 C 0.54613 0.01534 0.30602
 C188 C 0.55924 -0.02438 0.29022
 C189 C 0.48052 0.02326 0.21351
 C190 C 0.48004 0.04225 0.19607
 C191 C 0.51414 0.06067 0.21615
 C192 C 0.51423 0.04105 0.23298
 N193 N 0.49745 0.02294 0.23147
 H194 H 0.53712 -0.03986 0.26189
 H195 H 0.51385 0.02948 0.28972
 H196 H 0.54788 0.03090 0.31853
 H197 H 0.57157 -0.03990 0.28997
 H198 H 0.46754 0.00850 0.21259
 H199 H 0.46652 0.04218 0.18180
 H200 H 0.52768 0.07488 0.21743
 H201 H 0.52789 0.04023 0.24698
 C202 C 0.49629 -0.07397 0.20045
 C203 C 0.43194 -0.00244 0.30542
 C204 C 0.49701 0.06125 0.19730
 C205 C 0.56262 -0.00434 0.30638
 C206 C 0.53791 -0.01827 0.70968
 H207 H 0.52477 -0.03288 0.70885
 C208 C 0.55742 -0.01902 0.69398
 H209 H 0.55928 -0.03436 0.68123
 C210 C 0.55062 0.02025 0.72621
 H211 H 0.54772 0.03574 0.73848
 C212 C 0.57027 0.02037 0.71062
 H213 H 0.58255 0.03581 0.71132
 N214 N 0.53491 0.00108 0.72550
 C215 C 0.49056 -0.02446 0.78572
 H216 H 0.47957 -0.00808 0.78795
 C217 C 0.48922 -0.04366 0.80287
 H218 H 0.47676 -0.04215 0.81791
 C219 C 0.52076 -0.04591 0.76404
 H220 H 0.53352 -0.04656 0.74936
 C221 C 0.51978 -0.06570 0.78062
 H222 H 0.53171 -0.08139 0.77837
 Zn223 Zn 0.50710 0.00199 0.74523
 N224 N 0.50603 -0.02592 0.76664
 C225 C 0.45772 -0.00070 0.73365
 N226 N 0.47988 0.00243 0.72424
 C227 C 0.48302 0.00637 0.69978
 C228 C 0.46358 0.00685 0.68374
 C229 C 0.43771 -0.00020 0.71825
 C230 C 0.52421 0.03245 0.78304
 C231 C 0.52427 0.05250 0.79935
 C232 C 0.48921 0.06866 0.77884
 C233 C 0.48999 0.04845 0.76273
 N234 N 0.50720 0.03076 0.76524
 H235 H 0.45546 -0.00340 0.75314
 H236 H 0.50063 0.00938 0.69259
 H237 H 0.46667 0.00952 0.66431
 H238 H 0.42024 -0.00238 0.72618
 H239 H 0.53754 0.01797 0.78476
 H240 H 0.53766 0.05331 0.81371
 H241 H 0.47528 0.08249 0.77678
 H242 H 0.47664 0.04673 0.74846
 C243 C 0.50392 -0.06464 0.80038
 C244 C 0.57380 0.00057 0.69421
 C245 C 0.50643 0.07076 0.79753
 C246 C 0.44051 0.00358 0.69289
 Si247 Si 0.25272 0.00075 0.50217
 Si248 Si 0.75118 -0.00078 0.49602
 Si249 Si 0.50067 0.25177 1.00135
 Si250 Si 0.49617 0.74686 -0.00331
 Si251 Si 1.00726 0.50072 0.24712
 Si252 Si -0.01040 0.49819 0.75575
 C253 C 0.12252 0.14039 0.50248
 C254 C 0.10909 0.14487 0.52373
 C255 C 0.09061 0.16233 0.52347
 C256 C 0.08503 0.17546 0.50188
 C257 C 0.09852 0.17107 0.48065
 C258 C 0.11719 0.15381 0.48099
 C259 C 0.14168 0.12138 0.50264
 C260 C 0.16389 0.12637 0.49210
 C261 C 0.18191 0.10834 0.49233
 C262 C 0.17799 0.08486 0.50290
 C263 C 0.15563 0.07990 0.51323
 C264 C 0.13775 0.09799 0.51322
 C265 C 0.19699 0.06551 0.50304
 C266 C 0.19954 0.04927 0.52315
 C267 C 0.21658 0.03033 0.52284
 C268 C 0.23178 0.02755 0.50274
 C269 C 0.22958 0.04379 0.48273
 C270 C 0.21233 0.06263 0.48287
 H271 H 0.11296 0.13490 0.54059
 H272 H 0.08037 0.16521 0.54003
 H273 H 0.09468 0.18109 0.46382
 H274 H 0.12717 0.15058 0.46433
 H275 H 0.16743 0.14436 0.48403
 H276 H 0.19900 0.11293 0.48453
 H277 H 0.15178 0.06186 0.52101
 H278 H 0.12065 0.09353 0.52110
 H279 H 0.18832 0.05114 0.53914
 H280 H 0.21780 0.01771 0.53831
 H281 H 0.24066 0.04158 0.46670
 H282 H 0.21057 0.07446 0.46688
 C283 C 0.64169 0.62510 0.00878
 C284 C 0.63605 0.60005 0.01296
 C285 C 0.65397 0.58208 0.01457
 C286 C 0.67795 0.58870 0.01192
 C287 C 0.68367 0.61379 0.00796
 C288 C 0.66570 0.63187 0.00657
 C289 C 0.62238 0.64382 0.00630
 C290 C 0.62365 0.66682 0.01849
 C291 C 0.60462 0.68370 0.01717
 C292 C 0.58405 0.67791 0.00350
 C293 C 0.58325 0.65524 -0.00935
 C294 C 0.60212 0.63838 -0.00789
 C295 C 0.56311 0.69491 0.00304
 C296 C 0.54002 0.68505 0.00366
 C297 C 0.52016 0.70059 0.00211
 C298 C 0.52287 0.72636 -0.00022
 C299 C 0.54582 0.73648 0.00042
 C300 C 0.56582 0.72088 0.00182
 H301 H 0.61772 0.59435 0.01499
 H302 H 0.64899 0.56287 0.01736
 H303 H 0.70203 0.61941 0.00599
 H304 H 0.67050 0.65104 0.00323
 H305 H 0.63904 0.67141 0.02965
 H306 H 0.60573 0.70092 0.02741
 H307 H 0.56796 0.65048 -0.02057
 H308 H 0.60089 0.62102 -0.01790
 H309 H 0.53726 0.66524 0.00550
 H310 H 0.50275 0.69224 0.00287
 H311 H 0.54827 0.75640 -0.00057
 H312 H 0.58336 0.72910 0.00143
 C313 C 0.88147 -0.14035 0.49552
 C314 C 0.90485 -0.13336 0.48983
 C315 C 0.92327 -0.15085 0.49007
 C316 C 0.91877 -0.17585 0.49586
 C317 C 0.89533 -0.18293 0.50127
 C318 C 0.87689 -0.16538 0.50111
 C319 C 0.86208 -0.12146 0.49600
 C320 C 0.83920 -0.12707 0.48705
 C321 C 0.82110 -0.10912 0.48742
 C322 C 0.82549 -0.08518 0.49674
 C323 C 0.84837 -0.07963 0.50570
 C324 C 0.86640 -0.09756 0.50540
 C325 C 0.80646 -0.06590 0.49700
 C326 C 0.80464 -0.04924 0.51683
 C327 C 0.78767 -0.03023 0.51653
 C328 C 0.77194 -0.02772 0.49663
 C329 C 0.77337 -0.04444 0.47693
 C330 C 0.79047 -0.06343 0.47713
 H331 H 0.90894 -0.11431 0.48510
 H332 H 0.94114 -0.14467 0.48613
 H333 H 0.89121 -0.20208 0.50554
 H334 H 0.85912 -0.17134 0.50580
 H335 H 0.83535 -0.14523 0.47946
 H336 H 0.80362 -0.11405 0.48058
 H337 H 0.85248 -0.06128 0.51268
 H338 H 0.88371 -0.09272 0.51275
 H339 H 0.81642 -0.05082 0.53258
 H340 H 0.78695 -0.01731 0.53179
 H341 H 0.76179 -0.04250 0.46110
 H342 H 0.79166 -0.07568 0.46139
 C343 C 0.35568 0.37437 0.99769
 C344 C 0.34843 0.38490 0.97520
 C345 C 0.33082 0.40333 0.97451
 C346 C 0.32005 0.41163 0.99629
 C347 C 0.32700 0.40077 1.01871
 C348 C 0.34461 0.38237 1.01940
 C349 C 0.37515 0.35564 0.99857
 C350 C 0.39260 0.35670 1.01715
 C351 C 0.41130 0.33952 1.01772
 C352 C 0.41299 0.32083 0.99974
 C353 C 0.39544 0.31963 0.98126
 C354 C 0.37674 0.33686 0.98067
 C355 C 0.43330 0.30304 1.00003
 C356 C 0.44456 0.29613 0.97803
 C357 C 0.46434 0.28030 0.97842
 C358 C 0.47309 0.27098 1.00076
 C359 C 0.46189 0.27766 1.02272
 C360 C 0.44209 0.29346 1.02237
 H361 H 0.35685 0.37937 0.95820
 H362 H 0.32611 0.41157 0.95699
 H363 H 0.31874 0.40645 1.03575
 H364 H 0.34951 0.37431 1.03696
 H365 H 0.39211 0.37121 1.03095
 H366 H 0.42476 0.34124 1.03193
 H367 H 0.39607 0.30524 0.96735
 H368 H 0.36339 0.33536 0.96632
 H369 H 0.43849 0.30353 0.96057
 H370 H 0.47306 0.27573 0.96131
 H371 H 0.46862 0.27098 1.04020
 H372 H 0.43369 0.29823 1.03961
 C373 C 0.87840 0.14019 0.49602
 C374 C 0.87394 0.16515 0.48983
 C375 C 0.89224 0.18267 0.49076
 C376 C 0.91535 0.17560 0.49799
 C377 C 0.91974 0.15066 0.50429
 C378 C 0.90149 0.13317 0.50333
 C379 C 0.85916 0.12140 0.49478
 C380 C 0.86382 0.09749 0.48554
 C381 C 0.84599 0.07952 0.48494
 C382 C 0.82304 0.08503 0.49354
 C383 C 0.81828 0.10902 0.50257
 C384 C 0.83614 0.12704 0.50314
 C385 C 0.80440 0.06556 0.49353
 C386 C 0.78913 0.06285 0.51373
 C387 C 0.77262 0.04350 0.51436
 C388 C 0.77099 0.02670 0.49474
 C389 C 0.78593 0.02951 0.47445
 C390 C 0.80241 0.04883 0.47377
 H391 H 0.85637 0.17107 0.48394
 H392 H 0.88826 0.20179 0.48600
 H393 H 0.93741 0.14455 0.50964
 H394 H 0.90543 0.11416 0.50850
 H395 H 0.88129 0.09266 0.47868
 H396 H 0.85033 0.06113 0.47815
 H397 H 0.80071 0.11388 0.50913
 H398 H 0.83206 0.14524 0.51055
 H399 H 0.79051 0.07516 0.52941
 H400 H 0.76169 0.04134 0.53049
 H401 H 0.78507 0.01654 0.45923
 H402 H 0.81371 0.05058 0.45783
 C403 C 0.35366 0.62296 -0.00988
 C404 C 0.33240 0.62658 0.00318
 C405 C 0.31461 0.60848 0.00290
 C406 C 0.31774 0.58611 -0.01015
 C407 C 0.33893 0.58263 -0.02335
 C408 C 0.35649 0.60088 -0.02343
 C409 C 0.37304 0.64179 -0.00907
 C410 C 0.39703 0.63422 -0.00977
 C411 C 0.41527 0.65171 -0.00951
 C412 C 0.41003 0.67717 -0.00806
 C413 C 0.38620 0.68490 -0.00685
 C414 C 0.36786 0.66740 -0.00758
 C415 C 0.42959 0.69544 -0.00778
 C416 C 0.43117 0.71340 0.01090
 C417 C 0.45083 0.72924 0.01220
 C418 C 0.46896 0.72742 -0.00530
 C419 C 0.46675 0.71039 -0.02466
 C420 C 0.44739 0.69428 -0.02572
 H421 H 0.32963 0.64319 0.01404
 H422 H 0.29841 0.61206 0.01296
 H423 H 0.34229 0.56556 -0.03330
 H424 H 0.37235 0.59758 -0.03415
 H425 H 0.40182 0.61471 -0.01021
 H426 H 0.43357 0.64533 -0.01007
 H427 H 0.38179 0.70449 -0.00585
 H428 H 0.34964 0.67399 -0.00737
 H429 H 0.41759 0.71463 0.02489
 H430 H 0.45192 0.74259 0.02703
 H431 H 0.48041 0.70903 -0.03855
 H432 H 0.44637 0.68076 -0.04045
 C433 C 0.12489 -0.13964 0.50745
 C434 C 0.10148 -0.13261 0.51329
 C435 C 0.08321 -0.15011 0.51323
 C436 C 0.08791 -0.17513 0.50748
 C437 C 0.11140 -0.18226 0.50208
 C438 C 0.12968 -0.16472 0.50204
 C439 C 0.14406 -0.12073 0.50645
 C440 C 0.16715 -0.12617 0.51504
 C441 C 0.18510 -0.10828 0.51392
 C442 C 0.18035 -0.08456 0.50417
 C443 C 0.15725 -0.07915 0.49564
 C444 C 0.13937 -0.09701 0.49669
 C445 C 0.19922 -0.06534 0.50306
 C446 C 0.20046 -0.04915 0.48284
 C447 C 0.21708 -0.02997 0.48247
 C448 C 0.23299 -0.02680 0.50210
 C449 C 0.23229 -0.04318 0.52208
 C450 C 0.21555 -0.06234 0.52255
 H451 H 0.09723 -0.11352 0.51789
 H452 H 0.06529 -0.14390 0.51720
 H453 H 0.11568 -0.20144 0.49787
 H454 H 0.14747 -0.17071 0.49727
 H455 H 0.17129 -0.14418 0.52288
 H456 H 0.20276 -0.11310 0.52047
 H457 H 0.15287 -0.06095 0.48837
 H458 H 0.12188 -0.09230 0.48959
 H459 H 0.18845 -0.05117 0.46735
 H460 H 0.21727 -0.01735 0.46697
 H461 H 0.24411 -0.04077 0.53765
 H462 H 0.21485 -0.07426 0.53855
 C463 C 0.64138 0.37887 1.00781
 C464 C 0.63506 0.40407 1.00556
 C465 C 0.65252 0.42243 1.00519
 C466 C 0.67671 0.41603 1.00721
 C467 C 0.68308 0.39083 1.00949
 C468 C 0.66558 0.37240 1.00963
 C469 C 0.62265 0.35954 1.00825
 C470 C 0.62493 0.33767 0.99431
 C471 C 0.60656 0.32019 0.99372
 C472 C 0.58559 0.32420 1.00717
 C473 C 0.58371 0.34575 1.02169
 C474 C 0.60197 0.36324 1.02215
 C475 C 0.56540 0.30650 1.00555
 C476 C 0.54188 0.31547 1.00485
 C477 C 0.52276 0.29909 1.00355
 C478 C 0.52664 0.27334 1.00278
 C479 C 0.55008 0.26425 1.00317
 C480 C 0.56930 0.28066 1.00458
 H481 H 0.61657 0.40957 1.00386
 H482 H 0.64707 0.44170 1.00368
 H483 H 0.70161 0.38538 1.01092
 H484 H 0.67093 0.35313 1.01152
 H485 H 0.64061 0.33444 0.98327
 H486 H 0.60847 0.30393 0.98216
 H487 H 0.56807 0.34914 1.03273
 H488 H 0.59994 0.37970 1.03343
 H489 H 0.53822 0.33525 1.00503
 H490 H 0.50496 0.30679 1.00314
 H491 H 0.55354 0.24445 1.00250
 H492 H 0.58718 0.27312 1.00526
 C493 C 0.49711 0.11922 1.14274
 C494 C 0.49821 0.12510 1.16795
 C495 C 0.49843 0.10628 1.18568
 C496 C 0.49714 0.08123 1.17862
 C497 C 0.49599 0.07527 1.15355
 C498 C 0.49619 0.09401 1.13581
 C499 C 0.49690 0.13917 1.12373
 C500 C 0.48392 0.13619 1.10175
 C501 C 0.48421 0.15450 1.08359
 C502 C 0.49714 0.17657 1.08702
 C503 C 0.50980 0.17977 1.10918
 C504 C 0.50982 0.16125 1.12721
 C505 C 0.49771 0.19585 1.06736
 C506 C 0.51834 0.20994 1.06323
 C507 C 0.51912 0.22726 1.04410
 C508 C 0.49951 0.23049 1.02838
 C509 C 0.47874 0.21694 1.03276
 C510 C 0.47776 0.19996 1.05212
 H511 H 0.49853 0.14425 1.17405
 H512 H 0.49915 0.11130 1.20495
 H513 H 0.49532 0.05604 1.14767
 H514 H 0.49592 0.08867 1.11663
 H515 H 0.47339 0.11970 1.09853
 H516 H 0.47455 0.15110 1.06666
 H517 H 0.51968 0.19664 1.11270
 H518 H 0.52027 0.16414 1.14373
 H519 H 0.53415 0.20720 1.07437
 H520 H 0.53525 0.23770 1.04154
 H521 H 0.46312 0.21956 1.02134
 H522 H 0.46130 0.19009 1.05513
 C523 C -0.00449 0.64262 0.62612
 C524 C 0.01609 0.65692 0.62252
 C525 C 0.01707 0.67456 0.60373
 C526 C -0.00271 0.67887 0.58830
 C527 C -0.02351 0.66504 0.59232
 C528 C -0.02429 0.64700 0.61075
 C529 C -0.00516 0.62297 0.64545
 C530 C -0.02651 0.61716 0.65748
 C531 C -0.02729 0.59811 0.67490
 C532 C -0.00662 0.58465 0.68123
 C533 C 0.01484 0.59084 0.66961
 C534 C 0.01550 0.60950 0.65179
 C535 C -0.00747 0.56407 0.69958
 C536 C 0.00762 0.54322 0.69736
 C537 C 0.00683 0.52395 0.71450
 C538 C -0.00932 0.52480 0.73397
 C539 C -0.02467 0.54525 0.73613
 C540 C -0.02354 0.56485 0.71933
 H541 H 0.03157 0.65454 0.63422
 H542 H 0.03355 0.68447 0.60109
 H543 H -0.03930 0.66808 0.58124
 H544 H -0.04037 0.63620 0.61259
 H545 H -0.04273 0.62734 0.65352
 H546 H -0.04425 0.59374 0.68308
 H547 H 0.03126 0.58133 0.67427
 H548 H 0.03223 0.61303 0.64275
 H549 H 0.01981 0.54149 0.68214
 H550 H 0.01867 0.50816 0.71235
 H551 H -0.03754 0.54628 0.75074
 H552 H -0.03519 0.58068 0.72199
 C553 C 0.50077 0.87638 -0.14625
 C554 C 0.50130 0.87092 -0.17154
 C555 C 0.50256 0.89004 -0.18889
 C556 C 0.50306 0.91501 -0.18133
 C557 C 0.50267 0.92048 -0.15612
 C558 C 0.50168 0.90141 -0.13878
 C559 C 0.49912 0.85617 -0.12767
 C560 C 0.48574 0.85969 -0.10620
 C561 C 0.48469 0.84115 -0.08832
 C562 C 0.49674 0.81842 -0.09152
 C563 C 0.50981 0.81470 -0.11318
 C564 C 0.51105 0.83338 -0.13100
 C565 C 0.49612 0.79913 -0.07194
 C566 C 0.51642 0.78472 -0.06636
 C567 C 0.51636 0.76812 -0.04658
 C568 C 0.49616 0.76597 -0.03180
 C569 C 0.47558 0.77944 -0.03792
 C570 C 0.47550 0.79576 -0.05784
 H571 H 0.50030 0.85191 -0.17797
 H572 H 0.50265 0.88535 -0.20824
 H573 H 0.50345 0.93956 -0.14979
 H574 H 0.50189 0.90630 -0.11948
 H575 H 0.47598 0.87680 -0.10317
 H576 H 0.47477 0.84490 -0.07173
 H577 H 0.51909 0.79733 -0.11641
 H578 H 0.52171 0.83011 -0.14719
 H579 H 0.53266 0.78687 -0.07671
 H580 H 0.53231 0.75759 -0.04258
 H581 H 0.45969 0.77778 -0.02690
 H582 H 0.45934 0.80599 -0.06197
 C583 C 1.00412 0.35630 0.37605
 C584 C 1.01167 0.33183 0.37180
 C585 C 1.01056 0.31408 0.39053
 C586 C 1.00133 0.32023 0.41389
 C587 C 0.99324 0.34485 0.41764
 C588 C 0.99487 0.36263 0.39907
 C589 C 1.00624 0.37547 0.35677
 C590 C 1.01752 0.39803 0.36210
 C591 C 1.01875 0.41670 0.34438
 C592 C 1.00826 0.41345 0.32105
 C593 C 0.99736 0.39056 0.31560
 C594 C 0.99653 0.37167 0.33325
 C595 C 1.00806 0.43420 0.30294
 C596 C 1.00978 0.42968 0.27752
 C597 C 1.00939 0.44942 0.26077
 C598 C 1.00762 0.47404 0.26910
 C599 C 1.00588 0.47857 0.29439
 C600 C 1.00589 0.45892 0.31107
 H601 H 1.01879 0.32655 0.35409
 H602 H 1.01627 0.29535 0.38624
 H603 H 0.98672 0.35100 0.43529
 H604 H 0.98892 0.38145 0.40271
 H605 H 1.02546 0.40118 0.38002
 H606 H 1.02789 0.43374 0.34905
 H607 H 0.98885 0.38746 0.29797
 H608 H 0.98765 0.35440 0.32882
 H609 H 1.01170 0.41093 0.27056
 H610 H 1.01062 0.44546 0.24131
 H611 H 1.00427 0.49725 0.30150
 H612 H 1.00387 0.46318 0.33039
 C613 C 0.49427 0.86786 0.14719
 C614 C 0.51608 0.87720 0.15561
 C615 C 0.51681 0.89603 0.17331
 C616 C 0.49566 0.90602 0.18333
 C617 C 0.47382 0.89583 0.17524
 C618 C 0.47318 0.87718 0.15736
 C619 C 0.49349 0.84929 0.12704
 C620 C 0.47742 0.85237 0.10739
 C621 C 0.47749 0.83579 0.08763
 C622 C 0.49351 0.81568 0.08717
 C623 C 0.50919 0.81221 0.10709
 C624 C 0.50928 0.82895 0.12678
 C625 C 0.49433 0.79897 0.06551
 C626 C 0.49569 0.77303 0.06835
 C627 C 0.49619 0.75749 0.04771
 C628 C 0.49549 0.76766 0.02400
 C629 C 0.49462 0.79354 0.02116
 C630 C 0.49389 0.80904 0.04171
 H631 H 0.53265 0.87034 0.14807
 H632 H 0.53414 0.90219 0.17942
 H633 H 0.45694 0.90301 0.18154
 H634 H 0.45608 0.87020 0.15127
 H635 H 0.46520 0.86799 0.10698
 H636 H 0.46506 0.83876 0.07261
 H637 H 0.52181 0.79693 0.10712
 H638 H 0.52173 0.82606 0.14179
 H639 H 0.49600 0.76479 0.08650
 H640 H 0.49704 0.73753 0.05023
 H641 H 0.49455 0.80196 0.00314
 H642 H 0.49331 0.82898 0.03900
 C643 C -0.00440 0.35496 0.62670
 C644 C 0.00590 0.36133 0.60414
 C645 C 0.00674 0.34415 0.58491
 C646 C -0.00246 0.32007 0.58787
 C647 C -0.01265 0.31369 0.61055
 C648 C -0.01371 0.33100 0.62971
 C649 C -0.00553 0.37341 0.64690
 C650 C -0.02668 0.37705 0.66007
 C651 C -0.02798 0.39523 0.67841
 C652 C -0.00806 0.40986 0.68414
 C653 C 0.01322 0.40586 0.67128
 C654 C 0.01443 0.38791 0.65277
 C655 C -0.00956 0.42982 0.70286
 C656 C 0.00887 0.43310 0.72011
 C657 C 0.00822 0.45294 0.73669
 C658 C -0.01082 0.46985 0.73621
 C659 C -0.02941 0.46645 0.71928
 C660 C -0.02890 0.44647 0.70285
 H661 H 0.01289 0.37982 0.60122
 H662 H 0.01424 0.34993 0.56757
 H663 H -0.01955 0.29521 0.61364
 H664 H -0.02152 0.32555 0.64702
 H665 H -0.04236 0.36622 0.65579
 H666 H -0.04455 0.39787 0.68815
 H667 H 0.02877 0.41704 0.67516
 H668 H 0.03100 0.38533 0.64302
 H669 H 0.02391 0.42044 0.72059
 H670 H 0.02293 0.45533 0.74936
 H671 H -0.04407 0.47956 0.71844
 H672 H -0.04319 0.44455 0.68956
 C673 C 0.50326 0.12844 0.85226
 C674 C 0.52490 0.12262 0.84078
 C675 C 0.52591 0.10408 0.82278
 C676 C 0.50525 0.09127 0.81569
 C677 C 0.48351 0.09754 0.82675
 C678 C 0.48256 0.11584 0.84495
 C679 C 0.50240 0.14696 0.87242
 C680 C 0.49027 0.14152 0.89421
 C681 C 0.48981 0.15862 0.91352
 C682 C 0.50122 0.18174 0.91139
 C683 C 0.51322 0.18723 0.88945
 C684 C 0.51392 0.16995 0.87022
 C685 C 0.50083 0.19977 0.93218
 C686 C 0.52075 0.21460 0.93758
 C687 C 0.52064 0.23071 0.95778
 C688 C 0.50079 0.23200 0.97320
 C689 C 0.48068 0.21779 0.96749
 C690 C 0.48063 0.20193 0.94717
 H691 H 0.54113 0.13196 0.84620
 H692 H 0.54286 0.09970 0.81442
 H693 H 0.46736 0.08781 0.82178
 H694 H 0.46563 0.12011 0.85340
 H695 H 0.48157 0.12376 0.89652
 H696 H 0.48087 0.15348 0.93031
 H697 H 0.52188 0.20497 0.88699
 H698 H 0.52321 0.17467 0.85350
 H699 H 0.53668 0.21336 0.92657
 H700 H 0.53624 0.24179 0.96136
 H701 H 0.46487 0.21899 0.97865
 H702 H 0.46470 0.19140 0.94319
 C703 C 1.01081 0.64568 0.37431
 C704 C 1.01587 0.63819 0.39853
 C705 C 1.01534 0.65536 0.41778
 C706 C 1.00975 0.68044 0.41327
 C707 C 1.00475 0.68797 0.38904
 C708 C 1.00526 0.67077 0.36977
 C709 C 1.01104 0.62724 0.35401
 C710 C 0.99331 0.62763 0.33567
 C711 C 0.99295 0.60953 0.31722
 C712 C 1.01036 0.59069 0.31667
 C713 C 1.02833 0.59060 0.33476
 C714 C 1.02866 0.60866 0.35319
 C715 C 1.00936 0.57061 0.29797
 C716 C 1.03036 0.56133 0.28737
 C717 C 1.02961 0.54105 0.27135
 C718 C 1.00786 0.52985 0.26548
 C719 C 0.98680 0.53936 0.27550
 C720 C 0.98752 0.55964 0.29155
 H721 H 1.01976 0.61891 0.40270
 H722 H 1.01883 0.64888 0.43629
 H723 H 1.00069 0.70723 0.38494
 H724 H 1.00159 0.67715 0.35126
 H725 H 0.97938 0.64160 0.33592
 H726 H 0.97901 0.61021 0.30341
 H727 H 1.04182 0.57617 0.33504
 H728 H 1.04271 0.60803 0.36689
 H729 H 1.04742 0.56954 0.29174
 H730 H 1.04611 0.53375 0.26409
 H731 H 0.96989 0.53064 0.27152
 H732 H 0.97108 0.56609 0.29969
 C733 C 1.14771 0.50181 0.12140
 C734 C 1.16075 0.48017 0.11637
 C735 C 1.17777 0.47990 0.09773
 C736 C 1.18244 0.50143 0.08361
 C737 C 1.16973 0.52336 0.08967
 C738 C 1.15254 0.52343 0.10808
 C739 C 1.12851 0.50169 0.13989
 C740 C 1.10612 0.51179 0.13405
 C741 C 1.08779 0.51154 0.15122
 C742 C 1.09150 0.50150 0.17482
 C743 C 1.11400 0.49142 0.18064
 C744 C 1.13226 0.49136 0.16328
 C745 C 1.07188 0.50152 0.19309
 C746 C 1.06912 0.48168 0.20966
 C747 C 1.05021 0.48149 0.22624
 C748 C 1.03343 0.50086 0.22625
 C749 C 1.03643 0.52091 0.21019
 C750 C 1.05548 0.52133 0.19388
 H751 H 1.15714 0.46315 0.12627
 H752 H 1.18614 0.46224 0.09382
 H753 H 1.17319 0.54089 0.08077
 H754 H 1.14307 0.54054 0.11203
 H755 H 1.10268 0.51950 0.11598
 H756 H 1.07059 0.51890 0.14582
 H757 H 1.11764 0.48389 0.19872
 H758 H 1.14945 0.48362 0.16825
 H759 H 1.08130 0.46604 0.20954
 H760 H 1.04879 0.46610 0.23885
 H761 H 1.02418 0.53646 0.21034
 H762 H 1.05740 0.53730 0.18198
 C763 C 0.63067 0.00048 0.64156
 C764 C 0.62564 -0.02098 0.65530
 C765 C 0.60737 -0.02088 0.67259
 C766 C 0.59390 0.00075 0.67673
 C767 C 0.59922 0.02236 0.66344
 C768 C 0.61732 0.02220 0.64597
 C769 C 0.64926 0.00005 0.62221
 C770 C 0.66353 0.02100 0.61793
 C771 C 0.68026 0.02091 0.59903
 C772 C 0.68326 -0.00021 0.58417
 C773 C 0.66935 -0.02131 0.58868
 C774 C 0.65247 -0.02115 0.60741
 C775 C 0.70039 -0.00006 0.56360
 C776 C 0.71548 -0.02053 0.55950
 C777 C 0.73111 -0.02066 0.53963
 C778 C 0.73185 -0.00034 0.52355
 C779 C 0.71671 0.02002 0.52746
 C780 C 0.70126 0.02029 0.54746
 H781 H 0.63585 -0.03789 0.65273
 H782 H 0.60380 -0.03770 0.68282
 H783 H 0.58888 0.03919 0.66603
 H784 H 0.62040 0.03893 0.63544
 H785 H 0.66186 0.03747 0.62924
 H786 H 0.69097 0.03731 0.59611
 H787 H 0.67108 -0.03771 0.57727
 H788 H 0.64150 -0.03744 0.60986
 H789 H 0.71516 -0.03644 0.57168
 H790 H 0.74222 -0.03683 0.53667
 H791 H 0.71674 0.03566 0.51494
 H792 H 0.68956 0.03613 0.54998
 C793 C -0.14901 0.50276 0.88313
 C794 C -0.16138 0.48108 0.88958
 C795 C -0.17816 0.48144 0.90841
 C796 C -0.18335 0.50360 0.92108
 C797 C -0.17141 0.52542 0.91422
 C798 C -0.15435 0.52497 0.89565
 C799 C -0.13028 0.50210 0.86386
 C800 C -0.12654 0.52269 0.84842
 C801 C -0.10843 0.52229 0.83092
 C802 C -0.09395 0.50117 0.82818
 C803 C -0.09784 0.48046 0.84325
 C804 C -0.11566 0.48098 0.86102
 C805 C -0.07450 0.50086 0.81000
 C806 C -0.07176 0.48064 0.79390
 C807 C -0.05301 0.48007 0.77717
 C808 C -0.03661 0.49961 0.77641
 C809 C -0.03911 0.51963 0.79272
 C810 C -0.05809 0.52044 0.80915
 H811 H -0.15810 0.46371 0.88010
 H812 H -0.18669 0.46417 0.91332
 H813 H -0.17519 0.54294 0.92322
 H814 H -0.14503 0.54200 0.89148
 H815 H -0.13770 0.53908 0.84968
 H816 H -0.10587 0.53840 0.81932
 H817 H -0.08667 0.46407 0.84167
 H818 H -0.11760 0.46499 0.87288
 H819 H -0.08417 0.46531 0.79428
 H820 H -0.05115 0.46411 0.76524
 H821 H -0.02623 0.53454 0.79290
 H822 H -0.05962 0.53602 0.82167
 C823 C 0.37512 -0.00059 0.35820
 C824 C 0.38832 0.02094 0.35311
 C825 C 0.40645 0.02046 0.33564
 C826 C 0.41193 -0.00159 0.32303
 C827 C 0.39860 -0.02303 0.32784
 C828 C 0.38033 -0.02251 0.34513
 C829 C 0.35645 -0.00037 0.37748
 C830 C 0.35332 -0.02111 0.39284
 C831 C 0.33616 -0.02079 0.41129
 C832 C 0.32188 0.00035 0.41500
 C833 C 0.32490 0.02108 0.39968
 C834 C 0.34192 0.02068 0.38105
 C835 C 0.30426 0.00089 0.43516
 C836 C 0.30256 0.02168 0.45073
 C837 C 0.28679 0.02166 0.47048
 C838 C 0.27218 0.00110 0.47471
 C839 C 0.27365 -0.01958 0.45911
 C840 C 0.28958 -0.01970 0.43950
 H841 H 0.38509 0.03803 0.36309
 H842 H 0.41665 0.03718 0.33250
 H843 H 0.40225 -0.04020 0.31812
 H844 H 0.37022 -0.03930 0.34819
 H845 H 0.36449 -0.03744 0.39098
 H846 H 0.33446 -0.03688 0.42309
 H847 H 0.31394 0.03751 0.40198
 H848 H 0.34356 0.03682 0.36931
 H849 H 0.31391 0.03764 0.44802
 H850 H 0.28617 0.03762 0.48262
 H851 H 0.26292 -0.03588 0.46230
 H852 H 0.29048 -0.03593 0.42774
 C853 C 0.13378 0.49576 0.87831
 C854 C 0.13140 0.48337 0.90090
 C855 C 0.14995 0.48327 0.91809
 C856 C 0.17157 0.49522 0.91305
 C857 C 0.17412 0.50725 0.89027
 C858 C 0.15543 0.50764 0.87320
 C859 C 0.11366 0.49647 0.86036
 C860 C 0.11784 0.49584 0.83488
 C861 C 0.09886 0.49641 0.81814
 C862 C 0.07531 0.49724 0.82652
 C863 C 0.07106 0.49791 0.85188
 C864 C 0.09000 0.49774 0.86861
 C865 C 0.05513 0.49721 0.80893
 C866 C 0.03601 0.48088 0.81231
 C867 C 0.01674 0.48106 0.79601
 C868 C 0.01610 0.49778 0.77630
 C869 C 0.03512 0.51414 0.77283
 C870 C 0.05463 0.51370 0.78892
 H871 H 0.11519 0.47362 0.90535
 H872 H 0.14711 0.47414 0.93554
 H873 H 0.19060 0.51635 0.88556
 H874 H 0.15785 0.51762 0.85614
 H875 H 0.13576 0.49446 0.82784
 H876 H 0.10254 0.49566 0.79864
 H877 H 0.05304 0.49892 0.85876
 H878 H 0.08605 0.49888 0.88802
 H879 H 0.03609 0.46787 0.82749
 H880 H 0.00220 0.46828 0.79894
 H881 H 0.03495 0.52731 0.75783
 H882 H 0.06910 0.52658 0.78606
 C883 C 0.62130 -0.00349 0.35773
 C884 C 0.60797 -0.02525 0.35399
 C885 C 0.58910 -0.02559 0.33715
 C886 C 0.58299 -0.00413 0.32382
 C887 C 0.59630 0.01761 0.32745
 C888 C 0.61530 0.01790 0.34413
 C889 C 0.64107 -0.00300 0.37604
 C890 C 0.64501 0.01822 0.39060
 C891 C 0.66321 0.01851 0.40820
 C892 C 0.67777 -0.00248 0.41180
 C893 C 0.67398 -0.02365 0.39719
 C894 C 0.65591 -0.02387 0.37943
 C895 C 0.69640 -0.00248 0.43119
 C896 C 0.69894 -0.02289 0.44711
 C897 C 0.71571 -0.02241 0.46616
 C898 C 0.73048 -0.00174 0.46934
 C899 C 0.72818 0.01858 0.45339
 C900 C 0.71126 0.01823 0.43446
 H901 H 0.61178 -0.04192 0.36446
 H902 H 0.57893 -0.04251 0.33495
 H903 H 0.59216 0.03432 0.31716
 H904 H 0.62544 0.03484 0.34620
 H905 H 0.63367 0.03445 0.38882
 H906 H 0.66552 0.03494 0.41947
 H907 H 0.68514 -0.03997 0.39939
 H908 H 0.65367 -0.04035 0.36824
 H909 H 0.68750 -0.03893 0.44523
 H910 H 0.71697 -0.03808 0.47860
 H911 H 0.73904 0.03495 0.45580
 H912 H 0.70972 0.03417 0.42241
 C913 C 0.85937 0.50039 0.12891
 C914 C 0.84758 0.47809 0.12335
 C915 C 0.82913 0.47771 0.10599
 C916 C 0.82196 0.49968 0.09403
 C917 C 0.83347 0.52205 0.09996
 C918 C 0.85202 0.52238 0.11714
 C919 C 0.87968 0.50067 0.14643
 C920 C 0.90041 0.51392 0.14083
 C921 C 0.91971 0.51403 0.15710
 C922 C 0.91870 0.50103 0.17947
 C923 C 0.89789 0.48782 0.18511
 C924 C 0.87863 0.48757 0.16872
 C925 C 0.93940 0.50109 0.19664
 C926 C 0.94581 0.47955 0.20980
 C927 C 0.96575 0.47944 0.22529
 C928 C 0.97982 0.50076 0.22772
 C929 C 0.97322 0.52241 0.21505
 C930 C 0.95321 0.52262 0.19972
 H931 H 0.85300 0.46084 0.13202
 H932 H 0.82046 0.46024 0.10189
 H933 H 0.82849 0.53921 0.09086
 H934 H 0.86066 0.53987 0.12124
 H935 H 0.90186 0.52384 0.12360
 H936 H 0.93562 0.52396 0.15192
 H937 H 0.89637 0.47792 0.20233
 H938 H 0.86276 0.47741 0.17361
 H939 H 0.93572 0.46257 0.20772
 H940 H 0.97021 0.46255 0.23500
 H941 H 0.98340 0.53930 0.21713
 H942 H 0.94847 0.53971 0.19038
 C943 C 0.38074 0.00406 0.64264
 C944 C 0.39988 0.02045 0.63940
 C945 C 0.41899 0.02055 0.65591
 C946 C 0.41961 0.00413 0.67599
 C947 C 0.40035 -0.01206 0.67943
 C948 C 0.38112 -0.01206 0.66298
 C949 C 0.36083 0.00346 0.62451
 C950 C 0.35044 -0.01922 0.61752
 C951 C 0.33251 -0.01988 0.59961
 C952 C 0.32463 0.00210 0.58813
 C953 C 0.33475 0.02481 0.59541
 C954 C 0.35254 0.02549 0.61344
 C955 C 0.30644 0.00131 0.56816
 C956 C 0.28935 0.02037 0.56573
 C957 C 0.27302 0.02021 0.54626
 C958 C 0.27322 0.00080 0.52909
 C959 C 0.29002 -0.01835 0.53150
 C960 C 0.30650 -0.01813 0.55083
 H961 H 0.40035 0.03290 0.62380
 H962 H 0.43332 0.03356 0.65291
 H963 H 0.40033 -0.02511 0.69456
 H964 H 0.36654 -0.02470 0.66621
 H965 H 0.35654 -0.03658 0.62546
 H966 H 0.32488 -0.03766 0.59471
 H967 H 0.32934 0.04207 0.58679
 H968 H 0.35988 0.04333 0.61863
 H969 H 0.28862 0.03548 0.57887
 H970 H 0.26052 0.03545 0.54458
 H971 H 0.29063 -0.03333 0.51819
 H972 H 0.31966 -0.03285 0.55181
   
