data_POSCAR
  _audit_creation_date              2014-09-24
  _audit_creation_method            'ToBaCCo'
  _symmetry_space_group_name_H-M    'P1'
  _symmetry_Int_Tables_number       1
  _symmetry_cell_setting            triclinic
  loop_
  _symmetry_equiv_pos_as_xyz
 x,y,z
_cell_length_a 28.8225
_cell_length_b 28.0993
_cell_length_c 68.6276
_cell_angle_alpha 88.403700
_cell_angle_beta 87.207500
_cell_angle_gamma 121.970700
loop_
  _atom_site_label
  _atom_site_type_symbol
  _atom_site_fract_x
  _atom_site_fract_y
  _atom_site_fract_z
C1 C -0.04921 0.02170 0.53657
 H2 H -0.04314 -0.00740 0.54493
 C3 C -0.05138 0.06362 0.54612
 H4 H -0.04915 0.06458 0.56182
 C5 C -0.05686 0.05744 0.50603
 H6 H -0.05713 0.05577 0.49030
 C7 C -0.05963 0.10002 0.51507
 H8 H -0.06275 0.13069 0.50628
 N9 N -0.05168 0.01938 0.51685
 C10 C 0.00954 -0.08435 0.52391
 H11 H 0.04494 -0.05927 0.51372
 C12 C 0.00999 -0.12088 0.53805
 H13 H 0.04618 -0.12319 0.53885
 C14 C -0.08089 -0.11222 0.53533
 H15 H -0.11628 -0.10878 0.53403
 C16 C -0.08156 -0.14793 0.55001
 H17 H -0.11758 -0.17201 0.56008
 Zn18 Zn -0.03801 -0.03159 0.50414
 N19 N -0.03534 -0.08035 0.52296
 C20 C 0.07281 0.05197 0.49930
 N21 N 0.03038 0.01286 0.48957
 C22 C 0.03586 0.00964 0.46996
 C23 C 0.08555 0.04709 0.45929
 C24 C 0.12294 0.09074 0.48920
 C25 C -0.13739 -0.07305 0.48472
 C26 C -0.17773 -0.10965 0.47275
 C27 C -0.12788 -0.15588 0.46751
 C28 C -0.08856 -0.11831 0.47947
 N29 N -0.09364 -0.07773 0.48768
 H30 H 0.06708 0.05407 0.51488
 H31 H 0.00128 -0.02082 0.46241
 H32 H 0.08737 0.04398 0.44366
 H33 H 0.15570 0.12231 0.49725
 H34 H -0.14139 -0.04132 0.49173
 H35 H -0.21215 -0.10502 0.47055
 H36 H -0.12120 -0.18669 0.46120
 H37 H -0.05361 -0.12144 0.48226
 C38 C -0.03590 -0.15271 0.55140
 C39 C -0.05535 0.10425 0.53528
 C40 C -0.17367 -0.15211 0.46395
 C41 C 0.13001 0.08914 0.46888
 C42 C 1.09995 0.08329 0.12910
 H43 H 1.10480 0.12348 0.13163
 C44 C 1.13818 0.08070 0.11667
 H45 H 1.17169 0.11912 0.10932
 C46 C 1.04971 -0.01556 0.13564
 H47 H 1.01541 -0.05278 0.14327
 C48 C 1.08673 -0.02015 0.12312
 H49 H 1.08063 -0.06113 0.12109
 N50 N 1.05719 0.03570 0.13845
 C51 C 0.92666 0.06594 0.15412
 H52 H 0.92284 0.05963 0.16988
 C53 C 0.88840 0.07265 0.14471
 H54 H 0.85564 0.07220 0.15332
 C55 C 0.97148 0.07013 0.12367
 H56 H 1.00276 0.06725 0.11547
 C57 C 0.93460 0.07780 0.11368
 H58 H 0.93803 0.08047 0.09786
 Zn59 Zn 1.01128 0.04419 0.15674
 N60 N 0.96659 0.06375 0.14353
 C61 C 1.04777 0.13986 0.18001
 N62 N 1.05772 0.10087 0.17320
 C63 C 1.10252 0.10023 0.17804
 C64 C 1.13914 0.13910 0.19034
 C65 C 1.08325 0.17952 0.19254
 C66 C 0.91106 -0.05532 0.16979
 C67 C 0.87567 -0.10125 0.18274
 C68 C 0.95371 -0.08415 0.19992
 C69 C 0.98750 -0.03838 0.18669
 N70 N 0.96563 -0.02381 0.17232
 H71 H 1.01225 0.14015 0.17590
 H72 H 1.10981 0.06904 0.17237
 H73 H 1.17316 0.13547 0.19398
 H74 H 1.07425 0.20985 0.19796
 H75 H 0.89458 -0.04437 0.15788
 H76 H 0.83265 -0.12434 0.18020
 H77 H 0.97206 -0.09378 0.21158
 H78 H 1.03104 -0.01353 0.18830
 C79 C 0.89189 0.07829 0.12425
 C80 C 1.13222 0.02849 0.11381
 C81 C 0.89664 -0.11534 0.19853
 C82 C 1.12988 0.17976 0.19791
 C83 C 0.04142 0.92418 0.86485
 H84 H 0.00623 0.88339 0.86229
 C85 C 0.08008 0.92824 0.87723
 H86 H 0.07444 0.89034 0.88427
 C87 C 0.09122 1.02319 0.85882
 H88 H 0.09513 1.06000 0.85165
 C89 C 0.13137 1.02915 0.87095
 H90 H 0.16545 1.07087 0.87325
 N91 N 0.04701 0.97129 0.85625
 C92 C -0.11562 0.93702 0.84785
 H93 H -0.11211 0.94717 0.83231
 C94 C -0.15974 0.93092 0.85957
 H95 H -0.19007 0.93500 0.85240
 C96 C -0.07795 0.92205 0.87551
 H97 H -0.04511 0.92082 0.88188
 C98 C -0.12178 0.91441 0.88771
 H99 H -0.12188 0.90652 0.90328
 Zn100 Zn -0.00902 0.96052 0.84034
 N101 N -0.07495 0.93443 0.85603
 C102 C -0.06401 0.85844 0.82056
 N103 N -0.01628 0.90835 0.82206
 C104 C 0.03008 0.92222 0.81103
 C105 C 0.02940 0.88610 0.79741
 C106 C -0.06635 0.82026 0.80733
 C107 C 0.00675 1.06791 0.83825
 C108 C 0.01269 1.11626 0.82925
 C109 C 0.02468 1.08532 0.79797
 C110 C 0.01736 1.03710 0.80756
 N111 N 0.00866 1.02925 0.82734
 H112 H -0.10018 0.84807 0.82970
 H113 H 0.06774 0.96174 0.81282
 H114 H 0.06692 0.89862 0.78867
 H115 H -0.10512 0.78132 0.80638
 H116 H -0.00126 1.06020 0.85395
 H117 H 0.00969 1.14578 0.83823
 H118 H 0.02960 1.08859 0.78220
 H119 H 0.01692 1.00523 0.79901
 C120 C -0.16223 0.92164 0.88005
 C121 C 0.12572 0.98110 0.88039
 C122 C 0.02173 1.12568 0.80881
 C123 C -0.01898 0.83401 0.79545
 C124 C 0.42475 0.11382 0.00306
 C125 C 0.42141 0.10757 -0.01665
 C126 C 0.45273 0.08529 -0.02202
 N127 N 0.47543 0.07821 -0.00629
 C128 C 0.45848 0.09576 0.00905
 C129 C 0.45719 0.06851 -0.04087
 C130 C 0.49414 0.05182 -0.04622
 C131 C 0.49035 0.02150 -0.06229
 C132 C 0.53438 0.01498 -0.06268
 C133 C 0.56427 0.04207 -0.04696
 N134 N 0.53946 0.06458 -0.03703
 C135 C 0.61472 0.04810 -0.04292
 C136 C 0.64051 0.06908 -0.02543
 C137 C 0.69452 0.08706 -0.02258
 C138 C 0.70254 0.10160 -0.00357
 C139 C 0.65321 0.09234 0.00460
 N140 N 0.61530 0.07211 -0.00879
 C141 C 0.64278 0.09824 0.02447
 C142 C 0.59320 0.09237 0.03205
 C143 C 0.57669 0.08723 0.05174
 C144 C 0.52772 0.08488 0.05282
 C145 C 0.51609 0.09002 0.03379
 N146 N 0.55640 0.09496 0.02127
 C147 C 0.47093 0.09337 0.02858
 H148 H 0.40502 0.13033 0.01194
 H149 H 0.39837 0.11808 -0.02592
 H150 H 0.56166 0.10560 0.00639
 H151 H 0.45890 0.00538 -0.07259
 H152 H 0.54343 -0.00696 -0.07345
 H153 H 0.72513 0.08964 -0.03308
 H154 H 0.74031 0.11664 0.00345
 H155 H 0.50412 0.08113 0.06617
 H156 H 0.55555 0.09227 -0.02600
 H157 H 0.59761 0.08592 0.06420
 C158 C -0.00210 0.32547 0.68302
 C159 C -0.00506 0.32432 0.66317
 C160 C -0.00250 0.37306 0.65692
 N161 N 0.00154 0.40375 0.67231
 C162 C 0.00169 0.37463 0.68829
 C163 C 0.00037 0.39052 0.63718
 C164 C -0.00097 0.43847 0.63160
 C165 C 0.01823 0.46766 0.61348
 C166 C 0.00807 0.51025 0.61378
 C167 C -0.01742 0.50565 0.63204
 N168 N -0.02273 0.46175 0.64281
 C169 C -0.03806 0.53926 0.63789
 C170 C -0.05521 0.53921 0.65755
 C171 C -0.08836 0.55871 0.66373
 C172 C -0.09106 0.55561 0.68379
 C173 C -0.05966 0.53410 0.68917
 N174 N -0.03799 0.52385 0.67313
 C175 C -0.04753 0.52864 0.70850
 C176 C -0.02366 0.49771 0.71366
 C177 C 0.00166 0.50225 0.73078
 C178 C 0.01833 0.46452 0.73036
 C179 C 0.00205 0.43744 0.71313
 N180 N -0.02363 0.45788 0.70306
 C181 C 0.00912 0.39354 0.70739
 H182 H -0.00265 0.29370 0.69250
 H183 H -0.00815 0.29154 0.65436
 H184 H -0.04459 0.44198 0.69060
 H185 H 0.03795 0.45946 0.60136
 H186 H 0.01830 0.54095 0.60184
 H187 H -0.10849 0.57364 0.65475
 H188 H -0.11334 0.56806 0.69330
 H189 H 0.04006 0.45802 0.74150
 H190 H -0.04506 0.44489 0.65624
 H191 H 0.00805 0.53028 0.74227
 C192 C 0.35224 0.32751 0.33987
 C193 C 0.35202 0.33728 0.32021
 C194 C 0.40280 0.38446 0.31433
 N195 N 0.43420 0.40337 0.32970
 C196 C 0.40339 0.36867 0.34535
 C197 C 0.42145 0.40585 0.29478
 C198 C 0.47221 0.45589 0.28941
 C199 C 0.49646 0.47220 0.27049
 C200 C 0.54312 0.52445 0.27112
 C201 C 0.54610 0.53882 0.29040
 N202 N 0.50252 0.49693 0.30144
 C203 C 0.58715 0.59078 0.29700
 C204 C 0.59641 0.60045 0.31695
 C205 C 0.63235 0.65214 0.32409
 C206 C 0.63225 0.64276 0.34382
 C207 C 0.59554 0.58570 0.34819
 N208 N 0.57406 0.55994 0.33169
 C209 C 0.58639 0.55742 0.36669
 C210 C 0.54638 0.49967 0.37078
 C211 C 0.54443 0.46761 0.38691
 C212 C 0.49811 0.41499 0.38619
 C213 C 0.47252 0.41636 0.36978
 N214 N 0.50215 0.46822 0.36050
 C215 C 0.42212 0.37091 0.36415
 H216 H 0.31875 0.29336 0.34899
 H217 H 0.31856 0.31173 0.31129
 H218 H 0.48991 0.48305 0.34905
 H219 H 0.48188 0.44919 0.25749
 H220 H 0.57151 0.54911 0.25873
 H221 H 0.65675 0.69238 0.31594
 H222 H 0.65726 0.67447 0.35364
 H223 H 0.48491 0.37979 0.39662
 H224 H 0.49096 0.49897 0.31581
 H225 H 0.57328 0.48066 0.39810
 C226 C -0.05355 0.15168 0.54483
 C227 C -0.02147 0.17557 0.56053
 C228 C -0.02035 0.22043 0.57138
 N229 N 0.01397 0.24236 0.58591
 N230 N 0.01406 0.28101 0.59669
 C231 C -0.02026 0.29921 0.59339
 N232 N -0.05439 0.27759 0.57875
 N233 N -0.05444 0.23889 0.56790
 C234 C -0.02274 0.33924 0.60612
 C235 C 0.00957 0.35929 0.62198
 H236 H 0.00429 0.16073 0.56523
 H237 H -0.05301 0.35014 0.60383
 H238 H -0.07540 0.16971 0.53885
 H239 H 0.03824 0.34642 0.62460
 C240 C 0.86329 0.84222 0.21322
 C241 C 0.80589 0.81231 0.21496
 C242 C 0.77337 0.77283 0.23180
 N243 N 0.71816 0.74857 0.23340
 N244 N 0.68795 0.71355 0.24869
 C245 C 0.71181 0.70148 0.26298
 N246 N 0.76704 0.72563 0.26137
 N247 N 0.79731 0.76076 0.24609
 C248 C 0.67863 0.66216 0.27977
 C249 C 0.62184 0.63659 0.28186
 H250 H 0.78313 0.81918 0.20442
 H251 H 0.69895 0.65152 0.29035
 H252 H 0.88351 0.83404 0.22457
 H253 H 0.60131 0.64497 0.27070
 C254 C 0.16498 -0.01556 -0.10581
 C255 C 0.21997 0.02791 -0.10676
 C256 C 0.25739 0.02933 -0.09263
 N257 N 0.31223 0.06652 -0.09573
 N258 N 0.34642 0.06819 -0.08298
 C259 C 0.32695 0.03286 -0.06663
 N260 N 0.27213 -0.00404 -0.06347
 N261 N 0.23799 -0.00590 -0.07626
 C262 C 0.36385 0.03482 -0.05221
 C263 C 0.42067 0.06657 -0.05572
 H264 H 0.23658 0.06058 -0.11844
 H265 H 0.34588 0.01038 -0.03842
 H266 H 0.15043 -0.05031 -0.09501
 H267 H 0.43889 0.08695 -0.07007
 C268 C -0.03648 0.81045 0.56724
 C269 C -0.01467 0.77702 0.56443
 C270 C -0.01759 0.73909 0.58028
 N271 N -0.01565 0.69326 0.57606
 N272 N -0.01873 0.65840 0.59035
 C273 C -0.02326 0.66847 0.60938
 N274 N -0.02445 0.71470 0.61360
 N275 N -0.02203 0.74919 0.59931
 C276 C -0.02535 0.63118 0.62530
 C277 C -0.04110 0.57575 0.62253
 H278 H 0.00175 0.77604 0.55001
 H279 H -0.01399 0.64802 0.63949
 H280 H -0.05864 0.80611 0.58107
 H281 H -0.05170 0.56004 0.60814
 C282 C 0.16445 0.21934 0.21087
 C283 C 0.21425 0.22677 0.21595
 C284 C 0.24693 0.26455 0.23088
 N285 N 0.29540 0.27028 0.23451
 N286 N 0.32511 0.30269 0.24838
 C287 C 0.30742 0.33056 0.25919
 N288 N 0.25895 0.32500 0.25554
 N289 N 0.22918 0.29254 0.24163
 C290 C 0.33947 0.36530 0.27486
 C291 C 0.38915 0.37144 0.27895
 H292 H 0.23112 0.20475 0.20893
 H293 H 0.32353 0.38584 0.28356
 H294 H 0.15183 0.24592 0.21730
 H295 H 0.40658 0.35302 0.26985
 C296 C 0.80078 -0.07750 -0.10726
 C297 C 0.76353 -0.06220 -0.11214
 C298 C 0.73369 -0.05026 -0.09699
 N299 N 0.70886 -0.02255 -0.10209
 N300 N 0.68490 -0.00801 -0.08847
 C301 C 0.68478 -0.02075 -0.06922
 N302 N 0.70890 -0.04918 -0.06412
 N303 N 0.73309 -0.06348 -0.07774
 C304 C 0.65994 -0.00356 -0.05397
 C305 C 0.64170 0.03242 -0.05818
 H306 H 0.75973 -0.05264 -0.12710
 H307 H 0.65654 -0.01899 -0.03900
 H308 H 0.80270 -0.08500 -0.09181
 H309 H 0.64320 0.04605 -0.07325
 C310 C 0.17216 0.02365 0.10102
 C311 C 0.22745 0.06646 0.09828
 C312 C 0.26675 0.06237 0.08505
 N313 N 0.32087 0.10304 0.08424
 N314 N 0.35678 0.10087 0.07190
 C315 C 0.33979 0.05795 0.05989
 N316 N 0.28570 0.01727 0.06071
 N317 N 0.24983 0.01935 0.07308
 C318 C 0.37817 0.05610 0.04550
 C319 C 0.43467 0.09457 0.04442
 H320 H 0.24289 0.10404 0.10626
 H321 H 0.36127 0.02403 0.03499
 H322 H 0.15812 -0.01574 0.09430
 H323 H 0.45281 0.12428 0.05562
 C324 C 0.78499 0.81155 0.45197
 C325 C 0.78234 0.76571 0.44326
 C326 C 0.73980 0.73047 0.43012
 N327 N 0.73956 0.68639 0.42243
 N328 N 0.70243 0.65467 0.41012
 C329 C 0.66403 0.66581 0.40504
 N330 N 0.66409 0.70979 0.41278
 N331 N 0.70127 0.74154 0.42511
 C332 C 0.62408 0.63233 0.39088
 C333 C 0.62386 0.58816 0.38204
 H334 H 0.81179 0.75413 0.44590
 H335 H 0.59537 0.64390 0.38672
 H336 H 0.75271 0.81935 0.44938
 H337 H 0.65071 0.57462 0.38665
 C338 C 0.02436 0.17297 0.79995
 C339 C 0.04029 0.19082 0.78021
 C340 C 0.03376 0.23414 0.77060
 N341 N 0.05709 0.25487 0.75226
 N342 N 0.04864 0.29110 0.74266
 C343 C 0.01622 0.30778 0.75096
 N344 N -0.00702 0.28722 0.76936
 N345 N 0.00168 0.25113 0.77903
 C346 C 0.00353 0.34452 0.73976
 C347 C 0.02903 0.36784 0.72120
 H348 H 0.05845 0.17309 0.77119
 H349 H -0.02878 0.35009 0.74557
 H350 H 0.01350 0.19725 0.80895
 H351 H 0.06024 0.36051 0.71545
 C352 C 0.84796 0.07943 0.11437
 C353 C 0.85572 0.10389 0.09558
 C354 C 0.80971 0.09752 0.08502
 N355 N 0.81973 0.13010 0.06847
 N356 N 0.77856 0.12309 0.05830
 C357 C 0.72584 0.08286 0.06419
 N358 N 0.71583 0.05013 0.08069
 N359 N 0.75697 0.05744 0.09096
 C360 C 0.68017 0.07305 0.05265
 C361 C 0.68658 0.11125 0.03776
 H362 H 0.89653 0.12830 0.08833
 H363 H 0.64070 0.03442 0.05574
 H364 H 0.80796 0.06019 0.12222
 H365 H 0.72647 0.14907 0.03430
 C366 C 0.17983 0.13114 0.45894
 C367 C 0.19426 0.13214 0.43911
 C368 C 0.24266 0.18133 0.42878
 N369 N 0.25810 0.17761 0.41019
 N370 N 0.29965 0.22250 0.40013
 C371 C 0.32722 0.27296 0.40824
 N372 N 0.31192 0.27669 0.42687
 N373 N 0.27047 0.23167 0.43698
 C374 C 0.37056 0.32360 0.39670
 C375 C 0.38840 0.32054 0.37780
 H376 H 0.16990 0.09648 0.43059
 H377 H 0.38606 0.36423 0.40265
 H378 H 0.20904 0.16549 0.46718
 H379 H 0.37164 0.27968 0.37189
 C380 C -0.01757 0.79868 0.78162
 C381 C -0.05920 0.74279 0.77961
 C382 C -0.05329 0.70977 0.76448
 N383 N -0.08551 0.65279 0.76581
 N384 N -0.07977 0.62274 0.75229
 C385 C -0.04184 0.64868 0.73686
 N386 N -0.01013 0.70560 0.73542
 N387 N -0.01559 0.73557 0.74900
 C388 C -0.03493 0.61662 0.72168
 C389 C -0.05748 0.55884 0.72393
 H390 H -0.09527 0.72148 0.78971
 H391 H -0.00966 0.63957 0.70846
 H392 H 0.01969 0.81551 0.77215
 H393 H -0.07819 0.53634 0.73780
   
