data_POSCAR
  _audit_creation_date              2014-09-24
  _audit_creation_method            'ToBaCCo'
  _symmetry_space_group_name_H-M    'P1'
  _symmetry_Int_Tables_number       1
  _symmetry_cell_setting            triclinic
  loop_
  _symmetry_equiv_pos_as_xyz
 x,y,z
_cell_length_a 41.2497
_cell_length_b 40.5542
_cell_length_c 41.4334
_cell_angle_alpha 90.040300
_cell_angle_beta 89.982400
_cell_angle_gamma 90.020300
loop_
  _atom_site_label
  _atom_site_type_symbol
  _atom_site_fract_x
  _atom_site_fract_y
  _atom_site_fract_z
N1 N 0.58559 0.67484 0.60905
 N2 N 0.57301 0.66145 0.63510
 C3 C 0.54690 0.67911 0.64422
 C4 C 0.54276 0.70455 0.62247
 C5 C 0.56763 0.70110 0.60041
 H6 H 0.53183 0.67380 0.66494
 H7 H 0.57254 0.71685 0.57993
 Cu8 Cu 0.59157 0.62195 0.65427
 Cu9 Cu 0.62491 0.65799 0.58902
 Cu10 Cu 0.66034 0.58942 0.62425
 N11 N 0.61207 0.58369 0.67388
 N12 N 0.63956 0.57185 0.66275
 C13 C 0.64905 0.54646 0.68142
 C14 C 0.62601 0.54191 0.70526
 C15 C 0.60283 0.56588 0.69974
 H16 H 0.67081 0.53208 0.67767
 H17 H 0.58115 0.57022 0.71379
 N18 N 0.67773 0.61068 0.58517
 N19 N 0.66474 0.63735 0.57228
 C20 C 0.68258 0.64650 0.54655
 C21 C 0.70763 0.62427 0.54289
 C22 C 0.70384 0.60184 0.56764
 H23 H 0.67753 0.66747 0.53126
 H24 H 0.71920 0.58084 0.57260
 H25 H 0.61926 0.60959 0.60363
 H26 H 0.64358 0.63707 0.63056
 N27 N 0.91490 0.32397 0.10885
 N28 N 0.92664 0.33655 0.13568
 C29 C 0.95233 0.31849 0.14520
 C30 C 0.95715 0.29363 0.12284
 C31 C 0.93304 0.29788 0.10003
 H32 H 0.96673 0.32325 0.16651
 H33 H 0.92874 0.28282 0.07890
 Cu34 Cu 0.90779 0.37591 0.15488
 Cu35 Cu 0.87624 0.34151 0.08807
 Cu36 Cu 0.84090 0.41037 0.12315
 N37 N 0.88780 0.41460 0.17426
 N38 N 0.86110 0.42737 0.16226
 C39 C 0.85191 0.45314 0.18060
 C40 C 0.87427 0.45691 0.20513
 C41 C 0.89677 0.43215 0.20039
 H42 H 0.83083 0.46833 0.17620
 H43 H 0.91787 0.42723 0.21510
 N44 N 0.82409 0.38957 0.08354
 N45 N 0.83703 0.36281 0.07069
 C46 C 0.81945 0.35389 0.04472
 C47 C 0.79462 0.37634 0.04085
 C48 C 0.79829 0.39868 0.06573
 H49 H 0.82441 0.33282 0.02949
 H50 H 0.78294 0.41970 0.07067
 H51 H 0.88218 0.38959 0.10355
 H52 H 0.85637 0.36228 0.12915
 N53 N 0.41398 0.17641 -0.10909
 N54 N 0.42630 0.16326 -0.13539
 C55 C 0.45223 0.18110 -0.14469
 C56 C 0.45654 0.20641 -0.12279
 C57 C 0.43195 0.20270 -0.10046
 H58 H 0.46712 0.17595 -0.16558
 H59 H 0.42726 0.21825 -0.07976
 Cu60 Cu 0.40775 0.12366 -0.15443
 Cu61 Cu 0.37503 0.15914 -0.08863
 Cu62 Cu 0.34012 0.08988 -0.12334
 N63 N 0.38771 0.08496 -0.17375
 N64 N 0.36076 0.07245 -0.16202
 C65 C 0.35156 0.04669 -0.18038
 C66 C 0.37416 0.04267 -0.20466
 C67 C 0.39682 0.06725 -0.19975
 H68 H 0.33025 0.03174 -0.17621
 H69 H 0.41808 0.07202 -0.21429
 N70 N 0.32284 0.11111 -0.08417
 N71 N 0.33559 0.13803 -0.07149
 C72 C 0.31776 0.14716 -0.04574
 C73 C 0.29296 0.12466 -0.04185
 C74 C 0.29690 0.10209 -0.06648
 H75 H 0.32259 0.16835 -0.03063
 H76 H 0.28170 0.08092 -0.07130
 H77 H 0.38116 0.11084 -0.10335
 H78 H 0.35592 0.13784 -0.12980
 N79 N 0.08498 0.82398 0.39099
 N80 N 0.07315 0.83660 0.36424
 C81 C 0.04739 0.81858 0.35478
 C82 C 0.04263 0.79369 0.37710
 C83 C 0.06684 0.79790 0.39982
 H84 H 0.03292 0.82337 0.33354
 H85 H 0.07121 0.78280 0.42088
 Cu86 Cu 0.09200 0.87597 0.34506
 Cu87 Cu 0.12377 0.84141 0.41163
 Cu88 Cu 0.15915 0.91023 0.37657
 N89 N 0.11201 0.91464 0.32570
 N90 N 0.13881 0.92733 0.33761
 C91 C 0.14798 0.95311 0.31930
 C92 C 0.12552 0.95697 0.29489
 C93 C 0.10298 0.93226 0.29965
 H94 H 0.16913 0.96824 0.32366
 H95 H 0.08180 0.92740 0.28503
 N96 N 0.17610 0.88933 0.41603
 N97 N 0.16312 0.86261 0.42889
 C98 C 0.18079 0.85362 0.45477
 C99 C 0.20572 0.87598 0.45856
 C100 C 0.20203 0.89834 0.43374
 H101 H 0.17580 0.83256 0.46998
 H102 H 0.21743 0.91932 0.42877
 H103 H 0.11791 0.88953 0.39630
 H104 H 0.14351 0.86218 0.37051
 N105 N 0.12485 0.12523 0.12527
 N106 N 0.37422 0.87474 0.62518
 N107 N 0.87504 0.62505 0.37508
 N108 N 0.62599 0.37578 -0.12564
 C109 C 0.02794 0.22244 0.12391
 N110 N 0.00781 0.22550 0.09818
 N111 N -0.01529 0.24845 0.09792
 C112 C -0.01885 0.26947 0.12321
 N113 N 0.00144 0.26651 0.14886
 N114 N 0.02428 0.24329 0.14929
 C115 C 0.05325 0.19704 0.12427
 N116 N 0.06677 0.18720 0.15254
 N117 N 0.08962 0.16399 0.15289
 C118 C 0.10006 0.15008 0.12493
 N119 N 0.08668 0.16008 0.09664
 N120 N 0.06355 0.18299 0.09634
 C121 C 0.47075 0.77705 0.62359
 N122 N 0.48845 0.77147 0.59651
 N123 N 0.51151 0.74847 0.59620
 C124 C 0.51745 0.72999 0.62286
 N125 N 0.49963 0.73545 0.64988
 N126 N 0.47681 0.75869 0.65030
 C127 C 0.44551 0.80255 0.62401
 N128 N 0.43353 0.81397 0.65241
 N129 N 0.41077 0.83726 0.65280
 C130 C 0.39890 0.84974 0.62478
 N131 N 0.41077 0.83817 0.59637
 N132 N 0.43378 0.81512 0.59599
 C133 C 0.97183 0.72246 0.37618
 N134 N 0.99206 0.72552 0.40183
 N135 N 1.01516 0.74849 0.40204
 C136 C 1.01862 0.76953 0.37678
 N137 N 0.99821 0.76658 0.35121
 N138 N 0.97537 0.74334 0.35083
 C139 C 0.94653 0.69702 0.37588
 N140 N 0.93291 0.68716 0.34766
 N141 N 0.91009 0.66390 0.34737
 C142 C 0.89978 0.64996 0.37535
 N143 N 0.91327 0.65999 0.40360
 N144 N 0.93637 0.68296 0.40383
 C145 C 0.52872 0.27879 -0.12395
 N146 N 0.52227 0.26072 -0.15080
 N147 N 0.49938 0.23755 -0.15037
 C148 C 0.48186 0.23186 -0.12320
 N149 N 0.48818 0.25004 -0.09641
 N150 N 0.51132 0.27297 -0.09673
 C151 C 0.55410 0.30416 -0.12438
 N152 N 0.56632 0.31631 -0.09637
 N153 N 0.58951 0.33918 -0.09676
 C154 C 0.60109 0.35099 -0.12519
 N155 N 0.58871 0.33896 -0.15320
 N156 N 0.56576 0.31584 -0.15279
 C157 C 0.12532 0.02874 0.22251
 N158 N 0.09809 0.01120 0.22915
 N159 N 0.09821 -0.01181 0.25209
 C160 C 0.12547 -0.01786 0.26944
 N161 N 0.15266 -0.00021 0.26291
 N162 N 0.15264 0.02256 0.23974
 C163 C 0.12522 0.05397 0.19713
 N164 N 0.15350 0.06566 0.18488
 N165 N 0.15339 0.08841 0.16171
 C166 C 0.12499 0.10057 0.15017
 N167 N 0.09671 0.08900 0.16257
 N168 N 0.09682 0.06599 0.18551
 C169 C 0.62616 0.47200 -0.22306
 N170 N 0.65214 0.47549 -0.24288
 N171 N 0.65203 0.49804 -0.26625
 C172 C 0.62609 0.51822 -0.27041
 N173 N 0.60020 0.51485 -0.25041
 N174 N 0.60015 0.49202 -0.22730
 C175 C 0.62614 0.44694 -0.19754
 N176 N 0.59786 0.43671 -0.18410
 N177 N 0.59779 0.41375 -0.16113
 C178 C 0.62605 0.40047 -0.15047
 N179 N 0.65436 0.41087 -0.16377
 N180 N 0.65438 0.43355 -0.18702
 C181 C 0.37414 0.97117 0.72261
 N182 N 0.40142 0.98863 0.72929
 N183 N 0.40137 1.01154 0.75235
 C184 C 0.37415 1.01758 0.76978
 N185 N 0.34691 1.00001 0.76322
 N186 N 0.34687 0.97733 0.73994
 C187 C 0.37416 0.94602 0.69712
 N188 N 0.34583 0.93424 0.68507
 N189 N 0.34584 0.91150 0.66185
 C190 C 0.37420 0.89945 0.65006
 N191 N 0.40253 0.91114 0.66224
 N192 N 0.40251 0.93413 0.68523
 C193 C 0.87445 0.52857 0.27771
 N194 N 0.84715 0.52242 0.26043
 N195 N 0.84712 0.49969 0.23720
 C196 C 0.87430 0.48204 0.23065
 N197 N 0.90155 0.48806 0.24805
 N198 N 0.90167 0.51103 0.27105
 C199 C 0.87458 0.55378 0.30314
 N200 N 0.90298 0.56585 0.31472
 N201 N 0.90312 0.58886 0.33769
 C202 C 0.87486 0.60037 0.35018
 N203 N 0.84644 0.58817 0.33868
 N204 N 0.84631 0.56541 0.31547
 C205 C 0.22113 0.12486 0.02936
 N206 N 0.22729 0.09717 0.01197
 N207 N 0.25006 0.09716 -0.01084
 C208 C 0.26773 0.12473 -0.01684
 N209 N 0.26170 0.15236 0.00066
 N210 N 0.23869 0.15248 0.02323
 C211 C 0.19594 0.12494 0.05437
 N212 N 0.18392 0.15381 0.06586
 N213 N 0.16096 0.15389 0.08849
 C214 C 0.14944 0.12511 0.10071
 N215 N 0.16159 0.09623 0.08930
 N216 N 0.18430 0.09616 0.06642
 C217 C 0.77925 0.62455 0.47148
 N218 N 0.77332 0.59692 0.48901
 N219 N 0.75064 0.59689 0.51192
 C220 C 0.73283 0.62437 0.51786
 N221 N 0.73863 0.65194 0.50022
 N222 N 0.76156 0.65208 0.47756
 C223 C 0.80432 0.62465 0.44634
 N224 N 0.81618 0.65353 0.43475
 N225 N 0.83901 0.65366 0.41201
 C226 C 0.85055 0.62489 0.39975
 N227 N 0.83856 0.59599 0.41125
 N228 N 0.81598 0.59588 0.43425
 C229 C 0.72295 0.37618 -0.03047
 N230 N 0.74059 0.34861 -0.02445
 N231 N 0.76358 0.34873 -0.00186
 C232 C 0.76949 0.37631 0.01576
 N233 N 0.75175 0.40384 0.00986
 N234 N 0.72900 0.40383 -0.01297
 C235 C 0.69769 0.37608 -0.05540
 N236 N 0.68594 0.40485 -0.06734
 N237 N 0.66307 0.40476 -0.09004
 C238 C 0.65084 0.37587 -0.10136
 N239 N 0.66251 0.34709 -0.08929
 N240 N 0.68563 0.34720 -0.06685
 C241 C 0.27759 0.87554 0.52968
 N242 N 0.27174 0.90315 0.51211
 N243 N 0.24895 0.90325 0.48933
 C244 C 0.23094 0.87585 0.48356
 N245 N 0.23666 0.84830 0.50125
 N246 N 0.25969 0.84809 0.52378
 C247 C 0.30284 0.87535 0.55462
 N248 N 0.31446 0.84642 0.56634
 N249 N 0.33750 0.84622 0.58886
 C250 C 0.34952 0.87496 0.60074
 N251 N 0.33776 0.90389 0.58913
 N252 N 0.31496 0.90408 0.56636
   
