data_POSCAR
  _audit_creation_date              2014-09-24
  _audit_creation_method            'ToBaCCo'
  _symmetry_space_group_name_H-M    'P1'
  _symmetry_Int_Tables_number       1
  _symmetry_cell_setting            triclinic
  loop_
  _symmetry_equiv_pos_as_xyz
 x,y,z
_cell_length_a 43.5392
_cell_length_b 43.5557
_cell_length_c 43.5936
_cell_angle_alpha 90.003300
_cell_angle_beta 90.005000
_cell_angle_gamma 90.026900
loop_
  _atom_site_label
  _atom_site_type_symbol
  _atom_site_fract_x
  _atom_site_fract_y
  _atom_site_fract_z
C1 C 0.18410 0.21354 0.22893
 C2 C 0.20425 0.18877 0.23363
 C3 C 0.22917 0.18363 0.21380
 C4 C 0.23381 0.20371 0.18897
 C5 C 0.21395 0.22861 0.18383
 C6 C 0.18917 0.23331 0.20396
 H7 H 0.20050 0.17342 0.25281
 H8 H 0.25294 0.19992 0.17357
 H9 H 0.17376 0.25243 0.20016
 C10 C 0.68370 0.71437 0.72908
 C11 C 0.70379 0.68953 0.73366
 C12 C 0.72870 0.68442 0.71380
 C13 C 0.73338 0.70460 0.68907
 C14 C 0.71359 0.72959 0.68405
 C15 C 0.68883 0.73425 0.70420
 H16 H 0.70001 0.67409 0.75276
 H17 H 0.75251 0.70083 0.67366
 H18 H 0.67346 0.75344 0.70050
 C19 C 0.31491 0.78649 0.72955
 C20 C 0.30991 0.76667 0.70462
 C21 C 0.28521 0.77130 0.68442
 C22 C 0.26533 0.79624 0.68940
 C23 C 0.26979 0.81648 0.71424
 C24 C 0.29474 0.81126 0.73416
 H25 H 0.32533 0.74753 0.70092
 H26 H 0.24633 0.79984 0.67379
 H27 H 0.29859 0.82652 0.75340
 C28 C 0.81664 0.28573 0.22948
 C29 C 0.79639 0.31056 0.23398
 C30 C 0.77144 0.31557 0.21414
 C31 C 0.76679 0.29541 0.18942
 C32 C 0.78663 0.27049 0.18437
 C33 C 0.81142 0.26583 0.20451
 H34 H 0.79999 0.32614 0.25300
 H35 H 0.74765 0.29914 0.17402
 H36 H 0.82669 0.24660 0.20064
 C37 C 0.81626 0.71409 0.27108
 C38 C 0.79615 0.68925 0.26651
 C39 C 0.77122 0.68416 0.28637
 C40 C 0.76655 0.70435 0.31108
 C41 C 0.78637 0.72935 0.31609
 C42 C 0.81114 0.73400 0.29594
 H43 H 0.79992 0.67380 0.24742
 H44 H 0.74742 0.70060 0.32649
 H45 H 0.82652 0.75318 0.29964
 C46 C 0.31672 0.21372 -0.22979
 C47 C 0.29648 0.18885 -0.23432
 C48 C 0.27149 0.18383 -0.21454
 C49 C 0.26677 0.20401 -0.18986
 C50 C 0.28659 0.22896 -0.18478
 C51 C 0.31142 0.23362 -0.20485
 H52 H 0.30014 0.17326 -0.25332
 H53 H 0.24759 0.20028 -0.17450
 H54 H 0.32667 0.25288 -0.20094
 C55 C 0.68347 0.28555 -0.22949
 C56 C 0.70367 0.31043 -0.23403
 C57 C 0.72865 0.31553 -0.21423
 C58 C 0.73337 0.29537 -0.18952
 C59 C 0.71359 0.27040 -0.18443
 C60 C 0.68878 0.26567 -0.20453
 H61 H 0.70001 0.32601 -0.25304
 H62 H 0.75254 0.29916 -0.17415
 H63 H 0.67356 0.24640 -0.20063
 C64 C 0.18485 0.78642 0.27087
 C65 C 0.18980 0.76664 0.29583
 C66 C 0.21448 0.77130 0.31606
 C67 C 0.23440 0.79621 0.31106
 C68 C 0.23001 0.81641 0.28618
 C69 C 0.20507 0.81117 0.26624
 H70 H 0.17433 0.74753 0.29954
 H71 H 0.25340 0.79982 0.32669
 H72 H 0.20127 0.82639 0.24697
 C73 C 0.46387 0.43391 0.47971
 C74 C 0.48370 0.43896 0.45477
 C75 C 0.47904 0.46370 0.43461
 C76 C 0.45411 0.48355 0.43968
 C77 C 0.43398 0.47895 0.46447
 C78 C 0.43909 0.45405 0.48434
 H79 H 0.50285 0.42355 0.45103
 H80 H 0.45034 0.50266 0.42425
 H81 H 0.42369 0.45032 0.50349
 C82 C -0.03621 -0.06521 0.97912
 C83 C -0.06098 -0.04506 0.98380
 C84 C -0.06629 -0.02014 0.96387
 C85 C -0.04613 -0.01570 0.93896
 C86 C -0.02120 -0.03555 0.93391
 C87 C -0.01647 -0.06022 0.95412
 H88 H -0.07616 -0.04889 1.00310
 H89 H -0.04980 0.00328 0.92334
 H90 H 0.00266 -0.07563 0.95037
 C91 C 1.03611 0.56610 0.97882
 C92 C 1.06086 0.54591 0.98346
 C93 C 1.06588 0.52096 0.96363
 C94 C 1.04570 0.51634 0.93889
 C95 C 1.02080 0.53623 0.93381
 C96 C 1.01622 0.56103 0.95393
 H97 H 1.07630 0.54964 1.00257
 H98 H 1.04940 0.49718 0.92350
 H99 H 0.99710 0.57647 0.95018
 C100 C 0.53659 0.06552 0.47953
 C101 C 0.56141 0.04541 0.48418
 C102 C 0.56672 0.02048 0.46426
 C103 C 0.54651 0.01598 0.43940
 C104 C 0.52153 0.03579 0.43438
 C105 C 0.51680 0.06047 0.45458
 H106 H 0.57664 0.04928 0.50343
 H107 H 0.55018 -0.00301 0.42380
 H108 H 0.49763 0.07584 0.45086
 C109 C -0.03665 0.06586 0.52049
 C110 C -0.06145 0.04572 0.51582
 C111 C -0.06670 0.02072 0.53568
 C112 C -0.04645 0.01620 0.56050
 C113 C -0.02148 0.03604 0.56553
 C114 C -0.01681 0.06078 0.54540
 H115 H -0.07672 0.04961 0.49660
 H116 H -0.05007 -0.00284 0.57606
 H117 H 0.00235 0.07618 0.54914
 C118 C 0.46393 0.56619 0.02118
 C119 C 0.43919 0.54598 0.01648
 C120 C 0.43415 0.52099 0.03624
 C121 C 0.45431 0.51633 0.06099
 C122 C 0.47921 0.53624 0.06614
 C123 C 0.48380 0.56109 0.04608
 H124 H 0.42377 0.54974 -0.00264
 H125 H 0.45059 0.49714 0.07633
 H126 H 0.50292 0.57654 0.04987
 C127 C 0.53599 -0.06656 0.02051
 C128 C 0.56093 -0.04639 0.01605
 C129 C 0.56608 -0.02154 0.03597
 C130 C 0.54595 -0.01690 0.06072
 C131 C 0.52094 -0.03666 0.06573
 C132 C 0.51615 -0.06134 0.04551
 H133 H 0.57648 -0.04999 -0.00300
 H134 H 0.54979 0.00217 0.07618
 H135 H 0.49684 -0.07654 0.04935
 C136 C 1.03615 0.43482 0.52033
 C137 C 1.06093 0.45499 0.51568
 C138 C 1.06620 0.47994 0.53560
 C139 C 1.04599 0.48437 0.56047
 C140 C 1.02105 0.46450 0.56549
 C141 C 1.01636 0.43981 0.54529
 H142 H 1.07616 0.45116 0.49642
 H143 H 1.04962 0.50337 0.57609
 H144 H 0.99722 0.42438 0.54902
 C145 C 0.42289 0.01352 0.20955
 H146 H 0.42477 0.03388 0.22365
 C147 C 0.44288 0.00928 0.18487
 H148 H 0.46004 0.02663 0.18010
 C149 C 0.39836 -0.03390 0.19911
 H150 H 0.38128 -0.05090 0.20497
 C151 C 0.41782 -0.03905 0.17417
 H152 H 0.41524 -0.05997 0.16100
 N153 N 0.40099 -0.00778 0.21600
 C154 C 0.32768 0.04019 0.26439
 H155 H 0.32587 0.02615 0.28478
 C156 C 0.30762 0.06482 0.26009
 H157 H 0.29050 0.06963 0.27744
 C158 C 0.35205 0.05050 0.21691
 H159 H 0.36907 0.04459 0.19990
 C160 C 0.33252 0.07538 0.21170
 H161 H 0.33501 0.08848 0.19074
 Zn162 Zn 0.37529 -0.00058 0.25029
 N163 N 0.34953 0.03369 0.24308
 C164 C 0.39853 0.03284 0.30136
 N165 N 0.40108 0.00668 0.28451
 C166 C 0.42299 -0.01461 0.29094
 C167 C 0.44307 -0.01030 0.31554
 C168 C 0.41809 0.03804 0.32622
 C169 C 0.32751 -0.04118 0.23633
 C170 C 0.30742 -0.06581 0.24060
 C171 C 0.33274 -0.07684 0.28867
 C172 C 0.35226 -0.05192 0.28352
 N173 N 0.34955 -0.03488 0.25752
 H174 H 0.38147 0.04983 0.29551
 H175 H 0.42482 -0.03499 0.27687
 H176 H 0.46023 -0.02765 0.32029
 H177 H 0.41558 0.05899 0.33934
 H178 H 0.32557 -0.02697 0.21606
 H179 H 0.29015 -0.07045 0.22334
 H180 H 0.33537 -0.09012 0.30949
 H181 H 0.36944 -0.04617 0.30044
 C182 C 0.30994 0.08287 0.23348
 C183 C 0.44044 -0.01727 0.16672
 C184 C 0.30994 -0.08410 0.26703
 C185 C 0.44072 0.01629 0.33363
 C186 C 0.07718 -0.01433 0.70887
 H187 H 0.07530 -0.03467 0.72299
 C188 C 0.05709 -0.01005 0.68428
 H189 H 0.03988 -0.02737 0.67958
 C190 C 0.10174 0.03306 0.69835
 H191 H 0.11884 0.05004 0.70416
 C192 C 0.08218 0.03824 0.67349
 H193 H 0.08472 0.05916 0.66032
 N194 N 0.09913 0.00694 0.71525
 C195 C 0.17252 -0.04088 0.76367
 H196 H 0.17446 -0.02661 0.78390
 C197 C 0.19256 -0.06555 0.75950
 H198 H 0.20980 -0.07016 0.77679
 C199 C 0.14780 -0.05173 0.71648
 H200 H 0.13066 -0.04601 0.69953
 C201 C 0.16728 -0.07669 0.71144
 H202 H 0.16464 -0.09003 0.69065
 Zn203 Zn 0.12487 -0.00024 0.74951
 N204 N 0.15052 -0.03461 0.74244
 C205 C 0.10161 -0.03337 0.80074
 N206 N 0.09910 -0.00727 0.78379
 C207 C 0.07727 0.01410 0.79015
 C208 C 0.05720 0.00995 0.81479
 C209 C 0.08207 -0.03842 0.82563
 C210 C 0.17262 0.04036 0.73531
 C211 C 0.19276 0.06496 0.73953
 C212 C 0.16786 0.07575 0.78787
 C213 C 0.14825 0.05089 0.78274
 N214 N 0.15073 0.03399 0.75662
 H215 H 0.11864 -0.05042 0.79494
 H216 H 0.07548 0.03443 0.77601
 H217 H 0.04009 0.02736 0.81949
 H218 H 0.08454 -0.05932 0.83884
 H219 H 0.17439 0.02625 0.71496
 H220 H 0.20990 0.06966 0.72217
 H221 H 0.16541 0.08892 0.80879
 H222 H 0.13120 0.04509 0.79976
 C223 C 0.19003 -0.08391 0.73312
 C224 C 0.05948 0.01651 0.66613
 C225 C 0.19048 0.08310 0.76609
 C226 C 0.05949 -0.01657 0.83298
 C227 C 0.57759 0.48564 0.20956
 H228 H 0.57577 0.46521 0.22356
 C229 C 0.55757 0.48995 0.18491
 H230 H 0.54046 0.47257 0.18007
 C231 C 0.60197 0.53319 0.19935
 H232 H 0.61898 0.55023 0.20530
 C233 C 0.58247 0.53841 0.17445
 H234 H 0.58497 0.55940 0.16139
 N235 N 0.59943 0.50698 0.21611
 C236 C 0.67268 0.45891 0.26451
 H237 H 0.67445 0.47295 0.28491
 C238 C 0.69275 0.43429 0.26023
 H239 H 0.70985 0.42949 0.27762
 C240 C 0.64839 0.44861 0.21697
 H241 H 0.63141 0.45453 0.19993
 C242 C 0.66794 0.42374 0.21179
 H243 H 0.66551 0.41065 0.19082
 Zn244 Zn 0.62514 0.49970 0.25037
 N245 N 0.65087 0.46541 0.24316
 C246 C 0.60182 0.46631 0.30142
 N247 N 0.59935 0.49250 0.28460
 C248 C 0.57755 0.51387 0.29108
 C249 C 0.55748 0.50963 0.31570
 C250 C 0.58228 0.46117 0.32630
 C251 C 0.67279 0.54041 0.23629
 C252 C 0.69286 0.56506 0.24054
 C253 C 0.66798 0.57570 0.28891
 C254 C 0.64844 0.55080 0.28376
 N255 N 0.65094 0.53395 0.25761
 H256 H 0.61881 0.44925 0.29553
 H257 H 0.57579 0.53427 0.27703
 H258 H 0.54040 0.52704 0.32049
 H259 H 0.58473 0.44020 0.33941
 H260 H 0.67458 0.52634 0.21591
 H261 H 0.70997 0.56984 0.22316
 H262 H 0.66551 0.58884 0.30985
 H263 H 0.63141 0.54492 0.30078
 C264 C 0.69049 0.41625 0.23361
 C265 C 0.55991 0.51660 0.16691
 C266 C 0.69055 0.58317 0.26711
 C267 C 0.55975 0.48301 0.33377
 C268 C 0.92231 0.51430 0.70898
 H269 H 0.92404 0.53468 0.72306
 C270 C 0.94241 0.51012 0.68438
 H271 H 0.95950 0.52756 0.67965
 C272 C 0.89807 0.46673 0.69852
 H273 H 0.88108 0.44964 0.70435
 C274 C 0.91765 0.46165 0.67366
 H275 H 0.91523 0.44070 0.66051
 N276 N 0.90050 0.49289 0.71538
 C277 C 0.82706 0.54067 0.76377
 H278 H 0.82527 0.52658 0.78413
 C279 C 0.80700 0.56531 0.75956
 H280 H 0.78989 0.57007 0.77694
 C281 C 0.85140 0.55111 0.71630
 H282 H 0.86842 0.54525 0.69927
 C283 C 0.83187 0.57601 0.71118
 H284 H 0.83434 0.58916 0.69026
 Zn285 Zn 0.87470 0.50000 0.74962
 N286 N 0.84890 0.53424 0.74244
 C287 C 0.89789 0.53340 0.80073
 N288 N 0.90042 0.50723 0.78389
 C289 C 0.92227 0.48590 0.79036
 C290 C 0.94232 0.49017 0.81499
 C291 C 0.91741 0.53857 0.82562
 C292 C 0.82718 0.45913 0.73542
 C293 C 0.80713 0.43446 0.73967
 C294 C 0.83195 0.42394 0.78811
 C295 C 0.85147 0.44886 0.78295
 N296 N 0.84899 0.46566 0.75678
 H297 H 0.88087 0.55042 0.79484
 H298 H 0.92408 0.46551 0.77629
 H299 H 0.95943 0.47279 0.81977
 H300 H 0.91492 0.55952 0.83874
 H301 H 0.82541 0.47317 0.71502
 H302 H 0.79005 0.42963 0.72228
 H303 H 0.83440 0.41085 0.80908
 H304 H 0.86845 0.45480 0.80000
 C305 C 0.80931 0.58344 0.73300
 C306 C 0.94019 0.48353 0.66626
 C307 C 0.80941 0.41642 0.76629
 C308 C 0.93999 0.51677 0.83308
 C309 C 0.20927 0.42217 0.01384
 H310 H 0.22334 0.42391 0.03423
 C311 C 0.18465 0.44225 0.00962
 H312 H 0.17987 0.45932 0.02703
 C313 C 0.19891 0.39795 -0.03371
 H314 H 0.20480 0.38098 -0.05078
 C315 C 0.17402 0.41750 -0.03884
 H316 H 0.16091 0.41509 -0.05980
 N317 N 0.21574 0.40039 -0.00754
 C318 C 0.26418 0.32700 0.04025
 H319 H 0.28459 0.32524 0.02621
 C320 C 0.25993 0.30692 0.06487
 H321 H 0.27733 0.28984 0.06965
 C322 C 0.21661 0.35127 0.05060
 H323 H 0.19956 0.36827 0.04472
 C324 C 0.21146 0.33173 0.07547
 H325 H 0.19048 0.33418 0.08857
 Zn326 Zn 0.25003 0.37464 -0.00039
 N327 N 0.24281 0.34881 0.03379
 C328 C 0.30113 0.39786 0.03306
 N329 N 0.28430 0.40040 0.00690
 C330 C 0.29076 0.42229 -0.01438
 C331 C 0.31538 0.44238 -0.01006
 C332 C 0.32601 0.41742 0.03828
 C333 C 0.23592 0.32718 -0.04127
 C334 C 0.24022 0.30720 -0.06595
 C335 C 0.28869 0.33211 -0.07640
 C336 C 0.28349 0.35156 -0.05147
 N337 N 0.25728 0.34900 -0.03470
 H338 H 0.29524 0.38081 0.05004
 H339 H 0.27669 0.42410 -0.03476
 H340 H 0.32016 0.45953 -0.02739
 H341 H 0.33912 0.41493 0.05923
 H342 H 0.21550 0.32534 -0.02725
 H343 H 0.22283 0.29010 -0.07081
 H344 H 0.30969 0.33463 -0.08946
 H345 H 0.30053 0.36855 -0.04550
 C346 C 0.23330 0.30920 0.08293
 C347 C 0.16657 0.44002 -0.01699
 C348 C 0.26687 0.30957 -0.08396
 C349 C 0.33346 0.44005 0.01654
 C350 C 0.70980 0.07698 -0.01416
 H351 H 0.72387 0.07520 -0.03454
 C352 C 0.68517 0.05689 -0.00990
 H353 H 0.68040 0.03976 -0.02726
 C354 C 0.69939 0.10134 0.03330
 H355 H 0.70525 0.11838 0.05031
 C356 C 0.67451 0.08177 0.03847
 H357 H 0.66137 0.08424 0.05941
 N358 N 0.71624 0.09885 0.00715
 C359 C 0.76440 0.17235 -0.04083
 H360 H 0.78480 0.17427 -0.02679
 C361 C 0.76005 0.19235 -0.06549
 H362 H 0.77737 0.20953 -0.07030
 C363 C 0.71696 0.14778 -0.05114
 H364 H 0.69999 0.13070 -0.04523
 C365 C 0.71170 0.16724 -0.07605
 H366 H 0.69073 0.16464 -0.08915
 Zn367 Zn 0.75047 0.12469 -0.00008
 N368 N 0.74314 0.15042 -0.03433
 C369 C 0.80183 0.10177 -0.03335
 N370 N 0.78482 0.09903 -0.00732
 C371 C 0.79118 0.07704 0.01387
 C372 C 0.81584 0.05701 0.00959
 C373 C 0.82678 0.08230 -0.03850
 C374 C 0.73632 0.17224 0.04069
 C375 C 0.74058 0.19224 0.06536
 C376 C 0.78900 0.16734 0.07597
 C377 C 0.78384 0.14787 0.05104
 N378 N 0.75767 0.15042 0.03419
 H379 H 0.79605 0.11891 -0.05027
 H380 H 0.77699 0.07508 0.03415
 H381 H 0.82052 0.03976 0.02685
 H382 H 0.84004 0.08495 -0.05935
 H383 H 0.71593 0.17406 0.02663
 H384 H 0.72319 0.20934 0.07017
 H385 H 0.80995 0.16483 0.08910
 H386 H 0.80087 0.13085 0.04514
 C387 C 0.73343 0.18989 -0.08356
 C388 C 0.66706 0.05918 0.01668
 C389 C 0.76718 0.18989 0.08346
 C390 C 0.83410 0.05955 -0.01686
 C391 C 0.20887 0.57732 0.48606
 H392 H 0.22313 0.57540 0.46582
 C393 C 0.18420 0.55726 0.49023
 H394 H 0.17957 0.54003 0.47293
 C395 C 0.19806 0.60197 0.53328
 H396 H 0.20379 0.61910 0.55024
 C397 C 0.17309 0.58248 0.53832
 H398 H 0.15977 0.58508 0.55913
 N399 N 0.21516 0.59929 0.50731
 C400 C 0.26391 0.67265 0.45972
 H401 H 0.28422 0.67445 0.47392
 C402 C 0.25980 0.69274 0.43511
 H403 H 0.27720 0.70988 0.43048
 C404 C 0.21647 0.64824 0.44899
 H405 H 0.19942 0.63118 0.45472
 C406 C 0.21145 0.66781 0.42411
 H407 H 0.19058 0.66533 0.41085
 Zn408 Zn 0.24954 0.62500 0.50027
 N409 N 0.24253 0.65077 0.46600
 C410 C 0.30077 0.60177 0.46710
 N411 N 0.28384 0.59923 0.49320
 C412 C 0.29025 0.57738 0.51452
 C413 C 0.31491 0.55733 0.51032
 C414 C 0.32568 0.58225 0.46199
 C415 C 0.23533 0.67265 0.54088
 C416 C 0.23952 0.69274 0.56549
 C417 C 0.28783 0.66775 0.57641
 C418 C 0.28273 0.64819 0.55153
 N419 N 0.25664 0.65074 0.53456
 H420 H 0.29493 0.61880 0.45007
 H421 H 0.27612 0.57556 0.53486
 H422 H 0.31965 0.54021 0.52768
 H423 H 0.33887 0.58475 0.44109
 H424 H 0.21501 0.67449 0.52671
 H425 H 0.22216 0.70990 0.57015
 H426 H 0.30872 0.66524 0.58964
 H427 H 0.29975 0.63112 0.54577
 C428 C 0.23330 0.69043 0.41685
 C429 C 0.16585 0.55974 0.51662
 C430 C 0.26604 0.69039 0.58371
 C431 C 0.33309 0.55967 0.48378
 C432 C 0.70946 0.92347 0.51398
 H433 H 0.72372 0.92546 0.53421
 C434 C 0.68481 0.94351 0.50973
 H435 H 0.68019 0.96080 0.52697
 C436 C 0.69863 0.89865 0.46684
 H437 H 0.70434 0.88145 0.44995
 C438 C 0.67368 0.91812 0.46172
 H439 H 0.66035 0.91544 0.44093
 N440 N 0.71572 0.90142 0.49281
 C441 C 0.76408 0.82803 0.54063
 H442 H 0.78441 0.82612 0.52649
 C443 C 0.75979 0.80798 0.56525
 H444 H 0.77708 0.79076 0.56995
 C445 C 0.71674 0.85265 0.55119
 H446 H 0.69979 0.86978 0.54539
 C447 C 0.71154 0.83313 0.57607
 H448 H 0.69064 0.83573 0.58926
 Zn449 Zn 0.75003 0.87570 0.49998
 N450 N 0.74284 0.84999 0.53426
 C451 C 0.80144 0.89871 0.53309
 N452 N 0.78435 0.90145 0.50712
 C453 C 0.79062 0.92348 0.48594
 C454 C 0.81527 0.94355 0.49017
 C455 C 0.82639 0.91821 0.53820
 C456 C 0.73595 0.82796 0.45940
 C457 C 0.74023 0.80788 0.43481
 C458 C 0.78848 0.83304 0.42395
 C459 C 0.78330 0.85259 0.44880
 N460 N 0.75720 0.84995 0.46574
 H461 H 0.79573 0.88153 0.55000
 H462 H 0.77637 0.92544 0.46570
 H463 H 0.81989 0.96083 0.47292
 H464 H 0.83972 0.91556 0.55900
 H465 H 0.71562 0.82607 0.47355
 H466 H 0.72292 0.79065 0.43014
 H467 H 0.80939 0.83562 0.41075
 H468 H 0.80026 0.86973 0.45458
 C469 C 0.73325 0.81043 0.58342
 C470 C 0.66645 0.94092 0.48335
 C471 C 0.76677 0.81031 0.41663
 C472 C 0.83362 0.94101 0.51657
 C473 C 0.01372 0.20962 0.42234
 H474 H 0.03409 0.22374 0.42420
 C475 C 0.00944 0.18497 0.44236
 H476 H 0.02678 0.18023 0.45951
 C477 C -0.03370 0.19912 0.39782
 H478 H -0.05068 0.20494 0.38073
 C479 C -0.03888 0.17421 0.41731
 H480 H -0.05981 0.16102 0.41475
 N481 N -0.00756 0.21603 0.40043
 C482 C 0.04049 0.26424 0.32710
 H483 H 0.02642 0.28462 0.32521
 C484 C 0.06516 0.25990 0.30710
 H485 H 0.06996 0.27722 0.28994
 C486 C 0.05083 0.21682 0.35162
 H487 H 0.04493 0.19985 0.36868
 C488 C 0.07575 0.21158 0.33215
 H489 H 0.08887 0.19063 0.33472
 Zn490 Zn -0.00032 0.25027 0.37466
 N491 N 0.03399 0.24298 0.34899
 C492 C 0.03307 0.30148 0.39771
 N493 N 0.00690 0.28462 0.40031
 C494 C -0.01441 0.29112 0.42215
 C495 C -0.01012 0.31582 0.44212
 C496 C 0.03827 0.32644 0.41715
 C497 C -0.04085 0.23612 0.32691
 C498 C -0.06547 0.24032 0.30682
 C499 C -0.07657 0.28847 0.33199
 C500 C -0.05166 0.28340 0.35152
 N501 N -0.03459 0.25739 0.34888
 H502 H 0.05009 0.29557 0.38070
 H503 H -0.03480 0.27703 0.42402
 H504 H -0.02748 0.32062 0.45924
 H505 H 0.05923 0.33957 0.41461
 H506 H -0.02663 0.21585 0.32504
 H507 H -0.07008 0.22301 0.28960
 H508 H -0.08987 0.30931 0.33456
 H509 H -0.04595 0.30037 0.36864
 C510 C 0.08324 0.23330 0.30952
 C511 C -0.01713 0.16680 0.43994
 C512 C -0.08379 0.26675 0.30926
 C513 C 0.01649 0.33393 0.43972
 C514 C -0.01386 0.70972 0.07731
 H515 H -0.03426 0.72379 0.07558
 C516 C -0.00966 0.68509 0.05725
 H517 H -0.02710 0.68031 0.04020
 C518 C 0.03374 0.69934 0.10152
 H519 H 0.05083 0.70521 0.11848
 C520 C 0.03884 0.67445 0.08199
 H521 H 0.05981 0.66132 0.08441
 N522 N 0.00755 0.71618 0.09909
 C523 C -0.04025 0.76450 0.17251
 H524 H -0.02617 0.78489 0.17430
 C525 C -0.06487 0.76021 0.19259
 H526 H -0.06962 0.77758 0.20970
 C527 C -0.05068 0.71699 0.14816
 H528 H -0.04482 0.69997 0.13114
 C529 C -0.07556 0.71181 0.16771
 H530 H -0.08870 0.69085 0.16523
 Zn531 Zn 0.00042 0.75042 0.12488
 N532 N -0.03382 0.74317 0.15066
 C533 C -0.03302 0.80156 0.10182
 N534 N -0.00683 0.78475 0.09924
 C535 C 0.01449 0.79128 0.07741
 C536 C 0.01018 0.81596 0.05742
 C537 C -0.03823 0.82650 0.08236
 C538 C 0.04125 0.73618 0.17232
 C539 C 0.06593 0.74040 0.19234
 C540 C 0.07657 0.78887 0.16757
 C541 C 0.05163 0.78375 0.14808
 N542 N 0.03476 0.75757 0.15056
 H543 H -0.05004 0.79562 0.11882
 H544 H 0.03489 0.77724 0.07556
 H545 H 0.02755 0.82079 0.04032
 H546 H -0.05920 0.83959 0.08489
 H547 H 0.02716 0.71579 0.17410
 H548 H 0.07072 0.72298 0.20940
 H549 H 0.08970 0.80983 0.16512
 H550 H 0.04572 0.80082 0.13112
 C551 C -0.08298 0.73360 0.19029
 C552 C 0.01695 0.66699 0.05949
 C553 C 0.08404 0.76701 0.19007
 C554 C -0.01644 0.83402 0.05980
 C555 C 0.48612 0.20902 0.57797
 H556 H 0.46580 0.22318 0.57607
 C557 C 0.49040 0.18440 0.55792
 H558 H 0.47310 0.17971 0.54070
 C559 C 0.53345 0.19842 0.60259
 H560 H 0.55040 0.20420 0.61972
 C561 C 0.53863 0.17354 0.58307
 H562 H 0.55953 0.16032 0.58566
 N563 N 0.50736 0.21537 0.59994
 C564 C 0.45956 0.26360 0.67340
 H565 H 0.47380 0.28386 0.67541
 C566 C 0.43488 0.25933 0.69341
 H567 H 0.43024 0.27657 0.71068
 C568 C 0.44877 0.21643 0.64857
 H569 H 0.45450 0.19953 0.63139
 C570 C 0.42380 0.21128 0.66801
 H571 H 0.41047 0.19046 0.66531
 Zn572 Zn 0.50018 0.24964 0.62569
 N573 N 0.46585 0.24243 0.65137
 C574 C 0.46691 0.30089 0.60266
 N575 N 0.49301 0.28395 0.60000
 C576 C 0.51426 0.29034 0.57806
 C577 C 0.50998 0.31498 0.55804
 C578 C 0.46173 0.32580 0.58316
 C579 C 0.54078 0.23559 0.67344
 C580 C 0.56543 0.23985 0.69348
 C581 C 0.57652 0.28794 0.66817
 C582 C 0.55157 0.28281 0.64869
 N583 N 0.53450 0.25680 0.65142
 H584 H 0.44995 0.29508 0.61976
 H585 H 0.53459 0.27619 0.57615
 H586 H 0.52729 0.31969 0.54084
 H587 H 0.44083 0.33900 0.58575
 H588 H 0.52654 0.21532 0.67539
 H589 H 0.57006 0.22259 0.71074
 H590 H 0.58983 0.30877 0.66552
 H591 H 0.54585 0.29973 0.63153
 C592 C 0.41653 0.23291 0.69080
 C593 C 0.51693 0.16620 0.56036
 C594 C 0.58377 0.26629 0.69094
 C595 C 0.48345 0.33317 0.56048
 C596 C 0.51385 0.71001 0.92287
 H597 H 0.53422 0.72413 0.92464
 C598 C 0.50966 0.68536 0.94292
 H599 H 0.52708 0.68062 0.95999
 C600 C 0.46631 0.69950 0.89859
 H601 H 0.44924 0.70533 0.88161
 C602 C 0.46122 0.67459 0.91811
 H603 H 0.44028 0.66141 0.91566
 N604 N 0.49246 0.71641 0.90107
 C605 C 0.54019 0.76476 0.82759
 H606 H 0.52608 0.78512 0.82576
 C607 C 0.56481 0.76048 0.80751
 H608 H 0.56954 0.77782 0.79036
 C609 C 0.55068 0.71734 0.85204
 H610 H 0.54484 0.70034 0.86909
 C611 C 0.57555 0.71215 0.83249
 H612 H 0.58871 0.69122 0.83500
 Zn613 Zn 0.49956 0.75067 0.87529
 N614 N 0.53379 0.74348 0.84949
 C615 C 0.53282 0.80204 0.89821
 N616 N 0.50678 0.78500 0.90095
 C617 C 0.48560 0.79128 0.92299
 C618 C 0.48992 0.81589 0.94306
 C619 C 0.53802 0.82694 0.91772
 C620 C 0.45873 0.73645 0.82782
 C621 C 0.43402 0.74064 0.80784
 C622 C 0.42326 0.78898 0.83280
 C623 C 0.44823 0.78388 0.85226
 N624 N 0.46518 0.75778 0.84966
 H625 H 0.54974 0.79631 0.88104
 H626 H 0.46531 0.77707 0.92495
 H627 H 0.47268 0.82051 0.96035
 H628 H 0.55888 0.84022 0.91508
 H629 H 0.47287 0.71611 0.82596
 H630 H 0.42926 0.72327 0.79072
 H631 H 0.41006 0.80988 0.83534
 H632 H 0.45409 0.80090 0.86929
 C633 C 0.58294 0.73391 0.80986
 C634 C 0.48308 0.66719 0.94064
 C635 C 0.41583 0.76718 0.81022
 C636 C 0.51640 0.83417 0.94053
 N637 N 0.13937 0.24366 0.24670
 C638 C 0.15781 0.21872 0.24999
 N639 N 0.15159 0.19861 0.27300
 N640 N 0.12797 0.20323 0.29185
 C641 C 0.10955 0.22817 0.28855
 N642 N 0.11577 0.24830 0.26557
 N643 N 0.65124 0.69933 0.77314
 C644 C 0.65743 0.71950 0.75018
 N645 N 0.63899 0.74445 0.74698
 N646 N 0.61541 0.74903 0.76590
 C647 C 0.60922 0.72884 0.78883
 N648 N 0.62764 0.70389 0.79204
 N649 N 0.35968 0.75648 0.74745
 C650 C 0.34120 0.78140 0.75066
 N651 N 0.34738 0.80159 0.77361
 N652 N 0.37102 0.79708 0.79247
 C653 C 0.38949 0.77217 0.78925
 N654 N 0.38329 0.75195 0.76634
 N655 N -0.15291 0.30043 0.27327
 C656 C -0.15838 0.28093 0.24952
 N657 N -0.13908 0.25669 0.24564
 N658 N -0.11550 0.25217 0.26457
 C659 C -0.11008 0.27172 0.28822
 N660 N -0.12929 0.29595 0.29216
 N661 N -0.15127 0.69901 0.22706
 C662 C -0.15747 0.71921 0.24998
 N663 N -0.13903 0.74418 0.25315
 N664 N -0.11545 0.74876 0.23423
 C665 C -0.10925 0.72854 0.21133
 N666 N -0.12767 0.70356 0.20816
 N667 N 0.36102 0.24282 0.75422
 C668 C 0.34175 0.21856 0.75025
 N669 N 0.34732 0.19908 0.72652
 N670 N 0.37100 0.20361 0.70771
 C671 C 0.39018 0.22787 0.71173
 N672 N 0.38467 0.24739 0.73538
 N673 N 0.65291 0.30015 0.72677
 C674 C 0.65846 0.28067 0.75052
 N675 N 0.63921 0.25639 0.75445
 N676 N 0.61559 0.25180 0.73558
 C677 C 0.61010 0.27133 0.71192
 N678 N 0.62926 0.29560 0.70793
 N679 N 0.14013 0.75635 0.25289
 C680 C 0.15860 0.78131 0.24973
 N681 N 0.15241 0.80151 0.22680
 N682 N 0.12880 0.79698 0.20790
 C683 C 0.11035 0.77202 0.21108
 N684 N 0.11654 0.75179 0.23397
 N685 N 0.24706 0.13898 0.24394
 C686 C 0.25028 0.15736 0.21896
 N687 N 0.27324 0.15112 0.19881
 N688 N 0.29213 0.12752 0.20341
 C689 C 0.28891 0.10915 0.22838
 N690 N 0.26598 0.11540 0.24856
 N691 N 0.77267 0.65188 0.69863
 C692 C 0.74974 0.65808 0.71883
 N693 N 0.74651 0.63959 0.74373
 N694 N 0.76539 0.61596 0.74823
 C695 C 0.78830 0.60976 0.72801
 N696 N 0.79153 0.62823 0.70311
 N697 N 0.77268 0.34810 0.80085
 C698 C 0.74973 0.34185 0.78067
 N699 N 0.74655 0.36026 0.75571
 N700 N 0.76546 0.38386 0.75114
 C701 C 0.78838 0.39011 0.77134
 N702 N 0.79157 0.37172 0.79630
 N703 N 0.27385 -0.15312 0.30087
 C704 C 0.25011 -0.15864 0.28136
 N705 N 0.24626 -0.13942 0.25707
 N706 N 0.26522 -0.11585 0.25251
 C707 C 0.28888 -0.11038 0.27206
 N708 N 0.29278 -0.12951 0.29634
 N709 N 0.25362 -0.13926 0.74324
 C710 C 0.24974 -0.15854 0.71901
 N711 N 0.22600 -0.15305 0.69949
 N712 N 0.20711 -0.12943 0.70395
 C713 C 0.21105 -0.11023 0.72818
 N714 N 0.23470 -0.11566 0.74774
 N715 N 0.75344 0.36025 0.24419
 C716 C 0.75029 0.34184 0.21923
 N717 N 0.72736 0.34803 0.19903
 N718 N 0.70842 0.37161 0.20358
 C719 C 0.71157 0.39000 0.22855
 N720 N 0.73448 0.38380 0.24876
 N721 N 0.75338 0.63933 0.25643
 C722 C 0.75016 0.65781 0.28133
 N723 N 0.72722 0.65160 0.30152
 N724 N 0.70835 0.62795 0.29703
 C725 C 0.71157 0.60949 0.27212
 N726 N 0.73449 0.61570 0.25191
 N727 N 0.25353 0.13905 0.75547
 C728 C 0.25035 0.15754 0.78038
 N729 N 0.22736 0.15140 0.80054
 N730 N 0.20841 0.12782 0.79601
 C731 C 0.21159 0.10935 0.77111
 N732 N 0.23456 0.11549 0.75093
 N733 N 0.24398 0.24643 0.13907
 C734 C 0.21902 0.24964 0.15750
 N735 N 0.19881 0.27256 0.15127
 N736 N 0.20332 0.29141 0.12764
 C737 C 0.22828 0.28819 0.10922
 N738 N 0.24852 0.26530 0.11546
 N739 N 0.69865 0.77377 0.65170
 C740 C 0.71875 0.75072 0.65782
 N741 N 0.74366 0.74743 0.63934
 N742 N 0.74827 0.76637 0.61579
 C743 C 0.72815 0.78939 0.60967
 N744 N 0.70324 0.79268 0.62814
 N745 N 0.80134 0.77356 0.34839
 C746 C 0.78122 0.75050 0.34230
 N747 N 0.75631 0.74723 0.36079
 N748 N 0.75171 0.76620 0.38431
 C749 C 0.77185 0.78923 0.39041
 N750 N 0.79676 0.79251 0.37194
 N751 N 0.30159 0.27299 -0.15222
 C752 C 0.28140 0.25005 -0.15852
 N753 N 0.25638 0.24682 -0.14017
 N754 N 0.25175 0.26570 -0.11658
 C755 C 0.27197 0.28861 -0.11028
 N756 N 0.29698 0.29185 -0.12861
 N757 N 0.74379 0.25265 -0.13976
 C758 C 0.71881 0.24933 -0.15815
 N759 N 0.69868 0.22633 -0.15187
 N760 N 0.70331 0.20751 -0.12825
 C761 C 0.72829 0.21083 -0.10987
 N762 N 0.74844 0.23381 -0.11616
 N763 N 0.19915 0.72725 0.34844
 C764 C 0.21941 0.75020 0.34237
 N765 N 0.24427 0.75337 0.36094
 N766 N 0.24869 0.73443 0.38452
 C767 C 0.22841 0.71150 0.39058
 N768 N 0.20354 0.70833 0.37203
 N769 N 0.30039 0.72720 0.65206
 C770 C 0.28019 0.75017 0.65814
 N771 N 0.25530 0.75336 0.63962
 N772 N 0.25080 0.73441 0.61606
 C773 C 0.27102 0.71146 0.60997
 N774 N 0.29591 0.70827 0.62848
 N775 N 0.75655 0.25263 0.13965
 C776 C 0.78152 0.24940 0.15808
 N777 N 0.80172 0.22648 0.15183
 N778 N 0.79718 0.20763 0.12820
 C779 C 0.77222 0.21086 0.10979
 N780 N 0.75199 0.23376 0.11604
 N781 N 0.44889 0.40151 0.52384
 C782 C 0.46901 0.40765 0.50082
 N783 N 0.49392 0.38917 0.49756
 N784 N 0.49852 0.36559 0.51647
 C785 C 0.47837 0.35945 0.53946
 N786 N 0.45346 0.37792 0.54273
 N787 N -0.05114 0.90232 0.02321
 C788 C -0.03100 0.90855 0.00024
 N789 N -0.00602 0.89015 -0.00301
 N790 N -0.00138 0.86657 0.01588
 C791 C -0.02155 0.86033 0.03882
 N792 N -0.04653 0.87871 0.04208
 N793 N 0.05133 0.59860 0.02278
 C794 C 0.03108 0.59241 -0.00011
 N795 N 0.00615 0.61088 -0.00329
 N796 N 0.00165 0.63449 0.01561
 C797 C 0.02192 0.64069 0.03848
 N798 N 0.04686 0.62223 0.04165
 N799 N 0.55152 0.09791 0.52369
 C800 C 0.53141 0.09175 0.50067
 N801 N 0.50647 0.11022 0.49741
 N802 N 0.50186 0.13378 0.51634
 C803 C 0.52200 0.13993 0.53933
 N804 N 0.54693 0.12148 0.54259
 N805 N -0.00657 0.11064 0.50269
 C806 C -0.03151 0.09217 0.49943
 N807 N -0.05168 0.09838 0.47648
 N808 N -0.04713 0.12202 0.45764
 C809 C -0.02218 0.14048 0.46091
 N810 N -0.00199 0.13426 0.48383
 N811 N 0.44874 0.59871 0.97725
 C812 C 0.46897 0.59254 1.00016
 N813 N 0.49388 0.61105 1.00338
 N814 N 0.49837 0.63469 0.98451
 C815 C 0.47812 0.64087 0.96163
 N816 N 0.45321 0.62237 0.95841
 N817 N 0.55047 0.90307 0.97660
 C818 C 0.53104 0.90855 1.00040
 N819 N 0.50671 0.88935 1.00428
 N820 N 0.50204 0.86584 0.98530
 C821 C 0.52152 0.86040 0.96160
 N822 N 0.54584 0.87953 0.95766
 N823 N 0.00601 0.39011 0.50248
 C824 C 0.03097 0.40855 0.49923
 N825 N 0.05113 0.40232 0.47627
 N826 N 0.04654 0.37869 0.45742
 C827 C 0.02157 0.36027 0.46068
 N828 N 0.00139 0.36650 0.48361
 N829 N 0.40149 0.52298 0.44937
 C830 C 0.40767 0.50003 0.46955
 N831 N 0.38920 0.49683 0.49446
 N832 N 0.36559 0.51573 0.49899
 C833 C 0.35940 0.53865 0.47879
 N834 N 0.37786 0.54186 0.45388
 N835 N 0.88954 -0.00398 -0.00696
 C836 C 0.90873 -0.00010 -0.03127
 N837 N 0.90315 0.02361 -0.05077
 N838 N 0.87952 0.04249 -0.04622
 C839 C 0.86041 0.03855 -0.02192
 N840 N 0.86595 0.01492 -0.00237
 N841 N 0.61089 -0.00364 0.00600
 C842 C 0.59245 -0.00048 0.03094
 N843 N 0.59869 0.02243 0.05116
 N844 N 0.62234 0.04131 0.04666
 C845 C 0.64076 0.03814 0.02171
 N846 N 0.63451 0.01526 0.00147
 N847 N 0.09671 0.52372 0.55032
 C848 C 0.09119 0.50000 0.53080
 N849 N 0.11044 0.49614 0.50654
 N850 N 0.13405 0.51507 0.50202
 C851 C 0.13952 0.53871 0.52158
 N852 N 0.12035 0.54262 0.54584
 N853 N 0.09829 0.47687 -0.05147
 C854 C 0.09213 0.49981 -0.03128
 N855 N 0.11058 0.50296 -0.00634
 N856 N 0.13414 0.48401 -0.00179
 C857 C 0.14031 0.46109 -0.02201
 N858 N 0.12187 0.45794 -0.04695
 N859 N 0.59729 0.97676 0.44958
 C860 C 0.59174 1.00049 0.46908
 N861 N 0.61099 1.00442 0.49333
 N862 N 0.63462 0.98555 0.49788
 C863 C 0.64012 0.96190 0.47834
 N864 N 0.62095 0.95792 0.45409
 N865 N 0.90279 0.97691 0.55031
 C866 C 0.90830 1.00069 0.53085
 N867 N 0.88901 1.00463 0.50663
 N868 N 0.86540 0.98572 0.50208
 C869 C 0.85994 0.96203 0.52158
 N870 N 0.87914 0.95804 0.54580
 N871 N 0.40173 0.47683 0.05119
 C872 C 0.40790 0.49984 0.03107
 N873 N 0.38946 0.50306 0.00614
 N874 N 0.36590 0.48410 0.00151
 C875 C 0.35972 0.46112 0.02165
 N876 N 0.37814 0.45789 0.04658
 N877 N 0.49692 0.49370 0.38987
 C878 C 0.50012 0.46877 0.40831
 N879 N 0.52305 0.44855 0.40211
 N880 N 0.54193 0.45306 0.37849
 C881 C 0.53873 0.47800 0.36006
 N882 N 0.51582 0.49824 0.36627
 N883 N 0.02279 -0.05081 0.90142
 C884 C -0.00015 -0.03058 0.90756
 N885 N -0.00335 -0.00570 0.88903
 N886 N 0.01555 -0.00125 0.86542
 C887 C 0.03846 -0.02150 0.85928
 N888 N 0.04166 -0.04638 0.87779
 N889 N -0.00356 0.00600 0.61023
 C890 C -0.00034 0.03093 0.59178
 N891 N 0.02269 0.05108 0.59792
 N892 N 0.04163 0.04652 0.62147
 C893 C 0.03840 0.02158 0.63990
 N894 N 0.01540 0.00141 0.63377
 N895 N 0.49710 0.50609 0.11075
 C896 C 0.50030 0.53109 0.09240
 N897 N 0.52324 0.55130 0.09868
 N898 N 0.54212 0.54671 0.12228
 C899 C 0.53890 0.52170 0.14062
 N900 N 0.51599 0.50148 0.13433
 N901 N 0.50322 -0.00666 0.11054
 C902 C 0.49989 -0.03156 0.09205
 N903 N 0.47688 -0.05171 0.09825
 N904 N 0.45806 -0.04718 0.12191
 C905 C 0.46139 -0.02229 0.14038
 N906 N 0.48437 -0.00212 0.13418
 N907 N 1.00309 0.49440 0.61028
 C908 C 0.99995 0.46948 0.59180
 N909 N 0.97703 0.44922 0.59795
 N910 N 0.95811 0.45366 0.62154
 C911 C 0.96126 0.47859 0.64000
 N912 N 0.98415 0.49887 0.63385
 N913 N 0.97673 0.55133 0.90135
 C914 C 0.99968 0.53113 0.90755
 N915 N 1.00286 0.50617 0.88913
 N916 N 0.98394 0.50161 0.86556
 C917 C 0.96102 0.52182 0.85935
 N918 N 0.95783 0.54678 0.87776
 N919 N 0.47744 0.05085 0.40192
 C920 C 0.50043 0.03070 0.40809
 N921 N 0.50366 0.00577 0.38963
 N922 N 0.48474 0.00120 0.36606
 C923 C 0.46177 0.02137 0.35989
 N924 N 0.45854 0.04630 0.37833
   
