data_POSCAR
  _audit_creation_date              2014-09-24
  _audit_creation_method            'ToBaCCo'
  _symmetry_space_group_name_H-M    'P1'
  _symmetry_Int_Tables_number       1
  _symmetry_cell_setting            triclinic
  loop_
  _symmetry_equiv_pos_as_xyz
 x,y,z
_cell_length_a 37.0982
_cell_length_b 38.2820
_cell_length_c 35.1274
_cell_angle_alpha 91.665400
_cell_angle_beta 88.662400
_cell_angle_gamma 92.170800
loop_
  _atom_site_label
  _atom_site_type_symbol
  _atom_site_fract_x
  _atom_site_fract_y
  _atom_site_fract_z
C1 C 0.18629 0.19632 0.20911
 C2 C 0.17258 0.22679 0.19469
 C3 C 0.19081 0.24393 0.16469
 C4 C 0.22281 0.23060 0.14913
 C5 C 0.23656 0.20015 0.16355
 C6 C 0.21832 0.18316 0.19356
 H7 H 0.14753 0.23684 0.20627
 H8 H 0.23650 0.24350 0.12548
 H9 H 0.22871 0.15930 0.20434
 C10 C -0.20628 0.80281 0.22887
 C11 C -0.23693 0.81550 0.21214
 C12 C -0.25205 0.79800 0.18042
 C13 C -0.23666 0.76755 0.16545
 C14 C -0.20605 0.75467 0.18211
 C15 C -0.19087 0.77229 0.21385
 H16 H -0.24848 0.83951 0.22311
 H17 H -0.24787 0.75447 0.14037
 H18 H -0.16671 0.76272 0.22618
 C19 C -0.21526 0.20954 -0.26070
 C20 C -0.24770 0.19625 -0.24458
 C21 C -0.26454 0.21435 -0.21431
 C22 C -0.24925 0.24598 -0.20037
 C23 C -0.21687 0.25942 -0.21627
 C24 C -0.19984 0.24125 -0.24653
 H25 H -0.25905 0.17113 -0.25444
 H26 H -0.26165 0.25929 -0.17601
 H27 H -0.17411 0.25108 -0.25794
 C28 C 0.19419 0.80361 -0.25319
 C29 C 0.17913 0.77168 -0.24050
 C30 C 0.19742 0.75259 -0.21397
 C31 C 0.23067 0.76529 -0.20031
 C32 C 0.24566 0.79711 -0.21279
 C33 C 0.22753 0.81621 -0.23932
 H34 H 0.15294 0.76221 -0.25034
 H35 H 0.24423 0.75106 -0.17890
 H36 H 0.23885 0.84131 -0.24821
 C37 C 0.20203 1.19744 0.76926
 C38 C 0.22942 1.17993 0.78668
 C39 C 0.24134 1.19118 0.82274
 C40 C 0.22590 1.22007 0.84138
 C41 C 0.19854 1.23757 0.82381
 C42 C 0.18679 1.22633 0.78777
 H43 H 0.24067 1.15696 0.77282
 H44 H 0.23446 1.22830 0.86965
 H45 H 0.16487 1.23935 0.77479
 C46 C 0.82443 0.80891 0.76679
 C47 C 0.79461 0.82550 0.78325
 C48 C 0.77874 0.81333 0.81718
 C49 C 0.79263 0.78442 0.83466
 C50 C 0.82246 0.76779 0.81816
 C51 C 0.83825 0.78001 0.78421
 H52 H 0.78425 0.84834 0.77021
 H53 H 0.78072 0.77540 0.86129
 H54 H 0.86180 0.76758 0.77186
 C55 C 0.21601 0.77718 1.27089
 C56 C 0.20168 0.74632 1.25405
 C57 C 0.21761 0.73226 1.22080
 C58 C 0.24837 0.74893 1.20451
 C59 C 0.26300 0.77973 1.22166
 C60 C 0.24687 0.79366 1.25490
 H61 H 0.17691 0.73432 1.26552
 H62 H 0.25982 0.73892 1.17788
 H63 H 0.25719 0.81834 1.26707
 C64 C 0.80486 1.20367 1.26252
 C65 C 0.77345 1.18702 1.24843
 C66 C 0.75543 1.20133 1.21829
 C67 C 0.76881 1.23255 1.20228
 C68 C 0.80023 1.24930 1.21654
 C69 C 0.81807 1.23488 1.24673
 H70 H 0.76371 1.16232 1.25996
 H71 H 0.75548 1.24307 1.17819
 H72 H 0.84298 1.24723 1.25699
 O73 O 0.53473 0.96291 0.93115
 O74 O 0.46352 0.98351 1.08656
 O75 O 0.56943 0.97874 1.03303
 O76 O 0.45227 0.93771 0.97721
 O77 O 0.52129 0.95830 1.06046
 O78 O 0.46707 0.96250 0.92532
 O79 O 0.45623 0.94725 1.04196
 O80 O 0.57463 0.99227 0.96570
 C81 C 0.56637 0.96778 0.94221
 C82 C 0.44974 0.95521 1.07565
 C83 C 0.55372 0.95552 1.05217
 C84 C 0.45275 0.93741 0.94218
 O85 O 0.46766 1.02938 0.93140
 O86 O 0.52585 1.01591 1.09845
 O87 O 0.54695 1.05608 0.98280
 O88 O 0.43096 1.01455 1.03598
 O89 O 0.47903 1.04232 1.05758
 O90 O 0.53585 1.03088 0.92888
 O91 O 0.42625 1.00282 0.96740
 O92 O 0.54457 1.04390 1.04877
 Co93 Co 0.50129 0.99633 0.93592
 Co94 Co 0.50130 1.00055 1.05678
 Co95 Co 0.55390 1.01582 1.00696
 Co96 Co 0.44583 0.97726 1.00543
 O97 O 0.49919 0.99615 0.99881
 C98 C 0.43564 1.02567 0.94331
 C99 C 0.54903 1.03794 1.08354
 C100 C 0.54719 1.05692 0.94766
 C101 C 0.44588 1.04155 1.05131
 O102 O 0.03754 0.47818 0.05535
 O103 O 0.03208 0.53359 -0.07810
 O104 O 0.00090 0.42908 -0.03996
 O105 O 0.04935 0.54214 0.03850
 O106 O 0.03186 0.46802 -0.07303
 O107 O 0.01273 0.53401 0.08342
 O108 O 0.05825 0.54753 -0.02625
 O109 O 0.01469 0.43244 0.02732
 C110 C 0.03933 0.44670 0.04651
 C111 C 0.05792 0.54778 -0.06125
 C112 C 0.02711 0.43743 -0.06189
 C113 C 0.04173 0.54757 0.07248
 O114 O -0.04860 0.52065 0.05490
 O115 O -0.03821 0.46688 -0.07598
 O116 O -0.05177 0.45750 0.04370
 O117 O -0.00908 0.57273 -0.03456
 O118 O -0.03665 0.53317 -0.07186
 O119 O -0.02165 0.47385 0.09360
 O120 O -0.01986 0.56736 0.03436
 O121 O -0.06455 0.45693 -0.02249
 Co122 Co -0.00585 0.49834 0.05275
 Co123 Co -0.00266 0.50030 -0.06799
 Co124 Co -0.02318 0.44878 0.00160
 Co125 Co 0.01785 0.55316 0.00273
 O126 O -0.00209 0.50158 -0.00509
 C127 C -0.04739 0.55298 0.05011
 C128 C -0.06511 0.45577 -0.05763
 C129 C -0.04517 0.45231 0.07822
 C130 C -0.03239 0.56413 -0.05937
 O131 O 1.07035 0.04135 0.45814
 O132 O 0.92499 0.01356 0.53419
 O133 O 0.97450 0.02411 0.42255
 O134 O 1.02810 0.06079 0.54852
 O135 O 0.94924 0.04194 0.47467
 O136 O 1.07755 0.03895 0.52911
 O137 O 0.96680 0.05021 0.54422
 O138 O 1.03846 0.01205 0.41559
 C139 C 1.05981 0.03723 0.42475
 C140 C 0.93489 0.04129 0.55024
 C141 C 0.95620 0.04618 0.44044
 C142 C 1.06127 0.06231 0.54663
 O143 O 1.07372 -0.02794 0.52607
 O144 O 0.91379 -0.01603 0.46749
 O145 O 1.02348 -0.05308 0.44340
 O146 O 0.97357 -0.01826 0.56694
 O147 O 0.95324 -0.04393 0.51512
 O148 O 1.07424 -0.02668 0.45423
 O149 O 1.03897 -0.00552 0.57171
 O150 O 0.96086 -0.04248 0.44616
 Co151 Co 1.06760 0.00629 0.49198
 Co152 Co 0.95336 -0.00108 0.49360
 Co153 Co 1.00002 -0.01308 0.43726
 Co154 Co 1.00205 0.02028 0.55301
 O155 O 1.00810 0.00447 0.49555
 C156 C 1.06301 -0.02638 0.56025
 C157 C 0.92778 -0.03695 0.44214
 C158 C 1.05676 -0.05345 0.44370
 C159 C 0.95866 -0.04449 0.55014
 C160 C 1.13504 0.14002 0.29096
 C161 C 1.09417 0.14444 0.29541
 C162 C 1.07812 0.12391 0.32255
 C163 C 1.10453 0.10096 0.34257
 C164 C 1.13382 0.12660 0.35811
 C165 C 1.14984 0.14712 0.33101
 C166 C 1.13935 0.10070 0.28323
 C167 C 1.12334 0.08020 0.31031
 C168 C 1.15274 0.16172 0.26161
 C169 C 1.16811 0.17853 0.23716
 C170 C 1.08765 0.07858 0.37181
 C171 C 1.07455 0.05983 0.39590
 H172 H 1.07917 0.16216 0.27875
 H173 H 1.04938 0.12403 0.32912
 H174 H 1.14127 0.12853 0.38782
 H175 H 1.17100 0.16659 0.33751
 H176 H 1.15371 0.08989 0.25859
 H177 H 1.12399 0.05186 0.30884
 C178 C 0.84094 -0.13878 0.31284
 C179 C 0.83160 -0.10012 0.31102
 C180 C 0.84785 -0.07922 0.33816
 C181 C 0.87187 -0.09899 0.36453
 C182 C 0.89853 -0.11786 0.33770
 C183 C 0.88229 -0.13874 0.31058
 C184 C 0.83093 -0.14915 0.35377
 C185 C 0.84720 -0.12823 0.38094
 C186 C 0.82363 -0.16104 0.28319
 C187 C 0.80961 -0.17852 0.25805
 C188 C 0.88997 -0.07645 0.39342
 C189 C 0.90630 -0.05816 0.41623
 H190 H 0.81372 -0.09005 0.29025
 H191 H 0.84389 -0.05129 0.34063
 H192 H 0.92765 -0.11507 0.33984
 H193 H 0.89750 -0.15382 0.28953
 H194 H 0.81267 -0.17097 0.36077
 H195 H 0.84286 -0.13213 0.41122
 C196 C 0.83799 0.14773 0.66359
 C197 C 0.87914 0.15258 0.66566
 C198 C 0.89739 0.13044 0.64180
 C199 C 0.87277 0.10554 0.61812
 C200 C 0.84782 0.12951 0.59746
 C201 C 0.82952 0.15169 0.62138
 C202 C 0.83003 0.10887 0.67132
 C203 C 0.84830 0.08672 0.64744
 C204 C 0.81851 0.17135 0.68985
 C205 C 0.80268 0.18987 0.71252
 C206 C 0.89305 0.08175 0.59278
 C207 C 0.91121 0.06278 0.57285
 H208 H 0.89276 0.17176 0.68421
 H209 H 0.92666 0.13069 0.63995
 H210 H 0.84476 0.12907 0.56679
 H211 H 0.81082 0.17026 0.61119
 H212 H 0.81159 0.09957 0.69359
 H213 H 0.84550 0.05848 0.64926
 C214 C 1.14168 -0.13441 0.67716
 C215 C 1.10032 -0.13808 0.67930
 C216 C 1.08361 -0.11596 0.65622
 C217 C 1.10991 -0.09232 0.63328
 C218 C 1.13495 -0.11753 0.61174
 C219 C 1.15163 -0.13963 0.63479
 C220 C 1.15045 -0.09556 0.68617
 C221 C 1.13377 -0.07346 0.66313
 C222 C 1.16002 -0.15795 0.70206
 C223 C 1.17577 -0.17648 0.72282
 C224 C 1.09228 -0.06846 0.60816
 C225 C 1.07853 -0.04903 0.58679
 H226 H 1.08547 -0.15645 0.69731
 H227 H 1.05446 -0.11537 0.65448
 H228 H 1.13917 -0.11800 0.58104
 H229 H 1.17011 -0.15901 0.62383
 H230 H 1.16820 -0.08622 0.70872
 H231 H 1.13723 -0.04522 0.66594
 C232 C 0.32206 1.15074 1.11801
 C233 C 0.31830 1.11223 1.12877
 C234 C 0.34544 1.09246 1.11464
 C235 C 0.37388 1.11303 1.09104
 C236 C 0.38684 1.14334 1.11750
 C237 C 0.35955 1.16321 1.13170
 C238 C 0.32525 1.15004 1.07433
 C239 C 0.35252 1.13020 1.06014
 C240 C 0.29212 1.17106 1.13370
 C241 C 0.26644 1.18566 1.14739
 C242 C 0.40235 1.09048 1.07611
 C243 C 0.42362 1.06942 1.06446
 H244 H 0.29618 1.10138 1.14604
 H245 H 0.34654 1.06470 1.11983
 H246 H 0.41492 1.14879 1.12435
 H247 H 0.36425 1.18569 1.15074
 H248 H 0.30777 1.16400 1.05617
 H249 H 0.35840 1.12718 1.02982
 C250 C 0.33263 0.84212 0.84241
 C251 C 0.32928 0.83646 0.88546
 C252 C 0.35592 0.85317 0.90579
 C253 C 0.38332 0.87389 0.88108
 C254 C 0.36067 0.89857 0.85860
 C255 C 0.33407 0.88189 0.83832
 C256 C 0.37066 0.83049 0.83091
 C257 C 0.39740 0.84726 0.85130
 C258 C 0.30320 0.82487 0.82105
 C259 C 0.27760 0.81182 0.80479
 C260 C 0.41104 0.89310 0.90314
 C261 C 0.43155 0.91177 0.92126
 H262 H 0.30792 0.82060 0.89880
 H263 H 0.35741 0.85162 0.93652
 H264 H 0.36520 0.92676 0.85853
 H265 H 0.31585 0.89577 0.82089
 H266 H 0.37608 0.81086 0.80880
 H267 H 0.42574 0.84200 0.84670
 C268 C 0.66708 0.84756 1.12826
 C269 C 0.67278 0.85075 1.08504
 C270 C 0.64777 0.87029 1.06855
 C271 C 0.61952 0.88470 1.09690
 C272 C 0.64145 0.90480 1.12749
 C273 C 0.66637 0.88533 1.14393
 C274 C 0.62819 0.83292 1.13346
 C275 C 0.60312 0.85249 1.11694
 C276 C 0.69463 0.82756 1.14634
 C277 C 0.71842 0.81311 1.16171
 C278 C 0.59343 0.90693 1.07960
 C279 C 0.57401 0.92780 1.06643
 H280 H 0.69445 0.83862 1.06881
 H281 H 0.64800 0.87488 1.03818
 H282 H 0.63767 0.93203 1.13562
 H283 H 0.68392 0.89589 1.16610
 H284 H 0.62100 0.80927 1.14865
 H285 H 0.57446 0.84563 1.11796
 C286 C 0.65490 1.16371 0.84667
 C287 C 0.61569 1.17453 0.84304
 C288 C 0.59160 1.15528 0.86462
 C289 C 0.60924 1.12724 0.88758
 C290 C 0.63819 1.14709 0.91104
 C291 C 0.66219 1.16627 0.88953
 C292 C 0.65427 1.12449 0.83652
 C293 C 0.63032 1.10535 0.85798
 C294 C 0.68161 1.18347 0.82375
 C295 C 0.70532 1.19821 0.80575
 C296 C 0.58438 1.10538 0.91048
 C297 C 0.56610 1.08467 0.92830
 H298 H 0.60760 1.19542 0.82520
 H299 H 0.56285 1.15967 0.86531
 H300 H 0.63961 1.14629 0.94184
 H301 H 0.68421 1.18191 0.90191
 H302 H 0.67110 1.11275 0.81430
 H303 H 0.62666 1.07720 0.85412
 C304 C 0.14284 0.32751 0.11836
 C305 C 0.10207 0.32525 0.12660
 C306 C 0.08393 0.35149 0.11139
 C307 C 0.10821 0.37762 0.08933
 C308 C 0.12847 0.35521 0.05952
 C309 C 0.14669 0.32887 0.07478
 C310 C 0.15520 0.36415 0.13301
 C311 C 0.13696 0.39053 0.11773
 C312 C 0.16157 0.29864 0.13492
 C313 C 0.17550 0.27406 0.14856
 C314 C 0.08726 0.40517 0.07314
 C315 C 0.06703 0.42563 0.06050
 H316 H 0.08859 0.30478 0.14301
 H317 H 0.05490 0.35347 0.11482
 H318 H 0.12867 0.35974 0.02915
 H319 H 0.16244 0.31082 0.05746
 H320 H 0.17643 0.36894 0.15347
 H321 H 0.14257 0.41790 0.12507
 C322 C -0.16618 0.34153 -0.15876
 C323 C -0.17490 0.37893 -0.16924
 C324 C -0.15715 0.40419 -0.14784
 C325 C -0.13252 0.38947 -0.11813
 C326 C -0.10735 0.36532 -0.14099
 C327 C -0.12501 0.34018 -0.16229
 C328 C -0.17477 0.33965 -0.11585
 C329 C -0.15707 0.36485 -0.09450
 C330 C -0.18471 0.31371 -0.18127
 C331 C -0.19939 0.28956 -0.19829
 C332 C -0.11221 0.41577 -0.09523
 C333 C -0.09245 0.43538 -0.07722
 H334 H -0.19336 0.38502 -0.19142
 H335 H -0.16042 0.43192 -0.15165
 H336 H -0.07810 0.36781 -0.14054
 H337 H -0.11092 0.32118 -0.18006
 H338 H -0.19324 0.32029 -0.10334
 H339 H -0.16038 0.36708 -0.06374
 C340 C 0.15038 0.66782 -0.16073
 C341 C 0.15803 0.63118 -0.17728
 C342 C 0.14194 0.60476 -0.15695
 C343 C 0.11987 0.61769 -0.12214
 C344 C 0.09315 0.64292 -0.13808
 C345 C 0.10916 0.66922 -0.15833
 C346 C 0.16233 0.66735 -0.11917
 C347 C 0.14628 0.64100 -0.09889
 C348 C 0.16725 0.69680 -0.18191
 C349 C 0.18086 0.72174 -0.19763
 C350 C 0.10144 0.59012 -0.10009
 C351 C 0.08332 0.56945 -0.08200
 H352 H 0.17459 0.62642 -0.20265
 H353 H 0.14473 0.57736 -0.16486
 H354 H 0.06409 0.64030 -0.13388
 H355 H 0.09385 0.68909 -0.17146
 H356 H 0.18178 0.68603 -0.10679
 H357 H 0.15198 0.63709 -0.06917
 C358 C -0.15351 0.67209 0.13150
 C359 C -0.14916 0.67547 0.08816
 C360 C -0.13001 0.64949 0.07093
 C361 C -0.11707 0.62265 0.09871
 C362 C -0.15136 0.60929 0.11981
 C363 C -0.17056 0.63532 0.13707
 C364 C -0.11495 0.67024 0.14591
 C365 C -0.09584 0.64431 0.12872
 C366 C -0.17346 0.70058 0.15004
 C367 C -0.18874 0.72484 0.16496
 C368 C -0.09531 0.59536 0.08038
 C369 C -0.07487 0.57478 0.06603
 H370 H -0.16024 0.69638 0.07237
 H371 H -0.12471 0.64816 0.04040
 H372 H -0.15984 0.58188 0.12103
 H373 H -0.19548 0.63020 0.15310
 H374 H -0.10364 0.68774 0.16778
 H375 H -0.06816 0.63965 0.13591
 C376 C 1.15361 0.15525 0.67668
 C377 C 1.16731 0.16591 0.63690
 C378 C 1.14864 0.14965 0.60792
 C379 C 1.11822 0.12445 0.62177
 C380 C 1.09461 0.14654 0.64877
 C381 C 1.11322 0.16274 0.67764
 C382 C 1.15519 0.11531 0.67637
 C383 C 1.13663 0.09914 0.64756
 C384 C 1.17301 0.17189 0.70859
 C385 C 1.18746 0.18431 0.73644
 C386 C 1.09793 0.10576 0.59177
 C387 C 1.08103 0.08747 0.56959
 H388 H 1.18958 0.18455 0.63196
 H389 H 1.15488 0.15435 0.57812
 H390 H 1.06586 0.14934 0.64541
 H391 H 1.10039 0.17944 0.69905
 H392 H 1.16973 0.10094 0.69694
 H393 H 1.13527 0.07089 0.64347
 C394 C 0.87650 -0.14639 0.67777
 C395 C 0.86632 -0.10808 0.67579
 C396 C 0.88413 -0.09046 0.64763
 C397 C 0.91047 -0.11279 0.62405
 C398 C 0.88756 -0.14440 0.60940
 C399 C 0.86965 -0.16213 0.63773
 C400 C 0.91769 -0.14518 0.68153
 C401 C 0.93557 -0.12749 0.65327
 C402 C 0.85722 -0.16440 0.70883
 C403 C 0.84158 -0.17753 0.73557
 C404 C 0.92930 -0.09231 0.59458
 C405 C 0.94360 -0.07218 0.57271
 H406 H 0.84675 -0.09583 0.69483
 H407 H 0.87978 -0.06309 0.64258
 H408 H 0.88567 -0.15222 0.57954
 H409 H 0.85238 -0.18514 0.63215
 H410 H 0.93160 -0.15727 0.70429
 H411 H 0.96478 -0.12444 0.65179
 C412 C 1.15604 -0.16793 0.34617
 C413 C 1.16277 -0.12890 0.33896
 C414 C 1.14149 -0.10783 0.36073
 C415 C 1.11547 -0.12775 0.38769
 C416 C 1.13962 -0.15040 0.41104
 C417 C 1.16103 -0.17160 0.38913
 C418 C 1.11551 -0.17481 0.34004
 C419 C 1.09416 -0.15366 0.36189
 C420 C 1.17883 -0.18976 0.32153
 C421 C 1.19685 -0.20602 0.29883
 C422 C 1.09288 -0.10395 0.41014
 C423 C 1.07548 -0.08205 0.42655
 H424 H 1.18263 -0.11868 0.31855
 H425 H 1.14311 -0.07953 0.35896
 H426 H 1.13982 -0.14989 0.44195
 H427 H 1.17960 -0.18927 0.40123
 H428 H 1.10455 -0.19467 0.32039
 H429 H 1.06491 -0.15537 0.36098
 C430 C 0.86450 0.15282 0.33579
 C431 C 0.85873 0.11326 0.32933
 C432 C 0.87910 0.09402 0.35188
 C433 C 0.90333 0.11615 0.37879
 C434 C 0.87757 0.14003 0.40120
 C435 C 0.85711 0.15936 0.37855
 C436 C 0.90530 0.15985 0.33012
 C437 C 0.92575 0.14053 0.35276
 C438 C 0.84243 0.17276 0.31080
 C439 C 0.82448 0.18778 0.28880
 C440 C 0.92465 0.09425 0.40249
 C441 C 0.94033 0.07365 0.42063
 H442 H 0.84020 0.10136 0.30882
 H443 H 0.87802 0.06562 0.35065
 H444 H 0.87565 0.14169 0.43209
 H445 H 0.83762 0.17757 0.38999
 H446 H 0.91706 0.17843 0.31017
 H447 H 0.95503 0.14253 0.35223
 C448 C 0.13882 0.31515 -0.12683
 C449 C 0.15214 0.35258 -0.13550
 C450 C 0.12950 0.37749 -0.12192
 C451 C 0.09581 0.36246 -0.10105
 C452 C 0.11034 0.33984 -0.06984
 C453 C 0.13300 0.31491 -0.08343
 C454 C 0.10079 0.31160 -0.14317
 C455 C 0.07820 0.33645 -0.12963
 C456 C 0.16245 0.28816 -0.14222
 C457 C 0.18008 0.26538 -0.15672
 C458 C 0.07127 0.38916 -0.08686
 C459 C 0.05096 0.41113 -0.07553
 H460 H 0.17716 0.35897 -0.15082
 H461 H 0.13513 0.40524 -0.12562
 H462 H 0.10345 0.34312 -0.03978
 H463 H 0.14557 0.29685 -0.06502
 H464 H 0.09232 0.29127 -0.16361
 H465 H 0.05041 0.33744 -0.13843
 C466 C -0.14726 0.33044 0.16664
 C467 C -0.15579 0.36730 0.18189
 C468 C -0.13521 0.39319 0.16524
 C469 C -0.10817 0.37962 0.13505
 C470 C -0.13109 0.35754 0.10679
 C471 C -0.15163 0.33169 0.12340
 C472 C -0.10658 0.32737 0.17221
 C473 C -0.08605 0.35318 0.15561
 C474 C -0.16866 0.30210 0.18446
 C475 C -0.18436 0.27775 0.19931
 C476 C -0.08578 0.40693 0.11664
 C477 C -0.06715 0.42829 0.10005
 H478 H -0.17619 0.37258 0.20375
 H479 H -0.13794 0.42067 0.17285
 H480 H -0.13122 0.36188 0.07639
 H481 H -0.16936 0.31392 0.10725
 H482 H -0.09491 0.30670 0.18788
 H483 H -0.05683 0.35465 0.15707
 C484 C -0.12808 0.68972 -0.13224
 C485 C -0.13253 0.68813 -0.08875
 C486 C -0.11369 0.66232 -0.07332
 C487 C -0.09230 0.64071 -0.10295
 C488 C -0.06842 0.66752 -0.12442
 C489 C -0.08721 0.69327 -0.13981
 C490 C -0.13909 0.65291 -0.14729
 C491 C -0.12026 0.62711 -0.13187
 C492 C -0.14772 0.71761 -0.14925
 C493 C -0.16246 0.74097 -0.16416
 C494 C -0.07166 0.61310 -0.08676
 C495 C -0.05399 0.59062 -0.07403
 H496 H -0.14904 0.70568 -0.07162
 H497 H -0.11404 0.65773 -0.04295
 H498 H -0.03927 0.66641 -0.12726
 H499 H -0.07416 0.71422 -0.15585
 H500 H -0.15988 0.64756 -0.16813
 H501 H -0.12492 0.59965 -0.13951
 C502 C 0.15625 0.65528 0.16699
 C503 C 0.11708 0.65791 0.18169
 C504 C 0.09359 0.63471 0.16435
 C505 C 0.11151 0.61112 0.13401
 C506 C 0.14181 0.59365 0.15466
 C507 C 0.16538 0.61692 0.17204
 C508 C 0.15448 0.65955 0.12381
 C509 C 0.13099 0.63636 0.10649
 C510 C 0.18083 0.68100 0.18561
 C511 C 0.19900 0.70363 0.20127
 C512 C 0.08605 0.58678 0.11461
 C513 C 0.06537 0.56811 0.09666
 H514 H 0.10857 0.67636 0.20386
 H515 H 0.06498 0.63327 0.17166
 H516 H 0.14450 0.56555 0.15556
 H517 H 0.18828 0.60877 0.18781
 H518 H 0.17037 0.67901 0.10819
 H519 H 0.12676 0.63599 0.07599
 C520 C 0.31539 1.13093 0.87249
 C521 C 0.31159 1.09290 0.85759
 C522 C 0.33566 1.07140 0.87255
 C523 C 0.36120 1.09001 0.90096
 C524 C 0.33637 1.10724 0.93102
 C525 C 0.31226 1.12878 0.91603
 C526 C 0.35490 1.14203 0.86415
 C527 C 0.37899 1.12051 0.87912
 C528 C 0.28941 1.15371 0.85589
 C529 C 0.26773 1.17144 0.84127
 C530 C 0.38725 1.06679 0.91669
 C531 C 0.40907 1.04780 0.92905
 H532 H 0.29169 1.08365 0.83709
 H533 H 0.33638 1.04375 0.86488
 H534 H 0.33760 1.10289 0.96136
 H535 H 0.29285 1.14292 0.93353
 H536 H 0.36323 1.16481 0.84798
 H537 H 0.40796 1.12487 0.87577
 C538 C 0.33999 0.84311 1.16954
 C539 C 0.37962 0.83842 1.17936
 C540 C 0.40304 0.86171 1.16212
 C541 C 0.38448 0.88737 1.13681
 C542 C 0.35625 0.90474 1.16290
 C543 C 0.33289 0.88150 1.18009
 C544 C 0.33919 0.84089 1.12590
 C545 C 0.36254 0.86412 1.10872
 C546 C 0.31417 0.81854 1.18791
 C547 C 0.29158 0.79981 1.20307
 C548 C 0.40914 0.91242 1.11752
 C549 C 0.42830 0.93250 1.09967
 H550 H 0.38849 0.81858 1.19814
 H551 H 0.43196 0.86185 1.16617
 H552 H 0.35477 0.93282 1.16755
 H553 H 0.31139 0.88971 1.19947
 H554 H 0.32187 0.82262 1.10989
 H555 H 0.36518 0.86573 1.07796
 C556 C 0.67223 1.14193 1.17123
 C557 C 0.63394 1.14913 1.18628
 C558 C 0.60787 1.12774 1.17019
 C559 C 0.62269 1.10129 1.14065
 C560 C 0.65103 1.08157 1.16175
 C561 C 0.67705 1.10291 1.17782
 C562 C 0.67041 1.14484 1.12786
 C563 C 0.64440 1.12351 1.11181
 C564 C 0.70075 1.16457 1.18825
 C565 C 0.72516 1.18208 1.20195
 C566 C 0.59510 1.07823 1.12261
 C567 C 0.57345 1.05953 1.10593
 H568 H 0.62785 1.16922 1.20767
 H569 H 0.57946 1.12950 1.17780
 H570 H 0.65066 1.05333 1.16397
 H571 H 0.69896 1.09292 1.19378
 H572 H 0.68796 1.16218 1.11121
 H573 H 0.63972 1.12259 1.08139
 C574 C 0.69659 0.86918 0.86652
 C575 C 0.65921 0.86039 0.85018
 C576 C 0.63263 0.88019 0.86587
 C577 C 0.64603 0.90683 0.89635
 C578 C 0.67636 0.92835 0.87656
 C579 C 0.70292 0.90857 0.86089
 C580 C 0.69166 0.86535 0.90974
 C581 C 0.66506 0.88515 0.92544
 C582 C 0.72537 0.84822 0.84941
 C583 C 0.74944 0.83182 0.83491
 C584 C 0.61749 0.92834 0.91302
 C585 C 0.59412 0.94629 0.92644
 H586 H 0.65407 0.84035 0.82828
 H587 H 0.60470 0.87711 0.85738
 H588 H 0.67694 0.95665 0.87500
 H589 H 0.72625 0.91994 0.84591
 H590 H 0.70761 0.84854 0.92653
 H591 H 0.65822 0.88532 0.95567
   
