data_POSCAR
  _audit_creation_date              2014-09-24
  _audit_creation_method            'ToBaCCo'
  _symmetry_space_group_name_H-M    'P1'
  _symmetry_Int_Tables_number       1
  _symmetry_cell_setting            triclinic
  loop_
  _symmetry_equiv_pos_as_xyz
 x,y,z
_cell_length_a 31.7795
_cell_length_b 31.8625
_cell_length_c 31.9889
_cell_angle_alpha 90.084200
_cell_angle_beta 89.999500
_cell_angle_gamma 89.868300
loop_
  _atom_site_label
  _atom_site_type_symbol
  _atom_site_fract_x
  _atom_site_fract_y
  _atom_site_fract_z
C1 C 0.32257 0.37569 1.37347
 N2 N 0.34221 0.34080 1.38804
 C3 C 0.37674 0.32559 1.36818
 N4 N 0.39140 0.34507 1.33344
 C5 C 0.37182 0.37999 1.31881
 N6 N 0.33723 0.39518 1.33868
 C7 C 1.17571 0.62918 0.88267
 N8 N 1.15658 0.66405 0.89806
 C9 C 1.12140 0.67932 0.87930
 N10 N 1.10566 0.65998 0.84486
 C11 C 1.12481 0.62511 0.82948
 N12 N 1.15992 0.60988 0.84826
 C13 C 0.67562 -0.12893 0.11703
 N14 N 0.65663 -0.16376 0.10155
 C15 C 0.62149 -0.17903 0.12026
 N16 N 0.60566 -0.15975 0.15472
 C17 C 0.62466 -0.12493 0.17019
 N18 N 0.65973 -0.10970 0.15147
 C19 C -0.17666 1.12453 -0.37395
 N20 N -0.16212 1.10514 -0.33903
 C21 C -0.12761 1.12028 -0.31912
 N22 N -0.10797 1.15502 -0.33386
 C23 C -0.12251 1.17439 -0.36874
 N24 N -0.15699 1.15925 -0.38865
 C25 C 0.67397 0.62957 0.61810
 N26 N 0.65492 0.66436 0.60256
 C27 C 0.61975 0.67981 0.62123
 N28 N 0.60395 0.66074 0.65573
 C29 C 0.62303 0.62593 0.67124
 N30 N 0.65813 0.61053 0.65255
 C31 C 0.82187 0.37557 0.12700
 N32 N 0.83656 0.39478 0.16200
 C33 C 0.87107 0.37932 0.18178
 N34 N 0.89055 0.34444 0.16681
 C35 C 0.87586 0.32525 0.13188
 N36 N 0.84141 0.34071 0.11211
 C37 C 0.32114 0.12368 0.87330
 N38 N 0.33567 0.10445 0.83822
 C39 C 0.37017 0.11970 0.81839
 N40 N 0.38980 0.15438 0.83339
 C41 C 0.37528 0.17358 0.86841
 N42 N 0.34083 0.15835 0.88823
 C43 C 0.17503 0.87192 0.38224
 N44 N 0.15609 0.83715 0.39777
 C45 C 0.12091 0.82182 0.37915
 N46 N 0.10500 0.84097 0.34472
 C47 C 0.12397 0.87574 0.32921
 N48 N 0.15908 0.89104 0.34784
 Zn49 Zn 0.05127 0.97763 0.01550
 Zn50 Zn -0.03210 0.96924 -0.02762
 Zn51 Zn -0.02575 1.01166 0.05592
 Zn52 Zn 0.00949 1.05331 -0.01928
 O53 O 0.00062 1.00286 0.00603
 O54 O 0.05500 0.92778 -0.00928
 O55 O -0.08088 0.95450 -0.00291
 O56 O 0.00351 0.99230 0.09970
 O57 O -0.00606 0.92082 -0.04171
 O58 O 0.06115 0.96781 0.06965
 O59 O -0.07557 0.98627 0.05839
 O60 O -0.00971 1.09703 0.01049
 O61 O -0.04641 0.99461 -0.07599
 O62 O -0.03601 1.06593 0.06633
 O63 O -0.01599 1.05656 -0.06870
 O64 O 0.06383 1.06336 -0.02980
 O65 O 0.09503 1.00709 -0.00394
 C66 C 0.03017 0.90676 -0.03218
 C67 C -0.09581 0.96339 0.03291
 C68 C 0.03916 0.97446 0.10212
 C69 C -0.02838 1.09893 0.04552
 C70 C -0.03810 1.03107 -0.08978
 C71 C 0.09687 1.04208 -0.02275
 Zn72 Zn 0.47419 0.01174 0.44325
 Zn73 Zn 0.46745 -0.03054 0.52671
 Zn74 Zn 0.55094 -0.02247 0.48389
 Zn75 Zn 0.50920 0.05337 0.51876
 O76 O 0.50034 0.00294 0.49324
 O77 O 0.42429 -0.01349 0.44060
 O78 O 0.49331 -0.07895 0.54088
 O79 O 0.56094 -0.03251 0.42975
 O80 O 0.41879 -0.04519 0.50182
 O81 O 0.50353 -0.00781 0.39951
 O82 O 0.55453 -0.07224 0.50874
 O83 O 0.56355 0.06334 0.52933
 O84 O 0.45296 -0.00513 0.57503
 O85 O 0.59468 0.00701 0.50331
 O86 O 0.48354 0.05677 0.56816
 O87 O 0.49022 0.09708 0.48898
 O88 O 0.46417 0.06603 0.43290
 C89 C 0.40394 -0.03628 0.46601
 C90 C 0.52955 -0.09312 0.53154
 C91 C 0.53912 -0.02582 0.39721
 C92 C 0.59656 0.04204 0.52215
 C93 C 0.46124 0.03130 0.58901
 C94 C 0.47177 0.09902 0.45384
 Zn95 Zn 1.01054 0.44591 0.48105
 Zn96 Zn 1.05207 0.52163 0.51599
 Zn97 Zn 0.96862 0.52991 0.47302
 Zn98 Zn 0.97534 0.48766 0.55652
 O99 O 1.00154 0.49636 0.50656
 O100 O 1.06492 0.43587 0.47041
 O101 O 1.05553 0.57142 0.49125
 O102 O 0.95422 0.50452 0.42468
 O103 O 1.09590 0.49212 0.49646
 O104 O 0.98489 0.44254 0.43165
 O105 O 0.99437 0.57828 0.45896
 O106 O 0.92537 0.51303 0.55910
 O107 O 1.06202 0.53160 0.57014
 O108 O 0.91990 0.54468 0.49784
 O109 O 1.00458 0.50716 0.60031
 O110 O 0.96540 0.43340 0.56684
 O111 O 0.99164 0.40225 0.51083
 C112 C 1.09787 0.45714 0.47753
 C113 C 1.03054 0.59238 0.46843
 C114 C 0.96256 0.46804 0.41075
 C115 C 0.90502 0.53586 0.53364
 C116 C 1.04014 0.52505 0.60266
 C117 C 0.97311 0.40038 0.54592
 Zn118 Zn 0.55178 0.52261 0.98478
 Zn119 Zn 0.51013 0.44714 1.01972
 Zn120 Zn 0.46834 0.53132 1.02790
 Zn121 Zn 0.47486 0.48874 0.94442
 O122 O 0.50117 0.49756 0.99431
 O123 O 0.59562 0.49304 1.00420
 O124 O 0.48462 0.44402 1.06913
 O125 O 0.49431 0.57971 1.04190
 O126 O 0.56449 0.43696 1.03027
 O127 O 0.55540 0.57244 1.00954
 O128 O 0.45403 0.50605 1.07631
 O129 O 0.42495 0.51414 0.94194
 O130 O 0.49104 0.40343 0.99001
 O131 O 0.41952 0.54611 1.00313
 O132 O 0.46479 0.43448 0.93406
 O133 O 0.50398 0.50812 0.90062
 O134 O 0.56158 0.53250 0.93061
 C135 C 0.59750 0.45810 1.02312
 C136 C 0.46240 0.46958 1.09015
 C137 C 0.53054 0.59361 1.03236
 C138 C 0.40461 0.53711 0.96734
 C139 C 0.47244 0.40151 0.95496
 C140 C 0.53954 0.52597 0.89817
 C141 C 1.21612 0.41445 0.42814
 C142 C 1.21400 0.45220 0.45046
 C143 C 1.17573 0.46567 0.46748
 C144 C 1.28700 0.38966 0.39247
 C145 C 1.14174 0.40321 0.44048
 C146 C 1.18002 0.38983 0.42353
 C147 C 1.25496 0.40129 0.40904
 C148 C 1.13905 0.44151 0.46229
 H149 H 1.24178 0.47149 0.45422
 H150 H 1.17474 0.49533 0.48402
 H151 H 1.11414 0.38388 0.43588
 H152 H 1.18133 0.36053 0.40633
 C153 C 0.28430 0.58509 0.92843
 C154 C 0.30728 0.55832 0.90232
 C155 C 0.34622 0.54267 0.91517
 C156 C 0.21196 0.61480 0.90008
 C157 C 0.33949 0.58035 0.98073
 C158 C 0.30039 0.59605 0.96772
 C159 C 0.24467 0.60160 0.91402
 C160 C 0.36291 0.55357 0.95447
 H161 H 0.29518 0.54967 0.87184
 H162 H 0.36331 0.52211 0.89416
 H163 H 0.35144 0.58933 1.01114
 H164 H 0.28287 0.61684 0.98816
 C165 C -0.21593 0.91526 0.07155
 C166 C -0.19308 0.94191 0.09780
 C167 C -0.15420 0.95762 0.08504
 C168 C -0.28817 0.88546 0.09970
 C169 C -0.16075 0.92025 0.01931
 C170 C -0.19977 0.90449 0.03222
 C171 C -0.25551 0.89870 0.08585
 C172 C -0.13745 0.94691 0.04570
 H173 H -0.20524 0.95041 0.12832
 H174 H -0.13721 0.97807 0.10616
 H175 H -0.14874 0.91141 -0.01115
 H176 H -0.21720 0.88381 0.01167
 C177 C 0.71487 0.08500 0.57067
 C178 C 0.67866 0.10959 0.57545
 C179 C 0.64035 0.09610 0.55881
 C180 C 0.78580 0.10983 0.60597
 C181 C 0.67452 0.03358 0.53181
 C182 C 0.71282 0.04716 0.54852
 C183 C 0.75374 0.09823 0.58953
 C184 C 0.63773 0.05772 0.53715
 H185 H 0.67991 0.13895 0.59253
 H186 H 0.61266 0.11542 0.56351
 H187 H 0.67358 0.00386 0.51538
 H188 H 0.74069 0.02788 0.54465
 C189 C 0.42810 0.21804 0.40792
 C190 C 0.44944 0.21581 0.44612
 C191 C 0.46439 0.17721 0.46077
 C192 C 0.39519 0.28966 0.38181
 C193 C 0.43715 0.14303 0.39868
 C194 C 0.42227 0.18164 0.38412
 C195 C 0.41071 0.25727 0.39377
 C196 C 0.45806 0.14029 0.43738
 H197 H 0.45403 0.24379 0.46484
 H198 H 0.48032 0.17621 0.49068
 H199 H 0.43175 0.11526 0.37990
 H200 H 0.40571 0.18300 0.35454
 C201 C 0.92910 0.28159 0.59156
 C202 C 0.92331 0.31799 0.61541
 C203 C 0.93833 0.35652 0.60095
 C204 C 0.89598 0.21019 0.61755
 C205 C 0.96566 0.32225 0.53889
 C206 C 0.95057 0.28373 0.55343
 C207 C 0.91159 0.24247 0.60561
 C208 C 0.95935 0.35917 0.56232
 H209 H 0.90666 0.31670 0.64494
 H210 H 0.93293 0.38429 0.61977
 H211 H 0.98168 0.32319 0.50903
 H212 H 0.95515 0.25575 0.53468
 C213 C 0.07288 0.78700 -0.07765
 C214 C 0.09815 0.81079 -0.05090
 C215 C 0.08405 0.84954 -0.03608
 C216 C 0.10341 0.71524 -0.10631
 C217 C 0.01889 0.84099 -0.07454
 C218 C 0.03316 0.80208 -0.08941
 C219 C 0.08860 0.74766 -0.09345
 C220 C 0.04431 0.86523 -0.04780
 H221 H 0.12896 0.79948 -0.04166
 H222 H 0.10445 0.86728 -0.01552
 H223 H -0.01182 0.85217 -0.08413
 H224 H 0.01337 0.78392 -0.11021
 C225 C 0.57317 0.71336 1.07737
 C226 C 0.59845 0.68936 1.05072
 C227 C 0.58438 0.65061 1.03607
 C228 C 0.60363 0.78508 1.10583
 C229 C 0.51921 0.65957 1.07449
 C230 C 0.53346 0.69848 1.08920
 C231 C 0.58887 0.75269 1.09303
 C232 C 0.54465 0.63512 1.04785
 H233 H 0.62925 0.70051 1.04143
 H234 H 0.60479 0.63272 1.01557
 H235 H 0.48851 0.64854 1.08413
 H236 H 0.51366 0.71680 1.10994
 C237 C 0.41531 0.42875 1.20930
 C238 C 0.44116 0.40249 1.18542
 C239 C 0.45648 0.41596 1.14685
 C240 C 0.38646 0.39922 1.28097
 C241 C 0.42031 0.48245 1.15573
 C242 C 0.40494 0.46881 1.19447
 C243 C 0.39925 0.41373 1.24859
 C244 C 0.44619 0.45605 1.13143
 H245 H 0.44935 0.37142 1.19655
 H246 H 0.47633 0.39480 1.12907
 H247 H 0.41182 0.51346 1.14476
 H248 H 0.38487 0.48939 1.21271
 C249 C 0.58320 -0.07210 0.27885
 C250 C 0.60807 -0.07661 0.31466
 C251 C 0.59412 -0.06081 0.35301
 C252 C 0.60925 -0.10567 0.20776
 C253 C 0.53051 -0.03526 0.31973
 C254 C 0.54455 -0.05113 0.28138
 C255 C 0.59706 -0.09000 0.23988
 C256 C 0.55499 -0.04026 0.35608
 H257 H 0.63805 -0.09280 0.31304
 H258 H 0.61374 -0.06522 0.38034
 H259 H 0.50023 -0.01966 0.32102
 H260 H 0.52504 -0.04749 0.25383
 C261 C -0.08470 1.07184 -0.20918
 C262 C -0.09492 1.03177 -0.19442
 C263 C -0.07974 1.01817 -0.15558
 C264 C -0.11314 1.10119 -0.28113
 C265 C -0.04411 1.08476 -0.14644
 C266 C -0.05924 1.09818 -0.18511
 C267 C -0.10052 1.08678 -0.24862
 C268 C -0.05422 1.04463 -0.13111
 H269 H -0.11470 1.01114 -0.21281
 H270 H -0.08808 0.98713 -0.14468
 H271 H -0.02453 1.10595 -0.12851
 H272 H -0.05118 1.12927 -0.19619
 C273 C 1.08375 0.57182 0.72095
 C274 C 1.10874 0.57604 0.68520
 C275 C 1.09497 0.56005 0.64689
 C276 C 1.10950 0.60574 0.79195
 C277 C 1.03128 0.53486 0.68009
 C278 C 1.04515 0.55092 0.71840
 C279 C 1.09743 0.58993 0.75987
 C280 C 1.05588 0.53959 0.64379
 H281 H 1.13868 0.59217 0.68683
 H282 H 1.11467 0.56426 0.61960
 H283 H 1.00103 0.51934 0.67878
 H284 H 1.02555 0.54749 0.74589
 C285 C 0.78467 0.58415 0.57204
 C286 C 0.80082 0.59471 0.53271
 C287 C 0.83993 0.57889 0.51990
 C288 C 0.71227 0.61419 0.59985
 C289 C 0.84658 0.54189 0.58574
 C290 C 0.80761 0.55765 0.59840
 C291 C 0.74501 0.60080 0.58619
 C292 C 0.86332 0.55239 0.54639
 H293 H 0.78333 0.61527 0.51208
 H294 H 0.85193 0.58757 0.48944
 H295 H 0.86365 0.52156 0.60692
 H296 H 0.79544 0.54933 0.62892
 C297 C 0.71560 0.41501 1.07248
 C298 C 0.71363 0.45279 1.05031
 C299 C 0.67541 0.46639 1.03329
 C300 C 0.78638 0.38981 1.10807
 C301 C 0.64119 0.40402 1.06002
 C302 C 0.67941 0.39050 1.07696
 C303 C 0.75439 0.40165 1.09155
 C304 C 0.63864 0.44235 1.03834
 H305 H 0.74147 0.47199 1.04664
 H306 H 0.67452 0.49607 1.01685
 H307 H 0.61353 0.38477 1.06452
 H308 H 0.68060 0.36118 1.09404
 C309 C 0.21491 1.08480 -0.07207
 C310 C 0.21297 1.04700 -0.04994
 C311 C 0.17477 1.03352 -0.03293
 C312 C 0.28565 1.10966 -0.10772
 C313 C 0.14050 1.09606 -0.05957
 C314 C 0.17870 1.10945 -0.07650
 C315 C 0.25368 1.09800 -0.09116
 C316 C 0.13798 1.05771 -0.03794
 H317 H 0.24083 1.02769 -0.04631
 H318 H 0.17391 1.00383 -0.01653
 H319 H 0.11282 1.11542 -0.06404
 H320 H 0.17987 1.13878 -0.09355
 C321 C 0.28367 -0.08403 0.42742
 C322 C 0.30663 -0.05761 0.40111
 C323 C 0.34558 -0.04204 0.41383
 C324 C 0.21130 -0.11368 0.39945
 C325 C 0.33887 -0.07909 0.47963
 C326 C 0.29977 -0.09471 0.46675
 C327 C 0.24402 -0.10048 0.41319
 C328 C 0.36227 -0.05266 0.45319
 H329 H 0.29450 -0.04920 0.37058
 H330 H 0.36268 -0.02176 0.39269
 H331 H 0.35083 -0.08785 0.51009
 H332 H 0.28226 -0.11522 0.48734
 C333 C 0.57168 -0.21269 0.57760
 C334 C 0.59717 -0.18915 0.55090
 C335 C 0.58326 -0.15045 0.53587
 C336 C 0.60186 -0.28433 0.60668
 C337 C 0.51786 -0.15860 0.57401
 C338 C 0.53194 -0.19744 0.58909
 C339 C 0.58720 -0.25197 0.59363
 C340 C 0.54350 -0.13459 0.54733
 H341 H 0.62799 -0.20060 0.54187
 H342 H 0.60381 -0.13290 0.51537
 H343 H 0.48713 -0.14727 0.58340
 H344 H 0.51199 -0.21541 0.60984
 C345 C 1.07227 0.71216 0.42311
 C346 C 1.03261 0.69700 0.41147
 C347 C 1.01867 0.65807 0.42628
 C348 C 1.10214 0.78393 0.39445
 C349 C 1.08405 0.64966 0.46446
 C350 C 1.09782 0.68843 0.44969
 C351 C 1.08765 0.75151 0.40734
 C352 C 1.04437 0.63389 0.45285
 H353 H 1.01262 0.71511 0.39079
 H354 H 0.98799 0.64683 0.41679
 H355 H 1.10465 0.63197 0.48488
 H356 H 1.12859 0.69981 0.45883
 C357 C -0.07274 1.21781 0.09153
 C358 C -0.05122 1.21565 0.05342
 C359 C -0.03605 1.17710 0.03873
 C360 C -0.10576 1.28935 0.11793
 C361 C -0.06345 1.14283 0.10060
 C362 C -0.07854 1.18139 0.11520
 C363 C -0.09022 1.25700 0.10579
 C364 C -0.04234 1.14016 0.06200
 H365 H -0.04663 1.24364 0.03480
 H366 H -0.01997 1.17614 0.00890
 H367 H -0.06883 1.11505 0.11930
 H368 H -0.09523 1.18270 0.14472
 C369 C 0.42800 0.28274 0.90932
 C370 C 0.42230 0.31910 0.88549
 C371 C 0.43745 0.35761 0.89996
 C372 C 0.39484 0.21135 0.88314
 C373 C 0.46473 0.32341 0.96199
 C374 C 0.44951 0.28490 0.94744
 C375 C 0.41045 0.24362 0.89520
 C376 C 0.45852 0.36029 0.93857
 H377 H 0.40564 0.31778 0.85597
 H378 H 0.43213 0.38536 0.88116
 H379 H 0.48077 0.32438 0.99183
 H380 H 0.45402 0.25695 0.96616
 C381 C 0.58235 0.57298 0.77987
 C382 C 0.54384 0.55195 0.78254
 C383 C 0.53025 0.53578 0.82086
 C384 C 0.60773 0.60681 0.70883
 C385 C 0.59405 0.56113 0.85380
 C386 C 0.60755 0.57722 0.81548
 C387 C 0.59579 0.59108 0.74094
 C388 C 0.55506 0.54055 0.85702
 H389 H 0.52410 0.54848 0.75514
 H390 H 0.50006 0.52018 0.82227
 H391 H 0.61389 0.56536 0.88100
 H392 H 0.63744 0.59343 0.81374
 C393 C 0.41365 0.07179 0.70827
 C394 C 0.43923 0.09824 0.68451
 C395 C 0.45470 0.08492 0.64588
 C396 C 0.38474 0.10077 0.78029
 C397 C 0.41916 0.01824 0.65445
 C398 C 0.40365 0.03172 0.69324
 C399 C 0.39754 0.08654 0.74772
 C400 C 0.44481 0.04479 0.63029
 H401 H 0.44713 0.12932 0.69580
 H402 H 0.47436 0.10619 0.62819
 H403 H 0.41098 -0.01281 0.64335
 H404 H 0.38380 0.01099 0.71138
 C405 C 0.08274 0.92833 0.22054
 C406 C 0.10783 0.92389 0.18486
 C407 C 0.09405 0.93967 0.14649
 C408 C 0.10855 0.89486 0.29164
 C409 C 0.03019 0.96505 0.17951
 C410 C 0.04406 0.94921 0.21788
 C411 C 0.09644 0.91047 0.25952
 C412 C 0.05489 0.96011 0.14328
 H413 H 0.13784 0.90778 0.18659
 H414 H 0.11382 0.93530 0.11925
 H415 H -0.00013 0.98057 0.17811
 H416 H 0.02440 0.95280 0.24533
 C417 C 0.91491 0.42738 0.29163
 C418 C 0.90479 0.46749 0.30661
 C419 C 0.92035 0.48104 0.34533
 C420 C 0.88580 0.39826 0.21979
 C421 C 0.95617 0.41436 0.35395
 C422 C 0.94066 0.40097 0.31537
 C423 C 0.89871 0.41254 0.25227
 C424 C 0.94615 0.45451 0.36949
 H425 H 0.88481 0.48819 0.28848
 H426 H 0.91206 0.51211 0.35640
 H427 H 0.97595 0.39311 0.37163
 H428 H 0.94866 0.36986 0.30413
   
