data_POSCAR
  _audit_creation_date              2014-09-24
  _audit_creation_method            'ToBaCCo'
  _symmetry_space_group_name_H-M    'P1'
  _symmetry_Int_Tables_number       1
  _symmetry_cell_setting            triclinic
  loop_
  _symmetry_equiv_pos_as_xyz
 x,y,z
_cell_length_a 27.2554
_cell_length_b 27.2551
_cell_length_c 27.2554
_cell_angle_alpha 82.189900
_cell_angle_beta 97.805400
_cell_angle_gamma 82.194000
loop_
  _atom_site_label
  _atom_site_type_symbol
  _atom_site_fract_x
  _atom_site_fract_y
  _atom_site_fract_z
O1 O 0.57093 0.49375 0.04851
 O2 O 0.43360 0.50355 0.03451
 O3 O 0.50720 0.42899 0.04979
 O4 O 0.49578 0.56672 0.03298
 O5 O 0.49284 0.56940 -0.04878
 O6 O 0.50494 0.43170 -0.03191
 O7 O 0.42937 0.50413 -0.04706
 O8 O 0.56681 0.49523 -0.03322
 Cu9 Cu 0.50245 0.49782 0.04973
 Cu10 Cu 0.49789 0.50058 -0.04854
 C11 C 0.59218 0.49306 0.00988
 C12 C 0.40807 0.50519 -0.00844
 C13 C 0.50792 0.40697 0.01163
 C14 C 0.49253 0.59142 -0.01061
 O15 O -0.04778 0.57165 0.49522
 O16 O -0.03393 0.43425 0.50408
 O17 O -0.03241 0.49610 0.56765
 O18 O -0.04930 0.50827 0.42987
 O19 O 0.03247 0.50525 0.43263
 O20 O 0.04926 0.49395 0.57027
 O21 O 0.04782 0.43011 0.50562
 O22 O 0.03377 0.56749 0.49570
 Cu23 Cu -0.04916 0.50315 0.49874
 Cu24 Cu 0.04911 0.49861 0.50148
 C25 C -0.00919 0.59299 0.49413
 C26 C 0.00917 0.40886 0.50631
 C27 C 0.01114 0.49324 0.59233
 C28 C -0.01110 0.50860 0.40788
 O29 O 0.50344 0.03401 0.56693
 O30 O 0.49363 0.04803 0.42957
 O31 O 0.42889 0.04945 0.49329
 O32 O 0.56658 0.03266 0.50471
 O33 O 0.56928 -0.04910 0.50763
 O34 O 0.43157 -0.03224 0.49556
 O35 O 0.49509 -0.03371 0.43371
 O36 O 0.50401 -0.04756 0.57112
 Cu37 Cu 0.49771 0.04932 0.49806
 Cu38 Cu 0.50046 -0.04895 0.50262
 C39 C 0.50507 -0.00895 0.59245
 C40 C 0.49291 0.00939 0.40832
 C41 C 0.40685 0.01131 0.49257
 C42 C 0.59130 -0.01092 0.50793
 C43 C 0.50649 -0.01181 -0.04912
 C44 C 0.49382 -0.04858 -0.01305
 C45 C 0.48773 -0.03651 0.03456
 C46 C 0.49439 0.01043 0.04807
 C47 C 0.50720 0.04715 0.01213
 C48 C 0.51319 0.03514 -0.03550
 H49 H 0.52134 0.06394 -0.06337
 H50 H 0.47949 -0.06519 0.06254
 C51 C -0.01161 0.50757 1.04809
 C52 C -0.04753 0.49474 1.01137
 C53 C -0.03403 0.48809 0.96443
 C54 C 0.01357 0.49420 0.95235
 C55 C 0.04965 0.50684 0.98913
 C56 C 0.03603 0.51354 1.03607
 H57 H 0.06390 0.52170 1.06487
 H58 H -0.06200 0.47986 0.93575
 C59 C 0.04682 0.01259 0.49242
 C60 C 0.01009 0.04854 0.50520
 C61 C -0.03685 0.03503 0.51187
 C62 C -0.04892 -0.01258 0.50579
 C63 C -0.01216 -0.04864 0.49308
 C64 C 0.03479 -0.03502 0.48640
 H65 H 0.06359 -0.06290 0.47825
 H66 H -0.06552 0.06300 0.52011
 C67 C -0.25276 0.48725 1.02033
 N68 N -0.27957 0.47157 0.98138
 N69 N -0.32892 0.47324 0.97835
 C70 C -0.35323 0.49000 1.01454
 N71 N -0.32642 0.50522 1.05388
 N72 N -0.27703 0.50419 1.05657
 C73 C -0.19871 0.48692 1.02179
 N74 N -0.17386 0.51720 1.04836
 N75 N -0.12550 0.51906 1.04626
 C76 C -0.10000 0.49009 1.01823
 N77 N -0.12507 0.45964 0.99210
 N78 N -0.17339 0.45818 0.99370
 C79 C 0.25564 0.51130 0.98136
 N80 N 0.28392 0.51711 1.02450
 N81 N 0.33330 0.51499 1.02761
 C82 C 0.35629 0.50785 0.98743
 N83 N 0.32791 0.50256 0.94395
 N84 N 0.27846 0.50383 0.94110
 C85 C 0.20143 0.51283 0.97941
 N86 N 0.17528 0.48588 0.94981
 N87 N 0.12678 0.48462 0.95174
 C88 C 0.10240 0.51102 0.98256
 N89 N 0.12882 0.53825 1.01160
 N90 N 0.17728 0.53895 1.01027
 C91 C -0.01964 -0.25459 0.48825
 N92 N 0.02351 -0.28276 0.48231
 N93 N 0.02671 -0.33214 0.48434
 C94 C -0.01340 -0.35524 0.49153
 N95 N -0.05688 -0.32697 0.49695
 N96 N -0.05983 -0.27753 0.49576
 C97 C -0.02171 -0.20038 0.48681
 N98 N -0.05117 -0.17441 0.51401
 N99 N -0.04931 -0.12590 0.51535
 C100 C -0.01871 -0.10136 0.48879
 N101 N 0.01017 -0.12761 0.46130
 N102 N 0.00892 -0.17607 0.46052
 C103 C 0.01938 0.25378 0.51238
 N104 N -0.01957 0.28072 0.52794
 N105 N -0.02250 0.33007 0.52620
 C106 C 0.01378 0.35427 0.50948
 N107 N 0.05312 0.32733 0.49437
 N108 N 0.05572 0.27794 0.49548
 C109 C 0.02072 0.19973 0.51279
 N110 N 0.04741 0.17473 0.48270
 N111 N 0.04522 0.12637 0.48090
 C112 C 0.01697 0.10103 0.50975
 N113 N -0.00928 0.12624 0.54001
 N114 N -0.00758 0.17456 0.54140
 C115 C 0.51108 -0.01934 -0.25512
 N116 N 0.51692 0.02382 -0.28333
 N117 N 0.51484 0.02701 -0.33272
 C118 C 0.50770 -0.01314 -0.35577
 N119 N 0.50237 -0.05664 -0.32746
 N120 N 0.50361 -0.05957 -0.27801
 C121 C 0.51259 -0.02138 -0.20090
 N122 N 0.48555 -0.05095 -0.17483
 N123 N 0.48426 -0.04908 -0.12632
 C124 C 0.51072 -0.01836 -0.10186
 N125 N 0.53805 0.01064 -0.12820
 N126 N 0.53878 0.00937 -0.17667
 C127 C 0.48700 0.01964 0.25327
 N128 N 0.50395 0.05593 0.27747
 N129 N 0.50501 0.05332 0.32685
 C130 C 0.48980 0.01401 0.35374
 N131 N 0.47303 -0.02222 0.32950
 N132 N 0.47134 -0.01927 0.28016
 C133 C 0.48666 0.02100 0.19923
 N134 N 0.45797 -0.00719 0.17399
 N135 N 0.45941 -0.00886 0.12568
 C136 C 0.48979 0.01729 0.10054
 N137 N 0.51872 0.04542 0.12596
 N138 N 0.51688 0.04760 0.17431
 C139 C 0.48534 -0.25321 -0.02341
 N140 N 0.50368 -0.27809 -0.05861
 N141 N 0.50500 -0.32757 -0.05531
 C142 C 0.48872 -0.35387 -0.01633
 N143 N 0.47056 -0.32894 0.01882
 N144 N 0.46856 -0.27950 0.01513
 C145 C 0.48497 -0.19910 -0.02526
 N146 N 0.45434 -0.17313 0.00073
 N147 N 0.45602 -0.12488 0.00260
 C148 C 0.48857 -0.10056 -0.02114
 N149 N 0.51942 -0.12667 -0.04709
 N150 N 0.51734 -0.17495 -0.04950
 C151 C 0.51568 0.25158 0.02383
 N152 N 0.49747 0.27618 0.05929
 N153 N 0.49596 0.32567 0.05621
 C154 C 0.51195 0.35225 0.01720
 N155 N 0.53000 0.32760 -0.01817
 N156 N 0.53217 0.27817 -0.01472
 C157 C 0.51615 0.19749 0.02533
 N158 N 0.54601 0.17203 -0.00172
 N159 N 0.54431 0.12387 -0.00398
 C160 C 0.51248 0.09909 0.02042
 N161 N 0.48245 0.12467 0.04751
 N162 N 0.48455 0.17289 0.05028
 C163 C -0.25339 -0.02340 0.51479
 N164 N -0.27824 -0.05865 0.49649
 N165 N -0.32769 -0.05547 0.49530
 C166 C -0.35400 -0.01657 0.51168
 N167 N -0.32911 0.01861 0.52981
 N168 N -0.27970 0.01505 0.53168
 C169 C -0.19932 -0.02509 0.51500
 N170 N -0.17336 0.00099 0.54552
 N171 N -0.12516 0.00299 0.54371
 C172 C -0.10087 -0.02072 0.51111
 N173 N -0.12698 -0.04675 0.48035
 N174 N -0.17521 -0.04929 0.48257
 C175 C 0.25141 0.02382 0.48449
 N176 N 0.27605 0.05923 0.50273
 N177 N 0.32557 0.05603 0.50436
 C178 C 0.35213 0.01694 0.48849
 N179 N 0.32743 -0.01839 0.47041
 N180 N 0.27798 -0.01482 0.46812
 C181 C 0.19728 0.02547 0.48384
 N182 N 0.17182 -0.00147 0.45388
 N183 N 0.12360 -0.00360 0.45545
 C184 C 0.09879 0.02083 0.48723
 N185 N 0.12438 0.04784 0.51734
 N186 N 0.17264 0.05047 0.51539
 C187 C -0.02331 0.51624 1.25249
 N188 N 0.01537 0.53252 1.27909
 N189 N 0.01883 0.53039 1.32852
 C190 C -0.01668 0.51259 1.35316
 N191 N -0.05581 0.49682 1.32657
 N192 N -0.05890 0.49828 1.27708
 C193 C -0.02482 0.51668 1.19840
 N194 N -0.04987 0.48513 1.17381
 N195 N -0.04710 0.48299 1.12560
 C196 C -0.01991 0.51291 1.10002
 N197 N 0.00457 0.54468 1.12479
 N198 N 0.00232 0.54643 1.17295
 C199 C 0.02392 0.48594 0.74770
 N200 N 0.05898 0.50454 0.72279
 N201 N 0.05569 0.50590 0.67331
 C202 C 0.01684 0.48940 0.64703
 N203 N -0.01816 0.47098 0.67198
 N204 N -0.01448 0.46894 0.72142
 C205 C 0.02575 0.48553 0.80181
 N206 N -0.00013 0.45479 0.82778
 N207 N -0.00201 0.45642 0.87603
 C208 C 0.02165 0.48902 0.90036
 N209 N 0.04749 0.51998 0.87425
 N210 N 0.04990 0.51796 0.82596
   
