data_POSCAR
  _audit_creation_date              2014-09-24
  _audit_creation_method            'ToBaCCo'
  _symmetry_space_group_name_H-M    'P1'
  _symmetry_Int_Tables_number       1
  _symmetry_cell_setting            triclinic
  loop_
  _symmetry_equiv_pos_as_xyz
 x,y,z
_cell_length_a 19.8361
_cell_length_b 19.7397
_cell_length_c 19.8552
_cell_angle_alpha 94.031500
_cell_angle_beta 76.457500
_cell_angle_gamma 69.768400
loop_
  _atom_site_label
  _atom_site_type_symbol
  _atom_site_fract_x
  _atom_site_fract_y
  _atom_site_fract_z
C1 C 0.55211 0.51486 -0.01044
 C2 C 0.48890 0.58133 0.01837
 C3 C 0.41783 0.57705 0.04013
 C4 C 0.40567 0.51170 0.02731
 C5 C 0.46862 0.44510 0.00030
 C6 C 0.53962 0.44957 -0.02321
 H7 H 0.58757 0.40026 -0.04812
 H8 H 0.36944 0.62749 0.06146
 C9 C -0.01399 0.44002 0.52117
 C10 C -0.01683 0.49340 0.57398
 C11 C -0.01485 0.56058 0.55666
 C12 C -0.00616 0.57525 0.48726
 C13 C -0.00360 0.52127 0.43457
 C14 C -0.00539 0.45409 0.45204
 H15 H 0.00255 0.41124 0.41047
 H16 H -0.02517 0.60312 0.59920
 C17 C 0.48241 -0.01541 0.43005
 C18 C 0.42974 -0.03214 0.48010
 C19 C 0.44084 -0.04243 0.54661
 C20 C 0.49986 -0.03133 0.56745
 C21 C 0.55427 -0.01541 0.51650
 C22 C 0.54308 -0.00652 0.44916
 H23 H 0.58329 0.00462 0.40927
 H24 H 0.40126 -0.05769 0.58380
 O25 O 0.51436 -0.00121 -0.09906
 O26 O 0.51615 -0.00717 0.08701
 O27 O 0.51182 0.09129 0.00338
 O28 O 0.51971 -0.09982 -0.01577
 O29 O 0.64279 -0.14011 -0.05388
 O30 O 0.63516 0.04903 -0.02484
 O31 O 0.63954 -0.05252 0.05277
 O32 O 0.63736 -0.03641 -0.13030
 Cu33 Cu 0.50311 -0.00021 -0.00280
 Cu34 Cu 0.65091 -0.04936 -0.04221
 C35 C 0.57571 -0.01600 -0.14598
 C36 C 0.57862 -0.03197 0.10121
 C37 C 0.57268 0.10239 -0.00761
 C38 C 0.58277 -0.15246 -0.03851
 O39 O -0.13104 0.59723 1.03746
 O40 O 0.07164 0.54456 1.01250
 O41 O -0.01674 0.58367 0.93206
 O42 O -0.03979 0.55505 1.11540
 O43 O -0.02429 0.43994 1.08339
 O44 O -0.00101 0.46849 0.90016
 O45 O 0.08938 0.42917 0.97888
 O46 O -0.11349 0.48190 1.00395
 Cu47 Cu -0.03102 0.58190 1.02752
 Cu48 Cu -0.01055 0.44319 0.98845
 C49 C -0.15677 0.54859 1.02466
 C50 C 0.11497 0.47793 0.99187
 C51 C -0.00518 0.53090 0.88494
 C52 C -0.03521 0.49244 1.13043
 O53 O 0.01773 -0.10211 0.46638
 O54 O -0.00853 0.08427 0.43126
 O55 O 0.09500 -0.01786 0.46606
 O56 O -0.08311 0.00011 0.42930
 O57 O -0.14133 0.03938 0.54224
 O58 O 0.03583 0.02702 0.57798
 O59 O -0.06745 0.12733 0.54358
 O60 O -0.03727 -0.05889 0.57930
 Cu61 Cu 0.01149 -0.01356 0.43692
 Cu62 Cu -0.05894 0.03835 0.57206
 C63 C -0.00553 -0.11207 0.52877
 C64 C -0.04184 0.13740 0.48186
 C65 C 0.09557 0.00260 0.52800
 C66 C -0.14227 0.02167 0.47976
 C67 C -0.37207 0.50606 0.97927
 C68 C -0.34693 0.54646 1.01667
 C69 C -0.26581 0.52612 1.00603
 C70 C -0.23785 0.57015 1.03426
 H71 H -0.38506 0.59174 1.05747
 H72 H -0.22805 0.47403 0.97392
 H73 H -0.33009 0.45743 0.94429
 H74 H -0.27500 0.62367 1.06377
 C75 C 0.33014 0.51893 1.04018
 C76 C 0.30460 0.48010 1.00151
 C77 C 0.22344 0.49944 1.01333
 C78 C 0.19597 0.45670 0.98235
 H79 H 0.34225 0.43844 0.95729
 H80 H 0.18535 0.54986 1.04808
 H81 H 0.28844 0.56602 1.07739
 H82 H 0.23352 0.40454 0.95034
 C83 C -0.00335 -0.35677 0.47132
 C84 C 0.00968 -0.30949 0.51356
 C85 C 0.00831 -0.23860 0.49469
 C86 C 0.00284 -0.18563 0.54359
 H87 H 0.02213 -0.32180 0.56247
 H88 H 0.00772 -0.22831 0.44184
 H89 H -0.01148 -0.34111 0.42183
 H90 H -0.00127 -0.19484 0.59736
 C91 C -0.01743 0.36868 0.53708
 C92 C -0.04589 0.33094 0.50111
 C93 C -0.04621 0.25974 0.51721
 C94 C -0.04881 0.21117 0.46866
 H95 H -0.06831 0.35168 0.45869
 H96 H -0.03962 0.24513 0.56760
 H97 H 0.00389 0.34632 0.57952
 H98 H -0.04923 0.22357 0.41639
 C99 C 0.49842 -0.03587 -0.36101
 C100 C 0.52866 -0.00279 -0.32201
 C101 C 0.52386 -0.01242 -0.24813
 C102 C 0.57679 -0.00732 -0.21930
 H103 H 0.55550 0.03354 -0.34253
 H104 H 0.47878 -0.02647 -0.21822
 H105 H 0.46535 -0.06445 -0.33346
 H106 H 0.62451 0.00127 -0.25151
 C107 C 0.47369 -0.00548 0.35821
 C108 C 0.53205 -0.02728 0.30063
 C109 C 0.52257 -0.01768 0.22976
 C110 C 0.58258 -0.03833 0.17395
 H111 H 0.58811 -0.05415 0.30529
 H112 H 0.46686 0.00608 0.22326
 H113 H 0.41780 0.01859 0.35224
 H114 H 0.63784 -0.06155 0.18167
 C115 C 0.48939 -0.34680 0.02134
 C116 C 0.53933 -0.32635 -0.02173
 C117 C 0.53171 -0.24875 -0.01495
 C118 C 0.58764 -0.22909 -0.04710
 H119 H 0.58482 -0.36566 -0.06311
 H120 H 0.48058 -0.20742 0.01879
 H121 H 0.44146 -0.30310 0.05690
 H122 H 0.64008 -0.27092 -0.07794
 C123 C 0.46264 0.37131 0.00472
 C124 C 0.52066 0.30942 0.00201
 C125 C 0.51278 0.23768 0.00437
 C126 C 0.57315 0.17713 -0.00220
 H127 H 0.57559 0.31020 -0.00190
 H128 H 0.45877 0.23394 0.00842
 H129 H 0.40858 0.36697 0.01580
 H130 H 0.62693 0.18195 -0.00768
 C131 C -0.37779 -0.01695 0.52883
 C132 C -0.33412 0.01522 0.49358
 C133 C -0.26510 0.01216 0.51079
 C134 C -0.21237 0.02577 0.46486
 H135 H -0.34944 0.04684 0.45348
 H136 H -0.25639 -0.00323 0.56037
 H137 H -0.35875 -0.04636 0.56900
 H138 H -0.21880 0.03576 0.41329
 C139 C 0.36339 -0.04009 0.46332
 C140 C 0.29701 -0.01783 0.51130
 C141 C 0.23056 -0.02220 0.49358
 C142 C 0.16532 0.00010 0.54307
 H143 H 0.29052 0.00672 0.56414
 H144 H 0.23457 -0.04195 0.43988
 H145 H 0.36819 -0.06164 0.40996
 H146 H 0.16225 0.01961 0.59657
 C147 C 0.00337 0.53250 1.36047
 C148 C -0.03113 0.50686 1.32065
 C149 C -0.02491 0.52030 1.24827
 C150 C -0.04206 0.48009 1.20313
 H151 H -0.06503 0.47627 1.34156
 H152 H -0.00429 0.56226 1.23120
 H153 H 0.03682 0.56291 1.33808
 H154 H -0.05803 0.43507 1.21893
 C155 C -0.02506 0.48110 0.64798
 C156 C 0.00264 0.51154 0.69154
 C157 C -0.00665 0.49870 0.76434
 C158 C 0.00362 0.54263 0.81188
 H159 H 0.03304 0.54612 0.67374
 H160 H -0.02367 0.45407 0.77953
 H161 H -0.05406 0.44583 0.66726
 H162 H 0.01645 0.58965 0.79737
   
