data_POSCAR
  _audit_creation_date              2014-09-24
  _audit_creation_method            'ToBaCCo'
  _symmetry_space_group_name_H-M    'P1'
  _symmetry_Int_Tables_number       1
  _symmetry_cell_setting            triclinic
  loop_
  _symmetry_equiv_pos_as_xyz
 x,y,z
_cell_length_a 36.8242
_cell_length_b 36.8458
_cell_length_c 36.7951
_cell_angle_alpha 90.032300
_cell_angle_beta 90.412400
_cell_angle_gamma 90.151900
loop_
  _atom_site_label
  _atom_site_type_symbol
  _atom_site_fract_x
  _atom_site_fract_y
  _atom_site_fract_z
C1 C 0.19602 0.52811 1.04480
 H2 H 0.19521 0.54877 1.02392
 C3 C 0.17174 0.52956 1.07370
 H4 H 0.15208 0.55128 1.07359
 C5 C 0.22117 0.47351 1.06728
 H6 H 0.24020 0.45145 1.06446
 C7 C 0.19732 0.47375 1.09662
 H8 H 0.19995 0.45229 1.11646
 N9 N 0.22012 0.50045 1.04213
 C10 C 0.30551 0.54119 0.97152
 H11 H 0.30513 0.52027 0.95088
 C12 C 0.33112 0.56909 0.96991
 H13 H 0.35006 0.56975 0.94755
 C14 C 0.28134 0.56534 1.02590
 H15 H 0.26245 0.56330 1.04813
 C16 C 0.30655 0.59376 1.02537
 H17 H 0.30677 0.61333 1.04732
 Zn18 Zn 0.24978 0.49920 1.00038
 N19 N 0.28125 0.53983 0.99916
 C20 C 0.21967 0.52585 0.93410
 N21 N 0.21835 0.49904 0.95947
 C22 C 0.19291 0.47228 0.95757
 C23 C 0.16762 0.47158 0.92914
 C24 C 0.19485 0.52622 0.90521
 C25 C 0.30499 0.45513 1.02758
 C26 C 0.32938 0.42623 1.02845
 C27 C 0.30122 0.40257 0.97383
 C28 C 0.27730 0.43195 0.97403
 N29 N 0.27955 0.45743 1.00073
 H30 H 0.23955 0.54732 0.93648
 H31 H 0.19203 0.45171 0.97851
 H32 H 0.14717 0.45043 0.92855
 H33 H 0.19642 0.54768 0.88520
 H34 H 0.30662 0.47616 1.04805
 H35 H 0.34991 0.42537 1.04964
 H36 H 0.29901 0.38251 0.95240
 H37 H 0.25742 0.43463 0.95249
 C38 C 0.33209 0.59571 0.99725
 C39 C 0.17160 0.50191 1.10033
 C40 C 0.32784 0.39954 1.00121
 C41 C 0.16827 0.49891 0.90255
 C42 C 0.80443 0.52745 -0.04450
 H43 H 0.80572 0.54811 -0.02362
 C44 C 0.82873 0.52841 -0.07341
 H45 H 0.84884 0.54986 -0.07445
 C46 C 0.77777 0.47332 -0.06723
 H47 H 0.75837 0.45150 -0.06434
 C48 C 0.80162 0.47319 -0.09659
 H49 H 0.79980 0.45156 -0.11645
 N50 N 0.77957 0.50025 -0.04196
 C51 C 0.69613 0.54286 0.02955
 H52 H 0.69641 0.52208 0.05031
 C53 C 0.67090 0.57095 0.03121
 H54 H 0.65218 0.57193 0.05374
 C55 C 0.71998 0.56628 -0.02532
 H56 H 0.73852 0.56381 -0.04780
 C57 C 0.69513 0.59489 -0.02476
 H58 H 0.69485 0.61421 -0.04692
 Zn59 Zn 0.75005 0.49952 -0.00011
 N60 N 0.71996 0.54097 0.00159
 C61 C 0.78209 0.52515 0.06579
 N62 N 0.78167 0.49812 0.04058
 C63 C 0.80582 0.47032 0.04220
 C64 C 0.83174 0.46892 0.07001
 C65 C 0.80759 0.52482 0.09409
 C66 C 0.69339 0.45764 -0.02779
 C67 C 0.66752 0.42995 -0.02885
 C68 C 0.69414 0.40491 0.02583
 C69 C 0.71957 0.43315 0.02584
 N70 N 0.71873 0.45877 -0.00077
 H71 H 0.76331 0.54751 0.06351
 H72 H 0.80519 0.44946 0.02151
 H73 H 0.85065 0.44648 0.07084
 H74 H 0.80811 0.54703 0.11336
 H75 H 0.69307 0.47865 -0.04832
 H76 H 0.64768 0.42952 -0.05070
 H77 H 0.69464 0.38525 0.04769
 H78 H 0.73933 0.43502 0.04759
 C79 C 0.66985 0.59721 0.00357
 C80 C 0.82769 0.50089 -0.09983
 C81 C 0.66742 0.40329 -0.00159
 C82 C 0.83310 0.49661 0.09624
 C83 C -0.02677 0.30533 0.45535
 H84 H -0.04727 0.30640 0.47625
 C85 C -0.02788 0.32994 0.42657
 H86 H -0.04915 0.35008 0.42679
 C87 C 0.02710 0.27919 0.43274
 H88 H 0.04874 0.25963 0.43547
 C89 C 0.02721 0.30337 0.40350
 H90 H 0.04849 0.30050 0.38364
 N91 N 0.00032 0.28055 0.45788
 C92 C -0.04310 0.19571 0.52790
 H93 H -0.02228 0.19510 0.54879
 C94 C -0.07194 0.17108 0.52902
 H95 H -0.07296 0.15138 0.55081
 C96 C -0.06584 0.22106 0.47314
 H97 H -0.06302 0.24010 0.45104
 C98 C -0.09513 0.19689 0.47318
 H99 H -0.11498 0.19812 0.45137
 Zn100 Zn 0.00088 0.25049 0.49954
 N101 N -0.04062 0.22011 0.50032
 C102 C -0.02513 0.28132 0.56550
 N103 N 0.00177 0.28173 0.54035
 C104 C 0.02914 0.30651 0.54204
 C105 C 0.03025 0.33224 0.56985
 C106 C -0.02509 0.30662 0.59382
 C107 C 0.04407 0.19475 0.47249
 C108 C 0.07279 0.17013 0.47162
 C109 C 0.09673 0.19733 0.52657
 C110 C 0.06754 0.22149 0.52637
 N111 N 0.04205 0.21987 0.49947
 H112 H -0.04715 0.26202 0.56318
 H113 H 0.04990 0.30653 0.52138
 H114 H 0.05237 0.35164 0.57074
 H115 H -0.04719 0.30647 0.61306
 H116 H 0.02304 0.19363 0.45184
 H117 H 0.07349 0.14992 0.45027
 H118 H 0.11685 0.19912 0.54810
 H119 H 0.06508 0.24113 0.54800
 C120 C -0.09834 0.17131 0.50128
 C121 C -0.00044 0.32970 0.39990
 C122 C 0.09955 0.17112 0.49900
 C123 C 0.00269 0.33276 0.59604
 C124 C 0.97080 0.69593 0.54437
 H125 H 0.95026 0.69473 0.52323
 C126 C 0.96967 0.67152 0.57332
 H127 H 0.94820 0.65141 0.57412
 C128 C 1.02483 0.72246 0.56772
 H129 H 1.04669 0.74185 0.56506
 C130 C 1.02477 0.69852 0.59714
 H131 H 1.04630 0.70026 0.61726
 N132 N 0.99805 0.72077 0.54211
 C133 C 0.95589 0.80460 0.46994
 H134 H 0.97664 0.80430 0.44927
 C135 C 0.92797 0.83006 0.46816
 H136 H 0.92708 0.84890 0.44561
 C137 C 0.93245 0.78068 0.52478
 H138 H 0.93488 0.76206 0.54732
 C139 C 0.90404 0.80576 0.52410
 H140 H 0.88483 0.80610 0.54622
 Zn141 Zn 0.99908 0.75045 0.50019
 N142 N 0.95770 0.78065 0.49797
 C143 C 0.97402 0.71878 0.43386
 N144 N 1.00073 0.71901 0.45959
 C145 C 1.02852 0.69483 0.45855
 C146 C 1.03027 0.66910 0.43080
 C147 C 0.97470 0.69346 0.40558
 C148 C 1.04106 0.80681 0.52828
 C149 C 1.06891 0.83251 0.52962
 C150 C 1.09408 0.80607 0.47526
 C151 C 1.06569 0.78080 0.47497
 N152 N 1.03994 0.78163 0.50128
 H153 H 0.95167 0.73760 0.43567
 H154 H 1.04913 0.69532 0.47965
 H155 H 1.05273 0.65020 0.43042
 H156 H 0.95275 0.69310 0.38585
 H157 H 1.01995 0.80714 0.54857
 H158 H 1.06934 0.85222 0.55145
 H159 H 1.11383 0.80557 0.45362
 H160 H 1.06382 0.76118 0.45322
 C161 C 0.90182 0.83120 0.49574
 C162 C 0.99705 0.67243 0.60008
 C163 C 1.09573 0.83260 0.50267
 C164 C 1.00294 0.66795 0.40400
 C165 C 0.45525 -0.02835 0.30549
 H166 H 0.47618 -0.04887 0.30674
 C167 C 0.42662 -0.02920 0.33012
 H168 H 0.42587 -0.05040 0.35046
 C169 C 0.43205 0.02526 0.27852
 H170 H 0.43462 0.04681 0.25882
 C171 C 0.40295 0.02548 0.30266
 H172 H 0.38299 0.04692 0.30079
 N173 N 0.45741 -0.00148 0.28029
 C174 C 0.52677 -0.04475 0.19536
 H175 H 0.54714 -0.02355 0.19451
 C176 C 0.52824 -0.07354 0.17080
 H177 H 0.54965 -0.07302 0.15087
 C178 C 0.47288 -0.06816 0.22099
 H179 H 0.45112 -0.06575 0.24035
 C180 C 0.47313 -0.09742 0.19681
 H181 H 0.45197 -0.11761 0.19946
 Zn182 Zn 0.49870 -0.00102 0.25000
 N183 N 0.49951 -0.04263 0.21988
 C184 C 0.56513 -0.02683 0.28018
 N185 N 0.54003 0.00018 0.28084
 C186 C 0.54244 0.02773 0.30533
 C187 C 0.57105 0.02897 0.33040
 C188 C 0.59419 -0.02667 0.30478
 C189 C 0.47062 0.04094 0.19366
 C190 C 0.46942 0.06873 0.16797
 C191 C 0.52443 0.09362 0.19421
 C192 C 0.52457 0.06529 0.21947
 N193 N 0.49787 0.03970 0.21874
 H194 H 0.56236 -0.04893 0.26106
 H195 H 0.52170 0.04848 0.30571
 H196 H 0.57200 0.05072 0.35018
 H197 H 0.61393 -0.04836 0.30378
 H198 H 0.45001 0.01996 0.19341
 H199 H 0.44738 0.06926 0.14835
 H200 H 0.54635 0.11325 0.19464
 H201 H 0.54649 0.06334 0.23903
 C202 C 0.50101 -0.10065 0.17079
 C203 C 0.40007 -0.00190 0.32905
 C204 C 0.49676 0.09538 0.16779
 C205 C 0.59730 0.00138 0.33050
 C206 C 0.54602 -0.02881 0.69600
 H207 H 0.52529 -0.04966 0.69510
 C208 C 0.57477 -0.02978 0.67150
 H209 H 0.57582 -0.05143 0.65164
 C210 C 0.56850 0.02583 0.72178
 H211 H 0.56558 0.04784 0.74091
 C212 C 0.59770 0.02593 0.69777
 H213 H 0.61740 0.04776 0.69920
 N214 N 0.54340 -0.00131 0.72048
 C215 C 0.47301 -0.04238 0.80590
 H216 H 0.45235 -0.02156 0.80557
 C217 C 0.47157 -0.07014 0.83161
 H218 H 0.44929 -0.07081 0.85064
 C219 C 0.52732 -0.06635 0.78157
 H220 H 0.54946 -0.06427 0.76258
 C221 C 0.52695 -0.09463 0.80687
 H222 H 0.54893 -0.11409 0.80706
 Zn223 Zn 0.50169 -0.00035 0.75018
 N224 N 0.50055 -0.04097 0.78154
 C225 C 0.43525 -0.02699 0.72008
 N226 N 0.46080 -0.00029 0.71875
 C227 C 0.45900 0.02649 0.69341
 C228 C 0.43042 0.02741 0.66831
 C229 C 0.40620 -0.02714 0.69544
 C230 C 0.52862 0.04396 0.80566
 C231 C 0.52927 0.07287 0.83017
 C232 C 0.47463 0.09604 0.80191
 C233 C 0.47506 0.06667 0.77789
 N234 N 0.50187 0.04142 0.78012
 H235 H 0.43754 -0.04848 0.73990
 H236 H 0.48007 0.04698 0.69252
 H237 H 0.42986 0.04863 0.64798
 H238 H 0.38601 -0.04847 0.69704
 H239 H 0.54920 0.02310 0.80729
 H240 H 0.55037 0.07391 0.85078
 H241 H 0.45312 0.11591 0.79969
 H242 H 0.45359 0.06380 0.75794
 C243 C 0.49897 -0.09658 0.83256
 C244 C 0.60095 -0.00199 0.67198
 C245 C 0.50189 0.09930 0.82864
 C246 C 0.40357 0.00029 0.66905
 C247 C 0.25005 0.00081 0.49943
 C248 C 0.75015 0.00096 0.50083
 C249 C 0.49859 0.24955 0.99973
 C250 C 0.50072 0.74951 0.00090
 C251 C 1.00273 0.49944 0.25011
 C252 C -0.00222 0.50115 0.74993
 C253 C 0.18282 0.08956 0.49976
 C254 C 0.17246 0.10604 0.46705
 C255 C 0.14596 0.13314 0.46685
 C256 C 0.12939 0.14406 0.49942
 C257 C 0.14057 0.12786 0.53225
 C258 C 0.16706 0.10075 0.53238
 C259 C 0.20779 0.05960 0.49962
 C260 C 0.22758 0.03357 0.49951
 H261 H 0.18442 0.09750 0.44163
 H262 H 0.13827 0.14541 0.44121
 H263 H 0.12800 0.13529 0.55770
 H264 H 0.17465 0.08796 0.55782
 C265 C 0.58678 0.67901 0.00226
 C266 C 0.62226 0.68803 -0.00783
 C267 C 0.64947 0.66154 -0.00727
 C268 C 0.64144 0.62575 0.00347
 C269 C 0.60568 0.61709 0.01359
 C270 C 0.57862 0.64353 0.01298
 C271 C 0.55827 0.70561 0.00130
 C272 C 0.53302 0.72637 0.00089
 H273 H 0.62886 0.71544 -0.01618
 H274 H 0.67680 0.66910 -0.01492
 H275 H 0.59844 0.58968 0.02133
 H276 H 0.55120 0.63620 0.02064
 C277 C 0.82089 -0.08490 0.49753
 C278 C 0.85632 -0.07704 0.48651
 C279 C 0.88246 -0.10439 0.48566
 C280 C 0.87354 -0.14011 0.49581
 C281 C 0.83778 -0.14783 0.50674
 C282 C 0.81160 -0.12035 0.50756
 C283 C 0.79458 -0.05615 0.49898
 C284 C 0.77378 -0.03095 0.49996
 H285 H 0.86384 -0.04965 0.47889
 H286 H 0.90986 -0.09739 0.47777
 H287 H 0.83001 -0.17512 0.51440
 H288 H 0.78423 -0.12672 0.51612
 C289 C 0.40962 0.31653 0.99998
 C290 C 0.39784 0.33233 0.96740
 C291 C 0.37060 0.35868 0.96768
 C292 C 0.35486 0.36969 1.00063
 C293 C 0.36634 0.35304 1.03314
 C294 C 0.39357 0.32667 1.03279
 C295 C 0.43971 0.29172 0.99994
 C296 C 0.46582 0.27201 0.99988
 H297 H 0.41029 0.32488 0.94188
 H298 H 0.36274 0.37131 0.94226
 H299 H 0.35444 0.36061 1.05887
 H300 H 0.40255 0.31468 1.05818
 C301 C 0.81830 0.08939 0.50076
 C302 C 0.83457 0.10003 0.46820
 C303 C 0.86112 0.12720 0.46826
 C304 C 0.87185 0.14406 0.50096
 C305 C 0.85482 0.13364 0.53347
 C306 C 0.82824 0.10645 0.53334
 C307 C 0.79309 0.05949 0.50096
 C308 C 0.77304 0.03355 0.50098
 H309 H 0.82729 0.08677 0.44287
 H310 H 0.87406 0.13420 0.44287
 H311 H 0.86216 0.14640 0.55901
 H312 H 0.81588 0.09835 0.55872
 C313 C 0.41502 0.67810 -0.00200
 C314 C 0.42332 0.64255 -0.01229
 C315 C 0.39631 0.61590 -0.01274
 C316 C 0.36048 0.62442 -0.00288
 C317 C 0.35232 0.66029 0.00737
 C318 C 0.37946 0.68698 0.00778
 C319 C 0.44348 0.70490 -0.00086
 C320 C 0.46861 0.72594 -0.00002
 H321 H 0.45081 0.63534 -0.01968
 H322 H 0.40364 0.58845 -0.02013
 H323 H 0.32494 0.66775 0.01478
 H324 H 0.37276 0.71444 0.01582
 C325 C 0.17788 -0.08426 0.50128
 C326 C 0.14215 -0.07574 0.51059
 C327 C 0.11556 -0.10280 0.51117
 C328 C 0.12432 -0.13889 0.50243
 C329 C 0.16036 -0.14726 0.49308
 C330 C 0.18698 -0.12007 0.49255
 C331 C 0.20473 -0.05586 0.50037
 C332 C 0.22597 -0.03090 0.49983
 H333 H 0.13477 -0.04807 0.51720
 H334 H 0.08798 -0.09533 0.51784
 H335 H 0.16800 -0.17484 0.48655
 H336 H 0.21459 -0.12695 0.48530
 C337 C 0.58387 0.32155 1.00001
 C338 C 0.61968 0.31229 1.00897
 C339 C 0.64699 0.33880 1.00847
 C340 C 0.63875 0.37486 0.99890
 C341 C 0.60264 0.38380 0.99003
 C342 C 0.57546 0.35733 0.99058
 C343 C 0.55540 0.29474 1.00046
 C344 C 0.53038 0.27356 1.00039
 H345 H 0.62648 0.28464 1.01628
 H346 H 0.67458 0.33104 1.01513
 H347 H 0.59527 0.41140 0.98318
 H348 H 0.54780 0.36483 0.98376
 C349 C 0.49812 0.17748 1.08477
 C350 C 0.48829 0.14179 1.07619
 C351 C 0.48777 0.11521 1.10319
 C352 C 0.49707 0.12394 1.13931
 C353 C 0.50698 0.15993 1.14774
 C354 C 0.50746 0.18655 1.12060
 C355 C 0.49875 0.20436 1.05644
 C356 C 0.49890 0.22557 1.03149
 H357 H 0.48119 0.13444 1.04851
 H358 H 0.48065 0.08767 1.09567
 H359 H 0.51397 0.16755 1.17534
 H360 H 0.51509 0.21413 1.12754
 C361 C -0.00208 0.59031 0.68300
 C362 C 0.03048 0.60162 0.66718
 C363 C 0.03031 0.62894 0.64084
 C364 C -0.00250 0.64525 0.62988
 C365 C -0.03500 0.63420 0.64652
 C366 C -0.03476 0.60688 0.67288
 C367 C -0.00217 0.56015 0.70781
 C368 C -0.00220 0.53399 0.72750
 H369 H 0.05589 0.58876 0.67460
 H370 H 0.05571 0.63644 0.62820
 H371 H -0.06063 0.64653 0.63898
 H372 H -0.06014 0.59825 0.68489
 C373 C 0.49979 0.82148 -0.08425
 C374 C 0.50956 0.81244 -0.11981
 C375 C 0.50921 0.83900 -0.14702
 C376 C 0.49901 0.87490 -0.13892
 C377 C 0.48924 0.88359 -0.10306
 C378 C 0.48962 0.85707 -0.07599
 C379 C 0.50046 0.79469 -0.05582
 C380 C 0.50073 0.77350 -0.03084
 H381 H 0.51746 0.78495 -0.12650
 H382 H 0.51656 0.83141 -0.17442
 H383 H 0.48188 0.91106 -0.09578
 H384 H 0.48220 0.86440 -0.04850
 C385 C 1.00096 0.41060 0.31743
 C386 C 0.96820 0.40033 0.33330
 C387 C 0.96754 0.37321 0.35982
 C388 C 0.99984 0.35571 0.37128
 C389 C 1.03258 0.36586 0.35398
 C390 C 1.03305 0.39308 0.32752
 C391 C 1.00186 0.44063 0.29247
 C392 C 1.00238 0.46669 0.27267
 H393 H 0.94310 0.41359 0.32549
 H394 H 0.94133 0.36569 0.37053
 H395 H 1.05845 0.35455 0.36205
 H396 H 1.05867 0.40111 0.31562
 C397 C 0.50099 0.81669 0.08998
 C398 C 0.53353 0.83314 0.10070
 C399 C 0.53373 0.85971 0.12781
 C400 C 0.50118 0.87066 0.14484
 C401 C 0.46867 0.85277 0.13428
 C402 C 0.46866 0.82625 0.10707
 C403 C 0.50058 0.79173 0.05990
 C404 C 0.50050 0.77197 0.03377
 H405 H 0.55880 0.82574 0.08778
 H406 H 0.55979 0.87088 0.13568
 H407 H 0.44264 0.86041 0.14525
 H408 H 0.44320 0.81391 0.09869
 C409 C 0.00034 0.41609 0.67787
 C410 C 0.01077 0.42441 0.64236
 C411 C 0.01170 0.39729 0.61588
 C412 C 0.00220 0.36132 0.62454
 C413 C -0.00823 0.35315 0.66037
 C414 C -0.00912 0.38041 0.68688
 C415 C -0.00091 0.44455 0.70461
 C416 C -0.00168 0.46950 0.72582
 H417 H 0.01797 0.45199 0.63505
 H418 H 0.01922 0.40461 0.58845
 H419 H -0.01538 0.32567 0.66794
 H420 H -0.01722 0.37367 0.71431
 C421 C 0.49976 0.18238 0.91064
 C422 C 0.53269 0.17252 0.89474
 C423 C 0.53335 0.14610 0.86745
 C424 C 0.50101 0.12914 0.85578
 C425 C 0.46795 0.13984 0.87141
 C426 C 0.46737 0.16624 0.89870
 C427 C 0.49940 0.20727 0.94077
 C428 C 0.49906 0.22703 0.96691
 H429 H 0.55794 0.18478 0.90386
 H430 H 0.55916 0.13878 0.85564
 H431 H 0.44267 0.12695 0.86341
 H432 H 0.44176 0.17346 0.91104
 C433 C 1.00280 0.58465 0.32206
 C434 C 0.99276 0.62011 0.31286
 C435 C 0.99292 0.64735 0.33941
 C436 C 1.00319 0.63940 0.37547
 C437 C 1.01325 0.60365 0.38433
 C438 C 1.01305 0.57654 0.35781
 C439 C 1.00235 0.55619 0.29527
 C440 C 1.00231 0.53119 0.27409
 H441 H 0.98480 0.62668 0.28524
 H442 H 0.98535 0.67467 0.33169
 H443 H 1.02067 0.59648 0.41192
 H444 H 1.02069 0.54914 0.36527
 C445 C 1.09131 0.50129 0.18295
 C446 C 1.10820 0.46901 0.17277
 C447 C 1.13520 0.46922 0.14625
 C448 C 1.14580 0.50189 0.12899
 C449 C 1.12895 0.53439 0.14053
 C450 C 1.10203 0.53398 0.16710
 C451 C 1.06142 0.50062 0.20791
 C452 C 1.03544 0.50007 0.22767
 H453 H 1.09980 0.44344 0.18463
 H454 H 1.14595 0.44322 0.13812
 H455 H 1.13684 0.56053 0.12982
 H456 H 1.08924 0.55923 0.17496
 C457 C 0.68312 -0.00039 0.58958
 C458 C 0.66674 0.03195 0.60066
 C459 C 0.64061 0.03155 0.62801
 C460 C 0.63043 -0.00131 0.64463
 C461 C 0.64760 -0.03360 0.63378
 C462 C 0.67375 -0.03312 0.60640
 C463 C 0.70788 -0.00018 0.55951
 C464 C 0.72759 0.00022 0.53347
 H465 H 0.67359 0.05740 0.58760
 H466 H 0.62755 0.05678 0.63533
 H467 H 0.64066 -0.05924 0.64634
 H468 H 0.68621 -0.05833 0.59796
 C469 C -0.09069 0.49985 0.81726
 C470 C -0.10176 0.46736 0.83348
 C471 C -0.12892 0.46756 0.85983
 C472 C -0.14531 0.50035 0.87038
 C473 C -0.13452 0.53277 0.85333
 C474 C -0.10737 0.53250 0.82697
 C475 C -0.06072 0.50001 0.79240
 C476 C -0.03476 0.50037 0.77260
 H477 H -0.08882 0.44198 0.82637
 H478 H -0.13625 0.44223 0.87278
 H479 H -0.14692 0.55837 0.86054
 H480 H -0.09894 0.55782 0.81463
 C481 C 0.31749 -0.00038 0.41102
 C482 C 0.32743 -0.03322 0.39481
 C483 C 0.35373 -0.03368 0.36759
 C484 C 0.37049 -0.00127 0.35628
 C485 C 0.35976 0.03168 0.37226
 C486 C 0.33347 0.03208 0.39947
 C487 C 0.29258 -0.00015 0.44096
 C488 C 0.27274 0.00020 0.46689
 H489 H 0.31528 -0.05851 0.40362
 H490 H 0.36108 -0.05941 0.35551
 H491 H 0.37249 0.05703 0.36455
 H492 H 0.32619 0.05761 0.41205
 C493 C 0.08545 0.50045 0.81961
 C494 C 0.09718 0.53290 0.83567
 C495 C 0.12458 0.53249 0.86215
 C496 C 0.14057 0.49954 0.87301
 C497 C 0.12900 0.46713 0.85625
 C498 C 0.10159 0.46761 0.82975
 C499 C 0.05562 0.50069 0.79415
 C500 C 0.02991 0.50090 0.77366
 H501 H 0.08467 0.55844 0.82821
 H502 H 0.13250 0.55783 0.87488
 H503 H 0.14108 0.44140 0.86369
 H504 H 0.09267 0.44232 0.81753
 C505 C 0.68027 0.00098 0.41330
 C506 C 0.67056 0.03353 0.39628
 C507 C 0.64404 0.03364 0.36888
 C508 C 0.62684 0.00114 0.35819
 C509 C 0.63725 -0.03152 0.37509
 C510 C 0.66375 -0.03155 0.40248
 C511 C 0.70579 0.00112 0.44308
 C512 C 0.72633 0.00110 0.46876
 H513 H 0.68314 0.05888 0.40450
 H514 H 0.63693 0.05913 0.35610
 H515 H 0.62418 -0.05690 0.36789
 H516 H 0.67088 -0.05686 0.41567
 C517 C 0.91710 0.49823 0.17804
 C518 C 0.92495 0.48739 0.14252
 C519 C 0.89760 0.48666 0.11606
 C520 C 0.86188 0.49679 0.12474
 C521 C 0.85419 0.50762 0.16057
 C522 C 0.88167 0.50830 0.18706
 C523 C 0.94577 0.49919 0.20478
 C524 C 0.97089 0.49957 0.22600
 H525 H 0.95233 0.47970 0.13521
 H526 H 0.90456 0.47881 0.08863
 H527 H 0.82690 0.51525 0.16816
 H528 H 0.87530 0.51670 0.21450
 C529 C 0.31986 -0.00001 0.58700
 C530 C 0.33562 -0.03268 0.59826
 C531 C 0.36234 -0.03269 0.62544
 C532 C 0.37374 0.00005 0.64167
 C533 C 0.35724 0.03268 0.63060
 C534 C 0.33051 0.03262 0.60343
 C535 C 0.29427 0.00024 0.55728
 C536 C 0.27374 0.00048 0.53159
 H537 H 0.32777 -0.05806 0.58552
 H538 H 0.37484 -0.05819 0.63299
 H539 H 0.36510 0.05826 0.64289
 H540 H 0.31853 0.05808 0.59487
   
