data_POSCAR
  _audit_creation_date              2014-09-24
  _audit_creation_method            'ToBaCCo'
  _symmetry_space_group_name_H-M    'P1'
  _symmetry_Int_Tables_number       1
  _symmetry_cell_setting            triclinic
  loop_
  _symmetry_equiv_pos_as_xyz
 x,y,z
_cell_length_a 44.2759
_cell_length_b 44.8915
_cell_length_c 44.7428
_cell_angle_alpha 89.946000
_cell_angle_beta 89.924700
_cell_angle_gamma 89.801600
loop_
  _atom_site_label
  _atom_site_type_symbol
  _atom_site_fract_x
  _atom_site_fract_y
  _atom_site_fract_z
C1 C 0.18517 0.21204 0.23143
 C2 C 0.20471 0.18774 0.23631
 C3 C 0.22977 0.18286 0.21756
 C4 C 0.23527 0.20270 0.19396
 C5 C 0.21543 0.22657 0.18817
 C6 C 0.19056 0.23106 0.20713
 H7 H 0.20050 0.17275 0.25472
 H8 H 0.25521 0.19947 0.18031
 H9 H 0.17536 0.24961 0.20302
 C10 C 0.68476 0.71595 0.73182
 C11 C 0.69122 0.73538 0.70797
 C12 C 0.71584 0.73004 0.68893
 C13 C 0.73462 0.70528 0.69439
 C14 C 0.72853 0.68563 0.71801
 C15 C 0.70373 0.69136 0.73685
 H16 H 0.67748 0.75504 0.70434
 H17 H 0.75436 0.70136 0.68064
 H18 H 0.69929 0.67708 0.75584
 C19 C 0.31314 0.79095 0.72667
 C20 C 0.29393 0.81569 0.72966
 C21 C 0.27086 0.82149 0.70877
 C22 C 0.26679 0.80114 0.68502
 C23 C 0.28509 0.77559 0.68240
 C24 C 0.30832 0.77087 0.70309
 H25 H 0.29749 0.83090 0.74815
 H26 H 0.24964 0.80480 0.66839
 H27 H 0.32204 0.75096 0.70115
 C28 C 0.82047 0.29130 0.22308
 C29 C 0.81489 0.27188 0.19888
 C30 C 0.79086 0.27715 0.17899
 C31 C 0.77161 0.30149 0.18392
 C32 C 0.77666 0.32120 0.20779
 C33 C 0.80090 0.31575 0.22723
 H34 H 0.82818 0.25200 0.19580
 H35 H 0.75247 0.30465 0.16923
 H36 H 0.80459 0.33090 0.24574
 C37 C 0.81282 0.71558 0.27120
 C38 C 0.80766 0.73502 0.29533
 C39 C 0.78395 0.72996 0.31554
 C40 C 0.76536 0.70491 0.31154
 C41 C 0.76960 0.68579 0.28698
 C42 C 0.79345 0.69128 0.26708
 H43 H 0.82162 0.75454 0.29823
 H44 H 0.74834 0.69971 0.32803
 H45 H 0.79707 0.67641 0.24831
 C46 C 0.31801 0.21399 -0.22718
 C47 C 0.31225 0.23254 -0.20228
 C48 C 0.28739 0.22736 -0.18336
 C49 C 0.26761 0.20399 -0.18994
 C50 C 0.27280 0.18518 -0.21439
 C51 C 0.29787 0.19047 -0.23297
 H52 H 0.32613 0.25168 -0.19789
 H53 H 0.24820 0.20015 -0.17565
 H54 H 0.30145 0.17668 -0.25250
 C55 C 0.68718 0.27997 -0.23113
 C56 C 0.69254 0.26114 -0.20634
 C57 C 0.71553 0.26754 -0.18564
 C58 C 0.73401 0.29236 -0.19036
 C59 C 0.72942 0.31123 -0.21501
 C60 C 0.70567 0.30519 -0.23480
 H61 H 0.67919 0.24146 -0.20279
 H62 H 0.75137 0.29734 -0.17412
 H63 H 0.70197 0.32007 -0.25357
 C64 C 0.18619 0.78435 0.26715
 C65 C 0.20472 0.80933 0.26304
 C66 C 0.22855 0.81569 0.28302
 C67 C 0.23355 0.79606 0.30709
 C68 C 0.21533 0.77081 0.31144
 C69 C 0.19140 0.76549 0.29171
 H70 H 0.20018 0.82330 0.24393
 H71 H 0.25129 0.80101 0.32294
 H72 H 0.17673 0.74672 0.29589
 C73 C 0.46598 0.43569 0.47823
 C74 C 0.44278 0.45631 0.48433
 C75 C 0.43784 0.48090 0.46542
 C76 C 0.45717 0.48538 0.44097
 C77 C 0.48112 0.46552 0.43508
 C78 C 0.48506 0.44063 0.45368
 H79 H 0.42926 0.45379 0.50428
 H80 H 0.45291 0.50407 0.42626
 H81 H 0.50321 0.42501 0.44908
 C82 C -0.03070 -0.06443 0.98262
 C83 C -0.05421 -0.04443 0.98916
 C84 C -0.06009 -0.01960 0.97059
 C85 C -0.04164 -0.01528 0.94530
 C86 C -0.01730 -0.03452 0.93902
 C87 C -0.01217 -0.05911 0.95768
 H88 H -0.06811 -0.04922 1.00839
 H89 H -0.04652 0.00309 0.93035
 H90 H 0.00682 -0.07362 0.95300
 C91 C 1.02952 0.55890 0.98015
 C92 C 1.05386 0.53947 0.98532
 C93 C 1.05921 0.51497 0.96641
 C94 C 1.04016 0.51047 0.94181
 C95 C 1.01566 0.52971 0.93624
 C96 C 1.01018 0.55348 0.95585
 H97 H 1.06891 0.54406 1.00377
 H98 H 1.04405 0.49135 0.92758
 H99 H 0.99065 0.56755 0.95208
 C100 C 0.53789 0.06621 0.47814
 C101 C 0.51811 0.05954 0.45469
 C102 C 0.52336 0.03508 0.43595
 C103 C 0.54843 0.01655 0.44147
 C104 C 0.56854 0.02241 0.46509
 C105 C 0.56275 0.04734 0.48353
 H106 H 0.49871 0.07380 0.45070
 H107 H 0.55203 -0.00301 0.42777
 H108 H 0.57663 0.05184 0.50273
 C109 C -0.04085 0.07020 0.52307
 C110 C -0.06564 0.05120 0.51851
 C111 C -0.07044 0.02616 0.53710
 C112 C -0.05015 0.02109 0.56080
 C113 C -0.02584 0.04046 0.56621
 C114 C -0.02131 0.06474 0.54706
 H115 H -0.08120 0.05667 0.50088
 H116 H -0.05305 0.00158 0.57475
 H117 H -0.00240 0.07955 0.55087
 C118 C 0.46138 0.56352 0.01686
 C119 C 0.43781 0.54306 0.01231
 C120 C 0.43323 0.51928 0.03228
 C121 C 0.45328 0.51532 0.05619
 C122 C 0.47760 0.53494 0.06054
 C123 C 0.48116 0.55912 0.04096
 H124 H 0.42370 0.54493 -0.00727
 H125 H 0.44933 0.49722 0.07169
 H126 H 0.49961 0.57457 0.04441
 C127 C 0.53984 -0.06719 0.02181
 C128 C 0.52087 -0.06349 0.04683
 C129 C 0.52546 -0.04025 0.06736
 C130 C 0.54990 -0.02094 0.06325
 C131 C 0.56955 -0.02436 0.03879
 C132 C 0.56419 -0.04724 0.01810
 H133 H 0.50268 -0.07914 0.05050
 H134 H 0.55290 -0.00281 0.07886
 H135 H 0.57960 -0.04918 -0.00049
 C136 C 1.03750 0.43830 0.52116
 C137 C 1.06251 0.45693 0.51627
 C138 C 1.06832 0.48141 0.53526
 C139 C 1.04805 0.48707 0.55891
 C140 C 1.02280 0.46877 0.56385
 C141 C 1.01758 0.44475 0.54462
 H142 H 1.07646 0.45266 0.49702
 H143 H 1.05168 0.50625 0.57310
 H144 H 0.99807 0.43066 0.54823
 C145 C 0.42308 0.01213 0.21058
 H146 H 0.42414 0.03234 0.22369
 C147 C 0.44254 0.00818 0.18631
 H148 H 0.45853 0.02554 0.18075
 C149 C 0.40121 -0.03522 0.20223
 H150 H 0.38554 -0.05238 0.20888
 C151 C 0.42026 -0.04011 0.17782
 H152 H 0.41900 -0.06122 0.16628
 N153 N 0.40259 -0.00922 0.21773
 C154 C 0.33052 0.03769 0.26479
 H155 H 0.32955 0.02474 0.28517
 C156 C 0.31050 0.06141 0.26052
 H157 H 0.29474 0.06681 0.27819
 C158 C 0.35305 0.04644 0.21755
 H159 H 0.36933 0.04030 0.20065
 C160 C 0.33346 0.07033 0.21234
 H161 H 0.33510 0.08256 0.19152
 Zn162 Zn 0.37696 -0.00226 0.25090
 N163 N 0.35141 0.03084 0.24357
 C164 C 0.40017 0.03108 0.29968
 N165 N 0.40193 0.00492 0.28444
 C166 C 0.42260 -0.01628 0.29191
 C167 C 0.44230 -0.01178 0.31582
 C168 C 0.41944 0.03651 0.32373
 C169 C 0.33104 -0.04159 0.23579
 C170 C 0.31132 -0.06558 0.23889
 C171 C 0.33399 -0.07648 0.28676
 C172 C 0.35326 -0.05220 0.28278
 N173 N 0.35163 -0.03552 0.25743
 H174 H 0.38410 0.04796 0.29305
 H175 H 0.42371 -0.03676 0.27923
 H176 H 0.45795 -0.02938 0.32166
 H177 H 0.41774 0.05748 0.33559
 H178 H 0.33016 -0.02786 0.21592
 H179 H 0.29587 -0.07036 0.22084
 H180 H 0.33565 -0.08968 0.30698
 H181 H 0.36939 -0.04672 0.29997
 C182 C 0.31167 0.07794 0.23381
 C183 C 0.44098 -0.01798 0.16928
 C184 C 0.31252 -0.08330 0.26480
 C185 C 0.44106 0.01512 0.33192
 C186 C 0.07647 -0.00933 0.70983
 H187 H 0.07561 -0.02986 0.72248
 C188 C 0.05623 -0.00457 0.68640
 H189 H 0.04040 -0.02201 0.68093
 C190 C 0.09903 0.03772 0.70149
 H191 H 0.11545 0.05433 0.70767
 C192 C 0.07918 0.04344 0.67790
 H193 H 0.08074 0.06437 0.66593
 N194 N 0.09751 0.01154 0.71673
 C195 C 0.16886 -0.03848 0.76194
 H196 H 0.17049 -0.02606 0.78259
 C197 C 0.18787 -0.06287 0.75695
 H198 H 0.20408 -0.06921 0.77394
 C199 C 0.14582 -0.04514 0.71468
 H200 H 0.12959 -0.03805 0.69813
 C201 C 0.16438 -0.06965 0.70875
 H202 H 0.16129 -0.08145 0.68795
 Zn203 Zn 0.12345 0.00324 0.74937
 N204 N 0.14814 -0.03030 0.74106
 C205 C 0.09941 -0.03072 0.79758
 N206 N 0.09849 -0.00417 0.78294
 C207 C 0.07852 0.01749 0.79095
 C208 C 0.05905 0.01326 0.81514
 C209 C 0.08026 -0.03595 0.82184
 C210 C 0.16969 0.04320 0.73520
 C211 C 0.19000 0.06652 0.73965
 C212 C 0.16877 0.07382 0.78887
 C213 C 0.14887 0.05038 0.78346
 N214 N 0.14950 0.03576 0.75685
 H215 H 0.11475 -0.04802 0.79035
 H216 H 0.07770 0.03808 0.77838
 H217 H 0.04307 0.03069 0.82062
 H218 H 0.08130 -0.05719 0.83331
 H219 H 0.16989 0.03103 0.71434
 H220 H 0.20518 0.07240 0.72167
 H221 H 0.16793 0.08523 0.81018
 H222 H 0.13316 0.04376 0.80068
 C223 C 0.18595 -0.07872 0.73002
 C224 C 0.05726 0.02230 0.67020
 C225 C 0.18985 0.08203 0.76697
 C226 C 0.06003 -0.01370 0.83117
 C227 C 0.57846 0.48679 0.20644
 H228 H 0.57801 0.46646 0.21945
 C229 C 0.55849 0.49054 0.18261
 H230 H 0.54249 0.47303 0.17788
 C231 C 0.59894 0.53481 0.19832
 H232 H 0.61433 0.55223 0.20484
 C233 C 0.57927 0.53955 0.17437
 H234 H 0.57996 0.56054 0.16242
 N235 N 0.59847 0.50856 0.21353
 C236 C 0.67022 0.46083 0.26050
 H237 H 0.67084 0.47313 0.28127
 C238 C 0.69001 0.43695 0.25597
 H239 H 0.70580 0.43088 0.27343
 C240 C 0.64898 0.45395 0.21244
 H241 H 0.63316 0.46076 0.19540
 C242 C 0.66844 0.43002 0.20692
 H243 H 0.66650 0.41828 0.18593
 Zn244 Zn 0.62418 0.50152 0.24660
 N245 N 0.65000 0.46863 0.23900
 C246 C 0.60029 0.46774 0.29518
 N247 N 0.59897 0.49396 0.27997
 C248 C 0.57848 0.51537 0.28733
 C249 C 0.55891 0.51128 0.31146
 C250 C 0.58105 0.46267 0.31941
 C251 C 0.66894 0.54312 0.23225
 C252 C 0.68797 0.56748 0.23652
 C253 C 0.66647 0.57410 0.28571
 C254 C 0.64782 0.54963 0.28048
 N255 N 0.64902 0.53499 0.25391
 H256 H 0.61605 0.45060 0.28845
 H257 H 0.57737 0.53568 0.27433
 H258 H 0.54255 0.52851 0.31644
 H259 H 0.58243 0.44171 0.33137
 H260 H 0.66991 0.53067 0.21158
 H261 H 0.70352 0.57379 0.21892
 H262 H 0.66540 0.58489 0.30728
 H263 H 0.63269 0.54219 0.29787
 C264 C 0.68947 0.42135 0.22884
 C265 C 0.55901 0.51713 0.16596
 C266 C 0.68661 0.58360 0.26333
 C267 C 0.56034 0.48473 0.32813
 C268 C 0.91880 0.51385 0.70797
 H269 H 0.91867 0.53417 0.72095
 C270 C 0.93926 0.51045 0.68443
 H271 H 0.95422 0.52870 0.67921
 C272 C 0.89864 0.46587 0.69902
 H273 H 0.88314 0.44835 0.70504
 C274 C 0.91874 0.46150 0.67534
 H275 H 0.91825 0.44068 0.66312
 N276 N 0.89887 0.49184 0.71464
 C277 C 0.82614 0.53744 0.76223
 H278 H 0.82549 0.52439 0.78256
 C279 C 0.80619 0.56130 0.75848
 H280 H 0.79079 0.56663 0.77648
 C281 C 0.84796 0.54646 0.71472
 H282 H 0.86399 0.54040 0.69755
 C283 C 0.82838 0.57045 0.70999
 H284 H 0.82978 0.58285 0.68925
 Zn285 Zn 0.87281 0.49798 0.74766
 N286 N 0.84673 0.53073 0.74068
 C287 C 0.89572 0.53102 0.79700
 N288 N 0.89768 0.50518 0.78125
 C289 C 0.91841 0.48393 0.78836
 C290 C 0.93785 0.48794 0.81255
 C291 C 0.91476 0.53597 0.82134
 C292 C 0.82838 0.45642 0.73242
 C293 C 0.80950 0.43184 0.73616
 C294 C 0.83105 0.42414 0.78514
 C295 C 0.84953 0.44886 0.78044
 N296 N 0.84824 0.46414 0.75421
 H297 H 0.87960 0.54796 0.79062
 H298 H 0.91964 0.46370 0.77529
 H299 H 0.95343 0.47021 0.81816
 H300 H 0.91286 0.55664 0.83369
 H301 H 0.82733 0.46938 0.71204
 H302 H 0.79399 0.42586 0.71847
 H303 H 0.83217 0.41282 0.80645
 H304 H 0.86460 0.45597 0.79797
 C305 C 0.80706 0.57811 0.73192
 C306 C 0.93958 0.48380 0.66790
 C307 C 0.81098 0.41507 0.76258
 C308 C 0.93632 0.51442 0.82928
 C309 C 0.20671 0.41627 0.01729
 H310 H 0.21980 0.41680 0.03769
 C311 C 0.18259 0.43601 0.01344
 H312 H 0.17769 0.45187 0.03098
 C313 C 0.19881 0.39593 -0.03090
 H314 H 0.20558 0.38073 -0.04838
 C315 C 0.17460 0.41536 -0.03574
 H316 H 0.16268 0.41466 -0.05686
 N317 N 0.21408 0.39649 -0.00455
 C318 C 0.26307 0.32634 0.04268
 H319 H 0.28390 0.32599 0.03001
 C320 C 0.25912 0.30667 0.06656
 H321 H 0.27747 0.29181 0.07234
 C322 C 0.21441 0.34698 0.05060
 H323 H 0.19684 0.36239 0.04407
 C324 C 0.20948 0.32769 0.07460
 H325 H 0.18819 0.32869 0.08652
 Zn326 Zn 0.24793 0.37153 0.00224
 N327 N 0.24100 0.34615 0.03536
 C328 C 0.29716 0.39573 0.03532
 N329 N 0.28120 0.39689 0.00939
 C330 C 0.28775 0.41727 -0.01213
 C331 C 0.31151 0.43724 -0.00830
 C332 C 0.32112 0.41533 0.04012
 C333 C 0.23382 0.32706 -0.03934
 C334 C 0.23829 0.30820 -0.06376
 C335 C 0.28760 0.32996 -0.07088
 C336 C 0.28213 0.34848 -0.04640
 N337 N 0.25547 0.34693 -0.03136
 H338 H 0.29124 0.37982 0.05245
 H339 H 0.27453 0.41784 -0.03245
 H340 H 0.31668 0.45256 -0.02623
 H341 H 0.33364 0.41410 0.06086
 H342 H 0.21297 0.32602 -0.02675
 H343 H 0.22072 0.29267 -0.06997
 H344 H 0.30867 0.33231 -0.08289
 H345 H 0.29929 0.36402 -0.03944
 C346 C 0.23185 0.30703 0.08275
 C347 C 0.16598 0.43550 -0.01333
 C348 C 0.26554 0.30930 -0.07974
 C349 C 0.32841 0.43661 0.01831
 C350 C 0.71145 0.07921 -0.01219
 H351 H 0.72449 0.07781 -0.03261
 C352 C 0.68702 0.06017 -0.00771
 H353 H 0.68125 0.04415 -0.02485
 C354 C 0.70331 0.10172 0.03503
 H355 H 0.70988 0.11777 0.05174
 C356 C 0.67880 0.08296 0.04054
 H357 H 0.66636 0.08553 0.06119
 N358 N 0.71887 0.09972 0.00887
 C359 C 0.76748 0.16734 -0.04203
 H360 H 0.78841 0.16832 -0.02962
 C361 C 0.76321 0.18573 -0.06687
 H362 H 0.78103 0.20080 -0.07359
 C363 C 0.71872 0.14669 -0.04815
 H364 H 0.70127 0.13170 -0.04065
 C365 C 0.71345 0.16474 -0.07305
 H366 H 0.69226 0.16251 -0.08479
 Zn367 Zn 0.75263 0.12422 0.00086
 N368 N 0.74551 0.14807 -0.03338
 C369 C 0.80202 0.09844 -0.03117
 N370 N 0.78603 0.09846 -0.00520
 C371 C 0.79239 0.07878 0.01704
 C372 C 0.81614 0.05848 0.01401
 C373 C 0.82600 0.07851 -0.03516
 C374 C 0.73831 0.17067 0.04017
 C375 C 0.74262 0.19065 0.06367
 C376 C 0.79187 0.16889 0.07205
 C377 C 0.78655 0.14925 0.04847
 N378 N 0.76000 0.15029 0.03325
 H379 H 0.79609 0.11361 -0.04897
 H380 H 0.77878 0.07877 0.03715
 H381 H 0.82011 0.04276 0.03189
 H382 H 0.83854 0.07880 -0.05596
 H383 H 0.71755 0.17126 0.02745
 H384 H 0.72501 0.20659 0.06904
 H385 H 0.81284 0.16697 0.08426
 H386 H 0.80372 0.13323 0.04237
 C387 C 0.73585 0.18477 -0.08259
 C388 C 0.67048 0.06172 0.01899
 C389 C 0.76975 0.19011 0.07979
 C390 C 0.83357 0.05839 -0.01233
 C391 C 0.21155 0.58288 0.48425
 H392 H 0.22527 0.58173 0.46425
 C393 C 0.18732 0.56341 0.48794
 H394 H 0.18229 0.54783 0.47023
 C395 C 0.20130 0.60544 0.53105
 H396 H 0.20704 0.62155 0.54799
 C397 C 0.17677 0.58647 0.53561
 H398 H 0.16365 0.58836 0.55597
 N399 N 0.21795 0.60350 0.50554
 C400 C 0.26656 0.67348 0.45823
 H401 H 0.28697 0.67444 0.47146
 C402 C 0.26255 0.69310 0.43432
 H403 H 0.27997 0.70929 0.42971
 C404 C 0.21847 0.65215 0.44972
 H405 H 0.20109 0.63657 0.45613
 C406 C 0.21346 0.67143 0.42570
 H407 H 0.19233 0.67026 0.41359
 Zn408 Zn 0.25167 0.62843 0.49873
 N409 N 0.24484 0.65329 0.46522
 C410 C 0.30119 0.60433 0.46600
 N411 N 0.28547 0.60331 0.49212
 C412 C 0.29263 0.58329 0.51383
 C413 C 0.31669 0.56347 0.50990
 C414 C 0.32540 0.58491 0.46112
 C415 C 0.23638 0.67411 0.53822
 C416 C 0.24003 0.69410 0.56181
 C417 C 0.28912 0.67248 0.57136
 C418 C 0.28448 0.65282 0.54764
 N419 N 0.25826 0.65375 0.53185
 H420 H 0.29480 0.61993 0.44873
 H421 H 0.27959 0.58279 0.53429
 H422 H 0.32227 0.54835 0.52790
 H423 H 0.33764 0.58600 0.44017
 H424 H 0.21612 0.67491 0.52475
 H425 H 0.22250 0.71042 0.56590
 H426 H 0.31013 0.67148 0.58371
 H427 H 0.30199 0.63711 0.54168
 C428 C 0.23576 0.69200 0.41750
 C429 C 0.16967 0.56494 0.51407
 C430 C 0.26663 0.69322 0.57895
 C431 C 0.33326 0.56393 0.48304
 C432 C 0.71128 0.91981 0.51675
 H433 H 0.72537 0.92116 0.53644
 C434 C 0.68711 0.93952 0.51318
 H435 H 0.68250 0.95551 0.53067
 C436 C 0.70006 0.89650 0.47061
 H437 H 0.70540 0.88001 0.45386
 C438 C 0.67557 0.91570 0.46618
 H439 H 0.66208 0.91361 0.44612
 N440 N 0.71717 0.89871 0.49573
 C441 C 0.76592 0.82875 0.54335
 H442 H 0.78643 0.82757 0.53023
 C443 C 0.76181 0.80942 0.56749
 H444 H 0.77975 0.79399 0.57303
 C445 C 0.71812 0.85100 0.55203
 H446 H 0.70092 0.86689 0.54569
 C447 C 0.71306 0.83211 0.57631
 H448 H 0.69205 0.83388 0.58863
 Zn449 Zn 0.75093 0.87358 0.50236
 N450 N 0.74431 0.84913 0.53622
 C451 C 0.80144 0.89750 0.53366
 N452 N 0.78470 0.89865 0.50822
 C453 C 0.79074 0.91888 0.48640
 C454 C 0.81459 0.93888 0.48955
 C455 C 0.82558 0.91705 0.53772
 C456 C 0.73560 0.82769 0.46300
 C457 C 0.73923 0.80787 0.43922
 C458 C 0.78809 0.82957 0.42938
 C459 C 0.78346 0.84906 0.45328
 N460 N 0.75735 0.84804 0.46929
 H461 H 0.79597 0.88167 0.55101
 H462 H 0.77694 0.91941 0.46647
 H463 H 0.81926 0.95418 0.47147
 H464 H 0.83869 0.91589 0.55811
 H465 H 0.71541 0.82681 0.47663
 H466 H 0.72177 0.79160 0.43512
 H467 H 0.80899 0.83070 0.41682
 H468 H 0.80089 0.86477 0.45913
 C469 C 0.73486 0.81077 0.58416
 C470 C 0.66900 0.93774 0.48744
 C471 C 0.76569 0.80891 0.42181
 C472 C 0.83219 0.93833 0.51570
 C473 C 0.01278 0.21396 0.42288
 H474 H 0.03312 0.22719 0.42419
 C475 C 0.00870 0.18994 0.44230
 H476 H 0.02608 0.18467 0.45851
 C477 C -0.03475 0.20506 0.40040
 H478 H -0.05192 0.21139 0.38448
 C479 C -0.03976 0.18085 0.41938
 H480 H -0.06100 0.16914 0.41783
 N481 N -0.00858 0.22075 0.40214
 C482 C 0.03954 0.26694 0.33082
 H483 H 0.02611 0.28705 0.32916
 C484 C 0.06406 0.26259 0.31165
 H485 H 0.06951 0.27954 0.29529
 C486 C 0.04837 0.22020 0.35390
 H487 H 0.04179 0.20342 0.36991
 C488 C 0.07307 0.21492 0.33517
 H489 H 0.08490 0.19390 0.33702
 Zn490 Zn -0.00133 0.25363 0.37661
 N491 N 0.03248 0.24609 0.35174
 C492 C 0.03239 0.30228 0.39930
 N493 N 0.00585 0.28721 0.40112
 C494 C -0.01578 0.29514 0.42122
 C495 C -0.01141 0.31950 0.44008
 C496 C 0.03775 0.32671 0.41779
 C497 C -0.04099 0.23890 0.33064
 C498 C -0.06472 0.24262 0.31047
 C499 C -0.07524 0.29059 0.33266
 C500 C -0.05120 0.28600 0.35236
 N501 N -0.03478 0.26035 0.35114
 H502 H 0.04954 0.29538 0.38357
 H503 H -0.03652 0.28251 0.42249
 H504 H -0.02895 0.32565 0.45584
 H505 H 0.05872 0.33873 0.41523
 H506 H -0.02744 0.21881 0.33006
 H507 H -0.06958 0.22483 0.29494
 H508 H -0.08813 0.31111 0.33390
 H509 H -0.04560 0.30306 0.36838
 C510 C 0.08147 0.23654 0.31395
 C511 C -0.01759 0.17272 0.44040
 C512 C -0.08203 0.26894 0.31114
 C513 C 0.01572 0.33548 0.43871
 C514 C -0.01636 0.70576 0.07819
 H515 H -0.03703 0.71867 0.07769
 C516 C -0.01258 0.68175 0.05871
 H517 H -0.03091 0.67612 0.04384
 C518 C 0.03208 0.69737 0.09906
 H519 H 0.04963 0.70377 0.11448
 C520 C 0.03683 0.67322 0.07995
 H521 H 0.05796 0.66104 0.08110
 N522 N 0.00568 0.71292 0.09803
 C523 C -0.04165 0.76134 0.16853
 H524 H -0.02859 0.78166 0.16885
 C525 C -0.06559 0.75766 0.18852
 H526 H -0.07105 0.77571 0.20358
 C527 C -0.05043 0.71366 0.14770
 H528 H -0.04418 0.69636 0.13210
 C529 C -0.07452 0.70901 0.16732
 H530 H -0.08682 0.68822 0.16639
 Zn531 Zn -0.00117 0.74625 0.12307
 N532 N -0.03470 0.73962 0.14850
 C533 C -0.03451 0.79515 0.09916
 N534 N -0.00821 0.77946 0.09786
 C535 C 0.01371 0.78653 0.07779
 C536 C 0.00995 0.81066 0.05841
 C537 C -0.03924 0.81942 0.08017
 C538 C 0.04012 0.73160 0.16805
 C539 C 0.06421 0.73574 0.18772
 C540 C 0.07176 0.78466 0.16651
 C541 C 0.04763 0.77952 0.14716
 N542 N 0.03258 0.75318 0.14803
 H543 H -0.05196 0.78883 0.11479
 H544 H 0.03432 0.77352 0.07709
 H545 H 0.02822 0.81624 0.04339
 H546 H -0.06025 0.83177 0.08160
 H547 H 0.02720 0.71120 0.16884
 H548 H 0.06928 0.71842 0.20378
 H549 H 0.08348 0.80578 0.16558
 H550 H 0.04072 0.79680 0.13179
 C551 C -0.08223 0.73101 0.18826
 C552 C 0.01449 0.66523 0.05928
 C553 C 0.08056 0.76253 0.18689
 C554 C -0.01696 0.82739 0.05935
 C555 C 0.48611 0.21098 0.57801
 H556 H 0.46569 0.22422 0.57679
 C557 C 0.49024 0.18695 0.55859
 H558 H 0.47282 0.18170 0.54248
 C559 C 0.53371 0.20186 0.60040
 H560 H 0.55073 0.20782 0.61656
 C561 C 0.53881 0.17772 0.58137
 H562 H 0.55943 0.16500 0.58395
 N563 N 0.50757 0.21775 0.59861
 C564 C 0.46076 0.26508 0.67014
 H565 H 0.47480 0.28471 0.67156
 C566 C 0.43657 0.26151 0.68982
 H567 H 0.43189 0.27895 0.70584
 C568 C 0.44972 0.21909 0.64671
 H569 H 0.45514 0.20240 0.63018
 C570 C 0.42521 0.21466 0.66589
 H571 H 0.41178 0.19465 0.66374
 Zn572 Zn 0.50068 0.25080 0.62406
 N573 N 0.46676 0.24414 0.64900
 C574 C 0.46785 0.30027 0.60130
 N575 N 0.49413 0.28459 0.59952
 C576 C 0.51595 0.29208 0.57949
 C577 C 0.51203 0.31660 0.56064
 C578 C 0.46295 0.32488 0.58281
 C579 C 0.54000 0.23507 0.67008
 C580 C 0.56384 0.23808 0.69021
 C581 C 0.57498 0.28603 0.66838
 C582 C 0.55090 0.28209 0.64864
 N583 N 0.53421 0.25672 0.64959
 H584 H 0.45056 0.29374 0.61701
 H585 H 0.53648 0.27899 0.57827
 H586 H 0.52972 0.32239 0.54495
 H587 H 0.44219 0.33738 0.58536
 H588 H 0.52586 0.21548 0.67086
 H589 H 0.56733 0.22073 0.70662
 H590 H 0.58808 0.30635 0.66732
 H591 H 0.54544 0.29946 0.63281
 C592 C 0.41854 0.23584 0.68798
 C593 C 0.51694 0.17010 0.55994
 C594 C 0.58197 0.26375 0.68929
 C595 C 0.48518 0.33321 0.56195
 C596 C 0.51006 0.71021 0.92077
 H597 H 0.53134 0.72197 0.92141
 C598 C 0.50502 0.68631 0.94012
 H599 H 0.52265 0.67968 0.95554
 C600 C 0.46111 0.70500 0.90021
 H601 H 0.44378 0.71279 0.88512
 C602 C 0.45505 0.68107 0.91924
 H603 H 0.43290 0.67112 0.91832
 N604 N 0.48840 0.71878 0.90102
 C605 C 0.53742 0.76509 0.83033
 H606 H 0.52504 0.78591 0.82993
 C607 C 0.56139 0.76054 0.81053
 H608 H 0.56751 0.77841 0.79552
 C609 C 0.54458 0.71712 0.85132
 H610 H 0.53773 0.70010 0.86695
 C611 C 0.56865 0.71159 0.83187
 H612 H 0.58033 0.69038 0.83297
 Zn613 Zn 0.49663 0.75184 0.87603
 N614 N 0.52972 0.74367 0.85042
 C615 C 0.53252 0.79858 0.89969
 N616 N 0.50539 0.78454 0.90122
 C617 C 0.48433 0.79249 0.92189
 C618 C 0.48988 0.81593 0.94161
 C619 C 0.53900 0.82218 0.91893
 C620 C 0.45538 0.73931 0.83085
 C621 C 0.43158 0.74430 0.81104
 C622 C 0.42411 0.79278 0.83331
 C623 C 0.44810 0.78684 0.85273
 N624 N 0.46308 0.76037 0.85124
 H625 H 0.54944 0.79125 0.88390
 H626 H 0.46320 0.78050 0.92307
 H627 H 0.47283 0.82203 0.95789
 H628 H 0.56101 0.83244 0.91763
 H629 H 0.46779 0.71852 0.83006
 H630 H 0.42553 0.72680 0.79560
 H631 H 0.41244 0.81398 0.83471
 H632 H 0.45489 0.80353 0.86870
 C633 C 0.57726 0.73333 0.81101
 C634 C 0.47736 0.67116 0.93938
 C635 C 0.41582 0.77156 0.81187
 C636 C 0.51733 0.83135 0.94005
 C637 C 0.15845 0.21770 0.25067
 C638 C 0.15715 0.20955 0.27954
 C639 C 0.13076 0.21416 0.29936
 C640 C 0.10741 0.23236 0.29335
 H641 H 0.17626 0.19842 0.28968
 H642 H 0.13163 0.20259 0.32055
 H643 H 0.13971 0.22938 0.24051
 H644 H 0.10764 0.24591 0.27337
 C645 C 0.65922 0.72123 0.75266
 C646 C 0.63392 0.73585 0.74484
 C647 C 0.60818 0.74169 0.76520
 C648 C 0.60325 0.72708 0.79096
 H649 H 0.63165 0.74464 0.72245
 H650 H 0.59202 0.75806 0.75749
 H651 H 0.66148 0.71215 0.77493
 H652 H 0.61797 0.70889 0.79733
 C653 C 0.33741 0.78622 0.74905
 C654 C 0.36314 0.77157 0.74273
 C655 C 0.38775 0.76553 0.76427
 C656 C 0.39050 0.77834 0.79123
 H657 H 0.36675 0.76291 0.72046
 H658 H 0.40506 0.75032 0.75653
 H659 H 0.33387 0.79566 0.77099
 H660 H 0.37470 0.79541 0.79815
 C661 C -0.15556 0.28727 0.24359
 C662 C -0.13394 0.26617 0.24146
 C663 C -0.10894 0.26195 0.26304
 C664 C -0.10754 0.27426 0.29035
 H665 H -0.13301 0.25129 0.22259
 H666 H -0.09087 0.24745 0.25562
 H667 H -0.15437 0.30290 0.26191
 H668 H -0.12509 0.28925 0.29790
 C669 C -0.16245 0.72040 0.24934
 C670 C -0.13672 0.73460 0.25615
 C671 C -0.11159 0.73988 0.23494
 C672 C -0.10795 0.72554 0.20884
 H673 H -0.13349 0.74333 0.27843
 H674 H -0.09468 0.75554 0.24232
 H675 H -0.16566 0.71127 0.22724
 H676 H -0.12342 0.70804 0.20264
 C677 C 0.34268 0.21801 0.75310
 C678 C 0.36468 0.23841 0.75643
 C679 C 0.39041 0.24248 0.73561
 C680 C 0.39237 0.23078 0.70805
 H681 H 0.36532 0.25275 0.77572
 H682 H 0.40853 0.25629 0.74386
 H683 H 0.34407 0.20295 0.73432
 H684 H 0.37473 0.21649 0.69966
 C685 C 0.66403 0.27503 0.74771
 C686 C 0.64596 0.25096 0.74697
 C687 C 0.62154 0.24651 0.72490
 C688 C 0.60732 0.26868 0.71039
 H689 H 0.64935 0.23248 0.76200
 H690 H 0.61458 0.22371 0.72158
 H691 H 0.66116 0.29170 0.73044
 H692 H 0.61430 0.29148 0.71386
 C693 C 0.16097 0.77943 0.24586
 C694 C 0.14794 0.75282 0.24139
 C695 C 0.12276 0.74736 0.22034
 C696 C 0.10585 0.76878 0.20762
 H697 H 0.15662 0.73334 0.25275
 H698 H 0.11805 0.72422 0.21558
 H699 H 0.15401 0.79841 0.23267
 H700 H 0.11063 0.79197 0.21191
 C701 C 0.25128 0.15795 0.22258
 C702 C 0.24338 0.13214 0.23556
 C703 C 0.26434 0.10704 0.24127
 C704 C 0.29124 0.10351 0.22782
 H705 H 0.22039 0.12888 0.24301
 H706 H 0.25615 0.09011 0.25642
 H707 H 0.27414 0.16117 0.21474
 H708 H 0.29826 0.11900 0.21067
 C709 C 0.74925 0.66008 0.72293
 C710 C 0.74072 0.63460 0.73616
 C711 C 0.76099 0.60881 0.74132
 C712 C 0.78700 0.60412 0.72656
 H713 H 0.71783 0.63219 0.74423
 H714 H 0.75294 0.59244 0.75713
 H715 H 0.77208 0.66249 0.71470
 H716 H 0.79359 0.61915 0.70883
 C717 C 0.74830 0.33799 0.77979
 C718 C 0.77705 0.34004 0.78909
 C719 C 0.79654 0.36645 0.78496
 C720 C 0.79069 0.38906 0.76615
 H721 H 0.78730 0.32158 0.80090
 H722 H 0.81740 0.36625 0.79749
 H723 H 0.73804 0.35608 0.76746
 H724 H 0.77118 0.38817 0.75169
 C725 C 0.24772 -0.15932 0.28011
 C726 C 0.24503 -0.13789 0.25916
 C727 C 0.26542 -0.11196 0.25615
 C728 C 0.29259 -0.10943 0.26922
 H729 H 0.22664 -0.13801 0.24341
 H730 H 0.25729 -0.09429 0.24179
 H731 H 0.26555 -0.15725 0.29644
 H732 H 0.30080 -0.12668 0.28400
 C733 C 0.25279 -0.15277 0.71282
 C734 C 0.23157 -0.14301 0.69358
 C735 C 0.21262 -0.11624 0.69849
 C736 C 0.20604 -0.10489 0.72549
 H737 H 0.22818 -0.15366 0.67228
 H738 H 0.20300 -0.10640 0.67860
 H739 H 0.25697 -0.13962 0.73266
 H740 H 0.21565 -0.11495 0.74531
 C741 C 0.75658 0.34709 0.21376
 C742 C 0.73976 0.36034 0.19258
 C743 C 0.71943 0.38612 0.19769
 C744 C 0.71039 0.39580 0.22467
 H745 H 0.74149 0.35291 0.16966
 H746 H 0.71139 0.39719 0.17775
 H747 H 0.75691 0.35605 0.23617
 H748 H 0.71870 0.38517 0.24472
 C749 C 0.75038 0.65926 0.28200
 C750 C 0.72164 0.65749 0.29147
 C751 C 0.70185 0.63134 0.28710
 C752 C 0.70712 0.60936 0.26740
 H753 H 0.71167 0.67594 0.30352
 H754 H 0.68125 0.63131 0.30009
 H755 H 0.76037 0.64107 0.26961
 H756 H 0.72633 0.61067 0.25254
 C757 C 0.25097 0.16088 0.77970
 C758 C 0.25829 0.13569 0.76518
 C759 C 0.23696 0.11116 0.75890
 C760 C 0.21064 0.10711 0.77328
 H761 H 0.28103 0.13253 0.75689
 H762 H 0.24444 0.09502 0.74255
 H763 H 0.22832 0.16398 0.78823
 H764 H 0.20446 0.12173 0.79148
 C765 C 0.22044 0.24780 0.16324
 C766 C 0.23534 0.24053 0.13809
 C767 C 0.24091 0.26117 0.11285
 C768 C 0.22608 0.28695 0.10849
 H769 H 0.24448 0.21832 0.13548
 H770 H 0.25723 0.25362 0.09653
 H771 H 0.21091 0.26984 0.16582
 H772 H 0.20794 0.29326 0.12341
 C773 C 0.72185 0.75139 0.66431
 C774 C 0.73635 0.74383 0.63903
 C775 C 0.74260 0.76449 0.61397
 C776 C 0.72879 0.79087 0.60997
 H777 H 0.74451 0.72129 0.63610
 H778 H 0.75839 0.75642 0.59738
 H779 H 0.71331 0.77378 0.66721
 H780 H 0.71111 0.79780 0.62516
 C781 C 0.78001 0.75081 0.34102
 C782 C 0.75375 0.75447 0.35565
 C783 C 0.74901 0.77528 0.38091
 C784 C 0.77126 0.78827 0.39652
 H785 H 0.73389 0.74267 0.34822
 H786 H 0.72572 0.77962 0.38680
 H787 H 0.79923 0.76445 0.34671
 H788 H 0.79458 0.78434 0.39054
 C789 C 0.28079 0.24655 -0.15712
 C790 C 0.30230 0.26135 -0.14214
 C791 C 0.29697 0.28076 -0.11589
 C792 C 0.26969 0.28935 -0.10585
 H793 H 0.32570 0.25869 -0.14863
 H794 H 0.31708 0.28831 -0.10455
 H795 H 0.25766 0.24715 -0.14944
 H796 H 0.24940 0.28128 -0.11644
 C797 C 0.72138 0.24841 -0.15918
 C798 C 0.69988 0.23204 -0.14587
 C799 C 0.70473 0.21298 -0.11928
 C800 C 0.73188 0.20428 -0.10908
 H801 H 0.67684 0.23339 -0.15379
 H802 H 0.68445 0.20563 -0.10803
 H803 H 0.74380 0.24930 -0.14970
 H804 H 0.75225 0.21187 -0.11998
 C805 C 0.21978 0.75010 0.33696
 C806 C 0.24636 0.74639 0.35093
 C807 C 0.25162 0.72561 0.37615
 C808 C 0.22970 0.71257 0.39224
 H809 H 0.26608 0.75811 0.34295
 H810 H 0.27503 0.72132 0.38155
 H811 H 0.20067 0.73652 0.34319
 H812 H 0.20626 0.71644 0.38674
 C813 C 0.28122 0.75372 0.65784
 C814 C 0.25476 0.74909 0.64398
 C815 C 0.25004 0.72750 0.61944
 C816 C 0.27227 0.71425 0.60385
 H817 H 0.23476 0.76079 0.65149
 H818 H 0.22674 0.72287 0.61400
 H819 H 0.30066 0.74020 0.65225
 H820 H 0.29562 0.71837 0.60943
 C821 C 0.78449 0.25693 0.15355
 C822 C 0.80605 0.24077 0.13989
 C823 C 0.80093 0.22023 0.11454
 C824 C 0.77373 0.21126 0.10491
 H825 H 0.82932 0.24313 0.14679
 H826 H 0.82112 0.21204 0.10364
 H827 H 0.76159 0.25667 0.14523
 H828 H 0.75338 0.21985 0.11515
 C829 C 0.47161 0.40935 0.49753
 C830 C 0.45001 0.39658 0.51425
 C831 C 0.45457 0.37023 0.53368
 C832 C 0.48160 0.35936 0.54196
 H833 H 0.42709 0.40490 0.51308
 H834 H 0.43415 0.35973 0.54166
 H835 H 0.49394 0.39959 0.49658
 H836 H 0.50211 0.36942 0.53368
 C837 C -0.02570 0.90987 0.00293
 C838 C -0.01281 0.88420 -0.00585
 C839 C -0.00759 0.85829 0.01400
 C840 C -0.02235 0.85361 0.03981
 H841 H -0.00507 0.88171 -0.02865
 H842 H 0.00820 0.84179 0.00580
 H843 H -0.03355 0.91232 0.02568
 H844 H -0.04013 0.86876 0.04656
 C845 C 0.02462 0.58409 0.00107
 C846 C 0.01060 0.60949 -0.00677
 C847 C 0.00526 0.63495 0.01359
 C848 C 0.02001 0.63931 0.03942
 H849 H 0.00200 0.61212 -0.02923
 H850 H -0.01074 0.65144 0.00578
 H851 H 0.03351 0.58147 0.02341
 H852 H 0.03791 0.62421 0.04592
 C853 C 0.53133 0.09247 0.49726
 C854 C 0.55300 0.10762 0.51166
 C855 C 0.54789 0.13369 0.53132
 C856 C 0.52073 0.14438 0.53946
 H857 H 0.57638 0.10119 0.50869
 H858 H 0.56813 0.14437 0.53943
 H859 H 0.50812 0.09988 0.49826
 H860 H 0.50033 0.13467 0.53064
 C861 C -0.03538 0.09662 0.50385
 C862 C -0.04379 0.09792 0.47504
 C863 C -0.03949 0.12398 0.45520
 C864 C -0.02143 0.14719 0.46114
 H865 H -0.05494 0.07904 0.46497
 H866 H -0.05118 0.12298 0.43402
 H867 H -0.02359 0.11508 0.51395
 H868 H -0.00772 0.14717 0.48111
 C869 C 0.46679 0.58904 0.99640
 C870 C 0.44531 0.60095 0.97884
 C871 C 0.45025 0.62602 0.95792
 C872 C 0.47268 0.64593 0.96042
 H873 H 0.42277 0.59179 0.97891
 H874 H 0.43388 0.62799 0.94017
 H875 H 0.48930 0.59830 0.99625
 H876 H 0.48864 0.64387 0.97858
 C877 C 0.53356 0.90917 1.00190
 C878 C 0.54914 0.90303 0.97673
 C879 C 0.54241 0.87816 0.95603
 C880 C 0.52295 0.85590 0.96147
 H881 H 0.56771 0.91681 0.96970
 H882 H 0.55464 0.87859 0.93509
 H883 H 0.51442 0.89536 1.00742
 H884 H 0.51000 0.85547 0.98193
 C885 C 0.03090 0.41245 0.50161
 C886 C 0.05245 0.39737 0.48678
 C887 C 0.04712 0.37137 0.46717
 C888 C 0.01985 0.36144 0.45874
 H889 H 0.07586 0.40358 0.48958
 H890 H 0.06724 0.36002 0.45943
 H891 H 0.00771 0.40510 0.50082
 H892 H -0.00046 0.37198 0.46703
 C893 C 0.41330 0.50283 0.47096
 C894 C 0.38760 0.49600 0.48537
 C895 C 0.36263 0.51724 0.49126
 C896 C 0.35900 0.54345 0.47720
 H897 H 0.38427 0.47366 0.49376
 H898 H 0.34577 0.50977 0.50704
 H899 H 0.41662 0.52502 0.46218
 H900 H 0.37440 0.54978 0.45956
 C901 C 0.91618 0.00091 -0.02422
 C902 C 0.89814 0.00114 0.00004
 C903 C 0.87340 0.02288 0.00479
 C904 C 0.85885 0.03715 -0.01735
 H905 H 0.90197 -0.01389 0.01847
 H906 H 0.86667 0.02628 0.02775
 H907 H 0.91292 0.01823 -0.04076
 H908 H 0.86558 0.03340 -0.04030
 C909 C 0.59534 -0.00395 0.03337
 C910 C 0.60833 0.01255 0.05481
 C911 C 0.63418 0.03288 0.04995
 C912 C 0.64442 0.04150 0.02304
 H913 H 0.60074 0.01054 0.07769
 H914 H 0.64503 0.04103 0.06996
 H915 H 0.60447 -0.00375 0.01098
 H916 H 0.63410 0.03313 0.00288
 C917 C 0.09316 0.50083 0.53149
 C918 C 0.11531 0.49741 0.51107
 C919 C 0.14115 0.51793 0.50706
 C920 C 0.14342 0.54516 0.51924
 H921 H 0.11594 0.47827 0.49657
 H922 H 0.15912 0.50973 0.49285
 H923 H 0.09451 0.51943 0.54674
 H924 H 0.12601 0.55346 0.53400
 C925 C 0.08484 0.49404 -0.02903
 C926 C 0.09861 0.48992 -0.00262
 C927 C 0.12399 0.46895 0.00252
 C928 C 0.14056 0.45627 -0.01922
 H929 H 0.09035 0.50141 0.01699
 H930 H 0.12910 0.46420 0.02566
 H931 H 0.09141 0.48071 -0.04807
 H932 H 0.13538 0.46063 -0.04241
 C933 C 0.59321 1.00275 0.46930
 C934 C 0.61512 1.00604 0.48990
 C935 C 0.64086 0.98525 0.49409
 C936 C 0.64280 0.95777 0.48239
 H937 H 0.61568 1.02525 0.50431
 H938 H 0.65899 0.99346 0.50796
 H939 H 0.59466 0.98402 0.45422
 H940 H 0.62513 0.94941 0.46808
 C941 C 0.90549 1.00586 0.53319
 C942 C 0.88458 1.00732 0.51136
 C943 C 0.85947 0.98594 0.50752
 C944 C 0.85779 0.95901 0.52053
 H945 H 0.88456 1.02521 0.49529
 H946 H 0.84165 0.99315 0.49265
 H947 H 0.90388 0.98797 0.54928
 H948 H 0.87523 0.95168 0.53574
 C949 C 0.40838 0.49758 0.02827
 C950 C 0.38218 0.50454 0.01484
 C951 C 0.35701 0.48349 0.00994
 C952 C 0.35403 0.45711 0.02380
 H953 H 0.37864 0.52685 0.00635
 H954 H 0.33957 0.49113 -0.00514
 H955 H 0.41193 0.47550 0.03728
 H956 H 0.37004 0.45054 0.04081
 C957 C 0.50184 0.46939 0.40924
 C958 C 0.50700 0.49581 0.39610
 C959 C 0.52759 0.50059 0.37043
 C960 C 0.54002 0.47884 0.35383
 H961 H 0.49654 0.51570 0.40502
 H962 H 0.53239 0.52361 0.36518
 H963 H 0.51404 0.44982 0.40194
 H964 H 0.53595 0.45575 0.35925
 C965 C 0.00284 -0.03016 0.91282
 C966 C 0.00733 -0.00359 0.89976
 C967 C 0.02766 0.00165 0.87397
 C968 C 0.03975 -0.01986 0.85683
 H969 H -0.00332 0.01609 0.90895
 H970 H 0.03254 0.02474 0.86913
 H971 H 0.01537 -0.04944 0.90529
 H972 H 0.03542 -0.04301 0.86178
 C973 C -0.00408 0.03540 0.59092
 C974 C -0.01139 0.02127 0.61638
 C975 C 0.00978 0.01536 0.64131
 C976 C 0.03661 0.02876 0.64487
 H977 H -0.03408 0.01297 0.61945
 H978 H 0.00182 -0.00011 0.65806
 H979 H 0.01840 0.04421 0.58786
 H980 H 0.04349 0.04609 0.62955
 C981 C 0.49912 0.53147 0.08574
 C982 C 0.50469 0.50524 0.09914
 C983 C 0.52597 0.50075 0.12427
 C984 C 0.53817 0.52270 0.14062
 H985 H 0.49405 0.48526 0.09083
 H986 H 0.53136 0.47781 0.12943
 H987 H 0.51157 0.55107 0.09227
 H988 H 0.53340 0.54572 0.13530
 C989 C 0.50574 -0.03592 0.09383
 C990 C 0.47663 -0.04419 0.09461
 C991 C 0.45648 -0.04032 0.12074
 C992 C 0.46184 -0.02168 0.14357
 H993 H 0.46663 -0.05480 0.07534
 H994 H 0.43555 -0.05264 0.12001
 H995 H 0.51575 -0.02503 0.11293
 H996 H 0.48140 -0.00735 0.14301
 C997 C 1.00083 0.47441 0.58827
 C998 C 1.00804 0.48812 0.61394
 C999 C 0.98654 0.49354 0.63873
 C1000 C 0.96060 0.47857 0.64257
 H1001 H 1.03074 0.49623 0.61733
 H1002 H 0.99364 0.50959 0.65525
 H1003 H 0.97816 0.46620 0.58491
 H1004 H 0.95494 0.46062 0.62750
 C1005 C 0.99470 0.52502 0.91085
 C1006 C 1.00304 0.51166 0.88528
 C1007 C 0.98273 0.50633 0.85960
 C1008 C 0.95610 0.52010 0.85540
 H1009 H 1.02594 0.50362 0.88267
 H1010 H 0.99124 0.49113 0.84284
 H1011 H 0.97197 0.53348 0.91347
 H1012 H 0.94881 0.53724 0.87078
 C1013 C 0.50165 0.02906 0.41146
 C1014 C 0.50923 0.01459 0.38627
 C1015 C 0.48818 0.00811 0.36143
 C1016 C 0.46134 0.02155 0.35748
 H1017 H 0.53209 0.00658 0.38326
 H1018 H 0.49634 -0.00759 0.34497
 H1019 H 0.47895 0.03751 0.41441
 H1020 H 0.45430 0.03911 0.37249
   
