data_POSCAR
  _audit_creation_date              2014-09-24
  _audit_creation_method            'ToBaCCo'
  _symmetry_space_group_name_H-M    'P1'
  _symmetry_Int_Tables_number       1
  _symmetry_cell_setting            triclinic
  loop_
  _symmetry_equiv_pos_as_xyz
 x,y,z
_cell_length_a 15.6857
_cell_length_b 15.6558
_cell_length_c 15.6858
_cell_angle_alpha 90.048400
_cell_angle_beta 89.999000
_cell_angle_gamma 90.040000
loop_
  _atom_site_label
  _atom_site_type_symbol
  _atom_site_fract_x
  _atom_site_fract_y
  _atom_site_fract_z
Si1 Si 0.25032 0.25021 0.24938
 Si2 Si 0.75067 0.75000 0.25038
 Si3 Si 0.74964 0.24979 0.74996
 Si4 Si 0.24990 0.75000 0.74972
 Si5 Si 0.25009 0.25000 0.75025
 Si6 Si 0.75145 0.74900 0.75025
 Si7 Si 0.75018 0.25001 0.25017
 Si8 Si 0.25029 0.75101 0.24847
 N9 N 1.15139 0.08794 0.09169
 N10 N 1.21150 0.14405 0.10990
 N11 N 1.09284 -0.09190 0.15130
 N12 N 1.11230 -0.14699 0.21211
 N13 N 1.15189 -0.09188 0.09196
 N14 N 1.21289 -0.14689 0.11099
 N15 N 1.09227 0.08800 0.15088
 N16 N 1.11064 0.14414 0.21092
 C17 C 1.18409 0.17991 0.18335
 C18 C 1.18630 -0.18238 0.18505
 N19 N 0.84958 -0.09122 0.09116
 N20 N 0.78894 -0.14625 0.11029
 N21 N 0.90857 0.08801 0.15058
 N22 N 0.89010 0.14395 0.21083
 N23 N 0.84925 0.08790 0.09145
 N24 N 0.78905 0.14377 0.11009
 N25 N 0.90893 -0.09107 0.15028
 N26 N 0.89018 -0.14600 0.21105
 Mn27 Mn 1.00059 -0.00175 0.15151
 C28 C 0.81635 -0.18109 0.18407
 C29 C 0.81647 0.17959 0.18364
 N30 N 1.15045 -0.09097 -0.09177
 N31 N 1.21097 -0.14618 -0.11053
 N32 N 1.09148 0.08812 -0.15094
 N33 N 1.11012 0.14401 -0.21108
 N34 N 1.15071 0.08806 -0.09174
 N35 N 1.21102 0.14389 -0.11016
 N36 N 1.09127 -0.09095 -0.15103
 N37 N 1.11008 -0.14614 -0.21164
 Mn38 Mn 1.15182 -0.00174 -0.00002
 C39 C 1.18374 -0.18126 -0.18429
 C40 C 1.18376 0.17961 -0.18367
 N41 N 0.84857 0.08771 -0.09229
 N42 N 0.78843 0.14367 -0.11055
 N43 N 0.90738 -0.09202 -0.15224
 N44 N 0.88835 -0.14727 -0.21315
 N45 N 0.84818 -0.09219 -0.09302
 N46 N 0.78745 -0.14756 -0.11232
 N47 N 0.90775 0.08785 -0.15145
 N48 N 0.88937 0.14389 -0.21147
 Mn49 Mn 0.84813 -0.00199 -0.00062
 Mn50 Mn 0.99952 -0.00175 -0.15216
 Cl51 Cl 0.99998 -0.00191 -0.00032
 C52 C 0.81586 0.17953 -0.18397
 C53 C 0.81438 -0.18295 -0.18641
 N54 N 1.15108 0.58924 0.59263
 N55 N 1.21152 0.64471 0.61105
 N56 N 1.09113 0.41067 0.65106
 N57 N 1.10994 0.35526 0.71154
 N58 N 1.15013 0.41030 0.59163
 N59 N 1.21049 0.35474 0.61026
 N60 N 1.09171 0.58967 0.65163
 N61 N 1.11028 0.64539 0.71184
 C62 C 1.18406 0.68033 0.68443
 C63 C 1.18343 0.31955 0.68408
 N64 N 0.84862 0.41186 0.59207
 N65 N 0.78830 0.35596 0.61031
 N66 N 0.90790 0.59131 0.65248
 N67 N 0.88874 0.64628 0.71357
 N68 N 0.84889 0.59175 0.59310
 N69 N 0.78823 0.64709 0.61235
 N70 N 0.90774 0.41155 0.65126
 N71 N 0.88929 0.35545 0.71119
 Mn72 Mn 0.99967 0.50085 0.65236
 C73 C 0.81571 0.31996 0.68369
 C74 C 0.81499 0.68216 0.68662
 N75 N 1.15130 0.41140 0.40815
 N76 N 1.21128 0.35531 0.38967
 N77 N 1.09455 0.59191 0.34921
 N78 N 1.11412 0.64709 0.28825
 N79 N 1.15246 0.59151 0.40986
 N80 N 1.21707 0.65016 0.39221
 N81 N 1.09247 0.41203 0.34870
 N82 N 1.11091 0.35643 0.28819
 Mn83 Mn 1.15191 0.50049 0.50052
 C84 C 1.18409 0.32021 0.31575
 C85 C 1.18736 0.68530 0.31373
 N86 N 0.85050 0.59151 0.40918
 N87 N 0.78974 0.64635 0.39017
 N88 N 0.90873 0.41265 0.34892
 N89 N 0.89017 0.35665 0.28872
 N90 N 0.84961 0.41245 0.40826
 N91 N 0.78948 0.35638 0.38984
 N92 N 0.90995 0.59180 0.35013
 N93 N 0.89099 0.64679 0.28946
 Mn94 Mn 0.84864 0.50189 0.50058
 Mn95 Mn 1.00135 0.50215 0.34847
 Cl96 Cl 1.00035 0.50142 0.50045
 C97 C 0.81702 0.68153 0.31653
 C98 C 0.81668 0.32074 0.31619
 N99 N 0.65101 0.08750 0.59225
 N100 N 0.71125 0.14337 0.61067
 N101 N 0.58988 -0.09219 0.65165
 N102 N 0.60747 -0.15074 0.71628
 N103 N 0.65075 -0.09240 0.59398
 N104 N 0.71185 -0.14733 0.61381
 N105 N 0.59152 0.08796 0.65103
 N106 N 0.60972 0.14421 0.71102
 C107 C 0.68350 0.17956 0.68383
 C108 C 0.68620 -0.18563 0.68691
 N109 N 0.34821 -0.09051 0.59062
 N110 N 0.28783 -0.14600 0.60941
 N111 N 0.40813 0.08896 0.64970
 N112 N 0.38974 0.14465 0.71013
 N113 N 0.34864 0.08867 0.59076
 N114 N 0.28833 0.14430 0.60973
 N115 N 0.40721 -0.09003 0.65002
 N116 N 0.38868 -0.14526 0.71055
 Mn117 Mn 0.49923 -0.00120 0.65123
 C118 C 0.31521 -0.18082 0.68325
 C119 C 0.31597 0.18005 0.68326
 N120 N 0.65014 -0.09189 0.40937
 N121 N 0.71089 -0.14685 0.39055
 N122 N 0.59195 0.08762 0.34944
 N123 N 0.61044 0.14373 0.28945
 N124 N 0.65127 0.08728 0.40858
 N125 N 0.71154 0.14324 0.39013
 N126 N 0.59135 -0.09147 0.34967
 N127 N 0.61068 -0.14620 0.28880
 Mn128 Mn 0.65155 -0.00244 0.50098
 C129 C 0.68420 -0.18143 0.31635
 C130 C 0.68413 0.17928 0.31671
 N131 N 0.34882 0.08814 0.40712
 N132 N 0.28890 0.14426 0.38875
 N133 N 0.40731 -0.09181 0.34742
 N134 N 0.38804 -0.14650 0.28606
 N135 N 0.34776 -0.09166 0.40631
 N136 N 0.28658 -0.14627 0.38631
 N137 N 0.40815 0.08802 0.34811
 N138 N 0.39001 0.14406 0.28799
 Mn139 Mn 0.34758 -0.00141 0.49874
 Mn140 Mn 0.49977 -0.00192 0.34792
 Cl141 Cl 0.49951 -0.00186 0.49966
 C142 C 0.31654 0.17996 0.31537
 C143 C 0.31355 -0.18153 0.31216
 N144 N 0.65111 0.59103 0.09159
 N145 N 0.71198 0.64585 0.11065
 N146 N 0.59159 0.41219 0.15094
 N147 N 0.61013 0.35636 0.21121
 N148 N 0.65074 0.41193 0.09164
 N149 N 0.71085 0.35596 0.11018
 N150 N 0.59172 0.59132 0.15067
 N151 N 0.61071 0.64632 0.21140
 C152 C 0.68474 0.68097 0.18438
 C153 C 0.68360 0.32041 0.18385
 N154 N 0.34881 0.41278 0.09192
 N155 N 0.28879 0.35656 0.11001
 N156 N 0.40752 0.59268 0.15176
 N157 N 0.38799 0.64784 0.21262
 N158 N 0.34851 0.59266 0.09236
 N159 N 0.28757 0.64781 0.11135
 N160 N 0.40792 0.41276 0.15113
 N161 N 0.38968 0.35653 0.21102
 Mn162 Mn 0.49974 0.50229 0.15187
 C163 C 0.31628 0.32068 0.18339
 C164 C 0.31402 0.68329 0.18553
 N165 N 0.65139 0.41213 -0.09206
 N166 N 0.71123 0.35583 -0.11033
 N167 N 0.59355 0.59223 -0.15166
 N168 N 0.61341 0.64689 -0.21275
 N169 N 0.65276 0.59197 -0.09244
 N170 N 0.71427 0.64641 -0.11192
 N171 N 0.59232 0.41237 -0.15131
 N172 N 0.61044 0.35624 -0.21141
 Mn173 Mn 0.65222 0.50178 -0.00025
 C174 C 0.68369 0.32016 -0.18386
 C175 C 0.68786 0.68176 -0.18613
 N176 N 0.35002 0.59172 -0.09144
 N177 N 0.28932 0.64667 -0.11036
 N178 N 0.40864 0.41260 -0.15101
 N179 N 0.39006 0.35654 -0.21115
 N180 N 0.34949 0.41260 -0.09173
 N181 N 0.28928 0.35659 -0.11013
 N182 N 0.40931 0.59179 -0.15061
 N183 N 0.39034 0.64677 -0.21130
 Mn184 Mn 0.34850 0.50244 0.00022
 Mn185 Mn 0.50090 0.50230 -0.15189
 Cl186 Cl 0.50035 0.50234 -0.00002
 C187 C 0.31651 0.68173 -0.18410
 C188 C 0.31651 0.32079 -0.18371
   
