data_POSCAR
  _audit_creation_date              2014-09-24
  _audit_creation_method            'ToBaCCo'
  _symmetry_space_group_name_H-M    'P1'
  _symmetry_Int_Tables_number       1
  _symmetry_cell_setting            triclinic
  loop_
  _symmetry_equiv_pos_as_xyz
 x,y,z
_cell_length_a 26.9021
_cell_length_b 28.8064
_cell_length_c 27.3504
_cell_angle_alpha 93.804000
_cell_angle_beta 94.388900
_cell_angle_gamma 90.359600
loop_
  _atom_site_label
  _atom_site_type_symbol
  _atom_site_fract_x
  _atom_site_fract_y
  _atom_site_fract_z
N1 N 0.56533 0.69815 0.61435
 N2 N 0.53584 0.66735 0.63121
 C3 C 0.49149 0.68691 0.63843
 C4 C 0.49362 0.73260 0.62630
 C5 C 0.54105 0.73870 0.61119
 H6 H 0.46029 0.66952 0.65237
 H7 H 0.55638 0.76984 0.59784
 Cu8 Cu 0.55893 0.60566 0.64550
 Cu9 Cu 0.63234 0.68274 0.59634
 Cu10 Cu 0.66407 0.56692 0.60047
 N11 N 0.59444 0.55325 0.67233
 N12 N 0.63682 0.53924 0.65581
 C13 C 0.65493 0.50453 0.68229
 C14 C 0.62185 0.49601 0.71699
 C15 C 0.58361 0.52748 0.70952
 H16 H 0.68957 0.48678 0.67664
 H17 H 0.55132 0.53253 0.73043
 N18 N 0.69917 0.61029 0.56265
 N19 N 0.68870 0.65499 0.56266
 C20 C 0.71879 0.67529 0.53291
 C21 C 0.74905 0.64155 0.51294
 C22 C 0.73577 0.60077 0.53284
 H23 H 0.71732 0.71148 0.52463
 H24 H 0.75122 0.56660 0.52598
 H25 H 0.61010 0.61586 0.57717
 H26 H 0.64612 0.62600 0.63826
 N27 N 0.95188 0.30185 0.08461
 N28 N 0.96805 0.31751 0.12927
 C29 C 1.00336 0.28871 0.14700
 C30 C 1.00994 0.25357 0.11097
 C31 C 0.97696 0.26325 0.07187
 H32 H 1.02313 0.29341 0.18293
 H33 H 0.97093 0.24313 0.03705
 Cu34 Cu 0.94177 0.37471 0.15853
 Cu35 Cu 0.89845 0.33163 0.04667
 Cu36 Cu 0.84026 0.42435 0.10592
 N37 N 0.91581 0.43252 0.18655
 N38 N 0.87458 0.45044 0.16720
 C39 C 0.86302 0.48851 0.19517
 C40 C 0.89933 0.49492 0.23372
 C41 C 0.93238 0.45906 0.22696
 H42 H 0.83117 0.51033 0.18755
 H43 H 0.96545 0.45244 0.25038
 N44 N 0.81281 0.39299 0.04320
 N45 N 0.83480 0.35743 0.02114
 C46 C 0.80588 0.34183 -0.01901
 C47 C 0.76435 0.36949 -0.02301
 C48 C 0.76981 0.40166 0.01692
 H49 H 0.81404 0.31215 -0.04329
 H50 H 0.74357 0.42826 0.02692
 H51 H 0.90434 0.39920 0.08041
 H52 H 0.86495 0.35618 0.10871
 N53 N 0.43878 0.20277 -0.07701
 N54 N 0.44815 0.18788 -0.12182
 C55 C 0.48026 0.21771 -0.13914
 C56 C 0.49187 0.25275 -0.10280
 C57 C 0.46527 0.24195 -0.06382
 H58 H 0.49519 0.21347 -0.17475
 H59 H 0.46504 0.26124 -0.02853
 Cu60 Cu 0.42051 0.12885 -0.15091
 Cu61 Cu 0.39318 0.16997 -0.03909
 Cu62 Cu 0.31428 0.09147 -0.10941
 N63 N 0.38624 0.07305 -0.18048
 N64 N 0.34408 0.05917 -0.16452
 C65 C 0.32671 0.02150 -0.19243
 C66 C 0.36010 0.01072 -0.22723
 C67 C 0.39754 0.04417 -0.21874
 H68 H 0.29237 0.00319 -0.18766
 H69 H 0.42987 0.04780 -0.23939
 N70 N 0.30073 0.11638 -0.04300
 N71 N 0.33078 0.14631 -0.01644
 C72 C 0.31033 0.15868 0.02581
 C73 C 0.26589 0.13467 0.02627
 C74 C 0.26087 0.10800 -0.01780
 H75 H 0.32613 0.18399 0.05379
 H76 H 0.22975 0.08553 -0.03121
 H77 H 0.38377 0.10428 -0.07753
 H78 H 0.35206 0.15571 -0.10332
 N79 N 0.06686 0.79003 0.38099
 N80 N 0.05150 0.80341 0.33739
 C81 C 0.01154 0.77754 0.31953
 C82 C 0.00089 0.74677 0.35412
 C83 C 0.03689 0.75558 0.39278
 H84 H -0.00873 0.78128 0.28431
 H85 H 0.04175 0.73794 0.42648
 Cu86 Cu 0.08439 0.85415 0.30848
 Cu87 Cu 0.12612 0.81739 0.41750
 Cu88 Cu 0.14197 0.93206 0.39144
 N89 N 0.10632 0.91455 0.29018
 N90 N 0.12655 0.94571 0.32322
 C91 C 0.13505 0.98526 0.30152
 C92 C 0.11991 0.97818 0.25206
 C93 C 0.10214 0.93289 0.24606
 H94 H 0.15210 1.01634 0.32015
 H95 H 0.08654 0.91498 0.21229
 N96 N 0.17369 0.90540 0.45066
 N97 N 0.16940 0.86110 0.45938
 C98 C 0.20038 0.85212 0.49852
 C99 C 0.22554 0.89289 0.51514
 C100 C 0.20743 0.92595 0.48426
 H101 H 0.20515 0.81818 0.51278
 H102 H 0.22021 0.96165 0.48441
 H103 H 0.09384 0.87612 0.39651
 H104 H 0.15482 0.86425 0.36980
 C105 C 0.10168 0.16311 0.15109
 C106 C 0.10036 0.13143 0.18771
 C107 C 0.12744 0.08999 0.18448
 C108 C 0.15795 0.08147 0.14538
 C109 C 0.16222 0.11456 0.11059
 C110 C 0.13339 0.15493 0.11310
 H111 H 0.07662 0.13809 0.21765
 H112 H 0.18018 0.05025 0.14332
 H113 H 0.13573 0.18002 0.08551
 C114 C 0.41988 0.84580 0.63504
 C115 C 0.37526 0.83885 0.60514
 C116 C 0.33696 0.87156 0.60697
 C117 C 0.34243 0.91022 0.64119
 C118 C 0.38655 0.91713 0.67194
 C119 C 0.42574 0.88565 0.66736
 H120 H 0.37108 0.80886 0.57899
 H121 H 0.31252 0.93500 0.64382
 H122 H 0.46013 0.89116 0.69046
 C123 C 0.90911 0.65374 0.37923
 C124 C 0.90494 0.62221 0.33765
 C125 C 0.86714 0.58805 0.33215
 C126 C 0.83283 0.58619 0.36801
 C127 C 0.83669 0.61722 0.40993
 C128 C 0.87544 0.65062 0.41564
 H129 H 0.93143 0.62389 0.30989
 H130 H 0.80355 0.55986 0.36372
 H131 H 0.87979 0.67400 0.44840
 C132 C 0.57580 0.34819 -0.14457
 C133 C 0.61721 0.35346 -0.10996
 C134 C 0.65023 0.39137 -0.11039
 C135 C 0.64178 0.42395 -0.14584
 C136 C 0.60113 0.41850 -0.18117
 C137 C 0.56814 0.38078 -0.18021
 H138 H 0.62369 0.32823 -0.08258
 H139 H 0.66690 0.45351 -0.14604
 H140 H 0.53651 0.37679 -0.20726
 C141 C 0.04227 0.21590 0.11191
 C142 C 0.06930 0.20427 0.15241
 H143 H 0.04401 0.19416 0.07816
 H144 H 0.06500 0.22267 0.18763
 C145 C 0.45284 0.76629 0.62817
 C146 C 0.46109 0.81229 0.63224
 H147 H 0.41521 0.75274 0.62846
 H148 H 0.49899 0.82573 0.63664
 C149 C 0.96220 0.71385 0.34918
 C150 C 0.94973 0.68880 0.38607
 H151 H 0.94063 0.70951 0.31400
 H152 H 0.96758 0.69551 0.42272
 C153 C 0.52694 0.29210 -0.10312
 C154 C 0.54079 0.30841 -0.14474
 H155 H 0.54009 0.30919 -0.06799
 H156 H 0.52408 0.29400 -0.17982
 C157 C 0.12301 0.01083 0.21322
 C158 C 0.12467 0.05694 0.22322
 H159 H 0.12190 -0.00339 0.17547
 H160 H 0.12108 0.07109 0.26047
 C161 C 0.62813 0.46347 -0.24749
 C162 C 0.59234 0.45257 -0.21865
 H163 H 0.66344 0.44554 -0.24411
 H164 H 0.55519 0.46649 -0.22416
 C165 C 0.35461 0.97231 0.73445
 C166 C 0.39247 0.95699 0.70896
 H167 H 0.31864 0.95487 0.72876
 H168 H 0.42944 0.97182 0.71767
 C169 C 0.90319 0.53166 0.27385
 C170 C 0.86316 0.55370 0.28949
 H171 H 0.93950 0.53855 0.29305
 H172 H 0.82629 0.54351 0.27351
 C173 C 0.23002 0.14054 0.06401
 C174 C 0.19743 0.10721 0.07215
 H175 H 0.23170 0.17274 0.08699
 H176 H 0.19868 0.07328 0.05268
 C177 C 0.78565 0.64797 0.47643
 C178 C 0.80128 0.61212 0.44806
 H179 H 0.79784 0.68308 0.47124
 H180 H 0.78545 0.57781 0.45078
 C181 C 0.72201 0.36300 -0.06020
 C182 C 0.69277 0.39819 -0.07315
 H183 H 0.71600 0.32876 -0.07871
 H184 H 0.70171 0.43326 -0.05808
 C185 C 0.26671 0.89997 0.55370
 C186 C 0.29201 0.86451 0.57247
 H187 H 0.27869 0.93546 0.56396
 H188 H 0.28229 0.82917 0.55898
   
