data_POSCAR
  _audit_creation_date              2014-09-24
  _audit_creation_method            'ToBaCCo'
  _symmetry_space_group_name_H-M    'P1'
  _symmetry_Int_Tables_number       1
  _symmetry_cell_setting            triclinic
  loop_
  _symmetry_equiv_pos_as_xyz
 x,y,z
_cell_length_a 45.1583
_cell_length_b 48.7714
_cell_length_c 29.6793
_cell_angle_alpha 90.122200
_cell_angle_beta 89.949300
_cell_angle_gamma 90.116800
loop_
  _atom_site_label
  _atom_site_type_symbol
  _atom_site_fract_x
  _atom_site_fract_y
  _atom_site_fract_z
C1 C 0.17380 0.22871 0.19271
 C2 C 0.17351 0.25671 0.18929
 C3 C 0.20204 0.26550 0.19843
 N4 N 0.21987 0.24386 0.20693
 C5 C 0.20268 0.22126 0.20295
 C6 C 0.21166 0.29300 0.19616
 C7 C 0.23842 0.30197 0.21585
 C8 C 0.25160 0.32729 0.20860
 C9 C 0.27556 0.32884 0.23716
 C10 C 0.27638 0.30433 0.26072
 N11 N 0.25367 0.28813 0.24763
 C12 C 0.29620 0.29824 0.29592
 C13 C 0.30017 0.27153 0.31277
 C14 C 0.31523 0.26522 0.35197
 C15 C 0.31610 0.23718 0.35437
 C16 C 0.30220 0.22728 0.31589
 N17 N 0.29217 0.24837 0.29074
 C18 C 0.30048 0.19934 0.30280
 C19 C 0.27997 0.19052 0.26944
 C20 C 0.28240 0.16652 0.24448
 C21 C 0.25777 0.16493 0.21754
 C22 C 0.24096 0.18810 0.22634
 N23 N 0.25481 0.20381 0.25762
 C24 C 0.21329 0.19400 0.20600
 H25 H 0.15487 0.21537 0.18806
 H26 H 0.15445 0.26920 0.18130
 H27 H 0.24618 0.22130 0.27298
 H28 H 0.24440 0.34320 0.18575
 H29 H 0.29037 0.34618 0.24069
 H30 H 0.32463 0.27936 0.37625
 H31 H 0.32606 0.22544 0.38126
 H32 H 0.25304 0.14876 0.19355
 H33 H 0.24695 0.27011 0.26333
 H34 H 0.30027 0.15178 0.24507
 C35 C 0.82283 0.23969 0.17613
 C36 C 0.82391 0.26780 0.17633
 C37 C 0.79723 0.27670 0.19412
 N38 N 0.77993 0.25502 0.20484
 C39 C 0.79564 0.23235 0.19431
 C40 C 0.78846 0.30439 0.19758
 C41 C 0.76197 0.31265 0.21880
 C42 C 0.74879 0.33809 0.21346
 C43 C 0.72474 0.33869 0.24190
 C44 C 0.72414 0.31372 0.26419
 N45 N 0.74681 0.29792 0.24971
 C46 C 0.70464 0.30688 0.29970
 C47 C 0.70117 0.27972 0.31519
 C48 C 0.68824 0.27249 0.35578
 C49 C 0.68756 0.24441 0.35678
 C50 C 0.69964 0.23537 0.31637
 N51 N 0.70823 0.25705 0.29115
 C52 C 0.70160 0.20757 0.30244
 C53 C 0.72078 0.19950 0.26676
 C54 C 0.71888 0.17494 0.24317
 C55 C 0.74254 0.17413 0.21414
 C56 C 0.75784 0.19859 0.21953
 N57 N 0.74445 0.21394 0.25169
 C58 C 0.78468 0.20528 0.19744
 H59 H 0.83997 0.22630 0.16334
 H60 H 0.84208 0.28023 0.16407
 H61 H 0.75288 0.23178 0.26613
 H62 H 0.75591 0.35456 0.19157
 H63 H 0.70974 0.35577 0.24621
 H64 H 0.68037 0.28605 0.38209
 H65 H 0.67923 0.23208 0.38430
 H66 H 0.74770 0.15730 0.19173
 H67 H 0.75367 0.27959 0.26417
 H68 H 0.70228 0.15906 0.24656
 C69 C 0.66906 0.72897 0.70488
 C70 C 0.66780 0.75707 0.70359
 C71 C 0.69607 0.76649 0.71320
 N72 N 0.71456 0.74515 0.72015
 C73 C 0.69809 0.72221 0.71512
 C74 C 0.70493 0.79426 0.71253
 C75 C 0.73274 0.80322 0.72870
 C76 C 0.74490 0.82893 0.72082
 C77 C 0.77090 0.83021 0.74482
 C78 C 0.77393 0.80523 0.76651
 N79 N 0.75060 0.78892 0.75660
 C80 C 0.79662 0.79877 0.79729
 C81 C 0.80258 0.77176 0.81140
 C82 C 0.82024 0.76500 0.84777
 C83 C 0.82168 0.73694 0.84864
 C84 C 0.80541 0.72747 0.81205
 N85 N 0.79348 0.74887 0.78957
 C86 C 0.80259 0.69960 0.79877
 C87 C 0.78001 0.69110 0.76842
 C88 C 0.78012 0.66680 0.74387
 C89 C 0.75374 0.66553 0.72097
 C90 C 0.73843 0.68930 0.73130
 N91 N 0.75457 0.70487 0.76007
 C92 C 0.70958 0.69535 0.71595
 H93 H 0.65079 0.71511 0.69847
 H94 H 0.64836 0.76916 0.69611
 H95 H 0.74725 0.72240 0.77674
 H96 H 0.73582 0.84519 0.70032
 H97 H 0.78572 0.84766 0.74652
 H98 H 0.83075 0.77885 0.87142
 H99 H 0.83332 0.72494 0.87357
 H100 H 0.74671 0.64906 0.69891
 H101 H 0.74555 0.77043 0.77221
 H102 H 0.79744 0.65152 0.74246
 C103 C 0.32759 0.76973 0.68822
 C104 C 0.32689 0.74160 0.68759
 C105 C 0.29872 0.73396 0.70137
 N106 N 0.28224 0.75636 0.71046
 C107 C 0.29985 0.77821 0.70243
 C108 C 0.28766 0.70692 0.70164
 C109 C 0.26047 0.69991 0.72217
 C110 C 0.24478 0.67601 0.71381
 C111 C 0.22065 0.67628 0.74209
 C112 C 0.22255 0.70014 0.76760
 N113 N 0.24672 0.71460 0.75478
 C114 C 0.20306 0.70767 0.80308
 C115 C 0.20134 0.73526 0.81802
 C116 C 0.19071 0.74360 0.85970
 C117 C 0.19106 0.77167 0.85966
 C118 C 0.20194 0.77964 0.81799
 N119 N 0.20865 0.75734 0.79273
 C120 C 0.20468 0.80714 0.80313
 C121 C 0.22455 0.81400 0.76785
 C122 C 0.22375 0.83787 0.74239
 C123 C 0.24831 0.83759 0.71500
 C124 C 0.26298 0.81327 0.72359
 N125 N 0.24832 0.79889 0.75555
 C126 C 0.29019 0.80562 0.70406
 H127 H 0.34621 0.78246 0.67865
 H128 H 0.34491 0.72833 0.67754
 H129 H 0.25591 0.78129 0.77164
 H130 H 0.25012 0.66008 0.68971
 H131 H 0.20366 0.66063 0.74362
 H132 H 0.18370 0.73078 0.88745
 H133 H 0.18440 0.78474 0.88738
 H134 H 0.25460 0.85342 0.69131
 H135 H 0.25501 0.73203 0.77075
 H136 H 0.20731 0.85397 0.74354
 O137 O 1.02520 0.03716 -0.00744
 O138 O 0.96522 -0.00696 -0.04952
 O139 O 0.96819 0.04043 -0.00757
 O140 O 1.02267 -0.00995 -0.04832
 O141 O 1.02073 -0.03120 0.01716
 O142 O 0.96566 0.01870 0.05754
 O143 O 0.96334 -0.02824 0.01593
 O144 O 1.02339 0.01623 0.05833
 Cu145 Cu 0.99541 0.01725 -0.03482
 Cu146 Cu 0.99313 -0.00824 0.04385
 C147 C 1.03442 0.03446 0.03270
 C148 C 0.95419 -0.02533 -0.02424
 C149 C 0.95783 0.03828 0.03208
 C150 C 1.03096 -0.02926 -0.02260
 O151 O 0.46523 0.48748 0.46206
 O152 O 0.52240 0.53413 0.50550
 O153 O 0.52271 0.48761 0.46183
 O154 O 0.46476 0.53319 0.50743
 O155 O 0.46589 0.51053 0.57162
 O156 O 0.52266 0.46447 0.52562
 O157 O 0.52357 0.51121 0.56943
 O158 O 0.46529 0.46486 0.52634
 Cu159 Cu 0.49377 0.51293 0.47784
 Cu160 Cu 0.49452 0.48553 0.55473
 C161 C 0.45546 0.46817 0.48659
 C162 C 0.53274 0.53081 0.54486
 C163 C 0.53217 0.46790 0.48575
 C164 C 0.45542 0.52962 0.54742
 O165 O -0.02295 0.52821 -0.00663
 O166 O 0.03325 0.48438 0.04600
 O167 O 0.03429 0.52904 -0.00226
 O168 O -0.02432 0.48306 0.04003
 O169 O -0.02094 0.45829 -0.02203
 O170 O 0.03708 0.50452 -0.06464
 O171 O 0.03649 0.45991 -0.01637
 O172 O -0.02059 0.50345 -0.06883
 Cu173 Cu 0.00479 0.50858 0.02558
 Cu174 Cu 0.00832 0.47909 -0.04922
 C175 C -0.03137 0.52344 -0.04670
 C176 C 0.04452 0.46465 0.02395
 C177 C 0.04554 0.52476 -0.04090
 C178 C -0.03260 0.46274 0.01624
 O179 O 0.47760 1.02697 0.49282
 O180 O 0.53388 0.98069 0.54003
 O181 O 0.53499 1.02685 0.49520
 O182 O 0.47630 0.98136 0.53775
 O183 O 0.47766 0.95769 0.47436
 O184 O 0.53584 1.00379 0.43120
 O185 O 0.53510 0.95773 0.47595
 O186 O 0.47805 1.00338 0.42931
 Cu187 Cu 0.50569 1.00628 0.52286
 Cu188 Cu 0.50682 0.97836 0.44626
 C189 C 0.46808 1.02302 0.45306
 C190 C 0.54398 0.96115 0.51618
 C191 C 0.54524 1.02333 0.45575
 C192 C 0.46698 0.96170 0.51344
 C193 C 1.19221 0.14745 0.20962
 C194 C 1.17443 0.12674 0.19123
 C195 C 1.16074 0.13021 0.14919
 C196 C 1.16637 0.15444 0.12493
 C197 C 1.18385 0.17522 0.14343
 C198 C 1.19657 0.17234 0.18647
 C199 C 1.14094 0.10819 0.13193
 C200 C 1.12049 0.11236 0.09988
 C201 C 1.10000 0.09092 0.08303
 C202 C 1.08784 0.09416 0.03992
 C203 C 1.06712 0.07546 0.02331
 C204 C 1.05772 0.05320 0.04973
 C205 C 1.06998 0.04979 0.09288
 C206 C 1.09095 0.06846 0.10942
 H207 H 1.20157 0.14442 0.24282
 H208 H 1.17083 0.10816 0.21043
 H209 H 1.15770 0.15753 0.09142
 H210 H 1.18787 0.19347 0.12358
 H211 H 1.14293 0.08812 0.14709
 H212 H 1.11831 0.13237 0.08468
 H213 H 1.09428 0.11138 0.01904
 H214 H 1.05805 0.07878 -0.00999
 H215 H 1.06305 0.03294 0.11414
 H216 H 1.09921 0.06567 0.14329
 C217 C 0.68217 0.65104 0.72571
 C218 C 0.66426 0.63000 0.70879
 C219 C 0.65490 0.63023 0.66368
 C220 C 0.66480 0.65151 0.63530
 C221 C 0.68269 0.67253 0.65226
 C222 C 0.69119 0.67262 0.69769
 C223 C 0.63523 0.60787 0.64746
 C224 C 0.61691 0.61069 0.61219
 C225 C 0.59648 0.58899 0.59577
 C226 C 0.58507 0.59141 0.55201
 C227 C 0.56482 0.57227 0.53533
 C228 C 0.55525 0.55028 0.56220
 C229 C 0.56671 0.54770 0.60600
 C230 C 0.58706 0.56687 0.62272
 H231 H 0.68876 0.65070 0.76079
 H232 H 0.65728 0.61371 0.73121
 H233 H 0.65918 0.65191 0.59991
 H234 H 0.68994 0.68878 0.62998
 H235 H 0.63549 0.58889 0.66619
 H236 H 0.61656 0.62989 0.59401
 H237 H 0.59178 0.60829 0.53060
 H238 H 0.55641 0.57494 0.50147
 H239 H 0.55960 0.53110 0.62766
 H240 H 0.59461 0.56459 0.65704
 C241 C -0.17700 0.34401 0.20648
 C242 C -0.15807 0.36385 0.18850
 C243 C -0.15391 0.36596 0.14171
 C244 C -0.16988 0.34813 0.11313
 C245 C -0.18870 0.32817 0.13123
 C246 C -0.19216 0.32587 0.17800
 C247 C -0.13297 0.38709 0.12465
 C248 C -0.12153 0.38711 0.08286
 C249 C -0.09930 0.40734 0.06660
 C250 C -0.08356 0.40129 0.02701
 C251 C -0.06210 0.41933 0.01051
 C252 C -0.05583 0.44395 0.03327
 C253 C -0.07186 0.45032 0.07249
 C254 C -0.09351 0.43235 0.08885
 H255 H -0.17959 0.34257 0.24269
 H256 H -0.14635 0.37741 0.21133
 H257 H -0.16828 0.34953 0.07689
 H258 H -0.20061 0.31450 0.10883
 H259 H -0.12559 0.40226 0.14877
 H260 H -0.12726 0.37075 0.05983
 H261 H -0.08767 0.38234 0.00891
 H262 H -0.05019 0.41383 -0.01988
 H263 H -0.06779 0.46930 0.09048
 H264 H -0.10568 0.43844 0.11856
 C265 C 0.32235 0.84717 0.70994
 C266 C 0.34085 0.86685 0.69050
 C267 C 0.34612 0.86695 0.64381
 C268 C 0.33166 0.84724 0.61675
 C269 C 0.31334 0.82743 0.63633
 C270 C 0.30882 0.82714 0.68304
 C271 C 0.36672 0.88792 0.62533
 C272 C 0.37847 0.88697 0.58374
 C273 C 0.40040 0.90710 0.56621
 C274 C 0.41575 0.90062 0.52640
 C275 C 0.43710 0.91845 0.50893
 C276 C 0.44368 0.94321 0.53100
 C277 C 0.42801 0.95003 0.57034
 C278 C 0.40645 0.93233 0.58760
 H279 H 0.31893 0.84727 0.74607
 H280 H 0.35139 0.88187 0.71217
 H281 H 0.33410 0.84694 0.58056
 H282 H 0.30267 0.81226 0.61509
 H283 H 0.37349 0.90393 0.64832
 H284 H 0.37318 0.86997 0.56179
 H285 H 0.41144 0.88150 0.50893
 H286 H 0.44875 0.91264 0.47847
 H287 H 0.43231 0.96916 0.58776
 H288 H 0.39464 0.93880 0.61741
 C289 C -0.14637 0.68601 -0.18226
 C290 C -0.12639 0.66714 -0.16442
 C291 C -0.13613 0.64143 -0.14946
 C292 C -0.16640 0.63495 -0.15237
 C293 C -0.18651 0.65397 -0.16968
 C294 C -0.17689 0.67995 -0.18465
 C295 C -0.11445 0.62262 -0.12865
 C296 C -0.11708 0.59525 -0.12977
 C297 C -0.09520 0.57700 -0.10809
 C298 C -0.08897 0.55137 -0.12740
 C299 C -0.06813 0.53392 -0.10767
 C300 C -0.05364 0.54158 -0.06767
 C301 C -0.06047 0.56697 -0.04778
 C302 C -0.08096 0.58452 -0.06781
 H303 H -0.13782 0.70533 -0.19472
 H304 H -0.10315 0.67259 -0.16253
 H305 H -0.17477 0.61559 -0.13990
 H306 H -0.20982 0.64869 -0.16980
 H307 H -0.09495 0.63175 -0.11349
 H308 H -0.13484 0.58586 -0.14890
 H309 H -0.09993 0.54503 -0.15818
 H310 H -0.06348 0.51439 -0.12358
 H311 H -0.04979 0.57341 -0.01686
 H312 H -0.08592 0.60381 -0.05135
 C313 C 0.35068 1.18686 0.32789
 C314 C 0.37030 1.16820 0.34717
 C315 C 0.36064 1.14205 0.35997
 C316 C 0.33074 1.13497 0.35374
 C317 C 0.31096 1.15377 0.33492
 C318 C 0.32056 1.18011 0.32178
 C319 C 0.38210 1.12317 0.38112
 C320 C 0.38029 1.09582 0.37759
 C321 C 0.40260 1.07734 0.39773
 C322 C 0.40909 1.05240 0.37633
 C323 C 0.43044 1.03476 0.39414
 C324 C 0.44531 1.04152 0.43426
 C325 C 0.43825 1.06619 0.45629
 C326 C 0.41716 1.08395 0.43820
 H327 H 0.35932 1.20648 0.31690
 H328 H 0.39326 1.17411 0.35157
 H329 H 0.32238 1.11522 0.36446
 H330 H 0.28788 1.14794 0.33188
 H331 H 0.40104 1.13228 0.39785
 H332 H 0.36314 1.08668 0.35691
 H333 H 0.39793 1.04676 0.34535
 H334 H 0.43521 1.01579 0.37659
 H335 H 0.44919 1.07190 0.48740
 H336 H 0.41205 1.10266 0.45626
 C337 C 1.19894 -0.14598 -0.16657
 C338 C 1.18132 -0.12547 -0.14754
 C339 C 1.15157 -0.13058 -0.13701
 C340 C 1.13955 -0.15654 -0.14654
 C341 C 1.15704 -0.17699 -0.16596
 C342 C 1.18706 -0.17209 -0.17646
 C343 C 1.13332 -0.10812 -0.11816
 C344 C 1.11016 -0.11260 -0.09086
 C345 C 1.09123 -0.09032 -0.07304
 C346 C 1.07634 -0.09428 -0.03206
 C347 C 1.05727 -0.07419 -0.01516
 C348 C 1.05230 -0.04989 -0.03936
 C349 C 1.06717 -0.04594 -0.08047
 C350 C 1.08647 -0.06591 -0.09714
 H351 H 1.22208 -0.14151 -0.17278
 H352 H 1.19107 -0.10559 -0.14058
 H353 H 1.11640 -0.16090 -0.14030
 H354 H 1.14669 -0.19641 -0.17424
 H355 H 1.13999 -0.08728 -0.12567
 H356 H 1.10539 -0.13327 -0.07967
 H357 H 1.07943 -0.11301 -0.01311
 H358 H 1.04599 -0.07793 0.01646
 H359 H 1.06368 -0.02751 -0.10002
 H360 H 1.09692 -0.06251 -0.12947
 C361 C 0.70041 0.35226 0.33968
 C362 C 0.68339 0.37299 0.35943
 C363 C 0.65249 0.37044 0.36202
 C364 C 0.63877 0.34713 0.34332
 C365 C 0.65573 0.32666 0.32291
 C366 C 0.68671 0.32895 0.32113
 C367 C 0.63494 0.39258 0.38317
 C368 C 0.61035 0.38741 0.40696
 C369 C 0.59215 0.40913 0.42801
 C370 C 0.57630 0.40299 0.46735
 C371 C 0.55755 0.42243 0.48683
 C372 C 0.55375 0.44825 0.46674
 C373 C 0.56968 0.45446 0.42735
 C374 C 0.58885 0.43514 0.40826
 H375 H 0.72428 0.35440 0.33877
 H376 H 0.69439 0.39086 0.37334
 H377 H 0.61492 0.34494 0.34370
 H378 H 0.64470 0.30902 0.30833
 H379 H 0.64333 0.41336 0.38097
 H380 H 0.60385 0.36633 0.41298
 H381 H 0.57831 0.38302 0.48294
 H382 H 0.54539 0.41694 0.51697
 H383 H 0.56709 0.47416 0.41104
 H384 H 0.60026 0.44026 0.37730
 C385 C 0.84533 -0.17702 -0.19810
 C386 C 0.86324 -0.15586 -0.18170
 C387 C 0.85179 -0.13636 -0.15154
 C388 C 0.82177 -0.13798 -0.13896
 C389 C 0.80378 -0.15901 -0.15577
 C390 C 0.81552 -0.17873 -0.18520
 C391 C 0.87158 -0.11434 -0.13485
 C392 C 0.86832 -0.10239 -0.09443
 C393 C 0.88946 -0.08168 -0.07703
 C394 C 0.89476 -0.08021 -0.03053
 C395 C 0.91554 -0.06169 -0.01323
 C396 C 0.93103 -0.04390 -0.04210
 C397 C 0.92488 -0.04468 -0.08850
 C398 C 0.90435 -0.06339 -0.10583
 H399 H 0.85464 -0.19202 -0.22101
 H400 H 0.88620 -0.15490 -0.19217
 H401 H 0.81202 -0.12285 -0.11678
 H402 H 0.78072 -0.15999 -0.14581
 H403 H 0.89068 -0.10928 -0.15532
 H404 H 0.85107 -0.10943 -0.07185
 H405 H 0.88332 -0.09390 -0.00764
 H406 H 0.91963 -0.06146 0.02272
 H407 H 0.93631 -0.03113 -0.11159
 H408 H 0.90009 -0.06341 -0.14171
 C409 C 0.34285 0.32561 0.29667
 C410 C 0.36075 0.34619 0.31493
 C411 C 0.35099 0.36172 0.35194
 C412 C 0.32250 0.35681 0.36958
 C413 C 0.30449 0.33635 0.35098
 C414 C 0.31469 0.32056 0.31469
 C415 C 0.37084 0.38316 0.37039
 C416 C 0.37023 0.39137 0.41354
 C417 C 0.39137 0.41177 0.43191
 C418 C 0.39949 0.41031 0.47747
 C419 C 0.42015 0.42871 0.49546
 C420 C 0.43278 0.44923 0.46830
 C421 C 0.42392 0.45121 0.42303
 C422 C 0.40342 0.43273 0.40503
 H423 H 0.35092 0.31355 0.26856
 H424 H 0.38247 0.34973 0.30053
 H425 H 0.31393 0.36892 0.39723
 H426 H 0.28269 0.33269 0.36500
 H427 H 0.38788 0.39102 0.34819
 H428 H 0.35526 0.38151 0.43701
 H429 H 0.39026 0.39453 0.49898
 H430 H 0.42636 0.42676 0.53054
 H431 H 0.43301 0.46693 0.40130
 H432 H 0.39692 0.43506 0.37017
 C433 C 0.15492 0.69338 -0.16568
 C434 C 0.13693 0.67386 -0.14483
 C435 C 0.14790 0.64775 -0.13469
 C436 C 0.17753 0.64162 -0.14519
 C437 C 0.19565 0.66123 -0.16581
 C438 C 0.18467 0.68749 -0.17644
 C439 C 0.12803 0.62788 -0.11204
 C440 C 0.13088 0.60062 -0.11595
 C441 C 0.10970 0.58115 -0.09518
 C442 C 0.10436 0.55590 -0.11642
 C443 C 0.08371 0.53747 -0.09863
 C444 C 0.06832 0.54374 -0.05873
 C445 C 0.07441 0.56863 -0.03663
 C446 C 0.09487 0.58716 -0.05464
 H447 H 0.14527 0.71301 -0.17424
 H448 H 0.11418 0.67910 -0.13708
 H449 H 0.18703 0.62199 -0.13650
 H450 H 0.21862 0.65609 -0.17205
 H451 H 0.10921 0.63616 -0.09396
 H452 H 0.14785 0.59223 -0.13775
 H453 H 0.11574 0.55069 -0.14741
 H454 H 0.07968 0.51838 -0.11629
 H455 H 0.06309 0.57398 -0.00566
 H456 H 0.09916 0.60606 -0.03660
 C457 C 0.65329 1.19300 0.33281
 C458 C 0.63533 1.17337 0.35351
 C459 C 0.64669 1.14760 0.36491
 C460 C 0.67667 1.14199 0.35627
 C461 C 0.69478 1.16174 0.33602
 C462 C 0.68337 1.18756 0.32369
 C463 C 0.62685 1.12743 0.38682
 C464 C 0.62995 1.10024 0.38209
 C465 C 0.60893 1.08043 0.40229
 C466 C 0.60328 1.05557 0.38000
 C467 C 0.58275 1.03688 0.39745
 C468 C 0.56788 1.04248 0.43805
 C469 C 0.57431 1.06698 0.46113
 C470 C 0.59458 1.08577 0.44344
 H471 H 0.64336 1.21226 0.32292
 H472 H 0.61230 1.17819 0.35992
 H473 H 0.68638 1.12262 0.36599
 H474 H 0.71797 1.15701 0.33095
 H475 H 0.60787 1.13540 0.40491
 H476 H 0.64706 1.09223 0.36013
 H477 H 0.61431 1.05088 0.34849
 H478 H 0.57844 1.01810 0.37904
 H479 H 0.56336 1.07183 0.49263
 H480 H 0.59911 1.10437 0.46219
 C481 C 0.18640 0.30912 0.12600
 C482 C 0.16796 0.32742 0.10329
 C483 C 0.15592 0.35021 0.12569
 C484 C 0.16253 0.35417 0.17166
 C485 C 0.18094 0.33579 0.19438
 C486 C 0.19294 0.31311 0.17174
 C487 C 0.13555 0.36842 0.10049
 C488 C 0.12978 0.39443 0.11241
 C489 C 0.10847 0.41224 0.08824
 C490 C 0.09622 0.43464 0.11137
 C491 C 0.07562 0.45173 0.09044
 C492 C 0.06694 0.44693 0.04565
 C493 C 0.07969 0.42489 0.02206
 C494 C 0.10030 0.40778 0.04301
 H495 H 0.19542 0.29168 0.10801
 H496 H 0.16306 0.32375 0.06807
 H497 H 0.15297 0.37089 0.19065
 H498 H 0.18545 0.33896 0.22985
 H499 H 0.12500 0.35973 0.07103
 H500 H 0.14039 0.40308 0.14186
 H501 H 0.10230 0.43872 0.14605
 H502 H 0.06635 0.46860 0.10953
 H503 H 0.07372 0.42082 -0.01266
 H504 H 0.10995 0.39139 0.02336
 C505 C 0.67320 0.83613 0.71927
 C506 C 0.65456 0.85583 0.70035
 C507 C 0.64720 0.85478 0.65441
 C508 C 0.65837 0.83311 0.62792
 C509 C 0.67700 0.81343 0.64690
 C510 C 0.68462 0.81486 0.69263
 C511 C 0.62719 0.87608 0.63597
 C512 C 0.62591 0.88266 0.59211
 C513 C 0.60541 0.90353 0.57360
 C514 C 0.59737 0.90174 0.52804
 C515 C 0.57769 0.92060 0.50927
 C516 C 0.56582 0.94190 0.53560
 C517 C 0.57448 0.94417 0.58094
 C518 C 0.59411 0.92524 0.59976
 H519 H 0.67878 0.83747 0.75470
 H520 H 0.64605 0.87209 0.72161
 H521 H 0.65247 0.83092 0.59280
 H522 H 0.68553 0.79704 0.62592
 H523 H 0.61325 0.88676 0.65987
 H524 H 0.63983 0.87200 0.56817
 H525 H 0.60599 0.88541 0.50702
 H526 H 0.57160 0.91833 0.47417
 H527 H 0.56595 0.96049 0.60203
 H528 H 0.60056 0.92797 0.63456
 C529 C 0.79231 0.17071 0.13568
 C530 C 0.80874 0.14962 0.11581
 C531 C 0.83561 0.14125 0.13495
 C532 C 0.84543 0.15367 0.17501
 C533 C 0.82855 0.17414 0.19561
 C534 C 0.80198 0.18292 0.17595
 C535 C 0.85294 0.11924 0.11338
 C536 C 0.88217 0.12160 0.10719
 C537 C 0.89998 0.09978 0.08599
 C538 C 0.92233 0.10689 0.05534
 C539 C 0.94042 0.08668 0.03646
 C540 C 0.93712 0.05915 0.04924
 C541 C 0.91486 0.05202 0.08015
 C542 C 0.89615 0.07213 0.09796
 H543 H 0.77196 0.17741 0.11991
 H544 H 0.80081 0.14020 0.08500
 H545 H 0.86591 0.14722 0.19069
 H546 H 0.83630 0.18336 0.22669
 H547 H 0.84125 0.10151 0.10026
 H548 H 0.89322 0.14061 0.11606
 H549 H 0.92575 0.12813 0.04601
 H550 H 0.95766 0.09268 0.01305
 H551 H 0.91199 0.03090 0.09056
 H552 H 0.87936 0.06624 0.12217
 C553 C 0.31102 0.68758 0.63185
 C554 C 0.32882 0.66816 0.61031
 C555 C 0.34046 0.64587 0.63430
 C556 C 0.33375 0.64335 0.68052
 C557 C 0.31598 0.66284 0.70204
 C558 C 0.30480 0.68525 0.67800
 C559 C 0.36090 0.62688 0.61065
 C560 C 0.36678 0.60136 0.62484
 C561 C 0.38894 0.58310 0.60327
 C562 C 0.40077 0.56159 0.62884
 C563 C 0.42224 0.54422 0.61066
 C564 C 0.43227 0.54782 0.56622
 C565 C 0.41999 0.56897 0.54017
 C566 C 0.39848 0.58638 0.55839
 H567 H 0.30251 0.70473 0.61273
 H568 H 0.33376 0.67069 0.57484
 H569 H 0.34294 0.62703 0.70069
 H570 H 0.31159 0.66086 0.73778
 H571 H 0.37171 0.63469 0.58078
 H572 H 0.35580 0.59357 0.65459
 H573 H 0.39368 0.55844 0.66333
 H574 H 0.43110 0.52804 0.63159
 H575 H 0.42700 0.57208 0.50565
 H576 H 0.38927 0.60207 0.53693
   
