data_POSCAR
  _audit_creation_date              2014-09-24
  _audit_creation_method            'ToBaCCo'
  _symmetry_space_group_name_H-M    'P1'
  _symmetry_Int_Tables_number       1
  _symmetry_cell_setting            triclinic
  loop_
  _symmetry_equiv_pos_as_xyz
 x,y,z
_cell_length_a 40.8257
_cell_length_b 40.6556
_cell_length_c 12.6394
_cell_angle_alpha 89.873200
_cell_angle_beta 89.972000
_cell_angle_gamma 120.136700
loop_
  _atom_site_label
  _atom_site_type_symbol
  _atom_site_fract_x
  _atom_site_fract_y
  _atom_site_fract_z
C1 C 0.34272 0.53677 0.59009
 C2 C 0.35809 0.53527 0.49158
 C3 C 0.33997 0.53391 0.39604
 C4 C 0.30630 0.53582 0.39779
 C5 C 0.29019 0.53709 0.49549
 C6 C 0.31001 0.54100 0.59074
 C7 C 0.29778 0.55194 0.68123
 C8 C 0.26261 0.54976 0.68353
 C9 C 0.23812 0.53623 0.59581
 C10 C 0.25396 0.53430 0.49804
 C11 C 0.28889 0.53790 0.30423
 C12 C 0.25364 0.53529 0.30677
 C13 C 0.23398 0.52977 0.40282
 C14 C 0.19622 0.52286 0.40602
 C15 C 0.18051 0.52399 0.50430
 C16 C 0.19967 0.52773 0.60048
 H17 H 0.31565 0.56315 0.75023
 H18 H 0.25521 0.55960 0.75406
 H19 H 0.30247 0.54189 0.22803
 H20 H 0.24227 0.53818 0.23239
 H21 H 0.38264 0.53163 0.48896
 H22 H 0.15127 0.51744 0.50650
 C23 C 0.53209 -0.29987 0.59303
 C24 C 0.53074 -0.31704 0.49635
 C25 C 0.52817 -0.30135 0.39991
 C26 C 0.52180 -0.26986 0.40195
 C27 C 0.52200 -0.25279 0.50031
 C28 C 0.52764 -0.26757 0.59595
 C29 C 0.52739 -0.25047 0.69228
 C30 C 0.52168 -0.21954 0.69497
 C31 C 0.51466 -0.20519 0.60187
 C32 C 0.51551 -0.22145 0.50344
 C33 C 0.51247 -0.25658 0.31028
 C34 C 0.50800 -0.22491 0.31263
 C35 C 0.50880 -0.20716 0.40844
 C36 C 0.50241 -0.17594 0.41220
 C37 C 0.50271 -0.15966 0.50966
 C38 C 0.50680 -0.17497 0.60452
 H39 H 0.53099 -0.26115 0.76717
 H40 H 0.52289 -0.20698 0.77124
 H41 H 0.50698 -0.27113 0.23557
 H42 H 0.50331 -0.21502 0.23789
 H43 H 0.53512 -0.34126 0.49638
 H44 H 0.49610 -0.13694 0.51225
 C45 C 1.16491 0.68320 0.40758
 C46 C 1.14996 0.66561 0.50521
 C47 C 1.16885 0.68155 0.60077
 C48 C 1.20598 0.71383 0.59604
 C49 C 1.22028 0.73332 0.49887
 C50 C 1.20030 0.71735 0.40395
 C51 C 1.21741 0.73483 0.30765
 C52 C 1.25166 0.76900 0.30557
 C53 C 1.26978 0.78795 0.39970
 C54 C 1.25514 0.76854 0.49671
 C55 C 1.23089 0.72525 0.68253
 C56 C 1.26509 0.75933 0.68013
 C57 C 1.27558 0.78360 0.59167
 C58 C 1.30775 0.82085 0.59286
 C59 C 1.32308 0.83884 0.49544
 C60 C 1.30388 0.82391 0.39931
 H61 H 1.20507 0.72179 0.23260
 H62 H 1.26422 0.77954 0.22878
 H63 H 1.22482 0.70740 0.75169
 H64 H 1.28365 0.76604 0.74758
 H65 H 1.12188 0.64061 0.50671
 H66 H 1.34813 0.86694 0.49537
 C67 C 0.68746 0.50320 0.41575
 C68 C 0.67374 0.50704 0.51394
 C69 C 0.69105 0.50618 0.60924
 C70 C 0.72603 0.50646 0.60462
 C71 C 0.74032 0.50265 0.50588
 C72 C 0.72158 0.50196 0.41107
 C73 C 0.73800 0.50096 0.31399
 C74 C 0.77014 0.49729 0.31042
 C75 C 0.78750 0.49491 0.40380
 C76 C 0.77332 0.49912 0.50225
 C77 C 0.74861 0.51314 0.69490
 C78 C 0.78067 0.50956 0.69153
 C79 C 0.79183 0.49951 0.59746
 C80 C 0.82281 0.49287 0.59480
 C81 C 0.83762 0.49083 0.49658
 C82 C 0.81956 0.49000 0.40169
 H83 H 0.72647 0.50354 0.23947
 H84 H 0.78165 0.49709 0.23350
 H85 H 0.74221 0.52207 0.76881
 H86 H 0.79719 0.51571 0.76316
 H87 H 0.64676 0.50619 0.51623
 H88 H 0.86119 0.48558 0.49399
 C89 C 0.46550 0.30751 0.59605
 C90 C 0.46314 0.32371 0.49996
 C91 C 0.46217 0.30679 0.40235
 C92 C 0.46494 0.27340 0.40000
 C93 C 0.46448 0.25526 0.49616
 C94 C 0.46210 0.27089 0.59383
 C95 C 0.45504 0.24870 0.68591
 C96 C 0.45800 0.21610 0.68530
 C97 C 0.46653 0.20357 0.59155
 C98 C 0.46731 0.22180 0.49513
 C99 C 0.46884 0.25796 0.30444
 C100 C 0.47172 0.22531 0.30349
 C101 C 0.47221 0.20741 0.39820
 C102 C 0.47748 0.17555 0.39904
 C103 C 0.47705 0.15819 0.49490
 C104 C 0.47337 0.17274 0.59118
 H105 H 0.44713 0.25635 0.75958
 H106 H 0.45334 0.20067 0.75884
 H107 H 0.47065 0.27130 0.22902
 H108 H 0.47361 0.21434 0.22729
 H109 H 0.46384 0.35074 0.50025
 H110 H 0.48320 0.13513 0.49503
 C111 C 0.83525 0.29381 0.40273
 C112 C 0.85147 0.31156 0.49863
 C113 C 0.83586 0.29428 0.59623
 C114 C 0.79978 0.26007 0.59703
 C115 C 0.78200 0.24279 0.49959
 C116 C 0.80010 0.25941 0.40232
 C117 C 0.78196 0.24185 0.30709
 C118 C 0.74672 0.20889 0.30705
 C119 C 0.72712 0.19311 0.40189
 C120 C 0.74537 0.20948 0.49914
 C121 C 0.77954 0.24405 0.69132
 C122 C 0.74464 0.21069 0.69093
 C123 C 0.72633 0.19364 0.59577
 C124 C 0.68904 0.16183 0.59456
 C125 C 0.67200 0.14542 0.49826
 C126 C 0.68955 0.16169 0.40209
 H127 H 0.79431 0.25376 0.23095
 H128 H 0.73485 0.19611 0.23137
 H129 H 0.78931 0.25769 0.76696
 H130 H 0.73187 0.19891 0.76681
 H131 H 0.87875 0.33761 0.49659
 H132 H 0.64281 0.12234 0.49811
 O133 O 0.95805 0.40269 0.18753
 O134 O 0.91213 0.40327 0.08388
 C135 C 0.92335 0.38845 0.15601
 O136 O 1.04007 0.57647 0.18289
 O137 O 1.08869 0.57493 0.09543
 C138 C 1.07556 0.59047 0.15939
 O139 O 0.93589 0.50584 0.18655
 O140 O 0.90143 0.45317 0.08283
 C141 C 0.90419 0.47700 0.15528
 O142 O 1.06220 0.46752 0.18942
 O143 O 1.09878 0.52301 0.09740
 C144 C 1.09441 0.49686 0.16457
 Zr145 Zr 1.00764 0.45147 0.13308
 O146 O 1.00928 0.45152 0.30046
 O147 O 1.01626 0.40447 0.12181
 Zr148 Zr 0.99192 0.52543 0.13283
 O149 O 0.99483 0.52592 0.30018
 O150 O 0.97799 0.56902 0.13622
 O151 O 0.96610 0.46661 0.15136
 O152 O 1.03210 0.50944 0.15530
 O153 O 1.06673 0.47137 -0.18369
 O154 O 1.10081 0.52473 -0.08179
 C155 C 1.09829 0.50046 -0.15240
 O156 O 0.93994 0.50780 -0.19818
 O157 O 0.90354 0.45440 -0.09779
 C158 C 0.90765 0.47897 -0.16959
 O159 O 1.04493 0.57747 -0.18355
 O160 O 1.09045 0.57622 -0.07916
 C161 C 1.07955 0.59158 -0.15046
 O162 O 0.96154 0.40460 -0.19526
 O163 O 0.91392 0.40442 -0.09767
 C164 C 0.92625 0.39011 -0.16809
 Zr165 Zr 1.01044 0.45326 -0.13440
 O166 O 1.01520 0.45744 -0.30143
 O167 O 1.01783 0.40532 -0.13416
 Zr168 Zr 0.99489 0.52718 -0.13518
 O169 O 1.00028 0.53054 -0.30200
 O170 O 0.98175 0.57138 -0.13479
 Zr171 Zr 0.94550 0.45330 -0.00469
 Zr172 Zr 1.05690 0.52548 0.00440
 O173 O 1.03544 0.51146 -0.15071
 O174 O 0.96924 0.46857 -0.15774
 O175 O 1.04363 0.46833 0.00218
 O176 O 0.96003 0.51088 -0.00376
 O177 O 0.97776 0.42605 -0.00291
 O178 O 1.02537 0.55363 0.00141
 H179 H 1.04838 0.52007 0.21861
 H180 H 0.93984 0.51761 -0.00524
 H181 H 1.05286 0.52277 -0.21174
 H182 H 0.96496 0.39792 -0.00392
 H183 H 0.99520 0.58905 0.08628
 H184 H 1.00161 0.59273 -0.09353
 H185 H 0.98249 0.50503 -0.33046
 H186 H 0.99082 0.45322 -0.32992
 H187 H 1.03659 0.40958 -0.07851
 H188 H 1.01638 0.39598 0.19529
 H189 H 0.98666 0.45205 0.32605
 H190 H 0.97412 0.50114 0.32595
 O191 O 0.42342 0.48677 0.17629
 O192 O 0.44290 0.54161 0.08068
 C193 C 0.42072 0.51590 0.14818
 O194 O 0.58890 0.52669 0.19624
 O195 O 0.57074 0.47266 0.09877
 C196 C 0.59171 0.49730 0.16927
 O197 O 0.54750 0.59195 0.19590
 O198 O 0.50311 0.59240 0.08479
 C199 C 0.52748 0.60641 0.16095
 O200 O 0.45766 0.41828 0.17286
 O201 O 0.50897 0.42134 0.08869
 C202 C 0.47940 0.40469 0.14971
 Zr203 Zr 0.46176 0.46983 0.12531
 O204 O 0.46227 0.46765 0.29278
 O205 O 0.40483 0.42500 0.12164
 Zr206 Zr 0.55076 0.54434 0.13948
 O207 O 0.54764 0.53938 0.30646
 O208 O 0.60508 0.59350 0.14966
 O209 O 0.49357 0.52830 0.15058
 O210 O 0.51758 0.48599 0.15410
 O211 O 0.46829 0.42231 -0.19290
 O212 O 0.51526 0.42475 -0.08740
 C213 C 0.48975 0.40912 -0.16014
 O214 O 0.55602 0.59597 -0.18504
 O215 O 0.50582 0.59345 -0.09527
 C216 C 0.53386 0.60916 -0.16136
 O217 O 0.59580 0.53077 -0.17528
 O218 O 0.57603 0.47632 -0.07763
 C219 C 0.59863 0.50181 -0.14484
 O220 O 0.43134 0.49101 -0.20665
 O221 O 0.44632 0.54299 -0.10270
 C222 C 0.42691 0.51910 -0.17669
 Zr223 Zr 0.46705 0.47183 -0.14213
 O224 O 0.47118 0.47101 -0.30898
 O225 O 0.41090 0.42555 -0.14205
 Zr226 Zr 0.55598 0.54686 -0.12835
 O227 O 0.55920 0.54522 -0.29536
 O228 O 0.61058 0.59579 -0.12205
 Zr229 Zr 0.48849 0.54370 -0.00541
 Zr230 Zr 0.52916 0.47284 0.00291
 O231 O 0.52384 0.48891 -0.15169
 O232 O 0.49967 0.53090 -0.15818
 O233 O 0.46967 0.44390 -0.00700
 O234 O 0.54804 0.57156 0.00423
 O235 O 0.44611 0.48601 -0.01174
 O236 O 0.57250 0.53028 0.00882
 H237 H 0.52220 0.47420 0.21679
 H238 H 0.56308 0.59970 0.00611
 H239 H 0.53134 0.47891 -0.21280
 H240 H 0.41907 0.47879 -0.01569
 H241 H 0.62255 0.58875 0.10679
 H242 H 0.62606 0.59004 -0.07355
 H243 H 0.53932 0.54963 -0.32515
 H244 H 0.47951 0.49701 -0.33487
 H245 H 0.40409 0.41882 -0.21731
 H246 H 0.40196 0.41004 0.05716
 H247 H 0.46446 0.49148 0.31995
 H248 H 0.52592 0.54200 0.32977
 O249 O 0.46483 0.05875 0.18638
 O250 O 0.51715 0.09657 0.08527
 C251 C 0.49249 0.09169 0.15657
 O252 O 0.51577 -0.05858 0.19065
 O253 O 0.46240 -0.09721 0.09420
 C254 C 0.48788 -0.09183 0.16361
 O255 O 0.57430 0.04952 0.19363
 O256 O 0.56852 0.09220 0.08750
 C257 C 0.58505 0.08395 0.16161
 O258 O 0.40160 -0.04711 0.18109
 O259 O 0.40876 -0.09190 0.08989
 C260 C 0.39091 -0.08185 0.15540
 Zr261 Zr 0.44947 0.00357 0.12949
 O262 O 0.44502 0.00079 0.29647
 O263 O 0.40124 0.00965 0.11342
 Zr264 Zr 0.52894 -0.00339 0.13726
 O265 O 0.52546 -0.00634 0.30447
 O266 O 0.58008 -0.00470 0.14134
 O267 O 0.50797 0.03381 0.15309
 O268 O 0.47061 -0.03263 0.15383
 O269 O 0.40460 -0.04992 -0.19141
 O270 O 0.41068 -0.09332 -0.08892
 C271 C 0.39385 -0.08439 -0.16072
 O272 O 0.57575 0.04823 -0.19096
 O273 O 0.56844 0.09139 -0.09243
 C274 C 0.58565 0.08283 -0.16318
 O275 O 0.51842 -0.05960 -0.17661
 O276 O 0.46474 -0.09807 -0.08002
 C277 C 0.49106 -0.09276 -0.14686
 O278 O 0.46558 0.05692 -0.19759
 O279 O 0.51692 0.09589 -0.09483
 C280 C 0.49231 0.09024 -0.16740
 Zr281 Zr 0.45108 0.00221 -0.13832
 O282 O 0.45109 -0.00164 -0.30537
 O283 O 0.40285 0.00879 -0.14225
 Zr284 Zr 0.53065 -0.00434 -0.13037
 O285 O 0.53120 -0.00871 -0.29711
 O286 O 0.58102 -0.00662 -0.11557
 Zr287 Zr 0.52122 0.05539 -0.00231
 Zr288 Zr 0.45839 -0.05672 0.00166
 O289 O 0.47266 -0.03400 -0.15228
 O290 O 0.50981 0.03259 -0.15622
 O291 O 0.42526 -0.03046 -0.00364
 O292 O 0.55384 0.02855 0.00260
 O293 O 0.46289 0.03616 -0.00580
 O294 O 0.51674 -0.03820 0.00505
 H295 H 0.46049 -0.04944 0.21664
 H296 H 0.58186 0.04418 0.00293
 H297 H 0.46372 -0.05139 -0.21381
 H298 H 0.45403 0.05481 -0.00703
 H299 H 0.57803 -0.02314 0.08706
 H300 H 0.58935 -0.00737 -0.18873
 H301 H 0.52680 0.01126 -0.32683
 H302 H 0.47529 0.01980 -0.33146
 H303 H 0.38478 -0.00883 -0.08886
 H304 H 0.39333 0.01151 0.18625
 H305 H 0.47058 0.01817 0.32480
 H306 H 0.52621 0.01705 0.32964
 C307 C 1.17229 0.51027 0.31635
 C308 C 1.17296 0.48632 0.23948
 C309 C 1.14428 0.47912 0.17208
 C310 C 1.12811 0.49905 0.21166
 O311 O 1.14402 0.51702 0.30096
 H312 H 1.19074 0.47362 0.23608
 H313 H 1.13511 0.46024 0.10473
 C314 C 0.53349 0.68265 0.30674
 C315 C 0.54931 0.70178 0.21276
 C316 C 0.54892 0.67539 0.14606
 C317 C 0.53442 0.64255 0.20478
 O318 O 0.52560 0.64676 0.30234
 H319 H 0.56139 0.73173 0.19532
 H320 H 0.55873 0.67968 0.06493
 C321 C 0.31791 -0.15288 0.30837
 C322 C 0.29584 -0.14899 0.23159
 C323 C 0.32061 -0.12213 0.16319
 C324 C 0.35584 -0.11155 0.20271
 O325 O 0.35451 -0.12915 0.29206
 H326 H 0.26530 -0.16236 0.22888
 H327 H 0.31383 -0.11056 0.09502
 C328 C 0.83275 0.47927 0.30529
 C329 C 0.80941 0.45030 0.23749
 C330 C 0.83311 0.44562 0.17114
 C331 C 0.86915 0.47180 0.20390
 O332 O 0.86904 0.49200 0.28568
 H333 H 0.77882 0.43347 0.23923
 H334 H 0.82515 0.42511 0.10795
 C335 C 0.45933 0.32537 0.30451
 C336 C 0.43339 0.30675 0.22483
 C337 C 0.43949 0.33412 0.15252
 C338 C 0.46843 0.36734 0.19371
 O339 O 0.48006 0.36242 0.28694
 H340 H 0.41207 0.27691 0.22130
 H341 H 0.42374 0.33066 0.08053
 C342 C 0.66493 0.14962 0.30713
 C343 C 0.66274 0.17489 0.23845
 C344 C 0.63305 0.15332 0.17396
 C345 C 0.61865 0.11641 0.20883
 O346 O 0.63766 0.11400 0.29042
 H347 H 0.67959 0.20562 0.23870
 H348 H 0.62240 0.16344 0.11090
 C349 C 0.48349 0.15917 -0.31239
 C350 C 0.50904 0.18311 -0.23794
 C351 C 0.51568 0.16027 -0.17358
 C352 C 0.49399 0.12412 -0.21399
 O353 O 0.47461 0.12332 -0.29861
 H354 H 0.52255 0.21378 -0.23405
 H355 H 0.53449 0.16895 -0.10609
 C356 C 0.67042 0.50037 -0.29579
 C357 C 0.67028 0.47866 -0.21074
 C358 C 0.64359 0.47673 -0.14255
 C359 C 0.62918 0.49720 -0.19018
 O360 O 0.64484 0.51109 -0.28353
 H361 H 0.68579 0.46370 -0.20194
 H362 H 0.63506 0.46155 -0.06801
 C363 C 0.85808 0.31142 -0.31259
 C364 C 0.85981 0.29234 -0.22368
 C365 C 0.88551 0.31962 -0.15831
 C366 C 0.89857 0.35321 -0.21257
 O367 O 0.88266 0.34853 -0.30660
 H368 H 0.84569 0.26200 -0.20962
 H369 H 0.89435 0.31549 -0.08122
 C370 C 0.49745 -0.16191 -0.29676
 C371 C 0.47128 -0.18607 -0.22342
 C372 C 0.46619 -0.16314 -0.15532
 C373 C 0.48932 -0.12671 -0.19271
 O374 O 0.50806 -0.12584 -0.27900
 H375 H 0.45632 -0.21685 -0.22284
 H376 H 0.44705 -0.17195 -0.08838
 C377 C 0.35799 0.52959 -0.31751
 C378 C 0.33883 0.51552 -0.22249
 C379 C 0.36291 0.51103 -0.15827
 C380 C 0.39456 0.52125 -0.21838
 O381 O 0.39177 0.53199 -0.31538
 H382 H 0.30982 0.50681 -0.20289
 H383 H 0.35749 0.50004 -0.07830
 C384 C 1.14889 0.66610 -0.30344
 C385 C 1.15561 0.68520 -0.20785
 C386 C 1.13016 0.65961 -0.13817
 C387 C 1.10873 0.62733 -0.19645
 O388 O 1.11946 0.63108 -0.29653
 H389 H 1.17563 0.71468 -0.19060
 H390 H 1.12719 0.66401 -0.05515
 C391 C 0.83683 0.48386 -0.31449
 C392 C 0.81493 0.46299 -0.22902
 C393 C 0.83853 0.45742 -0.16540
 C394 C 0.87307 0.47518 -0.21606
 O395 O 0.87215 0.49081 -0.30700
 H396 H 0.78487 0.45143 -0.21665
 H397 H 0.83154 0.44257 -0.09033
 C398 C 0.47538 0.32995 -0.31119
 C399 C 0.49625 0.32722 -0.22863
 C400 C 0.50268 0.35549 -0.16090
 C401 C 0.48615 0.37433 -0.20664
 O402 O 0.46999 0.35941 -0.29869
 H403 H 0.50805 0.30873 -0.22121
 H404 H 0.51895 0.36257 -0.08845
 C405 C 0.66408 0.14948 -0.31149
 C406 C 0.66016 0.17448 -0.24638
 C407 C 0.63110 0.15243 -0.18062
 C408 C 0.61860 0.11548 -0.21183
 O409 O 0.63827 0.11348 -0.29215
 H410 H 0.67558 0.20525 -0.24957
 H411 H 0.61950 0.16219 -0.11929
 C412 C 1.17842 0.51862 -0.30375
 C413 C 1.18710 0.50668 -0.21014
 C414 C 1.15870 0.49950 -0.14137
 C415 C 1.13378 0.50593 -0.19761
 O416 O 1.14511 0.51701 -0.29624
 H417 H 1.20991 0.50116 -0.19410
 H418 H 1.15572 0.48929 -0.06107
 C419 C 0.54097 0.68468 -0.31237
 C420 C 0.57218 0.70547 -0.24882
 C421 C 0.57301 0.67969 -0.18152
 C422 C 0.54235 0.64525 -0.20937
 O423 O 0.52309 0.64794 -0.28951
 H424 H 0.59266 0.73555 -0.25403
 H425 H 0.59389 0.68507 -0.12115
 C426 C 0.32272 -0.15799 -0.31264
 C427 C 0.30314 -0.16458 -0.21781
 C428 C 0.32753 -0.13783 -0.14948
 C429 C 0.35967 -0.11572 -0.20736
 O430 O 0.35699 -0.12730 -0.30653
 H431 H 0.27398 -0.18532 -0.20017
 H432 H 0.32234 -0.13440 -0.06759
 C433 C 0.49049 -0.16247 0.31896
 C434 C 0.46004 -0.18600 0.25608
 C435 C 0.45599 -0.16251 0.18766
 C436 C 0.48377 -0.12621 0.21495
 O437 O 0.50455 -0.12599 0.29557
 H438 H 0.44224 -0.21658 0.26172
 H439 H 0.43461 -0.17077 0.12690
 C440 C 0.35307 0.52369 0.29847
 C441 C 0.32898 0.49515 0.23054
 C442 C 0.35177 0.49108 0.16017
 C443 C 0.38809 0.51720 0.19008
 O444 O 0.38919 0.53644 0.27567
 H445 H 0.29846 0.47776 0.23568
 H446 H 0.34312 0.46976 0.09894
 C447 C 1.14082 0.66688 0.31291
 C448 C 1.13029 0.68697 0.24644
 C449 C 1.10511 0.66082 0.17751
 C450 C 1.10228 0.62690 0.20704
 O451 O 1.12335 0.63019 0.29010
 H452 H 1.13899 0.71685 0.25029
 H453 H 1.08985 0.66560 0.11499
 C454 C 0.48882 0.16245 0.30473
 C455 C 0.51862 0.18608 0.23957
 C456 C 0.52333 0.16247 0.17357
 C457 C 0.49646 0.12620 0.20460
 O458 O 0.47569 0.12602 0.28479
 H459 H 0.53586 0.21676 0.24289
 H460 H 0.54453 0.17064 0.11212
 C461 C 0.66188 0.49357 0.32325
 C462 C 0.65257 0.46278 0.25868
 C463 C 0.62582 0.46099 0.19167
 C464 C 0.62004 0.49037 0.22092
 O465 O 0.64159 0.51005 0.30184
 H466 H 0.66318 0.44319 0.26237
 H467 H 0.61146 0.44009 0.13023
 C468 C 0.85779 0.31080 0.30575
 C469 C 0.86792 0.29132 0.23608
 C470 C 0.89263 0.31805 0.16730
 C471 C 0.89580 0.35173 0.20039
 O472 O 0.87538 0.34774 0.28556
 H473 H 0.85967 0.26153 0.23851
 H474 H 0.90806 0.31391 0.10412
   
