data_POSCAR
  _audit_creation_date              2014-09-24
  _audit_creation_method            'ToBaCCo'
  _symmetry_space_group_name_H-M    'P1'
  _symmetry_Int_Tables_number       1
  _symmetry_cell_setting            triclinic
  loop_
  _symmetry_equiv_pos_as_xyz
 x,y,z
_cell_length_a 25.9315
_cell_length_b 25.8791
_cell_length_c 43.6752
_cell_angle_alpha 87.915600
_cell_angle_beta 89.722500
_cell_angle_gamma 90.355200
loop_
  _atom_site_label
  _atom_site_type_symbol
  _atom_site_fract_x
  _atom_site_fract_y
  _atom_site_fract_z
O1 O -0.03681 0.44908 1.03009
 O2 O -0.03829 0.55288 0.97009
 O3 O -0.03833 0.45225 0.97036
 O4 O -0.03673 0.54949 1.02979
 O5 O 0.04846 0.54885 1.02950
 O6 O 0.04683 0.45396 0.96860
 O7 O 0.04686 0.55480 0.96996
 O8 O 0.04832 0.44786 1.02790
 Cu9 Cu -0.04610 0.50089 1.00017
 Cu10 Cu 0.05618 0.50149 0.99889
 C11 C 0.00601 0.43038 1.03889
 C12 C 0.00405 0.57194 0.96002
 C13 C 0.00396 0.43654 0.95938
 C14 C 0.00610 0.56560 1.03983
 O15 O 0.54745 -0.03827 0.53380
 O16 O 0.44804 -0.04574 0.47404
 O17 O 0.54902 -0.04636 0.47440
 O18 O 0.44749 -0.03801 0.53314
 O19 O 0.44949 0.04724 0.52803
 O20 O 0.54840 0.03865 0.46756
 O21 O 0.44828 0.03951 0.46884
 O22 O 0.55059 0.04660 0.52663
 Cu23 Cu 0.49798 -0.05066 0.50436
 Cu24 Cu 0.49930 0.05156 0.49725
 C25 C 0.56635 0.00543 0.54018
 C26 C 0.43081 -0.00428 0.46155
 C27 C 0.56584 -0.00530 0.46090
 C28 C 0.43125 0.00597 0.54061
 C29 C 0.08599 0.03007 0.27969
 H30 H 0.07516 0.06495 0.26714
 C31 C 0.12860 0.03104 0.29905
 H32 H 0.14974 0.06694 0.30114
 C33 C 0.07216 -0.05883 0.29193
 H34 H 0.05055 -0.09402 0.28861
 C35 C 0.11469 -0.05966 0.31146
 H36 H 0.12484 -0.09553 0.32340
 N37 N 0.05826 -0.01425 0.27676
 C38 C -0.04220 -0.10019 0.22106
 H39 H -0.07829 -0.08680 0.23029
 C40 C -0.04185 -0.14281 0.20238
 H41 H -0.07795 -0.16206 0.19759
 C42 C 0.04834 -0.09035 0.21558
 H43 H 0.08321 -0.06918 0.22061
 C44 C 0.05050 -0.13288 0.19683
 H45 H 0.08737 -0.14425 0.18759
 Zn46 Zn -0.00010 -0.01498 0.25062
 N47 N 0.00241 -0.07475 0.22708
 C48 C 0.01252 0.03939 0.19367
 N49 N 0.00112 0.04480 0.22383
 C50 C -0.00865 0.09218 0.23506
 C51 C -0.00829 0.13624 0.21561
 C52 C 0.01474 0.08259 0.17361
 C53 C -0.06609 -0.05400 0.29753
 C54 C -0.10953 -0.05590 0.31659
 C55 C -0.14390 0.01741 0.28786
 C56 C -0.10009 0.01750 0.26914
 N57 N -0.06159 -0.01704 0.27470
 H58 H 0.02029 0.00161 0.18509
 H59 H -0.01704 0.09570 0.25918
 H60 H -0.01650 0.17358 0.22486
 H61 H 0.02402 0.07758 0.14970
 H62 H -0.03580 -0.08191 0.30118
 H63 H -0.11181 -0.08511 0.33494
 H64 H -0.17368 0.04576 0.28328
 H65 H -0.09717 0.04521 0.25014
 C66 C 0.00488 -0.15945 0.18975
 C67 C 0.14335 -0.01417 0.31540
 C68 C -0.14877 -0.01930 0.31218
 C69 C 0.00386 0.13165 0.18451
 C70 C -0.04841 0.09987 0.77948
 H71 H -0.08410 0.08842 0.76902
 C72 C -0.04801 0.14204 0.79855
 H73 H -0.08364 0.16240 0.80249
 C74 C 0.04110 0.08749 0.78703
 H75 H 0.07586 0.06637 0.78220
 C76 C 0.04332 0.12958 0.80611
 H77 H 0.07992 0.14002 0.81606
 N78 N -0.00437 0.07315 0.77436
 C79 C 0.07962 -0.02893 0.71959
 H80 H 0.06481 -0.06469 0.72985
 C81 C 0.12332 -0.02967 0.70087
 H82 H 0.14187 -0.06628 0.69711
 C83 C 0.07256 0.06183 0.71165
 H84 H 0.05219 0.09725 0.71586
 C85 C 0.11624 0.06287 0.69274
 H86 H 0.12925 0.09943 0.68252
 Zn87 Zn -0.00507 0.01489 0.74918
 N88 N 0.05514 0.01632 0.72453
 C89 C -0.05779 0.02854 0.69304
 N90 N -0.06421 0.01687 0.72347
 C91 C -0.11194 0.00687 0.73550
 C92 C -0.15521 0.00660 0.71656
 C93 C -0.10019 0.03036 0.67348
 C94 C 0.03373 -0.05132 0.79569
 C95 C 0.03639 -0.09513 0.81522
 C96 C -0.03925 -0.12905 0.79074
 C97 C -0.03995 -0.08494 0.77133
 N98 N -0.00440 -0.04660 0.77451
 H99 H -0.01977 0.03658 0.68382
 H100 H -0.11633 -0.00163 0.75981
 H101 H -0.19282 -0.00224 0.72637
 H102 H -0.09438 0.03960 0.64932
 H103 H 0.06230 -0.02107 0.79744
 H104 H 0.06682 -0.09779 0.83208
 H105 H -0.06814 -0.15890 0.78801
 H106 H -0.06871 -0.08183 0.75361
 C107 C 0.14208 0.01660 0.68701
 C108 C -0.00174 0.15726 0.81229
 C109 C -0.00081 -0.13443 0.81312
 C110 C -0.14946 0.01865 0.68518
 C111 C 0.00672 -0.32183 0.10611
 N112 N 0.05173 -0.33925 0.09441
 N113 N 0.05162 -0.37547 0.07348
 C114 C 0.00648 -0.39550 0.06346
 N115 N -0.03849 -0.37819 0.07523
 N116 N -0.03837 -0.34205 0.09618
 C117 C 0.00657 -0.28091 0.12854
 N118 N -0.03855 -0.26407 0.14033
 N119 N -0.03897 -0.22597 0.16001
 C120 C 0.00568 -0.20310 0.16868
 N121 N 0.05085 -0.22021 0.15694
 N122 N 0.05130 -0.25839 0.13727
 C123 C 0.00694 0.30619 0.10273
 N124 N -0.03472 0.33757 0.10028
 N125 N -0.03500 0.37729 0.07998
 C126 C 0.00662 0.38743 0.06172
 N127 N 0.04845 0.35635 0.06439
 N128 N 0.04848 0.31626 0.08440
 C129 C 0.00667 0.26141 0.12432
 N130 N 0.03931 0.22143 0.12023
 N131 N 0.03834 0.18016 0.13936
 C132 C 0.00515 0.17761 0.16352
 N133 N -0.02718 0.21785 0.16776
 N134 N -0.02668 0.25885 0.14839
 C135 C 0.31244 0.01275 0.60534
 N136 N 0.33323 -0.03324 0.59808
 N137 N 0.37141 -0.03522 0.57768
 C138 C 0.39031 0.00874 0.56380
 N139 N 0.36974 0.05483 0.57116
 N140 N 0.33145 0.05680 0.59156
 C141 C 0.26926 0.01434 0.62716
 N142 N 0.24633 0.05973 0.63358
 N143 N 0.20622 0.06059 0.65277
 C144 C 0.18752 0.01613 0.66628
 N145 N 0.21077 -0.02915 0.65989
 N146 N 0.25079 -0.03005 0.64071
 C147 C -0.31787 0.01322 0.60367
 N148 N -0.34327 -0.03197 0.59948
 N149 N -0.38087 -0.03451 0.57889
 C150 C -0.39494 0.00821 0.56203
 N151 N -0.36987 0.05355 0.56652
 N152 N -0.33177 0.05591 0.58679
 C153 C -0.27509 0.01555 0.62544
 N154 N -0.23778 0.05228 0.62175
 N155 N -0.19791 0.05337 0.64084
 C156 C -0.19429 0.01825 0.66458
 N157 N -0.23195 -0.01813 0.66847
 N158 N -0.27145 -0.01969 0.64911
 C159 C 0.00251 -0.30759 0.89619
 N160 N 0.04771 -0.32507 0.90807
 N161 N 0.04824 -0.36450 0.92854
 C162 C 0.00354 -0.38768 0.93809
 N163 N -0.04167 -0.37017 0.92617
 N164 N -0.04215 -0.33097 0.90553
 C165 C 0.00191 -0.26345 0.87410
 N166 N -0.04183 -0.25071 0.85872
 N167 N -0.04254 -0.21008 0.83909
 C168 C 0.00034 -0.18040 0.83427
 N169 N 0.04406 -0.19325 0.84970
 N170 N 0.04489 -0.23408 0.86915
 C171 C 0.00192 0.32193 0.89436
 N172 N 0.04733 0.34010 0.90512
 N173 N 0.04800 0.37706 0.92558
 C174 C 0.00328 0.39712 0.93605
 N175 N -0.04212 0.37907 0.92522
 N176 N -0.04279 0.34219 0.90471
 C177 C 0.00111 0.28018 0.87247
 N178 N -0.04421 0.26301 0.86107
 N179 N -0.04505 0.22431 0.84178
 C180 C -0.00065 0.20116 0.83317
 N181 N 0.04468 0.21856 0.84456
 N182 N 0.04556 0.25733 0.86380
 C183 C -0.31691 -0.01364 0.39526
 N184 N -0.34196 0.03148 0.39949
 N185 N -0.37951 0.03403 0.42029
 C186 C -0.39361 -0.00852 0.43750
 N187 N -0.36881 -0.05374 0.43313
 N188 N -0.33103 -0.05621 0.41245
 C189 C -0.27439 -0.01590 0.37303
 N190 N -0.24399 -0.05833 0.37208
 N191 N -0.20438 -0.05961 0.35258
 C192 C -0.19380 -0.01866 0.33315
 N193 N -0.22456 0.02358 0.33400
 N194 N -0.26399 0.02500 0.35360
 C195 C 0.31177 -0.01025 0.39755
 N196 N 0.32931 -0.05431 0.41166
 N197 N 0.36763 -0.05256 0.43185
 C198 C 0.38969 -0.00669 0.43867
 N199 N 0.37222 0.03730 0.42450
 N200 N 0.33402 0.03554 0.40429
 C201 C 0.26880 -0.01173 0.37581
 N202 N 0.25245 0.03238 0.36130
 N203 N 0.21289 0.03147 0.34201
 C204 C 0.18797 -0.01356 0.33648
 N205 N 0.20450 -0.05773 0.35100
 N206 N 0.24416 -0.05685 0.37028
   
