data_POSCAR
  _audit_creation_date              2014-09-24
  _audit_creation_method            'ToBaCCo'
  _symmetry_space_group_name_H-M    'P1'
  _symmetry_Int_Tables_number       1
  _symmetry_cell_setting            triclinic
  loop_
  _symmetry_equiv_pos_as_xyz
 x,y,z
_cell_length_a 27.0133
_cell_length_b 27.1833
_cell_length_c 27.0149
_cell_angle_alpha 91.350000
_cell_angle_beta 89.393700
_cell_angle_gamma 89.972000
loop_
  _atom_site_label
  _atom_site_type_symbol
  _atom_site_fract_x
  _atom_site_fract_y
  _atom_site_fract_z
C1 C 0.38503 -0.00610 0.23564
 C2 C 0.11506 0.00196 0.76604
 C3 C 0.61941 0.50909 0.24939
 C4 C 0.86042 0.49107 0.75994
 C5 C 0.24529 0.38038 1.00099
 C6 C 0.76374 0.10503 1.00670
 C7 C 0.24240 0.62759 0.49005
 C8 C 0.76011 0.86883 0.50063
 C9 C 0.00870 0.25998 0.37188
 C10 C 0.00342 0.75231 0.13152
 C11 C 0.52083 0.24809 0.63022
 C12 C 0.50427 0.73817 0.86914
 C13 C -0.25799 0.63518 1.01302
 C14 C -0.26426 0.37466 0.50475
 C15 C 0.25699 -0.15098 0.00591
 C16 C 0.25397 1.12972 0.49225
 C17 C 0.12086 0.49558 0.24625
 C18 C -0.12490 1.01486 0.24660
 C19 C 0.37880 0.50177 -0.24576
 C20 C 0.61510 -0.01014 -0.26383
 C21 C -0.00498 0.24419 0.88525
 C22 C 0.50211 0.25961 0.12350
 C23 C -0.01520 0.75362 0.62343
 C24 C 0.48822 0.74532 0.38217
 B25 B 0.00466 0.03641 1.05649
 B26 B -0.02804 0.02832 1.00475
 B27 B 0.02279 0.06361 1.00416
 B28 B 0.06551 0.03878 1.04143
 B29 B 0.03991 -0.01368 1.06438
 B30 B -0.01884 -0.01948 1.04172
 B31 B 0.04558 -0.02507 0.96425
 B32 B 0.07876 -0.01677 1.01580
 B33 B 0.02796 -0.05173 1.01600
 B34 B -0.01483 -0.02708 0.97916
 B35 B 0.01080 0.02529 0.95590
 B36 B 0.06960 0.03075 0.97829
 B37 B 0.46505 0.52839 0.54286
 B38 B 0.43359 0.51539 0.49117
 B39 B 0.47876 0.55774 0.49093
 B40 B 0.52479 0.53928 0.52801
 B41 B 0.50717 0.48392 0.55066
 B42 B 0.44990 0.46937 0.52822
 B43 B 0.51473 0.47359 0.45047
 B44 B 0.54607 0.48655 0.50215
 B45 B 0.50108 0.44415 0.50249
 B46 B 0.45503 0.46256 0.46529
 B47 B 0.47256 0.51821 0.44261
 B48 B 0.52981 0.53249 0.46510
 B49 B 0.52278 0.97621 0.53662
 B50 B 0.55978 0.97837 0.48652
 B51 B 0.50777 0.94414 0.48456
 B52 B 0.46320 0.97358 0.51808
 B53 B 0.48828 1.02769 0.53974
 B54 B 0.54866 1.03007 0.52041
 B55 B 0.49005 1.02903 0.43883
 B56 B 0.45313 1.02645 0.48886
 B57 B 0.50439 1.06098 0.49047
 B58 B 0.54955 1.03180 0.45727
 B59 B 0.52475 0.97766 0.43561
 B60 B 0.46420 0.97526 0.45481
 B61 B 0.01298 0.47878 1.06068
 B62 B 0.04597 0.48126 1.00797
 B63 B -0.00304 0.44357 1.01159
 B64 B -0.04740 0.47147 1.04706
 B65 B -0.02446 0.52808 1.06442
 B66 B 0.03390 0.53329 1.04045
 B67 B -0.03035 0.52441 0.96370
 B68 B -0.06320 0.52230 1.01647
 B69 B -0.01415 0.55956 1.01222
 B70 B 0.03007 0.53182 0.97723
 B71 B 0.00742 0.47552 0.95997
 B72 B -0.05127 0.47013 0.98412
 B73 B 0.00586 0.53262 0.45145
 B74 B 0.04027 0.52889 0.50250
 B75 B -0.00894 0.56666 0.50258
 B76 B -0.05420 0.53984 0.46865
 B77 B -0.03210 0.48378 0.44851
 B78 B 0.02707 0.47743 0.46955
 B79 B -0.03462 0.48414 0.54924
 B80 B -0.06919 0.48829 0.49861
 B81 B -0.02023 0.45051 0.49884
 B82 B 0.02527 0.47718 0.53258
 B83 B 0.00314 0.53312 0.55280
 B84 B -0.05609 0.53924 0.53204
 B85 B 0.50534 0.03228 -0.06182
 B86 B 0.54031 0.03278 -0.01121
 B87 B 0.48684 0.06399 -0.01060
 B88 B 0.44503 0.03166 -0.04422
 B89 B 0.47400 -0.02102 -0.06463
 B90 B 0.53383 -0.01985 -0.04440
 B91 B 0.47257 -0.02089 0.03629
 B92 B 0.43724 -0.02158 -0.01422
 B93 B 0.49079 -0.05272 -0.01442
 B94 B 0.53270 -0.02027 0.01875
 B95 B 0.50357 0.03221 0.03933
 B96 B 0.44392 0.03102 0.01907
 B97 B 0.47837 0.47244 -0.04593
 B98 B 0.44407 0.48498 0.00468
 B99 B 0.49191 0.44562 0.00736
 B100 B 0.53798 0.46569 -0.02978
 B101 B 0.51799 0.51930 -0.05465
 B102 B 0.45917 0.53076 -0.03361
 B103 B 0.52105 0.53315 0.04536
 B104 B 0.55501 0.52027 -0.00545
 B105 B 0.50760 0.55992 -0.00782
 B106 B 0.46119 0.53994 0.02922
 B107 B 0.48119 0.48631 0.05418
 B108 B 0.54006 0.47494 0.03306
 B109 B -0.02146 0.98319 0.45364
 B110 B -0.05391 0.98962 0.50653
 B111 B -0.00707 0.94921 0.50219
 B112 B 0.03845 0.97296 0.46673
 B113 B 0.01895 1.02955 0.44971
 B114 B -0.03913 1.03943 0.47418
 B115 B 0.02530 1.03075 0.55029
 B116 B 0.05752 1.02395 0.49736
 B117 B 0.01081 1.06456 0.50114
 B118 B -0.03480 1.04100 0.53704
 B119 B -0.01524 0.98407 0.55432
 B120 B 0.04272 0.97387 0.52968
 B121 B 0.77813 0.24103 0.19633
 B122 B 0.76639 0.20850 0.24688
 B123 B 0.80732 0.25477 0.24924
 B124 B 0.78723 0.30047 0.21326
 B125 B 0.73201 0.28147 0.18898
 B126 B 0.71947 0.22372 0.20987
 B127 B 0.72123 0.28661 0.28947
 B128 B 0.73325 0.31932 0.23899
 B129 B 0.69227 0.27304 0.23650
 B130 B 0.71254 0.22727 0.27267
 B131 B 0.76776 0.24629 0.29672
 B132 B 0.77988 0.30411 0.27627
 B133 B 0.72745 0.76505 0.70693
 B134 B 0.73214 0.80146 0.75747
 B135 B 0.69407 0.75274 0.75792
 B136 B 0.72033 0.70629 0.72458
 B137 B 0.77645 0.72694 0.70417
 B138 B 0.78329 0.78670 0.72434
 B139 B 0.77745 0.72900 0.80527
 B140 B 0.77252 0.69248 0.75477
 B141 B 0.81078 0.74088 0.75414
 B142 B 0.78448 0.78773 0.78758
 B143 B 0.72829 0.76689 0.80793
 B144 B 0.72169 0.70714 0.78799
 B145 B 0.27939 0.27641 0.79468
 B146 B 0.26752 0.31163 0.74610
 B147 B 0.30963 0.26653 0.74090
 B148 B 0.29016 0.21831 0.77412
 B149 B 0.23408 0.23429 0.79964
 B150 B 0.22063 0.29325 0.78239
 B151 B 0.22515 0.23495 0.69930
 B152 B 0.23713 0.19979 0.74749
 B153 B 0.19473 0.24483 0.75298
 B154 B 0.21433 0.29306 0.71956
 B155 B 0.27044 0.27688 0.69418
 B156 B 0.28378 0.21837 0.71141
 B157 B 0.23088 0.71850 0.29698
 B158 B 0.23784 0.68354 0.24549
 B159 B 0.19880 0.73134 0.24677
 B160 B 0.22346 0.77777 0.28129
 B161 B 0.27920 0.75694 0.30150
 B162 B 0.28716 0.69796 0.27959
 B163 B 0.28243 0.75817 0.20004
 B164 B 0.27650 0.79317 0.25184
 B165 B 0.31508 0.74465 0.25129
 B166 B 0.29029 0.69897 0.21613
 B167 B 0.23413 0.71974 0.19615
 B168 B 0.22612 0.77874 0.21821
 B169 B 0.27669 0.72391 0.69520
 B170 B 0.27157 0.69641 0.74967
 B171 B 0.30855 0.74565 0.74354
 B172 B 0.28149 0.78517 0.70489
 B173 B 0.22662 0.75924 0.68782
 B174 B 0.22077 0.70386 0.71532
 B175 B 0.22367 0.77524 0.78798
 B176 B 0.22829 0.80252 0.73297
 B177 B 0.19160 0.75344 0.73937
 B178 B 0.21864 0.71392 0.77799
 B179 B 0.27383 0.73965 0.79502
 B180 B 0.27927 0.79548 0.76748
 B181 B 0.22038 0.25535 0.19112
 B182 B 0.22784 0.29324 0.24050
 B183 B 0.19102 0.24344 0.24505
 B184 B 0.21595 0.19688 0.21070
 B185 B 0.26976 0.21840 0.18557
 B186 B 0.27695 0.27876 0.20418
 B187 B 0.27890 0.22271 0.28594
 B188 B 0.27070 0.18479 0.23690
 B189 B 0.30766 0.23412 0.23232
 B190 B 0.28279 0.28102 0.26673
 B191 B 0.22891 0.25960 0.29179
 B192 B 0.22233 0.19925 0.27371
 B193 B 0.76954 0.78138 0.29969
 B194 B 0.76733 0.81462 0.24839
 B195 B 0.80235 0.76347 0.24954
 B196 B 0.77308 0.72093 0.28328
 B197 B 0.71871 0.74670 0.30308
 B198 B 0.71526 0.80528 0.28155
 B199 B 0.71797 0.74214 0.20174
 B200 B 0.72030 0.70833 0.25301
 B201 B 0.68521 0.75927 0.25238
 B202 B 0.71455 0.80198 0.21851
 B203 B 0.76938 0.77649 0.19884
 B204 B 0.77215 0.71787 0.21991
 B205 B 0.72476 0.21330 0.80341
 B206 B 0.72833 0.18378 0.74823
 B207 B 0.68804 0.23045 0.75722
 B208 B 0.71417 0.27354 0.79457
 B209 B 0.77203 0.25314 0.80808
 B210 B 0.78039 0.19670 0.77955
 B211 B 0.76790 0.26466 0.70840
 B212 B 0.76378 0.29381 0.76334
 B213 B 0.80434 0.24769 0.75476
 B214 B 0.77860 0.20426 0.71709
 B215 B 0.72039 0.22484 0.70338
 B216 B 0.71200 0.28090 0.73203
 C217 C 0.42196 0.99427 0.27816
 C218 C 0.43506 1.03314 0.30683
 C219 C 0.46957 1.02458 0.34748
 C220 C 0.47046 1.05226 0.38919
 H221 H 0.41901 1.06924 0.30244
 H222 H 0.48962 0.99004 0.34580
 H223 H 0.43906 0.95929 0.28606
 H224 H 0.44984 1.08641 0.39158
 C225 C -0.11123 0.48652 0.80755
 C226 C -0.09147 0.52422 0.83344
 C227 C -0.06219 0.51267 0.87691
 C228 C -0.05372 0.54436 0.91453
 H229 H -0.09732 0.56207 0.82326
 H230 H -0.05014 0.47477 0.87951
 H231 H -0.10334 0.44947 0.81964
 H232 H -0.06667 0.58202 0.91338
 C233 C 0.07533 -0.01102 0.80351
 C234 C 0.07458 -0.05207 0.83007
 C235 C 0.04370 -0.05214 0.87443
 C236 C 0.06608 -0.05500 0.91802
 H237 H 0.10215 -0.08073 0.82515
 H238 H 0.00699 -0.03621 0.87212
 H239 H 0.04689 0.01655 0.81101
 H240 H 0.10370 -0.06860 0.91941
 C241 C 0.58358 0.50519 0.29257
 C242 C 0.57702 0.46641 0.32175
 C243 C 0.53818 0.47015 0.35989
 C244 C 0.54205 0.44916 0.40390
 H245 H 0.60029 0.43402 0.31903
 H246 H 0.50970 0.49747 0.35424
 H247 H 0.55961 0.53698 0.29860
 H248 H 0.57108 0.42257 0.41006
 C249 C 0.58597 0.51071 0.20481
 C250 C 0.57847 0.54860 0.17485
 C251 C 0.54103 0.54200 0.13625
 C252 C 0.54580 0.56077 0.09119
 H253 H 0.59970 0.58227 0.17759
 H254 H 0.51315 0.51416 0.14274
 H255 H 0.56407 0.47762 0.19852
 H256 H 0.57439 0.58767 0.08405
 C257 C 0.09012 0.99726 0.71601
 C258 C 0.08299 1.03308 0.68335
 C259 C 0.05761 1.02010 0.63702
 C260 C 0.04951 1.05118 0.60008
 H261 H 0.09552 1.07040 0.69013
 H262 H 0.04603 0.98207 0.63274
 H263 H 0.07573 0.96084 0.70711
 H264 H 0.06113 1.08924 0.60303
 C265 C -0.10127 0.49955 0.71944
 C266 C -0.09383 0.47020 0.67952
 C267 C -0.06119 0.48627 0.63948
 C268 C -0.05737 0.46049 0.59694
 H269 H -0.11418 0.43625 0.67421
 H270 H -0.04380 0.52210 0.64323
 H271 H -0.08026 0.53353 0.72247
 H272 H -0.07551 0.42509 0.59292
 C273 C 0.41144 -0.01122 0.18549
 C274 C 0.45558 -0.03335 0.17778
 C275 C 0.47941 -0.03558 0.12852
 C276 C 0.45387 -0.04286 0.08670
 H277 H 0.47726 -0.04573 0.20847
 H278 H 0.51829 -0.02593 0.12687
 H279 H 0.39172 0.00199 0.15362
 H280 H 0.41552 -0.05427 0.08884
 C281 C 0.28962 0.41464 0.00807
 C282 C 0.30658 0.44471 -0.02700
 C283 C 0.35407 0.47210 -0.02417
 C284 C 0.38925 0.46455 0.00972
 H285 H 0.28626 0.44729 -0.06119
 H286 H 0.36207 0.49599 -0.05476
 H287 H 0.30761 0.41428 0.04363
 H288 H 0.38293 0.43996 0.03991
 C289 C -0.19405 0.90119 0.50293
 C290 C -0.18028 0.92665 0.54377
 C291 C -0.13233 0.95293 0.54688
 C292 C -0.10952 0.97149 0.50721
 H293 H -0.20230 0.92408 0.57734
 H294 H -0.11489 0.95541 0.58275
 H295 H -0.17030 0.90178 0.47036
 H296 H -0.12854 0.97215 0.47220
 C297 C -0.18721 0.07822 1.00862
 C298 C -0.16543 0.05753 0.96843
 C299 C -0.11568 0.03544 0.96985
 C300 C -0.08104 0.05182 1.00128
 H301 H -0.18461 0.05662 0.93341
 H302 H -0.10696 0.00662 0.94279
 H303 H -0.16992 0.07461 1.04439
 H304 H -0.08880 0.08283 1.02599
 C305 C 0.28730 0.59376 0.48566
 C306 C 0.29452 0.55490 0.51464
 C307 C 0.34281 0.52946 0.51800
 C308 C 0.37838 0.53210 0.48322
 H309 H 0.26601 0.54480 0.54097
 H310 H 0.34983 0.50999 0.55173
 H311 H 0.31782 0.60695 0.46339
 H312 H 0.37098 0.54883 0.44815
 C313 C 0.19500 0.59892 0.49925
 C314 C 0.17777 0.56544 0.46643
 C315 C 0.12935 0.54025 0.47043
 C316 C 0.09428 0.55120 0.50455
 H317 H 0.19960 0.55708 0.43342
 H318 H 0.12147 0.51330 0.44143
 H319 H 0.17460 0.60701 0.53310
 H320 H 0.10061 0.57836 0.53355
 C321 C 0.72231 0.06702 0.00350
 C322 C 0.67481 0.08064 0.00531
 C323 C 0.63375 0.04572 0.00081
 C324 C 0.58944 0.06336 -0.01053
 H325 H 0.66589 0.11954 0.00815
 H326 H 0.63931 0.00696 0.00749
 H327 H 0.73132 0.02825 -0.00090
 H328 H 0.58602 0.10199 -0.01899
 C329 C 0.71396 0.90139 0.50254
 C330 C 0.66890 0.88236 0.49477
 C331 C 0.62266 0.90980 0.50292
 C332 C 0.61354 0.95419 0.48446
 H333 H 0.66534 0.84309 0.48789
 H334 H 0.59368 0.88980 0.52150
 H335 H 0.71724 0.93995 0.51324
 H336 H 0.64242 0.97310 0.46435
 C337 C 0.19576 0.40677 1.00741
 C338 C 0.18876 0.45330 1.02363
 C339 C 0.13879 0.47544 1.02851
 C340 C 0.09982 0.45947 1.00217
 H341 H 0.21975 0.47541 1.03595
 H342 H 0.13454 0.50640 1.05418
 H343 H 0.16359 0.38459 0.99880
 H344 H 0.10415 0.43072 0.97413
 C345 C 0.02402 0.29875 0.41078
 C346 C -0.00657 0.31731 0.44598
 C347 C 0.00678 0.36371 0.47195
 C348 C -0.02771 0.39261 0.49363
 H349 H -0.04356 0.30244 0.45024
 H350 H 0.04376 0.37802 0.46598
 H351 H 0.06055 0.31508 0.40760
 H352 H -0.06480 0.37843 0.49887
 C353 C 0.49222 -0.20927 -0.11380
 C354 C 0.49963 -0.18880 -0.06869
 C355 C 0.49184 -0.13530 -0.06179
 C356 C 0.49405 -0.11127 -0.01789
 H357 H 0.51329 -0.21007 -0.03836
 H358 H 0.48541 -0.11465 -0.09492
 H359 H 0.47944 -0.18535 -0.14264
 H360 H 0.50060 -0.13133 0.01558
 C361 C -0.01391 -0.20371 1.10283
 C362 C 0.01428 -0.18269 1.06834
 C363 C 0.00138 -0.13390 1.05053
 C364 C 0.03311 -0.10890 1.02261
 H365 H 0.04923 -0.19934 1.05707
 H366 H -0.03205 -0.11638 1.06483
 H367 H -0.04762 -0.18508 1.11503
 H368 H 0.06671 -0.12654 1.00889
 C369 C 0.52208 0.30090 0.61230
 C370 C 0.52073 0.31552 0.56511
 C371 C 0.51723 0.36871 0.55532
 C372 C 0.51160 0.38703 0.50995
 H373 H 0.52022 0.28920 0.53448
 H374 H 0.51710 0.39361 0.58723
 H375 H 0.52126 0.32927 0.64128
 H376 H 0.51120 0.36252 0.47778
 C377 C 0.53909 1.21041 0.59088
 C378 C 0.51171 1.19095 0.55404
 C379 C 0.52843 1.14505 0.52827
 C380 C 0.49886 1.11918 0.49768
 H381 H 0.47494 1.20502 0.54723
 H382 H 0.56255 1.12856 0.54060
 H383 H 0.57620 1.19581 0.59520
 H384 H 0.46451 1.13554 0.48585
 C385 C 0.02423 0.71249 1.09676
 C386 C -0.00160 0.69391 1.05862
 C387 C 0.01279 0.64629 1.03633
 C388 C -0.02092 0.61727 1.01459
 H389 H -0.03691 0.71001 1.04921
 H390 H 0.04888 0.63174 1.04532
 H391 H 0.05815 0.69412 1.10706
 H392 H -0.05721 0.63186 1.00658
 C393 C 0.51520 0.70304 -0.08875
 C394 C 0.48186 0.69439 -0.05247
 C395 C 0.47942 0.64819 -0.02425
 C396 C 0.51693 0.61629 -0.01970
 H397 H 0.44943 0.71778 -0.04959
 H398 H 0.44293 0.63801 -0.01100
 H399 H 0.54579 0.67770 -0.09436
 H400 H 0.55386 0.62643 -0.03134
 C401 C -0.00302 1.21088 0.39588
 C402 C 0.01557 1.19462 0.43868
 C403 C 0.00154 1.14497 0.45500
 C404 C 0.02057 1.12213 0.49433
 H405 H 0.04136 1.21657 0.46021
 H406 H -0.02390 1.12506 0.43116
 H407 H -0.02731 1.18634 0.37526
 H408 H 0.04672 1.14096 0.51821
 C409 C 0.74471 0.67419 0.97348
 C410 C 0.78111 0.67975 0.93959
 C411 C 0.77270 0.71218 0.89764
 C412 C 0.79917 0.70869 0.85533
 H413 H 0.81441 0.65768 0.93965
 H414 H 0.73967 0.73480 0.89938
 H415 H 0.71196 0.69713 0.97063
 H416 H 0.83171 0.68544 0.85325
 C417 C 0.25379 0.16409 0.44887
 C418 C 0.29155 0.17324 0.41770
 C419 C 0.28264 0.20760 0.37768
 C420 C 0.30588 0.20400 0.33379
 H421 H 0.32672 0.15437 0.41981
 H422 H 0.25039 0.23110 0.38189
 H423 H 0.21965 0.18463 0.44432
 H424 H 0.33759 0.17989 0.32897
 C425 C 0.73556 0.33800 0.46146
 C426 C 0.70357 0.33722 0.42376
 C427 C 0.71309 0.30321 0.38187
 C428 C 0.69499 0.31071 0.33677
 H429 H 0.67364 0.36352 0.42162
 H430 H 0.74093 0.27514 0.38698
 H431 H 0.76582 0.31163 0.46064
 H432 H 0.66759 0.33916 0.33148
 C433 C 0.24740 0.81372 0.96208
 C434 C 0.21578 0.82175 0.92482
 C435 C 0.21588 0.78786 0.88149
 C436 C 0.20141 0.80176 0.83646
 H437 H 0.19357 0.85483 0.92386
 H438 H 0.23505 0.75316 0.88538
 H439 H 0.27075 0.78132 0.95913
 H440 H 0.18250 0.83653 0.83259
 C441 C 0.26117 0.81909 0.05286
 C442 C 0.29575 0.78396 0.05905
 C443 C 0.29940 0.75720 0.10591
 C444 C 0.30037 0.78148 0.14959
 H445 H 0.32009 0.77295 0.02871
 H446 H 0.29767 0.71740 0.10429
 H447 H 0.23628 0.82774 0.08366
 H448 H 0.30197 0.82123 0.14890
 C449 C 0.73213 0.34302 0.55025
 C450 C 0.76837 0.33286 0.58205
 C451 C 0.75623 0.30156 0.62414
 C452 C 0.78736 0.29248 0.66105
 H453 H 0.80540 0.34746 0.57783
 H454 H 0.71881 0.28723 0.62594
 H455 H 0.69646 0.32547 0.55608
 H456 H 0.82465 0.30707 0.66056
 C457 C 0.25596 0.16431 0.53700
 C458 C 0.21827 0.17537 0.56805
 C459 C 0.22745 0.21057 0.60872
 C460 C 0.20141 0.21110 0.65112
 H461 H 0.18239 0.15799 0.56479
 H462 H 0.26090 0.23240 0.60590
 H463 H 0.29113 0.18295 0.54251
 H464 H 0.16889 0.18813 0.65492
 C465 C 0.72970 0.66258 0.06186
 C466 C 0.68697 0.65852 0.08809
 C467 C 0.68033 0.68166 0.13763
 C468 C 0.69902 0.72585 0.14875
 H469 H 0.65789 0.63386 0.07621
 H470 H 0.66226 0.66024 0.16557
 H471 H 0.75821 0.68699 0.07606
 H472 H 0.71229 0.74816 0.11862
 C473 C 0.15232 0.54200 0.24635
 C474 C 0.17876 0.55634 0.20675
 C475 C 0.20172 0.60542 0.20456
 C476 C 0.21965 0.62848 0.24472
 H477 H 0.17924 0.53387 0.17313
 H478 H 0.20279 0.62301 0.16902
 H479 H 0.15130 0.56583 0.27902
 H480 H 0.22223 0.60887 0.27893
 C481 C 0.64909 0.03506 0.73783
 C482 C 0.66122 0.06310 0.69900
 C483 C 0.69215 0.10828 0.70180
 C484 C 0.70976 0.12851 0.74387
 H485 H 0.64624 0.05476 0.66290
 H486 H 0.69548 0.12855 0.66789
 H487 H 0.66516 0.04313 0.77353
 H488 H 0.70723 0.10930 0.77826
 C489 C 0.84491 0.06183 0.24977
 C490 C 0.80795 0.07132 0.21855
 C491 C 0.78276 0.11954 0.21662
 C492 C 0.78513 0.15409 0.25275
 H493 H 0.79826 0.04391 0.19055
 H494 H 0.76269 0.12697 0.18315
 H495 H 0.85729 0.09023 0.27546
 H496 H 0.80251 0.14651 0.28758
 C497 C 0.34733 0.54782 0.76092
 C498 C 0.30821 0.55656 0.73216
 C499 C 0.28398 0.60494 0.72862
 C500 C 0.29301 0.64361 0.75887
 H501 H 0.29644 0.52835 0.70586
 H502 H 0.25926 0.60903 0.69768
 H503 H 0.36160 0.57661 0.78503
 H504 H 0.31528 0.63981 0.79139
 C505 C 0.34719 0.45578 0.74971
 C506 C 0.30932 0.44643 0.78069
 C507 C 0.28374 0.39852 0.78126
 C508 C 0.28483 0.36655 0.74282
 H509 H 0.29969 0.47310 0.80962
 H510 H 0.26503 0.38893 0.81532
 H511 H 0.35999 0.42734 0.72394
 H512 H 0.30052 0.37685 0.70758
 C513 C 0.84136 0.96991 0.24938
 C514 C 0.86059 0.92444 0.24740
 C515 C 0.83319 0.88076 0.26192
 C516 C 0.78983 0.86791 0.24252
 H517 H 0.90025 0.91985 0.24304
 H518 H 0.85245 0.85657 0.28604
 H519 H 0.80241 0.97468 0.25841
 H520 H 0.77180 0.89239 0.21724
 C521 C 0.64655 0.94477 0.74579
 C522 C 0.68832 0.93428 0.72015
 C523 C 0.71572 0.88734 0.72337
 C524 C 0.70951 0.85509 0.75974
 H525 H 0.70118 0.95961 0.69247
 H526 H 0.74109 0.87869 0.69309
 H527 H 0.63166 0.91776 0.77066
 H528 H 0.68632 0.86391 0.79154
 C529 C 0.15462 0.45067 0.23972
 C530 C 0.13559 0.40530 0.23486
 C531 C 0.16383 0.36037 0.22328
 C532 C 0.20664 0.34804 0.24417
 H533 H 0.09594 0.40040 0.23592
 H534 H 0.14368 0.33356 0.20175
 H535 H 0.19442 0.45546 0.23729
 H536 H 0.22522 0.37426 0.26836
 C537 C 0.04300 0.25967 0.85938
 C538 C 0.06345 0.23744 0.81904
 C539 C 0.11347 0.25268 0.80255
 C540 C 0.13733 0.23354 0.76255
 H541 H 0.04476 0.20738 0.80004
 H542 H 0.13242 0.27915 0.82620
 H543 H 0.06413 0.28861 0.87771
 H544 H 0.11900 0.20681 0.73874
 C545 C 0.53830 0.73349 0.35832
 C546 C 0.55438 0.75098 0.31489
 C547 C 0.60531 0.73995 0.29853
 C548 C 0.62658 0.75898 0.25815
 H549 H 0.53118 0.77451 0.29311
 H550 H 0.62734 0.71848 0.32339
 H551 H 0.56389 0.71185 0.37961
 H552 H 0.60497 0.78096 0.23338
 C553 C 0.54433 0.27258 0.15889
 C554 C 0.55452 0.24506 0.19842
 C555 C 0.60254 0.24512 0.22453
 C556 C 0.63533 0.28221 0.22500
 H557 H 0.52968 0.21530 0.20750
 H558 H 0.61262 0.21059 0.24094
 H559 H 0.57122 0.29958 0.14717
 H560 H 0.62537 0.31735 0.20997
 C561 C 0.03759 0.76536 0.63977
 C562 C 0.05751 0.75528 0.68385
 C563 C 0.11058 0.76477 0.69232
 C564 C 0.13291 0.75507 0.73520
 H565 H 0.03599 0.73793 0.71255
 H566 H 0.13242 0.77718 0.66116
 H567 H 0.06162 0.78112 0.61187
 H568 H 0.11116 0.74251 0.76635
 C569 C 0.94973 0.74114 0.66645
 C570 C 0.94298 0.77207 0.70581
 C571 C 0.89819 0.77261 0.73802
 C572 C 0.86866 0.73372 0.74526
 H573 H 0.96655 0.80417 0.70908
 H574 H 0.88604 0.80871 0.75096
 H575 H 0.92357 0.71145 0.66046
 H576 H 0.88114 0.69737 0.73366
 C577 C 0.45429 0.25231 0.15362
 C578 C 0.43558 0.20816 0.16537
 C579 C 0.38568 0.20217 0.18712
 C580 C 0.36578 0.23213 0.22225
 H581 H 0.45407 0.17473 0.15296
 H582 H 0.36382 0.17297 0.17068
 H583 H 0.43421 0.28503 0.16580
 H584 H 0.38823 0.26068 0.23932
 C585 C 0.44782 0.74802 0.34330
 C586 C 0.44333 0.71396 0.30645
 C587 C 0.40047 0.71111 0.27291
 C588 C 0.37256 0.75013 0.26211
 H589 H 0.46931 0.68363 0.30415
 H590 H 0.38890 0.67454 0.26120
 H591 H 0.41927 0.77568 0.34879
 H592 H 0.38552 0.78605 0.27376
 C593 C 0.95691 0.22454 0.84807
 C594 C 0.93636 0.25073 0.81195
 C595 C 0.89158 0.23123 0.78700
 C596 C 0.86224 0.25906 0.75912
 H597 H 0.94876 0.28790 0.80523
 H598 H 0.87855 0.19541 0.79810
 H599 H 0.94280 0.18761 0.85336
 H600 H 0.87491 0.29510 0.74835
 C601 C 0.59042 0.98059 0.68579
 C602 C 0.54188 0.97074 0.67923
 C603 C 0.51800 0.96687 0.63027
 C604 C 0.54187 0.95583 0.58763
 H605 H 0.51657 0.97075 0.71043
 H606 H 0.47964 0.97843 0.62941
 H607 H 0.61452 0.98040 0.65358
 H608 H 0.57959 0.94292 0.58874
 C609 C 0.08527 0.49646 1.20269
 C610 C 0.04242 0.47143 1.20043
 C611 C 0.01404 0.46868 1.15425
 C612 C 0.03622 0.46016 1.11015
 H613 H 0.02681 0.45460 1.23296
 H614 H -0.02492 0.47800 1.15657
 H615 H 0.09762 0.51422 1.16928
 H616 H 0.07472 0.44904 1.10881
 C617 C -0.09547 0.01248 1.19847
 C618 C -0.06720 0.04916 1.18141
 C619 C -0.03013 0.03615 1.14338
 C620 C -0.01958 0.06323 1.10380
 H621 H -0.06919 0.08614 1.19711
 H622 H -0.01604 -0.00111 1.14511
 H623 H -0.09212 -0.02317 1.17978
 H624 H -0.03491 0.09981 1.10061
 C625 C 0.41183 0.50414 0.70868
 C626 C 0.41446 0.54107 0.67658
 C627 C 0.44923 0.53598 0.63500
 C628 C 0.43940 0.55308 0.59015
 H629 H 0.39056 0.57295 0.67918
 H630 H 0.48001 0.51110 0.64000
 H631 H 0.43615 0.47267 0.70248
 H632 H 0.40811 0.57731 0.58511
 C633 C 0.41441 0.49922 -0.20301
 C634 C 0.42279 0.45991 -0.17507
 C635 C 0.46076 0.46418 -0.13710
 C636 C 0.45460 0.44521 -0.09227
 H637 H 0.40132 0.42643 -0.17846
 H638 H 0.48948 0.49120 -0.14337
 H639 H 0.43673 0.53196 -0.19648
 H640 H 0.42504 0.41915 -0.08581
 C641 C -0.08756 1.01634 0.28863
 C642 C -0.08662 0.98582 0.32706
 C643 C -0.04909 0.99215 0.36521
 C644 C -0.04769 0.96373 0.40507
 H645 H -0.11453 0.95796 0.33245
 H646 H -0.02550 1.02425 0.36280
 H647 H -0.05950 1.04486 0.28686
 H648 H -0.07149 0.93179 0.40749
 C649 C 0.09282 0.49216 0.29546
 C650 C 0.06799 0.52931 0.31852
 C651 C 0.04004 0.51858 0.36408
 C652 C 0.02811 0.55168 0.40026
 H653 H 0.06845 0.56624 0.30438
 H654 H 0.03158 0.48006 0.36921
 H655 H 0.09078 0.45610 0.31180
 H656 H 0.03729 0.59018 0.39659
 C657 C 0.57614 -0.00657 -0.22223
 C658 C 0.56424 0.03324 -0.19384
 C659 C 0.52728 0.02726 -0.15376
 C660 C 0.52657 0.05489 -0.11180
 H661 H 0.58290 0.06815 -0.19793
 H662 H 0.50499 -0.00581 -0.15590
 H663 H 0.55647 -0.04055 -0.21494
 H664 H 0.54967 0.08735 -0.10895
 C665 C 0.70056 0.60017 -0.00140
 C666 C 0.69268 0.55776 0.02207
 C667 C 0.64497 0.53141 0.02123
 C668 C 0.60964 0.53914 -0.01209
 H669 H 0.71931 0.54577 0.04895
 H670 H 0.63769 0.50738 0.05189
 H671 H 0.67217 0.61452 -0.02505
 H672 H 0.61683 0.56093 -0.04430
 C673 C 0.20648 1.09983 0.49025
 C674 C 0.19609 1.06365 0.52174
 C675 C 0.14706 1.03960 0.52512
 C676 C 0.11214 1.04290 0.49046
 H677 H 0.22316 1.05390 0.54909
 H678 H 0.13941 1.01941 0.55840
 H679 H 0.17814 1.11211 0.46544
 H680 H 0.11974 1.06044 0.45575
 C681 C 0.21411 -0.11473 1.01290
 C682 C 0.21301 -0.06991 0.99253
 C683 C 0.16833 -0.03864 0.99136
 C684 C 0.13045 -0.04251 1.02325
 H685 H 0.24428 -0.05727 0.97104
 H686 H 0.16623 -0.01267 0.96165
 H687 H 0.18081 -0.12891 1.03004
 H688 H 0.13312 -0.06651 1.05449
 C689 C 0.69002 0.40722 0.50578
 C690 C 0.68513 0.44849 0.47988
 C691 C 0.63702 0.47389 0.47587
 C692 C 0.60107 0.47005 0.51012
 H693 H 0.71547 0.46120 0.45707
 H694 H 0.63058 0.49435 0.44263
 H695 H 0.65736 0.39222 0.52345
 H696 H 0.60821 0.45246 0.54483
 C697 C -0.21731 0.40613 0.50454
 C698 C -0.19009 0.41399 0.46339
 C699 C -0.14211 0.43996 0.46212
 C700 C -0.12387 0.46753 0.49937
 H701 H -0.20167 0.39820 0.42825
 H702 H -0.12026 0.43443 0.42861
 H703 H -0.20663 0.42306 0.53942
 H704 H -0.14545 0.47488 0.53263
 C705 C 0.30564 -0.12323 0.00040
 C706 C 0.32762 -0.11349 -0.04312
 C707 C 0.37338 -0.08412 -0.04686
 C708 C 0.38588 -0.04916 -0.01344
 H709 H 0.31280 -0.12847 -0.07733
 H710 H 0.39687 -0.09129 -0.07889
 H711 H 0.32183 -0.10886 0.03430
 H712 H 0.36086 -0.03934 0.01673
 C713 C 0.29831 1.09487 0.49018
 C714 C 0.32428 1.08253 0.53027
 C715 C 0.37040 1.05343 0.52818
 C716 C 0.40029 1.05127 0.48835
 H717 H 0.31179 1.09444 0.56681
 H718 H 0.38213 1.03713 0.56234
 H719 H 0.30791 1.07835 0.45449
 H720 H 0.39011 1.06977 0.45500
 C721 C -0.20982 0.60569 1.01488
 C722 C -0.18121 0.60132 1.05495
 C723 C -0.13297 0.57555 1.05440
 C724 C -0.11767 0.54355 1.01881
 H725 H -0.19132 0.61966 1.08952
 H726 H -0.10859 0.58475 1.08480
 H727 H -0.19910 0.58695 0.98071
 H728 H -0.14184 0.53219 0.98908
 C729 C -0.01174 0.70917 0.58758
 C730 C -0.04271 0.70051 0.54962
 C731 C -0.04377 0.65314 0.52110
 C732 C -0.00381 0.62470 0.51139
 H733 H -0.07270 0.72597 0.54341
 H734 H -0.08019 0.63958 0.51143
 H735 H 0.01479 0.68082 0.59643
 H736 H 0.03270 0.63895 0.51946
 C737 C 0.51705 0.21302 0.09398
 C738 C 0.49352 0.19523 0.05371
 C739 C 0.50688 0.14578 0.03387
 C740 C 0.48300 0.12248 -0.00335
 H741 H 0.46306 0.21533 0.03801
 H742 H 0.53462 0.12597 0.05414
 H743 H 0.54635 0.19077 0.10917
 H744 H 0.45473 0.14168 -0.02345
 C745 C 0.00315 0.20365 0.92278
 C746 C 0.04723 0.19007 0.94066
 C747 C 0.05457 0.14467 0.96905
 C748 C 0.01868 0.12080 0.99374
 H749 H 0.08047 0.20907 0.92926
 H750 H 0.09093 0.12816 0.96520
 H751 H -0.02962 0.18396 0.93449
 H752 H -0.01708 0.13783 0.99995
 C753 C 0.47579 0.70358 0.41721
 C754 C 0.50156 0.69600 0.45873
 C755 C 0.50293 0.64833 0.48409
 C756 C 0.46746 0.61390 0.48095
 H757 H 0.52912 0.72285 0.46991
 H758 H 0.53729 0.63990 0.50238
 H759 H 0.45125 0.67492 0.40364
 H760 H 0.43236 0.62233 0.46422
 C761 C 0.49268 0.79505 0.40944
 C762 C 0.46350 0.80949 0.44784
 C763 C 0.46634 0.85910 0.47200
 C764 C 0.50796 0.88616 0.47397
 H765 H 0.43389 0.78557 0.45980
 H766 H 0.43212 0.87428 0.48700
 H767 H 0.51894 0.82112 0.39458
 H768 H 0.54182 0.87032 0.45914
 C769 C -0.02628 0.28900 0.91320
 C770 C -0.00441 0.31023 0.95295
 C771 C -0.02106 0.35895 0.97193
 C772 C 0.00426 0.38545 1.00597
 H773 H 0.02829 0.29376 0.96852
 H774 H -0.05188 0.37556 0.95317
 H775 H -0.05795 0.30741 0.89761
 H776 H 0.03566 0.36919 1.02410
 C777 C 0.49431 0.30280 0.08902
 C778 C 0.52512 0.31256 0.05106
 C779 C 0.52475 0.35926 0.02387
 C780 C 0.48529 0.38904 0.01976
 H781 H 0.55610 0.28813 0.04347
 H782 H 0.56037 0.37095 0.00960
 H783 H 0.46623 0.32973 0.09928
 H784 H 0.44921 0.37711 0.03236
 C785 C -0.03577 0.79962 0.59926
 C786 C -0.01881 0.81798 0.55661
 C787 C -0.03134 0.86908 0.54400
 C788 C -0.01219 0.89101 0.50424
 H789 H 0.00792 0.79751 0.53414
 H790 H -0.05148 0.89091 0.57153
 H791 H -0.06163 0.82218 0.62085
 H792 H 0.00860 0.86929 0.47706
 C793 C 0.25008 0.33929 0.03774
 C794 C 0.21341 0.32023 0.06543
 C795 C 0.22647 0.28460 0.10302
 C796 C 0.19650 0.27345 0.14111
 H797 H 0.17564 0.33319 0.06360
 H798 H 0.26490 0.27313 0.10335
 H799 H 0.28708 0.32416 0.04133
 H800 H 0.15772 0.28304 0.14011
 C801 C 0.76178 0.83230 0.54287
 C802 C 0.72637 0.82481 0.57734
 C803 C 0.73609 0.79066 0.61754
 C804 C 0.70619 0.78642 0.65726
 H805 H 0.69208 0.84524 0.57826
 H806 H 0.77183 0.77251 0.61686
 H807 H 0.79595 0.81168 0.54588
 H808 H 0.67077 0.80511 0.65873
 C809 C 0.24879 0.66552 0.53187
 C810 C 0.28730 0.66934 0.56275
 C811 C 0.28447 0.70622 0.60307
 C812 C 0.30093 0.69692 0.64838
 H813 H 0.31818 0.64398 0.56105
 H814 H 0.26083 0.73777 0.59734
 H815 H 0.21804 0.69066 0.53823
 H816 H 0.32370 0.66481 0.65413
 C817 C 0.75694 0.13618 0.05367
 C818 C 0.79102 0.16757 0.07163
 C819 C 0.77541 0.20259 0.11064
 C820 C 0.80373 0.21616 0.14895
 H821 H 0.82848 0.16830 0.05696
 H822 H 0.73668 0.21311 0.11038
 H823 H 0.72066 0.13679 0.07131
 H824 H 0.84192 0.20427 0.15067
 C825 C 0.76473 0.14061 0.96387
 C826 C 0.73150 0.14340 0.92737
 C827 C 0.73868 0.17974 0.88878
 C828 C 0.70735 0.18494 0.85104
 H829 H 0.70055 0.11850 0.92415
 H830 H 0.77307 0.20023 0.88961
 H831 H 0.79545 0.16637 0.96387
 H832 H 0.67306 0.16434 0.84976
 C833 C 0.23750 0.65489 0.44178
 C834 C 0.20554 0.69209 0.43503
 C835 C 0.20684 0.71952 0.38876
 C836 C 0.20755 0.69571 0.34498
 H837 H 0.18214 0.70578 0.46501
 H838 H 0.21278 0.75890 0.39126
 H839 H 0.26129 0.64369 0.41089
 H840 H 0.19978 0.65669 0.34409
 C841 C 0.76180 0.84063 0.45112
 C842 C 0.79495 0.80502 0.43958
 C843 C 0.79442 0.77950 0.39085
 C844 C 0.79034 0.80469 0.34919
 H845 H 0.82041 0.79198 0.46696
 H846 H 0.79366 0.73966 0.38988
 H847 H 0.73624 0.85158 0.42266
 H848 H 0.79219 0.84449 0.35140
 C849 C 0.24515 0.35521 0.95034
 C850 C 0.28473 0.33487 0.92741
 C851 C 0.27517 0.30175 0.88500
 C852 C 0.30312 0.29908 0.84376
 H853 H 0.32203 0.34104 0.94045
 H854 H 0.23957 0.28336 0.88575
 H855 H 0.20905 0.34746 0.93453
 H856 H 0.33782 0.31888 0.84157
 C857 C 0.83307 0.44254 0.75271
 C858 C 0.78382 0.43637 0.75264
 C859 C 0.76185 0.38685 0.74927
 C860 C 0.78272 0.34811 0.77074
 H861 H 0.75889 0.46750 0.75341
 H862 H 0.72764 0.38270 0.72908
 H863 H 0.85638 0.41008 0.74947
 H864 H 0.81505 0.35312 0.79366
 C865 C 0.35070 0.94956 0.23985
 C866 C 0.36939 0.90396 0.23870
 C867 C 0.34067 0.85889 0.23178
 C868 C 0.29801 0.84788 0.25485
 H869 H 0.40903 0.89887 0.23594
 H870 H 0.35993 0.83121 0.20969
 H871 H 0.31090 0.95434 0.23833
 H872 H 0.27991 0.87487 0.27894
 C873 C 0.15950 0.96751 0.77074
 C874 C 0.17442 0.93524 0.73570
 C875 C 0.20635 0.89371 0.74808
 C876 C 0.20430 0.85304 0.71985
 H877 H 0.15833 0.93534 0.69918
 H878 H 0.22711 0.89446 0.78220
 H879 H 0.17672 0.96631 0.80684
 H880 H 0.18220 0.85307 0.68656
 C881 C 0.65208 0.46373 0.24332
 C882 C 0.69177 0.45540 0.27139
 C883 C 0.71818 0.40778 0.27095
 C884 C 0.71482 0.37397 0.23414
 H885 H 0.70254 0.48266 0.29910
 H886 H 0.73923 0.39970 0.30368
 H887 H 0.63864 0.43456 0.21906
 H888 H 0.69645 0.38231 0.20000
 C889 C 0.64957 0.55586 0.25730
 C890 C 0.68793 0.56822 0.22827
 C891 C 0.71527 0.61513 0.23401
 C892 C 0.69553 0.65581 0.25546
 H893 H 0.69991 0.54305 0.19886
 H894 H 0.75086 0.61720 0.21536
 H895 H 0.63894 0.58009 0.28796
 H896 H 0.65875 0.65486 0.27123
 C897 C 0.13200 0.05389 0.77823
 C898 C 0.17271 0.07281 0.75800
 C899 C 0.18731 0.12358 0.76931
 C900 C 0.22405 0.14372 0.74383
 H901 H 0.19454 0.05093 0.73171
 H902 H 0.16665 0.14497 0.79686
 H903 H 0.10961 0.07710 0.80292
 H904 H 0.24416 0.12169 0.71631
 C905 C 0.35529 0.04135 0.23550
 C906 C 0.31953 0.05229 0.26888
 C907 C 0.29416 0.10046 0.27147
 C908 C 0.29212 0.13082 0.23316
 H909 H 0.31081 0.02637 0.29751
 H910 H 0.27686 0.11091 0.30647
 H911 H 0.36751 0.06937 0.21028
 H912 H 0.30519 0.11861 0.19700
 C913 C 0.82573 0.53510 0.76289
 C914 C 0.80584 0.55463 0.72248
 C915 C 0.78076 0.60277 0.72372
 C916 C 0.79434 0.63888 0.75527
 H917 H 0.80989 0.53583 0.68687
 H918 H 0.75409 0.60987 0.69510
 H919 H 0.81738 0.55158 0.79894
 H920 H 0.82376 0.63268 0.78125
 C921 C 0.95907 0.73141 0.15866
 C922 C 0.93717 0.75436 0.19733
 C923 C 0.88507 0.74359 0.20819
 C924 C 0.86092 0.76433 0.24666
 H925 H 0.95498 0.78520 0.21601
 H926 H 0.86491 0.72212 0.18073
 H927 H 0.93911 0.70152 0.14048
 H928 H 0.88166 0.78340 0.27518
 C929 C 0.46837 0.23683 0.64807
 C930 C 0.44502 0.26302 0.68423
 C931 C 0.39344 0.25127 0.69778
 C932 C 0.36703 0.27710 0.73198
 H933 H 0.46352 0.29353 0.70275
 H934 H 0.37623 0.22120 0.67738
 H935 H 0.44889 0.20612 0.63098
 H936 H 0.38395 0.30751 0.75214
 C937 C 0.45919 0.71787 0.84162
 C938 C 0.44040 0.73732 0.80066
 C939 C 0.38962 0.72423 0.78587
 C940 C 0.36716 0.74466 0.74749
 H941 H 0.46007 0.76613 0.78161
 H942 H 0.36831 0.70205 0.81107
 H943 H 0.43764 0.68940 0.85933
 H944 H 0.38819 0.76782 0.72287
 C945 C 0.96260 0.27840 0.34558
 C946 C 0.93995 0.25367 0.30851
 C947 C 0.89114 0.27017 0.29099
 C948 C 0.86446 0.24381 0.25814
 H949 H 0.95551 0.21961 0.29373
 H950 H 0.87517 0.30278 0.30860
 H951 H 0.94545 0.31227 0.35918
 H952 H 0.88017 0.21081 0.24106
 C953 C 0.05101 0.25527 0.33388
 C954 C 0.06144 0.21471 0.30613
 C955 C 0.10704 0.20950 0.27510
 C956 C 0.13327 0.24757 0.25758
 H957 H 0.03925 0.18195 0.31050
 H958 H 0.12156 0.17251 0.27055
 H959 H 0.07397 0.28746 0.32924
 H960 H 0.11775 0.28394 0.26105
 C961 C 0.55059 0.74174 0.83648
 C962 C 0.55814 0.71729 0.79317
 C963 C 0.60645 0.71808 0.76684
 C964 C 0.63592 0.75788 0.76548
 H965 H 0.53100 0.69107 0.77984
 H966 H 0.61961 0.68312 0.75177
 H967 H 0.58064 0.76381 0.85138
 H968 H 0.62204 0.79307 0.77915
 C969 C 0.55621 0.24465 0.67375
 C970 C 0.55940 0.20432 0.70166
 C971 C 0.60329 0.19436 0.73219
 C972 C 0.62929 0.23006 0.75470
 H973 H 0.53408 0.17408 0.69491
 H974 H 0.61688 0.15729 0.73075
 H975 H 0.58485 0.27246 0.67709
 H976 H 0.61208 0.26594 0.75928
 C977 C 0.04353 0.76951 0.16690
 C978 C 0.06444 0.74011 0.19976
 C979 C 0.11137 0.75501 0.22271
 C980 C 0.14130 0.72182 0.24240
 H981 H 0.05041 0.70315 0.20462
 H982 H 0.12471 0.79204 0.21671
 H983 H 0.05978 0.80554 0.16140
 H984 H 0.12822 0.68457 0.24742
   
