data_POSCAR
  _audit_creation_date              2014-09-24
  _audit_creation_method            'ToBaCCo'
  _symmetry_space_group_name_H-M    'P1'
  _symmetry_Int_Tables_number       1
  _symmetry_cell_setting            triclinic
  loop_
  _symmetry_equiv_pos_as_xyz
 x,y,z
_cell_length_a 45.1992
_cell_length_b 45.6873
_cell_length_c 7.1487
_cell_angle_alpha 89.992500
_cell_angle_beta 90.997000
_cell_angle_gamma 90.059000
loop_
  _atom_site_label
  _atom_site_type_symbol
  _atom_site_fract_x
  _atom_site_fract_y
  _atom_site_fract_z
C1 C 0.18743 0.22221 0.22744
 C2 C 0.17229 0.24887 0.22794
 C3 C 0.18752 0.27547 0.22897
 C4 C 0.21877 0.27574 0.22963
 C5 C 0.23445 0.24886 0.22963
 C6 C 0.21874 0.22193 0.22763
 C7 C 0.23478 0.19559 0.22494
 C8 C 0.26557 0.19563 0.22697
 C9 C 0.28160 0.22203 0.23181
 C10 C 0.26588 0.24890 0.23149
 C11 C 0.23475 0.30214 0.22946
 C12 C 0.26553 0.30218 0.23131
 C13 C 0.28154 0.27583 0.23347
 C14 C 0.31279 0.27564 0.23745
 C15 C 0.32806 0.24909 0.23903
 C16 C 0.31293 0.22239 0.23649
 H17 H 0.22364 0.17465 0.22097
 H18 H 0.27671 0.17473 0.22400
 H19 H 0.22357 0.32305 0.22794
 H20 H 0.27669 0.32312 0.23114
 H21 H 0.14825 0.24898 0.22721
 H22 H 0.35210 0.24926 0.24345
 C23 C 0.81469 0.27730 0.23621
 C24 C 0.82977 0.25064 0.22880
 C25 C 0.81460 0.22404 0.23564
 C26 C 0.78346 0.22375 0.24949
 C27 C 0.76785 0.25064 0.25681
 C28 C 0.78349 0.27756 0.25060
 C29 C 0.76751 0.30394 0.25944
 C30 C 0.73683 0.30387 0.27280
 C31 C 0.72091 0.27747 0.27821
 C32 C 0.73655 0.25059 0.27069
 C33 C 0.76753 0.19734 0.25676
 C34 C 0.73685 0.19730 0.27005
 C35 C 0.72092 0.22367 0.27696
 C36 C 0.68977 0.22390 0.29046
 C37 C 0.67465 0.25050 0.29795
 C38 C 0.68977 0.27713 0.29158
 H39 H 0.77862 0.32489 0.25657
 H40 H 0.72568 0.32476 0.27931
 H41 H 0.77868 0.17642 0.25258
 H42 H 0.72570 0.17638 0.27512
 H43 H 0.85372 0.25053 0.21760
 H44 H 0.65071 0.25046 0.30841
 C45 C 0.68671 0.72367 0.75109
 C46 C 0.67148 0.75023 0.74586
 C47 C 0.68665 0.77686 0.75046
 C48 C 0.71790 0.77721 0.75981
 C49 C 0.73361 0.75036 0.76450
 C50 C 0.71795 0.72343 0.76018
 C51 C 0.73393 0.69706 0.76485
 C52 C 0.76472 0.69711 0.77321
 C53 C 0.78068 0.72353 0.77806
 C54 C 0.76501 0.75041 0.77379
 C55 C 0.73383 0.80364 0.76430
 C56 C 0.76462 0.80371 0.77280
 C57 C 0.78068 0.77735 0.77824
 C58 C 0.81198 0.77707 0.78784
 C59 C 0.82713 0.75043 0.79270
 C60 C 0.81192 0.72383 0.78726
 H61 H 0.72276 0.67612 0.76214
 H62 H 0.77591 0.67620 0.77613
 H63 H 0.72262 0.82453 0.76132
 H64 H 0.77575 0.82468 0.77490
 H65 H 0.64746 0.75017 0.73840
 H66 H 0.85117 0.75033 0.80000
 C67 C 0.31148 0.77669 0.71204
 C68 C 0.32660 0.75008 0.70619
 C69 C 0.31144 0.72347 0.71228
 C70 C 0.28027 0.72318 0.72420
 C71 C 0.26462 0.75006 0.72929
 C72 C 0.28030 0.77696 0.72372
 C73 C 0.26441 0.80333 0.73004
 C74 C 0.23369 0.80333 0.74032
 C75 C 0.21762 0.77697 0.74442
 C76 C 0.23325 0.75005 0.73963
 C77 C 0.26435 0.69680 0.73130
 C78 C 0.23365 0.69677 0.74182
 C79 C 0.21760 0.72312 0.74522
 C80 C 0.18634 0.72336 0.75437
 C81 C 0.17120 0.75002 0.75825
 C82 C 0.18636 0.77669 0.75355
 H83 H 0.27560 0.82423 0.72713
 H84 H 0.22264 0.82426 0.74513
 H85 H 0.27552 0.67590 0.72903
 H86 H 0.22257 0.67584 0.74740
 H87 H 0.35055 0.75008 0.69658
 H88 H 0.14719 0.75000 0.76561
 O89 O 0.97079 -0.01940 -0.20789
 O90 O 1.02874 0.03378 -0.07762
 O91 O 1.02838 -0.01955 -0.20825
 O92 O 0.97146 0.03388 -0.07734
 O93 O 0.97218 0.01774 0.21423
 O94 O 1.02907 -0.03572 0.08326
 O95 O 1.02975 0.01765 0.21405
 O96 O 0.97177 -0.03552 0.08380
 Cu97 Cu 0.99978 0.00901 -0.17132
 Cu98 Cu 1.00080 -0.01081 0.17734
 C99 C 0.96164 -0.03666 -0.08238
 C100 C 1.03880 0.03500 0.08867
 C101 C 1.03812 -0.03695 -0.08326
 C102 C 0.96238 0.03509 0.08916
 O103 O 0.47151 0.48140 0.28055
 O104 O 0.52896 0.53424 0.42465
 O105 O 0.52910 0.48099 0.29355
 O106 O 0.47169 0.53466 0.41086
 O107 O 0.47048 0.51843 0.70204
 O108 O 0.52787 0.46473 0.58464
 O109 O 0.52806 0.51794 0.71567
 O110 O 0.47058 0.46511 0.57161
 Cu111 Cu 0.50042 0.50966 0.32376
 Cu112 Cu 0.49913 0.48971 0.67216
 C113 C 0.46154 0.46406 0.40302
 C114 C 0.53803 0.53527 0.59318
 C115 C 0.53802 0.46356 0.42071
 C116 C 0.46158 0.53587 0.57481
 O117 O -0.02798 0.53499 0.08488
 O118 O 0.02984 0.48181 0.21604
 O119 O 0.02932 0.53520 0.08537
 O120 O -0.02773 0.48175 0.21545
 O121 O -0.02834 0.46555 -0.07598
 O122 O 0.02871 0.51901 -0.20606
 O123 O 0.02894 0.46566 -0.07555
 O124 O -0.02887 0.51881 -0.20665
 Cu125 Cu 0.00096 0.51028 0.17899
 Cu126 Cu 0.00006 0.49042 -0.16964
 C127 C -0.03805 0.53609 -0.08147
 C128 C 0.03892 0.46446 0.09090
 C129 C 0.03843 0.53642 -0.08099
 C130 C -0.03751 0.46439 0.09033
 O131 O 0.47082 1.03531 0.56987
 O132 O 0.52830 0.98259 0.71442
 O133 O 0.52813 1.03576 0.58248
 O134 O 0.47068 0.98204 0.70111
 O135 O 0.47178 0.96580 0.40997
 O136 O 0.52922 1.01954 0.29132
 O137 O 0.52912 0.96632 0.42333
 O138 O 0.47162 1.01902 0.27877
 Cu139 Cu 0.49938 1.01077 0.67046
 Cu140 Cu 0.50053 0.99082 0.32236
 C141 C 0.46169 1.03633 0.40142
 C142 C 0.53825 0.96530 0.59175
 C143 C 0.53822 1.03696 0.41840
 C144 C 0.46169 0.96461 0.57404
 C145 C 1.09686 0.10189 0.18807
 C146 C 1.08554 0.13063 0.16732
 C147 C 1.10496 0.15504 0.18084
 C148 C 1.13558 0.15058 0.21561
 C149 C 1.14678 0.12186 0.24007
 C150 C 1.12737 0.09743 0.22535
 C151 C 1.13912 0.06891 0.24741
 C152 C 1.16920 0.06465 0.28397
 C153 C 1.18815 0.08854 0.29958
 C154 C 1.17717 0.11686 0.27811
 C155 C 1.09316 0.18356 0.15778
 C156 C 1.06306 0.18782 0.12248
 C157 C 1.04406 0.16396 0.10937
 C158 C 1.05503 0.13565 0.13143
 C159 C 1.15540 0.17562 0.22214
 C160 C 1.17091 0.19711 0.22530
 C161 C 1.07718 0.07704 0.16276
 C162 C 1.06010 0.05721 0.13410
 H163 H 1.12522 0.04966 0.23688
 H164 H 1.17784 0.04269 0.30035
 H165 H 1.21148 0.08512 0.32845
 H166 H 1.19271 0.13473 0.29228
 H167 H 1.10702 0.20285 0.16691
 H168 H 1.05445 0.20978 0.10510
 H169 H 1.02070 0.16739 0.08150
 H170 H 1.03933 0.11782 0.12014
 C171 C 0.59702 0.60073 0.70912
 C172 C 0.62711 0.59798 0.66059
 C173 C 0.64623 0.62263 0.67361
 C174 C 0.63515 0.64984 0.73592
 C175 C 0.60521 0.65242 0.78867
 C176 C 0.58608 0.62778 0.77515
 C177 C 0.55615 0.63094 0.82654
 C178 C 0.54542 0.65767 0.88980
 C179 C 0.56411 0.68179 0.90289
 C180 C 0.59368 0.67932 0.85317
 C181 C 0.67612 0.61946 0.62165
 C182 C 0.68685 0.59266 0.55948
 C183 C 0.66817 0.56852 0.54730
 C184 C 0.63860 0.57104 0.59678
 C185 C 0.65421 0.67541 0.74174
 C186 C 0.66938 0.69711 0.74616
 C187 C 0.57679 0.57647 0.67818
 C188 C 0.55942 0.55710 0.64433
 H189 H 0.54076 0.61280 0.81902
 H190 H 0.52248 0.65966 0.92886
 H191 H 0.55566 0.70252 0.95190
 H192 H 0.60733 0.69871 0.86592
 H193 H 0.69146 0.63762 0.62838
 H194 H 0.70979 0.59061 0.52048
 H195 H 0.67660 0.54773 0.49917
 H196 H 0.62490 0.55166 0.58505
 C197 C -0.09608 0.39845 0.19277
 C198 C -0.12672 0.40178 0.15425
 C199 C -0.14591 0.37720 0.16588
 C200 C -0.13436 0.34947 0.21713
 C201 C -0.10378 0.34626 0.25880
 C202 C -0.08458 0.37082 0.24633
 C203 C -0.05404 0.36700 0.28644
 C204 C -0.04278 0.33973 0.33762
 C205 C -0.06154 0.31572 0.35016
 C206 C -0.09170 0.31882 0.31150
 C207 C -0.17638 0.38099 0.12404
 C208 C -0.18761 0.40830 0.07318
 C209 C -0.16885 0.43235 0.06235
 C210 C -0.13872 0.42924 0.10204
 C211 C -0.15366 0.32407 0.22418
 C212 C -0.16891 0.30242 0.22984
 C213 C -0.07604 0.42288 0.16584
 C214 C -0.05879 0.44238 0.13609
 H215 H -0.03854 0.38502 0.27887
 H216 H -0.01937 0.33723 0.36812
 H217 H -0.05268 0.29457 0.39010
 H218 H -0.10538 0.29947 0.32312
 H219 H -0.19178 0.36293 0.12970
 H220 H -0.21099 0.41081 0.04187
 H221 H -0.17768 0.45353 0.02302
 H222 H -0.12499 0.44857 0.09162
 C223 C 0.40314 0.89815 0.66370
 C224 C 0.37221 0.90279 0.67007
 C225 C 0.35269 0.87846 0.68270
 C226 C 0.36423 0.84966 0.68876
 C227 C 0.39520 0.84505 0.68350
 C228 C 0.41471 0.86936 0.67120
 C229 C 0.44557 0.86418 0.66481
 C230 C 0.45682 0.83579 0.66977
 C231 C 0.43775 0.81202 0.68193
 C232 C 0.40729 0.81646 0.68884
 C233 C 0.32186 0.88364 0.68759
 C234 C 0.31060 0.91201 0.68009
 C235 C 0.32969 0.93578 0.66730
 C236 C 0.36017 0.93135 0.66244
 C237 C 0.34444 0.82464 0.69813
 C238 C 0.32891 0.80320 0.70490
 C239 C 0.42310 0.92277 0.64089
 C240 C 0.44033 0.94244 0.61515
 H241 H 0.46134 0.88193 0.65550
 H242 H 0.48046 0.83223 0.66438
 H243 H 0.44659 0.79001 0.68586
 H244 H 0.39339 0.79723 0.69803
 H245 H 0.30618 0.86588 0.69702
 H246 H 0.28694 0.91556 0.68406
 H247 H 0.32084 0.95777 0.66156
 H248 H 0.37414 0.95052 0.65247
 C249 C -0.09752 0.60160 -0.18203
 C250 C -0.08652 0.62926 -0.23705
 C251 C -0.10583 0.65375 -0.24712
 C252 C -0.13605 0.65041 -0.20203
 C253 C -0.14717 0.62262 -0.15047
 C254 C -0.12784 0.59812 -0.14081
 C255 C -0.13938 0.57059 -0.08777
 C256 C -0.16919 0.56735 -0.04554
 C257 C -0.18808 0.59131 -0.05466
 C258 C -0.17731 0.61869 -0.10625
 C259 C -0.09424 0.68125 -0.30069
 C260 C -0.06443 0.68445 -0.34302
 C261 C -0.04555 0.66049 -0.33328
 C262 C -0.05634 0.63317 -0.28085
 C263 C -0.15539 0.67575 -0.20563
 C264 C -0.17072 0.69733 -0.20875
 C265 C -0.07721 0.57732 -0.15612
 C266 C -0.05968 0.55794 -0.12696
 H267 H -0.12553 0.55132 -0.07866
 H268 H -0.17766 0.54612 -0.00552
 H269 H -0.21122 0.58869 -0.02152
 H270 H -0.19282 0.63667 -0.11097
 H271 H -0.10803 0.70055 -0.31047
 H272 H -0.05594 0.70563 -0.38385
 H273 H -0.02243 0.66306 -0.36676
 H274 H -0.04077 0.61520 -0.27532
 C275 C 0.40273 1.10173 0.28546
 C276 C 0.41399 1.12945 0.23363
 C277 C 0.39463 1.15386 0.21830
 C278 C 0.36412 1.15040 0.25498
 C279 C 0.35279 1.12255 0.30359
 C280 C 0.37215 1.09812 0.31805
 C281 C 0.36035 1.07051 0.36734
 C282 C 0.33029 1.06716 0.40203
 C283 C 0.31139 1.09108 0.38880
 C284 C 0.32241 1.11850 0.34042
 C285 C 0.40647 1.18142 0.16821
 C286 C 0.43656 1.18478 0.13463
 C287 C 0.45548 1.16091 0.14950
 C288 C 0.44445 1.13351 0.19821
 C289 C 0.34471 1.17570 0.24674
 C290 C 0.32940 1.19730 0.24127
 C291 C 0.42294 1.07751 0.31694
 C292 C 0.44030 1.05815 0.35058
 H293 H 0.37420 1.05127 0.37955
 H294 H 0.32163 1.04590 0.43959
 H295 H 0.28807 1.08839 0.41641
 H296 H 0.30692 1.13646 0.33320
 H297 H 0.39267 1.20068 0.15533
 H298 H 0.44523 1.20604 0.09688
 H299 H 0.47883 1.16363 0.12301
 H300 H 0.46007 1.11561 0.20801
 C301 C 1.09576 -0.10345 -0.18965
 C302 C 1.08443 -0.13236 -0.18409
 C303 C 1.10389 -0.15657 -0.20208
 C304 C 1.13458 -0.15177 -0.22550
 C305 C 1.14581 -0.12285 -0.23442
 C306 C 1.12635 -0.09863 -0.21576
 C307 C 1.13813 -0.06994 -0.22243
 C308 C 1.16828 -0.06529 -0.24768
 C309 C 1.18727 -0.08897 -0.26709
 C310 C 1.17627 -0.11745 -0.26072
 C311 C 1.09205 -0.18526 -0.19499
 C312 C 1.06189 -0.18989 -0.17025
 C313 C 1.04289 -0.16622 -0.15206
 C314 C 1.05389 -0.13774 -0.15904
 C315 C 1.15444 -0.17671 -0.23551
 C316 C 1.16992 -0.19819 -0.24132
 C317 C 1.07604 -0.07887 -0.16048
 C318 C 1.05909 -0.05917 -0.12970
 H319 H 1.12421 -0.05084 -0.20838
 H320 H 1.17694 -0.04321 -0.25249
 H321 H 1.21067 -0.08525 -0.28722
 H322 H 1.19184 -0.13513 -0.27715
 H323 H 1.10590 -0.20442 -0.20854
 H324 H 1.05324 -0.21198 -0.16500
 H325 H 1.01949 -0.16993 -0.13236
 H326 H 1.03818 -0.12006 -0.14451
 C327 C 0.59697 0.39752 0.33370
 C328 C 0.58598 0.36852 0.34364
 C329 C 0.60580 0.34448 0.33343
 C330 C 0.63651 0.34957 0.31295
 C331 C 0.64746 0.37856 0.30176
 C332 C 0.62762 0.40261 0.31211
 C333 C 0.63907 0.43139 0.30162
 C334 C 0.66927 0.43630 0.28112
 C335 C 0.68868 0.41279 0.27097
 C336 C 0.67802 0.38421 0.28122
 C337 C 0.59429 0.31570 0.34502
 C338 C 0.56409 0.31083 0.36613
 C339 C 0.54472 0.33434 0.37622
 C340 C 0.55540 0.36289 0.36508
 C341 C 0.65661 0.32484 0.30481
 C342 C 0.67231 0.30356 0.29868
 C343 C 0.57682 0.42195 0.35514
 C344 C 0.55946 0.44150 0.38025
 H345 H 0.62481 0.45037 0.30861
 H346 H 0.67766 0.45846 0.27312
 H347 H 0.71214 0.41671 0.25535
 H348 H 0.69393 0.36665 0.27243
 H349 H 0.60844 0.29665 0.33775
 H350 H 0.55569 0.28868 0.37508
 H351 H 0.52129 0.33045 0.39300
 H352 H 0.53941 0.38044 0.37322
 C353 C 0.90191 -0.10214 -0.18071
 C354 C 0.91265 -0.12967 -0.23973
 C355 C 0.89324 -0.15413 -0.24955
 C356 C 0.86320 -0.15090 -0.20017
 C357 C 0.85236 -0.12324 -0.14408
 C358 C 0.87177 -0.09876 -0.13500
 C359 C 0.86049 -0.07135 -0.07804
 C360 C 0.83087 -0.06821 -0.03092
 C361 C 0.81192 -0.09219 -0.03893
 C362 C 0.82244 -0.11944 -0.09452
 C363 C 0.90458 -0.18151 -0.30705
 C364 C 0.93422 -0.18462 -0.35348
 C365 C 0.95318 -0.16069 -0.34411
 C366 C 0.94265 -0.13349 -0.28795
 C367 C 0.84376 -0.17621 -0.20412
 C368 C 0.82843 -0.19781 -0.20774
 C369 C 0.92234 -0.07789 -0.15556
 C370 C 0.93994 -0.05852 -0.12716
 H371 H 0.87439 -0.05208 -0.06958
 H372 H 0.82260 -0.04708 0.01237
 H373 H 0.78895 -0.08967 -0.00167
 H374 H 0.80691 -0.13745 -0.09767
 H375 H 0.89072 -0.20080 -0.31640
 H376 H 0.94252 -0.20572 -0.39704
 H377 H 0.97618 -0.16319 -0.38054
 H378 H 0.95826 -0.11552 -0.28297
 C379 C 0.40300 0.39826 0.28543
 C380 C 0.37230 0.40179 0.31390
 C381 C 0.35307 0.37722 0.29928
 C382 C 0.36467 0.34931 0.25542
 C383 C 0.39530 0.34593 0.22278
 C384 C 0.41452 0.37048 0.23785
 C385 C 0.44512 0.36650 0.20657
 C386 C 0.45639 0.33906 0.16170
 C387 C 0.43760 0.31505 0.14697
 C388 C 0.40739 0.31831 0.17678
 C389 C 0.32253 0.38121 0.33090
 C390 C 0.31126 0.40869 0.37515
 C391 C 0.33006 0.43271 0.38921
 C392 C 0.36026 0.42943 0.35918
 C393 C 0.34538 0.32388 0.24756
 C394 C 0.33012 0.30223 0.24232
 C395 C 0.42304 0.42265 0.31724
 C396 C 0.44027 0.44214 0.35152
 H397 H 0.46064 0.38451 0.21651
 H398 H 0.47982 0.33643 0.13765
 H399 H 0.44645 0.29378 0.11183
 H400 H 0.39369 0.29896 0.16370
 H401 H 0.30709 0.36319 0.32214
 H402 H 0.28781 0.41134 0.39850
 H403 H 0.32119 0.45402 0.42323
 H404 H 0.37401 0.44876 0.37177
 C405 C 0.09600 0.60315 -0.18638
 C406 C 0.12652 0.59848 -0.21583
 C407 C 0.14589 0.62281 -0.23465
 C408 C 0.13465 0.65167 -0.22241
 C409 C 0.10404 0.65632 -0.19516
 C410 C 0.08466 0.63200 -0.17709
 C411 C 0.05419 0.63723 -0.14815
 C412 C 0.04319 0.66564 -0.13740
 C413 C 0.06211 0.68942 -0.15569
 C414 C 0.09219 0.68495 -0.18429
 C415 C 0.17627 0.61757 -0.26444
 C416 C 0.18730 0.58914 -0.27383
 C417 C 0.16839 0.56536 -0.25416
 C418 C 0.13831 0.56985 -0.22568
 C419 C 0.15444 0.67670 -0.23324
 C420 C 0.16989 0.69822 -0.23975
 C421 C 0.07635 0.57845 -0.15772
 C422 C 0.05943 0.55868 -0.12725
 H423 H 0.03855 0.61947 -0.13334
 H424 H 0.01985 0.66923 -0.11480
 H425 H 0.05345 0.71146 -0.14766
 H426 H 0.10598 0.70418 -0.19774
 H427 H 0.19177 0.63532 -0.28124
 H428 H 0.21063 0.58554 -0.29663
 H429 H 0.17706 0.54332 -0.26141
 H430 H 0.12445 0.55067 -0.21152
 C431 C 0.59714 1.10316 0.33081
 C432 C 0.62785 1.09819 0.31202
 C433 C 0.64764 1.12233 0.30133
 C434 C 0.63657 1.15128 0.30919
 C435 C 0.60579 1.15624 0.32627
 C436 C 0.58602 1.13211 0.33685
 C437 C 0.55536 1.13763 0.35473
 C438 C 0.54456 1.16615 0.36231
 C439 C 0.56388 1.18974 0.35204
 C440 C 0.59415 1.18499 0.33430
 C441 C 0.67826 1.11681 0.28403
 C442 C 0.68905 1.08827 0.27699
 C443 C 0.66970 1.06468 0.28729
 C444 C 0.63943 1.06945 0.30473
 C445 C 0.65663 1.17609 0.30186
 C446 C 0.67232 1.19743 0.29655
 C447 C 0.57702 1.07866 0.35277
 C448 C 0.55967 1.05907 0.37791
 H449 H 0.53941 1.12002 0.36290
 H450 H 0.52107 1.16995 0.37683
 H451 H 0.55539 1.21186 0.35859
 H452 H 0.60826 1.20409 0.32712
 H453 H 0.69414 1.13443 0.27568
 H454 H 0.71256 1.08445 0.26411
 H455 H 0.67819 1.04255 0.28222
 H456 H 0.62522 1.05042 0.31198
 C457 C 0.09667 0.39748 0.19127
 C458 C 0.08508 0.36877 0.17342
 C459 C 0.10434 0.34428 0.18661
 C460 C 0.13506 0.34861 0.21803
 C461 C 0.14656 0.37729 0.23929
 C462 C 0.12730 0.40181 0.22521
 C463 C 0.13933 0.43029 0.24431
 C464 C 0.16953 0.43443 0.27722
 C465 C 0.18834 0.41045 0.29196
 C466 C 0.17709 0.38216 0.27338
 C467 C 0.09227 0.31580 0.16652
 C468 C 0.06206 0.31165 0.13423
 C469 C 0.04323 0.33561 0.12134
 C470 C 0.05446 0.36388 0.14068
 C471 C 0.15470 0.32349 0.22444
 C472 C 0.17014 0.30198 0.22739
 C473 C 0.07714 0.42240 0.16581
 C474 C 0.06015 0.44225 0.13682
 H475 H 0.12555 0.44960 0.23423
 H476 H 0.17839 0.45636 0.29143
 H477 H 0.21177 0.41377 0.31789
 H478 H 0.19254 0.36421 0.28646
 H479 H 0.10599 0.29644 0.17556
 H480 H 0.05324 0.28973 0.11905
 H481 H 0.01978 0.33228 0.09585
 H482 H 0.03888 0.38179 0.12971
 C483 C 0.59713 0.89979 0.70675
 C484 C 0.58600 0.87268 0.77105
 C485 C 0.60503 0.84800 0.78480
 C486 C 0.63507 0.85059 0.73412
 C487 C 0.64634 0.87786 0.67372
 C488 C 0.62732 0.90256 0.66053
 C489 C 0.63901 0.92956 0.59886
 C490 C 0.66867 0.93208 0.55126
 C491 C 0.68725 0.90791 0.56339
 C492 C 0.67632 0.88105 0.62367
 C493 C 0.59329 0.82103 0.84717
 C494 C 0.56362 0.81855 0.89479
 C495 C 0.54504 0.84271 0.88163
 C496 C 0.55597 0.86951 0.82039
 C497 C 0.65408 0.82501 0.74035
 C498 C 0.66927 0.80335 0.74507
 C499 C 0.57702 0.92412 0.67579
 C500 C 0.55967 0.94350 0.64239
 H501 H 0.62540 0.94897 0.58710
 H502 H 0.67725 0.95290 0.50432
 H503 H 0.71025 0.90995 0.52556
 H504 H 0.69157 0.86286 0.62998
 H505 H 0.60685 0.80160 0.85953
 H506 H 0.55501 0.79776 0.94192
 H507 H 0.52201 0.84069 0.91869
 H508 H 0.54065 0.88767 0.81259
 C509 C 0.90427 0.10129 0.19223
 C510 C 0.91602 0.12897 0.24305
 C511 C 0.89698 0.15359 0.25593
 C512 C 0.86628 0.15040 0.21753
 C513 C 0.85448 0.12261 0.16965
 C514 C 0.87353 0.09797 0.15738
 C515 C 0.86127 0.07045 0.10832
 C516 C 0.83103 0.06735 0.07225
 C517 C 0.81240 0.09145 0.08388
 C518 C 0.82388 0.11881 0.13180
 C519 C 0.90930 0.18108 0.30571
 C520 C 0.93956 0.18416 0.34122
 C521 C 0.95818 0.16009 0.32827
 C522 C 0.94668 0.13276 0.27993
 C523 C 0.84712 0.17587 0.22411
 C524 C 0.83191 0.19751 0.22925
 C525 C 0.92412 0.07676 0.16498
 C526 C 0.94124 0.05717 0.13512
 H527 H 0.87490 0.05107 0.09750
 H528 H 0.82202 0.04614 0.03508
 H529 H 0.78893 0.08894 0.05546
 H530 H 0.80856 0.13691 0.13832
 H531 H 0.89573 0.20048 0.31736
 H532 H 0.94860 0.20535 0.37891
 H533 H 0.98166 0.16257 0.35615
 H534 H 0.96207 0.11469 0.27198
 C535 C 0.40309 0.60225 0.66356
 C536 C 0.41463 0.63105 0.67442
 C537 C 0.39508 0.65528 0.68661
 C538 C 0.36410 0.65059 0.68838
 C539 C 0.35258 0.62178 0.67868
 C540 C 0.37214 0.59753 0.66625
 C541 C 0.36012 0.56896 0.65511
 C542 C 0.32963 0.56445 0.65627
 C543 C 0.31050 0.58814 0.66874
 C544 C 0.32173 0.61653 0.67971
 C545 C 0.40715 0.68389 0.69537
 C546 C 0.43763 0.68841 0.69189
 C547 C 0.45674 0.66471 0.67987
 C548 C 0.44551 0.63632 0.67158
 C549 C 0.34430 0.67554 0.69793
 C550 C 0.32880 0.69697 0.70492
 C551 C 0.42309 0.57772 0.64101
 C552 C 0.44030 0.55806 0.61556
 H553 H 0.37413 0.54984 0.64520
 H554 H 0.32080 0.54244 0.64773
 H555 H 0.28683 0.58453 0.66966
 H556 H 0.30601 0.63424 0.68868
 H557 H 0.39322 0.70306 0.70461
 H558 H 0.44645 0.71044 0.69828
 H559 H 0.48040 0.66834 0.67703
 H560 H 0.46130 0.61861 0.66253
   
