data_POSCAR
  _audit_creation_date              2014-09-24
  _audit_creation_method            'ToBaCCo'
  _symmetry_space_group_name_H-M    'P1'
  _symmetry_Int_Tables_number       1
  _symmetry_cell_setting            triclinic
  loop_
  _symmetry_equiv_pos_as_xyz
 x,y,z
_cell_length_a 41.6183
_cell_length_b 43.7074
_cell_length_c 42.8349
_cell_angle_alpha 85.240100
_cell_angle_beta 96.492000
_cell_angle_gamma 95.151700
loop_
  _atom_site_label
  _atom_site_type_symbol
  _atom_site_fract_x
  _atom_site_fract_y
  _atom_site_fract_z
C1 C 0.22011 0.28381 0.27882
 C2 C 0.24199 0.30301 0.25670
 C3 C 0.25925 0.28588 0.24048
 C4 C 0.25308 0.25096 0.24791
 C5 C 0.19895 0.26169 0.25763
 C6 C 0.21609 0.24442 0.24144
 C7 C 0.24299 0.26341 0.29996
 C8 C 0.26024 0.24613 0.28391
 H9 H 0.24353 0.32793 0.25397
 H10 H 0.26713 0.23694 0.23475
 H11 H 0.17269 0.26000 0.25570
 H12 H 0.24511 0.26273 0.32544
 C13 C 0.72017 0.78365 0.27892
 C14 C 0.74204 0.80285 0.25680
 C15 C 0.75931 0.78573 0.24058
 C16 C 0.75315 0.75080 0.24802
 C17 C 0.69902 0.76152 0.25774
 C18 C 0.71617 0.74425 0.24155
 C19 C 0.74306 0.76327 0.30007
 C20 C 0.76032 0.74599 0.28403
 H21 H 0.74356 0.82777 0.25405
 H22 H 0.76722 0.73679 0.23487
 H23 H 0.67275 0.75981 0.25581
 H24 H 0.74516 0.76258 0.32555
 C25 C 0.72118 0.28504 0.77769
 C26 C 0.74191 0.30317 0.75670
 C27 C 0.76000 0.28514 0.73970
 C28 C 0.75401 0.25204 0.74695
 C29 C 0.69985 0.26275 0.75671
 C30 C 0.71696 0.24535 0.74057
 C31 C 0.74389 0.26453 0.79902
 C32 C 0.76112 0.24712 0.78302
 H33 H 0.74349 0.32809 0.75386
 H34 H 0.76790 0.23769 0.73398
 H35 H 0.67358 0.26104 0.75488
 H36 H 0.74591 0.26386 0.82450
 C37 C 0.22001 0.78368 0.77882
 C38 C 0.24187 0.80288 0.75667
 C39 C 0.25912 0.78575 0.74045
 C40 C 0.25296 0.75082 0.74789
 C41 C 0.19884 0.76155 0.75765
 C42 C 0.21597 0.74428 0.74145
 C43 C 0.24291 0.76330 0.79995
 C44 C 0.26015 0.74602 0.78389
 H45 H 0.24342 0.82780 0.75394
 H46 H 0.26700 0.73680 0.73472
 H47 H 0.17257 0.75984 0.75575
 H48 H 0.24504 0.76262 0.82543
 C49 C 0.05332 0.03899 0.00969
 H50 H 0.05356 0.04224 -0.01560
 C51 C 0.07301 0.05873 0.02919
 H52 H 0.08848 0.07702 0.01863
 C53 C 0.03198 0.01170 0.05389
 H54 H 0.01542 -0.00612 0.06345
 C55 C 0.05125 0.03088 0.07426
 H56 H 0.04945 0.02719 0.09933
 N57 N 0.03344 0.01595 0.02225
 C58 C 0.01295 -0.05020 -0.04997
 H59 H -0.01329 -0.05199 -0.05246
 C60 C 0.02948 -0.06773 -0.06774
 H61 H 0.01566 -0.08290 -0.08398
 C62 C 0.06264 -0.02843 -0.02535
 H63 H 0.07549 -0.01345 -0.00847
 C64 C 0.08015 -0.04555 -0.04262
 H65 H 0.10639 -0.04321 -0.03896
 Zn66 Zn 0.00553 -0.00813 -0.00597
 N67 N 0.02965 -0.03077 -0.02955
 C68 C -0.02033 0.02097 -0.06463
 N69 N -0.01941 0.01960 -0.03270
 C70 C -0.03575 0.03898 -0.01827
 C71 C -0.05467 0.06027 -0.03603
 C72 C -0.03902 0.04196 -0.08337
 C73 C -0.00840 -0.05857 0.03685
 C74 C -0.02768 -0.07904 0.05511
 C75 C -0.07496 -0.05506 0.02995
 C76 C -0.05478 -0.03502 0.01228
 N77 N -0.02208 -0.03661 0.01653
 H78 H -0.00659 0.00588 -0.07566
 H79 H -0.03418 0.03770 0.00719
 H80 H -0.06766 0.07524 -0.02393
 H81 H -0.03962 0.04256 -0.10875
 H82 H 0.01763 -0.05969 0.03936
 H83 H -0.01620 -0.09584 0.07170
 H84 H -0.10086 -0.05290 0.02659
 H85 H -0.06534 -0.01802 -0.00460
 C86 C 0.06358 -0.06547 -0.06427
 C87 C 0.07200 0.05491 0.06197
 C88 C -0.06143 -0.07712 0.05213
 C89 C -0.05665 0.06189 -0.06908
 C90 C 0.05314 0.53829 0.51028
 H91 H 0.05334 0.54152 0.48498
 C92 C 0.07282 0.55808 0.52973
 H93 H 0.08825 0.57638 0.51913
 C94 C 0.03190 0.51102 0.55453
 H95 H 0.01537 0.49318 0.56413
 C96 C 0.05117 0.53024 0.57486
 H97 H 0.04941 0.52657 0.59993
 N98 N 0.03331 0.51524 0.52288
 C99 C 0.01286 0.44910 0.45065
 H100 H -0.01339 0.44727 0.44817
 C101 C 0.02941 0.43165 0.43281
 H102 H 0.01560 0.41650 0.41653
 C103 C 0.06252 0.47090 0.47527
 H104 H 0.07535 0.48587 0.49217
 C105 C 0.08005 0.45387 0.45793
 H106 H 0.10629 0.45625 0.46157
 Zn107 Zn 0.00540 0.49112 0.49469
 N108 N 0.02953 0.46852 0.47109
 C109 C -0.02052 0.52023 0.43605
 N110 N -0.01957 0.51885 0.46798
 C111 C -0.03590 0.53821 0.48243
 C112 C -0.05484 0.55950 0.46469
 C113 C -0.03923 0.54121 0.41733
 C114 C -0.00853 0.44071 0.53758
 C115 C -0.02781 0.42026 0.55585
 C116 C -0.07509 0.44420 0.53061
 C117 C -0.05490 0.46422 0.51294
 N118 N -0.02220 0.46264 0.51722
 H119 H -0.00678 0.50515 0.42500
 H120 H -0.03431 0.53693 0.50789
 H121 H -0.06782 0.57446 0.47681
 H122 H -0.03985 0.54181 0.39195
 H123 H 0.01751 0.43960 0.54012
 H124 H -0.01634 0.40348 0.57247
 H125 H -0.10099 0.44634 0.52722
 H126 H -0.06546 0.48119 0.49602
 C127 C 0.06350 0.43399 0.43624
 C128 C 0.07186 0.55429 0.56252
 C129 C -0.06157 0.42216 0.55283
 C130 C -0.05685 0.56113 0.43164
 C131 C 0.55387 0.03894 0.50999
 H132 H 0.55406 0.04214 0.48469
 C133 C 0.57359 0.05872 0.52942
 H134 H 0.58904 0.07699 0.51879
 C135 C 0.53261 0.01175 0.55428
 H136 H 0.51606 -0.00606 0.56389
 C137 C 0.55192 0.03096 0.57457
 H138 H 0.55017 0.02733 0.59965
 N139 N 0.53401 0.01593 0.52262
 C140 C 0.51336 -0.05027 0.45047
 H141 H 0.48711 -0.05205 0.44802
 C142 C 0.52984 -0.06782 0.43267
 H143 H 0.51599 -0.08298 0.41644
 C144 C 0.56308 -0.02853 0.47502
 H145 H 0.57597 -0.01355 0.49188
 C146 C 0.58055 -0.04565 0.45772
 H147 H 0.60679 -0.04333 0.46134
 Zn148 Zn 0.50603 -0.00817 0.49446
 N149 N 0.53009 -0.03085 0.47086
 C150 C 0.48006 0.02089 0.43581
 N151 N 0.48108 0.01957 0.46775
 C152 C 0.46480 0.03896 0.48221
 C153 C 0.44582 0.06023 0.46447
 C154 C 0.46131 0.04185 0.41710
 C155 C 0.49207 -0.05854 0.53738
 C156 C 0.47275 -0.07899 0.55563
 C157 C 0.42551 -0.05503 0.53035
 C158 C 0.44572 -0.03501 0.51270
 N159 N 0.47842 -0.03660 0.51702
 H160 H 0.49376 0.00578 0.42476
 H161 H 0.46644 0.03771 0.50767
 H162 H 0.43288 0.07521 0.47660
 H163 H 0.46062 0.04240 0.39172
 H164 H 0.51811 -0.05966 0.53994
 H165 H 0.48421 -0.09577 0.57225
 H166 H 0.39961 -0.05288 0.52692
 H167 H 0.43518 -0.01804 0.49577
 C168 C 0.56393 -0.06557 0.43609
 C169 C 0.57265 0.05497 0.56221
 C170 C 0.43900 -0.07708 0.55257
 C171 C 0.44373 0.06179 0.43142
 C172 C 0.55373 0.53868 0.00981
 H173 H 0.55396 0.54195 -0.01548
 C174 C 0.57337 0.55843 0.02933
 H175 H 0.58882 0.57675 0.01878
 C176 C 0.53241 0.51132 0.05399
 H177 H 0.51587 0.49347 0.06353
 C178 C 0.55164 0.53051 0.07437
 H179 H 0.54984 0.52680 0.09944
 N180 N 0.53388 0.51560 0.02235
 C181 C 0.51351 0.44962 -0.05005
 H182 H 0.48726 0.44778 -0.05255
 C183 C 0.53009 0.43222 -0.06793
 H184 H 0.51631 0.41711 -0.08425
 C185 C 0.56315 0.47138 -0.02534
 H186 H 0.57596 0.48631 -0.00839
 C187 C 0.58070 0.45441 -0.04271
 H188 H 0.60695 0.45680 -0.03905
 Zn189 Zn 0.50599 0.49153 -0.00592
 N190 N 0.53016 0.46899 -0.02955
 C191 C 0.48005 0.52071 -0.06452
 N192 N 0.48104 0.51930 -0.03258
 C193 C 0.46470 0.53862 -0.01808
 C194 C 0.44572 0.55991 -0.03578
 C195 C 0.46130 0.54170 -0.08320
 C196 C 0.49202 0.44107 0.03690
 C197 C 0.47270 0.42064 0.05517
 C198 C 0.42546 0.44459 0.02988
 C199 C 0.44567 0.46460 0.01222
 N200 N 0.47838 0.46301 0.01654
 H201 H 0.49379 0.50566 -0.07561
 H202 H 0.46631 0.53730 0.00738
 H203 H 0.43273 0.57483 -0.02363
 H204 H 0.46064 0.54232 -0.10858
 H205 H 0.51806 0.43995 0.03948
 H206 H 0.48416 0.40386 0.07181
 H207 H 0.39956 0.44675 0.02646
 H208 H 0.43514 0.48157 -0.00471
 C209 C 0.56419 0.43457 -0.06446
 C210 C 0.57236 0.55458 0.06211
 C211 C 0.43895 0.42256 0.05212
 C212 C 0.44367 0.56156 -0.06883
 N213 N 0.16340 -0.19718 -0.16586
 C214 C 0.16576 -0.16597 -0.16894
 N215 N 0.18572 -0.15103 -0.18914
 N216 N 0.20282 -0.16683 -0.20577
 C217 C 0.20058 -0.19813 -0.20277
 N218 N 0.18050 -0.21299 -0.18249
 C219 C 0.14764 -0.14890 -0.15080
 C220 C 0.13261 -0.13440 -0.13553
 C221 C 0.11497 -0.11697 -0.11729
 N222 N 0.13102 -0.09781 -0.09642
 N223 N 0.11469 -0.08150 -0.07956
 C224 C 0.08171 -0.08374 -0.08296
 N225 N 0.06576 -0.10302 -0.10394
 N226 N 0.08208 -0.11934 -0.12080
 N227 N 0.16345 0.30284 0.33414
 C228 C 0.16582 0.33406 0.33112
 N229 N 0.18579 0.34903 0.31095
 N230 N 0.20290 0.33327 0.29430
 C231 C 0.20066 0.30197 0.29725
 N232 N 0.18057 0.28707 0.31749
 C233 C 0.14768 0.35108 0.34929
 C234 C 0.13264 0.36551 0.36462
 C235 C 0.11497 0.38284 0.38294
 N236 N 0.13100 0.40196 0.40386
 N237 N 0.11465 0.41815 0.42081
 C238 C 0.08166 0.41583 0.41746
 N239 N 0.06573 0.39660 0.39642
 N240 N 0.08209 0.38039 0.37947
 N241 N 0.66353 -0.19724 0.33423
 C242 C 0.66591 -0.16603 0.33119
 N243 N 0.68588 -0.15108 0.31100
 N244 N 0.70298 -0.16687 0.29436
 C245 C 0.70072 -0.19817 0.29734
 N246 N 0.68063 -0.21304 0.31759
 C247 C 0.64781 -0.14897 0.34935
 C248 C 0.63280 -0.13448 0.36466
 C249 C 0.61520 -0.11706 0.38294
 N250 N 0.63130 -0.09791 0.40380
 N251 N 0.61501 -0.08161 0.42070
 C252 C 0.58202 -0.08384 0.41736
 N253 N 0.56603 -0.10310 0.39638
 N254 N 0.58232 -0.11942 0.37948
 N255 N 0.68666 0.35022 -0.19001
 C256 C 0.66672 0.33515 -0.16987
 N257 N 0.66443 0.30393 -0.16693
 N258 N 0.68160 0.28827 -0.18363
 C259 C 0.70167 0.30324 -0.20385
 N260 N 0.70382 0.33456 -0.20670
 C261 C 0.64853 0.35206 -0.15164
 C262 C 0.63345 0.36641 -0.13627
 C263 C 0.61575 0.38365 -0.11790
 N264 N 0.58287 0.38118 -0.12139
 N265 N 0.56648 0.39731 -0.10439
 C266 C 0.58238 0.41650 -0.08329
 N267 N 0.61536 0.41883 -0.07991
 N268 N 0.63175 0.40271 -0.09690
 N269 N -0.17952 0.18823 -0.20339
 C270 C -0.17470 0.18510 -0.17148
 N271 N -0.19078 0.20239 -0.15456
 N272 N -0.21109 0.22219 -0.16907
 C273 C -0.21606 0.22541 -0.20102
 N274 N -0.19986 0.20807 -0.21791
 C275 C -0.15321 0.16355 -0.15557
 C276 C -0.13555 0.14561 -0.14126
 C277 C -0.11503 0.12447 -0.12311
 N278 N -0.11250 0.12312 -0.09123
 N279 N -0.09386 0.10333 -0.07415
 C280 C -0.07705 0.08412 -0.08829
 N281 N -0.07966 0.08560 -0.12031
 N282 N -0.09832 0.10541 -0.13743
 N283 N -0.18011 0.68729 0.29750
 C284 C -0.17517 0.68420 0.32940
 N285 N -0.19124 0.70147 0.34636
 N286 N -0.21164 0.72120 0.33190
 C287 C -0.21673 0.72438 0.29995
 N288 N -0.20054 0.70706 0.28302
 C289 C -0.15360 0.66270 0.34527
 C290 C -0.13589 0.64478 0.35956
 C291 C -0.11533 0.62367 0.37768
 N292 N -0.11274 0.62234 0.40956
 N293 N -0.09407 0.60256 0.42662
 C294 C -0.07728 0.58335 0.41245
 N295 N -0.07993 0.58482 0.38043
 N296 N -0.09864 0.60463 0.36334
 N297 N 0.31997 0.18757 0.29734
 C298 C 0.32492 0.18448 0.32925
 N299 N 0.30881 0.20170 0.34622
 N300 N 0.28834 0.22138 0.33177
 C301 C 0.28324 0.22456 0.29982
 N302 N 0.29947 0.20729 0.28288
 C303 C 0.34657 0.16305 0.34510
 C304 C 0.36436 0.14519 0.35938
 C305 C 0.38502 0.12416 0.37749
 N306 N 0.38772 0.12291 0.40937
 N307 N 0.40647 0.10319 0.42641
 C308 C 0.42323 0.08396 0.41224
 N309 N 0.42046 0.08535 0.38022
 N310 N 0.40168 0.10509 0.36314
 N311 N 0.31986 0.68744 -0.20271
 C312 C 0.32484 0.68436 -0.17081
 N313 N 0.30875 0.70158 -0.15383
 N314 N 0.28828 0.72127 -0.16826
 C315 C 0.28315 0.72444 -0.20021
 N316 N 0.29937 0.70716 -0.21717
 C317 C 0.34649 0.66292 -0.15497
 C318 C 0.36428 0.64505 -0.14072
 C319 C 0.38494 0.62399 -0.12265
 N320 N 0.38760 0.62265 -0.09077
 N321 N 0.40636 0.60291 -0.07376
 C322 C 0.42316 0.58375 -0.08797
 N323 N 0.42044 0.58523 -0.11999
 N324 N 0.40165 0.60500 -0.13704
 N325 N -0.18244 -0.20563 0.18086
 C326 C -0.17837 -0.17457 0.17551
 N327 N -0.19460 -0.15661 0.19156
 N328 N -0.21433 -0.16927 0.21231
 C329 C -0.21856 -0.20036 0.21776
 N330 N -0.20221 -0.21830 0.20164
 C331 C -0.15741 -0.16062 0.15301
 C332 C -0.14022 -0.14783 0.13426
 C333 C -0.12027 -0.13134 0.11220
 N334 N -0.13352 -0.11176 0.08912
 N335 N -0.11488 -0.09498 0.06971
 C336 C -0.08228 -0.09712 0.07266
 N337 N -0.06915 -0.11697 0.09575
 N338 N -0.08780 -0.13375 0.11519
 N339 N -0.19516 0.34228 0.69187
 C340 C -0.17868 0.32444 0.67593
 N341 N -0.18254 0.29339 0.68129
 N342 N -0.20233 0.28059 0.70200
 C343 C -0.21897 0.29838 0.71805
 N344 N -0.21492 0.32949 0.71254
 C345 C -0.15769 0.33852 0.65351
 C346 C -0.14046 0.35139 0.63483
 C347 C -0.12048 0.36793 0.61283
 N348 N -0.08800 0.36553 0.61587
 N349 N -0.06933 0.38233 0.59645
 C350 C -0.08244 0.40217 0.57335
 N351 N -0.11504 0.40429 0.57035
 N352 N -0.13371 0.38751 0.58973
 N353 N 0.30536 -0.15660 0.69156
 C354 C 0.32165 -0.17456 0.67556
 N355 N 0.31754 -0.20562 0.68089
 N356 N 0.29770 -0.21829 0.70161
 C357 C 0.28130 -0.20034 0.71767
 N358 N 0.28555 -0.16926 0.71224
 C359 C 0.34269 -0.16061 0.65313
 C360 C 0.35996 -0.14781 0.63446
 C361 C 0.37998 -0.13132 0.61246
 N362 N 0.41246 -0.13370 0.61558
 N363 N 0.43117 -0.11690 0.59619
 C364 C 0.41809 -0.09707 0.57305
 N365 N 0.38549 -0.09497 0.56998
 N366 N 0.36679 -0.11175 0.58933
 N367 N 0.30547 0.34350 0.19152
 C368 C 0.32172 0.32551 0.17551
 N369 N 0.31760 0.29446 0.18086
 N370 N 0.29778 0.28181 0.20161
 C371 C 0.28142 0.29978 0.21769
 N372 N 0.28568 0.33086 0.21224
 C373 C 0.34273 0.33943 0.15304
 C374 C 0.35997 0.35217 0.13431
 C375 C 0.37997 0.36858 0.11224
 N376 N 0.41244 0.36615 0.11532
 N377 N 0.43114 0.38286 0.09585
 C378 C 0.41806 0.40264 0.07267
 N379 N 0.38546 0.40479 0.06964
 N380 N 0.36677 0.38810 0.08907
 N381 N 0.15350 0.19622 0.19565
 C382 C 0.17171 0.17956 0.18019
 N383 N 0.20451 0.18419 0.18476
 N384 N 0.21864 0.20486 0.20423
 C385 C 0.20047 0.22160 0.21980
 N386 N 0.16762 0.21687 0.21511
 C387 C 0.15631 0.15727 0.15936
 C388 C 0.14271 0.13867 0.14206
 C389 C 0.12574 0.11669 0.12171
 N390 N 0.12745 0.12024 0.09019
 N391 N 0.11069 0.10042 0.07124
 C392 C 0.09157 0.07637 0.08311
 N393 N 0.09009 0.07290 0.11476
 N394 N 0.10685 0.09271 0.13371
 N395 N 0.15336 0.69595 0.69583
 C396 C 0.17156 0.67926 0.68039
 N397 N 0.20436 0.68391 0.68492
 N398 N 0.21850 0.70464 0.70433
 C399 C 0.20034 0.72141 0.71987
 N400 N 0.16749 0.71665 0.71522
 C401 C 0.15615 0.65691 0.65964
 C402 C 0.14255 0.63826 0.64239
 C403 C 0.12558 0.61622 0.62211
 N404 N 0.12726 0.61972 0.59058
 N405 N 0.11050 0.59985 0.57168
 C406 C 0.09143 0.57580 0.58361
 N407 N 0.08998 0.57238 0.61527
 N408 N 0.10673 0.59224 0.63416
 N409 N 0.65432 0.19677 0.69529
 C410 C 0.67251 0.18006 0.67984
 N411 N 0.70530 0.18477 0.68427
 N412 N 0.71946 0.20558 0.70359
 C413 C 0.70132 0.22237 0.71912
 N414 N 0.66847 0.21755 0.71458
 C415 C 0.65708 0.15766 0.65915
 C416 C 0.64346 0.13898 0.64195
 C417 C 0.62647 0.11692 0.62170
 N418 N 0.62814 0.12037 0.59018
 N419 N 0.61135 0.10049 0.57131
 C420 C 0.59225 0.07648 0.58327
 N421 N 0.59081 0.07312 0.61493
 N422 N 0.60759 0.09298 0.63379
 N423 N 0.70463 0.68398 0.18492
 C424 C 0.67184 0.67933 0.18035
 N425 N 0.65361 0.69598 0.19581
 N426 N 0.66772 0.71665 0.21525
 C427 C 0.70056 0.72141 0.21993
 N428 N 0.71875 0.70467 0.20438
 C429 C 0.65646 0.65702 0.15954
 C430 C 0.64289 0.63840 0.14224
 C431 C 0.62596 0.61641 0.12188
 N432 N 0.62769 0.61997 0.09037
 N433 N 0.61097 0.60013 0.07141
 C434 C 0.59188 0.57605 0.08326
 N435 N 0.59039 0.57258 0.11491
 N436 N 0.60710 0.59239 0.13387
   
