data_POSCAR
  _audit_creation_date              2014-09-24
  _audit_creation_method            'ToBaCCo'
  _symmetry_space_group_name_H-M    'P1'
  _symmetry_Int_Tables_number       1
  _symmetry_cell_setting            triclinic
  loop_
  _symmetry_equiv_pos_as_xyz
 x,y,z
_cell_length_a 18.2950
_cell_length_b 17.6695
_cell_length_c 41.3005
_cell_angle_alpha 85.743500
_cell_angle_beta 88.827900
_cell_angle_gamma 121.201000
loop_
  _atom_site_label
  _atom_site_type_symbol
  _atom_site_fract_x
  _atom_site_fract_y
  _atom_site_fract_z
C1 C -0.03974 0.12235 0.53011
 H2 H 0.00913 0.16538 0.51127
 C3 C -0.05598 0.16063 0.55542
 H4 H -0.01915 0.23224 0.55494
 C5 C -0.13686 -0.02230 0.55544
 H6 H -0.16485 -0.09342 0.55601
 C7 C -0.15461 0.01341 0.58153
 H8 H -0.19747 -0.03089 0.60187
 N9 N -0.07835 0.03248 0.53085
 C10 C -0.03278 -0.16573 0.52909
 H11 H -0.07742 -0.19815 0.51090
 C12 C -0.02324 -0.21800 0.55356
 H13 H -0.06079 -0.28930 0.55313
 C14 C 0.06076 -0.03477 0.55343
 H15 H 0.09010 0.03626 0.55397
 C16 C 0.07208 -0.08475 0.57854
 H17 H 0.11137 -0.05131 0.59810
 Zn18 Zn -0.03067 -0.01359 0.50278
 N19 N 0.00726 -0.07612 0.52981
 C20 C 0.14006 0.10483 0.47164
 N21 N 0.05637 0.08078 0.47455
 C22 C 0.02409 0.11685 0.45342
 C23 C 0.07579 0.17907 0.42792
 C24 C 0.19463 0.16726 0.44607
 C25 C -0.19072 -0.12128 0.47165
 C26 C -0.23428 -0.17193 0.44617
 C27 C -0.10211 -0.15815 0.42641
 C28 C -0.06225 -0.10966 0.45215
 N29 N -0.10611 -0.09131 0.47392
 H30 H 0.16352 0.07325 0.48825
 H31 H -0.04318 0.09494 0.45597
 H32 H 0.04785 0.20545 0.41111
 H33 H 0.26014 0.18321 0.44346
 H34 H -0.22376 -0.10439 0.48902
 H35 H -0.30096 -0.19304 0.44452
 H36 H -0.06412 -0.16985 0.40928
 H37 H 0.00513 -0.08448 0.45449
 C38 C 0.02792 -0.17790 0.57933
 C39 C -0.11220 0.10609 0.58216
 C40 C -0.18914 -0.18993 0.42271
 C41 C 0.16180 0.20430 0.42357
 C42 C 1.16840 0.13950 0.11054
 H43 H 1.15209 0.19031 0.11011
 C44 C 1.22536 0.14446 0.08650
 H45 H 1.25293 0.19965 0.06763
 C46 C 1.14813 0.00357 0.13487
 H47 H 1.11568 -0.05233 0.15329
 C48 C 1.20542 0.00598 0.11107
 H49 H 1.21616 -0.04878 0.11137
 N50 N 1.13040 0.06960 0.13388
 C51 C 0.94140 0.13244 0.12876
 H52 H 0.96429 0.18490 0.14474
 C53 C 0.88302 0.12422 0.10555
 H54 H 0.86168 0.17103 0.10384
 C55 C 0.94178 0.00777 0.11139
 H56 H 0.96474 -0.03766 0.11386
 C57 C 0.88394 -0.00311 0.08837
 H58 H 0.86345 -0.05689 0.07304
 Zn59 Zn 1.04498 0.06955 0.16056
 N60 N 0.96875 0.07385 0.13125
 C61 C 1.04799 0.17569 0.20889
 N62 N 1.09722 0.16659 0.18626
 C63 C 1.18420 0.21490 0.18592
 C64 C 1.22492 0.27154 0.20992
 C65 C 1.08618 0.23159 0.23349
 C66 C 0.89475 -0.08186 0.18918
 C67 C 0.84381 -0.14857 0.21382
 C68 C 0.97214 -0.12073 0.23911
 C69 C 1.02094 -0.05430 0.21379
 N70 N 0.98159 -0.03513 0.18977
 H71 H 0.97893 0.13494 0.20915
 H72 H 1.22243 0.20490 0.16850
 H73 H 1.29374 0.30380 0.21001
 H74 H 1.04586 0.23426 0.25238
 H75 H 0.86390 -0.06397 0.17078
 H76 H 0.77514 -0.17983 0.21338
 H77 H 1.00425 -0.13244 0.25886
 H78 H 1.08993 -0.01479 0.21423
 C79 C 0.85345 0.05501 0.08509
 C80 C 1.24374 0.07682 0.08618
 C81 C 0.88223 -0.16769 0.23972
 C82 C 1.17568 0.27847 0.23481
 C83 C 0.07455 0.87582 0.88073
 H84 H 0.01573 0.81255 0.87981
 C85 C 0.13446 0.88266 0.90238
 H86 H 0.12168 0.82413 0.91777
 C87 C 0.15875 1.03014 0.86383
 H88 H 0.16615 1.08784 0.84956
 C89 C 0.22106 1.03994 0.88517
 H90 H 0.27587 1.10558 0.88721
 N91 N 0.08606 0.94936 0.86276
 C92 C -0.16082 0.93301 0.86288
 H93 H -0.16828 0.94448 0.83742
 C94 C -0.21412 0.93751 0.88665
 H95 H -0.26214 0.95168 0.87878
 C96 C -0.08513 0.90729 0.90362
 H97 H -0.03352 0.89877 0.91076
 C98 C -0.13811 0.90826 0.92793
 H99 H -0.12586 0.89936 0.95308
 Zn100 Zn -0.00876 0.93728 0.84032
 N101 N -0.09561 0.92135 0.87170
 C102 C -0.11861 0.81979 0.79674
 N103 N -0.04953 0.84081 0.81429
 C104 C -0.00023 0.80535 0.80901
 C105 C -0.01847 0.74791 0.78499
 C106 C -0.13852 0.76332 0.77205
 C107 C 0.00187 1.09888 0.81684
 C108 C 0.00621 1.15851 0.79153
 C109 C 0.06511 1.09924 0.75531
 C110 C 0.05957 1.04089 0.78126
 N111 N 0.02483 1.03904 0.81092
 H112 H -0.15511 0.85109 0.80051
 H113 H 0.05735 0.82653 0.82156
 H114 H 0.02519 0.72542 0.78013
 H115 H -0.19110 0.75061 0.75719
 H116 H -0.02407 1.09744 0.84078
 H117 H -0.01618 1.20226 0.79690
 H118 H 0.08837 1.09596 0.73144
 H119 H 0.07758 0.99278 0.77715
 C120 C -0.20144 0.92718 0.91985
 C121 C 0.20760 0.96564 0.90545
 C122 C 0.03466 1.15633 0.75982
 C123 C -0.08740 0.72766 0.76566
 C124 C 0.34204 0.03652 -0.00480
 C125 C 0.38423 0.04339 -0.03450
 C126 C 0.46487 0.05242 -0.03475
 C127 C 0.50044 0.04629 -0.00531
 C128 C 0.45543 0.03708 0.02443
 C129 C 0.37819 0.03594 0.02474
 C130 C 0.58216 0.04591 -0.00572
 C131 C 0.63650 0.07587 0.02024
 C132 C 0.70957 0.06941 0.02086
 C133 C 0.73196 0.03901 -0.00577
 C134 C 0.67850 0.00646 -0.03159
 C135 C 0.60426 0.01126 -0.03147
 H136 H 0.28018 0.03092 -0.00476
 H137 H 0.49811 0.06142 -0.05801
 H138 H 0.47977 0.03077 0.04748
 H139 H 0.62183 0.10286 0.04033
 H140 H 0.79308 0.04323 -0.00629
 H141 H 0.56188 -0.01589 -0.05088
 C142 C -0.04105 0.65060 0.67214
 C143 C -0.06222 0.59515 0.70128
 C144 C -0.06640 0.51384 0.70093
 C145 C -0.04874 0.48725 0.67194
 C146 C -0.02710 0.54420 0.64299
 C147 C -0.02295 0.62584 0.64285
 C148 C -0.05128 0.40124 0.67216
 C149 C -0.07478 0.35261 0.64476
 C150 C -0.07580 0.27262 0.64465
 C151 C -0.05353 0.24052 0.67257
 C152 C -0.03009 0.28783 0.70021
 C153 C -0.02914 0.36764 0.69977
 H154 H -0.03814 0.71321 0.67238
 H155 H -0.08430 0.47111 0.72348
 H156 H -0.01156 0.52634 0.62047
 H157 H -0.09303 0.37637 0.62335
 H158 H -0.05369 0.17925 0.67280
 H159 H -0.00879 0.40447 0.72092
 C160 C 0.71833 0.71895 0.33117
 C161 C 0.69165 0.67890 0.30211
 C162 C 0.60835 0.60529 0.30168
 C163 C 0.55042 0.57367 0.32938
 C164 C 0.57794 0.61711 0.35790
 C165 C 0.66283 0.68676 0.35961
 C166 C 0.46207 0.49452 0.32880
 C167 C 0.42122 0.43591 0.35716
 C168 C 0.33826 0.36199 0.35711
 C169 C 0.29735 0.34308 0.32781
 C170 C 0.33680 0.39980 0.29907
 C171 C 0.41858 0.47582 0.29990
 H172 H 0.78042 0.77898 0.33106
 H173 H 0.58908 0.57295 0.27951
 H174 H 0.53390 0.59540 0.37923
 H175 H 0.45372 0.44709 0.37951
 H176 H 0.23641 0.28186 0.32722
 H177 H 0.44807 0.52007 0.27782
 C178 C -0.11724 0.14339 0.61264
 C179 C -0.09182 0.22931 0.61396
 H180 H -0.13824 0.09916 0.63490
 H181 H -0.07918 0.27142 0.59161
 C182 C 0.83118 0.77434 0.26951
 C183 C 0.74577 0.71833 0.27109
 H184 H 0.86523 0.78244 0.29134
 H185 H 0.71262 0.70305 0.24891
 C186 C 0.26027 -0.02682 -0.06693
 C187 C 0.34192 0.03791 -0.06508
 H188 H 0.22910 -0.07750 -0.04651
 H189 H 0.37811 0.08505 -0.08592
 C190 C 0.02714 0.76916 0.60920
 C191 C -0.00535 0.68094 0.61146
 H192 H 0.05080 0.80425 0.63059
 H193 H -0.02141 0.64640 0.58976
 C194 C 0.21364 0.32187 0.26464
 C195 C 0.29814 0.37600 0.26733
 H196 H 0.16996 0.30375 0.28584
 H197 H 0.34179 0.40167 0.24581
 C198 C 0.75670 -0.05855 -0.05453
 C199 C 0.69881 -0.02911 -0.05744
 H200 H 0.77372 -0.06825 -0.03028
 H201 H 0.66672 -0.03587 -0.07970
 C202 C 0.29525 0.07925 0.05757
 C203 C 0.33431 0.03293 0.05584
 H204 H 0.30154 0.12288 0.03639
 H205 H 0.33669 -0.00475 0.07725
 C206 C 0.77673 0.76689 0.39626
 C207 C 0.69020 0.72336 0.38937
 H208 H 0.81994 0.76235 0.37926
 H209 H 0.64207 0.70917 0.40842
 C210 C 0.02670 0.20485 0.73041
 C211 C -0.01075 0.25306 0.73050
 H212 H 0.04866 0.19602 0.70723
 H213 H -0.02914 0.26768 0.75311
 C214 C 0.79325 0.03961 0.05937
 C215 C 0.76163 0.09064 0.04972
 H216 H 0.77492 -0.01860 0.04664
 H217 H 0.77238 0.14606 0.06273
 C218 C 0.21105 0.26421 0.39406
 C219 C 0.29579 0.30410 0.38776
 H220 H 0.17467 0.27745 0.37658
 H221 H 0.33546 0.29885 0.40576
 C222 C -0.09865 0.68122 0.73609
 C223 C -0.07131 0.62476 0.73290
 H224 H -0.12636 0.69767 0.71586
 H225 H -0.05175 0.60134 0.75402
   
