data_POSCAR
  _audit_creation_date              2014-09-24
  _audit_creation_method            'ToBaCCo'
  _symmetry_space_group_name_H-M    'P1'
  _symmetry_Int_Tables_number       1
  _symmetry_cell_setting            triclinic
  loop_
  _symmetry_equiv_pos_as_xyz
 x,y,z
_cell_length_a 20.3163
_cell_length_b 20.2131
_cell_length_c 38.9148
_cell_angle_alpha 84.600000
_cell_angle_beta 93.338900
_cell_angle_gamma 122.054800
loop_
  _atom_site_label
  _atom_site_type_symbol
  _atom_site_fract_x
  _atom_site_fract_y
  _atom_site_fract_z
C1 C 0.02098 0.12237 0.55508
 H2 H 0.07067 0.11621 0.55461
 C3 C 0.02115 0.17300 0.57705
 H4 H 0.07084 0.20357 0.59386
 C5 C -0.10427 0.08717 0.53375
 H6 H -0.15235 0.05435 0.51642
 C7 C -0.10639 0.13775 0.55524
 H8 H -0.15678 0.14307 0.55449
 N9 N -0.04092 0.08080 0.53405
 C10 C -0.00275 -0.10368 0.51282
 H11 H 0.00767 -0.09231 0.48533
 C12 C -0.00568 -0.16877 0.53035
 H13 H 0.00397 -0.20670 0.51636
 C14 C -0.03204 -0.07050 0.56422
 H15 H -0.04466 -0.03355 0.57716
 C16 C -0.03628 -0.13525 0.58263
 H17 H -0.04916 -0.14542 0.60990
 Zn18 Zn -0.02804 0.02065 0.50402
 N19 N -0.01617 -0.05632 0.52989
 C20 C 0.12523 0.09061 0.47634
 N21 N 0.05951 0.09260 0.47729
 C22 C 0.05342 0.15028 0.45949
 C23 C 0.11467 0.20905 0.43949
 C24 C 0.18834 0.14868 0.45661
 C25 C -0.18329 -0.08961 0.48928
 C26 C -0.24443 -0.14305 0.46905
 C27 C -0.16333 -0.07959 0.41882
 C28 C -0.10401 -0.02758 0.44005
 N29 N -0.11446 -0.03430 0.47466
 H30 H 0.12917 0.04479 0.49112
 H31 H 0.00036 0.15025 0.46083
 H32 H 0.10717 0.25297 0.42497
 H33 H 0.24067 0.14697 0.45614
 H34 H -0.18925 -0.09487 0.51702
 H35 H -0.29646 -0.18781 0.48235
 H36 H -0.15212 -0.07425 0.39148
 H37 H -0.04819 0.01515 0.42896
 C38 C -0.02475 -0.18633 0.56545
 C39 C -0.04264 0.18244 0.57689
 C40 C -0.23436 -0.14014 0.43314
 C41 C 0.18386 0.20948 0.43831
 C42 C 1.17171 0.07947 0.11267
 H43 H 1.17026 0.13222 0.11261
 C44 C 1.22892 0.08001 0.09437
 H45 H 1.27116 0.13335 0.07995
 C46 C 1.11899 -0.05367 0.13224
 H47 H 1.07647 -0.10520 0.14742
 C48 C 1.17571 -0.05562 0.11439
 H49 H 1.17461 -0.10984 0.11530
 N50 N 1.11826 0.01338 0.13107
 C51 C 0.93336 0.05676 0.14322
 H52 H 0.93275 0.05575 0.17105
 C53 C 0.87545 0.06002 0.12343
 H54 H 0.83095 0.06167 0.13657
 C55 C 0.98793 0.04712 0.09316
 H56 H 1.02968 0.03855 0.08162
 C57 C 0.93098 0.05008 0.07238
 H58 H 0.93056 0.04546 0.04485
 Zn59 Zn 1.04975 0.02419 0.15731
 N60 N 0.98755 0.04960 0.12796
 C61 C 1.11515 0.17191 0.18629
 N62 N 1.11365 0.10370 0.18713
 C63 C 1.16450 0.09237 0.20711
 C64 C 1.22092 0.15154 0.22680
 C65 C 1.17028 0.23252 0.20591
 C66 C 0.92659 -0.13027 0.16348
 C67 C 0.86103 -0.19511 0.17899
 C68 C 0.90468 -0.13684 0.23361
 C69 C 0.96952 -0.07288 0.21700
 N70 N 0.97832 -0.07016 0.18242
 H71 H 1.07515 0.18026 0.16975
 H72 H 1.16232 0.03773 0.20703
 H73 H 1.26051 0.14091 0.24257
 H74 H 1.17152 0.28692 0.20475
 H75 H 0.93391 -0.12562 0.13587
 H76 H 0.81881 -0.24087 0.16317
 H77 H 0.89704 -0.13516 0.26070
 H78 H 1.00997 -0.02333 0.23135
 C79 C 0.87316 0.05557 0.08746
 C80 C 1.23234 0.01243 0.09549
 C81 C 0.84833 -0.19835 0.21431
 C82 C 1.22523 0.22340 0.22581
 C83 C 0.05536 0.91479 0.88361
 H84 H 0.00065 0.85993 0.88144
 C85 C 0.11538 0.91670 0.90359
 H86 H 0.10563 0.86230 0.91616
 C87 C 0.13421 1.05035 0.86718
 H88 H 0.14167 1.10168 0.85222
 C89 C 0.19597 1.05510 0.88714
 H90 H 0.25059 1.11070 0.88773
 N91 N 0.06558 0.98078 0.86594
 C92 C -0.17068 0.92550 0.84783
 H93 H -0.17449 0.92514 0.82000
 C94 C -0.23053 0.92024 0.86623
 H95 H -0.27962 0.91504 0.85160
 C96 C -0.09747 0.93962 0.89922
 H97 H -0.04425 0.95037 0.91185
 C98 C -0.15574 0.93465 0.91866
 H99 H -0.14684 0.94001 0.94624
 Zn100 Zn -0.01898 0.96456 0.83719
 N101 N -0.10539 0.93621 0.86441
 C102 C -0.10550 0.81519 0.80803
 N103 N -0.03723 0.88528 0.80899
 C104 C 0.02625 0.90016 0.79188
 C105 C 0.02351 0.84277 0.77356
 C106 C -0.11108 0.75616 0.78956
 C107 C 0.01553 1.11851 0.82611
 C108 C 0.01605 1.18136 0.80751
 C109 C -0.01136 1.11416 0.75549
 C110 C -0.01068 1.05289 0.77502
 N111 N 0.00129 1.05554 0.80975
 H112 H -0.15487 0.80431 0.82225
 H113 H 0.07984 0.95635 0.79328
 H114 H 0.07488 0.85602 0.76019
 H115 H -0.16531 0.70014 0.78927
 H116 H 0.02302 1.11827 0.85386
 H117 H 0.02544 1.23019 0.82103
 H118 H -0.02184 1.11044 0.72795
 H119 H -0.02340 1.00167 0.76261
 C120 C -0.22288 0.92668 0.90226
 C121 C 0.18704 0.98775 0.90572
 C122 C -0.00015 1.17842 0.77198
 C123 C -0.04540 0.76906 0.77285
 C124 C 0.45313 -0.01316 -0.02134
 C125 C 0.46419 -0.00203 0.01431
 C126 C 0.53009 0.00410 0.03089
 C127 C 0.58433 -0.00273 0.01311
 C128 C 0.57030 -0.02029 -0.02216
 C129 C 0.50587 -0.02196 -0.03900
 H130 H 0.49608 -0.02844 -0.06637
 H131 H 0.53949 0.01472 0.05804
 C132 C -0.03787 0.42766 0.65248
 C133 C -0.02967 0.42647 0.68898
 C134 C -0.02822 0.48527 0.70617
 C135 C -0.03426 0.54543 0.68800
 C136 C -0.04072 0.54698 0.65160
 C137 C -0.04342 0.48783 0.63442
 H138 H -0.04722 0.49021 0.60645
 H139 H -0.02362 0.48318 0.73409
 C140 C 0.58611 0.58239 0.32287
 C141 C 0.56513 0.59031 0.35591
 C142 C 0.49521 0.52776 0.37046
 C143 C 0.44245 0.46346 0.35194
 C144 C 0.45976 0.45988 0.31789
 C145 C 0.53229 0.51816 0.30411
 H146 H 0.54688 0.51349 0.27853
 H147 H 0.48192 0.52610 0.39703
 C148 C -0.04505 0.23763 0.59868
 C149 C 0.01818 0.29646 0.61330
 C150 C 0.01610 0.35208 0.63458
 C151 C -0.03920 0.36933 0.63171
 H152 H 0.07472 0.30486 0.61048
 H153 H 0.06444 0.38281 0.65218
 H154 H -0.10129 0.22977 0.60221
 H155 H -0.08297 0.34596 0.61156
 C156 C 0.77251 0.73800 0.22883
 C157 C 0.75805 0.71903 0.26261
 C158 C 0.67881 0.66063 0.27489
 C159 C 0.66509 0.63833 0.30851
 H160 H 0.80409 0.74694 0.28148
 H161 H 0.63123 0.63830 0.25639
 H162 H 0.72567 0.70610 0.21068
 H163 H 0.71403 0.66229 0.32628
 C164 C 0.25432 -0.00702 -0.07459
 C165 C 0.24799 -0.06211 -0.05041
 C166 C 0.31441 -0.05856 -0.03107
 C167 C 0.38827 -0.01455 -0.04156
 H168 H 0.19147 -0.11111 -0.04272
 H169 H 0.30082 -0.09678 -0.00766
 H170 H 0.31066 0.04525 -0.07982
 H171 H 0.40179 0.01709 -0.06672
 C172 C -0.03206 0.74228 0.58343
 C173 C -0.08135 0.70188 0.60964
 C174 C -0.08930 0.63119 0.62864
 C175 C -0.03332 0.61498 0.63039
 H176 H -0.12006 0.71940 0.61715
 H177 H -0.14160 0.59368 0.64354
 H178 H 0.00098 0.72057 0.57341
 H179 H 0.01993 0.65164 0.61614
 C180 C 0.28522 0.28890 0.24554
 C181 C 0.35592 0.30039 0.25274
 C182 C 0.41644 0.36498 0.27264
 C183 C 0.39991 0.39769 0.29644
 H184 H 0.37225 0.26324 0.24244
 H185 H 0.47595 0.38157 0.26924
 H186 H 0.27177 0.33089 0.25270
 H187 H 0.33975 0.37568 0.30184
 C188 C 0.72338 -0.06987 -0.07777
 C189 C 0.65304 -0.07904 -0.09039
 C190 C 0.60386 -0.06590 -0.07223
 C191 C 0.62091 -0.03328 -0.04006
 H192 H 0.63239 -0.09939 -0.11576
 H193 H 0.54909 -0.08306 -0.08499
 H194 H 0.73841 -0.05928 -0.05091
 H195 H 0.67550 -0.01848 -0.02792
 C196 C 0.29464 0.01537 0.07612
 C197 C 0.32132 -0.03237 0.08410
 C198 C 0.38334 -0.03065 0.06506
 C199 C 0.40967 0.00727 0.03400
 H200 H 0.29841 -0.07433 0.10626
 H201 H 0.40437 -0.06716 0.07642
 H202 H 0.32153 0.06148 0.05573
 H203 H 0.38601 0.03986 0.02101
 C204 C 0.71295 0.80509 0.41235
 C205 C 0.63962 0.74169 0.42280
 C206 C 0.59166 0.67633 0.40395
 C207 C 0.61268 0.65930 0.37356
 H208 H 0.61600 0.74117 0.44703
 H209 H 0.53536 0.63669 0.41519
 H210 H 0.72938 0.81054 0.38583
 H211 H 0.66758 0.70308 0.36241
 C212 C -0.00634 0.24215 0.75314
 C213 C -0.05428 0.22993 0.72591
 C214 C -0.06481 0.29056 0.70666
 C215 C -0.01957 0.36762 0.71029
 H216 H -0.09034 0.17143 0.71738
 H217 H -0.11136 0.27002 0.68767
 H218 H 0.02558 0.29867 0.76374
 H219 H 0.02543 0.38974 0.72988
 C220 C 0.80818 0.04938 0.06551
 C221 C 0.76204 0.07363 0.07448
 C222 C 0.69473 0.06384 0.05361
 C223 C 0.65344 0.00601 0.03253
 H224 H 0.77526 0.10526 0.09733
 H225 H 0.67669 0.10446 0.05711
 H226 H 0.79902 0.02485 0.04084
 H227 H 0.66967 -0.03619 0.02964
 C228 C 0.25140 0.27184 0.41810
 C229 C 0.26447 0.34418 0.41121
 C230 C 0.33268 0.40838 0.39235
 C231 C 0.37200 0.39736 0.36940
 H232 H 0.22693 0.35979 0.42185
 H233 H 0.34879 0.46731 0.39673
 H234 H 0.29351 0.25880 0.41050
 H235 H 0.35165 0.33873 0.36260
 C236 C -0.04980 0.70562 0.75473
 C237 C 0.01104 0.69688 0.75329
 C238 C 0.00905 0.63479 0.73520
 C239 C -0.03467 0.60561 0.70700
 H240 H 0.06396 0.73431 0.76732
 H241 H 0.04954 0.61728 0.74399
 H242 H -0.10540 0.66308 0.74395
 H243 H -0.06934 0.62903 0.69672
   
