data_POSCAR
  _audit_creation_date              2014-09-24
  _audit_creation_method            'ToBaCCo'
  _symmetry_space_group_name_H-M    'P1'
  _symmetry_Int_Tables_number       1
  _symmetry_cell_setting            triclinic
  loop_
  _symmetry_equiv_pos_as_xyz
 x,y,z
_cell_length_a 46.0089
_cell_length_b 41.8124
_cell_length_c 18.6409
_cell_angle_alpha 90.839100
_cell_angle_beta 90.032700
_cell_angle_gamma 89.936400
loop_
  _atom_site_label
  _atom_site_type_symbol
  _atom_site_fract_x
  _atom_site_fract_y
  _atom_site_fract_z
C1 C 0.16550 0.26760 0.24288
 C2 C 0.16368 0.23485 0.24089
 C3 C 0.19164 0.22343 0.22908
 N4 N 0.21055 0.24812 0.22591
 C5 C 0.19454 0.27510 0.23362
 C6 C 0.19969 0.19096 0.21870
 C7 C 0.22865 0.18077 0.23080
 C8 C 0.24076 0.15257 0.20412
 C9 C 0.26838 0.15064 0.23152
 C10 C 0.27254 0.17767 0.27443
 N11 N 0.24829 0.19607 0.27311
 C12 C 0.29784 0.18423 0.31552
 C13 C 0.30322 0.21536 0.34324
 C14 C 0.32063 0.22293 0.40186
 C15 C 0.32205 0.25563 0.40587
 C16 C 0.30478 0.26694 0.35091
 N17 N 0.29309 0.24235 0.31295
 C18 C 0.30190 0.29933 0.33258
 C19 C 0.27857 0.31006 0.28982
 C20 C 0.27721 0.33895 0.25433
 C21 C 0.24977 0.34095 0.22494
 C22 C 0.23535 0.31305 0.24259
 N23 N 0.25309 0.29434 0.28170
 C24 C 0.20587 0.30633 0.22801
 H25 H 0.14756 0.28399 0.25133
 H26 H 0.14403 0.22113 0.24847
 H27 H 0.24701 0.27363 0.30823
 H28 H 0.23092 0.13525 0.16790
 H29 H 0.28367 0.13155 0.22024
 H30 H 0.33120 0.20663 0.43814
 H31 H 0.33420 0.26953 0.44509
 H32 H 0.24136 0.36076 0.19445
 H33 H 0.24428 0.21632 0.30488
 H34 H 0.29408 0.35684 0.25022
 C35 C 0.66130 0.27602 0.28111
 C36 C 0.66134 0.24380 0.29390
 C37 C 0.69017 0.23416 0.29323
 N38 N 0.70769 0.25951 0.28195
 C39 C 0.69014 0.28514 0.27469
 C40 C 0.70025 0.20327 0.30982
 C41 C 0.72945 0.19364 0.30031
 C42 C 0.74136 0.16578 0.32719
 C43 C 0.76922 0.16371 0.30115
 C44 C 0.77361 0.19032 0.25890
 N45 N 0.74923 0.20840 0.25847
 C46 C 0.79910 0.19615 0.21901
 C47 C 0.80581 0.22632 0.18957
 C48 C 0.82912 0.23236 0.14501
 C49 C 0.83003 0.26479 0.13601
 C50 C 0.80634 0.27778 0.17265
 N51 N 0.79191 0.25401 0.20605
 C52 C 0.80036 0.31097 0.18389
 C53 C 0.77467 0.32191 0.21939
 C54 C 0.76957 0.35325 0.24261
 C55 C 0.74118 0.35494 0.26495
 C56 C 0.72943 0.32476 0.25499
 N57 N 0.74985 0.30480 0.22703
 C58 C 0.70005 0.31695 0.26850
 H59 H 0.64218 0.29105 0.27834
 H60 H 0.64228 0.22938 0.30353
 H61 H 0.74591 0.28203 0.20615
 H62 H 0.73097 0.14838 0.36105
 H63 H 0.78443 0.14457 0.31170
 H64 H 0.84456 0.21541 0.12274
 H65 H 0.84723 0.27673 0.10777
 H66 H 0.73035 0.37617 0.28542
 H67 H 0.74525 0.22751 0.22482
 H68 H 0.78424 0.37341 0.24187
 C69 C 0.67354 0.75717 0.65630
 C70 C 0.67422 0.72436 0.65696
 C71 C 0.69673 0.71587 0.70240
 N72 N 0.71014 0.74237 0.72820
 C73 C 0.69611 0.76763 0.69992
 C74 C 0.70347 0.68441 0.72380
 C75 C 0.72963 0.67677 0.75944
 C76 C 0.73508 0.64809 0.79349
 C77 C 0.76349 0.64911 0.81639
 C78 C 0.77458 0.67839 0.79578
 N79 N 0.75382 0.69514 0.76129
 C80 C 0.80385 0.68791 0.80328
 C81 C 0.81266 0.71996 0.79499
 C82 C 0.84078 0.72979 0.78094
 C83 C 0.84018 0.76258 0.78047
 C84 C 0.81180 0.77173 0.79564
 N85 N 0.79492 0.74555 0.80345
 C86 C 0.80169 0.80365 0.80423
 C87 C 0.77192 0.81137 0.79411
 C88 C 0.75869 0.83985 0.81553
 C89 C 0.73048 0.83866 0.79145
 C90 C 0.72701 0.80937 0.75678
 N91 N 0.75233 0.79288 0.75857
 C92 C 0.70170 0.79973 0.71948
 H93 H 0.65796 0.77152 0.62754
 H94 H 0.65956 0.70868 0.62781
 H95 H 0.75688 0.77182 0.73025
 H96 H 0.72026 0.62830 0.80047
 H97 H 0.77476 0.63025 0.84426
 H98 H 0.85962 0.71491 0.77074
 H99 H 0.85853 0.77785 0.76909
 H100 H 0.71443 0.85741 0.79828
 H101 H 0.75715 0.71613 0.73318
 H102 H 0.76821 0.85959 0.84539
 C103 C 0.31261 0.78079 0.57433
 C104 C 0.31285 0.74817 0.56571
 C105 C 0.29371 0.73624 0.61601
 N106 N 0.28177 0.76034 0.65496
 C107 C 0.29334 0.78759 0.62965
 C108 C 0.28910 0.70357 0.62939
 C109 C 0.26595 0.69258 0.67197
 C110 C 0.26427 0.66225 0.70059
 C111 C 0.23789 0.66037 0.73471
 C112 C 0.22397 0.68955 0.72533
 N113 N 0.24141 0.70914 0.68752
 C114 C 0.19510 0.69681 0.74657
 C115 C 0.18514 0.72892 0.74962
 C116 C 0.15654 0.73868 0.74139
 C117 C 0.15631 0.77127 0.75020
 C118 C 0.18477 0.78048 0.76350
 N119 N 0.20249 0.75459 0.76178
 C120 C 0.19421 0.81225 0.77760
 C121 C 0.22285 0.82202 0.76023
 C122 C 0.23607 0.85021 0.78363
 C123 C 0.26244 0.85200 0.74931
 C124 C 0.26484 0.82477 0.70655
 N125 N 0.24071 0.80657 0.71362
 C126 C 0.28821 0.81822 0.65961
 H127 H 0.32529 0.79753 0.54362
 H128 H 0.32578 0.73479 0.52715
 H129 H 0.23528 0.78660 0.68247
 H130 H 0.28038 0.64340 0.69722
 H131 H 0.22998 0.63972 0.76299
 H132 H 0.13788 0.72402 0.72809
 H133 H 0.13741 0.78650 0.74506
 H134 H 0.27807 0.87119 0.75520
 H135 H 0.23548 0.73118 0.66670
 H136 H 0.22771 0.86784 0.82134
 O137 O 1.02428 -0.04572 0.09468
 O138 O 0.96935 0.01628 0.13695
 O139 O 0.96777 -0.04325 0.09314
 O140 O 1.02569 0.01314 0.14258
 O141 O 1.02784 0.02981 0.03079
 O142 O 0.96935 -0.02682 -0.01887
 O143 O 0.97175 0.03299 0.02521
 O144 O 1.02588 -0.02899 -0.01705
 Cu145 Cu 0.99655 -0.01658 0.12802
 Cu146 Cu 0.99882 0.00334 -0.00630
 C147 C 1.03439 -0.04787 0.03139
 C148 C 0.96158 0.03548 0.08824
 C149 C 0.95881 -0.04486 0.02889
 C150 C 1.03652 0.03120 0.09554
 O151 O 0.52575 0.54239 0.48512
 O152 O 0.46819 0.48782 0.42371
 O153 O 0.46965 0.54440 0.48162
 O154 O 0.52530 0.48407 0.43228
 O155 O 0.52128 0.46330 0.54005
 O156 O 0.46815 0.52490 0.59111
 O157 O 0.46466 0.46823 0.53275
 O158 O 0.52432 0.52129 0.59304
 Cu159 Cu 0.49761 0.51647 0.44449
 Cu160 Cu 0.49440 0.49222 0.57490
 C161 C 0.53467 0.54141 0.54939
 C162 C 0.45608 0.46937 0.46797
 C163 C 0.45974 0.54502 0.54531
 C164 C 0.53274 0.46342 0.47829
 O165 O -0.02326 0.52575 -0.01395
 O166 O 0.03372 0.46779 0.03593
 O167 O 0.03280 0.52797 0.00050
 O168 O -0.02306 0.46623 0.02442
 O169 O -0.01836 0.45113 -0.08898
 O170 O 0.03705 0.51377 -0.11361
 O171 O 0.03829 0.45354 -0.07805
 O172 O -0.01881 0.51060 -0.12746
 Cu173 Cu 0.00465 0.49826 0.02329
 Cu174 Cu 0.01010 0.48065 -0.11330
 C175 C -0.03063 0.52803 -0.07945
 C176 C 0.04579 0.45091 -0.01293
 C177 C 0.04408 0.53177 -0.06085
 C178 C -0.03050 0.44841 -0.02820
 O179 O 0.48382 1.03623 0.52428
 O180 O 0.53995 0.97490 0.55154
 O181 O 0.53859 1.03132 0.49416
 O182 O 0.48474 0.97968 0.58140
 O183 O 0.47331 0.95858 0.47580
 O184 O 0.52825 1.00896 0.38916
 O185 O 0.52874 0.95250 0.44717
 O186 O 0.47329 1.01467 0.41854
 Cu187 Cu 0.51289 1.00765 0.54851
 Cu188 Cu 0.49986 0.98136 0.42215
 C189 C 0.46915 1.03604 0.46661
 C190 C 0.54392 0.95324 0.50406
 C191 C 0.54249 1.02906 0.42680
 C192 C 0.46956 0.96066 0.54321
 C193 C 1.17922 0.16749 0.19691
 C194 C 1.15451 0.17344 0.15528
 C195 C 1.13355 0.14801 0.13481
 C196 C 1.13009 0.12033 0.17589
 C197 C 1.11010 0.09681 0.15542
 C198 C 1.09264 0.10069 0.09414
 C199 C 1.09611 0.12834 0.05318
 C200 C 1.11620 0.15186 0.07360
 C201 C 1.07084 0.07650 0.07133
 C202 C 1.05914 0.05404 0.11782
 H203 H 1.15160 0.19676 0.13182
 H204 H 1.14246 0.11682 0.22450
 H205 H 1.10872 0.07558 0.18761
 H206 H 1.08304 0.13190 0.00561
 H207 H 1.11831 0.17304 0.04125
 H208 H 1.06261 0.07748 0.01693
 H209 H 1.18425 0.14273 0.20743
 H210 H 1.06555 0.05389 0.17362
 C211 C 0.68279 0.65788 0.70857
 C212 C 0.65308 0.66045 0.72219
 C213 C 0.63244 0.63481 0.70265
 C214 C 0.60507 0.64317 0.67571
 C215 C 0.58544 0.61948 0.65401
 C216 C 0.59266 0.58699 0.66036
 C217 C 0.61954 0.57857 0.69017
 C218 C 0.63948 0.60230 0.71040
 C219 C 0.57225 0.56181 0.63648
 C220 C 0.55661 0.56474 0.57294
 H221 H 0.64436 0.68290 0.74246
 H222 H 0.59912 0.66808 0.67002
 H223 H 0.56452 0.62657 0.63282
 H224 H 0.62533 0.55365 0.69634
 H225 H 0.66021 0.59524 0.73269
 H226 H 0.57069 0.54003 0.66702
 H227 H 0.69154 0.63540 0.68864
 H228 H 0.56077 0.58489 0.53854
 C229 C -0.17853 0.33413 0.16657
 C230 C -0.16499 0.33618 0.09959
 C231 C -0.14148 0.35936 0.08411
 C232 C -0.12167 0.35220 0.02887
 C233 C -0.09851 0.37282 0.01435
 C234 C -0.09492 0.40130 0.05453
 C235 C -0.11502 0.40868 0.10887
 C236 C -0.13816 0.38816 0.12322
 C237 C -0.07033 0.42354 0.04321
 C238 C -0.05368 0.42452 -0.01934
 H239 H -0.17143 0.31984 0.05687
 H240 H -0.12374 0.33020 -0.00214
 H241 H -0.08324 0.36592 -0.02711
 H242 H -0.11289 0.43056 0.14029
 H243 H -0.15343 0.39533 0.16443
 H244 H -0.06600 0.44108 0.08524
 H245 H -0.17422 0.35273 0.20577
 H246 H -0.05850 0.40877 -0.06428
 C247 C 0.30828 0.84463 0.64167
 C248 C 0.33816 0.84181 0.65248
 C249 C 0.35944 0.86532 0.62615
 C250 C 0.38677 0.86749 0.65930
 C251 C 0.40811 0.88787 0.63248
 C252 C 0.40259 0.90609 0.57115
 C253 C 0.37534 0.90374 0.53773
 C254 C 0.35387 0.88373 0.56514
 C255 C 0.42522 0.92626 0.53848
 C256 C 0.44742 0.94087 0.57795
 H257 H 0.34630 0.82111 0.68055
 H258 H 0.39170 0.85311 0.70563
 H259 H 0.42916 0.88847 0.65838
 H260 H 0.37074 0.91726 0.48990
 H261 H 0.33335 0.88189 0.53697
 H262 H 0.42354 0.93100 0.48161
 H263 H 0.29916 0.86679 0.62241
 H264 H 0.44782 0.93912 0.63582
 C265 C -0.17419 0.66278 -0.18197
 C266 C -0.15254 0.66685 -0.13009
 C267 C -0.13099 0.64182 -0.11204
 C268 C -0.12506 0.61570 -0.15822
 C269 C -0.10450 0.59269 -0.13940
 C270 C -0.08898 0.59551 -0.07452
 C271 C -0.09496 0.62153 -0.02844
 C272 C -0.11561 0.64453 -0.04720
 C273 C -0.06679 0.57176 -0.05288
 C274 C -0.05299 0.55104 -0.10140
 H275 H -0.15217 0.68899 -0.09913
 H276 H -0.13587 0.61298 -0.20941
 H277 H -0.10119 0.57265 -0.17575
 H278 H -0.08344 0.62425 0.02198
 H279 H -0.11964 0.66445 -0.01073
 H280 H -0.06020 0.57149 0.00293
 H281 H -0.17711 0.63971 -0.20789
 H282 H -0.05784 0.55209 -0.15805
 C283 C 0.31750 1.15880 0.32789
 C284 C 0.34745 1.16287 0.33811
 C285 C 0.36764 1.13627 0.35324
 C286 C 0.39322 1.14303 0.39145
 C287 C 0.41307 1.11877 0.40662
 C288 C 0.40781 1.08719 0.38320
 C289 C 0.38259 1.08054 0.34335
 C290 C 0.36258 1.10479 0.32872
 C291 C 0.42872 1.06110 0.39688
 C292 C 0.44746 1.06131 0.45573
 H293 H 0.35687 1.18650 0.33519
 H294 H 0.39782 1.16720 0.40989
 H295 H 0.43276 1.12500 0.43530
 H296 H 0.37834 1.05650 0.32364
 H297 H 0.34364 1.09885 0.29689
 H298 H 0.42867 1.04057 0.36073
 H299 H 0.30926 1.13462 0.32526
 H300 H 0.44609 1.08028 0.49572
 C301 C 1.17489 -0.16441 -0.19398
 C302 C 1.15096 -0.17120 -0.15041
 C303 C 1.13038 -0.14623 -0.12510
 C304 C 1.11426 -0.15123 -0.06237
 C305 C 1.09423 -0.12833 -0.03794
 C306 C 1.08984 -0.09998 -0.07628
 C307 C 1.10563 -0.09530 -0.13965
 C308 C 1.12564 -0.11812 -0.16393
 C309 C 1.06830 -0.07536 -0.05431
 C310 C 1.05610 -0.07271 0.01414
 H311 H 1.14817 -0.19516 -0.13025
 H312 H 1.11717 -0.17295 -0.03217
 H313 H 1.08192 -0.13335 0.00994
 H314 H 1.10235 -0.07393 -0.17082
 H315 H 1.13683 -0.11393 -0.21394
 H316 H 1.06225 -0.05786 -0.09396
 H317 H 1.17993 -0.13945 -0.20170
 H318 H 1.06266 -0.08864 0.05635
 C319 C 0.67909 0.34365 0.27954
 C320 C 0.66249 0.34616 0.34200
 C321 C 0.64038 0.37131 0.35555
 C322 C 0.63090 0.37662 0.42617
 C323 C 0.60909 0.39894 0.44143
 C324 C 0.59578 0.41614 0.38590
 C325 C 0.60562 0.41123 0.31530
 C326 C 0.62759 0.38894 0.30006
 C327 C 0.57206 0.43953 0.39987
 C328 C 0.55506 0.43921 0.46187
 H329 H 0.66616 0.32878 0.38365
 H330 H 0.64047 0.36344 0.46991
 H331 H 0.60306 0.40273 0.49693
 H332 H 0.59590 0.42428 0.27160
 H333 H 0.63388 0.38510 0.24472
 H334 H 0.56742 0.45714 0.35935
 H335 H 0.67873 0.36263 0.24073
 H336 H 0.55831 0.42087 0.50136
 C337 C 0.82109 -0.17120 -0.17763
 C338 C 0.84627 -0.17522 -0.13655
 C339 C 0.86626 -0.14871 -0.11742
 C340 C 0.88419 -0.15188 -0.05710
 C341 C 0.90356 -0.12762 -0.03738
 C342 C 0.90548 -0.09957 -0.07789
 C343 C 0.88813 -0.09674 -0.13940
 C344 C 0.86863 -0.12101 -0.15901
 C345 C 0.92613 -0.07361 -0.05894
 C346 C 0.93636 -0.06859 0.01077
 H347 H 0.85029 -0.19811 -0.11197
 H348 H 0.88320 -0.17325 -0.02501
 H349 H 0.91737 -0.13134 0.00871
 H350 H 0.88962 -0.07566 -0.17229
 H351 H 0.85592 -0.11820 -0.20735
 H352 H 0.93308 -0.05766 -0.10086
 H353 H 0.81487 -0.14695 -0.18993
 H354 H 0.92806 -0.08288 0.05413
 C355 C 0.32562 0.32120 0.35592
 C356 C 0.32118 0.35213 0.38263
 C357 C 0.34565 0.37133 0.41104
 C358 C 0.34716 0.40406 0.39637
 C359 C 0.37094 0.42219 0.42006
 C360 C 0.39323 0.40793 0.46026
 C361 C 0.39099 0.37556 0.47780
 C362 C 0.36756 0.35729 0.45280
 C363 C 0.41871 0.42644 0.48520
 C364 C 0.43138 0.44990 0.44317
 H365 H 0.29974 0.36279 0.38106
 H366 H 0.33029 0.41541 0.36515
 H367 H 0.37175 0.44736 0.40745
 H368 H 0.40771 0.36424 0.50957
 H369 H 0.36650 0.33225 0.46654
 H370 H 0.42874 0.42016 0.53569
 H371 H 0.34745 0.31146 0.35706
 H372 H 0.42300 0.45413 0.38980
 C373 C 0.17629 0.67094 -0.23846
 C374 C 0.15211 0.67286 -0.19303
 C375 C 0.13295 0.64517 -0.17922
 C376 C 0.11677 0.64462 -0.11551
 C377 C 0.09841 0.61892 -0.10078
 C378 C 0.09582 0.59314 -0.14983
 C379 C 0.11147 0.59410 -0.21433
 C380 C 0.12982 0.61980 -0.22903
 C381 C 0.07625 0.56561 -0.13732
 C382 C 0.06511 0.55783 -0.07017
 H383 H 0.14842 0.69451 -0.16174
 H384 H 0.11838 0.66415 -0.07687
 H385 H 0.08599 0.61980 -0.05161
 H386 H 0.10946 0.57489 -0.25366
 H387 H 0.14104 0.61989 -0.27999
 H388 H 0.07060 0.55059 -0.18310
 H389 H 0.18215 0.64742 -0.25849
 H390 H 0.07135 0.57140 -0.02283
 C391 C 0.68010 1.18065 0.34439
 C392 C 0.65732 1.16634 0.30653
 C393 C 0.63728 1.14277 0.33844
 C394 C 0.62079 1.12293 0.29277
 C395 C 0.60153 1.10048 0.32080
 C396 C 0.59833 1.09744 0.39553
 C397 C 0.61449 1.11769 0.44107
 C398 C 0.63367 1.14014 0.41305
 C399 C 0.57796 1.07444 0.42855
 C400 C 0.56345 1.05007 0.39112
 H401 H 0.65475 1.17196 0.25028
 H402 H 0.62285 1.12478 0.23508
 H403 H 0.58908 1.08605 0.28341
 H404 H 0.61216 1.11626 0.49877
 H405 H 0.64514 1.15568 0.45024
 H406 H 0.57427 1.07679 0.48581
 H407 H 0.68525 1.17324 0.39823
 H408 H 0.56698 1.04622 0.33437
 C409 C 0.18634 0.33317 0.20817
 C410 C 0.16568 0.32988 0.15359
 C411 C 0.14443 0.35492 0.13363
 C412 C 0.12864 0.35079 0.06976
 C413 C 0.10755 0.37300 0.04967
 C414 C 0.10178 0.40005 0.09316
 C415 C 0.11729 0.40400 0.15756
 C416 C 0.13842 0.38175 0.17769
 C417 C 0.07914 0.42383 0.07444
 C418 C 0.06871 0.42778 0.00476
 H419 H 0.16522 0.30758 0.12322
 H420 H 0.13245 0.33008 0.03542
 H421 H 0.09546 0.36833 0.00092
 H422 H 0.11298 0.42436 0.19258
 H423 H 0.14943 0.38543 0.22837
 H424 H 0.07099 0.43944 0.11678
 H425 H 0.18974 0.35617 0.23405
 H426 H 0.07790 0.41401 -0.03925
 C427 C 0.67898 0.82403 0.70663
 C428 C 0.67296 0.83487 0.63782
 C429 C 0.65041 0.85914 0.62242
 C430 C 0.63904 0.86085 0.55272
 C431 C 0.61754 0.88324 0.53615
 C432 C 0.60699 0.90452 0.58929
 C433 C 0.61891 0.90330 0.65850
 C434 C 0.64038 0.88094 0.67502
 C435 C 0.58424 0.92877 0.57500
 C436 C 0.56632 0.92860 0.51447
 H437 H 0.68446 0.82395 0.59301
 H438 H 0.64672 0.84465 0.51096
 H439 H 0.60966 0.88389 0.48159
 H440 H 0.61156 0.91973 0.70017
 H441 H 0.64926 0.88127 0.72871
 H442 H 0.58086 0.94726 0.61550
 H443 H 0.66763 0.83368 0.75286
 H444 H 0.56821 0.90997 0.47396
 C445 C 0.81928 0.16870 0.20839
 C446 C 0.84893 0.17051 0.22335
 C447 C 0.86847 0.14296 0.21140
 C448 C 0.89609 0.14807 0.18211
 C449 C 0.91454 0.12224 0.16737
 C450 C 0.90588 0.09091 0.18333
 C451 C 0.87877 0.08593 0.21559
 C452 C 0.86002 0.11171 0.22878
 C453 C 0.92498 0.06334 0.16728
 C454 C 0.94125 0.06170 0.10435
 H455 H 0.85839 0.19323 0.23936
 H456 H 0.90312 0.17203 0.16914
 H457 H 0.93567 0.12679 0.14410
 H458 H 0.87187 0.06201 0.22914
 H459 H 0.83908 0.10725 0.25310
 H460 H 0.92496 0.04326 0.20337
 H461 H 0.80999 0.14590 0.19238
 H462 H 0.93886 0.08028 0.06486
 C463 C 0.30987 0.67968 0.59990
 C464 C 0.33954 0.68211 0.61390
 C465 C 0.36085 0.65813 0.58842
 C466 C 0.38612 0.65314 0.62877
 C467 C 0.40663 0.63046 0.60656
 C468 C 0.40240 0.61267 0.54284
 C469 C 0.37767 0.61850 0.50101
 C470 C 0.35688 0.64084 0.52388
 C471 C 0.42365 0.58829 0.51894
 C472 C 0.43851 0.56937 0.56773
 H473 H 0.34714 0.70139 0.64858
 H474 H 0.38982 0.66657 0.67809
 H475 H 0.42593 0.62714 0.63885
 H476 H 0.37422 0.60537 0.45120
 H477 H 0.33799 0.64487 0.49054
 H478 H 0.42621 0.58368 0.46194
 H479 H 0.30130 0.65841 0.57369
 H480 H 0.43370 0.57163 0.62446
   
