data_POSCAR
  _audit_creation_date              2014-09-24
  _audit_creation_method            'ToBaCCo'
  _symmetry_space_group_name_H-M    'P1'
  _symmetry_Int_Tables_number       1
  _symmetry_cell_setting            triclinic
  loop_
  _symmetry_equiv_pos_as_xyz
 x,y,z
_cell_length_a 30.6209
_cell_length_b 30.6580
_cell_length_c 62.7152
_cell_angle_alpha 87.980200
_cell_angle_beta 91.020600
_cell_angle_gamma 120.088300
loop_
  _atom_site_label
  _atom_site_type_symbol
  _atom_site_fract_x
  _atom_site_fract_y
  _atom_site_fract_z
C1 C 0.01851 0.08277 0.52896
 H2 H 0.05411 0.08333 0.52869
 C3 C 0.01324 0.11667 0.54140
 H4 H 0.04481 0.14337 0.55082
 C5 C -0.06573 0.04820 0.51653
 H6 H -0.09602 0.02210 0.50650
 C7 C -0.07259 0.08161 0.52876
 H8 H -0.10832 0.08090 0.52827
 N9 N -0.02071 0.04932 0.51693
 C10 C 0.01415 -0.06972 0.50651
 H11 H 0.01528 -0.06885 0.48926
 C12 C 0.01926 -0.10653 0.51821
 H13 H 0.02465 -0.13396 0.50998
 C14 C 0.00318 -0.03669 0.53833
 H15 H -0.00458 -0.01042 0.54609
 C16 C 0.00809 -0.07288 0.55063
 H17 H 0.00466 -0.07397 0.56783
 Zn18 Zn -0.00752 0.00803 0.49960
 N19 N 0.00614 -0.03586 0.51667
 C20 C 0.09239 0.05089 0.48285
 N21 N 0.04848 0.05200 0.48235
 C22 C 0.04384 0.08727 0.47033
 C23 C 0.08422 0.12313 0.45801
 C24 C 0.13382 0.08620 0.47075
 C25 C -0.10662 -0.06880 0.49258
 C26 C -0.14765 -0.10412 0.48085
 C27 C -0.10017 -0.06553 0.44846
 C28 C -0.06005 -0.03097 0.46081
 N29 N -0.06389 -0.03334 0.48246
 H30 H 0.09566 0.02328 0.49288
 H31 H 0.00876 0.08776 0.47052
 H32 H 0.08024 0.15126 0.44860
 H33 H 0.16882 0.08546 0.47133
 H34 H -0.10821 -0.07045 0.50983
 H35 H -0.18106 -0.13282 0.48915
 H36 H -0.09621 -0.06392 0.43126
 H37 H -0.02535 -0.00343 0.45310
 C38 C 0.01574 -0.10837 0.54046
 C39 C -0.03263 0.11621 0.54125
 C40 C -0.14421 -0.10280 0.45858
 C41 C 0.12965 0.12271 0.45828
 C42 C 1.09669 0.03747 0.13739
 H43 H 1.09737 0.07309 0.13745
 C44 C 1.13138 0.03260 0.12506
 H45 H 1.15881 0.06450 0.11551
 C46 C 1.06095 -0.04729 0.15023
 H47 H 1.03404 -0.07796 0.16036
 C48 C 1.09510 -0.05376 0.13811
 H49 H 1.09417 -0.08957 0.13880
 N50 N 1.06227 -0.00220 0.14956
 C51 C 0.94221 0.03202 0.15933
 H52 H 0.94180 0.03235 0.17657
 C53 C 0.90608 0.03742 0.14747
 H54 H 0.87789 0.04225 0.15556
 C55 C 0.97774 0.02265 0.12771
 H56 H 1.00470 0.01537 0.12010
 C57 C 0.94227 0.02789 0.11525
 H58 H 0.94242 0.02518 0.09808
 Zn59 Zn 1.01967 0.01022 0.16666
 N60 N 0.97697 0.02462 0.14935
 C61 C 1.06105 0.10908 0.18309
 N62 N 1.06236 0.06531 0.18374
 C63 C 1.09680 0.06008 0.19588
 C64 C 1.13152 0.09967 0.20822
 C65 C 1.09524 0.14973 0.19522
 C66 C 0.94218 -0.08913 0.17403
 C67 C 0.90607 -0.13067 0.18592
 C68 C 0.94242 -0.08481 0.21810
 C69 C 0.97785 -0.04410 0.20563
 N70 N 0.97700 -0.04690 0.18399
 H71 H 1.03413 0.11283 0.17297
 H72 H 1.09746 0.02513 0.19581
 H73 H 1.15895 0.09521 0.21776
 H74 H 1.09431 0.18461 0.19455
 H75 H 0.94170 -0.08992 0.15679
 H76 H 0.87783 -0.16374 0.17784
 H77 H 0.94264 -0.08191 0.23528
 H78 H 1.00486 -0.00980 0.21322
 C79 C 0.90584 0.03485 0.12524
 C80 C 1.13068 -0.01335 0.12547
 C81 C 0.90593 -0.12827 0.20814
 C82 C 1.13083 0.14492 0.20785
 C83 C 0.04399 0.95615 0.86280
 H84 H 0.00892 0.92053 0.86259
 C85 C 0.08434 0.96073 0.87514
 H86 H 0.08036 0.92862 0.88456
 C87 C 0.09254 1.04117 0.85031
 H88 H 0.09581 1.07205 0.84028
 C89 C 0.13394 1.04735 0.86244
 H90 H 0.16893 1.08316 0.86188
 N91 N 0.04864 0.99607 0.85078
 C92 C -0.10645 0.96157 0.84054
 H93 H -0.10807 0.96162 0.82329
 C94 C -0.14746 0.95581 0.85228
 H95 H -0.18090 0.95107 0.84403
 C96 C -0.05985 0.97038 0.87231
 H97 H -0.02515 0.97760 0.88002
 C98 C -0.09997 0.96477 0.88466
 H99 H -0.09609 0.96714 0.90186
 Zn100 Zn -0.00735 0.98397 0.83352
 N101 N -0.06371 0.96889 0.85066
 C102 C -0.06557 0.88550 0.81658
 N103 N -0.02054 0.92947 0.81619
 C104 C 0.01867 0.93529 0.80416
 C105 C 0.01339 0.89610 0.79173
 C106 C -0.07244 0.84523 0.80435
 C107 C 0.01431 1.08342 0.82662
 C108 C 0.01942 1.12534 0.81492
 C109 C 0.00826 1.08051 0.78250
 C110 C 0.00335 1.03941 0.79479
 N111 N 0.00631 1.04153 0.81645
 H112 H -0.09586 0.88128 0.82661
 H113 H 0.05427 0.97037 0.80444
 H114 H 0.04496 0.90101 0.78231
 H115 H -0.10817 0.81017 0.80484
 H116 H 0.01544 1.08368 0.84387
 H117 H 0.02481 1.15817 0.82315
 H118 H 0.00484 1.07817 0.76530
 H119 H -0.00440 1.00537 0.78703
 C120 C -0.14398 0.95795 0.87454
 C121 C 0.12976 1.00667 0.87491
 C122 C 0.01590 1.12366 0.79267
 C123 C -0.03248 0.85063 0.79187
 C124 C 0.50779 -0.00343 0.01039
 C125 C 0.50588 -0.00537 -0.01131
 C126 C 0.46624 -0.00121 -0.02375
 C127 C 0.54324 -0.01181 -0.02361
 C128 C 0.55264 0.00292 0.02256
 C129 C 0.46514 -0.00741 0.02296
 C130 C 0.43760 -0.03718 -0.03898
 C131 C 0.40031 -0.03345 -0.05072
 C132 C 0.39154 0.00647 -0.04749
 C133 C 0.42042 0.04287 -0.03255
 C134 C 0.45775 0.03921 -0.02081
 C135 C 0.55261 -0.05138 -0.01841
 C136 C 0.58752 -0.05740 -0.03015
 C137 C 0.61306 -0.02427 -0.04733
 C138 C 0.60343 0.01481 -0.05276
 C139 C 0.56857 0.02091 -0.04103
 C140 C 0.60131 0.04246 0.01729
 C141 C 0.64322 0.04852 0.02896
 C142 C 0.63689 0.01545 0.04614
 C143 C 0.58847 -0.02364 0.05163
 C144 C 0.54654 -0.02977 0.03997
 C145 C 0.47410 0.02861 0.03823
 C146 C 0.43420 0.02503 0.05012
 C147 C 0.38500 -0.01479 0.04700
 C148 C 0.37587 -0.05122 0.03202
 C149 C 0.41575 -0.04771 0.02013
 H150 H 0.44375 -0.06843 -0.04158
 H151 H 0.37824 -0.06177 -0.06227
 H152 H 0.41411 0.07404 -0.02999
 H153 H 0.48011 0.06793 -0.00946
 H154 H 0.53273 -0.07767 -0.00533
 H155 H 0.59450 -0.08791 -0.02587
 H156 H 0.56167 0.05143 -0.04538
 H157 H 0.60676 0.06874 0.00421
 H158 H 0.68048 0.07904 0.02464
 H159 H 0.58314 -0.04938 0.06493
 H160 H 0.50935 -0.06026 0.04438
 H161 H 0.51191 0.05977 0.04075
 H162 H 0.44169 0.05337 0.06170
 H163 H 0.33799 -0.08231 0.02955
 H164 H 0.40816 -0.07645 0.00875
 H165 H 0.62291 0.04060 -0.06605
 C166 C -0.01781 0.48997 0.67744
 C167 C -0.01782 0.49163 0.65569
 C168 C -0.02285 0.44893 0.64324
 C169 C -0.01231 0.53642 0.64333
 C170 C -0.02282 0.52764 0.68989
 C171 C -0.01228 0.45071 0.68979
 C172 C 0.01167 0.45786 0.62689
 C173 C 0.00716 0.41792 0.61512
 C174 C -0.03212 0.36870 0.61946
 C175 C -0.06709 0.35959 0.63553
 C176 C -0.06265 0.39951 0.64730
 C177 C 0.02793 0.58498 0.64744
 C178 C 0.03318 0.62686 0.63562
 C179 C -0.00142 0.62061 0.61946
 C180 C -0.04122 0.57229 0.61510
 C181 C -0.04654 0.53038 0.62692
 C182 C -0.06263 0.53720 0.68583
 C183 C -0.06705 0.57268 0.69760
 C184 C -0.03205 0.59861 0.71367
 C185 C 0.00723 0.58873 0.71800
 C186 C 0.01173 0.55331 0.70623
 C187 C -0.04648 0.42248 0.70621
 C188 C -0.04114 0.38591 0.71803
 C189 C -0.00135 0.37744 0.71367
 C190 C 0.03323 0.40584 0.69750
 C191 C 0.02796 0.44245 0.68568
 H192 H 0.04243 0.49567 0.62342
 H193 H 0.03439 0.42540 0.60270
 H194 H -0.09775 0.32169 0.63895
 H195 H -0.09028 0.39192 0.65954
 H196 H 0.05537 0.59037 0.65972
 H197 H 0.06426 0.66404 0.63905
 H198 H -0.07760 0.49326 0.62340
 H199 H -0.09028 0.51710 0.67359
 H200 H -0.09772 0.57987 0.69418
 H201 H 0.03448 0.60853 0.73042
 H202 H 0.04250 0.54630 0.70970
 H203 H -0.07753 0.42850 0.70973
 H204 H -0.06804 0.36422 0.73054
 H205 H 0.06431 0.39978 0.69406
 H206 H 0.05538 0.46453 0.67340
 H207 H -0.06814 0.56703 0.60259
 C208 C 0.50623 0.51181 0.34490
 C209 C 0.50810 0.51186 0.32319
 C210 C 0.55295 0.55043 0.31103
 C211 C 0.46541 0.47320 0.31061
 C212 C 0.46658 0.46793 0.35732
 C213 C 0.54366 0.55560 0.35722
 C214 C 0.54685 0.57708 0.29365
 C215 C 0.58877 0.61291 0.28197
 C216 C 0.63717 0.62221 0.28743
 C217 C 0.64350 0.59541 0.30459
 C218 C 0.60161 0.55953 0.31627
 C219 C 0.41604 0.46409 0.31346
 C220 C 0.37613 0.42776 0.30155
 C221 C 0.38520 0.40051 0.28652
 C222 C 0.43437 0.40991 0.28339
 C223 C 0.47431 0.44620 0.29531
 C224 C 0.45802 0.41900 0.35433
 C225 C 0.42065 0.37794 0.36603
 C226 C 0.39180 0.38539 0.38099
 C227 C 0.40066 0.43411 0.38428
 C228 C 0.43798 0.47520 0.37257
 C229 C 0.56901 0.54815 0.37460
 C230 C 0.60396 0.58910 0.38635
 C231 C 0.61367 0.63786 0.38095
 C232 C 0.58810 0.64551 0.36381
 C233 C 0.55310 0.60459 0.35206
 H234 H 0.50967 0.57040 0.28926
 H235 H 0.58344 0.63336 0.26870
 H236 H 0.68076 0.60213 0.30888
 H237 H 0.60706 0.53866 0.32932
 H238 H 0.40850 0.48522 0.32487
 H239 H 0.33827 0.42095 0.30403
 H240 H 0.51210 0.45286 0.29277
 H241 H 0.48035 0.41269 0.34296
 H242 H 0.41428 0.34044 0.36343
 H243 H 0.37861 0.44031 0.39585
 H244 H 0.44419 0.51262 0.37521
 H245 H 0.56206 0.51068 0.37893
 H246 H 0.62346 0.58274 0.39961
 H247 H 0.59515 0.68305 0.35955
 H248 H 0.53321 0.61105 0.33900
 H249 H 0.44182 0.38911 0.27178
 C250 C -0.03765 0.15239 0.55342
 C251 C -0.04009 0.18373 0.56360
 C252 C -0.04112 0.22143 0.57549
 C253 C -0.04066 0.25435 0.58562
 C254 C -0.03875 0.29361 0.59744
 C255 C -0.03616 0.32762 0.60749
 C256 C 0.86653 0.83114 0.22056
 C257 C 0.83276 0.79786 0.23094
 C258 C 0.79246 0.75965 0.24304
 C259 C 0.75750 0.72758 0.25331
 C260 C 0.71603 0.69054 0.26527
 C261 C 0.68025 0.65926 0.27541
 C262 C 0.17215 0.01110 -0.11303
 C263 C 0.20702 0.01323 -0.10295
 C264 C 0.24715 0.01411 -0.09117
 C265 C 0.28088 0.01368 -0.08114
 C266 C 0.31983 0.01203 -0.06942
 C267 C 0.35270 0.00983 -0.05942
 C268 C 0.01684 0.85163 0.55273
 C269 C 0.01637 0.81740 0.56299
 C270 C 0.01444 0.77665 0.57499
 C271 C 0.01182 0.74138 0.58521
 C272 C 0.00783 0.69964 0.59715
 C273 C 0.00384 0.66373 0.60733
 C274 C 0.16761 0.18648 0.21999
 C275 C 0.19934 0.22060 0.23018
 C276 C 0.23742 0.25981 0.24212
 C277 C 0.27057 0.29273 0.25231
 C278 C 0.31001 0.33069 0.26423
 C279 C 0.34411 0.36270 0.27439
 C280 C 0.81818 -0.04343 -0.11382
 C281 C 0.78539 -0.04323 -0.10354
 C282 C 0.74778 -0.04142 -0.09155
 C283 C 0.71626 -0.03876 -0.08135
 C284 C 0.67992 -0.03453 -0.06946
 C285 C 0.64928 -0.03017 -0.05934
 C286 C 0.16746 -0.01812 0.11335
 C287 C 0.19920 -0.02051 0.10318
 C288 C 0.23727 -0.02167 0.09128
 C289 C 0.27042 -0.02147 0.08112
 C290 C 0.30985 -0.02003 0.06924
 C291 C 0.34393 -0.01800 0.05910
 C292 C 0.81943 0.86215 0.44741
 C293 C 0.78654 0.82916 0.43714
 C294 C 0.74882 0.78975 0.42515
 C295 C 0.71720 0.75556 0.41496
 C296 C 0.68075 0.71498 0.40307
 C297 C 0.65001 0.67998 0.39297
 C298 C 0.01700 0.16476 0.78040
 C299 C 0.01652 0.19851 0.77014
 C300 C 0.01457 0.23732 0.75814
 C301 C 0.01194 0.26996 0.74791
 C302 C 0.00793 0.30769 0.73597
 C303 C 0.00393 0.33960 0.72580
 C304 C 0.86642 0.03601 0.11284
 C305 C 0.83262 0.03549 0.10249
 C306 C 0.79227 0.03336 0.09043
 C307 C 0.75729 0.03046 0.08018
 C308 C 0.71579 0.02600 0.06826
 C309 C 0.67998 0.02149 0.05814
 C310 C 0.17209 0.16079 0.44626
 C311 C 0.20700 0.19363 0.43622
 C312 C 0.24719 0.23300 0.42450
 C313 C 0.28097 0.26725 0.41451
 C314 C 0.31998 0.30795 0.40284
 C315 C 0.35290 0.34310 0.39288
 C316 C -0.03751 0.80942 0.77970
 C317 C -0.03996 0.77564 0.76952
 C318 C -0.04101 0.73689 0.75763
 C319 C -0.04055 0.70444 0.74750
 C320 C -0.03865 0.66708 0.73569
 C321 C -0.03608 0.63565 0.72563
   
