data_POSCAR
  _audit_creation_date              2014-09-24
  _audit_creation_method            'ToBaCCo'
  _symmetry_space_group_name_H-M    'P1'
  _symmetry_Int_Tables_number       1
  _symmetry_cell_setting            triclinic
  loop_
  _symmetry_equiv_pos_as_xyz
 x,y,z
_cell_length_a 40.2161
_cell_length_b 39.8606
_cell_length_c 24.1779
_cell_angle_alpha 89.943300
_cell_angle_beta 89.964800
_cell_angle_gamma 121.473000
loop_
  _atom_site_label
  _atom_site_type_symbol
  _atom_site_fract_x
  _atom_site_fract_y
  _atom_site_fract_z
C1 C 0.44760 0.89499 0.49174
 C2 C 0.45157 0.91329 0.54325
 C3 C 0.46946 0.95470 0.54393
 C4 C 0.48631 0.97771 0.49586
 C5 C 0.48358 0.95810 0.44604
 C6 C 0.46299 0.91699 0.44320
 C7 C 0.50691 1.02194 0.49760
 C8 C 0.51108 1.04382 0.44927
 C9 C 0.53263 1.08540 0.44909
 C10 C 0.54663 1.10475 0.50015
 C11 C 0.54162 1.08382 0.54914
 C12 C 0.52306 1.04275 0.54721
 H13 H 0.43065 0.86327 0.48841
 H14 H 0.47158 0.96927 0.58236
 H15 H 0.49772 0.97437 0.40883
 H16 H 0.49880 1.02837 0.41116
 H17 H 0.55988 1.13630 0.50277
 H18 H 0.52204 1.02752 0.58475
 C19 C 0.10228 0.53804 0.50445
 C20 C 0.08158 0.52501 0.55473
 C21 C 0.04058 0.50592 0.55263
 C22 C 0.02062 0.50311 0.50318
 C23 C 0.04266 0.51788 0.45419
 C24 C 0.08310 0.53387 0.45421
 C25 C -0.02298 0.48457 0.50314
 C26 C -0.04512 0.46859 0.45447
 C27 C -0.08603 0.45152 0.45391
 C28 C -0.10487 0.44801 0.50478
 C29 C -0.08366 0.46269 0.55393
 C30 C -0.04292 0.48229 0.55225
 H31 H 0.13377 0.55357 0.50387
 H32 H 0.02404 0.49170 0.58951
 H33 H 0.02869 0.51668 0.41549
 H34 H -0.03080 0.46763 0.41731
 H35 H -0.13610 0.43477 0.50670
 H36 H -0.02710 0.49588 0.58987
 C37 C 0.45315 0.55686 0.49593
 C38 C 0.45730 0.54246 0.54712
 C39 C 0.47652 0.52119 0.54741
 C40 C 0.49426 0.51733 0.49933
 C41 C 0.49090 0.53389 0.44970
 C42 C 0.46932 0.55231 0.44727
 C43 C 0.51638 0.49637 0.50098
 C44 C 0.52163 0.47977 0.45263
 C45 C 0.54354 0.46154 0.45341
 C46 C 0.55802 0.45725 0.50390
 C47 C 0.55228 0.47230 0.55291
 C48 C 0.53270 0.49290 0.55078
 H49 H 0.43546 0.56993 0.49289
 H50 H 0.47898 0.50879 0.58561
 H51 H 0.50535 0.53314 0.41246
 H52 H 0.50923 0.48125 0.41378
 H53 H 0.57304 0.44126 0.50514
 H54 H 0.53104 0.50662 0.58831
 O55 O 0.39038 0.65515 -0.05297
 O56 O 0.38663 0.71735 -0.07173
 C57 C 0.36709 0.73329 -0.08147
 O58 O 0.33868 0.72793 -0.05182
 O59 O 0.27497 0.65934 -0.06225
 C60 C 0.25821 0.62267 -0.07053
 O61 O 0.26436 0.59978 -0.04168
 O62 O 0.32971 0.60344 -0.06144
 C63 C 0.36501 0.62346 -0.07636
 O64 O 0.39365 0.66964 0.05678
 O65 O 0.39286 0.73344 0.03792
 C66 C 0.36913 0.73785 0.06712
 O67 O 0.33265 0.71907 0.05918
 O68 O 0.26666 0.65249 0.04876
 C69 C 0.26310 0.62437 0.07801
 O70 O 0.28076 0.60652 0.06786
 O71 O 0.34475 0.60721 0.04818
 C72 C 0.37566 0.63391 0.07138
 Cr73 Cr 0.38872 0.69273 -0.00730
 Cr74 Cr 0.30434 0.68870 -0.00154
 Cr75 Cr 0.30595 0.60641 0.00307
 O76 O 0.33304 0.66259 -0.00190
 O77 O 0.60953 0.34821 -0.04837
 O78 O 0.60919 0.28373 -0.06716
 C79 C 0.62700 0.26600 -0.07702
 O80 O 0.65505 0.26999 -0.04791
 O81 O 0.72068 0.33670 -0.06005
 C82 C 0.73904 0.37344 -0.06874
 O83 O 0.73479 0.39752 -0.03972
 O84 O 0.67123 0.39783 -0.05787
 C85 C 0.63575 0.37938 -0.07203
 O86 O 0.60641 0.33383 0.06146
 O87 O 0.60318 0.26798 0.04272
 C88 C 0.62618 0.26223 0.07155
 O89 O 0.66251 0.27932 0.06279
 O90 O 0.73025 0.34370 0.05072
 C91 C 0.73552 0.37241 0.08009
 O92 O 0.71951 0.39191 0.07029
 O93 O 0.65749 0.39510 0.05204
 C94 C 0.62620 0.36954 0.07587
 Cr95 Cr 0.60924 0.30951 -0.00270
 Cr96 Cr 0.69112 0.30853 0.00138
 Cr97 Cr 0.69461 0.39341 0.00602
 O98 O 0.66495 0.33719 0.00154
 C99 C 0.42559 0.83232 -0.35463
 C100 C 0.41568 0.84593 -0.30809
 C101 C 0.41673 0.88149 -0.31071
 C102 C 0.42804 0.90361 -0.35961
 C103 C 0.43855 0.89053 -0.40722
 C104 C 0.43685 0.85419 -0.40352
 C105 C 0.40494 0.82334 -0.25772
 C106 C 0.39625 0.80365 -0.21628
 C107 C 0.38624 0.77981 -0.16860
 C108 C 0.37763 0.75886 -0.12850
 H109 H 0.42520 0.80495 -0.35293
 H110 H 0.40874 0.89215 -0.27495
 H111 H 0.42710 0.93022 -0.35996
 H112 H 0.44604 0.84312 -0.43731
 C113 C 0.15969 0.54744 -0.34106
 C114 C 0.14327 0.55216 -0.29302
 C115 C 0.10569 0.54579 -0.29455
 C116 C 0.08491 0.53570 -0.34422
 C117 C 0.10146 0.53203 -0.39389
 C118 C 0.13911 0.53744 -0.39089
 C119 C 0.16579 0.56542 -0.24290
 C120 C 0.18549 0.57752 -0.20176
 C121 C 0.20960 0.59261 -0.15469
 C122 C 0.23119 0.60610 -0.11557
 H123 H 0.18869 0.55195 -0.34020
 H124 H 0.09279 0.54966 -0.25760
 H125 H 0.05683 0.53323 -0.34369
 H126 H 0.15278 0.53325 -0.42654
 C127 C 0.42800 0.59225 -0.34918
 C128 C 0.41859 0.56760 -0.30332
 C129 C 0.42093 0.53392 -0.30703
 C130 C 0.43309 0.52512 -0.35628
 C131 C 0.44323 0.54997 -0.40316
 C132 C 0.44011 0.58364 -0.39843
 C133 C 0.40700 0.57746 -0.25251
 C134 C 0.39754 0.58681 -0.21073
 C135 C 0.38650 0.59883 -0.16280
 C136 C 0.37690 0.60979 -0.12278
 H137 H 0.42656 0.61861 -0.34663
 H138 H 0.41330 0.51437 -0.27184
 H139 H 0.43314 0.49805 -0.35750
 H140 H 0.44885 0.60482 -0.43165
 C141 C 0.60123 0.16291 -0.34480
 C142 C 0.57648 0.14896 -0.29877
 C143 C 0.54137 0.11265 -0.30144
 C144 C 0.53060 0.09079 -0.35040
 C145 C 0.55479 0.10512 -0.39739
 C146 C 0.59051 0.14115 -0.39378
 C147 C 0.58649 0.17276 -0.24972
 C148 C 0.59505 0.19338 -0.20936
 C149 C 0.60547 0.21820 -0.16279
 C150 C 0.61491 0.23984 -0.12345
 H151 H 0.62852 0.19093 -0.34315
 H152 H 0.52195 0.10162 -0.26608
 H153 H 0.50274 0.06337 -0.35213
 H154 H 0.60994 0.15269 -0.42905
 C155 C 0.84234 0.45088 -0.33793
 C156 C 0.85405 0.43793 -0.29228
 C157 C 0.88708 0.43488 -0.29617
 C158 C 0.90788 0.44396 -0.34580
 C159 C 0.89584 0.45615 -0.39234
 C160 C 0.86310 0.45998 -0.38767
 C161 C 0.83112 0.42588 -0.24238
 C162 C 0.81129 0.41486 -0.20120
 C163 C 0.78721 0.40105 -0.15386
 C164 C 0.76577 0.38867 -0.11436
 H165 H 0.81680 0.45334 -0.33535
 H166 H 0.89629 0.42468 -0.26119
 H167 H 0.93265 0.44024 -0.34831
 H168 H 0.85342 0.46976 -0.42253
 C169 C 0.61249 0.45762 -0.33984
 C170 C 0.58766 0.44551 -0.29389
 C171 C 0.55223 0.44414 -0.29715
 C172 C 0.54125 0.45399 -0.34654
 C173 C 0.56557 0.46523 -0.39341
 C174 C 0.60157 0.46745 -0.38928
 C175 C 0.59772 0.43271 -0.24439
 C176 C 0.60606 0.42119 -0.20366
 C177 C 0.61594 0.40701 -0.15685
 C178 C 0.62470 0.39451 -0.11767
 H179 H 0.64000 0.45882 -0.33776
 H180 H 0.53270 0.43464 -0.26191
 H181 H 0.51316 0.45152 -0.34863
 H182 H 0.62111 0.47645 -0.42443
 C183 C 0.88841 0.44634 0.30359
 C184 C 0.84863 0.41792 0.30439
 C185 C 0.83082 0.39917 0.35400
 C186 C 0.85237 0.40939 0.40297
 C187 C 0.89248 0.43889 0.40356
 C188 C 0.91018 0.45666 0.35244
 C189 C 0.82569 0.40873 0.25478
 C190 C 0.80585 0.40098 0.21388
 C191 C 0.78196 0.39164 0.16667
 C192 C 0.76103 0.38322 0.12687
 H193 H 0.90249 0.46122 0.26536
 H194 H 0.80007 0.37672 0.35498
 H195 H 0.83736 0.39315 0.43984
 H196 H 0.94038 0.48023 0.35002
 C197 C 0.52724 0.11273 0.30177
 C198 C 0.56128 0.14977 0.29815
 C199 C 0.58495 0.16600 0.34460
 C200 C 0.57510 0.14519 0.39436
 C201 C 0.54113 0.10728 0.39898
 C202 C 0.51718 0.09166 0.35154
 C203 C 0.57263 0.17126 0.24682
 C204 C 0.58346 0.19034 0.20481
 C205 C 0.59742 0.21399 0.15689
 C206 C 0.61020 0.23535 0.11718
 H207 H 0.50843 0.10006 0.26609
 H208 H 0.61156 0.19461 0.34215
 H209 H 0.59560 0.15837 0.42806
 H210 H 0.48995 0.06370 0.35259
 C211 C 0.59922 0.44346 0.34284
 C212 C 0.57078 0.42438 0.30202
 C213 C 0.53307 0.41692 0.31074
 C214 C 0.52392 0.42869 0.36010
 C215 C 0.55243 0.44799 0.40133
 C216 C 0.59016 0.45520 0.39210
 C217 C 0.58062 0.41248 0.25147
 C218 C 0.58993 0.40277 0.20987
 C219 C 0.60185 0.39149 0.16210
 C220 C 0.61270 0.38167 0.12219
 H221 H 0.62851 0.44944 0.33649
 H222 H 0.51079 0.40203 0.27947
 H223 H 0.49452 0.42238 0.36624
 H224 H 0.61289 0.47053 0.42265
 C225 C 0.15615 0.54795 0.34360
 C226 C 0.14935 0.56871 0.30306
 C227 C 0.12062 0.57801 0.31157
 C228 C 0.09885 0.56667 0.36062
 C229 C 0.10570 0.54598 0.40174
 C230 C 0.13451 0.53664 0.39253
 C231 C 0.17236 0.58070 0.25322
 C232 C 0.19235 0.59057 0.21219
 C233 C 0.21646 0.60210 0.16487
 C234 C 0.23754 0.61209 0.12498
 H235 H 0.17824 0.54051 0.33742
 H236 H 0.11520 0.59418 0.28050
 H237 H 0.07714 0.57459 0.36675
 H238 H 0.14006 0.52025 0.42305
 C239 C 0.44804 0.84198 0.33401
 C240 C 0.43627 0.85510 0.28863
 C241 C 0.43522 0.88954 0.29289
 C242 C 0.44506 0.91032 0.34272
 C243 C 0.45596 0.89681 0.38903
 C244 C 0.45786 0.86270 0.38389
 C245 C 0.42335 0.83208 0.23877
 C246 C 0.41167 0.81192 0.19786
 C247 C 0.39726 0.78727 0.15104
 C248 C 0.38453 0.76526 0.11209
 H249 H 0.44895 0.81535 0.33115
 H250 H 0.42597 0.89985 0.25811
 H251 H 0.44285 0.93620 0.34560
 H252 H 0.46657 0.85184 0.41862
 C253 C 0.45327 0.61192 0.33975
 C254 C 0.44240 0.58719 0.29363
 C255 C 0.44231 0.55209 0.29689
 C256 C 0.45220 0.54131 0.34642
 C257 C 0.46219 0.56549 0.39344
 C258 C 0.46314 0.60120 0.38933
 C259 C 0.42952 0.59695 0.24397
 C260 C 0.41792 0.60504 0.20313
 C261 C 0.40361 0.61463 0.15624
 C262 C 0.39098 0.62314 0.11701
 H263 H 0.45346 0.63918 0.33768
 H264 H 0.43377 0.53264 0.26152
 H265 H 0.45075 0.51343 0.34850
 H266 H 0.47115 0.62062 0.42462
   
