data_POSCAR
  _audit_creation_date              2014-09-24
  _audit_creation_method            'ToBaCCo'
  _symmetry_space_group_name_H-M    'P1'
  _symmetry_Int_Tables_number       1
  _symmetry_cell_setting            triclinic
  loop_
  _symmetry_equiv_pos_as_xyz
 x,y,z
_cell_length_a 49.3848
_cell_length_b 49.3857
_cell_length_c 8.9248
_cell_angle_alpha 90.000100
_cell_angle_beta 90.000200
_cell_angle_gamma 90.000000
loop_
  _atom_site_label
  _atom_site_type_symbol
  _atom_site_fract_x
  _atom_site_fract_y
  _atom_site_fract_z
O1 O 0.27207 0.27596 0.39833
 O2 O 0.22035 0.22317 0.34391
 O3 O 0.27215 0.22324 0.39810
 O4 O 0.22027 0.27588 0.34407
 O5 O 0.22837 0.27592 0.10110
 O6 O 0.28024 0.22328 0.15535
 O7 O 0.22845 0.22320 0.10093
 O8 O 0.28017 0.27599 0.15535
 Cu9 Cu 0.24536 0.24956 0.39520
 Cu10 Cu 0.25515 0.24960 0.10409
 C11 C 0.28499 0.28502 0.28592
 C12 C 0.21552 0.21413 0.21334
 C13 C 0.28515 0.21418 0.28582
 C14 C 0.21541 0.28493 0.21356
 O15 O 0.72055 0.27668 0.15497
 O16 O 0.77227 0.22389 0.10054
 O17 O 0.72047 0.22397 0.15477
 O18 O 0.77235 0.27662 0.10077
 O19 O 0.78044 0.27658 0.34352
 O20 O 0.72857 0.22393 0.39775
 O21 O 0.78037 0.22386 0.34352
 O22 O 0.72865 0.27665 0.39795
 Cu23 Cu 0.74557 0.25030 0.10366
 Cu24 Cu 0.75535 0.25025 0.39477
 C25 C 0.71572 0.28571 0.28555
 C26 C 0.78519 0.21482 0.21296
 C27 C 0.71561 0.21493 0.28529
 C28 C 0.78535 0.28568 0.21307
 O29 O 0.78013 0.72411 0.65632
 O30 O 0.72841 0.77690 0.60189
 O31 O 0.78021 0.77682 0.65625
 O32 O 0.72834 0.72418 0.60202
 O33 O 0.72024 0.72422 0.84500
 O34 O 0.77212 0.77686 0.89900
 O35 O 0.72031 0.77693 0.84487
 O36 O 0.77203 0.72414 0.89930
 Cu37 Cu 0.75512 0.75050 0.60503
 Cu38 Cu 0.74533 0.75055 0.89614
 C39 C 0.78495 0.71507 0.78689
 C40 C 0.71548 0.78596 0.71430
 C41 C 0.78513 0.78592 0.78670
 C42 C 0.71539 0.71517 0.71448
 O43 O 0.22776 0.72389 0.89934
 O44 O 0.27948 0.77668 0.84492
 O45 O 0.22767 0.77661 0.89906
 O46 O 0.27955 0.72397 0.84506
 O47 O 0.27145 0.72393 0.60208
 O48 O 0.21958 0.77657 0.65630
 O49 O 0.27138 0.77665 0.60194
 O50 O 0.21966 0.72386 0.65636
 Cu51 Cu 0.25446 0.75029 0.89619
 Cu52 Cu 0.24467 0.75025 0.60508
 C53 C 0.21483 0.71482 0.78692
 C54 C 0.28430 0.78571 0.71435
 C55 C 0.21466 0.78566 0.78676
 C56 C 0.28441 0.71492 0.71454
 O57 O 1.02634 -0.03062 0.09369
 O58 O 0.97370 0.02126 0.14787
 O59 O 0.97361 -0.03054 0.09369
 O60 O 1.02642 0.02117 0.14790
 O61 O 1.02643 0.02926 -0.09510
 O62 O 0.97362 -0.02246 -0.14931
 O63 O 0.97372 0.02935 -0.09513
 O64 O 1.02635 -0.02254 -0.14931
 Cu65 Cu 1.00001 -0.00553 0.14491
 Cu66 Cu 1.00003 0.00424 -0.14633
 C67 C 1.03537 -0.03548 -0.03685
 C68 C 0.96469 0.03421 0.03541
 C69 C 0.96457 -0.03538 -0.03684
 C70 C 1.03547 0.03409 0.03545
 O71 O 0.52633 0.53026 0.40624
 O72 O 0.47369 0.47839 0.35179
 O73 O 0.47362 0.53018 0.40624
 O74 O 0.52642 0.47847 0.35176
 O75 O 0.52643 0.47034 0.59472
 O76 O 0.47363 0.52205 0.64920
 O77 O 0.47371 0.47026 0.59474
 O78 O 0.52635 0.52213 0.64920
 Cu79 Cu 0.50001 0.50517 0.35489
 Cu80 Cu 0.50003 0.49535 0.64608
 C81 C 0.53536 0.53510 0.53681
 C82 C 0.46468 0.46542 0.46418
 C83 C 0.46458 0.53499 0.53680
 C84 C 0.53548 0.46553 0.46415
 O85 O -0.02658 0.52954 0.09511
 O86 O 0.02613 0.47774 0.14920
 O87 O 0.02613 0.52954 0.09510
 O88 O -0.02659 0.47773 0.14921
 O89 O -0.02659 0.46966 -0.09380
 O90 O 0.02613 0.52147 -0.14792
 O91 O 0.02613 0.46966 -0.09382
 O92 O -0.02659 0.52147 -0.14791
 Cu93 Cu -0.00023 0.50448 0.14628
 Cu94 Cu -0.00023 0.49472 -0.14498
 C95 C -0.03561 0.53441 -0.03543
 C96 C 0.03517 0.46481 0.03671
 C97 C 0.03516 0.53440 -0.03544
 C98 C -0.03563 0.46481 0.03673
 O99 O 0.52613 1.02232 0.35074
 O100 O 0.47341 0.97054 0.40531
 O101 O 0.47341 1.02233 0.35076
 O102 O 0.52613 0.97054 0.40530
 O103 O 0.52614 0.97869 0.64825
 O104 O 0.47341 1.03047 0.59370
 O105 O 0.47341 0.97868 0.64825
 O106 O 0.52613 1.03047 0.59369
 Cu107 Cu 0.49977 0.99558 0.35391
 Cu108 Cu 0.49977 1.00542 0.64509
 C109 C 0.53517 1.03528 0.46312
 C110 C 0.46437 0.96572 0.53588
 C111 C 0.46437 1.03528 0.46313
 C112 C 0.53518 0.96573 0.53587
 C113 C 1.15494 0.15269 0.15272
 C114 C 1.16906 0.16285 0.02892
 C115 C 1.18881 0.18283 0.04842
 C116 C 1.19467 0.19292 0.19229
 C117 C 1.18037 0.18255 0.31604
 C118 C 1.16064 0.16257 0.29622
 C119 C 1.13454 0.13220 0.13260
 C120 C 1.11741 0.11507 0.11591
 C121 C 1.09692 0.09468 0.09585
 C122 C 1.08677 0.08057 0.21969
 C123 C 1.06679 0.06081 0.20026
 C124 C 1.05669 0.05494 0.05641
 C125 C 1.06705 0.06925 -0.06737
 C126 C 1.08703 0.08897 -0.04762
 H127 H 1.16479 0.15534 -0.08269
 H128 H 1.19944 0.19038 -0.04912
 H129 H 1.18439 0.18986 0.42823
 H130 H 1.14982 0.15484 0.39281
 H131 H 1.09429 0.08484 0.33128
 H132 H 1.05924 0.05018 0.29782
 H133 H 1.05972 0.06522 -0.17955
 H134 H 1.09475 0.09979 -0.14424
 C135 C 0.65469 0.65383 0.65420
 C136 C 0.66040 0.66373 0.79764
 C137 C 0.68015 0.68369 0.81735
 C138 C 0.69449 0.69401 0.69355
 C139 C 0.68861 0.68389 0.54974
 C140 C 0.66883 0.66394 0.53035
 C141 C 0.63429 0.63334 0.63419
 C142 C 0.61716 0.61621 0.61753
 C143 C 0.59669 0.59580 0.59743
 C144 C 0.58657 0.58165 0.72122
 C145 C 0.56662 0.56187 0.70172
 C146 C 0.55653 0.55600 0.55786
 C147 C 0.56685 0.57034 0.43414
 C148 C 0.58680 0.59011 0.45396
 H149 H 0.64957 0.65604 0.89427
 H150 H 0.68419 0.69102 0.92950
 H151 H 0.69926 0.69141 0.45217
 H152 H 0.66456 0.65641 0.41879
 H153 H 0.59409 0.58592 0.83281
 H154 H 0.55911 0.55120 0.79924
 H155 H 0.55953 0.56632 0.32195
 H156 H 0.59449 0.60095 0.35737
 C157 C -0.15496 0.34607 0.15365
 C158 C -0.16922 0.33608 0.03003
 C159 C -0.18899 0.31611 0.04933
 C160 C -0.19481 0.30578 0.19317
 C161 C -0.18026 0.31607 0.31677
 C162 C -0.16053 0.33603 0.29689
 C163 C -0.13457 0.36656 0.13362
 C164 C -0.11746 0.38370 0.11699
 C165 C -0.09699 0.40412 0.09699
 C166 C -0.08711 0.40985 -0.04646
 C167 C -0.06715 0.42961 -0.06617
 C168 C -0.05681 0.44392 0.05765
 C169 C -0.06690 0.43802 0.20148
 C170 C -0.08686 0.41824 0.22086
 H171 H -0.16506 0.34372 -0.08142
 H172 H -0.19966 0.30881 -0.04872
 H173 H -0.18406 0.30874 0.42923
 H174 H -0.14959 0.34363 0.39337
 H175 H -0.09481 0.39903 -0.14311
 H176 H -0.05983 0.43366 -0.17833
 H177 H -0.05937 0.44866 0.29907
 H178 H -0.09437 0.41395 0.33244
 C179 C 0.34492 0.84713 0.65369
 C180 C 0.33079 0.83698 0.52990
 C181 C 0.31103 0.81700 0.54942
 C182 C 0.30516 0.80692 0.69330
 C183 C 0.31947 0.81729 0.81704
 C184 C 0.33921 0.83726 0.79720
 C185 C 0.36532 0.86761 0.63355
 C186 C 0.38246 0.88472 0.61681
 C187 C 0.40296 0.90511 0.59664
 C188 C 0.41285 0.91079 0.45315
 C189 C 0.43283 0.93052 0.43329
 C190 C 0.44318 0.94485 0.55698
 C191 C 0.43307 0.93901 0.70085
 C192 C 0.41310 0.91926 0.72040
 H193 H 0.33507 0.84448 0.41829
 H194 H 0.30039 0.80945 0.45189
 H195 H 0.31544 0.80998 0.92924
 H196 H 0.35003 0.84498 0.89379
 H197 H 0.40514 0.89995 0.35659
 H198 H 0.44015 0.93452 0.32109
 H199 H 0.44061 0.94967 0.79835
 H200 H 0.40558 0.91501 0.83200
 C201 C -0.15461 0.65347 -0.15259
 C202 C -0.16027 0.66339 -0.29605
 C203 C -0.17994 0.68343 -0.31584
 C204 C -0.19423 0.69382 -0.19208
 C205 C -0.18840 0.68371 -0.04823
 C206 C -0.16870 0.66366 -0.02877
 C207 C -0.13430 0.63290 -0.13251
 C208 C -0.11724 0.61570 -0.11585
 C209 C -0.09684 0.59522 -0.09579
 C210 C -0.08699 0.58946 0.04769
 C211 C -0.06709 0.56965 0.06743
 C212 C -0.05677 0.55532 -0.05637
 C213 C -0.06684 0.56124 -0.20022
 C214 C -0.08674 0.58107 -0.21964
 H215 H -0.14947 0.65564 -0.39266
 H216 H -0.18394 0.69076 -0.42802
 H217 H -0.19902 0.69127 0.04931
 H218 H -0.16446 0.65613 0.08282
 H219 H -0.09467 0.60030 0.14432
 H220 H -0.05978 0.56559 0.17961
 H221 H -0.05932 0.55059 -0.29779
 H222 H -0.09423 0.58539 -0.33124
 C223 C 0.34490 1.15386 0.34538
 C224 C 0.33933 1.16387 0.20212
 C225 C 0.31957 1.18381 0.18218
 C226 C 0.30500 1.19409 0.30575
 C227 C 0.31083 1.18377 0.44962
 C228 C 0.33062 1.16383 0.46897
 C229 C 0.36532 1.13339 0.36550
 C230 C 0.38246 1.11628 0.38222
 C231 C 0.40296 1.09590 0.40238
 C232 C 0.41310 1.08175 0.27862
 C233 C 0.43307 1.06200 0.29816
 C234 C 0.44318 1.05615 0.44203
 C235 C 0.43283 1.07049 0.56573
 C236 C 0.41285 1.09022 0.54587
 H237 H 0.35028 1.15628 0.10566
 H238 H 0.31577 1.19113 0.06970
 H239 H 0.30015 1.19108 0.54765
 H240 H 0.33480 1.15621 0.58044
 H241 H 0.40558 1.08600 0.16701
 H242 H 0.44061 1.05134 0.20066
 H243 H 0.44015 1.06648 0.67792
 H244 H 0.40514 1.10106 0.64243
 C245 C 1.15488 -0.15405 -0.15378
 C246 C 1.16916 -0.16401 -0.03017
 C247 C 1.18897 -0.18394 -0.04949
 C248 C 1.19480 -0.19425 -0.19333
 C249 C 1.18024 -0.18399 -0.31693
 C250 C 1.16046 -0.16406 -0.29703
 C251 C 1.13444 -0.13360 -0.13373
 C252 C 1.11729 -0.11649 -0.11710
 C253 C 1.09678 -0.09612 -0.09711
 C254 C 1.08664 -0.08200 -0.22097
 C255 C 1.06666 -0.06224 -0.20160
 C256 C 1.05655 -0.05637 -0.05778
 C257 C 1.06689 -0.07068 0.06602
 C258 C 1.08687 -0.09042 0.04632
 H259 H 1.16497 -0.15638 0.08129
 H260 H 1.19964 -0.19123 0.04856
 H261 H 1.18405 -0.19131 -0.42940
 H262 H 1.14951 -0.15648 -0.39351
 H263 H 1.09417 -0.08627 -0.33254
 H264 H 1.05914 -0.05160 -0.29918
 H265 H 1.05956 -0.06665 0.17818
 H266 H 1.09457 -0.10123 0.14297
 C267 C 0.65507 0.34709 0.34630
 C268 C 0.66921 0.33695 0.47007
 C269 C 0.68898 0.31699 0.45052
 C270 C 0.69486 0.30691 0.30663
 C271 C 0.68054 0.31728 0.18291
 C272 C 0.66079 0.33724 0.20278
 C273 C 0.63465 0.36755 0.36649
 C274 C 0.61750 0.38465 0.38325
 C275 C 0.59698 0.40501 0.40342
 C276 C 0.58682 0.41914 0.27966
 C277 C 0.56681 0.43887 0.29920
 C278 C 0.55670 0.44470 0.44307
 C279 C 0.56708 0.43038 0.56677
 C280 C 0.58708 0.41068 0.54692
 H281 H 0.66493 0.34444 0.58170
 H282 H 0.69963 0.30944 0.54804
 H283 H 0.68457 0.30998 0.07069
 H284 H 0.64996 0.34495 0.10621
 H285 H 0.59434 0.41490 0.16805
 H286 H 0.55926 0.44951 0.20169
 H287 H 0.55975 0.43438 0.67897
 H288 H 0.59481 0.39986 0.64348
 C289 C 0.84491 -0.15379 -0.15385
 C290 C 0.83933 -0.16381 -0.29710
 C291 C 0.81955 -0.18373 -0.31700
 C292 C 0.80499 -0.19400 -0.19339
 C293 C 0.81082 -0.18368 -0.04955
 C294 C 0.83063 -0.16375 -0.03024
 C295 C 0.86536 -0.13335 -0.13379
 C296 C 0.88252 -0.11626 -0.11715
 C297 C 0.90305 -0.09590 -0.09714
 C298 C 0.91321 -0.08180 -0.22100
 C299 C 0.93322 -0.06207 -0.20161
 C300 C 0.94334 -0.05621 -0.05779
 C301 C 0.93296 -0.07050 0.06602
 C302 C 0.91296 -0.09021 0.04630
 H303 H 0.85028 -0.15622 -0.39357
 H304 H 0.81574 -0.19105 -0.42946
 H305 H 0.80015 -0.19097 0.04850
 H306 H 0.83482 -0.15613 0.08123
 H307 H 0.90568 -0.08606 -0.33258
 H308 H 0.94077 -0.05145 -0.29919
 H309 H 0.94030 -0.06648 0.17818
 H310 H 0.90523 -0.10101 0.14295
 C311 C 0.34553 0.34652 0.34653
 C312 C 0.33142 0.33635 0.47032
 C313 C 0.31169 0.31635 0.45083
 C314 C 0.30583 0.30625 0.30696
 C315 C 0.32014 0.31663 0.18322
 C316 C 0.33984 0.33663 0.20304
 C317 C 0.36588 0.36705 0.36664
 C318 C 0.38298 0.38421 0.38336
 C319 C 0.40341 0.40465 0.40350
 C320 C 0.41329 0.41037 0.54699
 C321 C 0.43321 0.43015 0.56683
 C322 C 0.44353 0.44450 0.44311
 C323 C 0.43345 0.43863 0.29924
 C324 C 0.41352 0.41882 0.27972
 H325 H 0.33567 0.34387 0.58193
 H326 H 0.30105 0.30879 0.54836
 H327 H 0.31612 0.30930 0.07103
 H328 H 0.35066 0.34436 0.10644
 H329 H 0.40561 0.39951 0.64356
 H330 H 0.44053 0.43418 0.67902
 H331 H 0.44096 0.44930 0.20173
 H332 H 0.40601 0.41454 0.16812
 C333 C 0.15433 0.65330 -0.15253
 C334 C 0.16001 0.66320 -0.29600
 C335 C 0.17970 0.68321 -0.31580
 C336 C 0.19400 0.69359 -0.19204
 C337 C 0.18815 0.68349 -0.04818
 C338 C 0.16843 0.66347 -0.02871
 C339 C 0.13398 0.63276 -0.13245
 C340 C 0.11690 0.61559 -0.11579
 C341 C 0.09646 0.59514 -0.09575
 C342 C 0.08659 0.58939 0.04771
 C343 C 0.06666 0.56961 0.06744
 C344 C 0.05633 0.55529 -0.05637
 C345 C 0.06641 0.56120 -0.20021
 C346 C 0.08635 0.58100 -0.21961
 H347 H 0.14920 0.65546 -0.39261
 H348 H 0.18371 0.69054 -0.42798
 H349 H 0.19878 0.69105 0.04936
 H350 H 0.16418 0.65595 0.08288
 H351 H 0.09428 0.60022 0.14435
 H352 H 0.05935 0.56556 0.17961
 H353 H 0.05889 0.55056 -0.29779
 H354 H 0.09385 0.58531 -0.33120
 C355 C 0.65481 1.15369 0.34561
 C356 C 0.66055 1.16357 0.20216
 C357 C 0.68034 1.18348 0.18243
 C358 C 0.69469 1.19379 0.30622
 C359 C 0.68879 1.18369 0.45005
 C360 C 0.66897 1.16378 0.46945
 C361 C 0.63436 1.13326 0.36565
 C362 C 0.61718 1.11618 0.38232
 C363 C 0.59665 1.09583 0.40243
 C364 C 0.58650 1.08170 0.27866
 C365 C 0.56649 1.06197 0.29817
 C366 C 0.55638 1.05613 0.44203
 C367 C 0.56674 1.07046 0.56574
 C368 C 0.58674 1.09017 0.54590
 H369 H 0.64970 1.15590 0.10553
 H370 H 0.68439 1.19080 0.07027
 H371 H 0.69945 1.19119 0.54762
 H372 H 0.66468 1.15627 0.58103
 H373 H 0.59403 1.08593 0.16707
 H374 H 0.55895 1.05131 0.20066
 H375 H 0.55940 1.06646 0.67792
 H376 H 0.59446 1.10100 0.64248
 C377 C 0.15468 0.34624 0.15334
 C378 C 0.16040 0.33634 0.29677
 C379 C 0.18017 0.31640 0.31645
 C380 C 0.19451 0.30609 0.19264
 C381 C 0.18862 0.31619 0.04883
 C382 C 0.16882 0.33614 0.02947
 C383 C 0.13425 0.36670 0.13337
 C384 C 0.11710 0.38381 0.11680
 C385 C 0.09660 0.40419 0.09685
 C386 C 0.08670 0.40991 -0.04658
 C387 C 0.06672 0.42964 -0.06624
 C388 C 0.05637 0.44394 0.05760
 C389 C 0.06648 0.43806 0.20140
 C390 C 0.08646 0.41830 0.22074
 H391 H 0.14957 0.34402 0.39341
 H392 H 0.18421 0.30907 0.42860
 H393 H 0.19927 0.30869 -0.04875
 H394 H 0.16453 0.34366 -0.08209
 H395 H 0.09440 0.39910 -0.14325
 H396 H 0.05938 0.43368 -0.17839
 H397 H 0.05895 0.44869 0.29901
 H398 H 0.09399 0.41402 0.33230
 C399 C 0.65480 0.84731 0.65359
 C400 C 0.66053 0.83745 0.79711
 C401 C 0.68029 0.81751 0.81696
 C402 C 0.69461 0.80715 0.69323
 C403 C 0.68872 0.81722 0.54934
 C404 C 0.66894 0.83717 0.52981
 C405 C 0.63436 0.86775 0.63343
 C406 C 0.61719 0.88484 0.61669
 C407 C 0.59667 0.90519 0.59656
 C408 C 0.58651 0.91932 0.72033
 C409 C 0.56651 0.93905 0.70081
 C410 C 0.55639 0.94488 0.55695
 C411 C 0.56675 0.93055 0.43325
 C412 C 0.58675 0.91085 0.45308
 H413 H 0.64969 0.84516 0.89369
 H414 H 0.68433 0.81021 0.92918
 H415 H 0.69937 0.80968 0.45182
 H416 H 0.66465 0.84466 0.41818
 H417 H 0.59405 0.91509 0.83192
 H418 H 0.55896 0.94970 0.79832
 H419 H 0.55941 0.93455 0.32106
 H420 H 0.59447 0.90002 0.35651
 C421 C 0.84567 0.15326 0.15248
 C422 C 0.83157 0.16344 0.02865
 C423 C 0.81187 0.18347 0.04809
 C424 C 0.80602 0.19359 0.19194
 C425 C 0.82031 0.18320 0.31571
 C426 C 0.83999 0.16317 0.29594
 C427 C 0.86600 0.13271 0.13243
 C428 C 0.88306 0.11552 0.11579
 C429 C 0.90347 0.09504 0.09576
 C430 C 0.91334 0.08929 -0.04770
 C431 C 0.93324 0.06948 -0.06743
 C432 C 0.94355 0.05514 0.05636
 C433 C 0.93347 0.06106 0.20020
 C434 C 0.91357 0.08089 0.21961
 H435 H 0.83582 0.15591 -0.08293
 H436 H 0.80124 0.19104 -0.04946
 H437 H 0.81630 0.19053 0.42789
 H438 H 0.85079 0.15543 0.39256
 H439 H 0.90567 0.10013 -0.14434
 H440 H 0.94055 0.06542 -0.17961
 H441 H 0.94097 0.05040 0.29777
 H442 H 0.90607 0.08520 0.33120
 C443 C 0.34510 0.65357 0.65427
 C444 C 0.33939 0.66347 0.79771
 C445 C 0.31963 0.68343 0.81741
 C446 C 0.30530 0.69375 0.69362
 C447 C 0.31118 0.68364 0.54980
 C448 C 0.33096 0.66368 0.53042
 C449 C 0.36551 0.63310 0.63426
 C450 C 0.38265 0.61597 0.61759
 C451 C 0.40314 0.59559 0.59747
 C452 C 0.41328 0.58145 0.72125
 C453 C 0.43326 0.56170 0.70174
 C454 C 0.44336 0.55584 0.55787
 C455 C 0.43300 0.57017 0.43415
 C456 C 0.41303 0.58990 0.45398
 H457 H 0.35022 0.65579 0.89434
 H458 H 0.31560 0.69076 0.92957
 H459 H 0.30053 0.69115 0.45223
 H460 H 0.33524 0.65616 0.41886
 H461 H 0.40577 0.58571 0.83286
 H462 H 0.44081 0.55105 0.79926
 H463 H 0.44033 0.56615 0.32195
 H464 H 0.40531 0.60072 0.35740
   
