data_POSCAR
  _audit_creation_date              2014-09-24
  _audit_creation_method            'ToBaCCo'
  _symmetry_space_group_name_H-M    'P1'
  _symmetry_Int_Tables_number       1
  _symmetry_cell_setting            triclinic
  loop_
  _symmetry_equiv_pos_as_xyz
 x,y,z
_cell_length_a 25.8318
_cell_length_b 40.9588
_cell_length_c 32.9908
_cell_angle_alpha 89.999900
_cell_angle_beta 89.999500
_cell_angle_gamma 90.242900
loop_
  _atom_site_label
  _atom_site_type_symbol
  _atom_site_fract_x
  _atom_site_fract_y
  _atom_site_fract_z
O1 O 0.25394 0.28128 0.19760
 O2 O 0.31361 0.21779 0.26112
 O3 O 0.25384 0.21769 0.19754
 O4 O 0.31367 0.28136 0.26119
 O5 O 0.24471 0.28118 0.30092
 O6 O 0.18489 0.21751 0.23727
 O7 O 0.24466 0.21761 0.30085
 O8 O 0.18498 0.28110 0.23733
 Cu9 Cu 0.29072 0.24955 0.22535
 Cu10 Cu 0.20784 0.24933 0.27310
 C11 C 0.20940 0.29192 0.20676
 C12 C 0.28922 0.20699 0.29171
 C13 C 0.20927 0.20684 0.20667
 C14 C 0.28929 0.29201 0.29181
 O15 O 0.81361 0.28151 0.23826
 O16 O 0.75376 0.21787 0.30194
 O17 O 0.81355 0.21793 0.23838
 O18 O 0.75388 0.28146 0.30185
 O19 O 0.68493 0.28127 0.26212
 O20 O 0.74460 0.21774 0.19864
 O21 O 0.68481 0.21768 0.26221
 O22 O 0.74466 0.28132 0.19852
 Cu23 Cu 0.79065 0.24971 0.27412
 Cu24 Cu 0.70779 0.24948 0.22636
 C25 C 0.78923 0.29216 0.20765
 C26 C 0.70918 0.20703 0.29283
 C27 C 0.78916 0.20712 0.20779
 C28 C 0.70934 0.29209 0.29269
 O29 O 0.81508 0.71912 0.76224
 O30 O 0.75545 0.78264 0.69875
 O31 O 0.81515 0.78270 0.76237
 O32 O 0.75536 0.71906 0.69864
 O33 O 0.68638 0.71886 0.73835
 O34 O 0.74617 0.78250 0.80207
 O35 O 0.68647 0.78244 0.73845
 O36 O 0.74610 0.71891 0.80195
 Cu37 Cu 0.79222 0.75090 0.72649
 Cu38 Cu 0.70932 0.75066 0.77421
 C39 C 0.79065 0.70829 0.79281
 C40 C 0.71089 0.79326 0.70788
 C41 C 0.79076 0.79334 0.79299
 C42 C 0.71078 0.70822 0.70775
 O43 O 0.18561 0.78125 0.76260
 O44 O 0.24525 0.71775 0.69906
 O45 O 0.18553 0.71766 0.76267
 O46 O 0.24535 0.78133 0.69900
 O47 O 0.31432 0.78150 0.73872
 O48 O 0.25449 0.71783 0.80239
 O49 O 0.31422 0.71792 0.73878
 O50 O 0.25458 0.78142 0.80232
 Cu51 Cu 0.20847 0.74948 0.72683
 Cu52 Cu 0.29136 0.74968 0.77456
 C53 C 0.21004 0.79205 0.79317
 C54 C 0.28980 0.70712 0.70820
 C55 C 0.20991 0.70700 0.79328
 C56 C 0.28994 0.79215 0.70812
 C57 C 1.02716 0.02297 0.02342
 C58 C 0.97261 0.02289 0.02330
 C59 C 0.94560 -0.00024 0.00016
 C60 C 0.97263 -0.02330 -0.02285
 C61 C 1.02718 -0.02324 -0.02271
 C62 C 1.05419 -0.00010 0.00042
 H63 H 1.09618 -0.00004 0.00051
 H64 H 0.90361 -0.00030 0.00006
 C65 C 0.52721 0.52313 0.52311
 C66 C 0.47266 0.52299 0.52319
 C67 C 0.44558 0.49984 0.50013
 C68 C 0.47255 0.47682 0.47702
 C69 C 0.52710 0.47694 0.47697
 C70 C 0.55418 0.50010 0.50002
 H71 H 0.59617 0.50020 0.49998
 H72 H 0.40359 0.49974 0.50017
 C73 C -0.02713 0.47706 0.02281
 C74 C 0.02742 0.47702 0.02270
 C75 C 0.05457 0.50014 -0.00037
 C76 C 0.02766 0.52329 -0.02332
 C77 C -0.02688 0.52332 -0.02322
 C78 C -0.05403 0.50021 -0.00016
 H79 H -0.09602 0.50024 -0.00007
 H80 H 0.09655 0.50011 -0.00045
 C81 C 0.47305 0.97710 0.52299
 C82 C 0.52760 0.97733 0.52305
 C83 C 0.55457 1.00049 0.49993
 C84 C 0.52749 1.02343 0.47676
 C85 C 0.47294 1.02320 0.47670
 C86 C 0.44598 1.00003 0.49982
 H87 H 0.40399 0.99986 0.49978
 H88 H 0.59656 1.00067 0.49997
 C89 C 1.14368 0.13714 0.13718
 C90 C 1.09089 0.14695 0.11974
 C91 C 1.06866 0.12339 0.09627
 C92 C 1.10138 0.09232 0.09255
 C93 C 1.11132 0.08144 0.13637
 C94 C 1.13358 0.10501 0.15984
 C95 C 1.17642 0.12758 0.10023
 C96 C 1.15417 0.10400 0.07675
 C97 C 1.16761 0.16252 0.16245
 C98 C 1.18723 0.18337 0.18324
 C99 C 1.07704 0.06707 0.06740
 C100 C 1.05547 0.04669 0.04709
 H101 H 1.07254 0.17031 0.12539
 H102 H 1.03126 0.12658 0.08180
 H103 H 1.10167 0.05737 0.14797
 H104 H 1.14301 0.10112 0.19154
 H105 H 1.21379 0.13837 0.09313
 H106 H 1.17246 0.09459 0.04955
 C107 C 0.64390 0.63727 0.63684
 C108 C 0.62800 0.64937 0.59461
 C109 C 0.60571 0.62583 0.57113
 C110 C 0.60154 0.59249 0.59216
 C111 C 0.57203 0.59917 0.63168
 C112 C 0.59429 0.62272 0.65516
 C113 C 0.67920 0.60788 0.62894
 C114 C 0.65692 0.58433 0.60544
 C115 C 0.66786 0.66261 0.66213
 C116 C 0.68749 0.68344 0.68295
 C117 C 0.57717 0.56726 0.56700
 C118 C 0.55557 0.54688 0.54672
 H119 H 0.63363 0.67425 0.58411
 H120 H 0.59223 0.63054 0.54052
 H121 H 0.53661 0.58663 0.64036
 H122 H 0.57797 0.63032 0.68397
 H123 H 0.71827 0.60576 0.64076
 H124 H 0.67688 0.56204 0.59712
 C125 C -0.14389 0.36308 0.13670
 C126 C -0.09110 0.35324 0.11929
 C127 C -0.06886 0.37677 0.09577
 C128 C -0.10156 0.40783 0.09198
 C129 C -0.11151 0.41878 0.13578
 C130 C -0.13379 0.39525 0.15929
 C131 C -0.17661 0.37260 0.09972
 C132 C -0.15435 0.39614 0.07619
 C133 C -0.16784 0.33775 0.16203
 C134 C -0.18746 0.31693 0.18286
 C135 C -0.07719 0.43305 0.06679
 C136 C -0.05556 0.45338 0.04647
 H137 H -0.07276 0.32989 0.12499
 H138 H -0.03145 0.37355 0.08131
 H139 H -0.10186 0.44287 0.14732
 H140 H -0.14323 0.39919 0.19098
 H141 H -0.21399 0.36180 0.09263
 H142 H -0.17263 0.40551 0.04897
 C143 C 0.35677 0.86306 0.63711
 C144 C 0.40973 0.87468 0.65269
 C145 C 0.43191 0.89820 0.62913
 C146 C 0.39899 0.90779 0.59229
 C147 C 0.34637 0.91771 0.60990
 C148 C 0.32417 0.89418 0.63347
 C149 C 0.36651 0.85213 0.59326
 C150 C 0.38873 0.87565 0.56970
 C151 C 0.33287 0.83774 0.66247
 C152 C 0.31325 0.81692 0.68332
 C153 C 0.42327 0.93300 0.56704
 C154 C 0.44479 0.95336 0.54669
 H155 H 0.42822 0.86522 0.67978
 H156 H 0.46942 0.90890 0.63606
 H157 H 0.32816 0.94113 0.60435
 H158 H 0.28692 0.89745 0.64813
 H159 H 0.35690 0.82802 0.58176
 H160 H 0.39816 0.87169 0.53801
 C161 C -0.14278 0.63740 -0.13656
 C162 C -0.17548 0.62775 -0.09955
 C163 C -0.15336 0.60421 -0.07614
 C164 C -0.10072 0.59263 -0.09205
 C165 C -0.06775 0.62377 -0.09581
 C166 C -0.08986 0.64730 -0.11922
 C167 C -0.13304 0.60530 -0.15927
 C168 C -0.11090 0.58176 -0.13587
 C169 C -0.16660 0.66274 -0.16176
 C170 C -0.18613 0.68355 -0.18250
 C171 C -0.07653 0.56741 -0.06699
 C172 C -0.05507 0.54704 -0.04677
 H173 H -0.21274 0.63847 -0.09236
 H174 H -0.17164 0.59475 -0.04891
 H175 H -0.03027 0.62702 -0.08142
 H176 H -0.07132 0.67070 -0.12488
 H177 H -0.14259 0.60141 -0.19096
 H178 H -0.10148 0.55772 -0.14751
 C179 C 0.35614 1.13642 0.36263
 C180 C 0.32358 1.12687 0.39976
 C181 C 0.34589 1.10348 0.42329
 C182 C 0.39855 1.09194 0.40738
 C183 C 0.43135 1.12313 0.40335
 C184 C 0.40906 1.14651 0.37982
 C185 C 0.36600 1.10423 0.34013
 C186 C 0.38831 1.08085 0.36366
 C187 C 0.33215 1.16160 0.33730
 C188 C 0.31251 1.18232 0.31648
 C189 C 0.42295 1.06689 0.43260
 C190 C 0.44457 1.04670 0.45296
 H191 H 0.28629 1.13755 0.40693
 H192 H 0.32772 1.09411 0.45062
 H193 H 0.46884 1.12652 0.41768
 H194 H 0.42746 1.16992 0.37397
 H195 H 0.35637 1.10018 0.30848
 H196 H 0.39781 1.05677 0.35218
 C197 C 1.14343 -0.13711 -0.13614
 C198 C 1.17592 -0.12764 -0.09894
 C199 C 1.15376 -0.10412 -0.07552
 C200 C 1.10129 -0.09239 -0.09159
 C201 C 1.06819 -0.12345 -0.09563
 C202 C 1.09033 -0.14695 -0.11905
 C203 C 1.13399 -0.10491 -0.15873
 C204 C 1.11182 -0.08141 -0.13531
 C205 C 1.16727 -0.16242 -0.16136
 C206 C 1.18682 -0.18321 -0.18211
 C207 C 1.07703 -0.06720 -0.06651
 C208 C 1.05550 -0.04688 -0.04627
 H209 H 1.21308 -0.13845 -0.09165
 H210 H 1.17190 -0.09478 -0.04817
 H211 H 1.03061 -0.12667 -0.08139
 H212 H 1.07172 -0.17030 -0.12490
 H213 H 1.14379 -0.10095 -0.19036
 H214 H 1.10261 -0.05730 -0.14687
 C215 C 0.64288 0.36300 0.36336
 C216 C 0.58983 0.35319 0.38055
 C217 C 0.56779 0.37672 0.40399
 C218 C 0.60094 0.40777 0.40794
 C219 C 0.61134 0.41872 0.36418
 C220 C 0.63342 0.39518 0.34075
 C221 C 0.67550 0.37248 0.40048
 C222 C 0.65344 0.39602 0.42393
 C223 C 0.66663 0.33766 0.33813
 C224 C 0.68613 0.31684 0.31738
 C225 C 0.57679 0.43298 0.43305
 C226 C 0.55534 0.45331 0.45333
 H227 H 0.57117 0.32985 0.37476
 H228 H 0.53024 0.37353 0.41829
 H229 H 0.60213 0.44282 0.35262
 H230 H 0.64312 0.39912 0.30910
 H231 H 0.71266 0.36165 0.40772
 H232 H 0.67168 0.40537 0.45123
 C233 C 0.85630 -0.13716 -0.13721
 C234 C 0.90944 -0.12571 -0.15258
 C235 C 0.93163 -0.10221 -0.12897
 C236 C 0.89851 -0.09249 -0.09229
 C237 C 0.88786 -0.12457 -0.06969
 C238 C 0.86565 -0.14806 -0.09330
 C239 C 0.82389 -0.10594 -0.13378
 C240 C 0.84609 -0.08244 -0.11015
 C241 C 0.83241 -0.16245 -0.16263
 C242 C 0.81280 -0.18324 -0.18352
 C243 C 0.92279 -0.06731 -0.06699
 C244 C 0.94433 -0.04699 -0.04659
 H245 H 0.92806 -0.13525 -0.17957
 H246 H 0.96925 -0.09162 -0.13576
 H247 H 0.89702 -0.12851 -0.03795
 H248 H 0.85577 -0.17213 -0.08179
 H249 H 0.78677 -0.10259 -0.14860
 H250 H 0.82800 -0.05897 -0.10473
 C251 C 0.35610 0.36288 0.36286
 C252 C 0.40904 0.37452 0.34728
 C253 C 0.43123 0.39803 0.37086
 C254 C 0.39832 0.40759 0.40773
 C255 C 0.38809 0.37542 0.43027
 C256 C 0.36586 0.35192 0.40669
 C257 C 0.32348 0.39400 0.36655
 C258 C 0.34569 0.41751 0.39015
 C259 C 0.33220 0.33758 0.33747
 C260 C 0.31259 0.31677 0.31661
 C261 C 0.42262 0.43277 0.43299
 C262 C 0.44419 0.45311 0.45335
 H263 H 0.42753 0.36509 0.32017
 H264 H 0.46873 0.40874 0.36393
 H265 H 0.39752 0.37144 0.46196
 H266 H 0.35626 0.32780 0.41817
 H267 H 0.28622 0.39728 0.35191
 H268 H 0.32747 0.44092 0.39574
 C269 C 0.14432 0.63736 -0.13715
 C270 C 0.17663 0.60607 -0.13395
 C271 C 0.15439 0.58252 -0.11043
 C272 C 0.10204 0.59257 -0.09245
 C273 C 0.06889 0.60249 -0.12903
 C274 C 0.09111 0.62604 -0.15252
 C275 C 0.13511 0.64810 -0.09317
 C276 C 0.11285 0.62456 -0.06967
 C277 C 0.16825 0.66270 -0.16246
 C278 C 0.18787 0.68354 -0.18328
 C279 C 0.07770 0.56734 -0.06727
 C280 C 0.05609 0.54699 -0.04696
 H281 H 0.21371 0.60272 -0.14884
 H282 H 0.17240 0.55900 -0.10517
 H283 H 0.03121 0.59198 -0.13583
 H284 H 0.07247 0.63571 -0.17944
 H285 H 0.14510 0.67211 -0.08153
 H286 H 0.10377 0.62839 -0.03790
 C287 C 0.64368 1.13745 0.36255
 C288 C 0.67627 1.10632 0.36614
 C289 C 0.65410 1.08279 0.38973
 C290 C 0.60152 1.09272 0.40741
 C291 C 0.56853 1.10232 0.37060
 C292 C 0.59069 1.12584 0.34703
 C293 C 0.63403 1.14837 0.40641
 C294 C 0.61184 1.12485 0.42999
 C295 C 0.66754 1.16277 0.33716
 C296 C 0.68713 1.18359 0.31629
 C297 C 0.57726 1.06751 0.43268
 C298 C 0.55575 1.04716 0.45305
 H299 H 0.71350 1.10304 0.35144
 H300 H 0.67230 1.05937 0.39526
 H301 H 0.53101 1.09162 0.36371
 H302 H 0.57215 1.13530 0.31996
 H303 H 0.64369 1.17248 0.41791
 H304 H 0.60249 1.12881 0.46169
 C305 C 0.14301 0.36286 0.13610
 C306 C 0.13299 0.35203 0.09224
 C307 C 0.11095 0.37559 0.06882
 C308 C 0.10113 0.40767 0.09155
 C309 C 0.15392 0.41759 0.10908
 C310 C 0.17595 0.39403 0.13251
 C311 C 0.09024 0.37439 0.15184
 C312 C 0.06823 0.39795 0.12843
 C313 C 0.16673 0.33750 0.16132
 C314 C 0.18621 0.31668 0.18206
 C315 C 0.07701 0.43291 0.06646
 C316 C 0.05560 0.45329 0.04623
 H317 H 0.14231 0.32796 0.08062
 H318 H 0.10137 0.37171 0.03713
 H319 H 0.17237 0.44104 0.10357
 H320 H 0.21329 0.39730 0.14709
 H321 H 0.07175 0.36485 0.17894
 H322 H 0.03087 0.40861 0.13549
 C323 C 0.64413 0.86393 0.63703
 C324 C 0.63433 0.89611 0.65957
 C325 C 0.61209 0.91953 0.63606
 C326 C 0.60186 0.90849 0.59232
 C327 C 0.56899 0.87733 0.59629
 C328 C 0.59120 0.85391 0.61980
 C329 C 0.67674 0.87348 0.59993
 C330 C 0.65450 0.89692 0.57641
 C331 C 0.66804 0.83871 0.66234
 C332 C 0.68764 0.81796 0.68314
 C333 C 0.57754 0.93359 0.56712
 C334 C 0.55596 0.95381 0.54677
 H335 H 0.64394 0.90012 0.69122
 H336 H 0.60263 0.94361 0.64757
 H337 H 0.53149 0.87399 0.58195
 H338 H 0.57274 0.83051 0.62561
 H339 H 0.71401 0.86278 0.59276
 H340 H 0.67271 0.90630 0.54911
 C341 C 0.85600 0.13645 0.13699
 C342 C 0.86535 0.14726 0.09303
 C343 C 0.88763 0.12382 0.06955
 C344 C 0.89833 0.09188 0.09232
 C345 C 0.84592 0.08158 0.11022
 C346 C 0.82365 0.10501 0.13371
 C347 C 0.90916 0.12537 0.15244
 C348 C 0.93140 0.10194 0.12897
 C349 C 0.83205 0.16167 0.16227
 C350 C 0.81243 0.18242 0.18306
 C351 C 0.92269 0.06677 0.06717
 C352 C 0.94428 0.04651 0.04689
 H353 H 0.85542 0.17122 0.08138
 H354 H 0.89679 0.12771 0.03779
 H355 H 0.82789 0.05797 0.10491
 H356 H 0.78653 0.10148 0.14854
 H357 H 0.92773 0.13512 0.17939
 H358 H 0.96904 0.09160 0.13583
 C359 C 0.35647 0.63646 0.63727
 C360 C 0.36063 0.60313 0.65826
 C361 C 0.38281 0.57970 0.63471
 C362 C 0.39862 0.59191 0.59248
 C363 C 0.43405 0.62143 0.60040
 C364 C 0.41190 0.64484 0.62395
 C365 C 0.32691 0.62972 0.59774
 C366 C 0.34908 0.60628 0.57419
 C367 C 0.33261 0.66169 0.66261
 C368 C 0.31304 0.68243 0.68344
 C369 C 0.42288 0.56681 0.56725
 C370 C 0.44439 0.54656 0.54690
 H371 H 0.34737 0.59835 0.68893
 H372 H 0.38855 0.55486 0.64520
 H373 H 0.47309 0.62374 0.58851
 H374 H 0.43199 0.66719 0.63229
 H375 H 0.29167 0.64224 0.58902
 H376 H 0.33285 0.59873 0.54530
   
