data_POSCAR
  _audit_creation_date              2014-09-24
  _audit_creation_method            'ToBaCCo'
  _symmetry_space_group_name_H-M    'P1'
  _symmetry_Int_Tables_number       1
  _symmetry_cell_setting            triclinic
  loop_
  _symmetry_equiv_pos_as_xyz
 x,y,z
_cell_length_a 29.8724
_cell_length_b 28.9699
_cell_length_c 30.8783
_cell_angle_alpha 90.565800
_cell_angle_beta 87.746600
_cell_angle_gamma 91.097400
loop_
  _atom_site_label
  _atom_site_type_symbol
  _atom_site_fract_x
  _atom_site_fract_y
  _atom_site_fract_z
N1 N 0.18962 1.26581 0.17420
 N2 N 0.16508 1.27084 0.21036
 C3 C 0.13498 1.30407 0.20505
 C4 C 0.14051 1.32067 0.16320
 C5 C 0.17541 1.29551 0.14461
 H6 H 0.11021 1.31427 0.22957
 H7 H 0.18960 1.29896 0.11201
 Cu8 Cu 0.17119 1.23173 0.26122
 Cu9 Cu 0.23995 1.22246 0.16868
 Cu10 Cu 0.25807 1.16074 0.25817
 N11 N 0.17235 1.17784 0.29821
 N12 N 0.20724 1.15095 0.29841
 C13 C 0.19891 1.11648 0.32675
 C14 C 0.15604 1.12183 0.34483
 C15 C 0.14037 1.16132 0.32605
 H16 H 0.22159 1.08860 0.33196
 H17 H 0.10782 1.17654 0.33164
 N18 N 0.29655 1.15582 0.20647
 N19 N 0.28833 1.17824 0.17093
 C20 C 0.31774 1.16516 0.13919
 C21 C 0.34582 1.13283 0.15579
 C22 C 0.33138 1.12781 0.19867
 H23 H 0.31820 1.17756 0.10624
 H24 H 0.34377 1.10413 0.22203
 H25 H 0.19902 1.18955 0.21454
 H26 H 0.23646 1.23729 0.23338
 N27 N 0.79425 0.69879 0.16276
 N28 N 0.82979 0.70870 0.18510
 C29 C 0.86297 0.68013 0.17247
 C30 C 0.84736 0.65088 0.14045
 C31 C 0.80349 0.66371 0.13521
 H32 H 0.89636 0.68126 0.18484
 H33 H 0.78052 0.65018 0.11184
 Cu34 Cu 0.83037 0.75877 0.22788
 Cu35 Cu 0.74102 0.73588 0.16760
 Cu36 Cu 0.73666 0.82767 0.23413
 N37 N 0.82348 0.81079 0.26939
 N38 N 0.78721 0.83613 0.27253
 C39 C 0.79195 0.86789 0.30424
 C40 C 0.83341 0.86238 0.32196
 C41 C 0.85241 0.82588 0.29899
 H42 H 0.76722 0.89341 0.31311
 H43 H 0.88490 0.81132 0.30371
 N44 N 0.69967 0.82256 0.18370
 N45 N 0.70004 0.78572 0.15853
 C46 C 0.67157 0.79148 0.12637
 C47 C 0.65259 0.83448 0.13159
 C48 C 0.67116 0.85323 0.16831
 H49 H 0.66675 0.76716 0.10009
 H50 H 0.66499 0.88700 0.18233
 H51 H 0.78614 0.79904 0.19580
 H52 H 0.76262 0.76143 0.24011
 N53 N 0.82580 1.29936 -0.16950
 N54 N 0.85424 1.29955 -0.20304
 C55 C 0.88906 1.32805 -0.19469
 C56 C 0.88204 1.34640 -0.15348
 C57 C 0.84157 1.32748 -0.13847
 H58 H 0.91808 1.33339 -0.21624
 H59 H 0.82514 1.33317 -0.10707
 Cu60 Cu 0.84486 1.25944 -0.25271
 Cu61 Cu 0.77084 1.26219 -0.16885
 Cu62 Cu 0.77499 1.16774 -0.23883
 N63 N 0.84768 1.20640 -0.29130
 N64 N 0.82116 1.17010 -0.28541
 C65 C 0.83253 1.13745 -0.31499
 C66 C 0.86842 1.15408 -0.34052
 C67 C 0.87695 1.19817 -0.32453
 H68 H 0.81665 1.10367 -0.31710
 H69 H 0.90323 1.22214 -0.33505
 N70 N 0.73054 1.17308 -0.18992
 N71 N 0.72804 1.20996 -0.16452
 C72 C 0.69457 1.20371 -0.13460
 C73 C 0.67512 1.16068 -0.14127
 C74 C 0.69880 1.14217 -0.17651
 H75 H 0.68630 1.22794 -0.10879
 H76 H 0.69347 1.10844 -0.19093
 H77 H 0.80864 1.21135 -0.19727
 H78 H 0.76691 1.23730 -0.23266
 N79 N 0.17250 0.74092 -0.15959
 N80 N 0.13931 0.74473 -0.18626
 C81 C 0.10756 0.71252 -0.17626
 C82 C 0.12134 0.68733 -0.14151
 C83 C 0.16269 0.70617 -0.13193
 H84 H 0.07651 0.70814 -0.19276
 H85 H 0.18353 0.69589 -0.10598
 Cu86 Cu 0.13878 0.79218 -0.23156
 Cu87 Cu 0.22532 0.78301 -0.16067
 Cu88 Cu 0.22989 0.86055 -0.24095
 N89 N 0.14794 0.83481 -0.27968
 N90 N 0.18306 0.86279 -0.28293
 C91 C 0.17828 0.89146 -0.31646
 C92 C 0.13794 0.88072 -0.33533
 C93 C 0.11986 0.84428 -0.31128
 H94 H 0.20187 0.91870 -0.32565
 H95 H 0.08766 0.82739 -0.31523
 N96 N 0.27668 0.85830 -0.19903
 N97 N 0.27427 0.82832 -0.16727
 C98 C 0.30847 0.83642 -0.14094
 C99 C 0.33388 0.87315 -0.15725
 C100 C 0.31278 0.88617 -0.19419
 H101 H 0.31371 0.81795 -0.11135
 H102 H 0.32173 0.91524 -0.21464
 H103 H 0.17931 0.82476 -0.18658
 H104 H 0.20609 0.78190 -0.22440
 C105 C 0.50716 0.99797 -0.00748
 C106 C 0.02150 0.49264 1.01346
 C107 C 0.98307 -0.01613 0.49311
 C108 C 0.10014 0.39468 1.07899
 C109 C 0.06766 0.42042 1.10199
 N110 N 0.05987 0.41279 1.14492
 C111 C 0.08305 0.38049 1.16599
 C112 C 0.11599 0.35464 1.14311
 N113 N 0.12363 0.36277 1.10002
 N114 N 0.10698 0.40120 1.03580
 C115 C 0.08287 0.43249 1.01452
 C116 C 0.05081 0.45938 1.03753
 N117 N 0.04384 0.45204 1.08088
 H118 H 0.07582 0.37555 1.20021
 H119 H 0.08848 0.43642 0.97990
 C120 C -0.05659 0.58297 1.09635
 C121 C -0.07690 0.55550 1.06481
 N122 N -0.12153 0.55861 1.05921
 C123 C -0.14687 0.58831 1.08357
 C124 C -0.12663 0.61652 1.11491
 N125 N -0.08180 0.61287 1.12061
 N126 N -0.01182 0.58004 1.10152
 C127 C 0.01359 0.55090 1.07646
 C128 C -0.00660 0.52303 1.04463
 N129 N -0.05158 0.52669 1.03969
 H130 H -0.18232 0.58991 1.07813
 H131 H 0.04929 0.54980 1.08093
 C132 C -0.06460 0.40478 0.93902
 C133 C -0.03176 0.43280 0.91815
 N134 N -0.02727 0.43188 0.87421
 C135 C -0.05428 0.40424 0.85019
 C136 C -0.08771 0.37667 0.87104
 N137 N -0.09194 0.37774 0.91508
 N138 N -0.06837 0.40466 0.98289
 C139 C -0.04115 0.43182 1.00695
 C140 C -0.00914 0.46161 0.98635
 N141 N -0.00494 0.46048 0.94215
 H142 H -0.05006 0.40432 0.81524
 H143 H -0.04472 0.43069 1.04195
 C144 C 0.09558 0.59417 0.93784
 C145 C 0.05121 0.58223 0.92895
 N146 N 0.03062 0.60408 0.89678
 C147 C 0.05242 0.63752 0.87309
 C148 C 0.09687 0.65001 0.88218
 N149 N 0.11730 0.62780 0.91449
 N150 N 0.11596 0.57265 0.97030
 C151 C 0.09409 0.53942 0.99417
 C152 C 0.04950 0.52653 0.98507
 N153 N 0.02920 0.54939 0.95297
 H154 H 0.03489 0.65439 0.84789
 H155 H 0.11115 0.52421 1.02060
 C156 C 1.06226 0.07310 0.40884
 C157 C 1.08205 0.03606 0.42921
 N158 N 1.12622 0.02788 0.42122
 C159 C 1.15154 0.05514 0.39377
 C160 C 1.13189 0.09286 0.37369
 N161 N 1.08756 0.10070 0.38205
 N162 N 1.01782 0.08028 0.41528
 C163 C 0.99225 0.05245 0.44177
 C164 C 1.01213 0.01633 0.46418
 N165 N 1.05668 0.00862 0.45629
 H166 H 1.18661 0.04753 0.38824
 H167 H 0.95667 0.05853 0.44552
 C168 C 1.05552 -0.09187 0.58551
 C169 C 1.07368 -0.05118 0.56741
 N170 N 1.11369 -0.03453 0.58067
 C171 C 1.13625 -0.05654 0.61160
 C172 C 1.11753 -0.09682 0.63086
 N173 N 1.07755 -0.11343 0.61689
 N174 N 1.01564 -0.10863 0.57219
 C175 C 0.99288 -0.08639 0.54164
 C176 C 1.01063 -0.04509 0.52335
 N177 N 1.05063 -0.02847 0.53746
 H178 H 1.16787 -0.04195 0.62145
 H179 H 0.96083 -0.10041 0.53233
 C180 C 0.91644 -0.09768 0.39767
 C181 C 0.89389 -0.06203 0.41985
 N182 N 0.85145 -0.05210 0.40938
 C183 C 0.83051 -0.07615 0.37768
 C184 C 0.85305 -0.11207 0.35526
 N185 N 0.89558 -0.12179 0.36619
 N186 N 0.95920 -0.10697 0.40721
 C187 C 0.98054 -0.08228 0.43808
 C188 C 0.95796 -0.04685 0.46121
 N189 N 0.91510 -0.03735 0.45086
 H190 H 0.79672 -0.06713 0.37034
 H191 H 1.01504 -0.08981 0.44425
 C192 C 0.90242 0.06143 0.58508
 C193 C 0.94029 0.08128 0.56399
 N194 N 0.95309 0.12510 0.57397
 C195 C 0.92987 0.15011 0.60442
 C196 C 0.89212 0.13020 0.62648
 N197 N 0.87933 0.08615 0.61588
 N198 N 0.88996 0.01740 0.57511
 C199 C 0.91377 -0.00772 0.54501
 C200 C 0.95200 0.01206 0.52351
 N201 N 0.96426 0.05615 0.53438
 H202 H 0.94142 0.18485 0.61143
 H203 H 0.90334 -0.04295 0.53845
 C204 C 0.41568 1.08516 0.06440
 C205 C 0.44323 1.05490 0.08579
 N206 N 0.43946 1.05144 0.12955
 C207 C 0.40905 1.07665 0.15300
 C208 C 0.38083 1.10665 0.13170
 N209 N 0.38515 1.11029 0.08775
 N210 N 0.41905 1.08798 0.02054
 C211 C 0.44869 1.06175 -0.00293
 C212 C 0.47663 1.03121 0.01832
 N213 N 0.47261 1.02861 0.06241
 H214 H 0.40692 1.07295 0.18782
 H215 H 0.45000 1.06403 -0.03792
 C216 C 0.60194 1.06842 -0.09277
 C217 C 0.57500 1.09332 -0.06294
 N218 N 0.58056 1.13981 -0.05972
 C219 C 0.61209 1.16254 -0.08482
 C220 C 0.63935 1.13766 -0.11465
 N221 N 0.63329 1.09107 -0.11796
 N222 N 0.59723 1.02184 -0.09522
 C223 C 0.56676 0.99894 -0.06916
 C224 C 0.53910 1.02367 -0.03936
 N225 N 0.54442 1.07052 -0.03698
 H226 H 0.61570 1.19960 -0.08146
 H227 H 0.56438 0.96166 -0.07123
 C228 C 0.41062 0.91389 -0.07277
 C229 C 0.43895 0.94475 -0.09600
 N230 N 0.43346 0.95064 -0.13900
 C231 C 0.40055 0.92739 -0.15980
 C232 C 0.37172 0.89677 -0.13655
 N233 N 0.37781 0.89055 -0.09352
 N234 N 0.41508 0.90926 -0.02950
 C235 C 0.44652 0.93425 -0.00829
 C236 C 0.47544 0.96520 -0.03138
 N237 N 0.47038 0.96965 -0.07488
 H238 H 0.39689 0.93296 -0.19406
 H239 H 0.44829 0.93090 0.02647
 C240 C 0.59320 0.92724 0.07701
 C241 C 0.56669 0.90220 0.04815
 N242 N 0.56879 0.85542 0.04683
 C243 C 0.59617 0.83255 0.07317
 C244 C 0.62232 0.85758 0.10254
 N245 N 0.62004 0.90445 0.10365
 N246 N 0.59219 0.97398 0.07756
 C247 C 0.56542 0.99693 0.05089
 C248 C 0.53731 0.97212 0.02283
 N249 N 0.53943 0.92508 0.02185
 H250 H 0.59709 0.79526 0.07149
 H251 H 0.56568 1.03430 0.05173
   
