data_POSCAR
  _audit_creation_date              2014-09-24
  _audit_creation_method            'ToBaCCo'
  _symmetry_space_group_name_H-M    'P1'
  _symmetry_Int_Tables_number       1
  _symmetry_cell_setting            triclinic
  loop_
  _symmetry_equiv_pos_as_xyz
 x,y,z
_cell_length_a 23.2597
_cell_length_b 22.3640
_cell_length_c 23.1995
_cell_angle_alpha 91.343200
_cell_angle_beta 88.494900
_cell_angle_gamma 90.283700
loop_
  _atom_site_label
  _atom_site_type_symbol
  _atom_site_fract_x
  _atom_site_fract_y
  _atom_site_fract_z
C1 C 0.27028 0.33992 1.31780
 C2 C 0.29778 0.31850 1.36637
 C3 C 0.35220 0.29141 1.36145
 C4 C 0.38083 0.28992 1.30758
 C5 C 0.35674 0.31702 1.25988
 C6 C 0.30089 0.34047 1.26460
 H7 H 0.27421 0.31810 1.40718
 H8 H 0.42347 0.27068 1.30352
 H9 H 0.28209 0.35970 1.22709
 C10 C 1.22306 0.64954 0.86634
 C11 C 1.18274 0.69656 0.87090
 C12 C 1.14147 0.70394 0.82863
 C13 C 1.14023 0.66353 0.78166
 C14 C 1.17909 0.61607 0.77630
 C15 C 1.22140 0.61009 0.81802
 H16 H 1.18329 0.72804 0.90696
 H17 H 1.10888 0.66882 0.74863
 H18 H 1.25131 0.57320 0.81434
 C19 C 0.70593 -0.17269 0.14334
 C20 C 0.66266 -0.21639 0.13771
 C21 C 0.61651 -0.22038 0.17787
 C22 C 0.61395 -0.17907 0.22481
 C23 C 0.65801 -0.13644 0.23228
 C24 C 0.70344 -0.13350 0.19141
 H25 H 0.66452 -0.24788 0.10175
 H26 H 0.57945 -0.18119 0.25689
 H27 H 0.73659 -0.09975 0.19681
 C28 C -0.21644 1.17650 -0.35829
 C29 C -0.17361 1.21876 -0.37067
 C30 C -0.12444 1.22368 -0.33671
 C31 C -0.11873 1.18449 -0.29014
 C32 C -0.16098 1.14100 -0.27844
 C33 C -0.20974 1.13789 -0.31268
 H34 H -0.17921 1.24833 -0.40642
 H35 H -0.08121 1.18634 -0.26362
 H36 H -0.24399 1.10653 -0.30301
 C37 C 0.72998 0.67530 0.62768
 C38 C 0.68343 0.71071 0.61145
 C39 C 0.63248 0.71342 0.64489
 C40 C 0.62800 0.68106 0.69590
 C41 C 0.67463 0.64753 0.71444
 C42 C 0.72524 0.64407 0.67955
 H43 H 0.68550 0.73493 0.57166
 H44 H 0.58905 0.68412 0.72245
 H45 H 0.76098 0.61718 0.69267
 C46 C 0.80098 0.35435 0.11732
 C47 C 0.80878 0.39769 0.16134
 C48 C 0.84652 0.38732 0.20666
 C49 C 0.87449 0.33180 0.20878
 C50 C 0.86810 0.28828 0.16448
 C51 C 0.83191 0.30064 0.11880
 H52 H 0.78550 0.43939 0.16009
 H53 H 0.90346 0.32408 0.24353
 H54 H 0.82581 0.26667 0.08560
 C55 C 0.27582 0.15913 0.88126
 C56 C 0.30840 0.21252 0.87817
 C57 C 0.35290 0.21843 0.83680
 C58 C 0.36629 0.17051 0.79930
 C59 C 0.33632 0.11606 0.80305
 C60 C 0.29150 0.11054 0.84444
 H61 H 0.29867 0.25048 0.90639
 H62 H 0.40057 0.17582 0.76725
 H63 H 0.26722 0.06924 0.84647
 C64 C 0.22069 0.89308 0.34360
 C65 C 0.21218 0.84431 0.37997
 C66 C 0.17407 0.79777 0.36554
 C67 C 0.14394 0.80023 0.31412
 C68 C 0.15113 0.84916 0.27798
 C69 C 0.18799 0.89606 0.29354
 H70 H 0.23593 0.84219 0.41936
 H71 H 0.11602 0.76354 0.30144
 H72 H 0.19373 0.93236 0.26395
 Zn73 Zn -0.01749 1.06643 -0.01776
 Zn74 Zn -0.05462 0.94273 -0.04562
 Zn75 Zn 0.06399 0.96259 -0.00843
 Zn76 Zn -0.03560 0.97837 0.07615
 O77 O -0.01062 0.98781 0.00128
 O78 O -0.06122 1.07814 -0.08060
 O79 O -0.01603 0.88873 -0.08748
 O80 O 0.11235 1.02326 -0.02589
 O81 O -0.08994 0.98498 -0.09640
 O82 O 0.05149 1.09900 -0.03254
 O83 O 0.07397 0.90528 -0.06353
 O84 O 0.01591 0.94003 0.11752
 O85 O -0.10931 0.90335 -0.00862
 O86 O 0.08870 0.92733 0.05466
 O87 O -0.10046 0.93370 0.08216
 O88 O -0.05033 1.04822 0.11303
 O89 O -0.04699 1.11167 0.04088
 C90 C -0.08994 1.03960 -0.10909
 C91 C 0.03692 0.87681 -0.09254
 C92 C 0.10224 1.07818 -0.03430
 C93 C 0.06503 0.91900 0.10374
 C94 C -0.12601 0.90315 0.04366
 C95 C -0.05578 1.10054 0.09386
 Zn96 Zn 0.49003 0.07794 0.55400
 Zn97 Zn 0.57090 -0.01354 0.52203
 Zn98 Zn 0.44723 -0.04084 0.52930
 Zn99 Zn 0.49386 0.03987 0.43812
 O100 O 0.50069 0.01401 0.51015
 O101 O 0.55523 0.11768 0.56391
 O102 O 0.56756 -0.08022 0.56434
 O103 O 0.41127 -0.02138 0.59699
 O104 O 0.61703 0.04259 0.55436
 O105 O 0.45833 0.06139 0.62198
 O106 O 0.48016 -0.11209 0.54096
 O107 O 0.42846 0.01389 0.40972
 O108 O 0.60505 -0.03366 0.45466
 O109 O 0.39254 -0.04784 0.47531
 O110 O 0.55006 0.00998 0.39074
 O111 O 0.48712 0.12109 0.43523
 O112 O 0.44357 0.12750 0.52084
 C113 C 0.60596 0.09746 0.56535
 C114 C 0.52887 -0.12082 0.56330
 C115 C 0.42127 0.02111 0.63280
 C116 C 0.38905 -0.02078 0.42780
 C117 C 0.59303 -0.02207 0.40296
 C118 C 0.45330 0.14825 0.47117
 Zn119 Zn 0.98877 0.43347 0.45987
 Zn120 Zn 1.08931 0.50138 0.49448
 Zn121 Zn 0.98864 0.56215 0.44847
 Zn122 Zn 0.98998 0.51336 0.56460
 O123 O 1.01306 0.50273 0.49121
 O124 O 1.04436 0.40109 0.41273
 O125 O 1.11809 0.57214 0.47625
 O126 O 0.95939 0.53342 0.38187
 O127 O 1.12105 0.44983 0.44426
 O128 O 0.92968 0.44497 0.41276
 O129 O 1.04523 0.61568 0.43364
 O130 O 0.92800 0.56211 0.57262
 O131 O 1.11406 0.48629 0.56496
 O132 O 0.93136 0.60176 0.48562
 O133 O 1.04778 0.54303 0.60794
 O134 O 0.97264 0.44231 0.59364
 O135 O 0.96917 0.38134 0.51613
 C136 C 1.09797 0.41263 0.40989
 C137 C 1.09711 0.61576 0.44994
 C138 C 0.92962 0.48578 0.37534
 C139 C 0.90842 0.59765 0.53583
 C140 C 1.09726 0.51884 0.60758
 C141 C 0.96639 0.39054 0.57071
 Zn142 Zn 0.52007 0.41816 0.99176
 Zn143 Zn 0.45438 0.51880 1.04639
 Zn144 Zn 0.57557 0.53027 1.00786
 Zn145 Zn 0.48490 0.51571 0.91961
 O146 O 0.50736 0.49692 0.99129
 O147 O 0.49214 0.38645 1.05582
 O148 O 0.48052 0.57752 1.09384
 O149 O 0.62386 0.47767 1.03909
 O150 O 0.43264 0.45635 1.09119
 O151 O 0.59528 0.40049 0.98626
 O152 O 0.56873 0.59199 1.05797
 O153 O 0.54258 0.55052 0.87815
 O154 O 0.39270 0.55156 1.01444
 O155 O 0.61088 0.55658 0.94346
 O156 O 0.42256 0.56285 0.92320
 O157 O 0.46128 0.45106 0.87850
 O158 O 0.48421 0.37814 0.93631
 C159 C 0.45367 0.40383 1.09210
 C160 C 0.52781 0.60633 1.09286
 C161 C 0.63270 0.42575 1.01757
 C162 C 0.59395 0.56303 0.89223
 C163 C 0.38558 0.57119 0.96400
 C164 C 0.46056 0.39621 0.89148
 C165 C 1.21284 0.35880 0.32409
 C166 C 1.17427 0.36574 0.28029
 C167 C 1.12350 0.38192 0.30738
 C168 C 1.13520 0.38462 0.36529
 O169 O 1.18894 0.37078 0.37541
 H170 H 1.18161 0.35913 0.23435
 H171 H 1.08380 0.39361 0.28720
 C172 C 0.26340 0.64048 0.90964
 C173 C 0.26147 0.66649 0.96455
 C174 C 0.30649 0.64282 0.99255
 C175 C 0.33340 0.60519 0.95274
 O176 O 0.30749 0.60336 0.90264
 H177 H 0.23021 0.69738 0.98327
 H178 H 0.31866 0.65228 1.03655
 C179 C -0.24927 0.83276 0.10173
 C180 C -0.24418 0.79977 0.05044
 C181 C -0.19687 0.82172 0.02264
 C182 C -0.17598 0.86599 0.05867
 O183 O -0.20735 0.87291 0.10662
 H184 H -0.27171 0.76481 0.03364
 H185 H -0.17985 0.80753 -0.01933
 C186 C 0.73015 0.17308 0.60915
 C187 C 0.70249 0.22156 0.58699
 C188 C 0.65168 0.19944 0.56754
 C189 C 0.65268 0.13915 0.57867
 O190 O 0.70006 0.12299 0.60392
 H191 H 0.71646 0.26779 0.58733
 H192 H 0.61775 0.22423 0.54795
 C193 C 0.37650 0.26393 0.40885
 C194 C 0.35935 0.27404 0.46583
 C195 C 0.38941 0.23457 0.49649
 C196 C 0.42261 0.20282 0.45647
 O197 O 0.41567 0.22100 0.40326
 H198 H 0.32835 0.30582 0.48351
 H199 H 0.38556 0.22779 0.54248
 C200 C 0.91671 0.26816 0.65058
 C201 C 0.96241 0.28465 0.68473
 C202 C 0.98749 0.33226 0.65834
 C203 C 0.95640 0.34061 0.60953
 O204 O 0.91352 0.30217 0.60460
 H205 H 0.97498 0.26648 0.72527
 H206 H 1.02363 0.35849 0.67328
 C207 C 0.09860 0.75270 -0.16526
 C208 C 0.04877 0.75607 -0.19638
 C209 C 0.02020 0.80458 -0.17434
 C210 C 0.05452 0.82760 -0.13171
 O211 O 0.10204 0.79638 -0.12590
 H212 H 0.03334 0.72582 -0.22960
 H213 H -0.02156 0.82032 -0.18665
 C214 C 0.57540 0.73377 1.16977
 C215 C 0.52545 0.72443 1.20226
 C216 C 0.49991 0.67509 1.17768
 C217 C 0.53624 0.65773 1.13251
 O218 O 0.58153 0.69305 1.12770
 H219 H 0.50893 0.75025 1.23900
 H220 H 0.45987 0.65419 1.19119
 C221 C 0.39128 0.32257 1.20610
 C222 C 0.42877 0.27927 1.18502
 C223 C 0.45618 0.30402 1.13895
 C224 C 0.43379 0.36083 1.13543
 O225 O 0.39401 0.37224 1.17599
 H226 H 0.43589 0.23528 1.20187
 H227 H 0.48940 0.28350 1.11169
 C228 C 0.65839 -0.09660 0.28406
 C229 C 0.70783 -0.07862 0.31145
 C230 C 0.68956 -0.04679 0.35907
 C231 C 0.63050 -0.04670 0.35671
 O232 O 0.61121 -0.07731 0.31162
 H233 H 0.75188 -0.08955 0.29947
 H234 H 0.71595 -0.02701 0.39226
 C235 C -0.15446 1.09802 -0.23133
 C236 C -0.18475 1.04478 -0.22789
 C237 C -0.16544 1.01781 -0.18064
 C238 C -0.12464 1.05601 -0.15826
 O239 O -0.11750 1.10489 -0.18891
 H240 H -0.21592 1.02624 -0.25716
 H241 H -0.17850 0.97442 -0.16506
 C242 C 1.17256 0.57282 0.72748
 C243 C 1.21186 0.52977 0.70928
 C244 C 1.18828 0.50248 0.66213
 C245 C 1.13630 0.53054 0.65536
 O246 O 1.12675 0.57302 0.69474
 H247 H 1.25323 0.52016 0.72705
 H248 H 1.20714 0.46711 0.63530
 C249 C 0.78270 0.67012 0.58996
 C250 C 0.79569 0.70734 0.54455
 C251 C 0.84461 0.68516 0.51921
 C252 C 0.85877 0.63633 0.55091
 O253 O 0.82153 0.62707 0.59416
 H254 H 0.77249 0.74604 0.53082
 H255 H 0.86726 0.70239 0.48173
 C256 C 0.75887 0.36376 1.07117
 C257 C 0.75516 0.32895 1.02120
 C258 C 0.70775 0.34836 0.99433
 C259 C 0.68621 0.39409 1.02905
 O260 O 0.71710 0.40393 1.07556
 H261 H 0.78291 0.29298 1.00595
 H262 H 0.69058 0.33096 0.95437
 C263 C 0.22632 1.15458 -0.08265
 C264 C 0.20057 1.20138 -0.05149
 C265 C 0.15083 1.17844 -0.02876
 C266 C 0.15013 1.11931 -0.04647
 O267 O 0.19561 1.10455 -0.07894
 H268 H 0.21426 1.24750 -0.04752
 H269 H 0.11845 1.20215 -0.00297
 C270 C 0.26448 -0.06526 0.35553
 C271 C 0.27853 -0.01586 0.32291
 C272 C 0.32670 0.00758 0.34657
 C273 C 0.33856 -0.02864 0.39194
 O274 O 0.30085 -0.07242 0.39792
 H275 H 0.25761 0.00105 0.28563
 H276 H 0.35085 0.04613 0.33201
 C277 C 0.58456 -0.24909 0.62624
 C278 C 0.52705 -0.26376 0.63221
 C279 C 0.49828 -0.21813 0.60782
 C280 C 0.54034 -0.17868 0.58952
 O281 O 0.59272 -0.19741 0.60044
 H282 H 0.50844 -0.30333 0.65128
 H283 H 0.45218 -0.21357 0.60467
 C284 C 1.16794 0.74510 0.40242
 C285 C 1.20905 0.72630 0.43987
 C286 C 1.18744 0.67537 0.46289
 C287 C 1.13475 0.66691 0.43807
 O288 O 1.12274 0.70892 0.40121
 H289 H 1.25057 0.74612 0.44836
 H290 H 1.20784 0.64735 0.49374
 C291 C -0.10315 1.23297 0.16428
 C292 C -0.07615 1.20825 0.21057
 C293 C -0.05642 1.15388 0.19086
 C294 C -0.07163 1.14991 0.13391
 O295 O -0.09994 1.19742 0.11776
 H296 H -0.07231 1.22643 0.25391
 H297 H -0.03270 1.12158 0.21471
 C298 C 0.38473 0.27526 0.83198
 C299 C 0.39394 0.30553 0.78136
 C300 C 0.42335 0.35623 0.79672
 C301 C 0.43077 0.35214 0.85523
 O302 O 0.40712 0.30336 0.87678
 H303 H 0.37996 0.29260 0.73870
 H304 H 0.43812 0.39149 0.76873
 C305 C 0.67060 0.61869 0.77138
 C306 C 0.71711 0.60669 0.80500
 C307 C 0.69430 0.58491 0.85501
 C308 C 0.63556 0.58473 0.84833
 O309 O 0.62095 0.60532 0.79771
 H310 H 0.76220 0.61446 0.79510
 H311 H 0.71769 0.57070 0.89197
 C312 C 0.35083 0.06748 0.76077
 C313 C 0.32445 0.01200 0.75602
 C314 C 0.34881 -0.01478 0.70778
 C315 C 0.38824 0.02618 0.68718
 O316 O 0.38957 0.07559 0.71910
 H317 H 0.29050 -0.00642 0.78302
 H318 H 0.33797 -0.05800 0.68901
 C319 C 0.12602 0.84892 0.22058
 C320 C 0.13204 0.80232 0.18094
 C321 C 0.11131 0.82346 0.13101
 C322 C 0.09363 0.88095 0.14437
 O323 O 0.10258 0.89678 0.19857
 H324 H 0.15142 0.75913 0.18718
 H325 H 0.10876 0.79978 0.08992
 C326 C 0.85967 0.43476 0.25046
 C327 C 0.85258 0.49543 0.24300
 C328 C 0.87670 0.52277 0.28974
 C329 C 0.89614 0.47701 0.32275
 O330 O 0.88607 0.42367 0.29906
 H331 H 0.83470 0.51747 0.20658
 H332 H 0.88093 0.57038 0.29810
   
