data_POSCAR
  _audit_creation_date              2014-09-24
  _audit_creation_method            'ToBaCCo'
  _symmetry_space_group_name_H-M    'P1'
  _symmetry_Int_Tables_number       1
  _symmetry_cell_setting            triclinic
  loop_
  _symmetry_equiv_pos_as_xyz
 x,y,z
_cell_length_a 18.4081
_cell_length_b 18.4081
_cell_length_c 31.4977
_cell_angle_alpha 89.863800
_cell_angle_beta 90.136400
_cell_angle_gamma 90.000300
loop_
  _atom_site_label
  _atom_site_type_symbol
  _atom_site_fract_x
  _atom_site_fract_y
  _atom_site_fract_z
O1 O 0.05950 0.42818 0.95928
 O2 O 0.05961 0.56973 1.04174
 O3 O 0.05961 0.42795 1.04184
 O4 O 0.05950 0.56986 0.95919
 O5 O -0.06064 0.56986 0.95908
 O6 O -0.06052 0.42795 1.04173
 O7 O -0.06053 0.56973 1.04163
 O8 O -0.06064 0.42818 0.95916
 Cu9 Cu 0.07167 0.49892 1.00054
 Cu10 Cu -0.07270 0.49892 1.00040
 C11 C -0.00059 0.40409 0.94542
 C12 C -0.00044 0.59389 1.05544
 C13 C -0.00044 0.40372 1.05559
 C14 C -0.00059 0.59403 0.94532
 O15 O 0.57209 -0.05956 0.54184
 O16 O 0.43018 -0.05946 0.45919
 O17 O 0.57186 -0.05946 0.45928
 O18 O 0.43032 -0.05957 0.54174
 O19 O 0.43032 0.06057 0.54163
 O20 O 0.57187 0.06069 0.45916
 O21 O 0.43018 0.06069 0.45908
 O22 O 0.57209 0.06056 0.54173
 Cu23 Cu 0.50112 -0.07163 0.50054
 Cu24 Cu 0.50112 0.07275 0.50040
 C25 C 0.59632 0.00048 0.55559
 C26 C 0.40601 0.00063 0.44532
 C27 C 0.59596 0.00063 0.44542
 C28 C 0.40615 0.00048 0.55544
 Si29 Si 0.00013 0.00060 0.24955
 Si30 Si -0.00056 -0.00008 0.74955
 C31 C -0.00039 -0.34936 0.08658
 C32 C -0.00034 -0.30066 0.11209
 C33 C -0.00027 -0.24252 0.14123
 C34 C -0.00021 -0.19198 0.16548
 C35 C -0.00011 -0.13178 0.19314
 C36 C -0.00003 -0.07956 0.21613
 C37 C -0.00039 0.34996 0.08515
 C38 C -0.00035 0.30131 0.11084
 C39 C -0.00028 0.24327 0.14020
 C40 C -0.00021 0.19282 0.16466
 C41 C -0.00012 0.13273 0.19258
 C42 C -0.00003 0.08061 0.21579
 C43 C 0.34940 0.00044 0.58658
 C44 C 0.30070 0.00039 0.61209
 C45 C 0.24257 0.00032 0.64123
 C46 C 0.19203 0.00025 0.66548
 C47 C 0.13182 0.00016 0.69315
 C48 C 0.07960 0.00007 0.71613
 C49 C -0.34992 0.00044 0.58515
 C50 C -0.30127 0.00039 0.61084
 C51 C -0.24322 0.00032 0.64020
 C52 C -0.19277 0.00025 0.66466
 C53 C -0.13269 0.00016 0.69258
 C54 C -0.08057 0.00007 0.71579
 C55 C -0.00063 -0.34930 0.91398
 C56 C -0.00065 -0.30073 0.88825
 C57 C -0.00066 -0.24278 0.85882
 C58 C -0.00066 -0.19241 0.83432
 C59 C -0.00064 -0.13238 0.80637
 C60 C -0.00062 -0.08024 0.78317
 C61 C -0.00063 0.34762 0.91412
 C62 C -0.00065 0.29924 0.88840
 C63 C -0.00066 0.24155 0.85896
 C64 C -0.00066 0.19141 0.83443
 C65 C -0.00064 0.13164 0.80645
 C66 C -0.00061 0.07974 0.78322
 C67 C -0.34757 0.00067 0.41412
 C68 C -0.29920 0.00069 0.38840
 C69 C -0.24151 0.00070 0.35896
 C70 C -0.19136 0.00070 0.33443
 C71 C -0.13160 0.00068 0.30645
 C72 C -0.07970 0.00066 0.28322
 C73 C 0.34934 0.00067 0.41398
 C74 C 0.30077 0.00069 0.38825
 C75 C 0.24283 0.00070 0.35882
 C76 C 0.19245 0.00070 0.33432
 C77 C 0.13242 0.00068 0.30637
 C78 C 0.08028 0.00066 0.28317
   
