data_POSCAR
  _audit_creation_date              2014-09-24
  _audit_creation_method            'ToBaCCo'
  _symmetry_space_group_name_H-M    'P1'
  _symmetry_Int_Tables_number       1
  _symmetry_cell_setting            triclinic
  loop_
  _symmetry_equiv_pos_as_xyz
 x,y,z
_cell_length_a 30.5274
_cell_length_b 30.5273
_cell_length_c 30.5758
_cell_angle_alpha 90.000300
_cell_angle_beta 90.000000
_cell_angle_gamma 89.910900
loop_
  _atom_site_label
  _atom_site_type_symbol
  _atom_site_fract_x
  _atom_site_fract_y
  _atom_site_fract_z
N1 N 0.25034 0.24967 0.25001
 N2 N 0.74968 -0.24968 0.25000
 N3 N 0.75007 0.25005 0.75001
 N4 N 0.24994 -0.25007 0.75001
 N5 N 0.74968 -0.24967 0.75000
 N6 N 0.25033 0.24966 0.75001
 N7 N 0.24995 -0.25007 0.25001
 N8 N 0.75006 0.25006 0.25001
 O9 O 0.28664 0.04233 0.45741
 O10 O 0.28650 -0.04298 0.54259
 O11 O 0.28650 -0.04298 0.45741
 O12 O 0.28665 0.04233 0.54260
 O13 O 0.21420 0.04256 0.54260
 O14 O 0.21405 -0.04274 0.45742
 O15 O 0.21405 -0.04275 0.54259
 O16 O 0.21419 0.04257 0.45742
 Cu17 Cu 0.29388 -0.00035 0.50000
 Cu18 Cu 0.20681 -0.00007 0.50001
 C19 C 0.25044 0.05685 0.44304
 C20 C 0.25025 -0.05726 0.55697
 C21 C 0.25025 -0.05726 0.44304
 C22 C 0.25045 0.05684 0.55698
 O23 O 0.71348 0.04296 0.54259
 O24 O 0.71336 -0.04235 0.45741
 O25 O 0.71335 -0.04235 0.54260
 O26 O 0.71348 0.04296 0.45741
 O27 O 0.78592 0.04275 0.45742
 O28 O 0.78580 -0.04256 0.54260
 O29 O 0.78580 -0.04256 0.45741
 O30 O 0.78593 0.04274 0.54259
 Cu31 Cu 0.70610 0.00032 0.50000
 Cu32 Cu 0.79317 0.00007 0.50000
 C33 C 0.74972 0.05725 0.55697
 C34 C 0.74956 -0.05685 0.44302
 C35 C 0.74955 -0.05685 0.55698
 C36 C 0.74972 0.05725 0.44304
 O37 O 0.45744 0.28579 0.04260
 O38 O 0.54275 0.28594 -0.04258
 O39 O 0.45744 0.28579 -0.04258
 O40 O 0.54275 0.28592 0.04260
 O41 O 0.54297 0.21347 0.04259
 O42 O 0.45766 0.21335 -0.04259
 O43 O 0.54298 0.21349 -0.04259
 O44 O 0.45766 0.21335 0.04260
 Cu45 Cu 0.50007 0.29317 0.00001
 Cu46 Cu 0.50034 0.20610 0.00000
 C47 C 0.44316 0.24955 0.05698
 C48 C 0.55726 0.24974 -0.05696
 C49 C 0.44316 0.24955 -0.05697
 C50 C 0.55726 0.24972 0.05698
 O51 O 0.54257 0.71420 0.04260
 O52 O 0.45727 0.71406 -0.04258
 O53 O 0.54258 0.71420 -0.04258
 O54 O 0.45727 0.71407 0.04259
 O55 O 0.45704 0.78651 0.04259
 O56 O 0.54235 0.78664 -0.04259
 O57 O 0.45704 0.78650 -0.04259
 O58 O 0.54235 0.78665 0.04260
 Cu59 Cu 0.49995 0.70682 0.00001
 Cu60 Cu 0.49968 0.79389 0.00000
 C61 C 0.55685 0.75044 0.05699
 C62 C 0.44276 0.75026 -0.05696
 C63 C 0.55686 0.75044 -0.05697
 C64 C 0.44276 0.75027 0.05697
 O65 O 0.04271 0.45730 0.28608
 O66 O -0.04267 0.54268 0.28610
 O67 O -0.04261 0.45737 0.28609
 O68 O 0.04264 0.54262 0.28608
 O69 O 0.04263 0.54261 0.21375
 O70 O -0.04262 0.45737 0.21376
 O71 O -0.04268 0.54268 0.21376
 O72 O 0.04269 0.45730 0.21375
 Cu73 Cu 0.00002 0.49999 0.29339
 Cu74 Cu 0.00000 0.49999 0.20646
 C75 C 0.05711 0.44289 0.24991
 C76 C -0.05709 0.55710 0.24993
 C77 C -0.05700 0.44298 0.24993
 C78 C 0.05703 0.55700 0.24991
 O79 O 0.04263 0.54262 0.71377
 O80 O -0.04261 0.45738 0.71375
 O81 O -0.04268 0.54269 0.71377
 O82 O 0.04270 0.45731 0.71375
 O83 O 0.04270 0.45729 0.78608
 O84 O -0.04268 0.54268 0.78610
 O85 O -0.04262 0.45736 0.78608
 O86 O 0.04263 0.54261 0.78610
 Cu87 Cu 0.00001 0.50000 0.70646
 Cu88 Cu 0.00001 0.49999 0.79339
 C89 C 0.05702 0.55700 0.74994
 C90 C -0.05700 0.44298 0.74991
 C91 C -0.05709 0.55710 0.74994
 C92 C 0.05711 0.44289 0.74991
 C93 C 0.34878 0.24948 0.15140
 C94 C 0.36000 0.24090 0.19496
 C95 C 0.32769 0.24094 0.22736
 C96 C 0.28375 0.24958 0.21654
 C97 C 0.27277 0.25815 0.17270
 C98 C 0.30512 0.25810 0.14034
 C99 C 0.38207 0.24948 0.11807
 C100 C 0.40996 0.24950 0.09017
 H101 H 0.39371 0.23426 0.20389
 H102 H 0.33694 0.23458 0.26095
 H103 H 0.23910 0.26456 0.16357
 H104 H 0.29607 0.26472 0.10672
 C105 C 0.65120 0.75046 0.15143
 C106 C 0.66410 0.71104 0.17100
 C107 C 0.69643 0.71098 0.20338
 C108 C 0.71625 0.75037 0.21657
 C109 C 0.70308 0.78982 0.19674
 C110 C 0.67075 0.78983 0.16437
 C111 C 0.61792 0.75049 0.11810
 C112 C 0.59004 0.75049 0.09019
 H113 H 0.64914 0.68039 0.16129
 H114 H 0.70581 0.68026 0.21843
 H115 H 0.71813 0.82050 0.20614
 H116 H 0.66105 0.82052 0.14939
 C117 C 0.65164 0.24992 -0.15138
 C118 C 0.69529 0.25849 -0.14031
 C119 C 0.72763 0.25855 -0.17268
 C120 C 0.71667 0.25002 -0.21653
 C121 C 0.67274 0.24145 -0.22735
 C122 C 0.64043 0.24140 -0.19495
 C123 C 0.61836 0.24985 -0.11805
 C124 C 0.59046 0.24980 -0.09014
 H125 H 0.70432 0.26505 -0.10668
 H126 H 0.76129 0.26490 -0.16355
 H127 H 0.66349 0.23513 -0.26094
 H128 H 0.60674 0.23479 -0.20388
 C129 C 0.34838 0.75009 -0.15138
 C130 C 0.35958 0.75861 -0.19495
 C131 C 0.32728 0.75855 -0.22735
 C132 C 0.28335 0.74997 -0.21652
 C133 C 0.27239 0.74145 -0.17268
 C134 C 0.30473 0.74151 -0.14031
 C135 C 0.38166 0.75015 -0.11804
 C136 C 0.40955 0.75020 -0.09014
 H137 H 0.39327 0.76522 -0.20387
 H138 H 0.33652 0.76487 -0.26094
 H139 H 0.23873 0.73509 -0.16354
 H140 H 0.29569 0.73494 -0.10668
 C141 C 0.15166 0.34835 0.24996
 C142 C 0.19528 0.35943 0.24126
 C143 C 0.22770 0.32705 0.24128
 C144 C 0.21685 0.28316 0.25000
 C145 C 0.17296 0.27231 0.25871
 C146 C 0.14057 0.30474 0.25869
 C147 C 0.11830 0.38170 0.24992
 C148 C 0.09035 0.40964 0.24990
 H149 H 0.20422 0.39309 0.23453
 H150 H 0.26133 0.33620 0.23481
 H151 H 0.16380 0.23869 0.26519
 H152 H 0.10691 0.29579 0.26540
 C153 C 0.15142 0.65140 0.74998
 C154 C 0.19505 0.64026 0.75874
 C155 C 0.22742 0.67259 0.75875
 C156 C 0.21651 0.71650 0.75001
 C157 C 0.17261 0.72740 0.74125
 C158 C 0.14027 0.69503 0.74124
 C159 C 0.11812 0.61809 0.74995
 C160 C 0.09022 0.59019 0.74994
 H161 H 0.20404 0.60658 0.76548
 H162 H 0.26105 0.66339 0.76526
 H163 H 0.16340 0.76104 0.73475
 H164 H 0.10660 0.70402 0.73448
 C165 C -0.15163 0.65165 0.24995
 C166 C -0.16448 0.67135 0.21064
 C167 C -0.19687 0.70376 0.21064
 C168 C -0.21682 0.71684 0.24999
 C169 C -0.20372 0.69687 0.28932
 C170 C -0.17131 0.66447 0.28928
 C171 C -0.11827 0.61829 0.24993
 C172 C -0.09033 0.59034 0.24994
 H173 H -0.14941 0.66172 0.18003
 H174 H -0.20621 0.71891 0.18000
 H175 H -0.21886 0.70619 0.31997
 H176 H -0.16166 0.64939 0.31988
 C177 C -0.15139 0.34858 0.74996
 C178 C -0.14025 0.30495 0.74122
 C179 C -0.17259 0.27258 0.74124
 C180 C -0.21649 0.28349 0.75000
 C181 C -0.22739 0.32739 0.75875
 C182 C -0.19501 0.35973 0.75873
 C183 C -0.11809 0.38188 0.74991
 C184 C -0.09019 0.40979 0.74990
 H185 H -0.10658 0.29595 0.73446
 H186 H -0.16339 0.23894 0.73474
 H187 H -0.26102 0.33660 0.76526
 H188 H -0.20401 0.39340 0.76546
 C189 C 0.25051 0.15122 0.34862
 C190 C 0.25910 0.14001 0.30506
 C191 C 0.25906 0.17232 0.27267
 C192 C 0.25042 0.21626 0.28348
 C193 C 0.24184 0.22724 0.32732
 C194 C 0.24188 0.19489 0.35968
 C195 C 0.25050 0.11794 0.38195
 C196 C 0.25048 0.09004 0.40985
 H197 H 0.26575 0.10630 0.29614
 H198 H 0.26543 0.16306 0.23908
 H199 H 0.23542 0.26091 0.33645
 H200 H 0.23525 0.20394 0.39330
 C201 C 0.74990 0.15162 0.65139
 C202 C 0.74139 0.14042 0.69496
 C203 C 0.74146 0.17272 0.72736
 C204 C 0.75003 0.21665 0.71654
 C205 C 0.75854 0.22761 0.67269
 C206 C 0.75847 0.19527 0.64033
 C207 C 0.74983 0.11834 0.61806
 C208 C 0.74977 0.09045 0.59015
 H209 H 0.73479 0.10672 0.70389
 H210 H 0.73514 0.16348 0.76096
 H211 H 0.76489 0.26127 0.66356
 H212 H 0.76503 0.20431 0.60669
 C213 C 0.25009 -0.15164 0.65139
 C214 C 0.24152 -0.19529 0.64033
 C215 C 0.24147 -0.22763 0.67269
 C216 C 0.24998 -0.21666 0.71654
 C217 C 0.25855 -0.17273 0.72736
 C218 C 0.25860 -0.14043 0.69496
 C219 C 0.25014 -0.11836 0.61806
 C220 C 0.25019 -0.09046 0.59015
 H221 H 0.23496 -0.20433 0.60670
 H222 H 0.23511 -0.26129 0.66356
 H223 H 0.26486 -0.16349 0.76095
 H224 H 0.26520 -0.10673 0.70389
 C225 C 0.74955 -0.15121 0.34859
 C226 C 0.78897 -0.16411 0.32901
 C227 C 0.78903 -0.19643 0.29663
 C228 C 0.74963 -0.21625 0.28345
 C229 C 0.71020 -0.20310 0.30329
 C230 C 0.71018 -0.17076 0.33566
 C231 C 0.74952 -0.11793 0.38192
 C232 C 0.74952 -0.09004 0.40983
 H233 H 0.81962 -0.14914 0.33872
 H234 H 0.81975 -0.20581 0.28157
 H235 H 0.67951 -0.21814 0.29389
 H236 H 0.67950 -0.16107 0.35065
 C237 C 0.65121 0.75046 -0.15141
 C238 C 0.66411 0.71104 -0.17099
 C239 C 0.69643 0.71098 -0.20337
 C240 C 0.71625 0.75038 -0.21655
 C241 C 0.70310 0.78982 -0.19671
 C242 C 0.67076 0.78983 -0.16434
 C243 C 0.61793 0.75049 -0.11808
 C244 C 0.59005 0.75048 -0.09016
 H245 H 0.64914 0.68039 -0.16127
 H246 H 0.70581 0.68026 -0.21842
 H247 H 0.71814 0.82050 -0.20611
 H248 H 0.66107 0.82051 -0.14935
 C249 C 0.34878 0.24949 -0.15138
 C250 C 0.35999 0.24089 -0.19494
 C251 C 0.32768 0.24094 -0.22734
 C252 C 0.28374 0.24958 -0.21652
 C253 C 0.27277 0.25816 -0.17268
 C254 C 0.30511 0.25812 -0.14032
 C255 C 0.38207 0.24949 -0.11806
 C256 C 0.40996 0.24951 -0.09015
 H257 H 0.39370 0.23424 -0.20387
 H258 H 0.33693 0.23456 -0.26092
 H259 H 0.23910 0.26458 -0.16355
 H260 H 0.29607 0.26475 -0.10670
 C261 C 0.34838 0.75010 0.15139
 C262 C 0.30473 0.74153 0.14033
 C263 C 0.27239 0.74146 0.17269
 C264 C 0.28336 0.74997 0.21654
 C265 C 0.32728 0.75854 0.22736
 C266 C 0.35959 0.75861 0.19496
 C267 C 0.38166 0.75016 0.11806
 C268 C 0.40955 0.75021 0.09015
 H269 H 0.29569 0.73497 0.10669
 H270 H 0.23873 0.73511 0.16356
 H271 H 0.33653 0.76486 0.26096
 H272 H 0.39328 0.76521 0.20389
 C273 C 0.65163 0.24989 0.15140
 C274 C 0.64042 0.24139 0.19497
 C275 C 0.67273 0.24145 0.22737
 C276 C 0.71665 0.25002 0.21655
 C277 C 0.72762 0.25853 0.17270
 C278 C 0.69528 0.25847 0.14033
 C279 C 0.61835 0.24982 0.11806
 C280 C 0.59046 0.24977 0.09016
 H281 H 0.60673 0.23478 0.20390
 H282 H 0.66348 0.23514 0.26096
 H283 H 0.76128 0.26488 0.16356
 H284 H 0.70431 0.26502 0.10670
 C285 C -0.15165 0.65164 0.74995
 C286 C -0.17135 0.66448 0.71064
 C287 C -0.20376 0.69688 0.71064
 C288 C -0.21684 0.71683 0.74999
 C289 C -0.19687 0.70373 0.78932
 C290 C -0.16447 0.67132 0.78928
 C291 C -0.11828 0.61828 0.74993
 C292 C -0.09034 0.59034 0.74994
 H293 H -0.16172 0.64941 0.68003
 H294 H -0.21892 0.70622 0.68000
 H295 H -0.20619 0.71887 0.81997
 H296 H -0.14939 0.66167 0.81988
 C297 C -0.15141 0.34859 0.24997
 C298 C -0.14026 0.30496 0.25874
 C299 C -0.17260 0.27260 0.25876
 C300 C -0.21650 0.28350 0.25001
 C301 C -0.22741 0.32740 0.24125
 C302 C -0.19503 0.35973 0.24123
 C303 C -0.11810 0.38189 0.24994
 C304 C -0.09019 0.40979 0.24993
 H305 H -0.10659 0.29597 0.26548
 H306 H -0.16340 0.23896 0.26527
 H307 H -0.26105 0.33660 0.23475
 H308 H -0.20403 0.39341 0.23447
 C309 C 0.15165 0.34834 0.74996
 C310 C 0.19526 0.35943 0.75869
 C311 C 0.22768 0.32704 0.75871
 C312 C 0.21684 0.28314 0.75001
 C313 C 0.17295 0.27230 0.74129
 C314 C 0.14057 0.30472 0.74126
 C315 C 0.11829 0.38170 0.74992
 C316 C 0.09035 0.40965 0.74990
 H317 H 0.20421 0.39309 0.76539
 H318 H 0.26131 0.33619 0.76519
 H319 H 0.16380 0.23867 0.73482
 H320 H 0.10690 0.29577 0.73454
 C321 C 0.15143 0.65139 0.24996
 C322 C 0.19506 0.64025 0.24122
 C323 C 0.22743 0.67259 0.24124
 C324 C 0.21652 0.71649 0.25000
 C325 C 0.17262 0.72739 0.25875
 C326 C 0.14028 0.69501 0.25873
 C327 C 0.11812 0.61809 0.24991
 C328 C 0.09022 0.59019 0.24990
 H329 H 0.20406 0.60658 0.23445
 H330 H 0.26107 0.66339 0.23474
 H331 H 0.16341 0.76102 0.26526
 H332 H 0.10660 0.70401 0.26547
 C333 C 0.74954 -0.15120 0.65143
 C334 C 0.71017 -0.17074 0.66437
 C335 C 0.71018 -0.20308 0.69674
 C336 C 0.74963 -0.21624 0.71657
 C337 C 0.78902 -0.19642 0.70338
 C338 C 0.78896 -0.16410 0.67100
 C339 C 0.74951 -0.11792 0.61809
 C340 C 0.74952 -0.09004 0.59018
 H341 H 0.67948 -0.16105 0.64938
 H342 H 0.67950 -0.21812 0.70614
 H343 H 0.81974 -0.20580 0.71843
 H344 H 0.81961 -0.14913 0.66128
 C345 C 0.25009 -0.15164 0.34862
 C346 C 0.25860 -0.14043 0.30505
 C347 C 0.25855 -0.17274 0.27265
 C348 C 0.24999 -0.21667 0.28347
 C349 C 0.24147 -0.22763 0.32732
 C350 C 0.24152 -0.19529 0.35969
 C351 C 0.25014 -0.11836 0.38195
 C352 C 0.25018 -0.09046 0.40986
 H353 H 0.26521 -0.10674 0.29612
 H354 H 0.26487 -0.16350 0.23906
 H355 H 0.23511 -0.26129 0.33646
 H356 H 0.23495 -0.20432 0.39332
 C357 C 0.74990 0.15163 0.34863
 C358 C 0.74139 0.14043 0.30505
 C359 C 0.74145 0.17273 0.27266
 C360 C 0.75002 0.21666 0.28348
 C361 C 0.75854 0.22762 0.32732
 C362 C 0.75848 0.19528 0.35969
 C363 C 0.74983 0.11835 0.38196
 C364 C 0.74978 0.09045 0.40986
 H365 H 0.73477 0.10673 0.29612
 H366 H 0.73513 0.16349 0.23906
 H367 H 0.76490 0.26128 0.33646
 H368 H 0.76504 0.20431 0.39332
 C369 C 0.25052 0.15121 0.65141
 C370 C 0.25911 0.14000 0.69497
 C371 C 0.25906 0.17231 0.72736
 C372 C 0.25042 0.21625 0.71655
 C373 C 0.24185 0.22722 0.67271
 C374 C 0.24190 0.19488 0.64035
 C375 C 0.25052 0.11792 0.61808
 C376 C 0.25050 0.09003 0.59017
 H377 H 0.26575 0.10629 0.70390
 H378 H 0.26542 0.16305 0.76095
 H379 H 0.23544 0.26089 0.66357
 H380 H 0.23528 0.20392 0.60672
   
