data_POSCAR
  _audit_creation_date              2014-09-24
  _audit_creation_method            'ToBaCCo'
  _symmetry_space_group_name_H-M    'P1'
  _symmetry_Int_Tables_number       1
  _symmetry_cell_setting            triclinic
  loop_
  _symmetry_equiv_pos_as_xyz
 x,y,z
_cell_length_a 33.4155
_cell_length_b 32.6240
_cell_length_c 33.3899
_cell_angle_alpha 90.193800
_cell_angle_beta 90.049300
_cell_angle_gamma 90.006900
loop_
  _atom_site_label
  _atom_site_type_symbol
  _atom_site_fract_x
  _atom_site_fract_y
  _atom_site_fract_z
C1 C 0.59658 0.65301 0.62435
 N2 N 0.62572 0.65323 0.59604
 C3 C 0.65512 0.62452 0.59670
 N4 N 0.65536 0.59557 0.62583
 C5 C 0.62627 0.59513 0.65426
 N6 N 0.59690 0.62394 0.65335
 C7 C 0.90410 0.34445 0.12423
 N8 N 0.90350 0.37362 0.15340
 C9 C 0.87476 0.40305 0.15349
 N10 N 0.84643 0.40327 0.12432
 C11 C 0.84679 0.37421 0.09512
 N12 N 0.87564 0.34491 0.09512
 C13 C 0.40259 0.15496 -0.12353
 N14 N 0.37394 0.15470 -0.09472
 C15 C 0.34512 0.12534 -0.09489
 N16 N 0.34501 0.09618 -0.12402
 C17 C 0.37359 0.09633 -0.15291
 N18 N 0.40234 0.12574 -0.15259
 C19 C 0.09523 0.84628 0.37531
 N20 N 0.09585 0.87533 0.34623
 C21 C 0.12515 0.90422 0.34556
 N22 N 0.15401 0.90390 0.37427
 C23 C 0.15358 0.87503 0.40345
 N24 N 0.12418 0.84631 0.40393
 N25 N 0.07509 0.18727 0.10664
 N26 N 0.06119 0.17239 0.14044
 C27 C 0.02940 0.19483 0.15214
 C28 C 0.02265 0.22454 0.12361
 C29 C 0.05194 0.21886 0.09505
 H30 H 0.01198 0.18964 0.17893
 H31 H 0.05666 0.23709 0.06847
 Cu32 Cu 0.08503 0.12407 0.16470
 Cu33 Cu 0.12377 0.16652 0.08178
 Cu34 Cu 0.16850 0.08215 0.12622
 N35 N 0.10946 0.07576 0.18838
 N36 N 0.14346 0.06107 0.17462
 C37 C 0.15510 0.02946 0.19768
 C38 C 0.12637 0.02355 0.22673
 C39 C 0.09771 0.05315 0.21995
 H40 H 0.18184 0.01138 0.19305
 H41 H 0.07078 0.05818 0.23722
 N42 N 0.18919 0.10788 0.07709
 N43 N 0.17320 0.14111 0.06123
 C44 C 0.19528 0.15259 0.02945
 C45 C 0.22593 0.12471 0.02463
 C46 C 0.22117 0.09665 0.05507
 H47 H 0.18918 0.17877 0.01064
 H48 H 0.24011 0.07051 0.06107
 H49 H 0.11727 0.10682 0.10139
 H50 H 0.14843 0.14170 0.13306
 N51 N 0.42314 0.81084 0.60541
 N52 N 0.43769 0.82653 0.63870
 C53 C 0.46945 0.80412 0.65042
 C54 C 0.47549 0.77346 0.62249
 C55 C 0.44578 0.77865 0.59421
 H56 H 0.48734 0.80998 0.67682
 H57 H 0.44054 0.75983 0.56800
 Cu58 Cu 0.41484 0.87574 0.66247
 Cu59 Cu 0.37470 0.83192 0.58040
 Cu60 Cu 0.33112 0.91741 0.62430
 N61 N 0.39010 0.92379 0.68660
 N62 N 0.35623 0.93862 0.67276
 C63 C 0.34453 0.97016 0.69607
 C64 C 0.37303 0.97582 0.72552
 C65 C 0.40163 0.94610 0.71862
 H66 H 0.31782 0.98826 0.69145
 H67 H 0.42839 0.94081 0.73610
 N68 N 0.31019 0.89151 0.57518
 N69 N 0.32563 0.85778 0.55961
 C70 C 0.30340 0.84629 0.52780
 C71 C 0.27324 0.87467 0.52271
 C72 C 0.27846 0.90303 0.55300
 H73 H 0.30910 0.81977 0.50915
 H74 H 0.25995 0.92958 0.55879
 H75 H 0.38192 0.89188 0.59923
 H76 H 0.35098 0.85786 0.63173
 N77 N 0.92377 0.68963 0.39406
 N78 N 0.93735 0.67493 0.35995
 C79 C 0.96877 0.69770 0.34800
 C80 C 0.97561 0.72745 0.37665
 C81 C 0.94678 0.72145 0.40557
 H82 H 0.98598 0.69259 0.32103
 H83 H 0.94235 0.73950 0.43243
 Cu84 Cu 0.91395 0.62612 0.33585
 Cu85 Cu 0.87581 0.66809 0.41958
 Cu86 Cu 0.83209 0.58255 0.37572
 N87 N 0.88998 0.57731 0.31234
 N88 N 0.85676 0.56171 0.32690
 C89 C 0.84543 0.52965 0.30406
 C90 C 0.87353 0.52444 0.27420
 C91 C 0.90151 0.55497 0.28036
 H92 H 0.81930 0.51087 0.30931
 H93 H 0.92785 0.56073 0.26245
 N94 N 0.81163 0.60815 0.42517
 N95 N 0.82715 0.64185 0.44079
 C96 C 0.80512 0.65321 0.47274
 C97 C 0.77503 0.62478 0.47789
 C98 C 0.78006 0.59652 0.44749
 H99 H 0.81084 0.67975 0.49135
 H100 H 0.76146 0.57004 0.44165
 H101 H 0.88322 0.60850 0.39971
 H102 H 0.85079 0.64251 0.36868
 N103 N 0.57623 0.31272 -0.10620
 N104 N 0.56198 0.32790 -0.13975
 C105 C 0.52977 0.30590 -0.15109
 C106 C 0.52315 0.27602 -0.12268
 C107 C 0.55298 0.28126 -0.09450
 H108 H 0.51208 0.31139 -0.17767
 H109 H 0.55798 0.26283 -0.06810
 Cu110 Cu 0.58635 0.37566 -0.16450
 Cu111 Cu 0.62528 0.33314 -0.08167
 Cu112 Cu 0.66998 0.41748 -0.12618
 N113 N 0.61053 0.42416 -0.18800
 N114 N 0.64463 0.43876 -0.17437
 C115 C 0.65622 0.47036 -0.19746
 C116 C 0.62734 0.47634 -0.22640
 C117 C 0.59863 0.44681 -0.21952
 H118 H 0.68307 0.48832 -0.19298
 H119 H 0.57165 0.44178 -0.23675
 N120 N 0.69095 0.39154 -0.07724
 N121 N 0.67501 0.35828 -0.06141
 C122 C 0.69723 0.34674 -0.02970
 C123 C 0.72792 0.37460 -0.02491
 C124 C 0.72303 0.40271 -0.05529
 H125 H 0.69113 0.32058 -0.01086
 H126 H 0.74192 0.42890 -0.06125
 H127 H 0.61877 0.39285 -0.10125
 H128 H 0.64984 0.35796 -0.13292
 N129 N -0.04168 0.30963 0.15619
 C130 C -0.06633 0.31437 0.12414
 N131 N -0.06152 0.28924 0.09196
 N132 N -0.03290 0.26081 0.09165
 C133 C -0.00862 0.25591 0.12386
 N134 N -0.01360 0.28063 0.15621
 N135 N 0.55119 0.69924 0.58856
 C136 C 0.56503 0.68418 0.62380
 N137 N 0.54925 0.69850 0.65857
 N138 N 0.52090 0.72721 0.65814
 C139 C 0.50682 0.74202 0.62291
 N140 N 0.52231 0.72741 0.58811
 N141 N 1.06056 0.79159 0.40781
 C142 C 1.06521 0.81666 0.37573
 N143 N 1.04008 0.81220 0.34399
 N144 N 1.01172 0.78348 0.34414
 C145 C 1.00693 0.75879 0.37638
 N146 N 1.03167 0.76345 0.40830
 N147 N 0.44764 0.20211 -0.08816
 C148 C 0.43371 0.18659 -0.12328
 N149 N 0.44923 0.20067 -0.15818
 N150 N 0.47744 0.22953 -0.15798
 C151 C 0.49164 0.24476 -0.12286
 N152 N 0.47638 0.23043 -0.08795
 N153 N 0.15775 -0.04109 0.31101
 C154 C 0.12552 -0.06600 0.31577
 N155 N 0.09359 -0.06124 0.29098
 N156 N 0.09372 -0.03239 0.26283
 C157 C 0.12610 -0.00785 0.25790
 N158 N 0.15820 -0.01281 0.28230
 N159 N 0.65888 0.54071 -0.31075
 C160 C 0.62655 0.56541 -0.31589
 N161 N 0.59450 0.56058 -0.29134
 N162 N 0.59460 0.53188 -0.26304
 C163 C 0.62709 0.50758 -0.25773
 N164 N 0.65931 0.51259 -0.28191
 N165 N 0.33838 1.04916 0.80189
 C166 C 0.37341 1.06490 0.81564
 N167 N 0.40830 1.05121 0.79968
 N168 N 0.40818 1.02249 0.77122
 C169 C 0.37314 1.00704 0.75720
 N170 N 0.33823 1.02098 0.77290
 N171 N 0.83929 0.44997 0.19865
 C172 C 0.87442 0.43453 0.18487
 N173 N 0.90925 0.44878 0.20057
 N174 N 0.90897 0.47775 0.22880
 C175 C 0.87384 0.49290 0.24283
 N176 N 0.83899 0.47838 0.22741
 N177 N 0.29953 0.08924 -0.04963
 C178 C 0.31423 0.12516 -0.06380
 N179 N 0.29982 0.16093 -0.04876
 N180 N 0.27140 0.16078 -0.02079
 C181 C 0.25697 0.12485 -0.00636
 N182 N 0.27166 0.08909 -0.02112
 N183 N 0.70029 0.66049 0.55090
 C184 C 0.68639 0.62462 0.56598
 N185 N 0.70180 0.58883 0.55205
 N186 N 0.72986 0.58887 0.52372
 C187 C 0.74401 0.62474 0.50891
 N188 N 0.72889 0.66055 0.52311
 N189 N 0.80132 0.41023 0.04961
 C190 C 0.81606 0.37434 0.06382
 N191 N 0.80177 0.33855 0.04869
 N192 N 0.77342 0.33863 0.02061
 C193 C 0.75895 0.37452 0.00613
 N194 N 0.77351 0.41032 0.02097
 N195 N 0.19850 0.83904 0.44953
 C196 C 0.18470 0.87492 0.43438
 N197 N 0.20014 0.91070 0.44834
 N198 N 0.22814 0.91062 0.47678
 C199 C 0.24221 0.87474 0.49166
 N200 N 0.22705 0.83895 0.47743
   
