data_POSCAR
  _audit_creation_date              2014-09-24
  _audit_creation_method            'ToBaCCo'
  _symmetry_space_group_name_H-M    'P1'
  _symmetry_Int_Tables_number       1
  _symmetry_cell_setting            triclinic
  loop_
  _symmetry_equiv_pos_as_xyz
 x,y,z
_cell_length_a 24.8868
_cell_length_b 26.7679
_cell_length_c 24.0288
_cell_angle_alpha 86.477800
_cell_angle_beta 92.990300
_cell_angle_gamma 92.094700
loop_
  _atom_site_label
  _atom_site_type_symbol
  _atom_site_fract_x
  _atom_site_fract_y
  _atom_site_fract_z
C1 C 0.33033 0.28624 0.20096
 H2 H 0.35302 0.25597 0.22074
 C3 C 0.35650 0.32147 0.16570
 H4 H 0.39855 0.31691 0.15862
 C5 C 0.24971 0.33070 0.18900
 H6 H 0.20864 0.33516 0.19969
 C7 C 0.27451 0.36712 0.15379
 H8 H 0.25170 0.39865 0.13664
 N9 N 0.27742 0.29060 0.21104
 C10 C 0.15857 0.27893 0.32261
 H11 H 0.13155 0.25509 0.29852
 C12 C 0.13764 0.31092 0.35939
 H13 H 0.09456 0.31108 0.36357
 C14 C 0.24735 0.30869 0.34542
 H15 H 0.28998 0.30845 0.33863
 C16 C 0.22829 0.34056 0.38319
 H17 H 0.25670 0.36454 0.40565
 Zn18 Zn 0.24179 0.24267 0.25996
 N19 N 0.21253 0.27895 0.31579
 C20 C 0.30455 0.19023 0.34758
 N21 N 0.29268 0.19611 0.29165
 C22 C 0.31692 0.16843 0.25516
 C23 C 0.35572 0.13441 0.27404
 C24 C 0.34320 0.15618 0.36845
 C25 C 0.14818 0.23163 0.18729
 C26 C 0.10957 0.20542 0.15509
 C27 C 0.14895 0.12805 0.19054
 C28 C 0.18613 0.15563 0.22280
 N29 N 0.18624 0.20663 0.21961
 H30 H 0.28429 0.21195 0.37608
 H31 H 0.30629 0.17325 0.21096
 H32 H 0.37471 0.11328 0.24393
 H33 H 0.35256 0.15241 0.41295
 H34 H 0.14774 0.27194 0.18612
 H35 H 0.08012 0.22602 0.12903
 H36 H 0.15018 0.08759 0.19322
 H37 H 0.21497 0.13593 0.25023
 C38 C 0.17272 0.34269 0.38974
 C39 C 0.32849 0.36246 0.14133
 C40 C 0.11047 0.15303 0.15562
 C41 C 0.36961 0.12808 0.33128
 C42 C 0.76361 0.85026 0.20764
 H43 H 0.74340 0.86067 0.24358
 C44 C 0.78619 0.88797 0.17258
 H45 H 0.78218 0.92664 0.18215
 C46 C 0.79538 0.78787 0.15328
 H47 H 0.79991 0.74888 0.14629
 C48 C 0.81994 0.82431 0.11804
 H49 H 0.84193 0.81222 0.08391
 N50 N 0.76876 0.80113 0.19789
 C51 C 0.73151 0.77825 0.36082
 H52 H 0.76668 0.75623 0.37046
 C53 C 0.71026 0.80457 0.40263
 H54 H 0.72908 0.80223 0.44433
 C55 C 0.66574 0.81020 0.29450
 H56 H 0.64967 0.81358 0.25177
 C57 C 0.64286 0.83652 0.33504
 H58 H 0.60904 0.85972 0.32287
 Zn59 Zn 0.74139 0.75030 0.24954
 N60 N 0.70925 0.78172 0.30782
 C61 C 0.85013 0.72186 0.26617
 N62 N 0.79857 0.71035 0.27980
 C63 C 0.78659 0.66941 0.31391
 C64 C 0.82733 0.63795 0.33538
 C65 C 0.89176 0.69081 0.28553
 C66 C 0.63717 0.70591 0.22462
 C67 C 0.59962 0.67672 0.19461
 C68 C 0.67166 0.64889 0.14195
 C69 C 0.70776 0.67900 0.17260
 N70 N 0.68999 0.70782 0.21211
 H71 H 0.85923 0.75502 0.24007
 H72 H 0.74526 0.66107 0.32409
 H73 H 0.81709 0.60528 0.36203
 H74 H 0.93245 0.70020 0.27363
 H75 H 0.62368 0.72685 0.25781
 H76 H 0.55769 0.67637 0.20467
 H77 H 0.68681 0.62704 0.11013
 H78 H 0.75010 0.67901 0.16500
 C79 C 0.66552 0.83433 0.38982
 C80 C 0.81626 0.87531 0.12793
 C81 C 0.61664 0.64811 0.15229
 C82 C 0.88055 0.64828 0.32049
 C83 C 0.78868 0.35633 0.71038
 H84 H 0.77156 0.36754 0.74780
 C85 C 0.81285 0.39279 0.67504
 H86 H 0.81322 0.43162 0.68539
 C87 C 0.81138 0.29258 0.65255
 H88 H 0.81137 0.25348 0.64412
 C89 C 0.83731 0.32779 0.61680
 H90 H 0.85633 0.31544 0.58077
 N91 N 0.78796 0.30718 0.69867
 C92 C 0.73731 0.28528 0.86066
 H93 H 0.76960 0.26070 0.87381
 C94 C 0.71109 0.30975 0.90074
 H95 H 0.72329 0.30334 0.94444
 C96 C 0.68283 0.32442 0.78813
 H97 H 0.67225 0.33022 0.74401
 C98 C 0.65572 0.34961 0.82661
 H99 H 0.62431 0.37444 0.81120
 Zn100 Zn 0.75587 0.25862 0.74976
 N101 N 0.72232 0.29242 0.80552
 C102 C 0.79455 0.17850 0.82012
 N103 N 0.80940 0.21625 0.78305
 C104 C 0.86125 0.22268 0.76818
 C105 C 0.90031 0.18984 0.78988
 C106 C 0.83273 0.14580 0.84459
 C107 C 0.65033 0.21964 0.72044
 C108 C 0.61258 0.19005 0.69121
 C109 C 0.68529 0.15473 0.64571
 C110 C 0.72163 0.18532 0.67549
 N111 N 0.70374 0.21774 0.71127
 H112 H 0.75288 0.17387 0.83077
 H113 H 0.87254 0.25307 0.73906
 H114 H 0.94109 0.19578 0.77652
 H115 H 0.81932 0.11632 0.87397
 H116 H 0.63650 0.24377 0.75056
 H117 H 0.57028 0.19252 0.69881
 H118 H 0.70065 0.12970 0.61712
 H119 H 0.76429 0.18259 0.67058
 C120 C 0.66945 0.34218 0.88388
 C121 C 0.83809 0.37860 0.62799
 C122 C 0.62987 0.15723 0.65308
 C123 C 0.88663 0.15067 0.82901
 C124 C 0.33510 0.80326 0.71192
 H125 H 0.35730 0.77767 0.74020
 C126 C 0.36295 0.83705 0.67642
 H127 H 0.40648 0.83707 0.67791
 C128 C 0.25158 0.83488 0.67648
 H129 H 0.20808 0.83344 0.67661
 C130 C 0.27787 0.86988 0.64090
 H131 H 0.25437 0.89541 0.61364
 N132 N 0.28041 0.80270 0.71130
 C133 C 0.18743 0.76230 0.85802
 H134 H 0.18696 0.72182 0.85938
 C135 C 0.16247 0.78657 0.89909
 H136 H 0.14269 0.76459 0.93191
 C137 C 0.21290 0.84027 0.81324
 H138 H 0.23295 0.86129 0.78016
 C139 C 0.18725 0.86595 0.85254
 H140 H 0.18773 0.90649 0.84911
 Zn141 Zn 0.24310 0.75568 0.75864
 N142 N 0.21172 0.78929 0.81590
 C143 C 0.30457 0.70044 0.84538
 N144 N 0.29206 0.70700 0.78957
 C145 C 0.31435 0.67841 0.75263
 C146 C 0.34954 0.64104 0.77105
 C147 C 0.33973 0.66308 0.86579
 C148 C 0.13828 0.71301 0.73195
 C149 C 0.10063 0.68548 0.69988
 C150 C 0.16699 0.68000 0.63093
 C151 C 0.20292 0.70826 0.66372
 N152 N 0.18884 0.72278 0.71410
 H153 H 0.28767 0.72420 0.87421
 H154 H 0.30530 0.68479 0.70851
 H155 H 0.36646 0.61885 0.74051
 H156 H 0.34903 0.65831 0.91024
 H157 H 0.12720 0.72565 0.77142
 H158 H 0.06096 0.67701 0.71520
 H159 H 0.17948 0.66814 0.59146
 H160 H 0.24229 0.71847 0.64889
 C161 C 0.16137 0.83900 0.89586
 C162 C 0.33425 0.87100 0.64042
 C163 C 0.11542 0.66758 0.64939
 C164 C 0.36244 0.63265 0.82826
 C165 C 0.03927 -0.04517 -0.01938
 C166 C 0.05940 -0.00785 0.02369
 C167 C 0.02242 0.02675 0.03316
 C168 C -0.03137 0.02015 -0.00040
 C169 C -0.01309 -0.06842 0.00293
 C170 C -0.04979 -0.03427 0.01369
 C171 C 0.02170 -0.01229 -0.07142
 C172 C -0.01534 0.02160 -0.06124
 H173 H 0.10016 -0.00712 0.04168
 H174 H -0.06147 0.04811 0.00754
 H175 H -0.01818 -0.10809 0.01355
 H176 H 0.03833 -0.01336 -0.11193
 C177 C 0.06022 0.46757 0.47380
 C178 C 0.07779 0.50812 0.51423
 C179 C 0.03783 0.53937 0.52395
 C180 C -0.01590 0.52739 0.49259
 C181 C 0.01118 0.44062 0.49963
 C182 C -0.02859 0.47217 0.50982
 C183 C 0.03806 0.49667 0.42122
 C184 C -0.00192 0.52783 0.43101
 H185 H 0.11754 0.51087 0.53446
 H186 H -0.04802 0.55322 0.50074
 H187 H 0.00995 0.40100 0.51159
 H188 H 0.05382 0.49396 0.38040
 C189 C 0.55795 -0.04552 0.48560
 C190 C 0.57918 -0.00452 0.52354
 C191 C 0.54106 0.02827 0.53466
 C192 C 0.48516 0.01700 0.50683
 C193 C 0.50996 -0.07043 0.51488
 C194 C 0.47188 -0.03766 0.52605
 C195 C 0.53373 -0.01705 0.43350
 C196 C 0.49530 0.01533 0.44439
 H197 H 0.62032 -0.00220 0.54022
 H198 H 0.45420 0.04343 0.51654
 H199 H 0.50652 -0.11032 0.52509
 H200 H 0.54594 -0.02212 0.39170
 C201 C 0.54475 0.45050 -0.02245
 C202 C 0.56653 0.49212 0.01427
 C203 C 0.52830 0.52416 0.02715
 C204 C 0.47173 0.51194 0.00153
 C205 C 0.49838 0.42503 0.00911
 C206 C 0.46013 0.45716 0.02171
 C207 C 0.51773 0.47806 -0.07377
 C208 C 0.47962 0.51012 -0.06136
 H209 H 0.60799 0.49451 0.03000
 H210 H 0.44070 0.53794 0.01216
 H211 H 0.49629 0.38520 0.01988
 H212 H 0.52822 0.47409 -0.11623
 N213 N 0.09086 -0.11997 0.00949
 N214 N 0.12274 -0.15198 -0.01130
 C215 C 0.13143 -0.13473 -0.06403
 C216 C 0.10381 -0.09122 -0.07492
 N217 N 0.07854 -0.08332 -0.02814
 H218 H 0.10097 -0.06911 -0.11404
 N219 N 0.15305 0.43714 0.48485
 N220 N 0.18373 0.40450 0.46356
 C221 C 0.15231 0.37937 0.42652
 C222 C 0.10100 0.39778 0.42598
 N223 N 0.10327 0.43394 0.46274
 H224 H 0.06612 0.38783 0.39965
 N225 N 0.64391 -0.08921 0.50293
 N226 N 0.67307 -0.12156 0.47898
 C227 C 0.64489 -0.13462 0.43228
 C228 C 0.59722 -0.10965 0.42886
 N229 N 0.59840 -0.08122 0.47316
 H230 H 0.56528 -0.11085 0.39661
 N231 N 0.61702 0.39172 0.00446
 N232 N 0.65070 0.36271 -0.01853
 C233 C 0.64079 0.36806 -0.07428
 C234 C 0.59984 0.40124 -0.08451
 N235 N 0.58617 0.41544 -0.03448
 H236 H 0.58167 0.41324 -0.12458
 N237 N 0.00036 0.08230 -0.13863
 N238 N -0.02500 0.11844 -0.16819
 C239 C -0.07547 0.11884 -0.14995
 C240 C -0.07988 0.08150 -0.10757
 N241 N -0.03186 0.05985 -0.10208
 H242 H -0.11388 0.07127 -0.08248
 N243 N -0.00075 0.57710 0.34236
 N244 N -0.03055 0.60981 0.31224
 C245 C -0.07564 0.61475 0.33995
 C246 C -0.07245 0.58404 0.38827
 N247 N -0.02509 0.56133 0.38821
 H248 H -0.10138 0.57917 0.42040
 N249 N 0.47503 0.04048 0.34684
 N250 N 0.44228 0.06965 0.31560
 C251 C 0.41185 0.09256 0.35055
 C252 C 0.42724 0.07633 0.40468
 N253 N 0.46675 0.04384 0.40043
 H254 H 0.41086 0.08663 0.44299
 N255 N 0.45426 0.53276 -0.15828
 N256 N 0.42387 0.56455 -0.18875
 C257 C 0.39975 0.59245 -0.15309
 C258 C 0.41646 0.57640 -0.09920
 N259 N 0.45047 0.53910 -0.10445
 H260 H 0.40537 0.59063 -0.06040
 N261 N -0.12374 -0.01430 0.06999
 N262 N -0.15983 -0.03753 0.10193
 C263 C -0.15591 -0.08715 0.09634
 C264 C -0.11634 -0.09335 0.05925
 N265 N -0.09693 -0.04712 0.04428
 H266 H -0.10085 -0.12805 0.04710
 N267 N -0.10935 0.48922 0.55695
 N268 N -0.14540 0.46590 0.58879
 C269 C -0.13400 0.41694 0.59217
 C270 C -0.08963 0.41097 0.56123
 N271 N -0.07534 0.45707 0.54011
 H272 H -0.06847 0.37693 0.55700
 N273 N 0.37941 -0.02624 0.55047
 N274 N 0.34159 -0.04958 0.58015
 C275 C 0.36273 -0.09229 0.60300
 C276 C 0.41468 -0.09448 0.58603
 N277 N 0.42348 -0.05269 0.55333
 H278 H 0.44336 -0.12338 0.59666
 N279 N 0.37137 0.46963 0.05624
 N280 N 0.33530 0.44562 0.08766
 C281 C 0.35552 0.40071 0.10428
 C282 C 0.40516 0.39799 0.08167
 N283 N 0.41354 0.44162 0.05203
 H284 H 0.43270 0.36755 0.08671
 N285 N 0.00310 0.10839 0.06520
 N286 N 0.02522 0.14309 0.09697
 C287 C 0.07187 0.12497 0.11944
 C288 C 0.07766 0.07793 0.10021
 N289 N 0.03396 0.06904 0.06639
 H290 H 0.11104 0.05336 0.10875
 N291 N 0.00480 0.59918 0.58576
 N292 N 0.02384 0.63347 0.61987
 C293 C 0.07787 0.63524 0.61683
 C294 C 0.09131 0.60069 0.58003
 N295 N 0.04471 0.57893 0.56167
 H296 H 0.13111 0.59181 0.56837
 N297 N 0.51422 0.09700 0.58813
 N298 N 0.53631 0.13165 0.62004
 C299 C 0.59004 0.12589 0.62180
 C300 C 0.60008 0.08642 0.58992
 N301 N 0.55183 0.06938 0.56974
 H302 H 0.63863 0.07154 0.58229
 N303 N 0.50118 0.58925 0.08552
 N304 N 0.52311 0.62234 0.11952
 C305 C 0.57696 0.61789 0.11951
 C306 C 0.58725 0.58091 0.08431
 N307 N 0.53900 0.56395 0.06403
 H308 H 0.62594 0.56741 0.07480
   
