data_POSCAR
  _audit_creation_date              2014-09-24
  _audit_creation_method            'ToBaCCo'
  _symmetry_space_group_name_H-M    'P1'
  _symmetry_Int_Tables_number       1
  _symmetry_cell_setting            triclinic
  loop_
  _symmetry_equiv_pos_as_xyz
 x,y,z
_cell_length_a 30.1800
_cell_length_b 30.0804
_cell_length_c 30.2790
_cell_angle_alpha 90.017700
_cell_angle_beta 89.998700
_cell_angle_gamma 90.052400
loop_
  _atom_site_label
  _atom_site_type_symbol
  _atom_site_fract_x
  _atom_site_fract_y
  _atom_site_fract_z
C1 C 0.33533 0.39996 1.36945
 C2 C 0.36769 0.40118 1.33619
 C3 C 0.40102 0.36969 1.33559
 C4 C 0.40246 0.33653 1.36820
 C5 C 0.37056 0.33549 1.40079
 C6 C 0.33678 0.36754 1.40155
 C7 C 0.29732 0.42409 1.37620
 N8 N 0.27499 0.40728 1.41177
 C9 C 0.29956 0.37255 1.42741
 C10 C 0.37782 0.29792 1.42548
 N11 N 0.41341 0.27536 1.40882
 C12 C 0.42866 0.29945 1.37369
 C13 C 0.42539 0.37671 1.29784
 N14 N 0.40762 0.41153 1.27525
 C15 C 0.37231 0.42674 1.29872
 H16 H 0.28716 0.45165 1.35574
 H17 H 0.29059 0.35072 1.45430
 H18 H 0.35752 0.28807 1.45316
 H19 H 0.45541 0.29015 1.35185
 H20 H 0.45352 0.35712 1.28731
 H21 H 0.35018 0.45302 1.28833
 C22 C 1.16565 0.60024 0.86905
 C23 C 1.13328 0.59894 0.83580
 C24 C 1.09994 0.63040 0.83518
 C25 C 1.09849 0.66364 0.86774
 C26 C 1.13040 0.66477 0.90032
 C27 C 1.16420 0.63272 0.90112
 C28 C 1.20361 0.57606 0.87587
 N29 N 1.22592 0.59290 0.91146
 C30 C 1.20139 0.62769 0.92702
 C31 C 1.12306 0.70236 0.92500
 N32 N 1.08741 0.72482 0.90835
 C33 C 1.07221 0.70067 0.87323
 C34 C 1.07551 0.62326 0.79748
 N35 N 1.09327 0.58837 0.77494
 C36 C 1.12861 0.57326 0.79840
 H37 H 1.21375 0.54842 0.85549
 H38 H 1.21035 0.64954 0.95392
 H39 H 1.14334 0.71226 0.95269
 H40 H 1.04541 0.70987 0.85142
 H41 H 1.04735 0.64280 0.78695
 H42 H 1.15073 0.54694 0.78805
 C43 C 0.66427 -0.09847 0.13030
 C44 C 0.63183 -0.09715 0.16347
 C45 C 0.59844 -0.12863 0.16404
 C46 C 0.59703 -0.16190 0.13153
 C47 C 0.62901 -0.16306 0.09904
 C48 C 0.66284 -0.13100 0.09827
 C49 C 0.70241 -0.07446 0.12368
 N50 N 0.72484 -0.09144 0.08826
 C51 C 0.70021 -0.12616 0.07259
 C52 C 0.62188 -0.20085 0.07460
 N53 N 0.58630 -0.22342 0.09135
 C54 C 0.57092 -0.19911 0.12626
 C55 C 0.57410 -0.12168 0.20179
 N56 N 0.59196 -0.08691 0.22445
 C57 C 0.62727 -0.07164 0.20100
 H58 H 0.71261 -0.04686 0.14412
 H59 H 0.70926 -0.14814 0.04584
 H60 H 0.64231 -0.21087 0.04707
 H61 H 0.54419 -0.20838 0.14815
 H62 H 0.54599 -0.14134 0.21233
 H63 H 0.64950 -0.04544 0.21149
 C64 C -0.16462 1.09874 -0.36939
 C65 C -0.13214 1.09745 -0.33626
 C66 C -0.09880 1.12898 -0.33568
 C67 C -0.09748 1.16227 -0.36816
 C68 C -0.12950 1.16341 -0.40061
 C69 C -0.16328 1.13129 -0.40138
 C70 C -0.20269 1.07461 -0.37602
 N71 N -0.22516 1.09153 -0.41143
 C72 C -0.20064 1.12634 -0.42706
 C73 C -0.12237 1.20116 -0.42510
 N74 N -0.08674 1.22372 -0.40842
 C75 C -0.07134 1.19946 -0.37350
 C76 C -0.07437 1.12198 -0.29799
 N77 N -0.09215 1.08714 -0.27538
 C78 C -0.12748 1.07188 -0.29881
 H79 H -0.21279 1.04696 -0.35562
 H80 H -0.20974 1.14828 -0.45381
 H81 H -0.14279 1.21113 -0.45264
 H82 H -0.04454 1.20872 -0.35169
 H83 H -0.04626 1.14165 -0.28746
 H84 H -0.14965 1.04561 -0.28836
 C85 C 0.67181 0.60576 0.63599
 C86 C 0.64075 0.60489 0.67039
 C87 C 0.60781 0.63682 0.67230
 C88 C 0.60589 0.67033 0.64021
 C89 C 0.63620 0.67090 0.60609
 C90 C 0.66971 0.63872 0.60419
 C91 C 0.70878 0.58055 0.62719
 N92 N 0.72939 0.59785 0.59124
 C93 C 0.70582 0.63346 0.57695
 C94 C 0.62723 0.70766 0.58070
 N95 N 0.59265 0.73022 0.59902
 C96 C 0.57959 0.70736 0.63566
 C97 C 0.58335 0.62878 0.70977
 N98 N 0.60096 0.59309 0.73080
 C99 C 0.63622 0.57836 0.70714
 H100 H 0.72088 0.55286 0.64656
 H101 H 0.71481 0.65446 0.54933
 H102 H 0.64636 0.71826 0.55237
 H103 H 0.55262 0.71640 0.65740
 H104 H 0.55557 0.64818 0.72160
 H105 H 0.65710 0.55056 0.71617
 C106 C 0.82758 0.39426 0.13626
 C107 C 0.85937 0.39562 0.16999
 C108 C 0.89205 0.36344 0.17194
 C109 C 0.89303 0.32925 0.14050
 C110 C 0.86186 0.32811 0.10716
 C111 C 0.82846 0.36044 0.10545
 C112 C 0.79091 0.41984 0.12749
 N113 N 0.76865 0.40185 0.09259
 C114 C 0.79169 0.36534 0.07906
 C115 C 0.87026 0.29095 0.08211
 N116 N 0.90537 0.26876 0.09987
 C117 C 0.91923 0.29216 0.13588
 C118 C 0.91711 0.37186 0.20894
 N119 N 0.90005 0.40798 0.22972
 C120 C 0.86464 0.42269 0.20627
 H121 H 0.78008 0.44792 0.14703
 H122 H 0.78287 0.34383 0.05180
 H123 H 0.85056 0.27997 0.05430
 H124 H 0.94685 0.28357 0.15699
 H125 H 0.94471 0.35224 0.22082
 H126 H 0.84395 0.45063 0.21532
 C127 C 0.32701 0.10550 0.86349
 C128 C 0.35923 0.10331 0.83021
 C129 C 0.39254 0.13489 0.82842
 C130 C 0.39373 0.16936 0.85953
 C131 C 0.36179 0.17159 0.89224
 C132 C 0.32791 0.13972 0.89387
 C133 C 0.29006 0.08029 0.87227
 N134 N 0.26771 0.09881 0.90681
 C135 C 0.29088 0.13541 0.92000
 C136 C 0.37025 0.20913 0.91678
 N137 N 0.40621 0.22987 0.89940
 C138 C 0.42070 0.20596 0.86425
 C139 C 0.41778 0.12585 0.79171
 N140 N 0.40021 0.08995 0.77092
 C141 C 0.36434 0.07594 0.79414
 H142 H 0.27925 0.05193 0.85309
 H143 H 0.28208 0.15723 0.94702
 H144 H 0.35095 0.22124 0.94441
 H145 H 0.44860 0.21475 0.84354
 H146 H 0.44575 0.14503 0.77991
 H147 H 0.34312 0.04841 0.78495
 C148 C 0.17251 0.89480 0.36370
 C149 C 0.14036 0.89686 0.33036
 C150 C 0.10708 0.86523 0.32859
 C151 C 0.10586 0.83086 0.35979
 C152 C 0.13775 0.82877 0.39256
 C153 C 0.17160 0.86068 0.39417
 C154 C 0.20947 0.92003 0.37243
 N155 N 0.23181 0.90160 0.40701
 C156 C 0.20862 0.86505 0.42029
 C157 C 0.12934 0.79126 0.41713
 N158 N 0.09347 0.77039 0.39972
 C159 C 0.07897 0.79421 0.36452
 C160 C 0.08191 0.87412 0.29180
 N161 N 0.09951 0.90995 0.27094
 C162 C 0.13530 0.92409 0.29420
 H163 H 0.22032 0.94831 0.35317
 H164 H 0.21742 0.84329 0.44734
 H165 H 0.14866 0.77922 0.44478
 H166 H 0.05115 0.78529 0.34375
 H167 H 0.05398 0.85487 0.28000
 H168 H 0.15651 0.95160 0.28498
 Zn169 Zn -0.02810 1.01128 0.05275
 Zn170 Zn 0.05172 0.97219 0.01141
 Zn171 Zn -0.03605 0.96444 -0.03481
 Zn172 Zn 0.01038 1.05271 -0.02709
 O173 O -0.00068 0.99999 0.00038
 O174 O 0.00130 0.99045 0.09948
 O175 O 0.05371 0.91835 -0.01238
 O176 O -0.08896 0.95220 -0.00896
 O177 O 0.06234 0.96391 0.06902
 O178 O -0.08151 0.98686 0.05512
 O179 O -0.01043 0.91125 -0.04707
 O180 O -0.01412 1.05497 -0.08023
 O181 O 0.09852 1.00124 -0.01030
 O182 O -0.04837 0.99030 -0.08756
 O183 O 0.06817 1.06304 -0.03586
 O184 O -0.01095 1.09981 0.00187
 O185 O -0.03690 1.06919 0.06301
 C186 C 0.03877 0.97175 0.10283
 C187 C 0.02709 0.89567 -0.03569
 C188 C -0.10424 0.96348 0.02861
 C189 C -0.03748 1.02824 -0.10277
 C190 C 0.10186 1.03888 -0.02882
 C191 C -0.02964 1.10306 0.03920
 Zn192 Zn 0.48927 -0.05273 0.47273
 Zn193 Zn 0.52789 -0.01165 0.55274
 Zn194 Zn 0.53600 0.03535 0.46531
 Zn195 Zn 0.44818 0.02780 0.51146
 O196 O 0.50050 -0.00014 0.50039
 O197 O 0.51028 -0.09996 0.50160
 O198 O 0.58139 0.01264 0.55522
 O199 O 0.54834 0.00956 0.41253
 O200 O 0.53641 -0.06964 0.56283
 O201 O 0.51386 -0.05500 0.41962
 O202 O 0.58885 0.04746 0.49124
 O203 O 0.44637 0.08168 0.48780
 O204 O 0.49850 0.00918 0.59953
 O205 O 0.51055 0.08860 0.45314
 O206 O 0.43758 0.03600 0.56908
 O207 O 0.40127 -0.00105 0.48969
 O208 O 0.43147 -0.06283 0.46388
 C209 C 0.52892 -0.10342 0.53893
 C210 C 0.60412 0.03610 0.52879
 C211 C 0.53736 -0.02831 0.39721
 C212 C 0.47309 0.10429 0.46454
 C213 C 0.46109 0.02800 0.60288
 C214 C 0.39784 -0.03862 0.47105
 Zn215 Zn 0.94844 0.47123 0.48876
 Zn216 Zn 1.03620 0.46387 0.53525
 Zn217 Zn 1.02837 0.51028 0.44754
 Zn218 Zn 0.98955 0.55188 0.52724
 O219 O 1.00082 0.49915 0.49988
 O220 O 0.94640 0.41756 0.51283
 O221 O 1.08911 0.45147 0.50945
 O222 O 0.99907 0.48925 0.40069
 O223 O 1.01048 0.41073 0.54769
 O224 O 0.93809 0.46258 0.43121
 O225 O 1.08176 0.48597 0.44532
 O226 O 1.01017 0.59902 0.49777
 O227 O 1.04862 0.49010 0.58787
 O228 O 1.03716 0.56816 0.43727
 O229 O 1.01438 0.55468 0.58024
 O230 O 0.93176 0.56174 0.53628
 O231 O 0.90143 0.50035 0.50985
 C232 C 0.97298 0.39504 0.53627
 C233 C 1.10444 0.46265 0.47186
 C234 C 0.96164 0.47039 0.39739
 C235 C 1.02923 0.60224 0.46060
 C236 C 1.03784 0.52816 0.60286
 C237 C 0.89797 0.53782 0.52869
 Zn238 Zn 0.47243 0.48966 0.94774
 Zn239 Zn 0.55218 0.52864 0.98949
 Zn240 Zn 0.46426 0.53578 1.03555
 Zn241 Zn 0.51104 0.44774 1.02731
 O242 O 0.49980 0.50061 1.00021
 O243 O 0.50200 0.51081 0.90116
 O244 O 0.55390 0.58235 1.01341
 O245 O 0.41136 0.54810 1.00971
 O246 O 0.56294 0.53726 0.93200
 O247 O 0.41905 0.51405 0.94536
 O248 O 0.48972 0.58903 1.04809
 O249 O 0.48625 0.44489 1.08037
 O250 O 0.59908 0.49978 1.01115
 O251 O 0.45193 0.50944 1.08808
 O252 O 0.56886 0.43770 1.03624
 O253 O 0.49025 0.40075 0.99773
 O254 O 0.46353 0.43182 0.93723
 C255 C 0.53948 0.52961 0.89807
 C256 C 0.52716 0.60485 1.03671
 C257 C 0.39622 0.53715 0.97197
 C258 C 0.46279 0.47140 1.10303
 C259 C 0.60250 0.46204 1.02942
 C260 C 0.47124 0.39767 0.96052
 C261 C 1.21623 0.40432 0.46711
 C262 C 1.23449 0.42136 0.42745
 C263 C 1.20923 0.45303 0.40399
 C264 C 1.16757 0.46624 0.41882
 C265 C 1.14943 0.44873 0.45779
 C266 C 1.17438 0.41793 0.48205
 H267 H 1.23399 0.38072 0.48726
 H268 H 1.22050 0.46735 0.37334
 H269 H 1.14940 0.49026 0.39930
 H270 H 1.16141 0.40398 0.51239
 C271 C 0.28451 0.59567 0.96698
 C272 C 0.26636 0.57873 0.92722
 C273 C 0.29165 0.54707 0.90377
 C274 C 0.33324 0.53375 0.91871
 C275 C 0.35127 0.55115 0.95779
 C276 C 0.32629 0.58196 0.98204
 H277 H 0.26672 0.61927 0.98713
 H278 H 0.28046 0.53284 0.87304
 H279 H 0.35145 0.50974 0.89919
 H280 H 0.33918 0.59583 1.01245
 C281 C -0.21627 0.90544 0.03310
 C282 C -0.23452 0.92248 0.07276
 C283 C -0.20913 0.95398 0.09638
 C284 C -0.16737 0.96708 0.08167
 C285 C -0.14926 0.94960 0.04267
 C286 C -0.17433 0.91892 0.01829
 H287 H -0.23414 0.88196 0.01284
 H288 H -0.22039 0.96825 0.12706
 H289 H -0.14910 0.99099 0.10129
 H290 H -0.16138 0.90501 -0.01207
 C291 C 0.70897 0.04584 0.59660
 C292 C 0.73426 0.07745 0.57304
 C293 C 0.71598 0.09445 0.53339
 C294 C 0.67409 0.08082 0.51854
 C295 C 0.64912 0.05004 0.54287
 C296 C 0.66727 0.03260 0.58186
 H297 H 0.72027 0.03160 0.62727
 H298 H 0.73377 0.11801 0.51317
 H299 H 0.66112 0.09472 0.48820
 H300 H 0.64905 0.00862 0.60144
 C301 C 0.40612 0.21014 0.45553
 C302 C 0.42921 0.23490 0.42324
 C303 C 0.46854 0.21608 0.40582
 C304 C 0.48338 0.17410 0.41952
 C305 C 0.45935 0.14957 0.45081
 C306 C 0.42084 0.16835 0.46884
 H307 H 0.37580 0.22189 0.47030
 H308 H 0.48845 0.23344 0.38174
 H309 H 0.51338 0.16064 0.40518
 H310 H 0.40156 0.15053 0.49328
 C311 C 0.90569 0.28927 0.54541
 C312 C 0.92897 0.26432 0.57737
 C313 C 0.96843 0.28305 0.59466
 C314 C 0.98326 0.32511 0.58111
 C315 C 0.95909 0.34980 0.55008
 C316 C 0.92040 0.33114 0.53224
 H317 H 0.87524 0.27761 0.53080
 H318 H 0.98848 0.26554 0.61849
 H319 H 1.01340 0.33847 0.59529
 H320 H 0.90099 0.34908 0.50801
 C321 C 0.03207 0.78392 -0.09457
 C322 C 0.07147 0.76524 -0.07719
 C323 C 0.09448 0.79007 -0.04489
 C324 C 0.07960 0.83180 -0.03152
 C325 C 0.04101 0.85044 -0.04950
 C326 C 0.01707 0.82584 -0.08082
 H327 H 0.01222 0.76650 -0.11867
 H328 H 0.12485 0.77843 -0.03015
 H329 H 0.09883 0.84968 -0.00706
 H330 H -0.01299 0.83919 -0.09513
 C331 C 0.53134 0.71706 1.09474
 C332 C 0.57067 0.73590 1.07727
 C333 C 0.59394 0.71095 1.04529
 C334 C 0.57938 0.66898 1.03230
 C335 C 0.54084 0.65020 1.05034
 C336 C 0.51666 0.67489 1.08136
 H337 H 0.51130 0.73456 1.11859
 H338 H 0.62428 0.72269 1.03052
 H339 H 0.59878 0.65105 1.00805
 H340 H 0.48662 0.66144 1.09568
 C341 C 0.41263 0.47095 1.21841
 C342 C 0.42157 0.42717 1.23232
 C343 C 0.44382 0.39851 1.20319
 C344 C 0.45699 0.41311 1.16152
 C345 C 0.44816 0.45679 1.14752
 C346 C 0.42574 0.48560 1.17642
 H347 H 0.39592 0.49406 1.24013
 H348 H 0.45049 0.36438 1.21219
 H349 H 0.47393 0.38983 1.14008
 H350 H 0.41857 0.51948 1.16670
 C351 C 0.55613 -0.10048 0.29655
 C352 C 0.57820 -0.07155 0.26753
 C353 C 0.58716 -0.02783 0.28168
 C354 C 0.57419 -0.01348 0.32383
 C355 C 0.55190 -0.04255 0.35259
 C356 C 0.54310 -0.08618 0.33836
 H357 H 0.54949 -0.13458 0.28738
 H358 H 0.60376 -0.00456 0.26004
 H359 H 0.58134 0.02036 0.33375
 H360 H 0.52630 -0.10965 0.35970
 C361 C -0.08723 1.02794 -0.21832
 C362 C -0.07830 1.07169 -0.23237
 C363 C -0.05620 1.10056 -0.20329
 C364 C -0.04317 1.08619 -0.16152
 C365 C -0.05198 1.04254 -0.14737
 C366 C -0.07425 1.01352 -0.17621
 H367 H -0.10384 1.00470 -0.24001
 H368 H -0.04957 1.13468 -0.21239
 H369 H -0.02636 1.10963 -0.14014
 H370 H -0.08140 0.97966 -0.16636
 C371 C 1.08821 0.52882 0.71818
 C372 C 1.07927 0.57262 0.73205
 C373 C 1.05696 0.60121 0.70292
 C374 C 1.04373 0.58652 0.66128
 C375 C 1.05254 0.54281 0.64732
 C376 C 1.07503 0.51407 0.67622
 H377 H 1.10497 0.50577 0.73990
 H378 H 1.05029 0.63536 0.71187
 H379 H 1.02675 0.60976 0.63986
 H380 H 1.08220 0.48018 0.66653
 C381 C 0.80402 0.61375 0.56242
 C382 C 0.77090 0.58294 0.57357
 C383 C 0.77932 0.53737 0.56866
 C384 C 0.82029 0.52275 0.55287
 C385 C 0.85389 0.55349 0.54281
 C386 C 0.84539 0.59913 0.54766
 H387 H 0.79822 0.64904 0.56635
 H388 H 0.75408 0.51318 0.57698
 H389 H 0.82608 0.48737 0.54961
 H390 H 0.87072 0.62347 0.54004
 C391 C 0.70073 0.38788 1.05226
 C392 C 0.72924 0.41673 1.07570
 C393 C 0.71559 0.46113 1.08212
 C394 C 0.67500 0.47605 1.06574
 C395 C 0.64634 0.44668 1.04399
 C396 C 0.65937 0.40250 1.03744
 H397 H 0.70916 0.35334 1.04711
 H398 H 0.73664 0.48490 1.09881
 H399 H 0.66546 0.51035 1.07106
 H400 H 0.63758 0.37935 1.02069
 C401 C 0.19986 1.11314 -0.05292
 C402 C 0.22833 1.08407 -0.07607
 C403 C 0.21475 1.03954 -0.08185
 C404 C 0.17427 1.02469 -0.06510
 C405 C 0.14564 1.05423 -0.04362
 C406 C 0.15859 1.09855 -0.03774
 H407 H 0.20826 1.14777 -0.04826
 H408 H 0.23579 1.01561 -0.09827
 H409 H 0.16478 0.99028 -0.06995
 H410 H 0.13680 1.12185 -0.02123
 C411 C 0.28488 -0.03919 0.41817
 C412 C 0.27123 -0.08368 0.42405
 C413 C 0.29968 -0.11274 0.44722
 C414 C 0.34099 -0.09818 0.46231
 C415 C 0.35401 -0.05390 0.45632
 C416 C 0.32541 -0.02436 0.43482
 H417 H 0.26386 -0.01527 0.40171
 H418 H 0.29123 -0.14734 0.45196
 H419 H 0.36276 -0.12147 0.47884
 H420 H 0.33496 0.01001 0.42990
 C421 C 0.58115 -0.21708 0.53985
 C422 C 0.57550 -0.23036 0.58419
 C423 C 0.55253 -0.20151 0.61300
 C424 C 0.53750 -0.16012 0.59835
 C425 C 0.54334 -0.14743 0.55424
 C426 C 0.56455 -0.17647 0.52495
 H427 H 0.59742 -0.23843 0.51613
 H428 H 0.54797 -0.20967 0.64747
 H429 H 0.52121 -0.13802 0.62145
 H430 H 0.56935 -0.16718 0.49071
 C431 C 1.07013 0.72100 0.46014
 C432 C 1.07539 0.72898 0.41481
 C433 C 1.06394 0.69564 0.38446
 C434 C 1.04862 0.65441 0.39929
 C435 C 1.04348 0.64632 0.44469
 C436 C 1.05377 0.68019 0.47496
 H437 H 1.07862 0.74645 0.48398
 H438 H 1.06807 0.70115 0.34936
 H439 H 1.04085 0.62885 0.37531
 H440 H 1.05033 0.67469 0.51015
 C441 C -0.08382 1.21578 0.04076
 C442 C -0.07740 1.22942 0.08491
 C443 C -0.05338 1.20109 0.11335
 C444 C -0.03795 1.15989 0.09855
 C445 C -0.04446 1.14690 0.05462
 C446 C -0.06682 1.17539 0.02567
 H447 H -0.10096 1.23673 0.01731
 H448 H -0.04821 1.20951 0.14767
 H449 H -0.02081 1.13817 0.12139
 H450 H -0.07219 1.16583 -0.00842
 C451 C 0.43611 0.30449 0.88423
 C452 C 0.42444 0.27120 0.91454
 C453 C 0.42970 0.27915 0.95988
 C454 C 0.44627 0.31985 0.97476
 C455 C 0.45678 0.35368 0.94453
 C456 C 0.45163 0.34563 0.89911
 H457 H 0.43198 0.29901 0.84913
 H458 H 0.42106 0.25373 0.98369
 H459 H 0.44971 0.32532 1.00995
 H460 H 0.45957 0.37117 0.87516
 C461 C 0.61616 0.56397 0.80527
 C462 C 0.58578 0.57526 0.77204
 C463 C 0.54028 0.57009 0.77997
 C464 C 0.52531 0.55399 0.82057
 C465 C 0.55560 0.54384 0.85431
 C466 C 0.60118 0.54890 0.84631
 H467 H 0.65139 0.56804 0.79981
 H468 H 0.51641 0.57843 0.75460
 H469 H 0.49000 0.55059 0.82598
 H470 H 0.62519 0.54122 0.87177
 C471 C 0.38474 0.06145 0.69625
 C472 C 0.41523 0.07214 0.72961
 C473 C 0.46068 0.06684 0.72158
 C474 C 0.47550 0.05124 0.68073
 C475 C 0.44511 0.04173 0.64685
 C476 C 0.39958 0.04687 0.65499
 H477 H 0.34956 0.06569 0.70175
 H478 H 0.48463 0.07480 0.74701
 H479 H 0.51079 0.04775 0.67524
 H480 H 0.37550 0.03967 0.62944
 C481 C 0.03907 0.93287 0.22148
 C482 C 0.08452 0.92765 0.22958
 C483 C 0.11504 0.93836 0.19626
 C484 C 0.10025 0.95290 0.15498
 C485 C 0.05472 0.95798 0.14679
 C486 C 0.02430 0.94843 0.18061
 H487 H 0.01510 0.92490 0.24688
 H488 H 0.15023 0.93418 0.20182
 H489 H 0.12435 0.96014 0.12947
 H490 H -0.01099 0.95187 0.17508
 C491 C 0.88497 0.43700 0.30425
 C492 C 0.91533 0.42569 0.27099
 C493 C 0.96085 0.43049 0.27902
 C494 C 0.97586 0.44628 0.31976
 C495 C 0.94557 0.45644 0.35352
 C496 C 0.89998 0.45174 0.34539
 H497 H 0.84973 0.43318 0.29873
 H498 H 0.98470 0.42207 0.25365
 H499 H 1.01119 0.44941 0.32526
 H500 H 0.87598 0.45945 0.37085
   
