data_POSCAR
  _audit_creation_date              2014-09-24
  _audit_creation_method            'ToBaCCo'
  _symmetry_space_group_name_H-M    'P1'
  _symmetry_Int_Tables_number       1
  _symmetry_cell_setting            triclinic
  loop_
  _symmetry_equiv_pos_as_xyz
 x,y,z
_cell_length_a 36.0353
_cell_length_b 37.8793
_cell_length_c 36.0299
_cell_angle_alpha 89.995800
_cell_angle_beta 90.014200
_cell_angle_gamma 90.002200
loop_
  _atom_site_label
  _atom_site_type_symbol
  _atom_site_fract_x
  _atom_site_fract_y
  _atom_site_fract_z
Si1 Si 0.24991 0.24995 0.25007
 Si2 Si 0.75001 0.75003 0.24997
 Si3 Si 0.74994 0.25010 0.75012
 Si4 Si 0.25003 0.75002 0.74992
 C5 C 0.05245 0.05275 0.01280
 H6 H 0.05325 0.05425 -0.01718
 C7 C 0.07421 0.07560 0.03406
 H8 H 0.09198 0.09471 0.02047
 C9 C 0.02798 0.02633 0.06725
 H10 H 0.00953 0.00751 0.08012
 C11 C 0.04928 0.04870 0.08953
 H12 H 0.04744 0.04677 0.11948
 N13 N 0.03027 0.02844 0.02959
 C14 C 0.01503 -0.05497 -0.05261
 H15 H -0.01494 -0.05642 -0.05337
 C16 C 0.03619 -0.07779 -0.07450
 H17 H 0.02253 -0.09681 -0.09232
 C18 C 0.06958 -0.02871 -0.02818
 H19 H 0.08253 -0.00995 -0.00971
 C20 C 0.09177 -0.05105 -0.04960
 H21 H 0.12172 -0.04915 -0.04784
 Zn22 Zn 0.00119 -0.00112 -0.00127
 N23 N 0.03192 -0.03075 -0.03039
 C24 C -0.02581 0.02660 -0.06963
 N25 N -0.02783 0.02864 -0.03196
 C26 C -0.04983 0.05297 -0.01496
 C27 C -0.07172 0.07587 -0.03602
 C28 C -0.04725 0.04903 -0.09172
 C29 C -0.01289 -0.05507 0.04992
 C30 C -0.03416 -0.07776 0.07186
 C31 C -0.08960 -0.05070 0.04704
 C32 C -0.06731 -0.02850 0.02557
 N33 N -0.02966 -0.03074 0.02774
 H34 H -0.00751 0.00775 -0.08266
 H35 H -0.05043 0.05441 0.01502
 H36 H -0.08938 0.09497 -0.02227
 H37 H -0.04567 0.04712 -0.12168
 H38 H 0.01708 -0.05667 0.05065
 H39 H -0.02059 -0.09684 0.08968
 H40 H -0.11954 -0.04862 0.04535
 H41 H -0.08016 -0.00966 0.00713
 C42 C 0.07491 -0.07570 -0.07306
 C43 C 0.07267 0.07346 0.07277
 C44 C -0.07286 -0.07542 0.07050
 C45 C -0.07051 0.07377 -0.07474
 C46 C 0.05253 0.55484 0.51498
 H47 H 0.05327 0.55627 0.48500
 C48 C 0.07444 0.57766 0.53613
 H49 H 0.09226 0.59667 0.52245
 C50 C 0.02810 0.52863 0.56956
 H51 H 0.00962 0.50989 0.58251
 C52 C 0.04955 0.55096 0.59173
 H53 H 0.04780 0.54909 0.62169
 N54 N 0.03031 0.53064 0.53189
 C55 C 0.01477 0.44692 0.45013
 H56 H -0.01521 0.44552 0.44950
 C57 C 0.03580 0.42400 0.42825
 H58 H 0.02204 0.40492 0.41057
 C59 C 0.06945 0.47323 0.47420
 H60 H 0.08250 0.49206 0.49252
 C61 C 0.09152 0.45078 0.45278
 H62 H 0.12148 0.45266 0.45439
 Zn63 Zn 0.00114 0.50102 0.50117
 N64 N 0.03178 0.47122 0.47215
 C65 C -0.02570 0.52844 0.43265
 N66 N -0.02783 0.53067 0.47030
 C67 C -0.04994 0.55504 0.48709
 C68 C -0.07184 0.57777 0.46583
 C69 C -0.04714 0.55068 0.41036
 C70 C -0.01300 0.44721 0.55248
 C71 C -0.03430 0.42442 0.57428
 C72 C -0.08972 0.45139 0.54930
 C73 C -0.06740 0.47369 0.52797
 N74 N -0.02975 0.47152 0.53026
 H75 H -0.00731 0.50956 0.41978
 H76 H -0.05063 0.55664 0.51706
 H77 H -0.08960 0.59689 0.47941
 H78 H -0.04548 0.54860 0.38042
 H79 H 0.01697 0.44565 0.55329
 H80 H -0.02075 0.40531 0.59208
 H81 H -0.11965 0.45339 0.54747
 H82 H -0.08024 0.49251 0.50949
 C83 C 0.07452 0.42606 0.42950
 C84 C 0.07302 0.57559 0.57485
 C85 C -0.07300 0.42664 0.57274
 C86 C -0.07052 0.57544 0.42712
 C87 C 0.55003 0.05298 0.51485
 H88 H 0.55065 0.05440 0.48487
 C89 C 0.57194 0.07588 0.53590
 H90 H 0.58962 0.09495 0.52214
 C91 C 0.52596 0.02667 0.56953
 H92 H 0.50763 0.00784 0.58257
 C93 C 0.54741 0.04909 0.59161
 H94 H 0.54581 0.04721 0.62157
 N95 N 0.52800 0.02869 0.53185
 C96 C 0.51293 -0.05506 0.45005
 H97 H 0.48296 -0.05662 0.44933
 C98 C 0.53416 -0.07779 0.42813
 H99 H 0.52056 -0.09688 0.41034
 C100 C 0.56740 -0.02854 0.47436
 H101 H 0.58029 -0.00970 0.49278
 C102 C 0.58965 -0.05079 0.45291
 H103 H 0.61960 -0.04874 0.45459
 Zn104 Zn 0.49894 -0.00106 0.50119
 N105 N 0.52975 -0.03073 0.47219
 C106 C 0.47217 0.02638 0.43265
 N107 N 0.46989 0.02851 0.47031
 C108 C 0.44774 0.05285 0.48708
 C109 C 0.42598 0.07570 0.46581
 C110 C 0.45088 0.04875 0.41035
 C111 C 0.48503 -0.05488 0.55256
 C112 C 0.46385 -0.07767 0.57446
 C113 C 0.40830 -0.05089 0.54954
 C114 C 0.43051 -0.02858 0.52811
 N115 N 0.46817 -0.03065 0.53033
 H116 H 0.49060 0.00754 0.41979
 H117 H 0.44694 0.05437 0.51706
 H118 H 0.40823 0.09483 0.47938
 H119 H 0.45270 0.04679 0.38041
 H120 H 0.51501 -0.05635 0.55332
 H121 H 0.47748 -0.09671 0.59228
 H122 H 0.37835 -0.04896 0.54778
 H123 H 0.41759 -0.00981 0.50963
 C124 C 0.57287 -0.07551 0.42948
 C125 C 0.57070 0.07381 0.57462
 C126 C 0.42513 -0.07555 0.57301
 C127 C 0.42750 0.07353 0.42710
 C128 C 0.54990 0.55500 0.01290
 H129 H 0.55062 0.55653 -0.01707
 C130 C 0.57184 0.57773 0.03413
 H131 H 0.58965 0.59679 0.02051
 C132 C 0.52557 0.52854 0.06739
 H133 H 0.50713 0.50972 0.08029
 C134 C 0.54704 0.55078 0.08964
 H135 H 0.54536 0.54877 0.11959
 N136 N 0.52773 0.53070 0.02973
 C137 C 0.51275 0.44711 -0.05226
 H138 H 0.48277 0.44562 -0.05309
 C139 C 0.53399 0.42423 -0.07400
 H140 H 0.52041 0.40512 -0.09176
 C141 C 0.56719 0.47352 -0.02778
 H142 H 0.58007 0.49234 -0.00933
 C143 C 0.58947 0.45112 -0.04904
 H144 H 0.61941 0.45304 -0.04719
 Zn145 Zn 0.49871 0.50105 -0.00107
 N146 N 0.52954 0.47143 -0.03009
 C147 C 0.47180 0.52857 -0.06953
 N148 N 0.46961 0.53066 -0.03187
 C149 C 0.44744 0.55493 -0.01501
 C150 C 0.42556 0.57774 -0.03620
 C151 C 0.45039 0.55090 -0.09175
 C152 C 0.48494 0.44706 0.05007
 C153 C 0.46385 0.42422 0.07200
 C154 C 0.40820 0.45108 0.04740
 C155 C 0.43033 0.47344 0.02593
 N156 N 0.46799 0.47136 0.02800
 H157 H 0.49024 0.50977 -0.08245
 H158 H 0.44670 0.55641 0.01497
 H159 H 0.40778 0.59680 -0.02257
 H160 H 0.45213 0.54897 -0.12170
 H161 H 0.51492 0.44559 0.05071
 H162 H 0.47756 0.40514 0.08971
 H163 H 0.37825 0.45301 0.04578
 H164 H 0.41733 0.49227 0.00757
 C165 C 0.57270 0.42636 -0.07243
 C166 C 0.57049 0.57547 0.07284
 C167 C 0.42513 0.42636 0.07073
 C168 C 0.42698 0.57560 -0.07492
 C169 C 0.18113 -0.18302 -0.18002
 N170 N 0.19682 -0.16286 -0.15315
 N171 N 0.17588 -0.14199 -0.13199
 C172 C 0.13861 -0.14065 -0.13706
 N173 N 0.12291 -0.16082 -0.16391
 N174 N 0.14386 -0.18169 -0.18507
 C175 C 0.20373 -0.20525 -0.20300
 C176 C 0.22278 -0.22379 -0.22237
 C177 C 0.11611 -0.11796 -0.11447
 C178 C 0.09729 -0.09876 -0.09556
 C179 C 0.17983 0.31840 0.32205
 N180 N 0.14272 0.32086 0.31627
 N181 N 0.12197 0.34179 0.33756
 C182 C 0.13769 0.36088 0.36526
 N183 N 0.17479 0.35840 0.37104
 N184 N 0.19555 0.33748 0.34976
 C185 C 0.20224 0.29613 0.29893
 C186 C 0.22118 0.27758 0.27946
 C187 C 0.11541 0.38365 0.38796
 C188 C 0.09675 0.40292 0.40695
 C189 C 0.67947 -0.18182 0.32182
 N190 N 0.69510 -0.16169 0.34874
 N191 N 0.67408 -0.14103 0.37005
 C192 C 0.63679 -0.13988 0.36508
 N193 N 0.62115 -0.16002 0.33817
 N194 N 0.64217 -0.18068 0.31686
 C195 C 0.70213 -0.20388 0.29873
 C196 C 0.72121 -0.22233 0.27930
 C197 C 0.61421 -0.11741 0.38782
 C198 C 0.59532 -0.09839 0.40686
 C199 C 0.67940 0.31859 -0.17838
 N200 N 0.69527 0.34214 -0.15488
 N201 N 0.67424 0.36310 -0.13391
 C202 C 0.63671 0.36114 -0.13580
 N203 N 0.62083 0.33758 -0.15929
 N204 N 0.64187 0.31662 -0.18027
 C205 C 0.70206 0.29630 -0.20123
 C206 C 0.72114 0.27773 -0.22055
 C207 C 0.61409 0.38392 -0.11344
 C208 C 0.59517 0.40320 -0.09472
 C209 C -0.17807 0.18146 -0.17997
 N210 N -0.15084 0.16189 -0.19583
 N211 N -0.12954 0.14094 -0.17511
 C212 C -0.13482 0.13894 -0.13790
 N213 N -0.16204 0.15852 -0.12203
 N214 N -0.18334 0.17947 -0.14276
 C215 C -0.20119 0.20378 -0.20234
 C216 C -0.22067 0.22237 -0.22123
 C217 C -0.11209 0.11615 -0.11564
 C218 C -0.09308 0.09689 -0.09698
 C219 C -0.17815 0.68182 0.32051
 N220 N -0.14997 0.66313 0.30514
 N221 N -0.12867 0.64245 0.32616
 C222 C -0.13491 0.63985 0.36318
 N223 N -0.16308 0.65855 0.37855
 N224 N -0.18438 0.67923 0.35753
 C225 C -0.20123 0.70390 0.29783
 C226 C -0.22066 0.72236 0.27875
 C227 C -0.11217 0.61736 0.38575
 C228 C -0.09314 0.59833 0.40465
 C229 C 0.32143 0.18127 0.32042
 N230 N 0.34339 0.15641 0.30458
 N231 N 0.36439 0.13544 0.32559
 C232 C 0.36406 0.13870 0.36308
 N233 N 0.34210 0.16357 0.37892
 N234 N 0.32110 0.18454 0.35791
 C235 C 0.29857 0.20361 0.29781
 C236 C 0.27924 0.22222 0.27878
 C237 C 0.38644 0.11592 0.38569
 C238 C 0.40519 0.09666 0.40461
 C239 C 0.32007 0.68300 -0.18117
 N240 N 0.34774 0.66375 -0.19669
 N241 N 0.36890 0.64287 -0.17575
 C242 C 0.36301 0.64059 -0.13865
 N243 N 0.33534 0.65985 -0.12312
 N244 N 0.31418 0.68074 -0.14406
 C245 C 0.29710 0.70525 -0.20378
 C246 C 0.27773 0.72380 -0.22283
 C247 C 0.38559 0.61787 -0.11616
 C248 C 0.40449 0.59867 -0.09733
 C249 C -0.17960 -0.18160 0.17819
 N250 N -0.14306 -0.18887 0.17339
 N251 N -0.12204 -0.16819 0.15209
 C252 C -0.13694 -0.13962 0.13495
 N253 N -0.17348 -0.13237 0.13974
 N254 N -0.19449 -0.15305 0.16104
 C255 C -0.20221 -0.20374 0.20125
 C256 C -0.22124 -0.22225 0.22067
 C257 C -0.11429 -0.11722 0.11219
 C258 C -0.09535 -0.09825 0.09315
 C259 C -0.17983 0.31914 0.67890
 N260 N -0.14709 0.30734 0.66509
 N261 N -0.12606 0.32833 0.64412
 C262 C -0.13715 0.36174 0.63634
 N263 N -0.16990 0.37353 0.65014
 N264 N -0.19092 0.35255 0.67111
 C265 C -0.20238 0.29667 0.70166
 C266 C -0.22138 0.27796 0.72090
 C267 C -0.11448 0.38440 0.61390
 C268 C -0.09552 0.40359 0.59511
 C269 C 0.31886 -0.18288 0.67992
 N270 N 0.30289 -0.15988 0.65589
 N271 N 0.32383 -0.13899 0.63474
 C272 C 0.36137 -0.14047 0.63699
 N273 N 0.37734 -0.16348 0.66101
 N274 N 0.35640 -0.18437 0.68216
 C275 C 0.29629 -0.20516 0.70289
 C276 C 0.27726 -0.22374 0.72225
 C277 C 0.38389 -0.11778 0.61442
 C278 C 0.40273 -0.09860 0.59551
 C279 C 0.31969 0.31887 0.17827
 N280 N 0.35607 0.31147 0.17258
 N281 N 0.37681 0.33243 0.15129
 C282 C 0.36178 0.36141 0.13507
 N283 N 0.32540 0.36880 0.14076
 N284 N 0.30467 0.34784 0.16204
 C285 C 0.29739 0.29646 0.20134
 C286 C 0.27854 0.27778 0.22076
 C287 C 0.38413 0.38410 0.11234
 C288 C 0.40285 0.40330 0.09332
 C289 C 0.17862 0.18130 0.17946
 N290 N 0.15138 0.16147 0.19495
 N291 N 0.13043 0.14049 0.17392
 C292 C 0.13608 0.13871 0.13675
 N293 N 0.16330 0.15855 0.12125
 N294 N 0.18426 0.17953 0.14228
 C295 C 0.20141 0.20362 0.20216
 C296 C 0.22068 0.22222 0.22126
 C297 C 0.11371 0.11590 0.11416
 C298 C 0.09498 0.09661 0.09525
 C299 C 0.18003 0.68301 0.68097
 N300 N 0.18773 0.67857 0.64442
 N301 N 0.16657 0.65768 0.62348
 C302 C 0.13707 0.64060 0.63847
 N303 N 0.12937 0.64505 0.67502
 N304 N 0.15053 0.66594 0.69595
 C305 C 0.20299 0.70525 0.70359
 C306 C 0.22235 0.72380 0.72266
 C307 C 0.11447 0.61788 0.61601
 C308 C 0.09554 0.59867 0.59721
 C309 C 0.67816 0.18151 0.67994
 N310 N 0.68656 0.17582 0.64374
 N311 N 0.66529 0.15487 0.62297
 C312 C 0.63499 0.13899 0.63778
 N313 N 0.62658 0.14469 0.67398
 N314 N 0.64785 0.16563 0.69475
 C315 C 0.70122 0.20380 0.70239
 C316 C 0.72064 0.22238 0.72136
 C317 C 0.61227 0.11620 0.61552
 C318 C 0.59327 0.09694 0.59686
 C319 C 0.67822 0.68182 0.17939
 N320 N 0.64897 0.66442 0.19444
 N321 N 0.62766 0.64375 0.17342
 C322 C 0.63495 0.63987 0.13671
 N323 N 0.66419 0.65728 0.12167
 N324 N 0.68551 0.67795 0.14269
 C325 C 0.70129 0.70389 0.20208
 C326 C 0.72071 0.72236 0.22117
 C327 C 0.61219 0.61739 0.11416
 C328 C 0.59313 0.59836 0.09528
   
