data_POSCAR
  _audit_creation_date              2014-09-24
  _audit_creation_method            'ToBaCCo'
  _symmetry_space_group_name_H-M    'P1'
  _symmetry_Int_Tables_number       1
  _symmetry_cell_setting            triclinic
  loop_
  _symmetry_equiv_pos_as_xyz
 x,y,z
_cell_length_a 38.6196
_cell_length_b 38.1500
_cell_length_c 38.0131
_cell_angle_alpha 90.149300
_cell_angle_beta 90.030900
_cell_angle_gamma 89.924700
loop_
  _atom_site_label
  _atom_site_type_symbol
  _atom_site_fract_x
  _atom_site_fract_y
  _atom_site_fract_z
N1 N 0.18864 1.26092 0.16397
 N2 N 0.16358 1.25938 0.18738
 C3 C 0.14042 1.28498 0.18069
 C4 C 0.15184 1.30334 0.15176
 C5 C 0.18234 1.28751 0.14162
 H6 H 0.11672 1.28946 0.19517
 H7 H 0.19825 1.29425 0.11923
 Cu8 Cu 0.16312 1.22311 0.22329
 Cu9 Cu 0.22660 1.22726 0.16304
 Cu10 Cu 0.22662 1.16299 0.22742
 N11 N 0.16358 1.18721 0.25959
 N12 N 0.18867 1.16387 0.26113
 C13 C 0.18235 1.14149 0.28770
 C14 C 0.15181 1.15155 0.30352
 C15 C 0.14039 1.18046 0.28517
 H16 H 0.19826 1.11912 0.29440
 H17 H 0.11664 1.19486 0.28962
 N18 N 0.26275 1.16642 0.19100
 N19 N 0.26273 1.19089 0.16646
 C20 C 0.28932 1.18495 0.14428
 C21 C 0.30674 1.15554 0.15556
 C22 C 0.28935 1.14430 0.18506
 H23 H 0.29482 1.19997 0.12086
 H24 H 0.29488 1.12094 0.20012
 H25 H 0.20009 1.18640 0.18641
 H26 H 0.22539 1.21587 0.21607
 N27 N 0.80902 0.73798 0.16641
 N28 N 0.83241 0.73783 0.19158
 C29 C 0.85535 0.71192 0.18528
 C30 C 0.84557 0.69508 0.15475
 C31 C 0.81622 0.71216 0.14331
 H32 H 0.87803 0.70638 0.20102
 H33 H 0.80186 0.70689 0.11944
 Cu34 Cu 0.83221 0.77272 0.22901
 Cu35 Cu 0.77238 0.77291 0.16428
 Cu36 Cu 0.77248 0.83737 0.22851
 N37 N 0.83257 0.81030 0.26373
 N38 N 0.80920 0.83543 0.26347
 C39 C 0.81650 0.85866 0.28916
 C40 C 0.84588 0.84730 0.30626
 C41 C 0.85562 0.81673 0.28958
 H42 H 0.80218 0.88253 0.29427
 H43 H 0.87831 0.80104 0.29515
 N44 N 0.73738 0.83499 0.19099
 N45 N 0.73735 0.81040 0.16647
 C46 C 0.71127 0.81673 0.14377
 C47 C 0.69424 0.84656 0.15471
 C48 C 0.71132 0.85761 0.18455
 H49 H 0.70567 0.80147 0.12045
 H50 H 0.70576 0.88096 0.19972
 H51 H 0.80043 0.81169 0.18971
 H52 H 0.77105 0.78434 0.21742
 N53 N 0.80965 1.26131 -0.16501
 N54 N 0.83274 1.26177 -0.19043
 C55 C 0.85589 1.28738 -0.18389
 C56 C 0.84656 1.30368 -0.15292
 C57 C 0.81725 1.28662 -0.14149
 H58 H 0.87833 1.29311 -0.19986
 H59 H 0.80311 1.29164 -0.11744
 Cu60 Cu 0.83190 1.22791 -0.22879
 Cu61 Cu 0.77270 1.22684 -0.16335
 Cu62 Cu 0.77277 1.16270 -0.22775
 N63 N 0.83276 1.18977 -0.26285
 N64 N 0.80971 1.16441 -0.26238
 C65 C 0.81730 1.14101 -0.28785
 C66 C 0.84654 1.15252 -0.30502
 C67 C 0.85589 1.18335 -0.28862
 H68 H 0.80319 1.11704 -0.29286
 H69 H 0.87830 1.19930 -0.29438
 N70 N 0.73741 1.16527 -0.19056
 N71 N 0.73736 1.18980 -0.16599
 C72 C 0.71104 1.18369 -0.14356
 C73 C 0.69388 1.15407 -0.15474
 C74 C 0.71113 1.14290 -0.18443
 H75 H 0.70539 1.19892 -0.12023
 H76 H 0.70555 1.11962 -0.19969
 H77 H 0.80101 1.18858 -0.18930
 H78 H 0.77093 1.21575 -0.21658
 N79 N 0.19039 0.73843 -0.16563
 N80 N 0.16614 0.73913 -0.18994
 C81 C 0.14322 0.71329 -0.18363
 C82 C 0.15393 0.69561 -0.15398
 C83 C 0.18378 0.71212 -0.14306
 H84 H 0.11998 0.70833 -0.19871
 H85 H 0.19885 0.70619 -0.11984
 Cu86 Cu 0.16596 0.77521 -0.22597
 Cu87 Cu 0.22736 0.77313 -0.16358
 Cu88 Cu 0.22701 0.83763 -0.22789
 N89 N 0.16579 0.81128 -0.26200
 N90 N 0.18989 0.83563 -0.26263
 C91 C 0.18309 0.85820 -0.28893
 C92 C 0.15329 0.84719 -0.30553
 C93 C 0.14277 0.81754 -0.28791
 H94 H 0.19803 0.88143 -0.29480
 H95 H 0.11962 0.80240 -0.29294
 N96 N 0.26233 0.83509 -0.19048
 N97 N 0.26248 0.81052 -0.16603
 C98 C 0.28871 0.81679 -0.14349
 C99 C 0.30571 0.84652 -0.15444
 C100 C 0.28846 0.85761 -0.18411
 H101 H 0.29443 0.80157 -0.12024
 H102 H 0.29394 0.88094 -0.19920
 H103 H 0.20026 0.81313 -0.18782
 H104 H 0.22764 0.78476 -0.21661
 Si105 Si 0.50003 1.00065 0.00007
 Si106 Si 0.00087 0.50012 1.00037
 Si107 Si 1.00049 0.00024 0.50004
 C108 C 0.06651 0.38785 1.05575
 C109 C 0.10623 0.38801 1.06120
 C110 C 0.10059 0.37963 1.10029
 C111 C 0.06115 0.37911 1.09510
 C112 C 0.06554 0.42708 1.06496
 C113 C 0.05989 0.41872 1.10404
 C114 C 0.10499 0.42766 1.07011
 C115 C 0.09968 0.41885 1.10955
 C116 C 0.11966 0.35252 1.11948
 C117 C 0.13494 0.32963 1.13484
 C118 C 0.04532 0.45250 1.04472
 C119 C 0.02802 0.47234 1.02747
 H120 H 0.05266 0.37540 1.03339
 H121 H 0.12548 0.37506 1.04379
 H122 H 0.04329 0.35888 1.10555
 H123 H 0.04063 0.43169 1.12141
 H124 H 0.12280 0.44791 1.05962
 H125 H 0.11354 0.43127 1.13193
 C126 C -0.10378 0.57393 1.06684
 C127 C -0.10199 0.57921 1.10727
 C128 C -0.10017 0.61903 1.10157
 C129 C -0.10229 0.61415 1.06150
 C130 C -0.06404 0.57269 1.06567
 C131 C -0.06227 0.61251 1.06002
 C132 C -0.06189 0.57754 1.10574
 C133 C -0.06043 0.61776 1.10037
 C134 C -0.11994 0.64549 1.12107
 C135 C -0.13586 0.66784 1.13665
 C136 C -0.04347 0.54769 1.04513
 C137 C -0.02611 0.52801 1.02768
 H138 H -0.12137 0.55562 1.05283
 H139 H -0.11856 0.56583 1.12693
 H140 H -0.11911 0.62949 1.04352
 H141 H -0.04572 0.62594 1.04037
 H142 H -0.04505 0.56218 1.12369
 H143 H -0.04281 0.63606 1.11436
 C144 C -0.08830 0.43519 0.90560
 C145 C -0.07257 0.40464 0.88385
 C146 C -0.09916 0.37961 0.90026
 C147 C -0.11521 0.40972 0.92168
 C148 C -0.06333 0.42641 0.93580
 C149 C -0.08991 0.40137 0.95218
 C150 C -0.04730 0.39629 0.91438
 C151 C -0.07417 0.37089 0.93047
 C152 C -0.11884 0.35305 0.88087
 C153 C -0.13476 0.33075 0.86528
 C154 C -0.04301 0.45177 0.95608
 C155 C -0.02585 0.47179 0.97332
 H156 H -0.09386 0.46193 0.89562
 H157 H -0.06566 0.40567 0.85553
 H158 H -0.14336 0.41493 0.92446
 H159 H -0.09683 0.40030 0.98050
 H160 H -0.01915 0.39105 0.91160
 H161 H -0.06857 0.34416 0.94049
 C162 C 0.10446 0.57556 0.93519
 C163 C 0.10391 0.57950 0.89460
 C164 C 0.10048 0.61939 0.89913
 C165 C 0.10135 0.61584 0.93937
 C166 C 0.06476 0.57297 0.93498
 C167 C 0.06138 0.61287 0.93947
 C168 C 0.06387 0.57649 0.89474
 C169 C 0.06079 0.61678 0.89895
 C170 C 0.11999 0.64589 0.87964
 C171 C 0.13566 0.66828 0.86407
 C172 C 0.04449 0.54790 0.95551
 C173 C 0.02739 0.52814 0.97299
 H174 H 0.12217 0.55830 0.95032
 H175 H 0.12165 0.56610 0.87592
 H176 H 0.11697 0.63231 0.95752
 H177 H 0.04367 0.62632 0.95814
 H178 H 0.04823 0.56002 0.87662
 H179 H 0.04306 0.63404 0.88385
 C180 C 1.09596 0.04976 0.40597
 C181 C 1.08056 0.06577 0.37201
 C182 C 1.10036 0.09988 0.37954
 C183 C 1.11609 0.08417 0.41313
 C184 C 1.06514 0.06454 0.42683
 C185 C 1.08492 0.09864 0.43444
 C186 C 1.04947 0.08027 0.39322
 C187 C 1.06954 0.11467 0.40039
 C188 C 1.11950 0.11912 0.35252
 C189 C 1.13485 0.13454 0.32972
 C190 C 1.04485 0.04436 0.45222
 C191 C 1.02754 0.02718 0.47208
 H192 H 1.10665 0.02286 0.40857
 H193 H 1.07895 0.05245 0.34606
 H194 H 1.14372 0.08602 0.42098
 H195 H 1.08651 0.11191 0.46041
 H196 H 1.02185 0.07843 0.38533
 H197 H 1.05887 0.14157 0.39779
 C198 C 1.10134 -0.07933 0.56675
 C199 C 1.11198 -0.06576 0.60367
 C200 C 1.10046 -0.10085 0.61954
 C201 C 1.09014 -0.11477 0.58306
 C202 C 1.06462 -0.06508 0.57298
 C203 C 1.05309 -0.10017 0.58885
 C204 C 1.07497 -0.05122 0.60948
 C205 C 1.06374 -0.08658 0.62571
 C206 C 1.12005 -0.12027 0.64613
 C207 C 1.13583 -0.13577 0.66859
 C208 C 1.04429 -0.04457 0.54785
 C209 C 1.02714 -0.02711 0.52806
 H210 H 1.11654 -0.07610 0.54220
 H211 H 1.13641 -0.05182 0.61006
 H212 H 1.09661 -0.14113 0.57251
 H213 H 1.02865 -0.11409 0.58247
 H214 H 1.06851 -0.02487 0.62006
 H215 H 1.04850 -0.08976 0.65025
 C216 C 0.93693 -0.10453 0.42289
 C217 C 0.89685 -0.10509 0.42056
 C218 C 0.89947 -0.10028 0.38053
 C219 C 0.93921 -0.10005 0.38246
 C220 C 0.93566 -0.06447 0.42692
 C221 C 0.93825 -0.05971 0.38688
 C222 C 0.89593 -0.06468 0.42501
 C223 C 0.89823 -0.06022 0.38458
 C224 C 0.87963 -0.11978 0.35411
 C225 C 0.86362 -0.13542 0.33185
 C226 C 0.95621 -0.04405 0.45202
 C227 C 0.97355 -0.02674 0.47185
 H228 H 0.95308 -0.12251 0.43895
 H229 H 0.87959 -0.12399 0.43410
 H230 H 0.95680 -0.11480 0.36468
 H231 H 0.95549 -0.04083 0.37330
 H232 H 0.87836 -0.04992 0.44280
 H233 H 0.88211 -0.04221 0.36853
 C234 C 0.94065 0.06188 0.61349
 C235 C 0.93953 0.10234 0.61646
 C236 C 0.89997 0.10051 0.62027
 C237 C 0.90082 0.06033 0.61767
 C238 C 0.93598 0.06501 0.57348
 C239 C 0.89642 0.06316 0.57727
 C240 C 0.93517 0.10519 0.57604
 C241 C 0.89526 0.10368 0.58026
 C242 C 0.88022 0.11985 0.64689
 C243 C 0.86426 0.13537 0.66929
 C244 C 0.95644 0.04471 0.54818
 C245 C 0.97371 0.02742 0.52824
 H246 H 0.95953 0.04447 0.62689
 H247 H 0.95703 0.11866 0.63286
 H248 H 0.88648 0.04210 0.63509
 H249 H 0.87893 0.04682 0.56087
 H250 H 0.94952 0.12340 0.55861
 H251 H 0.87636 0.12111 0.56691
 C252 C 0.42492 1.06481 0.10601
 C253 C 0.42207 1.10536 0.10655
 C254 C 0.38266 1.10215 0.10211
 C255 C 0.38511 1.06195 0.10189
 C256 C 0.42836 1.06594 0.06577
 C257 C 0.38893 1.06278 0.06138
 C258 C 0.42594 1.10614 0.06595
 C259 C 0.38613 1.10325 0.06186
 C260 C 0.35643 1.12182 0.12181
 C261 C 0.33413 1.13748 0.13748
 C262 C 0.45301 1.04530 0.04502
 C263 C 0.47244 1.02783 0.02744
 H264 H 0.44116 1.04875 0.12391
 H265 H 0.43540 1.12310 0.12537
 H266 H 0.36804 1.04400 0.11689
 H267 H 0.37555 1.04505 0.04259
 H268 H 0.44302 1.12406 0.05093
 H269 H 0.36988 1.11927 0.04393
 C270 C 0.61085 1.06236 -0.06101
 C271 C 0.61489 1.06123 -0.10150
 C272 C 0.61745 1.10142 -0.10176
 C273 C 0.61376 1.10281 -0.06154
 C274 C 0.57146 1.06569 -0.06562
 C275 C 0.57397 1.10587 -0.06585
 C276 C 0.57511 1.06427 -0.10584
 C277 C 0.57806 1.10481 -0.10643
 C278 C 0.64388 1.12079 -0.12130
 C279 C 0.66636 1.13622 -0.13683
 C280 C 0.54678 1.04521 -0.04490
 C281 C 0.52743 1.02781 -0.02732
 H282 H 0.62408 1.04469 -0.04212
 H283 H 0.63199 1.04309 -0.11637
 H284 H 0.62993 1.11887 -0.04354
 H285 H 0.55685 1.12400 -0.05098
 H286 H 0.55891 1.04820 -0.12382
 H287 H 0.56490 1.12249 -0.12535
 C288 C 0.42637 0.93402 -0.10554
 C289 C 0.42132 0.89374 -0.10363
 C290 C 0.38200 0.89945 -0.10120
 C291 C 0.38665 0.93937 -0.10343
 C292 C 0.42813 0.93534 -0.06518
 C293 C 0.38881 0.94098 -0.06281
 C294 C 0.42352 0.89542 -0.06291
 C295 C 0.38380 0.90079 -0.06084
 C296 C 0.35556 0.87999 -0.12076
 C297 C 0.33314 0.86448 -0.13637
 C298 C 0.45294 0.95590 -0.04459
 C299 C 0.47243 0.97337 -0.02713
 H300 H 0.44418 0.94791 -0.12368
 H301 H 0.43438 0.87408 -0.12064
 H302 H 0.37120 0.95722 -0.12031
 H303 H 0.37570 0.96062 -0.04580
 H304 H 0.43898 0.87758 -0.04603
 H305 H 0.36602 0.88692 -0.04268
 C306 C 0.59737 0.90891 0.04916
 C307 C 0.62697 0.92506 0.07133
 C308 C 0.61818 0.89968 0.10132
 C309 C 0.58893 0.88320 0.07945
 C310 C 0.57212 0.93562 0.06531
 C311 C 0.56324 0.91025 0.09529
 C312 C 0.60138 0.95205 0.08719
 C313 C 0.59294 0.92638 0.11750
 C314 C 0.64456 0.88016 0.12091
 C315 C 0.66692 0.86459 0.13656
 C316 C 0.54732 0.95616 0.04471
 C317 C 0.52779 0.97357 0.02726
 H318 H 0.59890 0.90195 0.02082
 H319 H 0.65344 0.93097 0.06166
 H320 H 0.58411 0.85467 0.07648
 H321 H 0.53674 0.90439 0.10490
 H322 H 0.60622 0.98058 0.09015
 H323 H 0.59143 0.93334 0.14583
   
