data_POSCAR
  _audit_creation_date              2014-09-24
  _audit_creation_method            'ToBaCCo'
  _symmetry_space_group_name_H-M    'P1'
  _symmetry_Int_Tables_number       1
  _symmetry_cell_setting            triclinic
  loop_
  _symmetry_equiv_pos_as_xyz
 x,y,z
_cell_length_a 51.3696
_cell_length_b 30.4526
_cell_length_c 16.7036
_cell_angle_alpha 89.993700
_cell_angle_beta 90.021700
_cell_angle_gamma 89.998800
loop_
  _atom_site_label
  _atom_site_type_symbol
  _atom_site_fract_x
  _atom_site_fract_y
  _atom_site_fract_z
C1 C 0.72909 0.26738 0.54403
 C2 C 0.72918 0.26729 0.45955
 C3 C 0.75041 0.24957 0.41805
 C4 C 0.77163 0.23192 0.45984
 C5 C 0.77159 0.23210 0.54450
 C6 C 0.75030 0.24980 0.58596
 H7 H 0.75025 0.24991 0.65098
 H8 H 0.75037 0.24955 0.35307
 C9 C 0.22920 0.76728 0.54441
 C10 C 0.22926 0.76779 0.46006
 C11 C 0.25047 0.75030 0.41821
 C12 C 0.27162 0.73228 0.45972
 C13 C 0.27158 0.73171 0.54422
 C14 C 0.25034 0.74925 0.58605
 H15 H 0.25020 0.74891 0.65102
 H16 H 0.25051 0.75071 0.35327
 C17 C 0.27058 0.26684 -0.54256
 C18 C 0.27036 0.26759 -0.45824
 C19 C 0.24906 0.25034 -0.41640
 C20 C 0.22791 0.23226 -0.45792
 C21 C 0.22813 0.23149 -0.54258
 C22 C 0.24948 0.24880 -0.58425
 H23 H 0.24973 0.24827 -0.64922
 H24 H 0.24900 0.25103 -0.35143
 C25 C -0.22945 0.76686 -0.54272
 C26 C -0.22958 0.76750 -0.45839
 C27 C -0.25080 0.75002 -0.41659
 C28 C -0.27194 0.73187 -0.45816
 C29 C -0.27181 0.73122 -0.54283
 C30 C -0.25052 0.74876 -0.58446
 H31 H -0.25031 0.74835 -0.64943
 H32 H -0.25083 0.75058 -0.35162
 N33 N -0.02748 1.04828 -0.14086
 N34 N -0.04705 1.05414 -0.19099
 N35 N 0.02727 1.07874 -0.08485
 N36 N 0.04680 1.10633 -0.09558
 N37 N 0.02729 1.04828 -0.14053
 N38 N 0.04682 1.05428 -0.19072
 N39 N -0.02752 1.07872 -0.08515
 N40 N -0.04712 1.10616 -0.09578
 C41 C -0.05904 1.09027 -0.16188
 C42 C 0.05874 1.09051 -0.16168
 N43 N 0.02708 1.04782 0.14305
 N44 N 0.04671 1.05336 0.19301
 N45 N -0.02767 1.07846 0.08735
 N46 N -0.04727 1.10591 0.09819
 N47 N -0.02769 1.04782 0.14270
 N48 N -0.04727 1.05353 0.19276
 N49 N 0.02713 1.07844 0.08766
 N50 N 0.04682 1.10570 0.09835
 Mn51 Mn -0.00020 1.07912 0.00126
 C52 C 0.05875 1.08951 0.16419
 C53 C -0.05924 1.08980 0.16405
 N54 N 0.02726 0.95368 -0.14098
 N55 N 0.04684 0.94789 -0.19105
 N56 N -0.02756 0.92307 -0.08598
 N57 N -0.04718 0.89569 -0.09692
 N58 N -0.02751 0.95369 -0.14136
 N59 N -0.04709 0.94803 -0.19155
 N60 N 0.02723 0.92308 -0.08557
 N61 N 0.04679 0.89558 -0.09634
 Mn62 Mn -0.00011 1.00099 -0.14187
 C63 C 0.05876 0.91162 -0.16220
 C64 C -0.05910 0.91180 -0.16289
 N65 N -0.02765 0.95324 0.14221
 N66 N -0.04720 0.94727 0.19228
 N67 N 0.02718 0.92281 0.08692
 N68 N 0.04680 0.89540 0.09766
 N69 N 0.02711 0.95326 0.14261
 N70 N 0.04667 0.94745 0.19279
 N71 N -0.02761 0.92279 0.08651
 N72 N -0.04715 0.89523 0.09709
 Mn73 Mn -0.00029 1.00054 0.14356
 Mn74 Mn -0.00019 0.92241 0.00047
 Cl75 Cl -0.00020 1.00076 0.00085
 C76 C -0.05911 0.91106 0.16313
 C77 C 0.05870 0.91132 0.16380
 N78 N 0.47293 0.42154 -0.08840
 N79 N 0.45323 0.39431 -0.09907
 N80 N 0.52779 0.45207 -0.14333
 N81 N 0.54739 0.44625 -0.19331
 N82 N 0.52773 0.42149 -0.08787
 N83 N 0.54731 0.39399 -0.09854
 N84 N 0.47302 0.45212 -0.14388
 N85 N 0.45339 0.44657 -0.19388
 C86 C 0.44133 0.41045 -0.16499
 C87 C 0.55932 0.40999 -0.16440
 N88 N 0.52771 0.57715 -0.08748
 N89 N 0.54725 0.60471 -0.09809
 N90 N 0.47299 0.54669 -0.14367
 N91 N 0.45339 0.55242 -0.19374
 N92 N 0.47292 0.57718 -0.08804
 N93 N 0.45326 0.60452 -0.09869
 N94 N 0.52776 0.54667 -0.14309
 N95 N 0.54732 0.55260 -0.19315
 Mn96 Mn 0.50039 0.49939 -0.14443
 C97 C 0.55923 0.58883 -0.16406
 C98 C 0.44134 0.58854 -0.16475
 N99 N 0.52752 0.42137 0.08464
 N100 N 0.54714 0.39398 0.09541
 N101 N 0.47269 0.45189 0.13970
 N102 N 0.45314 0.44595 0.18984
 N103 N 0.47272 0.42139 0.08411
 N104 N 0.45319 0.39381 0.09486
 N105 N 0.52745 0.45186 0.14024
 N106 N 0.54700 0.44611 0.19042
 Mn107 Mn 0.50023 0.42091 -0.00189
 C108 C 0.55902 0.40997 0.16150
 C109 C 0.44122 0.40970 0.16088
 N110 N 0.47281 0.57706 0.08445
 N111 N 0.45331 0.60466 0.09530
 N112 N 0.52752 0.54643 0.14047
 N113 N 0.54709 0.55209 0.19069
 N114 N 0.52760 0.57701 0.08501
 N115 N 0.54724 0.60436 0.09592
 N116 N 0.47276 0.54648 0.13991
 N117 N 0.45323 0.55239 0.19008
 Mn118 Mn 0.50026 0.57763 -0.00152
 Mn119 Mn 0.50010 0.49916 0.14100
 Cl120 Cl 0.50025 0.49927 -0.00171
 C121 C 0.44135 0.58870 0.16124
 C122 C 0.55913 0.58827 0.16195
 C123 C 0.29238 0.28448 0.41326
 C124 C 0.31095 0.29952 0.37869
 C125 C 0.33346 0.31777 0.33966
 C126 C 0.35706 0.32090 0.38133
 C127 C 0.37891 0.33925 0.34427
 C128 C 0.37727 0.35453 0.26530
 C129 C 0.35369 0.35128 0.22350
 C130 C 0.33181 0.33295 0.26062
 C131 C 0.39974 0.37382 0.22762
 C132 C 0.41864 0.39011 0.19678
 H133 H 0.35855 0.30928 0.44247
 H134 H 0.39703 0.34163 0.37720
 H135 H 0.35219 0.36304 0.16245
 H136 H 0.31365 0.33076 0.22790
 C137 C -0.20775 0.78470 0.41314
 C138 C -0.18923 0.79992 0.37873
 C139 C -0.16676 0.81839 0.34007
 C140 C -0.14317 0.82127 0.38186
 C141 C -0.12135 0.83986 0.34521
 C142 C -0.12301 0.85561 0.26658
 C143 C -0.14658 0.85262 0.22466
 C144 C -0.16843 0.83405 0.26138
 C145 C -0.10057 0.87508 0.22934
 C146 C -0.08168 0.89147 0.19879
 H147 H -0.14169 0.80927 0.44276
 H148 H -0.10322 0.84205 0.37818
 H149 H -0.14807 0.86475 0.16385
 H150 H -0.18660 0.83204 0.22863
 C151 C 0.70785 0.71368 0.41497
 C152 C 0.68956 0.69788 0.38006
 C153 C 0.66736 0.67866 0.34085
 C154 C 0.66049 0.69160 0.26315
 C155 C 0.63862 0.67327 0.22597
 C156 C 0.62353 0.64198 0.26639
 C157 C 0.63045 0.62901 0.34402
 C158 C 0.65231 0.64729 0.38113
 C159 C 0.60089 0.62329 0.22865
 C160 C 0.58186 0.60744 0.19781
 H161 H 0.67196 0.71589 0.23153
 H162 H 0.63344 0.68355 0.16595
 H163 H 0.61892 0.60487 0.37586
 H164 H 0.65743 0.63708 0.44124
 C165 C 0.20781 1.21402 0.41523
 C166 C 0.18951 1.19829 0.38039
 C167 C 0.16729 1.17915 0.34140
 C168 C 0.16039 1.19209 0.26376
 C169 C 0.13845 1.17388 0.22685
 C170 C 0.12336 1.14272 0.26754
 C171 C 0.13032 1.12972 0.34510
 C172 C 0.15224 1.14789 0.38193
 C173 C 0.10065 1.12421 0.23017
 C174 C 0.08155 1.10849 0.19966
 H175 H 0.17188 1.21631 0.23200
 H176 H 0.13322 1.18416 0.16687
 H177 H 0.11877 1.10568 0.37710
 H178 H 0.15741 1.13769 0.44202
 C179 C 0.70850 0.28439 -0.41439
 C180 C 0.68994 0.29964 -0.38000
 C181 C 0.66740 0.31807 -0.34141
 C182 C 0.66894 0.33341 -0.26246
 C183 C 0.64701 0.35183 -0.22577
 C184 C 0.62349 0.35501 -0.26792
 C185 C 0.62197 0.33960 -0.34681
 C186 C 0.64386 0.32116 -0.38344
 C187 C 0.60095 0.37430 -0.23063
 C188 C 0.58198 0.39053 -0.20007
 H189 H 0.68705 0.33124 -0.22946
 H190 H 0.64842 0.36368 -0.16476
 H191 H 0.60389 0.34192 -0.38001
 H192 H 0.64246 0.30941 -0.44451
 C193 C 0.20753 0.78517 -0.41140
 C194 C 0.18901 0.80045 -0.37706
 C195 C 0.16653 0.81900 -0.33860
 C196 C 0.16816 0.83475 -0.25996
 C197 C 0.14629 0.85339 -0.22344
 C198 C 0.12275 0.85636 -0.26551
 C199 C 0.12113 0.84053 -0.34408
 C200 C 0.14297 0.82187 -0.38053
 C201 C 0.10028 0.87581 -0.22841
 C202 C 0.08136 0.89215 -0.19792
 H203 H 0.18631 0.83275 -0.22710
 H204 H 0.14775 0.86556 -0.16266
 H205 H 0.10302 0.84269 -0.37716
 H206 H 0.14151 0.80980 -0.44139
 C207 C 0.29201 0.71418 -0.41414
 C208 C 0.31041 0.69837 -0.37973
 C209 C 0.33272 0.67912 -0.34116
 C210 C 0.34786 0.64822 -0.38231
 C211 C 0.36981 0.62989 -0.34579
 C212 C 0.37674 0.64234 -0.26789
 C213 C 0.36156 0.67316 -0.22660
 C214 C 0.33959 0.69153 -0.26319
 C215 C 0.39946 0.62358 -0.23071
 C216 C 0.41855 0.60770 -0.20026
 H217 H 0.34273 0.63840 -0.44263
 H218 H 0.38140 0.60611 -0.37830
 H219 H 0.36674 0.68304 -0.16636
 H220 H 0.32805 0.71545 -0.23089
 C221 C -0.20793 1.21530 -0.41313
 C222 C -0.18944 1.20023 -0.37823
 C223 C -0.16694 1.18200 -0.33930
 C224 C -0.14323 1.17987 -0.38052
 C225 C -0.12136 1.16149 -0.34370
 C226 C -0.12311 1.14519 -0.26547
 C227 C -0.14680 1.14742 -0.22411
 C228 C -0.16870 1.16579 -0.26100
 C229 C -0.10061 1.12592 -0.22811
 C230 C -0.08167 1.10969 -0.19754
 H231 H -0.14168 1.19230 -0.44112
 H232 H -0.10315 1.15988 -0.37625
 H233 H -0.14835 1.13486 -0.16361
 H234 H -0.18697 1.16721 -0.22869
 C235 C 0.70758 0.71505 -0.41588
 C236 C 0.68912 0.69990 -0.38098
 C237 C 0.66670 0.68151 -0.34196
 C238 C 0.66849 0.66580 -0.26332
 C239 C 0.64668 0.64724 -0.22633
 C240 C 0.62304 0.64432 -0.26792
 C241 C 0.62127 0.66013 -0.34648
 C242 C 0.64305 0.67870 -0.38341
 C243 C 0.60065 0.62484 -0.23045
 C244 C 0.58178 0.60844 -0.19979
 H245 H 0.68671 0.66775 -0.23084
 H246 H 0.64825 0.63507 -0.16557
 H247 H 0.60310 0.65799 -0.37920
 H248 H 0.64148 0.69074 -0.44427
 C249 C 0.20733 1.21564 -0.41561
 C250 C 0.18882 1.20067 -0.38059
 C251 C 0.16635 1.18250 -0.34122
 C252 C 0.16810 1.16723 -0.26227
 C253 C 0.14626 1.14891 -0.22491
 C254 C 0.12261 1.14578 -0.26639
 C255 C 0.12087 1.16116 -0.34527
 C256 C 0.14268 1.17949 -0.38257
 C257 C 0.10018 1.12646 -0.22854
 C258 C 0.08131 1.11014 -0.19762
 H259 H 0.18632 1.16932 -0.22980
 H260 H 0.14783 1.13708 -0.16393
 H261 H 0.10270 1.15886 -0.37797
 H262 H 0.14111 1.19117 -0.44366
 C263 C 0.29191 0.28604 -0.41419
 C264 C 0.31029 0.30179 -0.37983
 C265 C 0.33259 0.32088 -0.34123
 C266 C 0.33954 0.30807 -0.26355
 C267 C 0.36153 0.32627 -0.22693
 C268 C 0.37664 0.35728 -0.26794
 C269 C 0.36964 0.37013 -0.34554
 C270 C 0.34766 0.35198 -0.38209
 C271 C 0.39939 0.37579 -0.23080
 C272 C 0.41851 0.39150 -0.20040
 H273 H 0.32804 0.28398 -0.23152
 H274 H 0.36679 0.31610 -0.16691
 H275 H 0.38120 0.39407 -0.37780
 H276 H 0.34246 0.36208 -0.44221
 C277 C -0.20802 0.78608 -0.41432
 C278 C -0.18965 0.80192 -0.37988
 C279 C -0.16739 0.82116 -0.34102
 C280 C -0.16053 0.80849 -0.26317
 C281 C -0.13863 0.82687 -0.22623
 C282 C -0.12350 0.85795 -0.26705
 C283 C -0.13041 0.87065 -0.34483
 C284 C -0.15230 0.85231 -0.38171
 C285 C -0.10085 0.87672 -0.22949
 C286 C -0.08182 0.89262 -0.19873
 H287 H -0.17204 0.78437 -0.23122
 H288 H -0.13346 0.81680 -0.16608
 H289 H -0.11886 0.89463 -0.37698
 H290 H -0.15742 0.86234 -0.44193
 C291 C 0.29325 0.71453 0.41497
 C292 C 0.31169 0.69941 0.38004
 C293 C 0.33408 0.68108 0.34073
 C294 C 0.35784 0.67861 0.38163
 C295 C 0.37959 0.66013 0.34435
 C296 C 0.37767 0.64409 0.26597
 C297 C 0.35392 0.64669 0.22493
 C298 C 0.33214 0.66514 0.26228
 C299 C 0.40002 0.62468 0.22816
 C300 C 0.41884 0.60832 0.19722
 H301 H 0.35953 0.69082 0.44233
 H302 H 0.39785 0.65824 0.37664
 H303 H 0.35223 0.63433 0.16433
 H304 H 0.31383 0.66684 0.23022
 C305 C -0.20792 1.21469 0.41774
 C306 C -0.18957 1.19912 0.38283
 C307 C -0.16733 1.18012 0.34355
 C308 C -0.15217 1.14886 0.38376
 C309 C -0.13032 1.13067 0.34648
 C310 C -0.12352 1.14363 0.26877
 C311 C -0.13871 1.17483 0.22843
 C312 C -0.16057 1.19306 0.26578
 C313 C -0.10092 1.12496 0.23082
 C314 C -0.08192 1.10907 0.19988
 H315 H -0.15721 1.13862 0.44392
 H316 H -0.11871 1.10660 0.37826
 H317 H -0.13362 1.18509 0.16834
 H318 H -0.17214 1.21725 0.23420
 C319 C 0.70766 0.28541 0.41478
 C320 C 0.68933 0.30096 0.37984
 C321 C 0.66712 0.31995 0.34055
 C322 C 0.66002 0.30625 0.26351
 C323 C 0.63815 0.32445 0.22620
 C324 C 0.62332 0.35635 0.26588
 C325 C 0.63047 0.37008 0.34285
 C326 C 0.65233 0.35193 0.38009
 C327 C 0.60072 0.37494 0.22806
 C328 C 0.58171 0.39077 0.19722
 H329 H 0.67132 0.28149 0.23251
 H330 H 0.63277 0.31360 0.16668
 H331 H 0.61913 0.39471 0.37407
 H332 H 0.65766 0.36272 0.43969
 C333 C 0.20765 0.78621 0.41601
 C334 C 0.18926 0.80192 0.38149
 C335 C 0.16698 0.82099 0.34247
 C336 C 0.15193 0.85236 0.38274
 C337 C 0.13004 0.87057 0.34568
 C338 C 0.12308 0.85752 0.26813
 C339 C 0.13816 0.82621 0.22774
 C340 C 0.16007 0.80797 0.26486
 C341 C 0.10044 0.87619 0.23039
 C342 C 0.08141 0.89207 0.19956
 H343 H 0.15709 0.86266 0.44277
 H344 H 0.11852 0.89472 0.37750
 H345 H 0.13296 0.81588 0.16777
 H346 H 0.17155 0.78368 0.23324
   
