data_POSCAR
  _audit_creation_date              2014-09-24
  _audit_creation_method            'ToBaCCo'
  _symmetry_space_group_name_H-M    'P1'
  _symmetry_Int_Tables_number       1
  _symmetry_cell_setting            triclinic
  loop_
  _symmetry_equiv_pos_as_xyz
 x,y,z
_cell_length_a 41.0591
_cell_length_b 41.2662
_cell_length_c 14.6855
_cell_angle_alpha 89.965200
_cell_angle_beta 90.015100
_cell_angle_gamma 119.956700
loop_
  _atom_site_label
  _atom_site_type_symbol
  _atom_site_fract_x
  _atom_site_fract_y
  _atom_site_fract_z
C1 C 0.18626 0.49872 0.42132
 C2 C 0.16834 0.48989 0.50630
 C3 C 0.18797 0.49840 0.58915
 C4 C 0.22753 0.51329 0.58705
 C5 C 0.24617 0.51942 0.50153
 C6 C 0.22566 0.51301 0.41845
 C7 C 0.24433 0.51699 0.33529
 C8 C 0.28167 0.52617 0.33284
 C9 C 0.30192 0.53127 0.41325
 C10 C 0.28472 0.52903 0.49883
 C11 C 0.24821 0.51809 0.66721
 C12 C 0.28577 0.52734 0.66444
 C13 C 0.30471 0.53235 0.58132
 C14 C 0.34141 0.53658 0.57635
 C15 C 0.35765 0.54008 0.49016
 C16 C 0.33826 0.53616 0.40994
 H17 H 0.23001 0.51069 0.27066
 H18 H 0.29423 0.52790 0.26687
 H19 H 0.23515 0.51248 0.73351
 H20 H 0.29888 0.52888 0.72900
 H21 H 0.13825 0.47925 0.50818
 H22 H 0.38551 0.54328 0.48464
 C23 C 0.50286 -0.31200 0.41969
 C24 C 0.50914 -0.32441 0.50231
 C25 C 0.50445 -0.31127 0.58655
 C26 C 0.49389 -0.28323 0.58747
 C27 C 0.48886 -0.26906 0.50314
 C28 C 0.49260 -0.28415 0.41910
 C29 C 0.48845 -0.26937 0.33671
 C30 C 0.48282 -0.23893 0.33590
 C31 C 0.48127 -0.22207 0.41741
 C32 C 0.48300 -0.23783 0.50230
 C33 C 0.49211 -0.26616 0.66875
 C34 C 0.48653 -0.23551 0.66790
 C35 C 0.48242 -0.22036 0.58573
 C36 C 0.48206 -0.18600 0.58285
 C37 C 0.48106 -0.17107 0.49754
 C38 C 0.48059 -0.18836 0.41592
 H39 H 0.49112 -0.28013 0.27171
 H40 H 0.48106 -0.22785 0.27040
 H41 H 0.49712 -0.27479 0.73416
 H42 H 0.48742 -0.22289 0.73282
 H43 H 0.51647 -0.34630 0.50038
 H44 H 0.48126 -0.14468 0.49391
 C45 C 1.19077 0.66721 0.41624
 C46 C 1.17410 0.65025 0.49836
 C47 C 1.18973 0.66608 0.58316
 C48 C 1.22423 0.70075 0.58511
 C49 C 1.24117 0.71903 0.50134
 C50 C 1.22474 0.70159 0.41691
 C51 C 1.24097 0.72017 0.33523
 C52 C 1.27120 0.75638 0.33535
 C53 C 1.28679 0.77555 0.41734
 C54 C 1.27220 0.75639 0.50169
 C55 C 1.23986 0.71974 0.66710
 C56 C 1.26999 0.75619 0.66760
 C57 C 1.28618 0.77552 0.58614
 C58 C 1.31267 0.81449 0.58580
 C59 C 1.32410 0.83298 0.50174
 C60 C 1.31330 0.81440 0.41784
 H61 H 1.22926 0.70748 0.27000
 H62 H 1.28028 0.76970 0.26980
 H63 H 1.22782 0.70765 0.73229
 H64 H 1.27856 0.76962 0.73316
 H65 H 1.14748 0.62415 0.49570
 H66 H 1.34474 0.86261 0.50161
 C67 C 0.81160 0.47865 0.41392
 C68 C 0.82971 0.48080 0.49542
 C69 C 0.81399 0.48017 0.58064
 C70 C 0.77767 0.47669 0.58378
 C71 C 0.75908 0.47528 0.50043
 C72 C 0.77590 0.47551 0.41539
 C73 C 0.75787 0.47509 0.33399
 C74 C 0.72507 0.47692 0.33502
 C75 C 0.70912 0.47926 0.41752
 C76 C 0.72538 0.47720 0.50150
 C77 C 0.76124 0.47871 0.66608
 C78 C 0.72823 0.48050 0.66713
 C79 C 0.71001 0.48046 0.58593
 C80 C 0.67958 0.48781 0.58515
 C81 C 0.66515 0.49081 0.50080
 C82 C 0.67893 0.48628 0.41807
 H83 H 0.76976 0.47476 0.26845
 H84 H 0.71320 0.47803 0.27011
 H85 H 0.77455 0.48087 0.73089
 H86 H 0.71845 0.48395 0.73266
 H87 H 0.85731 0.48330 0.49170
 H88 H 0.64205 0.49653 0.49891
 C89 C 0.50889 0.18994 0.42284
 C90 C 0.50799 0.17373 0.50680
 C91 C 0.50874 0.19111 0.58877
 C92 C 0.51154 0.22664 0.58761
 C93 C 0.51264 0.24376 0.50275
 C94 C 0.51164 0.22542 0.41986
 C95 C 0.51114 0.24193 0.33668
 C96 C 0.51011 0.27509 0.33446
 C97 C 0.50950 0.29292 0.41534
 C98 C 0.51171 0.27775 0.50069
 C99 C 0.51089 0.24430 0.66851
 C100 C 0.51009 0.27761 0.66675
 C101 C 0.51023 0.29491 0.58384
 C102 C 0.50498 0.32648 0.58054
 C103 C 0.50154 0.33980 0.49503
 C104 C 0.50431 0.32418 0.41335
 H105 H 0.51041 0.22879 0.27241
 H106 H 0.50850 0.28593 0.26854
 H107 H 0.50978 0.23184 0.73416
 H108 H 0.50751 0.28837 0.73158
 H109 H 0.50494 0.14603 0.50839
 H110 H 0.49765 0.36394 0.49125
 C111 C 0.66552 0.18836 0.42337
 C112 C 0.64954 0.17313 0.50758
 C113 C 0.66728 0.18989 0.58924
 C114 C 0.70183 0.22387 0.58760
 C115 C 0.71842 0.24014 0.50252
 C116 C 0.69996 0.22244 0.41989
 C117 C 0.71745 0.23799 0.33643
 C118 C 0.75306 0.26948 0.33367
 C119 C 0.77251 0.28645 0.41427
 C120 C 0.75487 0.27233 0.49993
 C121 C 0.72123 0.24066 0.66824
 C122 C 0.75694 0.27220 0.66595
 C123 C 0.77463 0.28855 0.58277
 C124 C 0.81270 0.31808 0.57858
 C125 C 0.82931 0.33057 0.49275
 C126 C 0.81005 0.31573 0.41172
 H127 H 0.70418 0.22535 0.27237
 H128 H 0.76575 0.27968 0.26758
 H129 H 0.70938 0.22880 0.73405
 H130 H 0.77089 0.28229 0.73051
 H131 H 0.62362 0.14635 0.50964
 H132 H 0.85816 0.35336 0.48808
 O133 O 0.95126 0.52108 -0.17138
 O134 O 0.90775 0.47197 -0.08561
 C135 C 0.91699 0.49605 -0.15133
 O136 O 1.05381 0.45762 -0.15813
 O137 O 1.09636 0.50865 -0.07584
 C138 C 1.08786 0.48301 -0.13738
 O139 O 0.94990 0.41096 -0.17132
 O140 O 0.90714 0.41839 -0.08646
 C141 C 0.91590 0.40297 -0.15190
 O142 O 1.05516 0.57492 -0.16012
 O143 O 1.09718 0.56468 -0.07963
 C144 C 1.08896 0.58206 -0.14154
 Zr145 Zr 1.00280 0.53252 -0.11308
 O146 O 1.00652 0.53921 -0.25619
 O147 O 1.00182 0.58291 -0.09714
 Zr148 Zr 1.00175 0.44992 -0.11312
 O149 O 1.00590 0.44769 -0.25634
 O150 O 0.99902 0.39769 -0.09801
 O151 O 0.96924 0.47515 -0.13303
 O152 O 1.03469 0.50694 -0.12987
 O153 O 1.05398 0.57481 0.16177
 O154 O 1.09622 0.56515 0.08057
 C155 C 1.08793 0.58244 0.14217
 O156 O 0.94760 0.40858 0.16484
 O157 O 0.90628 0.41786 0.07869
 C158 C 0.91394 0.40109 0.14288
 O159 O 1.05195 0.45734 0.16300
 O160 O 1.09536 0.50926 0.08438
 C161 C 1.08614 0.48330 0.14555
 O162 O 0.94921 0.52093 0.16616
 O163 O 0.90706 0.47124 0.07957
 C164 C 0.91529 0.49547 0.14439
 Zr165 Zr 1.00156 0.53198 0.11295
 O166 O 1.00438 0.53620 0.25663
 O167 O 0.99857 0.58168 0.10445
 Zr168 Zr 1.00034 0.44923 0.11299
 O169 O 1.00277 0.44793 0.25681
 O170 O 0.99637 0.39612 0.10497
 Zr171 Zr 0.94481 0.46326 -0.00217
 Zr172 Zr 1.05850 0.51857 0.00140
 O173 O 1.03321 0.50633 0.13135
 O174 O 0.96758 0.47435 0.13052
 O175 O 1.03665 0.55527 0.00076
 O176 O 0.96738 0.42736 -0.00147
 O177 O 0.96863 0.52177 -0.00136
 O178 O 1.03532 0.46000 0.00107
 H179 H 1.05077 0.51450 -0.18493
 H180 H 0.94971 0.40001 -0.00250
 H181 H 1.04881 0.51412 0.18722
 H182 H 0.95141 0.53209 -0.00217
 H183 H 0.99865 0.38853 -0.16055
 H184 H 1.01907 0.39941 0.07310
 H185 H 0.98494 0.45531 0.28091
 H186 H 0.98752 0.51089 0.28113
 H187 H 1.02159 0.60077 0.07324
 H188 H 1.00148 0.59186 -0.15954
 H189 H 0.99376 0.51384 -0.28280
 H190 H 0.99171 0.45893 -0.28294
 O191 O 0.42637 0.48326 0.16504
 O192 O 0.43825 0.53484 0.08039
 C193 C 0.42069 0.51065 0.14437
 O194 O 0.59122 0.53552 0.16371
 O195 O 0.57966 0.48398 0.07937
 C196 C 0.59754 0.50865 0.14245
 O197 O 0.54132 0.59001 0.17088
 O198 O 0.49288 0.58560 0.08352
 C199 C 0.51701 0.60008 0.14929
 O200 O 0.47006 0.42279 0.15628
 O201 O 0.52201 0.43035 0.07854
 C202 C 0.49519 0.41340 0.13780
 Zr203 Zr 0.46491 0.46855 0.11017
 O204 O 0.46093 0.46182 0.25326
 O205 O 0.41152 0.42058 0.09205
 Zr206 Zr 0.55008 0.54770 0.11563
 O207 O 0.55294 0.54671 0.25944
 O208 O 0.60129 0.59932 0.11167
 O209 O 0.49247 0.52619 0.13139
 O210 O 0.52192 0.49025 0.13015
 O211 O 0.47302 0.42623 -0.16555
 O212 O 0.52223 0.43059 -0.08164
 C213 C 0.49697 0.41563 -0.14533
 O214 O 0.54363 0.59213 -0.16534
 O215 O 0.49440 0.58723 -0.08069
 C216 C 0.51923 0.60221 -0.14492
 O217 O 0.59307 0.53736 -0.15898
 O218 O 0.58010 0.48415 -0.08014
 C219 C 0.59878 0.50983 -0.14080
 O220 O 0.43214 0.48802 -0.17734
 O221 O 0.43935 0.53612 -0.08553
 C222 C 0.42479 0.51408 -0.15510
 Zr223 Zr 0.46684 0.47049 -0.11555
 O224 O 0.46270 0.46399 -0.25853
 O225 O 0.41186 0.42376 -0.10518
 Zr226 Zr 0.55209 0.54959 -0.11082
 O227 O 0.55831 0.55237 -0.25413
 O228 O 0.60323 0.60090 -0.09754
 Zr229 Zr 0.48306 0.54017 -0.00050
 Zr230 Zr 0.53405 0.47795 -0.00063
 O231 O 0.52402 0.49243 -0.13106
 O232 O 0.49489 0.52832 -0.13211
 O233 O 0.47487 0.44467 -0.00319
 O234 O 0.54209 0.57258 0.00269
 O235 O 0.44466 0.48235 -0.00323
 O236 O 0.57303 0.53591 0.00266
 H237 H 0.52872 0.48113 0.18534
 H238 H 0.55368 0.60017 0.00377
 H239 H 0.53144 0.48409 -0.18656
 H240 H 0.41751 0.47428 -0.00499
 H241 H 0.62059 0.59471 0.08410
 H242 H 0.62262 0.59522 -0.07551
 H243 H 0.53339 0.54497 -0.28056
 H244 H 0.48474 0.48625 -0.28431
 H245 H 0.41408 0.40250 -0.08135
 H246 H 0.40153 0.41171 0.15406
 H247 H 0.47373 0.48717 0.27996
 H248 H 0.52823 0.54134 0.28338
 O249 O 0.46184 0.05112 0.17362
 O250 O 0.51204 0.09317 0.08808
 C251 C 0.48793 0.08484 0.15344
 O252 O 0.52201 -0.05418 0.16093
 O253 O 0.46991 -0.09554 0.07950
 C254 C 0.49568 -0.08775 0.14055
 O255 O 0.57102 0.04970 0.17415
 O256 O 0.56464 0.09257 0.08761
 C257 C 0.57973 0.08370 0.15360
 O258 O 0.40597 -0.05236 0.16294
 O259 O 0.41441 -0.09476 0.07984
 C260 C 0.39755 -0.08621 0.14244
 Zr261 Zr 0.44979 -0.00073 0.11676
 O262 O 0.44534 -0.00445 0.26046
 O263 O 0.39963 0.00144 0.10465
 Zr264 Zr 0.53194 -0.00165 0.11377
 O265 O 0.53691 -0.00492 0.25622
 O266 O 0.58510 0.00225 0.09809
 O267 O 0.50761 0.03158 0.13497
 O268 O 0.47442 -0.03348 0.13188
 O269 O 0.40569 -0.05133 -0.15838
 O270 O 0.41499 -0.09428 -0.08018
 C271 C 0.39765 -0.08535 -0.14054
 O272 O 0.57238 0.05188 -0.16594
 O273 O 0.56483 0.09359 -0.07790
 C274 C 0.58074 0.08556 -0.14348
 O275 O 0.52198 -0.05184 -0.16292
 O276 O 0.47092 -0.09466 -0.08065
 C277 C 0.49621 -0.08577 -0.14383
 O278 O 0.46150 0.05275 -0.16336
 O279 O 0.51191 0.09400 -0.07704
 C280 C 0.48764 0.08629 -0.14180
 Zr281 Zr 0.44921 0.00037 -0.10941
 O282 O 0.44349 -0.00226 -0.25276
 O283 O 0.39994 0.00442 -0.09742
 Zr284 Zr 0.53148 -0.00022 -0.11234
 O285 O 0.53254 -0.00285 -0.25614
 O286 O 0.58465 0.00320 -0.10520
 Zr287 Zr 0.51928 0.05581 0.00394
 Zr288 Zr 0.46175 -0.05724 0.00057
 O289 O 0.47396 -0.03202 -0.12933
 O290 O 0.50710 0.03317 -0.12864
 O291 O 0.42588 -0.03433 0.00297
 O292 O 0.55455 0.03243 0.00178
 O293 O 0.46068 0.03328 0.00488
 O294 O 0.52056 -0.03526 -0.00061
 H295 H 0.46622 -0.04959 0.18677
 H296 H 0.58207 0.04987 0.00218
 H297 H 0.46586 -0.04751 -0.18523
 H298 H 0.45084 0.05087 0.00591
 H299 H 0.58076 -0.02277 0.08079
 H300 H 0.58077 -0.02086 -0.08092
 H301 H 0.52446 0.01439 -0.28023
 H302 H 0.46905 0.01240 -0.27849
 H303 H 0.38048 -0.01872 -0.06760
 H304 H 0.39123 0.00179 0.16769
 H305 H 0.47070 0.01232 0.28545
 H306 H 0.51588 -0.00318 0.28363
 N307 N 1.12697 0.46454 0.34544
 C308 C 1.16332 0.49259 0.34390
 N309 N 1.17507 0.51641 0.27138
 N310 N 1.15128 0.51266 0.20466
 C311 C 1.11489 0.48463 0.20753
 N312 N 1.10342 0.46055 0.27878
 N313 N 0.48134 0.65300 0.27492
 C314 C 0.50913 0.67141 0.33706
 N315 N 0.54054 0.66844 0.33174
 N316 N 0.54382 0.64734 0.26822
 C317 C 0.51583 0.62833 0.20733
 N318 N 0.48472 0.63195 0.21084
 N319 N 0.34161 -0.17513 0.26710
 C320 C 0.32919 -0.16341 0.33914
 N321 N 0.33675 -0.12743 0.33968
 N322 N 0.35622 -0.10407 0.27297
 C323 C 0.36956 -0.11528 0.20265
 N324 N 0.36167 -0.15144 0.20034
 N325 N 0.82589 0.45753 0.26948
 C326 C 0.83425 0.48528 0.33073
 N327 N 0.86795 0.51722 0.32482
 N328 N 0.89276 0.52115 0.26147
 C329 C 0.88493 0.49326 0.20147
 N330 N 0.85078 0.46153 0.20560
 N331 N 0.52747 0.35826 0.26753
 C332 C 0.49914 0.34073 0.32894
 N333 N 0.46832 0.34455 0.32089
 N334 N 0.46612 0.36566 0.25546
 C335 C 0.49469 0.38396 0.19536
 N336 N 0.52526 0.37948 0.20180
 N337 N 0.63166 0.17330 0.27609
 C338 C 0.64814 0.16402 0.34363
 N339 N 0.64396 0.12929 0.34417
 N340 N 0.62369 0.10448 0.28052
 C341 C 0.60670 0.11335 0.21377
 N342 N 0.61131 0.14836 0.21206
 N343 N 0.46868 0.13444 -0.32543
 C344 C 0.50088 0.16799 -0.32872
 N345 N 0.52780 0.17592 -0.26487
 N346 N 0.52277 0.15078 -0.20100
 C347 C 0.49079 0.11682 -0.19935
 N348 N 0.46371 0.10940 -0.26201
 N349 N 0.65452 0.47450 -0.26018
 C350 C 0.66452 0.49582 -0.33722
 N351 N 0.65518 0.52297 -0.34366
 N352 N 0.63643 0.52844 -0.27771
 C353 C 0.62539 0.50664 -0.20232
 N354 N 0.63496 0.47957 -0.19420
 N355 N 0.87352 0.34616 -0.35413
 C356 C 0.83646 0.33497 -0.34568
 N357 N 0.82485 0.34448 -0.26836
 N358 N 0.84959 0.36505 -0.20377
 C359 C 0.88671 0.37642 -0.21394
 N360 N 0.89795 0.36614 -0.28975
 N361 N 0.46866 -0.17560 -0.26107
 C362 C 0.48764 -0.16277 -0.34128
 N363 N 0.51033 -0.12535 -0.35161
 N364 N 0.51398 -0.10177 -0.28602
 C365 C 0.49465 -0.11419 -0.20705
 N366 N 0.47181 -0.15169 -0.19532
 N367 N 0.36282 0.54427 -0.26495
 C368 C 0.36041 0.53066 -0.35081
 N369 N 0.37873 0.51164 -0.36870
 N370 N 0.39818 0.50607 -0.30496
 C371 C 0.40090 0.51972 -0.21999
 N372 N 0.38300 0.53916 -0.20068
 N373 N 1.17937 0.64194 -0.26112
 C374 C 1.16659 0.64893 -0.34035
 N375 N 1.12917 0.63569 -0.34908
 N376 N 1.10551 0.61635 -0.28282
 C377 C 1.11781 0.60859 -0.20479
 N378 N 1.15533 0.62174 -0.19473
 N379 N 0.82582 0.46712 -0.26462
 C380 C 0.83779 0.48689 -0.34379
 N381 N 0.87517 0.51085 -0.35447
 N382 N 0.89961 0.51470 -0.29055
 C383 C 0.88802 0.49438 -0.21300
 N384 N 0.85057 0.47062 -0.20049
 N385 N 0.52248 0.35273 -0.26661
 C386 C 0.50064 0.34455 -0.34261
 N387 N 0.47644 0.35783 -0.34808
 N388 N 0.47421 0.37845 -0.28194
 C389 C 0.49642 0.38739 -0.20732
 N390 N 0.52066 0.37405 -0.20036
 N391 N 0.63224 0.17518 -0.26579
 C392 C 0.65139 0.16695 -0.32840
 N393 N 0.64940 0.13319 -0.32458
 N394 N 0.62857 0.10820 -0.26178
 C395 C 0.60876 0.11592 -0.20034
 N396 N 0.61137 0.15009 -0.20248
 N397 N 1.17760 0.51607 -0.26015
 C398 C 1.16619 0.49141 -0.33090
 N399 N 1.13034 0.46233 -0.33017
 N400 N 1.10665 0.45850 -0.26410
 C401 C 1.11742 0.48377 -0.19568
 N402 N 1.15358 0.51247 -0.19403
 N403 N 0.48924 0.66251 -0.26078
 C404 C 0.51172 0.67313 -0.33585
 N405 N 0.53845 0.66299 -0.34147
 N406 N 0.54207 0.64246 -0.27717
 C407 C 0.51886 0.63066 -0.20427
 N408 N 0.49261 0.64144 -0.19632
 N409 N 0.34028 -0.17477 -0.26257
 C410 C 0.32834 -0.16309 -0.33563
 N411 N 0.33671 -0.12683 -0.33786
 N412 N 0.35658 -0.10315 -0.27203
 C413 C 0.36954 -0.11434 -0.20089
 N414 N 0.36073 -0.15078 -0.19669
 N415 N 0.45749 -0.17496 0.27307
 C416 C 0.48612 -0.16634 0.33231
 N417 N 0.51871 -0.13356 0.32195
 N418 N 0.52242 -0.10982 0.25620
 C419 C 0.49370 -0.11783 0.19805
 N420 N 0.46123 -0.15109 0.20693
 N421 N 0.37543 0.55516 0.26801
 C422 C 0.35372 0.52794 0.32841
 N423 N 0.35217 0.49439 0.32330
 N424 N 0.37199 0.48828 0.26106
 C425 C 0.39416 0.51553 0.20145
 N426 N 0.39516 0.54895 0.20516
 N427 N 1.13390 0.64907 0.32789
 C428 C 1.16772 0.65087 0.33362
 N429 N 1.17671 0.63255 0.27044
 N430 N 1.15227 0.61258 0.20496
 C431 C 1.11805 0.61023 0.20057
 N432 N 1.10959 0.62919 0.26274
 N433 N 0.46990 0.13160 0.34185
 C434 C 0.50130 0.16582 0.34244
 N435 N 0.52741 0.17446 0.27604
 N436 N 0.52235 0.14937 0.21211
 C437 C 0.49113 0.11483 0.21282
 N438 N 0.46489 0.10663 0.27831
 N439 N 0.66387 0.52672 0.32772
 C440 C 0.66332 0.49371 0.33506
 N441 N 0.64363 0.46646 0.27272
 N442 N 0.62454 0.47193 0.20659
 C443 C 0.62451 0.50481 0.20070
 N444 N 0.64487 0.53214 0.26195
 N445 N 0.82447 0.35099 0.26747
 C446 C 0.83223 0.33071 0.32758
 N447 N 0.86544 0.33128 0.32051
 N448 N 0.89039 0.35197 0.25737
 C449 C 0.88321 0.37303 0.19882
 N450 N 0.84950 0.37169 0.20381
   
