data_POSCAR
  _audit_creation_date              2014-09-24
  _audit_creation_method            'ToBaCCo'
  _symmetry_space_group_name_H-M    'P1'
  _symmetry_Int_Tables_number       1
  _symmetry_cell_setting            triclinic
  loop_
  _symmetry_equiv_pos_as_xyz
 x,y,z
_cell_length_a 23.8002
_cell_length_b 24.0203
_cell_length_c 24.1781
_cell_angle_alpha 89.291100
_cell_angle_beta 90.046900
_cell_angle_gamma 89.663800
loop_
  _atom_site_label
  _atom_site_type_symbol
  _atom_site_fract_x
  _atom_site_fract_y
  _atom_site_fract_z
O1 O 0.53394 0.11534 0.03516
 O2 O 0.45284 -0.01200 -0.11342
 O3 O 0.61134 0.03085 -0.06394
 O4 O 0.42629 0.06690 -0.05298
 O5 O 0.55771 -0.02799 -0.10792
 O6 O 0.43609 0.10458 0.02608
 O7 O 0.37259 -0.01759 -0.06717
 O8 O 0.61094 0.06905 0.03335
 C9 C 0.58582 0.11440 0.03559
 C10 C 0.39927 -0.01790 -0.11476
 C11 C 0.59674 0.00753 -0.10777
 C12 C 0.42151 0.10881 -0.02390
 O13 O 0.43985 0.01490 0.09822
 O14 O 0.53536 -0.11060 -0.03114
 O15 O 0.60073 -0.02869 0.07428
 O16 O 0.41692 -0.06341 0.02515
 O17 O 0.43869 -0.10102 -0.04790
 O18 O 0.54197 0.03151 0.11188
 O19 O 0.37662 0.02681 0.03678
 O20 O 0.61224 -0.06757 -0.02233
 Co21 Co 0.48917 0.06079 0.06262
 Co22 Co 0.49788 -0.05628 -0.06854
 Co23 Co 0.59870 0.00088 0.00466
 Co24 Co 0.42508 0.00012 -0.01596
 O25 O 0.50608 0.00282 -0.00080
 C26 C 0.38864 0.01896 0.08667
 C27 C 0.58553 -0.11140 -0.01885
 C28 C 0.58087 -0.00485 0.11613
 C29 C 0.41486 -0.10514 -0.00264
 O30 O -0.10093 0.43192 -0.04413
 O31 O 0.04621 0.57714 0.09182
 O32 O 0.02622 0.40442 0.07453
 O33 O -0.07811 0.60405 -0.02991
 O34 O 0.02086 0.48259 0.11352
 O35 O -0.11954 0.52662 -0.02229
 O36 O -0.03188 0.60159 0.05681
 O37 O -0.06448 0.40656 0.03231
 C38 C -0.10606 0.40855 0.00178
 C39 C 0.00040 0.60218 0.09649
 C40 C 0.01294 0.43183 0.11589
 C41 C -0.12052 0.57742 -0.01568
 O42 O -0.05359 0.55760 -0.10980
 O43 O 0.10719 0.44792 0.04621
 O44 O -0.01465 0.39164 -0.06734
 O45 O 0.06840 0.61358 0.00403
 O46 O 0.11569 0.53884 0.01025
 O47 O -0.01979 0.46504 -0.11674
 O48 O 0.02212 0.59533 -0.08262
 O49 O 0.07555 0.40973 -0.02639
 Co50 Co -0.06611 0.49617 -0.06637
 Co51 Co 0.06524 0.51081 0.05866
 Co52 Co 0.00515 0.41286 0.00245
 Co53 Co -0.00421 0.59384 -0.01206
 O54 O 0.00014 0.50344 -0.00448
 C55 C -0.01163 0.58661 -0.12054
 C56 C 0.11608 0.42008 0.00383
 C57 C -0.01173 0.41443 -0.11383
 C58 C 0.11411 0.58873 -0.00158
 O59 O -0.01247 -0.10912 0.46797
 O60 O 0.11956 0.03244 0.52056
 O61 O 0.07033 -0.01744 0.39889
 O62 O 0.03943 -0.05734 0.58984
 O63 O 0.10066 0.05989 0.42811
 O64 O -0.03545 -0.09690 0.56289
 O65 O 0.07707 0.03385 0.59671
 O66 O -0.01833 -0.06445 0.39213
 C67 C -0.00674 -0.10858 0.41728
 C68 C 0.12023 0.02217 0.57050
 C69 C 0.10973 0.01537 0.40366
 C70 C 0.01098 -0.09983 0.58740
 O71 O -0.11310 -0.01555 0.53168
 O72 O 0.01343 0.12534 0.46368
 O73 O -0.07233 0.03354 0.40288
 O74 O -0.02744 0.07745 0.58936
 O75 O 0.04582 0.11472 0.55503
 O76 O -0.10245 -0.04273 0.43778
 O77 O -0.06419 -0.01458 0.60427
 O78 O 0.01425 0.08121 0.38852
 Co79 Co -0.05931 -0.05876 0.49979
 Co80 Co 0.06337 0.07582 0.49233
 Co81 Co -0.00099 0.00829 0.40553
 Co82 Co 0.00576 0.00981 0.58552
 O83 O 0.00213 0.00876 0.49576
 C84 C -0.11009 -0.00535 0.58140
 C85 C 0.00335 0.12486 0.41378
 C86 C -0.11106 0.00016 0.40883
 C87 C 0.00190 0.11925 0.58282
 C88 C -0.38191 0.16613 0.04121
 C89 C -0.32503 0.16371 0.05559
 C90 C -0.28748 0.21230 0.06044
 C91 C -0.30044 0.26482 0.03729
 C92 C -0.26083 0.30769 0.03829
 C93 C -0.20745 0.29864 0.06206
 C94 C -0.19579 0.24708 0.08737
 C95 C -0.23516 0.20432 0.08625
 C96 C -0.16192 0.34031 0.05844
 C97 C -0.15797 0.37824 0.01457
 H98 H -0.30655 0.12320 0.06441
 H99 H -0.34014 0.27259 0.01676
 H100 H -0.27194 0.34746 0.01975
 H101 H -0.15521 0.23900 0.10605
 H102 H -0.22411 0.16432 0.10456
 H103 H -0.12655 0.33571 0.08635
 H104 H -0.40349 0.20561 0.03620
 H105 H -0.19138 0.38117 -0.01570
 C106 C 0.38214 0.85212 0.01180
 C107 C 0.37085 0.80822 -0.02390
 C108 C 0.32024 0.77308 -0.01788
 C109 C 0.31878 0.72076 -0.04303
 C110 C 0.26994 0.68854 -0.04120
 C111 C 0.22141 0.70857 -0.01464
 C112 C 0.22268 0.76123 0.00964
 C113 C 0.27147 0.79311 0.00824
 C114 C 0.16849 0.67664 -0.01205
 C115 C 0.16633 0.61871 -0.01400
 H116 H 0.39702 0.80214 -0.06005
 H117 H 0.35538 0.70499 -0.06450
 H118 H 0.27003 0.64878 -0.06171
 H119 H 0.18566 0.77787 0.02976
 H120 H 0.27007 0.83415 0.02613
 H121 H 0.13019 0.69939 -0.00294
 H122 H 0.35954 0.85462 0.05060
 H123 H 0.20441 0.59452 -0.01913
 C124 C 0.39041 0.15791 -0.04497
 C125 C 0.37370 0.20035 -0.00948
 C126 C 0.32827 0.24149 -0.02154
 C127 C 0.31970 0.28469 0.01606
 C128 C 0.27354 0.32057 0.01096
 C129 C 0.23450 0.31439 -0.03236
 C130 C 0.24379 0.27198 -0.07086
 C131 C 0.29009 0.23591 -0.06567
 C132 C 0.18170 0.34795 -0.03583
 C133 C 0.17216 0.39555 -0.00449
 H134 H 0.39207 0.20100 0.03155
 H135 H 0.34793 0.28964 0.05082
 H136 H 0.26787 0.35130 0.04270
 H137 H 0.21424 0.26576 -0.10430
 H138 H 0.29423 0.20261 -0.09505
 H139 H 0.14780 0.33264 -0.06134
 H140 H 0.37552 0.15716 -0.08720
 H141 H 0.20576 0.41311 0.01960
 C142 C -0.38576 0.83587 -0.00549
 C143 C -0.33226 0.83603 0.01808
 C144 C -0.29578 0.78636 0.02486
 C145 C -0.30583 0.73617 -0.00284
 C146 C -0.26576 0.69330 -0.00150
 C147 C -0.21501 0.69999 0.02742
 C148 C -0.20633 0.74902 0.05701
 C149 C -0.24630 0.79167 0.05582
 C150 C -0.16740 0.66080 0.02187
 C151 C -0.17156 0.60675 0.00195
 H152 H -0.31503 0.87562 0.03063
 H153 H -0.34291 0.73072 -0.02796
 H154 H -0.27339 0.65657 -0.02575
 H155 H -0.16747 0.75527 0.07941
 H156 H -0.23748 0.82987 0.07749
 H157 H -0.12589 0.67671 0.03098
 H158 H -0.40705 0.79729 -0.01412
 H159 H -0.21184 0.58657 -0.00215
 C160 C -0.01238 -0.36137 0.14326
 C161 C 0.02620 -0.34988 0.18506
 C162 C 0.01815 -0.30265 0.22327
 C163 C 0.04286 -0.30413 0.27607
 C164 C 0.03735 -0.25870 0.31169
 C165 C 0.00772 -0.21064 0.29452
 C166 C -0.01607 -0.20902 0.24143
 C167 C -0.01113 -0.25438 0.20628
 C168 C 0.00208 -0.16045 0.32911
 C169 C 0.00609 -0.15993 0.38680
 H170 H 0.06406 -0.37491 0.18881
 H171 H 0.06649 -0.34045 0.28972
 H172 H 0.05738 -0.26090 0.35184
 H173 H -0.03849 -0.17226 0.22689
 H174 H -0.02895 -0.25072 0.16521
 H175 H -0.00978 -0.12210 0.30793
 H176 H -0.05223 -0.33939 0.14213
 H177 H 0.01497 -0.19780 0.40995
 C178 C -0.00885 0.38101 0.83578
 C179 C -0.01718 0.32354 0.83880
 C180 C -0.02629 0.28747 0.79053
 C181 C -0.04987 0.23475 0.79974
 C182 C -0.05804 0.19834 0.75601
 C183 C -0.04206 0.21351 0.70217
 C184 C -0.02000 0.26699 0.69243
 C185 C -0.01192 0.30356 0.73626
 C186 C -0.04568 0.17126 0.65838
 C187 C -0.00866 0.17032 0.61379
 H188 H -0.02175 0.30430 0.87934
 H189 H -0.06165 0.22142 0.84109
 H190 H -0.07524 0.15748 0.76459
 H191 H -0.00854 0.28069 0.65121
 H192 H 0.00665 0.34363 0.72738
 H193 H -0.07164 0.13508 0.66623
 H194 H -0.00686 0.40262 0.79636
 H195 H 0.01997 0.20446 0.60673
 C196 C -0.00524 0.40299 0.16682
 C197 C -0.02358 0.34799 0.16332
 C198 C -0.03192 0.30881 0.21018
 C199 C -0.01149 0.31850 0.26379
 C200 C -0.01266 0.27594 0.30403
 C201 C -0.03444 0.22320 0.29121
 C202 C -0.05714 0.21483 0.23851
 C203 C -0.05575 0.25701 0.19854
 C204 C -0.02887 0.17413 0.32850
 C205 C -0.01331 0.17607 0.38401
 H206 H -0.02938 0.33102 0.12239
 H207 H 0.00800 0.35759 0.27403
 H208 H 0.00610 0.28383 0.34387
 H209 H -0.07398 0.17467 0.22740
 H210 H -0.07114 0.24821 0.15746
 H211 H -0.03470 0.13354 0.31026
 H212 H -0.00290 0.42409 0.20600
 H213 H -0.01137 0.21522 0.40552
 C214 C -0.00871 -0.38820 0.82988
 C215 C 0.03002 -0.34701 0.81547
 C216 C 0.02123 -0.31036 0.76612
 C217 C 0.06710 -0.28301 0.74181
 C218 C 0.05910 -0.24600 0.69712
 C219 C 0.00469 -0.23494 0.67642
 C220 C -0.04089 -0.26299 0.70024
 C221 C -0.03295 -0.29974 0.74476
 C222 C -0.00702 -0.19296 0.63217
 C223 C 0.02900 -0.14902 0.61981
 H224 H 0.06584 -0.33942 0.84201
 H225 H 0.10919 -0.29020 0.75751
 H226 H 0.09566 -0.22633 0.67923
 H227 H -0.08324 -0.25505 0.68553
 H228 H -0.06985 -0.31809 0.76340
 H229 H -0.04843 -0.19261 0.61344
 H230 H -0.04135 -0.39811 0.80040
 H231 H 0.06947 -0.14660 0.63997
 C232 C 0.37172 -0.02071 0.83725
 C233 C 0.31409 -0.03094 0.83570
 C234 C 0.28119 -0.03448 0.78429
 C235 C 0.23072 -0.06412 0.78578
 C236 C 0.19476 -0.06331 0.74038
 C237 C 0.20822 -0.03239 0.69269
 C238 C 0.25997 -0.00447 0.69009
 C239 C 0.29628 -0.00559 0.73564
 C240 C 0.16387 -0.02452 0.65072
 C241 C 0.17055 0.00210 0.59961
 H242 H 0.29180 -0.03917 0.87403
 H243 H 0.21828 -0.08669 0.82283
 H244 H 0.15508 -0.08502 0.74347
 H245 H 0.27130 0.02061 0.65443
 H246 H 0.33444 0.01860 0.73362
 H247 H 0.12176 -0.03638 0.66298
 H248 H 0.39533 -0.01757 0.79909
 H249 H 0.21161 0.00978 0.58208
 C250 C -0.39481 -0.01715 0.17099
 C251 C -0.34208 -0.04245 0.17570
 C252 C -0.30820 -0.04115 0.22681
 C253 C -0.25002 -0.03405 0.22186
 C254 C -0.21632 -0.03062 0.26883
 C255 C -0.23997 -0.03552 0.32185
 C256 C -0.29790 -0.04475 0.32706
 C257 C -0.33207 -0.04669 0.27980
 C258 C -0.20344 -0.03291 0.37113
 C259 C -0.16113 0.00677 0.37387
 H260 H -0.32110 -0.05604 0.13840
 H261 H -0.23069 -0.03014 0.18145
 H262 H -0.17150 -0.02490 0.26370
 H263 H -0.31672 -0.04947 0.36760
 H264 H -0.37677 -0.05324 0.28462
 H265 H -0.20749 -0.06440 0.40331
 H266 H -0.41456 0.00076 0.20703
 H267 H -0.16097 0.04054 0.34369
 C268 C 0.34398 0.00900 0.12722
 C269 C 0.35497 -0.00615 0.18199
 C270 C 0.30929 -0.01782 0.22180
 C271 C 0.31733 -0.00604 0.27788
 C272 C 0.27332 -0.01264 0.31561
 C273 C 0.22058 -0.03169 0.29781
 C274 C 0.21382 -0.04717 0.24252
 C275 C 0.25765 -0.04013 0.20473
 C276 C 0.17126 -0.03296 0.33493
 C277 C 0.16375 0.00671 0.37586
 H278 H 0.39796 -0.00639 0.19681
 H279 H 0.35717 0.00998 0.29218
 H280 H 0.28049 -0.00222 0.35844
 H281 H 0.17388 -0.06283 0.22807
 H282 H 0.25084 -0.05187 0.16219
 H283 H 0.13660 -0.06004 0.32468
 H284 H 0.30103 0.01311 0.11293
 H285 H 0.19625 0.03702 0.38340
 C286 C -0.37293 0.01839 0.84012
 C287 C -0.32365 0.04966 0.83813
 C288 C -0.28349 0.04883 0.79104
 C289 C -0.22827 0.06652 0.80042
 C290 C -0.18724 0.06113 0.75954
 C291 C -0.20038 0.03836 0.70796
 C292 C -0.25628 0.02299 0.69738
 C293 C -0.29747 0.02839 0.73841
 C294 C -0.15369 0.02781 0.66873
 C295 C -0.15977 0.01113 0.61382
 H296 H -0.31056 0.07060 0.87541
 H297 H -0.21624 0.08279 0.84028
 H298 H -0.14460 0.07348 0.76888
 H299 H -0.26828 0.00515 0.65833
 H300 H -0.33977 0.01571 0.72866
 H301 H -0.11141 0.03210 0.68478
 H302 H -0.38661 -0.00437 0.80433
 H303 H -0.20062 0.00979 0.59433
   
