data_POSCAR
  _audit_creation_date              2014-09-24
  _audit_creation_method            'ToBaCCo'
  _symmetry_space_group_name_H-M    'P1'
  _symmetry_Int_Tables_number       1
  _symmetry_cell_setting            triclinic
  loop_
  _symmetry_equiv_pos_as_xyz
 x,y,z
_cell_length_a 31.2520
_cell_length_b 31.0836
_cell_length_c 19.7177
_cell_angle_alpha 90.628500
_cell_angle_beta 89.799400
_cell_angle_gamma 119.609000
loop_
  _atom_site_label
  _atom_site_type_symbol
  _atom_site_fract_x
  _atom_site_fract_y
  _atom_site_fract_z
C1 C -0.06409 0.44392 -0.17862
 C2 C -0.06625 0.48679 -0.18126
 C3 C -0.05747 0.50622 -0.11584
 N4 N -0.04858 0.47754 -0.07364
 C5 C -0.05331 0.43913 -0.11196
 C6 C -0.06273 0.54691 -0.09393
 C7 C -0.03244 0.57832 -0.04096
 C8 C -0.03709 0.61589 -0.00918
 C9 C -0.00003 0.63700 0.03868
 C10 C 0.02575 0.61136 0.03542
 N11 N 0.00629 0.57631 -0.01377
 C12 C 0.06725 0.62171 0.07536
 C13 C 0.08586 0.58854 0.08226
 C14 C 0.12946 0.60016 0.11508
 C15 C 0.13299 0.55804 0.11533
 C16 C 0.09099 0.52133 0.08370
 N17 N 0.06215 0.54012 0.06332
 C18 C 0.07819 0.47069 0.07984
 C19 C 0.03723 0.43511 0.04261
 C20 C 0.01320 0.38439 0.05300
 C21 C -0.02404 0.36329 0.00571
 C22 C -0.02172 0.40179 -0.03192
 N23 N 0.01583 0.44533 -0.00932
 C24 C -0.05360 0.39697 -0.08540
 H25 H -0.07057 0.41858 -0.22049
 H26 H -0.07462 0.50141 -0.22573
 H27 H 0.02834 0.47981 -0.03138
 H28 H -0.06438 0.62688 -0.01873
 H29 H 0.00678 0.66738 0.07256
 H30 H 0.15590 0.63514 0.13757
 H31 H 0.16296 0.55492 0.13743
 H32 H -0.05038 0.32424 0.00079
 H33 H 0.02109 0.55478 -0.03144
 H34 H 0.02072 0.36460 0.09169
 C35 C 0.55431 0.39895 -0.00485
 C36 C 0.59854 0.44236 -0.00592
 C37 C 0.58774 0.47941 -0.02084
 N38 N 0.53872 0.46045 -0.02813
 C39 C 0.51832 0.41125 -0.01949
 C40 C 0.62215 0.52842 -0.03845
 C41 C 0.61109 0.56674 -0.02603
 C42 C 0.63690 0.61477 -0.05012
 C43 C 0.61380 0.63955 -0.02443
 C44 C 0.57446 0.60578 0.01388
 N45 N 0.57358 0.56197 0.01351
 C46 C 0.54131 0.61564 0.05019
 C47 C 0.49625 0.57800 0.07624
 C48 C 0.46818 0.58575 0.12425
 C49 C 0.42517 0.54194 0.13043
 C50 C 0.42804 0.50881 0.08551
 N51 N 0.47176 0.53081 0.05266
 C52 C 0.38865 0.46104 0.07017
 C53 C 0.39557 0.42616 0.03227
 C54 C 0.35936 0.38612 -0.00329
 C55 C 0.38195 0.36252 -0.03403
 C56 C 0.43138 0.38857 -0.01555
 N57 N 0.43900 0.42699 0.02533
 C58 C 0.46866 0.37756 -0.03551
 H59 H 0.54920 0.36226 0.00266
 H60 H 0.63460 0.44613 0.00068
 H61 H 0.47158 0.45089 0.05069
 H62 H 0.66873 0.63045 -0.08295
 H63 H 0.62445 0.67784 -0.03340
 H64 H 0.47748 0.61963 0.15159
 H65 H 0.39494 0.53557 0.16352
 H66 H 0.36370 0.33040 -0.06691
 H67 H 0.55079 0.53148 0.04300
 H68 H 0.32098 0.37578 -0.00829
 C69 C 0.56135 1.16304 -0.02444
 C70 C 0.60600 1.16468 -0.02723
 C71 C 0.59592 1.11603 -0.02795
 N72 N 0.54700 1.08471 -0.02738
 C73 C 0.52572 1.11335 -0.02659
 C74 C 0.62987 1.10071 -0.04506
 C75 C 0.62514 1.05669 -0.01820
 C76 C 0.65120 1.03302 -0.03705
 C77 C 0.63502 0.99221 0.00431
 C78 C 0.59864 0.99160 0.04531
 N79 N 0.59367 1.03135 0.03231
 C80 C 0.57021 0.95513 0.09288
 C81 C 0.52300 0.94633 0.11306
 C82 C 0.49529 0.91455 0.16443
 C83 C 0.44935 0.90970 0.16042
 C84 C 0.45049 0.93908 0.10721
 N85 N 0.49566 0.96171 0.07841
 C86 C 0.40855 0.93931 0.08086
 C87 C 0.41139 0.97694 0.03846
 C88 C 0.37331 0.97428 -0.00056
 C89 C 0.39185 1.01861 -0.03434
 C90 C 0.44074 1.04703 -0.01476
 N91 N 0.45187 1.02156 0.03054
 C92 C 0.47503 1.09428 -0.03981
 H93 H 0.55557 1.19462 -0.02544
 H94 H 0.64172 1.19760 -0.03121
 H95 H 0.48470 1.03482 0.05752
 H96 H 0.67837 1.04323 -0.07670
 H97 H 0.64717 0.96509 0.00253
 H98 H 0.50648 0.89546 0.19963
 H99 H 0.41823 0.88631 0.19212
 H100 H 0.37188 1.02786 -0.07065
 H101 H 0.57167 1.04207 0.05935
 H102 H 0.33636 0.94327 -0.00555
 C103 C 1.08165 0.52623 0.30385
 C104 C 1.08119 0.56998 0.30576
 C105 C 1.06493 0.57376 0.36997
 N106 N 1.05355 0.53294 0.40649
 C107 C 1.06450 0.50423 0.36631
 C108 C 1.06528 0.61631 0.39703
 C109 C 1.02943 0.61098 0.44520
 C110 C 1.03025 0.64829 0.48546
 C111 C 0.98828 0.62652 0.52484
 C112 C 0.96319 0.57668 0.50735
 N113 N 0.98818 0.56779 0.45830
 C114 C 0.91706 0.54100 0.53295
 C115 C 0.89846 0.48978 0.52150
 C116 C 0.84985 0.45293 0.52903
 C117 C 0.84924 0.40864 0.52310
 C118 C 0.89765 0.41970 0.51497
 N119 N 0.92753 0.46927 0.51262
 C120 C 0.91511 0.38568 0.52187
 C121 C 0.96152 0.39649 0.49631
 C122 C 0.98803 0.37354 0.51480
 C123 C 1.03107 0.39537 0.47768
 C124 C 1.02894 0.43022 0.43646
 N125 N 0.98657 0.43072 0.44866
 C126 C 1.06442 0.46124 0.38859
 H127 H 1.09351 0.51223 0.26159
 H128 H 1.09261 0.59657 0.26518
 H129 H 0.97382 0.45109 0.42227
 H130 H 1.05828 0.68693 0.48704
 H131 H 0.97741 0.64529 0.56179
 H132 H 0.81792 0.45679 0.53886
 H133 H 0.81707 0.37238 0.52789
 H134 H 1.06091 0.38746 0.48271
 H135 H 0.97595 0.53473 0.43133
 H136 H 0.97816 0.34512 0.55249
 C137 C 0.50806 0.43175 0.68431
 C138 C 0.55154 0.47579 0.68557
 C139 C 0.55093 0.50245 0.62996
 N140 N 0.50841 0.47621 0.59495
 C141 C 0.48221 0.43288 0.62800
 C142 C 0.59161 0.54740 0.60793
 C143 C 0.58753 0.57852 0.55994
 C144 C 0.62673 0.61767 0.52768
 C145 C 0.60699 0.63827 0.48512
 C146 C 0.55634 0.61114 0.49283
 N147 N 0.54491 0.57539 0.53935
 C148 C 0.52177 0.61971 0.45836
 C149 C 0.47091 0.58483 0.45974
 C150 C 0.43353 0.59460 0.44299
 C151 C 0.39122 0.54970 0.43842
 C152 C 0.40403 0.51410 0.45379
 N153 N 0.45268 0.53562 0.46716
 C154 C 0.37305 0.46274 0.44444
 C155 C 0.38186 0.42783 0.47762
 C156 C 0.35966 0.37759 0.46283
 C157 C 0.37756 0.35744 0.50919
 C158 C 0.41096 0.39619 0.54964
 N159 N 0.41285 0.43869 0.53076
 C160 C 0.43832 0.39204 0.60316
 H161 H 0.49734 0.40173 0.71964
 H162 H 0.58084 0.48648 0.72231
 H163 H 0.43149 0.47260 0.55620
 H164 H 0.66549 0.62979 0.53359
 H165 H 0.62758 0.66926 0.45183
 H166 H 0.43680 0.63022 0.43260
 H167 H 0.35534 0.54368 0.42360
 H168 H 0.36803 0.31896 0.51173
 H169 H 0.51025 0.55244 0.55971
 H170 H 0.33383 0.35740 0.42258
 C171 C 0.40290 -0.15131 0.47934
 C172 C 0.44528 -0.15432 0.47953
 C173 C 0.48358 -0.10693 0.46786
 N174 N 0.46642 -0.07495 0.46128
 C175 C 0.41694 -0.10228 0.46672
 C176 C 0.53314 -0.09387 0.45632
 C177 C 0.57134 -0.04915 0.48458
 C178 C 0.62165 -0.02879 0.47344
 C179 C 0.64498 0.01368 0.51264
 C180 C 0.60841 0.01859 0.54551
 N181 N 0.56392 -0.02005 0.52907
 C182 C 0.61625 0.05767 0.58986
 C183 C 0.57815 0.06799 0.60699
 C184 C 0.58099 0.10025 0.65820
 C185 C 0.54028 0.10565 0.65168
 C186 C 0.51342 0.07588 0.59742
 N187 N 0.53650 0.05273 0.57020
 C188 C 0.47150 0.07505 0.56939
 C189 C 0.43791 0.03666 0.52643
 C190 C 0.40176 0.03802 0.48758
 C191 C 0.37682 -0.00706 0.45428
 C192 C 0.39842 -0.03473 0.47417
 N193 N 0.43521 -0.00782 0.51866
 C194 C 0.38492 -0.08347 0.45250
 H195 H 0.36584 -0.18181 0.48562
 H196 H 0.44777 -0.18754 0.48607
 H197 H 0.45535 -0.02040 0.54582
 H198 H 0.64021 -0.04233 0.44050
 H199 H 0.68429 0.03866 0.51542
 H200 H 0.60996 0.11892 0.69543
 H201 H 0.53168 0.12928 0.68280
 H202 H 0.34693 -0.01745 0.41876
 H203 H 0.53038 -0.02800 0.55073
 H204 H 0.39445 0.06846 0.48307
 O205 O 0.14838 0.37465 0.16839
 O206 O 0.22103 0.36917 0.31455
 O207 O 0.13666 0.36753 0.29801
 O208 O 0.23014 0.36748 0.18196
 O209 O 0.26943 0.44912 0.18198
 O210 O 0.18052 0.44903 0.30325
 O211 O 0.26427 0.45073 0.31218
 O212 O 0.19022 0.45630 0.17600
 Cu213 Cu 0.18021 0.36133 0.23981
 Cu214 Cu 0.23055 0.45923 0.24384
 C215 C 0.15535 0.41700 0.15092
 C216 C 0.25607 0.40996 0.33693
 C217 C 0.14220 0.40878 0.31874
 C218 C 0.26588 0.40836 0.16266
 O219 O 0.57284 0.82688 0.31542
 O220 O 0.60661 0.76203 0.18634
 O221 O 0.59402 0.84142 0.18707
 O222 O 0.57318 0.74303 0.31096
 O223 O 0.49766 0.69897 0.27017
 O224 O 0.51774 0.79497 0.15013
 O225 O 0.52929 0.72071 0.15204
 O226 O 0.49555 0.78403 0.28156
 Cu227 Cu 0.59475 0.79777 0.25282
 Cu228 Cu 0.50241 0.74665 0.21227
 C229 C 0.52827 0.81643 0.32026
 C230 C 0.57347 0.72940 0.14844
 C231 C 0.55856 0.83470 0.14826
 C232 C 0.53136 0.70364 0.31012
 O233 O 0.17219 0.75445 0.30902
 O234 O 0.25110 0.85551 0.19242
 O235 O 0.16604 0.76968 0.18147
 O236 O 0.25961 0.83498 0.31744
 O237 O 0.29637 0.79302 0.28514
 O238 O 0.20701 0.73185 0.14966
 O239 O 0.28921 0.81442 0.16293
 O240 O 0.21097 0.71442 0.27703
 Cu241 Cu 0.20830 0.80790 0.25280
 Cu242 Cu 0.25439 0.75926 0.21540
 C243 C 0.17804 0.71690 0.31191
 C244 C 0.28497 0.85293 0.16005
 C245 C 0.17062 0.73878 0.14349
 C246 C 0.29449 0.82513 0.32313
 O247 O 0.82049 0.58018 0.66754
 O248 O 0.73966 0.55951 0.81627
 O249 O 0.82671 0.56620 0.79784
 O250 O 0.73216 0.57031 0.68813
 O251 O 0.69905 0.48997 0.66819
 O252 O 0.78934 0.48545 0.78001
 O253 O 0.70310 0.47912 0.79505
 O254 O 0.78426 0.49932 0.65037
 Cu255 Cu 0.78378 0.57735 0.74415
 Cu256 Cu 0.74105 0.48044 0.72223
 C257 C 0.81560 0.54300 0.63361
 C258 C 0.70610 0.51555 0.82868
 C259 C 0.82351 0.52431 0.80739
 C260 C 0.69902 0.53034 0.66081
 O261 O 0.43413 0.17555 0.81921
 O262 O 0.41648 0.25462 0.69428
 O263 O 0.40385 0.15984 0.69650
 O264 O 0.43176 0.25601 0.82717
 O265 O 0.50906 0.29434 0.79283
 O266 O 0.48175 0.19790 0.66512
 O267 O 0.49329 0.28465 0.66005
 O268 O 0.51152 0.21036 0.78506
 Cu269 Cu 0.41335 0.20877 0.75943
 Cu270 Cu 0.50634 0.25136 0.72435
 C271 C 0.47692 0.18006 0.82249
 C272 C 0.45260 0.28397 0.65726
 C273 C 0.43841 0.16116 0.66091
 C274 C 0.47550 0.29172 0.83201
 O275 O 0.76108 0.17211 0.67695
 O276 O 0.84719 0.26714 0.80011
 O277 O 0.77536 0.17604 0.80990
 O278 O 0.84022 0.26297 0.66952
 O279 O 0.79349 0.29701 0.68707
 O280 O 0.72189 0.20289 0.81140
 O281 O 0.79290 0.29262 0.81345
 O282 O 0.71621 0.20904 0.67969
 Cu283 Cu 0.81066 0.21576 0.73745
 Cu284 Cu 0.75029 0.25244 0.74829
 C285 C 0.72409 0.17542 0.65696
 C286 C 0.83426 0.29652 0.82671
 C287 C 0.73702 0.17463 0.83402
 C288 C 0.82996 0.29711 0.65866
 C289 C 0.10675 0.45500 0.12322
 C290 C 0.12100 0.42212 0.10554
 H291 H 0.11943 0.47411 0.17156
 H292 H 0.10873 0.40064 0.05900
 C293 C 0.55113 0.66694 0.05980
 C294 C 0.58456 0.69734 0.10486
 H295 H 0.52116 0.67338 0.04628
 H296 H 0.61427 0.69103 0.12012
 C297 C 0.36057 0.89478 0.09446
 C298 C 0.32275 0.89650 0.12382
 H299 H 0.36002 0.85967 0.09088
 H300 H 0.32357 0.93156 0.13018
 C301 C 0.89214 0.55641 0.58405
 C302 C 0.84677 0.54911 0.57476
 H303 H 0.90922 0.56770 0.63366
 H304 H 0.82896 0.53594 0.52596
 C305 C 0.42380 0.34239 0.63027
 C306 C 0.45011 0.32064 0.61364
 H307 H 0.39758 0.32845 0.67154
 H308 H 0.47818 0.33748 0.57491
 C309 C 0.66663 0.09091 0.61711
 C310 C 0.68770 0.13987 0.60894
 H311 H 0.68307 0.07555 0.65037
 H312 H 0.66935 0.15391 0.57682
 C313 C 0.45919 0.12003 0.91685
 C314 C 0.48867 0.15048 0.86835
 H315 H 0.42152 0.11256 0.91922
 H316 H 0.52434 0.15378 0.85930
 C317 C 0.66719 0.53884 0.92197
 C318 C 0.66722 0.50530 0.87850
 H319 H 0.69882 0.57571 0.92351
 H320 H 0.63505 0.46896 0.87418
 C321 C 0.91303 0.34965 0.88790
 C322 C 0.86795 0.33931 0.86799
 H323 H 0.92266 0.32061 0.88676
 H324 H 0.85577 0.36594 0.87824
 C325 C 0.54498 0.87596 0.41463
 C326 C 0.51361 0.84278 0.36920
 H327 H 0.58221 0.88223 0.41495
 H328 H 0.47667 0.83679 0.36326
 C329 C 0.33618 0.44842 0.38941
 C330 C 0.28938 0.41159 0.39078
 H331 H 0.34788 0.47336 0.34660
 H332 H 0.27543 0.38519 0.43164
 C333 C 0.10094 0.66406 0.37499
 C334 C 0.14541 0.67366 0.35236
 H335 H 0.09241 0.69387 0.37676
 H336 H 0.15682 0.64611 0.35737
 C337 C 0.90130 0.55576 0.87510
 C338 C 0.85965 0.51862 0.84823
 H339 H 0.90605 0.59270 0.87557
 H340 H 0.85141 0.48071 0.85458
 C341 C 0.45641 0.33502 0.92381
 C342 C 0.48872 0.33209 0.88133
 H343 H 0.41861 0.30547 0.92142
 H344 H 0.52598 0.36249 0.87718
 C345 C 0.66171 0.12701 0.89664
 C346 C 0.70915 0.14035 0.88906
 H347 H 0.64513 0.14002 0.85968
 H348 H 0.72785 0.12884 0.92442
 C349 C 0.10265 0.45377 0.36332
 C350 C 0.10236 0.41058 0.35700
 H351 H 0.13383 0.48595 0.34161
 H352 H 0.07045 0.37600 0.37076
 C353 C 0.53965 0.66461 0.41516
 C354 C 0.52048 0.66130 0.35336
 H355 H 0.56872 0.69990 0.43384
 H356 H 0.49230 0.62554 0.33457
 C357 C 0.34148 0.88857 0.41304
 C358 C 0.33543 0.85149 0.37120
 H359 H 0.31377 0.89978 0.41171
 H360 H 0.36430 0.84214 0.36586
 C361 C 0.58746 0.92149 0.11831
 C362 C 0.56171 0.87330 0.10279
 H363 H 0.61448 0.93461 0.15876
 H364 H 0.53339 0.86148 0.06409
 C365 C 0.33861 0.45066 0.09082
 C366 C 0.30581 0.40907 0.12157
 H367 H 0.33155 0.48147 0.08969
 H368 H 0.31164 0.37754 0.12377
 C369 C 0.09132 0.66822 0.11614
 C370 C 0.13258 0.70738 0.09413
 H371 H 0.08217 0.66560 0.16959
 H372 H 0.14440 0.70678 0.04255
 C373 C 0.46671 0.11939 0.58269
 C374 C 0.42993 0.11777 0.61958
 H375 H 0.49991 0.15467 0.57568
 H376 H 0.39717 0.08261 0.62893
 C377 C 0.64133 0.56018 0.63281
 C378 C 0.65779 0.52829 0.62288
 H379 H 0.66247 0.59388 0.66212
 H380 H 0.63546 0.49491 0.59332
 C381 C 0.88622 0.33973 0.56224
 C382 C 0.86172 0.34024 0.61771
 H383 H 0.88611 0.30603 0.54725
 H384 H 0.86362 0.37449 0.63418
   
