data_POSCAR
  _audit_creation_date              2014-09-24
  _audit_creation_method            'ToBaCCo'
  _symmetry_space_group_name_H-M    'P1'
  _symmetry_Int_Tables_number       1
  _symmetry_cell_setting            triclinic
  loop_
  _symmetry_equiv_pos_as_xyz
 x,y,z
_cell_length_a 32.5566
_cell_length_b 32.5551
_cell_length_c 32.5358
_cell_angle_alpha 89.960600
_cell_angle_beta 90.116900
_cell_angle_gamma 89.999600
loop_
  _atom_site_label
  _atom_site_type_symbol
  _atom_site_fract_x
  _atom_site_fract_y
  _atom_site_fract_z
O1 O -0.10653 0.05486 0.00083
 O2 O 0.10467 0.05447 -0.00207
 O3 O -0.00232 0.10488 0.05469
 O4 O 0.00054 0.10457 -0.05653
 O5 O 0.00038 0.05444 -0.10637
 O6 O -0.00237 0.05500 0.10499
 O7 O 0.05471 0.10461 -0.00233
 O8 O -0.05636 0.10479 0.00067
 Zr9 Zr -0.00090 0.07131 -0.00078
 O10 O 0.03624 0.03622 -0.03790
 O11 O -0.03814 0.03652 0.03660
 C12 C -0.09440 0.09286 0.00155
 C13 C 0.09272 0.09253 -0.00299
 C14 C -0.00313 0.09299 0.09279
 C15 C 0.00122 0.09260 -0.09463
 H16 H 0.05375 0.05382 0.05406
 O17 O 0.03616 0.03627 0.03657
 H18 H -0.05570 0.05373 -0.05541
 O19 O -0.03818 0.03621 -0.03779
 O20 O 0.10435 -0.05663 0.00134
 O21 O -0.10682 -0.05627 -0.00183
 O22 O 0.05461 -0.00226 0.10524
 O23 O 0.05438 0.00016 -0.10614
 O24 O -0.05677 -0.00260 -0.10613
 O25 O -0.05649 0.00112 0.10517
 O26 O 0.00021 -0.10635 0.05569
 O27 O -0.00299 -0.10661 -0.05553
 O28 O 0.00042 -0.05619 0.10550
 O29 O -0.00290 -0.05673 -0.10584
 O30 O 0.10455 -0.00248 0.05515
 O31 O -0.10658 0.00107 0.05503
 O32 O -0.10667 -0.00242 -0.05612
 O33 O 0.10446 0.00020 -0.05598
 O34 O 0.05419 -0.10658 0.00159
 O35 O -0.05696 -0.10639 -0.00152
 Zr36 Zr 0.07110 -0.00101 -0.00043
 Zr37 Zr -0.07325 -0.00076 -0.00051
 Zr38 Zr -0.00099 -0.00069 0.07181
 Zr39 Zr -0.00116 -0.00106 -0.07271
 Zr40 Zr -0.00129 -0.07309 -0.00008
 O41 O -0.03843 -0.03816 -0.03759
 O42 O 0.03613 -0.03809 0.03700
 C43 C 0.09224 -0.09462 0.00232
 C44 C -0.09505 -0.09443 -0.00242
 C45 C 0.09260 -0.00318 0.09319
 C46 C 0.09243 0.00088 -0.09406
 C47 C -0.09485 -0.00334 -0.09424
 C48 C -0.09452 0.00198 0.09308
 C49 C 0.00107 -0.09436 0.09379
 C50 C -0.00381 -0.09470 -0.09362
 H51 H -0.05584 -0.05529 0.05447
 O52 O -0.03828 -0.03784 0.03688
 H53 H 0.05333 -0.05582 -0.05485
 O54 O 0.03586 -0.03819 -0.03739
 O55 O 0.39377 0.55493 0.00140
 O56 O 0.60498 0.55545 -0.00143
 O57 O 0.49780 0.60544 0.05542
 O58 O 0.50082 0.60494 -0.05578
 O59 O 0.50083 0.55468 -0.10563
 O60 O 0.49796 0.55564 0.10566
 O61 O 0.55482 0.60539 -0.00164
 O62 O 0.44370 0.60511 0.00128
 Zr63 Zr 0.49932 0.57182 -0.00005
 O64 O 0.53652 0.53677 -0.03718
 O65 O 0.46215 0.53693 0.03727
 C66 C 0.40571 0.59298 0.00211
 C67 C 0.59289 0.59347 -0.00235
 C68 C 0.49710 0.59371 0.09361
 C69 C 0.50167 0.59273 -0.09374
 H70 H 0.55409 0.55462 0.05476
 O71 O 0.53657 0.53699 0.03727
 H72 H 0.44464 0.55397 -0.05477
 O73 O 0.46222 0.53653 -0.03714
 O74 O 0.60511 0.44432 0.00207
 O75 O 0.39392 0.44385 -0.00123
 O76 O 0.55515 0.49860 0.10592
 O77 O 0.55484 0.50079 -0.10545
 O78 O 0.44367 0.49767 -0.10556
 O79 O 0.44398 0.50146 0.10580
 O80 O 0.50123 0.39428 0.05621
 O81 O 0.49806 0.39376 -0.05493
 O82 O 0.50122 0.44451 0.10609
 O83 O 0.49787 0.44359 -0.10526
 O84 O 0.60506 0.49849 0.05591
 O85 O 0.39390 0.50113 0.05563
 O86 O 0.39376 0.49777 -0.05556
 O87 O 0.60494 0.50118 -0.05531
 O88 O 0.55516 0.39416 0.00222
 O89 O 0.44404 0.39387 -0.00091
 Zr90 Zr 0.57163 0.49980 0.00027
 Zr91 Zr 0.42725 0.49946 0.00009
 Zr92 Zr 0.49952 0.49994 0.07245
 Zr93 Zr 0.49932 0.49929 -0.07205
 Zr94 Zr 0.49954 0.42742 0.00049
 O95 O 0.46216 0.46210 -0.03699
 O96 O 0.53677 0.46262 0.03764
 C97 C 0.59315 0.40628 0.00300
 C98 C 0.40599 0.40583 -0.00183
 C99 C 0.59325 0.49781 0.09404
 C100 C 0.59289 0.50176 -0.09338
 C101 C 0.40557 0.49692 -0.09370
 C102 C 0.40594 0.50212 0.09369
 C103 C 0.50209 0.40645 0.09420
 C104 C 0.49718 0.40560 -0.09305
 H105 H 0.44494 0.44508 0.05506
 O106 O 0.46243 0.46258 0.03746
 H107 H 0.55412 0.44486 -0.05421
 O108 O 0.53658 0.46243 -0.03674
 O109 O -0.10625 0.55513 0.50142
 O110 O 0.10496 0.55464 0.49862
 O111 O -0.00212 0.60463 0.55572
 O112 O 0.00086 0.60518 0.44453
 O113 O 0.00075 0.55532 0.39429
 O114 O -0.00213 0.55438 0.60566
 O115 O 0.05497 0.60476 0.49866
 O116 O -0.05616 0.60501 0.50160
 Zr117 Zr -0.00064 0.57149 0.50004
 O118 O 0.03656 0.53660 0.46277
 O119 O -0.03784 0.53644 0.53722
 C120 C -0.09430 0.59322 0.50230
 C121 C 0.09297 0.59267 0.49786
 C122 C -0.00295 0.59244 0.59372
 C123 C 0.00157 0.59333 0.40642
 H124 H 0.05404 0.55364 0.55478
 O125 O 0.03647 0.53619 0.53717
 H126 H -0.05538 0.55429 0.44525
 O127 O -0.03786 0.53665 0.46276
 O128 O 0.10482 0.44350 0.50139
 O129 O -0.10640 0.44398 0.49805
 O130 O 0.05498 0.49733 0.60568
 O131 O 0.05476 0.50117 0.39430
 O132 O -0.05640 0.49825 0.39414
 O133 O -0.05616 0.50047 0.60551
 O134 O 0.00061 0.39339 0.55517
 O135 O -0.00246 0.39392 0.44396
 O136 O 0.00078 0.44322 0.60544
 O137 O -0.00243 0.44417 0.39403
 O138 O 0.10500 0.49746 0.55567
 O139 O -0.10628 0.50085 0.55538
 O140 O -0.10641 0.49817 0.44416
 O141 O 0.10486 0.50081 0.44445
 O142 O 0.05466 0.39356 0.50115
 O143 O -0.05644 0.39383 0.49794
 Zr144 Zr 0.07150 0.49914 0.50000
 Zr145 Zr -0.07294 0.49947 0.49980
 Zr146 Zr -0.00063 0.49895 0.57215
 Zr147 Zr -0.00079 0.49961 0.42761
 Zr148 Zr -0.00083 0.42708 0.49967
 O149 O -0.03804 0.46230 0.46248
 O150 O 0.03654 0.46178 0.53712
 C151 C 0.09272 0.40549 0.50204
 C152 C -0.09444 0.40594 0.49714
 C153 C 0.09302 0.49658 0.59372
 C154 C 0.09280 0.50182 0.40639
 C155 C -0.09442 0.49747 0.40612
 C156 C -0.09420 0.50144 0.59345
 C157 C 0.00144 0.40522 0.59328
 C158 C -0.00327 0.40609 0.40595
 H159 H -0.05543 0.44452 0.55434
 O160 O -0.03788 0.46209 0.53687
 H161 H 0.05380 0.44476 0.44510
 O162 O 0.03630 0.46226 0.46267
 O163 O 0.39405 0.05414 0.50145
 O164 O 0.60525 0.05455 0.49860
 O165 O 0.49811 0.10419 0.55588
 O166 O 0.50108 0.10460 0.44475
 O167 O 0.50115 0.05480 0.39445
 O168 O 0.49825 0.05392 0.60577
 O169 O 0.55506 0.10447 0.49875
 O170 O 0.44398 0.10430 0.50170
 Zr171 Zr 0.49960 0.07098 0.50018
 O172 O 0.53689 0.03624 0.46283
 O173 O 0.46244 0.03584 0.53728
 C174 C 0.40598 0.09220 0.50239
 C175 C 0.59311 0.09254 0.49788
 C176 C 0.49738 0.09201 0.59389
 C177 C 0.50193 0.09276 0.40667
 H178 H 0.55439 0.05333 0.55482
 O179 O 0.53688 0.03583 0.53719
 H180 H 0.44497 0.05358 0.44532
 O181 O 0.46255 0.03600 0.46282
 O182 O 0.60556 -0.05662 0.50130
 O183 O 0.39435 -0.05692 0.49803
 O184 O 0.55538 -0.00306 0.60557
 O185 O 0.55521 0.00092 0.39429
 O186 O 0.44416 -0.00242 0.39418
 O187 O 0.44428 -0.00028 0.60549
 O188 O 0.50167 -0.10698 0.55496
 O189 O 0.49844 -0.10662 0.44378
 O190 O 0.50156 -0.05714 0.60524
 O191 O 0.49829 -0.05632 0.39392
 O192 O 0.60543 -0.00280 0.55558
 O193 O 0.39419 -0.00017 0.55535
 O194 O 0.39415 -0.00271 0.44420
 O195 O 0.60534 0.00078 0.44439
 O196 O 0.55562 -0.10678 0.50099
 O197 O 0.44446 -0.10692 0.49785
 Zr198 Zr 0.57201 -0.00110 0.49994
 Zr199 Zr 0.42759 -0.00133 0.49981
 Zr200 Zr 0.49982 -0.00148 0.57209
 Zr201 Zr 0.49972 -0.00092 0.42763
 Zr202 Zr 0.49997 -0.07343 0.49952
 O203 O 0.46258 -0.03836 0.46241
 O204 O 0.53711 -0.03853 0.53700
 C205 C 0.59363 -0.09469 0.50192
 C206 C 0.40642 -0.09492 0.49710
 C207 C 0.59340 -0.00377 0.59361
 C208 C 0.59324 0.00176 0.40634
 C209 C 0.40616 -0.00336 0.40617
 C210 C 0.40623 0.00048 0.59342
 C211 C 0.50249 -0.09509 0.59304
 C212 C 0.49758 -0.09442 0.40576
 H213 H 0.44532 -0.05621 0.55426
 O214 O 0.46280 -0.03857 0.53679
 H215 H 0.55455 -0.05555 0.44498
 O216 O 0.53700 -0.03813 0.46258
 C217 C 0.18639 0.18619 -0.00567
 C218 C 0.14458 0.19691 -0.00589
 C219 C 0.11423 0.16657 -0.00524
 C220 C 0.12496 0.12472 -0.00431
 C221 C 0.16683 0.11401 -0.00437
 C222 C 0.19717 0.14440 -0.00505
 C223 C 0.21861 0.21851 -0.00570
 C224 C 0.25432 0.21396 -0.02949
 C225 C 0.28468 0.24433 -0.02931
 C226 C 0.28003 0.27993 -0.00535
 C227 C 0.24431 0.28448 0.01841
 C228 C 0.21396 0.25413 0.01824
 C229 C 0.31233 0.31216 -0.00497
 C230 C 0.30161 0.35397 -0.00504
 C231 C 0.33195 0.38432 -0.00417
 C232 C 0.37380 0.37359 -0.00317
 C233 C 0.38450 0.33172 -0.00333
 C234 C 0.35413 0.30139 -0.00423
 H235 H 0.13529 0.22883 -0.00697
 H236 H 0.08234 0.17601 -0.00544
 H237 H 0.17628 0.08213 -0.00362
 H238 H 0.22911 0.13516 -0.00437
 H239 H 0.25851 0.18716 -0.04872
 H240 H 0.31156 0.24021 -0.04842
 H241 H 0.24013 0.31122 0.03772
 H242 H 0.18714 0.25823 0.03742
 H243 H 0.26969 0.36326 -0.00620
 H244 H 0.32251 0.41622 -0.00430
 H245 H 0.41639 0.32227 -0.00253
 H246 H 0.36337 0.26944 -0.00365
 C247 C 0.18661 -0.31385 0.49452
 C248 C 0.14484 -0.30304 0.49470
 C249 C 0.11447 -0.33333 0.49563
 C250 C 0.12519 -0.37518 0.49645
 C251 C 0.16703 -0.38596 0.49603
 C252 C 0.19737 -0.35564 0.49507
 C253 C 0.21885 -0.28163 0.49414
 C254 C 0.25419 -0.28619 0.46983
 C255 C 0.28462 -0.25592 0.46972
 C256 C 0.28034 -0.22042 0.49389
 C257 C 0.24498 -0.21586 0.51816
 C258 C 0.21458 -0.24612 0.51828
 C259 C 0.31269 -0.18832 0.49400
 C260 C 0.30202 -0.14651 0.49404
 C261 C 0.33240 -0.11624 0.49482
 C262 C 0.37422 -0.12708 0.49563
 C263 C 0.38487 -0.16896 0.49528
 C264 C 0.35445 -0.19921 0.49446
 H265 H 0.13559 -0.27111 0.49370
 H266 H 0.08259 -0.32386 0.49570
 H267 H 0.17646 -0.41786 0.49667
 H268 H 0.22932 -0.36490 0.49544
 H269 H 0.25806 -0.31293 0.45045
 H270 H 0.31124 -0.26001 0.45025
 H271 H 0.24113 -0.18918 0.53764
 H272 H 0.18802 -0.24205 0.53785
 H273 H 0.27011 -0.13716 0.49309
 H274 H 0.32302 -0.08433 0.49484
 H275 H 0.41674 -0.17846 0.49591
 H276 H 0.36361 -0.23118 0.49492
 C277 C 0.81241 0.81359 -0.00534
 C278 C 0.80183 0.85542 -0.00523
 C279 C 0.83225 0.88572 -0.00444
 C280 C 0.87424 0.87503 -0.00366
 C281 C 0.88467 0.83296 -0.00401
 C282 C 0.85417 0.80274 -0.00485
 C283 C 0.78000 0.78139 -0.00564
 C284 C 0.78453 0.74574 -0.02957
 C285 C 0.75416 0.71536 -0.02958
 C286 C 0.71853 0.71991 -0.00567
 C287 C 0.71397 0.75560 0.01819
 C288 C 0.74433 0.78597 0.01820
 C289 C 0.68634 0.68749 -0.00540
 C290 C 0.64449 0.69808 -0.00529
 C291 C 0.61421 0.66763 -0.00450
 C292 C 0.62504 0.62580 -0.00373
 C293 C 0.66695 0.61523 -0.00408
 C294 C 0.69721 0.64571 -0.00491
 H295 H 0.76993 0.86479 -0.00620
 H296 H 0.82261 0.91757 -0.00443
 H297 H 0.91645 0.82313 -0.00342
 H298 H 0.86332 0.77076 -0.00441
 H299 H 0.81134 0.74157 -0.04876
 H300 H 0.75831 0.68853 -0.04878
 H301 H 0.68721 0.75974 0.03746
 H302 H 0.74021 0.81274 0.03749
 H303 H 0.63510 0.72997 -0.00625
 H304 H 0.58229 0.67698 -0.00446
 H305 H 0.67650 0.58337 -0.00347
 H306 H 0.72917 0.63654 -0.00447
 C307 C 0.81179 0.31258 0.49383
 C308 C 0.80111 0.35439 0.49399
 C309 C 0.83149 0.38467 0.49486
 C310 C 0.87331 0.37383 0.49563
 C311 C 0.88396 0.33195 0.49518
 C312 C 0.85355 0.30170 0.49428
 C313 C 0.77949 0.28043 0.49363
 C314 C 0.78387 0.24497 0.46941
 C315 C 0.75359 0.21456 0.46956
 C316 C 0.71828 0.21894 0.49393
 C317 C 0.71386 0.25444 0.51807
 C318 C 0.74413 0.28484 0.51792
 C319 C 0.68623 0.18653 0.49440
 C320 C 0.64440 0.19710 0.49464
 C321 C 0.61421 0.16664 0.49562
 C322 C 0.62516 0.12485 0.49644
 C323 C 0.66706 0.11430 0.49596
 C324 C 0.69723 0.14480 0.49494
 H325 H 0.76920 0.36372 0.49308
 H326 H 0.82212 0.41658 0.49496
 H327 H 0.91583 0.32243 0.49578
 H328 H 0.86273 0.26973 0.49467
 H329 H 0.81049 0.24100 0.44991
 H330 H 0.75756 0.18784 0.45017
 H331 H 0.68732 0.25838 0.53768
 H332 H 0.74020 0.31149 0.53742
 H333 H 0.63497 0.22898 0.49365
 H334 H 0.58228 0.17594 0.49574
 H335 H 0.67666 0.08246 0.49660
 H336 H 0.72923 0.13572 0.49527
 C337 C 0.81246 0.18683 0.00516
 C338 C 0.80147 0.14510 0.00461
 C339 C 0.83164 0.11460 0.00354
 C340 C 0.87354 0.12515 0.00301
 C341 C 0.88448 0.16695 0.00381
 C342 C 0.85430 0.19740 0.00485
 C343 C 0.78042 0.21924 0.00571
 C344 C 0.78478 0.25479 -0.01840
 C345 C 0.75453 0.28520 -0.01814
 C346 C 0.71922 0.28074 0.00622
 C347 C 0.71488 0.24522 0.03041
 C348 C 0.74515 0.21480 0.03015
 C349 C 0.68692 0.31290 0.00612
 C350 C 0.64516 0.30202 0.00575
 C351 C 0.61475 0.33228 0.00493
 C352 C 0.62540 0.37416 0.00448
 C353 C 0.66722 0.38499 0.00519
 C354 C 0.69760 0.35471 0.00598
 H355 H 0.76948 0.13601 0.00434
 H356 H 0.82205 0.08276 0.00292
 H357 H 0.91642 0.17625 0.00365
 H358 H 0.86372 0.22929 0.00584
 H359 H 0.81129 0.25878 -0.03806
 H360 H 0.75842 0.31190 -0.03762
 H361 H 0.68830 0.24121 0.04996
 H362 H 0.74122 0.18803 0.04953
 H363 H 0.63598 0.27006 0.00535
 H364 H 0.58288 0.32277 0.00437
 H365 H 0.67660 0.41691 0.00509
 H366 H 0.72952 0.36404 0.00684
 C367 C 0.81371 -0.31426 0.50525
 C368 C 0.80287 -0.35602 0.50486
 C369 C 0.83310 -0.38651 0.50404
 C370 C 0.87515 -0.37608 0.50360
 C371 C 0.88584 -0.33408 0.50432
 C372 C 0.85554 -0.30368 0.50510
 C373 C 0.78152 -0.28185 0.50548
 C374 C 0.78606 -0.24618 0.48153
 C375 C 0.75570 -0.21581 0.48147
 C376 C 0.72005 -0.22037 0.50534
 C377 C 0.71552 -0.25601 0.52935
 C378 C 0.74590 -0.28638 0.52942
 C379 C 0.68764 -0.18818 0.50499
 C380 C 0.64585 -0.19903 0.50454
 C381 C 0.61539 -0.16877 0.50367
 C382 C 0.62596 -0.12686 0.50325
 C383 C 0.66780 -0.11604 0.50396
 C384 C 0.69823 -0.14632 0.50480
 H385 H 0.77089 -0.36518 0.50446
 H386 H 0.82327 -0.41830 0.50350
 H387 H 0.91769 -0.32444 0.50425
 H388 H 0.86490 -0.27177 0.50600
 H389 H 0.81280 -0.24206 0.46223
 H390 H 0.75981 -0.18906 0.46212
 H391 H 0.68872 -0.26015 0.54856
 H392 H 0.74177 -0.31320 0.54868
 H393 H 0.63668 -0.23100 0.50416
 H394 H 0.58352 -0.17831 0.50310
 H395 H 0.67715 -0.08412 0.50387
 H396 H 0.73013 -0.13694 0.50572
 C397 C 0.18610 0.31154 0.50520
 C398 C 0.19699 0.35331 0.50486
 C399 C 0.16675 0.38377 0.50396
 C400 C 0.12485 0.37318 0.50340
 C401 C 0.11400 0.33136 0.50401
 C402 C 0.14426 0.30093 0.50488
 C403 C 0.21825 0.27915 0.50557
 C404 C 0.21376 0.24362 0.48146
 C405 C 0.24410 0.21326 0.48152
 C406 C 0.27966 0.21772 0.50570
 C407 C 0.28412 0.25322 0.52987
 C408 C 0.25376 0.28359 0.52981
 C409 C 0.31204 0.18557 0.50546
 C410 C 0.35380 0.19646 0.50515
 C411 C 0.38426 0.16622 0.50432
 C412 C 0.37368 0.12433 0.50378
 C413 C 0.33185 0.11347 0.50437
 C414 C 0.30143 0.14373 0.50518
 H415 H 0.22896 0.36246 0.50459
 H416 H 0.17629 0.41563 0.50347
 H417 H 0.08208 0.32201 0.50382
 H418 H 0.13488 0.26902 0.50572
 H419 H 0.18709 0.23960 0.46194
 H420 H 0.24007 0.18660 0.46205
 H421 H 0.31086 0.25726 0.54930
 H422 H 0.25782 0.31032 0.54919
 H423 H 0.36296 0.22844 0.50485
 H424 H 0.41612 0.17577 0.50384
 H425 H 0.32251 0.08155 0.50419
 H426 H 0.26953 0.13435 0.50599
 C427 C 0.18563 0.81164 0.00566
 C428 C 0.19650 0.85340 0.00511
 C429 C 0.16623 0.88380 0.00420
 C430 C 0.12436 0.87314 0.00383
 C431 C 0.11353 0.83132 0.00468
 C432 C 0.14382 0.80094 0.00556
 C433 C 0.21779 0.77934 0.00592
 C434 C 0.21332 0.74389 -0.01829
 C435 C 0.24374 0.71364 -0.01839
 C436 C 0.27931 0.71815 0.00573
 C437 C 0.28375 0.75356 0.03002
 C438 C 0.25332 0.78383 0.03012
 C439 C 0.31172 0.68611 0.00534
 C440 C 0.35345 0.69711 0.00479
 C441 C 0.38395 0.66694 0.00385
 C442 C 0.37341 0.62504 0.00347
 C443 C 0.33162 0.61409 0.00429
 C444 C 0.30116 0.64427 0.00520
 H445 H 0.22846 0.86258 0.00467
 H446 H 0.17574 0.91567 0.00353
 H447 H 0.08162 0.82194 0.00463
 H448 H 0.13450 0.76903 0.00655
 H449 H 0.18661 0.73988 -0.03777
 H450 H 0.23975 0.68702 -0.03793
 H451 H 0.31053 0.75761 0.04940
 H452 H 0.25734 0.81052 0.04956
 H453 H 0.36253 0.72911 0.00439
 H454 H 0.41579 0.67654 0.00321
 H455 H 0.32232 0.58215 0.00424
 H456 H 0.26928 0.63485 0.00620
 C457 C -0.00637 0.18700 0.18601
 C458 C -0.00610 0.19758 0.14413
 C459 C -0.00520 0.16712 0.11391
 C460 C -0.00451 0.12532 0.12486
 C461 C -0.00500 0.11476 0.16679
 C462 C -0.00593 0.14525 0.19699
 C463 C -0.00675 0.21940 0.21811
 C464 C -0.03100 0.21495 0.25353
 C465 C -0.03104 0.24530 0.28389
 C466 C -0.00684 0.28079 0.27950
 C467 C 0.01732 0.28527 0.24403
 C468 C 0.01736 0.25493 0.21369
 C469 C -0.00653 0.31289 0.31191
 C470 C -0.00629 0.35473 0.30130
 C471 C -0.00542 0.38495 0.33177
 C472 C -0.00472 0.37403 0.37361
 C473 C -0.00522 0.33212 0.38418
 C474 C -0.00612 0.30193 0.35369
 H475 H -0.00700 0.22947 0.13470
 H476 H -0.00505 0.17644 0.08196
 H477 H -0.00446 0.08292 0.17641
 H478 H -0.00562 0.13613 0.22900
 H479 H -0.05038 0.18822 0.25753
 H480 H -0.05045 0.24126 0.31057
 H481 H 0.03680 0.31194 0.24007
 H482 H 0.03687 0.25894 0.18707
 H483 H -0.00717 0.36415 0.26939
 H484 H -0.00527 0.41689 0.32244
 H485 H -0.00467 0.32253 0.41605
 H486 H -0.00580 0.26994 0.36282
 C487 C 0.49410 0.31143 0.81377
 C488 C 0.49437 0.35318 0.80276
 C489 C 0.49524 0.38371 0.83293
 C490 C 0.49583 0.37322 0.87489
 C491 C 0.49529 0.33141 0.88586
 C492 C 0.49446 0.30091 0.85567
 C493 C 0.49378 0.27897 0.78168
 C494 C 0.51791 0.24344 0.78626
 C495 C 0.51792 0.21305 0.75595
 C496 C 0.49380 0.21746 0.72033
 C497 C 0.46959 0.25293 0.71579
 C498 C 0.46958 0.28334 0.74612
 C499 C 0.49417 0.18531 0.68793
 C500 C 0.49447 0.19622 0.64614
 C501 C 0.49537 0.16601 0.61566
 C502 C 0.49599 0.12410 0.62624
 C503 C 0.49543 0.11321 0.66809
 C504 C 0.49456 0.14346 0.69855
 H505 H 0.49461 0.36227 0.77074
 H506 H 0.49567 0.41555 0.82329
 H507 H 0.49552 0.32214 0.91783
 H508 H 0.49368 0.26903 0.86515
 H509 H 0.53740 0.23947 0.81298
 H510 H 0.53742 0.18641 0.76004
 H511 H 0.45020 0.25694 0.68901
 H512 H 0.45018 0.31004 0.74198
 H513 H 0.49469 0.22820 0.63697
 H514 H 0.49582 0.17559 0.58378
 H515 H 0.49568 0.08128 0.67743
 H516 H 0.49377 0.13405 0.73046
 C517 C -0.00724 0.81134 0.81331
 C518 C -0.00677 0.85305 0.80227
 C519 C -0.00583 0.88355 0.83243
 C520 C -0.00535 0.87300 0.87436
 C521 C -0.00615 0.83121 0.88536
 C522 C -0.00706 0.80075 0.85518
 C523 C -0.00748 0.77895 0.78128
 C524 C 0.01689 0.74361 0.78583
 C525 C 0.01703 0.71327 0.75551
 C526 C -0.00719 0.71761 0.71998
 C527 C -0.03165 0.75290 0.71547
 C528 C -0.03179 0.78325 0.74580
 C529 C -0.00667 0.68556 0.68762
 C530 C -0.00611 0.69654 0.64587
 C531 C -0.00502 0.66637 0.61540
 C532 C -0.00447 0.62448 0.62601
 C533 C -0.00530 0.61353 0.66783
 C534 C -0.00636 0.64373 0.69827
 H535 H -0.00640 0.86213 0.77025
 H536 H -0.00521 0.91539 0.82280
 H537 H -0.00603 0.82192 0.91732
 H538 H -0.00799 0.76886 0.86462
 H539 H 0.03645 0.73975 0.81251
 H540 H 0.03669 0.68674 0.75953
 H541 H -0.05110 0.75680 0.68871
 H542 H -0.05134 0.80987 0.74174
 H543 H -0.00583 0.72854 0.63674
 H544 H -0.00438 0.67596 0.58353
 H545 H -0.00512 0.58160 0.67717
 H546 H -0.00735 0.63433 0.73018
 C547 C 0.49411 -0.31367 0.18547
 C548 C 0.49430 -0.30313 0.14360
 C549 C 0.49511 -0.33357 0.11333
 C550 C 0.49581 -0.37555 0.12411
 C551 C 0.49534 -0.38594 0.16621
 C552 C 0.49450 -0.35542 0.19640
 C553 C 0.49383 -0.28124 0.21762
 C554 C 0.46984 -0.28574 0.25322
 C555 C 0.46990 -0.25538 0.28361
 C556 C 0.49397 -0.21980 0.27911
 C557 C 0.51787 -0.21526 0.24346
 C558 C 0.51780 -0.24561 0.21308
 C559 C 0.49437 -0.18767 0.31157
 C560 C 0.49464 -0.14580 0.30102
 C561 C 0.49551 -0.11558 0.33152
 C562 C 0.49621 -0.12650 0.37336
 C563 C 0.49573 -0.16843 0.38389
 C564 C 0.49481 -0.19862 0.35336
 H565 H 0.49341 -0.27123 0.13417
 H566 H 0.49520 -0.32396 0.08145
 H567 H 0.49587 -0.41771 0.17611
 H568 H 0.49487 -0.36454 0.22841
 H569 H 0.45055 -0.31252 0.25734
 H570 H 0.45067 -0.25950 0.31040
 H571 H 0.53725 -0.18855 0.23937
 H572 H 0.53714 -0.24152 0.18635
 H573 H 0.49373 -0.13635 0.26911
 H574 H 0.49565 -0.08364 0.32221
 H575 H 0.49628 -0.17804 0.41575
 H576 H 0.49514 -0.23061 0.36249
 C577 C 0.00410 0.81368 0.18657
 C578 C 0.00365 0.80282 0.14479
 C579 C 0.00278 0.83303 0.11422
 C580 C 0.00234 0.87511 0.12459
 C581 C 0.00305 0.88582 0.16660
 C582 C 0.00389 0.85553 0.19708
 C583 C 0.00447 0.78148 0.21906
 C584 C -0.01929 0.78606 0.25481
 C585 C -0.01922 0.75569 0.28522
 C586 C 0.00462 0.71997 0.28065
 C587 C 0.02846 0.71542 0.24496
 C588 C 0.02839 0.74581 0.21453
 C589 C 0.00438 0.68751 0.31289
 C590 C 0.00403 0.64572 0.30202
 C591 C 0.00327 0.61521 0.33230
 C592 C 0.00287 0.62572 0.37424
 C593 C 0.00348 0.66755 0.38508
 C594 C 0.00420 0.69804 0.35478
 H595 H 0.00329 0.77084 0.13566
 H596 H 0.00224 0.82317 0.08243
 H597 H 0.00297 0.91767 0.17620
 H598 H 0.00481 0.86492 0.22899
 H599 H -0.03857 0.81283 0.25895
 H600 H -0.03845 0.75983 0.31201
 H601 H 0.04765 0.68859 0.24079
 H602 H 0.04753 0.74163 0.18768
 H603 H 0.00364 0.63657 0.27004
 H604 H 0.00277 0.58336 0.32273
 H605 H 0.00338 0.67687 0.41702
 H606 H 0.00505 0.72992 0.36419
 C607 C 0.50555 -0.31438 0.81216
 C608 C 0.50532 -0.35621 0.80163
 C609 C 0.50420 -0.38634 0.83214
 C610 C 0.50324 -0.37530 0.87392
 C611 C 0.50372 -0.33340 0.88442
 C612 C 0.50487 -0.30329 0.85387
 C613 C 0.50610 -0.28242 0.77973
 C614 C 0.53065 -0.24720 0.78410
 C615 C 0.53080 -0.21692 0.75367
 C616 C 0.50640 -0.22126 0.71827
 C617 C 0.48196 -0.25655 0.71386
 C618 C 0.48181 -0.28681 0.74426
 C619 C 0.50611 -0.18894 0.68620
 C620 C 0.50597 -0.19957 0.64437
 C621 C 0.50500 -0.16914 0.61413
 C622 C 0.50408 -0.12736 0.62508
 C623 C 0.50451 -0.11677 0.66698
 C624 C 0.50552 -0.14723 0.69718
 H625 H 0.50640 -0.36566 0.76974
 H626 H 0.50408 -0.41829 0.82290
 H627 H 0.50299 -0.32376 0.91626
 H628 H 0.50454 -0.27128 0.86287
 H629 H 0.55013 -0.24330 0.81082
 H630 H 0.55039 -0.19033 0.75761
 H631 H 0.46235 -0.26041 0.68722
 H632 H 0.46209 -0.31332 0.74037
 H633 H 0.50699 -0.23147 0.63500
 H634 H 0.50491 -0.17844 0.58218
 H635 H 0.50381 -0.08493 0.67656
 H636 H 0.50512 -0.13815 0.72919
 C637 C 0.50565 0.31317 0.18814
 C638 C 0.50510 0.30226 0.14637
 C639 C 0.50410 0.33249 0.11591
 C640 C 0.50364 0.37437 0.12652
 C641 C 0.50448 0.38524 0.16835
 C642 C 0.50545 0.35498 0.19878
 C643 C 0.50599 0.28102 0.22048
 C644 C 0.48176 0.28538 0.25590
 C645 C 0.48169 0.25494 0.28616
 C646 C 0.50584 0.21945 0.28168
 C647 C 0.53017 0.21514 0.24631
 C648 C 0.53025 0.24560 0.21604
 C649 C 0.50541 0.18697 0.31367
 C650 C 0.50484 0.14527 0.30259
 C651 C 0.50383 0.11470 0.33271
 C652 C 0.50339 0.12514 0.37466
 C653 C 0.50424 0.16690 0.38570
 C654 C 0.50522 0.19744 0.35555
 H655 H 0.50472 0.27029 0.13723
 H656 H 0.50343 0.32295 0.08404
 H657 H 0.50437 0.41717 0.17768
 H658 H 0.50643 0.36433 0.23071
 H659 H 0.46225 0.31201 0.25987
 H660 H 0.46212 0.25882 0.31275
 H661 H 0.54958 0.18843 0.24230
 H662 H 0.54971 0.24167 0.18938
 H663 H 0.50448 0.13627 0.27055
 H664 H 0.50317 0.08288 0.32305
 H665 H 0.50415 0.17612 0.41767
 H666 H 0.50623 0.22930 0.36504
 C667 C 0.00421 0.18462 0.81272
 C668 C 0.00382 0.14279 0.80215
 C669 C 0.00300 0.11247 0.83259
 C670 C 0.00249 0.12314 0.87461
 C671 C 0.00312 0.16520 0.88503
 C672 C 0.00397 0.19544 0.85451
 C673 C 0.00454 0.21685 0.78029
 C674 C 0.02862 0.25241 0.78485
 C675 C 0.02863 0.28285 0.75449
 C676 C 0.00457 0.27845 0.71884
 C677 C -0.01943 0.24284 0.71423
 C678 C -0.01945 0.21242 0.74459
 C679 C 0.00428 0.31095 0.68667
 C680 C 0.00394 0.30046 0.64477
 C681 C 0.00319 0.33098 0.61452
 C682 C 0.00272 0.37280 0.62542
 C683 C 0.00328 0.38327 0.66737
 C684 C 0.00406 0.35272 0.69760
 H685 H 0.00458 0.13343 0.77023
 H686 H 0.00276 0.08063 0.82296
 H687 H 0.00273 0.17503 0.91683
 H688 H 0.00375 0.22741 0.86367
 H689 H 0.04793 0.25647 0.81168
 H690 H 0.04795 0.30960 0.75868
 H691 H -0.03883 0.23882 0.68746
 H692 H -0.03885 0.18573 0.74043
 H693 H 0.00468 0.26859 0.63532
 H694 H 0.00298 0.32171 0.58256
 H695 H 0.00289 0.41510 0.67697
 H696 H 0.00381 0.36182 0.72960
 C697 C 0.18652 -0.00646 0.18660
 C698 C 0.14479 -0.00594 0.19751
 C699 C 0.11431 -0.00502 0.16724
 C700 C 0.12488 -0.00462 0.12534
 C701 C 0.16667 -0.00545 0.11449
 C702 C 0.19711 -0.00634 0.14477
 C703 C 0.21891 -0.00677 0.21873
 C704 C 0.25434 0.01746 0.21427
 C705 C 0.28475 0.01744 0.24460
 C706 C 0.28040 -0.00681 0.28007
 C707 C 0.24500 -0.03109 0.28452
 C708 C 0.21457 -0.03107 0.25417
 C709 C 0.31260 -0.00654 0.31239
 C710 C 0.30180 -0.00606 0.35417
 C711 C 0.33212 -0.00517 0.38460
 C712 C 0.37397 -0.00476 0.37393
 C713 C 0.38472 -0.00552 0.33209
 C714 C 0.35439 -0.00638 0.30169
 H715 H 0.13570 -0.00554 0.22950
 H716 H 0.08246 -0.00438 0.17676
 H717 H 0.17598 -0.00539 0.08255
 H718 H 0.22900 -0.00732 0.13543
 H719 H 0.25823 0.03702 0.18763
 H720 H 0.31136 0.03698 0.24062
 H721 H 0.24108 -0.05055 0.31123
 H722 H 0.18789 -0.05051 0.25818
 H723 H 0.26985 -0.00567 0.36335
 H724 H 0.32267 -0.00457 0.41649
 H725 H 0.41662 -0.00544 0.32270
 H726 H 0.36365 -0.00732 0.26976
 C727 C 0.31304 0.49381 0.81403
 C728 C 0.30246 0.49412 0.85587
 C729 C 0.33287 0.49496 0.88626
 C730 C 0.37487 0.49557 0.87566
 C731 C 0.38530 0.49497 0.83359
 C732 C 0.35481 0.49409 0.80328
 C733 C 0.28061 0.49351 0.78176
 C734 C 0.28509 0.46948 0.74615
 C735 C 0.25467 0.46943 0.71573
 C736 C 0.21903 0.49341 0.72019
 C737 C 0.21455 0.51740 0.75582
 C738 C 0.24495 0.51744 0.78622
 C739 C 0.18676 0.49362 0.68776
 C740 C 0.14493 0.49388 0.69838
 C741 C 0.11457 0.49463 0.66793
 C742 C 0.12528 0.49521 0.62606
 C743 C 0.16716 0.49470 0.61546
 C744 C 0.19750 0.49390 0.64594
 H745 H 0.27056 0.49330 0.86518
 H746 H 0.32322 0.49516 0.91810
 H747 H 0.41709 0.49541 0.82383
 H748 H 0.36397 0.49436 0.77130
 H749 H 0.31189 0.45022 0.74207
 H750 H 0.25877 0.45015 0.68895
 H751 H 0.18780 0.53674 0.75988
 H752 H 0.24087 0.53682 0.81294
 H753 H 0.13562 0.49308 0.73030
 H754 H 0.08267 0.49481 0.67731
 H755 H 0.17662 0.49516 0.58357
 H756 H 0.22945 0.49422 0.63674
 C757 C 0.81279 -0.00676 0.81366
 C758 C 0.80216 -0.00639 0.85546
 C759 C 0.83253 -0.00544 0.88582
 C760 C 0.87450 -0.00477 0.87517
 C761 C 0.88498 -0.00543 0.83313
 C762 C 0.85452 -0.00641 0.80284
 C763 C 0.78044 -0.00711 0.78145
 C764 C 0.78481 -0.03148 0.74608
 C765 C 0.75444 -0.03153 0.71566
 C766 C 0.71903 -0.00723 0.71996
 C767 C 0.71464 0.01707 0.75535
 C768 C 0.74499 0.01713 0.78575
 C769 C 0.68687 -0.00701 0.68756
 C770 C 0.64506 -0.00676 0.69818
 C771 C 0.61477 -0.00592 0.66774
 C772 C 0.62557 -0.00523 0.62590
 C773 C 0.66744 -0.00575 0.61530
 C774 C 0.69772 -0.00664 0.64579
 H775 H 0.77025 -0.00725 0.86475
 H776 H 0.82288 -0.00521 0.91766
 H777 H 0.91677 -0.00495 0.82336
 H778 H 0.86366 -0.00619 0.77086
 H779 H 0.81149 -0.05095 0.74219
 H780 H 0.75841 -0.05104 0.68902
 H781 H 0.68803 0.03663 0.75922
 H782 H 0.74105 0.03675 0.81232
 H783 H 0.63575 -0.00762 0.73010
 H784 H 0.58286 -0.00575 0.67708
 H785 H 0.67693 -0.00523 0.58343
 H786 H 0.72968 -0.00633 0.63665
 C787 C -0.31430 0.49492 0.18620
 C788 C -0.35604 0.49529 0.19700
 C789 C -0.38653 0.49612 0.16671
 C790 C -0.37608 0.49658 0.12466
 C791 C -0.33410 0.49591 0.11402
 C792 C -0.30370 0.49512 0.14438
 C793 C -0.28190 0.49463 0.21842
 C794 C -0.24636 0.51872 0.21395
 C795 C -0.21594 0.51866 0.24432
 C796 C -0.22036 0.49453 0.27987
 C797 C -0.25588 0.47040 0.28433
 C798 C -0.28631 0.47045 0.25395
 C799 C -0.18810 0.49472 0.31223
 C800 C -0.19886 0.49504 0.35404
 C801 C -0.16852 0.49579 0.38448
 C802 C -0.12666 0.49622 0.37383
 C803 C -0.11594 0.49563 0.33197
 C804 C -0.14630 0.49491 0.30156
 H805 H -0.36517 0.49563 0.22899
 H806 H -0.41831 0.49662 0.17649
 H807 H -0.32445 0.49601 0.08217
 H808 H -0.27180 0.49424 0.13508
 H809 H -0.24237 0.53820 0.18727
 H810 H -0.18926 0.53810 0.24029
 H811 H -0.25989 0.45100 0.31107
 H812 H -0.31304 0.45110 0.25799
 H813 H -0.23080 0.49541 0.36324
 H814 H -0.17796 0.49627 0.41637
 H815 H -0.08405 0.49573 0.32258
 H816 H -0.13703 0.49408 0.26963
 C817 C 0.18632 0.00337 0.81257
 C818 C 0.19694 0.00328 0.85445
 C819 C 0.16653 0.00264 0.88469
 C820 C 0.12469 0.00203 0.87379
 C821 C 0.11408 0.00236 0.83185
 C822 C 0.14453 0.00304 0.80162
 C823 C 0.21871 0.00353 0.78045
 C824 C 0.21430 0.02756 0.74481
 C825 C 0.24474 0.02753 0.71456
 C826 C 0.28029 0.00346 0.71925
 C827 C 0.28471 -0.02053 0.75492
 C828 C 0.25429 -0.02050 0.78515
 C829 C 0.31256 0.00319 0.68701
 C830 C 0.35438 0.00300 0.69783
 C831 C 0.38474 0.00228 0.66752
 C832 C 0.37401 0.00166 0.62562
 C833 C 0.33214 0.00205 0.61483
 C834 C 0.30180 0.00281 0.64516
 H835 H 0.22885 0.00412 0.86389
 H836 H 0.17591 0.00261 0.91664
 H837 H 0.08221 0.00188 0.82226
 H838 H 0.13536 0.00261 0.76961
 H839 H 0.18755 0.04688 0.74057
 H840 H 0.24071 0.04683 0.68773
 H841 H 0.31141 -0.03993 0.75913
 H842 H 0.25830 -0.03987 0.81193
 H843 H 0.36366 0.00386 0.72979
 H844 H 0.41663 0.00220 0.67703
 H845 H 0.32268 0.00155 0.58290
 H846 H 0.26986 0.00243 0.63583
 C847 C 0.31218 0.50528 0.18704
 C848 C 0.30150 0.50510 0.14518
 C849 C 0.33188 0.50427 0.11493
 C850 C 0.37371 0.50355 0.12582
 C851 C 0.38437 0.50400 0.16775
 C852 C 0.35396 0.50486 0.19798
 C853 C 0.27984 0.50551 0.21916
 C854 C 0.28429 0.52965 0.25469
 C855 C 0.25393 0.52962 0.28500
 C856 C 0.21844 0.50544 0.28045
 C857 C 0.21398 0.48135 0.24490
 C858 C 0.24433 0.48138 0.21461
 C859 C 0.18627 0.50513 0.31274
 C860 C 0.14445 0.50496 0.30197
 C861 C 0.11416 0.50407 0.33231
 C862 C 0.12497 0.50328 0.37419
 C863 C 0.16684 0.50371 0.38493
 C864 C 0.19712 0.50464 0.35456
 H865 H 0.26959 0.50601 0.13577
 H866 H 0.32249 0.50417 0.08298
 H867 H 0.41624 0.50343 0.17732
 H868 H 0.36315 0.50449 0.22998
 H869 H 0.31101 0.54903 0.25880
 H870 H 0.25796 0.54897 0.31176
 H871 H 0.18732 0.46188 0.24082
 H872 H 0.24032 0.46193 0.18791
 H873 H 0.13512 0.50591 0.27002
 H874 H 0.08225 0.50398 0.32285
 H875 H 0.17635 0.50310 0.41684
 H876 H 0.22908 0.50426 0.36382
 C877 C 0.81193 0.00554 0.18654
 C878 C 0.80116 0.00545 0.14470
 C879 C 0.83148 0.00450 0.11440
 C880 C 0.87332 0.00357 0.12523
 C881 C 0.88406 0.00396 0.16714
 C882 C 0.85371 0.00494 0.19742
 C883 C 0.77968 0.00583 0.21870
 C884 C 0.78425 0.02997 0.25422
 C885 C 0.75399 0.02993 0.28462
 C886 C 0.71849 0.00576 0.28016
 C887 C 0.71390 -0.01832 0.24461
 C888 C 0.74415 -0.01828 0.21423
 C889 C 0.68644 0.00542 0.31253
 C890 C 0.64461 0.00534 0.30186
 C891 C 0.61440 0.00436 0.33226
 C892 C 0.62533 0.00339 0.37411
 C893 C 0.66723 0.00376 0.38476
 C894 C 0.69742 0.00478 0.35431
 H895 H 0.76924 0.00648 0.13535
 H896 H 0.82204 0.00445 0.08246
 H897 H 0.91594 0.00324 0.17666
 H898 H 0.86295 0.00450 0.22940
 H899 H 0.81101 0.04932 0.25825
 H900 H 0.75811 0.04926 0.31139
 H901 H 0.68722 -0.03778 0.24061
 H902 H 0.74006 -0.03772 0.18754
 H903 H 0.63519 0.00642 0.26994
 H904 H 0.58247 0.00432 0.32288
 H905 H 0.67681 0.00301 0.41664
 H906 H 0.72941 0.00434 0.36348
 C907 C -0.31343 0.50467 0.81311
 C908 C -0.30271 0.50454 0.85497
 C909 C -0.33306 0.50378 0.88527
 C910 C -0.37491 0.50308 0.87443
 C911 C -0.38561 0.50346 0.83252
 C912 C -0.35523 0.50425 0.80224
 C913 C -0.28113 0.50487 0.78093
 C914 C -0.28564 0.52896 0.74534
 C915 C -0.25531 0.52893 0.71498
 C916 C -0.21978 0.50480 0.71954
 C917 C -0.21526 0.48075 0.75516
 C918 C -0.24558 0.48079 0.78550
 C919 C -0.18762 0.50451 0.68721
 C920 C -0.14579 0.50430 0.69793
 C921 C -0.11552 0.50348 0.66756
 C922 C -0.12635 0.50280 0.62569
 C923 C -0.16824 0.50326 0.61499
 C924 C -0.19850 0.50411 0.64539
 H925 H -0.27079 0.50544 0.86433
 H926 H -0.32362 0.50372 0.91720
 H927 H -0.41749 0.50291 0.82299
 H928 H -0.36447 0.50384 0.77025
 H929 H -0.31239 0.54831 0.74121
 H930 H -0.25939 0.54825 0.68819
 H931 H -0.18858 0.46131 0.75926
 H932 H -0.24151 0.46138 0.81224
 H933 H -0.13642 0.50519 0.72987
 H934 H -0.08360 0.50336 0.67700
 H935 H -0.17777 0.50272 0.58308
 H936 H -0.23047 0.50376 0.63615
   
