data_POSCAR
  _audit_creation_date              2014-09-24
  _audit_creation_method            'ToBaCCo'
  _symmetry_space_group_name_H-M    'P1'
  _symmetry_Int_Tables_number       1
  _symmetry_cell_setting            triclinic
  loop_
  _symmetry_equiv_pos_as_xyz
 x,y,z
_cell_length_a 24.9497
_cell_length_b 21.9515
_cell_length_c 15.2429
_cell_angle_alpha 89.408000
_cell_angle_beta 89.498000
_cell_angle_gamma 90.412400
loop_
  _atom_site_label
  _atom_site_type_symbol
  _atom_site_fract_x
  _atom_site_fract_y
  _atom_site_fract_z
C1 C 0.15688 0.19332 0.13562
 C2 C 0.13565 0.25009 0.11036
 C3 C 0.15690 0.30517 0.14042
 C4 C 0.20257 0.30450 0.19444
 C5 C 0.22626 0.24818 0.21830
 C6 C 0.20314 0.19249 0.18973
 C7 C 0.22822 0.13761 0.21362
 C8 C 0.27369 0.13708 0.26557
 C9 C 0.29765 0.19150 0.29437
 C10 C 0.27310 0.24767 0.27131
 C11 C 0.22554 0.35902 0.22426
 C12 C 0.27069 0.35850 0.27680
 C13 C 0.29535 0.30349 0.30067
 C14 C 0.34135 0.30313 0.35390
 C15 C 0.36439 0.24751 0.37765
 C16 C 0.34423 0.19129 0.34788
 H17 H 0.21383 0.09391 0.19156
 H18 H 0.28900 0.09283 0.28340
 H19 H 0.20909 0.40293 0.20679
 H20 H 0.28586 0.40196 0.29887
 H21 H 0.09868 0.25189 0.07374
 H22 H 0.40176 0.24913 0.41315
 C23 C 0.83747 0.30626 0.13495
 C24 C 0.85818 0.24948 0.10971
 C25 C 0.83916 0.19448 0.14622
 C26 C 0.79682 0.19545 0.20852
 C27 C 0.77312 0.25175 0.23135
 C28 C 0.79308 0.30716 0.19414
 C29 C 0.76686 0.36187 0.21516
 C30 C 0.72371 0.36258 0.27337
 C31 C 0.70433 0.30863 0.31273
 C32 C 0.72948 0.25267 0.29213
 C33 C 0.77717 0.14143 0.24811
 C34 C 0.73554 0.14260 0.30939
 C35 C 0.71065 0.19755 0.33150
 C36 C 0.66751 0.19915 0.39233
 C37 C 0.64390 0.25459 0.41266
 C38 C 0.66066 0.30921 0.37259
 H39 H 0.77832 0.40495 0.18535
 H40 H 0.70604 0.40627 0.28765
 H41 H 0.79359 0.09743 0.23201
 H42 H 0.72295 0.09981 0.33911
 H43 H 0.89352 0.24772 0.06815
 H44 H 0.60923 0.25432 0.45610
 C45 C 0.65816 0.69213 0.63886
 C46 C 0.63770 0.74736 0.60784
 C47 C 0.66055 0.80341 0.63003
 C48 C 0.70555 0.80446 0.68620
 C49 C 0.72741 0.74886 0.71745
 C50 C 0.70375 0.69251 0.69321
 C51 C 0.72639 0.63796 0.72362
 C52 C 0.77077 0.63853 0.77799
 C53 C 0.79435 0.69369 0.80428
 C54 C 0.77248 0.74955 0.77422
 C55 C 0.72915 0.85956 0.71226
 C56 C 0.77240 0.86035 0.76927
 C57 C 0.79545 0.80592 0.80067
 C58 C 0.83926 0.80613 0.86019
 C59 C 0.85940 0.74981 0.88980
 C60 C 0.83883 0.69413 0.86080
 H61 H 0.71025 0.59407 0.70528
 H62 H 0.78579 0.59502 0.80048
 H63 H 0.71432 0.90301 0.68932
 H64 H 0.78661 0.90464 0.78907
 H65 H 0.60094 0.74682 0.57050
 H66 H 0.89531 0.74875 0.92916
 C67 C 0.15999 0.69888 0.87373
 C68 C 0.14028 0.75516 0.90272
 C69 C 0.16150 0.81138 0.87272
 C70 C 0.20688 0.81112 0.81562
 C71 C 0.22903 0.75478 0.78841
 C72 C 0.20529 0.69872 0.81662
 C73 C 0.22914 0.64382 0.78992
 C74 C 0.27379 0.64366 0.73511
 C75 C 0.29785 0.69829 0.70630
 C76 C 0.27545 0.75444 0.73315
 C77 C 0.23244 0.86569 0.78815
 C78 C 0.27763 0.86519 0.73411
 C79 C 0.29994 0.81019 0.70602
 C80 C 0.34596 0.80944 0.65109
 C81 C 0.36672 0.75345 0.62402
 C82 C 0.34378 0.69803 0.65132
 H83 H 0.21465 0.59985 0.81240
 H84 H 0.28934 0.59984 0.71593
 H85 H 0.21885 0.90974 0.80965
 H86 H 0.29501 0.90865 0.71478
 H87 H 0.10329 0.75523 0.94019
 H88 H 0.40332 0.75296 0.58513
 O89 O 1.04641 0.07222 -0.05040
 O90 O 0.94633 -0.04814 -0.08910
 O91 O 0.94315 0.06727 -0.04735
 O92 O 1.05066 -0.04499 -0.08438
 O93 O 1.04888 -0.06867 0.05684
 O94 O 0.94327 0.04400 0.09393
 O95 O 0.94596 -0.07181 0.05210
 O96 O 1.04733 0.04805 0.09062
 Cu97 Cu 0.99677 0.01380 -0.08201
 Cu98 Cu 0.99625 -0.01427 0.08752
 C99 C 1.06321 0.08139 0.02663
 C100 C 0.92970 -0.08109 -0.02541
 C101 C 0.92578 0.07556 0.03019
 C102 C 1.06707 -0.07694 -0.01997
 O103 O 0.44448 0.45442 0.41106
 O104 O 0.54848 0.56979 0.45093
 O105 O 0.54889 0.45495 0.41530
 O106 O 0.44509 0.57062 0.45423
 O107 O 0.44346 0.54500 0.59467
 O108 O 0.54756 0.43092 0.55644
 O109 O 0.54751 0.54552 0.59201
 O110 O 0.44388 0.42878 0.55149
 Cu111 Cu 0.49636 0.51467 0.41859
 Cu112 Cu 0.49497 0.48514 0.58786
 C113 C 0.42746 0.42083 0.47379
 C114 C 0.56568 0.57737 0.52808
 C115 C 0.56615 0.42364 0.47966
 C116 C 0.42777 0.57862 0.53182
 O117 O -0.04946 0.42978 -0.05242
 O118 O 0.05081 0.55233 -0.08436
 O119 O 0.05360 0.43524 -0.04967
 O120 O -0.05327 0.54702 -0.08754
 O121 O -0.05601 0.56762 0.05394
 O122 O 0.05046 0.45506 0.09203
 O123 O 0.04709 0.57272 0.05715
 O124 O -0.05362 0.45093 0.08883
 Cu125 Cu 0.00072 0.48930 -0.08277
 Cu126 Cu -0.00319 0.51341 0.08726
 C127 C -0.06802 0.41897 0.02399
 C128 C 0.06530 0.58407 -0.01931
 C129 C 0.06936 0.42511 0.02798
 C130 C -0.07215 0.57713 -0.02366
 O131 O 0.55185 1.02764 0.36047
 O132 O 0.44488 0.92499 0.43596
 O133 O 0.44970 1.04042 0.38926
 O134 O 0.54899 0.91878 0.43041
 O135 O 0.55850 0.95199 0.56568
 O136 O 0.46067 1.07152 0.52530
 O137 O 0.45456 0.95592 0.57237
 O138 O 0.56300 1.06031 0.49572
 Cu139 Cu 0.49765 0.97470 0.39079
 Cu140 Cu 0.50996 1.01329 0.55307
 C141 C 0.57560 1.06161 0.41447
 C142 C 0.43204 0.92167 0.51635
 C143 C 0.43920 1.07744 0.45085
 C144 C 0.57055 0.91491 0.50569
 C145 C 1.12881 0.13928 0.11380
 C146 C 1.09888 0.13385 0.04150
 H147 H 1.13089 0.10013 0.15727
 H148 H 1.10008 0.16888 -0.00906
 C149 C 0.62722 0.63571 0.62113
 C150 C 0.60537 0.62574 0.54271
 H151 H 0.61962 0.60408 0.67491
 H152 H 0.61471 0.65619 0.48817
 C153 C -0.13500 0.36050 0.11009
 C154 C -0.10417 0.36642 0.03782
 H155 H -0.13747 0.39944 0.15285
 H156 H -0.10445 0.33186 -0.01234
 C157 C 0.37601 0.86569 0.62576
 C158 C 0.39279 0.87461 0.54306
 H159 H 0.38680 0.89781 0.67622
 H160 H 0.37996 0.84305 0.49301
 C161 C -0.13098 0.63772 -0.11888
 C162 C -0.11097 0.62616 -0.03932
 H163 H -0.12271 0.60684 -0.17225
 H164 H -0.12073 0.65584 0.01483
 C165 C 0.37317 1.13720 0.36581
 C166 C 0.40398 1.13003 0.43685
 H167 H 0.37084 1.09951 0.32090
 H168 H 0.40350 1.16362 0.48837
 C169 C 1.13374 -0.13425 -0.10720
 C170 C 1.10458 -0.12744 -0.03355
 H171 H 1.13501 -0.09654 -0.15346
 H172 H 1.10705 -0.16080 0.01910
 C173 C 0.62802 0.36447 0.38761
 C174 C 0.60674 0.37654 0.46634
 H175 H 0.61861 0.39332 0.33184
 H176 H 0.61749 0.34893 0.52277
 C177 C 0.86642 -0.13951 -0.11646
 C178 C 0.89378 -0.13322 -0.04143
 H179 H 0.86614 -0.10097 -0.16116
 H180 H 0.89075 -0.16756 0.00995
 C181 C 0.37029 0.36018 0.37639
 C182 C 0.39045 0.36986 0.45625
 H183 H 0.37719 0.39349 0.32449
 H184 H 0.38212 0.33752 0.50891
 C185 C 0.13102 0.64471 -0.10561
 C186 C 0.10130 0.63687 -0.03242
 H187 H 0.13209 0.60735 -0.15127
 H188 H 0.10295 0.66986 0.01985
 C189 C 0.64144 1.14448 0.43114
 C190 C 0.61614 1.10470 0.38012
 H191 H 0.63356 1.14414 0.50119
 H192 H 0.62133 1.10787 0.30951
 C193 C 0.12668 0.36198 0.12275
 C194 C 0.10769 0.37549 0.04311
 H195 H 0.11789 0.39152 0.17745
 H196 H 0.11798 0.34684 -0.01194
 C197 C 0.63209 0.85963 0.60279
 C198 C 0.60818 0.86527 0.52452
 H199 H 0.62732 0.89520 0.65087
 H200 H 0.61388 0.83083 0.47496
 C201 C 0.86919 0.13784 0.12688
 C202 C 0.88714 0.12475 0.04614
 H203 H 0.87946 0.10833 0.18148
 H204 H 0.87606 0.15346 -0.00896
 C205 C 0.37224 0.64091 0.62972
 C206 C 0.39138 0.62973 0.54916
 H207 H 0.37957 0.60879 0.68263
 H208 H 0.38288 0.66105 0.49573
   
