data_POSCAR
  _audit_creation_date              2014-09-24
  _audit_creation_method            'ToBaCCo'
  _symmetry_space_group_name_H-M    'P1'
  _symmetry_Int_Tables_number       1
  _symmetry_cell_setting            triclinic
  loop_
  _symmetry_equiv_pos_as_xyz
 x,y,z
_cell_length_a 25.2387
_cell_length_b 24.4582
_cell_length_c 48.3050
_cell_angle_alpha 89.844800
_cell_angle_beta 93.318700
_cell_angle_gamma 82.608600
loop_
  _atom_site_label
  _atom_site_type_symbol
  _atom_site_fract_x
  _atom_site_fract_y
  _atom_site_fract_z
C1 C 0.02479 0.64193 1.00398
 C2 C 0.00476 0.61771 1.02700
 C3 C -0.01158 0.56498 1.02382
 C4 C -0.00344 0.53468 0.99925
 C5 C 0.01754 0.56023 0.97683
 C6 C 0.03035 0.61448 0.97855
 C7 C -0.01387 0.47558 0.99745
 C8 C -0.02321 0.45089 0.97153
 C9 C -0.02682 0.39414 0.96943
 C10 C -0.02527 0.36245 0.99381
 C11 C -0.01904 0.38654 1.01986
 C12 C -0.01197 0.44239 1.02152
 H13 H 0.03149 0.68465 1.00518
 H14 H -0.02830 0.54640 1.04101
 H15 H 0.02680 0.53699 0.95837
 H16 H -0.02760 0.47546 0.95272
 H17 H -0.02836 0.31875 0.99260
 H18 H -0.00321 0.45879 1.04178
 C19 C 0.36102 -0.00829 0.49985
 C20 C 0.38952 -0.00008 0.52494
 C21 C 0.44433 0.00485 0.52477
 C22 C 0.47170 -0.00155 0.50007
 C23 C 0.44209 -0.01097 0.47523
 C24 C 0.38673 -0.01293 0.47488
 C25 C 0.53081 0.00115 0.50023
 C26 C 0.55435 0.01698 0.47623
 C27 C 0.61002 0.01764 0.47561
 C28 C 0.64171 0.00522 0.50041
 C29 C 0.61945 -0.00937 0.52509
 C30 C 0.56405 -0.01258 0.52432
 H31 H 0.31821 -0.00938 0.49966
 H32 H 0.46543 0.01315 0.54410
 H33 H 0.46177 -0.01772 0.45601
 H34 H 0.52890 0.03116 0.45822
 H35 H 0.68418 0.00673 0.50049
 H36 H 0.54717 -0.02857 0.54222
 C37 C 0.07311 0.02246 0.27086
 H38 H 0.07171 0.04740 0.25228
 C39 C 0.11796 0.01904 0.28945
 H40 H 0.15102 0.04085 0.28463
 C41 C 0.03192 -0.03642 0.29952
 H42 H -0.00218 -0.05740 0.30338
 C43 C 0.07565 -0.04052 0.31880
 H44 H 0.07437 -0.06428 0.33762
 N45 N 0.03128 -0.00509 0.27619
 C46 C -0.07258 -0.06439 0.21120
 H47 H -0.10225 -0.02863 0.20772
 C48 C -0.07123 -0.10856 0.19288
 H49 H -0.09999 -0.10625 0.17527
 C50 C 0.00389 -0.10829 0.23705
 H51 H 0.03399 -0.10737 0.25381
 C52 C 0.00663 -0.15336 0.21929
 H53 H 0.03846 -0.18718 0.22292
 Zn54 Zn -0.03131 0.00152 0.25230
 N55 N -0.03466 -0.06452 0.23239
 C56 C 0.00306 0.04666 0.20463
 N57 N -0.02957 0.05839 0.22582
 C58 C -0.06098 0.10774 0.22705
 C59 C -0.05987 0.14784 0.20649
 C60 C 0.00480 0.08512 0.18344
 C61 C -0.13005 -0.01629 0.27400
 C62 C -0.17036 -0.00822 0.29277
 C63 C -0.12896 0.06791 0.31222
 C64 C -0.08957 0.05848 0.29306
 N65 N -0.09053 0.01669 0.27461
 H66 H 0.02714 0.00681 0.20396
 H67 H -0.08706 0.11615 0.24390
 H68 H -0.08449 0.18717 0.20820
 H69 H 0.02989 0.07388 0.16639
 H70 H -0.12949 -0.04999 0.25957
 H71 H -0.20044 -0.03606 0.29260
 H72 H -0.12713 0.10100 0.32695
 H73 H -0.05718 0.08351 0.29338
 C74 C -0.03027 -0.15313 0.19636
 C75 C 0.11947 -0.01234 0.31399
 C76 C -0.16961 0.03376 0.31254
 C77 C -0.02694 0.13669 0.18411
 C78 C -0.03364 0.08745 0.77111
 H79 H -0.06721 0.07470 0.75915
 C80 C -0.04207 0.13264 0.78871
 H81 H -0.08214 0.15405 0.79004
 C82 C 0.05916 0.07611 0.78377
 H83 H 0.09870 0.05440 0.78155
 C84 C 0.05260 0.12108 0.80150
 H85 H 0.08720 0.13239 0.81335
 N86 N 0.01621 0.05918 0.76954
 C87 C 0.12558 -0.04698 0.72447
 H88 H 0.12207 -0.08485 0.73540
 C89 C 0.16638 -0.04533 0.70627
 H90 H 0.19470 -0.08190 0.70375
 C91 C 0.09183 0.04611 0.71376
 H92 H 0.06170 0.08111 0.71634
 C93 C 0.13195 0.04958 0.69537
 H94 H 0.13219 0.08744 0.68374
 Zn95 Zn 0.02888 -0.00660 0.74860
 N96 N 0.08892 -0.00189 0.72751
 C97 C -0.02275 -0.01798 0.69619
 N98 N -0.03096 -0.01543 0.72377
 C99 C -0.08014 -0.01962 0.73319
 C100 C -0.12350 -0.02560 0.71453
 C101 C -0.06477 -0.02401 0.67692
 C102 C 0.08655 -0.06838 0.79211
 C103 C 0.09614 -0.10857 0.81295
 C104 C 0.01907 -0.14874 0.79467
 C105 C 0.01107 -0.10779 0.77405
 N106 N 0.04364 -0.06757 0.77366
 H107 H 0.01646 -0.01522 0.68893
 H108 H -0.08571 -0.01849 0.75523
 H109 H -0.16227 -0.02898 0.72239
 H110 H -0.05731 -0.02465 0.65506
 H111 H 0.11308 -0.03733 0.79095
 H112 H 0.13001 -0.10775 0.82770
 H113 H -0.00886 -0.17872 0.79542
 H114 H -0.02209 -0.10748 0.75889
 C115 C 0.16930 0.00310 0.69101
 C116 C 0.00129 0.14941 0.80456
 C117 C 0.06127 -0.14855 0.81493
 C118 C -0.11603 -0.02780 0.68595
 C119 C -0.00355 -0.29688 0.10304
 C120 C 0.03599 -0.28848 0.08490
 C121 C 0.03860 -0.31670 0.05998
 C122 C 0.00196 -0.35395 0.05265
 C123 C -0.03679 -0.36155 0.07180
 N124 N -0.03897 -0.33265 0.09587
 C125 C -0.00896 -0.26513 0.12895
 N126 N -0.05856 -0.24891 0.13804
 C127 C -0.06633 -0.21530 0.16026
 C128 C -0.02259 -0.19566 0.17455
 C129 C 0.02897 -0.21394 0.16617
 C130 C 0.03594 -0.24872 0.14355
 H131 H 0.07077 -0.31027 0.04696
 H132 H -0.06709 -0.38820 0.06725
 H133 H -0.10669 -0.20302 0.16635
 H134 H 0.06388 -0.19961 0.17637
 H135 H 0.06416 -0.25947 0.08955
 H136 H 0.07607 -0.26181 0.13732
 C137 C -0.02390 0.28816 0.09270
 C138 C -0.05455 0.34028 0.09048
 C139 C -0.05217 0.37279 0.06690
 C140 C -0.01981 0.35329 0.04547
 C141 C 0.01075 0.30130 0.04865
 N142 N 0.00821 0.27060 0.07193
 C143 C -0.02560 0.25175 0.11699
 N144 N 0.01912 0.21731 0.12545
 C145 C 0.01996 0.18141 0.14705
 C146 C -0.02657 0.17779 0.16129
 C147 C -0.07317 0.21302 0.15277
 C148 C -0.07277 0.25011 0.13080
 H149 H -0.07631 0.41273 0.06516
 H150 H 0.03672 0.28523 0.03270
 H151 H 0.05712 0.15592 0.15306
 H152 H -0.11041 0.21099 0.16253
 H153 H -0.07967 0.35601 0.10684
 H154 H -0.10947 0.27584 0.12415
 C155 C 0.30681 0.00630 0.60010
 C156 C 0.34402 0.04337 0.59615
 C157 C 0.37132 0.04134 0.57172
 C158 C 0.36179 0.00252 0.55128
 C159 C 0.32512 -0.03435 0.55630
 N160 N 0.29908 -0.03155 0.58016
 C161 C 0.27521 0.00651 0.62504
 N162 N 0.25100 -0.03873 0.63030
 C163 C 0.21878 -0.04133 0.65169
 C164 C 0.20836 0.00397 0.66921
 C165 C 0.23323 0.05099 0.66439
 C166 C 0.26662 0.05248 0.64239
 H167 H 0.39927 0.07058 0.56866
 H168 H 0.31737 -0.06568 0.54136
 H169 H 0.19981 -0.07810 0.65429
 H170 H 0.22644 0.08680 0.67747
 H171 H 0.35254 0.07330 0.61165
 H172 H 0.28382 0.08989 0.63869
 C173 C -0.28075 -0.03129 0.59887
 C174 C -0.33579 -0.01486 0.60055
 C175 C -0.36911 -0.00931 0.57630
 C176 C -0.34803 -0.01974 0.55009
 C177 C -0.29285 -0.03886 0.54978
 N178 N -0.26146 -0.04381 0.57366
 C179 C -0.24215 -0.03399 0.62329
 N180 N -0.19314 -0.06375 0.62126
 C181 C -0.15338 -0.06437 0.64147
 C182 C -0.16125 -0.03257 0.66538
 C183 C -0.21189 -0.00265 0.66833
 C184 C -0.25238 -0.00315 0.64737
 H185 H -0.41081 0.00622 0.57827
 H186 H -0.27429 -0.05110 0.53077
 H187 H -0.11530 -0.08889 0.63854
 H188 H -0.21947 0.02305 0.68625
 H189 H -0.35318 -0.00579 0.62022
 H190 H -0.29012 0.02241 0.64960
 C191 C 0.06643 -0.29391 0.90941
 C192 C 0.08975 -0.28420 0.93571
 C193 C 0.07944 -0.31568 0.95836
 C194 C 0.04664 -0.35800 0.95517
 C195 C 0.02809 -0.36943 0.92792
 N196 N 0.03745 -0.33696 0.90628
 C197 C 0.06990 -0.25701 0.88532
 N198 N 0.05759 -0.27476 0.85930
 C199 C 0.05603 -0.24174 0.83646
 C200 C 0.06664 -0.18694 0.83911
 C201 C 0.07968 -0.16798 0.86570
 C202 C 0.08123 -0.20257 0.88874
 H203 H 0.09806 -0.30705 0.97835
 H204 H 0.00265 -0.40122 0.92389
 H205 H 0.04611 -0.25819 0.81632
 H206 H 0.08671 -0.12563 0.86888
 H207 H 0.11548 -0.25247 0.93906
 H208 H 0.08901 -0.18558 0.90898
 C209 C -0.02317 0.30808 0.89226
 C210 C 0.00496 0.35380 0.89589
 C211 C 0.00240 0.38284 0.92070
 C212 C -0.02863 0.36720 0.94186
 C213 C -0.05838 0.32315 0.93680
 N214 N -0.05463 0.29497 0.91262
 C215 C -0.01809 0.27193 0.86765
 N216 N -0.05454 0.23605 0.86279
 C217 C -0.05046 0.19840 0.84212
 C218 C -0.00688 0.19434 0.82511
 C219 C 0.03067 0.23154 0.82938
 C220 C 0.02535 0.27019 0.85056
 H221 H 0.02624 0.41637 0.92364
 H222 H -0.08388 0.31044 0.95221
 H223 H -0.08006 0.17017 0.83978
 H224 H 0.06469 0.23018 0.81662
 H225 H 0.02923 0.36700 0.88007
 H226 H 0.05623 0.29660 0.85393
 C227 C -0.31248 0.04061 0.40171
 C228 C -0.36255 0.02116 0.40023
 C229 C -0.38917 0.01573 0.42446
 C230 C -0.36610 0.02882 0.45055
 C231 C -0.31689 0.05049 0.45070
 N232 N -0.29190 0.05525 0.42684
 C233 C -0.27898 0.04230 0.37750
 N234 N -0.22683 0.05010 0.38244
 C235 C -0.19195 0.04925 0.36203
 C236 C -0.20869 0.03933 0.33451
 C237 C -0.26253 0.03237 0.32870
 C238 C -0.29786 0.03415 0.35002
 H239 H -0.42609 -0.00242 0.42266
 H240 H -0.29815 0.06458 0.46957
 H241 H -0.15073 0.05437 0.36755
 H242 H -0.27730 0.02554 0.30766
 H243 H -0.38045 0.00790 0.38097
 H244 H -0.33906 0.02899 0.34476
 C245 C 0.28702 -0.01755 0.40056
 C246 C 0.32864 0.01554 0.40149
 C247 C 0.36248 0.01551 0.42539
 C248 C 0.35499 -0.01731 0.44835
 C249 C 0.31435 -0.05148 0.44613
 N250 N 0.28183 -0.05068 0.42267
 C251 C 0.24735 -0.01607 0.37671
 N252 N 0.22188 -0.06107 0.37153
 C253 C 0.18237 -0.06145 0.35120
 C254 C 0.16533 -0.01398 0.33494
 C255 C 0.19139 0.03278 0.33987
 C256 C 0.23235 0.03188 0.36060
 H257 H 0.39333 0.04252 0.42628
 H258 H 0.30789 -0.07812 0.46321
 H259 H 0.16415 -0.09877 0.34793
 H260 H 0.17893 0.07078 0.32840
 H261 H 0.33486 0.04146 0.38409
 H262 H 0.25031 0.06912 0.36465
   
