data_POSCAR
  _audit_creation_date              2014-09-24
  _audit_creation_method            'ToBaCCo'
  _symmetry_space_group_name_H-M    'P1'
  _symmetry_Int_Tables_number       1
  _symmetry_cell_setting            triclinic
  loop_
  _symmetry_equiv_pos_as_xyz
 x,y,z
_cell_length_a 35.8432
_cell_length_b 35.8429
_cell_length_c 35.8428
_cell_angle_alpha 77.664000
_cell_angle_beta 102.301200
_cell_angle_gamma 77.622600
loop_
  _atom_site_label
  _atom_site_type_symbol
  _atom_site_fract_x
  _atom_site_fract_y
  _atom_site_fract_z
O1 O 0.56535 0.49190 0.03359
 O2 O 0.45997 0.50269 0.03044
 O3 O 0.51929 0.44440 0.03429
 O4 O 0.50639 0.54979 0.03077
 O5 O 0.49060 0.56563 -0.03480
 O6 O 0.50338 0.46006 -0.03128
 O7 O 0.44419 0.51847 -0.03511
 O8 O 0.54941 0.50758 -0.03198
 Cu9 Cu 0.51432 0.49560 0.03889
 Cu10 Cu 0.49529 0.51449 -0.03991
 C11 C 0.57508 0.49832 0.00125
 C12 C 0.43433 0.51214 -0.00287
 C13 C 0.51322 0.43446 0.00210
 C14 C 0.49675 0.57544 -0.00252
 O15 O 0.03078 0.54021 0.49723
 O16 O 0.03378 0.43486 0.50792
 O17 O 0.03111 0.49377 0.45010
 O18 O 0.03456 0.48091 0.55545
 O19 O -0.03102 0.49697 0.53980
 O20 O -0.03448 0.50972 0.43424
 O21 O -0.03180 0.45096 0.49224
 O22 O -0.03479 0.55613 0.48143
 Cu23 Cu 0.03917 0.48585 0.50427
 Cu24 Cu -0.03964 0.50507 0.48537
 C25 C -0.00252 0.56591 0.48779
 C26 C 0.00141 0.42521 0.50150
 C27 C -0.00217 0.50349 0.42444
 C28 C 0.00236 0.48706 0.56539
 O29 O 0.49199 0.03191 0.55035
 O30 O 0.48115 0.03492 0.44518
 O31 O 0.43399 0.03460 0.49163
 O32 O 0.53953 0.03116 0.50429
 O33 O 0.55526 -0.03442 0.52031
 O34 O 0.44993 -0.03100 0.50754
 O35 O 0.49703 -0.03066 0.46107
 O36 O 0.50775 -0.03367 0.56641
 Cu37 Cu 0.48510 0.03977 0.49625
 Cu38 Cu 0.50410 -0.03905 0.51542
 C39 C 0.50129 -0.00130 0.57609
 C40 C 0.48753 0.00264 0.43539
 C41 C 0.42424 0.00229 0.49785
 C42 C 0.56516 -0.00222 0.51416
 C43 C 0.49830 -0.00959 0.01967
 C44 C 0.50125 0.01970 -0.00986
 C45 C 0.50157 0.01430 -0.04979
 C46 C 0.50440 0.05881 -0.00408
 C47 C 0.49580 -0.00377 0.05899
 C48 C 0.49751 -0.04939 0.01434
 C49 C 0.53299 0.02083 -0.06559
 C50 C 0.53335 0.01689 -0.10346
 C51 C 0.50218 0.00664 -0.12610
 C52 C 0.47062 0.00026 -0.11064
 C53 C 0.47021 0.00421 -0.07271
 C54 C 0.53496 0.06179 0.02611
 C55 C 0.53834 0.09908 0.02987
 C56 C 0.51139 0.13360 0.00332
 C57 C 0.48097 0.13074 -0.02677
 C58 C 0.47756 0.09358 -0.03054
 C59 C 0.46581 0.02678 0.06239
 C60 C 0.46294 0.03047 0.09987
 C61 C 0.48983 0.00353 0.13420
 C62 C 0.51971 -0.02689 0.13091
 C63 C 0.52261 -0.03060 0.09358
 C64 C 0.46585 -0.06472 0.02093
 C65 C 0.46497 -0.10241 0.01680
 C66 C 0.49584 -0.12526 0.00630
 C67 C 0.52766 -0.11029 -0.00008
 C68 C 0.52859 -0.07256 0.00406
 H69 H 0.55729 0.02888 -0.04850
 H70 H 0.55781 0.02209 -0.11519
 H71 H 0.44620 -0.00741 -0.12803
 H72 H 0.44533 -0.00020 -0.06138
 H73 H 0.55642 0.03532 0.04633
 H74 H 0.56212 0.10100 0.05313
 H75 H 0.45398 0.09189 -0.05416
 H76 H 0.44435 0.04731 0.03611
 H77 H 0.43956 0.05400 0.10207
 H78 H 0.54060 -0.04797 0.15725
 H79 H 0.54576 -0.05450 0.09161
 H80 H 0.44177 -0.04739 0.02912
 H81 H 0.44034 -0.11381 0.02201
 H82 H 0.55185 -0.12789 -0.00792
 H83 H 0.55363 -0.06154 -0.00040
 H84 H 0.46004 0.15726 -0.04753
 C85 C -0.00878 0.49882 0.98040
 C86 C 0.02076 0.50173 1.00969
 C87 C 0.06008 0.50420 1.00384
 C88 C 0.01544 0.50251 1.04949
 C89 C -0.04869 0.49847 0.98584
 C90 C -0.00303 0.49573 0.94127
 C91 C 0.09468 0.47733 1.03060
 C92 C 0.13201 0.48018 1.02686
 C93 C 0.13529 0.51007 0.99647
 C94 C 0.10095 0.53702 0.96959
 C95 C 0.06347 0.53420 0.97332
 C96 C 0.00516 0.47143 1.07263
 C97 C 0.00097 0.47238 1.11035
 C98 C 0.00732 0.50419 1.12534
 C99 C 0.01784 0.53505 1.10252
 C100 C 0.02201 0.53415 1.06485
 C101 C -0.07165 0.52980 0.99599
 C102 C -0.10958 0.52937 0.99996
 C103 C -0.12498 0.49780 0.99353
 C104 C -0.10231 0.46666 0.98322
 C105 C -0.06444 0.46704 0.97927
 C106 C -0.02952 0.52262 0.90655
 C107 C -0.02583 0.51923 0.86937
 C108 C 0.00423 0.48877 0.86641
 C109 C 0.03081 0.46178 0.90087
 C110 C 0.02713 0.46514 0.93820
 H111 H 0.09272 0.45417 1.05448
 H112 H 0.15836 0.45925 1.04789
 H113 H 0.10315 0.56041 0.94609
 H114 H 0.03718 0.55569 0.95284
 H115 H 0.00072 0.44640 1.06160
 H116 H -0.00688 0.44820 1.12792
 H117 H 0.03021 0.55823 1.04754
 H118 H -0.06036 0.55468 1.00044
 H119 H -0.12700 0.55377 1.00766
 H120 H -0.11400 0.44220 0.97798
 H121 H -0.04732 0.44276 0.97117
 H122 H -0.05312 0.54621 0.90831
 H123 H -0.04661 0.54019 0.84289
 H124 H 0.05405 0.43797 0.89888
 H125 H 0.04737 0.44364 0.96462
 H126 H 0.02303 0.55968 1.11395
 C127 C 0.00928 -0.02045 0.49872
 C128 C -0.02007 0.00912 0.50156
 C129 C -0.05918 0.00336 0.50472
 C130 C -0.01470 0.04908 0.50182
 C131 C 0.04909 -0.01513 0.49800
 C132 C 0.00350 -0.05979 0.49627
 C133 C -0.09394 0.02984 0.47787
 C134 C -0.13110 0.02613 0.48133
 C135 C -0.13399 -0.00392 0.51181
 C136 C -0.09949 -0.03049 0.53875
 C137 C -0.06219 -0.02680 0.53532
 C138 C -0.00452 0.07194 0.47048
 C139 C -0.00055 0.10987 0.47085
 C140 C -0.00701 0.12538 0.50236
 C141 C -0.01738 0.10281 0.53350
 C142 C -0.02133 0.06494 0.53318
 C143 C 0.07214 -0.00481 0.52909
 C144 C 0.10987 -0.00064 0.52822
 C145 C 0.12497 -0.00704 0.49647
 C146 C 0.10225 -0.01761 0.46560
 C147 C 0.06456 -0.02175 0.46642
 C148 C 0.03033 -0.09437 0.52311
 C149 C 0.02669 -0.13173 0.52024
 C150 C -0.00366 -0.13505 0.49036
 C151 C -0.03060 -0.10072 0.46344
 C152 C -0.02698 -0.06322 0.46628
 H153 H -0.09223 0.05343 0.45426
 H154 H -0.15761 0.04690 0.46041
 H155 H -0.10142 -0.05372 0.56257
 H156 H -0.03573 -0.04702 0.55679
 H157 H -0.00003 0.06056 0.44564
 H158 H 0.00720 0.12721 0.44644
 H159 H -0.02945 0.04789 0.55747
 H160 H 0.06102 -0.00032 0.55407
 H161 H 0.12737 0.00724 0.55240
 H162 H 0.11376 -0.02284 0.44102
 H163 H 0.04732 -0.02999 0.44234
 H164 H 0.05418 -0.09239 0.54626
 H165 H 0.04777 -0.15807 0.54115
 H166 H -0.05407 -0.10295 0.44006
 H167 H -0.04750 -0.03695 0.44480
 H168 H -0.02264 0.11458 0.55793
 C169 C -0.30974 0.49565 1.00145
 C170 C -0.30257 0.53687 0.99745
 C171 C -0.26489 0.53739 0.99649
 C172 C -0.23802 0.49663 0.99962
 C173 C -0.26003 0.48270 0.96585
 C174 C -0.29771 0.48219 0.96681
 C175 C -0.27789 0.46857 1.03882
 C176 C -0.24017 0.46908 1.03786
 C177 C -0.35049 0.49542 1.00217
 C178 C -0.38429 0.49614 1.00210
 C179 C -0.19752 0.49724 0.99826
 C180 C -0.16438 0.49765 0.99646
 H181 H -0.32512 0.56334 0.99558
 H182 H -0.25516 0.56428 0.99380
 H183 H -0.24713 0.47398 0.94317
 H184 H -0.31708 0.47302 0.94497
 H185 H -0.28439 0.45059 1.06382
 H186 H -0.21435 0.45155 1.06204
 C187 C 0.32045 0.51603 0.99414
 C188 C 0.30229 0.54175 1.01840
 C189 C 0.26418 0.54151 1.01779
 C190 C 0.24796 0.51558 0.99297
 C191 C 0.27777 0.47439 1.01020
 C192 C 0.31583 0.47463 1.01081
 C193 C 0.29162 0.53143 0.95234
 C194 C 0.25349 0.53119 0.95173
 C195 C 0.36165 0.51580 0.99501
 C196 C 0.39574 0.51458 0.99598
 C197 C 0.20712 0.51483 0.99277
 C198 C 0.17406 0.51321 0.99375
 H199 H 0.31796 0.55870 1.03458
 H200 H 0.24721 0.55827 1.03345
 H201 H 0.26969 0.44737 1.02097
 H202 H 0.34033 0.44782 1.02211
 H203 H 0.30038 0.54165 0.92560
 H204 H 0.22959 0.54120 0.92448
 C205 C -0.00555 -0.32024 0.48411
 C206 C -0.04171 -0.28919 0.45390
 C207 C -0.04240 -0.25105 0.45422
 C208 C -0.00686 -0.24775 0.48470
 C209 C 0.02990 -0.26990 0.47489
 C210 C 0.03058 -0.30799 0.47458
 C211 C -0.00649 -0.31194 0.52422
 C212 C -0.00717 -0.27387 0.52453
 C213 C -0.00462 -0.36143 0.48426
 C214 C -0.00364 -0.39552 0.48542
 C215 C -0.00715 -0.20691 0.48552
 C216 C -0.00626 -0.17384 0.48719
 H217 H -0.06472 -0.29650 0.43403
 H218 H -0.06599 -0.22570 0.43462
 H219 H 0.05331 -0.25679 0.46868
 H220 H 0.05457 -0.32749 0.46810
 H221 H -0.00664 -0.33403 0.55013
 H222 H -0.00792 -0.26337 0.55070
 C223 C 0.00136 0.31008 0.50427
 C224 C 0.00278 0.30121 0.46445
 C225 C 0.00171 0.26354 0.46398
 C226 C -0.00068 0.23838 0.50338
 C227 C -0.03723 0.26239 0.51202
 C228 C -0.03617 0.30005 0.51249
 C229 C 0.03604 0.27793 0.53525
 C230 C 0.03497 0.24022 0.53479
 C231 C 0.00219 0.35081 0.50444
 C232 C 0.00219 0.38460 0.50369
 C233 C -0.00215 0.19789 0.50283
 C234 C -0.00402 0.16477 0.50246
 H235 H 0.00452 0.32265 0.43886
 H236 H 0.00253 0.25270 0.43802
 H237 H -0.06181 0.25081 0.51734
 H238 H -0.05981 0.32072 0.51821
 H239 H 0.05936 0.28422 0.55573
 H240 H 0.05738 0.21421 0.55487
 C241 C 0.50403 -0.00138 -0.31090
 C242 C 0.47645 0.03680 -0.30870
 C243 C 0.47601 0.03779 -0.27101
 C244 C 0.50320 0.00051 -0.23916
 C245 C 0.54438 -0.00342 -0.24648
 C246 C 0.54481 -0.00441 -0.28420
 C247 C 0.49025 -0.03523 -0.28874
 C248 C 0.48982 -0.03423 -0.25102
 C249 C 0.50417 -0.00213 -0.35166
 C250 C 0.50336 -0.00206 -0.38549
 C251 C 0.50266 0.00190 -0.19864
 C252 C 0.50230 0.00371 -0.16551
 H253 H 0.45879 0.06096 -0.33449
 H254 H 0.45798 0.06280 -0.26454
 H255 H 0.57086 -0.00528 -0.22400
 H256 H 0.57166 -0.00713 -0.29403
 H257 H 0.48163 -0.05798 -0.30155
 H258 H 0.48082 -0.05613 -0.23151
 C259 C 0.48362 0.00569 0.31935
 C260 C 0.47981 0.04705 0.29322
 C261 C 0.48010 0.04770 0.25510
 C262 C 0.48417 0.00692 0.24686
 C263 C 0.45001 -0.00738 0.25915
 C264 C 0.44972 -0.00802 0.29727
 C265 C 0.52168 -0.02105 0.31595
 C266 C 0.52197 -0.02041 0.27790
 C267 C 0.48379 0.00479 0.36053
 C268 C 0.48495 0.00383 0.39462
 C269 C 0.48497 0.00716 0.20602
 C270 C 0.48664 0.00622 0.17297
 H271 H 0.47708 0.07351 0.30371
 H272 H 0.47762 0.07469 0.23296
 H273 H 0.42797 -0.01617 0.23962
 H274 H 0.42744 -0.01737 0.31039
 H275 H 0.54628 -0.03895 0.34124
 H276 H 0.54682 -0.03775 0.27061
 C277 C 0.49301 -0.30938 -0.00266
 C278 C 0.46544 -0.27739 -0.03968
 C279 C 0.46592 -0.23971 -0.03853
 C280 C 0.49392 -0.23779 -0.00048
 C281 C 0.53457 -0.26436 0.00192
 C282 C 0.53409 -0.30200 0.00078
 C283 C 0.48012 -0.29782 0.03243
 C284 C 0.48060 -0.26019 0.03357
 C285 C 0.49292 -0.35005 -0.00353
 C286 C 0.49396 -0.38388 -0.00347
 C287 C 0.49459 -0.19742 0.00110
 C288 C 0.49522 -0.16443 0.00311
 H289 H 0.44717 -0.28376 -0.06456
 H290 H 0.44806 -0.21378 -0.06244
 H291 H 0.56136 -0.25449 0.00428
 H292 H 0.56049 -0.32437 0.00215
 H293 H 0.47134 -0.31745 0.05441
 H294 H 0.47223 -0.24757 0.05655
 C295 C 0.51819 0.31833 0.00554
 C296 C 0.52969 0.30545 -0.02958
 C297 C 0.52943 0.26735 -0.02889
 C298 C 0.51771 0.24587 0.00686
 C299 C 0.47732 0.27246 0.00518
 C300 C 0.47757 0.31052 0.00448
 C301 C 0.54703 0.28746 0.04269
 C302 C 0.54677 0.24931 0.04338
 C303 C 0.51789 0.35949 0.00455
 C304 C 0.51641 0.39362 0.00347
 C305 C 0.51687 0.20511 0.00712
 C306 C 0.51499 0.17216 0.00612
 H307 H 0.53741 0.32454 -0.05290
 H308 H 0.53694 0.25380 -0.05162
 H309 H 0.45083 0.26227 0.00462
 H310 H 0.45129 0.33293 0.00332
 H311 H 0.56597 0.29490 0.06632
 H312 H 0.56548 0.22406 0.06760
 C313 C -0.31873 -0.00572 0.51894
 C314 C -0.29172 -0.00917 0.55973
 C315 C -0.25357 -0.00995 0.55941
 C316 C -0.24627 -0.00720 0.51834
 C317 C -0.27699 0.03073 0.49083
 C318 C -0.31505 0.03150 0.49115
 C319 C -0.29786 -0.04058 0.50558
 C320 C -0.25976 -0.04136 0.50526
 C321 C -0.35990 -0.00467 0.51870
 C322 C -0.39402 -0.00357 0.51728
 C323 C -0.20551 -0.00756 0.51742
 C324 C -0.17256 -0.00663 0.51547
 H325 H -0.30165 -0.01088 0.58646
 H326 H -0.23081 -0.01233 0.58587
 H327 H -0.26949 0.05490 0.47269
 H328 H -0.34015 0.05633 0.47329
 H329 H -0.31178 -0.06275 0.49717
 H330 H -0.24103 -0.06418 0.49658
 C331 C 0.30907 0.00226 0.49397
 C332 C 0.29485 -0.02772 0.47368
 C333 C 0.25722 -0.02895 0.47408
 C334 C 0.23749 -0.00007 0.49474
 C335 C 0.24010 0.04084 0.47328
 C336 C 0.27778 0.04207 0.47288
 C337 C 0.30366 -0.00918 0.53588
 C338 C 0.26604 -0.01040 0.53628
 C339 C 0.34974 0.00321 0.49396
 C340 C 0.38357 0.00320 0.49504
 C341 C 0.19712 -0.00173 0.49532
 C342 C 0.16414 -0.00381 0.49590
 H343 H 0.31275 -0.04632 0.46014
 H344 H 0.24286 -0.04860 0.46088
 H345 H 0.21463 0.06655 0.45962
 H346 H 0.28460 0.06882 0.45887
 H347 H 0.32732 -0.01571 0.56288
 H348 H 0.25745 -0.01798 0.56361
 C349 C -0.00211 0.50717 1.30932
 C350 C 0.00429 0.46558 1.30274
 C351 C 0.00554 0.46508 1.26514
 C352 C 0.00026 0.50620 1.23779
 C353 C 0.03255 0.52225 1.25924
 C354 C 0.03130 0.52276 1.29685
 C355 C -0.04028 0.53251 1.27749
 C356 C -0.03902 0.53200 1.23984
 C357 C -0.00308 0.50729 1.34996
 C358 C -0.00309 0.50626 1.38378
 C359 C 0.00196 0.50551 1.19745
 C360 C 0.00405 0.50485 1.16449
 H361 H 0.00751 0.43887 1.32561
 H362 H 0.00983 0.43795 1.25578
 H363 H 0.05445 0.53237 1.24603
 H364 H 0.05212 0.53332 1.31586
 H365 H -0.06598 0.54935 1.28395
 H366 H -0.06366 0.54840 1.21402
 C367 C 0.00593 0.48206 0.68155
 C368 C -0.01630 0.52207 0.68546
 C369 C -0.01550 0.52229 0.72354
 C370 C 0.00746 0.48250 0.75406
 C371 C 0.04880 0.47299 0.74701
 C372 C 0.04800 0.47276 0.70885
 C373 C -0.01279 0.45162 0.70192
 C374 C -0.01199 0.45185 0.74007
 C375 C 0.00486 0.48239 0.64036
 C376 C 0.00373 0.48388 0.60623
 C377 C 0.00783 0.48332 0.79484
 C378 C 0.00693 0.48518 0.82782
 H379 H -0.03137 0.54797 0.66048
 H380 H -0.02988 0.54840 0.73118
 H381 H 0.07626 0.46693 0.76994
 H382 H 0.07479 0.46650 0.69910
 H383 H -0.02548 0.43162 0.68768
 H384 H -0.02400 0.43204 0.75852
   
