data_POSCAR
  _audit_creation_date              2014-09-24
  _audit_creation_method            'ToBaCCo'
  _symmetry_space_group_name_H-M    'P1'
  _symmetry_Int_Tables_number       1
  _symmetry_cell_setting            triclinic
  loop_
  _symmetry_equiv_pos_as_xyz
 x,y,z
_cell_length_a 41.0921
_cell_length_b 41.0678
_cell_length_c 56.5952
_cell_angle_alpha 89.965700
_cell_angle_beta 90.056500
_cell_angle_gamma 120.375500
loop_
  _atom_site_label
  _atom_site_type_symbol
  _atom_site_fract_x
  _atom_site_fract_y
  _atom_site_fract_z
C1 C -0.01765 0.49228 1.25103
 C2 C 0.02078 0.51114 1.25112
 C3 C 0.04273 0.52078 1.27348
 C4 C 0.04297 0.52328 1.22889
 C5 C -0.03972 0.48016 1.22870
 C6 C -0.03974 0.48262 1.27327
 C7 C 0.07027 0.55845 1.27806
 C8 C 0.09116 0.56809 1.29899
 C9 C 0.08494 0.54011 1.31553
 C10 C 0.05781 0.50235 1.31093
 C11 C 0.03692 0.49271 1.28995
 C12 C 0.03820 0.54617 1.21242
 C13 C 0.05944 0.55739 1.19161
 C14 C 0.08583 0.54612 1.18719
 C15 C 0.09102 0.52373 1.20368
 C16 C 0.06981 0.51248 1.22446
 C17 C -0.03488 0.45729 1.21228
 C18 C -0.05623 0.44586 1.19148
 C19 C -0.08279 0.45691 1.18702
 C20 C -0.08799 0.47935 1.20344
 C21 C -0.06668 0.49081 1.22420
 C22 C -0.06724 0.44493 1.27783
 C23 C -0.08822 0.43529 1.29868
 C24 C -0.08212 0.46326 1.31513
 C25 C -0.05510 0.50100 1.31059
 C26 C -0.03409 0.51070 1.28969
 H27 H 0.07530 0.58044 1.26551
 H28 H 0.11212 0.59742 1.30220
 H29 H 0.05279 0.48030 1.32346
 H30 H 0.01631 0.46340 1.28653
 H31 H 0.01816 0.55540 1.21573
 H32 H 0.05539 0.57493 1.17902
 H33 H 0.07405 0.49505 1.23701
 H34 H -0.01477 0.44816 1.21564
 H35 H -0.05216 0.42828 1.17896
 H36 H -0.10857 0.48793 1.20021
 H37 H -0.07100 0.50822 1.23671
 H38 H -0.07215 0.42294 1.26532
 H39 H -0.10917 0.40603 1.30199
 H40 H -0.05034 0.52289 1.32314
 H41 H -0.01350 0.54002 1.28629
 H42 H 0.11147 0.51499 1.20048
 C43 C 0.50988 0.49115 1.25024
 C44 C 0.49079 0.51029 1.25028
 C45 C 0.47841 0.51983 1.27258
 C46 C 0.48121 0.52270 1.22801
 C47 C 0.51951 0.47886 1.22794
 C48 C 0.52226 0.48152 1.27252
 C49 C 0.45568 0.49168 1.28896
 C50 C 0.44403 0.50118 1.30976
 C51 C 0.45471 0.53883 1.31426
 C52 C 0.47700 0.56690 1.29789
 C53 C 0.48867 0.55745 1.27713
 C54 C 0.44357 0.51223 1.22341
 C55 C 0.43406 0.52372 1.20258
 C56 C 0.46209 0.54602 1.18620
 C57 C 0.49977 0.55697 1.19078
 C58 C 0.50934 0.54551 1.21165
 C59 C 0.55713 0.48922 1.22342
 C60 C 0.56666 0.47770 1.20263
 C61 C 0.53868 0.45548 1.18619
 C62 C 0.50102 0.44467 1.19066
 C63 C 0.49142 0.45616 1.21149
 C64 C 0.54504 0.50964 1.28891
 C65 C 0.55658 0.50005 1.30973
 C66 C 0.54574 0.46237 1.31424
 C67 C 0.52344 0.43434 1.29784
 C68 C 0.51187 0.44387 1.27705
 H69 H 0.44685 0.46240 1.28557
 H70 H 0.42658 0.47921 1.32224
 H71 H 0.48529 0.59608 1.30115
 H72 H 0.50597 0.57951 1.26466
 H73 H 0.42154 0.49486 1.23587
 H74 H 0.40485 0.51521 1.19924
 H75 H 0.53862 0.55449 1.21509
 H76 H 0.57913 0.50649 1.23594
 H77 H 0.59586 0.48609 1.19939
 H78 H 0.47911 0.42728 1.17812
 H79 H 0.46215 0.44726 1.21486
 H80 H 0.55396 0.53894 1.28551
 H81 H 0.57405 0.52199 1.32224
 H82 H 0.51503 0.40513 1.30111
 H83 H 0.49453 0.42185 1.26457
 H84 H 0.52170 0.57443 1.17829
 C85 C 0.50991 1.01954 1.24953
 C86 C 0.49102 0.98108 1.24961
 C87 C 0.47882 0.95896 1.27192
 C88 C 0.48147 0.95900 1.22733
 C89 C 0.51958 1.04152 1.22718
 C90 C 0.52204 1.04178 1.27177
 C91 C 0.48930 0.93187 1.27640
 C92 C 0.47779 0.91052 1.29715
 C93 C 0.45543 0.91580 1.31360
 C94 C 0.44454 0.94253 1.30915
 C95 C 0.45603 0.96390 1.28835
 C96 C 0.50961 0.96471 1.21098
 C97 C 0.50005 0.94376 1.19004
 C98 C 0.46236 0.91671 1.18539
 C99 C 0.43432 0.91055 1.20178
 C100 C 0.44383 0.93147 1.22267
 C101 C 0.49155 1.03572 1.21067
 C102 C 0.50121 1.05671 1.18974
 C103 C 0.53892 1.08391 1.18520
 C104 C 0.56686 1.09010 1.20175
 C105 C 0.55723 1.06913 1.22264
 C106 C 0.51143 1.06878 1.27612
 C107 C 0.52281 1.09018 1.29683
 C108 C 0.54517 1.08502 1.31338
 C109 C 0.55622 1.05839 1.30905
 C110 C 0.54485 1.03698 1.28829
 H111 H 0.50664 0.92748 1.26389
 H112 H 0.48633 0.88986 1.30030
 H113 H 0.42704 0.94676 1.32164
 H114 H 0.44703 0.98412 1.28501
 H115 H 0.53890 0.98531 1.21445
 H116 H 0.52199 0.94857 1.17755
 H117 H 0.42178 0.92651 1.23513
 H118 H 0.46226 1.01506 1.21405
 H119 H 0.47924 1.05178 1.17718
 H120 H 0.59612 1.11115 1.19854
 H121 H 0.57920 1.07417 1.23520
 H122 H 0.49406 1.07306 1.26353
 H123 H 0.51417 1.11077 1.29990
 H124 H 0.57372 1.05426 1.32163
 H125 H 0.55394 1.01681 1.28504
 H126 H 0.40510 0.88958 1.19839
 C127 C 1.02061 0.50982 0.75066
 C128 C 0.98217 0.49079 0.75077
 C129 C 0.95987 0.47853 0.72855
 C130 C 0.96028 0.48111 0.77313
 C131 C 1.04277 0.51950 0.77291
 C132 C 1.04261 0.52201 0.72832
 C133 C 0.93276 0.48902 0.72419
 C134 C 0.91129 0.47748 0.70351
 C135 C 0.91647 0.45512 0.68702
 C136 C 0.94317 0.44420 0.69134
 C137 C 0.96468 0.45571 0.71207
 C138 C 0.96601 0.50917 0.78959
 C139 C 0.94502 0.49949 0.81050
 C140 C 0.91792 0.46177 0.81506
 C141 C 0.91181 0.43380 0.79860
 C142 C 0.93276 0.44342 0.77772
 C143 C 1.03722 0.49141 0.78931
 C144 C 1.05820 0.50108 0.81023
 C145 C 1.08516 0.53886 0.81485
 C146 C 1.09116 0.56685 0.79840
 C147 C 1.07018 0.55720 0.77752
 C148 C 1.06973 0.51160 0.72383
 C149 C 1.09092 0.52304 0.70304
 C150 C 1.08544 0.54526 0.68654
 C151 C 1.05870 0.55611 0.69100
 C152 C 1.03750 0.54468 0.71184
 H153 H 0.92847 0.50639 0.73675
 H154 H 0.89061 0.48597 0.70038
 H155 H 0.94723 0.42669 0.67876
 H156 H 0.98492 0.44671 0.71533
 H157 H 0.98659 0.53849 0.78617
 H158 H 0.94980 0.52140 0.82305
 H159 H 0.92777 0.42142 0.76520
 H160 H 1.01670 0.46208 0.78586
 H161 H 1.05344 0.47909 0.82273
 H162 H 1.11203 0.59617 0.80169
 H163 H 1.07501 0.57920 0.76503
 H164 H 1.07426 0.49434 0.73638
 H165 H 1.11159 0.51454 0.69988
 H166 H 1.05432 0.57351 0.67847
 H167 H 1.01726 0.55363 0.71519
 H168 H 0.89081 0.40455 0.80190
 C169 C 0.48948 0.50841 0.74953
 C170 C 0.50855 0.48925 0.74962
 C171 C 0.51812 0.47680 0.72738
 C172 C 0.52085 0.47964 0.77196
 C173 C 0.47716 0.51811 0.77178
 C174 C 0.47989 0.52075 0.72720
 C175 C 0.48999 0.45401 0.71099
 C176 C 0.49954 0.44241 0.69020
 C177 C 0.53718 0.45319 0.68572
 C178 C 0.56522 0.47550 0.70211
 C179 C 0.55573 0.48714 0.72287
 C180 C 0.51046 0.44200 0.77653
 C181 C 0.52197 0.43247 0.79735
 C182 C 0.54423 0.46049 0.81377
 C183 C 0.55507 0.49817 0.80923
 C184 C 0.54358 0.50776 0.78838
 C185 C 0.48769 0.55580 0.77629
 C186 C 0.47626 0.56542 0.79708
 C187 C 0.45397 0.53746 0.81350
 C188 C 0.44297 0.49973 0.80901
 C189 C 0.45437 0.49005 0.78819
 C190 C 0.50800 0.54342 0.71078
 C191 C 0.49847 0.55508 0.68997
 C192 C 0.46084 0.54445 0.68548
 C193 C 0.43283 0.52221 0.70189
 C194 C 0.44231 0.51054 0.72266
 H195 H 0.46073 0.44514 0.71437
 H196 H 0.47760 0.42494 0.67770
 H197 H 0.59440 0.48387 0.69885
 H198 H 0.57777 0.50449 0.73535
 H199 H 0.49316 0.41996 0.76404
 H200 H 0.51355 0.40325 0.80064
 H201 H 0.55251 0.53705 0.78497
 H202 H 0.50505 0.57779 0.76379
 H203 H 0.48481 0.59467 0.80034
 H204 H 0.42552 0.47784 0.82154
 H205 H 0.44535 0.46072 0.78482
 H206 H 0.53726 0.55223 0.71417
 H207 H 0.52040 0.57249 0.67747
 H208 H 0.40366 0.51396 0.69864
 H209 H 0.42028 0.49328 0.73515
 H210 H 0.57249 0.52011 0.82175
 C211 C 0.48947 -0.02062 0.74939
 C212 C 0.50827 0.01782 0.74949
 C213 C 0.51782 0.03994 0.72724
 C214 C 0.52040 0.03988 0.77181
 C215 C 0.47735 -0.04287 0.77162
 C216 C 0.47985 -0.04255 0.72704
 C217 C 0.55547 0.06747 0.72264
 C218 C 0.56500 0.08837 0.70173
 C219 C 0.53699 0.08218 0.68529
 C220 C 0.49929 0.05515 0.68989
 C221 C 0.48969 0.03422 0.71083
 C222 C 0.54327 0.03500 0.78825
 C223 C 0.55465 0.05628 0.80907
 C224 C 0.54357 0.08281 0.81354
 C225 C 0.52115 0.08806 0.79710
 C226 C 0.50973 0.06681 0.77632
 C227 C 0.45444 -0.03816 0.78806
 C228 C 0.44319 -0.05947 0.80886
 C229 C 0.45447 -0.08590 0.81330
 C230 C 0.47691 -0.09100 0.79682
 C231 C 0.48817 -0.06970 0.77606
 C232 C 0.44222 -0.07013 0.72244
 C233 C 0.43261 -0.09096 0.70150
 C234 C 0.46056 -0.08463 0.68497
 C235 C 0.49828 -0.05749 0.68958
 C236 C 0.50791 -0.03666 0.71057
 H237 H 0.57749 0.07243 0.73513
 H238 H 0.59423 0.10933 0.69838
 H239 H 0.47737 0.05032 0.67733
 H240 H 0.46041 0.01360 0.71427
 H241 H 0.55241 0.01490 0.78488
 H242 H 0.57221 0.05218 0.82159
 H243 H 0.49232 0.07116 0.76381
 H244 H 0.44521 -0.01811 0.78473
 H245 H 0.42562 -0.05540 0.82138
 H246 H 0.48571 -0.11146 0.79997
 H247 H 0.50562 -0.07390 0.76353
 H248 H 0.42024 -0.07524 0.73498
 H249 H 0.40334 -0.11196 0.69822
 H250 H 0.52024 -0.05246 0.67703
 H251 H 0.53720 -0.01601 0.71400
 H252 H 0.51254 0.10862 0.80034
 O253 O 0.38795 0.66716 0.97189
 O254 O 0.39040 0.73113 0.97839
 C255 C 0.36633 0.73567 0.96703
 O256 O 0.33164 0.71902 0.97212
 O257 O 0.26823 0.65712 0.98018
 C258 C 0.26288 0.62806 0.96891
 O259 O 0.27944 0.60997 0.97371
 O260 O 0.34151 0.60876 0.98028
 C261 C 0.36950 0.63204 0.96795
 O262 O 0.39158 0.65877 1.01904
 O263 O 0.39056 0.72098 1.02556
 C264 C 0.37256 0.73762 1.03033
 O265 O 0.34354 0.73234 1.01905
 O266 O 0.28159 0.66897 1.02712
 C267 C 0.26488 0.63426 1.03222
 O268 O 0.26932 0.61013 1.02087
 O269 O 0.33317 0.61241 1.02742
 C270 C 0.36827 0.63080 1.03137
 Cr271 Cr 0.38804 0.69347 0.99875
 Cr272 Cr 0.30728 0.69332 0.99962
 Cr273 Cr 0.30691 0.61240 1.00054
 O274 O 0.33407 0.66641 0.99963
 O275 O 0.61203 0.33225 0.97260
 O276 O 0.60981 0.26840 0.97923
 C277 C 0.63381 0.26371 0.96795
 O278 O 0.66852 0.28037 0.97303
 O279 O 0.73197 0.34246 0.98078
 C280 C 0.73734 0.37151 0.96946
 O281 O 0.72079 0.38963 0.97421
 O282 O 0.65864 0.39074 0.98063
 C283 C 0.63047 0.36732 0.96846
 O284 O 0.60875 0.34091 1.01976
 O285 O 0.60992 0.27879 1.02641
 C286 C 0.62806 0.26230 1.03129
 O287 O 0.65712 0.26765 1.02006
 O288 O 0.71912 0.33119 1.02779
 C289 C 0.73574 0.36594 1.03280
 O290 O 0.73103 0.38990 1.02142
 O291 O 0.66716 0.38761 1.02783
 C292 C 0.63210 0.36914 1.03191
 Cr293 Cr 0.61223 0.30615 0.99953
 Cr294 Cr 0.69313 0.30647 1.00041
 Cr295 Cr 0.69335 0.38737 1.00100
 O296 O 0.66625 0.33331 1.00031
 O297 O 0.65723 0.38847 0.52073
 O298 O 0.71877 0.38668 0.52841
 C299 C 0.73535 0.36849 0.53279
 O300 O 0.73086 0.34053 0.52064
 O301 O 0.66674 0.27819 0.52637
 C302 C 0.63165 0.26129 0.53038
 O303 O 0.60846 0.26637 0.51837
 O304 O 0.60976 0.32944 0.52615
 C305 C 0.62789 0.36406 0.53156
 O306 O 0.66951 0.38940 0.47375
 O307 O 0.73259 0.39073 0.48145
 C308 C 0.73769 0.36759 0.46941
 O309 O 0.72079 0.33246 0.47337
 O310 O 0.65852 0.26826 0.47910
 C311 C 0.63054 0.26380 0.46698
 O312 O 0.61234 0.28034 0.47142
 O313 O 0.61054 0.34187 0.47919
 C314 C 0.63489 0.37127 0.46837
 Cr315 Cr 0.69348 0.38673 0.50105
 Cr316 Cr 0.69319 0.30589 0.49987
 Cr317 Cr 0.61236 0.30555 0.49882
 O318 O 0.66633 0.33274 0.49991
 O319 O 0.34134 0.61109 0.52057
 O320 O 0.27976 0.61287 0.52801
 C321 C 0.26334 0.63118 0.53251
 O322 O 0.26802 0.65934 0.52050
 O323 O 0.33214 0.72162 0.52642
 C324 C 0.36718 0.73834 0.53063
 O325 O 0.39041 0.73323 0.51872
 O326 O 0.38896 0.66998 0.52619
 C327 C 0.37070 0.63531 0.53149
 O328 O 0.32958 0.61069 0.47352
 O329 O 0.26646 0.60939 0.48096
 C330 C 0.26141 0.63268 0.46903
 O331 O 0.27820 0.66774 0.47322
 O332 O 0.34053 0.73183 0.47914
 C333 C 0.36866 0.73648 0.46716
 O334 O 0.38689 0.71997 0.47167
 O335 O 0.38849 0.65825 0.47914
 C336 C 0.36422 0.62891 0.46822
 Cr337 Cr 0.30534 0.61311 0.50073
 Cr338 Cr 0.30576 0.69409 0.49982
 Cr339 Cr 0.38658 0.69430 0.49896
 O340 O 0.33257 0.66716 0.49984
 C341 C 0.39603 0.60289 0.38598
 C342 C 0.43664 0.61118 0.38133
 C343 C 0.42051 0.56974 0.37412
 C344 C 0.38006 0.56128 0.37847
 C345 C 0.39903 0.59202 0.41153
 C346 C 0.38288 0.55057 0.40434
 C347 C 0.43949 0.60050 0.40719
 C348 C 0.42354 0.55885 0.39966
 C349 C 0.43253 0.55791 0.35305
 C350 C 0.44254 0.54883 0.33549
 C351 C 0.38692 0.60482 0.43211
 C352 C 0.37672 0.61568 0.44875
 H353 H 0.38459 0.62115 0.38056
 H354 H 0.45888 0.63598 0.37163
 H355 H 0.35576 0.54502 0.36643
 H356 H 0.36064 0.52579 0.41404
 H357 H 0.46379 0.61677 0.41923
 H358 H 0.43498 0.54059 0.40505
 C359 C 0.39601 0.84157 0.40685
 C360 C 0.43702 0.86524 0.39759
 C361 C 0.42259 0.85149 0.37241
 C362 C 0.38178 0.82822 0.38133
 C363 C 0.40183 0.80768 0.40995
 C364 C 0.38742 0.79396 0.38476
 C365 C 0.44263 0.83095 0.40102
 C366 C 0.42839 0.81759 0.37553
 C367 C 0.43428 0.87543 0.35129
 C368 C 0.44409 0.89462 0.33370
 C369 C 0.39020 0.78282 0.43064
 C370 C 0.38049 0.76191 0.44744
 H371 H 0.38257 0.85116 0.41997
 H372 H 0.45754 0.89482 0.40263
 H373 H 0.35689 0.82736 0.37301
 H374 H 0.36691 0.76439 0.37970
 H375 H 0.46753 0.83180 0.40933
 H376 H 0.44182 0.80797 0.36243
 C377 C 0.18002 0.55786 0.39812
 C378 C 0.13822 0.54774 0.39717
 C379 C 0.14667 0.57069 0.37424
 C380 C 0.18807 0.58060 0.37487
 C381 C 0.18969 0.59369 0.41213
 C382 C 0.19808 0.61659 0.38918
 C383 C 0.14830 0.58380 0.41153
 C384 C 0.15635 0.60652 0.38826
 C385 C 0.12332 0.55857 0.35288
 C386 C 0.10467 0.54936 0.33505
 C387 C 0.21436 0.60705 0.43290
 C388 C 0.23541 0.61853 0.44961
 H389 H 0.19003 0.53800 0.40241
 H390 H 0.11334 0.51929 0.40020
 H391 H 0.20417 0.57914 0.35957
 H392 H 0.22295 0.64505 0.38612
 H393 H 0.13222 0.58527 0.42684
 H394 H 0.14636 0.62639 0.38396
 C395 C 0.56121 0.38667 0.40036
 C396 C 0.56042 0.42392 0.39855
 C397 C 0.57940 0.43116 0.37421
 C398 C 0.58000 0.39412 0.37572
 C399 C 0.60053 0.40863 0.41168
 C400 C 0.61949 0.41589 0.38734
 C401 C 0.59996 0.44569 0.41021
 C402 C 0.61873 0.45313 0.38553
 C403 C 0.56759 0.44312 0.35310
 C404 C 0.55774 0.45228 0.33550
 C405 C 0.61246 0.39567 0.43228
 C406 C 0.62252 0.38467 0.44892
 H407 H 0.53770 0.35920 0.40669
 H408 H 0.53601 0.42738 0.40290
 H409 H 0.57167 0.37304 0.36130
 H410 H 0.64390 0.41243 0.38296
 H411 H 0.60829 0.46674 0.42464
 H412 H 0.64224 0.48059 0.37919
 C413 C 0.60530 0.20736 0.38410
 C414 C 0.61840 0.17894 0.37824
 C415 C 0.57747 0.14923 0.37216
 C416 C 0.56420 0.17730 0.37771
 C417 C 0.59787 0.19293 0.40970
 C418 C 0.55693 0.16322 0.40362
 C419 C 0.61116 0.16488 0.40417
 C420 C 0.57002 0.13476 0.39775
 C421 C 0.56599 0.12535 0.35105
 C422 C 0.55634 0.10618 0.33346
 C423 C 0.60930 0.21771 0.43040
 C424 C 0.61887 0.23852 0.44722
 H425 H 0.61991 0.23748 0.37871
 H426 H 0.64355 0.18513 0.36757
 H427 H 0.54478 0.18215 0.36660
 H428 H 0.53179 0.15704 0.41429
 H429 H 0.63059 0.16005 0.41529
 H430 H 0.55540 0.10463 0.40312
 C431 C 0.84185 0.39909 0.40795
 C432 C 0.82787 0.38945 0.38208
 C433 C 0.85361 0.43114 0.37543
 C434 C 0.86799 0.44102 0.40098
 C435 C 0.81010 0.40750 0.41302
 C436 C 0.83582 0.44920 0.40639
 C437 C 0.79578 0.39765 0.38746
 C438 C 0.82186 0.43953 0.38051
 C439 C 0.87722 0.44357 0.35423
 C440 C 0.89605 0.45300 0.33653
 C441 C 0.78516 0.39378 0.43360
 C442 C 0.76389 0.38203 0.45017
 H443 H 0.84978 0.38231 0.41947
 H444 H 0.82486 0.36501 0.37185
 H445 H 0.89796 0.45901 0.40628
 H446 H 0.83880 0.47361 0.41664
 H447 H 0.76582 0.37966 0.38212
 H448 H 0.81391 0.45629 0.36899
 C449 C 0.55465 0.37746 1.10054
 C450 C 0.57446 0.38724 1.12495
 C451 C 0.57020 0.42227 1.12616
 C452 C 0.55018 0.41270 1.10207
 C453 C 0.59321 0.40175 1.08866
 C454 C 0.58896 0.43680 1.08985
 C455 C 0.61319 0.41134 1.11276
 C456 C 0.60875 0.44654 1.11426
 C457 C 0.55805 0.43384 1.14729
 C458 C 0.54880 0.44356 1.16490
 C459 C 0.60656 0.39029 1.06804
 C460 C 0.61800 0.38074 1.05138
 H461 H 0.53255 0.34893 1.09467
 H462 H 0.56836 0.36697 1.13961
 H463 H 0.52412 0.41338 1.09793
 H464 H 0.59507 0.45705 1.07518
 H465 H 0.63925 0.41067 1.11693
 H466 H 0.63087 0.47507 1.12013
 C467 C 0.85074 0.42451 1.08887
 C468 C 0.85049 0.45017 1.10885
 C469 C 0.85148 0.42308 1.12719
 C470 C 0.85213 0.39761 1.10755
 C471 C 0.80744 0.40159 1.08977
 C472 C 0.80844 0.37451 1.10811
 C473 C 0.80681 0.42706 1.10942
 C474 C 0.80818 0.40016 1.12806
 C475 C 0.87553 0.43503 1.14826
 C476 C 0.89480 0.44492 1.16581
 C477 C 0.78243 0.38935 1.06915
 C478 C 0.76137 0.37891 1.05242
 H479 H 0.86795 0.43440 1.07251
 H480 H 0.86805 0.48143 1.10939
 H481 H 0.87103 0.38564 1.10702
 H482 H 0.79087 0.34326 1.10758
 H483 H 0.78792 0.43904 1.10997
 H484 H 0.79094 0.39026 1.14441
 C485 C 0.57573 0.14749 1.08779
 C486 C 0.60109 0.15172 1.10923
 C487 C 0.56950 0.14703 1.12590
 C488 C 0.54393 0.14240 1.10481
 C489 C 0.59169 0.19035 1.08814
 C490 C 0.56011 0.18565 1.10481
 C491 C 0.61723 0.19493 1.10924
 C492 C 0.58547 0.18988 1.12621
 C493 C 0.55766 0.12348 1.14719
 C494 C 0.54853 0.10465 1.16494
 C495 C 0.60440 0.21515 1.06741
 C496 C 0.61510 0.23627 1.05072
 H497 H 0.57188 0.13034 1.07176
 H498 H 0.61781 0.13750 1.11129
 H499 H 0.51365 0.12055 1.10323
 H500 H 0.54339 0.19987 1.10277
 H501 H 0.64751 0.21679 1.11085
 H502 H 0.58934 0.20708 1.14223
 C503 C 0.41863 0.62063 1.11175
 C504 C 0.39545 0.58285 1.12516
 C505 C 0.43056 0.57871 1.12595
 C506 C 0.45395 0.61634 1.11285
 C507 C 0.40743 0.59881 1.08829
 C508 C 0.44256 0.59469 1.08905
 C509 C 0.38406 0.56119 1.10141
 C510 C 0.41937 0.55687 1.10250
 C511 C 0.44273 0.56736 1.14717
 C512 C 0.45199 0.55779 1.16485
 C513 C 0.39400 0.61003 1.06760
 C514 C 0.38247 0.61940 1.05089
 H515 H 0.41817 0.64697 1.11532
 H516 H 0.37622 0.57787 1.14024
 H517 H 0.48283 0.63888 1.11780
 H518 H 0.46176 0.59968 1.07395
 H519 H 0.35518 0.53863 1.09647
 H520 H 0.41983 0.53052 1.09895
 C521 C 0.15204 0.56894 1.08955
 C522 C 0.15877 0.55230 1.11237
 C523 C 0.15062 0.57880 1.12710
 C524 C 0.14349 0.59525 1.10462
 C525 C 0.19399 0.59953 1.08944
 C526 C 0.18584 0.62602 1.10417
 C527 C 0.20109 0.58307 1.11193
 C528 C 0.19258 0.60938 1.12696
 C529 C 0.12696 0.56728 1.14828
 C530 C 0.10796 0.55773 1.16591
 C531 C 0.21865 0.61138 1.06871
 C532 C 0.23947 0.62155 1.05190
 H533 H 0.13567 0.55245 1.07392
 H534 H 0.14737 0.52186 1.11599
 H535 H 0.11955 0.60014 1.10186
 H536 H 0.19726 0.65648 1.10055
 H537 H 0.22503 0.57818 1.11471
 H538 H 0.20898 0.62589 1.14258
 C539 C 0.43430 0.85279 1.08659
 C540 C 0.40774 0.85571 1.10481
 C541 C 0.43133 0.85277 1.12488
 C542 C 0.45809 0.85025 1.10701
 C543 C 0.40911 0.80961 1.08708
 C544 C 0.43271 0.80669 1.10715
 C545 C 0.38238 0.81216 1.10495
 C546 C 0.40615 0.80959 1.12533
 C547 C 0.44317 0.87621 1.14619
 C548 C 0.45228 0.89494 1.16395
 C549 C 0.39638 0.78486 1.06636
 C550 C 0.38562 0.76372 1.04969
 H551 H 0.44570 0.87026 1.07042
 H552 H 0.39761 0.87615 1.10409
 H553 H 0.48936 0.86617 1.10811
 H554 H 0.44283 0.78625 1.10789
 H555 H 0.35111 0.79624 1.10388
 H556 H 0.39472 0.79208 1.14148
 C557 C 0.57931 0.42866 0.58816
 C558 C 0.54436 0.40243 0.60341
 C559 C 0.56825 0.41944 0.62578
 C560 C 0.60298 0.44586 0.61088
 C561 C 0.59068 0.39832 0.58831
 C562 C 0.61453 0.41534 0.61069
 C563 C 0.55595 0.37189 0.60321
 C564 C 0.57963 0.38911 0.62590
 C565 C 0.55635 0.43127 0.64688
 C566 C 0.54723 0.44115 0.66447
 C567 C 0.60358 0.38641 0.56770
 C568 C 0.61453 0.37637 0.55104
 H569 H 0.57934 0.44479 0.57241
 H570 H 0.51537 0.39725 0.60067
 H571 H 0.62219 0.47641 0.61427
 H572 H 0.64352 0.42053 0.61346
 H573 H 0.53675 0.34134 0.59981
 H574 H 0.57962 0.37296 0.64164
 C575 C 0.58585 0.20177 0.61126
 C576 C 0.54785 0.16416 0.61336
 C577 C 0.56876 0.14597 0.62474
 C578 C 0.60655 0.18322 0.62295
 C579 C 0.59212 0.18915 0.58698
 C580 C 0.61302 0.17095 0.59837
 C581 C 0.55431 0.15191 0.58873
 C582 C 0.57502 0.13331 0.60047
 C583 C 0.55647 0.12255 0.64604
 C584 C 0.54715 0.10386 0.66382
 C585 C 0.60568 0.21394 0.56630
 C586 C 0.61733 0.23513 0.54967
 H587 H 0.59046 0.23020 0.61547
 H588 H 0.52092 0.16110 0.61977
 H589 H 0.62789 0.19585 0.63725
 H590 H 0.63996 0.17401 0.59197
 H591 H 0.53301 0.13932 0.57441
 H592 H 0.57040 0.10487 0.59629
 C593 C 0.84990 0.42422 0.58900
 C594 C 0.84964 0.44938 0.60931
 C595 C 0.85063 0.42185 0.62729
 C596 C 0.85128 0.39686 0.60733
 C597 C 0.80660 0.40128 0.58989
 C598 C 0.80759 0.37374 0.60787
 C599 C 0.80598 0.42626 0.60987
 C600 C 0.80733 0.39891 0.62815
 C601 C 0.87469 0.43344 0.64833
 C602 C 0.89400 0.44318 0.66586
 C603 C 0.78167 0.38977 0.56926
 C604 C 0.76074 0.38017 0.55250
 H605 H 0.86711 0.43450 0.57267
 H606 H 0.86721 0.48062 0.61014
 H607 H 0.87019 0.38491 0.60653
 H608 H 0.79001 0.34251 0.60704
 H609 H 0.78708 0.43822 0.61069
 H610 H 0.79009 0.38862 0.64448
 C611 C 0.39708 0.60369 0.61378
 C612 C 0.38843 0.56294 0.61855
 C613 C 0.42986 0.57875 0.62561
 C614 C 0.43869 0.61933 0.62114
 C615 C 0.40756 0.60032 0.58820
 C616 C 0.44901 0.61615 0.59524
 C617 C 0.39872 0.55974 0.59267
 C618 C 0.44036 0.57536 0.60005
 C619 C 0.44172 0.56669 0.64668
 C620 C 0.45082 0.55665 0.66425
 C621 C 0.39475 0.61249 0.56762
 C622 C 0.38390 0.62274 0.55097
 H623 H 0.37914 0.61545 0.61921
 H624 H 0.36364 0.54094 0.62836
 H625 H 0.45527 0.64370 0.63307
 H626 H 0.47378 0.63817 0.58542
 H627 H 0.38213 0.53537 0.58074
 H628 H 0.45831 0.56359 0.59464
 C629 C 0.38453 0.82673 0.59951
 C630 C 0.39248 0.81487 0.62382
 C631 C 0.42948 0.85295 0.62542
 C632 C 0.42173 0.86520 0.60141
 C633 C 0.40634 0.80999 0.58753
 C634 C 0.44335 0.84806 0.58909
 C635 C 0.41410 0.79778 0.61155
 C636 C 0.45130 0.83622 0.61346
 C637 C 0.44166 0.87627 0.64679
 C638 C 0.45092 0.89488 0.66462
 C639 C 0.39291 0.78535 0.56676
 C640 C 0.38138 0.76431 0.55004
 H641 H 0.35693 0.82257 0.59355
 H642 H 0.37170 0.80145 0.63834
 H643 H 0.42502 0.89320 0.59749
 H644 H 0.46411 0.86144 0.57456
 H645 H 0.41081 0.76979 0.61550
 H646 H 0.47889 0.84038 0.61943
 C647 C 0.20547 0.61621 0.61443
 C648 C 0.16863 0.61759 0.61679
 C649 C 0.14914 0.57776 0.62752
 C650 C 0.18563 0.57622 0.62547
 C651 C 0.19257 0.59830 0.58986
 C652 C 0.17308 0.55848 0.60060
 C653 C 0.15610 0.59986 0.59188
 C654 C 0.13622 0.55983 0.60296
 C655 C 0.12543 0.56620 0.64872
 C656 C 0.10642 0.55649 0.66638
 C657 C 0.21724 0.60981 0.56910
 C658 C 0.23802 0.61944 0.55226
 H659 H 0.23422 0.63951 0.61893
 H660 H 0.16653 0.64176 0.62368
 H661 H 0.19753 0.56639 0.63951
 H662 H 0.17518 0.53429 0.59373
 H663 H 0.14422 0.60969 0.57783
 H664 H 0.10747 0.53653 0.59848
 C665 C 0.39767 0.60306 0.88561
 C666 C 0.43802 0.61095 0.88051
 C667 C 0.42139 0.56933 0.87360
 C668 C 0.38119 0.56125 0.87840
 C669 C 0.40137 0.59265 0.91115
 C670 C 0.38471 0.55102 0.90427
 C671 C 0.44158 0.60073 0.90636
 C672 C 0.42512 0.55888 0.89913
 C673 C 0.43270 0.55703 0.85244
 C674 C 0.44224 0.54768 0.83480
 C675 C 0.39018 0.60618 0.93179
 C676 C 0.38085 0.61777 0.94847
 H677 H 0.38627 0.62139 0.88028
 H678 H 0.46007 0.63545 0.87051
 H679 H 0.35649 0.54488 0.86666
 H680 H 0.36266 0.52653 0.91428
 H681 H 0.46628 0.61711 0.91809
 H682 H 0.43652 0.54056 0.90443
 C683 C 0.20542 0.60363 0.88675
 C684 C 0.18054 0.56211 0.87870
 C685 C 0.14790 0.56944 0.87426
 C686 C 0.17244 0.61078 0.88201
 C687 C 0.19097 0.59163 0.91211
 C688 C 0.15834 0.59898 0.90769
 C689 C 0.16644 0.55028 0.90438
 C690 C 0.13339 0.55741 0.89961
 C691 C 0.12450 0.55761 0.85293
 C692 C 0.10580 0.54849 0.83514
 C693 C 0.21568 0.60434 0.93285
 C694 C 0.23680 0.61507 0.94954
 H695 H 0.23530 0.62278 0.88168
 H696 H 0.18940 0.54683 0.86654
 H697 H 0.17466 0.63553 0.87257
 H698 H 0.14950 0.61428 0.91985
 H699 H 0.16424 0.52555 0.91382
 H700 H 0.10349 0.53825 0.90464
 C701 C 0.39544 0.84060 0.90657
 C702 C 0.43649 0.86419 0.89737
 C703 C 0.42216 0.85026 0.87221
 C704 C 0.38132 0.82707 0.88107
 C705 C 0.40125 0.80674 0.90984
 C706 C 0.38694 0.79284 0.88467
 C707 C 0.44209 0.82993 0.90099
 C708 C 0.42794 0.81639 0.87551
 C709 C 0.43377 0.87400 0.85105
 C710 C 0.44341 0.89305 0.83342
 C711 C 0.38931 0.78200 0.93056
 C712 C 0.37909 0.76112 0.94735
 H713 H 0.38195 0.85027 0.91959
 H714 H 0.45699 0.89382 0.90234
 H715 H 0.35647 0.82616 0.87265
 H716 H 0.36644 0.76323 0.87968
 H717 H 0.46694 0.83082 0.90941
 H718 H 0.44143 0.80669 0.86249
 C719 C 0.55873 0.38431 0.89997
 C720 C 0.55813 0.42165 0.89816
 C721 C 0.57741 0.42901 0.87392
 C722 C 0.57783 0.39186 0.87543
 C723 C 0.59791 0.40606 0.91151
 C724 C 0.61717 0.41342 0.88726
 C725 C 0.59751 0.44322 0.91003
 C726 C 0.61660 0.45077 0.88544
 C727 C 0.56585 0.44113 0.85274
 C728 C 0.55614 0.45037 0.83509
 C729 C 0.60936 0.39275 0.93218
 C730 C 0.61890 0.38135 0.94891
 H731 H 0.53505 0.35684 0.90617
 H732 H 0.53372 0.42519 0.90240
 H733 H 0.56962 0.37088 0.86097
 H734 H 0.64157 0.40988 0.88299
 H735 H 0.60573 0.46418 0.92450
 H736 H 0.64027 0.47823 0.87923
 C737 C 0.84137 0.39938 0.90826
 C738 C 0.82746 0.38896 0.88242
 C739 C 0.85330 0.43043 0.87530
 C740 C 0.86762 0.44106 0.90081
 C741 C 0.80968 0.40804 0.91288
 C742 C 0.83551 0.44951 0.90578
 C743 C 0.79542 0.39743 0.88736
 C744 C 0.82160 0.43907 0.87994
 C745 C 0.87702 0.44238 0.85410
 C746 C 0.89595 0.45158 0.83642
 C747 C 0.78471 0.39525 0.93351
 C748 C 0.76347 0.38449 0.95013
 H749 H 0.84923 0.38292 0.92013
 H750 H 0.82439 0.36418 0.87257
 H751 H 0.89759 0.45916 0.90610
 H752 H 0.83856 0.47428 0.91563
 H753 H 0.76546 0.37933 0.88204
 H754 H 0.81372 0.45552 0.86808
 C755 C 0.55994 0.17629 0.89879
 C756 C 0.58010 0.18703 0.87452
 C757 C 0.57715 0.14824 0.87347
 C758 C 0.55680 0.13711 0.89742
 C759 C 0.59846 0.19211 0.91096
 C760 C 0.59553 0.15333 0.90993
 C761 C 0.61879 0.20321 0.88699
 C762 C 0.61568 0.16406 0.88563
 C763 C 0.56531 0.12430 0.85236
 C764 C 0.55548 0.10512 0.83478
 C765 C 0.61060 0.21705 0.93160
 C766 C 0.62095 0.23808 0.94833
 H767 H 0.53716 0.18159 0.90442
 H768 H 0.57364 0.20064 0.85974
 H769 H 0.53118 0.10964 0.90147
 H770 H 0.60200 0.13975 0.92473
 H771 H 0.64440 0.23067 0.88293
 H772 H 0.63846 0.15877 0.87999
   
