data_POSCAR
  _audit_creation_date              2014-09-24
  _audit_creation_method            'ToBaCCo'
  _symmetry_space_group_name_H-M    'P1'
  _symmetry_Int_Tables_number       1
  _symmetry_cell_setting            triclinic
  loop_
  _symmetry_equiv_pos_as_xyz
 x,y,z
_cell_length_a 48.6581
_cell_length_b 48.7391
_cell_length_c 43.8262
_cell_angle_alpha 90.066700
_cell_angle_beta 89.933700
_cell_angle_gamma 120.111800
loop_
  _atom_site_label
  _atom_site_type_symbol
  _atom_site_fract_x
  _atom_site_fract_y
  _atom_site_fract_z
O1 O 0.00054 0.52677 -0.03889
 O2 O 0.03921 0.49262 0.00729
 O3 O 0.00027 0.47339 -0.03915
 O4 O 0.03936 0.54594 0.00763
 O5 O -0.00161 0.52543 0.03926
 O6 O -0.04070 0.45287 -0.00755
 O7 O -0.00177 0.47210 0.03890
 O8 O -0.04042 0.50626 -0.00726
 Cu9 Cu 0.02398 0.51174 -0.01897
 Cu10 Cu -0.02526 0.48709 0.01902
 C11 C -0.02660 0.52202 -0.03103
 C12 C 0.02539 0.47687 0.03106
 C13 C -0.02696 0.45101 -0.03143
 C14 C 0.02561 0.54781 0.03150
 O15 O 0.50712 0.54684 0.00688
 O16 O 0.47282 0.47383 -0.03923
 O17 O 0.45360 0.49357 0.00718
 O18 O 0.52624 0.52715 -0.03966
 O19 O 0.54678 0.50690 -0.00803
 O20 O 0.47414 0.47331 0.03880
 O21 O 0.49336 0.45357 -0.00761
 O22 O 0.52765 0.52658 0.03851
 Cu23 Cu 0.48787 0.51239 -0.01939
 Cu24 Cu 0.51255 0.48805 0.01861
 C25 C 0.52291 0.54891 0.03064
 C26 C 0.47757 0.45151 -0.03137
 C27 C 0.45173 0.47803 0.03106
 C28 C 0.54865 0.52242 -0.03193
 O29 O 0.49457 1.04135 -0.00679
 O30 O 0.52837 1.00259 0.03983
 O31 O 0.54794 1.04143 -0.00667
 O32 O 0.47496 1.00253 0.03970
 O33 O 0.45456 0.96164 0.00807
 O34 O 0.52750 1.00052 -0.03827
 O35 O 0.50794 0.96171 0.00819
 O36 O 0.47416 1.00044 -0.03840
 Cu37 Cu 0.51352 1.02609 0.01972
 Cu38 Cu 0.48898 0.97695 -0.01828
 C39 C 0.47894 1.02757 -0.03064
 C40 C 0.52361 0.97547 0.03202
 C41 C 0.54989 1.02769 -0.03049
 C42 C 0.45256 0.97539 0.03185
 O43 O 1.04025 0.54633 0.49256
 O44 O 1.00151 0.47348 0.53880
 O45 O 1.04039 0.49315 0.49226
 O46 O 1.00147 0.52671 0.53915
 O47 O 0.96048 0.50625 0.50761
 O48 O 0.99939 0.47268 0.46074
 O49 O 0.96050 0.45301 0.50728
 O50 O 0.99926 0.52587 0.46102
 Cu51 Cu 1.02504 0.51197 0.51887
 Cu52 Cu 0.97577 0.48738 0.48098
 C53 C 1.02643 0.54828 0.46883
 C54 C 0.97431 0.45109 0.53103
 C55 C 1.02660 0.47752 0.46841
 C56 C 0.97428 0.52189 0.53145
 O57 O 0.52701 0.52606 0.46055
 O58 O 0.49325 0.45347 0.50720
 O59 O 0.47359 0.47271 0.46085
 O60 O 0.54658 0.50691 0.50705
 O61 O 0.52619 0.52736 0.53873
 O62 O 0.45319 0.49316 0.49253
 O63 O 0.47286 0.47392 0.53888
 O64 O 0.50662 0.54651 0.49223
 Cu65 Cu 0.51216 0.48773 0.48072
 Cu66 Cu 0.48766 0.51230 0.51879
 C67 C 0.52224 0.54841 0.46836
 C68 C 0.47763 0.45157 0.53108
 C69 C 0.45120 0.47744 0.46872
 C70 C 0.54858 0.52263 0.53086
 O71 O 0.50706 -0.03901 0.49139
 O72 O 0.47274 -0.00039 0.53752
 O73 O 0.45363 -0.03918 0.49099
 O74 O 0.52611 -0.00025 0.53793
 O75 O 0.54683 0.04068 0.50640
 O76 O 0.47430 0.00172 0.45942
 O77 O 0.49343 0.04054 0.50598
 O78 O 0.52777 0.00189 0.45983
 Cu79 Cu 0.48779 -0.02384 0.51763
 Cu80 Cu 0.51267 0.02533 0.47971
 C81 C 0.52296 -0.02521 0.46768
 C82 C 0.47759 0.02674 0.52973
 C83 C 0.45184 -0.02544 0.46713
 C84 C 0.54857 0.02693 0.53027
 C85 C 0.11862 0.40712 0.26575
 C86 C 0.11862 0.40701 0.23446
 C87 C 0.14916 0.41540 0.22543
 N88 N 0.16777 0.42054 0.25010
 C89 C 0.14916 0.41555 0.27477
 C90 C 0.16019 0.42139 0.19501
 C91 C 0.19025 0.42617 0.18620
 C92 C 0.20497 0.43904 0.15855
 C93 C 0.23325 0.43912 0.15855
 C94 C 0.23506 0.42630 0.18619
 N95 N 0.20860 0.41818 0.20281
 C96 C 0.26038 0.42165 0.19500
 C97 C 0.26525 0.41555 0.22540
 C98 C 0.28733 0.40714 0.23442
 C99 C 0.28725 0.40708 0.26571
 C100 C 0.26513 0.41546 0.27474
 N101 N 0.25166 0.42056 0.25007
 C102 C 0.26015 0.42151 0.30516
 C103 C 0.23490 0.42628 0.31398
 C104 C 0.23312 0.43918 0.34163
 C105 C 0.20490 0.43924 0.34163
 C106 C 0.19019 0.42637 0.31399
 N107 N 0.20849 0.41825 0.29737
 C108 C 0.16019 0.42169 0.30518
 H109 H 0.09862 0.40219 0.28022
 H110 H 0.09861 0.40200 0.22000
 H111 H 0.20205 0.40541 0.27710
 H112 H 0.19638 0.44773 0.14032
 H113 H 0.25061 0.44789 0.14032
 H114 H 0.30238 0.40220 0.21995
 H115 H 0.30223 0.40209 0.28017
 H116 H 0.19636 0.44802 0.35986
 H117 H 0.20216 0.40537 0.22308
 H118 H 0.25046 0.44790 0.35985
 C119 C 0.56114 0.69703 0.26490
 C120 C 0.56127 0.69718 0.23360
 C121 C 0.57250 0.72831 0.22471
 N122 N 0.57944 0.74719 0.24949
 C123 C 0.57231 0.72808 0.27409
 C124 C 0.57718 0.73903 0.19417
 C125 C 0.58369 0.76974 0.18589
 C126 C 0.59447 0.78341 0.15744
 C127 C 0.59451 0.81166 0.15753
 C128 C 0.58376 0.81445 0.18604
 N129 N 0.57734 0.78887 0.20321
 C130 C 0.57739 0.83870 0.19455
 C131 C 0.57286 0.84466 0.22517
 C132 C 0.56181 0.86463 0.23434
 C133 C 0.56182 0.86455 0.26564
 C134 C 0.57286 0.84452 0.27455
 N135 N 0.57979 0.83255 0.24979
 C136 C 0.57738 0.83839 0.30509
 C137 C 0.58364 0.81404 0.31340
 C138 C 0.59425 0.81102 0.34187
 C139 C 0.59406 0.78270 0.34177
 C140 C 0.58334 0.76921 0.31324
 N141 N 0.57717 0.78853 0.29606
 C142 C 0.57677 0.73853 0.30473
 H143 H 0.55345 0.67636 0.27921
 H144 H 0.55368 0.67664 0.21910
 H145 H 0.56510 0.78258 0.27540
 H146 H 0.60100 0.77371 0.13837
 H147 H 0.60108 0.82797 0.13857
 H148 H 0.55428 0.87771 0.22002
 H149 H 0.55428 0.87755 0.28012
 H150 H 0.60045 0.77284 0.36076
 H151 H 0.56520 0.78276 0.22385
 H152 H 0.60081 0.82724 0.36095
 C153 C 0.30380 0.86463 0.26542
 C154 C 0.30364 0.86457 0.23412
 C155 C 0.27247 0.84447 0.22523
 N156 N 0.25357 0.83243 0.25001
 C157 C 0.27271 0.84456 0.27461
 C158 C 0.26172 0.83835 0.19470
 C159 C 0.23101 0.81392 0.18640
 C160 C 0.21730 0.81089 0.15796
 C161 C 0.18908 0.78251 0.15804
 C162 C 0.18635 0.76901 0.18653
 N163 N 0.21194 0.78837 0.20370
 C164 C 0.16216 0.73829 0.19501
 C165 C 0.15622 0.72781 0.22563
 C166 C 0.13630 0.69674 0.23477
 C167 C 0.13638 0.69686 0.26607
 C168 C 0.15636 0.72800 0.27501
 N169 N 0.16830 0.74691 0.25026
 C170 C 0.16248 0.73870 0.30557
 C171 C 0.18679 0.76943 0.31389
 C172 C 0.18976 0.78306 0.34238
 C173 C 0.21806 0.81136 0.34230
 C174 C 0.23158 0.81422 0.31376
 N175 N 0.21231 0.78864 0.29656
 C176 C 0.26226 0.83854 0.30524
 H177 H 0.32450 0.87775 0.27972
 H178 H 0.32420 0.87765 0.21961
 H179 H 0.21830 0.78258 0.27588
 H180 H 0.22695 0.82712 0.13891
 H181 H 0.17274 0.77262 0.13907
 H182 H 0.12324 0.67607 0.22043
 H183 H 0.12341 0.67629 0.28054
 H184 H 0.22789 0.82767 0.36130
 H185 H 0.21811 0.78245 0.22433
 H186 H 0.17353 0.77331 0.36146
 C187 C 0.86357 0.56025 0.76617
 C188 C 0.86368 0.56019 0.73487
 C189 C 0.84377 0.57130 0.72571
 N190 N 0.83166 0.57832 0.75033
 C191 C 0.84358 0.57138 0.77509
 C192 C 0.83785 0.57580 0.69509
 C193 C 0.81368 0.58231 0.68660
 C194 C 0.81099 0.59307 0.65810
 C195 C 0.78277 0.59319 0.65801
 C196 C 0.76901 0.58247 0.68645
 N197 N 0.78807 0.57603 0.70377
 C198 C 0.73828 0.57611 0.69473
 C199 C 0.72750 0.57150 0.72526
 C200 C 0.69632 0.56040 0.73416
 C201 C 0.69612 0.56029 0.76546
 C202 C 0.72719 0.57134 0.77465
 N203 N 0.74636 0.57837 0.75005
 C204 C 0.73760 0.57578 0.80528
 C205 C 0.76830 0.58224 0.81379
 C206 C 0.78179 0.59295 0.84231
 C207 C 0.81010 0.59303 0.84240
 C208 C 0.81310 0.58235 0.81393
 N209 N 0.78760 0.57596 0.79660
 C210 C 0.83743 0.57597 0.80563
 H211 H 0.87653 0.55269 0.78066
 H212 H 0.87675 0.55258 0.72054
 H213 H 0.78162 0.56388 0.77594
 H214 H 0.82736 0.59955 0.63914
 H215 H 0.77315 0.59976 0.63895
 H216 H 0.67578 0.55288 0.71965
 H217 H 0.67540 0.55269 0.77976
 H218 H 0.82632 0.59955 0.86148
 H219 H 0.78186 0.56391 0.72439
 H220 H 0.77194 0.59942 0.86130
 C221 C 0.40796 0.11961 0.76529
 C222 C 0.40783 0.11957 0.73400
 C223 C 0.41611 0.15002 0.72500
 N224 N 0.42121 0.16861 0.74968
 C225 C 0.41630 0.15007 0.77434
 C226 C 0.42201 0.16100 0.69457
 C227 C 0.42668 0.19095 0.68580
 C228 C 0.43948 0.20564 0.65813
 C229 C 0.43944 0.23382 0.65819
 C230 C 0.42659 0.23559 0.68588
 N231 N 0.41860 0.20923 0.70248
 C232 C 0.42183 0.26080 0.69475
 C233 C 0.41571 0.26567 0.72518
 C234 C 0.40718 0.28763 0.73427
 C235 C 0.40717 0.28759 0.76556
 C236 C 0.41569 0.26561 0.77452
 N237 N 0.42083 0.25218 0.74981
 C238 C 0.42183 0.26071 0.80490
 C239 C 0.42674 0.23558 0.81366
 C240 C 0.43971 0.23389 0.84127
 C241 C 0.43988 0.20578 0.84122
 C242 C 0.42700 0.19104 0.81359
 N243 N 0.41877 0.20923 0.79702
 C244 C 0.42239 0.16111 0.80475
 H245 H 0.40310 0.09967 0.77973
 H246 H 0.40286 0.09960 0.71951
 H247 H 0.40589 0.20273 0.77678
 H248 H 0.44822 0.19710 0.63986
 H249 H 0.44813 0.25112 0.63996
 H250 H 0.40215 0.30258 0.71985
 H251 H 0.40212 0.30252 0.78007
 H252 H 0.44873 0.19732 0.85941
 H253 H 0.40579 0.20277 0.72279
 H254 H 0.44841 0.25122 0.85950
 C255 C 0.71144 0.11982 0.76630
 C256 C 0.71140 0.11977 0.73501
 C257 C 0.73358 0.15024 0.72595
 N258 N 0.74721 0.16887 0.75060
 C259 C 0.73365 0.15032 0.77529
 C260 C 0.73859 0.16119 0.69552
 C261 C 0.76399 0.19116 0.68669
 C262 C 0.76589 0.20580 0.65902
 C263 C 0.79425 0.23398 0.65899
 C264 C 0.80890 0.23582 0.68665
 N265 N 0.79044 0.20949 0.70330
 C266 C 0.83901 0.26106 0.69543
 C267 C 0.85001 0.26611 0.72584
 C268 C 0.88058 0.28822 0.73485
 C269 C 0.88054 0.28835 0.76614
 C270 C 0.84996 0.26631 0.77518
 N271 N 0.83135 0.25269 0.75052
 C272 C 0.83890 0.26146 0.80558
 C273 C 0.80883 0.23619 0.81442
 C274 C 0.79413 0.23441 0.84207
 C275 C 0.76585 0.20615 0.84210
 C276 C 0.76401 0.19142 0.81447
 N277 N 0.79045 0.20975 0.79783
 C278 C 0.73869 0.16138 0.80570
 H279 H 0.69639 0.09986 0.78079
 H280 H 0.69631 0.09976 0.72057
 H281 H 0.79686 0.20330 0.77757
 H282 H 0.74856 0.19721 0.64079
 H283 H 0.80292 0.25125 0.64073
 H284 H 0.90063 0.30317 0.72037
 H285 H 0.90056 0.30341 0.78059
 H286 H 0.74850 0.19758 0.86034
 H287 H 0.79681 0.20310 0.72359
 H288 H 0.80273 0.25176 0.86027
 C289 C 0.11710 0.45653 0.15317
 C290 C 0.10476 0.43629 0.12796
 C291 C 0.11034 0.41090 0.12467
 C292 C 0.12827 0.40582 0.14656
 C293 C 0.04133 0.46534 0.05014
 C294 C 0.13499 0.45152 0.17498
 C295 C 0.08675 0.44214 0.10552
 C296 C 0.07201 0.44827 0.08738
 C297 C 0.05522 0.45684 0.06692
 C298 C 0.14067 0.42611 0.17187
 H299 H 0.11301 0.47630 0.15589
 H300 H 0.10096 0.39514 0.10521
 H301 H 0.13253 0.38618 0.14380
 H302 H 0.14459 0.46752 0.19425
 C303 C 0.58984 0.68155 0.14599
 C304 C 0.56492 0.67142 0.12498
 C305 C 0.54492 0.68434 0.12588
 C306 C 0.54941 0.70685 0.14802
 C307 C 0.53462 0.57653 0.04960
 C308 C 0.59439 0.70414 0.16815
 C309 C 0.55861 0.64652 0.10358
 C310 C 0.55217 0.62504 0.08607
 C311 C 0.54331 0.59919 0.06612
 C312 C 0.57394 0.71665 0.16952
 H313 H 0.60537 0.67161 0.14558
 H314 H 0.52548 0.67656 0.10983
 H315 H 0.53336 0.71618 0.14883
 H316 H 0.61345 0.71148 0.18456
 C317 C 0.31921 0.90881 0.14676
 C318 C 0.32954 0.89422 0.12575
 C319 C 0.31668 0.86130 0.12652
 C320 C 0.29407 0.84309 0.14855
 C321 C 0.42489 0.95941 0.05082
 C322 C 0.29651 0.89059 0.16881
 C323 C 0.35458 0.91301 0.10450
 C324 C 0.37618 0.92821 0.08712
 C325 C 0.40216 0.94535 0.06728
 C326 C 0.28410 0.85764 0.17008
 H327 H 0.32910 0.93428 0.14644
 H328 H 0.32461 0.84979 0.11047
 H329 H 0.28482 0.81772 0.14929
 H330 H 0.28904 0.90217 0.18524
 C331 C 0.90828 0.58817 0.64730
 C332 C 0.89348 0.56326 0.62628
 C333 C 0.86046 0.54334 0.62706
 C334 C 0.84235 0.54790 0.64909
 C335 C 0.95829 0.53335 0.55065
 C336 C 0.89016 0.59279 0.66934
 C337 C 0.91213 0.55697 0.60489
 C338 C 0.92722 0.55060 0.58736
 C339 C 0.94428 0.54187 0.56731
 C340 C 0.85710 0.57243 0.67060
 H341 H 0.93383 0.60365 0.64697
 H342 H 0.84877 0.52391 0.61101
 H343 H 0.81690 0.53192 0.64980
 H344 H 0.90190 0.61186 0.68574
 C345 C 0.41166 0.30042 0.62452
 C346 C 0.43706 0.33148 0.62797
 C347 C 0.45720 0.33933 0.65324
 C348 C 0.45208 0.31631 0.67496
 C349 C 0.46620 0.42416 0.55027
 C350 C 0.40647 0.27731 0.64631
 C351 C 0.44301 0.35546 0.60562
 C352 C 0.44918 0.37639 0.58753
 C353 C 0.45774 0.40178 0.56709
 C354 C 0.42667 0.28515 0.67169
 H355 H 0.39597 0.29409 0.60501
 H356 H 0.47697 0.36324 0.65610
 H357 H 0.46801 0.32269 0.69428
 H358 H 0.38683 0.25336 0.64343
 C359 C 0.69915 0.11158 0.62499
 C360 C 0.66809 0.10596 0.62826
 C361 C 0.66014 0.11812 0.65357
 C362 C 0.68308 0.13590 0.67548
 C363 C 0.57591 0.04293 0.54964
 C364 C 0.72218 0.12939 0.64697
 C365 C 0.64423 0.08810 0.60568
 C366 C 0.62343 0.07349 0.58736
 C367 C 0.59818 0.05680 0.56665
 C368 C 0.71425 0.14166 0.67236
 H369 H 0.70557 0.10233 0.60546
 H370 H 0.63622 0.11400 0.65629
 H371 H 0.67663 0.14539 0.69480
 H372 H 0.74615 0.13370 0.64420
 C373 C 0.41250 0.11170 0.87524
 C374 C 0.43800 0.10623 0.87186
 C375 C 0.45807 0.11844 0.84649
 C376 C 0.45281 0.13611 0.82465
 C377 C 0.46751 0.04349 0.95012
 C378 C 0.40718 0.12940 0.85332
 C379 C 0.44411 0.08846 0.89436
 C380 C 0.45038 0.07391 0.91260
 C381 C 0.45902 0.05730 0.93321
 C382 C 0.42732 0.14171 0.82788
 H383 H 0.39687 0.10241 0.89482
 H384 H 0.47791 0.11443 0.84368
 H385 H 0.46870 0.14563 0.80528
 H386 H 0.38747 0.13360 0.85618
 C387 C 0.68239 0.54325 0.87328
 C388 C 0.66942 0.56320 0.87416
 C389 C 0.67965 0.58813 0.85319
 C390 C 0.70238 0.59275 0.83112
 C391 C 0.57464 0.53322 0.94988
 C392 C 0.70505 0.54781 0.85122
 C393 C 0.64449 0.55691 0.89558
 C394 C 0.62302 0.55054 0.91315
 C395 C 0.59722 0.54179 0.93322
 C396 C 0.71496 0.57238 0.82977
 H397 H 0.67456 0.52381 0.88929
 H398 H 0.66968 0.60363 0.85360
 H399 H 0.70981 0.61184 0.81477
 H400 H 0.71443 0.53182 0.85044
 C401 C 0.88210 0.34006 0.84714
 C402 C 0.89433 0.33230 0.87248
 C403 C 0.88865 0.30130 0.87595
 C404 C 0.87074 0.27814 0.85412
 C405 C 0.95783 0.42510 0.95034
 C406 C 0.86422 0.31699 0.82538
 C407 C 0.91234 0.35632 0.89488
 C408 C 0.92708 0.37727 0.91301
 C409 C 0.94389 0.40269 0.93350
 C410 C 0.85843 0.28588 0.82868
 H411 H 0.88627 0.36393 0.84427
 H412 H 0.89795 0.29503 0.89551
 H413 H 0.86640 0.25422 0.85702
 H414 H 0.85471 0.32330 0.80601
 C415 C 0.54509 0.86109 0.37317
 C416 C 0.56522 0.89402 0.37402
 C417 C 0.59028 0.90871 0.35311
 C418 C 0.59483 0.89057 0.33107
 C419 C 0.53473 0.95889 0.44878
 C420 C 0.54957 0.84295 0.35115
 C421 C 0.55889 0.91273 0.39524
 C422 C 0.55241 0.92786 0.41259
 C423 C 0.54348 0.94491 0.43237
 C424 C 0.57423 0.85761 0.32972
 H425 H 0.52554 0.84950 0.38914
 H426 H 0.60591 0.93420 0.35349
 H427 H 0.61398 0.90222 0.31472
 H428 H 0.53341 0.81758 0.35035
 C429 C 0.29967 0.41122 0.37543
 C430 C 0.33076 0.43663 0.37208
 C431 C 0.33866 0.45683 0.34688
 C432 C 0.31566 0.45176 0.32512
 C433 C 0.42364 0.46586 0.44967
 C434 C 0.27657 0.40608 0.35359
 C435 C 0.35473 0.44253 0.39445
 C436 C 0.37569 0.44870 0.41254
 C437 C 0.40116 0.45732 0.43293
 C438 C 0.28447 0.42633 0.32828
 H439 H 0.29329 0.39549 0.39489
 H440 H 0.36260 0.47661 0.34412
 H441 H 0.32209 0.46772 0.30585
 H442 H 0.25259 0.38642 0.35638
 C443 C 0.09222 0.68100 0.35371
 C444 C 0.10704 0.67090 0.37462
 C445 C 0.14004 0.68392 0.37369
 C446 C 0.15810 0.70651 0.35161
 C447 C 0.04236 0.57588 0.44985
 C448 C 0.11029 0.70366 0.33160
 C449 C 0.08842 0.64594 0.39597
 C450 C 0.07335 0.62442 0.41343
 C451 C 0.05633 0.59854 0.43335
 C452 C 0.14332 0.71627 0.33019
 H453 H 0.06668 0.67098 0.35415
 H454 H 0.15173 0.67617 0.38967
 H455 H 0.18353 0.71590 0.35076
 H456 H 0.09854 0.71098 0.31526
 C457 C 0.90767 0.58875 0.85377
 C458 C 0.89284 0.56383 0.87474
 C459 C 0.85984 0.54379 0.87385
 C460 C 0.84179 0.54824 0.85174
 C461 C 0.95749 0.53368 0.95001
 C462 C 0.88961 0.59327 0.83165
 C463 C 0.91146 0.55756 0.89611
 C464 C 0.92652 0.55116 0.91358
 C465 C 0.94353 0.54234 0.93350
 C466 C 0.85658 0.57277 0.83027
 H467 H 0.93321 0.60431 0.85419
 H468 H 0.84814 0.52434 0.88986
 H469 H 0.81636 0.53216 0.85092
 H470 H 0.90137 0.61233 0.81527
 C471 C 0.45702 0.33912 0.84667
 C472 C 0.43681 0.33118 0.87192
 C473 C 0.41143 0.30011 0.87529
 C474 C 0.40633 0.27706 0.85342
 C475 C 0.46598 0.42396 0.94959
 C476 C 0.45198 0.31616 0.82488
 C477 C 0.44268 0.35512 0.89433
 C478 C 0.44883 0.37605 0.91244
 C479 C 0.45744 0.40149 0.93285
 C480 C 0.42659 0.28499 0.82806
 H481 H 0.47677 0.36305 0.84388
 H482 H 0.39570 0.29372 0.89480
 H483 H 0.38670 0.25309 0.85623
 H484 H 0.46796 0.32260 0.80556
 C485 C 0.66035 0.11826 0.84785
 C486 C 0.66836 0.10610 0.87307
 C487 C 0.69945 0.11179 0.87624
 C488 C 0.72243 0.12964 0.85424
 C489 C 0.57589 0.04286 0.95134
 C490 C 0.68324 0.13608 0.82592
 C491 C 0.64452 0.08818 0.89564
 C492 C 0.62367 0.07350 0.91390
 C493 C 0.59831 0.05675 0.93448
 C494 C 0.71443 0.14187 0.82893
 H495 H 0.63641 0.11408 0.84521
 H496 H 0.70591 0.10254 0.89571
 H497 H 0.74642 0.13399 0.85691
 H498 H 0.67674 0.14554 0.80666
 C499 C 0.11049 0.41186 0.37560
 C500 C 0.10496 0.43728 0.37216
 C501 C 0.11728 0.45730 0.34682
 C502 C 0.13509 0.45205 0.32503
 C503 C 0.04174 0.46677 0.45015
 C504 C 0.12833 0.40655 0.35373
 C505 C 0.08703 0.44335 0.39459
 C506 C 0.07235 0.44961 0.41276
 C507 C 0.05562 0.45826 0.43328
 C508 C 0.14072 0.42664 0.32830
 H509 H 0.10112 0.39626 0.39516
 H510 H 0.11323 0.47707 0.34398
 H511 H 0.14467 0.46790 0.30567
 H512 H 0.13254 0.38690 0.35661
 C513 C 0.54400 0.68349 0.37271
 C514 C 0.56391 0.67046 0.37356
 C515 C 0.58890 0.68059 0.35258
 C516 C 0.59361 0.70329 0.33052
 C517 C 0.53375 0.57588 0.44921
 C518 C 0.54865 0.70611 0.35066
 C519 C 0.55754 0.64558 0.39497
 C520 C 0.55111 0.62415 0.41252
 C521 C 0.54233 0.59841 0.43258
 C522 C 0.57327 0.71592 0.32921
 H523 H 0.52452 0.67573 0.38873
 H524 H 0.60437 0.67059 0.35297
 H525 H 0.61274 0.71064 0.31417
 H526 H 0.53269 0.71553 0.34991
 C527 C 0.32028 0.90901 0.35295
 C528 C 0.33061 0.89438 0.37384
 C529 C 0.31764 0.86143 0.37304
 C530 C 0.29488 0.84325 0.35111
 C531 C 0.42583 0.95941 0.44898
 C532 C 0.29744 0.89082 0.33100
 C533 C 0.35569 0.91312 0.39509
 C534 C 0.37727 0.92828 0.41250
 C535 C 0.40319 0.94539 0.43241
 C536 C 0.28489 0.85784 0.32971
 H537 H 0.33024 0.93450 0.35330
 H538 H 0.32555 0.84988 0.38900
 H539 H 0.28552 0.81787 0.35036
 H540 H 0.28995 0.90243 0.31468
 C541 C 0.59014 0.90918 0.14698
 C542 C 0.56516 0.89451 0.12600
 C543 C 0.54512 0.86156 0.12669
 C544 C 0.54961 0.84338 0.14860
 C545 C 0.53516 0.95953 0.05108
 C546 C 0.59469 0.89098 0.16891
 C547 C 0.55889 0.91325 0.10481
 C548 C 0.55251 0.92841 0.08744
 C549 C 0.54375 0.94551 0.06759
 C550 C 0.57419 0.85799 0.17009
 H551 H 0.60571 0.93467 0.14673
 H552 H 0.52564 0.84999 0.11066
 H553 H 0.53351 0.81798 0.14926
 H554 H 0.61379 0.90261 0.18530
 C555 C 0.30028 0.41180 0.12465
 C556 C 0.33134 0.43724 0.12813
 C557 C 0.33910 0.45730 0.15346
 C558 C 0.31599 0.45206 0.17520
 C559 C 0.42428 0.46661 0.05030
 C560 C 0.27708 0.40650 0.14647
 C561 C 0.35541 0.44329 0.10575
 C562 C 0.37640 0.44952 0.08763
 C563 C 0.40185 0.45814 0.06715
 C564 C 0.28483 0.42662 0.17190
 H565 H 0.29401 0.39617 0.10510
 H566 H 0.36302 0.47709 0.15633
 H567 H 0.32231 0.46793 0.19457
 H568 H 0.25312 0.38683 0.14357
 C569 C 0.13957 0.68324 0.12697
 C570 C 0.10655 0.67011 0.12621
 C571 C 0.09175 0.68019 0.14725
 C572 C 0.10986 0.70294 0.16929
 C573 C 0.04165 0.57529 0.05066
 C574 C 0.15767 0.70592 0.14899
 C575 C 0.08790 0.64515 0.10483
 C576 C 0.07279 0.62366 0.08732
 C577 C 0.05570 0.59786 0.06729
 C578 C 0.14292 0.71567 0.17052
 H579 H 0.15125 0.67552 0.11089
 H580 H 0.06620 0.67010 0.14693
 H581 H 0.09813 0.71024 0.18570
 H582 H 0.18312 0.71541 0.14968
 C583 C 0.45724 0.11812 0.65233
 C584 C 0.43693 0.10580 0.62717
 C585 C 0.41143 0.11130 0.62406
 C586 C 0.40634 0.12912 0.64608
 C587 C 0.46604 0.04268 0.54886
 C588 C 0.45221 0.13591 0.67427
 C589 C 0.44281 0.08789 0.60458
 C590 C 0.44894 0.07324 0.58631
 C591 C 0.45753 0.05653 0.56572
 C592 C 0.42672 0.14152 0.67133
 H593 H 0.47709 0.11409 0.65491
 H594 H 0.39562 0.10193 0.60464
 H595 H 0.38663 0.13333 0.64345
 H596 H 0.46828 0.14550 0.69349
 C597 C 0.68366 0.54407 0.62637
 C598 C 0.67084 0.56414 0.62548
 C599 C 0.68101 0.58903 0.64653
 C600 C 0.70354 0.59347 0.66871
 C601 C 0.57618 0.53426 0.54988
 C602 C 0.70611 0.54845 0.64854
 C603 C 0.64602 0.55796 0.60402
 C604 C 0.62459 0.55163 0.58646
 C605 C 0.59880 0.54287 0.56645
 C606 C 0.71594 0.57295 0.67008
 H607 H 0.67584 0.52466 0.61030
 H608 H 0.67115 0.60461 0.64611
 H609 H 0.71092 0.61251 0.68514
 H610 H 0.71535 0.53235 0.64934
 C611 C 0.88243 0.33928 0.65342
 C612 C 0.89469 0.33126 0.62822
 C613 C 0.88896 0.30021 0.62500
 C614 C 0.87096 0.27726 0.64695
 C615 C 0.95833 0.42362 0.55016
 C616 C 0.86446 0.31641 0.67528
 C617 C 0.91277 0.35508 0.60572
 C618 C 0.92755 0.37591 0.58751
 C619 C 0.94439 0.40124 0.56698
 C620 C 0.85863 0.28526 0.67224
 H621 H 0.88664 0.36319 0.65608
 H622 H 0.89828 0.29376 0.60555
 H623 H 0.86658 0.25330 0.64424
 H624 H 0.85493 0.32291 0.69453
   
