data_POSCAR
  _audit_creation_date              2014-09-24
  _audit_creation_method            'ToBaCCo'
  _symmetry_space_group_name_H-M    'P1'
  _symmetry_Int_Tables_number       1
  _symmetry_cell_setting            triclinic
  loop_
  _symmetry_equiv_pos_as_xyz
 x,y,z
_cell_length_a 49.2640
_cell_length_b 48.6543
_cell_length_c 49.4591
_cell_angle_alpha 90.187400
_cell_angle_beta 90.724600
_cell_angle_gamma 89.920100
loop_
  _atom_site_label
  _atom_site_type_symbol
  _atom_site_fract_x
  _atom_site_fract_y
  _atom_site_fract_z
C1 C 0.19386 1.22449 0.18958
 C2 C 0.18209 1.21283 0.21283
 C3 C 0.19243 1.18858 0.22487
 C4 C 0.21526 1.17612 0.21300
 C5 C 0.22720 1.18705 0.18987
 C6 C 0.21670 1.21122 0.17853
 H7 H 0.16323 1.22120 0.22007
 H8 H 0.22475 1.15832 0.22213
 H9 H 0.22683 1.21964 0.16116
 C10 C 0.81070 0.77526 0.19367
 C11 C 0.78888 0.78874 0.18023
 C12 C 0.77925 0.81437 0.18902
 C13 C 0.79155 0.82716 0.21136
 C14 C 0.81280 0.81426 0.22544
 C15 C 0.82188 0.78830 0.21692
 H16 H 0.78012 0.78059 0.16176
 H17 H 0.78428 0.84704 0.21808
 H18 H 0.83775 0.77864 0.22879
 C19 C 0.80678 1.22129 -0.18826
 C20 C 0.81776 1.21044 -0.21233
 C21 C 0.80536 1.18845 -0.22656
 C22 C 0.78114 1.17756 -0.21612
 C23 C 0.77007 1.18743 -0.19200
 C24 C 0.78283 1.20927 -0.17837
 H25 H 0.83745 1.21750 -0.21862
 H26 H 0.77002 1.16189 -0.22712
 H27 H 0.77354 1.21705 -0.16022
 C28 C 0.18518 0.76912 -0.19364
 C29 C 0.17452 0.78277 -0.21643
 C30 C 0.18636 0.80719 -0.22613
 C31 C 0.20989 0.81710 -0.21276
 C32 C 0.22129 0.80332 -0.19041
 C33 C 0.20870 0.77944 -0.18094
 H34 H 0.15613 0.77485 -0.22572
 H35 H 0.21993 0.83538 -0.21994
 H36 H 0.21707 0.76904 -0.16340
 C37 C 0.53623 1.03773 -0.01467
 H38 H 0.53681 1.03909 0.00717
 C39 C 0.55365 1.05390 -0.02996
 H40 H 0.56768 1.06765 -0.01971
 C41 C 0.51824 1.01694 -0.05441
 H42 H 0.50491 1.00204 -0.06385
 C43 C 0.53543 1.03259 -0.07046
 H44 H 0.53472 1.02996 -0.09221
 N45 N 0.51896 1.01974 -0.02704
 C46 C 0.45821 1.00272 0.03410
 H47 H 0.45962 0.98054 0.03480
 C48 C 0.43922 1.01640 0.04995
 H49 H 0.42648 1.00455 0.06324
 C50 C 0.47312 1.04490 0.01570
 H51 H 0.48590 1.05587 0.00182
 C52 C 0.45427 1.05942 0.03108
 H53 H 0.45281 1.08149 0.02882
 Zn54 Zn 0.49830 0.99644 -0.00469
 N55 N 0.47480 1.01706 0.01755
 C56 C 0.52297 0.97563 0.04375
 N57 N 0.52342 0.97584 0.01624
 C58 C 0.54316 0.96247 0.00241
 C59 C 0.56364 0.94829 0.01625
 C60 C 0.54286 0.96132 0.05840
 C61 C 0.45692 0.98489 -0.04188
 C62 C 0.43882 0.96879 -0.05696
 C63 C 0.46007 0.92816 -0.03825
 C64 C 0.47800 0.94507 -0.02373
 N65 N 0.47611 0.97288 -0.02584
 H66 H 0.50753 0.98690 0.05442
 H67 H 0.54318 0.96324 -0.01945
 H68 H 0.57932 0.93790 0.00494
 H69 H 0.54247 0.96158 0.08029
 H70 H 0.45554 1.00707 -0.04273
 H71 H 0.42346 0.97873 -0.06938
 H72 H 0.46172 0.90606 -0.03633
 H73 H 0.49305 0.93596 -0.01043
 C74 C 0.43689 1.04514 0.04842
 C75 C 0.55359 1.05120 -0.05823
 C76 C 0.44016 0.94005 -0.05511
 C77 C 0.56366 0.94768 0.04460
 C78 C -0.01784 0.52603 1.05223
 H79 H -0.00086 0.51533 1.06141
 C80 C -0.03286 0.54463 1.06761
 H81 H -0.02698 0.54802 1.08851
 C82 C -0.04437 0.53623 1.01329
 H83 H -0.04837 0.53319 0.99193
 C84 C -0.06034 0.55446 1.02803
 H85 H -0.07706 0.56466 1.01782
 N86 N -0.02389 0.52211 1.02560
 C87 C 0.01017 0.46098 1.04431
 H88 H -0.01162 0.46112 1.04681
 C89 C 0.02630 0.44330 1.05983
 H90 H 0.01673 0.42976 1.07417
 C91 C 0.04884 0.47752 1.02148
 H92 H 0.05747 0.49040 1.00607
 C93 C 0.06574 0.46008 1.03651
 H94 H 0.08737 0.46018 1.03289
 Zn95 Zn -0.00232 0.49883 1.00391
 N96 N 0.02160 0.47766 1.02564
 C97 C 0.03488 0.54002 0.99190
 N98 N 0.01727 0.52184 0.98034
 C99 C 0.01298 0.52125 0.95311
 C100 C 0.02711 0.53916 0.93634
 C101 C 0.04962 0.55807 0.97588
 C102 C -0.05119 0.47120 0.98812
 C103 C -0.06637 0.45164 0.97379
 C104 C -0.02531 0.43672 0.95192
 C105 C -0.01091 0.45647 0.96674
 N106 N -0.02402 0.47349 0.98411
 H107 H 0.03745 0.54046 1.01365
 H108 H -0.00167 0.50721 0.94436
 H109 H 0.02359 0.53836 0.91470
 H110 H 0.06347 0.57249 0.98546
 H111 H -0.06113 0.48420 1.00270
 H112 H -0.08803 0.45030 0.97703
 H113 H -0.01446 0.42326 0.93832
 H114 H 0.01082 0.45824 0.96446
 C115 C 0.05447 0.44253 1.05586
 C116 C -0.05457 0.55917 1.05560
 C117 C -0.05344 0.43414 0.95534
 C118 C 0.04579 0.55779 0.94772
 C119 C 1.04009 0.00033 0.54281
 H120 H 1.04076 0.02256 0.54251
 C121 C 1.05541 -0.01415 0.56194
 H122 H 1.06830 -0.00281 0.57590
 C123 C 1.02238 -0.04119 0.52475
 H124 H 1.00902 -0.05158 0.51057
 C125 C 1.03710 -0.05649 0.54379
 H126 H 1.03476 -0.07860 0.54403
 N127 N 1.02411 -0.01329 0.52464
 C128 C 1.01071 0.04619 0.45995
 H129 H 0.98876 0.04635 0.45905
 C130 C 1.02548 0.06157 0.44146
 H131 H 1.01473 0.07352 0.42631
 C132 C 1.05132 0.02908 0.47987
 H133 H 1.06133 0.01588 0.49440
 C134 C 1.06688 0.04402 0.46166
 H135 H 1.08880 0.04261 0.46280
 Zn136 Zn 1.00216 0.00796 0.50105
 N137 N 1.02374 0.03044 0.47872
 C138 C 0.97838 0.05729 0.52147
 N139 N 0.97907 0.02938 0.52300
 C140 C 0.96430 0.01565 0.54162
 C141 C 0.94782 0.02998 0.55957
 C142 C 0.96205 0.07245 0.53897
 C143 C 0.99591 -0.02915 0.45869
 C144 C 0.98233 -0.04487 0.43917
 C145 C 0.93977 -0.03216 0.45956
 C146 C 0.95417 -0.01635 0.47852
 N147 N 0.98174 -0.01512 0.47770
 H148 H 0.99070 0.06790 0.50694
 H149 H 0.96567 -0.00651 0.54276
 H150 H 0.93672 0.01861 0.57461
 H151 H 0.96156 0.09463 0.53726
 H152 H 1.01781 -0.02760 0.45839
 H153 H 0.99390 -0.05565 0.42397
 H154 H 0.91780 -0.03255 0.46009
 H155 H 0.94324 -0.00465 0.49346
 C156 C 1.05396 0.06038 0.44200
 C157 C 1.05382 -0.04298 0.56286
 C158 C 0.95389 -0.04632 0.43935
 C159 C 0.94654 0.05880 0.55844
 C160 C 0.15795 0.29479 1.15184
 C161 C 0.17359 0.27622 1.13686
 C162 C 0.18559 0.25339 1.14921
 C163 C 0.18240 0.24829 1.17713
 C164 C 0.16700 0.26745 1.19211
 C165 C 0.15497 0.29025 1.17965
 C166 C 0.14430 0.31833 1.13835
 N167 N 0.12684 0.33473 1.15207
 N168 N 0.11387 0.35526 1.13965
 C169 C 0.11784 0.36030 1.11299
 N170 N 0.13545 0.34403 1.09934
 N171 N 0.14838 0.32349 1.11174
 C172 C 0.10262 0.38242 1.09883
 C173 C 0.10743 0.38800 1.07142
 C174 C 0.09218 0.40789 1.05767
 C175 C 0.07173 0.42263 1.07096
 C176 C 0.06724 0.41745 1.09848
 C177 C 0.08255 0.39762 1.11228
 H178 H 0.17615 0.27894 1.11532
 H179 H 0.19614 0.23914 1.13622
 H180 H 0.16473 0.26555 1.21374
 H181 H 0.14332 0.30435 1.19191
 H182 H 0.12272 0.37673 1.06042
 H183 H 0.09590 0.41117 1.03639
 H184 H 0.05183 0.42872 1.10934
 H185 H 0.07836 0.39394 1.13340
 C186 C -0.15455 0.70284 1.15919
 C187 C -0.18131 0.71038 1.15291
 C188 C -0.19313 0.73336 1.16505
 C189 C -0.17823 0.75020 1.18334
 C190 C -0.15145 0.74171 1.19005
 C191 C -0.13997 0.71830 1.17835
 C192 C -0.14141 0.67986 1.14478
 N193 N -0.12102 0.66522 1.15664
 N194 N -0.10836 0.64538 1.14306
 C195 C -0.11535 0.63967 1.11699
 N196 N -0.13577 0.65427 1.10517
 N197 N -0.14864 0.67387 1.11884
 C198 C -0.10038 0.61876 1.10142
 C199 C -0.09706 0.62193 1.07348
 C200 C -0.08207 0.60280 1.05875
 C201 C -0.07062 0.57957 1.07145
 C202 C -0.07443 0.57626 1.09944
 C203 C -0.08884 0.59583 1.11430
 H204 H -0.19322 0.69840 1.13858
 H205 H -0.21418 0.73732 1.16010
 H206 H -0.13829 0.75371 1.20309
 H207 H -0.11914 0.71305 1.18338
 H208 H -0.10545 0.63965 1.06312
 H209 H -0.07908 0.60663 1.03746
 H210 H -0.06650 0.55844 1.10995
 H211 H -0.09131 0.59282 1.13582
 C212 C -0.15349 0.28681 0.85410
 C213 C -0.17005 0.26823 0.86788
 C214 C -0.18313 0.24682 0.85408
 C215 C -0.18012 0.24324 0.82588
 C216 C -0.16352 0.26224 0.81221
 C217 C -0.15044 0.28360 0.82610
 C218 C -0.13929 0.30926 0.86890
 N219 N -0.12157 0.32595 0.85604
 N220 N -0.10857 0.34587 0.86942
 C221 C -0.11274 0.34999 0.89622
 N222 N -0.13052 0.33335 0.90906
 N223 N -0.14350 0.31341 0.89570
 C224 C -0.09796 0.37191 0.91121
 C225 C -0.10340 0.37709 0.93861
 C226 C -0.08914 0.39743 0.95284
 C227 C -0.06904 0.41299 0.94006
 C228 C -0.06370 0.40794 0.91265
 C229 C -0.07803 0.38768 0.89837
 H230 H -0.17266 0.26991 0.88953
 H231 H -0.19455 0.23248 0.86608
 H232 H -0.16122 0.26148 0.79050
 H233 H -0.13806 0.29774 0.81476
 H234 H -0.11859 0.36535 0.94915
 H235 H -0.09349 0.40064 0.97403
 H236 H -0.04855 0.41983 0.90217
 H237 H -0.07334 0.38430 0.87729
 C238 C 0.14391 0.70026 0.84212
 C239 C 0.17238 0.70053 0.84049
 C240 C 0.18576 0.72253 0.82837
 C241 C 0.17099 0.74488 0.81779
 C242 C 0.14250 0.74440 0.81912
 C243 C 0.12912 0.72231 0.83101
 C244 C 0.12972 0.67760 0.85605
 N245 N 0.10230 0.67512 0.85422
 N246 N 0.08942 0.65538 0.86752
 C247 C 0.10341 0.63733 0.88331
 N248 N 0.13085 0.63971 0.88502
 N249 N 0.14374 0.65939 0.87164
 C250 C 0.08894 0.61608 0.89898
 C251 C 0.10254 0.60123 0.91939
 C252 C 0.08858 0.58215 0.93504
 C253 C 0.06080 0.57729 0.93045
 C254 C 0.04731 0.59170 0.90969
 C255 C 0.06119 0.61098 0.89421
 H256 H 0.18438 0.68377 0.84866
 H257 H 0.20769 0.72206 0.82731
 H258 H 0.13050 0.76148 0.81165
 H259 H 0.10719 0.72286 0.83207
 H260 H 0.12389 0.60464 0.92362
 H261 H 0.09953 0.57111 0.95074
 H262 H 0.02585 0.58853 0.90587
 H263 H 0.05012 0.62201 0.87861
 C264 C 1.15389 0.15244 0.29301
 C265 C 1.16946 0.13639 0.27541
 C266 C 1.18210 0.14818 0.25318
 C267 C 1.17977 0.17663 0.24777
 C268 C 1.16420 0.19264 0.26581
 C269 C 1.15144 0.18070 0.28798
 C270 C 1.14006 0.13959 0.31622
 N271 N 1.12175 0.15390 0.33102
 N272 N 1.10892 0.14205 0.35147
 C273 C 1.11393 0.11541 0.35805
 N274 N 1.13236 0.10117 0.34334
 N275 N 1.14512 0.11299 0.32287
 C276 C 1.09922 0.10188 0.38033
 C277 C 1.10641 0.07519 0.38860
 C278 C 1.09200 0.06197 0.40892
 C279 C 1.07000 0.07506 0.42138
 C280 C 1.06297 0.10185 0.41337
 C281 C 1.07749 0.11517 0.39314
 H282 H 1.17152 0.11445 0.27846
 H283 H 1.19261 0.13439 0.23969
 H284 H 1.16244 0.21468 0.26361
 H285 H 1.13983 0.19376 0.30134
 H286 H 1.12304 0.06434 0.37922
 H287 H 1.09768 0.04120 0.41441
 H288 H 1.04625 0.11253 0.42281
 H289 H 1.07143 0.13573 0.38730
 C290 C 1.14984 -0.14875 0.70845
 C291 C 1.16483 -0.13493 0.72858
 C292 C 1.17715 -0.14939 0.74976
 C293 C 1.17456 -0.17824 0.75177
 C294 C 1.15948 -0.19196 0.73132
 C295 C 1.14751 -0.17744 0.70991
 C296 C 1.13633 -0.13316 0.68638
 N297 N 1.12717 -0.14607 0.66364
 N298 N 1.11475 -0.13198 0.64400
 C299 C 1.11083 -0.10443 0.64637
 N300 N 1.12000 -0.09155 0.66910
 N301 N 1.13254 -0.10560 0.68865
 C302 C 1.09656 -0.08875 0.62486
 C303 C 1.08605 -0.06249 0.63032
 C304 C 1.07220 -0.04775 0.61027
 C305 C 1.06882 -0.05872 0.58409
 C306 C 1.07955 -0.08494 0.57858
 C307 C 1.09312 -0.09985 0.59878
 H308 H 1.16697 -0.11279 0.72809
 H309 H 1.18752 -0.13749 0.76523
 H310 H 1.15757 -0.21410 0.73111
 H311 H 1.13618 -0.18873 0.69462
 H312 H 1.08812 -0.05346 0.65028
 H313 H 1.06372 -0.02793 0.61549
 H314 H 1.07772 -0.09387 0.55857
 H315 H 1.10116 -0.11996 0.59387
 C316 C 0.85327 -0.14432 0.29151
 C317 C 0.84845 -0.13081 0.26683
 C318 C 0.83495 -0.14420 0.24560
 C319 C 0.82629 -0.17149 0.24843
 C320 C 0.83106 -0.18507 0.27306
 C321 C 0.84424 -0.17153 0.29449
 C322 C 0.86800 -0.13010 0.31376
 N323 N 0.86684 -0.13941 0.33959
 N324 N 0.88020 -0.12651 0.35950
 C325 C 0.89542 -0.10390 0.35434
 N326 N 0.89661 -0.09466 0.32851
 N327 N 0.88313 -0.10744 0.30866
 C328 C 0.91049 -0.08956 0.37628
 C329 C 0.93178 -0.07153 0.37007
 C330 C 0.94601 -0.05780 0.39061
 C331 C 0.93906 -0.06150 0.41779
 C332 C 0.91773 -0.07940 0.42409
 C333 C 0.90372 -0.09349 0.40353
 H334 H 0.85505 -0.10982 0.26391
 H335 H 0.83170 -0.13338 0.22672
 H336 H 0.82442 -0.20609 0.27574
 H337 H 0.84771 -0.18250 0.31323
 H338 H 0.93756 -0.06811 0.34930
 H339 H 0.96220 -0.04390 0.38521
 H340 H 0.91208 -0.08267 0.44492
 H341 H 0.88736 -0.10718 0.40895
 C342 C 0.84275 0.15351 0.70380
 C343 C 0.84767 0.18096 0.71111
 C344 C 0.83513 0.19259 0.73363
 C345 C 0.81736 0.17705 0.74982
 C346 C 0.81235 0.14951 0.74197
 C347 C 0.82476 0.13804 0.71934
 C348 C 0.85679 0.14079 0.68055
 N349 N 0.84929 0.11560 0.67123
 N350 N 0.86246 0.10369 0.65096
 C351 C 0.88376 0.11642 0.63917
 N352 N 0.89118 0.14170 0.64838
 N353 N 0.87794 0.15365 0.66860
 C354 C 0.89911 0.10257 0.61742
 C355 C 0.92396 0.11326 0.60863
 C356 C 0.93915 0.09931 0.58921
 C357 C 0.92975 0.07443 0.57801
 C358 C 0.90456 0.06413 0.58631
 C359 C 0.88946 0.07797 0.60583
 H360 H 0.86115 0.19360 0.69932
 H361 H 0.83895 0.21410 0.73764
 H362 H 0.79993 0.13598 0.75388
 H363 H 0.82072 0.11671 0.71446
 H364 H 0.93205 0.13210 0.61719
 H365 H 0.95862 0.10765 0.58355
 H366 H 0.89648 0.04530 0.57773
 H367 H 0.87029 0.06928 0.61195
 C368 C 0.29280 1.14458 0.15073
 C369 C 0.27003 1.13015 0.15995
 C370 C 0.24901 1.14395 0.17296
 C371 C 0.25018 1.17251 0.17696
 C372 C 0.27300 1.18697 0.16797
 C373 C 0.29416 1.17314 0.15508
 C374 C 0.31467 1.12989 0.13626
 N375 N 0.33816 1.14280 0.12985
 N376 N 0.35757 1.12957 0.11650
 C377 C 0.35427 1.10290 0.10891
 N378 N 0.33081 1.09001 0.11537
 N379 N 0.31146 1.10320 0.12877
 C380 C 0.37558 1.08818 0.09367
 C381 C 0.37025 1.06217 0.08238
 C382 C 0.39011 1.04830 0.06775
 C383 C 0.41590 1.05997 0.06419
 C384 C 0.42129 1.08596 0.07556
 C385 C 0.40133 1.09994 0.09008
 H386 H 0.26831 1.10816 0.15700
 H387 H 0.23153 1.13233 0.17943
 H388 H 0.27452 1.20897 0.17102
 H389 H 0.31141 1.18488 0.14826
 H390 H 0.35059 1.05257 0.08456
 H391 H 0.38506 1.02858 0.05883
 H392 H 0.44104 1.09539 0.07350
 H393 H 0.40616 1.11989 0.09862
 C394 C 0.69993 1.14864 -0.15732
 C395 C 0.72007 1.13290 -0.17000
 C396 C 0.74260 1.14554 -0.18141
 C397 C 0.74548 1.17428 -0.18064
 C398 C 0.72510 1.19008 -0.16836
 C399 C 0.70263 1.17740 -0.15674
 C400 C 0.67666 1.13498 -0.14425
 N401 N 0.65977 1.14926 -0.12783
 N402 N 0.63946 1.13668 -0.11536
 C403 C 0.63512 1.10931 -0.11886
 N404 N 0.65188 1.09512 -0.13546
 N405 N 0.67222 1.10767 -0.14785
 C406 C 0.61320 1.09499 -0.10426
 C407 C 0.60708 1.06739 -0.11017
 C408 C 0.58734 1.05341 -0.09560
 C409 C 0.57335 1.06665 -0.07468
 C410 C 0.57912 1.09436 -0.06901
 C411 C 0.59876 1.10843 -0.08372
 H412 H 0.71874 1.11069 -0.17069
 H413 H 0.75811 1.13272 -0.19032
 H414 H 0.72647 1.21229 -0.16780
 H415 H 0.68739 1.19015 -0.14729
 H416 H 0.61776 1.05641 -0.12588
 H417 H 0.58356 1.03197 -0.10022
 H418 H 0.56846 1.10514 -0.05316
 H419 H 0.60294 1.12968 -0.07865
 C420 C 0.29211 0.83739 -0.15055
 C421 C 0.29002 0.83693 -0.17891
 C422 C 0.26732 0.82544 -0.19181
 C423 C 0.24603 0.81434 -0.17667
 C424 C 0.24830 0.81444 -0.14830
 C425 C 0.27112 0.82573 -0.13540
 C426 C 0.31563 0.85066 -0.13687
 N427 N 0.31995 0.84769 -0.10986
 N428 N 0.34058 0.86039 -0.09745
 C429 C 0.35771 0.87670 -0.11152
 N430 N 0.35347 0.87956 -0.13855
 N431 N 0.33291 0.86677 -0.15097
 C432 C 0.37991 0.89185 -0.09753
 C433 C 0.39359 0.91321 -0.11072
 C434 C 0.41344 0.92857 -0.09707
 C435 C 0.42025 0.92273 -0.07003
 C436 C 0.40712 0.90093 -0.05704
 C437 C 0.38706 0.88574 -0.07060
 H438 H 0.30593 0.84551 -0.19120
 H439 H 0.26646 0.82521 -0.21370
 H440 H 0.23212 0.80639 -0.13602
 H441 H 0.27201 0.82586 -0.11351
 H442 H 0.38861 0.91846 -0.13145
 H443 H 0.42343 0.94511 -0.10762
 H444 H 0.41183 0.89615 -0.03613
 H445 H 0.37698 0.86937 -0.05988
 C446 C 0.71386 0.85441 0.14609
 C447 C 0.71142 0.82688 0.15424
 C448 C 0.73276 0.81382 0.16801
 C449 C 0.75674 0.82816 0.17427
 C450 C 0.75913 0.85573 0.16636
 C451 C 0.73799 0.86866 0.15222
 C452 C 0.69146 0.86817 0.13118
 N453 N 0.69616 0.89120 0.11653
 N454 N 0.67607 0.90352 0.10296
 C455 C 0.65039 0.89343 0.10362
 N456 N 0.64565 0.87046 0.11836
 N457 N 0.66579 0.85803 0.13178
 C458 C 0.62811 0.90718 0.08851
 C459 C 0.60085 0.90242 0.09516
 C460 C 0.57988 0.91570 0.08102
 C461 C 0.58576 0.93360 0.05968
 C462 C 0.61296 0.93818 0.05287
 C463 C 0.63393 0.92527 0.06727
 H464 H 0.69314 0.81533 0.14973
 H465 H 0.73043 0.79258 0.17404
 H466 H 0.77752 0.86714 0.17081
 H467 H 0.74045 0.88991 0.14628
 H468 H 0.59573 0.88866 0.11148
 H469 H 0.55904 0.91176 0.08654
 H470 H 0.61800 0.95209 0.03664
 H471 H 0.65470 0.92930 0.06160
   
