data_POSCAR
  _audit_creation_date              2014-09-24
  _audit_creation_method            'ToBaCCo'
  _symmetry_space_group_name_H-M    'P1'
  _symmetry_Int_Tables_number       1
  _symmetry_cell_setting            triclinic
  loop_
  _symmetry_equiv_pos_as_xyz
 x,y,z
_cell_length_a 26.7061
_cell_length_b 26.5726
_cell_length_c 26.7300
_cell_angle_alpha 90.088200
_cell_angle_beta 90.152700
_cell_angle_gamma 90.080200
loop_
  _atom_site_label
  _atom_site_type_symbol
  _atom_site_fract_x
  _atom_site_fract_y
  _atom_site_fract_z
C1 C 0.52438 1.00004 -0.50131
 C2 C 0.47336 1.00001 -0.50122
 C3 C 0.44279 1.00392 -0.54782
 C4 C 0.44364 0.99627 -0.45428
 C5 C 0.55469 1.00325 -0.45454
 C6 C 0.55443 0.99687 -0.54804
 C7 C 0.40491 1.04035 -0.54973
 C8 C 0.37089 1.04158 -0.58929
 C9 C 0.37398 1.00666 -0.62901
 C10 C 0.41356 0.97129 -0.62800
 C11 C 0.44699 0.96942 -0.58743
 C12 C 0.44697 1.03252 -0.41605
 C13 C 0.41374 1.03106 -0.37548
 C14 C 0.37599 0.99410 -0.37325
 C15 C 0.37362 0.95742 -0.41102
 C16 C 0.40715 0.95840 -0.45087
 C17 C 0.55172 0.96673 -0.41667
 C18 C 0.58532 0.96790 -0.37621
 C19 C 0.62309 1.00485 -0.37373
 C20 C 0.62514 1.04177 -0.41117
 C21 C 0.59124 1.04108 -0.45089
 C22 C 0.59078 0.95896 -0.55169
 C23 C 0.62469 0.95840 -0.59120
 C24 C 0.62288 0.99555 -0.62843
 C25 C 0.58526 1.03255 -0.62601
 C26 C 0.55163 1.03358 -0.58575
 H27 H 0.40081 1.06732 -0.51958
 H28 H 0.34185 1.06998 -0.58815
 H29 H 0.41776 0.94360 -0.65747
 H30 H 0.47512 0.94015 -0.58633
 H31 H 0.47404 1.06277 -0.41843
 H32 H 0.41625 1.05999 -0.34702
 H33 H 0.40371 0.93025 -0.48005
 H34 H 0.52460 0.93651 -0.41924
 H35 H 0.58305 0.93879 -0.34801
 H36 H 0.65346 1.07097 -0.41014
 H37 H 0.59440 1.06948 -0.47975
 H38 H 0.59380 0.93043 -0.52293
 H39 H 0.65288 0.92916 -0.59219
 H40 H 0.58317 1.06181 -0.65408
 H41 H 0.52462 1.06381 -0.58317
 H42 H 0.34529 0.92822 -0.41019
 C43 C -0.50025 1.47381 0.00085
 C44 C -0.50046 1.52488 0.00085
 C45 C -0.45377 1.55513 -0.00133
 C46 C -0.54728 1.55476 0.00292
 C47 C -0.54684 1.44334 -0.00207
 C48 C -0.45325 1.44421 0.00346
 C49 C -0.41655 1.55174 0.03574
 C50 C -0.37591 1.58513 0.03551
 C51 C -0.37276 1.62300 -0.00105
 C52 C -0.40949 1.62541 -0.03858
 C53 C -0.44940 1.59171 -0.03881
 C54 C -0.55190 1.59134 0.04046
 C55 C -0.59178 1.62494 0.04003
 C56 C -0.62823 1.62245 0.00222
 C57 C -0.62489 1.58450 -0.03436
 C58 C -0.58428 1.55119 -0.03438
 C59 C -0.54993 1.40547 -0.03849
 C60 C -0.58979 1.37174 -0.03890
 C61 C -0.62827 1.37534 -0.00317
 C62 C -0.62621 1.41480 0.03218
 C63 C -0.58541 1.44797 0.03323
 C64 C -0.41606 1.44799 -0.03341
 C65 C -0.37525 1.41496 -0.03305
 C66 C -0.37186 1.37705 0.00345
 C67 C -0.40851 1.37432 0.04087
 C68 C -0.44862 1.40767 0.04096
 H69 H -0.41979 1.52447 0.06561
 H70 H -0.34819 1.58270 0.06505
 H71 H -0.40778 1.65388 -0.06748
 H72 H -0.47781 1.59503 -0.06763
 H73 H -0.52364 1.59479 0.06944
 H74 H -0.59364 1.65347 0.06896
 H75 H -0.58084 1.52387 -0.06426
 H76 H -0.52054 1.40118 -0.06603
 H77 H -0.58994 1.34250 -0.06718
 H78 H -0.65495 1.41891 0.06039
 H79 H -0.58325 1.47621 0.06239
 H80 H -0.41951 1.47523 -0.06330
 H81 H -0.34761 1.41762 -0.06250
 H82 H -0.40663 1.34580 0.06971
 H83 H -0.47704 1.40404 0.06959
 H84 H -0.65241 1.58200 -0.06409
 C85 C 0.00077 0.47373 0.50078
 C86 C 0.00071 0.52495 0.50070
 C87 C -0.00196 0.55549 0.54734
 C88 C 0.00300 0.55488 0.45379
 C89 C -0.00223 0.44343 0.45396
 C90 C 0.00374 0.44360 0.54760
 C91 C 0.03371 0.55136 0.58581
 C92 C 0.03283 0.58472 0.62652
 C93 C -0.00274 0.62393 0.62859
 C94 C -0.03879 0.62706 0.59018
 C95 C -0.03853 0.59315 0.55045
 C96 C -0.03414 0.55138 0.41660
 C97 C -0.03396 0.58476 0.37601
 C98 C 0.00260 0.62280 0.37282
 C99 C 0.04020 0.62530 0.40952
 C100 C 0.04049 0.59161 0.44936
 C101 C -0.03868 0.40555 0.45070
 C102 C -0.03908 0.37187 0.41077
 C103 C -0.00331 0.37548 0.37231
 C104 C 0.03210 0.41492 0.37455
 C105 C 0.03313 0.44804 0.41543
 C106 C 0.04025 0.40590 0.55087
 C107 C 0.04054 0.37217 0.59066
 C108 C 0.00458 0.37554 0.62895
 C109 C -0.03088 0.41484 0.62675
 C110 C -0.03180 0.44801 0.58599
 H111 H 0.06301 0.52332 0.58369
 H112 H 0.06130 0.58094 0.65519
 H113 H -0.06724 0.65607 0.59029
 H114 H -0.06637 0.59714 0.52116
 H115 H -0.06404 0.52404 0.41983
 H116 H -0.06356 0.58220 0.34835
 H117 H 0.06933 0.59512 0.47776
 H118 H -0.06625 0.40119 0.48006
 H119 H -0.06739 0.34265 0.41054
 H120 H 0.06035 0.41907 0.34586
 H121 H 0.06237 0.47623 0.41767
 H122 H 0.06794 0.40168 0.52161
 H123 H 0.06891 0.34307 0.59088
 H124 H -0.05927 0.41882 0.65532
 H125 H -0.06107 0.47607 0.58374
 H126 H 0.06911 0.65387 0.40785
 O127 O -0.12886 1.00082 -0.06764
 O128 O 0.12928 0.99908 -0.06734
 O129 O -0.00051 1.06827 -0.12880
 O130 O 0.00084 0.93164 -0.12882
 O131 O 0.00247 0.87059 -0.06747
 O132 O -0.00188 1.12951 -0.06743
 O133 O 0.06825 0.99758 -0.12868
 O134 O -0.06802 1.00226 -0.12884
 Zr135 Zr 0.00018 1.00001 -0.08828
 O136 O 0.04559 0.95449 -0.04542
 O137 O -0.04509 1.04566 -0.04552
 C138 C -0.11430 1.00210 -0.11389
 C139 C 0.11457 0.99769 -0.11362
 C140 C -0.00201 1.11473 -0.11371
 C141 C 0.00248 0.88523 -0.11374
 H142 H 0.06690 1.06701 -0.06637
 O143 O 0.04552 1.04544 -0.04516
 H144 H -0.06646 0.93299 -0.06653
 O145 O -0.04502 0.95466 -0.04530
 O146 O 0.12952 1.00077 0.06765
 O147 O -0.12869 0.99952 0.06729
 O148 O 0.06797 1.12955 0.00267
 O149 O 0.06749 0.87063 -0.00225
 O150 O -0.06727 0.87069 0.00233
 O151 O -0.06687 1.12962 -0.00230
 O152 O 0.00125 1.06861 0.12893
 O153 O -0.00070 0.93205 0.12889
 O154 O 0.00293 1.12969 0.06761
 O155 O -0.00197 0.87079 0.06756
 O156 O 0.12911 1.06826 0.00165
 O157 O -0.12819 1.06835 -0.00193
 O158 O -0.12841 0.93197 0.00172
 O159 O 0.12883 0.93186 -0.00171
 O160 O 0.06868 1.00292 0.12886
 O161 O -0.06773 0.99813 0.12870
 Zr162 Zr 0.08840 1.00008 0.00012
 Zr163 Zr -0.08774 1.00015 -0.00011
 Zr164 Zr 0.00047 1.08846 0.00007
 Zr165 Zr 0.00019 0.91181 0.00004
 Zr166 Zr 0.00042 1.00028 0.08835
 O167 O -0.04511 0.95467 0.04546
 O168 O 0.04590 1.04574 0.04560
 C169 C 0.11495 1.00249 0.11389
 C170 C -0.11404 0.99830 0.11360
 C171 C 0.11417 1.11470 0.00309
 C172 C 0.11374 0.88543 -0.00300
 C173 C -0.11347 0.88553 0.00305
 C174 C -0.11312 1.11479 -0.00309
 C175 C 0.00291 1.11502 0.11388
 C176 C -0.00225 0.88558 0.11383
 H177 H -0.06607 1.06726 0.06641
 O178 O -0.04475 1.04561 0.04523
 H179 H 0.06687 0.93319 0.06664
 O180 O 0.04552 0.95479 0.04538
 C181 C 0.26696 1.00521 0.26162
 N182 N 0.26312 1.03663 0.30139
 N183 N 0.29850 1.03751 0.33655
 C184 C 0.33905 1.00660 0.33399
 N185 N 0.34266 0.97508 0.29393
 N186 N 0.30754 0.97465 0.25833
 C187 C 0.22746 1.00422 0.22319
 N188 N 0.23683 0.98605 0.17667
 N189 N 0.20102 0.98582 0.14182
 C190 C 0.15437 1.00311 0.15238
 N191 N 0.14490 1.02092 0.19903
 N192 N 0.18089 1.02177 0.23367
 C193 C -0.26575 0.99790 0.26094
 N194 N -0.25742 0.97549 0.30573
 N195 N -0.29300 0.97463 0.34051
 C196 C -0.33823 0.99645 0.33215
 N197 N -0.34647 1.01921 0.28738
 N198 N -0.31098 1.01968 0.25233
 C199 C -0.22632 0.99831 0.22262
 N200 N -0.23711 1.01042 0.17447
 N201 N -0.20135 1.01011 0.13977
 C202 C -0.15341 0.99810 0.15198
 N203 N -0.14258 0.98625 0.20019
 N204 N -0.17843 0.98611 0.23479
 C205 C -0.26590 1.00283 -0.26215
 N206 N -0.25738 1.02515 -0.30692
 N207 N -0.29284 1.02594 -0.34200
 C208 C -0.33816 1.00411 -0.33397
 N209 N -0.34659 0.98146 -0.28921
 N210 N -0.31121 0.98108 -0.25387
 C211 C -0.22654 1.00240 -0.22355
 N212 N -0.23742 0.99028 -0.17547
 N213 N -0.20169 0.99050 -0.14055
 C214 C -0.15369 1.00244 -0.15246
 N215 N -0.14278 1.01431 -0.20059
 N216 N -0.17859 1.01454 -0.23542
 C217 C 0.26562 0.99606 -0.26162
 N218 N 0.25687 0.97370 -0.30643
 N219 N 0.29215 0.97287 -0.34151
 C220 C 0.33750 0.99469 -0.33342
 N221 N 0.34618 1.01736 -0.28860
 N222 N 0.31099 1.01780 -0.25327
 C223 C 0.22642 0.99666 -0.22306
 N224 N 0.23750 1.00895 -0.17498
 N225 N 0.20190 1.00896 -0.14012
 C226 C 0.15383 0.99710 -0.15211
 N227 N 0.14271 0.98506 -0.20025
 N228 N 0.17840 0.98460 -0.23501
 C229 C 0.26157 1.26663 0.00145
 N230 N 0.30132 1.26173 -0.02952
 N231 N 0.33632 1.29730 -0.03144
 C232 C 0.33342 1.33902 -0.00209
 N233 N 0.29346 1.34376 0.02903
 N234 N 0.25801 1.30841 0.03051
 C235 C 0.22344 1.22705 0.00329
 N236 N 0.17670 1.23689 0.02048
 N237 N 0.14185 1.20097 0.02059
 C238 C 0.15274 1.15386 0.00416
 N239 N 0.19962 1.14393 -0.01251
 N240 N 0.23426 1.17999 -0.01322
 C241 C 0.26126 0.73390 -0.00400
 N242 N 0.25268 0.68789 -0.02456
 N243 N 0.28776 0.65227 -0.02287
 C244 C 0.33240 0.66126 -0.00002
 N245 N 0.34073 0.70727 0.02054
 N246 N 0.30593 0.74295 0.01846
 C247 C 0.22300 0.77330 -0.00525
 N248 N 0.23528 0.82152 0.00635
 N249 N 0.20055 0.85740 0.00646
 C250 C 0.15218 0.84623 -0.00456
 N251 N 0.13987 0.79799 -0.01617
 N252 N 0.17471 0.76216 -0.01671
 C253 C -0.26166 0.73424 0.00441
 N254 N -0.30640 0.74328 -0.01785
 N255 N -0.34139 0.70768 -0.01970
 C256 C -0.33319 0.66174 0.00091
 N257 N -0.28848 0.65277 0.02354
 N258 N -0.25321 0.68831 0.02500
 C259 C -0.22321 0.77356 0.00547
 N260 N -0.17495 0.76239 0.01686
 N261 N -0.13995 0.79815 0.01623
 C262 C -0.15207 0.84637 0.00462
 N263 N -0.20040 0.85758 -0.00634
 N264 N -0.23529 0.82176 -0.00614
 C265 C -0.26087 1.26609 -0.00277
 N266 N -0.25256 1.31212 -0.02319
 N267 N -0.28777 1.34761 -0.02141
 C268 C -0.33226 1.33847 0.00140
 N269 N -0.34030 1.29244 0.02187
 N270 N -0.30538 1.25689 0.01969
 C271 C -0.22254 1.22678 -0.00432
 N272 N -0.23465 1.17850 0.00700
 N273 N -0.19988 1.14267 0.00675
 C274 C -0.15163 1.15394 -0.00438
 N275 N -0.13947 1.20224 -0.01571
 N276 N -0.17437 1.23802 -0.01590
 C277 C 0.00094 1.26710 0.26159
 N278 N -0.03005 1.26216 0.30133
 N279 N -0.03184 1.29759 0.33649
 C280 C -0.00231 1.33924 0.33382
 N281 N 0.02883 1.34403 0.29387
 N282 N 0.03016 1.30882 0.25827
 C283 C 0.00269 1.22755 0.22327
 N284 N 0.02006 1.23737 0.17661
 N285 N 0.02023 1.20148 0.14171
 C286 C 0.00369 1.15435 0.15245
 N287 N -0.01318 1.14445 0.19925
 N288 N -0.01396 1.18048 0.23392
 C289 C -0.00001 1.26685 -0.26094
 N290 N -0.02928 1.30846 -0.25750
 N291 N -0.02785 1.34376 -0.29291
 C292 C 0.00345 1.33919 -0.33276
 N293 N 0.03301 1.29765 -0.33555
 N294 N 0.03113 1.26212 -0.30060
 C295 C -0.00181 1.22724 -0.22279
 N296 N 0.01485 1.18022 -0.23359
 N297 N 0.01407 1.14418 -0.19904
 C298 C -0.00281 1.15402 -0.15221
 N299 N -0.01937 1.20109 -0.14133
 N300 N -0.01920 1.23700 -0.17611
 C301 C 0.00137 0.73284 -0.26116
 N302 N 0.03085 0.69139 -0.25762
 N303 N 0.02960 0.65602 -0.29308
 C304 C -0.00171 0.66037 -0.33310
 N305 N -0.03146 0.70177 -0.33601
 N306 N -0.02976 0.73736 -0.30099
 C307 C 0.00292 0.77251 -0.22294
 N308 N -0.01398 0.81942 -0.23378
 N309 N -0.01345 0.85552 -0.19917
 C310 C 0.00342 0.84585 -0.15225
 N311 N 0.02022 0.79889 -0.14132
 N312 N 0.02029 0.76292 -0.17615
 C313 C -0.00282 0.73402 0.26177
 N314 N -0.02381 0.68814 0.25347
 N315 N -0.02237 0.65263 0.28868
 C316 C 0.00064 0.66157 0.33324
 N317 N 0.02166 0.70745 0.34129
 N318 N 0.01982 0.74302 0.30635
 C319 C -0.00396 0.77341 0.22334
 N320 N 0.00792 0.82163 0.23540
 N321 N 0.00791 0.85747 0.20063
 C322 C -0.00352 0.84630 0.15237
 N323 N -0.01538 0.79805 0.14026
 N324 N -0.01581 0.76227 0.17516
   
