data_POSCAR
  _audit_creation_date              2014-09-24
  _audit_creation_method            'ToBaCCo'
  _symmetry_space_group_name_H-M    'P1'
  _symmetry_Int_Tables_number       1
  _symmetry_cell_setting            triclinic
  loop_
  _symmetry_equiv_pos_as_xyz
 x,y,z
_cell_length_a 56.1976
_cell_length_b 56.1945
_cell_length_c 56.2240
_cell_angle_alpha 90.003900
_cell_angle_beta 90.085600
_cell_angle_gamma 90.000400
loop_
  _atom_site_label
  _atom_site_type_symbol
  _atom_site_fract_x
  _atom_site_fract_y
  _atom_site_fract_z
C1 C 0.21336 0.51835 1.03121
 H2 H 0.21266 0.53203 1.01768
 C3 C 0.19742 0.51891 1.05022
 H4 H 0.18444 0.53314 1.05138
 C5 C 0.23074 0.48278 1.04588
 H6 H 0.24343 0.46849 1.04389
 C7 C 0.21511 0.48265 1.06519
 H8 H 0.21600 0.46836 1.07810
 N9 N 0.22970 0.50056 1.02947
 C10 C 0.28609 0.52944 0.98473
 H11 H 0.28677 0.51593 0.97104
 C12 C 0.30205 0.54847 0.98423
 H13 H 0.31505 0.54971 0.97007
 C14 C 0.26873 0.54407 1.02029
 H15 H 0.25605 0.54206 1.03455
 C16 C 0.28439 0.56338 1.02046
 H17 H 0.28357 0.57630 1.03474
 Zn18 Zn 0.24969 0.50061 1.00240
 N19 N 0.26975 0.52767 1.00249
 C20 C 0.23076 0.51838 0.95883
 N21 N 0.22965 0.50067 0.97532
 C22 C 0.21327 0.48292 0.97359
 C23 C 0.19739 0.48228 0.95447
 C24 C 0.21519 0.51841 0.93942
 C25 C 0.28604 0.47160 1.02007
 C26 C 0.30196 0.45252 1.02050
 C27 C 0.28418 0.43781 0.98420
 C28 C 0.26857 0.45716 0.98444
 N29 N 0.26967 0.47348 1.00231
 H30 H 0.24348 0.53264 0.96080
 H31 H 0.21251 0.46930 0.98717
 H32 H 0.18440 0.46809 0.95325
 H33 H 0.21612 0.53258 0.92639
 H34 H 0.28679 0.48505 1.03381
 H35 H 0.31499 0.45119 1.03466
 H36 H 0.28329 0.42495 0.96987
 H37 H 0.25587 0.45927 0.97017
 C38 C 0.30120 0.56558 1.00227
 C39 C 0.19829 0.50088 1.06736
 C40 C 0.30102 0.43550 1.00239
 C41 C 0.19838 0.50019 0.93724
 C42 C 0.78672 0.51804 -0.02927
 H43 H 0.78744 0.53154 -0.01556
 C44 C 0.80267 0.51882 -0.04827
 H45 H 0.81569 0.53300 -0.04928
 C46 C 0.76926 0.48271 -0.04444
 H47 H 0.75654 0.46843 -0.04266
 C48 C 0.78490 0.48282 -0.06374
 H49 H 0.78403 0.46874 -0.07687
 N50 N 0.77034 0.50027 -0.02778
 C51 C 0.71392 0.52875 0.01717
 H52 H 0.71318 0.51510 0.03071
 C53 C 0.69798 0.54780 0.01782
 H54 H 0.68495 0.54891 0.03196
 C55 C 0.73138 0.54371 -0.01819
 H56 H 0.74410 0.54183 -0.03245
 C57 C 0.71576 0.56305 -0.01820
 H58 H 0.71663 0.57611 -0.03235
 Zn59 Zn 0.75028 0.50002 -0.00076
 N60 N 0.73030 0.52713 -0.00056
 C61 C 0.76919 0.51724 0.04304
 N62 N 0.77028 0.49971 0.02636
 C63 C 0.78662 0.48191 0.02790
 C64 C 0.80251 0.48105 0.04700
 C65 C 0.78477 0.51705 0.06244
 C66 C 0.71390 0.47137 -0.01889
 C67 C 0.69794 0.45234 -0.01965
 C68 C 0.71562 0.43704 0.01646
 C69 C 0.73127 0.45637 0.01655
 N70 N 0.73024 0.47296 -0.00107
 H71 H 0.75650 0.53155 0.04122
 H72 H 0.78735 0.46844 0.01417
 H73 H 0.81549 0.46684 0.04806
 H74 H 0.78389 0.53110 0.07560
 H75 H 0.71321 0.48503 -0.03243
 H76 H 0.68494 0.45125 -0.03386
 H77 H 0.71645 0.42397 0.03060
 H78 H 0.74395 0.45823 0.03087
 C79 C 0.69890 0.56508 -0.00004
 C80 C 0.80175 0.50104 -0.06564
 C81 C 0.69881 0.43504 -0.00180
 C82 C 0.80157 0.49879 0.06441
 C83 C -0.01793 0.28660 0.47157
 H84 H -0.03140 0.28735 0.48528
 C85 C -0.01877 0.30251 0.45251
 H86 H -0.03298 0.31551 0.45151
 C87 C 0.01735 0.26910 0.45643
 H88 H 0.03164 0.25638 0.45826
 C89 C 0.01721 0.28470 0.43707
 H90 H 0.03129 0.28374 0.42395
 N91 N -0.00017 0.27022 0.47310
 C92 C -0.02853 0.21389 0.51828
 H93 H -0.01483 0.21316 0.53180
 C94 C -0.04760 0.19798 0.51904
 H95 H -0.04867 0.18498 0.53323
 C96 C -0.04361 0.23131 0.48290
 H97 H -0.04177 0.24399 0.46860
 C98 C -0.06298 0.21571 0.48299
 H99 H -0.07610 0.21658 0.46888
 Zn100 Zn 0.00015 0.25022 0.50019
 N101 N -0.02697 0.23023 0.50049
 C102 C -0.01698 0.26921 0.54393
 N103 N 0.00053 0.27026 0.52724
 C104 C 0.01834 0.28660 0.52874
 C105 C 0.01923 0.30252 0.54778
 C106 C -0.01676 0.28483 0.56327
 C107 C 0.02874 0.21378 0.48215
 C108 C 0.04778 0.19783 0.48141
 C109 C 0.06319 0.21558 0.51743
 C110 C 0.04386 0.23123 0.51751
 N111 N 0.02721 0.23016 0.49992
 H112 H -0.03130 0.25653 0.54214
 H113 H 0.03179 0.28730 0.51501
 H114 H 0.03344 0.31550 0.54881
 H115 H -0.03079 0.28398 0.57643
 H116 H 0.01504 0.21306 0.46864
 H117 H 0.04882 0.18481 0.46724
 H118 H 0.07632 0.21645 0.53154
 H119 H 0.04205 0.24394 0.53179
 C120 C -0.06496 0.19890 0.50122
 C121 C -0.00102 0.30156 0.43511
 C122 C 0.06514 0.19874 0.49922
 C123 C 0.00151 0.30162 0.56519
 C124 C 0.98190 0.71326 0.52837
 H125 H 0.96827 0.71248 0.51478
 C126 C 0.98132 0.69737 0.54746
 H127 H 0.96717 0.68434 0.54865
 C128 C 1.01735 0.73081 0.54317
 H129 H 1.03160 0.74354 0.54121
 C130 C 1.01744 0.71523 0.56254
 H131 H 1.03165 0.71616 0.57556
 N132 N 0.99963 0.72966 0.52666
 C133 C 0.97065 0.78592 0.48171
 H134 H 0.98416 0.78664 0.46804
 C135 C 0.95159 0.80185 0.48115
 H136 H 0.95033 0.81485 0.46698
 C137 C 0.95606 0.76854 0.51727
 H138 H 0.95810 0.75587 0.53156
 C139 C 0.93671 0.78415 0.51738
 H140 H 0.92380 0.78331 0.53165
 Zn141 Zn 0.99960 0.74964 0.49956
 N142 N 0.97246 0.76959 0.49949
 C143 C 0.98199 0.73056 0.45599
 N144 N 0.99969 0.72957 0.47252
 C145 C 1.01751 0.71326 0.47091
 C146 C 1.01820 0.69730 0.45189
 C147 C 0.98201 0.71490 0.43668
 C148 C 1.02833 0.78611 0.51735
 C149 C 1.04736 0.80206 0.51796
 C150 C 1.06243 0.78431 0.48183
 C151 C 1.04311 0.76866 0.48189
 N152 N 1.02664 0.76972 0.49960
 H153 H 0.96768 0.74324 0.45787
 H154 H 1.03112 0.71260 0.48452
 H155 H 1.03242 0.68433 0.45078
 H156 H 0.96782 0.71570 0.42364
 H157 H 1.01476 0.78682 0.53096
 H158 H 1.04855 0.81509 0.53212
 H159 H 1.07542 0.78345 0.46764
 H160 H 1.04116 0.75594 0.46763
 C161 C 0.93449 0.80096 0.49917
 C162 C 0.99926 0.69837 0.56468
 C163 C 1.06455 0.80115 0.50003
 C164 C 1.00027 0.69812 0.43464
 C165 C 0.47200 -0.01742 0.28556
 H166 H 0.48553 -0.03109 0.28634
 C167 C 0.45293 -0.01793 0.30144
 H168 H 0.45167 -0.03209 0.31446
 C169 C 0.45736 0.01810 0.26804
 H170 H 0.45938 0.03235 0.25532
 C171 C 0.43800 0.01825 0.28360
 H172 H 0.42505 0.03251 0.28268
 N173 N 0.47378 0.00031 0.26918
 C174 C 0.51860 -0.02877 0.21298
 H175 H 0.53231 -0.01527 0.21227
 C176 C 0.51912 -0.04786 0.19708
 H177 H 0.53333 -0.04910 0.18413
 C178 C 0.48300 -0.04331 0.23033
 H179 H 0.46872 -0.04124 0.24299
 C180 C 0.48282 -0.06268 0.21475
 H181 H 0.46849 -0.07556 0.21564
 Zn182 Zn 0.50087 0.00021 0.24922
 N183 N 0.50082 -0.02693 0.22928
 C184 C 0.54438 -0.01754 0.26832
 N185 N 0.52795 0.00024 0.26928
 C186 C 0.52969 0.01806 0.28557
 C187 C 0.54872 0.01867 0.30155
 C188 C 0.56370 -0.01761 0.28399
 C189 C 0.48313 0.02895 0.21276
 C190 C 0.48253 0.04799 0.19682
 C191 C 0.51872 0.06304 0.21456
 C192 C 0.51865 0.04371 0.23020
 N193 N 0.50091 0.02725 0.22914
 H194 H 0.54240 -0.03186 0.25566
 H195 H 0.51615 0.03174 0.28621
 H196 H 0.54992 0.03288 0.31451
 H197 H 0.57665 -0.03187 0.28322
 H198 H 0.46948 0.01539 0.21205
 H199 H 0.46833 0.04918 0.18382
 H200 H 0.53294 0.07603 0.21543
 H201 H 0.53294 0.04176 0.24291
 C202 C 0.50104 -0.06496 0.19796
 C203 C 0.43579 0.00008 0.30044
 C204 C 0.50049 0.06518 0.19774
 C205 C 0.56586 0.00065 0.30076
 C206 C 0.52788 -0.01833 0.71346
 H207 H 0.51430 -0.03196 0.71266
 C208 C 0.54698 -0.01893 0.69762
 H209 H 0.54820 -0.03309 0.68460
 C210 C 0.54261 0.01715 0.73097
 H211 H 0.54061 0.03143 0.74367
 C212 C 0.56199 0.01723 0.71544
 H213 H 0.57498 0.03145 0.71637
 N214 N 0.52612 -0.00057 0.72981
 C215 C 0.48089 -0.02926 0.78590
 H216 H 0.46728 -0.01566 0.78653
 C217 C 0.48019 -0.04830 0.80184
 H218 H 0.46596 -0.04944 0.81477
 C219 C 0.51644 -0.04411 0.76870
 H220 H 0.53078 -0.04218 0.75609
 C221 C 0.51641 -0.06344 0.78434
 H222 H 0.53062 -0.07645 0.78358
 Zn223 Zn 0.49894 -0.00049 0.74967
 N224 N 0.49874 -0.02760 0.76965
 C225 C 0.45536 -0.01796 0.73045
 N226 N 0.47195 -0.00033 0.72950
 C227 C 0.47041 0.01747 0.71316
 C228 C 0.45142 0.01821 0.69713
 C229 C 0.43607 -0.01790 0.71473
 C230 C 0.51668 0.02824 0.78615
 C231 C 0.51729 0.04730 0.80206
 C232 C 0.48124 0.06248 0.78414
 C233 C 0.48130 0.04312 0.76854
 N234 N 0.49897 0.02658 0.76970
 H235 H 0.45718 -0.03227 0.74315
 H236 H 0.48406 0.03103 0.71253
 H237 H 0.45036 0.03241 0.68415
 H238 H 0.42299 -0.03203 0.71551
 H239 H 0.53027 0.01462 0.78695
 H240 H 0.53143 0.04846 0.81513
 H241 H 0.46708 0.07553 0.78319
 H242 H 0.46706 0.04120 0.75577
 C243 C 0.49813 -0.06551 0.80106
 C244 C 0.56417 -0.00097 0.69861
 C245 C 0.49940 0.06456 0.80104
 C246 C 0.43411 0.00036 0.69793
 C247 C 0.24992 -0.00031 0.49815
 C248 C 0.74986 0.00018 0.50072
 C249 C 0.49969 0.25030 0.99913
 C250 C 0.50025 0.75038 0.00064
 C251 C 0.99977 0.49869 0.25033
 C252 C 0.00111 0.50024 0.75034
 C253 C 0.08452 0.18201 0.49914
 C254 C 0.10052 0.16773 0.49910
 C255 C 0.11934 0.15036 0.49907
 C256 C 0.13291 0.14667 0.47855
 C257 C 0.15061 0.12917 0.47826
 C258 C 0.15495 0.11512 0.49853
 C259 C 0.14138 0.11917 0.51916
 C260 C 0.12369 0.13666 0.51940
 C261 C 0.17306 0.09588 0.49799
 C262 C 0.18777 0.09160 0.51782
 C263 C 0.20412 0.07283 0.51761
 C264 C 0.20600 0.05814 0.49761
 C265 C 0.19167 0.06243 0.47770
 C266 C 0.17533 0.08118 0.47785
 C267 C 0.22193 0.03810 0.49781
 C268 C 0.23484 0.02095 0.49797
 H269 H 0.12970 0.15719 0.46272
 H270 H 0.16094 0.12668 0.46221
 H271 H 0.14405 0.10844 0.53493
 H272 H 0.11322 0.13930 0.53534
 H273 H 0.18665 0.10277 0.53347
 H274 H 0.21513 0.06965 0.53313
 H275 H 0.19288 0.05107 0.46217
 H276 H 0.16404 0.08379 0.46245
 C277 C 0.68215 0.58444 -0.00007
 C278 C 0.66785 0.60044 -0.00014
 C279 C 0.65047 0.61924 -0.00024
 C280 C 0.63615 0.62285 -0.02029
 C281 C 0.61866 0.64055 -0.02016
 C282 C 0.61525 0.65487 0.00009
 C283 C 0.62992 0.65126 0.02008
 C284 C 0.64741 0.63355 0.01990
 C285 C 0.59604 0.67302 0.00054
 C286 C 0.58199 0.67607 0.02101
 C287 C 0.56329 0.69247 0.02115
 C288 C 0.55842 0.70608 0.00088
 C289 C 0.57247 0.70342 -0.01947
 C290 C 0.59118 0.68701 -0.01965
 C291 C 0.53846 0.72212 0.00074
 C292 C 0.52139 0.73513 0.00067
 H293 H 0.63829 0.61180 -0.03593
 H294 H 0.60745 0.64265 -0.03570
 H295 H 0.62792 0.66218 0.03582
 H296 H 0.65842 0.63092 0.03551
 H297 H 0.58506 0.66534 0.03672
 H298 H 0.55243 0.69429 0.03695
 H299 H 0.56884 0.71387 -0.03525
 H300 H 0.60186 0.68529 -0.03557
 C301 C 0.91513 -0.18228 0.49933
 C302 C 0.89915 -0.16797 0.49950
 C303 C 0.88037 -0.15056 0.49975
 C304 C 0.86636 -0.14694 0.47948
 C305 C 0.84869 -0.12941 0.47946
 C306 C 0.84483 -0.11526 0.49975
 C307 C 0.85884 -0.11925 0.52013
 C308 C 0.87650 -0.13677 0.52010
 C309 C 0.82674 -0.09599 0.49949
 C310 C 0.81248 -0.09161 0.51958
 C311 C 0.79615 -0.07283 0.51961
 C312 C 0.79383 -0.05822 0.49958
 C313 C 0.80771 -0.06262 0.47941
 C314 C 0.82403 -0.08138 0.47933
 C315 C 0.77790 -0.03819 0.49999
 C316 C 0.76498 -0.02105 0.50033
 H317 H 0.86919 -0.15753 0.46364
 H318 H 0.83801 -0.12697 0.46360
 H319 H 0.85655 -0.10844 0.53590
 H320 H 0.88732 -0.13936 0.53585
 H321 H 0.81393 -0.10271 0.53525
 H322 H 0.78549 -0.06957 0.53532
 H323 H 0.80616 -0.05133 0.46386
 H324 H 0.83497 -0.08408 0.46372
 C325 C 0.31775 0.41612 1.00211
 C326 C 0.33202 0.40010 1.00182
 C327 C 0.34938 0.38128 1.00141
 C328 C 0.36294 0.37734 0.98094
 C329 C 0.38040 0.35963 0.98074
 C330 C 0.38455 0.34561 1.00108
 C331 C 0.37063 0.34954 1.02149
 C332 C 0.35317 0.36727 1.02164
 C333 C 0.40376 0.32745 1.00115
 C334 C 0.41856 0.32471 1.02117
 C335 C 0.43726 0.30831 1.02091
 C336 C 0.44140 0.29440 1.00070
 C337 C 0.42659 0.29675 0.98080
 C338 C 0.40788 0.31316 0.98101
 C339 C 0.46137 0.27841 1.00010
 C340 C 0.47848 0.26545 0.99963
 H341 H 0.36023 0.38816 0.96522
 H342 H 0.39103 0.35728 0.96487
 H343 H 0.37321 0.33886 1.03732
 H344 H 0.34275 0.37016 1.03758
 H345 H 0.41607 0.33566 1.03681
 H346 H 0.44871 0.30673 1.03636
 H347 H 0.42964 0.28608 0.96505
 H348 H 0.39661 0.31464 0.96544
 C349 C 0.91564 0.18219 0.50131
 C350 C 0.89962 0.16793 0.50135
 C351 C 0.88078 0.15058 0.50136
 C352 C 0.87541 0.13799 0.48056
 C353 C 0.85771 0.12051 0.48072
 C354 C 0.84515 0.11536 0.50174
 C355 C 0.85050 0.12831 0.52250
 C356 C 0.86821 0.14580 0.52229
 C357 C 0.82704 0.09611 0.50213
 C358 C 0.82570 0.08038 0.52155
 C359 C 0.80932 0.06166 0.52152
 C360 C 0.79403 0.05844 0.50213
 C361 C 0.79498 0.07416 0.48286
 C362 C 0.81137 0.09289 0.48284
 C363 C 0.77801 0.03847 0.50167
 C364 C 0.76504 0.02137 0.50125
 H365 H 0.88511 0.14147 0.46429
 H366 H 0.85426 0.11063 0.46455
 H367 H 0.84096 0.12497 0.53887
 H368 H 0.87221 0.15546 0.53849
 H369 H 0.83773 0.08217 0.53651
 H370 H 0.80882 0.04950 0.53647
 H371 H 0.78322 0.07182 0.46775
 H372 H 0.81176 0.10488 0.46777
 C373 C 0.31796 0.58493 0.00243
 C374 C 0.33227 0.60092 0.00257
 C375 C 0.34969 0.61970 0.00273
 C376 C 0.35119 0.63553 -0.01642
 C377 C 0.36866 0.65324 -0.01663
 C378 C 0.38489 0.65533 0.00235
 C379 C 0.38305 0.63948 0.02164
 C380 C 0.36558 0.62178 0.02180
 C381 C 0.40406 0.67353 0.00179
 C382 C 0.41057 0.68590 0.02257
 C383 C 0.42930 0.70228 0.02220
 C384 C 0.44173 0.70654 0.00108
 C385 C 0.43519 0.69457 -0.01975
 C386 C 0.41647 0.67819 -0.01943
 C387 C 0.46179 0.72244 0.00095
 C388 C 0.47896 0.73532 0.00083
 H389 H 0.33895 0.63408 -0.03127
 H390 H 0.36944 0.66535 -0.03159
 H391 H 0.39548 0.64040 0.03635
 H392 H 0.36464 0.60955 0.03666
 H393 H 0.40117 0.68292 0.03910
 H394 H 0.43423 0.71145 0.03843
 H395 H 0.44480 0.69762 -0.03617
 H396 H 0.41212 0.66873 -0.03564
 C397 C 0.08393 -0.18212 0.49999
 C398 C 0.09995 -0.16784 0.49995
 C399 C 0.11877 -0.15049 0.49991
 C400 C 0.12256 -0.13615 0.51990
 C401 C 0.14028 -0.11869 0.51962
 C402 C 0.15444 -0.11532 0.49927
 C403 C 0.15066 -0.13000 0.47934
 C404 C 0.13293 -0.14747 0.47968
 C405 C 0.17261 -0.09614 0.49866
 C406 C 0.17550 -0.08208 0.47815
 C407 C 0.19191 -0.06340 0.47787
 C408 C 0.20569 -0.05853 0.49804
 C409 C 0.20320 -0.07259 0.51843
 C410 C 0.18678 -0.09129 0.51875
 C411 C 0.22171 -0.03856 0.49808
 C412 C 0.23470 -0.02148 0.49811
 H413 H 0.11163 -0.13827 0.53562
 H414 H 0.14251 -0.10747 0.53511
 H415 H 0.16145 -0.12803 0.46353
 H416 H 0.13016 -0.15849 0.46410
 H417 H 0.16464 -0.08514 0.46252
 H418 H 0.19360 -0.05253 0.46205
 H419 H 0.21378 -0.06896 0.53414
 H420 H 0.18518 -0.10197 0.53469
 C421 C 0.68205 0.41568 0.99813
 C422 C 0.66775 0.39969 0.99811
 C423 C 0.65036 0.38090 0.99813
 C424 C 0.63808 0.37536 1.01904
 C425 C 0.62055 0.35771 1.01893
 C426 C 0.61504 0.34537 0.99784
 C427 C 0.62769 0.35089 0.97697
 C428 C 0.64523 0.36854 0.97713
 C429 C 0.59574 0.32732 0.99751
 C430 C 0.57970 0.32623 0.97830
 C431 C 0.56095 0.30989 0.97839
 C432 C 0.55798 0.29441 0.99765
 C433 C 0.57399 0.29513 1.01672
 C434 C 0.59277 0.31147 1.01666
 C435 C 0.53799 0.27842 0.99817
 C436 C 0.52089 0.26546 0.99861
 H437 H 0.64184 0.38490 1.03537
 H438 H 0.61092 0.35413 1.03520
 H439 H 0.62407 0.34150 0.96054
 H440 H 0.65465 0.37267 0.96085
 H441 H 0.58130 0.33840 0.96346
 H442 H 0.54856 0.30958 0.96361
 H443 H 0.57184 0.28322 1.03172
 H444 H 0.60498 0.31168 1.03158
 C445 C 0.50050 0.08458 1.18104
 C446 C 0.50046 0.10061 1.16680
 C447 C 0.50035 0.11944 1.14946
 C448 C 0.48000 0.12357 1.13569
 C449 C 0.48009 0.14129 1.11825
 C450 C 0.50059 0.15512 1.11431
 C451 C 0.52089 0.15099 1.12842
 C452 C 0.52075 0.13326 1.14587
 C453 C 0.50096 0.17329 1.09513
 C454 C 0.52110 0.17583 1.08049
 C455 C 0.52108 0.19221 1.06178
 C456 C 0.50100 0.20629 1.05747
 C457 C 0.48101 0.20415 1.07212
 C458 C 0.48097 0.18777 1.09084
 C459 C 0.50061 0.22224 1.03746
 C460 C 0.50022 0.23517 1.02034
 H461 H 0.46415 0.11290 1.13825
 H462 H 0.46431 0.14379 1.10747
 H463 H 0.53684 0.16152 1.12600
 H464 H 0.53659 0.13023 1.15644
 H465 H 0.53663 0.16473 1.08311
 H466 H 0.53660 0.19364 1.05046
 H467 H 0.46536 0.21496 1.06893
 H468 H 0.46532 0.18643 1.10197
 C469 C -0.00068 0.68172 0.58412
 C470 C -0.00065 0.66751 0.60017
 C471 C -0.00063 0.65021 0.61904
 C472 C -0.02053 0.63568 0.62259
 C473 C -0.02026 0.61828 0.64035
 C474 C -0.00004 0.61515 0.65480
 C475 C 0.01979 0.63003 0.65126
 C476 C 0.01948 0.64744 0.63349
 C477 C 0.00057 0.59602 0.67302
 C478 C 0.02120 0.58218 0.67623
 C479 C 0.02147 0.56352 0.69266
 C480 C 0.00118 0.55846 0.70614
 C481 C -0.01932 0.57231 0.70333
 C482 C -0.01964 0.59098 0.68689
 C483 C 0.00116 0.53850 0.72215
 C484 C 0.00113 0.52142 0.73514
 H485 H -0.03614 0.63760 0.61142
 H486 H -0.03567 0.60690 0.64239
 H487 H 0.03551 0.62825 0.66228
 H488 H 0.03498 0.65861 0.63091
 H489 H 0.03693 0.58538 0.66560
 H490 H 0.03739 0.55281 0.69459
 H491 H -0.03513 0.56854 0.71367
 H492 H -0.03568 0.60150 0.68504
 C493 C 0.49811 0.91515 -0.18216
 C494 C 0.49810 0.89919 -0.16783
 C495 C 0.49808 0.88045 -0.15039
 C496 C 0.47856 0.87763 -0.13523
 C497 C 0.47882 0.86000 -0.11769
 C498 C 0.49868 0.84496 -0.11505
 C499 C 0.51812 0.84778 -0.13055
 C500 C 0.51781 0.86542 -0.14809
 C501 C 0.49932 0.82687 -0.09580
 C502 C 0.52027 0.82314 -0.08257
 C503 C 0.52061 0.80685 -0.06378
 C504 C 0.50007 0.79405 -0.05799
 C505 C 0.47923 0.79737 -0.07123
 C506 C 0.47884 0.81367 -0.09003
 C507 C 0.50015 0.77821 -0.03788
 C508 C 0.50020 0.76539 -0.02068
 H509 H 0.46324 0.88924 -0.13678
 H510 H 0.46373 0.85852 -0.10584
 H511 H 0.53354 0.83631 -0.12915
 H512 H 0.53301 0.86745 -0.15975
 H513 H 0.53622 0.83325 -0.08634
 H514 H 0.53679 0.80451 -0.05354
 H515 H 0.46323 0.78756 -0.06689
 H516 H 0.46254 0.81593 -0.10006
 C517 C 0.99880 0.31734 0.41673
 C518 C 0.99864 0.33156 0.40066
 C519 C 0.99844 0.34886 0.38179
 C520 C 0.97910 0.36434 0.37929
 C521 C 0.97920 0.38172 0.36151
 C522 C 0.99871 0.38387 0.34598
 C523 C 1.01796 0.36804 0.34849
 C524 C 1.01781 0.35066 0.36628
 C525 C 0.99920 0.40295 0.32771
 C526 C 1.02025 0.41578 0.32335
 C527 C 1.02048 0.43441 0.30688
 C528 C 0.99972 0.44045 0.29452
 C529 C 0.97876 0.42760 0.29847
 C530 C 0.97849 0.40896 0.31494
 C531 C 0.99972 0.46042 0.27850
 C532 C 0.99973 0.47750 0.26552
 H533 H 0.96407 0.36317 0.39128
 H534 H 0.96427 0.39383 0.36027
 H535 H 1.03310 0.36906 0.33664
 H536 H 1.03287 0.33874 0.36805
 H537 H 1.03639 0.41181 0.33311
 H538 H 1.03676 0.44434 0.30406
 H539 H 0.96258 0.43214 0.28900
 H540 H 0.96208 0.39923 0.31768
 C541 C 0.50088 0.91667 0.18216
 C542 C 0.50074 0.90062 0.16793
 C543 C 0.50056 0.88175 0.15062
 C544 C 0.48002 0.87729 0.13725
 C545 C 0.48006 0.85957 0.11980
 C546 C 0.50070 0.84608 0.11546
 C547 C 0.52119 0.85053 0.12918
 C548 C 0.52110 0.86826 0.14664
 C549 C 0.50102 0.82794 0.09625
 C550 C 0.52095 0.82572 0.08128
 C551 C 0.52092 0.80930 0.06261
 C552 C 0.50104 0.79484 0.05866
 C553 C 0.48124 0.79668 0.07361
 C554 C 0.48121 0.81311 0.09230
 C555 C 0.50069 0.77875 0.03876
 C556 C 0.50045 0.76569 0.02174
 H557 H 0.46405 0.88771 0.14011
 H558 H 0.46411 0.85682 0.10932
 H559 H 0.53726 0.84026 0.12646
 H560 H 0.53710 0.87155 0.15690
 H561 H 0.53632 0.83709 0.08363
 H562 H 0.53629 0.80811 0.05105
 H563 H 0.46575 0.78557 0.07071
 H564 H 0.46573 0.81419 0.10368
 C565 C 0.00178 0.31832 0.58459
 C566 C 0.00201 0.33257 0.60061
 C567 C 0.00230 0.34992 0.61944
 C568 C 0.02148 0.36566 0.62158
 C569 C 0.02146 0.38309 0.63931
 C570 C 0.00219 0.38503 0.65515
 C571 C -0.01690 0.36896 0.65301
 C572 C -0.01683 0.35152 0.63526
 C573 C 0.00175 0.40417 0.67337
 C574 C -0.01940 0.41674 0.67803
 C575 C -0.01960 0.43544 0.69442
 C576 C 0.00129 0.44180 0.70642
 C577 C 0.02234 0.42921 0.70218
 C578 C 0.02258 0.41050 0.68578
 C579 C 0.00128 0.46184 0.72235
 C580 C 0.00123 0.47898 0.73526
 H581 H 0.03634 0.36464 0.60935
 H582 H 0.03625 0.39539 0.64027
 H583 H -0.03185 0.36982 0.66511
 H584 H -0.03176 0.33941 0.63378
 H585 H -0.03564 0.41253 0.66854
 H586 H -0.03596 0.44517 0.69747
 H587 H 0.03861 0.43399 0.71137
 H588 H 0.03906 0.40098 0.68280
 C589 C 0.49939 0.08400 0.81771
 C590 C 0.49940 0.10006 0.83192
 C591 C 0.49945 0.11895 0.84921
 C592 C 0.47896 0.13263 0.85283
 C593 C 0.47876 0.15041 0.87023
 C594 C 0.49908 0.15473 0.88425
 C595 C 0.51966 0.14104 0.88027
 C596 C 0.51982 0.12327 0.86288
 C597 C 0.49864 0.17296 0.90338
 C598 C 0.51854 0.18760 0.90755
 C599 C 0.51844 0.20406 0.92620
 C600 C 0.49848 0.20611 0.94091
 C601 C 0.47849 0.19187 0.93672
 C602 C 0.47854 0.17541 0.91807
 C603 C 0.49882 0.22214 0.96086
 C604 C 0.49918 0.23512 0.97794
 H605 H 0.46310 0.12945 0.84232
 H606 H 0.46274 0.16083 0.87267
 H607 H 0.53547 0.14369 0.89099
 H608 H 0.53573 0.11270 0.86030
 H609 H 0.53416 0.18634 0.89637
 H610 H 0.53402 0.21500 0.92931
 H611 H 0.46300 0.19321 0.94809
 H612 H 0.46308 0.16419 0.91554
 C613 C 1.00033 0.68137 0.41529
 C614 C 1.00042 0.66705 0.39932
 C615 C 1.00056 0.64962 0.38057
 C616 C 1.02049 0.63506 0.37732
 C617 C 1.02037 0.61752 0.35969
 C618 C 1.00027 0.61428 0.34509
 C619 C 0.98042 0.62920 0.34833
 C620 C 0.98058 0.64674 0.36597
 C621 C 0.99981 0.59500 0.32702
 C622 C 0.97920 0.58114 0.32374
 C623 C 0.97906 0.56235 0.30745
 C624 C 0.99946 0.55717 0.29419
 C625 C 1.01995 0.57103 0.29707
 C626 C 1.02014 0.58983 0.31337
 C627 C 0.99960 0.53710 0.27831
 C628 C 0.99969 0.51994 0.26543
 H629 H 1.03601 0.63706 0.38860
 H630 H 1.03579 0.60611 0.35787
 H631 H 0.96480 0.62733 0.33719
 H632 H 0.96507 0.65794 0.36833
 H633 H 0.96339 0.58445 0.33420
 H634 H 0.96315 0.55164 0.30546
 H635 H 1.03585 0.56717 0.28689
 H636 H 1.03618 0.60035 0.31527
 C637 C 1.18244 0.50079 0.08566
 C638 C 1.16815 0.50072 0.10164
 C639 C 1.15074 0.50066 0.12039
 C640 C 1.14776 0.48046 0.13463
 C641 C 1.13022 0.48011 0.15225
 C642 C 1.11542 0.49999 0.15584
 C643 C 1.11877 0.52031 0.14160
 C644 C 1.13630 0.52061 0.12399
 C645 C 1.09615 0.49934 0.17387
 C646 C 1.09110 0.51947 0.18788
 C647 C 1.07229 0.51912 0.20414
 C648 C 1.05831 0.49867 0.20663
 C649 C 1.06338 0.47846 0.19301
 C650 C 1.08218 0.47876 0.17676
 C651 C 1.03823 0.49867 0.22246
 C652 C 1.02105 0.49868 0.23530
 H653 H 1.15886 0.46492 0.13200
 H654 H 1.12828 0.46431 0.16310
 H655 H 1.10746 0.53576 0.14369
 H656 H 1.13838 0.53630 0.11299
 H657 H 1.10170 0.53548 0.18628
 H658 H 1.06851 0.53487 0.21459
 H659 H 1.05258 0.46257 0.19470
 H660 H 1.08539 0.46309 0.16602
 C661 C 0.58359 -0.00088 0.68196
 C662 C 0.59963 -0.00077 0.66775
 C663 C 0.61849 -0.00062 0.65046
 C664 C 0.62289 0.01988 0.63706
 C665 C 0.64063 0.01983 0.61966
 C666 C 0.65420 -0.00078 0.61540
 C667 C 0.64980 -0.02123 0.62916
 C668 C 0.63206 -0.02114 0.64657
 C669 C 0.67240 -0.00110 0.59627
 C670 C 0.67474 -0.02106 0.58134
 C671 C 0.69119 -0.02100 0.56271
 C672 C 0.70554 -0.00105 0.55877
 C673 C 0.70359 0.01878 0.57370
 C674 C 0.68714 0.01877 0.59234
 C675 C 0.72160 -0.00063 0.53887
 C676 C 0.73462 -0.00026 0.52184
 H677 H 0.61242 0.03582 0.63985
 H678 H 0.64335 0.03574 0.60915
 H679 H 0.66014 -0.03728 0.62651
 H680 H 0.62880 -0.03710 0.65686
 H681 H 0.66344 -0.03648 0.58368
 H682 H 0.69246 -0.03639 0.55117
 H683 H 0.71462 0.03432 0.57080
 H684 H 0.68597 0.03428 0.60370
 C685 C -0.18152 0.50118 0.91502
 C686 C -0.16722 0.50131 0.89905
 C687 C -0.14982 0.50148 0.88031
 C688 C -0.14752 0.48183 0.86519
 C689 C -0.13000 0.48166 0.84755
 C690 C -0.11454 0.50117 0.84481
 C691 C -0.11720 0.52095 0.85993
 C692 C -0.13471 0.52107 0.87756
 C693 C -0.09530 0.50066 0.82674
 C694 C -0.08958 0.52121 0.81362
 C695 C -0.07078 0.52095 0.79735
 C696 C -0.05749 0.50017 0.79396
 C697 C -0.06324 0.47956 0.80667
 C698 C -0.08202 0.47977 0.82294
 C699 C -0.03739 0.50021 0.77815
 C700 C -0.02019 0.50023 0.76534
 H701 H -0.15914 0.46658 0.86715
 H702 H -0.12859 0.46630 0.83600
 H703 H -0.10537 0.53609 0.85851
 H704 H -0.13626 0.53633 0.88924
 H705 H -0.09964 0.53747 0.81593
 H706 H -0.06647 0.53701 0.78760
 H707 H -0.05297 0.46342 0.80428
 H708 H -0.08576 0.46377 0.83298
 C709 C 0.41636 0.00020 0.31708
 C710 C 0.40031 0.00031 0.33128
 C711 C 0.38143 0.00042 0.34854
 C712 C 0.36714 -0.01974 0.35159
 C713 C 0.34937 -0.01992 0.36897
 C714 C 0.34568 0.00010 0.38356
 C715 C 0.35997 0.02038 0.38015
 C716 C 0.37773 0.02051 0.36277
 C717 C 0.32746 -0.00037 0.40267
 C718 C 0.31341 0.01982 0.40741
 C719 C 0.29695 0.01963 0.42604
 C720 C 0.29431 -0.00071 0.44014
 C721 C 0.30797 -0.02097 0.43539
 C722 C 0.32443 -0.02083 0.41678
 C723 C 0.27824 -0.00055 0.46004
 C724 C 0.26520 -0.00044 0.47706
 H725 H 0.36985 -0.03538 0.34065
 H726 H 0.33848 -0.03569 0.37097
 H727 H 0.35780 0.03593 0.39130
 H728 H 0.38876 0.03617 0.36064
 H729 H 0.31513 0.03573 0.39669
 H730 H 0.28646 0.03541 0.42957
 H731 H 0.30616 -0.03676 0.44630
 H732 H 0.33519 -0.03652 0.41381
 C733 C 0.18179 0.50012 0.91773
 C734 C 0.16763 0.50001 0.90160
 C735 C 0.15041 0.49983 0.88263
 C736 C 0.14787 0.51968 0.86782
 C737 C 0.13055 0.51979 0.84992
 C738 C 0.11554 0.50001 0.84663
 C739 C 0.11843 0.48004 0.86146
 C740 C 0.13574 0.47998 0.87934
 C741 C 0.09652 0.50041 0.82826
 C742 C 0.09140 0.47997 0.81472
 C743 C 0.07282 0.48011 0.79814
 C744 C 0.05915 0.50066 0.79487
 C745 C 0.06430 0.52117 0.80801
 C746 C 0.08286 0.52108 0.82458
 C747 C 0.03926 0.50048 0.77873
 C748 C 0.02224 0.50035 0.76564
 H749 H 0.15915 0.53513 0.87020
 H750 H 0.12896 0.53531 0.83862
 H751 H 0.10694 0.46468 0.85961
 H752 H 0.13748 0.46456 0.89078
 H753 H 0.10178 0.46388 0.81693
 H754 H 0.06898 0.46413 0.78806
 H755 H 0.05372 0.53714 0.80572
 H756 H 0.08613 0.53699 0.83495
 C757 C 0.58521 0.00060 0.31755
 C758 C 0.60117 0.00056 0.33189
 C759 C 0.61992 0.00052 0.34935
 C760 C 0.63292 0.02129 0.35382
 C761 C 0.65051 0.02149 0.37143
 C762 C 0.65532 0.00088 0.38483
 C763 C 0.64234 -0.01999 0.37999
 C764 C 0.62476 -0.02014 0.36238
 C765 C 0.67331 0.00130 0.40421
 C766 C 0.68854 -0.01824 0.40795
 C767 C 0.70479 -0.01818 0.42681
 C768 C 0.70605 0.00139 0.44216
 C769 C 0.69120 0.02102 0.43842
 C770 C 0.67495 0.02101 0.41957
 C771 C 0.72192 0.00100 0.46225
 C772 C 0.73479 0.00065 0.47944
 H773 H 0.62933 0.03738 0.34382
 H774 H 0.66039 0.03774 0.37454
 H775 H 0.64538 -0.03604 0.39021
 H776 H 0.61472 -0.03629 0.35915
 H777 H 0.68790 -0.03355 0.39627
 H778 H 0.71620 -0.03348 0.42955
 H779 H 0.69193 0.03620 0.45028
 H780 H 0.66326 0.03617 0.41738
 C781 C 0.81823 0.49854 0.08386
 C782 C 0.83246 0.49831 0.09993
 C783 C 0.84978 0.49801 0.11880
 C784 C 0.85174 0.51737 0.13433
 C785 C 0.86916 0.51742 0.15212
 C786 C 0.88486 0.49806 0.15459
 C787 C 0.88255 0.47856 0.13905
 C788 C 0.86514 0.47856 0.12127
 C789 C 0.90399 0.49844 0.17285
 C790 C 0.90990 0.47770 0.18560
 C791 C 0.92858 0.47788 0.20206
 C792 C 0.94156 0.49876 0.20602
 C793 C 0.93563 0.51955 0.19367
 C794 C 0.91696 0.51942 0.17721
 C795 C 0.96153 0.49868 0.22206
 C796 C 0.97861 0.49865 0.23507
 H797 H 0.83992 0.53251 0.13258
 H798 H 0.87030 0.53255 0.16398
 H799 H 0.89457 0.46355 0.14027
 H800 H 0.86385 0.46353 0.10927
 H801 H 0.90007 0.46136 0.18285
 H802 H 0.93303 0.46169 0.21153
 H803 H 0.94566 0.53577 0.19650
 H804 H 0.91308 0.53558 0.16746
 C805 C 0.41478 0.00047 0.68113
 C806 C 0.39882 0.00059 0.66677
 C807 C 0.38008 0.00077 0.64931
 C808 C 0.37734 0.02038 0.63422
 C809 C 0.35971 0.02028 0.61666
 C810 C 0.34458 0.00051 0.61393
 C811 C 0.34731 -0.01903 0.62936
 C812 C 0.36496 -0.01888 0.64693
 C813 C 0.32648 0.00003 0.59465
 C814 C 0.32266 -0.02084 0.58134
 C815 C 0.30637 -0.02102 0.56253
 C816 C 0.29365 -0.00040 0.55679
 C817 C 0.29707 0.02036 0.57011
 C818 C 0.31336 0.02060 0.58893
 C819 C 0.27780 -0.00033 0.53668
 C820 C 0.26495 -0.00030 0.51947
 H821 H 0.38902 0.03564 0.63583
 H822 H 0.35828 0.03544 0.60485
 H823 H 0.33577 -0.03438 0.62790
 H824 H 0.36692 -0.03414 0.65854
 H825 H 0.33271 -0.03685 0.58508
 H826 H 0.30396 -0.03715 0.55224
 H827 H 0.28731 0.03643 0.56580
 H828 H 0.31569 0.03684 0.59902
   
