data_POSCAR
  _audit_creation_date              2014-09-24
  _audit_creation_method            'ToBaCCo'
  _symmetry_space_group_name_H-M    'P1'
  _symmetry_Int_Tables_number       1
  _symmetry_cell_setting            triclinic
  loop_
  _symmetry_equiv_pos_as_xyz
 x,y,z
_cell_length_a 32.4851
_cell_length_b 41.4145
_cell_length_c 29.8872
_cell_angle_alpha 89.123900
_cell_angle_beta 90.323000
_cell_angle_gamma 88.523800
loop_
  _atom_site_label
  _atom_site_type_symbol
  _atom_site_fract_x
  _atom_site_fract_y
  _atom_site_fract_z
C1 C 1.25606 0.23991 0.24434
 C2 C 0.73084 -0.24180 0.24312
 C3 C 0.75615 0.25949 -0.27511
 C4 C 1.23289 -0.25943 -0.24761
 C5 C 0.24023 0.26228 0.76397
 C6 C 0.76787 0.73774 0.75667
 C7 C 0.74806 0.23794 0.28096
 C8 C 0.26837 0.75960 0.23988
 N9 N 1.05502 0.03907 0.05022
 N10 N 1.08017 0.06214 0.06140
 N11 N 1.02619 -0.02911 0.08106
 N12 N 1.03008 -0.05176 0.11255
 N13 N 1.05919 -0.02870 0.05582
 N14 N 1.08622 -0.05120 0.06926
 N15 N 1.02281 0.03886 0.07665
 N16 N 1.02527 0.06195 0.10653
 C17 C 1.06104 0.07640 0.09627
 C18 C 1.06758 -0.06545 0.10456
 N19 N 0.91433 -0.03072 0.02879
 N20 N 0.88602 -0.05271 0.03206
 N21 N 0.93499 0.03758 0.06077
 N22 N 0.92189 0.06043 0.08792
 N23 N 0.91159 0.03688 0.02481
 N24 N 0.88179 0.05914 0.02671
 N25 N 0.93743 -0.03048 0.06502
 N26 N 0.92494 -0.05250 0.09427
 Mn27 Mn 0.98029 0.00411 0.07150
 C28 C 0.89304 -0.06628 0.07269
 C29 C 0.88889 0.07383 0.06606
 N30 N 1.07324 -0.03140 -0.03888
 N31 N 1.10102 -0.05520 -0.03788
 N32 N 1.04513 0.03395 -0.08067
 N33 N 1.05215 0.05660 -0.11061
 N34 N 1.06905 0.03668 -0.04549
 N35 N 1.09352 0.06160 -0.05089
 N36 N 1.04912 -0.03357 -0.07400
 N37 N 1.05982 -0.05891 -0.09798
 Mn38 Mn 1.06464 0.00406 0.00552
 C39 C 1.09220 -0.07214 -0.07487
 C40 C 1.08219 0.07366 -0.09186
 N41 N 0.92630 0.03437 -0.07034
 N42 N 0.90114 0.05839 -0.08297
 N43 N 0.96204 -0.03453 -0.09005
 N44 N 0.96101 -0.05828 -0.11876
 N45 N 0.92876 -0.03366 -0.06542
 N46 N 0.90414 -0.05720 -0.07649
 N47 N 0.95876 0.03295 -0.09621
 N48 N 0.95670 0.05595 -0.12718
 Mn49 Mn 0.91984 0.00182 -0.02062
 Mn50 Mn 1.00386 -0.00044 -0.08554
 Cl51 Cl 0.99215 0.00240 -0.00711
 C52 C 0.92070 0.07160 -0.11843
 C53 C 0.92499 -0.07235 -0.10965
 N54 N 1.06786 0.54528 0.51747
 N55 N 1.08944 0.57100 0.52637
 N56 N 1.04913 0.47450 0.54822
 N57 N 1.05766 0.45105 0.57773
 N58 N 1.08000 0.47804 0.52050
 N59 N 1.11010 0.45714 0.53008
 N60 N 1.03748 0.54234 0.54596
 N61 N 1.03704 0.56641 0.57444
 C62 C 1.06963 0.58402 0.56180
 C63 C 1.09584 0.44046 0.56563
 N64 N 0.93487 0.46648 0.50448
 N65 N 0.91072 0.44163 0.50764
 N66 N 0.95047 0.53528 0.53683
 N67 N 0.93825 0.55815 0.56435
 N68 N 0.92540 0.53393 0.50236
 N69 N 0.89505 0.55557 0.50577
 N70 N 0.96013 0.46740 0.53886
 N71 N 0.95310 0.44313 0.56705
 Mn72 Mn 0.99932 0.50466 0.54314
 C73 C 0.92228 0.42724 0.54651
 C74 C 0.90374 0.57064 0.54443
 N75 N 1.08837 0.47721 0.42544
 N76 N 1.11887 0.45569 0.42468
 N77 N 1.05140 0.54053 0.38638
 N78 N 1.05676 0.56300 0.35542
 N79 N 1.07628 0.54457 0.42054
 N80 N 1.09962 0.56984 0.41340
 N81 N 1.06270 0.47299 0.39205
 N82 N 1.07525 0.44839 0.36746
 Mn83 Mn 1.07850 0.51153 0.47104
 C84 C 1.11035 0.43794 0.38849
 C85 C 1.08669 0.58119 0.37271
 N86 N 0.93410 0.53306 0.40623
 N87 N 0.90636 0.55600 0.39688
 N88 N 0.97425 0.46595 0.38242
 N89 N 0.97300 0.44114 0.35508
 N90 N 0.94307 0.46550 0.41011
 N91 N 0.92012 0.44034 0.40292
 N92 N 0.96438 0.53364 0.37737
 N93 N 0.95819 0.55714 0.34760
 Mn94 Mn 0.93401 0.49993 0.45574
 Mn95 Mn 1.01328 0.50305 0.38400
 Cl96 Cl 1.00632 0.50479 0.46352
 C97 C 0.92190 0.57078 0.36025
 C98 C 0.93912 0.42528 0.36866
 N99 N 0.56742 0.03058 0.58153
 N100 N 0.59256 0.05513 0.58355
 N101 N 0.53801 -0.03474 0.62259
 N102 N 0.54299 -0.05737 0.65389
 N103 N 0.56697 -0.03724 0.59232
 N104 N 0.59221 -0.06191 0.60187
 N105 N 0.53906 0.03286 0.61250
 N106 N 0.54393 0.05902 0.63632
 C107 C 0.57735 0.07261 0.61797
 C108 C 0.57683 -0.07417 0.64039
 N109 N 0.41995 -0.03245 0.59105
 N110 N 0.39450 -0.05612 0.59968
 N111 N 0.45120 0.03562 0.61198
 N112 N 0.44634 0.06047 0.63847
 N113 N 0.42226 0.03562 0.58110
 N114 N 0.39653 0.06070 0.58623
 N115 N 0.44904 -0.03177 0.62172
 N116 N 0.44396 -0.05467 0.65222
 Mn117 Mn 0.49431 0.00038 0.61761
 C118 C 0.40987 -0.06963 0.63807
 C119 C 0.41243 0.07602 0.62214
 N120 N 0.56717 -0.04412 0.49736
 N121 N 0.59558 -0.06714 0.49322
 N122 N 0.53914 0.02084 0.45433
 N123 N 0.54503 0.04170 0.42140
 N124 N 0.56750 0.02340 0.48545
 N125 N 0.59363 0.04615 0.47440
 N126 N 0.53844 -0.04653 0.46660
 N127 N 0.54689 -0.07114 0.44025
 Mn128 Mn 0.56774 -0.00672 0.53919
 C129 C 0.58238 -0.08393 0.45781
 C130 C 0.57895 0.05737 0.43435
 N131 N 0.42243 0.02831 0.48386
 N132 N 0.39702 0.05234 0.47129
 N133 N 0.44889 -0.04360 0.46546
 N134 N 0.43974 -0.06721 0.43814
 N135 N 0.41960 -0.03929 0.49513
 N136 N 0.38996 -0.06005 0.48889
 N137 N 0.45107 0.02365 0.45357
 N138 N 0.44624 0.04432 0.42000
 Mn139 Mn 0.42045 -0.00175 0.53780
 Mn140 Mn 0.49437 -0.01163 0.45964
 Cl141 Cl 0.49413 -0.00495 0.53851
 C142 C 0.41269 0.06209 0.43141
 C143 C 0.40313 -0.07751 0.45356
 N144 N 0.57633 0.52783 0.06576
 N145 N 0.59723 0.55382 0.07508
 N146 N 0.55255 0.45559 0.08440
 N147 N 0.56047 0.42948 0.10950
 N148 N 0.58292 0.46053 0.05648
 N149 N 0.61184 0.43787 0.06123
 N150 N 0.54721 0.52325 0.09534
 N151 N 0.54741 0.54622 0.12550
 C152 C 0.57888 0.56494 0.11253
 C153 C 0.59757 0.41866 0.09419
 N154 N 0.43531 0.45884 0.04461
 N155 N 0.40830 0.43571 0.04501
 N156 N 0.45937 0.52185 0.08869
 N157 N 0.45252 0.54309 0.12028
 N158 N 0.43335 0.52653 0.05522
 N159 N 0.40792 0.55129 0.06346
 N160 N 0.46231 0.45454 0.07725
 N161 N 0.45371 0.42841 0.10128
 Mn162 Mn 0.50535 0.48842 0.08700
 C163 C 0.42001 0.41688 0.08024
 C164 C 0.42050 0.56127 0.10437
 N165 N 0.58845 0.46834 -0.03785
 N166 N 0.61821 0.44685 -0.04456
 N167 N 0.55552 0.53616 -0.06381
 N168 N 0.55867 0.56250 -0.08849
 N169 N 0.58209 0.53578 -0.03059
 N170 N 0.60502 0.56173 -0.03250
 N171 N 0.56154 0.46853 -0.07075
 N172 N 0.57261 0.44718 -0.10123
 Mn173 Mn 0.58283 0.49838 0.01359
 C174 C 0.60795 0.43378 -0.08397
 C175 C 0.58961 0.57811 -0.06884
 N176 N 0.43872 0.53411 -0.04219
 N177 N 0.41131 0.55765 -0.05082
 N178 N 0.47243 0.46753 -0.07799
 N179 N 0.46901 0.44608 -0.10987
 N180 N 0.44110 0.46633 -0.05047
 N181 N 0.41569 0.44364 -0.06266
 N182 N 0.46882 0.53493 -0.07128
 N183 N 0.46320 0.55912 -0.09990
 Mn184 Mn 0.43655 0.49673 0.00186
 Mn185 Mn 0.51464 0.50152 -0.07136
 Cl186 Cl 0.50975 0.49620 0.00783
 C187 C 0.42750 0.57319 -0.08673
 C188 C 0.43364 0.43122 -0.09970
 C189 C 1.23507 0.21837 0.21086
 C190 C 1.19909 0.20243 0.22237
 C191 C 1.17753 0.18060 0.19242
 N192 N 1.14151 0.16778 0.20578
 N193 N 1.12159 0.14752 0.17969
 C194 C 1.13700 0.13929 0.13919
 N195 N 1.17302 0.15215 0.12576
 N196 N 1.19292 0.17250 0.15185
 C197 C 1.11619 0.11594 0.11077
 C198 C 1.07870 0.10250 0.12241
 H199 H 1.18592 0.20632 0.25515
 H200 H 1.13152 0.10839 0.08044
 H201 H 1.24904 0.21418 0.17856
 H202 H 1.06266 0.11036 0.15214
 C203 C 1.21365 0.71560 0.72254
 C204 C 1.18201 0.72236 0.69169
 C205 C 1.16687 0.69703 0.66238
 N206 N 1.12688 0.69735 0.64896
 N207 N 1.11277 0.67379 0.62358
 C208 C 1.13836 0.64937 0.61021
 N209 N 1.17850 0.64943 0.62289
 N210 N 1.19244 0.67270 0.64875
 C211 C 1.12334 0.62287 0.58297
 C212 C 1.08283 0.61288 0.58529
 H213 H 1.16712 0.74602 0.69003
 H214 H 1.14562 0.60891 0.56396
 H215 H 1.22718 0.69136 0.72287
 H216 H 1.06135 0.62476 0.60765
 C217 C 0.73425 0.23877 0.69109
 C218 C 0.69817 0.22327 0.70322
 C219 C 0.67974 0.19709 0.67809
 N220 N 0.64458 0.18420 0.69361
 N221 N 0.62824 0.15905 0.67365
 C222 C 0.64649 0.14566 0.63740
 N223 N 0.68159 0.15871 0.62151
 N224 N 0.69799 0.18399 0.64153
 C225 C 0.62927 0.11679 0.61683
 C226 C 0.59441 0.10258 0.63466
 H227 H 0.68380 0.22930 0.73476
 H228 H 0.64476 0.10609 0.58847
 H229 H 0.74980 0.23206 0.66049
 H230 H 0.57904 0.11345 0.66296
 C231 C 0.70893 0.73953 0.20706
 C232 C 0.67552 0.72044 0.21840
 C233 C 0.66012 0.69445 0.19051
 N234 N 0.62887 0.67639 0.20603
 N235 N 0.61605 0.65116 0.18325
 C236 C 0.63412 0.64293 0.14408
 N237 N 0.66520 0.66115 0.12828
 N238 N 0.67806 0.68646 0.15112
 C239 C 0.62131 0.61423 0.11971
 C240 C 0.59064 0.59425 0.13588
 H241 H 0.66216 0.72274 0.25136
 H242 H 0.63691 0.60835 0.08883
 H243 H 0.72350 0.73652 0.17481
 H244 H 0.57466 0.60015 0.16650
 C245 C 0.76250 -0.21924 0.22397
 C246 C 0.75393 -0.19702 0.18955
 C247 C 0.78446 -0.17340 0.17508
 N248 N 0.77703 -0.15474 0.13816
 N249 N 0.80441 -0.13337 0.12462
 C250 C 0.84023 -0.12969 0.14754
 N251 N 0.84754 -0.14816 0.18473
 N252 N 0.82019 -0.16966 0.19818
 C253 C 0.87060 -0.10610 0.13225
 C254 C 0.86607 -0.09114 0.09053
 H255 H 0.72425 -0.19702 0.17285
 H256 H 0.89659 -0.10075 0.15350
 H257 H 0.79204 -0.21818 0.24092
 H258 H 0.84067 -0.09765 0.06913
 C259 C 0.79072 0.27837 0.70407
 C260 C 0.78563 0.29710 0.66531
 C261 C 0.81734 0.31941 0.65003
 N262 N 0.81324 0.33421 0.60950
 N263 N 0.84096 0.35517 0.59564
 C264 C 0.87380 0.36232 0.62177
 N265 N 0.87787 0.34759 0.66246
 N266 N 0.85019 0.32644 0.67627
 C267 C 0.90341 0.38661 0.60675
 C268 C 0.90089 0.39886 0.56326
 H269 H 0.75732 0.29585 0.64617
 H270 H 0.92556 0.39587 0.63019
 H271 H 0.81894 0.28057 0.72323
 H272 H 0.87895 0.38878 0.54026
 C273 C 0.25882 -0.23731 0.72360
 C274 C 0.28985 -0.21834 0.74109
 C275 C 0.30887 -0.19222 0.71507
 N276 N 0.33928 -0.17498 0.73377
 N277 N 0.35580 -0.15047 0.71144
 C278 C 0.34241 -0.14216 0.66958
 N279 N 0.31202 -0.15943 0.65082
 N280 N 0.29556 -0.18401 0.67313
 C281 C 0.35981 -0.11465 0.64490
 C282 C 0.39246 -0.09735 0.66196
 H283 H 0.29956 -0.22190 0.77555
 H284 H 0.34670 -0.10793 0.61258
 H285 H 0.24912 -0.23289 0.68923
 H286 H 0.40628 -0.10450 0.69377
 C287 C 0.29216 0.25727 0.22357
 C288 C 0.28776 0.27675 0.18524
 C289 C 0.31940 0.29951 0.17075
 N290 N 0.31313 0.31744 0.13290
 N291 N 0.34012 0.33943 0.12038
 C292 C 0.37444 0.34452 0.14524
 N293 N 0.38087 0.32646 0.18307
 N294 N 0.35386 0.30436 0.19558
 C295 C 0.40330 0.37006 0.13232
 C296 C 0.39637 0.38856 0.09357
 H297 H 0.25903 0.27668 0.16667
 H298 H 0.42902 0.37513 0.15410
 H299 H 0.32069 0.25814 0.24247
 H300 H 0.37059 0.38306 0.07210
 C301 C 0.77397 0.23657 -0.23950
 C302 C 0.80613 0.21503 -0.24989
 C303 C 0.82244 0.19011 -0.21885
 N304 N 0.85562 0.17192 -0.23109
 N305 N 0.87066 0.14859 -0.20416
 C306 C 0.85298 0.14249 -0.16398
 N307 N 0.81969 0.16067 -0.15166
 N308 N 0.80468 0.18414 -0.17861
 C309 C 0.86905 0.11622 -0.13470
 C310 C 0.90495 0.09902 -0.14542
 H311 H 0.81980 0.21631 -0.28285
 H312 H 0.85234 0.11018 -0.10457
 H313 H 0.75928 0.23484 -0.20711
 H314 H 0.92229 0.10568 -0.17484
 C315 C 0.75266 0.73327 0.27316
 C316 C 0.78537 0.71454 0.25669
 C317 C 0.80626 0.68863 0.28253
 N318 N 0.83938 0.67312 0.26468
 N319 N 0.85870 0.64919 0.28710
 C320 C 0.84551 0.63984 0.32819
 N321 N 0.81232 0.65532 0.34609
 N322 N 0.79302 0.67936 0.32367
 C323 C 0.86627 0.61310 0.35275
 C324 C 0.90198 0.59819 0.33664
 H325 H 0.79611 0.71910 0.22297
 H326 H 0.85313 0.60497 0.38406
 H327 H 0.74086 0.72820 0.30631
 H328 H 0.91588 0.60677 0.30598
 C329 C 0.27120 0.21871 0.28330
 C330 C 0.30188 0.19504 0.27718
 C331 C 0.31656 0.17259 0.31265
 N332 N 0.34845 0.15202 0.30389
 N333 N 0.36239 0.13116 0.33500
 C334 C 0.34498 0.12992 0.37617
 N335 N 0.31288 0.15047 0.38502
 N336 N 0.29893 0.17149 0.35381
 C337 C 0.36058 0.10640 0.41023
 C338 C 0.39570 0.08758 0.40163
 H339 H 0.31594 0.19291 0.24453
 H340 H 0.34445 0.10371 0.44163
 H341 H 0.25638 0.22063 0.31559
 H342 H 0.41193 0.09114 0.37046
 C343 C 0.25795 0.72195 -0.21206
 C344 C 0.29497 0.70570 -0.22137
 C345 C 0.31495 0.68305 -0.18907
 N346 N 0.35172 0.66890 -0.19921
 N347 N 0.36951 0.64738 -0.17125
 C348 C 0.35119 0.63906 -0.13210
 N349 N 0.31442 0.65327 -0.12186
 N350 N 0.29665 0.67491 -0.14981
 C351 C 0.37012 0.61422 -0.10203
 C352 C 0.40854 0.60053 -0.11166
 H353 H 0.30891 0.70878 -0.25394
 H354 H 0.35325 0.60597 -0.07305
 H355 H 0.24377 0.71764 -0.17983
 H356 H 0.42537 0.60933 -0.14035
 C357 C 1.20016 -0.23869 -0.22476
 C358 C 1.21024 -0.21827 -0.18980
 C359 C 1.18158 -0.19375 -0.17207
 N360 N 1.19335 -0.17593 -0.13679
 N361 N 1.16886 -0.15240 -0.12146
 C362 C 1.13171 -0.14572 -0.14097
 N363 N 1.11982 -0.16362 -0.17621
 N364 N 1.14431 -0.18726 -0.19149
 C365 C 1.10537 -0.11879 -0.12549
 C366 C 1.11615 -0.10075 -0.08849
 H367 H 1.24099 -0.21951 -0.17566
 H368 H 1.07751 -0.11261 -0.14414
 H369 H 1.16914 -0.23723 -0.23812
 H370 H 1.14339 -0.10740 -0.06906
 C371 C 1.22537 0.26540 0.26014
 C372 C 1.23481 0.28712 0.29359
 C373 C 1.20647 0.31378 0.30550
 N374 N 1.21682 0.33403 0.33866
 N375 N 1.19172 0.35854 0.34951
 C376 C 1.15536 0.36378 0.32755
 N377 N 1.14500 0.34354 0.29432
 N378 N 1.17011 0.31897 0.28350
 C379 C 1.12758 0.39088 0.33942
 C380 C 1.13691 0.41081 0.37486
 H381 H 1.26418 0.28482 0.31085
 H382 H 1.09940 0.39501 0.32040
 H383 H 1.19641 0.26864 0.24222
 H384 H 1.16480 0.40626 0.39422
 C385 C 0.69983 -0.22158 0.26892
 C386 C 0.70938 -0.20711 0.30933
 C387 C 0.67950 -0.18625 0.33265
 N388 N 0.68959 -0.17362 0.37269
 N389 N 0.66306 -0.15427 0.39389
 C390 C 0.62544 -0.14686 0.37587
 N391 N 0.61528 -0.15957 0.33588
 N392 N 0.64180 -0.17898 0.31470
 C393 C 0.59675 -0.12429 0.39802
 C394 C 0.60678 -0.11045 0.43861
 H395 H 0.73959 -0.21119 0.32418
 H396 H 0.56833 -0.11718 0.38101
 H397 H 0.67016 -0.21604 0.25345
 H398 H 0.63512 -0.11766 0.45568
 C399 C 0.72591 0.28372 -0.25520
 C400 C 0.73554 0.30204 -0.21805
 C401 C 0.70661 0.32626 -0.19990
 N402 N 0.71661 0.34194 -0.16208
 N403 N 0.69070 0.36377 -0.14487
 C404 C 0.65379 0.37082 -0.16482
 N405 N 0.64381 0.35524 -0.20282
 N406 N 0.66974 0.33331 -0.22001
 C407 C 0.62513 0.39493 -0.14562
 C408 C 0.63403 0.40900 -0.10488
 H409 H 0.76506 0.29821 -0.20151
 H410 H 0.59696 0.40155 -0.16343
 H411 H 0.69703 0.28879 -0.27260
 H412 H 0.66193 0.40177 -0.08698
 C413 C 1.22068 0.23886 -0.20353
 C414 C 1.19094 0.21729 -0.21658
 C415 C 1.17560 0.19243 -0.18580
 N416 N 1.14558 0.17283 -0.19973
 N417 N 1.13165 0.14986 -0.17265
 C418 C 1.14718 0.14548 -0.13060
 N419 N 1.17734 0.16506 -0.11660
 N420 N 1.19126 0.18815 -0.14373
 C421 C 1.13172 0.11964 -0.10113
 C422 C 1.09923 0.10127 -0.11572
 H423 H 1.17916 0.21836 -0.25057
 H424 H 1.14592 0.11485 -0.06876
 H425 H 1.23282 0.23679 -0.16968
 H426 H 1.08522 0.10683 -0.14799
 C427 C 1.24396 0.73999 0.26986
 C428 C 1.21106 0.72158 0.25517
 C429 C 1.19089 0.69782 0.28439
 N430 N 1.15923 0.68067 0.26823
 N431 N 1.14154 0.65829 0.29360
 C432 C 1.15488 0.65212 0.33614
 N433 N 1.18648 0.66936 0.35239
 N434 N 1.20415 0.69180 0.32701
 C435 C 1.13639 0.62659 0.36390
 C436 C 1.10390 0.60861 0.34799
 H437 H 1.20080 0.72386 0.22068
 H438 H 1.14919 0.62133 0.39683
 H439 H 1.25437 0.73618 0.30416
 H440 H 1.09099 0.61412 0.31518
 C441 C 0.72864 0.21562 0.31521
 C442 C 0.69876 0.19370 0.30292
 C443 C 0.68139 0.16991 0.33413
 N444 N 0.65071 0.15096 0.31983
 N445 N 0.63465 0.12898 0.34709
 C446 C 0.64870 0.12498 0.38975
 N447 N 0.67951 0.14389 0.40411
 N448 N 0.69555 0.16599 0.37681
 C449 C 0.63110 0.10039 0.41983
 C450 C 0.59733 0.08270 0.40659
 H451 H 0.68762 0.19395 0.26868
 H452 H 0.64469 0.09625 0.45266
 H453 H 0.74049 0.21476 0.34920
 H454 H 0.58327 0.08754 0.37415
 C455 C 0.74845 0.71306 -0.21262
 C456 C 0.70663 0.70668 -0.21025
 C457 C 0.69074 0.68434 -0.17621
 N458 N 0.64981 0.67915 -0.17412
 N459 N 0.63507 0.65865 -0.14386
 C460 C 0.66063 0.64267 -0.11439
 N461 N 0.70155 0.64811 -0.11617
 N462 N 0.71632 0.66865 -0.14645
 C463 C 0.64480 0.61790 -0.08363
 C464 C 0.60417 0.60862 -0.08710
 H465 H 0.68487 0.71831 -0.23320
 H466 H 0.66615 0.60438 -0.06208
 H467 H 0.76934 0.69995 -0.19000
 H468 H 0.58350 0.62145 -0.11015
 C469 C 0.79107 -0.23954 -0.21383
 C470 C 0.81662 -0.21599 -0.23110
 C471 C 0.83229 -0.19043 -0.20273
 N472 N 0.86151 -0.17055 -0.21849
 N473 N 0.87529 -0.14687 -0.19327
 C474 C 0.86010 -0.14207 -0.15155
 N475 N 0.83063 -0.16179 -0.13593
 N476 N 0.81704 -0.18559 -0.16105
 C477 C 0.87488 -0.11584 -0.12377
 C478 C 0.91006 -0.09943 -0.13532
 H479 H 0.82420 -0.21581 -0.26635
 H480 H 0.85831 -0.10972 -0.09358
 H481 H 0.78382 -0.23908 -0.17844
 H482 H 0.92773 -0.10668 -0.16428
 C483 C 0.77360 0.26254 0.30529
 C484 C 0.80615 0.27859 0.28488
 C485 C 0.82864 0.30440 0.30686
 N486 N 0.86055 0.31845 0.28559
 N487 N 0.88069 0.34237 0.30458
 C488 C 0.86956 0.35310 0.34558
 N489 N 0.83774 0.33899 0.36687
 N490 N 0.81767 0.31505 0.34794
 C491 C 0.88993 0.38035 0.36656
 C492 C 0.92339 0.39605 0.34784
 H493 H 0.81532 0.27230 0.25129
 H494 H 0.87718 0.38891 0.39776
 H495 H 0.76371 0.27011 0.33818
 H496 H 0.93748 0.38734 0.31742
 C497 C 0.29792 -0.22204 0.26496
 C498 C 0.28625 -0.20268 0.30123
 C499 C 0.31448 -0.18171 0.32556
 N500 N 0.30045 -0.16540 0.36169
 N501 N 0.32485 -0.14574 0.38388
 C502 C 0.36433 -0.14153 0.37077
 N503 N 0.37844 -0.15788 0.33461
 N504 N 0.35403 -0.17764 0.31244
 C505 C 0.39120 -0.11895 0.39428
 C506 C 0.37831 -0.10242 0.43235
 H507 H 0.25459 -0.20278 0.31241
 H508 H 0.42143 -0.11465 0.38067
 H509 H 0.32948 -0.22085 0.25340
 H510 H 0.34835 -0.10703 0.44643
 C511 C 0.26669 0.28433 -0.20863
 C512 C 0.30304 0.29833 -0.22296
 C513 C 0.32389 0.32190 -0.19475
 N514 N 0.35897 0.33590 -0.20877
 N515 N 0.37731 0.35766 -0.18351
 C516 C 0.36118 0.36619 -0.14335
 N517 N 0.32624 0.35214 -0.12937
 N518 N 0.30799 0.33042 -0.15454
 C519 C 0.38014 0.39066 -0.11530
 C520 C 0.41643 0.40562 -0.12702
 H521 H 0.31578 0.29257 -0.25535
 H522 H 0.36466 0.39735 -0.08466
 H523 H 0.25395 0.29201 -0.17694
 H524 H 0.43248 0.39879 -0.15723
 C525 C 1.24372 -0.21729 0.21354
 C526 C 1.20671 -0.20239 0.22738
 C527 C 1.18508 -0.17740 0.19965
 N528 N 1.14852 -0.16436 0.21321
 N529 N 1.12892 -0.14161 0.18851
 C530 C 1.14522 -0.13101 0.14933
 N531 N 1.18174 -0.14404 0.13583
 N532 N 1.20125 -0.16680 0.16044
 C533 C 1.12466 -0.10551 0.12172
 C534 C 1.08629 -0.09181 0.13210
 H535 H 1.19329 -0.20896 0.25922
 H536 H 1.14056 -0.09714 0.09213
 H537 H 1.25680 -0.20848 0.18244
 H538 H 1.06970 -0.10032 0.16111
 C539 C 1.20737 0.28352 0.74106
 C540 C 1.21742 0.30474 0.70632
 C541 C 1.18796 0.32798 0.68537
 N542 N 1.20061 0.34664 0.65072
 N543 N 1.17504 0.36831 0.63142
 C544 C 1.13575 0.37230 0.64602
 N545 N 1.12299 0.35363 0.68079
 N546 N 1.14863 0.33183 0.70012
 C547 C 1.10776 0.39675 0.62478
 C548 C 1.12064 0.41478 0.58793
 H549 H 1.24876 0.30456 0.69410
 H550 H 1.07720 0.40074 0.63825
 H551 H 1.17632 0.28418 0.75419
 H552 H 1.15106 0.41021 0.57441
 C553 C 0.73742 -0.24204 0.72836
 C554 C 0.70867 -0.22072 0.74737
 C555 C 0.68574 -0.19606 0.72065
 N556 N 0.65719 -0.17666 0.74055
 N557 N 0.63777 -0.15307 0.71735
 C558 C 0.64635 -0.14790 0.67342
 N559 N 0.67482 -0.16734 0.65351
 N560 N 0.69413 -0.19100 0.67666
 C561 C 0.62652 -0.12109 0.64779
 C562 C 0.59480 -0.10198 0.66534
 H563 H 0.70462 -0.22101 0.78333
 H564 H 0.63743 -0.11615 0.61425
 H565 H 0.74129 -0.24134 0.69237
 H566 H 0.58262 -0.10751 0.69815
 C567 C 0.71449 0.25673 0.25515
 C568 C 0.72266 0.27594 0.21763
 C569 C 0.69228 0.29945 0.19857
 N570 N 0.70245 0.31754 0.16230
 N571 N 0.67630 0.34002 0.14578
 C572 C 0.63894 0.34543 0.16488
 N573 N 0.62861 0.32721 0.20107
 N574 N 0.65479 0.30464 0.21761
 C575 C 0.61068 0.37134 0.14763
 C576 C 0.62167 0.39050 0.11113
 H577 H 0.75301 0.27475 0.20289
 H578 H 0.58180 0.37605 0.16457
 H579 H 0.68423 0.25884 0.27010
 H580 H 0.65064 0.38550 0.09452
 C581 C 0.77598 0.21684 0.25222
 C582 C 0.76413 0.20241 0.21236
 C583 C 0.79220 0.17993 0.18882
 N584 N 0.78052 0.16650 0.14972
 N585 N 0.80555 0.14568 0.12884
 C586 C 0.84317 0.13751 0.14635
 N587 N 0.85482 0.15098 0.18534
 N588 N 0.82988 0.17180 0.20612
 C589 C 0.87090 0.11378 0.12497
 C590 C 0.86201 0.09953 0.08423
 H591 H 0.73364 0.20717 0.19860
 H592 H 0.89910 0.10683 0.14254
 H593 H 0.80606 0.21046 0.26609
 H594 H 0.83440 0.10671 0.06578
 C595 C 0.79763 0.71930 0.72702
 C596 C 0.78386 0.69891 0.69363
 C597 C 0.81196 0.67762 0.66856
 N598 N 0.79730 0.66018 0.63416
 N599 N 0.82207 0.63990 0.61211
 C600 C 0.86240 0.63625 0.62381
 N601 N 0.87707 0.65371 0.65818
 N602 N 0.85234 0.67408 0.68010
 C603 C 0.88970 0.61286 0.60133
 C604 C 0.87749 0.59623 0.56354
 H605 H 0.75119 0.69801 0.68639
 H606 H 0.92009 0.60819 0.61548
 H607 H 0.83027 0.71950 0.73477
 H608 H 0.84788 0.60165 0.54798
 C609 C 0.26395 0.24252 0.72960
 C610 C 0.29722 0.22213 0.74144
 C611 C 0.31408 0.19729 0.71127
 N612 N 0.34754 0.17927 0.72434
 N613 N 0.36217 0.15564 0.69873
 C614 C 0.34386 0.14888 0.65907
 N615 N 0.31033 0.16693 0.64589
 N616 N 0.29573 0.19071 0.67150
 C617 C 0.35953 0.12185 0.63153
 C618 C 0.39546 0.10492 0.64408
 H619 H 0.30995 0.22331 0.77494
 H620 H 0.34251 0.11491 0.60209
 H621 H 0.25101 0.24073 0.69624
 H622 H 0.41239 0.11272 0.67314
 C623 C 0.28945 0.73778 0.20948
 C624 C 0.31780 0.71363 0.22382
 C625 C 0.33286 0.68762 0.19430
 N626 N 0.35989 0.66483 0.21063
 N627 N 0.37291 0.64056 0.18512
 C628 C 0.35935 0.63796 0.14224
 N629 N 0.33229 0.66079 0.12583
 N630 N 0.31927 0.68513 0.15137
 C631 C 0.37373 0.61087 0.11399
 C632 C 0.40304 0.58835 0.13008
 H633 H 0.32768 0.71286 0.25852
 H634 H 0.36175 0.60894 0.08028
 H635 H 0.27956 0.73716 0.17472
 H636 H 0.41534 0.59106 0.16352
   
