data_POSCAR
  _audit_creation_date              2014-09-24
  _audit_creation_method            'ToBaCCo'
  _symmetry_space_group_name_H-M    'P1'
  _symmetry_Int_Tables_number       1
  _symmetry_cell_setting            triclinic
  loop_
  _symmetry_equiv_pos_as_xyz
 x,y,z
_cell_length_a 30.4677
_cell_length_b 30.3351
_cell_length_c 77.2675
_cell_angle_alpha 82.578600
_cell_angle_beta 93.247800
_cell_angle_gamma 119.638500
loop_
  _atom_site_label
  _atom_site_type_symbol
  _atom_site_fract_x
  _atom_site_fract_y
  _atom_site_fract_z
C1 C 0.00818 0.10875 0.51997
 H2 H 0.04482 0.11130 0.51962
 C3 C 0.00071 0.13920 0.53014
 H4 H 0.03173 0.16467 0.53780
 C5 C -0.07694 0.07126 0.51066
 H6 H -0.10689 0.04491 0.50294
 C7 C -0.08618 0.10097 0.52076
 H8 H -0.12337 0.09733 0.52071
 N9 N -0.03046 0.07526 0.51065
 C10 C 0.00194 -0.04729 0.50597
 H11 H 0.00442 -0.04542 0.49196
 C12 C 0.00374 -0.08696 0.51683
 H13 H 0.00852 -0.11508 0.51110
 C14 C -0.00907 -0.01387 0.53043
 H15 H -0.01570 0.01361 0.53570
 C16 C -0.00722 -0.05263 0.54174
 H17 H -0.01234 -0.05429 0.55561
 Zn18 Zn -0.01481 0.03620 0.49760
 N19 N -0.00467 -0.01194 0.51290
 C20 C 0.08590 0.07736 0.48470
 N21 N 0.04405 0.08265 0.48443
 C22 C 0.04276 0.12280 0.47481
 C23 C 0.08418 0.15909 0.46460
 C24 C 0.12829 0.11282 0.47460
 C25 C -0.11153 -0.04088 0.48950
 C26 C -0.14893 -0.07370 0.47881
 C27 C -0.09653 -0.02289 0.45375
 C28 C -0.06015 0.00846 0.46495
 N29 N -0.06794 -0.00116 0.48247
 H30 H 0.08645 0.04565 0.49269
 H31 H 0.00908 0.12623 0.47496
 H32 H 0.08178 0.19002 0.45671
 H33 H 0.16132 0.10812 0.47492
 H34 H -0.11672 -0.04790 0.50352
 H35 H -0.18322 -0.10377 0.48518
 H36 H -0.08617 -0.01472 0.44010
 H37 H -0.02470 0.03927 0.45958
 C38 C -0.00135 -0.09021 0.53498
 C39 C -0.04702 0.13541 0.53071
 C40 C -0.14195 -0.06611 0.46044
 C41 C 0.12764 0.15427 0.46433
 C42 C 1.16004 0.08892 0.14151
 H43 H 1.16373 0.12651 0.14055
 C44 C 1.19219 0.08083 0.13188
 H45 H 1.22013 0.11235 0.12331
 C46 C 1.11810 0.00208 0.15363
 H47 H 1.08943 -0.02830 0.16225
 C48 C 1.14947 -0.00778 0.14415
 H49 H 1.14468 -0.04590 0.14559
 N50 N 1.12356 0.04973 0.15195
 C51 C 1.00498 0.08893 0.15505
 H52 H 1.00354 0.08993 0.16895
 C53 C 0.96869 0.09308 0.14414
 H54 H 0.93994 0.09827 0.14969
 C55 C 1.04291 0.07865 0.13107
 H56 H 1.07067 0.07116 0.12608
 C57 C 1.00756 0.08281 0.11970
 H58 H 1.00880 0.07859 0.10607
 Zn59 Zn 1.08252 0.06601 0.16421
 N60 N 1.04080 0.08134 0.14841
 C61 C 1.12336 0.16572 0.17505
 N62 N 1.12636 0.12215 0.17628
 C63 C 1.16180 0.11670 0.18635
 C64 C 1.19520 0.15534 0.19612
 C65 C 1.15602 0.20542 0.18469
 C66 C 1.00091 -0.03185 0.17399
 C67 C 0.96333 -0.07042 0.18520
 C68 C 1.00508 -0.02167 0.20924
 C69 C 1.04170 0.01590 0.19760
 N70 N 1.03873 0.01052 0.18030
 H71 H 1.09544 0.16960 0.16673
 H72 H 1.16348 0.08172 0.18698
 H73 H 1.22211 0.14947 0.20444
 H74 H 1.15302 0.23977 0.18368
 H75 H 0.99883 -0.03468 0.16012
 H76 H 0.93245 -0.10291 0.17985
 H77 H 1.00783 -0.01630 0.22292
 H78 H 1.07135 0.05018 0.20236
 C79 C 0.96925 0.08921 0.12624
 C80 C 1.18701 0.03191 0.13305
 C81 C 0.96458 -0.06500 0.20303
 C82 C 1.19234 0.20030 0.19549
 C83 C 0.01562 0.87838 0.85959
 H84 H -0.01688 0.84102 0.85878
 C85 C 0.05579 0.88348 0.87031
 H86 H 0.05417 0.84966 0.87754
 C87 C 0.05689 0.96765 0.85098
 H88 H 0.05691 1.00028 0.84347
 C89 C 0.09806 0.97454 0.86161
 H90 H 0.12934 1.01272 0.86235
 N91 N 0.01637 0.92017 0.85047
 C92 C -0.13734 0.89334 0.84648
 H93 H -0.14250 0.89662 0.83250
 C94 C -0.17229 0.89299 0.85758
 H95 H -0.20345 0.89660 0.85159
 C96 C -0.08694 0.89037 0.87052
 H97 H -0.05321 0.89041 0.87559
 C98 C -0.12088 0.88954 0.88207
 H99 H -0.11304 0.88620 0.89585
 Zn100 Zn -0.04245 0.90763 0.83754
 N101 N -0.09502 0.89338 0.85306
 C102 C -0.10561 0.81119 0.82455
 N103 N -0.05848 0.85227 0.82493
 C104 C -0.01929 0.85596 0.81608
 C105 C -0.02668 0.81781 0.80611
 C106 C -0.11482 0.77209 0.81458
 C107 C -0.02705 1.00724 0.82817
 C108 C -0.02771 1.04693 0.81692
 C109 C -0.03817 0.99973 0.79267
 C110 C -0.03741 0.96105 0.80435
 N111 N -0.03258 0.96507 0.82176
 H112 H -0.13608 0.80899 0.83180
 H113 H 0.01776 0.88910 0.81664
 H114 H 0.00487 0.82220 0.79884
 H115 H -0.15252 0.73970 0.81427
 H116 H -0.02438 1.00902 0.84211
 H117 H -0.02530 1.07926 0.82231
 H118 H -0.04272 0.99540 0.77889
 H119 H -0.04260 0.92702 0.79948
 C120 C -0.16360 0.89307 0.87576
 C121 C 0.09737 0.93212 0.87167
 C122 C -0.03453 1.04283 0.79894
 C123 C -0.07495 0.77525 0.80518
 C124 C 0.61369 -0.01077 -0.01543
 C125 C 0.64530 0.00330 -0.00095
 C126 C 0.62937 0.01079 0.01449
 C127 C 0.58022 0.00422 0.01559
 C128 C 0.54840 -0.00812 0.00079
 C129 C 0.56529 -0.01526 -0.01482
 C130 C 0.53370 -0.02597 -0.02947
 C131 C 0.48621 -0.03022 -0.02877
 C132 C 0.46848 -0.02376 -0.01342
 C133 C 0.49957 -0.01327 0.00158
 C134 C 0.56229 0.01026 0.03099
 C135 C 0.51372 0.00324 0.03198
 C136 C 0.48188 -0.00809 0.01739
 C137 C 0.43252 -0.01506 0.01821
 C138 C 0.40253 -0.02506 0.00328
 C139 C 0.42013 -0.02830 -0.01257
 H140 H 0.54558 -0.03064 -0.04171
 H141 H 0.46329 -0.03923 -0.04038
 H142 H 0.58551 0.02021 0.04250
 H143 H 0.50154 0.00709 0.04430
 H144 H 0.68249 0.00701 -0.00152
 H145 H 0.36526 -0.02897 0.00390
 C146 C -0.07978 0.36085 0.65074
 C147 C -0.08321 0.33079 0.66647
 C148 C -0.08371 0.34701 0.68257
 C149 C -0.08338 0.39367 0.68298
 C150 C -0.07889 0.42512 0.66715
 C151 C -0.07640 0.40900 0.65097
 C152 C -0.07130 0.44111 0.63547
 C153 C -0.06758 0.48859 0.63587
 C154 C -0.07077 0.50499 0.65172
 C155 C -0.07699 0.47275 0.66751
 C156 C -0.08859 0.40911 0.69877
 C157 C -0.08801 0.45516 0.69908
 C158 C -0.08123 0.48806 0.68365
 C159 C -0.07947 0.53549 0.68386
 C160 C -0.07221 0.56729 0.66824
 C161 C -0.06740 0.55301 0.65227
 H162 H -0.06985 0.43003 0.62286
 H163 H -0.06259 0.51211 0.62357
 H164 H -0.09410 0.38526 0.71103
 H165 H -0.09298 0.46461 0.71158
 H166 H -0.08394 0.29477 0.66618
 H167 H -0.06990 0.60404 0.66854
 C168 C 0.44334 0.46402 0.31474
 C169 C 0.41859 0.43697 0.33047
 C170 C 0.43818 0.45476 0.34652
 C171 C 0.48395 0.50138 0.34696
 C172 C 0.50978 0.52912 0.33111
 C173 C 0.48955 0.51032 0.31494
 C174 C 0.51556 0.53879 0.29941
 C175 C 0.56137 0.58388 0.29976
 C176 C 0.58256 0.60276 0.31563
 C177 C 0.55592 0.57582 0.33143
 C178 C 0.50504 0.52053 0.36281
 C179 C 0.54960 0.56689 0.36309
 C180 C 0.57529 0.59550 0.34754
 C181 C 0.62041 0.64283 0.34767
 C182 C 0.64693 0.66810 0.33205
 C183 C 0.62918 0.64849 0.31613
 H184 H 0.50074 0.52655 0.28679
 H185 H 0.57963 0.60424 0.28740
 H186 H 0.48735 0.49986 0.37521
 H187 H 0.56413 0.57969 0.37567
 H188 H 0.38330 0.40135 0.33023
 H189 H 0.68209 0.70384 0.33229
 C190 C -0.06806 0.22208 0.56594
 C191 C -0.02476 0.24485 0.55540
 C192 C -0.01865 0.21719 0.54353
 C193 C -0.05577 0.16625 0.54209
 C194 C -0.09991 0.14419 0.55235
 C195 C -0.10591 0.17195 0.56424
 C196 C -0.07203 0.24899 0.57927
 C197 C -0.07451 0.27085 0.59083
 C198 C -0.07685 0.29586 0.60507
 C199 C -0.03405 0.34017 0.60957
 C200 C -0.03525 0.36229 0.62422
 C201 C -0.07938 0.34035 0.63441
 C202 C -0.12229 0.29626 0.62975
 C203 C -0.12106 0.27419 0.61512
 H204 H 0.00478 0.28362 0.55661
 H205 H 0.01542 0.23543 0.53563
 H206 H -0.12887 0.10491 0.55167
 H207 H -0.13946 0.15386 0.57242
 H208 H 0.00049 0.35698 0.60198
 H209 H -0.00161 0.39586 0.62781
 H210 H -0.15642 0.27858 0.63760
 H211 H -0.15423 0.23969 0.61184
 C212 C 0.84228 0.82752 0.23756
 C213 C 0.86466 0.87992 0.23865
 C214 C 0.90439 0.91466 0.22744
 C215 C 0.92250 0.89750 0.21495
 C216 C 0.89957 0.84471 0.21385
 C217 C 0.85973 0.80991 0.22513
 C218 C 0.80200 0.79239 0.24948
 C219 C 0.76892 0.76478 0.25995
 C220 C 0.73048 0.73391 0.27300
 C221 C 0.70857 0.75621 0.28163
 C222 C 0.67425 0.72782 0.29531
 C223 C 0.66128 0.67671 0.30045
 C224 C 0.68266 0.65420 0.29156
 C225 C 0.71708 0.68268 0.27787
 H226 H 0.85138 0.89399 0.24819
 H227 H 0.92050 0.95505 0.22840
 H228 H 0.91288 0.83037 0.20444
 H229 H 0.84275 0.76938 0.22422
 H230 H 0.71891 0.79590 0.27805
 H231 H 0.65849 0.74592 0.30213
 H232 H 0.67370 0.61506 0.29554
 H233 H 0.73410 0.66517 0.27138
 C234 C 0.21608 -0.05169 -0.09242
 C235 C 0.22807 -0.02259 -0.10881
 C236 C 0.18955 -0.02752 -0.12054
 C237 C 0.13866 -0.06174 -0.11599
 C238 C 0.12717 -0.09049 -0.09943
 C239 C 0.16559 -0.08549 -0.08777
 C240 C 0.25504 -0.04694 -0.08013
 C241 C 0.28610 -0.04411 -0.06929
 C242 C 0.32139 -0.04171 -0.05576
 C243 C 0.37004 0.00060 -0.05598
 C244 C 0.40288 0.00426 -0.04214
 C245 C 0.38735 -0.03450 -0.02801
 C246 C 0.33875 -0.07710 -0.02798
 C247 C 0.30599 -0.08073 -0.04182
 H248 H 0.26707 0.00376 -0.11253
 H249 H 0.19957 -0.00518 -0.13324
 H250 H 0.08836 -0.11645 -0.09541
 H251 H 0.15588 -0.10793 -0.07507
 H252 H 0.38219 0.03119 -0.06664
 H253 H 0.43994 0.03780 -0.04222
 H254 H 0.32599 -0.10706 -0.01711
 H255 H 0.26831 -0.11347 -0.04147
 C256 C -0.01412 0.78281 0.57057
 C257 C -0.03669 0.77464 0.55414
 C258 C -0.03123 0.81609 0.54231
 C259 C -0.00328 0.86622 0.54682
 C260 C 0.02031 0.87405 0.56320
 C261 C 0.01488 0.83262 0.57498
 C262 C -0.02259 0.74026 0.58330
 C263 C -0.02988 0.70555 0.59442
 C264 C -0.03841 0.66542 0.60823
 C265 C -0.08468 0.61977 0.60966
 C266 C -0.09398 0.58240 0.62383
 C267 C -0.05695 0.59045 0.63660
 C268 C -0.01052 0.63603 0.63501
 C269 C -0.00127 0.67328 0.62087
 H270 H -0.05943 0.73622 0.55063
 H271 H -0.05037 0.80878 0.52990
 H272 H 0.04253 0.91222 0.56696
 H273 H 0.03255 0.83938 0.58765
 H274 H -0.11383 0.61349 0.60003
 H275 H -0.13020 0.54766 0.62500
 H276 H 0.01823 0.64293 0.64485
 H277 H 0.03448 0.70859 0.61997
 C278 C 0.28716 0.30977 0.23010
 C279 C 0.23717 0.29900 0.22741
 C280 C 0.20673 0.26467 0.21570
 C281 C 0.22592 0.24048 0.20659
 C282 C 0.27669 0.25276 0.20900
 C283 C 0.30704 0.28712 0.22070
 C284 C 0.31694 0.34128 0.24332
 C285 C 0.34109 0.36617 0.25484
 C286 C 0.36875 0.39418 0.26908
 C287 C 0.34693 0.41374 0.27909
 C288 C 0.37193 0.43763 0.29372
 C289 C 0.41913 0.44239 0.29843
 C290 C 0.44118 0.42321 0.28826
 C291 C 0.41610 0.39928 0.27361
 H292 H 0.22131 0.31610 0.23470
 H293 H 0.16767 0.25556 0.21428
 H294 H 0.29273 0.23528 0.20201
 H295 H 0.34568 0.29515 0.22269
 H296 H 0.31015 0.40963 0.27578
 H297 H 0.35422 0.45178 0.30154
 H298 H 0.47724 0.42594 0.29188
 H299 H 0.43311 0.38386 0.26605
 C300 C 0.74594 -0.08286 -0.09068
 C301 C 0.79506 -0.07127 -0.08603
 C302 C 0.82435 -0.07998 -0.09688
 C303 C 0.80522 -0.10068 -0.11282
 C304 C 0.75499 -0.11279 -0.11719
 C305 C 0.72578 -0.10395 -0.10621
 C306 C 0.71729 -0.07185 -0.07948
 C307 C 0.69563 -0.06133 -0.06956
 C308 C 0.67230 -0.04769 -0.05712
 C309 C 0.69676 0.00214 -0.05251
 C310 C 0.67681 0.01461 -0.03928
 C311 C 0.63204 -0.02261 -0.03060
 C312 C 0.60723 -0.07235 -0.03545
 C313 C 0.62724 -0.08480 -0.04868
 H314 H 0.81125 -0.05447 -0.07409
 H315 H 0.86294 -0.06760 -0.09298
 H316 H 0.73726 -0.13034 -0.12882
 H317 H 0.68751 -0.11347 -0.10988
 H318 H 0.73190 0.03103 -0.05884
 H319 H 0.69672 0.05300 -0.03559
 H320 H 0.57312 -0.10176 -0.02868
 H321 H 0.60830 -0.12359 -0.05201
 C322 C 0.28037 0.00844 0.09989
 C323 C 0.30130 0.05191 0.10867
 C324 C 0.27129 0.05889 0.11984
 C325 C 0.21983 0.02247 0.12234
 C326 C 0.19948 -0.02178 0.11381
 C327 C 0.22957 -0.02866 0.10263
 C328 C 0.31014 0.00334 0.08729
 C329 C 0.33427 -0.00045 0.07631
 C330 C 0.36180 -0.00478 0.06271
 C331 C 0.40442 0.03858 0.05504
 C332 C 0.42863 0.03506 0.04085
 C333 C 0.41049 -0.01193 0.03428
 C334 C 0.36822 -0.05538 0.04217
 C335 C 0.34407 -0.05184 0.05635
 H336 H 0.34058 0.08086 0.10664
 H337 H 0.28822 0.09300 0.12641
 H338 H 0.15990 -0.05019 0.11531
 H339 H 0.21291 -0.06232 0.09581
 H340 H 0.41816 0.07528 0.05976
 H341 H 0.46070 0.06909 0.03472
 H342 H 0.35342 -0.09178 0.03712
 H343 H 0.31090 -0.08551 0.06208
 C344 C 0.75927 0.82805 0.42695
 C345 C 0.75675 0.81371 0.44492
 C346 C 0.78818 0.84917 0.45618
 C347 C 0.82384 0.90015 0.44969
 C348 C 0.82377 0.91396 0.43141
 C349 C 0.79215 0.87838 0.42029
 C350 C 0.73036 0.79094 0.41513
 C351 C 0.70813 0.76102 0.40468
 C352 C 0.68387 0.72696 0.39156
 C353 C 0.63458 0.71389 0.38630
 C354 C 0.61306 0.68473 0.37240
 C355 C 0.64067 0.66831 0.36368
 C356 C 0.68968 0.68069 0.36925
 C357 C 0.71111 0.70976 0.38314
 H358 H 0.73149 0.77462 0.45023
 H359 H 0.78628 0.83454 0.46978
 H360 H 0.84687 0.95259 0.42538
 H361 H 0.79384 0.89015 0.40637
 H362 H 0.61334 0.72739 0.39262
 H363 H 0.57553 0.67626 0.36809
 H364 H 0.71169 0.66878 0.36257
 H365 H 0.74940 0.71997 0.38701
 C366 C -0.05354 0.15384 0.76364
 C367 C -0.08383 0.10172 0.76221
 C368 C -0.07762 0.06582 0.77372
 C369 C -0.04085 0.08151 0.78686
 C370 C -0.01087 0.13402 0.78835
 C371 C -0.01711 0.16998 0.77676
 C372 C -0.05934 0.19029 0.75125
 C373 C -0.06486 0.21940 0.74037
 C374 C -0.07175 0.25268 0.72683
 C375 C -0.11366 0.23258 0.71585
 C376 C -0.11850 0.26373 0.70176
 C377 C -0.08156 0.31539 0.69856
 C378 C -0.04000 0.33557 0.70978
 C379 C -0.03519 0.30436 0.72387
 H380 H -0.11218 0.08878 0.75213
 H381 H -0.10200 0.02568 0.77245
 H382 H 0.01791 0.14724 0.79827
 H383 H 0.00668 0.21029 0.77793
 H384 H -0.14199 0.19255 0.71795
 H385 H -0.15051 0.24739 0.69315
 H386 H -0.01065 0.37510 0.70732
 H387 H -0.00240 0.32021 0.73218
 C388 C 0.84974 0.07763 0.09150
 C389 C 0.83863 0.05479 0.10878
 C390 C 0.87763 0.06008 0.12028
 C391 C 0.92831 0.08815 0.11460
 C392 C 0.93913 0.11219 0.09734
 C393 C 0.90008 0.10690 0.08588
 C394 C 0.80960 0.06851 0.07924
 C395 C 0.77650 0.05997 0.06867
 C396 C 0.73781 0.04904 0.05569
 C397 C 0.69252 0.00244 0.05748
 C398 C 0.65647 -0.00966 0.04425
 C399 C 0.66536 0.02491 0.02916
 C400 C 0.71060 0.07174 0.02750
 C401 C 0.74660 0.08379 0.04072
 H402 H 0.79978 0.03179 0.11325
 H403 H 0.86801 0.04051 0.13340
 H404 H 0.97777 0.13449 0.09264
 H405 H 0.90911 0.12474 0.07252
 H406 H 0.68554 -0.02492 0.06893
 H407 H 0.62209 -0.04627 0.04560
 H408 H 0.71825 0.09856 0.01585
 H409 H 0.78166 0.11975 0.03913
 C410 C 0.24865 0.26166 0.42942
 C411 C 0.22449 0.27868 0.43948
 C412 C 0.18609 0.24397 0.45120
 C413 C 0.17123 0.19167 0.45298
 C414 C 0.19669 0.17513 0.44316
 C415 C 0.23508 0.20994 0.43142
 C416 C 0.28521 0.29673 0.41635
 C417 C 0.31467 0.32572 0.40504
 C418 C 0.34850 0.35961 0.39110
 C419 C 0.35516 0.40888 0.38685
 C420 C 0.38538 0.44051 0.37255
 C421 C 0.40934 0.42315 0.36245
 C422 C 0.40289 0.37392 0.36686
 C423 C 0.37270 0.34235 0.38114
 H424 H 0.23468 0.31863 0.43803
 H425 H 0.16769 0.25796 0.45876
 H426 H 0.18574 0.13507 0.44410
 H427 H 0.25335 0.19632 0.42362
 H428 H 0.33625 0.42244 0.39438
 H429 H 0.38940 0.47812 0.36916
 H430 H 0.42073 0.35981 0.35908
 H431 H 0.36750 0.30418 0.38423
 C432 C -0.09272 0.66993 0.76968
 C433 C -0.12986 0.68391 0.77072
 C434 C -0.12532 0.71652 0.78281
 C435 C -0.08332 0.73576 0.79391
 C436 C -0.04725 0.71989 0.79319
 C437 C -0.05191 0.68726 0.78114
 C438 C -0.09413 0.64127 0.75600
 C439 C -0.09375 0.61912 0.74418
 C440 C -0.09190 0.59471 0.72967
 C441 C -0.12971 0.58121 0.71702
 C442 C -0.12610 0.56089 0.70227
 C443 C -0.08473 0.55370 0.70009
 C444 C -0.04705 0.56695 0.71286
 C445 C -0.05071 0.58726 0.72762
 H446 H -0.16146 0.67094 0.76183
 H447 H -0.15341 0.72847 0.78295
 H448 H -0.01487 0.73356 0.80173
 H449 H -0.02293 0.67673 0.78044
 H450 H -0.16148 0.58725 0.71840
 H451 H -0.15521 0.55132 0.69245
 H452 H -0.01454 0.56232 0.71123
 H453 H -0.02098 0.59807 0.73724
   
