data_POSCAR
  _audit_creation_date              2014-09-24
  _audit_creation_method            'ToBaCCo'
  _symmetry_space_group_name_H-M    'P1'
  _symmetry_Int_Tables_number       1
  _symmetry_cell_setting            triclinic
  loop_
  _symmetry_equiv_pos_as_xyz
 x,y,z
_cell_length_a 26.8391
_cell_length_b 33.8662
_cell_length_c 28.5818
_cell_angle_alpha 89.982700
_cell_angle_beta 90.409000
_cell_angle_gamma 90.620800
loop_
  _atom_site_label
  _atom_site_type_symbol
  _atom_site_fract_x
  _atom_site_fract_y
  _atom_site_fract_z
C1 C 0.27119 0.29432 0.21678
 C2 C 0.24392 0.27204 0.24919
 C3 C 0.21434 0.29104 0.28227
 C4 C 0.21176 0.33235 0.28300
 C5 C 0.23928 0.35452 0.25053
 C6 C 0.26918 0.33566 0.21741
 C7 C 0.24700 0.22879 0.24924
 C8 C 0.28004 0.20998 0.27993
 C9 C 0.28213 0.16867 0.28120
 C10 C 0.25076 0.14634 0.25181
 C11 C 0.21750 0.16494 0.22105
 C12 C 0.21597 0.20629 0.21971
 H13 H 0.29431 0.27953 0.19142
 H14 H 0.19353 0.27351 0.30722
 H15 H 0.30365 0.22760 0.30281
 H16 H 0.19019 0.22092 0.19623
 H17 H 0.23730 0.38640 0.25141
 H18 H 0.25238 0.11446 0.25330
 C19 C 0.77587 0.79116 0.21272
 C20 C 0.74919 0.76883 0.24556
 C21 C 0.71869 0.78770 0.27801
 C22 C 0.71451 0.82896 0.27773
 C23 C 0.74154 0.85113 0.24485
 C24 C 0.77241 0.83250 0.21225
 C25 C 0.75329 0.72562 0.24643
 C26 C 0.78492 0.70751 0.27900
 C27 C 0.78729 0.66623 0.28144
 C28 C 0.75753 0.64321 0.25127
 C29 C 0.72557 0.66112 0.21871
 C30 C 0.72387 0.70242 0.21623
 H31 H 0.79962 0.77635 0.18787
 H32 H 0.69837 0.77001 0.30316
 H33 H 0.80715 0.72566 0.30251
 H34 H 0.69891 0.71649 0.19150
 H35 H 0.73837 0.88295 0.24512
 H36 H 0.75912 0.61138 0.25374
 C37 C 0.78288 0.29469 0.72452
 C38 C 0.75402 0.27145 0.75477
 C39 C 0.72290 0.28951 0.78741
 C40 C 0.72031 0.33087 0.78979
 C41 C 0.74973 0.35386 0.75954
 C42 C 0.78096 0.33597 0.72680
 C43 C 0.75461 0.22819 0.75074
 C44 C 0.78483 0.20571 0.78058
 C45 C 0.78541 0.16436 0.77666
 C46 C 0.75494 0.14589 0.74282
 C47 C 0.72450 0.16816 0.71309
 C48 C 0.72460 0.20938 0.71699
 H49 H 0.80650 0.28064 0.69896
 H50 H 0.70033 0.27115 0.81011
 H51 H 0.80802 0.22045 0.80660
 H52 H 0.70123 0.22692 0.69421
 H53 H 0.74763 0.38572 0.76128
 H54 H 0.75441 0.11410 0.73922
 C55 C 0.28449 0.80047 0.71926
 C56 C 0.25680 0.77931 0.75244
 C57 C 0.22873 0.79955 0.78571
 C58 C 0.22815 0.84091 0.78592
 C59 C 0.25617 0.86189 0.75275
 C60 C 0.28448 0.84191 0.71925
 C61 C 0.25687 0.73592 0.75204
 C62 C 0.28666 0.71526 0.78396
 C63 C 0.28701 0.67385 0.78353
 C64 C 0.25678 0.65331 0.75131
 C65 C 0.22668 0.67379 0.71939
 C66 C 0.22713 0.71520 0.71969
 H67 H 0.30610 0.78464 0.69357
 H68 H 0.20703 0.78313 0.81113
 H69 H 0.30954 0.73157 0.80876
 H70 H 0.20420 0.73147 0.69526
 H71 H 0.25555 0.89371 0.75292
 H72 H 0.25666 0.62130 0.75110
 C73 C 0.06419 0.05808 0.02463
 H74 H 0.06887 0.06038 -0.01285
 C75 C 0.09297 0.08175 0.05460
 H76 H 0.12003 0.10227 0.04022
 C77 C 0.02374 0.02819 0.08924
 H78 H -0.00359 0.00761 0.10270
 C79 C 0.05169 0.05129 0.12042
 H80 H 0.04587 0.04781 0.15758
 N81 N 0.03134 0.03120 0.04235
 C82 C 0.02217 -0.06119 -0.06390
 H83 H -0.01778 -0.06370 -0.06855
 C84 C 0.05381 -0.08410 -0.09106
 H85 H 0.03822 -0.10421 -0.11688
 C86 C 0.09137 -0.03135 -0.02533
 H87 H 0.10597 -0.01103 0.00055
 C88 C 0.12432 -0.05369 -0.05173
 H89 H 0.16397 -0.04986 -0.04622
 Zn90 Zn -0.00369 -0.00205 -0.00016
 N91 N 0.04136 -0.03461 -0.03277
 C92 C -0.02916 0.02889 -0.08936
 N93 N -0.03850 0.03084 -0.04269
 C94 C -0.07204 0.05681 -0.02539
 C95 C -0.09955 0.08071 -0.05568
 C96 C -0.05569 0.05232 -0.12080
 C97 C -0.02834 -0.06210 0.06297
 C98 C -0.05922 -0.08595 0.09040
 C99 C -0.13076 -0.05668 0.05281
 C100 C -0.09852 -0.03331 0.02612
 N101 N -0.04835 -0.03564 0.03255
 H102 H -0.00129 0.00909 -0.10244
 H103 H -0.07804 0.05838 0.01195
 H104 H -0.12708 0.10056 -0.04168
 H105 H -0.04833 0.04972 -0.15780
 H106 H 0.01171 -0.06382 0.06683
 H107 H -0.04294 -0.10602 0.11560
 H108 H -0.17055 -0.05368 0.04813
 H109 H -0.11375 -0.01297 0.00086
 C110 C 0.10550 -0.07983 -0.08566
 C111 C 0.08735 0.07793 0.10307
 C112 C -0.11102 -0.08282 0.08596
 C113 C -0.09183 0.07818 -0.10400
 C114 C 0.07561 0.55944 0.52309
 H115 H 0.07690 0.56070 0.48529
 C116 C 0.10684 0.58400 0.54978
 H117 H 0.13221 0.60405 0.53229
 C118 C 0.04041 0.53201 0.59179
 H119 H 0.01400 0.51221 0.60814
 C120 C 0.07088 0.55607 0.61975
 H121 H 0.06811 0.55435 0.65749
 N122 N 0.04381 0.53364 0.54434
 C123 C 0.01712 0.43962 0.44242
 H124 H -0.02316 0.43821 0.44316
 C125 C 0.04330 0.41489 0.41248
 H126 H 0.02288 0.39444 0.39029
 C127 C 0.09253 0.46858 0.47013
 H128 H 0.11165 0.48936 0.49275
 C129 C 0.12015 0.44441 0.44066
 H130 H 0.16041 0.44694 0.44048
 Zn131 Zn 0.00279 0.50104 0.50587
 N132 N 0.04187 0.46643 0.46964
 C133 C -0.03037 0.53119 0.41848
 N134 N -0.03433 0.53452 0.46576
 C135 C -0.06422 0.56211 0.48532
 C136 C -0.09348 0.58644 0.45703
 C137 C -0.05879 0.55499 0.38898
 C138 C -0.01986 0.44281 0.57262
 C139 C -0.05003 0.41989 0.60186
 C140 C -0.12234 0.45117 0.56820
 C141 C -0.09085 0.47353 0.53965
 N142 N -0.04053 0.46962 0.54302
 H143 H -0.00536 0.51002 0.40343
 H144 H -0.06595 0.56468 0.52300
 H145 H -0.11780 0.60766 0.47316
 H146 H -0.05594 0.55165 0.35141
 H147 H 0.02020 0.43977 0.57404
 H148 H -0.03316 0.39921 0.62598
 H149 H -0.16217 0.45517 0.56549
 H150 H -0.10677 0.49406 0.51501
 C151 C 0.09539 0.41765 0.41098
 C152 C 0.10473 0.58220 0.59871
 C153 C -0.10183 0.42435 0.60013
 C154 C -0.09122 0.58257 0.40827
 C155 C 0.57611 0.05737 0.51224
 H156 H 0.57784 0.05893 0.47447
 C157 C 0.60634 0.08223 0.53954
 H158 H 0.63159 0.10273 0.52260
 C159 C 0.54052 0.02899 0.58024
 H160 H 0.51425 0.00879 0.59609
 C161 C 0.57002 0.05328 0.60878
 H162 H 0.56681 0.05121 0.64646
 N163 N 0.54459 0.03098 0.53287
 C164 C 0.51879 -0.06215 0.42963
 H165 H 0.47849 -0.06343 0.42990
 C166 C 0.54528 -0.08733 0.40049
 H167 H 0.52510 -0.10790 0.37826
 C168 C 0.59396 -0.03340 0.45824
 H169 H 0.61284 -0.01262 0.48105
 C170 C 0.62188 -0.05798 0.42955
 H171 H 0.66216 -0.05572 0.43004
 Zn172 Zn 0.50408 -0.00137 0.49378
 N173 N 0.54330 -0.03538 0.45708
 C174 C 0.46871 0.02984 0.40747
 N175 N 0.46662 0.03259 0.45491
 C176 C 0.43800 0.06017 0.47607
 C177 C 0.40818 0.08521 0.44936
 C178 C 0.43959 0.05439 0.37946
 C179 C 0.48146 -0.06028 0.55971
 C180 C 0.45120 -0.08299 0.58906
 C181 C 0.37904 -0.05155 0.55529
 C182 C 0.41062 -0.02940 0.52666
 N183 N 0.46090 -0.03334 0.53022
 H184 H 0.49264 0.00850 0.39122
 H185 H 0.43773 0.06216 0.51385
 H186 H 0.38489 0.10642 0.46682
 H187 H 0.44082 0.05154 0.34174
 H188 H 0.52152 -0.06335 0.56121
 H189 H 0.46798 -0.10349 0.61345
 H190 H 0.33925 -0.04728 0.55271
 H191 H 0.39479 -0.00880 0.50203
 C192 C 0.59741 -0.08499 0.39998
 C193 C 0.60351 0.08006 0.58840
 C194 C 0.39945 -0.07818 0.58748
 C195 C 0.40846 0.08203 0.40050
 C196 C 0.57033 0.55399 0.02304
 H197 H 0.57392 0.55666 -0.01451
 C198 C 0.60080 0.57672 0.05264
 H199 H 0.62809 0.59685 0.03787
 C200 C 0.53042 0.52462 0.08825
 H201 H 0.50249 0.50481 0.10217
 C202 C 0.56005 0.54677 0.11903
 H203 H 0.55484 0.54326 0.15627
 N204 N 0.53671 0.52792 0.04121
 C205 C 0.51551 0.43725 -0.06622
 H206 H 0.47525 0.43631 -0.06845
 C207 C 0.54370 0.41254 -0.09455
 H208 H 0.52487 0.39273 -0.11869
 C209 C 0.58890 0.46450 -0.03208
 H210 H 0.60648 0.48440 -0.00737
 C211 C 0.61847 0.44037 -0.05982
 H212 H 0.65868 0.44221 -0.05673
 Zn213 Zn 0.49748 0.49677 -0.00054
 N214 N 0.53838 0.46313 -0.03642
 C215 C 0.46564 0.52966 -0.08740
 N216 N 0.46185 0.53170 -0.04001
 C217 C 0.43248 0.55899 -0.01925
 C218 C 0.40366 0.58448 -0.04639
 C219 C 0.43758 0.55469 -0.11583
 C220 C 0.47174 0.43682 0.06292
 C221 C 0.44036 0.41419 0.09131
 C222 C 0.36962 0.44703 0.05682
 C223 C 0.40231 0.46912 0.02917
 N224 N 0.45243 0.46445 0.03358
 H225 H 0.49010 0.50852 -0.10332
 H226 H 0.43078 0.56040 0.01852
 H227 H 0.37985 0.60549 -0.02925
 H228 H 0.44027 0.55246 -0.15353
 H229 H 0.51169 0.43323 0.06521
 H230 H 0.45618 0.39312 0.11560
 H231 H 0.32998 0.45186 0.05363
 H232 H 0.38748 0.49033 0.00472
 C233 C 0.59583 0.41435 -0.09178
 C234 C 0.59610 0.57284 0.10121
 C235 C 0.38877 0.41973 0.08890
 C236 C 0.40572 0.58208 -0.09528
 C237 C 0.13714 -0.09535 -0.17139
 C238 C 0.19462 -0.09250 -0.17265
 C239 C 0.19673 -0.13760 -0.17917
 C240 C 0.13950 -0.14061 -0.17816
 C241 C 0.19939 -0.14366 -0.12585
 C242 C 0.19700 -0.09834 -0.11902
 C243 C 0.13972 -0.10129 -0.11808
 C244 C 0.14171 -0.14636 -0.12445
 H245 H 0.11122 -0.07529 -0.18999
 H246 H 0.21588 -0.06938 -0.19174
 H247 H 0.11606 -0.15812 -0.20287
 H248 H 0.22535 -0.16375 -0.10737
 H249 H 0.22153 -0.08120 -0.09491
 H250 H 0.11969 -0.16835 -0.10427
 C251 C 0.16695 0.36539 0.39153
 C252 C 0.14679 0.33451 0.35596
 C253 C 0.17987 0.35326 0.31795
 C254 C 0.20035 0.38383 0.35316
 C255 C 0.13770 0.38129 0.30363
 C256 C 0.10427 0.36281 0.34193
 C257 C 0.12480 0.39341 0.37716
 C258 C 0.15788 0.41208 0.33916
 H259 H 0.17875 0.35903 0.42804
 H260 H 0.14175 0.30259 0.36349
 H261 H 0.24019 0.39230 0.35753
 H262 H 0.12590 0.38769 0.26713
 H263 H 0.06479 0.35371 0.33673
 H264 H 0.16218 0.44422 0.33245
 C265 C 0.60739 -0.14146 0.33288
 C266 C 0.64117 -0.12366 0.29439
 C267 C 0.68338 -0.15115 0.31009
 C268 C 0.64996 -0.16929 0.34826
 C269 C 0.70320 -0.11973 0.34458
 C270 C 0.66069 -0.09202 0.32920
 C271 C 0.62726 -0.11000 0.36735
 C272 C 0.66942 -0.13751 0.38309
 H273 H 0.56802 -0.15082 0.32756
 H274 H 0.62971 -0.11808 0.25760
 H275 H 0.64488 -0.20102 0.35687
 H276 H 0.74290 -0.11095 0.34923
 H277 H 0.66484 -0.06002 0.32154
 H278 H 0.68078 -0.14300 0.41992
 C279 C 0.61001 0.35964 -0.16026
 C280 C 0.64659 0.37828 -0.19583
 C281 C 0.68740 0.35003 -0.17874
 C282 C 0.65118 0.33106 -0.14347
 C283 C 0.70506 0.38029 -0.14189
 C284 C 0.66395 0.40876 -0.15869
 C285 C 0.62771 0.38996 -0.12342
 C286 C 0.66846 0.36169 -0.10626
 H287 H 0.57098 0.35075 -0.16833
 H288 H 0.63776 0.38502 -0.23297
 H289 H 0.64530 0.29913 -0.13645
 H290 H 0.74444 0.38865 -0.13446
 H291 H 0.66892 0.44092 -0.16481
 H292 H 0.67717 0.35505 -0.06908
 C293 C -0.12053 0.10162 -0.19086
 C294 C -0.17779 0.09643 -0.19366
 C295 C -0.18317 0.14170 -0.19336
 C296 C -0.12622 0.14710 -0.19082
 C297 C -0.18633 0.14187 -0.13961
 C298 C -0.18060 0.09641 -0.13962
 C299 C -0.12365 0.10168 -0.13709
 C300 C -0.12894 0.14689 -0.13666
 H301 H -0.09370 0.08546 -0.21291
 H302 H -0.19708 0.07440 -0.21630
 H303 H -0.10398 0.16815 -0.21217
 H304 H -0.21374 0.15853 -0.11870
 H305 H -0.20281 0.07536 -0.11826
 H306 H -0.10848 0.16746 -0.11297
 C307 C -0.16304 0.63715 0.39029
 C308 C -0.14314 0.66531 0.35180
 C309 C -0.17958 0.64611 0.31646
 C310 C -0.19979 0.61824 0.35455
 C311 C -0.14019 0.61565 0.30267
 C312 C -0.10341 0.63454 0.33834
 C313 C -0.12365 0.60666 0.37639
 C314 C -0.16012 0.58758 0.34105
 H315 H -0.17293 0.64629 0.42629
 H316 H -0.13564 0.69735 0.35658
 H317 H -0.23978 0.61168 0.36093
 H318 H -0.13098 0.60697 0.26632
 H319 H -0.06341 0.64107 0.33195
 H320 H -0.16695 0.55538 0.33688
 C321 C 0.33682 0.13740 0.38685
 C322 C 0.35516 0.16609 0.34824
 C323 C 0.31679 0.14776 0.31409
 C324 C 0.29813 0.11938 0.35232
 C325 C 0.35503 0.11727 0.29780
 C326 C 0.39377 0.13525 0.33228
 C327 C 0.37505 0.10687 0.37048
 C328 C 0.33666 0.08867 0.33632
 H329 H 0.32876 0.14604 0.42344
 H330 H 0.36330 0.19798 0.35346
 H331 H 0.25843 0.11301 0.36029
 H332 H 0.36229 0.10918 0.26086
 H333 H 0.43348 0.14158 0.32431
 H334 H 0.32922 0.05660 0.33166
 C335 C 0.33531 0.63827 -0.10992
 C336 C 0.35609 0.66791 -0.14636
 C337 C 0.31920 0.65111 -0.18297
 C338 C 0.29814 0.62177 -0.14691
 C339 C 0.35777 0.62070 -0.19884
 C340 C 0.39498 0.63718 -0.16191
 C341 C 0.37390 0.60784 -0.12584
 C342 C 0.33701 0.59111 -0.16244
 H343 H 0.32546 0.64588 -0.07341
 H344 H 0.36457 0.69949 -0.13926
 H345 H 0.25797 0.61559 -0.14100
 H346 H 0.36681 0.61366 -0.23572
 H347 H 0.43515 0.64333 -0.16785
 H348 H 0.32933 0.55929 -0.16882
 C349 C -0.14155 -0.10007 0.17179
 C350 C -0.19913 -0.09977 0.17347
 C351 C -0.19918 -0.14500 0.17949
 C352 C -0.14188 -0.14546 0.17813
 C353 C -0.20200 -0.15077 0.12613
 C354 C -0.20162 -0.10531 0.11975
 C355 C -0.14428 -0.10572 0.11843
 C356 C -0.14428 -0.15089 0.12437
 H357 H -0.11636 -0.07903 0.19039
 H358 H -0.22105 -0.07763 0.19287
 H359 H -0.11743 -0.16206 0.20248
 H360 H -0.22719 -0.17183 0.10754
 H361 H -0.22694 -0.08907 0.09588
 H362 H -0.12150 -0.17173 0.10382
 C363 C -0.12923 0.40420 0.68663
 C364 C -0.18665 0.40588 0.69050
 C365 C -0.18854 0.36047 0.69346
 C366 C -0.13143 0.35858 0.68994
 C367 C -0.19366 0.35744 0.63992
 C368 C -0.19152 0.40306 0.63663
 C369 C -0.13436 0.40121 0.63310
 C370 C -0.13619 0.35585 0.63602
 H371 H -0.10240 0.42365 0.70566
 H372 H -0.20692 0.42726 0.71254
 H373 H -0.10691 0.34013 0.71223
 H374 H -0.22048 0.33797 0.62093
 H375 H -0.21715 0.42108 0.61498
 H376 H -0.11523 0.33542 0.61327
 C377 C 0.37322 -0.09457 0.67492
 C378 C 0.31600 -0.09166 0.67954
 C379 C 0.31299 -0.13687 0.68541
 C380 C 0.36995 -0.13994 0.68115
 C381 C 0.30672 -0.14228 0.63224
 C382 C 0.31000 -0.09688 0.62602
 C383 C 0.36699 -0.09987 0.62175
 C384 C 0.36409 -0.14501 0.62753
 H385 H 0.40091 -0.07476 0.69228
 H386 H 0.29699 -0.06855 0.70006
 H387 H 0.39447 -0.15774 0.70419
 H388 H 0.27904 -0.16209 0.61487
 H389 H 0.28441 -0.07947 0.60365
 H390 H 0.38409 -0.16677 0.60576
 C391 C 0.35982 0.40193 0.17535
 C392 C 0.30242 0.40439 0.17866
 C393 C 0.29967 0.35910 0.18310
 C394 C 0.35676 0.35647 0.18012
 C395 C 0.29496 0.35482 0.12966
 C396 C 0.29801 0.40035 0.12484
 C397 C 0.35515 0.39771 0.12190
 C398 C 0.35243 0.35246 0.12630
 H399 H 0.38684 0.42150 0.19396
 H400 H 0.28226 0.42644 0.19983
 H401 H 0.38074 0.33828 0.20323
 H402 H 0.26792 0.33522 0.11112
 H403 H 0.27304 0.41816 0.10229
 H404 H 0.37322 0.33126 0.10444
 C405 C 0.12119 0.09910 0.18942
 C406 C 0.17860 0.09572 0.18876
 C407 C 0.18299 0.14108 0.19025
 C408 C 0.12591 0.14468 0.19115
 C409 C 0.18263 0.14308 0.13647
 C410 C 0.17791 0.09750 0.13469
 C411 C 0.12083 0.10103 0.13559
 C412 C 0.12514 0.14636 0.13698
 H413 H 0.09618 0.08131 0.21209
 H414 H 0.20011 0.07402 0.20956
 H415 H 0.10476 0.16433 0.21470
 H416 H 0.20831 0.16131 0.11493
 H417 H 0.19912 0.07787 0.11115
 H418 H 0.10277 0.16702 0.11546
 C419 C 0.17775 0.63773 0.61279
 C420 C 0.15801 0.66780 0.64883
 C421 C 0.19407 0.65099 0.68579
 C422 C 0.21412 0.62122 0.65012
 C423 C 0.15422 0.62101 0.70181
 C424 C 0.11786 0.63752 0.66458
 C425 C 0.13789 0.60773 0.62891
 C426 C 0.17394 0.59098 0.66583
 H427 H 0.18800 0.64494 0.57621
 H428 H 0.15083 0.69938 0.64130
 H429 H 0.25406 0.61468 0.64444
 H430 H 0.14473 0.61432 0.73873
 H431 H 0.07793 0.64405 0.67030
 H432 H 0.18032 0.55915 0.67257
 C433 C 0.61572 0.13367 0.65653
 C434 C 0.65250 0.11616 0.69269
 C435 C 0.69182 0.14708 0.67808
 C436 C 0.65536 0.16493 0.64222
 C437 C 0.71214 0.11886 0.64079
 C438 C 0.67256 0.08772 0.65516
 C439 C 0.63606 0.10540 0.61931
 C440 C 0.67534 0.13636 0.60452
 H441 H 0.57570 0.13956 0.66275
 H442 H 0.64329 0.10803 0.72928
 H443 H 0.64792 0.19674 0.63658
 H444 H 0.75216 0.11295 0.63460
 H445 H 0.67947 0.05574 0.66025
 H446 H 0.68516 0.14495 0.56825
 C447 C 0.68717 0.59275 0.13246
 C448 C 0.69147 0.63837 0.13396
 C449 C 0.69185 0.63665 0.18777
 C450 C 0.68793 0.59126 0.18659
 C451 C 0.63473 0.63988 0.18863
 C452 C 0.63394 0.64130 0.13448
 C453 C 0.63004 0.59594 0.13338
 C454 C 0.63048 0.59428 0.18723
 H455 H 0.70854 0.57314 0.10903
 H456 H 0.71695 0.65667 0.11228
 H457 H 0.70979 0.56989 0.20754
 H458 H 0.61336 0.65950 0.21204
 H459 H 0.61137 0.66173 0.11284
 H460 H 0.60572 0.57647 0.21012
   
