data_POSCAR
  _audit_creation_date              2014-09-24
  _audit_creation_method            'ToBaCCo'
  _symmetry_space_group_name_H-M    'P1'
  _symmetry_Int_Tables_number       1
  _symmetry_cell_setting            triclinic
  loop_
  _symmetry_equiv_pos_as_xyz
 x,y,z
_cell_length_a 34.2227
_cell_length_b 34.2595
_cell_length_c 34.3160
_cell_angle_alpha 78.590900
_cell_angle_beta 102.745600
_cell_angle_gamma 70.804600
loop_
  _atom_site_label
  _atom_site_type_symbol
  _atom_site_fract_x
  _atom_site_fract_y
  _atom_site_fract_z
O1 O 0.57412 0.48026 0.03032
 O2 O 0.46076 0.49903 0.02612
 O3 O 0.52730 0.43306 0.02870
 O4 O 0.50737 0.54618 0.02683
 O5 O 0.48772 0.56543 -0.04206
 O6 O 0.50830 0.45292 -0.04019
 O7 O 0.44108 0.51842 -0.04269
 O8 O 0.55449 0.49983 -0.03858
 Cu9 Cu 0.51930 0.48765 0.03491
 Cu10 Cu 0.49583 0.51109 -0.04776
 C11 C 0.58361 0.48737 -0.00345
 C12 C 0.43147 0.51157 -0.00892
 C13 C 0.52102 0.42378 -0.00562
 C14 C 0.49475 0.57502 -0.00800
 O15 O -0.02631 0.56262 0.49841
 O16 O -0.03690 0.45856 0.50292
 O17 O -0.03141 0.50369 0.55497
 O18 O -0.03082 0.51701 0.44617
 O19 O 0.04058 0.48286 0.46818
 O20 O 0.04008 0.47046 0.57720
 O21 O 0.03455 0.42479 0.52511
 O22 O 0.04509 0.52936 0.51983
 Cu23 Cu -0.03849 0.51385 0.49836
 Cu24 Cu 0.04726 0.47357 0.52477
 C25 C 0.01115 0.56394 0.50869
 C26 C -0.00309 0.42388 0.51465
 C27 C 0.00416 0.48509 0.58471
 C28 C 0.00494 0.50172 0.43855
 O29 O 0.47956 0.04875 0.53932
 O30 O 0.46767 0.05284 0.42930
 O31 O 0.41780 0.05415 0.47724
 O32 O 0.53053 0.04595 0.49219
 O33 O 0.55362 -0.02516 0.50986
 O34 O 0.44113 -0.01700 0.49368
 O35 O 0.49159 -0.01832 0.44671
 O36 O 0.50289 -0.02231 0.55703
 Cu37 Cu 0.47166 0.05754 0.48275
 Cu38 Cu 0.49963 -0.02782 0.50362
 C39 C 0.49254 0.01270 0.56703
 C40 C 0.47798 0.01797 0.41918
 C41 C 0.41032 0.01984 0.48326
 C42 C 0.56133 0.00896 0.50318
 C43 C 0.50030 -0.01405 0.01437
 C44 C 0.50374 0.01479 -0.01682
 C45 C 0.50267 0.00781 -0.05827
 C46 C 0.50733 0.05571 -0.01216
 C47 C 0.49738 -0.00551 0.05465
 C48 C 0.49838 -0.05560 0.00953
 C49 C 0.53867 0.00421 -0.07260
 C50 C 0.53696 0.00087 -0.11280
 C51 C 0.49884 0.00208 -0.13965
 C52 C 0.46292 0.00526 -0.12510
 C53 C 0.46492 0.00783 -0.08458
 C54 C 0.54158 0.05580 0.01908
 C55 C 0.54603 0.09468 0.02082
 C56 C 0.51644 0.13397 -0.00884
 C57 C 0.48167 0.13368 -0.03937
 C58 C 0.47734 0.09497 -0.04114
 C59 C 0.46498 0.03182 0.05581
 C60 C 0.46103 0.03790 0.09410
 C61 C 0.48900 0.00647 0.13187
 C62 C 0.52150 -0.03070 0.13053
 C63 C 0.52555 -0.03665 0.09232
 C64 C 0.46428 -0.06679 0.01724
 C65 C 0.46236 -0.10604 0.01357
 C66 C 0.49455 -0.13485 0.00210
 C67 C 0.52889 -0.12378 -0.00530
 C68 C 0.53099 -0.08467 -0.00126
 H69 H 0.56791 0.00448 -0.05274
 H70 H 0.56486 -0.00106 -0.12348
 H71 H 0.43321 0.00618 -0.14525
 H72 H 0.43669 0.01107 -0.07411
 H73 H 0.56539 0.02571 0.04139
 H74 H 0.57333 0.09385 0.04449
 H75 H 0.45059 0.09560 -0.06537
 H76 H 0.44219 0.05575 0.02709
 H77 H 0.43533 0.06658 0.09416
 H78 H 0.54390 -0.05519 0.15909
 H79 H 0.55061 -0.06575 0.09210
 H80 H 0.43893 -0.04492 0.02583
 H81 H 0.43538 -0.11362 0.01915
 H82 H 0.55454 -0.14574 -0.01346
 H83 H 0.55825 -0.07724 -0.00620
 H84 H 0.45779 0.16345 -0.06210
 C85 C 0.00142 0.48886 1.00013
 C86 C 0.03076 0.49583 1.02885
 C87 C 0.06953 0.50204 1.02069
 C88 C 0.02575 0.49742 1.07041
 C89 C -0.03770 0.48344 1.00819
 C90 C 0.00556 0.48725 0.95824
 C91 C 0.11089 0.47603 1.04915
 C92 C 0.14783 0.48153 1.04271
 C93 C 0.14425 0.51332 1.00769
 C94 C 0.10277 0.53958 0.97924
 C95 C 0.06568 0.53424 0.98587
 C96 C 0.02572 0.46155 1.09845
 C97 C 0.02162 0.46350 1.13776
 C98 C 0.01738 0.50138 1.14954
 C99 C 0.01762 0.53711 1.12138
 C100 C 0.02208 0.53501 1.08230
 C101 C -0.06927 0.51633 1.01631
 C102 C -0.10843 0.51288 1.01848
 C103 C -0.11682 0.47671 1.01207
 C104 C -0.08451 0.44329 1.00528
 C105 C -0.04545 0.44670 1.00325
 C106 C -0.02962 0.51429 0.92271
 C107 C -0.02849 0.51115 0.88310
 C108 C 0.00785 0.48082 0.87810
 C109 C 0.04364 0.45437 0.91355
 C110 C 0.04235 0.45731 0.95343
 H111 H 0.11459 0.45111 1.07626
 H112 H 0.17935 0.46042 1.06488
 H113 H 0.09898 0.56470 0.95227
 H114 H 0.03399 0.55537 0.96403
 H115 H 0.02906 0.43209 1.08995
 H116 H 0.02133 0.43558 1.15879
 H117 H 0.02239 0.56285 1.06114
 H118 H -0.06432 0.54536 1.01934
 H119 H -0.13291 0.53936 1.02328
 H120 H -0.08976 0.41477 1.00084
 H121 H -0.02155 0.42106 0.99681
 H122 H -0.05829 0.53760 0.92573
 H123 H -0.05622 0.53241 0.85627
 H124 H 0.07191 0.43053 0.91052
 H125 H 0.06953 0.43562 0.98053
 H126 H 0.01502 0.56646 1.12987
 C127 C 0.01369 -0.01947 0.50391
 C128 C -0.02107 0.01297 0.50591
 C129 C -0.06256 0.00841 0.50670
 C130 C -0.01945 0.05560 0.50661
 C131 C 0.05276 -0.01182 0.49937
 C132 C 0.01468 -0.06352 0.50557
 C133 C -0.08471 -0.00519 0.47605
 C134 C -0.12447 -0.00791 0.47663
 C135 C -0.14308 0.00356 0.50748
 C136 C -0.12093 0.01739 0.53792
 C137 C -0.08113 0.01986 0.53746
 C138 C -0.04801 0.09274 0.47401
 C139 C -0.04751 0.13319 0.47478
 C140 C -0.01874 0.13732 0.50847
 C141 C 0.00983 0.09991 0.54117
 C142 C 0.00939 0.05943 0.54027
 C143 C 0.09073 -0.02898 0.53355
 C144 C 0.12740 -0.02103 0.52973
 C145 C 0.12685 0.00321 0.49135
 C146 C 0.08904 0.01973 0.45693
 C147 C 0.05200 0.01265 0.46105
 C148 C 0.00413 -0.08688 0.53730
 C149 C 0.00566 -0.12843 0.53843
 C150 C 0.01862 -0.14771 0.50835
 C151 C 0.02976 -0.12453 0.47705
 C152 C 0.02781 -0.08292 0.47569
 H153 H -0.07149 -0.01317 0.45142
 H154 H -0.14115 -0.01805 0.45240
 H155 H -0.13423 0.02599 0.56231
 H156 H -0.06467 0.03060 0.56129
 H157 H -0.07052 0.09031 0.44783
 H158 H -0.06945 0.16119 0.44879
 H159 H 0.03109 0.03115 0.56610
 H160 H 0.09167 -0.04796 0.56327
 H161 H 0.15642 -0.03425 0.55652
 H162 H 0.08806 0.03855 0.42712
 H163 H 0.02283 0.02598 0.43441
 H164 H -0.00500 -0.07310 0.56135
 H165 H -0.00253 -0.14581 0.56324
 H166 H 0.03942 -0.13837 0.45321
 H167 H 0.03621 -0.06567 0.45096
 H168 H 0.03186 0.10201 0.56789
 C169 C -0.28720 0.47634 1.00087
 C170 C -0.31721 0.48227 0.96273
 C171 C -0.35912 0.48518 0.96145
 C172 C -0.37135 0.48214 0.99800
 C173 C -0.34032 0.47596 1.03555
 N174 N -0.29976 0.47361 1.03596
 C175 C -0.24290 0.47481 1.00359
 N176 N -0.22242 0.48802 1.03397
 C177 C -0.18220 0.48857 1.03763
 C178 C -0.16003 0.47496 1.00976
 C179 C -0.18024 0.46044 0.97873
 C180 C -0.22147 0.46022 0.97559
 H181 H -0.38209 0.49030 0.93174
 H182 H -0.34846 0.47382 1.06442
 H183 H -0.16753 0.49946 1.06235
 H184 H -0.16449 0.44995 0.95637
 H185 H -0.30904 0.48591 0.93388
 H186 H -0.23606 0.44842 0.95167
 C187 C 0.30444 0.52310 0.98878
 C188 C 0.31346 0.53372 0.95093
 C189 C 0.35542 0.53048 0.95160
 C190 C 0.38858 0.51703 0.98981
 C191 C 0.37774 0.50804 1.02687
 N192 N 0.33682 0.51107 1.02534
 C193 C 0.26138 0.52359 0.99099
 N194 N 0.25467 0.51826 1.02902
 C195 C 0.21741 0.51594 1.03482
 C196 C 0.18387 0.51865 1.00107
 C197 C 0.18957 0.52484 0.96139
 C198 C 0.22821 0.52717 0.95618
 H199 H 0.36184 0.53824 0.92210
 H200 H 0.40183 0.49787 1.05717
 H201 H 0.21415 0.51177 1.06587
 H202 H 0.16472 0.52652 0.93462
 H203 H 0.28886 0.54443 0.92098
 H204 H 0.23198 0.53050 0.92543
 C205 C 0.02111 -0.31683 0.50906
 C206 C 0.05909 -0.35410 0.51937
 C207 C 0.05590 -0.39364 0.51896
 C208 C 0.01493 -0.39633 0.50826
 C209 C -0.02223 -0.35810 0.49809
 N210 N -0.01820 -0.32011 0.49902
 C211 C 0.02238 -0.27415 0.50967
 N212 N -0.01142 -0.24443 0.51621
 C213 C -0.01299 -0.20433 0.51660
 C214 C 0.02058 -0.19184 0.50945
 C215 C 0.05561 -0.22184 0.50237
 C216 C 0.05669 -0.26295 0.50251
 H217 H 0.08558 -0.42208 0.52735
 H218 H -0.05456 -0.35830 0.48984
 H219 H -0.04088 -0.18196 0.52161
 H220 H 0.08224 -0.21353 0.49685
 H221 H 0.09102 -0.35316 0.52860
 H222 H 0.08362 -0.28516 0.49613
 C223 C -0.01639 0.30404 0.51378
 C224 C -0.05318 0.34097 0.50848
 C225 C -0.04874 0.37992 0.50906
 C226 C -0.00777 0.38231 0.51546
 C227 C 0.02834 0.34452 0.52175
 N228 N 0.02314 0.30703 0.52062
 C229 C -0.01885 0.26182 0.51233
 N230 N 0.01881 0.22591 0.52603
 C231 C 0.01970 0.18610 0.52525
 C232 C -0.01906 0.18057 0.50974
 C233 C -0.05825 0.21712 0.49528
 C234 C -0.05833 0.25765 0.49629
 H235 H -0.07742 0.40816 0.50456
 H236 H 0.06058 0.34483 0.52694
 H237 H 0.05077 0.15900 0.53614
 H238 H -0.08900 0.21441 0.48343
 H239 H -0.08513 0.34027 0.50428
 H240 H -0.08908 0.28508 0.48397
 C241 C 0.49377 0.00970 -0.30957
 C242 C 0.47824 0.04956 -0.34028
 C243 C 0.47883 0.05055 -0.38094
 C244 C 0.49436 0.01186 -0.39146
 C245 C 0.51036 -0.02743 -0.35942
 N246 N 0.50989 -0.02748 -0.31985
 C247 C 0.49342 0.00744 -0.26622
 N248 N 0.52692 -0.02381 -0.23387
 C249 C 0.52901 -0.02664 -0.19329
 C250 C 0.49579 0.00281 -0.18351
 C251 C 0.46040 0.03446 -0.21639
 C252 C 0.45918 0.03701 -0.25773
 H253 H 0.46637 0.08173 -0.40421
 H254 H 0.52307 -0.05812 -0.36571
 H255 H 0.55662 -0.05175 -0.16869
 H256 H 0.43426 0.05786 -0.21006
 H257 H 0.46616 0.07973 -0.33290
 H258 H 0.43166 0.06172 -0.28275
 C259 C 0.47446 0.02160 0.29300
 C260 C 0.45778 0.06050 0.30282
 C261 C 0.45838 0.05932 0.34386
 C262 C 0.47509 0.01962 0.37516
 C263 C 0.49032 -0.01848 0.36385
 N264 N 0.48972 -0.01651 0.32377
 C265 C 0.47631 0.02012 0.25047
 N266 N 0.48430 -0.01840 0.24191
 C267 C 0.48806 -0.02334 0.20443
 C268 C 0.48395 0.01188 0.17258
 C269 C 0.47553 0.05200 0.18047
 C270 C 0.47189 0.05627 0.21931
 H271 H 0.44592 0.08953 0.35111
 H272 H 0.50334 -0.04984 0.38688
 H273 H 0.49401 -0.05476 0.19952
 H274 H 0.47282 0.07983 0.15695
 H275 H 0.44413 0.09159 0.27942
 H276 H 0.46679 0.08730 0.22475
 C277 C 0.48733 -0.29762 -0.01002
 C278 C 0.47832 -0.30783 -0.04778
 C279 C 0.47959 -0.34904 -0.04717
 C280 C 0.48967 -0.38016 -0.00910
 C281 C 0.49699 -0.36819 0.02784
 N282 N 0.49569 -0.32783 0.02646
 C283 C 0.48837 -0.25509 -0.00866
 N284 N 0.48029 -0.24030 0.02394
 C285 C 0.48169 -0.20201 0.02780
 C286 C 0.49239 -0.17640 -0.00199
 C287 C 0.50130 -0.19121 -0.03560
 C288 C 0.49931 -0.23044 -0.03908
 H289 H 0.47337 -0.35671 -0.07648
 H290 H 0.50454 -0.39105 0.05785
 H291 H 0.47520 -0.19200 0.05451
 H292 H 0.50955 -0.17234 -0.05930
 H293 H 0.47022 -0.28436 -0.07755
 H294 H 0.50724 -0.24159 -0.06481
 C295 C 0.53123 0.29685 -0.00876
 C296 C 0.53315 0.32535 -0.04325
 C297 C 0.53072 0.36640 -0.04178
 C298 C 0.52736 0.37904 -0.00583
 C299 C 0.52795 0.34891 0.02881
 N300 N 0.52942 0.30931 0.02636
 C301 C 0.52960 0.25429 -0.00986
 N302 N 0.53787 0.22423 0.02675
 C303 C 0.53485 0.18537 0.02807
 C304 C 0.52214 0.17516 -0.00911
 C305 C 0.51383 0.20550 -0.04710
 C306 C 0.51724 0.24497 -0.04768
 H307 H 0.53118 0.38839 -0.06895
 H308 H 0.52569 0.35730 0.05726
 H309 H 0.54121 0.16306 0.05806
 H310 H 0.50447 0.19881 -0.07654
 H311 H 0.53634 0.31654 -0.07127
 H312 H 0.50897 0.26804 -0.07767
 C313 C -0.30978 -0.00000 0.50913
 C314 C -0.31796 -0.03790 0.51736
 C315 C -0.35984 -0.03501 0.51621
 C316 C -0.39363 0.00545 0.50707
 C317 C -0.38385 0.04244 0.50012
 N318 N -0.34280 0.03882 0.50132
 C319 C -0.26630 -0.00086 0.50896
 N320 N -0.25605 0.03286 0.51592
 C321 C -0.21709 0.03484 0.51572
 C322 C -0.18570 0.00168 0.50772
 C323 C -0.19573 -0.03312 0.49988
 C324 C -0.23590 -0.03454 0.50045
 H325 H -0.36580 -0.06445 0.52208
 H326 H -0.40883 0.07427 0.49321
 H327 H -0.21095 0.06263 0.52122
 H328 H -0.17239 -0.05939 0.49365
 H329 H -0.29243 -0.06951 0.52499
 H330 H -0.24313 -0.06132 0.49351
 C331 C 0.28378 0.02349 0.47920
 C332 C 0.29418 0.05861 0.48539
 C333 C 0.33505 0.05818 0.48521
 C334 C 0.36566 0.02259 0.47949
 C335 C 0.35358 -0.01139 0.47244
 N336 N 0.31342 -0.01004 0.47230
 C337 C 0.24194 0.02135 0.48126
 N338 N 0.22267 0.00278 0.45564
 C339 C 0.18523 -0.00213 0.45749
 C340 C 0.16593 0.01082 0.48730
 C341 C 0.18529 0.02980 0.51415
 C342 C 0.22310 0.03551 0.51097
 H343 H 0.34317 0.08502 0.49077
 H344 H 0.37616 -0.03920 0.46748
 H345 H 0.17122 -0.01722 0.43654
 H346 H 0.17118 0.04002 0.53758
 H347 H 0.27103 0.08602 0.49036
 H348 H 0.23820 0.04948 0.53243
 C349 C 0.00516 0.50817 1.31288
 C350 C -0.03308 0.53199 1.32036
 C351 C -0.03305 0.53033 1.36133
 C352 C 0.00493 0.50514 1.39489
 C353 C 0.04250 0.48198 1.38606
 N354 N 0.04158 0.48380 1.34592
 C355 C 0.00675 0.50758 1.27026
 N356 N 0.03606 0.47227 1.26538
 C357 C 0.03964 0.46935 1.22729
 C358 C 0.01307 0.50365 1.19115
 C359 C -0.01709 0.54055 1.19546
 C360 C -0.02041 0.54265 1.23486
 H361 H -0.06286 0.54845 1.36674
 H362 H 0.07241 0.46186 1.41100
 H363 H 0.06376 0.44060 1.22537
 H364 H -0.03824 0.56768 1.16832
 H365 H -0.06302 0.55083 1.29509
 H366 H -0.04338 0.57173 1.23746
 C367 C 0.00282 0.47609 0.71049
 C368 C -0.03656 0.49465 0.67761
 C369 C -0.03604 0.49697 0.63676
 C370 C 0.00353 0.48115 0.62826
 C371 C 0.04222 0.46285 0.66193
 N372 N 0.04091 0.46104 0.70157
 C373 C 0.00405 0.47447 0.75422
 N374 N 0.04066 0.47264 0.78151
 C375 C 0.04328 0.47325 0.82153
 C376 C 0.00733 0.47647 0.83590
 C377 C -0.03011 0.47685 0.80879
 C378 C -0.03182 0.47558 0.76817
 H379 H -0.06666 0.51174 0.61177
 H380 H 0.07348 0.45047 0.65676
 H381 H 0.07283 0.47266 0.84159
 H382 H -0.05813 0.47811 0.81907
 H383 H -0.06753 0.50845 0.68290
 H384 H -0.06093 0.47532 0.74821
   
