data_POSCAR
  _audit_creation_date              2014-09-24
  _audit_creation_method            'ToBaCCo'
  _symmetry_space_group_name_H-M    'P1'
  _symmetry_Int_Tables_number       1
  _symmetry_cell_setting            triclinic
  loop_
  _symmetry_equiv_pos_as_xyz
 x,y,z
_cell_length_a 22.6824
_cell_length_b 23.4669
_cell_length_c 31.1295
_cell_angle_alpha 94.702500
_cell_angle_beta 98.390100
_cell_angle_gamma 102.737200
loop_
  _atom_site_label
  _atom_site_type_symbol
  _atom_site_fract_x
  _atom_site_fract_y
  _atom_site_fract_z
C1 C 0.00360 0.50254 0.98464
 C2 C -0.02700 0.51036 1.01840
 C3 C -0.04392 0.56683 1.02873
 C4 C -0.04063 0.46573 1.04918
 C5 C 0.02085 0.44656 0.97313
 C6 C 0.02365 0.55090 0.95824
 C7 C 0.00102 0.61771 1.04646
 C8 C -0.01574 0.66985 1.05852
 C9 C -0.07811 0.67230 1.05275
 C10 C -0.12268 0.62107 1.03357
 C11 C -0.10573 0.56883 1.02231
 C12 C -0.02277 0.48333 1.09428
 C13 C -0.03218 0.44263 1.12419
 C14 C -0.05895 0.38307 1.10978
 C15 C -0.07836 0.36530 1.06474
 C16 C -0.07020 0.40655 1.03469
 C17 C -0.00122 0.41633 0.93114
 C18 C 0.01280 0.36276 0.91960
 C19 C 0.04959 0.33843 0.94984
 C20 C 0.07289 0.36954 0.99165
 C21 C 0.05904 0.42342 1.00310
 C22 C -0.01857 0.57742 0.93480
 C23 C 0.00193 0.62519 0.91231
 C24 C 0.06501 0.64680 0.91251
 C25 C 0.10684 0.61873 0.93480
 C26 C 0.08634 0.57125 0.95738
 H27 H 0.04902 0.61666 1.05169
 H28 H 0.02062 0.70773 1.07247
 H29 H -0.17108 0.62057 1.02823
 H30 H -0.14092 0.52974 1.00863
 H31 H -0.00015 0.52860 1.10646
 H32 H -0.01684 0.45762 1.15869
 H33 H -0.08611 0.39212 1.00019
 H34 H -0.03030 0.43383 0.90748
 H35 H -0.00593 0.34036 0.88712
 H36 H 0.10172 0.35218 1.01556
 H37 H 0.07748 0.44675 1.03542
 H38 H -0.06727 0.56153 0.93435
 H39 H -0.03169 0.64516 0.89505
 H40 H 0.15565 0.63408 0.93542
 H41 H 0.11960 0.55114 0.97508
 H42 H -0.10005 0.31977 1.05281
 C43 C 0.49582 -0.01890 0.47399
 C44 C 0.49916 -0.02168 0.51774
 C45 C 0.45405 -0.00310 0.54241
 C46 C 0.55034 -0.04081 0.54334
 C47 C 0.54416 -0.03298 0.45067
 C48 C 0.44571 0.00059 0.44740
 C49 C 0.44477 0.05409 0.54271
 C50 C 0.40224 0.07101 0.56626
 C51 C 0.36838 0.03113 0.59005
 C52 C 0.37840 -0.02592 0.59007
 C53 C 0.42112 -0.04269 0.56666
 C54 C 0.59012 -0.00191 0.57729
 C55 C 0.64127 -0.01754 0.59946
 C56 C 0.65339 -0.07260 0.58814
 C57 C 0.61206 -0.11233 0.55519
 C58 C 0.56085 -0.09668 0.53313
 C59 C 0.53119 -0.08421 0.42109
 C60 C 0.57638 -0.09760 0.39865
 C61 C 0.63461 -0.05903 0.40455
 C62 C 0.64736 -0.00753 0.43409
 C63 C 0.60256 0.00516 0.45726
 C64 C 0.38386 -0.02760 0.44575
 C65 C 0.33755 -0.00921 0.41959
 C66 C 0.35244 0.03744 0.39442
 C67 C 0.41440 0.06547 0.39631
 C68 C 0.46047 0.04711 0.42237
 H69 H 0.47062 0.08563 0.52482
 H70 H 0.39581 0.11534 0.56578
 H71 H 0.35372 -0.05765 0.60831
 H72 H 0.42812 -0.08685 0.56709
 H73 H 0.58251 0.04128 0.58577
 H74 H 0.67167 0.01405 0.62483
 H75 H 0.52996 -0.12773 0.50756
 H76 H 0.48620 -0.11395 0.41566
 H77 H 0.56538 -0.13742 0.37594
 H78 H 0.69203 0.02271 0.43950
 H79 H 0.61307 0.04498 0.47994
 H80 H 0.37154 -0.06417 0.46436
 H81 H 0.29037 -0.03191 0.41889
 H82 H 0.42746 0.10148 0.37736
 H83 H 0.50786 0.06948 0.42313
 H84 H 0.61978 -0.15524 0.54596
 C85 C 0.08082 0.06406 0.24499
 H86 H 0.07011 0.07871 0.21334
 C87 C 0.14168 0.07419 0.26550
 H88 H 0.17776 0.09666 0.24940
 C89 C 0.04653 0.01672 0.30427
 H90 H 0.00921 -0.00525 0.31937
 C91 C 0.10697 0.02536 0.32577
 H92 H 0.11553 0.01018 0.35747
 N93 N 0.03477 0.03545 0.26437
 C94 C -0.11632 -0.05791 0.16318
 H95 H -0.15258 -0.03699 0.16978
 C96 C -0.12941 -0.10795 0.13262
 H97 H -0.17592 -0.12495 0.11551
 C98 C -0.01238 -0.06287 0.17933
 H99 H 0.03286 -0.04623 0.19842
 C100 C -0.02334 -0.11278 0.14901
 H101 H 0.01424 -0.13305 0.14523
 Zn102 Zn -0.04581 0.02344 0.23309
 N103 N -0.05877 -0.03701 0.18626
 C104 C -0.07267 0.10042 0.16998
 N105 N -0.05402 0.09561 0.21284
 C106 C -0.03842 0.14341 0.24350
 C107 C -0.04268 0.19857 0.23182
 C108 C -0.07718 0.15513 0.15674
 C109 C -0.11214 -0.05629 0.28119
 C110 C -0.15757 -0.07762 0.30559
 C111 C -0.18597 0.01573 0.30606
 C112 C -0.14064 0.03496 0.28117
 N113 N -0.10453 -0.00088 0.26948
 H114 H -0.08402 0.06195 0.14605
 H115 H -0.02282 0.13846 0.27722
 H116 H -0.03017 0.23597 0.25685
 H117 H -0.09265 0.15804 0.12263
 H118 H -0.08353 -0.08429 0.27085
 H119 H -0.16358 -0.12203 0.31426
 H120 H -0.21481 0.04463 0.31428
 H121 H -0.13529 0.07820 0.27065
 C122 C -0.08291 -0.13691 0.12585
 C123 C 0.15545 0.05424 0.30620
 C124 C -0.19510 -0.04138 0.31835
 C125 C -0.06216 0.20511 0.18798
 C126 C 0.04194 0.10392 0.79558
 H127 H 0.02927 0.10690 0.76110
 C128 C 0.04599 0.15220 0.82613
 H129 H 0.03687 0.19208 0.81456
 C130 C 0.07016 0.04831 0.85195
 H131 H 0.07951 0.00774 0.86195
 C132 C 0.07502 0.09562 0.88362
 H133 H 0.08796 0.09087 0.91778
 N134 N 0.05429 0.05332 0.80879
 C135 C 0.12649 -0.03459 0.70633
 H136 H 0.10274 -0.07973 0.70689
 C137 C 0.17228 -0.02202 0.68062
 H138 H 0.18191 -0.05776 0.66076
 C139 C 0.14379 0.06630 0.73249
 H140 H 0.13371 0.10074 0.75321
 C141 C 0.18953 0.08087 0.70705
 H142 H 0.21364 0.12642 0.70837
 Zn143 Zn 0.05036 -0.01101 0.76615
 N144 N 0.11261 0.00939 0.73132
 C145 C -0.03816 -0.07702 0.69662
 N146 N -0.02817 -0.03275 0.72983
 C147 C -0.07367 -0.00602 0.73773
 C148 C -0.13118 -0.02246 0.71096
 C149 C -0.09509 -0.09522 0.66937
 C150 C 0.12196 -0.07746 0.81179
 C151 C 0.13340 -0.12544 0.83249
 C152 C 0.02464 -0.16983 0.81776
 C153 C 0.01531 -0.12110 0.79720
 N154 N 0.06369 -0.07626 0.79459
 H155 H -0.00215 -0.09882 0.69147
 H156 H -0.06595 0.02758 0.76511
 H157 H -0.16672 -0.00082 0.71802
 H158 H -0.10201 -0.13035 0.64302
 H159 H 0.15957 -0.04112 0.80930
 H160 H 0.18009 -0.12567 0.84601
 H161 H -0.01453 -0.20513 0.81902
 H162 H -0.03066 -0.11903 0.78344
 C163 C 0.20440 0.03648 0.68071
 C164 C 0.06289 0.14847 0.87090
 C165 C 0.08439 -0.17242 0.83580
 C166 C -0.14231 -0.06746 0.67609
 N167 N -0.15408 -0.22116 0.08067
 N168 N -0.15432 -0.27349 0.06106
 C169 C -0.09559 -0.27856 0.06620
 C170 C -0.05929 -0.22670 0.08946
 N171 N -0.09752 -0.19227 0.09817
 H172 H -0.01037 -0.21614 0.10058
 N173 N -0.06244 0.30821 0.20491
 N174 N -0.06175 0.35626 0.18537
 C175 C -0.06493 0.34058 0.14231
 C176 C -0.06769 0.28094 0.13607
 N177 N -0.06576 0.26242 0.17605
 H178 H -0.06732 0.25473 0.10591
 N179 N 0.27338 0.10508 0.64495
 N180 N 0.31693 0.10539 0.62081
 C181 C 0.32350 0.04968 0.61490
 C182 C 0.28215 0.01513 0.63622
 N183 N 0.25172 0.05129 0.65452
 H184 H 0.27542 -0.03148 0.63863
 N185 N -0.22024 -0.13607 0.62217
 N186 N -0.27458 -0.13914 0.59850
 C187 C -0.29045 -0.08836 0.60929
 C188 C -0.24376 -0.05406 0.64058
 N189 N -0.20089 -0.08537 0.64772
 H190 H -0.24023 -0.00994 0.65553
 N191 N 0.15098 -0.23223 0.86774
 N192 N 0.14763 -0.28002 0.88799
 C193 C 0.08804 -0.30119 0.89047
 C194 C 0.05495 -0.26450 0.87097
 N195 N 0.09585 -0.22203 0.85718
 H196 H 0.00630 -0.26749 0.86831
 N197 N 0.09591 0.20199 0.94441
 N198 N 0.09359 0.25204 0.96639
 C199 C 0.06331 0.28077 0.93823
 C200 C 0.04720 0.24644 0.89817
 N201 N 0.06839 0.19772 0.90331
 H202 H 0.02187 0.25564 0.86841
 N203 N -0.27157 -0.11988 0.33962
 N204 N -0.31764 -0.12642 0.36194
 C205 C -0.31893 -0.07211 0.37910
 C206 C -0.27227 -0.03206 0.36646
 N207 N -0.24391 -0.06353 0.34173
 H208 H -0.26111 0.01534 0.37371
 N209 N 0.26400 0.10319 0.31690
 N210 N 0.31694 0.10007 0.33974
 C211 C 0.30467 0.05674 0.36536
 C212 C 0.24196 0.03348 0.35747
 N213 N 0.21832 0.06367 0.32703
 H214 H 0.21634 -0.00298 0.37130
   
