data_POSCAR
  _audit_creation_date              2014-09-24
  _audit_creation_method            'ToBaCCo'
  _symmetry_space_group_name_H-M    'P1'
  _symmetry_Int_Tables_number       1
  _symmetry_cell_setting            triclinic
  loop_
  _symmetry_equiv_pos_as_xyz
 x,y,z
_cell_length_a 26.8237
_cell_length_b 24.2270
_cell_length_c 26.8434
_cell_angle_alpha 102.136900
_cell_angle_beta 87.364100
_cell_angle_gamma 89.329100
loop_
  _atom_site_label
  _atom_site_type_symbol
  _atom_site_fract_x
  _atom_site_fract_y
  _atom_site_fract_z
N1 N 0.56413 0.59316 0.56387
 N2 N 0.54653 0.60029 0.61161
 C3 C 0.50124 0.62587 0.61606
 C4 C 0.48975 0.63465 0.56860
 C5 C 0.53004 0.61291 0.53636
 H6 H 0.47960 0.63980 0.65159
 H7 H 0.53635 0.61680 0.49716
 Cu8 Cu 0.58612 0.58096 0.66552
 Cu9 Cu 0.63499 0.57500 0.54322
 Cu10 Cu 0.70930 0.56751 0.63852
 N11 N 0.62875 0.53626 0.69998
 N12 N 0.67732 0.53227 0.69008
 C13 C 0.69768 0.49906 0.71839
 C14 C 0.65971 0.48060 0.74701
 C15 C 0.61636 0.50513 0.73461
 H16 H 0.73692 0.48762 0.71689
 H17 H 0.57871 0.50026 0.74908
 N18 N 0.73547 0.58668 0.57575
 N19 N 0.70656 0.58629 0.53742
 C20 C 0.73328 0.60088 0.49880
 C21 C 0.78114 0.61243 0.51425
 C22 C 0.78143 0.60287 0.56326
 H23 H 0.71796 0.60666 0.46361
 H24 H 0.81215 0.60907 0.58844
 H25 H 0.62779 0.53817 0.60610
 H26 H 0.63599 0.61624 0.61776
 N27 N 0.93405 0.29519 0.09257
 N28 N 0.95011 0.32945 0.13309
 C29 C 0.99546 0.31134 0.14314
 C30 C 1.00861 0.26344 0.10654
 C31 C 0.96891 0.25450 0.07487
 H32 H 1.01693 0.33120 0.17492
 H33 H 0.96472 0.21977 0.04273
 Cu34 Cu 0.90975 0.39388 0.16957
 Cu35 Cu 0.86705 0.30375 0.06955
 Cu36 Cu 0.82785 0.44382 0.09752
 N37 N 0.87595 0.46666 0.19284
 N38 N 0.84558 0.48706 0.16374
 C39 C 0.83083 0.53977 0.18724
 C40 C 0.85262 0.55257 0.23380
 C41 C 0.88096 0.50530 0.23625
 H42 H 0.80619 0.56673 0.17160
 H43 H 0.90472 0.50019 0.26651
 N44 N 0.79845 0.38588 0.04461
 N45 N 0.81148 0.33187 0.03614
 C46 C 0.78154 0.30222 0.00188
 C47 C 0.74837 0.33952 -0.01214
 C48 C 0.76016 0.39220 0.01539
 H49 H 0.78391 0.25696 -0.01205
 H50 H 0.74118 0.43185 0.01543
 H51 H 0.88650 0.38484 0.08136
 H52 H 0.83337 0.37121 0.12439
 N53 N 0.42086 0.18317 -0.12599
 N54 N 0.42802 0.15531 -0.17347
 C55 C 0.46434 0.17990 -0.19674
 C56 C 0.48130 0.22510 -0.16179
 C57 C 0.45300 0.22611 -0.11716
 H58 H 0.47830 0.16511 -0.23579
 H59 H 0.45534 0.25591 -0.08120
 Cu60 Cu 0.39116 0.08774 -0.20021
 Cu61 Cu 0.36871 0.16149 -0.08103
 Cu62 Cu 0.34949 0.01752 -0.11151
 N63 N 0.36883 0.01056 -0.21871
 N64 N 0.35402 -0.01749 -0.18395
 C65 C 0.34471 -0.07108 -0.20697
 C66 C 0.35389 -0.07655 -0.25890
 C67 C 0.36906 -0.02396 -0.26506
 H68 H 0.33284 -0.10374 -0.18736
 H69 H 0.38109 -0.01226 -0.30037
 N70 N 0.32795 0.06592 -0.04496
 N71 N 0.33279 0.12129 -0.03447
 C72 C 0.30773 0.14323 0.01004
 C73 C 0.28648 0.09941 0.02857
 C74 C 0.30026 0.05103 -0.00695
 H75 H 0.30382 0.18784 0.02679
 H76 H 0.28792 0.00868 -0.00695
 H77 H 0.39779 0.08431 -0.11053
 H78 H 0.33193 0.09416 -0.12759
 N79 N 0.03753 0.90645 0.45183
 N80 N 0.01773 0.94062 0.42571
 C81 C -0.02651 0.92068 0.40930
 C82 C -0.03445 0.87081 0.42537
 C83 C 0.00654 0.86332 0.45296
 H84 H -0.04936 0.93898 0.38449
 H85 H 0.01481 0.82756 0.46972
 Cu86 Cu 0.05482 1.00284 0.40844
 Cu87 Cu 0.10513 0.91754 0.47545
 Cu88 Cu 0.17802 0.97551 0.39023
 N89 N 0.09719 1.04589 0.37143
 N90 N 0.14489 1.03319 0.36116
 C91 C 0.16254 1.06253 0.32679
 C92 C 0.12364 1.09549 0.31575
 C93 C 0.08304 1.08421 0.34510
 H94 H 0.19995 1.05811 0.30938
 H95 H 0.04498 1.09896 0.34389
 N96 N 0.20611 0.93150 0.43748
 N97 N 0.17809 0.91256 0.47180
 C98 C 0.20717 0.88624 0.49937
 C99 C 0.25592 0.88797 0.48122
 C100 C 0.25412 0.91688 0.44200
 H101 H 0.19355 0.86533 0.52900
 H102 H 0.28539 0.92639 0.41856
 H103 H 0.13037 0.99224 0.45295
 H104 H 0.11748 0.92819 0.40342
 N105 N 0.14870 0.16230 0.15472
 N106 N 0.36541 0.78774 0.57636
 N107 N 0.86759 0.70138 0.38807
 N108 N 0.62772 0.34759 -0.14302
 N109 N 0.10105 0.15749 0.08038
 N110 N 0.06164 0.18309 0.06659
 C111 C 0.05083 0.22879 0.10412
 C112 C 0.08529 0.23100 0.14111
 N113 N 0.11557 0.18549 0.12496
 H114 H 0.08608 0.26016 0.17763
 N115 N 0.40170 0.71085 0.51238
 N116 N 0.43490 0.66908 0.50872
 C117 C 0.44899 0.66971 0.55643
 C118 C 0.42378 0.71337 0.58958
 N119 N 0.39470 0.73788 0.56051
 H120 H 0.42882 0.72792 0.62993
 N121 N 0.86557 0.79469 0.36992
 N122 N 0.89155 0.84156 0.37945
 C123 C 0.92758 0.83309 0.41070
 C124 C 0.92276 0.77964 0.42051
 N125 N 0.88366 0.75739 0.39435
 H126 H 0.94699 0.75795 0.44161
 N127 N 0.57659 0.30306 -0.21096
 N128 N 0.53783 0.26936 -0.21754
 C129 C 0.52183 0.26257 -0.17084
 C130 C 0.55204 0.29302 -0.13519
 N131 N 0.58554 0.31756 -0.16192
 H132 H 0.55106 0.29533 -0.09444
 N133 N 0.08766 0.17378 0.22501
 N134 N 0.07992 0.15705 0.26845
 C135 C 0.12118 0.12789 0.27541
 C136 C 0.15494 0.12743 0.23478
 N137 N 0.13227 0.15642 0.20410
 H138 H 0.19086 0.10580 0.22728
 N139 N 0.69915 0.38790 -0.17868
 N140 N 0.70905 0.42333 -0.20909
 C141 C 0.66473 0.44329 -0.22046
 C142 C 0.62705 0.41899 -0.19608
 N143 N 0.65033 0.38489 -0.17056
 H144 H 0.58707 0.42441 -0.19755
 N145 N 0.34685 0.78429 0.66481
 N146 N 0.34308 0.81976 0.70985
 C147 C 0.35155 0.87188 0.70119
 C148 C 0.36039 0.86752 0.64953
 N149 N 0.35733 0.81239 0.62851
 H150 H 0.36946 0.90060 0.62931
 N151 N 0.83561 0.69420 0.30411
 N152 N 0.83070 0.65507 0.26204
 C153 C 0.84866 0.60616 0.27140
 C154 C 0.86454 0.61619 0.32053
 N155 N 0.85553 0.67140 0.33944
 H156 H 0.88178 0.58686 0.34024
 N157 N 0.20109 0.07865 0.12837
 N158 N 0.23755 0.05975 0.09371
 C159 C 0.25098 0.10358 0.07260
 C160 C 0.22158 0.14993 0.09519
 N161 N 0.19153 0.13276 0.13011
 H162 H 0.21983 0.19084 0.08506
 N163 N 0.88187 0.68970 0.47380
 N164 N 0.85968 0.66573 0.50880
 C165 C 0.82024 0.63795 0.48698
 C166 C 0.81901 0.64524 0.43757
 N167 N 0.85810 0.67735 0.43087
 H168 H 0.79083 0.63169 0.41026
 N169 N 0.65837 0.27746 -0.09947
 N170 N 0.69156 0.27334 -0.06526
 C171 C 0.70877 0.32576 -0.04840
 C172 C 0.68513 0.36232 -0.07310
 N173 N 0.65405 0.33048 -0.10445
 H174 H 0.69141 0.40689 -0.07031
 N175 N 0.37165 0.82162 0.49771
 N176 N 0.34354 0.84952 0.47143
 C177 C 0.29944 0.86101 0.49821
 C178 C 0.30126 0.83963 0.54181
 N179 N 0.34670 0.81545 0.53980
 H180 H 0.27235 0.84048 0.57147
   
