data_POSCAR
  _audit_creation_date              2014-09-24
  _audit_creation_method            'ToBaCCo'
  _symmetry_space_group_name_H-M    'P1'
  _symmetry_Int_Tables_number       1
  _symmetry_cell_setting            triclinic
  loop_
  _symmetry_equiv_pos_as_xyz
 x,y,z
_cell_length_a 23.4347
_cell_length_b 23.4725
_cell_length_c 64.8034
_cell_angle_alpha 89.991300
_cell_angle_beta 90.106400
_cell_angle_gamma 119.914800
loop_
  _atom_site_label
  _atom_site_type_symbol
  _atom_site_fract_x
  _atom_site_fract_y
  _atom_site_fract_z
C1 C -0.06020 -0.07186 0.48333
 C2 C -0.01947 -0.03701 0.50005
 C3 C -0.01345 -0.07166 0.51679
 C4 C -0.04729 -0.14054 0.51672
 C5 C -0.08839 -0.17503 0.50008
 C6 C -0.09513 -0.14073 0.48343
 C7 C 0.01679 0.03557 0.50003
 C8 C 0.01054 0.07044 0.51666
 C9 C 0.04447 0.13927 0.51655
 C10 C 0.08583 0.17355 0.50002
 C11 C 0.09279 0.13908 0.48349
 C12 C 0.05783 0.07026 0.48340
 H13 H -0.06540 -0.04525 0.47045
 H14 H 0.01841 -0.04492 0.52966
 H15 H -0.02148 0.04402 0.52948
 H16 H 0.06336 0.04369 0.47059
 H17 H -0.11503 -0.22840 0.50010
 H18 H 0.11252 0.22686 0.50001
 C19 C 1.07263 0.00997 0.14974
 C20 C 1.03794 0.01594 0.16647
 C21 C 1.07289 0.05670 0.18316
 C22 C 1.14181 0.09166 0.18305
 C23 C 1.17617 0.08501 0.16643
 C24 C 1.14163 0.04390 0.14981
 C25 C 0.96525 -0.02029 0.16649
 C26 C 0.93058 -0.06099 0.18319
 C27 C 0.86164 -0.09580 0.18313
 C28 C 0.82704 -0.08903 0.16655
 C29 C 0.86131 -0.04801 0.14995
 C30 C 0.93024 -0.01424 0.14982
 H31 H 1.04583 -0.02189 0.13689
 H32 H 1.04643 0.06202 0.19604
 H33 H 0.95725 -0.06635 0.19603
 H34 H 0.95665 0.01755 0.13696
 H35 H 1.22959 0.11180 0.16646
 H36 H 0.77364 -0.11558 0.16658
 C37 C 0.05887 0.98974 0.85047
 C38 C 0.01792 0.98375 0.83378
 C39 C 0.01189 0.94301 0.81707
 C40 C 0.04593 0.90809 0.81713
 C41 C 0.08722 0.91476 0.83372
 C42 C 0.09401 0.95584 0.85036
 C43 C -0.01854 1.02001 0.83379
 C44 C -0.01263 1.06083 0.81712
 C45 C -0.04674 1.09567 0.81720
 C46 C -0.08801 1.08884 0.83376
 C47 C -0.09468 1.04768 0.85035
 C48 C -0.05947 1.01387 0.85046
 H49 H 0.06411 1.02160 0.86333
 H50 H -0.02008 0.93769 0.80421
 H51 H 0.01931 1.06625 0.80428
 H52 H -0.06463 0.98193 0.86328
 H53 H 0.11393 0.88802 0.83365
 H54 H -0.11480 1.11550 0.83369
 O55 O 0.58268 0.05550 -0.02025
 O56 O 0.47196 0.05492 0.01991
 O57 O 0.58210 0.05311 0.01996
 O58 O 0.47072 0.05372 -0.02031
 O59 O 0.41664 -0.05498 -0.02038
 O60 O 0.52756 -0.05559 0.01965
 O61 O 0.41743 -0.05378 0.01985
 O62 O 0.52860 -0.05320 -0.02056
 Cu63 Cu 0.53234 0.06527 -0.00016
 Cu64 Cu 0.46708 -0.06534 -0.00038
 C65 C 0.57439 0.00144 -0.02724
 C66 C 0.42617 0.00067 0.02672
 C67 C 0.57340 -0.00154 0.02662
 C68 C 0.42491 -0.00072 -0.02715
 O69 O 0.05376 0.47337 0.64652
 O70 O 0.05419 0.58436 0.68656
 O71 O 0.05224 0.47254 0.68674
 O72 O 0.05214 0.58346 0.64634
 O73 O -0.05673 0.52914 0.64646
 O74 O -0.05664 0.41867 0.68661
 O75 O -0.05469 0.53050 0.68668
 O76 O -0.05511 0.41905 0.64639
 Cu77 Cu 0.06406 0.53389 0.66654
 Cu78 Cu -0.06677 0.46889 0.66653
 C79 C -0.00055 0.42761 0.63965
 C80 C 0.00001 0.57620 0.69344
 C81 C -0.00237 0.42692 0.69351
 C82 C -0.00250 0.57481 0.63957
 O83 O 0.47427 0.41601 0.31367
 O84 O 0.58450 0.52703 0.35383
 O85 O 0.47282 0.41702 0.35389
 O86 O 0.58413 0.52777 0.31360
 O87 O 0.52918 0.58174 0.31351
 O88 O 0.41833 0.47145 0.35355
 O89 O 0.53000 0.58146 0.35373
 O90 O 0.41933 0.46999 0.31333
 Cu91 Cu 0.53445 0.46650 0.33377
 Cu92 Cu 0.46870 0.53163 0.33351
 C93 C 0.42834 0.42422 0.30667
 C94 C 0.57591 0.57284 0.36061
 C95 C 0.42681 0.42575 0.36052
 C96 C 0.57521 0.57341 0.30674
 C97 C 0.02074 0.24101 0.56361
 N98 N 0.04341 0.24056 0.58284
 N99 N 0.03686 0.27532 0.59798
 C100 C 0.00733 0.31148 0.59434
 N101 N -0.01541 0.31186 0.57511
 N102 N -0.00886 0.27710 0.55998
 C103 C 0.02905 0.20477 0.54720
 C104 C 0.03616 0.17477 0.53329
 C105 C 0.00264 0.35096 0.61042
 C106 C 0.00021 0.38527 0.62383
 C107 C 0.76065 0.77989 0.23041
 N108 N 0.76026 0.80343 0.24950
 N109 N 0.72577 0.76245 0.26470
 C110 C 0.69076 0.69670 0.26129
 N111 N 0.69122 0.67317 0.24222
 N112 N 0.72570 0.71415 0.22702
 C113 C 0.79660 0.82404 0.21392
 C114 C 0.82638 0.86081 0.19994
 C115 C 0.65154 0.65284 0.27744
 C116 C 0.61740 0.61631 0.29089
 C117 C 0.21687 -0.02146 -0.10332
 N118 N 0.28270 0.00957 -0.10673
 N119 N 0.32399 0.01597 -0.09156
 C120 C 0.30070 -0.00834 -0.07251
 N121 N 0.23487 -0.03930 -0.06909
 N122 N 0.19358 -0.04571 -0.08426
 C123 C 0.17240 -0.02958 -0.11978
 C124 C 0.13537 -0.03651 -0.13374
 C125 C 0.34490 -0.00376 -0.05641
 C126 C 0.38171 -0.00140 -0.04298
 C127 C -0.02427 0.76027 0.56319
 N128 N -0.04957 0.75862 0.58213
 N129 N -0.04300 0.72408 0.59735
 C130 C -0.01084 0.69027 0.59409
 N131 N 0.01452 0.69199 0.57515
 N132 N 0.00796 0.72652 0.55994
 C133 C -0.03253 0.79627 0.54668
 C134 C -0.03956 0.82607 0.53267
 C135 C -0.00603 0.65103 0.61024
 C136 C -0.00346 0.61691 0.62370
 C137 C 0.24329 0.21646 0.23031
 N138 N 0.27726 0.28225 0.22695
 N139 N 0.31176 0.32344 0.24215
 C140 C 0.31321 0.30009 0.26118
 N141 N 0.27917 0.23431 0.26453
 N142 N 0.24468 0.19311 0.24933
 C143 C 0.20723 0.17212 0.21382
 C144 C 0.17731 0.13519 0.19986
 C145 C 0.35234 0.34424 0.27733
 C146 C 0.38636 0.38102 0.29079
 C147 C 0.78237 0.02421 -0.10343
 N148 N 0.80554 0.04691 -0.08421
 N149 N 0.76424 0.04013 -0.06905
 C150 C 0.69852 0.01034 -0.07265
 N151 N 0.67535 -0.01243 -0.09187
 N152 N 0.71665 -0.00566 -0.10702
 C153 C 0.82687 0.03265 -0.11986
 C154 C 0.86393 0.03982 -0.13379
 C155 C 0.65433 0.00532 -0.05654
 C156 C 0.61755 0.00259 -0.04310
 C157 C 0.24086 0.02138 0.10330
 N158 N 0.27630 -0.00908 0.10665
 N159 N 0.31078 -0.01548 0.09140
 C160 C 0.31077 0.00829 0.07233
 N161 N 0.27526 0.03868 0.06897
 N162 N 0.24077 0.04508 0.08422
 C163 C 0.20489 0.02945 0.11984
 C164 C 0.17508 0.03633 0.13386
 C165 C 0.34995 0.00372 0.05612
 C166 C 0.38405 0.00136 0.04263
 C167 C 0.78271 0.75946 0.43698
 N168 N 0.80630 0.75846 0.41797
 N169 N 0.76526 0.72369 0.40276
 C170 C 0.69939 0.68898 0.40609
 N171 N 0.67580 0.69005 0.42510
 N172 N 0.71684 0.72482 0.44030
 C173 C 0.82692 0.79569 0.45349
 C174 C 0.86374 0.82568 0.46748
 C175 C 0.65544 0.64950 0.38994
 C176 C 0.61886 0.61518 0.37648
 C177 C -0.02371 0.22018 0.76994
 N178 N 0.00655 0.28587 0.77339
 N179 N 0.01303 0.32690 0.75818
 C180 C -0.01043 0.30347 0.73904
 N181 N -0.04062 0.23778 0.73558
 N182 N -0.04711 0.19675 0.75079
 C183 C -0.03183 0.17598 0.78643
 C184 C -0.03874 0.13915 0.80039
 C185 C -0.00573 0.34738 0.72287
 C186 C -0.00325 0.38395 0.70940
 C187 C 0.75947 -0.02427 0.10280
 N188 N 0.72502 0.00714 0.10623
 N189 N 0.69035 0.01389 0.09107
 C190 C 0.68920 -0.01045 0.07200
 N191 N 0.72372 -0.04180 0.06855
 N192 N 0.75839 -0.04856 0.08372
 C193 C 0.79568 -0.03267 0.11925
 C194 C 0.82571 -0.03979 0.13318
 C195 C 0.64986 -0.00543 0.05588
 C196 C 0.61564 -0.00269 0.04246
 C197 C 0.21838 0.24027 0.43648
 N198 N 0.19535 0.24011 0.41725
 N199 N 0.23675 0.27467 0.40214
 C200 C 0.30244 0.31033 0.40579
 N201 N 0.32548 0.31043 0.42502
 N202 N 0.28407 0.27587 0.44012
 C203 C 0.17376 0.20423 0.45287
 C204 C 0.13660 0.17438 0.46676
 C205 C 0.34673 0.34957 0.38973
 C206 C 0.38358 0.38367 0.37634
 C207 C 0.02234 0.78353 0.76981
 N208 N 0.04703 0.80700 0.75081
 N209 N 0.04035 0.76590 0.73559
 C210 C 0.00868 0.70009 0.73891
 N211 N -0.01607 0.67663 0.75791
 N212 N -0.00940 0.71772 0.77312
 C213 C 0.03067 0.82778 0.78632
 C214 C 0.03775 0.86463 0.80030
 C215 C 0.00375 0.65605 0.72275
 C216 C 0.00109 0.61934 0.70930
   
