data_POSCAR
  _audit_creation_date              2014-09-24
  _audit_creation_method            'ToBaCCo'
  _symmetry_space_group_name_H-M    'P1'
  _symmetry_Int_Tables_number       1
  _symmetry_cell_setting            triclinic
  loop_
  _symmetry_equiv_pos_as_xyz
 x,y,z
_cell_length_a 44.9969
_cell_length_b 44.6544
_cell_length_c 46.3613
_cell_angle_alpha 90.021800
_cell_angle_beta 90.006900
_cell_angle_gamma 90.380200
loop_
  _atom_site_label
  _atom_site_type_symbol
  _atom_site_fract_x
  _atom_site_fract_y
  _atom_site_fract_z
C1 C 0.28214 0.37055 0.02676
 C2 C 0.27311 0.38242 0.00041
 C3 C 0.28624 0.37439 -0.02604
 C4 C 0.31114 0.35468 -0.02516
 C5 C 0.31942 0.34104 0.00147
 C6 C 0.30470 0.34892 0.02743
 C7 C 0.31275 0.33488 0.05335
 C8 C 0.33582 0.31441 0.05416
 C9 C 0.35177 0.30729 0.02911
 C10 C 0.34309 0.32007 0.00233
 C11 C 0.32993 0.35045 -0.04902
 C12 C 0.35291 0.32973 -0.04824
 C13 C 0.35838 0.31245 -0.02348
 C14 C 0.38067 0.28993 -0.02282
 C15 C 0.38976 0.27910 0.00429
 C16 C 0.37605 0.28748 0.03001
 H17 H 0.30117 0.33951 0.07330
 H18 H 0.34092 0.30413 0.07468
 H19 H 0.32805 0.36404 -0.06819
 H20 H 0.36715 0.32838 -0.06696
 H21 H 0.25477 0.39806 0.00084
 H22 H 0.40744 0.26277 0.00569
 C23 C 0.72679 0.63554 0.02890
 C24 C 0.73834 0.62572 0.00265
 C25 C 0.72797 0.63648 -0.02376
 C26 C 0.70423 0.65709 -0.02408
 C27 C 0.69168 0.66688 0.00244
 C28 C 0.70307 0.65606 0.02907
 C29 C 0.69140 0.66703 0.05508
 C30 C 0.66938 0.68875 0.05509
 C31 C 0.65813 0.70015 0.02910
 C32 C 0.66886 0.68875 0.00241
 C33 C 0.69390 0.66943 -0.04999
 C34 C 0.67153 0.69082 -0.05004
 C35 C 0.65804 0.70036 -0.02423
 C36 C 0.63619 0.72329 -0.02387
 C37 C 0.62716 0.73489 0.00285
 C38 C 0.63751 0.72376 0.02903
 H39 H 0.69968 0.65942 0.07571
 H40 H 0.66166 0.69698 0.07571
 H41 H 0.70363 0.66331 -0.07048
 H42 H 0.66603 0.70070 -0.07059
 H43 H 0.75647 0.60981 0.00282
 H44 H 0.61069 0.75253 0.00356
 C45 C 0.63120 0.28418 0.97358
 C46 C 0.62098 0.27077 0.99892
 C47 C 0.63234 0.27866 1.02595
 C48 C 0.65408 0.30161 1.02789
 C49 C 0.66496 0.31532 1.00226
 C50 C 0.65374 0.30624 0.97495
 C51 C 0.66636 0.31828 0.94977
 C52 C 0.68989 0.33853 0.95123
 C53 C 0.70115 0.34822 0.97795
 C54 C 0.68817 0.33702 1.00381
 C55 C 0.66645 0.30996 1.05449
 C56 C 0.68863 0.33173 1.05609
 C57 C 0.69934 0.34626 1.03117
 C58 C 0.72289 0.36760 1.03248
 C59 C 0.73635 0.37680 1.00659
 C60 C 0.72603 0.36758 0.97957
 H61 H 0.65882 0.31137 0.92861
 H62 H 0.69944 0.34608 0.93110
 H63 H 0.65958 0.29927 1.07435
 H64 H 0.69825 0.33588 1.07707
 H65 H 0.60405 0.25340 0.99754
 H66 H 0.75460 0.39280 1.00722
 C67 C 0.27497 0.62982 0.96515
 C68 C 0.26191 0.61967 0.99067
 C69 C 0.27342 0.62681 1.01800
 C70 C 0.29797 0.64707 1.01962
 C71 C 0.31204 0.65704 0.99379
 C72 C 0.30072 0.64795 0.96648
 C73 C 0.31437 0.65857 0.94124
 C74 C 0.33834 0.67830 0.94258
 C75 C 0.34949 0.68831 0.96921
 C76 C 0.33638 0.67759 0.99519
 C77 C 0.30667 0.66033 1.04584
 C78 C 0.33012 0.68070 1.04719
 C79 C 0.34624 0.68884 1.02240
 C80 C 0.36958 0.71056 1.02343
 C81 C 0.38144 0.72106 0.99731
 C82 C 0.37222 0.71016 0.97057
 H83 H 0.30618 0.65230 0.92012
 H84 H 0.34739 0.68639 0.92240
 H85 H 0.29434 0.65655 1.06551
 H86 H 0.33430 0.69112 1.06782
 H87 H 0.24287 0.60473 0.98888
 H88 H 0.39921 0.73763 0.99764
 C89 C 0.02807 0.28729 0.37864
 C90 C 0.00204 0.27229 0.38623
 C91 C -0.02590 0.28001 0.37506
 C92 C -0.02759 0.30469 0.35561
 C93 C -0.00099 0.31995 0.34725
 C94 C 0.02692 0.31094 0.35865
 C95 C 0.05311 0.32466 0.34864
 C96 C 0.05220 0.34661 0.32756
 C97 C 0.02505 0.35603 0.31596
 C98 C -0.00197 0.34308 0.32615
 C99 C -0.05437 0.31272 0.34206
 C100 C -0.05538 0.33570 0.32178
 C101 C -0.02968 0.35182 0.31391
 C102 C -0.03011 0.37409 0.29188
 C103 C -0.00288 0.38536 0.28170
 C104 C 0.02430 0.37682 0.29320
 H105 H 0.07474 0.31779 0.35623
 H106 H 0.07315 0.35565 0.32000
 H107 H -0.07478 0.30052 0.34585
 H108 H -0.07640 0.33937 0.31115
 H109 H 0.00368 0.25472 0.40231
 H110 H -0.00256 0.40211 0.26473
 C111 C 0.02653 0.62319 0.71180
 C112 C -0.00092 0.61452 0.72308
 C113 C -0.02799 0.62310 0.71061
 C114 C -0.02724 0.64288 0.68649
 C115 C 0.00063 0.65157 0.67437
 C116 C 0.02757 0.64128 0.68690
 C117 C 0.05484 0.65078 0.67533
 C118 C 0.05590 0.67057 0.65226
 C119 C 0.02974 0.68169 0.63982
 C120 C 0.00171 0.67216 0.65087
 C121 C -0.05303 0.65699 0.67635
 C122 C -0.05195 0.67747 0.65378
 C123 C -0.02507 0.68466 0.63981
 C124 C -0.02360 0.70655 0.61744
 C125 C 0.00449 0.71582 0.60755
 C126 C 0.03088 0.70354 0.61783
 H127 H 0.07572 0.64364 0.68453
 H128 H 0.07760 0.67787 0.64502
 H129 H -0.07425 0.65383 0.68686
 H130 H -0.07241 0.68874 0.64862
 H131 H -0.00095 0.59978 0.74170
 H132 H 0.00602 0.73243 0.59051
 C133 C 0.98082 0.72756 0.36678
 C134 C 1.00913 0.73817 0.37389
 C135 C 1.03486 0.72478 0.36331
 C136 C 1.03247 0.69966 0.34496
 C137 C 1.00394 0.68779 0.33827
 C138 C 0.97796 0.70166 0.34943
 C139 C 0.94993 0.68999 0.34200
 C140 C 0.94732 0.66522 0.32404
 C141 C 0.97259 0.65168 0.31219
 C142 C 1.00129 0.66286 0.31934
 C143 C 1.05763 0.68718 0.33196
 C144 C 1.05496 0.66355 0.31252
 C145 C 1.02715 0.65028 0.30641
 C146 C 1.02380 0.62682 0.28574
 C147 C 0.99502 0.61677 0.27887
 C148 C 0.96979 0.62819 0.29218
 H149 H 0.92962 0.70012 0.34953
 H150 H 0.92517 0.65732 0.31880
 H151 H 1.07958 0.69643 0.33582
 H152 H 1.07501 0.65675 0.30168
 H153 H 1.01122 0.75745 0.38803
 H154 H 0.99202 0.59886 0.26325
 C155 C 1.01707 0.27422 0.63084
 C156 C 0.98931 0.26606 0.61966
 C157 C 0.96302 0.27918 0.62924
 C158 C 0.96436 0.30231 0.64998
 C159 C 0.99240 0.31155 0.66122
 C160 C 1.01883 0.29723 0.65180
 C161 C 1.04592 0.30504 0.66482
 C162 C 1.04730 0.32685 0.68629
 C163 C 1.02180 0.34260 0.69507
 C164 C 0.99382 0.33405 0.68299
 C165 C 0.93838 0.31535 0.66077
 C166 C 0.93969 0.33701 0.68227
 C167 C 0.96708 0.34687 0.69354
 C168 C 0.96836 0.36806 0.71615
 C169 C 0.99585 0.37584 0.72803
 C170 C 1.02284 0.36457 0.71745
 H171 H 1.06628 0.29370 0.65914
 H172 H 1.06852 0.33015 0.69672
 H173 H 0.91667 0.30846 0.65310
 H174 H 0.91883 0.34535 0.69045
 H175 H 0.98802 0.24834 0.60366
 H176 H 0.99614 0.39266 0.74494
 C177 C 0.37497 0.02555 0.28826
 C178 C 0.38369 -0.00166 0.27630
 C179 C 0.37268 -0.02938 0.28600
 C180 C 0.35052 -0.02947 0.30805
 C181 C 0.34114 -0.00177 0.32038
 C182 C 0.35345 0.02577 0.31041
 C183 C 0.34262 0.05286 0.32157
 C184 C 0.32056 0.05317 0.34248
 C185 C 0.30807 0.02643 0.35287
 C186 C 0.31810 -0.00140 0.34150
 C187 C 0.33522 -0.05579 0.31602
 C188 C 0.31280 -0.05546 0.33669
 C189 C 0.30402 -0.02867 0.35000
 C190 C 0.27952 -0.02780 0.36930
 C191 C 0.27059 -0.00008 0.38042
 C192 C 0.28454 0.02679 0.37307
 H193 H 0.35041 0.07426 0.31363
 H194 H 0.31260 0.07474 0.34958
 H195 H 0.33917 -0.07687 0.30533
 H196 H 0.30150 -0.07641 0.34109
 H197 H 0.40070 -0.00110 0.25970
 H198 H 0.25285 0.00055 0.39628
 C199 C 0.62966 -0.02573 0.71340
 C200 C 0.61989 0.00216 0.72337
 C201 C 0.62923 0.02913 0.71121
 C202 C 0.65009 0.02896 0.68860
 C203 C 0.66092 0.00116 0.67817
 C204 C 0.65073 -0.02638 0.69048
 C205 C 0.66416 -0.05317 0.68148
 C206 C 0.68555 -0.05331 0.65981
 C207 C 0.69505 -0.02660 0.64668
 C208 C 0.68321 0.00102 0.65644
 C209 C 0.66158 0.05584 0.67732
 C210 C 0.68352 0.05565 0.65626
 C211 C 0.69468 0.02858 0.64553
 C212 C 0.71798 0.02822 0.62513
 C213 C 0.72839 0.00083 0.61495
 C214 C 0.71739 -0.02646 0.62521
 H215 H 0.65928 -0.07430 0.69180
 H216 H 0.69538 -0.07458 0.65427
 H217 H 0.65432 0.07736 0.68527
 H218 H 0.69203 0.07702 0.64887
 H219 H 0.60351 0.00306 0.74055
 H220 H 0.74570 0.00083 0.59864
 C221 C 0.38004 0.97277 0.71081
 C222 C 0.38752 0.99992 0.72390
 C223 C 0.37897 1.02764 0.71246
 C224 C 0.36032 1.02788 0.68763
 C225 C 0.35183 1.00022 0.67447
 C226 C 0.36182 0.97263 0.68608
 C227 C 0.35199 0.94561 0.67370
 C228 C 0.33272 0.94548 0.65029
 C229 C 0.32261 0.97237 0.63818
 C230 C 0.33211 1.00004 0.65048
 C231 C 0.34756 1.05448 0.67727
 C232 C 0.32851 1.05431 0.65367
 C233 C 0.32065 1.02744 0.63984
 C234 C 0.30016 1.02701 0.61678
 C235 C 0.29117 0.99969 0.60489
 C236 C 0.30196 0.97242 0.61512
 H237 H 0.35834 0.92419 0.68257
 H238 H 0.32525 0.92396 0.64234
 H239 H 0.35102 1.07569 0.68798
 H240 H 0.31921 1.07548 0.64698
 H241 H 0.40194 0.99933 0.74267
 H242 H 0.27507 0.99964 0.58745
 C243 C 0.61477 0.96384 0.29533
 C244 C 0.60769 0.98913 0.27924
 C245 C 0.61834 1.01789 0.28623
 C246 C 0.63680 1.02118 0.31107
 C247 C 0.64487 0.99532 0.32732
 C248 C 0.63378 0.96660 0.31931
 C249 C 0.64320 0.94117 0.33445
 C250 C 0.66403 0.94353 0.35643
 C251 C 0.67579 0.97149 0.36458
 C252 C 0.66560 0.99782 0.35048
 C253 C 0.64992 1.04881 0.31842
 C254 C 0.66973 1.05131 0.34136
 C255 C 0.67757 1.02634 0.35817
 C256 C 0.69952 1.02836 0.38027
 C257 C 0.71042 1.00172 0.39234
 C258 C 0.69875 0.97365 0.38525
 H259 H 0.63536 0.91899 0.32871
 H260 H 0.67136 0.92301 0.36646
 H261 H 0.64625 1.06873 0.30578
 H262 H 0.68018 1.07291 0.34449
 H263 H 0.59266 0.98623 0.26113
 H264 H 0.72774 1.00274 0.40862
 O265 O 0.87020 0.82856 0.46534
 O266 O 0.83780 0.87373 0.52311
 O267 O 0.87798 0.83319 0.52017
 O268 O 0.83232 0.87187 0.46733
 O269 O 0.79611 0.83880 0.47299
 O270 O 0.84333 0.79859 0.52655
 O271 O 0.80202 0.84014 0.52883
 O272 O 0.83516 0.79424 0.47128
 Cu273 Cu 0.85797 0.85524 0.49332
 Cu274 Cu 0.81549 0.81452 0.50039
 C275 C 0.85877 0.80334 0.45903
 C276 C 0.81438 0.86471 0.53579
 C277 C 0.86899 0.80933 0.53224
 C278 C 0.80646 0.86246 0.46123
 O279 O 0.12890 0.16960 0.47724
 O280 O 0.16828 0.13025 0.53422
 O281 O 0.13036 0.17376 0.53307
 O282 O 0.16722 0.12786 0.47829
 O283 O 0.20413 0.16057 0.47541
 O284 O 0.16658 0.20726 0.53055
 O285 O 0.20554 0.16255 0.53154
 O286 O 0.16475 0.20357 0.47450
 Cu287 Cu 0.14509 0.14711 0.50619
 Cu288 Cu 0.18899 0.18690 0.50298
 C289 C 0.13996 0.19299 0.46596
 C290 C 0.19381 0.13906 0.54222
 C291 C 0.14175 0.19859 0.54076
 C292 C 0.19167 0.13638 0.46724
 O293 O 0.18668 0.85592 0.46685
 O294 O 0.14089 0.82074 0.52226
 O295 O 0.18114 0.86198 0.52196
 O296 O 0.14693 0.81452 0.46684
 O297 O 0.18085 0.77969 0.47372
 O298 O 0.21667 0.82876 0.52839
 O299 O 0.17500 0.78617 0.52932
 O300 O 0.22184 0.82221 0.47277
 Cu301 Cu 0.16045 0.84159 0.49383
 Cu302 Cu 0.20212 0.80070 0.50184
 C303 C 0.21195 0.84551 0.46035
 C304 C 0.14983 0.79749 0.53520
 C305 C 0.20493 0.85387 0.53426
 C306 C 0.15775 0.78910 0.46091
 O307 O 0.84857 0.19129 0.52704
 O308 O 0.81671 0.14342 0.47162
 O309 O 0.85253 0.18892 0.47134
 O310 O 0.80936 0.14907 0.52648
 O311 O 0.77247 0.18092 0.52089
 O312 O 0.81591 0.22095 0.46510
 O313 O 0.77906 0.17420 0.46553
 O314 O 0.81298 0.22456 0.52112
 Cu315 Cu 0.83541 0.16511 0.49965
 Cu316 Cu 0.79139 0.20343 0.49257
 C317 C 0.83684 0.21609 0.53343
 C318 C 0.79235 0.14985 0.45950
 C319 C 0.84185 0.21188 0.45904
 C320 C 0.78338 0.15786 0.53279
 O321 O 0.47174 0.87817 0.83767
 O322 O 0.52982 0.84313 0.88030
 O323 O 0.52917 0.88162 0.83905
 O324 O 0.47245 0.83950 0.87818
 O325 O 0.47534 0.80252 0.84669
 O326 O 0.53292 0.84571 0.80655
 O327 O 0.53343 0.80614 0.84893
 O328 O 0.47497 0.84252 0.80479
 Cu329 Cu 0.50058 0.86419 0.86196
 Cu330 Cu 0.50451 0.82045 0.82347
 C331 C 0.46336 0.86656 0.81407
 C332 C 0.54151 0.81876 0.87227
 C333 C 0.54071 0.87124 0.81620
 C334 C 0.46400 0.81399 0.86923
 O335 O 0.53629 0.17612 0.13928
 O336 O 0.47809 0.13023 0.17278
 O337 O 0.47942 0.16978 0.13291
 O338 O 0.53485 0.13537 0.17976
 O339 O 0.52827 0.17043 0.21267
 O340 O 0.47165 0.20536 0.16507
 O341 O 0.47126 0.16478 0.20622
 O342 O 0.52886 0.21198 0.17121
 Cu343 Cu 0.50817 0.14945 0.15298
 Cu344 Cu 0.49950 0.19180 0.19210
 C345 C 0.54188 0.20219 0.14880
 C346 C 0.46484 0.13948 0.19520
 C347 C 0.46587 0.19320 0.14086
 C348 C 0.54043 0.14623 0.20447
 O349 O 0.53214 0.12424 0.83566
 O350 O 0.48237 0.16801 0.88012
 O351 O 0.47262 0.12598 0.83875
 O352 O 0.53616 0.16273 0.87284
 O353 O 0.53357 0.19951 0.84101
 O354 O 0.47196 0.15938 0.80379
 O355 O 0.47619 0.20109 0.84521
 O356 O 0.53008 0.15827 0.80112
 Cu357 Cu 0.50433 0.14107 0.85939
 Cu358 Cu 0.50235 0.18302 0.81918
 C359 C 0.54082 0.13431 0.81149
 C360 C 0.47216 0.19269 0.87112
 C361 C 0.46214 0.13539 0.81507
 C362 C 0.54549 0.18760 0.86309
 O363 O 0.47302 0.82773 0.12690
 O364 O 0.53078 0.85998 0.17249
 O365 O 0.52944 0.81916 0.13377
 O366 O 0.47413 0.86790 0.16719
 O367 O 0.46459 0.83387 0.20048
 O368 O 0.52039 0.78416 0.16632
 O369 O 0.52171 0.82645 0.20644
 O370 O 0.46352 0.79259 0.15911
 Cu371 Cu 0.50260 0.84708 0.14683
 Cu372 Cu 0.49158 0.80574 0.18645
 C373 C 0.45867 0.80458 0.13466
 C374 C 0.53617 0.84907 0.19714
 C375 C 0.53434 0.79337 0.14414
 C376 C 0.46018 0.85961 0.18965
 O377 O 0.86616 0.52898 0.83250
 O378 O 0.82040 0.47263 0.86867
 O379 O 0.86479 0.47106 0.83365
 O380 O 0.82127 0.53067 0.86729
 O381 O 0.78969 0.53013 0.83081
 O382 O 0.83469 0.47091 0.79602
 O383 O 0.78894 0.47213 0.83209
 O384 O 0.83580 0.52932 0.79512
 Cu385 Cu 0.84619 0.50093 0.85416
 Cu386 Cu 0.80919 0.50060 0.80968
 C387 C 0.85926 0.53862 0.80767
 C388 C 0.79678 0.46297 0.85693
 C389 C 0.85747 0.46098 0.80904
 C390 C 0.79783 0.54016 0.85525
 O391 O 0.10999 0.52419 0.15666
 O392 O 0.15073 0.46615 0.11844
 O393 O 0.11362 0.46649 0.16011
 O394 O 0.14837 0.52386 0.11502
 O395 O 0.18549 0.52823 0.14589
 O396 O 0.14956 0.47099 0.19233
 O397 O 0.18780 0.46995 0.14948
 O398 O 0.14618 0.52894 0.18851
 Cu399 Cu 0.12703 0.49492 0.13445
 Cu400 Cu 0.17105 0.50009 0.17223
 C401 C 0.12063 0.53621 0.17923
 C402 C 0.17606 0.45796 0.12730
 C403 C 0.12547 0.45891 0.18381
 C404 C 0.17303 0.53553 0.12234
 O405 O 0.87122 0.48056 0.17510
 O406 O 0.82257 0.53407 0.13931
 O407 O 0.86372 0.53805 0.17725
 O408 O 0.83261 0.47739 0.13464
 O409 O 0.79755 0.46919 0.16707
 O410 O 0.83070 0.53027 0.21175
 O411 O 0.78799 0.52649 0.17238
 O412 O 0.83737 0.47209 0.20862
 Cu413 Cu 0.85092 0.50831 0.15335
 Cu414 Cu 0.80991 0.49880 0.19343
 C415 C 0.86272 0.46695 0.19772
 C416 C 0.79695 0.53929 0.14947
 C417 C 0.85293 0.54461 0.20162
 C418 C 0.80993 0.46297 0.14313
 O419 O 0.17701 0.53338 0.85327
 O420 O 0.12993 0.47169 0.82780
 O421 O 0.17174 0.47849 0.86679
 O422 O 0.13693 0.52784 0.81420
 O423 O 0.17096 0.51619 0.78184
 O424 O 0.20499 0.46395 0.83477
 O425 O 0.16291 0.45986 0.79454
 O426 O 0.21233 0.52007 0.82283
 Cu427 Cu 0.15029 0.50378 0.84353
 Cu428 Cu 0.19115 0.48872 0.80512
 C429 C 0.20311 0.53653 0.84337
 C430 C 0.13777 0.45577 0.80645
 C431 C 0.19489 0.46385 0.86039
 C432 C 0.14788 0.53066 0.78916
 C433 C 0.22165 0.39780 0.07345
 C434 C 0.23731 0.41469 0.09409
 N435 N 0.26750 0.41414 0.09417
 C436 C 0.28271 0.39808 0.07409
 C437 C 0.26700 0.38212 0.05276
 N438 N 0.23680 0.38226 0.05323
 N439 N 0.19161 0.39901 0.07253
 C440 C 0.17641 0.41700 0.09080
 C441 C 0.19196 0.43501 0.11072
 N442 N 0.22214 0.43303 0.11222
 H443 H 0.30675 0.39904 0.07381
 H444 H 0.15243 0.41792 0.08915
 C445 C 0.74388 0.59260 0.09543
 C446 C 0.77478 0.59692 0.09708
 N447 N 0.78846 0.61619 0.07877
 C448 C 0.77280 0.63073 0.05816
 C449 C 0.74216 0.62521 0.05522
 N450 N 0.72824 0.60651 0.07424
 N451 N 0.73047 0.57296 0.11377
 C452 C 0.74669 0.55688 0.13310
 C453 C 0.77781 0.55994 0.13345
 N454 N 0.79093 0.58024 0.11563
 H455 H 0.78437 0.64533 0.04321
 H456 H 0.73562 0.54071 0.14686
 C457 C 0.74464 0.40901 0.91198
 C458 C 0.77579 0.40755 0.91238
 N459 N 0.78962 0.39088 0.93269
 C460 C 0.77378 0.37615 0.95321
 C461 C 0.74265 0.37878 0.95401
 N462 N 0.72874 0.39501 0.93308
 N463 N 0.73101 0.42581 0.89147
 C464 C 0.74717 0.44180 0.87185
 C465 C 0.77837 0.44170 0.87339
 N466 N 0.79181 0.42424 0.89351
 H467 H 0.78543 0.36346 0.96953
 H468 H 0.73580 0.45574 0.85631
 C469 C 0.25768 0.58926 0.89701
 C470 C 0.22719 0.59515 0.89435
 N471 N 0.21412 0.61488 0.91251
 C472 C 0.22991 0.62829 0.93391
 C473 C 0.26000 0.62112 0.93788
 N474 N 0.27336 0.60200 0.91899
 N475 N 0.27043 0.56898 0.87904
 C476 C 0.25387 0.55360 0.85926
 C477 C 0.22297 0.55801 0.85804
 N478 N 0.21060 0.57912 0.87539
 H479 H 0.21872 0.64320 0.94872
 H480 H 0.26437 0.53666 0.84611
 C481 C 0.08315 0.23350 0.40597
 C482 C 0.10039 0.25134 0.42461
 N483 N 0.09544 0.28131 0.42583
 C484 C 0.07360 0.29410 0.40973
 C485 C 0.05580 0.27605 0.39174
 N486 N 0.06130 0.24620 0.39024
 N487 N 0.08687 0.20343 0.40558
 C488 C 0.10652 0.19016 0.42359
 C489 C 0.12308 0.20770 0.44304
 N490 N 0.12000 0.23805 0.44282
 H491 H 0.06924 0.31780 0.41195
 H492 H 0.10850 0.16601 0.42341
 C493 C 0.08594 0.75856 0.59028
 C494 C 0.10602 0.74030 0.57530
 N495 N 0.10231 0.71007 0.57604
 C496 C 0.07923 0.69733 0.59075
 C497 C 0.05887 0.71567 0.60540
 N498 N 0.06291 0.74588 0.60473
 N499 N 0.08868 0.78875 0.58874
 C500 C 0.11021 0.80165 0.57235
 C501 C 0.12992 0.78360 0.55662
 N502 N 0.12758 0.75320 0.55875
 H503 H 0.07618 0.67328 0.59019
 H504 H 0.11143 0.82583 0.57099
 C505 C 0.91283 0.74864 0.40751
 C506 C 0.91357 0.77994 0.40463
 N507 N 0.93425 0.79303 0.38745
 C508 C 0.95481 0.77629 0.37355
 C509 C 0.95527 0.74507 0.37756
 N510 N 0.93398 0.73192 0.39430
 N511 N 0.89205 0.73571 0.42482
 C512 C 0.87254 0.75274 0.44002
 C513 C 0.87454 0.78414 0.43850
 N514 N 0.89484 0.79688 0.42050
 H515 H 0.97143 0.78734 0.36035
 H516 H 0.85687 0.74193 0.45441
 C517 C 0.89357 0.26654 0.58701
 C518 C 0.88947 0.23567 0.59120
 N519 N 0.90712 0.22074 0.60991
 C520 C 0.92943 0.23508 0.62405
 C521 C 0.93488 0.26560 0.61877
 N522 N 0.91650 0.28084 0.60058
 N523 N 0.87598 0.28110 0.56775
 C524 C 0.85518 0.26597 0.55187
 C525 C 0.85255 0.23472 0.55477
 N526 N 0.86956 0.22057 0.57474
 H527 H 0.94378 0.22246 0.63825
 H528 H 0.84235 0.27784 0.53583
 C529 C 0.40593 0.07782 0.23388
 C530 C 0.42208 0.09816 0.25096
 N531 N 0.42112 0.09557 0.28015
 C532 C 0.40499 0.07337 0.29301
 C533 C 0.38893 0.05286 0.27590
 N534 N 0.38992 0.05576 0.24669
 N535 N 0.40794 0.07927 0.20475
 C536 C 0.42583 0.09982 0.19180
 C537 C 0.44250 0.11992 0.20874
 N538 N 0.43997 0.11883 0.23803
 H539 H 0.40554 0.07107 0.31625
 H540 H 0.42748 0.10011 0.16851
 C541 C 0.60196 0.08009 0.76751
 C542 C 0.58290 0.09888 0.75191
 N543 N 0.58195 0.09670 0.72267
 C544 C 0.59859 0.07603 0.70845
 C545 C 0.61683 0.05652 0.72423
 N546 N 0.61818 0.05938 0.75338
 N547 N 0.60215 0.08105 0.79669
 C548 C 0.58354 0.09943 0.81117
 C549 C 0.56361 0.11755 0.79581
 N550 N 0.56409 0.11726 0.76640
 H551 H 0.59640 0.07372 0.68530
 H552 H 0.58380 0.09936 0.83453
 C553 C 0.40398 0.92043 0.76771
 C554 C 0.42432 0.90229 0.75291
 N555 N 0.42754 0.90557 0.72393
 C556 C 0.41186 0.92663 0.70924
 C557 C 0.39226 0.94546 0.72425
 N558 N 0.38873 0.94161 0.75314
 N559 N 0.40155 0.91831 0.79675
 C560 C 0.41919 0.89949 0.81190
 C561 C 0.44049 0.88219 0.79741
 N562 N 0.44223 0.88360 0.76809
 H563 H 0.41576 0.92971 0.68639
 H564 H 0.41736 0.89885 0.83518
 C565 C 0.59477 0.90413 0.24378
 C566 C 0.57138 0.88943 0.25815
 N567 N 0.56504 0.89708 0.28586
 C568 C 0.58045 0.91934 0.29950
 C569 C 0.60285 0.93500 0.28456
 N570 N 0.60960 0.92667 0.25714
 N571 N 0.60055 0.89757 0.21582
 C572 C 0.58334 0.87773 0.20114
 C573 C 0.55886 0.86414 0.21484
 N574 N 0.55375 0.86988 0.24330
 H575 H 0.57419 0.92592 0.32112
 H576 H 0.58783 0.87372 0.17852
 C577 C 0.43431 0.24808 0.93442
 C578 C 0.41951 0.24393 0.90810
 N579 N 0.39217 0.25613 0.90448
 C580 C 0.37900 0.27221 0.92595
 C581 C 0.39397 0.27665 0.95250
 N582 N 0.42131 0.26413 0.95554
 N583 N 0.46080 0.23480 0.93912
 C584 C 0.47318 0.21715 0.91872
 C585 C 0.45855 0.21271 0.89229
 N586 N 0.43205 0.22647 0.88732
 H587 H 0.35638 0.27949 0.92280
 H588 H 0.49436 0.20666 0.92305
 C589 C 0.60104 0.77948 0.93108
 C590 C 0.58946 0.76239 0.90831
 N591 N 0.59537 0.73258 0.90720
 C592 C 0.61204 0.71909 0.92803
 C593 C 0.62304 0.73616 0.95141
 N594 N 0.61703 0.76600 0.95195
 N595 N 0.59483 0.80902 0.93297
 C596 C 0.57687 0.82229 0.91340
 C597 C 0.56411 0.80517 0.89106
 N598 N 0.57106 0.77554 0.88878
 H599 H 0.61478 0.69505 0.92731
 H600 H 0.57200 0.84587 0.91578
 C601 C 0.40361 0.76623 0.07073
 C602 C 0.41168 0.74925 0.09486
 N603 N 0.40407 0.71973 0.09580
 C604 C 0.38899 0.70644 0.07360
 C605 C 0.38143 0.72338 0.04896
 N606 N 0.38921 0.75291 0.04853
 N607 N 0.41147 0.79549 0.06912
 C608 C 0.42776 0.80854 0.09031
 C609 C 0.43710 0.79150 0.11413
 N610 N 0.42848 0.76216 0.11605
 H611 H 0.38476 0.68258 0.07447
 H612 H 0.43408 0.83186 0.08809
 C613 C 0.59368 0.25697 0.09398
 C614 C 0.59484 0.22561 0.09215
 N615 N 0.61028 0.21254 0.07050
 C616 C 0.62407 0.22939 0.05009
 C617 C 0.62189 0.26078 0.05095
 N618 N 0.60693 0.27391 0.07316
 N619 N 0.57785 0.26984 0.11561
 C620 C 0.56253 0.25277 0.13501
 C621 C 0.56245 0.22138 0.13223
 N622 N 0.57898 0.20869 0.11098
 H623 H 0.63573 0.21838 0.03267
 H624 H 0.54939 0.26363 0.15148
 C625 C 0.24028 0.07812 0.59428
 C626 C 0.25588 0.09983 0.57830
 N627 N 0.28602 0.09859 0.57695
 C628 C 0.30119 0.07629 0.59042
 C629 C 0.28544 0.05410 0.60566
 N630 N 0.25534 0.05573 0.60728
 N631 N 0.21020 0.07866 0.59511
 C632 C 0.19483 0.09946 0.58001
 C633 C 0.21019 0.12049 0.56293
 N634 N 0.24050 0.12046 0.56284
 H635 H 0.32512 0.07524 0.58842
 H636 H 0.17078 0.09885 0.58051
 C637 C 0.75454 0.08029 0.40972
 C638 C 0.73726 0.10511 0.41724
 N639 N 0.70777 0.10487 0.41083
 C640 C 0.69481 0.08086 0.39747
 C641 C 0.71203 0.05550 0.39058
 N642 N 0.74153 0.05620 0.39717
 N643 N 0.78386 0.08000 0.41615
 C644 C 0.79671 0.10313 0.43050
 C645 C 0.77937 0.12758 0.43946
 N646 N 0.74994 0.12817 0.43225
 H647 H 0.67103 0.08091 0.39397
 H648 H 0.82011 0.10187 0.43574
 C649 C 0.77474 0.92412 0.59455
 C650 C 0.75757 0.90213 0.58060
 N651 N 0.72752 0.90233 0.58357
 C652 C 0.71384 0.92389 0.59943
 C653 C 0.73100 0.94630 0.61292
 N654 N 0.76110 0.94559 0.61019
 N655 N 0.80457 0.92503 0.59053
 C656 C 0.81806 0.90528 0.57263
 C657 C 0.80092 0.88369 0.55799
 N658 N 0.77103 0.88236 0.56266
 H659 H 0.68981 0.92438 0.60035
 H660 H 0.84184 0.90686 0.56937
 C661 C 0.26175 0.90094 0.40440
 C662 C 0.23083 0.90360 0.40707
 N663 N 0.21661 0.92669 0.39440
 C664 C 0.23200 0.94812 0.38002
 C665 C 0.26328 0.94677 0.37842
 N666 N 0.27738 0.92263 0.39017
 N667 N 0.27576 0.87809 0.41816
 C668 C 0.26028 0.85838 0.43506
 C669 C 0.22949 0.86209 0.43877
 N670 N 0.21566 0.88439 0.42418
 H671 H 0.21995 0.96663 0.37062
 H672 H 0.27206 0.84096 0.44647
 C673 C 0.07173 0.39920 0.77099
 C674 C 0.09655 0.40740 0.75450
 N675 N 0.09741 0.39979 0.72613
 C676 C 0.07451 0.38452 0.71346
 C677 C 0.04920 0.37654 0.72988
 N678 N 0.04884 0.38442 0.75832
 N679 N 0.07009 0.40753 0.79906
 C680 C 0.09192 0.42435 0.81134
 C681 C 0.11649 0.43359 0.79474
 N682 N 0.11837 0.42454 0.76666
 H683 H 0.07529 0.38065 0.69044
 H684 H 0.08965 0.43115 0.83363
 C685 C 0.06295 0.59237 0.22576
 C686 C 0.08889 0.58173 0.23883
 N687 N 0.09366 0.58739 0.26729
 C688 C 0.07361 0.60313 0.28324
 C689 C 0.04730 0.61358 0.27017
 N690 N 0.04290 0.60753 0.24168
 N691 N 0.05749 0.58636 0.19763
 C692 C 0.07657 0.56957 0.18194
 C693 C 0.10220 0.55787 0.19504
 N694 N 0.10795 0.56453 0.22325
 H695 H 0.07738 0.60575 0.30615
 H696 H 0.07131 0.56478 0.15962
 C697 C 0.92443 0.40893 0.23662
 C698 C 0.89944 0.41822 0.25213
 N699 N 0.89688 0.41045 0.28041
 C700 C 0.91843 0.39426 0.29394
 C701 C 0.94412 0.38573 0.27854
 N702 N 0.94591 0.39336 0.25015
 N703 N 0.92792 0.41720 0.20874
 C704 C 0.90775 0.43498 0.19563
 C705 C 0.88302 0.44530 0.21118
 N706 N 0.87919 0.43631 0.23911
 H707 H 0.91649 0.39024 0.31688
 H708 H 0.91137 0.44144 0.17340
 C709 C 0.92324 0.59333 0.76657
 C710 C 0.89945 0.58152 0.75063
 N711 N 0.89899 0.58549 0.72155
 C712 C 0.92140 0.60042 0.70770
 C713 C 0.94585 0.61158 0.72365
 N714 N 0.94573 0.60753 0.75278
 N715 N 0.92440 0.58913 0.79546
 C716 C 0.90312 0.57296 0.80922
 C717 C 0.87974 0.55988 0.79335
 N718 N 0.87825 0.56482 0.76430
 H719 H 0.92102 0.60165 0.68440
 H720 H 0.90501 0.56963 0.83227
 C721 C 0.74607 0.59586 0.90842
 C722 C 0.77725 0.59747 0.90890
 N723 N 0.79114 0.61465 0.92893
 C724 C 0.77532 0.62956 0.94922
 C725 C 0.74419 0.62649 0.95014
 N726 N 0.73019 0.60999 0.92934
 N727 N 0.73240 0.57845 0.88826
 C728 C 0.74851 0.56195 0.86916
 C729 C 0.77972 0.56211 0.87093
 N730 N 0.79323 0.58024 0.89061
 H731 H 0.78702 0.64242 0.96550
 H732 H 0.73709 0.54753 0.85395
 C733 C 0.24259 0.42505 0.92909
 C734 C 0.24295 0.41129 0.90196
 N735 N 0.25790 0.38513 0.89874
 C736 C 0.27272 0.37236 0.92130
 C737 C 0.27324 0.38674 0.94855
 N738 N 0.25765 0.41266 0.95120
 N739 N 0.22656 0.45020 0.93329
 C740 C 0.21071 0.46238 0.91148
 C741 C 0.21118 0.44912 0.88397
 N742 N 0.22753 0.42381 0.87970
 H743 H 0.28228 0.35047 0.91819
 H744 H 0.19832 0.48267 0.91548
 C745 C 0.21528 0.59168 0.06151
 C746 C 0.23118 0.58086 0.08526
 N747 N 0.26083 0.58647 0.08708
 C748 C 0.27531 0.60235 0.06620
 C749 C 0.25943 0.61315 0.04208
 N750 N 0.22972 0.60713 0.04064
 N751 N 0.18587 0.58557 0.05899
 C752 C 0.17159 0.56860 0.07897
 C753 C 0.18748 0.55691 0.10251
 N754 N 0.21699 0.56360 0.10523
 H755 H 0.29920 0.60482 0.06766
 H756 H 0.14817 0.56377 0.07612
 C757 C 0.77555 0.40250 0.08188
 C758 C 0.75700 0.41356 0.10366
 N759 N 0.72741 0.40732 0.10263
 C760 C 0.71553 0.39088 0.08061
 C761 C 0.73407 0.38049 0.05818
 N762 N 0.76367 0.38677 0.05977
 N763 N 0.80494 0.40910 0.08213
 C764 C 0.81664 0.42705 0.10282
 C765 C 0.79806 0.43945 0.12403
 N766 N 0.76859 0.43201 0.12426
 H767 H 0.69167 0.38787 0.07968
 H768 H 0.84014 0.43238 0.10210
 C769 C 0.93227 0.76536 0.58416
 C770 C 0.90663 0.74997 0.57523
 N771 N 0.90383 0.72032 0.58146
 C772 C 0.92551 0.70544 0.59615
 C773 C 0.95152 0.72086 0.60491
 N774 N 0.95393 0.75050 0.59828
 N775 N 0.93573 0.79474 0.57774
 C776 C 0.91491 0.80947 0.56224
 C777 C 0.88947 0.79411 0.55228
 N778 N 0.88577 0.76459 0.55930
 H779 H 0.92315 0.68155 0.59939
 H780 H 0.91859 0.83287 0.55718
 C781 C 0.90154 0.26029 0.40616
 C782 C 0.90580 0.22984 0.41221
 N783 N 0.93081 0.21610 0.40320
 C784 C 0.95243 0.23164 0.38930
 C785 C 0.94939 0.26276 0.38454
 N786 N 0.92347 0.27613 0.39267
 N787 N 0.87634 0.27385 0.41551
 C788 C 0.85564 0.25846 0.43120
 C789 C 0.86073 0.22832 0.43843
 N790 N 0.88560 0.21477 0.42835
 H791 H 0.97209 0.21977 0.38238
 H792 H 0.83614 0.26999 0.43901
 C793 C 0.08670 0.25283 0.59264
 C794 C 0.08427 0.22147 0.59323
 N795 N 0.06213 0.20828 0.60854
 C796 C 0.04169 0.22502 0.62265
 C797 C 0.04291 0.25646 0.62088
 N798 N 0.06573 0.26970 0.60613
 N799 N 0.10894 0.26581 0.57710
 C800 C 0.12837 0.24887 0.56160
 C801 C 0.12489 0.21753 0.56095
 N802 N 0.10303 0.20470 0.57713
 H803 H 0.02378 0.21390 0.63409
 H804 H 0.14536 0.25983 0.54881
 C805 C 0.10368 0.73819 0.40518
 C806 C 0.10713 0.76921 0.40141
 N807 N 0.08992 0.78381 0.38207
 C808 C 0.06848 0.76902 0.36710
 C809 C 0.06338 0.73842 0.37232
 N810 N 0.08153 0.72352 0.39092
 N811 N 0.12075 0.72385 0.42498
 C812 C 0.14040 0.73932 0.44181
 C813 C 0.14224 0.77065 0.43939
 N814 N 0.12584 0.78467 0.41886
 H815 H 0.05416 0.78142 0.35270
 H816 H 0.15300 0.72755 0.45809
 C817 C 0.59841 0.93002 0.77192
 C818 C 0.58623 0.90528 0.75746
 N819 N 0.59078 0.90243 0.72857
 C820 C 0.60655 0.92345 0.71348
 C821 C 0.61799 0.94891 0.72789
 N822 N 0.61347 0.95108 0.75687
 N823 N 0.59349 0.93374 0.80048
 C824 C 0.57622 0.91414 0.81532
 C825 C 0.56281 0.88986 0.80089
 N826 N 0.56850 0.88570 0.77221
 H827 H 0.60810 0.92136 0.69028
 H828 H 0.57236 0.91803 0.83806
 C829 C 0.40630 0.92445 0.22999
 C830 C 0.41476 0.89878 0.24518
 N831 N 0.40773 0.89646 0.27363
 C832 C 0.39278 0.91870 0.28757
 C833 C 0.38453 0.94482 0.27242
 N834 N 0.39184 0.94663 0.24391
 N835 N 0.41388 0.92756 0.20187
 C836 C 0.43010 0.90634 0.18822
 C837 C 0.43949 0.88083 0.20341
 N838 N 0.43128 0.87750 0.23162
 H839 H 0.38928 0.91677 0.31058
 H840 H 0.43613 0.90973 0.16586
 C841 C 0.58842 0.08953 0.26044
 C842 C 0.58642 0.08380 0.23076
 N843 N 0.59714 0.05792 0.21992
 C844 C 0.60903 0.03692 0.23746
 C845 C 0.61016 0.04166 0.26760
 N846 N 0.60016 0.06835 0.27823
 N847 N 0.57685 0.11537 0.27108
 C848 C 0.56281 0.13529 0.25346
 C849 C 0.55981 0.12885 0.22386
 N850 N 0.57214 0.10334 0.21338
 H851 H 0.61739 0.01651 0.22790
 H852 H 0.55304 0.15521 0.26264
 C853 C 0.40625 0.07484 0.77100
 C854 C 0.41933 0.09885 0.75613
 N855 N 0.41696 0.10005 0.72693
 C856 C 0.40241 0.07815 0.71190
 C857 C 0.38995 0.05346 0.72674
 N858 N 0.39241 0.05279 0.75604
 N859 N 0.40911 0.07289 0.80002
 C860 C 0.42528 0.09346 0.81490
 C861 C 0.43975 0.11684 0.80006
 N862 N 0.43604 0.11923 0.77093
 H863 H 0.40255 0.07902 0.68858
 H864 H 0.42776 0.09084 0.83799
 C865 C 0.59138 0.74033 0.09345
 C866 C 0.59538 0.77147 0.09545
 N867 N 0.61575 0.78536 0.07848
 C868 C 0.63168 0.76968 0.05882
 C869 C 0.62652 0.73880 0.05539
 N870 N 0.60667 0.72470 0.07311
 N871 N 0.57065 0.72670 0.11039
 C872 C 0.55324 0.74291 0.12862
 C873 C 0.55603 0.77429 0.12925
 N874 N 0.57739 0.78765 0.11284
 H875 H 0.64700 0.78146 0.04477
 H876 H 0.53632 0.73161 0.14125
 C877 C 0.40798 0.23104 0.07940
 C878 C 0.41994 0.24890 0.10152
 N879 N 0.41516 0.27893 0.10115
 C880 C 0.39944 0.29192 0.07940
 C881 C 0.38805 0.27409 0.05687
 N882 N 0.39261 0.24401 0.05766
 N883 N 0.41350 0.20126 0.07895
 C884 C 0.43099 0.18849 0.09929
 C885 C 0.44383 0.20630 0.12108
 N886 N 0.43764 0.23617 0.12190
 H887 H 0.39698 0.31601 0.07900
 H888 H 0.43537 0.16471 0.09806
 C889 C 0.60601 0.22969 0.91889
 C890 C 0.58692 0.24703 0.90182
 N891 N 0.58498 0.27696 0.90679
 C892 C 0.60071 0.29014 0.92852
 C893 C 0.61881 0.27249 0.94632
 N894 N 0.62116 0.24272 0.94081
 N895 N 0.60732 0.19969 0.91484
 C896 C 0.58962 0.18597 0.89513
 C897 C 0.56931 0.20293 0.87900
 N898 N 0.56881 0.23325 0.88234
 H899 H 0.59802 0.31381 0.93277
 H900 H 0.59042 0.16184 0.89299
 C901 C 0.40278 0.76896 0.92292
 C902 C 0.42104 0.75256 0.90421
 N903 N 0.42100 0.72215 0.90587
 C904 C 0.40396 0.70751 0.92577
 C905 C 0.38630 0.72406 0.94498
 N906 N 0.38615 0.75441 0.94285
 N907 N 0.40339 0.79927 0.92221
 C908 C 0.42197 0.81409 0.90407
 C909 C 0.44110 0.79792 0.88591
 N910 N 0.43988 0.76738 0.88609
 H911 H 0.40516 0.68337 0.92744
 H912 H 0.42230 0.83834 0.90435
 C913 C 0.75780 0.92141 0.40844
 C914 C 0.74287 0.90303 0.42838
 N915 N 0.71324 0.90694 0.43271
 C916 C 0.69803 0.92858 0.41826
 C917 C 0.71313 0.94730 0.39866
 N918 N 0.74271 0.94311 0.39432
 N919 N 0.78745 0.91835 0.40457
 C920 C 0.80313 0.89819 0.42018
 C921 C 0.78861 0.88031 0.44089
 N922 N 0.75859 0.88291 0.44428
 H923 H 0.67462 0.93176 0.42259
 H924 H 0.82692 0.89675 0.41704
 C925 C 0.24546 0.91919 0.58711
 C926 C 0.26289 0.89780 0.57291
 N927 N 0.29301 0.90031 0.57388
 C928 C 0.30643 0.92339 0.58820
 C929 C 0.28894 0.94492 0.60227
 N930 N 0.25882 0.94217 0.60125
 N931 N 0.21543 0.91757 0.58536
 C932 C 0.20192 0.89581 0.56956
 C933 C 0.21918 0.87466 0.55473
 N934 N 0.24939 0.87598 0.55702
 H935 H 0.33041 0.92539 0.58796
 H936 H 0.17791 0.89543 0.56808
 C937 C 0.23008 0.07826 0.40604
 C938 C 0.24824 0.09732 0.42257
 N939 N 0.27828 0.09473 0.42067
 C940 C 0.29092 0.07361 0.40339
 C941 C 0.27270 0.05413 0.38720
 N942 N 0.24267 0.05725 0.38898
 N943 N 0.20014 0.07960 0.40877
 C944 C 0.18739 0.09880 0.42770
 C945 C 0.20536 0.11760 0.44480
 N946 N 0.23550 0.11669 0.44155
 H947 H 0.31483 0.07111 0.40336
 H948 H 0.16342 0.09910 0.42966
 C949 C 0.73368 0.09880 0.58511
 C950 C 0.76485 0.09980 0.58659
 N951 N 0.77953 0.07948 0.60283
 C952 C 0.76453 0.05759 0.61709
 C953 C 0.73345 0.05544 0.61452
 N954 N 0.71865 0.07639 0.59877
 N955 N 0.71919 0.11917 0.56859
 C956 C 0.73450 0.13998 0.55293
 C957 C 0.76577 0.13986 0.55320
 N958 N 0.78007 0.11991 0.57037
 H959 H 0.77683 0.04118 0.62935
 H960 H 0.72245 0.15538 0.53932
 C961 C 0.90852 0.60604 0.24377
 C962 C 0.89463 0.58305 0.25964
 N963 N 0.90345 0.57781 0.28721
 C964 C 0.92610 0.59389 0.29927
 C965 C 0.94096 0.61572 0.28280
 N966 N 0.93152 0.62146 0.25554
 N967 N 0.90066 0.61076 0.21596
 C968 C 0.88037 0.59280 0.20283
 C969 C 0.86775 0.56858 0.21796
 N970 N 0.87472 0.56460 0.24631
 H971 H 0.93355 0.58857 0.32086
 H972 H 0.87537 0.59635 0.18024
 C973 C 0.91724 0.40058 0.77036
 C974 C 0.89822 0.41788 0.75321
 N975 N 0.90129 0.41726 0.72406
 C976 C 0.92271 0.40036 0.71131
 C977 C 0.94192 0.38314 0.72849
 N978 N 0.93860 0.38384 0.75767
 N979 N 0.91515 0.40202 0.79949
 C980 C 0.89522 0.42039 0.81238
 C981 C 0.87647 0.43828 0.79539
 N982 N 0.87823 0.43633 0.76607
 H983 H 0.92539 0.40113 0.68812
 H984 H 0.89441 0.42144 0.83569
 C985 C 0.09409 0.58075 0.73281
 C986 C 0.09542 0.58729 0.76240
 N987 N 0.07662 0.60765 0.77390
 C988 C 0.05585 0.62121 0.75731
 C989 C 0.05321 0.61359 0.72800
 N990 N 0.07272 0.59372 0.71627
 N991 N 0.11286 0.56001 0.72162
 C992 C 0.13229 0.54495 0.73884
 C993 C 0.13229 0.55026 0.76874
 N994 N 0.11404 0.57166 0.77959
 H995 H 0.04052 0.63674 0.76718
 H996 H 0.14630 0.52786 0.72955
 C997 C 0.07364 0.40006 0.23384
 C998 C 0.09237 0.42106 0.24735
 N999 N 0.09054 0.42494 0.27639
 C1000 C 0.07033 0.40928 0.29238
 C1001 C 0.05095 0.38900 0.27863
 N1002 N 0.05338 0.38481 0.24969
 N1003 N 0.07423 0.39700 0.20478
 C1004 C 0.09215 0.41460 0.18839
 C1005 C 0.11016 0.43646 0.20161
 N1006 N 0.11024 0.43887 0.23093
 H1007 H 0.06836 0.41369 0.31526
 H1008 H 0.09165 0.41219 0.16515
   
