data_POSCAR
  _audit_creation_date              2014-09-24
  _audit_creation_method            'ToBaCCo'
  _symmetry_space_group_name_H-M    'P1'
  _symmetry_Int_Tables_number       1
  _symmetry_cell_setting            triclinic
  loop_
  _symmetry_equiv_pos_as_xyz
 x,y,z
_cell_length_a 52.9652
_cell_length_b 37.9279
_cell_length_c 38.1042
_cell_angle_alpha 91.386800
_cell_angle_beta 89.420900
_cell_angle_gamma 90.513200
loop_
  _atom_site_label
  _atom_site_type_symbol
  _atom_site_fract_x
  _atom_site_fract_y
  _atom_site_fract_z
C1 C 1.21270 0.25621 0.29802
 H2 H 1.21082 0.22784 0.29546
 C3 C 1.19511 0.27549 0.31791
 H4 H 1.17996 0.26160 0.33113
 C5 C 1.23482 0.30858 0.28367
 H6 H 1.25020 0.32136 0.26994
 C7 C 1.21761 0.32892 0.30322
 H8 H 1.21983 0.35733 0.30403
 N9 N 1.23198 0.27294 0.28127
 C10 C 1.23694 0.18456 0.21196
 H11 H 1.25300 0.17118 0.22234
 C12 C 1.22031 0.16597 0.18988
 H13 H 1.22425 0.13870 0.18304
 C14 C 1.21235 0.23611 0.20810
 H15 H 1.20909 0.26333 0.21581
 C16 C 1.19507 0.21843 0.18650
 H17 H 1.17854 0.23242 0.17819
 Zn18 Zn 1.25360 0.24549 0.25193
 N19 N 1.23278 0.21910 0.22047
 C20 C 1.29146 0.19549 0.26289
 N21 N 1.27341 0.21517 0.27935
 C22 C 1.27069 0.21505 0.31480
 C23 C 1.28670 0.19504 0.33520
 C24 C 1.30805 0.17537 0.28214
 C25 C 1.26622 0.29492 0.19968
 C26 C 1.28230 0.31654 0.18014
 C27 C 1.31700 0.29858 0.21599
 C28 C 1.30026 0.27766 0.23500
 N29 N 1.27545 0.27568 0.22627
 H30 H 1.29345 0.19620 0.23463
 H31 H 1.25659 0.23142 0.32757
 H32 H 1.28435 0.19776 0.36331
 H33 H 1.32139 0.15953 0.26724
 H34 H 1.24636 0.29351 0.19357
 H35 H 1.27449 0.33182 0.15929
 H36 H 1.33677 0.29872 0.22289
 H37 H 1.30720 0.26304 0.25681
 C38 C 1.19888 0.18281 0.17699
 C39 C 1.19727 0.31242 0.32044
 C40 C 1.30817 0.31838 0.18802
 C41 C 1.30645 0.17508 0.31931
 C42 C 0.71310 -0.24658 0.30105
 H43 H 0.71186 -0.27496 0.29780
 C44 C 0.69465 -0.22848 0.32046
 H45 H 0.67952 -0.24329 0.33268
 C46 C 0.73411 -0.19292 0.28821
 H47 H 0.74928 -0.17919 0.27495
 C48 C 0.71598 -0.17371 0.30732
 H49 H 0.71731 -0.14521 0.30836
 N50 N 0.73215 -0.22864 0.28507
 C51 C 0.73812 -0.31420 0.21262
 H52 H 0.75453 -0.32733 0.22237
 C53 C 0.72166 -0.33264 0.19015
 H54 H 0.72598 -0.35957 0.18245
 C55 C 0.71261 -0.26337 0.21073
 H56 H 0.70891 -0.23653 0.21937
 C57 C 0.69555 -0.28088 0.18866
 H58 H 0.67874 -0.26716 0.18090
 Zn59 Zn 0.75403 -0.25439 0.25462
 N60 N 0.73340 -0.28011 0.22234
 C61 C 0.79321 -0.30266 0.26266
 N62 N 0.77427 -0.28572 0.28029
 C63 C 0.77069 -0.28989 0.31536
 C64 C 0.78657 -0.31176 0.33402
 C65 C 0.80983 -0.32411 0.28038
 C66 C 0.76613 -0.20450 0.20261
 C67 C 0.78204 -0.18283 0.18288
 C68 C 0.81663 -0.19851 0.22003
 C69 C 0.80004 -0.21951 0.23923
 N70 N 0.77541 -0.22279 0.22985
 H71 H 0.79593 -0.29852 0.23488
 H72 H 0.75569 -0.27604 0.32907
 H73 H 0.78308 -0.31499 0.36179
 H74 H 0.82538 -0.33584 0.26582
 H75 H 0.74643 -0.20698 0.19587
 H76 H 0.77421 -0.16854 0.16134
 H77 H 0.83633 -0.19759 0.22728
 H78 H 0.80699 -0.23348 0.26148
 C79 C 0.69989 -0.31606 0.17798
 C80 C 0.69563 -0.19146 0.32320
 C81 C 0.80780 -0.17997 0.19117
 C82 C 0.80674 -0.32893 0.31666
 C83 C 0.71618 0.25828 -0.19492
 H84 H 0.71648 0.22981 -0.19386
 C85 C 0.69860 0.27716 -0.17476
 H86 H 0.68579 0.26298 -0.15772
 C87 C 0.73215 0.31102 -0.21918
 H88 H 0.74499 0.32400 -0.23702
 C89 C 0.71472 0.33101 -0.19948
 H90 H 0.71419 0.35929 -0.20258
 N91 N 0.73215 0.27524 -0.21717
 C92 C 0.73993 0.19792 -0.30416
 H93 H 0.76000 0.19433 -0.30728
 C94 C 0.72344 0.17939 -0.32666
 H95 H 0.73102 0.16128 -0.34640
 C96 C 0.70556 0.22723 -0.27657
 H97 H 0.69839 0.24646 -0.25785
 C98 C 0.68855 0.20955 -0.29849
 H99 H 0.66857 0.21473 -0.29531
 Zn100 Zn 0.75258 0.24670 -0.24771
 N101 N 0.73077 0.22084 -0.27913
 C102 C 0.78775 0.19204 -0.23691
 N103 N 0.77244 0.21593 -0.22033
 C104 C 0.77283 0.22026 -0.18475
 C105 C 0.78883 0.20006 -0.16455
 C106 C 0.80410 0.17139 -0.21773
 C107 C 0.76587 0.29366 -0.30169
 C108 C 0.78226 0.31433 -0.32180
 C109 C 0.81647 0.29725 -0.28468
 C110 C 0.79940 0.27706 -0.26543
 N111 N 0.77468 0.27546 -0.27421
 H112 H 0.78808 0.18981 -0.26514
 H113 H 0.76151 0.24031 -0.17188
 H114 H 0.78932 0.20468 -0.13641
 H115 H 0.81622 0.15275 -0.23154
 H116 H 0.74600 0.29219 -0.30796
 H117 H 0.77383 0.32918 -0.34238
 H118 H 0.83600 0.29553 -0.27719
 H119 H 0.80609 0.26237 -0.24347
 C120 C 0.69735 0.18522 -0.32395
 C121 C 0.69720 0.31392 -0.17760
 C122 C 0.80838 0.31671 -0.31380
 C123 C 0.80493 0.17547 -0.18106
 C124 C 1.21914 -0.24028 -0.19016
 H125 H 1.22045 -0.26858 -0.18780
 C126 C 1.20165 -0.22155 -0.16972
 H127 H 1.18989 -0.23559 -0.15120
 C128 C 1.23243 -0.18800 -0.21800
 H129 H 1.24419 -0.17511 -0.23723
 C130 C 1.21505 -0.16818 -0.19809
 H131 H 1.21343 -0.14021 -0.20253
 N132 N 1.23355 -0.22358 -0.21451
 C133 C 1.23951 -0.29878 -0.30300
 H134 H 1.25959 -0.30034 -0.30793
 C135 C 1.22278 -0.31700 -0.32537
 H136 H 1.23015 -0.33303 -0.34695
 C137 C 1.20530 -0.27420 -0.27063
 H138 H 1.19826 -0.25701 -0.24994
 C139 C 1.18804 -0.29161 -0.29234
 H140 H 1.16804 -0.28821 -0.28728
 Zn141 Zn 1.25304 -0.25280 -0.24550
 N142 N 1.23057 -0.27836 -0.27579
 C143 C 1.28389 -0.31247 -0.23349
 N144 N 1.27269 -0.28368 -0.21830
 C145 C 1.27695 -0.27459 -0.18407
 C146 C 1.29289 -0.29471 -0.16377
 C147 C 1.30010 -0.33320 -0.21419
 C148 C 1.26540 -0.20397 -0.29801
 C149 C 1.28153 -0.18352 -0.31867
 C150 C 1.31707 -0.20796 -0.28865
 C151 C 1.30030 -0.22765 -0.26844
 N152 N 1.27499 -0.22525 -0.27330
 H153 H 1.28080 -0.31900 -0.26080
 H154 H 1.26871 -0.25095 -0.17272
 H155 H 1.29655 -0.28645 -0.13689
 H156 H 1.30900 -0.35584 -0.22679
 H157 H 1.24518 -0.20273 -0.30147
 H158 H 1.27351 -0.16618 -0.33768
 H159 H 1.33714 -0.21083 -0.28462
 H160 H 1.30758 -0.24484 -0.24881
 C161 C 1.19666 -0.31334 -0.32015
 C162 C 1.19884 -0.18520 -0.17435
 C163 C 1.30780 -0.18527 -0.31403
 C164 C 1.30492 -0.32421 -0.17895
 C165 C 0.26698 0.21929 0.68733
 H166 H 0.25141 0.23109 0.67397
 C167 C 0.28415 0.19835 0.66828
 H168 H 0.28116 0.19377 0.64049
 C169 C 0.28942 0.21043 0.73978
 H170 H 0.29139 0.21545 0.76770
 C171 C 0.30724 0.18997 0.72172
 H172 H 0.32307 0.18000 0.73610
 N173 N 0.26983 0.22468 0.72249
 C174 C 0.20756 0.24073 0.79593
 H175 H 0.20590 0.26914 0.79566
 C176 C 0.19025 0.22078 0.81507
 H177 H 0.17606 0.23486 0.83025
 C178 C 0.22907 0.18916 0.77710
 H179 H 0.24391 0.17690 0.76159
 C180 C 0.21228 0.16812 0.79602
 H181 H 0.21454 0.13986 0.79375
 Zn182 Zn 0.24782 0.25334 0.74993
 N183 N 0.22644 0.22475 0.77742
 C184 C 0.20905 0.26364 0.70196
 N185 N 0.22695 0.28075 0.72140
 C186 C 0.22860 0.31658 0.72237
 C187 C 0.21195 0.33661 0.70302
 C188 C 0.19199 0.28263 0.68229
 C189 C 0.26632 0.28173 0.81461
 C190 C 0.28310 0.30120 0.83565
 C191 C 0.30360 0.32212 0.78309
 C192 C 0.28645 0.30228 0.76309
 N193 N 0.26830 0.28259 0.77902
 H194 H 0.20782 0.23515 0.70215
 H195 H 0.24247 0.32976 0.73871
 H196 H 0.21324 0.36510 0.70471
 H197 H 0.17794 0.26849 0.66688
 H198 H 0.25217 0.26523 0.82678
 H199 H 0.28163 0.29947 0.86392
 H200 H 0.31788 0.33767 0.76987
 H201 H 0.28784 0.30203 0.73474
 C202 C 0.19215 0.18363 0.81531
 C203 C 0.30475 0.18343 0.68543
 C204 C 0.30223 0.32146 0.81991
 C205 C 0.19324 0.31964 0.68279
 C206 C 0.76487 0.71574 0.68535
 H207 H 0.74830 0.72519 0.67242
 C208 C 0.78193 0.69433 0.66664
 H209 H 0.77790 0.68713 0.63962
 C210 C 0.78984 0.71295 0.73640
 H211 H 0.79278 0.72035 0.76365
 C212 C 0.80759 0.69218 0.71856
 H213 H 0.82436 0.68454 0.73234
 N214 N 0.76907 0.72448 0.71964
 C215 C 0.70651 0.74133 0.79233
 H216 H 0.70442 0.76964 0.79122
 C217 C 0.68936 0.72141 0.81178
 H218 H 0.67483 0.73546 0.82631
 C219 C 0.72897 0.68998 0.77534
 H220 H 0.74420 0.67779 0.76051
 C221 C 0.71235 0.66897 0.79458
 H222 H 0.71507 0.64077 0.79314
 Zn223 Zn 0.74705 0.75368 0.74655
 N224 N 0.72576 0.72543 0.77454
 C225 C 0.70801 0.76276 0.69877
 N226 N 0.72619 0.78036 0.71727
 C227 C 0.72825 0.81612 0.71655
 C228 C 0.71175 0.83555 0.69638
 C229 C 0.69108 0.78115 0.67832
 C230 C 0.76513 0.78334 0.81089
 C231 C 0.78189 0.80286 0.83190
 C232 C 0.80289 0.82283 0.77934
 C233 C 0.78574 0.80294 0.75935
 N234 N 0.76739 0.78361 0.77530
 H235 H 0.70643 0.73438 0.70032
 H236 H 0.74239 0.82978 0.73207
 H237 H 0.71340 0.86403 0.69668
 H238 H 0.67683 0.76659 0.66367
 H239 H 0.75080 0.76719 0.82312
 H240 H 0.78023 0.80148 0.86018
 H241 H 0.81737 0.83799 0.76609
 H242 H 0.78736 0.80226 0.73102
 C243 C 0.69183 0.68437 0.81313
 C244 C 0.80377 0.68233 0.68317
 C245 C 0.80130 0.82262 0.81616
 C246 C 0.69274 0.81808 0.67708
 C247 C 0.76483 0.21690 0.18584
 H248 H 0.74863 0.22759 0.17291
 C249 C 0.78176 0.19549 0.16688
 H250 H 0.77811 0.18947 0.13949
 C251 C 0.78889 0.21122 0.23746
 H252 H 0.79155 0.21763 0.26499
 C253 C 0.80646 0.19035 0.21946
 H254 H 0.82282 0.18151 0.23343
 N255 N 0.76869 0.22422 0.22049
 C256 C 0.70704 0.24236 0.29436
 H257 H 0.70536 0.27075 0.29379
 C258 C 0.68997 0.22258 0.31412
 H259 H 0.67536 0.23606 0.32914
 C260 C 0.72822 0.19042 0.27531
 H261 H 0.74293 0.17796 0.25974
 C262 C 0.71156 0.16964 0.29469
 H263 H 0.71357 0.14125 0.29361
 Zn264 Zn 0.74723 0.25387 0.24740
 N265 N 0.72570 0.22608 0.27553
 C266 C 0.70657 0.26432 0.20290
 N267 N 0.72675 0.28088 0.21800
 C268 C 0.73117 0.31592 0.21368
 C269 C 0.71493 0.33568 0.19341
 C270 C 0.68965 0.28320 0.18290
 C271 C 0.76574 0.28364 0.31143
 C272 C 0.78296 0.30251 0.33227
 C273 C 0.80496 0.32009 0.27957
 C274 C 0.78732 0.30091 0.25976
 N275 N 0.76821 0.28316 0.27585
 H276 H 0.70338 0.23650 0.20698
 H277 H 0.74706 0.32876 0.22624
 H278 H 0.71852 0.36363 0.19057
 H279 H 0.67356 0.26965 0.17131
 H280 H 0.75087 0.26862 0.32382
 H281 H 0.78105 0.30182 0.36056
 H282 H 0.82001 0.33405 0.26622
 H283 H 0.78918 0.29946 0.23146
 C284 C 0.69203 0.18567 0.31432
 C285 C 0.80306 0.18205 0.18365
 C286 C 0.80307 0.32077 0.31638
 C287 C 0.69370 0.31940 0.17811
 C288 C 0.26251 0.70890 0.19243
 H289 H 0.24342 0.71141 0.18302
 C290 C 0.27990 0.68793 0.17368
 H291 H 0.27395 0.67411 0.14995
 C292 C 0.29326 0.72324 0.23530
 H293 H 0.29837 0.73674 0.25952
 C294 C 0.31118 0.70291 0.21739
 H295 H 0.33011 0.70188 0.22775
 N296 N 0.26952 0.72609 0.22258
 C297 C 0.20973 0.74034 0.30075
 H298 H 0.20845 0.76878 0.30242
 C299 C 0.19349 0.71971 0.32087
 H300 H 0.18000 0.73255 0.33835
 C301 C 0.22877 0.68924 0.27564
 H302 H 0.24236 0.67748 0.25765
 C303 C 0.21289 0.66755 0.29538
 H304 H 0.21430 0.63919 0.29215
 Zn305 Zn 0.24659 0.75434 0.24893
 N306 N 0.22666 0.72495 0.27824
 C307 C 0.19956 0.77413 0.22115
 N308 N 0.22498 0.77877 0.21794
 C309 C 0.23482 0.80011 0.19292
 C310 C 0.21891 0.81896 0.17117
 C311 C 0.18304 0.79254 0.20022
 C312 C 0.26524 0.78511 0.31278
 C313 C 0.28167 0.80567 0.33335
 C314 C 0.29948 0.82939 0.28038
 C315 C 0.28247 0.80868 0.26096
 N316 N 0.26597 0.78670 0.27720
 H317 H 0.19182 0.75622 0.24002
 H318 H 0.25501 0.80237 0.18950
 H319 H 0.22714 0.83573 0.15143
 H320 H 0.16292 0.78916 0.20436
 H321 H 0.25279 0.76661 0.32548
 H322 H 0.28099 0.80146 0.36127
 H323 H 0.31160 0.84693 0.26579
 H324 H 0.28324 0.80922 0.23270
 C325 C 0.19466 0.68279 0.31793
 C326 C 0.30465 0.68470 0.18620
 C327 C 0.29995 0.82786 0.31749
 C328 C 0.19258 0.81560 0.17496
 O329 O 1.03611 0.06360 0.06287
 O330 O 1.06349 0.03054 0.02883
 C331 C 1.05867 0.05435 0.05299
 O332 O 0.96475 -0.06243 0.06260
 O333 O 0.93667 -0.02960 0.03195
 C334 C 0.94195 -0.05346 0.05452
 O335 O 1.03534 -0.05981 0.06262
 O336 O 1.06304 -0.02877 0.02825
 C337 C 1.05804 -0.05123 0.05257
 O338 O 0.96576 0.06599 0.06351
 O339 O 0.93718 0.03244 0.03210
 C340 C 0.94286 0.05686 0.05518
 Zr341 Zr 1.00056 0.04616 0.04424
 O342 O 0.99986 0.04936 0.09975
 O343 O 1.00159 0.10155 0.03954
 Zr344 Zr 0.99995 -0.04270 0.04447
 O345 O 0.99981 -0.03765 0.09983
 O346 O 1.00130 -0.09839 0.04575
 O347 O 1.02295 0.00178 0.05031
 O348 O 0.97828 0.00188 0.05167
 O349 O 0.96404 0.06290 -0.06033
 O350 O 0.93634 0.03070 -0.02703
 C351 C 0.94133 0.05414 -0.05041
 O352 O 1.03347 -0.06238 -0.06536
 O353 O 1.06221 -0.03009 -0.03314
 C354 C 1.05644 -0.05339 -0.05731
 O355 O 0.96278 -0.06504 -0.05928
 O356 O 0.93562 -0.03024 -0.02679
 C357 C 0.94021 -0.05530 -0.04968
 O358 O 1.03442 0.05932 -0.06618
 O359 O 1.06262 0.02894 -0.03336
 C360 C 1.05725 0.05076 -0.05786
 Zr361 Zr 0.99940 0.04417 -0.04370
 O362 O 0.99819 0.04828 -0.09890
 O363 O 1.00049 0.09962 -0.03700
 Zr364 Zr 0.99861 -0.04504 -0.04387
 O365 O 0.99566 -0.04789 -0.09923
 O366 O 0.99927 -0.10054 -0.04039
 Zr367 Zr 1.03750 0.00037 -0.00134
 Zr368 Zr 0.96188 0.00066 0.00162
 O369 O 0.97704 -0.00055 -0.04957
 O370 O 1.02134 -0.00074 -0.05174
 O371 O 0.97729 0.05205 0.00115
 O372 O 1.02131 -0.05045 -0.00066
 O373 O 1.02235 0.05141 -0.00068
 O374 O 0.97664 -0.05070 0.00118
 H375 H 0.96727 0.00232 0.07286
 H376 H 1.03243 -0.07133 -0.00115
 H377 H 0.96546 -0.00117 -0.06984
 H378 H 1.03404 0.07194 -0.00128
 H379 H 0.99060 -0.10755 0.02639
 H380 H 0.99874 -0.10995 -0.06487
 H381 H 1.00881 -0.03207 -0.10893
 H382 H 0.99418 0.02452 -0.10856
 H383 H 1.00112 0.10919 -0.06095
 H384 H 1.00228 0.11143 0.06382
 H385 H 1.00964 0.02914 0.10805
 H386 H 0.99968 -0.06199 0.10871
 O387 O 1.03577 0.56284 0.56457
 O388 O 1.06392 0.53020 0.53152
 C389 C 1.05858 0.55398 0.55550
 O390 O 0.96476 0.43672 0.56328
 O391 O 0.93714 0.46928 0.53163
 C392 C 0.94207 0.44552 0.55447
 O393 O 1.03531 0.44054 0.56661
 O394 O 1.06353 0.47084 0.53237
 C395 C 1.05816 0.44909 0.55717
 O396 O 0.96557 0.56512 0.56261
 O397 O 0.93747 0.53121 0.53072
 C398 C 0.94279 0.55575 0.55392
 Zr399 Zr 1.00066 0.54542 0.54460
 O400 O 0.99901 0.55012 0.60000
 O401 O 1.00166 0.60069 0.53875
 Zr402 Zr 1.00024 0.45659 0.54644
 O403 O 0.99880 0.46228 0.60173
 O404 O 1.00194 0.40097 0.54861
 O405 O 1.02298 0.50133 0.55232
 O406 O 0.97838 0.50116 0.55212
 O407 O 0.96610 0.55905 0.43750
 O408 O 0.93770 0.52804 0.47097
 C409 C 0.94324 0.55040 0.44673
 O410 O 1.03604 0.43510 0.43813
 O411 O 1.06383 0.46831 0.47104
 C412 C 1.05878 0.44459 0.44701
 O413 O 0.96517 0.43191 0.44175
 O414 O 0.93747 0.46716 0.47279
 C415 C 0.94245 0.44174 0.45051
 O416 O 1.03647 0.55667 0.43507
 O417 O 1.06413 0.52725 0.46955
 C418 C 1.05916 0.54848 0.44438
 Zr419 Zr 1.00112 0.54176 0.45663
 O420 O 1.00121 0.54500 0.40130
 O421 O 1.00172 0.59732 0.46238
 Zr422 Zr 1.00062 0.45259 0.45813
 O423 O 0.99876 0.44877 0.40271
 O424 O 1.00140 0.39719 0.46272
 Zr425 Zr 1.03851 0.49912 0.50123
 Zr426 Zr 0.96286 0.49907 0.50156
 O427 O 0.97902 0.49678 0.45091
 O428 O 1.02333 0.49690 0.45026
 O429 O 0.97815 0.55050 0.50056
 O430 O 1.02251 0.44819 0.50229
 O431 O 1.02324 0.55004 0.50037
 O432 O 0.97776 0.44778 0.50248
 H433 H 0.96701 0.50181 0.57293
 H434 H 1.03372 0.42743 0.50265
 H435 H 0.96793 0.49546 0.43013
 H436 H 1.03489 0.57062 0.49984
 H437 H 0.99139 0.39133 0.52929
 H438 H 1.00145 0.38731 0.43840
 H439 H 1.01185 0.46486 0.39328
 H440 H 0.99680 0.52128 0.39186
 H441 H 1.00268 0.60645 0.43827
 H442 H 1.00200 0.61109 0.56284
 H443 H 1.00745 0.52913 0.60919
 H444 H 0.99848 0.43805 0.61089
 O445 O 0.53622 0.06078 0.56331
 O446 O 0.56358 0.02901 0.52813
 C447 C 0.55882 0.05205 0.55306
 O448 O 0.46425 -0.06408 0.56005
 O449 O 0.43628 -0.03017 0.53038
 C450 C 0.44148 -0.05470 0.55228
 O451 O 0.53481 -0.06142 0.56093
 O452 O 0.56269 -0.03035 0.52687
 C453 C 0.55756 -0.05285 0.55110
 O454 O 0.46593 0.06435 0.56399
 O455 O 0.43711 0.03201 0.53176
 C456 C 0.44297 0.05579 0.55543
 Zr457 Zr 0.50059 0.04465 0.54413
 O458 O 0.49988 0.04702 0.59964
 O459 O 0.50192 0.10015 0.54055
 Zr460 Zr 0.49955 -0.04416 0.54257
 O461 O 0.49912 -0.04044 0.59801
 O462 O 0.50097 -0.09990 0.54255
 O463 O 0.52275 -0.00002 0.54929
 O464 O 0.47808 0.00046 0.55068
 O465 O 0.46413 0.06384 0.43999
 O466 O 0.43624 0.03127 0.47265
 C467 C 0.44137 0.05508 0.44969
 O468 O 0.53307 -0.06193 0.43251
 O469 O 0.56202 -0.03075 0.46545
 C470 C 0.55610 -0.05354 0.44085
 O471 O 0.46251 -0.06394 0.43791
 O472 O 0.43552 -0.03004 0.47160
 C473 C 0.44001 -0.05441 0.44797
 O474 O 0.53453 0.05972 0.43400
 O475 O 0.56259 0.02848 0.46624
 C476 C 0.55732 0.05084 0.44218
 Zr477 Zr 0.49943 0.04453 0.45623
 O478 O 0.49817 0.04978 0.40117
 O479 O 0.50082 0.09986 0.46396
 Zr480 Zr 0.49828 -0.04466 0.45424
 O481 O 0.49552 -0.04643 0.39882
 O482 O 0.49857 -0.10025 0.45680
 Zr483 Zr 0.53733 -0.00051 0.49765
 Zr484 Zr 0.46166 0.00047 0.50068
 O485 O 0.47687 0.00015 0.44949
 O486 O 0.52120 -0.00042 0.44726
 O487 O 0.47736 0.05171 0.50121
 O488 O 0.52092 -0.05120 0.49735
 O489 O 0.52241 0.05069 0.49937
 O490 O 0.47623 -0.05104 0.49913
 H491 H 0.46705 0.00054 0.57185
 H492 H 0.53199 -0.07214 0.49657
 H493 H 0.46535 0.00006 0.42917
 H494 H 0.53418 0.07114 0.49921
 H495 H 0.48986 -0.10865 0.52346
 H496 H 0.49821 -0.10926 0.43217
 H497 H 0.50873 -0.03049 0.38948
 H498 H 0.49446 0.02611 0.39105
 H499 H 0.50140 0.10988 0.44019
 H500 H 0.50271 0.10954 0.56501
 H501 H 0.50877 0.02588 0.60762
 H502 H 0.49892 -0.06500 0.60633
 O503 O 0.53732 0.56550 0.06296
 O504 O 0.56453 0.53218 0.02891
 C505 C 0.55984 0.55612 0.05298
 O506 O 0.46538 0.44008 0.06381
 O507 O 0.43727 0.47307 0.03330
 C508 C 0.44256 0.44917 0.05580
 O509 O 0.53622 0.44263 0.06418
 O510 O 0.56393 0.47299 0.02918
 C511 C 0.55893 0.45102 0.05396
 O512 O 0.46699 0.56850 0.06372
 O513 O 0.43819 0.53469 0.03304
 C514 C 0.44399 0.55938 0.05580
 Zr515 Zr 0.50168 0.54819 0.04456
 O516 O 0.50112 0.55202 0.10003
 O517 O 0.50294 0.60353 0.03931
 Zr518 Zr 0.50082 0.45933 0.04574
 O519 O 0.50055 0.46452 0.10108
 O520 O 0.50222 0.40367 0.04740
 O521 O 0.52395 0.50379 0.05096
 O522 O 0.47933 0.50409 0.05265
 O523 O 0.46472 0.56373 -0.06006
 O524 O 0.43716 0.53168 -0.02644
 C525 C 0.44206 0.55492 -0.05001
 O526 O 0.53405 0.43860 -0.06422
 O527 O 0.56299 0.47086 -0.03239
 C528 C 0.55707 0.44752 -0.05645
 O529 O 0.46361 0.43581 -0.05765
 O530 O 0.43658 0.47083 -0.02527
 C531 C 0.44109 0.44556 -0.04794
 O532 O 0.53512 0.56017 -0.06613
 O533 O 0.56342 0.52988 -0.03335
 C534 C 0.55797 0.55155 -0.05795
 Zr535 Zr 0.50015 0.54535 -0.04331
 O536 O 0.49897 0.54891 -0.09856
 O537 O 0.50126 0.60087 -0.03711
 Zr538 Zr 0.49933 0.45613 -0.04252
 O539 O 0.49616 0.45262 -0.09784
 O540 O 0.50007 0.40068 -0.03829
 Zr541 Zr 0.53838 0.50181 -0.00075
 Zr542 Zr 0.46276 0.50242 0.00275
 O543 O 0.47777 0.50059 -0.04854
 O544 O 0.52204 0.50030 -0.05103
 O545 O 0.47822 0.55376 0.00161
 O546 O 0.52212 0.45108 0.00060
 O547 O 0.52332 0.55290 -0.00052
 O548 O 0.47743 0.45100 0.00267
 H549 H 0.46834 0.50483 0.07384
 H550 H 0.53325 0.43021 0.00029
 H551 H 0.46616 0.49964 -0.06876
 H552 H 0.53505 0.57339 -0.00139
 H553 H 0.49117 0.39441 0.02847
 H554 H 0.49959 0.39088 -0.06262
 H555 H 0.50897 0.46882 -0.10776
 H556 H 0.49401 0.52537 -0.10789
 H557 H 0.50192 0.61029 -0.06113
 H558 H 0.50357 0.61368 0.06350
 H559 H 0.51051 0.53152 0.10851
 H560 H 0.50020 0.44019 0.11000
 C561 C 1.14192 0.12798 0.11749
 C562 C 1.14723 0.16346 0.11080
 C563 C 1.16639 0.18091 0.12921
 C564 C 1.18009 0.16336 0.15480
 C565 C 1.17470 0.12738 0.15976
 N566 N 1.15600 0.11085 0.14127
 C567 C 1.12055 0.10954 0.10039
 N568 N 1.12296 0.07537 0.08911
 C569 C 1.10361 0.05720 0.07359
 C570 C 1.08006 0.07326 0.06963
 C571 C 1.07714 0.10823 0.08166
 C572 C 1.09736 0.12652 0.09672
 H573 H 1.17034 0.20823 0.12348
 H574 H 1.18461 0.11268 0.17922
 H575 H 1.10649 0.03016 0.06487
 H576 H 1.05928 0.12159 0.07907
 H577 H 1.13662 0.17758 0.09156
 H578 H 1.09474 0.15345 0.10606
 C579 C 1.13994 0.63247 0.62019
 C580 C 1.13768 0.66877 0.62744
 C581 C 1.15669 0.68661 0.64567
 C582 C 1.17811 0.66858 0.65658
 C583 C 1.18046 0.63278 0.64689
 N584 N 1.16145 0.61572 0.62941
 C585 C 1.11890 0.61212 0.60412
 N586 N 1.12376 0.58357 0.58281
 C587 C 1.10495 0.56425 0.56725
 C588 C 1.07953 0.57326 0.57314
 C589 C 1.07425 0.60203 0.59581
 C590 C 1.09376 0.62140 0.61125
 H591 H 1.15447 0.71447 0.65173
 H592 H 1.19681 0.61802 0.65461
 H593 H 1.10988 0.54206 0.55023
 H594 H 1.05500 0.60988 0.60150
 H595 H 1.12128 0.68325 0.61944
 H596 H 1.08910 0.64315 0.62898
 C597 C 0.64121 0.12971 0.61624
 C598 C 0.63960 0.16642 0.62112
 C599 C 0.65845 0.18461 0.63937
 C600 C 0.67907 0.16649 0.65275
 C601 C 0.68082 0.13008 0.64545
 N602 N 0.66198 0.11272 0.62785
 C603 C 0.62002 0.10934 0.60055
 N604 N 0.62451 0.08011 0.57997
 C605 C 0.60542 0.06100 0.56475
 C606 C 0.58014 0.07090 0.57033
 C607 C 0.57528 0.10040 0.59222
 C608 C 0.59503 0.11957 0.60724
 H609 H 0.65668 0.21283 0.64356
 H610 H 0.69649 0.11518 0.65521
 H611 H 0.61002 0.03829 0.54822
 H612 H 0.55616 0.10909 0.59746
 H613 H 0.62374 0.18093 0.61135
 H614 H 0.59069 0.14201 0.62425
 C615 C 0.64320 0.62949 0.11764
 C616 C 0.64828 0.66516 0.11159
 C617 C 0.66734 0.68253 0.13028
 C618 C 0.68127 0.66463 0.15539
 C619 C 0.67620 0.62846 0.15959
 N620 N 0.65752 0.61206 0.14094
 C621 C 0.62183 0.61113 0.10036
 N622 N 0.62417 0.57692 0.08914
 C623 C 0.60479 0.55882 0.07356
 C624 C 0.58130 0.57499 0.06946
 C625 C 0.57847 0.61001 0.08136
 C626 C 0.59869 0.62822 0.09653
 H627 H 0.67103 0.71006 0.12516
 H628 H 0.68633 0.61347 0.17861
 H629 H 0.60759 0.53171 0.06497
 H630 H 0.56066 0.62345 0.07865
 H631 H 0.63756 0.67949 0.09263
 H632 H 0.59608 0.65515 0.10586
 C633 C 0.86096 -0.12191 0.12894
 C634 C 0.84018 -0.13837 0.11264
 C635 C 0.82261 -0.15678 0.13293
 C636 C 0.82553 -0.15868 0.16947
 C637 C 0.84634 -0.14113 0.18472
 N638 N 0.86336 -0.12382 0.16436
 C639 C 0.88111 -0.10415 0.10865
 N640 N 0.90501 -0.10383 0.12144
 C641 C 0.92464 -0.08825 0.10443
 C642 C 0.92073 -0.07115 0.07270
 C643 C 0.89618 -0.07076 0.05916
 C644 C 0.87635 -0.08735 0.07696
 H645 H 0.80723 -0.17046 0.11980
 H646 H 0.84921 -0.14123 0.21278
 H647 H 0.94321 -0.08885 0.11600
 H648 H 0.89233 -0.05778 0.03480
 H649 H 0.83798 -0.13822 0.08445
 H650 H 0.85750 -0.08642 0.06633
 C651 C 0.86068 0.37489 0.62658
 C652 C 0.83690 0.36682 0.61264
 C653 C 0.81931 0.34794 0.63253
 C654 C 0.82508 0.33644 0.66669
 C655 C 0.84933 0.34604 0.67945
 N656 N 0.86597 0.36433 0.65944
 C657 C 0.88076 0.39335 0.60660
 N658 N 0.90511 0.38948 0.61681
 C659 C 0.92481 0.40557 0.60047
 C660 C 0.92062 0.42752 0.57200
 C661 C 0.89564 0.43217 0.56107
 C662 C 0.87568 0.41518 0.57826
 H663 H 0.80188 0.34089 0.61962
 H664 H 0.85522 0.34055 0.70574
 H665 H 0.94369 0.40135 0.61003
 H666 H 0.89149 0.44898 0.53932
 H667 H 0.83209 0.37377 0.58619
 H668 H 0.85659 0.41976 0.56979
 C669 C 0.36075 -0.12588 0.62477
 C670 C 0.33845 -0.13851 0.60909
 C671 C 0.32095 -0.15745 0.62906
 C672 C 0.32556 -0.16378 0.66461
 C673 C 0.34791 -0.15006 0.67932
 N674 N 0.36472 -0.13207 0.65929
 C675 C 0.38074 -0.10741 0.60481
 N676 N 0.40495 -0.10944 0.61612
 C677 C 0.42451 -0.09316 0.59963
 C678 C 0.42023 -0.07288 0.56998
 C679 C 0.39535 -0.07002 0.55802
 C680 C 0.37557 -0.08734 0.57526
 H681 H 0.30420 -0.16799 0.61641
 H682 H 0.35209 -0.15357 0.70674
 H683 H 0.44332 -0.09584 0.61000
 H684 H 0.39117 -0.05447 0.53537
 H685 H 0.33488 -0.13491 0.58150
 H686 H 0.35650 -0.08438 0.56594
 C687 C 0.36154 0.37842 0.12801
 C688 C 0.34067 0.36276 0.11114
 C689 C 0.32301 0.34371 0.13071
 C690 C 0.32599 0.34029 0.16708
 C691 C 0.34690 0.35701 0.18294
 N692 N 0.36397 0.37503 0.16327
 C693 C 0.38168 0.39700 0.10843
 N694 N 0.40556 0.39701 0.12130
 C695 C 0.42519 0.41325 0.10489
 C696 C 0.42130 0.43133 0.07374
 C697 C 0.39675 0.43216 0.06022
 C698 C 0.37693 0.41491 0.07737
 H699 H 0.30753 0.33073 0.11714
 H700 H 0.34981 0.35573 0.21094
 H701 H 0.44376 0.41227 0.11644
 H702 H 0.39291 0.44593 0.03631
 H703 H 0.33844 0.36405 0.08301
 H704 H 0.35811 0.41615 0.06672
 C705 C 0.85953 0.12069 -0.12123
 C706 C 0.83492 0.12489 -0.10772
 C707 C 0.81698 0.14241 -0.12733
 C708 C 0.82343 0.15568 -0.16035
 C709 C 0.84821 0.15089 -0.17284
 N710 N 0.86535 0.13398 -0.15320
 C711 C 0.87977 0.10338 -0.10157
 N712 N 0.90420 0.11050 -0.11049
 C713 C 0.92401 0.09553 -0.09431
 C714 C 0.91984 0.07142 -0.06744
 C715 C 0.89478 0.06351 -0.05785
 C716 C 0.87473 0.07936 -0.07482
 H717 H 0.79808 0.14556 -0.11668
 H718 H 0.85417 0.16130 -0.19782
 H719 H 0.94297 0.10234 -0.10275
 H720 H 0.89061 0.04482 -0.03749
 H721 H 0.82957 0.11559 -0.08208
 H722 H 0.85563 0.07215 -0.06748
 C723 C 0.86226 0.61296 0.37184
 C724 C 0.85633 0.60298 0.33725
 C725 C 0.83764 0.62103 0.31970
 C726 C 0.82508 0.64951 0.33625
 C727 C 0.83120 0.65791 0.37138
 N728 N 0.84935 0.63968 0.38803
 C729 C 0.88297 0.59597 0.39040
 N730 N 0.87997 0.58744 0.42471
 C731 C 0.89877 0.57237 0.44313
 C732 C 0.92238 0.56615 0.42726
 C733 C 0.92588 0.57517 0.39205
 C734 C 0.90617 0.58973 0.37346
 H735 H 0.83316 0.61266 0.29312
 H736 H 0.82232 0.67973 0.38530
 H737 H 0.89541 0.56588 0.47025
 H738 H 0.94380 0.57067 0.37881
 H739 H 0.86605 0.58141 0.32397
 H740 H 0.90920 0.59681 0.34637
 C741 C 0.35991 0.12223 0.37886
 C742 C 0.33656 0.13097 0.39403
 C743 C 0.31864 0.14834 0.37428
 C744 C 0.32356 0.15717 0.33889
 C745 C 0.34748 0.14727 0.32499
 N746 N 0.36461 0.13087 0.34505
 C747 C 0.38013 0.10508 0.39862
 N748 N 0.40449 0.10991 0.38797
 C749 C 0.42422 0.09476 0.40417
 C750 C 0.42001 0.07274 0.43277
 C751 C 0.39500 0.06717 0.44412
 C752 C 0.37504 0.08331 0.42719
 H753 H 0.30065 0.15332 0.38695
 H754 H 0.35363 0.15424 0.29897
 H755 H 0.44313 0.09964 0.39430
 H756 H 0.39081 0.05015 0.46587
 H757 H 0.33218 0.12509 0.42106
 H758 H 0.35591 0.07800 0.43590
 C759 C 0.35987 0.62071 -0.12039
 C760 C 0.33683 0.63004 -0.10426
 C761 C 0.31873 0.64762 -0.12344
 C762 C 0.32342 0.65573 -0.15865
 C763 C 0.34655 0.64562 -0.17388
 N764 N 0.36401 0.62891 -0.15457
 C765 C 0.38029 0.60355 -0.10107
 N766 N 0.40451 0.60794 -0.11247
 C767 C 0.42439 0.59305 -0.09638
 C768 C 0.42048 0.57188 -0.06708
 C769 C 0.39560 0.56669 -0.05501
 C770 C 0.37549 0.58248 -0.07188
 H771 H 0.30111 0.65501 -0.11074
 H772 H 0.35106 0.65180 -0.20083
 H773 H 0.44321 0.59754 -0.10674
 H774 H 0.39163 0.55036 -0.03265
 H775 H 0.33302 0.62479 -0.07695
 H776 H 0.35646 0.57759 -0.06253
 C777 C 1.13733 -0.12915 -0.12614
 C778 C 1.13373 -0.16389 -0.13873
 C779 C 1.15386 -0.18208 -0.15406
 C780 C 1.17775 -0.16603 -0.15674
 C781 C 1.18072 -0.13142 -0.14333
 N782 N 1.16074 -0.11413 -0.12842
 C783 C 1.11629 -0.10889 -0.10997
 N784 N 1.12129 -0.08359 -0.08496
 C785 C 1.10265 -0.06501 -0.06829
 C786 C 1.07720 -0.07163 -0.07648
 C787 C 1.07176 -0.09685 -0.10294
 C788 C 1.09116 -0.11536 -0.11975
 H789 H 1.15059 -0.20856 -0.16437
 H790 H 1.19890 -0.11822 -0.14452
 H791 H 1.10775 -0.04552 -0.04832
 H792 H 1.05248 -0.10255 -0.11057
 H793 H 1.11566 -0.17720 -0.13651
 H794 H 1.08641 -0.13433 -0.14034
 C795 C 1.14130 0.37305 0.37667
 C796 C 1.16680 0.38366 0.37802
 C797 C 1.18506 0.36384 0.35990
 C798 C 1.17810 0.33360 0.34021
 C799 C 1.15241 0.32418 0.33921
 N800 N 1.13500 0.34383 0.35710
 C801 C 1.12082 0.39269 0.39523
 N802 N 1.09648 0.38578 0.38591
 C803 C 1.07648 0.40204 0.40177
 C804 C 1.08035 0.42698 0.42904
 C805 C 1.10528 0.43447 0.43922
 C806 C 1.12549 0.41737 0.42257
 H807 H 1.20465 0.37206 0.36156
 H808 H 1.14606 0.30153 0.32379
 H809 H 1.05762 0.39530 0.39307
 H810 H 1.10921 0.45325 0.46036
 H811 H 1.17279 0.40713 0.39236
 H812 H 1.14434 0.42314 0.43174
 C813 C 0.63516 -0.13253 0.37110
 C814 C 0.62989 -0.16364 0.35167
 C815 C 0.64959 -0.18282 0.33638
 C816 C 0.67470 -0.17153 0.34055
 C817 C 0.67926 -0.14065 0.36073
 N818 N 0.65968 -0.12227 0.37537
 C819 C 0.61472 -0.11111 0.38753
 N820 N 0.61985 -0.09015 0.41619
 C821 C 0.60172 -0.07077 0.43313
 C822 C 0.57664 -0.07208 0.42147
 C823 C 0.57116 -0.09272 0.39141
 C824 C 0.59007 -0.11196 0.37429
 H825 H 0.64508 -0.20625 0.32081
 H826 H 0.69835 -0.13125 0.36507
 H827 H 0.60682 -0.05508 0.45613
 H828 H 0.55219 -0.09420 0.38110
 H829 H 0.61081 -0.17351 0.34851
 H830 H 0.58528 -0.12707 0.35084
 C831 C 0.63670 0.37125 -0.12800
 C832 C 0.63222 0.33753 -0.14277
 C833 C 0.65197 0.31902 -0.15870
 C834 C 0.67638 0.33365 -0.15983
 C835 C 0.68022 0.36727 -0.14436
 N836 N 0.66058 0.38491 -0.12889
 C837 C 0.61606 0.39182 -0.11106
 N838 N 0.62146 0.41548 -0.08465
 C839 C 0.60314 0.43411 -0.06724
 C840 C 0.57762 0.42923 -0.07609
 C841 C 0.57183 0.40576 -0.10395
 C842 C 0.59088 0.38723 -0.12150
 H843 H 0.64802 0.29336 -0.17057
 H844 H 0.69880 0.37936 -0.14431
 H845 H 0.60853 0.45222 -0.04618
 H846 H 0.55252 0.40156 -0.11223
 H847 H 0.61374 0.32520 -0.14177
 H848 H 0.58582 0.36969 -0.14316
 C849 C 1.13804 0.12180 -0.13051
 C850 C 1.16218 0.10820 -0.13719
 C851 C 1.18008 0.12852 -0.15495
 C852 C 1.17423 0.16267 -0.16627
 C853 C 1.14958 0.17495 -0.15897
 N854 N 1.13253 0.15449 -0.14188
 C855 C 1.11801 0.10169 -0.11218
 N856 N 1.09355 0.11094 -0.11701
 C857 C 1.07396 0.09471 -0.10054
 C858 C 1.07844 0.06752 -0.07709
 C859 C 1.10353 0.05748 -0.07164
 C860 C 1.12334 0.07446 -0.08908
 H861 H 1.19871 0.11753 -0.15858
 H862 H 1.14321 0.20009 -0.16802
 H863 H 1.05497 0.10348 -0.10548
 H864 H 1.10791 0.03673 -0.05370
 H865 H 1.16727 0.08204 -0.12928
 H866 H 1.14251 0.06685 -0.08370
 C867 C 1.14051 0.61941 0.37271
 C868 C 1.16574 0.60830 0.37028
 C869 C 1.18351 0.62893 0.35252
 C870 C 1.17624 0.66052 0.33719
 C871 C 1.15083 0.67043 0.33997
 N872 N 1.13392 0.64992 0.35726
 C873 C 1.12049 0.59910 0.39092
 N874 N 1.09600 0.60623 0.38354
 C875 C 1.07629 0.58998 0.39969
 C876 C 1.08061 0.56501 0.42550
 C877 C 1.10572 0.55706 0.43355
 C878 C 1.12568 0.57402 0.41639
 H879 H 1.20294 0.62034 0.35105
 H880 H 1.14426 0.69419 0.32797
 H881 H 1.05729 0.59706 0.39262
 H882 H 1.10996 0.53810 0.45342
 H883 H 1.17177 0.58384 0.38138
 H884 H 1.14479 0.56809 0.42382
 C885 C 0.63806 0.12317 0.37048
 C886 C 0.66362 0.11346 0.37002
 C887 C 0.68126 0.13394 0.35197
 C888 C 0.67359 0.16396 0.33418
 C889 C 0.64788 0.17257 0.33509
 N890 N 0.63108 0.15225 0.35282
 C891 C 0.61817 0.10278 0.38893
 N892 N 0.59364 0.10862 0.38070
 C893 C 0.57407 0.09199 0.39681
 C894 C 0.57859 0.06786 0.42335
 C895 C 0.60374 0.06128 0.43229
 C896 C 0.62354 0.07869 0.41528
 H897 H 0.70093 0.12640 0.35211
 H898 H 0.64102 0.19508 0.32123
 H899 H 0.55502 0.09797 0.38902
 H900 H 0.60814 0.04311 0.45281
 H901 H 0.67008 0.09014 0.38285
 H902 H 0.64263 0.07377 0.42348
 C903 C 0.63832 0.62254 -0.13152
 C904 C 0.66270 0.60950 -0.13753
 C905 C 0.68039 0.62980 -0.15570
 C906 C 0.67411 0.66341 -0.16807
 C907 C 0.64925 0.67514 -0.16139
 N908 N 0.63240 0.65470 -0.14390
 C909 C 0.61844 0.60239 -0.11291
 N910 N 0.59391 0.61105 -0.11812
 C911 C 0.57442 0.59476 -0.10150
 C912 C 0.57907 0.56816 -0.07747
 C913 C 0.60423 0.55867 -0.07167
 C914 C 0.62394 0.57569 -0.08928
 H915 H 0.69919 0.61925 -0.15881
 H916 H 0.64256 0.69979 -0.17124
 H917 H 0.55537 0.60305 -0.10678
 H918 H 0.60874 0.53839 -0.05327
 H919 H 0.66814 0.58376 -0.12880
 H920 H 0.64316 0.56851 -0.08362
 C921 C 0.85717 -0.12369 -0.12127
 C922 C 0.83178 -0.12347 -0.11012
 C923 C 0.81351 -0.14073 -0.13059
 C924 C 0.82037 -0.15830 -0.16205
 C925 C 0.84595 -0.15813 -0.17205
 N926 N 0.86337 -0.14121 -0.15171
 C927 C 0.87769 -0.10615 -0.10100
 N928 N 0.90196 -0.11550 -0.10839
 C929 C 0.92206 -0.10020 -0.09201
 C930 C 0.91840 -0.07335 -0.06651
 C931 C 0.89353 -0.06330 -0.05829
 C932 C 0.87317 -0.07948 -0.07548
 H933 H 0.79399 -0.14017 -0.12189
 H934 H 0.85222 -0.17197 -0.19568
 H935 H 0.94085 -0.10881 -0.09931
 H936 H 0.88977 -0.04256 -0.03896
 H937 H 0.82596 -0.11074 -0.08573
 H938 H 0.85433 -0.07039 -0.06931
 C939 C 0.85956 0.37334 0.37868
 C940 C 0.83410 0.37481 0.38941
 C941 C 0.81565 0.35794 0.36900
 C942 C 0.82241 0.33937 0.33806
 C943 C 0.84806 0.33818 0.32852
 N944 N 0.86567 0.35486 0.34877
 C945 C 0.88015 0.39083 0.39883
 N946 N 0.90440 0.38077 0.39218
 C947 C 0.92448 0.39607 0.40866
 C948 C 0.92079 0.42356 0.43345
 C949 C 0.89595 0.43432 0.44081
 C950 C 0.87567 0.41822 0.42353
 H951 H 0.79609 0.35963 0.37734
 H952 H 0.85423 0.32353 0.30532
 H953 H 0.94328 0.38696 0.40202
 H954 H 0.89215 0.45561 0.45952
 H955 H 0.82830 0.38826 0.41343
 H956 H 0.85690 0.42798 0.42901
 C957 C 0.35588 -0.11990 0.37680
 C958 C 0.33340 -0.13044 0.39321
 C959 C 0.31461 -0.14741 0.37351
 C960 C 0.31777 -0.15411 0.33697
 C961 C 0.34079 -0.14219 0.32180
 N962 N 0.35885 -0.12626 0.34181
 C963 C 0.37693 -0.10324 0.39649
 N964 N 0.40090 -0.10745 0.38397
 C965 C 0.42126 -0.09272 0.40024
 C966 C 0.41809 -0.07179 0.43083
 C967 C 0.39351 -0.06689 0.44409
 C968 C 0.37292 -0.08260 0.42710
 H969 H 0.29734 -0.15385 0.38732
 H970 H 0.34556 -0.14726 0.29456
 H971 H 0.43984 -0.09697 0.38889
 H972 H 0.39015 -0.05075 0.46748
 H973 H 0.33041 -0.12629 0.42113
 H974 H 0.35411 -0.07785 0.43741
 C975 C 0.35803 0.37575 -0.11797
 C976 C 0.33273 0.37545 -0.10644
 C977 C 0.31446 0.35796 -0.12673
 C978 C 0.32126 0.34068 -0.15838
 C979 C 0.34676 0.34136 -0.16873
 N980 N 0.36417 0.35850 -0.14857
 C981 C 0.37854 0.39355 -0.09796
 N982 N 0.40282 0.38454 -0.10571
 C983 C 0.42293 0.40026 -0.08976
 C984 C 0.41926 0.42719 -0.06436
 C985 C 0.39439 0.43686 -0.05574
 C986 C 0.37402 0.42022 -0.07247
 H987 H 0.29499 0.35813 -0.11777
 H988 H 0.35300 0.32778 -0.19253
 H989 H 0.44173 0.39189 -0.09737
 H990 H 0.39065 0.45762 -0.03642
 H991 H 0.32699 0.38797 -0.08189
 H992 H 0.35514 0.42898 -0.06599
 C993 C 1.13962 -0.12425 0.11722
 C994 C 1.16293 -0.10891 0.12654
 C995 C 1.18051 -0.12872 0.14460
 C996 C 1.17500 -0.16377 0.15333
 C997 C 1.15173 -0.17827 0.14265
 N998 N 1.13485 -0.15837 0.12551
 C999 C 1.11943 -0.10414 0.10038
 N1000 N 1.09503 -0.11450 0.10557
 C1001 C 1.07528 -0.09778 0.09105
 C1002 C 1.07949 -0.06888 0.06934
 C1003 C 1.10453 -0.05790 0.06330
 C1004 C 1.12452 -0.07533 0.07885
 H1005 H 1.19799 -0.11620 0.15280
 H1006 H 1.14678 -0.20533 0.14815
 H1007 H 1.05635 -0.10745 0.09620
 H1008 H 1.10869 -0.03597 0.04645
 H1009 H 1.16722 -0.08160 0.12123
 H1010 H 1.14367 -0.06678 0.07338
 C1011 C 1.13888 0.37918 0.62713
 C1012 C 1.16425 0.39036 0.62752
 C1013 C 1.18202 0.37090 0.64548
 C1014 C 1.17466 0.34039 0.66316
 C1015 C 1.14912 0.33031 0.66236
 N1016 N 1.13216 0.34971 0.64477
 C1017 C 1.11893 0.39867 0.60897
 N1018 N 1.09442 0.39295 0.61850
 C1019 C 1.07486 0.40904 0.60280
 C1020 C 1.07938 0.43240 0.57537
 C1021 C 1.10451 0.43875 0.56508
 C1022 C 1.12430 0.42193 0.58167
 H1023 H 1.20153 0.37963 0.64535
 H1024 H 1.14251 0.30737 0.67621
 H1025 H 1.05582 0.40328 0.61167
 H1026 H 1.10891 0.45631 0.54386
 H1027 H 1.17043 0.41406 0.61474
 H1028 H 1.14338 0.42659 0.57244
 C1029 C 0.63865 -0.12361 0.61959
 C1030 C 0.66415 -0.11297 0.61916
 C1031 C 0.68184 -0.13208 0.63768
 C1032 C 0.67429 -0.16170 0.65667
 C1033 C 0.64865 -0.17135 0.65647
 N1034 N 0.63179 -0.15229 0.63838
 C1035 C 0.61865 -0.10428 0.60129
 N1036 N 0.59418 -0.11013 0.61094
 C1037 C 0.57454 -0.09397 0.59554
 C1038 C 0.57891 -0.07022 0.56840
 C1039 C 0.60398 -0.06380 0.55788
 C1040 C 0.62386 -0.08084 0.57408
 H1041 H 0.70144 -0.12377 0.63704
 H1042 H 0.64189 -0.19358 0.67128
 H1043 H 0.55556 -0.09980 0.60460
 H1044 H 0.60826 -0.04582 0.53695
 H1045 H 0.67050 -0.08992 0.60537
 H1046 H 0.64289 -0.07600 0.56480
 C1047 C 0.64025 0.37968 0.12167
 C1048 C 0.66626 0.38448 0.11514
 C1049 C 0.68373 0.36487 0.13356
 C1050 C 0.67547 0.34025 0.15814
 C1051 C 0.64943 0.33602 0.16372
 N1052 N 0.63281 0.35556 0.14571
 C1053 C 0.62029 0.39953 0.10362
 N1054 N 0.59576 0.39168 0.11144
 C1055 C 0.57605 0.40790 0.09630
 C1056 C 0.58036 0.43392 0.07131
 C1057 C 0.60546 0.44278 0.06291
 C1058 C 0.62543 0.42580 0.07898
 H1059 H 0.70371 0.36858 0.12825
 H1060 H 0.64228 0.31766 0.18283
 H1061 H 0.55706 0.40006 0.10364
 H1062 H 0.60972 0.46277 0.04387
 H1063 H 0.67338 0.40283 0.09612
 H1064 H 0.64443 0.43346 0.07183
 C1065 C 0.86069 0.12384 0.12877
 C1066 C 0.85498 0.11613 0.16374
 C1067 C 0.83558 0.13412 0.18114
 C1068 C 0.82208 0.16034 0.16409
 C1069 C 0.82794 0.16642 0.12862
 N1070 N 0.84683 0.14824 0.11208
 C1071 C 0.88197 0.10665 0.11026
 N1072 N 0.87940 0.09552 0.07624
 C1073 C 0.89853 0.07946 0.05809
 C1074 C 0.92199 0.07468 0.07405
 C1075 C 0.92513 0.08664 0.10882
 C1076 C 0.90512 0.10232 0.12711
 H1077 H 0.83127 0.12753 0.20803
 H1078 H 0.81822 0.18642 0.11434
 H1079 H 0.89550 0.07078 0.03117
 H1080 H 0.94293 0.08331 0.12204
 H1081 H 0.86539 0.09632 0.17743
 H1082 H 0.90780 0.11144 0.15397
 C1083 C 0.86083 0.62293 0.62813
 C1084 C 0.85634 0.61710 0.66380
 C1085 C 0.83722 0.63553 0.68140
 C1086 C 0.82278 0.66037 0.66377
 C1087 C 0.82749 0.66459 0.62766
 N1088 N 0.84613 0.64602 0.61099
 C1089 C 0.88193 0.60551 0.60944
 N1090 N 0.87847 0.59116 0.57673
 C1091 C 0.89751 0.57491 0.55851
 C1092 C 0.92177 0.57337 0.57287
 C1093 C 0.92571 0.58851 0.60635
 C1094 C 0.90582 0.60426 0.62480
 H1095 H 0.83385 0.63032 0.70885
 H1096 H 0.81704 0.68346 0.61287
 H1097 H 0.89373 0.56353 0.53280
 H1098 H 0.94409 0.58779 0.61849
 H1099 H 0.86750 0.59840 0.67789
 H1100 H 0.90916 0.61593 0.65058
 C1101 C 0.36190 0.12446 0.63005
 C1102 C 0.35566 0.11602 0.66466
 C1103 C 0.33655 0.13446 0.68229
 C1104 C 0.32384 0.16182 0.66579
 C1105 C 0.33031 0.16875 0.63067
 N1106 N 0.34888 0.15012 0.61392
 C1107 C 0.38285 0.10664 0.61133
 N1108 N 0.38027 0.09662 0.57698
 C1109 C 0.39909 0.08007 0.55863
 C1110 C 0.42228 0.07363 0.57471
 C1111 C 0.42542 0.08434 0.60987
 C1112 C 0.40569 0.10053 0.62834
 H1113 H 0.33179 0.12721 0.70885
 H1114 H 0.32126 0.18965 0.61681
 H1115 H 0.39609 0.07241 0.53144
 H1116 H 0.44301 0.07974 0.62321
 H1117 H 0.36540 0.09524 0.67789
 H1118 H 0.40839 0.10874 0.65547
 C1119 C 0.36256 0.62678 0.13156
 C1120 C 0.36127 0.62645 0.16831
 C1121 C 0.34192 0.64431 0.18593
 C1122 C 0.32383 0.66284 0.16718
 C1123 C 0.32519 0.66127 0.13029
 N1124 N 0.34430 0.64359 0.11363
 C1125 C 0.38372 0.60990 0.11224
 N1126 N 0.37958 0.59334 0.08068
 C1127 C 0.39846 0.57715 0.06206
 C1128 C 0.42325 0.57759 0.07490
 C1129 C 0.42792 0.59522 0.10698
 C1130 C 0.40827 0.61120 0.12575
 H1131 H 0.34121 0.64371 0.21431
 H1132 H 0.31166 0.67508 0.11472
 H1133 H 0.39411 0.56412 0.03725
 H1134 H 0.44673 0.59626 0.11785
 H1135 H 0.37507 0.61246 0.18332
 H1136 H 0.41234 0.62486 0.15035
   
