data_POSCAR
  _audit_creation_date              2014-09-24
  _audit_creation_method            'ToBaCCo'
  _symmetry_space_group_name_H-M    'P1'
  _symmetry_Int_Tables_number       1
  _symmetry_cell_setting            triclinic
  loop_
  _symmetry_equiv_pos_as_xyz
 x,y,z
_cell_length_a 35.7448
_cell_length_b 22.4186
_cell_length_c 12.0168
_cell_angle_alpha 90.966400
_cell_angle_beta 89.255700
_cell_angle_gamma 89.281900
loop_
  _atom_site_label
  _atom_site_type_symbol
  _atom_site_fract_x
  _atom_site_fract_y
  _atom_site_fract_z
C1 C 0.71070 0.25783 0.54718
 C2 C 0.71845 0.26658 0.43258
 C3 C 0.75257 0.24723 0.38542
 C4 C 0.78027 0.21911 0.44884
 C5 C 0.77448 0.21594 0.56693
 C6 C 0.73907 0.23186 0.61187
 H7 H 0.73523 0.22819 0.70072
 H8 H 0.75694 0.25270 0.29662
 C9 C 0.22040 0.77638 0.54622
 C10 C 0.23092 0.79779 0.44010
 C11 C 0.26489 0.77878 0.39103
 C12 C 0.28833 0.73769 0.44441
 C13 C 0.27808 0.71709 0.55185
 C14 C 0.24340 0.73470 0.59846
 H15 H 0.23514 0.71866 0.67978
 H16 H 0.27173 0.79292 0.30748
 C17 C 0.28474 0.24740 -0.55371
 C18 C 0.28911 0.24995 -0.43625
 C19 C 0.26218 0.22454 -0.36719
 C20 C 0.22941 0.20030 -0.41009
 C21 C 0.22607 0.19231 -0.52773
 C22 C 0.25328 0.21836 -0.59752
 H23 H 0.25147 0.21337 -0.68704
 H24 H 0.26536 0.22862 -0.27760
 C25 C -0.22083 0.78153 -0.56151
 C26 C -0.22115 0.78045 -0.44422
 C27 C -0.25065 0.75436 -0.38687
 C28 C -0.28146 0.73034 -0.44200
 C29 C -0.28139 0.72959 -0.56148
 C30 C -0.25111 0.75636 -0.61887
 H31 H -0.24935 0.75282 -0.70852
 H32 H -0.25039 0.75586 -0.29651
 N33 N 0.03766 1.09916 -0.13589
 N34 N 0.06353 1.13818 -0.16229
 N35 N -0.04097 1.06053 -0.20330
 N36 N -0.06330 1.07482 -0.28524
 N37 N -0.04117 1.10272 -0.12592
 N38 N -0.06422 1.14664 -0.15328
 N39 N 0.03666 1.05601 -0.21093
 N40 N 0.06097 1.06512 -0.29187
 C41 C 0.07786 1.11583 -0.25932
 C42 C -0.07820 1.12776 -0.25197
 N43 N -0.04438 0.89372 -0.11939
 N44 N -0.07282 0.85750 -0.13411
 N45 N 0.03533 0.92764 -0.20512
 N46 N 0.06527 0.92047 -0.26949
 N47 N 0.03426 0.88646 -0.12878
 N48 N 0.06345 0.85003 -0.13931
 N49 N -0.04312 0.93331 -0.19838
 N50 N -0.07050 0.92544 -0.26899
 Mn51 Mn -0.00289 0.99415 -0.20515
 C52 C -0.08883 0.87834 -0.22763
 C53 C 0.08238 0.87164 -0.22777
 N54 N -0.03778 1.10636 0.11635
 N55 N -0.06705 1.14227 0.13194
 N56 N 0.04327 1.06280 0.17869
 N57 N 0.07499 1.06861 0.23385
 N58 N 0.04097 1.10329 0.10119
 N59 N 0.07082 1.13715 0.10083
 N60 N -0.03603 1.06685 0.19571
 N61 N -0.06430 1.07438 0.26656
 Mn62 Mn -0.00033 1.10357 -0.01061
 C63 C -0.08328 1.12174 0.22607
 C64 C 0.09173 1.11557 0.18401
 N65 N 0.03654 0.88952 0.10903
 N66 N 0.06186 0.84721 0.12285
 N67 N -0.03858 0.93883 0.19898
 N68 N -0.06748 0.93722 0.26864
 N69 N -0.04190 0.89786 0.12029
 N70 N -0.07308 0.86768 0.13387
 N71 N 0.04061 0.93298 0.18234
 N72 N 0.06926 0.92154 0.24760
 Mn73 Mn -0.00409 0.89122 -0.00458
 Mn74 Mn 0.00261 1.00041 0.19074
 Cl75 Cl -0.00122 0.99747 -0.00724
 C76 C 0.08231 0.86801 0.20830
 C77 C -0.08867 0.89258 0.22709
 N78 N 0.46505 0.43919 0.21447
 N79 N 0.44242 0.42917 0.29969
 N80 N 0.54097 0.38981 0.11850
 N81 N 0.56849 0.35038 0.13022
 N82 N 0.54306 0.43226 0.19469
 N83 N 0.57175 0.42313 0.26004
 N84 N 0.46213 0.39675 0.13846
 N85 N 0.43682 0.35759 0.16872
 C86 C 0.42447 0.37884 0.26883
 C87 C 0.58744 0.37222 0.21897
 N88 N 0.53266 0.42635 -0.20022
 N89 N 0.55970 0.41701 -0.27452
 N90 N 0.45582 0.39322 -0.09936
 N91 N 0.42763 0.35612 -0.10948
 N92 N 0.45435 0.43412 -0.17608
 N93 N 0.42528 0.42585 -0.24090
 N94 N 0.53426 0.38639 -0.12167
 N95 N 0.56232 0.34857 -0.14072
 Mn96 Mn 0.49840 0.39078 0.00888
 C97 C 0.57779 0.36818 -0.23672
 C98 C 0.40874 0.37728 -0.19772
 N99 N 0.54754 0.55924 0.19011
 N100 N 0.57731 0.56402 0.25309
 N101 N 0.46943 0.60924 0.13162
 N102 N 0.44242 0.64909 0.15010
 N103 N 0.46911 0.56850 0.20890
 N104 N 0.44209 0.57973 0.28246
 N105 N 0.54807 0.59908 0.11129
 N106 N 0.57822 0.63248 0.11921
 Mn107 Mn 0.50603 0.49995 0.20310
 C108 C 0.59621 0.60970 0.20808
 C109 C 0.42575 0.63016 0.24481
 N110 N 0.45822 0.56257 -0.17913
 N111 N 0.43107 0.57649 -0.24784
 N112 N 0.54132 0.59585 -0.12953
 N113 N 0.56564 0.63533 -0.16549
 N114 N 0.53613 0.55425 -0.20597
 N115 N 0.55646 0.56454 -0.29578
 N116 N 0.46341 0.60615 -0.10667
 N117 N 0.44032 0.65115 -0.12512
 Mn118 Mn 0.49517 0.49419 -0.19128
 Mn119 Mn 0.50577 0.60323 0.00190
 Cl120 Cl 0.50134 0.49704 0.00560
 C121 C 0.41988 0.63149 -0.21176
 C122 C 0.57515 0.61450 -0.26870
 C123 C 0.31134 0.27423 0.36513
 C124 C 0.34825 0.27819 0.38035
 C125 C 0.37226 0.31095 0.30285
 C126 C 0.39868 0.34695 0.34228
 H127 H 0.36128 0.25942 0.45266
 H128 H 0.36742 0.30741 0.21413
 H129 H 0.29978 0.29138 0.28884
 H130 H 0.40112 0.35410 0.43134
 C131 C -0.18665 0.80333 0.37926
 C132 C -0.18489 0.82068 0.27310
 C133 C -0.14945 0.84132 0.22186
 C134 C -0.12435 0.87390 0.27782
 H135 H -0.20909 0.81779 0.22038
 H136 H -0.14474 0.83123 0.13429
 H137 H -0.16098 0.80452 0.42603
 H138 H -0.13036 0.88867 0.36253
 C139 C 0.69186 0.69678 0.37825
 C140 C 0.68064 0.70959 0.27454
 C141 C 0.64831 0.68105 0.21904
 C142 C 0.63105 0.63231 0.25601
 H143 H 0.69235 0.74730 0.23190
 H144 H 0.63753 0.70303 0.14633
 H145 H 0.67842 0.66105 0.42120
 H146 H 0.64157 0.60813 0.32614
 C147 C 0.19808 1.15455 0.42826
 C148 C 0.18304 1.15918 0.32712
 C149 C 0.14885 1.12555 0.29875
 C150 C 0.12828 1.14149 0.21192
 H151 H 0.19278 1.19257 0.26991
 H152 H 0.13917 1.09059 0.35291
 H153 H 0.18539 1.12268 0.48364
 H154 H 0.13782 1.17760 0.16025
 C155 C 0.67590 0.27746 -0.40538
 C156 C 0.66441 0.26901 -0.29958
 C157 C 0.62911 0.29421 -0.25172
 C158 C 0.61133 0.34217 -0.29155
 H159 H 0.68006 0.24132 -0.24388
 H160 H 0.61876 0.27420 -0.17606
 H161 H 0.65660 0.30050 -0.45848
 H162 H 0.62199 0.36490 -0.36374
 C163 C 0.18570 0.79641 -0.39458
 C164 C 0.17551 0.85415 -0.38800
 C165 C 0.13953 0.87641 -0.34112
 C166 C 0.11811 0.84647 -0.26959
 H167 H 0.19336 0.88718 -0.42533
 H168 H 0.13088 0.92069 -0.36584
 H169 H 0.16883 0.76263 -0.35590
 H170 H 0.12711 0.80386 -0.23787
 C171 C 0.30145 0.68035 -0.38425
 C172 C 0.33868 0.68595 -0.38361
 C173 C 0.36258 0.64731 -0.31670
 C174 C 0.39319 0.66931 -0.27012
 H175 H 0.35194 0.72190 -0.42794
 H176 H 0.35518 0.60101 -0.30571
 H177 H 0.28876 0.65135 -0.32342
 H178 H 0.39874 0.71667 -0.27383
 C179 C -0.19781 1.20182 -0.35430
 C180 C -0.16113 1.21102 -0.36779
 C181 C -0.13434 1.18779 -0.28686
 C182 C -0.10244 1.16291 -0.32379
 H183 H -0.15023 1.23179 -0.44190
 H184 H -0.14257 1.18396 -0.20012
 H185 H -0.20701 1.18590 -0.27372
 H186 H -0.09649 1.16106 -0.41252
 C187 C 0.68966 0.70973 -0.37090
 C188 C 0.65336 0.70523 -0.39525
 C189 C 0.62720 0.68017 -0.31362
 C190 C 0.59984 0.64475 -0.34746
 H191 H 0.64224 0.71944 -0.47382
 H192 H 0.63224 0.68650 -0.22542
 H193 H 0.69711 0.69985 -0.28571
 H194 H 0.59697 0.63444 -0.43541
 C195 C 0.20051 1.18870 -0.33262
 C196 C 0.16426 1.19429 -0.35684
 C197 C 0.13504 1.17269 -0.28222
 C198 C 0.10616 1.14469 -0.32702
 H199 H 0.15553 1.21087 -0.43669
 H200 H 0.13870 1.17429 -0.19279
 H201 H 0.20781 1.17889 -0.24740
 H202 H 0.10496 1.13806 -0.41656
 C203 C 0.32020 0.27973 -0.37892
 C204 C 0.32737 0.33780 -0.39071
 C205 C 0.35879 0.36830 -0.33567
 C206 C 0.37582 0.34801 -0.24472
 H207 H 0.31088 0.36354 -0.44824
 H208 H 0.36803 0.40949 -0.37233
 H209 H 0.33624 0.25278 -0.32254
 H210 H 0.36605 0.30860 -0.20332
 C211 C -0.19167 0.81009 -0.37987
 C212 C -0.17406 0.78340 -0.29602
 C213 C -0.14188 0.80984 -0.23829
 C214 C -0.12110 0.85269 -0.28297
 H215 H -0.18308 0.73994 -0.26914
 H216 H -0.13429 0.79154 -0.15872
 H217 H -0.18380 0.85399 -0.40668
 H218 H -0.12702 0.86989 -0.36437
 C219 C 0.31952 0.70825 0.38086
 C220 C 0.34342 0.73741 0.31508
 C221 C 0.37635 0.70804 0.26032
 C222 C 0.39321 0.65914 0.30012
 H223 H 0.33892 0.78443 0.30017
 H224 H 0.38787 0.72911 0.18725
 H225 H 0.32344 0.66093 0.39338
 H226 H 0.38345 0.63943 0.37655
 C227 C -0.18905 1.19379 0.38811
 C228 C -0.16970 1.14504 0.41871
 C229 C -0.13610 1.12049 0.35938
 C230 C -0.11770 1.14763 0.27668
 H231 H -0.17872 1.12072 0.49110
 H232 H -0.12527 1.07847 0.38944
 H233 H -0.18324 1.21171 0.30678
 H234 H -0.12737 1.18977 0.24483
 C235 C 0.69165 0.29803 0.36101
 C236 C 0.67068 0.26884 0.28659
 C237 C 0.63864 0.29682 0.22891
 C238 C 0.62034 0.34488 0.27038
 H239 H 0.67644 0.22201 0.26930
 H240 H 0.62857 0.27493 0.15427
 H241 H 0.68732 0.34510 0.37829
 H242 H 0.62892 0.36543 0.34779
 C243 C 0.20542 0.83564 0.37477
 C244 C 0.17075 0.81768 0.35319
 C245 C 0.14284 0.85657 0.30105
 C246 C 0.11221 0.83256 0.25809
 H247 H 0.16238 0.77338 0.37778
 H248 H 0.14716 0.90431 0.29814
 H249 H 0.21521 0.87809 0.34485
 H250 H 0.10952 0.78445 0.25471
   
