data_POSCAR
  _audit_creation_date              2014-09-24
  _audit_creation_method            'ToBaCCo'
  _symmetry_space_group_name_H-M    'P1'
  _symmetry_Int_Tables_number       1
  _symmetry_cell_setting            triclinic
  loop_
  _symmetry_equiv_pos_as_xyz
 x,y,z
_cell_length_a 38.2274
_cell_length_b 38.1930
_cell_length_c 38.3026
_cell_angle_alpha 89.988700
_cell_angle_beta 90.114100
_cell_angle_gamma 89.884000
loop_
  _atom_site_label
  _atom_site_type_symbol
  _atom_site_fract_x
  _atom_site_fract_y
  _atom_site_fract_z
C1 C 0.32281 0.36555 1.36700
 N2 N 0.33895 0.33646 1.37953
 C3 C 0.36781 0.32368 1.36334
 N4 N 0.38045 0.33990 1.33449
 C5 C 0.36432 0.36900 1.32193
 N6 N 0.33545 0.38177 1.33814
 C7 C 1.17749 0.63670 0.87008
 N8 N 1.16472 0.62051 0.84122
 C9 C 1.13555 0.63306 0.82526
 N10 N 1.11925 0.66192 0.83805
 C11 C 1.13200 0.67812 0.86692
 N12 N 1.16117 0.66555 0.88288
 C13 C 0.67697 -0.13569 0.12964
 N14 N 0.66091 -0.16467 0.11689
 C15 C 0.63193 -0.17738 0.13286
 N16 N 0.61913 -0.16121 0.16170
 C17 C 0.63518 -0.13224 0.17445
 N18 N 0.66416 -0.11954 0.15848
 C19 C -0.17659 1.13528 -0.36776
 N20 N -0.16039 1.16421 -0.38036
 C21 C -0.13151 1.17690 -0.36407
 N22 N -0.11896 1.16074 -0.33506
 C23 C -0.13516 1.13180 -0.32246
 N24 N -0.16403 1.11913 -0.33875
 C25 C 0.67663 0.63642 0.63038
 N26 N 0.66041 0.66534 0.61755
 C27 C 0.63139 0.67809 0.63351
 N28 N 0.61870 0.66201 0.66242
 C29 C 0.63491 0.63309 0.67526
 N30 N 0.66392 0.62035 0.65929
 C31 C 0.82253 0.36496 0.13307
 N32 N 0.83534 0.38107 0.16196
 C33 C 0.86431 0.36825 0.17806
 N34 N 0.88037 0.33921 0.16537
 C35 C 0.86757 0.32309 0.13649
 N36 N 0.83860 0.33593 0.12039
 C37 C 0.32293 0.13404 0.86707
 N38 N 0.33548 0.11797 0.83807
 C39 C 0.36427 0.13077 0.82184
 N40 N 0.38040 0.15975 0.83450
 C41 C 0.36785 0.17582 0.86349
 N42 N 0.33907 0.16301 0.87972
 C43 C 0.17700 0.86328 0.37032
 N44 N 0.16405 0.87940 0.34147
 C45 C 0.13500 0.86668 0.32552
 N46 N 0.11901 0.83772 0.33832
 C47 C 0.13195 0.82158 0.36717
 N48 N 0.16100 0.83431 0.38312
 Zn49 Zn 0.00620 1.04290 -0.01902
 Zn50 Zn -0.02783 0.97259 -0.02589
 Zn51 Zn 0.04228 0.97924 0.00861
 Zn52 Zn -0.02147 1.00678 0.04427
 O53 O -0.00024 1.00035 0.00196
 O54 O -0.01574 1.04606 -0.06015
 O55 O -0.00626 0.93288 -0.03897
 O56 O 0.07804 1.00486 -0.00737
 O57 O -0.04095 0.99411 -0.06553
 O58 O 0.05125 1.05211 -0.02789
 O59 O 0.04550 0.93803 -0.01327
 O60 O 0.00412 0.99066 0.08009
 O61 O -0.06754 0.95938 -0.00469
 O62 O 0.05147 0.97030 0.05361
 O63 O -0.06261 0.98480 0.04713
 O64 O -0.03048 1.05188 0.05354
 O65 O -0.00989 1.07872 0.00660
 C66 C -0.03445 1.02454 -0.07702
 C67 C 0.02411 0.92125 -0.03221
 C68 C 0.07882 1.03451 -0.02220
 C69 C 0.03383 0.97590 0.08103
 C70 C -0.07926 0.96595 0.02556
 C71 C -0.02476 1.07949 0.03613
 Zn72 Zn 0.47863 0.00701 0.45536
 Zn73 Zn 0.47240 -0.02720 0.52549
 Zn74 Zn 0.54247 -0.02041 0.49123
 Zn75 Zn 0.50627 0.04317 0.51875
 O76 O 0.49991 0.00061 0.49773
 O77 O 0.43753 -0.01508 0.45235
 O78 O 0.49406 -0.06685 0.53864
 O79 O 0.55165 -0.02931 0.44626
 O80 O 0.43272 -0.04051 0.50416
 O81 O 0.50424 -0.00903 0.41962
 O82 O 0.54579 -0.06162 0.51313
 O83 O 0.55131 0.05248 0.52773
 O84 O 0.45924 -0.00574 0.56507
 O85 O 0.57819 0.00531 0.50728
 O86 O 0.48434 0.04627 0.55982
 O87 O 0.49010 0.07895 0.49307
 O88 O 0.46952 0.05209 0.44606
 C89 C 0.42095 -0.03398 0.47387
 C90 C 0.52444 -0.07843 0.53199
 C91 C 0.53398 -0.02371 0.41878
 C92 C 0.57892 0.03497 0.52210
 C93 C 0.46568 0.02470 0.57661
 C94 C 0.47522 0.07970 0.46348
 Zn95 Zn 0.98009 0.49259 0.54407
 Zn96 Zn 1.00770 0.45640 0.48074
 Zn97 Zn 0.97362 0.52682 0.47391
 Zn98 Zn 1.04377 0.51992 0.50835
 O99 O 1.00126 0.49896 0.50174
 O100 O 0.97113 0.44753 0.55335
 O101 O 0.98566 0.45331 0.43964
 O102 O 0.93394 0.54016 0.49516
 O103 O 0.99169 0.42062 0.50639
 O104 O 0.93893 0.51470 0.54697
 O105 O 0.96044 0.50536 0.43430
 O106 O 1.04693 0.56114 0.48649
 O107 O 1.05274 0.44707 0.47178
 O108 O 0.99515 0.56647 0.46083
 O109 O 1.07953 0.49420 0.49231
 O110 O 1.05302 0.52882 0.55335
 O111 O 1.00569 0.50864 0.57987
 C112 C 0.97685 0.41990 0.53594
 C113 C 0.96691 0.47490 0.42281
 C114 C 0.92224 0.53360 0.52542
 C115 C 1.02550 0.57800 0.46759
 C116 C 1.08031 0.46457 0.47743
 C117 C 1.03539 0.52330 0.58078
 Zn118 Zn 0.47955 0.49355 0.95630
 Zn119 Zn 0.47315 0.52785 1.02637
 Zn120 Zn 0.50710 0.45736 1.01979
 Zn121 Zn 0.54331 0.52077 0.99225
 O122 O 0.50075 0.49991 0.99871
 O123 O 0.43843 0.51573 0.95320
 O124 O 0.45991 0.50646 1.06596
 O125 O 0.49104 0.42161 0.99412
 O126 O 0.43349 0.54126 1.00494
 O127 O 0.47053 0.44849 0.94703
 O128 O 0.48505 0.45436 1.06079
 O129 O 0.57903 0.49496 1.00843
 O130 O 0.49476 0.56746 1.03948
 O131 O 0.55212 0.44792 1.02892
 O132 O 0.54654 0.56199 1.01407
 O133 O 0.55256 0.52962 0.94728
 O134 O 0.50519 0.50952 0.92059
 C135 C 0.42178 0.53470 0.97465
 C136 C 0.46633 0.47600 1.07751
 C137 C 0.47621 0.42087 0.96450
 C138 C 0.57974 0.46533 1.02332
 C139 C 0.52514 0.57892 1.03284
 C140 C 0.53492 0.52411 0.91978
 C141 C 1.29352 0.37789 0.38281
 C142 C 1.26731 0.38868 0.39661
 C143 C 1.23577 0.40142 0.41268
 C144 C 1.23172 0.43723 0.41954
 C145 C 1.20058 0.44974 0.43410
 C146 C 1.17337 0.42649 0.44186
 C147 C 1.17755 0.39064 0.43531
 C148 C 1.20868 0.37813 0.42076
 C149 C 1.14076 0.43960 0.45532
 C150 C 1.11325 0.45083 0.46586
 H151 H 1.25246 0.45548 0.41333
 H152 H 1.19757 0.47753 0.43893
 H153 H 1.15662 0.37245 0.44108
 H154 H 1.21151 0.35040 0.41549
 C155 C 0.20708 0.62452 0.88560
 C156 C 0.23356 0.61372 0.89898
 C157 C 0.26543 0.60079 0.91440
 C158 C 0.29484 0.62253 0.91662
 C159 C 0.32624 0.60958 0.93032
 C160 C 0.32837 0.57483 0.94189
 C161 C 0.29886 0.55320 0.94002
 C162 C 0.26746 0.56616 0.92631
 C163 C 0.36114 0.56100 0.95438
 C164 C 0.38875 0.54916 0.96408
 H165 H 0.29359 0.64933 0.90740
 H166 H 0.34893 0.62649 0.93151
 H167 H 0.30026 0.52625 0.94875
 H168 H 0.24491 0.54909 0.92463
 C169 C -0.29361 0.87662 0.11411
 C170 C -0.26728 0.88752 0.10072
 C171 C -0.23556 0.90055 0.08530
 C172 C -0.20749 0.87776 0.07905
 C173 C -0.17615 0.89067 0.06539
 C174 C -0.17276 0.92641 0.05792
 C175 C -0.20096 0.94913 0.06381
 C176 C -0.23230 0.93623 0.07747
 C177 C -0.13996 0.94001 0.04554
 C178 C -0.11232 0.95168 0.03596
 H179 H -0.20970 0.85014 0.08510
 H180 H -0.15446 0.87289 0.06108
 H181 H -0.19857 0.97684 0.05827
 H182 H -0.25380 0.95410 0.08229
 C183 C 0.79244 0.12231 0.61547
 C184 C 0.76619 0.11151 0.60174
 C185 C 0.73460 0.09865 0.58584
 C186 C 0.70739 0.12188 0.57758
 C187 C 0.67618 0.10923 0.56328
 C188 C 0.67205 0.07331 0.55718
 C189 C 0.69938 0.05012 0.56513
 C190 C 0.73059 0.06276 0.57943
 C191 C 0.63939 0.06008 0.54395
 C192 C 0.61186 0.04877 0.53356
 H193 H 0.71018 0.14967 0.58251
 H194 H 0.65516 0.12737 0.55736
 H195 H 0.69642 0.02227 0.56065
 H196 H 0.75142 0.04456 0.58580
 C197 C 0.38349 0.29416 0.37552
 C198 C 0.39702 0.26775 0.38631
 C199 C 0.41263 0.23595 0.39923
 C200 C 0.41920 0.20806 0.37639
 C201 C 0.43317 0.17668 0.38915
 C202 C 0.44065 0.17308 0.42480
 C203 C 0.43440 0.20109 0.44758
 C204 C 0.42042 0.23247 0.43482
 C205 C 0.45362 0.14031 0.43818
 C206 C 0.46385 0.11271 0.44961
 H207 H 0.41318 0.21044 0.34884
 H208 H 0.43779 0.15515 0.37132
 H209 H 0.43997 0.19854 0.47521
 H210 H 0.41535 0.25383 0.45272
 C211 C 0.88425 0.20626 0.62372
 C212 C 0.89790 0.23255 0.61294
 C213 C 0.91368 0.26420 0.60008
 C214 C 0.92263 0.26715 0.56475
 C215 C 0.93679 0.29838 0.55202
 C216 C 0.94207 0.32678 0.57458
 C217 C 0.93342 0.32371 0.60997
 C218 C 0.91927 0.29248 0.62270
 C219 C 0.95518 0.35941 0.56117
 C220 C 0.96548 0.38693 0.54976
 H221 H 0.91834 0.24548 0.54702
 H222 H 0.94326 0.30051 0.52458
 H223 H 0.93727 0.34554 0.62761
 H224 H 0.91235 0.29051 0.65005
 C225 C 0.11611 0.70741 -0.12070
 C226 C 0.10231 0.73363 -0.10982
 C227 C 0.08635 0.76521 -0.09687
 C228 C 0.07957 0.76895 -0.06113
 C229 C 0.06532 0.80018 -0.04837
 C230 C 0.05777 0.82779 -0.07130
 C231 C 0.06419 0.82390 -0.10710
 C232 C 0.07844 0.79267 -0.11985
 C233 C 0.04485 0.86054 -0.05789
 C234 C 0.03487 0.88817 -0.04636
 H235 H 0.08567 0.74792 -0.04312
 H236 H 0.06061 0.80296 -0.02063
 H237 H 0.05860 0.84513 -0.12504
 H238 H 0.08365 0.79009 -0.14753
 C239 C 0.61628 0.79322 1.12055
 C240 C 0.60268 0.76689 1.10976
 C241 C 0.58691 0.73520 1.09695
 C242 C 0.57984 0.70760 1.11997
 C243 C 0.56574 0.67628 1.10735
 C244 C 0.55863 0.67246 1.07165
 C245 C 0.56536 0.70020 1.04869
 C246 C 0.57946 0.73151 1.06132
 C247 C 0.54581 0.63966 1.05836
 C248 C 0.53588 0.61200 1.04692
 H249 H 0.58558 0.71014 1.14757
 H250 H 0.56079 0.65495 1.12530
 H251 H 0.56011 0.69747 1.02102
 H252 H 0.58490 0.75266 1.04328
 C253 C 0.37726 0.38569 1.29099
 C254 C 0.38808 0.39931 1.26476
 C255 C 0.40101 0.41502 1.23318
 C256 C 0.37839 0.42063 1.20488
 C257 C 0.39123 0.43459 1.17368
 C258 C 0.42675 0.44302 1.17065
 C259 C 0.44929 0.43778 1.19907
 C260 C 0.43645 0.42381 1.23027
 C261 C 0.44034 0.45566 1.13799
 C262 C 0.45202 0.46543 1.11046
 H263 H 0.35095 0.41383 1.20681
 H264 H 0.37359 0.43839 1.15182
 H265 H 0.47684 0.44406 1.19696
 H266 H 0.45420 0.41949 1.25195
 C267 C 0.62207 -0.11564 0.20538
 C268 C 0.61112 -0.10208 0.23160
 C269 C 0.59808 -0.08641 0.26317
 C270 C 0.62124 -0.07750 0.29012
 C271 C 0.60845 -0.06345 0.32132
 C272 C 0.57243 -0.05824 0.32568
 C273 C 0.54929 -0.06684 0.29860
 C274 C 0.56209 -0.08089 0.26741
 C275 C 0.55910 -0.04524 0.35832
 C276 C 0.54775 -0.03502 0.38584
 H277 H 0.64911 -0.08174 0.28715
 H278 H 0.62655 -0.05701 0.34213
 H279 H 0.52138 -0.06304 0.30175
 H280 H 0.54394 -0.08777 0.24678
 C281 C -0.12232 1.11519 -0.29136
 C282 C -0.11161 1.10159 -0.26501
 C283 C -0.09883 1.08587 -0.23329
 C284 C -0.12175 1.07973 -0.20545
 C285 C -0.10909 1.06572 -0.17413
 C286 C -0.07347 1.05777 -0.17051
 C287 C -0.05062 1.06356 -0.19848
 C288 C -0.06328 1.07758 -0.22981
 C289 C -0.06010 1.04505 -0.13772
 C290 C -0.04859 1.03520 -0.11008
 H291 H -0.14927 1.08614 -0.20784
 H292 H -0.12696 1.06150 -0.15262
 H293 H -0.02300 1.05766 -0.19592
 H294 H -0.04531 1.08230 -0.25113
 C295 C 1.12251 0.61641 0.79429
 C296 C 1.11167 0.60275 0.76805
 C297 C 1.09881 0.58692 0.73646
 C298 C 1.12208 0.57819 0.70960
 C299 C 1.10947 0.56393 0.67840
 C300 C 1.07353 0.55833 0.67393
 C301 C 1.05029 0.56675 0.70091
 C302 C 1.06290 0.58102 0.73211
 C303 C 1.06036 0.54511 0.64127
 C304 C 1.04911 0.53474 0.61374
 H305 H 1.14989 0.58272 0.71265
 H306 H 1.12766 0.55763 0.65766
 H307 H 1.02243 0.56266 0.69768
 H308 H 1.04466 0.58775 0.75267
 C309 C 0.70775 0.62337 0.61399
 C310 C 0.73412 0.61245 0.60062
 C311 C 0.76587 0.59939 0.58521
 C312 C 0.79414 0.62200 0.57962
 C313 C 0.82550 0.60904 0.56595
 C314 C 0.82872 0.57342 0.55780
 C315 C 0.80032 0.55089 0.56303
 C316 C 0.76896 0.56385 0.57670
 C317 C 0.86152 0.55972 0.54542
 C318 C 0.88917 0.54797 0.53583
 H319 H 0.79206 0.64952 0.58620
 H320 H 0.84734 0.62667 0.56215
 H321 H 0.80257 0.52327 0.55696
 H322 H 0.74731 0.54612 0.58100
 C323 C 0.79314 0.37738 1.11736
 C324 C 0.76684 0.38825 1.10368
 C325 C 0.73519 0.40110 1.08777
 C326 C 0.73254 0.43627 1.07766
 C327 C 0.70136 0.44898 1.06323
 C328 C 0.67270 0.42657 1.05885
 C329 C 0.67546 0.39133 1.06867
 C330 C 0.70663 0.37863 1.08310
 C331 C 0.64013 0.44000 1.04545
 C332 C 0.61265 0.45143 1.03492
 H333 H 0.75443 0.45389 1.08123
 H334 H 0.69947 0.47630 1.05585
 H335 H 0.65342 0.37381 1.06553
 H336 H 0.70837 0.35141 1.09090
 C337 C 0.29204 1.12099 -0.11621
 C338 C 0.26586 1.11020 -0.10246
 C339 C 0.23432 1.09744 -0.08646
 C340 C 0.23001 1.06152 -0.08051
 C341 C 0.19886 1.04902 -0.06607
 C342 C 0.17191 1.07240 -0.05752
 C343 C 0.17635 1.10836 -0.06316
 C344 C 0.20750 1.12086 -0.07760
 C345 C 0.13928 1.05935 -0.04416
 C346 C 0.11176 1.04817 -0.03369
 H347 H 0.25054 1.04318 -0.08734
 H348 H 0.19564 1.02115 -0.06194
 H349 H 0.15563 1.12664 -0.05678
 H350 H 0.21054 1.14868 -0.08216
 C351 C 0.20648 -0.12436 0.38579
 C352 C 0.23287 -0.11337 0.39911
 C353 C 0.26463 -0.10018 0.41440
 C354 C 0.29294 -0.12277 0.42039
 C355 C 0.32432 -0.10969 0.43391
 C356 C 0.32750 -0.07395 0.44152
 C357 C 0.29907 -0.05142 0.43588
 C358 C 0.26770 -0.06451 0.42236
 C359 C 0.36030 -0.06017 0.45383
 C360 C 0.38792 -0.04837 0.46341
 H361 H 0.29089 -0.15038 0.41423
 H362 H 0.34618 -0.12731 0.43804
 H363 H 0.30130 -0.02372 0.44153
 H364 H 0.24602 -0.04679 0.41773
 C365 C 0.61562 -0.29255 0.62109
 C366 C 0.60196 -0.26626 0.61015
 C367 C 0.58617 -0.23460 0.59711
 C368 C 0.57888 -0.23107 0.56142
 C369 C 0.56481 -0.19978 0.54856
 C370 C 0.55796 -0.17190 0.57133
 C371 C 0.56490 -0.17556 0.60708
 C372 C 0.57897 -0.20685 0.61995
 C373 C 0.54515 -0.13912 0.55781
 C374 C 0.53522 -0.11149 0.54620
 H375 H 0.58444 -0.25232 0.54353
 H376 H 0.55969 -0.19717 0.52085
 H377 H 0.55985 -0.15412 0.62490
 H378 H 0.58459 -0.20927 0.64758
 C379 C 1.11636 0.79219 0.37955
 C380 C 1.10280 0.76588 0.39040
 C381 C 1.08710 0.73420 0.40327
 C382 C 1.07967 0.70667 0.38027
 C383 C 1.06561 0.67538 0.39295
 C384 C 1.05889 0.67151 0.42869
 C385 C 1.06598 0.69918 0.45164
 C386 C 1.08004 0.73047 0.43896
 C387 C 1.04609 0.63872 0.44202
 C388 C 1.03619 0.61108 0.45349
 H389 H 1.08511 0.70925 0.35263
 H390 H 1.06038 0.65409 0.37500
 H391 H 1.06104 0.69641 0.47934
 H392 H 1.08577 0.75155 0.45698
 C393 C -0.11679 1.29364 0.12417
 C394 C -0.10326 1.26729 0.11327
 C395 C -0.08761 1.23557 0.10027
 C396 C -0.08151 1.23155 0.06443
 C397 C -0.06745 1.20025 0.05166
 C398 C -0.05943 1.17284 0.07466
 C399 C -0.06523 1.17698 0.11053
 C400 C -0.07929 1.20828 0.12331
 C401 C -0.04639 1.14010 0.06131
 C402 C -0.03613 1.11251 0.04994
 H403 H -0.08794 1.25244 0.04638
 H404 H -0.06320 1.19728 0.02385
 H405 H -0.05924 1.15591 0.12853
 H406 H -0.08398 1.21108 0.15106
 C407 C 0.38442 0.20689 0.87647
 C408 C 0.39794 0.23322 0.88732
 C409 C 0.41356 0.26493 0.90027
 C410 C 0.42093 0.26850 0.93594
 C411 C 0.43494 0.29979 0.94871
 C412 C 0.44164 0.32764 0.92587
 C413 C 0.43458 0.32394 0.89016
 C414 C 0.42057 0.29265 0.87738
 C415 C 0.45463 0.36033 0.93925
 C416 C 0.46487 0.38790 0.95066
 H417 H 0.41553 0.24726 0.95388
 H418 H 0.44018 0.30241 0.97640
 H419 H 0.43954 0.34535 0.87229
 H420 H 0.41489 0.29020 0.84977
 C421 C 0.62194 0.61656 0.70627
 C422 C 0.61117 0.60300 0.73255
 C423 C 0.59839 0.58728 0.76419
 C424 C 0.56274 0.57964 0.76775
 C425 C 0.55015 0.56548 0.79896
 C426 C 0.57316 0.55888 0.82673
 C427 C 0.60886 0.56620 0.82305
 C428 C 0.62145 0.58037 0.79184
 C429 C 0.55995 0.54576 0.85936
 C430 C 0.54867 0.53547 0.88686
 H431 H 0.54467 0.58496 0.74657
 H432 H 0.52248 0.56003 0.80158
 H433 H 0.62686 0.56133 0.84440
 H434 H 0.64905 0.58625 0.78939
 C435 C 0.37713 0.11426 0.79075
 C436 C 0.38790 0.10079 0.76441
 C437 C 0.40079 0.08525 0.73270
 C438 C 0.37799 0.07934 0.70463
 C439 C 0.39078 0.06553 0.67332
 C440 C 0.42641 0.05756 0.66996
 C441 C 0.44913 0.06312 0.69816
 C442 C 0.43635 0.07693 0.72947
 C443 C 0.43990 0.04502 0.63721
 C444 C 0.45149 0.03528 0.60961
 H445 H 0.35047 0.08576 0.70681
 H446 H 0.37300 0.06148 0.65163
 H447 H 0.47675 0.05720 0.69580
 H448 H 0.45422 0.08148 0.75097
 C449 C 0.12177 0.88326 0.29458
 C450 C 0.11077 0.89685 0.26834
 C451 C 0.09772 0.91260 0.23675
 C452 C 0.12095 0.92209 0.21015
 C453 C 0.10819 0.93626 0.17894
 C454 C 0.07213 0.94101 0.17422
 C455 C 0.04892 0.93183 0.20095
 C456 C 0.06169 0.91765 0.23216
 C457 C 0.05886 0.95415 0.14155
 C458 C 0.04756 0.96448 0.11400
 H459 H 0.14885 0.91821 0.21340
 H460 H 0.12635 0.94315 0.15839
 H461 H 0.02099 0.93527 0.19752
 H462 H 0.04349 0.91033 0.25253
 C463 C 0.87744 0.38483 0.20903
 C464 C 0.88840 0.39836 0.23529
 C465 C 0.90148 0.41398 0.26691
 C466 C 0.93722 0.42125 0.27043
 C467 C 0.95014 0.43516 0.30167
 C468 C 0.92737 0.44186 0.32952
 C469 C 0.89157 0.43494 0.32586
 C470 C 0.87865 0.42103 0.29462
 C471 C 0.94096 0.45450 0.36223
 C472 C 0.95263 0.46429 0.38981
 H473 H 0.95513 0.41581 0.24921
 H474 H 0.97789 0.44027 0.30427
 H475 H 0.87375 0.43987 0.34727
 H476 H 0.85098 0.41541 0.29221
   
