data_POSCAR
  _audit_creation_date              2014-09-24
  _audit_creation_method            'ToBaCCo'
  _symmetry_space_group_name_H-M    'P1'
  _symmetry_Int_Tables_number       1
  _symmetry_cell_setting            triclinic
  loop_
  _symmetry_equiv_pos_as_xyz
 x,y,z
_cell_length_a 11.4443
_cell_length_b 11.4608
_cell_length_c 30.6277
_cell_angle_alpha 89.120300
_cell_angle_beta 91.216700
_cell_angle_gamma 120.417300
loop_
  _atom_site_label
  _atom_site_type_symbol
  _atom_site_fract_x
  _atom_site_fract_y
  _atom_site_fract_z
C1 C -0.04939 0.08303 0.53001
 C2 C -0.16302 -0.01985 0.49972
 C3 C -0.12251 -0.09063 0.47440
 C4 C 0.02657 -0.05155 0.48186
 C5 C -0.00212 -0.00058 0.55597
 C6 C 0.03681 -0.07136 0.53113
 C7 C 0.06648 0.17118 0.49922
 C8 C 0.10629 0.10198 0.47382
 H9 H -0.26504 -0.03688 0.49941
 H10 H 0.05966 -0.10878 0.46153
 H11 H -0.00956 -0.01149 0.59120
 H12 H 0.11056 0.27992 0.49708
 C13 C 0.94001 -0.12110 0.19837
 C14 C 1.03185 -0.13656 0.16575
 C15 C 1.10289 -0.02397 0.13960
 C16 C 1.07309 0.09100 0.14865
 C17 C 1.03020 0.00110 0.22199
 C18 C 1.10349 0.11762 0.19511
 C19 C 0.85015 -0.08721 0.16951
 C20 C 0.91826 0.02201 0.14300
 H21 H 1.04354 -0.22441 0.16522
 H22 H 1.12976 0.18173 0.12748
 H23 H 1.04487 0.00276 0.25712
 H24 H 0.74073 -0.15062 0.16850
 C25 C 0.11230 1.03987 0.86451
 C26 C 0.12306 1.15339 0.83432
 C27 C 0.01034 1.11344 0.80803
 C28 C -0.10130 0.96438 0.81462
 C29 C -0.01793 0.99256 0.88947
 C30 C -0.12935 0.95418 0.86383
 C31 C 0.08188 0.92432 0.83363
 C32 C -0.02823 0.88478 0.80715
 H33 H 0.20959 1.25502 0.83479
 H34 H -0.19289 0.93150 0.79359
 H35 H -0.01960 0.99957 0.92470
 H36 H 0.14614 0.88032 0.83222
 O37 O 0.65483 0.10194 -0.03854
 O38 O 0.41426 0.04367 0.04868
 O39 O 0.65985 0.07694 0.04627
 O40 O 0.41999 0.08708 -0.03524
 O41 O 0.32164 -0.13496 -0.04158
 O42 O 0.56481 -0.14287 0.03523
 O43 O 0.32336 -0.17703 0.04109
 O44 O 0.55506 -0.11849 -0.04923
 Cu45 Cu 0.54728 0.09988 0.00631
 Cu46 Cu 0.43215 -0.16523 -0.00462
 C47 C 0.64550 0.00165 -0.05882
 C48 C 0.32685 -0.07693 0.05952
 C49 C 0.65299 -0.03557 0.05418
 C50 C 0.32849 -0.02395 -0.05154
 O51 O -0.05626 0.36198 0.71512
 O52 O -0.11304 0.55156 0.62724
 O53 O -0.09677 0.33247 0.63041
 O54 O -0.08646 0.57572 0.71161
 O55 O 0.13394 0.70307 0.70145
 O56 O 0.12561 0.45945 0.62484
 O57 O 0.10794 0.67564 0.61752
 O58 O 0.16489 0.49385 0.70814
 Cu59 Cu -0.11068 0.44216 0.67203
 Cu60 Cu 0.15507 0.59570 0.66215
 C61 C 0.06427 0.39540 0.72655
 C62 C -0.01221 0.64611 0.60758
 C63 C 0.01436 0.35542 0.61427
 C64 C 0.02646 0.68213 0.71963
 O65 O 0.29798 0.44042 0.36241
 O66 O 0.55918 0.67640 0.28871
 O67 O 0.34111 0.43995 0.27873
 O68 O 0.50695 0.68149 0.36958
 O69 O 0.63737 0.59407 0.38298
 O70 O 0.45302 0.33728 0.29893
 O71 O 0.67889 0.57611 0.30011
 O72 O 0.42408 0.35163 0.38126
 Cu73 Cu 0.41351 0.56829 0.32297
 Cu74 Cu 0.56160 0.45569 0.34211
 C75 C 0.31684 0.35762 0.38506
 C76 C 0.66329 0.66776 0.28188
 C77 C 0.36511 0.34392 0.27476
 C78 C 0.60266 0.68080 0.39109
 C79 C -0.08069 0.16713 0.55990
 C80 C 0.02177 0.26207 0.58401
 H81 H -0.18242 0.15033 0.56203
 H82 H 0.12220 0.27602 0.58036
 C83 C 0.85454 0.76169 0.22883
 C84 C 0.76618 0.77279 0.25408
 H85 H 0.85983 0.67000 0.22863
 H86 H 0.76204 0.86526 0.25203
 C87 C 0.23008 0.07111 -0.10503
 C88 C 0.22355 -0.03127 -0.08128
 H89 H 0.31705 0.17240 -0.10278
 H90 H 0.13516 -0.13143 -0.08509
 C91 C 0.06008 0.82446 0.55097
 C92 C -0.03709 0.72744 0.57541
 H93 H 0.15981 0.83598 0.54932
 H94 H -0.13709 0.71628 0.57502
 C95 C 0.20667 0.23990 0.21225
 C96 C 0.28905 0.23788 0.24627
 H97 H 0.23153 0.33491 0.19658
 H98 H 0.29239 0.14579 0.25172
 C99 C 0.74408 -0.06854 -0.11689
 C100 C 0.74839 0.02733 -0.09129
 H101 H 0.65390 -0.16753 -0.11944
 H102 H 0.83899 0.12677 -0.09084
 C103 C 0.20616 -0.00411 0.10740
 C104 C 0.22617 -0.10252 0.09323
 H105 H 0.26608 0.09683 0.09390
 H106 H 0.16364 -0.20538 0.10474
 C107 C 0.79123 0.80117 0.44319
 C108 C 0.67600 0.78389 0.42511
 H109 H 0.83013 0.73756 0.43274
 H110 H 0.63869 0.85056 0.43341
 C111 C -0.01033 0.20047 0.77632
 C112 C 0.08937 0.31848 0.76092
 H113 H -0.11233 0.16106 0.76347
 H114 H 0.19300 0.35660 0.77176
 C115 C 0.84762 0.05319 0.10760
 C116 C 0.74234 -0.04885 0.08647
 H117 H 0.88210 0.15744 0.09889
 H118 H 0.71736 -0.15185 0.09355
 C119 C 0.20774 0.16959 0.43919
 C120 C 0.21271 0.27334 0.41677
 H121 H 0.27646 0.13377 0.43203
 H122 H 0.13579 0.30003 0.42206
 C123 C -0.06107 0.78546 0.77174
 C124 C 0.04034 0.78383 0.75109
 H125 H -0.16581 0.71500 0.76311
 H126 H 0.14377 0.86267 0.75805
   
