data_POSCAR
  _audit_creation_date              2014-09-24
  _audit_creation_method            'ToBaCCo'
  _symmetry_space_group_name_H-M    'P1'
  _symmetry_Int_Tables_number       1
  _symmetry_cell_setting            triclinic
  loop_
  _symmetry_equiv_pos_as_xyz
 x,y,z
_cell_length_a 48.9505
_cell_length_b 48.8447
_cell_length_c 48.9531
_cell_angle_alpha 89.995000
_cell_angle_beta 90.000500
_cell_angle_gamma 90.000400
loop_
  _atom_site_label
  _atom_site_type_symbol
  _atom_site_fract_x
  _atom_site_fract_y
  _atom_site_fract_z
C1 C 0.61331 0.64811 0.61410
 C2 C 0.63673 0.63643 0.60242
 C3 C 0.64831 0.61327 0.61397
 C4 C 0.63661 0.60152 0.63734
 C5 C 0.61347 0.61307 0.64889
 C6 C 0.60175 0.63650 0.63719
 C7 C 0.59774 0.67056 0.60726
 N8 N 0.57718 0.67268 0.62565
 C9 C 0.57932 0.65207 0.64403
 C10 C 0.60660 0.59744 0.67128
 N11 N 0.62504 0.57687 0.67339
 C12 C 0.64347 0.57904 0.65288
 C13 C 0.67073 0.60645 0.59841
 N14 N 0.67287 0.62491 0.57789
 C15 C 0.65231 0.64333 0.58003
 H16 H 0.60107 0.68434 0.59025
 H17 H 0.56560 0.64872 0.66106
 H18 H 0.58953 0.60075 0.68497
 H19 H 0.66053 0.56531 0.64952
 H20 H 0.68446 0.58938 0.60172
 H21 H 0.64899 0.66042 0.56633
 C22 C 0.88750 0.35121 0.11357
 C23 C 0.86414 0.36297 0.10185
 C24 C 0.85262 0.38616 0.11339
 C25 C 0.86432 0.39787 0.13678
 C26 C 0.88740 0.38625 0.14836
 C27 C 0.89906 0.36278 0.13669
 C28 C 0.90301 0.32870 0.10675
 N29 N 0.92353 0.32654 0.12519
 C30 C 0.92144 0.34715 0.14358
 C31 C 0.89427 0.40185 0.17076
 N32 N 0.87591 0.42249 0.17287
 C33 C 0.85752 0.42036 0.15232
 C34 C 0.83024 0.39307 0.09780
 N35 N 0.82807 0.37461 0.07727
 C36 C 0.84857 0.35613 0.07944
 H37 H 0.89964 0.31494 0.08972
 H38 H 0.93513 0.35047 0.16065
 H39 H 0.91129 0.39850 0.18449
 H40 H 0.84052 0.43415 0.14896
 H41 H 0.81656 0.41017 0.10110
 H42 H 0.85185 0.33903 0.06574
 C43 C 0.38661 0.14790 -0.11397
 C44 C 0.36323 0.13619 -0.10226
 C45 C 0.35165 0.11302 -0.11382
 C46 C 0.36332 0.10131 -0.13722
 C47 C 0.38644 0.11290 -0.14879
 C48 C 0.39815 0.13633 -0.13709
 C49 C 0.40219 0.17037 -0.10714
 N50 N 0.42271 0.17252 -0.12557
 C51 C 0.42055 0.15192 -0.14397
 C52 C 0.39328 0.09733 -0.17122
 N53 N 0.37487 0.07674 -0.17334
 C54 C 0.35646 0.07885 -0.15279
 C55 C 0.32926 0.10615 -0.09823
 N56 N 0.32713 0.12459 -0.07768
 C57 C 0.34768 0.14304 -0.07983
 H58 H 0.39889 0.18412 -0.09011
 H59 H 0.43423 0.14860 -0.16102
 H60 H 0.41033 0.10068 -0.18492
 H61 H 0.33943 0.06510 -0.14943
 H62 H 0.31554 0.08908 -0.10154
 H63 H 0.35100 0.16010 -0.06611
 C64 C 0.11260 0.85195 0.38605
 C65 C 0.13598 0.86369 0.39774
 C66 C 0.14752 0.88686 0.38618
 C67 C 0.13584 0.89855 0.36277
 C68 C 0.11273 0.88694 0.35121
 C69 C 0.10104 0.86351 0.36292
 C70 C 0.09706 0.82946 0.39290
 N71 N 0.07653 0.82732 0.37447
 C72 C 0.07864 0.84790 0.35605
 C73 C 0.10586 0.90252 0.32878
 N74 N 0.12426 0.92313 0.32666
 C75 C 0.14268 0.92102 0.34720
 C76 C 0.16992 0.89374 0.40175
 N77 N 0.17207 0.87531 0.42230
 C78 C 0.15154 0.85685 0.42016
 H79 H 0.10041 0.81572 0.40995
 H80 H 0.06495 0.85123 0.33899
 H81 H 0.08881 0.89916 0.31509
 H82 H 0.15970 0.93479 0.35055
 H83 H 0.18362 0.91083 0.39843
 H84 H 0.14823 0.83978 0.43388
 N85 N 0.09222 0.16853 0.11415
 N86 N 0.08144 0.15726 0.13606
 C87 C 0.05923 0.17174 0.14357
 C88 C 0.05618 0.19309 0.12541
 C89 C 0.07731 0.19056 0.10700
 H90 H 0.04625 0.16717 0.16085
 H91 H 0.08149 0.20372 0.08973
 Cu92 Cu 0.09758 0.12469 0.15224
 Cu93 Cu 0.12466 0.15376 0.09639
 Cu94 Cu 0.15334 0.09546 0.12512
 N95 N 0.11371 0.09211 0.16841
 N96 N 0.13554 0.08074 0.15758
 C97 C 0.14258 0.05864 0.17244
 C98 C 0.12415 0.05615 0.19356
 C99 C 0.10608 0.07757 0.19053
 H100 H 0.15979 0.04541 0.16824
 H101 H 0.08876 0.08215 0.20347
 N102 N 0.16832 0.11348 0.09232
 N103 N 0.15746 0.13573 0.08144
 C104 C 0.17227 0.14306 0.05941
 C105 C 0.19327 0.12456 0.05645
 C106 C 0.19032 0.10609 0.07749
 H107 H 0.16812 0.16049 0.04645
 H108 H 0.20324 0.08862 0.08162
 H109 H 0.11900 0.11369 0.10864
 H110 H 0.14118 0.13551 0.13069
 N111 N 0.40707 0.83146 0.61413
 N112 N 0.41786 0.84278 0.63600
 C113 C 0.43998 0.82823 0.64364
 C114 C 0.44304 0.80684 0.62553
 C115 C 0.42195 0.80937 0.60708
 H116 H 0.45286 0.83275 0.66101
 H117 H 0.41777 0.79617 0.58984
 Cu118 Cu 0.40163 0.87527 0.65225
 Cu119 Cu 0.37459 0.84616 0.59637
 Cu120 Cu 0.34564 0.90423 0.62530
 N121 N 0.38540 0.90780 0.66842
 N122 N 0.36340 0.91898 0.65775
 C123 C 0.35623 0.94098 0.67269
 C124 C 0.37473 0.94358 0.69374
 C125 C 0.39297 0.92232 0.69058
 H126 H 0.33890 0.95409 0.66858
 H127 H 0.41034 0.91781 0.70347
 N128 N 0.33074 0.88626 0.59244
 N129 N 0.34175 0.86415 0.58144
 C130 C 0.32702 0.85688 0.55934
 C131 C 0.30591 0.87528 0.55646
 C132 C 0.30872 0.89361 0.57763
 H133 H 0.33128 0.83955 0.54628
 H134 H 0.29568 0.91097 0.58185
 H135 H 0.38002 0.88622 0.60868
 H136 H 0.35808 0.86422 0.63075
 N137 N 0.90804 0.66913 0.38628
 N138 N 0.91871 0.65796 0.36427
 C139 C 0.94083 0.67252 0.35664
 C140 C 0.94395 0.69381 0.37485
 C141 C 0.92295 0.69117 0.39339
 H142 H 0.95369 0.66805 0.33924
 H143 H 0.91884 0.70428 0.41071
 Cu144 Cu 0.90254 0.62541 0.34807
 Cu145 Cu 0.87563 0.65435 0.40410
 Cu146 Cu 0.84671 0.59629 0.37512
 N147 N 0.88636 0.59286 0.33188
 N148 N 0.86447 0.58156 0.34265
 C149 C 0.85743 0.55945 0.32782
 C150 C 0.87592 0.55687 0.30676
 C151 C 0.89404 0.57826 0.30981
 H152 H 0.84021 0.54624 0.33202
 H153 H 0.91142 0.58275 0.29693
 N154 N 0.83178 0.61425 0.40797
 N155 N 0.84281 0.63633 0.41901
 C156 C 0.82805 0.64361 0.44109
 C157 C 0.80689 0.62525 0.44391
 C158 C 0.80972 0.60692 0.42273
 H159 H 0.83230 0.66092 0.45417
 H160 H 0.79667 0.58958 0.41847
 H161 H 0.88114 0.61436 0.39165
 H162 H 0.85904 0.63639 0.36976
 N163 N 0.59291 0.33121 -0.11442
 N164 N 0.58212 0.34253 -0.13630
 C165 C 0.55987 0.32812 -0.14381
 C166 C 0.55679 0.30674 -0.12568
 C167 C 0.57796 0.30920 -0.10729
 H168 H 0.54688 0.33275 -0.16107
 H169 H 0.58213 0.29600 -0.09005
 Cu170 Cu 0.59831 0.37510 -0.15246
 Cu171 Cu 0.62540 0.34589 -0.09667
 Cu172 Cu 0.65411 0.40422 -0.12532
 N173 N 0.61450 0.40767 -0.16860
 N174 N 0.63634 0.41901 -0.15775
 C175 C 0.64341 0.44111 -0.17259
 C176 C 0.62501 0.44363 -0.19373
 C177 C 0.60689 0.42224 -0.19072
 H178 H 0.66065 0.45430 -0.16838
 H179 H 0.58957 0.41770 -0.20366
 N180 N 0.66911 0.38613 -0.09257
 N181 N 0.65825 0.36386 -0.08173
 C182 C 0.67310 0.35645 -0.05976
 C183 C 0.69413 0.37492 -0.05679
 C184 C 0.69114 0.39345 -0.07777
 H185 H 0.66897 0.33898 -0.04683
 H186 H 0.70409 0.41091 -0.08188
 H187 H 0.61978 0.38594 -0.10885
 H188 H 0.64191 0.36417 -0.13095
 C189 C -0.05740 0.30726 0.12529
 C190 C -0.04007 0.28973 0.12541
 C191 C -0.01978 0.26920 0.12554
 C192 C -0.00245 0.25168 0.12562
 C193 C 0.01790 0.23120 0.12566
 C194 C 0.03532 0.21377 0.12560
 C195 C 0.55697 0.69300 0.62570
 C196 C 0.53959 0.71049 0.62576
 C197 C 0.51924 0.73095 0.62582
 C198 C 0.50183 0.74841 0.62585
 C199 C 0.48142 0.76882 0.62584
 C200 C 0.46394 0.78620 0.62576
 C201 C 1.05743 0.80807 0.37441
 C202 C 1.04008 0.79055 0.37435
 C203 C 1.01978 0.77004 0.37430
 C204 C 1.00244 0.75253 0.37431
 C205 C 0.98212 0.73203 0.37440
 C206 C 0.96474 0.71456 0.37455
 C207 C 0.44292 0.19284 -0.12567
 C208 C 0.46030 0.21032 -0.12578
 C209 C 0.48065 0.23080 -0.12590
 C210 C 0.49804 0.24827 -0.12597
 C211 C 0.51843 0.26870 -0.12597
 C212 C 0.53590 0.28609 -0.12589
 C213 C 0.12418 -0.05762 0.30756
 C214 C 0.12410 -0.04013 0.29018
 C215 C 0.12398 -0.01967 0.26982
 C216 C 0.12390 -0.00223 0.25240
 C217 C 0.12388 0.01816 0.23197
 C218 C 0.12394 0.03552 0.21447
 C219 C 0.62499 0.55759 -0.30753
 C220 C 0.62493 0.54007 -0.29018
 C221 C 0.62485 0.51957 -0.26987
 C222 C 0.62480 0.50210 -0.25248
 C223 C 0.62478 0.48168 -0.23208
 C224 C 0.62483 0.46429 -0.21461
 C225 C 0.37491 1.05753 0.80753
 C226 C 0.37498 1.04006 0.79013
 C227 C 0.37506 1.01960 0.76977
 C228 C 0.37510 1.00214 0.75238
 C229 C 0.37508 0.98170 0.73200
 C230 C 0.37497 0.96428 0.71457
 C231 C 0.87599 0.44284 0.19304
 C232 C 0.87607 0.46035 0.21039
 C233 C 0.87618 0.48085 0.23071
 C234 C 0.87623 0.49832 0.24809
 C235 C 0.87625 0.51876 0.26848
 C236 C 0.87617 0.53617 0.28592
 C237 C 0.30691 0.12456 -0.05742
 C238 C 0.28951 0.12454 -0.04000
 C239 C 0.26913 0.12452 -0.01961
 C240 C 0.25173 0.12451 -0.00219
 C241 C 0.23137 0.12450 0.01822
 C242 C 0.21399 0.12452 0.03566
 C243 C 0.69313 0.62494 0.55765
 C244 C 0.71055 0.62498 0.54025
 C245 C 0.73094 0.62504 0.51987
 C246 C 0.74835 0.62509 0.50246
 C247 C 0.76875 0.62515 0.48208
 C248 C 0.78616 0.62520 0.46467
 C249 C 0.80784 0.37464 0.05701
 C250 C 0.79046 0.37467 0.03958
 C251 C 0.77009 0.37473 0.01916
 C252 C 0.75270 0.37477 0.00174
 C253 C 0.73232 0.37483 -0.01865
 C254 C 0.71490 0.37487 -0.03606
 C255 C 0.19231 0.87533 0.44255
 C256 C 0.20972 0.87536 0.45996
 C257 C 0.23009 0.87539 0.48036
 C258 C 0.24748 0.87539 0.49779
 C259 C 0.26784 0.87537 0.51821
 C260 C 0.28521 0.87533 0.53565
   
