data_POSCAR
  _audit_creation_date              2014-09-24
  _audit_creation_method            'ToBaCCo'
  _symmetry_space_group_name_H-M    'P1'
  _symmetry_Int_Tables_number       1
  _symmetry_cell_setting            triclinic
  loop_
  _symmetry_equiv_pos_as_xyz
 x,y,z
_cell_length_a 46.6355
_cell_length_b 9.9521
_cell_length_c 16.8035
_cell_angle_alpha 93.036500
_cell_angle_beta 89.808300
_cell_angle_gamma 88.820100
loop_
  _atom_site_label
  _atom_site_type_symbol
  _atom_site_fract_x
  _atom_site_fract_y
  _atom_site_fract_z
C1 C 0.66343 0.06526 0.49436
 C2 C 0.67720 0.05678 0.56816
 C3 C 0.70737 0.05202 0.56894
 C4 C 0.72370 0.07262 0.49954
 C5 C 0.70863 0.09375 0.42778
 C6 C 0.67855 0.08735 0.42424
 C7 C 0.75605 0.08130 0.50319
 C8 C 0.77293 0.07347 0.43252
 C9 C 0.80231 0.10437 0.43411
 C10 C 0.81522 0.13092 0.50850
 C11 C 0.80004 0.12343 0.57969
 C12 C 0.77043 0.10304 0.57703
 H13 H 0.64024 0.06636 0.49231
 H14 H 0.71788 0.02980 0.62372
 H15 H 0.71999 0.11719 0.37468
 H16 H 0.76311 0.04868 0.37593
 H17 H 0.83807 0.14843 0.51178
 H18 H 0.75912 0.10854 0.63319
 C19 C 0.18464 0.85849 0.48903
 C20 C 0.19728 0.88884 0.56348
 C21 C 0.22657 0.92085 0.56554
 C22 C 0.24353 0.91316 0.49534
 C23 C 0.22947 0.88934 0.42125
 C24 C 0.19991 0.86776 0.41795
 C25 C 0.27568 0.92570 0.49974
 C26 C 0.29161 0.95535 0.43149
 C27 C 0.32158 0.95131 0.43201
 C28 C 0.33582 0.93727 0.50417
 C29 C 0.32116 0.90854 0.57444
 C30 C 0.29097 0.89889 0.57050
 H31 H 0.16198 0.83667 0.48562
 H32 H 0.23636 0.94594 0.62220
 H33 H 0.24111 0.88250 0.36554
 H34 H 0.28111 0.97926 0.37675
 H35 H 0.35902 0.93740 0.50340
 H36 H 0.27941 0.86895 0.62183
 C37 C 0.31523 0.38357 -0.49349
 C38 C 0.30086 0.39044 -0.56590
 C39 C 0.27078 0.39751 -0.56598
 C40 C 0.25482 0.40430 -0.49339
 C41 C 0.27052 0.40676 -0.42111
 C42 C 0.30040 0.39126 -0.42128
 C43 C 0.22232 0.40526 -0.49275
 C44 C 0.20662 0.38350 -0.42202
 C45 C 0.17636 0.38915 -0.42004
 C46 C 0.16191 0.40637 -0.49202
 C47 C 0.17662 0.41531 -0.56412
 C48 C 0.20655 0.42263 -0.56341
 H49 H 0.33847 0.37679 -0.49296
 H50 H 0.26054 0.39329 -0.62334
 H51 H 0.26017 0.41863 -0.36375
 H52 H 0.21771 0.36376 -0.36805
 H53 H 0.13873 0.40211 -0.49332
 H54 H 0.21696 0.44129 -0.61885
 C55 C -0.16266 0.58707 -0.50939
 C56 C -0.17708 0.60732 -0.58109
 C57 C -0.20734 0.61655 -0.57878
 C58 C -0.22305 0.59815 -0.50754
 C59 C -0.20726 0.58069 -0.43695
 C60 C -0.17730 0.58321 -0.43693
 C61 C -0.25554 0.60288 -0.50615
 C62 C -0.27124 0.61391 -0.43320
 C63 C -0.30128 0.62237 -0.43248
 C64 C -0.31590 0.62849 -0.50449
 C65 C -0.30136 0.61505 -0.57732
 C66 C -0.27147 0.59804 -0.57802
 H67 H -0.13945 0.58652 -0.50840
 H68 H -0.21844 0.63690 -0.63271
 H69 H -0.21763 0.56557 -0.38095
 H70 H -0.26084 0.61997 -0.37606
 H71 H -0.33911 0.63822 -0.50398
 H72 H -0.26120 0.58306 -0.63534
 O73 O -0.02833 0.74504 0.14202
 O74 O -0.06513 0.83151 0.06878
 C75 C -0.05536 0.75858 0.12483
 O76 O 0.02986 1.27012 0.14591
 O77 O 0.06660 1.17076 0.07139
 C78 C 0.05683 1.25275 0.12824
 O79 O -0.04760 1.19089 0.15394
 O80 O -0.07449 1.04622 0.07580
 C81 C -0.07148 1.13242 0.13577
 O82 O 0.05062 0.79680 0.13124
 O83 O 0.07645 0.94739 0.06305
 C84 C 0.07439 0.85553 0.11460
 Zr85 Zr 0.00823 0.83047 0.09155
 O86 O 0.01125 0.80724 0.21555
 O87 O 0.01600 0.62206 0.06934
 Zr88 Zr -0.00632 1.16648 0.10305
 O89 O -0.00357 1.18078 0.22898
 O90 O -0.01716 1.37320 0.09995
 O91 O -0.02367 0.97740 0.11396
 O92 O 0.02513 1.01915 0.11229
 O93 O 0.04917 0.79541 -0.15082
 O94 O 0.07564 0.94788 -0.07666
 C95 C 0.07296 0.85545 -0.13352
 O96 O -0.04883 1.18843 -0.14193
 O97 O -0.07521 1.04675 -0.06881
 C98 C -0.07275 1.13270 -0.12374
 O99 O 0.02891 1.26987 -0.13510
 O100 O 0.06599 1.17160 -0.06822
 C101 C 0.05601 1.25320 -0.11962
 O102 O -0.02921 0.73721 -0.15461
 O103 O -0.06563 0.83022 -0.07634
 C104 C -0.05609 0.75315 -0.13573
 Zr105 Zr 0.00729 0.83147 -0.10621
 O106 O 0.00947 0.82801 -0.23221
 O107 O 0.01436 0.62055 -0.10987
 Zr108 Zr -0.00723 1.16731 -0.09461
 O109 O -0.00600 1.18947 -0.21902
 O110 O -0.01933 1.37295 -0.07853
 Zr111 Zr -0.04190 0.96261 -0.00084
 Zr112 Zr 0.04285 1.03522 -0.00214
 O113 O 0.02406 1.02006 -0.11617
 O114 O -0.02484 0.97807 -0.11639
 O115 O 0.03454 0.82728 -0.00852
 O116 O -0.03292 1.16925 0.00547
 O117 O -0.01635 0.78535 -0.00749
 O118 O 0.01783 1.21447 0.00478
 H119 H 0.03718 1.02955 0.16053
 H120 H -0.04933 1.23431 0.00824
 H121 H 0.03565 1.03032 -0.16491
 H122 H -0.02614 0.69773 -0.00938
 H123 H -0.01810 1.40796 0.15626
 H124 H -0.00460 1.41638 -0.04440
 H125 H -0.01200 1.10299 -0.24465
 H126 H -0.00762 0.87730 -0.25108
 H127 H 0.03221 0.60233 -0.08018
 H128 H 0.01924 0.58514 0.12223
 H129 H 0.00684 0.89657 0.24165
 H130 H -0.01433 1.10525 0.24950
 O131 O 0.45326 0.33278 0.15127
 O132 O 0.42533 0.47047 0.07690
 C133 C 0.42889 0.38935 0.13432
 O134 O 0.54988 0.70709 0.13748
 O135 O 0.57600 0.54546 0.06477
 C136 C 0.57365 0.64214 0.11949
 O137 O 0.47125 0.77808 0.14869
 O138 O 0.43439 0.68539 0.07573
 C139 C 0.44423 0.76511 0.13236
 O140 O 0.53065 0.23894 0.13882
 O141 O 0.56683 0.32501 0.06526
 C142 C 0.55756 0.25058 0.12065
 Zr143 Zr 0.49394 0.34144 0.09766
 O144 O 0.49492 0.32485 0.22250
 O145 O 0.48405 0.13573 0.08168
 Zr146 Zr 0.50759 0.67535 0.09820
 O147 O 0.51093 0.69689 0.22384
 O148 O 0.51560 0.88133 0.08633
 O149 O 0.47610 0.53453 0.11596
 O150 O 0.52497 0.48555 0.11174
 O151 O 0.52855 0.21486 -0.14513
 O152 O 0.56579 0.31298 -0.07615
 C153 C 0.55566 0.22893 -0.13027
 O154 O 0.46919 0.74437 -0.14914
 O155 O 0.43318 0.67098 -0.07011
 C156 C 0.44235 0.73681 -0.12950
 O157 O 0.54810 0.68454 -0.14400
 O158 O 0.57527 0.53548 -0.07515
 C159 C 0.57229 0.62497 -0.12822
 O160 O 0.45092 0.30550 -0.14634
 O161 O 0.42440 0.45806 -0.06823
 C162 C 0.42700 0.36684 -0.12604
 Zr163 Zr 0.49257 0.32571 -0.09957
 O164 O 0.49286 0.29228 -0.22494
 O165 O 0.48265 0.12249 -0.08477
 Zr166 Zr 0.50636 0.65998 -0.09913
 O167 O 0.50879 0.67440 -0.22393
 O168 O 0.51219 0.87047 -0.08594
 Zr169 Zr 0.45759 0.54330 0.00194
 Zr170 Zr 0.54261 0.45781 -0.00370
 O171 O 0.52345 0.46753 -0.11674
 O172 O 0.47471 0.51612 -0.11435
 O173 O 0.51804 0.28202 -0.00270
 O174 O 0.48264 0.71677 0.00102
 O175 O 0.46695 0.33550 0.00085
 O176 O 0.53382 0.66683 -0.00208
 H177 H 0.53704 0.47796 0.15972
 H178 H 0.47254 0.80547 0.00133
 H179 H 0.53493 0.45222 -0.16621
 H180 H 0.45061 0.27341 0.00200
 H181 H 0.51812 0.92038 0.14126
 H182 H 0.53201 0.88623 -0.06724
 H183 H 0.50098 0.59016 -0.24786
 H184 H 0.48623 0.37730 -0.24739
 H185 H 0.47933 0.08207 -0.13903
 H186 H 0.47907 0.10628 0.13530
 H187 H 0.49971 0.41479 0.24580
 H188 H 0.49549 0.64362 0.24644
 C189 C 0.36285 0.32396 0.29968
 C190 C 0.35790 0.41288 0.23896
 N191 N 0.33272 0.48467 0.23884
 C192 C 0.31271 0.47335 0.29766
 C193 C 0.31841 0.38810 0.36030
 N194 N 0.34328 0.31461 0.35841
 N195 N 0.38793 0.25417 0.30216
 C196 C 0.40865 0.26942 0.24712
 C197 C 0.40452 0.36125 0.18711
 N198 N 0.37894 0.43064 0.18397
 H199 H 0.29336 0.53518 0.29771
 H200 H 0.42857 0.21302 0.25210
 C201 C -0.11386 0.61416 0.29025
 C202 C -0.12393 0.68437 0.22574
 N203 N -0.15226 0.71805 0.22214
 C204 C -0.17085 0.68812 0.28129
 C205 C -0.16042 0.62492 0.34931
 N206 N -0.13209 0.58783 0.34986
 N207 N -0.08565 0.58055 0.29510
 C208 C -0.06671 0.61747 0.23924
 C209 C -0.07628 0.69490 0.17645
 N210 N -0.10491 0.72482 0.17062
 H211 H -0.19286 0.72196 0.27654
 H212 H -0.04423 0.59165 0.24609
 C213 C 0.63922 0.69915 0.28857
 C214 C 0.64369 0.60814 0.22287
 N215 N 0.66769 0.52791 0.22025
 C216 C 0.68695 0.53272 0.28128
 C217 C 0.68163 0.61990 0.34874
 N218 N 0.65802 0.70209 0.34951
 N219 N 0.61509 0.77654 0.29352
 C220 C 0.59480 0.76617 0.23635
 C221 C 0.59841 0.67237 0.17137
 N222 N 0.62303 0.59551 0.16586
 H223 H 0.70534 0.46454 0.27887
 H224 H 0.57524 0.82538 0.24430
 C225 C 0.11378 1.40525 0.30251
 C226 C 0.12456 1.33468 0.23407
 N227 N 0.15306 1.30363 0.22925
 C228 C 0.17106 1.33767 0.29054
 C229 C 0.15996 1.40374 0.36072
 N230 N 0.13156 1.43718 0.36359
 N231 N 0.08541 1.43483 0.30900
 C232 C 0.06705 1.39536 0.25050
 C233 C 0.07737 1.31994 0.18273
 N234 N 0.10609 1.29188 0.17594
 H235 H 0.19338 1.30651 0.28608
 H236 H 0.04441 1.41802 0.25877
 C237 C 0.61315 0.07425 -0.30649
 C238 C 0.62369 0.12539 -0.23344
 N239 N 0.65243 0.13944 -0.22436
 C240 C 0.67102 0.10792 -0.28573
 C241 C 0.66026 0.06494 -0.36139
 N242 N 0.63145 0.04718 -0.36798
 N243 N 0.58461 0.05839 -0.31645
 C244 C 0.56587 0.09548 -0.25714
 C245 C 0.57602 0.15631 -0.18533
 N246 N 0.60490 0.16808 -0.17481
 H247 H 0.69351 0.12649 -0.27618
 H248 H 0.54316 0.08429 -0.26811
 C249 C 0.13725 0.80954 -0.30943
 C250 C 0.14239 0.88756 -0.23934
 N251 N 0.16676 0.96003 -0.23347
 C252 C 0.18598 0.95933 -0.29494
 C253 C 0.18012 0.88552 -0.36717
 N254 N 0.15584 0.81186 -0.37101
 N255 N 0.11299 0.73793 -0.31683
 C256 C 0.09312 0.74299 -0.25779
 C257 C 0.09729 0.82599 -0.18848
 N258 N 0.12213 0.89581 -0.18061
 H259 H 0.20444 1.02285 -0.28857
 H260 H 0.07347 0.68871 -0.26728
 C261 C 0.38432 0.87955 -0.29895
 C262 C 0.37384 0.81740 -0.23245
 N263 N 0.34529 0.79358 -0.22763
 C264 C 0.32690 0.82637 -0.28713
 C265 C 0.33769 0.88319 -0.35651
 N266 N 0.36625 0.90945 -0.35832
 N267 N 0.41259 0.90477 -0.30515
 C268 C 0.43124 0.86792 -0.24829
 C269 C 0.42132 0.79921 -0.18275
 N270 N 0.39260 0.77676 -0.17590
 H271 H 0.30460 0.80250 -0.28057
 H272 H 0.45377 0.88784 -0.25614
 C273 C -0.14106 1.20615 -0.28086
 C274 C -0.14377 1.10831 -0.22437
 N275 N -0.16706 1.02808 -0.22719
 C276 C -0.18720 1.03869 -0.28547
 C277 C -0.18354 1.13178 -0.34481
 N278 N -0.16068 1.21451 -0.33963
 N279 N -0.11768 1.28427 -0.28018
 C280 C -0.09640 1.26774 -0.22666
 C281 C -0.09811 1.16588 -0.17208
 N282 N -0.12211 1.08932 -0.17147
 H283 H -0.20479 0.96941 -0.28841
 H284 H -0.07775 1.33022 -0.22895
 C285 C 0.63827 0.69339 -0.29296
 C286 C 0.64264 0.59789 -0.23551
 N287 N 0.66695 0.51967 -0.23929
 C288 C 0.68668 0.53137 -0.29872
 C289 C 0.68158 0.62379 -0.35803
 N290 N 0.65751 0.70301 -0.35262
 N291 N 0.61399 0.76978 -0.29134
 C292 C 0.59352 0.75492 -0.23545
 C293 C 0.59698 0.65619 -0.17914
 N294 N 0.62176 0.58013 -0.18006
 H295 H 0.70529 0.46442 -0.30209
 H296 H 0.57417 0.81624 -0.23734
 C297 C 0.11363 1.38939 -0.28898
 C298 C 0.12406 1.32477 -0.22283
 N299 N 0.15238 1.29068 -0.21972
 C300 C 0.17062 1.31552 -0.28063
 C301 C 0.15985 1.37349 -0.34997
 N302 N 0.13150 1.41039 -0.35039
 N303 N 0.08546 1.42410 -0.29296
 C304 C 0.06691 1.39354 -0.23455
 C305 C 0.07674 1.31941 -0.17060
 N306 N 0.10536 1.28881 -0.16570
 H307 H 0.19268 1.28224 -0.27581
 H308 H 0.04445 1.42033 -0.24069
 C309 C 0.35929 0.30039 -0.28730
 C310 C 0.35620 0.39847 -0.22453
 N311 N 0.33277 0.48221 -0.22238
 C312 C 0.31291 0.47542 -0.28174
 C313 C 0.31715 0.38328 -0.34728
 N314 N 0.34001 0.29625 -0.34718
 N315 N 0.38275 0.21803 -0.29104
 C316 C 0.40384 0.23164 -0.23615
 C317 C 0.40180 0.33465 -0.17557
 N318 N 0.37765 0.41456 -0.17038
 H319 H 0.29504 0.54653 -0.28016
 H320 H 0.42268 0.16661 -0.24221
 C321 C -0.11416 0.59356 -0.30489
 C322 C -0.12434 0.67148 -0.23840
 N323 N -0.15258 0.70750 -0.23402
 C324 C -0.17094 0.67140 -0.29401
 C325 C -0.16048 0.59712 -0.36223
 N326 N -0.13232 0.55894 -0.36463
 N327 N -0.08593 0.56079 -0.31147
 C328 C -0.06712 0.60383 -0.25488
 C329 C -0.07690 0.68585 -0.18911
 N330 N -0.10547 0.71698 -0.18214
 H331 H -0.19294 0.70770 -0.29041
 H332 H -0.04460 0.57812 -0.26299
 C333 C 0.38545 0.93785 0.30068
 C334 C 0.37565 0.86337 0.23347
 N335 N 0.34745 0.83285 0.22820
 C336 C 0.32874 0.87072 0.28806
 C337 C 0.33879 0.94069 0.35731
 N338 N 0.36695 0.97381 0.36063
 N339 N 0.41371 0.96493 0.30776
 C340 C 0.43283 0.91903 0.25116
 C341 C 0.42340 0.83873 0.18531
 N342 N 0.39484 0.81424 0.17769
 H343 H 0.30681 0.83799 0.28374
 H344 H 0.45532 0.94043 0.25952
 C345 C -0.13673 1.18103 0.30951
 C346 C -0.14182 1.10465 0.23884
 N347 N -0.16681 1.03718 0.23092
 C348 C -0.18654 1.04001 0.29131
 C349 C -0.18047 1.10946 0.36477
 N350 N -0.15575 1.17980 0.37013
 N351 N -0.11215 1.24985 0.31849
 C352 C -0.09181 1.24284 0.26065
 C353 C -0.09584 1.16035 0.19102
 N354 N -0.12109 1.09409 0.18129
 H355 H -0.20562 0.98129 0.28305
 H356 H -0.07208 1.29622 0.27104
 C357 C 0.61564 0.10694 0.28978
 C358 C 0.62576 0.17942 0.22677
 N359 N 0.65377 0.21505 0.22614
 C360 C 0.67194 0.18270 0.28617
 C361 C 0.66156 0.11211 0.35074
 N362 N 0.63358 0.07547 0.34926
 N363 N 0.58766 0.07418 0.29283
 C364 C 0.56909 0.11075 0.23564
 C365 C 0.57871 0.18679 0.17292
 N366 N 0.60706 0.21906 0.16991
 H367 H 0.69376 0.21672 0.28443
 H368 H 0.54678 0.08480 0.24114
 C369 C 0.14173 0.78566 0.27559
 C370 C 0.14477 0.88311 0.21903
 N371 N 0.16785 0.96463 0.22357
 C372 C 0.18754 0.95495 0.28316
 C373 C 0.18368 0.86098 0.34198
 N374 N 0.16093 0.77791 0.33548
 N375 N 0.11843 0.70710 0.27371
 C376 C 0.09763 0.72213 0.21864
 C377 C 0.09973 0.82257 0.16334
 N378 N 0.12357 0.90055 0.16438
 H379 H 0.20493 1.02540 0.28740
 H380 H 0.07889 0.66051 0.22073
   
