data_POSCAR
  _audit_creation_date              2014-09-24
  _audit_creation_method            'ToBaCCo'
  _symmetry_space_group_name_H-M    'P1'
  _symmetry_Int_Tables_number       1
  _symmetry_cell_setting            triclinic
  loop_
  _symmetry_equiv_pos_as_xyz
 x,y,z
_cell_length_a 29.7333
_cell_length_b 29.7327
_cell_length_c 29.7111
_cell_angle_alpha 89.951900
_cell_angle_beta 90.141800
_cell_angle_gamma 90.000000
loop_
  _atom_site_label
  _atom_site_type_symbol
  _atom_site_fract_x
  _atom_site_fract_y
  _atom_site_fract_z
O1 O -0.11625 0.06071 0.00111
 O2 O 0.11519 0.06076 -0.00189
 O3 O -0.00206 0.11560 0.06042
 O4 O 0.00092 0.11576 -0.06142
 O5 O 0.00085 0.06095 -0.11630
 O6 O -0.00201 0.06067 0.11538
 O7 O 0.06033 0.11568 -0.00198
 O8 O -0.06134 0.11561 0.00115
 Zr9 Zr -0.00052 0.07906 -0.00048
 O10 O 0.04024 0.04080 -0.04127
 O11 O -0.04124 0.04064 0.04031
 C12 C -0.10288 0.10226 0.00197
 C13 C 0.10189 0.10234 -0.00271
 C14 C -0.00283 0.10224 0.10201
 C15 C 0.00162 0.10260 -0.10310
 H16 H 0.05935 0.05969 0.05950
 O17 O 0.04011 0.04051 0.04028
 H18 H -0.06048 0.05979 -0.06038
 O19 O -0.04126 0.04059 -0.04113
 O20 O 0.11508 -0.06089 0.00136
 O21 O -0.11638 -0.06100 -0.00205
 O22 O 0.06042 -0.00186 0.11543
 O23 O 0.06018 0.00153 -0.11621
 O24 O -0.06153 -0.00160 -0.11626
 O25 O -0.06123 0.00153 0.11534
 O26 O 0.00099 -0.11594 0.06072
 O27 O -0.00239 -0.11573 -0.06112
 O28 O 0.00109 -0.06109 0.11556
 O29 O -0.00238 -0.06080 -0.11611
 O30 O 0.11521 -0.00176 0.06052
 O31 O -0.11621 0.00155 0.06034
 O32 O -0.11632 -0.00173 -0.06143
 O33 O 0.11511 0.00146 -0.06118
 O34 O 0.06019 -0.11581 0.00143
 O35 O -0.06155 -0.11588 -0.00189
 Zr36 Zr 0.07853 -0.00007 -0.00035
 Zr37 Zr -0.07969 -0.00013 -0.00049
 Zr38 Zr -0.00047 -0.00018 0.07880
 Zr39 Zr -0.00065 0.00003 -0.07959
 Zr40 Zr -0.00066 -0.07924 -0.00025
 O41 O -0.04139 -0.04085 -0.04124
 O42 O 0.04027 -0.04092 0.04050
 C43 C 0.10174 -0.10244 0.00225
 C44 C -0.10319 -0.10266 -0.00273
 C45 C 0.10193 -0.00266 0.10208
 C46 C 0.10177 0.00226 -0.10281
 C47 C -0.10313 -0.00248 -0.10306
 C48 C -0.10280 0.00238 0.10194
 C49 C 0.00180 -0.10275 0.10240
 C50 C -0.00325 -0.10234 -0.10270
 H51 H -0.06040 -0.05998 0.05952
 O52 O -0.04122 -0.04078 0.04031
 H53 H 0.05911 -0.05989 -0.06013
 O54 O 0.03993 -0.04070 -0.04095
 O55 O 0.38436 0.56132 0.00184
 O56 O 0.61586 0.56145 -0.00110
 O57 O 0.49858 0.61626 0.06137
 O58 O 0.50174 0.61616 -0.06040
 O59 O 0.50161 0.56127 -0.11532
 O60 O 0.49863 0.56138 0.11627
 O61 O 0.56096 0.61633 -0.00109
 O62 O 0.43926 0.61622 0.00197
 Zr63 Zr 0.50010 0.57964 0.00047
 O64 O 0.54075 0.54129 -0.04037
 O65 O 0.45929 0.54129 0.04116
 C66 C 0.39771 0.60286 0.00271
 C67 C 0.60255 0.60304 -0.00189
 C68 C 0.49785 0.60304 0.10305
 C69 C 0.50255 0.60278 -0.10194
 H70 H 0.56003 0.56037 0.06040
 O71 O 0.54081 0.54118 0.04117
 H72 H 0.44018 0.56037 -0.05955
 O73 O 0.45939 0.54116 -0.04030
 O74 O 0.61574 0.43971 0.00220
 O75 O 0.38425 0.43965 -0.00135
 O76 O 0.56108 0.49886 0.11629
 O77 O 0.56070 0.50209 -0.11538
 O78 O 0.43895 0.49903 -0.11556
 O79 O 0.43933 0.50213 0.11612
 O80 O 0.50173 0.38483 0.06125
 O81 O 0.49838 0.38475 -0.06046
 O82 O 0.50184 0.43967 0.11620
 O83 O 0.49828 0.43963 -0.11545
 O84 O 0.61586 0.49888 0.06145
 O85 O 0.38438 0.50209 0.06109
 O86 O 0.38416 0.49904 -0.06074
 O87 O 0.61569 0.50218 -0.06039
 O88 O 0.56081 0.38484 0.00213
 O89 O 0.43915 0.38477 -0.00123
 Zr90 Zr 0.57920 0.50057 0.00050
 Zr91 Zr 0.42090 0.50050 0.00025
 Zr92 Zr 0.50016 0.50054 0.07960
 Zr93 Zr 0.49989 0.50047 -0.07879
 Zr94 Zr 0.49999 0.42142 0.00038
 O95 O 0.45910 0.45967 -0.04054
 O96 O 0.54085 0.45976 0.04124
 C97 C 0.60236 0.39817 0.00300
 C98 C 0.39758 0.39808 -0.00210
 C99 C 0.60270 0.49806 0.10310
 C100 C 0.60229 0.50294 -0.10200
 C101 C 0.39731 0.49830 -0.10241
 C102 C 0.39776 0.50291 0.10270
 C103 C 0.50264 0.39814 0.10282
 C104 C 0.49754 0.39805 -0.10208
 H105 H 0.44028 0.44069 0.06020
 O106 O 0.45946 0.45990 0.04101
 H107 H 0.55979 0.44071 -0.05938
 O108 O 0.54063 0.45991 -0.04020
 O109 O -0.11596 0.56106 0.50141
 O110 O 0.11551 0.56091 0.49852
 O111 O -0.00185 0.61576 0.56071
 O112 O 0.00127 0.61598 0.43890
 O113 O 0.00124 0.56111 0.38400
 O114 O -0.00173 0.56086 0.61572
 O115 O 0.06061 0.61582 0.49832
 O116 O -0.06112 0.61591 0.50138
 Zr117 Zr -0.00024 0.57926 0.49986
 O118 O 0.04058 0.54092 0.45921
 O119 O -0.04088 0.54087 0.54074
 C120 C -0.10276 0.60271 0.50215
 C121 C 0.10216 0.60246 0.49760
 C122 C -0.00264 0.60239 0.60229
 C123 C 0.00202 0.60270 0.39728
 H124 H 0.05967 0.55992 0.55990
 O125 O 0.04045 0.54072 0.54068
 H126 H -0.06014 0.56002 0.43994
 O127 O -0.04091 0.54081 0.45918
 O128 O 0.11561 0.43924 0.50180
 O129 O -0.11587 0.43933 0.49823
 O130 O 0.06089 0.49855 0.61602
 O131 O 0.06059 0.50183 0.38428
 O132 O -0.06119 0.49854 0.38407
 O133 O -0.06087 0.50163 0.61578
 O134 O 0.00143 0.38425 0.56101
 O135 O -0.00182 0.38443 0.43919
 O136 O 0.00151 0.43908 0.61595
 O137 O -0.00190 0.43934 0.38420
 O138 O 0.11571 0.49859 0.56115
 O139 O -0.11583 0.50176 0.56076
 O140 O -0.11600 0.49854 0.43895
 O141 O 0.11551 0.50174 0.43934
 O142 O 0.06072 0.38435 0.50173
 O143 O -0.06095 0.38444 0.49833
 Zr144 Zr 0.07896 0.50009 0.50017
 Zr145 Zr -0.07931 0.50018 0.49989
 Zr146 Zr -0.00005 0.50001 0.57924
 Zr147 Zr -0.00027 0.50020 0.42076
 Zr148 Zr -0.00013 0.42098 0.50008
 O149 O -0.04096 0.45939 0.45918
 O150 O 0.04074 0.45923 0.54099
 C151 C 0.10229 0.39767 0.50257
 C152 C -0.10250 0.39778 0.49743
 C153 C 0.10247 0.49782 0.60276
 C154 C 0.10215 0.50261 0.39772
 C155 C -0.10274 0.49772 0.39737
 C156 C -0.10245 0.50251 0.60238
 C157 C 0.00223 0.39750 0.60263
 C158 C -0.00269 0.39778 0.39759
 H159 H -0.05993 0.44027 0.55983
 O160 O -0.04076 0.45947 0.54064
 H161 H 0.05960 0.44034 0.44026
 O162 O 0.04041 0.45953 0.45942
 O163 O 0.38466 0.06036 0.50145
 O164 O 0.61612 0.06033 0.49846
 O165 O 0.49890 0.11528 0.56086
 O166 O 0.50197 0.11522 0.43916
 O167 O 0.50192 0.06037 0.38421
 O168 O 0.49895 0.06039 0.61583
 O169 O 0.56119 0.11520 0.49839
 O170 O 0.43954 0.11526 0.50149
 Zr171 Zr 0.50038 0.07863 0.50002
 O172 O 0.54113 0.04028 0.45926
 O173 O 0.45962 0.04035 0.54082
 C174 C 0.39798 0.10193 0.50225
 C175 C 0.60274 0.10187 0.49759
 C176 C 0.49814 0.10197 0.60247
 C177 C 0.50276 0.10190 0.39759
 H178 H 0.56033 0.05934 0.55993
 O179 O 0.54113 0.04014 0.54070
 H180 H 0.44051 0.05935 0.44005
 O181 O 0.45974 0.04015 0.45928
 O182 O 0.61627 -0.06140 0.50171
 O183 O 0.38477 -0.06130 0.49828
 O184 O 0.56136 -0.00208 0.61588
 O185 O 0.56110 0.00124 0.38426
 O186 O 0.43946 -0.00212 0.38416
 O187 O 0.43967 0.00103 0.61578
 O188 O 0.50228 -0.11614 0.56081
 O189 O 0.49884 -0.11627 0.43903
 O190 O 0.50227 -0.06124 0.61572
 O191 O 0.49874 -0.06133 0.38410
 O192 O 0.61621 -0.00217 0.56103
 O193 O 0.38474 0.00102 0.56077
 O194 O 0.38466 -0.00211 0.43906
 O195 O 0.61608 0.00121 0.43925
 O196 O 0.56140 -0.11630 0.50160
 O197 O 0.43967 -0.11621 0.49829
 Zr198 Zr 0.57958 -0.00053 0.50009
 Zr199 Zr 0.42132 -0.00047 0.49994
 Zr200 Zr 0.50050 -0.00044 0.57917
 Zr201 Zr 0.50034 -0.00050 0.42081
 Zr202 Zr 0.50052 -0.07964 0.49993
 O203 O 0.45960 -0.04127 0.45914
 O204 O 0.54126 -0.04127 0.54086
 C205 C 0.60298 -0.10299 0.50246
 C206 C 0.39812 -0.10284 0.49746
 C207 C 0.60290 -0.00295 0.60260
 C208 C 0.60266 0.00209 0.39765
 C209 C 0.39794 -0.00295 0.39750
 C210 C 0.39808 0.00180 0.60239
 C211 C 0.50316 -0.10275 0.60236
 C212 C 0.49798 -0.10293 0.39741
 H213 H 0.44074 -0.06034 0.55979
 O214 O 0.45991 -0.04114 0.54059
 H215 H 0.56027 -0.06032 0.44014
 O216 O 0.54109 -0.04114 0.45933
 N217 N 0.21277 0.15758 -0.00494
 C218 C 0.20129 0.20171 -0.00533
 N219 N 0.15716 0.21320 -0.00504
 N220 N 0.12547 0.18152 -0.00436
 C221 C 0.13683 0.13727 -0.00391
 N222 N 0.18108 0.12589 -0.00425
 C223 C 0.23543 0.23585 -0.00554
 C224 C 0.26410 0.26453 -0.00547
 C225 C 0.29822 0.29868 -0.00509
 N226 N 0.28672 0.34280 -0.00475
 N227 N 0.31840 0.37450 -0.00393
 C228 C 0.36265 0.36314 -0.00340
 N229 N 0.37404 0.31889 -0.00380
 N230 N 0.34235 0.28720 -0.00462
 N231 N 0.21303 -0.34259 0.49499
 C232 C 0.20161 -0.29846 0.49447
 N233 N 0.15752 -0.28685 0.49482
 N234 N 0.12577 -0.31846 0.49568
 C235 C 0.13708 -0.36271 0.49626
 N236 N 0.18129 -0.37420 0.49585
 C237 C 0.23577 -0.26447 0.49410
 C238 C 0.26450 -0.23592 0.49408
 C239 C 0.29866 -0.20193 0.49439
 N240 N 0.28724 -0.15780 0.49478
 N241 N 0.31898 -0.12619 0.49561
 C242 C 0.36319 -0.13768 0.49611
 N243 N 0.37450 -0.18193 0.49565
 N244 N 0.34275 -0.21354 0.49482
 N245 N 0.78761 0.84378 -0.00497
 C246 C 0.79906 0.79964 -0.00520
 N247 N 0.84319 0.78817 -0.00481
 N248 N 0.87490 0.81985 -0.00416
 C249 C 0.86361 0.86417 -0.00385
 N250 N 0.81930 0.87548 -0.00433
 C251 C 0.76487 0.76545 -0.00536
 C252 C 0.73617 0.73674 -0.00525
 C253 C 0.70199 0.70254 -0.00485
 N254 N 0.71347 0.65840 -0.00444
 N255 N 0.68178 0.62669 -0.00363
 C256 C 0.63752 0.63803 -0.00318
 N257 N 0.62615 0.68229 -0.00363
 N258 N 0.65784 0.71399 -0.00444
 N259 N 0.78679 0.34244 0.49468
 C260 C 0.79838 0.29835 0.49429
 N261 N 0.84251 0.28692 0.49475
 N262 N 0.87413 0.31865 0.49560
 C263 C 0.86266 0.36286 0.49605
 N264 N 0.81841 0.37418 0.49553
 C265 C 0.76438 0.26420 0.49398
 C266 C 0.73582 0.23548 0.49401
 C267 C 0.70182 0.20133 0.49438
 N268 N 0.71343 0.15724 0.49488
 N269 N 0.68182 0.12549 0.49576
 C270 C 0.63757 0.13680 0.49621
 N271 N 0.62608 0.18101 0.49566
 N272 N 0.65769 0.21275 0.49478
 N273 N 0.78642 0.15758 0.00489
 C274 C 0.79801 0.20167 0.00542
 N275 N 0.84214 0.21311 0.00496
 N276 N 0.87375 0.18138 0.00397
 C277 C 0.86228 0.13717 0.00339
 N278 N 0.81803 0.12585 0.00391
 C279 C 0.76401 0.23582 0.00593
 C280 C 0.73545 0.26454 0.00607
 C281 C 0.70145 0.29870 0.00589
 N282 N 0.71305 0.34279 0.00555
 N283 N 0.68145 0.37454 0.00480
 C284 C 0.63719 0.36323 0.00434
 N285 N 0.62570 0.31902 0.00475
 N286 N 0.65732 0.28728 0.00550
 N287 N 0.78807 -0.34370 0.50456
 C288 C 0.79954 -0.29956 0.50492
 N289 N 0.84367 -0.28810 0.50453
 N290 N 0.87537 -0.31979 0.50376
 C291 C 0.86406 -0.36411 0.50332
 N292 N 0.81975 -0.37540 0.50379
 C293 C 0.76535 -0.26537 0.50526
 C294 C 0.73665 -0.23666 0.50531
 C295 C 0.70247 -0.20247 0.50509
 N296 N 0.71393 -0.15832 0.50481
 N297 N 0.68223 -0.12662 0.50413
 C298 C 0.63797 -0.13797 0.50369
 N299 N 0.62662 -0.18224 0.50402
 N300 N 0.65832 -0.21393 0.50470
 N301 N 0.21316 0.34240 0.50498
 C302 C 0.20166 0.29827 0.50530
 N303 N 0.15753 0.28679 0.50491
 N304 N 0.12585 0.31848 0.50420
 C305 C 0.13722 0.36273 0.50383
 N306 N 0.18147 0.37410 0.50427
 C307 C 0.23580 0.26413 0.50554
 C308 C 0.26447 0.23545 0.50548
 C309 C 0.29860 0.20131 0.50513
 N310 N 0.28711 0.15718 0.50471
 N311 N 0.31879 0.12549 0.50392
 C312 C 0.36304 0.13686 0.50350
 N313 N 0.37441 0.18111 0.50397
 N314 N 0.34273 0.21279 0.50476
 N315 N 0.21263 0.84262 0.00504
 C316 C 0.20121 0.79849 0.00551
 N317 N 0.15713 0.78687 0.00508
 N318 N 0.12537 0.81847 0.00418
 C319 C 0.13667 0.86273 0.00365
 N320 N 0.18088 0.87423 0.00414
 C321 C 0.23538 0.76450 0.00590
 C322 C 0.26411 0.73595 0.00595
 C323 C 0.29827 0.70196 0.00566
 N324 N 0.28685 0.65783 0.00520
 N325 N 0.31858 0.62622 0.00440
 C326 C 0.36279 0.63770 0.00401
 N327 N 0.37411 0.68195 0.00452
 N328 N 0.34236 0.71356 0.00532
 N329 N -0.00537 0.21306 0.15721
 C330 C -0.00572 0.20155 0.20137
 N331 N -0.00530 0.15742 0.21290
 N332 N -0.00452 0.12574 0.18121
 C333 C -0.00411 0.13714 0.13693
 N334 N -0.00458 0.18138 0.12552
 C335 C -0.00603 0.23565 0.23548
 C336 C -0.00602 0.26432 0.26414
 C337 C -0.00569 0.29843 0.29825
 N338 N -0.00525 0.28694 0.34242
 N339 N -0.00444 0.31862 0.37410
 C340 C -0.00402 0.36286 0.36267
 N341 N -0.00452 0.37424 0.31839
 N342 N -0.00533 0.34255 0.28671
 N343 N 0.49522 0.34267 0.78704
 C344 C 0.49494 0.29855 0.79862
 N345 N 0.49532 0.28712 0.84280
 N346 N 0.49599 0.31884 0.87446
 C347 C 0.49633 0.36308 0.86300
 N348 N 0.49590 0.37441 0.81869
 C349 C 0.49475 0.26436 0.76452
 C350 C 0.49483 0.23564 0.73588
 C351 C 0.49522 0.20145 0.70178
 N352 N 0.49566 0.15733 0.71335
 N353 N 0.49646 0.12560 0.68170
 C354 C 0.49688 0.13693 0.63739
 N355 N 0.49639 0.18117 0.62594
 N356 N 0.49558 0.21289 0.65759
 N357 N -0.00598 0.84252 0.78652
 C358 C -0.00641 0.79842 0.79810
 N359 N -0.00600 0.78691 0.84225
 N360 N -0.00515 0.81858 0.87391
 C361 C -0.00465 0.86281 0.86245
 N362 N -0.00513 0.87421 0.81818
 C363 C -0.00668 0.76436 0.76407
 C364 C -0.00660 0.73572 0.73546
 C365 C -0.00613 0.70165 0.70144
 N366 N -0.00557 0.65756 0.71304
 N367 N -0.00458 0.62587 0.68139
 C368 C -0.00409 0.63726 0.63712
 N369 N -0.00471 0.68147 0.62564
 N370 N -0.00570 0.71315 0.65729
 N371 N 0.49551 -0.28782 0.15662
 C372 C 0.49518 -0.29931 0.20079
 N373 N 0.49556 -0.34345 0.21228
 N374 N 0.49630 -0.37514 0.18058
 C375 C 0.49670 -0.36381 0.13624
 N376 N 0.49624 -0.31949 0.12491
 C377 C 0.49490 -0.26515 0.23498
 C378 C 0.49490 -0.23647 0.26369
 C379 C 0.49520 -0.20231 0.29789
 N380 N 0.49561 -0.21381 0.34207
 N381 N 0.49635 -0.18214 0.37379
 C382 C 0.49672 -0.13787 0.36242
 N383 N 0.49625 -0.12649 0.31812
 N384 N 0.49551 -0.15816 0.28641
 N385 N 0.00415 0.84361 0.21175
 C386 C 0.00444 0.79946 0.20032
 N387 N 0.00404 0.78802 0.15615
 N388 N 0.00332 0.81972 0.12439
 C389 C 0.00296 0.86404 0.13566
 N390 N 0.00343 0.87532 0.18000
 C391 C 0.00473 0.76524 0.23459
 C392 C 0.00475 0.73651 0.26336
 C393 C 0.00451 0.70228 0.29762
 N394 N 0.00418 0.65812 0.28619
 N395 N 0.00353 0.62641 0.31793
 C396 C 0.00317 0.63773 0.36223
 N397 N 0.00355 0.68200 0.37355
 N398 N 0.00421 0.71371 0.34180
 N399 N 0.50580 -0.28659 0.84278
 C400 C 0.50628 -0.29820 0.79869
 N401 N 0.50568 -0.34229 0.78722
 N402 N 0.50461 -0.37391 0.81896
 C403 C 0.50407 -0.36243 0.86318
 N404 N 0.50473 -0.31821 0.87453
 C405 C 0.50679 -0.26425 0.76458
 C406 C 0.50688 -0.23571 0.73588
 C407 C 0.50657 -0.20176 0.70176
 N408 N 0.50610 -0.21337 0.65767
 N409 N 0.50517 -0.18176 0.62591
 C410 C 0.50464 -0.13753 0.63725
 N411 N 0.50518 -0.12605 0.68147
 N412 N 0.50611 -0.15767 0.71322
 N413 N 0.50548 0.34266 0.21357
 C414 C 0.50588 0.29859 0.20193
 N415 N 0.50539 0.28722 0.15777
 N416 N 0.50451 0.31899 0.12615
 C417 C 0.50405 0.36319 0.13766
 N418 N 0.50459 0.37445 0.18195
 C419 C 0.50623 0.26439 0.23593
 C420 C 0.50624 0.23563 0.26448
 C421 C 0.50589 0.20144 0.29848
 N422 N 0.50542 0.15737 0.28684
 N423 N 0.50456 0.12558 0.31846
 C424 C 0.50411 0.13685 0.36275
 N425 N 0.50465 0.18104 0.37426
 N426 N 0.50551 0.21281 0.34264
 N427 N 0.00401 0.21187 0.84335
 C428 C 0.00435 0.20049 0.79917
 N429 N 0.00394 0.15637 0.78766
 N430 N 0.00317 0.12461 0.81935
 C431 C 0.00277 0.13583 0.86371
 N432 N 0.00325 0.18013 0.87505
 C433 C 0.00471 0.23475 0.76498
 C434 C 0.00480 0.26353 0.73629
 C435 C 0.00463 0.29781 0.70211
 N436 N 0.00431 0.28644 0.65792
 N437 N 0.00370 0.31820 0.62623
 C438 C 0.00338 0.36245 0.63763
 N439 N 0.00376 0.37371 0.68194
 N440 N 0.00437 0.34194 0.71363
 N441 N 0.21283 -0.00546 0.15725
 C442 C 0.20143 -0.00596 0.20138
 N443 N 0.15736 -0.00555 0.21292
 N444 N 0.12560 -0.00464 0.18124
 C445 C 0.13688 -0.00408 0.13698
 N446 N 0.18108 -0.00454 0.12556
 C447 C 0.23559 -0.00635 0.23546
 C448 C 0.26431 -0.00638 0.26410
 C449 C 0.29846 -0.00606 0.29818
 N450 N 0.28706 -0.00564 0.34232
 N451 N 0.31880 -0.00479 0.37402
 C452 C 0.36300 -0.00431 0.36260
 N453 N 0.37430 -0.00479 0.31834
 N454 N 0.34254 -0.00564 0.28665
 N455 N 0.28803 0.49603 0.84385
 C456 C 0.29942 0.49567 0.79968
 N457 N 0.34354 0.49602 0.78826
 N458 N 0.37530 0.49675 0.82000
 C459 C 0.36407 0.49718 0.86434
 N460 N 0.31977 0.49676 0.87560
 C461 C 0.26516 0.49533 0.76543
 C462 C 0.23640 0.49527 0.73668
 C463 C 0.20214 0.49546 0.70243
 N464 N 0.21352 0.49577 0.65825
 N465 N 0.18177 0.49638 0.62650
 C466 C 0.13752 0.49671 0.63782
 N467 N 0.12625 0.49634 0.68211
 N468 N 0.15801 0.49573 0.71386
 N469 N 0.78775 -0.00530 0.84331
 C470 C 0.79921 -0.00569 0.79918
 N471 N 0.84330 -0.00517 0.78773
 N472 N 0.87502 -0.00425 0.81946
 C473 C 0.86373 -0.00379 0.86377
 N474 N 0.81946 -0.00439 0.87506
 C475 C 0.76508 -0.00611 0.76502
 C476 C 0.73640 -0.00617 0.73631
 C477 C 0.70228 -0.00591 0.70213
 N478 N 0.71375 -0.00556 0.65801
 N479 N 0.68205 -0.00476 0.62625
 C480 C 0.63782 -0.00427 0.63757
 N481 N 0.62647 -0.00468 0.68182
 N482 N 0.65818 -0.00548 0.71358
 N483 N -0.28809 0.49542 0.15671
 C484 C -0.29949 0.49499 0.20086
 N485 N -0.34359 0.49540 0.21233
 N486 N -0.37535 0.49626 0.18061
 C487 C -0.36411 0.49677 0.13629
 N488 N -0.31983 0.49628 0.12498
 C489 C -0.26528 0.49462 0.23503
 C490 C -0.23654 0.49458 0.26372
 C491 C -0.20233 0.49485 0.29789
 N492 N -0.21371 0.49522 0.34204
 N493 N -0.18196 0.49599 0.37376
 C494 C -0.13774 0.49642 0.36239
 N495 N -0.12646 0.49599 0.31812
 N496 N -0.15822 0.49523 0.28640
 N497 N 0.15720 0.00449 0.78641
 C498 C 0.20132 0.00480 0.79808
 N499 N 0.21272 0.00445 0.84230
 N500 N 0.18098 0.00379 0.87388
 C501 C 0.13674 0.00343 0.86233
 N502 N 0.12545 0.00383 0.81799
 C503 C 0.23555 0.00501 0.76407
 C504 C 0.26431 0.00495 0.73551
 C505 C 0.29854 0.00460 0.70149
 N506 N 0.34266 0.00421 0.71317
 N507 N 0.37441 0.00344 0.68159
 C508 C 0.36311 0.00302 0.63726
 N509 N 0.31887 0.00346 0.62570
 N510 N 0.28713 0.00423 0.65729
 N511 N 0.34256 0.50541 0.21350
 C512 C 0.29844 0.50577 0.20189
 N513 N 0.28694 0.50538 0.15771
 N514 N 0.31861 0.50461 0.12608
 C515 C 0.36286 0.50419 0.13757
 N516 N 0.37425 0.50464 0.18187
 C517 C 0.26432 0.50605 0.23594
 C518 C 0.23565 0.50602 0.26454
 C519 C 0.20152 0.50566 0.29858
 N520 N 0.15740 0.50529 0.28695
 N521 N 0.12570 0.50445 0.31856
 C522 C 0.13707 0.50394 0.36287
 N523 N 0.18131 0.50437 0.37438
 N524 N 0.21300 0.50520 0.34276
 N525 N 0.84232 0.00507 0.21281
 C526 C 0.79818 0.00549 0.20130
 N527 N 0.78654 0.00507 0.15716
 N528 N 0.81813 0.00423 0.12544
 C529 C 0.86239 0.00376 0.13684
 N530 N 0.87391 0.00423 0.18110
 C531 C 0.76419 0.00579 0.23543
 C532 C 0.73565 0.00576 0.26413
 C533 C 0.70167 0.00537 0.29827
 N534 N 0.65753 0.00495 0.28677
 N535 N 0.62594 0.00404 0.31848
 C536 C 0.63747 0.00351 0.36275
 N537 N 0.68173 0.00400 0.37413
 N538 N 0.71331 0.00490 0.34241
 N539 N -0.34265 0.50530 0.78709
 C540 C -0.29851 0.50570 0.79862
 N541 N -0.28694 0.50538 0.84279
 N542 N -0.31857 0.50466 0.87448
 C543 C -0.36284 0.50420 0.86306
 N544 N -0.37429 0.50457 0.81877
 C545 C -0.26443 0.50594 0.76449
 C546 C -0.23580 0.50588 0.73582
 C547 C -0.20171 0.50552 0.70170
 N548 N -0.15757 0.50504 0.71325
 N549 N -0.12592 0.50422 0.68159
 C550 C -0.13734 0.50382 0.63729
 N551 N -0.18161 0.50435 0.62585
 N552 N -0.21325 0.50517 0.65753
   
