data_POSCAR
  _audit_creation_date              2014-09-24
  _audit_creation_method            'ToBaCCo'
  _symmetry_space_group_name_H-M    'P1'
  _symmetry_Int_Tables_number       1
  _symmetry_cell_setting            triclinic
  loop_
  _symmetry_equiv_pos_as_xyz
 x,y,z
_cell_length_a 20.1549
_cell_length_b 20.0331
_cell_length_c 7.3567
_cell_angle_alpha 90.249500
_cell_angle_beta 90.041500
_cell_angle_gamma 90.029600
loop_
  _atom_site_label
  _atom_site_type_symbol
  _atom_site_fract_x
  _atom_site_fract_y
  _atom_site_fract_z
O1 O 0.20531 0.31815 0.06018
 O2 O 0.33039 0.18739 0.13942
 O3 O 0.21687 0.18438 0.01867
 O4 O 0.33232 0.31294 0.18772
 O5 O 0.28932 0.30731 0.46372
 O6 O 0.16382 0.19257 0.27973
 O7 O 0.29252 0.17815 0.41823
 O8 O 0.17855 0.31856 0.35029
 Cu9 Cu 0.27349 0.25468 0.07245
 Cu10 Cu 0.22687 0.24358 0.40322
 C11 C 0.17120 0.34149 0.19150
 C12 C 0.33218 0.15956 0.29347
 C13 C 0.16929 0.16758 0.12140
 C14 C 0.33158 0.33090 0.35376
 O15 O 0.82724 0.31294 0.36545
 O16 O 0.71169 0.17344 0.44173
 O17 O 0.83312 0.18313 0.31990
 O18 O 0.70922 0.30236 0.49288
 O19 O 0.67310 0.31648 0.21190
 O20 O 0.79107 0.19048 0.04327
 O21 O 0.67098 0.18851 0.16911
 O22 O 0.79372 0.32014 0.08153
 Cu23 Cu 0.77460 0.24142 0.43242
 Cu24 Cu 0.72833 0.25522 0.09884
 C25 C 0.83095 0.33997 0.21023
 C26 C 0.67010 0.15767 0.31897
 C27 C 0.83271 0.16591 0.15372
 C28 C 0.67047 0.33009 0.38038
 O29 O 0.82691 0.68129 0.70845
 O30 O 0.71035 0.80774 0.53667
 O31 O 0.83157 0.80933 0.66205
 O32 O 0.70662 0.67890 0.57598
 O33 O 0.67309 0.68734 0.85977
 O34 O 0.78968 0.82635 0.93243
 O35 O 0.66748 0.81624 0.81207
 O36 O 0.79070 0.69757 0.98862
 Cu37 Cu 0.77288 0.74291 0.59341
 Cu38 Cu 0.72615 0.75877 0.92570
 C39 C 0.82908 0.66853 0.87719
 C40 C 0.66803 0.83239 0.64555
 C41 C 0.83184 0.84136 0.81089
 C42 C 0.66909 0.65997 0.70447
 O43 O 0.33015 0.81453 0.78686
 O44 O 0.20523 0.69855 0.96650
 O45 O 0.32278 0.68662 0.84110
 O46 O 0.20866 0.82758 0.90829
 O47 O 0.16502 0.80894 0.64003
 O48 O 0.29069 0.67858 0.55607
 O49 O 0.16982 0.68026 0.68636
 O50 O 0.28602 0.80700 0.51260
 Cu51 Cu 0.27059 0.75879 0.90329
 Cu52 Cu 0.22367 0.74216 0.57147
 C53 C 0.32922 0.83086 0.62045
 C54 C 0.16739 0.66845 0.85558
 C55 C 0.32774 0.65957 0.68573
 C56 C 0.16629 0.84230 0.78687
 C57 C 1.03155 -0.15159 -0.38865
 C58 C 0.96353 -0.15219 -0.38205
 C59 C 0.94473 -0.11336 -0.23363
 N60 N 1.00007 -0.08906 -0.15144
 C61 C 1.05337 -0.11223 -0.24488
 C62 C 0.87965 -0.10759 -0.15701
 C63 C 0.86343 -0.05183 -0.04328
 C64 C 0.80436 -0.04160 0.05246
 C65 C 0.80537 0.02275 0.11781
 C66 C 0.86449 0.05058 0.06162
 N67 N 0.89935 0.00533 -0.03614
 C68 C 0.88274 0.11783 0.08791
 C69 C 0.94806 0.14072 0.06516
 C70 C 0.96636 0.20719 0.05799
 C71 C 1.03428 0.20827 0.05244
 C72 C 1.05493 0.14238 0.05658
 N73 N 1.00217 0.10096 0.06332
 C74 C 1.12169 0.12170 0.06033
 C75 C 1.14141 0.05565 0.01830
 C76 C 1.20322 0.02910 0.05566
 C77 C 1.20266 -0.03552 -0.00710
 C78 C 1.13996 -0.04752 -0.08128
 N79 N 1.10353 0.00913 -0.06638
 C80 C 1.12009 -0.10529 -0.18218
 H81 H 1.06037 -0.17711 -0.49112
 H82 H 0.93294 -0.17834 -0.47937
 H83 H 1.05781 0.01795 -0.12732
 H84 H 0.76238 -0.07433 0.06938
 H85 H 0.76605 0.04687 0.19355
 H86 H 0.93397 0.25016 0.05515
 H87 H 1.06516 0.25224 0.04274
 H88 H 1.24565 -0.06755 -0.00383
 H89 H 0.94117 0.01606 -0.11356
 H90 H 1.24491 0.05391 0.11944
 C91 C 0.46363 0.66817 0.83806
 C92 C 0.53136 0.66808 0.84267
 C93 C 0.55241 0.61826 0.72468
 N94 N 0.49898 0.58806 0.64842
 C95 C 0.44436 0.61837 0.71716
 C96 C 0.61917 0.60646 0.67179
 C97 C 0.63933 0.54709 0.58145
 C98 C 0.70220 0.53477 0.51074
 C99 C 0.70240 0.47002 0.44832
 C100 C 0.63996 0.44425 0.48267
 N101 N 0.60225 0.49102 0.56604
 C102 C 0.62035 0.37799 0.44532
 C103 C 0.55406 0.35620 0.45148
 C104 C 0.53428 0.29007 0.44406
 C105 C 0.46637 0.29038 0.43650
 C106 C 0.44713 0.35669 0.43934
 N107 N 0.50076 0.39694 0.44865
 C108 C 0.38137 0.37909 0.42040
 C109 C 0.36147 0.44547 0.45548
 C110 C 0.29997 0.47157 0.41195
 C111 C 0.29891 0.53596 0.47704
 C112 C 0.36019 0.54786 0.55845
 N113 N 0.39746 0.49182 0.54645
 C114 C 0.37849 0.60666 0.65498
 H115 H 0.43361 0.70317 0.91333
 H116 H 0.56042 0.70282 0.92191
 H117 H 0.44183 0.48314 0.61416
 H118 H 0.74478 0.56752 0.50824
 H119 H 0.74423 0.44451 0.38774
 H120 H 0.56563 0.24635 0.44472
 H121 H 0.43465 0.24696 0.43057
 H122 H 0.25644 0.56864 0.46880
 H123 H 0.55639 0.48274 0.62620
 H124 H 0.25946 0.44646 0.34370
 C125 C 0.03633 0.33432 0.34602
 C126 C -0.03140 0.33424 0.35136
 C127 C -0.05282 0.38292 0.23133
 N128 N 0.00034 0.41262 0.15332
 C129 C 0.05512 0.38307 0.22285
 C130 C -0.11961 0.39394 0.17776
 C131 C -0.13991 0.45277 0.08597
 C132 C -0.20268 0.46443 0.01390
 C133 C -0.20293 0.52880 -0.05035
 C134 C -0.14061 0.55502 -0.01581
 N135 N -0.10296 0.50889 0.06960
 C136 C -0.12097 0.62103 -0.05570
 C137 C -0.05475 0.64320 -0.04939
 C138 C -0.03520 0.70928 -0.06332
 C139 C 0.03268 0.70920 -0.06922
 C140 C 0.05222 0.64306 -0.05863
 N141 N -0.00127 0.60273 -0.04666
 C142 C 0.11806 0.62063 -0.07560
 C143 C 0.13794 0.55433 -0.04093
 C144 C 0.19918 0.52768 -0.08584
 C145 C 0.19994 0.46332 -0.02131
 C146 C 0.13893 0.45226 0.06149
 N147 N 0.10197 0.50846 0.05052
 C148 C 0.12072 0.39421 0.15922
 H149 H 0.06686 0.30010 0.42187
 H150 H -0.06020 0.30016 0.43249
 H151 H 0.05791 0.51758 0.11944
 H152 H -0.24507 0.43143 0.01140
 H153 H -0.24468 0.55375 -0.11271
 H154 H -0.06663 0.75285 -0.06946
 H155 H 0.06407 0.75271 -0.08107
 H156 H 0.24184 0.42984 -0.03057
 H157 H -0.05717 0.51768 0.13001
 H158 H 0.23960 0.55238 -0.15494
 C159 C 0.53383 0.79123 0.54220
 C160 C 0.46569 0.79072 0.53589
 C161 C 0.44567 0.85673 0.54142
 N162 N 0.49892 0.89755 0.55074
 C163 C 0.55279 0.85755 0.55192
 C164 C 0.37939 0.87844 0.55332
 C165 C 0.36036 0.94502 0.52070
 C166 C 0.29866 0.97163 0.56004
 C167 C 0.29919 1.03637 0.49880
 C168 C 0.36158 1.04779 0.42384
 N169 N 0.39800 0.99131 0.43617
 C170 C 0.38172 1.10590 0.32903
 C171 C 0.44831 1.11491 0.27068
 C172 C 0.46940 1.15727 0.13401
 C173 C 0.53727 1.15687 0.13694
 C174 C 0.55667 1.11461 0.27693
 N175 N 0.50174 1.08903 0.35719
 C176 C 0.62201 1.10719 0.35006
 C177 C 0.63807 1.05071 0.45939
 C178 C 0.69696 1.03992 0.55506
 C179 C 0.69574 0.97517 0.61598
 C180 C 0.63665 0.94767 0.55677
 N181 N 0.60206 0.99356 0.46162
 C182 C 0.61820 0.88028 0.57834
 H183 H 0.56588 0.74801 0.53966
 H184 H 0.43431 0.74704 0.52712
 H185 H 0.56042 0.98343 0.38244
 H186 H 0.25698 0.94658 0.62234
 H187 H 0.25693 1.06940 0.50422
 H188 H 0.44027 1.18596 0.03937
 H189 H 0.56712 1.18545 0.04391
 H190 H 0.73489 0.95061 0.69087
 H191 H 0.44324 0.98253 0.37259
 H192 H 0.73873 1.07280 0.57495
   
