data_POSCAR
  _audit_creation_date              2014-09-24
  _audit_creation_method            'ToBaCCo'
  _symmetry_space_group_name_H-M    'P1'
  _symmetry_Int_Tables_number       1
  _symmetry_cell_setting            triclinic
  loop_
  _symmetry_equiv_pos_as_xyz
 x,y,z
_cell_length_a 17.2716
_cell_length_b 17.3340
_cell_length_c 12.0751
_cell_angle_alpha 89.902900
_cell_angle_beta 90.068800
_cell_angle_gamma 89.255300
loop_
  _atom_site_label
  _atom_site_type_symbol
  _atom_site_fract_x
  _atom_site_fract_y
  _atom_site_fract_z
C1 C -0.07053 0.29809 0.05620
 C2 C -0.07118 0.29262 -0.06200
 C3 C 0.00052 0.28997 -0.11799
 C4 C 0.07255 0.29058 -0.06369
 C5 C 0.07299 0.29764 0.05356
 C6 C 0.00187 0.30274 0.10993
 H7 H 0.00319 0.30614 0.19973
 H8 H 0.00031 0.28655 -0.20779
 C9 C 0.42558 0.79925 0.55919
 C10 C 0.42528 0.79941 0.44173
 C11 C 0.49644 0.80352 0.38602
 C12 C 0.56794 0.80000 0.44201
 C13 C 0.56821 0.79988 0.55963
 C14 C 0.49686 0.80319 0.61525
 H15 H 0.49692 0.80260 0.70514
 H16 H 0.49621 0.80330 0.29614
 C17 C 1.06944 0.70392 0.06147
 C18 C 1.06996 0.70155 -0.05634
 C19 C 0.99877 0.70005 -0.11319
 C20 C 0.92663 0.70397 -0.05908
 C21 C 0.92628 0.70227 0.05877
 C22 C 0.99741 0.70074 0.11563
 H23 H 0.99634 0.70104 0.20555
 H24 H 0.99975 0.69986 -0.20310
 C25 C 0.57465 0.20157 0.55656
 C26 C 0.57509 0.20221 0.43914
 C27 C 0.50390 0.19856 0.38312
 C28 C 0.43238 0.20157 0.43888
 C29 C 0.43217 0.20110 0.55659
 C30 C 0.50347 0.19751 0.61240
 H31 H 0.50352 0.19745 0.70229
 H32 H 0.50410 0.19937 0.29325
 C33 C 0.70609 -0.07020 0.06369
 C34 C 0.70027 -0.07080 -0.05410
 C35 C 0.69687 0.00014 -0.11104
 C36 C 0.70437 0.07130 -0.05691
 C37 C 0.70910 0.07213 0.06016
 C38 C 0.70765 0.00182 0.11764
 H39 H 0.71085 0.00344 0.20740
 H40 H 0.69458 -0.00027 -0.20089
 C41 C 0.20315 0.42802 0.55849
 C42 C 0.20293 0.42820 0.44087
 C43 C 0.19903 0.49940 0.38511
 C44 C 0.20204 0.57039 0.44103
 C45 C 0.20212 0.57027 0.55861
 C46 C 0.19936 0.49910 0.61441
 H47 H 0.19993 0.49903 0.70428
 H48 H 0.19931 0.49947 0.29523
 C49 C 0.29632 1.07209 0.05880
 C50 C 0.29711 1.07174 -0.05991
 C51 C 0.29745 0.99983 -0.11471
 C52 C 0.29268 0.92910 -0.05862
 C53 C 0.29174 0.92939 0.05850
 C54 C 0.29584 1.00021 0.11418
 H55 H 0.29514 0.99915 0.20409
 H56 H 0.29785 0.99882 -0.20463
 C57 C 0.79668 0.57158 0.56111
 C58 C 0.79692 0.57217 0.44357
 C59 C 0.80125 0.50151 0.38713
 C60 C 0.79842 0.43021 0.44235
 C61 C 0.79810 0.42944 0.56001
 C62 C 0.80085 0.50023 0.61643
 H63 H 0.80048 0.49977 0.70630
 H64 H 0.80111 0.50211 0.29724
 O65 O 0.20624 0.31435 0.10545
 O66 O 0.37093 0.25954 0.28387
 O67 O 0.30893 0.20401 0.10121
 O68 O 0.26464 0.36665 0.28924
 O69 O 0.18814 0.29475 0.39069
 O70 O 0.24268 0.13013 0.21319
 O71 O 0.29748 0.18985 0.39284
 O72 O 0.13491 0.23645 0.20564
 Cu73 Cu 0.29550 0.29347 0.18599
 Cu74 Cu 0.20807 0.20547 0.30972
 C75 C 0.14203 0.28228 0.12403
 C76 C 0.36301 0.21758 0.36938
 C77 C 0.28262 0.13807 0.12560
 C78 C 0.21930 0.35922 0.37130
 O79 O 0.81236 0.70547 0.39404
 O80 O 0.75798 0.87132 0.21900
 O81 O 0.70307 0.81028 0.39766
 O82 O 0.86440 0.76449 0.20931
 O83 O 0.79311 0.68607 0.11003
 O84 O 0.62892 0.74309 0.28644
 O85 O 0.69328 0.79801 0.10431
 O86 O 0.73436 0.63478 0.29319
 Cu87 Cu 0.79223 0.79516 0.31431
 Cu88 Cu 0.70424 0.70831 0.18957
 C89 C 0.78042 0.64147 0.37469
 C90 C 0.71923 0.86377 0.13025
 C91 C 0.63721 0.78389 0.37285
 C92 C 0.85723 0.71832 0.12828
 O93 O 0.87450 0.24448 0.21240
 O94 O 0.71027 0.18943 0.39084
 O95 O 0.77197 0.13491 0.20843
 O96 O 0.81444 0.29660 0.39473
 O97 O 0.74147 0.36981 0.28696
 O98 O 0.69225 0.20592 0.10728
 O99 O 0.63563 0.26470 0.28831
 O100 O 0.79765 0.31060 0.10153
 Cu101 Cu 0.80053 0.20875 0.31064
 Cu102 Cu 0.70929 0.29569 0.18696
 C103 C 0.86463 0.28441 0.12483
 C104 C 0.64432 0.21950 0.37046
 C105 C 0.72546 0.14171 0.12722
 C106 C 0.78412 0.36165 0.37222
 O107 O 0.12585 0.75852 0.21558
 O108 O 0.29057 0.81339 0.39241
 O109 O 0.22961 0.86744 0.20855
 O110 O 0.18768 0.70496 0.39561
 O111 O 0.25896 0.63171 0.28619
 O112 O 0.30924 0.79625 0.10816
 O113 O 0.36455 0.73740 0.29063
 O114 O 0.20201 0.69360 0.10284
 Cu115 Cu 0.20080 0.79384 0.31204
 Cu116 Cu 0.29118 0.70690 0.18795
 C117 C 0.13502 0.71888 0.12793
 C118 C 0.35617 0.78265 0.37259
 C119 C 0.27600 0.86043 0.12738
 C120 C 0.21687 0.63959 0.37184
 O121 O 0.63475 0.26236 0.70824
 O122 O 0.79657 0.30649 0.89557
 O123 O 0.73941 0.36819 0.71340
 O124 O 0.68850 0.20443 0.89243
 O125 O 0.76542 0.13132 0.79045
 O126 O 0.81186 0.29455 0.60613
 O127 O 0.87104 0.23712 0.78614
 O128 O 0.70848 0.18653 0.60570
 Cu129 Cu 0.70721 0.29313 0.81143
 Cu130 Cu 0.79685 0.20470 0.68792
 C131 C 0.64324 0.21758 0.62582
 C132 C 0.86273 0.27842 0.87230
 C133 C 0.78249 0.36010 0.62887
 C134 C 0.72002 0.13948 0.87260
 O135 O 0.36624 0.73821 0.71145
 O136 O 0.20423 0.68644 0.89328
 O137 O 0.26281 0.63134 0.71032
 O138 O 0.30784 0.79476 0.89390
 O139 O 0.23314 0.86819 0.78867
 O140 O 0.18561 0.70412 0.60797
 O141 O 0.12974 0.76225 0.79139
 O142 O 0.29084 0.81113 0.60654
 Cu143 Cu 0.29306 0.70519 0.81148
 Cu144 Cu 0.20205 0.79376 0.68919
 C145 C 0.35694 0.78214 0.62809
 C146 C 0.13870 0.71740 0.87386
 C147 C 0.21752 0.63921 0.62797
 C148 C 0.27714 0.86003 0.87236
 O149 O 0.13224 0.23588 0.78363
 O150 O 0.29788 0.18623 0.60406
 O151 O 0.24186 0.12985 0.78652
 O152 O 0.19128 0.29346 0.60392
 O153 O 0.26165 0.36607 0.71303
 O154 O 0.31252 0.20221 0.89503
 O155 O 0.36945 0.25945 0.71064
 O156 O 0.20434 0.30466 0.89504
 Cu157 Cu 0.20838 0.20378 0.68548
 Cu158 Cu 0.29453 0.29083 0.81218
 C159 C 0.13901 0.27669 0.87052
 C160 C 0.36256 0.21626 0.62618
 C161 C 0.28377 0.13722 0.87258
 C162 C 0.21933 0.35861 0.62763
 O163 O 0.70232 0.81481 0.61040
 O164 O 0.86890 0.75813 0.78599
 O165 O 0.80742 0.70602 0.60642
 O166 O 0.76247 0.86703 0.79533
 O167 O 0.68291 0.79653 0.89403
 O168 O 0.73906 0.63230 0.71681
 O169 O 0.79399 0.69466 0.90012
 O170 O 0.63055 0.73763 0.71089
 Cu171 Cu 0.79262 0.79443 0.69062
 Cu172 Cu 0.70435 0.70740 0.81444
 C173 C 0.63771 0.78337 0.62926
 C174 C 0.86059 0.71908 0.87435
 C175 C 0.78039 0.64050 0.63064
 C176 C 0.71576 0.86027 0.87602
   
