data_POSCAR
  _audit_creation_date              2014-09-24
  _audit_creation_method            'ToBaCCo'
  _symmetry_space_group_name_H-M    'P1'
  _symmetry_Int_Tables_number       1
  _symmetry_cell_setting            triclinic
  loop_
  _symmetry_equiv_pos_as_xyz
 x,y,z
_cell_length_a 35.3638
_cell_length_b 35.3638
_cell_length_c 35.3638
_cell_angle_alpha 89.999800
_cell_angle_beta 89.976600
_cell_angle_gamma 89.999400
loop_
  _atom_site_label
  _atom_site_type_symbol
  _atom_site_fract_x
  _atom_site_fract_y
  _atom_site_fract_z
Zn1 Zn 0.77991 0.72015 0.77992
 Zn2 Zn 0.77994 0.77999 0.72013
 Zn3 Zn 0.72012 0.72017 0.72011
 Zn4 Zn 0.72010 0.77997 0.77995
 O5 O 0.75002 0.75007 0.75003
 O6 O 0.82938 0.72790 0.77218
 O7 O 0.77221 0.77225 0.67065
 O8 O 0.72786 0.67071 0.72784
 O9 O 0.82940 0.77224 0.72787
 O10 O 0.77217 0.67068 0.77216
 O11 O 0.72788 0.72793 0.67065
 O12 O 0.67063 0.77222 0.77220
 O13 O 0.77218 0.82945 0.72788
 O14 O 0.67065 0.72792 0.72786
 O15 O 0.72784 0.82944 0.77221
 O16 O 0.72783 0.77221 0.82941
 O17 O 0.77215 0.72788 0.82939
 C18 C 0.84678 0.75006 0.75002
 C19 C 0.75005 0.75010 0.65327
 C20 C 0.75001 0.65331 0.75000
 C21 C 0.65326 0.75007 0.75004
 C22 C 0.75001 0.84683 0.75005
 C23 C 0.74998 0.75004 0.84679
 Zn24 Zn 0.22012 0.72016 0.72013
 Zn25 Zn 0.22010 0.77998 0.77993
 Zn26 Zn 0.27992 0.72017 0.77993
 Zn27 Zn 0.27993 0.77997 0.72011
 O28 O 0.25002 0.75007 0.75003
 O29 O 0.17065 0.72790 0.72788
 O30 O 0.22783 0.77224 0.82940
 O31 O 0.27218 0.67070 0.77220
 O32 O 0.17063 0.77224 0.77219
 O33 O 0.22787 0.67069 0.72788
 O34 O 0.27215 0.72792 0.82940
 O35 O 0.32940 0.77223 0.72785
 O36 O 0.22785 0.82945 0.77218
 O37 O 0.32939 0.72791 0.77218
 O38 O 0.27219 0.82944 0.72785
 O39 O 0.27220 0.77223 0.67064
 O40 O 0.22788 0.72790 0.67066
 C41 C 0.15326 0.75007 0.75004
 C42 C 0.24998 0.75008 0.84679
 C43 C 0.25002 0.65331 0.75004
 C44 C 0.34678 0.75007 0.75001
 C45 C 0.25002 0.84683 0.75002
 C46 C 0.25004 0.75006 0.65327
 Zn47 Zn 0.72011 0.22017 0.77995
 Zn48 Zn 0.77994 0.22016 0.72012
 Zn49 Zn 0.72012 0.27997 0.72012
 Zn50 Zn 0.77992 0.27999 0.77992
 O51 O 0.75002 0.25007 0.75003
 O52 O 0.72785 0.17070 0.77221
 O53 O 0.77220 0.22789 0.67065
 O54 O 0.67065 0.27223 0.72787
 O55 O 0.77219 0.17069 0.72788
 O56 O 0.67064 0.22792 0.77221
 O57 O 0.72787 0.27221 0.67065
 O58 O 0.77217 0.32946 0.77216
 O59 O 0.82940 0.22790 0.72786
 O60 O 0.72786 0.32944 0.72784
 O61 O 0.82939 0.27224 0.77217
 O62 O 0.77217 0.27225 0.82939
 O63 O 0.72785 0.22792 0.82941
 C64 C 0.75002 0.15331 0.75004
 C65 C 0.75003 0.25004 0.65327
 C66 C 0.65326 0.25007 0.75005
 C67 C 0.75001 0.34683 0.75000
 C68 C 0.84678 0.25007 0.75001
 C69 C 0.75001 0.25009 0.84678
 Zn70 Zn 0.27994 0.22017 0.72011
 Zn71 Zn 0.22011 0.22016 0.77994
 Zn72 Zn 0.27992 0.27997 0.77994
 Zn73 Zn 0.22012 0.27998 0.72013
 O74 O 0.25002 0.25007 0.75003
 O75 O 0.27219 0.17070 0.72785
 O76 O 0.22784 0.22789 0.82940
 O77 O 0.32939 0.27222 0.77219
 O78 O 0.22786 0.17069 0.77218
 O79 O 0.32940 0.22791 0.72785
 O80 O 0.27216 0.27222 0.82941
 O81 O 0.22787 0.32945 0.72788
 O82 O 0.17064 0.22790 0.77220
 O83 O 0.27218 0.32944 0.77220
 O84 O 0.17065 0.27224 0.72789
 O85 O 0.22787 0.27224 0.67066
 O86 O 0.27220 0.22792 0.67065
 C87 C 0.25003 0.15331 0.75001
 C88 C 0.24999 0.25005 0.84679
 C89 C 0.34678 0.25007 0.75002
 C90 C 0.25003 0.34683 0.75004
 C91 C 0.15326 0.25007 0.75005
 C92 C 0.25003 0.25008 0.65327
 Zn93 Zn 0.72003 0.72008 0.22013
 Zn94 Zn 0.77984 0.77989 0.22011
 Zn95 Zn 0.72002 0.77989 0.27995
 Zn96 Zn 0.77983 0.72007 0.27992
 O97 O 0.74993 0.74998 0.25003
 O98 O 0.72777 0.72784 0.17066
 O99 O 0.77211 0.82936 0.22787
 O100 O 0.67055 0.77215 0.27222
 O101 O 0.77210 0.77216 0.17065
 O102 O 0.67056 0.72782 0.22789
 O103 O 0.72777 0.82936 0.27221
 O104 O 0.77208 0.72781 0.32939
 O105 O 0.82931 0.77214 0.22784
 O106 O 0.72776 0.77214 0.32941
 O107 O 0.82930 0.72782 0.27217
 O108 O 0.77209 0.67060 0.27217
 O109 O 0.72777 0.67061 0.22786
 C110 C 0.74993 0.75000 0.15327
 C111 C 0.74994 0.84674 0.25004
 C112 C 0.65317 0.74999 0.25006
 C113 C 0.74992 0.74998 0.34678
 C114 C 0.84669 0.74998 0.25000
 C115 C 0.74994 0.65323 0.25001
 Zn116 Zn 0.27984 0.77989 0.22011
 Zn117 Zn 0.22002 0.72008 0.22013
 Zn118 Zn 0.27983 0.72007 0.27992
 Zn119 Zn 0.22002 0.77990 0.27995
 O120 O 0.24993 0.74999 0.25003
 O121 O 0.27210 0.77214 0.17064
 O122 O 0.22775 0.67061 0.22788
 O123 O 0.32930 0.72782 0.27216
 O124 O 0.22777 0.72783 0.17066
 O125 O 0.32931 0.77215 0.22784
 O126 O 0.27208 0.67061 0.27218
 O127 O 0.22777 0.77215 0.32941
 O128 O 0.17055 0.72784 0.22789
 O129 O 0.27209 0.72782 0.32939
 O130 O 0.17055 0.77215 0.27222
 O131 O 0.22776 0.82936 0.27219
 O132 O 0.27208 0.82936 0.22785
 C133 C 0.24993 0.74999 0.15327
 C134 C 0.24991 0.65323 0.25003
 C135 C 0.34669 0.74998 0.25000
 C136 C 0.24993 0.74999 0.34678
 C137 C 0.15317 0.75000 0.25006
 C138 C 0.24992 0.84674 0.25001
 Zn139 Zn 0.72002 0.27988 0.22013
 Zn140 Zn 0.77984 0.22007 0.22011
 Zn141 Zn 0.77984 0.27989 0.27992
 Zn142 Zn 0.72002 0.22008 0.27995
 O143 O 0.74993 0.24998 0.25003
 O144 O 0.72777 0.27213 0.17066
 O145 O 0.82930 0.22781 0.22784
 O146 O 0.77210 0.32936 0.27217
 O147 O 0.77209 0.22780 0.17064
 O148 O 0.72777 0.32935 0.22786
 O149 O 0.82930 0.27213 0.27216
 O150 O 0.72776 0.22783 0.32941
 O151 O 0.77209 0.17060 0.22787
 O152 O 0.77209 0.27215 0.32939
 O153 O 0.72777 0.17061 0.27222
 O154 O 0.67055 0.22781 0.27221
 O155 O 0.67055 0.27213 0.22788
 C156 C 0.74993 0.24997 0.15327
 C157 C 0.84669 0.24996 0.25000
 C158 C 0.74993 0.34674 0.25001
 C159 C 0.74992 0.24999 0.34678
 C160 C 0.74993 0.15322 0.25005
 C161 C 0.65317 0.24996 0.25005
 Zn162 Zn 0.22002 0.27989 0.22013
 Zn163 Zn 0.27984 0.22007 0.22011
 Zn164 Zn 0.27983 0.27989 0.27993
 Zn165 Zn 0.22002 0.22007 0.27995
 O166 O 0.24993 0.24998 0.25003
 O167 O 0.22777 0.27215 0.17066
 O168 O 0.32930 0.22781 0.22785
 O169 O 0.27208 0.32936 0.27219
 O170 O 0.27210 0.22782 0.17065
 O171 O 0.22776 0.32935 0.22788
 O172 O 0.32930 0.27214 0.27217
 O173 O 0.22775 0.22781 0.32941
 O174 O 0.27208 0.17061 0.22785
 O175 O 0.27208 0.27214 0.32940
 O176 O 0.22776 0.17060 0.27219
 O177 O 0.17055 0.22781 0.27221
 O178 O 0.17055 0.27213 0.22788
 C179 C 0.24993 0.24998 0.15327
 C180 C 0.34668 0.24997 0.25001
 C181 C 0.24991 0.34674 0.25004
 C182 C 0.24991 0.24998 0.34679
 C183 C 0.24991 0.15322 0.25001
 C184 C 0.15317 0.24996 0.25005
 C185 C 0.01262 0.78414 0.76103
 C186 C -0.01258 0.77661 0.72600
 C187 C -0.03717 0.75004 0.75003
 C188 C -0.01261 0.75757 0.78506
 C189 C 0.03721 0.75004 0.75005
 C190 C 0.01261 0.72348 0.77408
 C191 C 0.01265 0.74251 0.71502
 C192 C -0.01258 0.71594 0.73905
 C193 C -0.07859 0.75004 0.75002
 C194 C -0.11267 0.75005 0.75001
 C195 C 0.07863 0.75004 0.75005
 C196 C 0.11270 0.75006 0.75005
 H197 H 0.02344 0.81218 0.77007
 H198 H -0.02340 0.79845 0.70623
 H199 H -0.02346 0.76377 0.81386
 H200 H 0.02343 0.70163 0.79384
 H201 H 0.02350 0.73631 0.68621
 H202 H -0.02341 0.68790 0.73001
 C203 C 0.76230 0.01268 0.78370
 C204 C 0.72700 -0.01254 0.77756
 C205 C 0.74998 -0.03712 0.75006
 C206 C 0.78527 -0.01254 0.75621
 C207 C 0.74998 0.03726 0.75006
 C208 C 0.77296 0.01268 0.72257
 C209 C 0.71469 0.01268 0.74392
 C210 C 0.73767 -0.01254 0.71642
 C211 C 0.74998 -0.07854 0.75006
 C212 C 0.75000 -0.11262 0.75004
 C213 C 0.74999 0.07868 0.75006
 C214 C 0.75000 0.11276 0.75004
 H215 H 0.77242 0.02351 0.81136
 H216 H 0.70810 -0.02337 0.80017
 H217 H 0.81430 -0.02337 0.76126
 H218 H 0.79186 0.02351 0.69996
 H219 H 0.68567 0.02351 0.73886
 H220 H 0.72755 -0.02337 0.68876
 C221 C 0.78278 0.73568 0.01263
 C222 C 0.75395 0.71441 -0.01259
 C223 C 0.74995 0.75001 -0.03716
 C224 C 0.77877 0.77128 -0.01259
 C225 C 0.74994 0.75001 0.03722
 C226 C 0.74594 0.78561 0.01264
 C227 C 0.72112 0.72874 0.01265
 C228 C 0.71711 0.76434 -0.01257
 C229 C 0.74994 0.75001 -0.07858
 C230 C 0.74996 0.75001 -0.11266
 C231 C 0.74993 0.75000 0.07864
 C232 C 0.74993 0.75001 0.11271
 H233 H 0.80978 0.72389 0.02345
 H234 H 0.75725 0.68513 -0.02342
 H235 H 0.80248 0.78877 -0.02343
 H236 H 0.74264 0.81489 0.02347
 H237 H 0.69741 0.71125 0.02349
 H238 H 0.69011 0.77613 -0.02339
 C239 C 0.48739 0.73773 0.78367
 C240 C 0.51263 0.71475 0.75618
 C241 C 0.53721 0.75005 0.75004
 C242 C 0.51261 0.77302 0.77752
 C243 C 0.46283 0.75005 0.75002
 C244 C 0.48741 0.78534 0.74388
 C245 C 0.48743 0.72707 0.72254
 C246 C 0.51265 0.76237 0.71639
 C247 C 0.57863 0.75004 0.75005
 C248 C 0.61270 0.75006 0.75004
 C249 C 0.42141 0.75004 0.75001
 C250 C 0.38733 0.75006 0.75000
 H251 H 0.47654 0.72760 0.81133
 H252 H 0.52345 0.68573 0.76125
 H253 H 0.52343 0.79192 0.80013
 H254 H 0.47658 0.81437 0.73881
 H255 H 0.47661 0.70818 0.69993
 H256 H 0.52350 0.77250 0.68873
 C257 C 0.26236 0.01268 0.78363
 C258 C 0.22707 -0.01254 0.77749
 C259 C 0.25005 -0.03712 0.74999
 C260 C 0.28534 -0.01254 0.75614
 C261 C 0.25005 0.03726 0.74999
 C262 C 0.27303 0.01268 0.72250
 C263 C 0.21476 0.01268 0.74385
 C264 C 0.23774 -0.01254 0.71635
 C265 C 0.25004 -0.07854 0.74999
 C266 C 0.25002 -0.11262 0.75001
 C267 C 0.25004 0.07868 0.74999
 C268 C 0.25003 0.11276 0.75000
 H269 H 0.27249 0.02351 0.81129
 H270 H 0.20817 -0.02337 0.80010
 H271 H 0.31437 -0.02337 0.76119
 H272 H 0.29193 0.02351 0.69989
 H273 H 0.18574 0.02351 0.73880
 H274 H 0.22761 -0.02337 0.68869
 C275 C 0.28275 0.73572 0.01262
 C276 C 0.25393 0.71446 -0.01260
 C277 C 0.24992 0.75007 -0.03716
 C278 C 0.27875 0.77133 -0.01258
 C279 C 0.24991 0.75004 0.03722
 C280 C 0.24591 0.78565 0.01265
 C281 C 0.22109 0.72878 0.01264
 C282 C 0.21709 0.76439 -0.01257
 C283 C 0.24993 0.75006 -0.07859
 C284 C 0.24996 0.75006 -0.11266
 C285 C 0.24991 0.75002 0.07864
 C286 C 0.24992 0.74999 0.11271
 H287 H 0.30975 0.72393 0.02344
 H288 H 0.25722 0.68518 -0.02344
 H289 H 0.30246 0.78882 -0.02341
 H290 H 0.24261 0.81492 0.02350
 H291 H 0.19738 0.71128 0.02347
 H292 H 0.19009 0.77618 -0.02339
 C293 C 0.01262 0.28419 0.76102
 C294 C -0.01258 0.27666 0.72599
 C295 C -0.03717 0.25009 0.75002
 C296 C -0.01261 0.25762 0.78505
 C297 C 0.03721 0.25009 0.75004
 C298 C 0.01262 0.22352 0.77407
 C299 C 0.01265 0.24256 0.71501
 C300 C -0.01258 0.21599 0.73904
 C301 C -0.07859 0.25008 0.75001
 C302 C -0.11267 0.25007 0.75001
 C303 C 0.07863 0.25008 0.75005
 C304 C 0.11271 0.25007 0.75005
 H305 H 0.02344 0.31223 0.77006
 H306 H -0.02340 0.29850 0.70623
 H307 H -0.02346 0.26382 0.81386
 H308 H 0.02344 0.20168 0.79384
 H309 H 0.02350 0.23636 0.68621
 H310 H -0.02341 0.18795 0.73000
 C311 C 0.78522 0.48746 0.75654
 C312 C 0.77328 0.51268 0.72277
 C313 C 0.75000 0.53726 0.75000
 C314 C 0.76193 0.51268 0.78378
 C315 C 0.74999 0.46288 0.75000
 C316 C 0.72671 0.48746 0.77723
 C317 C 0.73806 0.48746 0.71623
 C318 C 0.71478 0.51268 0.74346
 C319 C 0.74999 0.57868 0.74999
 C320 C 0.75000 0.61276 0.74998
 C321 C 0.74999 0.42146 0.74999
 C322 C 0.75000 0.38739 0.74999
 H323 H 0.81418 0.47663 0.76193
 H324 H 0.79244 0.52351 0.70037
 H325 H 0.77174 0.52351 0.81155
 H326 H 0.70755 0.47663 0.79963
 H327 H 0.72825 0.47663 0.68845
 H328 H 0.68581 0.52351 0.73808
 C329 C 0.78280 0.23569 0.01262
 C330 C 0.75398 0.21444 -0.01261
 C331 C 0.74998 0.25006 -0.03716
 C332 C 0.77880 0.27131 -0.01257
 C333 C 0.74996 0.25000 0.03721
 C334 C 0.74596 0.28562 0.01266
 C335 C 0.72114 0.22875 0.01262
 C336 C 0.71714 0.26437 -0.01257
 C337 C 0.74999 0.25008 -0.07859
 C338 C 0.75000 0.25009 -0.11266
 C339 C 0.74993 0.24997 0.07864
 C340 C 0.74993 0.24996 0.11271
 H341 H 0.80980 0.22390 0.02344
 H342 H 0.75727 0.18517 -0.02346
 H343 H 0.80251 0.28881 -0.02339
 H344 H 0.74266 0.31489 0.02352
 H345 H 0.69742 0.21125 0.02344
 H346 H 0.69014 0.27617 -0.02339
 C347 C 0.48739 0.23777 0.78367
 C348 C 0.51262 0.21479 0.75618
 C349 C 0.53721 0.25008 0.75004
 C350 C 0.51262 0.27306 0.77752
 C351 C 0.46283 0.25009 0.75002
 C352 C 0.48742 0.28538 0.74387
 C353 C 0.48743 0.22711 0.72254
 C354 C 0.51265 0.26240 0.71639
 C355 C 0.57863 0.25006 0.75004
 C356 C 0.61271 0.25006 0.75005
 C357 C 0.42141 0.25008 0.75001
 C358 C 0.38733 0.25006 0.75001
 H359 H 0.47654 0.22764 0.81133
 H360 H 0.52345 0.18577 0.76125
 H361 H 0.52343 0.29195 0.80013
 H362 H 0.47659 0.31441 0.73881
 H363 H 0.47661 0.20822 0.69993
 H364 H 0.52350 0.27253 0.68873
 C365 C 0.28527 0.48746 0.75660
 C366 C 0.27334 0.51268 0.72282
 C367 C 0.25005 0.53726 0.75005
 C368 C 0.26198 0.51268 0.78383
 C369 C 0.25005 0.46288 0.75005
 C370 C 0.22676 0.48746 0.77728
 C371 C 0.23812 0.48746 0.71628
 C372 C 0.21483 0.51268 0.74351
 C373 C 0.25004 0.57868 0.75004
 C374 C 0.25002 0.61276 0.75004
 C375 C 0.25005 0.42146 0.75005
 C376 C 0.25004 0.38738 0.75003
 H377 H 0.31424 0.47663 0.76198
 H378 H 0.29249 0.52351 0.70042
 H379 H 0.27180 0.52352 0.81160
 H380 H 0.20761 0.47663 0.79968
 H381 H 0.22831 0.47663 0.68850
 H382 H 0.18587 0.52351 0.73813
 C383 C 0.28278 0.23566 0.01263
 C384 C 0.25396 0.21440 -0.01260
 C385 C 0.24996 0.25001 -0.03716
 C386 C 0.27878 0.27127 -0.01258
 C387 C 0.24995 0.24998 0.03722
 C388 C 0.24594 0.28559 0.01266
 C389 C 0.22112 0.22872 0.01264
 C390 C 0.21712 0.26433 -0.01257
 C391 C 0.24996 0.25003 -0.07858
 C392 C 0.24998 0.25004 -0.11266
 C393 C 0.24993 0.24996 0.07864
 C394 C 0.24992 0.24997 0.11272
 H395 H 0.30978 0.22387 0.02345
 H396 H 0.25726 0.18513 -0.02344
 H397 H 0.30249 0.28877 -0.02341
 H398 H 0.24265 0.31486 0.02350
 H399 H 0.19741 0.21122 0.02346
 H400 H 0.19012 0.27612 -0.02339
 C401 C 0.01252 0.78411 0.26103
 C402 C -0.01267 0.77657 0.22599
 C403 C -0.03726 0.75000 0.25002
 C404 C -0.01271 0.75754 0.28505
 C405 C 0.03712 0.75002 0.25005
 C406 C 0.01252 0.72345 0.27408
 C407 C 0.01257 0.74248 0.21502
 C408 C -0.01267 0.71591 0.23904
 C409 C -0.07868 0.74998 0.25000
 C410 C -0.11276 0.74997 0.24999
 C411 C 0.07854 0.75000 0.25007
 C412 C 0.11261 0.75000 0.25008
 H413 H 0.02334 0.81215 0.27007
 H414 H -0.02348 0.79842 0.20622
 H415 H -0.02357 0.76373 0.31385
 H416 H 0.02334 0.70160 0.29385
 H417 H 0.02343 0.73629 0.18622
 H418 H -0.02349 0.68787 0.23000
 C419 C 0.76228 0.01259 0.28373
 C420 C 0.72699 -0.01263 0.27758
 C421 C 0.74996 -0.03721 0.25009
 C422 C 0.78526 -0.01263 0.25623
 C423 C 0.74997 0.03717 0.25009
 C424 C 0.77295 0.01259 0.22259
 C425 C 0.71467 0.01259 0.24394
 C426 C 0.73765 -0.01263 0.21645
 C427 C 0.74995 -0.07863 0.25007
 C428 C 0.74995 -0.11270 0.25005
 C429 C 0.74996 0.07859 0.25008
 C430 C 0.74993 0.11267 0.25006
 H431 H 0.77240 0.02342 0.31139
 H432 H 0.70809 -0.02346 0.30019
 H433 H 0.81428 -0.02346 0.26129
 H434 H 0.79185 0.02342 0.19998
 H435 H 0.68565 0.02342 0.23889
 H436 H 0.72753 -0.02346 0.18879
 C437 C 0.78557 0.74574 0.48738
 C438 C 0.77154 0.77871 0.51259
 C439 C 0.75005 0.75008 0.53721
 C440 C 0.76408 0.71711 0.51264
 C441 C 0.74999 0.75003 0.46284
 C442 C 0.72850 0.72140 0.48746
 C443 C 0.73595 0.78300 0.48741
 C444 C 0.71446 0.75437 0.51267
 C445 C 0.75006 0.75011 0.57864
 C446 C 0.75006 0.75011 0.61271
 C447 C 0.74995 0.74999 0.42141
 C448 C 0.74993 0.74998 0.38734
 H449 H 0.81481 0.74220 0.47651
 H450 H 0.78923 0.80228 0.52338
 H451 H 0.77565 0.69002 0.52348
 H452 H 0.71080 0.69783 0.47667
 H453 H 0.72438 0.81009 0.47657
 H454 H 0.68522 0.75791 0.52354
 C455 C 0.48729 0.73769 0.28366
 C456 C 0.51253 0.71472 0.25619
 C457 C 0.53712 0.75001 0.25005
 C458 C 0.51251 0.77298 0.27752
 C459 C 0.46274 0.75001 0.25001
 C460 C 0.48732 0.78530 0.24387
 C461 C 0.48735 0.72704 0.22253
 C462 C 0.51257 0.76233 0.21640
 C463 C 0.57854 0.74999 0.25007
 C464 C 0.61262 0.74998 0.25007
 C465 C 0.42132 0.74998 0.24999
 C466 C 0.38724 0.74998 0.24998
 H467 H 0.47643 0.72756 0.31132
 H468 H 0.52336 0.68569 0.26125
 H469 H 0.52332 0.79188 0.30014
 H470 H 0.47649 0.81433 0.23881
 H471 H 0.47654 0.70814 0.19992
 H472 H 0.52343 0.77246 0.18873
 C473 C 0.26217 0.01259 0.28363
 C474 C 0.22688 -0.01263 0.27749
 C475 C 0.24986 -0.03721 0.24999
 C476 C 0.28515 -0.01263 0.25614
 C477 C 0.24986 0.03717 0.25000
 C478 C 0.27284 0.01259 0.22250
 C479 C 0.21457 0.01259 0.24385
 C480 C 0.23755 -0.01263 0.21636
 C481 C 0.24987 -0.07863 0.24999
 C482 C 0.24989 -0.11270 0.24999
 C483 C 0.24987 0.07859 0.24999
 C484 C 0.24989 0.11267 0.24999
 H485 H 0.27230 0.02342 0.31130
 H486 H 0.20798 -0.02346 0.30010
 H487 H 0.31418 -0.02346 0.26119
 H488 H 0.29174 0.02343 0.19989
 H489 H 0.18555 0.02342 0.23880
 H490 H 0.22742 -0.02346 0.18869
 C491 C 0.28556 0.74571 0.48738
 C492 C 0.27152 0.77867 0.51260
 C493 C 0.25003 0.75003 0.53721
 C494 C 0.26407 0.71707 0.51264
 C495 C 0.24998 0.75000 0.46284
 C496 C 0.22849 0.72136 0.48745
 C497 C 0.23594 0.78297 0.48742
 C498 C 0.21444 0.75433 0.51267
 C499 C 0.25004 0.75005 0.57864
 C500 C 0.25004 0.75006 0.61271
 C501 C 0.24995 0.74998 0.42141
 C502 C 0.24993 0.74999 0.38734
 H503 H 0.31480 0.74217 0.47652
 H504 H 0.28921 0.80224 0.52340
 H505 H 0.27564 0.68998 0.52347
 H506 H 0.21079 0.69780 0.47665
 H507 H 0.22437 0.81006 0.47659
 H508 H 0.18520 0.75787 0.52353
 C509 C 0.01253 0.28401 0.26103
 C510 C -0.01267 0.27648 0.22600
 C511 C -0.03726 0.24992 0.25003
 C512 C -0.01271 0.25745 0.28506
 C513 C 0.03711 0.24992 0.25005
 C514 C 0.01252 0.22335 0.27408
 C515 C 0.01256 0.24238 0.21502
 C516 C -0.01268 0.21582 0.23904
 C517 C -0.07869 0.24992 0.25001
 C518 C -0.11276 0.24995 0.25000
 C519 C 0.07854 0.24992 0.25005
 C520 C 0.11261 0.24994 0.25004
 H521 H 0.02335 0.31206 0.27007
 H522 H -0.02348 0.29833 0.20623
 H523 H -0.02356 0.26365 0.31386
 H524 H 0.02334 0.20150 0.29385
 H525 H 0.02341 0.23619 0.18621
 H526 H -0.02350 0.18778 0.23001
 C527 C 0.78520 0.48737 0.25652
 C528 C 0.77327 0.51259 0.22275
 C529 C 0.74998 0.53717 0.24998
 C530 C 0.76191 0.51259 0.28375
 C531 C 0.74998 0.46279 0.24998
 C532 C 0.72669 0.48737 0.27721
 C533 C 0.73804 0.48737 0.21620
 C534 C 0.71476 0.51259 0.24343
 C535 C 0.74997 0.57859 0.24998
 C536 C 0.74994 0.61267 0.25000
 C537 C 0.74996 0.42137 0.24998
 C538 C 0.74994 0.38729 0.25000
 H539 H 0.81416 0.47654 0.26190
 H540 H 0.79242 0.52342 0.20035
 H541 H 0.77172 0.52342 0.31153
 H542 H 0.70753 0.47654 0.29961
 H543 H 0.72823 0.47654 0.18843
 H544 H 0.68579 0.52343 0.23805
 C545 C 0.78555 0.24567 0.48739
 C546 C 0.77151 0.27863 0.51261
 C547 C 0.75001 0.24999 0.53721
 C548 C 0.76405 0.21703 0.51263
 C549 C 0.74998 0.24997 0.46284
 C550 C 0.72848 0.22133 0.48744
 C551 C 0.73593 0.28293 0.48742
 C552 C 0.71443 0.25429 0.51266
 C553 C 0.75001 0.25000 0.57864
 C554 C 0.75003 0.25002 0.61271
 C555 C 0.74996 0.24997 0.42141
 C556 C 0.74993 0.24998 0.38734
 H557 H 0.81480 0.24213 0.47653
 H558 H 0.78920 0.30220 0.52342
 H559 H 0.77562 0.18993 0.52346
 H560 H 0.71078 0.19777 0.47663
 H561 H 0.72437 0.31003 0.47659
 H562 H 0.68519 0.25783 0.52352
 C563 C 0.48730 0.23760 0.28367
 C564 C 0.51253 0.21462 0.25619
 C565 C 0.53712 0.24991 0.25004
 C566 C 0.51252 0.27289 0.27753
 C567 C 0.46274 0.24992 0.25003
 C568 C 0.48732 0.28521 0.24388
 C569 C 0.48733 0.22694 0.22255
 C570 C 0.51256 0.26223 0.21640
 C571 C 0.57854 0.24992 0.25005
 C572 C 0.61261 0.24994 0.25004
 C573 C 0.42131 0.24993 0.25002
 C574 C 0.38724 0.24995 0.25000
 H575 H 0.47645 0.22747 0.31134
 H576 H 0.52336 0.18560 0.26125
 H577 H 0.52334 0.29178 0.30014
 H578 H 0.47650 0.31423 0.23882
 H579 H 0.47652 0.20805 0.19994
 H580 H 0.52341 0.27236 0.18874
 C581 C 0.28509 0.48737 0.25661
 C582 C 0.27316 0.51259 0.22284
 C583 C 0.24987 0.53717 0.25007
 C584 C 0.26180 0.51259 0.28385
 C585 C 0.24987 0.46279 0.25007
 C586 C 0.22658 0.48737 0.27730
 C587 C 0.23794 0.48737 0.21630
 C588 C 0.21465 0.51259 0.24353
 C589 C 0.24988 0.57860 0.25006
 C590 C 0.24990 0.61267 0.25004
 C591 C 0.24988 0.42137 0.25006
 C592 C 0.24990 0.38730 0.25004
 H593 H 0.31406 0.47654 0.26200
 H594 H 0.29231 0.52342 0.20044
 H595 H 0.27162 0.52343 0.31162
 H596 H 0.20743 0.47654 0.29970
 H597 H 0.22813 0.47654 0.18852
 H598 H 0.18569 0.52343 0.23815
 C599 C 0.28553 0.24571 0.48739
 C600 C 0.27149 0.27867 0.51260
 C601 C 0.25000 0.25003 0.53722
 C602 C 0.26404 0.21707 0.51264
 C603 C 0.24995 0.25000 0.46284
 C604 C 0.22846 0.22136 0.48746
 C605 C 0.23591 0.28296 0.48742
 C606 C 0.21441 0.25432 0.51268
 C607 C 0.25002 0.25005 0.57864
 C608 C 0.25002 0.25007 0.61272
 C609 C 0.24992 0.24997 0.42142
 C610 C 0.24991 0.24997 0.38734
 H611 H 0.31477 0.24216 0.47653
 H612 H 0.28918 0.30224 0.52340
 H613 H 0.27561 0.18998 0.52348
 H614 H 0.21076 0.19779 0.47666
 H615 H 0.22434 0.31006 0.47659
 H616 H 0.18517 0.25787 0.52354
   
