data_POSCAR
  _audit_creation_date              2014-09-24
  _audit_creation_method            'ToBaCCo'
  _symmetry_space_group_name_H-M    'P1'
  _symmetry_Int_Tables_number       1
  _symmetry_cell_setting            triclinic
  loop_
  _symmetry_equiv_pos_as_xyz
 x,y,z
_cell_length_a 25.9828
_cell_length_b 22.1472
_cell_length_c 25.8232
_cell_angle_alpha 87.805400
_cell_angle_beta 88.084600
_cell_angle_gamma 93.539600
loop_
  _atom_site_label
  _atom_site_type_symbol
  _atom_site_fract_x
  _atom_site_fract_y
  _atom_site_fract_z
C1 C 0.31394 0.31245 0.24008
 H2 H 0.31708 0.31358 0.28171
 C3 C 0.34837 0.34847 0.20752
 H4 H 0.37815 0.37746 0.22393
 C5 C 0.27047 0.27459 0.16763
 H6 H 0.23962 0.24648 0.15224
 C7 C 0.30322 0.31087 0.13384
 H8 H 0.29765 0.30981 0.09252
 N9 N 0.27642 0.27585 0.21970
 C10 C 0.15731 0.31894 0.27719
 H11 H 0.15130 0.31317 0.23638
 C12 C 0.13078 0.36214 0.30372
 H13 H 0.10372 0.38904 0.28359
 C14 C 0.20106 0.29262 0.35310
 H15 H 0.22927 0.26646 0.37202
 C16 C 0.17636 0.33616 0.38064
 H17 H 0.18497 0.34211 0.42092
 Zn18 Zn 0.22966 0.22929 0.26515
 N19 N 0.19103 0.28450 0.30237
 C20 C 0.23623 0.14636 0.34771
 N21 N 0.26541 0.18052 0.31150
 C22 C 0.31759 0.17771 0.30790
 C23 C 0.34254 0.14104 0.34298
 C24 C 0.25960 0.10914 0.38349
 C25 C 0.13535 0.17651 0.22579
 C26 C 0.10731 0.13649 0.19507
 C27 C 0.18685 0.09277 0.16994
 C28 C 0.21335 0.13370 0.20078
 N29 N 0.18761 0.17533 0.22704
 H30 H 0.19474 0.14867 0.34901
 H31 H 0.33995 0.20345 0.27772
 H32 H 0.38411 0.13970 0.34010
 H33 H 0.23623 0.08278 0.41276
 H34 H 0.11534 0.20864 0.24809
 H35 H 0.06591 0.13872 0.19300
 H36 H 0.20824 0.06113 0.14823
 H37 H 0.25482 0.13323 0.20306
 C38 C 0.14073 0.37148 0.35580
 C39 C 0.34266 0.34841 0.15390
 C40 C 0.13320 0.09462 0.16634
 C41 C 0.31321 0.10667 0.38152
 C42 C 0.77768 0.89422 0.18782
 H43 H 0.75339 0.90832 0.21924
 C44 C 0.79440 0.93646 0.14839
 H45 H 0.78344 0.98278 0.15022
 C46 C 0.81757 0.81618 0.14422
 H47 H 0.82480 0.76874 0.14203
 C48 C 0.83492 0.85709 0.10369
 H49 H 0.85590 0.84116 0.07045
 N50 N 0.78869 0.83508 0.18479
 C51 C 0.66170 0.80596 0.28572
 H52 H 0.64167 0.77484 0.26104
 C53 C 0.63355 0.83606 0.32265
 H54 H 0.59196 0.82869 0.32577
 C55 C 0.74006 0.85240 0.31368
 H56 H 0.78169 0.85823 0.30995
 C57 C 0.71345 0.88325 0.35116
 H58 H 0.73481 0.91293 0.37625
 Zn59 Zn 0.75430 0.77634 0.23174
 N60 N 0.71395 0.81548 0.28128
 C61 C 0.77549 0.69091 0.30662
 N62 N 0.79976 0.72983 0.27038
 C63 C 0.85220 0.73608 0.26577
 C64 C 0.88224 0.70217 0.29890
 C65 C 0.80382 0.65650 0.34031
 C66 C 0.67336 0.74923 0.16494
 C67 C 0.64192 0.71308 0.13412
 C68 C 0.69207 0.62819 0.15645
 C69 C 0.72171 0.66551 0.18790
 N70 N 0.71183 0.72483 0.19172
 H71 H 0.73377 0.68730 0.30975
 H72 H 0.87068 0.76790 0.23713
 H73 H 0.92392 0.70771 0.29555
 H74 H 0.78348 0.62629 0.36910
 H75 H 0.66713 0.79688 0.16757
 H76 H 0.61131 0.73276 0.11305
 H77 H 0.70072 0.58124 0.15335
 H78 H 0.75327 0.64730 0.20835
 C79 C 0.65943 0.87535 0.35555
 C80 C 0.82228 0.91758 0.10538
 C81 C 0.65160 0.65214 0.12921
 C82 C 0.85797 0.66225 0.33696
 C83 C 0.84625 0.32014 0.70921
 H84 H 0.86609 0.29164 0.73580
 C85 C 0.87479 0.35950 0.67401
 H86 H 0.91654 0.36088 0.67329
 C87 C 0.76796 0.35341 0.67704
 H88 H 0.72622 0.35015 0.67820
 C89 C 0.79505 0.39315 0.64099
 H90 H 0.77397 0.42066 0.61455
 N91 N 0.79378 0.31673 0.70921
 C92 C 0.65927 0.29697 0.79522
 H93 H 0.64057 0.26934 0.76696
 C94 C 0.62924 0.32883 0.82932
 H95 H 0.58758 0.32482 0.82781
 C96 C 0.73599 0.33845 0.83070
 H97 H 0.77771 0.34234 0.83057
 C98 C 0.70748 0.37090 0.86556
 H99 H 0.72750 0.39962 0.89238
 Zn100 Zn 0.75401 0.25866 0.75213
 N101 N 0.71166 0.30134 0.79722
 C102 C 0.79859 0.20614 0.84244
 N103 N 0.79769 0.20885 0.78967
 C104 C 0.82835 0.17475 0.76051
 C105 C 0.86339 0.13823 0.78407
 C106 C 0.83335 0.17024 0.86765
 C107 C 0.67743 0.16699 0.73159
 C108 C 0.64915 0.12768 0.70055
 C109 C 0.70051 0.16825 0.62604
 C110 C 0.72678 0.20780 0.65813
 N111 N 0.71453 0.20706 0.70980
 H112 H 0.77298 0.23224 0.86507
 H113 H 0.82633 0.17710 0.71871
 H114 H 0.88877 0.11274 0.76034
 H115 H 0.83508 0.16970 0.90953
 H116 H 0.66969 0.16576 0.77305
 H117 H 0.61906 0.09659 0.71788
 H118 H 0.71065 0.16950 0.58499
 H119 H 0.75775 0.23812 0.64178
 C120 C 0.65334 0.36574 0.86521
 C121 C 0.84919 0.39553 0.63882
 C122 C 0.66102 0.12789 0.64733
 C123 C 0.86640 0.13654 0.83803
 C124 C 0.32871 0.82639 0.73771
 H125 H 0.33647 0.82113 0.77848
 C126 C 0.36018 0.86647 0.70556
 H127 H 0.39246 0.89202 0.72137
 C128 C 0.27749 0.79943 0.66688
 H129 H 0.24498 0.77377 0.65192
 C130 C 0.30710 0.83989 0.63378
 H131 H 0.29760 0.84413 0.59336
 N132 N 0.28945 0.79227 0.71753
 C133 C 0.17590 0.81407 0.79075
 H134 H 0.16987 0.81780 0.74953
 C135 C 0.14679 0.84689 0.82487
 H136 H 0.11794 0.87561 0.81004
 C137 C 0.22147 0.77325 0.86056
 H138 H 0.25125 0.74540 0.87429
 C139 C 0.19383 0.80619 0.89593
 H140 H 0.20198 0.80264 0.93674
 Zn141 Zn 0.25007 0.73427 0.76039
 N142 N 0.21164 0.77710 0.80908
 C143 C 0.26995 0.63967 0.82921
 N144 N 0.29354 0.68185 0.79530
 C145 C 0.34583 0.68646 0.78796
 C146 C 0.37665 0.65066 0.81821
 C147 C 0.29923 0.60300 0.86013
 C148 C 0.15410 0.68627 0.72156
 C149 C 0.12434 0.65611 0.68522
 C150 C 0.20267 0.62366 0.64497
 C151 C 0.23089 0.65441 0.68192
 N152 N 0.20652 0.68644 0.71825
 H153 H 0.22830 0.63616 0.83353
 H154 H 0.36392 0.71838 0.75931
 H155 H 0.41827 0.65597 0.81348
 H156 H 0.27974 0.57121 0.88825
 H157 H 0.13525 0.71057 0.75146
 H158 H 0.08275 0.65765 0.68704
 H159 H 0.22290 0.60008 0.61535
 H160 H 0.27258 0.65488 0.68045
 C161 C 0.15576 0.84318 0.87794
 C162 C 0.34955 0.87310 0.65302
 C163 C 0.14872 0.62552 0.64583
 C164 C 0.35337 0.60946 0.85551
 C165 C -0.06817 -0.02025 0.01991
 C166 C -0.02165 -0.00829 -0.00883
 C167 C -0.02126 0.02500 -0.05602
 C168 C -0.06636 0.04757 -0.07450
 C169 C -0.11304 0.03554 -0.04582
 C170 C -0.11428 0.00099 0.00106
 C171 C 0.02745 -0.02894 0.00989
 C172 C 0.05612 -0.06663 -0.02069
 C173 C 0.10639 -0.07962 -0.00769
 C174 C 0.12777 -0.05463 0.03637
 C175 C 0.10005 -0.01537 0.06640
 C176 C 0.04927 -0.00377 0.05369
 H177 H -0.06841 -0.04620 0.05634
 H178 H 0.01470 0.03453 -0.07818
 H179 H 0.03962 -0.08447 -0.05538
 H180 H 0.02797 0.02782 0.07561
 H181 H -0.14847 0.05224 -0.06000
 H182 H 0.16723 -0.06270 0.04544
 C183 C -0.05661 0.49761 0.52421
 C184 C -0.02716 0.52914 0.48426
 C185 C -0.05186 0.56141 0.44534
 C186 C -0.10607 0.56234 0.44697
 C187 C -0.13494 0.52994 0.48694
 C188 C -0.11062 0.49736 0.52554
 C189 C 0.02941 0.52693 0.48413
 C190 C 0.05472 0.49091 0.44898
 C191 C 0.10715 0.48056 0.45459
 C192 C 0.13424 0.50804 0.49424
 C193 C 0.10962 0.54453 0.52909
 C194 C 0.05696 0.55360 0.52416
 H195 H -0.03723 0.47247 0.55378
 H196 H -0.02907 0.58589 0.41454
 H197 H 0.03295 0.46824 0.41952
 H198 H 0.03706 0.58029 0.55185
 H199 H -0.17665 0.53006 0.48793
 H200 H 0.17452 0.49968 0.49882
 C201 C 0.45442 -0.03252 0.54097
 C202 C 0.48514 -0.00106 0.50186
 C203 C 0.46183 0.03052 0.46176
 C204 C 0.40810 0.03075 0.46050
 C205 C 0.37756 -0.00263 0.49875
 C206 C 0.40042 -0.03402 0.53894
 C207 C 0.54167 -0.00112 0.50249
 C208 C 0.56876 -0.03078 0.46418
 C209 C 0.62296 -0.02795 0.46279
 C210 C 0.64965 0.00608 0.49898
 C211 C 0.62291 0.03528 0.53764
 C212 C 0.56874 0.03089 0.53980
 H213 H 0.47249 -0.05730 0.57168
 H214 H 0.48549 0.05572 0.43196
 H215 H 0.54758 -0.05571 0.43558
 H216 H 0.54769 0.05448 0.56889
 H217 H 0.33587 -0.00401 0.49775
 H218 H 0.69146 0.00957 0.49724
 C219 C 0.44502 0.45246 0.04298
 C220 C 0.47327 0.48902 0.00493
 C221 C 0.44735 0.51789 -0.03503
 C222 C 0.39338 0.50986 -0.03701
 C223 C 0.36603 0.47190 -0.00005
 C224 C 0.39121 0.44341 0.04001
 C225 C 0.53006 0.49377 0.00497
 C226 C 0.55819 0.46086 -0.03033
 C227 C 0.61230 0.46283 -0.02950
 C228 C 0.63789 0.49785 0.00669
 C229 C 0.61043 0.53224 0.04106
 C230 C 0.55623 0.52998 0.04043
 H231 H 0.46498 0.42958 0.07343
 H232 H 0.46910 0.54641 -0.06411
 H233 H 0.53787 0.43339 -0.05788
 H234 H 0.53457 0.55572 0.06748
 H235 H 0.32447 0.46526 -0.00197
 H236 H 0.67963 0.49948 0.00732
 N237 N 0.12588 -0.12244 -0.08769
 N238 N 0.13746 -0.11434 -0.04082
 N239 N 0.11457 0.41654 0.38298
 N240 N 0.13281 0.43817 0.42399
 N241 N 0.63022 -0.09379 0.39310
 N242 N 0.65184 -0.05884 0.42500
 N243 N 0.62230 0.39764 -0.09948
 N244 N 0.64241 0.43026 -0.06506
 N245 N -0.09876 0.10854 -0.14105
 N246 N -0.06275 0.08231 -0.12256
 N247 N -0.11170 0.62935 0.37263
 N248 N -0.13338 0.59584 0.40930
 N249 N 0.33675 0.07003 0.41966
 N250 N 0.38535 0.06631 0.42097
 N251 N 0.38495 0.57721 -0.10993
 N252 N 0.36453 0.54104 -0.07458
 N253 N -0.16908 -0.04685 0.06657
 N254 N -0.16293 -0.01170 0.02834
 N255 N -0.12099 0.43191 0.60024
 N256 N -0.14140 0.46302 0.56481
 N257 N 0.38277 -0.08795 0.61934
 N258 N 0.36776 -0.06972 0.57540
 N259 N 0.37551 0.38824 0.12050
 N260 N 0.36075 0.40432 0.07589
 N261 N 0.10507 0.05770 0.13118
 N262 N 0.12651 0.01790 0.10510
 N263 N 0.11838 0.59867 0.60636
 N264 N 0.13887 0.57054 0.56968
 N265 N 0.63245 0.08767 0.61531
 N266 N 0.65154 0.07218 0.57216
 N267 N 0.62151 0.61615 0.09496
 N268 N 0.63892 0.56909 0.07582
   
