data_POSCAR
  _audit_creation_date              2014-09-24
  _audit_creation_method            'ToBaCCo'
  _symmetry_space_group_name_H-M    'P1'
  _symmetry_Int_Tables_number       1
  _symmetry_cell_setting            triclinic
  loop_
  _symmetry_equiv_pos_as_xyz
 x,y,z
_cell_length_a 14.6578
_cell_length_b 14.7570
_cell_length_c 15.8842
_cell_angle_alpha 90.013700
_cell_angle_beta 90.227900
_cell_angle_gamma 120.463400
loop_
  _atom_site_label
  _atom_site_type_symbol
  _atom_site_fract_x
  _atom_site_fract_y
  _atom_site_fract_z
O1 O 0.35825 0.50918 0.31928
 O2 O 0.18472 0.51198 0.34580
 C3 C 0.13701 0.56140 0.36145
 O4 O 0.14811 0.63859 0.31799
 O5 O 0.32567 0.81225 0.34551
 C6 C 0.42370 0.86049 0.36212
 O7 O 0.49081 0.84933 0.31991
 O8 O 0.48667 0.67349 0.34723
 C9 C 0.43663 0.57597 0.36271
 O10 O 0.32775 0.51352 0.15183
 O11 O 0.14880 0.50584 0.17825
 C12 C 0.13622 0.57098 0.13468
 O13 O 0.18368 0.66854 0.15054
 O14 O 0.35629 0.84700 0.17813
 C15 C 0.43562 0.86030 0.13599
 O16 O 0.48665 0.81435 0.15248
 O17 O 0.49228 0.64344 0.17979
 C18 C 0.42594 0.56477 0.13655
 Cr19 Cr 0.25761 0.51566 0.24878
 Cr20 Cr 0.25624 0.73887 0.24806
 Cr21 Cr 0.48353 0.74232 0.24982
 O22 O 0.33251 0.66567 0.24886
 O23 O 0.51270 0.32686 0.65201
 O24 O 0.50787 0.15061 0.67888
 C25 C 0.57481 0.13927 0.63661
 O26 O 0.67282 0.18724 0.65320
 O27 O 0.85067 0.36046 0.68088
 C28 C 0.86221 0.43805 0.63777
 O29 O 0.81492 0.48780 0.65372
 O30 O 0.64156 0.49097 0.68009
 C31 C 0.56306 0.42441 0.63663
 O32 O 0.50700 0.35638 0.81950
 O33 O 0.51208 0.18510 0.84639
 C34 C 0.56291 0.13891 0.86275
 O35 O 0.64218 0.15211 0.82057
 O36 O 0.81524 0.33015 0.84826
 C37 C 0.86268 0.42757 0.86429
 O38 O 0.85033 0.49324 0.82139
 O39 O 0.67158 0.48606 0.84759
 C40 C 0.57337 0.43494 0.86280
 Cr41 Cr 0.51551 0.25757 0.74924
 Cr42 Cr 0.74242 0.26022 0.75072
 Cr43 Cr 0.74185 0.48397 0.75070
 O44 O 0.66658 0.33389 0.75029
 C45 C 0.47645 0.07647 0.48806
 C46 C 0.54505 0.05264 0.42838
 C47 C 0.46299 -0.06521 0.43481
 C48 C 0.39382 -0.04239 0.49357
 C49 C 0.52190 -0.07666 0.51064
 C50 C 0.60453 0.04219 0.50512
 C51 C 0.53537 0.06502 0.56388
 C52 C 0.45331 -0.05283 0.57031
 H53 H 0.45832 0.14041 0.47965
 H54 H 0.58221 0.09524 0.36921
 H55 H 0.30673 -0.07781 0.48820
 H56 H 0.54004 -0.14060 0.51905
 H57 H 0.69162 0.07760 0.51048
 H58 H 0.41615 -0.09543 0.62948
 C59 C 1.05402 0.50867 0.57042
 C60 C 1.04084 0.43678 0.49473
 C61 C 1.06365 0.52749 0.43458
 C62 C 1.07782 0.59980 0.50935
 C63 C 0.94521 0.49084 0.42880
 C64 C 0.92141 0.39971 0.48986
 C65 C 0.93558 0.47202 0.56463
 C66 C 0.95839 0.56273 0.50448
 H67 H 1.09801 0.51583 0.62945
 H68 H 1.07533 0.38514 0.49007
 H69 H 1.14312 0.68251 0.51647
 H70 H 0.90122 0.48368 0.36976
 H71 H 0.85611 0.31700 0.48274
 H72 H 0.92389 0.61436 0.50915
 C73 C 0.49215 0.54469 0.57108
 C74 C 0.56367 0.60514 0.49550
 C75 C 0.47142 0.53676 0.43534
 C76 C 0.39947 0.47688 0.50999
 C77 C 0.50774 0.45595 0.42831
 C78 C 0.60042 0.52376 0.48939
 C79 C 0.52847 0.46387 0.56404
 C80 C 0.43622 0.39550 0.50388
 H81 H 0.48593 0.58059 0.63060
 H82 H 0.61587 0.69177 0.49142
 H83 H 0.31643 0.45818 0.51761
 H84 H 0.51397 0.42004 0.36879
 H85 H 0.68346 0.54245 0.48178
 H86 H 0.38401 0.30888 0.50794
 C87 C 0.59914 0.07815 1.01114
 C88 C 0.50528 0.05156 1.07051
 C89 C 0.47043 -0.06550 1.06357
 C90 C 0.56387 -0.03990 1.00512
 C91 C 0.39929 -0.07904 0.98754
 C92 C 0.43456 0.03902 0.99356
 C93 C 0.52800 0.06462 0.93511
 C94 C 0.49314 -0.05244 0.92818
 H95 H 0.68173 0.14378 1.02000
 H96 H 0.51009 0.09356 1.12984
 H97 H 0.61687 -0.07295 1.01050
 H98 H 0.31669 -0.14466 0.97870
 H99 H 0.38156 0.07207 0.98818
 H100 H 0.48834 -0.09444 0.86884
 C101 C 0.90506 0.43054 1.02876
 C102 C 1.00521 0.42182 1.03933
 C103 C 1.06519 0.53289 1.06527
 C104 C 0.97243 0.54585 1.05892
 C105 C 1.09977 0.57015 0.97901
 C106 C 1.03576 0.45547 0.94674
 C107 C 0.93745 0.46721 0.93708
 C108 C 1.00208 0.58278 0.96682
 H109 H 0.82467 0.37254 1.05155
 H110 H 1.00937 0.35745 1.07200
 H111 H 0.95005 0.58431 1.10824
 H112 H 1.18275 0.62885 0.96228
 H113 H 1.06450 0.41848 0.90128
 H114 H 1.00291 0.65181 0.93820
 C115 C 0.54566 0.57857 0.94373
 C116 C 0.42901 0.52586 0.97279
 C117 C 0.46583 0.53048 1.06427
 C118 C 0.58202 0.58371 1.03615
 C119 C 0.45367 0.42116 1.05562
 C120 C 0.41731 0.41602 0.96320
 C121 C 0.53351 0.46926 0.93508
 C122 C 0.57032 0.47388 1.02657
 H123 H 0.58378 0.64289 0.89690
 H124 H 0.37039 0.54762 0.95155
 H125 H 0.64957 0.65298 1.06683
 H126 H 0.41555 0.35685 1.10245
 H127 H 0.34976 0.34675 0.93253
 H128 H 0.62893 0.45211 1.04782
   
