data_POSCAR
  _audit_creation_date              2014-09-24
  _audit_creation_method            'ToBaCCo'
  _symmetry_space_group_name_H-M    'P1'
  _symmetry_Int_Tables_number       1
  _symmetry_cell_setting            triclinic
  loop_
  _symmetry_equiv_pos_as_xyz
 x,y,z
_cell_length_a 47.7815
_cell_length_b 43.4979
_cell_length_c 40.4145
_cell_angle_alpha 90.088600
_cell_angle_beta 90.025200
_cell_angle_gamma 89.908300
loop_
  _atom_site_label
  _atom_site_type_symbol
  _atom_site_fract_x
  _atom_site_fract_y
  _atom_site_fract_z
N1 N 0.19731 1.25487 0.16236
 N2 N 0.17860 1.25446 0.18625
 C3 C 0.15859 1.27546 0.17979
 C4 C 0.16536 1.28975 0.15045
 C5 C 0.18991 1.27622 0.13988
 H6 H 0.14004 1.27916 0.19462
 H7 H 0.20091 1.28068 0.11700
 Cu8 Cu 0.18090 1.22492 0.22206
 Cu9 Cu 0.22846 1.22591 0.16081
 Cu10 Cu 0.22724 1.16686 0.21823
 N11 N 0.17722 1.18890 0.24994
 N12 N 0.19547 1.16624 0.24848
 C13 C 0.18725 1.14357 0.26892
 C14 C 0.16265 1.15270 0.28383
 C15 C 0.15670 1.18144 0.27130
 H16 H 0.19779 1.12170 0.27178
 H17 H 0.13842 1.19537 0.27639
 N18 N 0.25747 1.17172 0.18546
 N19 N 0.25793 1.19421 0.16353
 C20 C 0.28006 1.19015 0.14331
 C21 C 0.29404 1.16401 0.15317
 C22 C 0.27928 1.15278 0.17978
 H23 H 0.28499 1.20435 0.12217
 H24 H 0.28349 1.13171 0.19306
 H25 H 0.20529 1.19176 0.18326
 H26 H 0.22995 1.21378 0.21028
 N27 N 0.80193 0.74531 0.16263
 N28 N 0.82050 0.74562 0.18667
 C29 C 0.84049 0.72458 0.18026
 C30 C 0.83391 0.71038 0.15076
 C31 C 0.80944 0.72399 0.14010
 H32 H 0.85894 0.72078 0.19523
 H33 H 0.79856 0.71959 0.11710
 Cu34 Cu 0.81816 0.77512 0.22258
 Cu35 Cu 0.77081 0.77433 0.16104
 Cu36 Cu 0.77210 0.83341 0.21862
 N37 N 0.82199 0.81121 0.25044
 N38 N 0.80387 0.83397 0.24891
 C39 C 0.81224 0.85670 0.26930
 C40 C 0.83679 0.84747 0.28425
 C41 C 0.84256 0.81863 0.27178
 H42 H 0.80183 0.87866 0.27208
 H43 H 0.86078 0.80461 0.27689
 N44 N 0.74187 0.82858 0.18581
 N45 N 0.74138 0.80609 0.16379
 C46 C 0.71925 0.81017 0.14357
 C47 C 0.70529 0.83633 0.15351
 C48 C 0.72006 0.84754 0.18017
 H49 H 0.71429 0.79596 0.12239
 H50 H 0.71588 0.86861 0.19352
 H51 H 0.79407 0.80835 0.18371
 H52 H 0.76922 0.78647 0.21054
 N53 N 0.80191 1.25462 -0.16224
 N54 N 0.82042 1.25438 -0.18633
 C55 C 0.84035 1.27541 -0.17992
 C56 C 0.83381 1.28953 -0.15036
 C57 C 0.80941 1.27588 -0.13967
 H58 H 0.85876 1.27925 -0.19492
 H59 H 0.79859 1.28022 -0.11662
 Cu60 Cu 0.81807 1.22497 -0.22233
 Cu61 Cu 0.77089 1.22558 -0.16065
 Cu62 Cu 0.77222 1.16663 -0.21837
 N63 N 0.82194 1.18894 -0.25029
 N64 N 0.80392 1.16615 -0.24875
 C65 C 0.81230 1.14347 -0.26922
 C66 C 0.83677 1.15276 -0.28424
 C67 C 0.84247 1.18158 -0.27173
 H68 H 0.80198 1.12150 -0.27201
 H69 H 0.86062 1.19563 -0.27686
 N70 N 0.74206 1.17137 -0.18546
 N71 N 0.74156 1.19382 -0.16339
 C72 C 0.71948 1.18972 -0.14315
 C73 C 0.70556 1.16359 -0.15313
 C74 C 0.72031 1.15242 -0.17984
 H75 H 0.71451 1.20390 -0.12195
 H76 H 0.71614 1.13139 -0.19325
 H77 H 0.79422 1.19163 -0.18348
 H78 H 0.76921 1.21354 -0.21017
 N79 N 0.19792 0.74546 -0.16231
 N80 N 0.17926 0.74576 -0.18625
 C81 C 0.15933 0.72477 -0.17976
 C82 C 0.16605 0.71061 -0.15031
 C83 C 0.19054 0.72420 -0.13977
 H84 H 0.14084 0.72094 -0.19465
 H85 H 0.20154 0.71979 -0.11686
 Cu86 Cu 0.18151 0.77513 -0.22222
 Cu87 Cu 0.22905 0.77438 -0.16087
 Cu88 Cu 0.22778 0.83310 -0.21867
 N89 N 0.17776 0.81105 -0.25026
 N90 N 0.19599 0.83366 -0.24891
 C91 C 0.18770 0.85630 -0.26941
 C92 C 0.16307 0.84718 -0.28423
 C93 C 0.15718 0.81850 -0.27158
 H94 H 0.19820 0.87814 -0.27235
 H95 H 0.13888 0.80462 -0.27656
 N96 N 0.25802 0.82833 -0.18586
 N97 N 0.25849 0.80598 -0.16375
 C98 C 0.28061 0.81011 -0.14354
 C99 C 0.29459 0.83615 -0.15358
 C100 C 0.27982 0.84724 -0.18029
 H101 H 0.28556 0.79603 -0.12229
 H102 H 0.28401 0.86822 -0.19371
 H103 H 0.20583 0.80843 -0.18359
 H104 H 0.23054 0.78620 -0.21042
 C105 C 0.46981 0.97750 -0.01770
 C106 C 0.48449 1.00031 -0.00029
 C107 C 0.46970 1.02315 0.01702
 C108 C 0.44039 1.02297 0.01718
 C109 C 0.42587 1.00035 -0.00047
 C110 C 0.44050 0.97772 -0.01803
 C111 C 0.51529 1.00028 -0.00018
 C112 C 0.53006 1.02301 -0.01753
 C113 C 0.55937 1.02276 -0.01767
 C114 C 0.57392 1.00018 0.00002
 C115 C 0.55930 0.97766 0.01762
 C116 C 0.52999 0.97750 0.01728
 H117 H 0.48117 0.95994 -0.03125
 H118 H 0.48099 1.04069 0.03066
 H119 H 0.51876 1.04051 -0.03119
 H120 H 0.51864 0.96003 0.03086
 H121 H 0.40316 1.00036 -0.00052
 H122 H 0.59662 1.00014 0.00010
 C123 C -0.02100 0.46654 0.98443
 C124 C 0.00069 0.48269 1.00017
 C125 C 0.02236 0.46640 1.01578
 C126 C 0.02217 0.43420 1.01597
 C127 C 0.00068 0.41823 0.99990
 C128 C -0.02082 0.43435 0.98398
 C129 C 0.00068 0.51656 1.00033
 C130 C -0.02099 0.53278 1.01607
 C131 C -0.02081 0.56497 1.01653
 C132 C 0.00068 0.58102 1.00061
 C133 C 0.02216 0.56497 0.98454
 C134 C 0.02235 0.53278 0.98471
 H135 H -0.03768 0.47903 0.97215
 H136 H 0.03902 0.47877 1.02821
 H137 H -0.03765 0.52035 1.02837
 H138 H 0.03900 0.52035 0.97228
 H139 H 0.00066 0.39329 0.99982
 H140 H 0.00067 0.60596 1.00070
 C141 C 0.97966 -0.01631 0.46423
 C142 C 1.00023 0.00004 0.48164
 C143 C 1.02082 0.01632 0.46423
 C144 C 1.02067 0.01649 0.42958
 C145 C 1.00026 -0.00012 0.41228
 C146 C 0.97984 -0.01665 0.42957
 C147 C 1.00023 0.00012 0.51804
 C148 C 1.02083 -0.01622 0.53546
 C149 C 1.02067 -0.01639 0.57012
 C150 C 1.00026 0.00027 0.58740
 C151 C 0.97983 0.01686 0.57009
 C152 C 0.97965 0.01654 0.53543
 H153 H 0.96382 -0.02904 0.47764
 H154 H 1.03664 0.02912 0.47766
 H155 H 1.03666 -0.02906 0.52206
 H156 H 0.96381 0.02931 0.52200
 H157 H 1.00026 -0.00018 0.38544
 H158 H 1.00026 0.00032 0.61424
 C159 C 0.11674 0.34805 1.09994
 N160 N 0.10141 0.36976 1.11588
 N161 N 0.08380 0.38771 1.09909
 C162 C 0.08100 0.38450 1.06586
 N163 N 0.09637 0.36283 1.04992
 N164 N 0.11398 0.34488 1.06671
 C165 C 0.13467 0.32772 1.11819
 C166 C 0.14929 0.31012 1.13343
 C167 C 0.06096 0.40268 1.04807
 C168 C 0.04358 0.41737 1.03331
 C169 C -0.11618 0.65086 1.09976
 N170 N -0.10086 0.62928 1.11586
 N171 N -0.08305 0.61138 1.09928
 C172 C -0.08002 0.61452 1.06608
 N173 N -0.09538 0.63606 1.04997
 N174 N -0.11319 0.65395 1.06656
 C175 C -0.13431 0.67116 1.11780
 C176 C -0.14907 0.68877 1.13289
 C177 C -0.05979 0.59638 1.04849
 C178 C -0.04230 0.58174 1.03383
 C179 C -0.11628 0.34884 0.90074
 N180 N -0.10123 0.37063 0.88471
 N181 N -0.08340 0.38845 0.90131
 C182 C -0.08009 0.38502 0.93444
 N183 N -0.09517 0.36327 0.95047
 N184 N -0.11300 0.34545 0.93387
 C185 C -0.13442 0.32861 0.88267
 C186 C -0.14918 0.31108 0.86754
 C187 C -0.05984 0.40308 0.95202
 C188 C -0.04233 0.41766 0.96668
 C189 C 0.11673 0.65095 0.90088
 N190 N 0.10103 0.62972 0.88477
 N191 N 0.08343 0.61177 0.90148
 C192 C 0.08101 0.61451 0.93479
 N193 N 0.09675 0.63570 0.95090
 N194 N 0.11435 0.65364 0.93420
 C195 C 0.13463 0.67132 0.88275
 C196 C 0.14921 0.68897 0.86759
 C197 C 0.06096 0.59638 0.95252
 C198 C 0.04357 0.58173 0.96724
 C199 C 1.11295 0.10175 0.34138
 N200 N 1.09668 0.11504 0.36490
 N201 N 1.07918 0.09807 0.38287
 C202 C 1.07741 0.06729 0.37786
 N203 N 1.09370 0.05399 0.35437
 N204 N 1.11121 0.07097 0.33640
 C205 C 1.13111 0.12014 0.32125
 C206 C 1.14607 0.13551 0.30389
 C207 C 1.05787 0.04920 0.39642
 C208 C 1.04110 0.03417 0.41169
 C209 C 1.11312 -0.10182 0.65835
 N210 N 1.09692 -0.11508 0.63476
 N211 N 1.07936 -0.09808 0.61681
 C212 C 1.07748 -0.06731 0.62189
 N213 N 1.09371 -0.05405 0.64545
 N214 N 1.11127 -0.07105 0.66340
 C215 C 1.13136 -0.12024 0.67843
 C216 C 1.14640 -0.13562 0.69575
 C217 C 1.05790 -0.04918 0.60332
 C218 C 1.04112 -0.03412 0.58803
 C219 C 0.88701 -0.10171 0.34152
 N220 N 0.90323 -0.11504 0.36504
 N221 N 0.92090 -0.09813 0.38294
 C222 C 0.92289 -0.06740 0.37785
 N223 N 0.90664 -0.05407 0.35436
 N224 N 0.88897 -0.07097 0.33647
 C225 C 0.86865 -0.12003 0.32150
 C226 C 0.85353 -0.13536 0.30422
 C227 C 0.94254 -0.04936 0.39640
 C228 C 0.95937 -0.03435 0.41167
 C229 C 0.88697 0.10200 0.65828
 N230 N 0.90301 0.11531 0.63463
 N231 N 0.92068 0.09840 0.61668
 C232 C 0.92284 0.06768 0.62184
 N233 N 0.90678 0.05437 0.64546
 N234 N 0.88911 0.07128 0.66340
 C235 C 0.86862 0.12032 0.67837
 C236 C 0.85350 0.13563 0.69571
 C237 C 0.94251 0.04964 0.60325
 C238 C 0.95935 0.03461 0.58797
 C239 C 0.35610 1.11874 0.10397
 N240 N 0.35860 1.12182 0.07072
 N241 N 0.37680 1.10458 0.05392
 C242 C 0.39306 1.08376 0.06987
 N243 N 0.39063 1.08075 0.10314
 N244 N 0.37243 1.09798 0.11994
 C245 C 0.33502 1.13558 0.12165
 C246 C 0.31665 1.14895 0.13621
 C247 C 0.41088 1.06340 0.05147
 C248 C 0.42489 1.04543 0.03588
 C249 C 0.64356 1.11828 -0.10425
 N250 N 0.62774 1.09706 -0.12021
 N251 N 0.60955 1.07984 -0.10349
 C252 C 0.60663 1.08334 -0.07032
 N253 N 0.62238 1.10463 -0.05438
 N254 N 0.64056 1.12186 -0.07110
 C255 C 0.66463 1.13514 -0.12180
 C256 C 0.68298 1.14852 -0.13626
 C257 C 0.58884 1.06304 -0.05195
 C258 C 0.57485 1.04513 -0.03638
 C259 C 0.35656 0.88169 -0.10470
 N260 N 0.35965 0.87815 -0.07157
 N261 N 0.37779 0.89547 -0.05484
 C262 C 0.39342 0.91684 -0.07076
 N263 N 0.39040 0.92031 -0.10391
 N264 N 0.37225 0.90299 -0.12064
 C265 C 0.33551 0.86474 -0.12225
 C266 C 0.31717 0.85128 -0.13670
 C267 C 0.41116 0.93724 -0.05237
 C268 C 0.42509 0.95524 -0.03677
 C269 C 0.64327 0.88180 0.10452
 N270 N 0.64014 0.87806 0.07141
 N271 N 0.62199 0.89535 0.05464
 C272 C 0.60640 0.91689 0.07049
 N273 N 0.60946 0.92056 0.10363
 N274 N 0.62761 0.90327 0.12039
 C275 C 0.66434 0.86487 0.12210
 C276 C 0.68269 0.85143 0.13660
 C277 C 0.58866 0.93726 0.05204
 C278 C 0.57472 0.95522 0.03640
   
