data_POSCAR
  _audit_creation_date              2014-09-24
  _audit_creation_method            'ToBaCCo'
  _symmetry_space_group_name_H-M    'P1'
  _symmetry_Int_Tables_number       1
  _symmetry_cell_setting            triclinic
  loop_
  _symmetry_equiv_pos_as_xyz
 x,y,z
_cell_length_a 23.2614
_cell_length_b 26.8671
_cell_length_c 26.5432
_cell_angle_alpha 90.330300
_cell_angle_beta 86.804600
_cell_angle_gamma 87.075600
loop_
  _atom_site_label
  _atom_site_type_symbol
  _atom_site_fract_x
  _atom_site_fract_y
  _atom_site_fract_z
C1 C 0.18217 1.23499 0.22010
 N2 N 0.16155 1.22367 0.26733
 C3 C 0.16165 1.17566 0.28289
 N4 N 0.18494 1.13900 0.25161
 C5 C 0.20798 1.15001 0.20515
 N6 N 0.20555 1.19798 0.18898
 C7 C 0.82101 0.74037 0.19865
 N8 N 0.78437 0.74975 0.16134
 C9 C 0.74549 0.78914 0.16508
 N10 N 0.74312 0.81918 0.20649
 C11 C 0.77948 0.81027 0.24406
 N12 N 0.81864 0.77092 0.23984
 C13 C 0.83708 1.29134 -0.19174
 N14 N 0.83919 1.27282 -0.23948
 C15 C 0.81475 1.22945 -0.24992
 N16 N 0.78554 1.20547 -0.21239
 C17 C 0.78075 1.22495 -0.16482
 N18 N 0.80765 1.26730 -0.15437
 C19 C 0.22358 0.74581 -0.20178
 N20 N 0.17969 0.75253 -0.23313
 C21 C 0.17604 0.79366 -0.26265
 N22 N 0.21633 0.82845 -0.26012
 C23 C 0.26006 0.82204 -0.22860
 N24 N 0.26344 0.78070 -0.19957
 C25 C 0.59239 1.04248 -0.08567
 H26 H 0.59400 1.00618 -0.10370
 C27 C 0.63378 1.07652 -0.09942
 H28 H 0.66685 1.06622 -0.12844
 C29 C 0.54893 1.09875 -0.02406
 H30 H 0.51676 1.10675 0.00622
 C31 C 0.58983 1.13368 -0.03624
 H32 H 0.58744 1.16889 -0.01605
 N33 N 0.55096 1.05413 -0.04872
 C34 C 0.43682 1.00181 0.06570
 H35 H 0.46481 0.96975 0.07327
 C36 C 0.39103 1.01520 0.10001
 H37 H 0.38561 0.99408 0.13439
 C38 C 0.40854 1.06684 0.01096
 H39 H 0.41488 1.08586 -0.02458
 C40 C 0.36253 1.08200 0.04469
 H41 H 0.33379 1.11306 0.03512
 Zn42 Zn 0.50177 1.00361 -0.02710
 N43 N 0.44476 1.02756 0.02213
 C44 C 0.57911 0.96528 0.04090
 N45 N 0.54892 0.95262 0.00078
 C46 C 0.55312 0.90550 -0.01856
 C47 C 0.58733 0.86849 0.00373
 C48 C 0.61374 0.92949 0.06435
 C49 C 0.42519 0.94157 -0.06555
 C50 C 0.39230 0.91901 -0.10046
 C51 C 0.43276 0.97200 -0.16509
 C52 C 0.46555 0.99339 -0.12873
 N53 N 0.46151 0.97744 -0.08015
 H54 H 0.57566 1.00324 0.05500
 H55 H 0.52999 0.89638 -0.05126
 H56 H 0.58902 0.83109 -0.01175
 H57 H 0.63725 0.94062 0.09623
 H58 H 0.42202 0.93036 -0.02645
 H59 H 0.36355 0.89075 -0.08755
 H60 H 0.43661 0.98470 -0.20369
 H61 H 0.49375 1.02279 -0.13928
 C62 C 0.35296 1.05550 0.08952
 C63 C 0.63325 1.12258 -0.07410
 C64 C 0.39590 0.93400 -0.15103
 C65 C 0.61792 0.88020 0.04601
 C66 C 0.04194 0.57023 1.08638
 H67 H 0.08825 0.57031 1.08228
 C68 C 0.01264 0.60211 1.12172
 H69 H 0.03703 0.62538 1.14520
 C70 C -0.04607 0.54356 1.05768
 H71 H -0.06893 0.52142 1.03214
 C72 C -0.07727 0.57599 1.09186
 H73 H -0.12393 0.57799 1.09277
 N74 N 0.01265 0.54066 1.05607
 C75 C 0.09355 0.40117 1.04226
 H76 H 0.06551 0.38842 1.01435
 C77 C 0.11774 0.36679 1.07549
 H78 H 0.10739 0.32803 1.07322
 C79 C 0.13902 0.46703 1.08106
 H80 H 0.14831 0.50582 1.08281
 C81 C 0.16295 0.43423 1.11563
 H82 H 0.18913 0.44843 1.14443
 Zn83 Zn 0.05849 0.49846 1.00991
 N84 N 0.10256 0.45066 1.04691
 C85 C 0.16480 0.53315 0.96630
 N86 N 0.10654 0.54070 0.97202
 C87 C 0.07865 0.57973 0.94986
 C88 C 0.10926 0.61285 0.91996
 C89 C 0.19732 0.56583 0.93696
 C90 C -0.03192 0.43695 0.98101
 C91 C -0.06446 0.41253 0.94647
 C92 C -0.00515 0.44604 0.87869
 C93 C 0.02589 0.46979 0.91429
 N94 N 0.01207 0.46532 0.96443
 H95 H 0.18596 0.50164 0.98404
 H96 H 0.03227 0.58481 0.95522
 H97 H 0.08600 0.64378 0.90304
 H98 H 0.24359 0.55912 0.93239
 H99 H -0.04152 0.43297 1.02108
 H100 H -0.09931 0.39040 0.96060
 H101 H 0.00828 0.44993 0.83938
 H102 H 0.06196 0.49104 0.90152
 C103 C 0.15086 0.38377 1.11402
 C104 C -0.04766 0.60520 1.12482
 C105 C -0.05121 0.41690 0.89435
 C106 C 0.16941 0.60618 0.91318
 C107 C 1.02148 -0.04788 0.58587
 H108 H 1.03127 -0.00906 0.58487
 C109 C 1.05076 -0.08019 0.61780
 H110 H 1.08260 -0.06541 0.64117
 C111 C 0.96688 -0.11354 0.55767
 H112 H 0.93368 -0.12633 0.53460
 C113 C 0.99514 -0.14718 0.58907
 H114 H 0.98384 -0.18572 0.58884
 N115 N 0.98063 -0.06494 0.55637
 C116 C 1.01024 0.01026 0.42606
 H117 H 0.99234 -0.02018 0.40668
 C118 C 1.04447 0.04292 0.39851
 H119 H 1.05233 0.03690 0.35831
 C120 C 1.01878 0.05727 0.50077
 H121 H 1.00715 0.06370 0.54036
 C122 C 1.05239 0.09121 0.47454
 H123 H 1.06740 0.12284 0.49455
 Zn124 Zn 0.94249 -0.01932 0.51344
 N125 N 0.99759 0.01811 0.47627
 C126 C 0.87617 0.06913 0.52814
 N127 N 0.89591 0.02792 0.55261
 C128 C 0.88939 0.02440 0.60370
 C129 C 0.86525 0.06481 0.63248
 C130 C 0.85233 0.11040 0.55538
 C131 C 0.92254 -0.08995 0.43777
 C132 C 0.89154 -0.11228 0.40094
 C133 C 0.80739 -0.06152 0.42982
 C134 C 0.84002 -0.04015 0.46605
 N135 N 0.89695 -0.05358 0.46849
 H136 H 0.88227 0.07103 0.48751
 H137 H 0.90569 -0.00865 0.62234
 H138 H 0.86352 0.06250 0.67323
 H139 H 0.83942 0.14374 0.53531
 H140 H 0.96767 -0.10061 0.44093
 H141 H 0.91361 -0.13965 0.37573
 H142 H 0.76242 -0.04960 0.42825
 H143 H 0.81999 -0.01201 0.49145
 C144 C 1.06477 0.08470 0.42258
 C145 C 1.03782 -0.13067 0.61970
 C146 C 0.83346 -0.09722 0.39578
 C147 C 0.84856 0.10917 0.60827
 N148 N 0.15727 0.36555 1.20495
 N149 N 0.16360 0.32334 1.23475
 C150 C 0.17729 0.28416 1.20372
 C151 C 0.17977 0.30012 1.15391
 C152 C 0.16589 0.35110 1.15633
 H153 H 0.18615 0.27712 1.12025
 H154 H 0.14250 0.40077 1.21844
 H155 H 0.15668 0.32291 1.27396
 N156 N -0.05935 0.65330 1.20585
 N157 N -0.09649 0.69138 1.22653
 C158 C -0.13731 0.70125 1.19341
 C159 C -0.12818 0.66939 1.15197
 C160 C -0.07876 0.64045 1.16091
 H161 H -0.15221 0.66941 1.11818
 H162 H -0.02242 0.63887 1.22236
 H163 H -0.09097 0.71000 1.26044
 N164 N -0.07604 0.39643 0.80605
 N165 N -0.10676 0.36079 0.78232
 C166 C -0.13271 0.33348 0.81843
 C167 C -0.11975 0.35107 0.86566
 C168 C -0.08306 0.38991 0.85639
 H169 H -0.13210 0.33514 0.90176
 H170 H -0.05142 0.42230 0.78669
 H171 H -0.10730 0.35594 0.74328
 N172 N 0.25774 0.65220 0.88896
 N173 N 0.27183 0.68920 0.85884
 C174 C 0.22611 0.70280 0.83215
 C175 C 0.18094 0.67328 0.84580
 C176 C 0.20251 0.64184 0.88239
 H177 H 0.13779 0.67591 0.83246
 H178 H 0.28496 0.63605 0.91498
 H179 H 0.31166 0.70556 0.85769
 N180 N 1.08906 0.17246 0.40438
 N181 N 1.11507 0.19809 0.36441
 C182 C 1.13626 0.16403 0.32988
 C183 C 1.12470 0.11655 0.34677
 C184 C 1.09437 0.12338 0.39309
 H185 H 1.13432 0.08171 0.32661
 H186 H 1.06563 0.18943 0.43508
 H187 H 1.11552 0.23684 0.36177
 N188 N 1.04882 -0.20988 0.66884
 N189 N 1.08771 -0.23084 0.70188
 C190 C 1.13008 -0.19899 0.70613
 C191 C 1.11956 -0.15765 0.67627
 C192 C 1.06821 -0.16558 0.65368
 H193 H 1.14586 -0.12570 0.67204
 H194 H 1.01060 -0.22571 0.65987
 H195 H 1.08318 -0.26478 0.72031
 N196 N 0.75463 -0.09221 0.33524
 N197 N 0.74024 -0.11785 0.29230
 C198 C 0.77809 -0.15724 0.28537
 C199 C 0.81676 -0.15794 0.32343
 C200 C 0.80117 -0.11631 0.35363
 H201 H 0.85299 -0.18428 0.32726
 H202 H 0.73464 -0.05837 0.34775
 H203 H 0.70707 -0.10667 0.26924
 N204 N 0.85212 0.20056 0.62123
 N205 N 0.84458 0.23392 0.66167
 C206 C 0.82223 0.20919 0.70154
 C207 C 0.81474 0.16005 0.68765
 C208 C 0.83517 0.15586 0.63739
 H209 H 0.80102 0.13028 0.71211
 H210 H 0.87335 0.20836 0.58670
 H211 H 0.85711 0.27071 0.66088
 N212 N 0.27834 1.03688 0.15724
 N213 N 0.23958 1.06176 0.18712
 C214 C 0.23894 1.11029 0.17465
 C215 C 0.27871 1.11658 0.13461
 C216 C 0.30341 1.06907 0.12515
 H217 H 0.29113 1.15123 0.11761
 H218 H 0.28790 0.99860 0.15971
 H219 H 0.21554 1.04583 0.21669
 N220 N 0.69408 1.19403 -0.05479
 N221 N 0.73366 1.22031 -0.07841
 C222 C 0.74384 1.20203 -0.12558
 C223 C 0.70950 1.16214 -0.13223
 C224 C 0.67818 1.15842 -0.08649
 H225 H 0.70596 1.14047 -0.16631
 H226 H 0.67848 1.20071 -0.01760
 H227 H 0.75231 1.25089 -0.06264
 N228 N 0.33990 0.93274 -0.22930
 N229 N 0.30360 0.90320 -0.24975
 C230 C 0.30066 0.86141 -0.22214
 C231 C 0.33659 0.86434 -0.18271
 C232 C 0.36024 0.91041 -0.18801
 H233 H 0.34217 0.83762 -0.15280
 H234 H 0.34811 0.96850 -0.24212
 H235 H 0.27988 0.91243 -0.28095
 N236 N 0.67457 0.79812 0.04890
 N237 N 0.70787 0.77404 0.08044
 C238 C 0.70917 0.80144 0.12294
 C239 C 0.67529 0.84477 0.11837
 C240 C 0.65423 0.84155 0.07064
 H241 H 0.66841 0.87486 0.14564
 H242 H 0.66780 0.78540 0.01259
 H243 H 0.73030 0.74001 0.07232
   
