data_POSCAR
  _audit_creation_date              2014-09-24
  _audit_creation_method            'ToBaCCo'
  _symmetry_space_group_name_H-M    'P1'
  _symmetry_Int_Tables_number       1
  _symmetry_cell_setting            triclinic
  loop_
  _symmetry_equiv_pos_as_xyz
 x,y,z
_cell_length_a 43.9983
_cell_length_b 38.8769
_cell_length_c 37.7293
_cell_angle_alpha 90.081000
_cell_angle_beta 90.124000
_cell_angle_gamma 89.990800
loop_
  _atom_site_label
  _atom_site_type_symbol
  _atom_site_fract_x
  _atom_site_fract_y
  _atom_site_fract_z
C1 C 0.29116 0.30423 0.23237
 H2 H 0.29059 0.30962 0.26050
 C3 C 0.30919 0.32424 0.21005
 H4 H 0.32200 0.34541 0.22126
 C5 C 0.27448 0.27047 0.18379
 H6 H 0.26146 0.24902 0.17373
 C7 C 0.29242 0.28961 0.16055
 H8 H 0.29284 0.28263 0.13277
 N9 N 0.27370 0.27848 0.21888
 C10 C 0.20627 0.26859 0.30299
 H11 H 0.20797 0.24131 0.30825
 C12 C 0.18713 0.28910 0.32355
 H13 H 0.17457 0.27738 0.34501
 C14 C 0.22127 0.31685 0.26902
 H15 H 0.23414 0.32747 0.24729
 C16 C 0.20218 0.33827 0.28869
 H17 H 0.20066 0.36524 0.28179
 Zn18 Zn 0.24938 0.25316 0.25100
 N19 N 0.22340 0.28280 0.27688
 C20 C 0.27756 0.23663 0.31708
 N21 N 0.27627 0.22957 0.28178
 C22 C 0.29476 0.20556 0.26694
 C23 C 0.31444 0.18622 0.28802
 C24 C 0.29714 0.21810 0.33914
 C25 C 0.20586 0.23365 0.20040
 C26 C 0.18776 0.21119 0.18061
 C27 C 0.20629 0.16418 0.21643
 C28 C 0.22433 0.18748 0.23521
 N29 N 0.22431 0.22140 0.22644
 H30 H 0.26352 0.25668 0.32822
 H31 H 0.29363 0.20086 0.23869
 H32 H 0.32802 0.16630 0.27575
 H33 H 0.29788 0.22419 0.36714
 H34 H 0.20582 0.26086 0.19443
 H35 H 0.17430 0.22140 0.15901
 H36 H 0.20657 0.13734 0.22402
 H37 H 0.23818 0.17839 0.25693
 C38 C 0.18503 0.32456 0.31671
 C39 C 0.30984 0.31722 0.17351
 C40 C 0.18802 0.17580 0.18827
 C41 C 0.31564 0.19213 0.32476
 C42 C 0.79289 0.80039 0.23105
 H43 H 0.79262 0.80456 0.25941
 C44 C 0.81154 0.82056 0.20958
 H45 H 0.82453 0.84071 0.22230
 C46 C 0.77451 0.76998 0.18114
 H47 H 0.76069 0.74962 0.17018
 C48 C 0.79274 0.78954 0.15860
 H49 H 0.79263 0.78299 0.13075
 N50 N 0.77436 0.77623 0.21656
 C51 C 0.70428 0.76716 0.29752
 H52 H 0.70505 0.73973 0.30226
 C53 C 0.68498 0.78793 0.31759
 H54 H 0.67134 0.77624 0.33814
 C55 C 0.72196 0.81555 0.26554
 H56 H 0.73606 0.82614 0.24486
 C57 C 0.70277 0.83726 0.28476
 H58 H 0.70236 0.86442 0.27853
 Zn59 Zn 0.74901 0.75119 0.24782
 N60 N 0.72278 0.78128 0.27268
 C61 C 0.77483 0.73535 0.31506
 N62 N 0.77472 0.72750 0.27992
 C63 C 0.79337 0.70278 0.26662
 C64 C 0.81184 0.68347 0.28920
 C65 C 0.79318 0.71693 0.33856
 C66 C 0.70582 0.73229 0.19655
 C67 C 0.68758 0.71013 0.17656
 C68 C 0.70559 0.66275 0.21222
 C69 C 0.72377 0.68576 0.23119
 N70 N 0.72408 0.71972 0.22261
 H71 H 0.76076 0.75596 0.32500
 H72 H 0.79324 0.69747 0.23846
 H73 H 0.82548 0.66293 0.27815
 H74 H 0.79292 0.72364 0.36641
 H75 H 0.70594 0.75954 0.19079
 H76 H 0.67425 0.72059 0.15499
 H77 H 0.70559 0.63589 0.21971
 H78 H 0.73741 0.67641 0.25297
 C79 C 0.68421 0.82359 0.31155
 C80 C 0.81152 0.81586 0.17242
 C81 C 0.68749 0.67471 0.18406
 C82 C 0.81166 0.69015 0.32583
 C83 C 0.79447 0.29935 0.73314
 H84 H 0.79422 0.30423 0.76138
 C85 C 0.81241 0.31963 0.71096
 H86 H 0.82549 0.34047 0.72238
 C87 C 0.77698 0.26673 0.68413
 H88 H 0.76363 0.24566 0.67381
 C89 C 0.79479 0.28614 0.66102
 H90 H 0.79480 0.27976 0.63308
 N91 N 0.77662 0.27409 0.71938
 C92 C 0.70778 0.26376 0.80200
 H93 H 0.70885 0.23635 0.80674
 C94 C 0.68838 0.28430 0.82223
 H95 H 0.67504 0.27246 0.84297
 C96 C 0.72442 0.31230 0.76954
 H97 H 0.73799 0.32306 0.74848
 C98 C 0.70512 0.33375 0.78889
 H99 H 0.70420 0.36085 0.78242
 Zn100 Zn 0.75204 0.24855 0.75107
 N101 N 0.72586 0.27809 0.77684
 C102 C 0.77812 0.22891 0.81746
 N103 N 0.77858 0.22439 0.78180
 C104 C 0.79858 0.20242 0.76647
 C105 C 0.81832 0.18278 0.78718
 C106 C 0.79733 0.20971 0.83933
 C107 C 0.70818 0.23010 0.70066
 C108 C 0.68991 0.20811 0.68055
 C109 C 0.70951 0.16015 0.71419
 C110 C 0.72773 0.18302 0.73331
 N111 N 0.72714 0.21722 0.72584
 H112 H 0.76302 0.24763 0.82914
 H113 H 0.79864 0.19953 0.73794
 H114 H 0.83220 0.16428 0.77327
 H115 H 0.79661 0.21548 0.86732
 H116 H 0.70779 0.25750 0.69567
 H117 H 0.67597 0.21889 0.65966
 H118 H 0.71017 0.13308 0.72082
 H119 H 0.74217 0.17339 0.75425
 C120 C 0.68703 0.31990 0.81601
 C121 C 0.81251 0.31337 0.67426
 C122 C 0.69054 0.17251 0.68700
 C123 C 0.81789 0.18544 0.82468
 C124 C 0.29323 0.80212 0.73097
 H125 H 0.29260 0.80683 0.75923
 C126 C 0.31131 0.82267 0.70923
 H127 H 0.32411 0.84355 0.72102
 C128 C 0.27654 0.76966 0.68146
 H129 H 0.26349 0.74851 0.67079
 C130 C 0.29452 0.78936 0.65878
 H131 H 0.29493 0.78314 0.63081
 N132 N 0.27565 0.77685 0.71674
 C133 C 0.20820 0.76637 0.80065
 H134 H 0.20956 0.73894 0.80521
 C135 C 0.18930 0.78667 0.82173
 H136 H 0.17658 0.77464 0.84288
 C137 C 0.22371 0.81519 0.76785
 H138 H 0.23663 0.82611 0.74632
 C139 C 0.20491 0.83643 0.78811
 H140 H 0.20369 0.86357 0.78190
 Zn141 Zn 0.25064 0.75130 0.74795
 N142 N 0.22542 0.78092 0.77483
 C143 C 0.27914 0.73314 0.81320
 N144 N 0.27676 0.72581 0.77802
 C145 C 0.29358 0.70035 0.76297
 C146 C 0.31248 0.67979 0.78382
 C147 C 0.29817 0.71356 0.83495
 C148 C 0.20720 0.73543 0.69613
 C149 C 0.18823 0.71462 0.67556
 C150 C 0.20351 0.66579 0.71094
 C151 C 0.22263 0.68744 0.73041
 N152 N 0.22458 0.72146 0.72226
 H153 H 0.26635 0.75418 0.82448
 H154 H 0.29179 0.69559 0.73478
 H155 H 0.32528 0.65917 0.77158
 H156 H 0.29943 0.71925 0.86303
 H157 H 0.20854 0.76273 0.69083
 H158 H 0.17498 0.72596 0.65436
 H159 H 0.20251 0.63867 0.71733
 H160 H 0.23574 0.67701 0.75211
 C161 C 0.18758 0.82229 0.81575
 C162 C 0.31188 0.81667 0.67249
 C163 C 0.18642 0.67931 0.68279
 C164 C 0.31472 0.68617 0.82033
 C165 C -0.03253 -0.02338 0.02289
 C166 C -0.01548 -0.00015 0.00274
 C167 C -0.03022 0.02411 -0.01863
 C168 C -0.06210 0.02540 -0.02001
 C169 C -0.07901 0.00198 0.00033
 C170 C -0.06444 -0.02258 0.02178
 C171 C 0.01789 -0.00163 0.00347
 C172 C 0.03335 -0.02279 -0.02051
 C173 C 0.06526 -0.02431 -0.02031
 C174 C 0.08142 -0.00406 0.00425
 C175 C 0.06614 0.01739 0.02846
 C176 C 0.03421 0.01830 0.02788
 H177 H -0.02089 -0.04242 0.03889
 H178 H -0.01680 0.04208 -0.03398
 H179 H 0.02044 -0.03770 -0.03959
 H180 H 0.02190 0.03419 0.04659
 H181 H -0.10361 0.00273 -0.00072
 H182 H 0.10600 -0.00499 0.00452
 C183 C -0.03545 0.47719 0.51951
 C184 C -0.01952 0.50257 0.50094
 C185 C -0.03541 0.52806 0.48237
 C186 C -0.06735 0.52824 0.48194
 C187 C -0.08308 0.50275 0.50093
 C188 C -0.06738 0.47719 0.51992
 C189 C 0.01388 0.50241 0.50083
 C190 C 0.02963 0.48075 0.47754
 C191 C 0.06159 0.48060 0.47692
 C192 C 0.07748 0.50267 0.50004
 C193 C 0.06183 0.52438 0.52353
 C194 C 0.02996 0.52408 0.52382
 H195 H -0.02288 0.45740 0.53346
 H196 H -0.02281 0.54775 0.46840
 H197 H 0.01685 0.46447 0.45956
 H198 H 0.01765 0.54090 0.54168
 H199 H -0.10769 0.50280 0.50091
 H200 H 0.10210 0.50235 0.50058
 C201 C 0.46657 -0.02131 0.52027
 C202 C 0.48349 0.00262 0.50088
 C203 C 0.46864 0.02778 0.48080
 C204 C 0.43673 0.02911 0.47961
 C205 C 0.41996 0.00502 0.49935
 C206 C 0.43465 -0.02025 0.51985
 C207 C 0.51684 0.00086 0.50099
 C208 C 0.53184 -0.02004 0.47637
 C209 C 0.56371 -0.02199 0.47610
 C210 C 0.58033 -0.00240 0.50082
 C211 C 0.56553 0.01877 0.52567
 C212 C 0.53361 0.02010 0.52557
 H213 H 0.47838 -0.04100 0.53522
 H214 H 0.48206 0.04631 0.46619
 H215 H 0.51856 -0.03443 0.45721
 H216 H 0.52164 0.03574 0.54480
 H217 H 0.39538 0.00579 0.49862
 H218 H 0.60490 -0.00367 0.50073
 C219 C 0.46574 0.47575 0.01830
 C220 C 0.48240 0.49992 -0.00116
 C221 C 0.46722 0.52434 -0.02194
 C222 C 0.43538 0.52443 -0.02377
 C223 C 0.41886 0.50025 -0.00403
 C224 C 0.43379 0.47582 0.01725
 C225 C 0.51579 0.49885 -0.00072
 C226 C 0.53124 0.47744 -0.02449
 C227 C 0.56314 0.47586 -0.02424
 C228 C 0.57929 0.49623 0.00021
 C229 C 0.56405 0.51787 0.02425
 C230 C 0.53211 0.51896 0.02354
 H231 H 0.47778 0.45664 0.03380
 H232 H 0.48024 0.54266 -0.03733
 H233 H 0.51832 0.46233 -0.04339
 H234 H 0.51983 0.53498 0.04216
 H235 H 0.39425 0.50103 -0.00473
 H236 H 0.60388 0.49518 0.00059
 C237 C 0.13168 -0.11400 -0.11665
 C238 C 0.15980 -0.10164 -0.12959
 C239 C 0.17778 -0.12242 -0.15164
 C240 C 0.16808 -0.15548 -0.16159
 C241 C 0.13984 -0.16732 -0.14941
 C242 C 0.12189 -0.14697 -0.12724
 C243 C 0.11365 -0.09138 -0.09221
 C244 C 0.08612 -0.10185 -0.07652
 C245 C 0.07048 -0.08003 -0.05347
 C246 C 0.08170 -0.04712 -0.04551
 C247 C 0.10900 -0.03638 -0.06123
 C248 C 0.12512 -0.05827 -0.08409
 C249 C 0.16989 -0.06863 -0.12042
 C250 C 0.15281 -0.04731 -0.09841
 H251 H 0.19134 -0.05908 -0.13047
 H252 H 0.16162 -0.02198 -0.09216
 H253 H 0.19965 -0.11301 -0.16053
 H254 H 0.13141 -0.19237 -0.15725
 H255 H 0.04977 -0.08927 -0.04128
 H256 H 0.11775 -0.01086 -0.05574
 H257 H 0.10043 -0.15754 -0.11886
 H258 H 0.07646 -0.12692 -0.08125
 C259 C 0.12881 0.38915 0.38309
 C260 C 0.15663 0.40166 0.36942
 C261 C 0.17472 0.38056 0.34781
 C262 C 0.16540 0.34708 0.33893
 C263 C 0.13741 0.33512 0.35176
 C264 C 0.11937 0.35575 0.37355
 C265 C 0.11067 0.41213 0.40705
 C266 C 0.08357 0.40153 0.42359
 C267 C 0.06774 0.42375 0.44606
 C268 C 0.07834 0.45723 0.45254
 C269 C 0.10529 0.46804 0.43608
 C270 C 0.12162 0.44575 0.41384
 C271 C 0.16627 0.43512 0.37738
 C272 C 0.14900 0.45680 0.39880
 H273 H 0.18748 0.44478 0.36676
 H274 H 0.15743 0.48251 0.40406
 H275 H 0.19639 0.39011 0.33842
 H276 H 0.12924 0.30974 0.34472
 H277 H 0.04739 0.41439 0.45892
 H278 H 0.11360 0.49395 0.44048
 H279 H 0.09811 0.34509 0.38245
 H280 H 0.07439 0.37605 0.41999
 C281 C 0.62855 -0.11160 0.37827
 C282 C 0.65705 -0.09983 0.36587
 C283 C 0.67488 -0.12091 0.34396
 C284 C 0.66466 -0.15365 0.33358
 C285 C 0.63596 -0.16476 0.34501
 C286 C 0.61815 -0.14413 0.36705
 C287 C 0.61083 -0.08888 0.40290
 C288 C 0.58314 -0.09900 0.41845
 C289 C 0.56789 -0.07721 0.44188
 C290 C 0.57965 -0.04466 0.45033
 C291 C 0.60708 -0.03423 0.43468
 C292 C 0.62285 -0.05614 0.41153
 C293 C 0.66767 -0.06717 0.37549
 C294 C 0.65080 -0.04566 0.39753
 H295 H 0.68940 -0.05805 0.36581
 H296 H 0.66004 -0.02062 0.40417
 H297 H 0.69710 -0.11203 0.33564
 H298 H 0.62711 -0.18950 0.33677
 H299 H 0.54709 -0.08624 0.45401
 H300 H 0.61626 -0.00899 0.44056
 H301 H 0.59633 -0.15415 0.37489
 H302 H 0.57310 -0.12382 0.41339
 C303 C 0.63025 0.38476 -0.11852
 C304 C 0.65864 0.39679 -0.13098
 C305 C 0.67690 0.37560 -0.15229
 C306 C 0.66722 0.34248 -0.16206
 C307 C 0.63871 0.33097 -0.15038
 C308 C 0.62048 0.35171 -0.12890
 C309 C 0.61195 0.40779 -0.09477
 C310 C 0.58418 0.39765 -0.07942
 C311 C 0.56836 0.41982 -0.05687
 C312 C 0.57962 0.45276 -0.04914
 C313 C 0.60710 0.46320 -0.06463
 C314 C 0.62343 0.44096 -0.08690
 C315 C 0.66872 0.42986 -0.12209
 C316 C 0.65137 0.45158 -0.10081
 H317 H 0.69037 0.43916 -0.13181
 H318 H 0.66019 0.47695 -0.09474
 H319 H 0.69898 0.38478 -0.16074
 H320 H 0.63028 0.30589 -0.15810
 H321 H 0.54751 0.41079 -0.04486
 H322 H 0.61589 0.48875 -0.05933
 H323 H 0.59882 0.34140 -0.12088
 H324 H 0.57450 0.37256 -0.08398
 C325 C -0.12707 0.12087 -0.11144
 C326 C -0.15292 0.13722 -0.09707
 C327 C -0.17077 0.15914 -0.11816
 C328 C -0.16386 0.16521 -0.15431
 C329 C -0.13757 0.14886 -0.16791
 C330 C -0.11961 0.12731 -0.14700
 C331 C -0.10909 0.09694 -0.08826
 C332 C -0.08296 0.07935 -0.10006
 C333 C -0.06758 0.05659 -0.07774
 C334 C -0.07780 0.05069 -0.04310
 C335 C -0.10347 0.06851 -0.03088
 C336 C -0.11911 0.09146 -0.05308
 C337 C -0.16130 0.13109 -0.06181
 C338 C -0.14480 0.10869 -0.04033
 H339 H -0.18113 0.14360 -0.05068
 H340 H -0.15242 0.10462 -0.01336
 H341 H -0.19120 0.16941 -0.10632
 H342 H -0.12949 0.15353 -0.19449
 H343 H -0.04797 0.04295 -0.08790
 H344 H -0.11126 0.06453 -0.00395
 H345 H -0.09992 0.11601 -0.15934
 H346 H -0.07412 0.08250 -0.12648
 C347 C -0.13686 0.62552 0.39726
 C348 C -0.12492 0.63439 0.36368
 C349 C -0.14139 0.65612 0.34093
 C350 C -0.17013 0.66869 0.35068
 C351 C -0.18190 0.65970 0.38395
 C352 C -0.16554 0.63857 0.40698
 C353 C -0.11878 0.60181 0.42052
 C354 C -0.12824 0.59215 0.45475
 C355 C -0.11123 0.56890 0.47478
 C356 C -0.08436 0.55455 0.46131
 C357 C -0.07427 0.56482 0.42766
 C358 C -0.09112 0.58835 0.40734
 C359 C -0.09693 0.62101 0.35268
 C360 C -0.08054 0.59823 0.37389
 H361 H -0.08777 0.62777 0.32697
 H362 H -0.05924 0.58815 0.36388
 H363 H -0.13181 0.66312 0.31551
 H364 H -0.20424 0.66835 0.39198
 H365 H -0.11917 0.56216 0.50102
 H366 H -0.05363 0.55382 0.41681
 H367 H -0.17606 0.63228 0.43191
 H368 H -0.14868 0.60218 0.46660
 C369 C 0.37195 0.12677 0.39022
 C370 C 0.34367 0.13896 0.40290
 C371 C 0.32567 0.16054 0.38167
 C372 C 0.33550 0.17074 0.34788
 C373 C 0.36405 0.15960 0.33596
 C374 C 0.38203 0.13792 0.35672
 C375 C 0.38975 0.10234 0.41299
 C376 C 0.41712 0.08695 0.40186
 C377 C 0.43236 0.06357 0.42361
 C378 C 0.42092 0.05502 0.45717
 C379 C 0.39385 0.07056 0.46864
 C380 C 0.37806 0.09367 0.44674
 C381 C 0.33340 0.12938 0.43658
 C382 C 0.35037 0.10752 0.45817
 H383 H 0.31186 0.13892 0.44643
 H384 H 0.34139 0.10087 0.48399
 H385 H 0.30359 0.16869 0.39121
 H386 H 0.37263 0.16772 0.31043
 H387 H 0.45285 0.05152 0.41371
 H388 H 0.38491 0.06457 0.49466
 H389 H 0.40370 0.13025 0.34602
 H390 H 0.42688 0.09205 0.37622
 C391 C 0.36906 0.62063 -0.11270
 C392 C 0.34801 0.60635 -0.13706
 C393 C 0.33087 0.62791 -0.15921
 C394 C 0.33363 0.66376 -0.15685
 C395 C 0.35392 0.67797 -0.13218
 C396 C 0.37158 0.65674 -0.11049
 C397 C 0.38718 0.59659 -0.08982
 C398 C 0.41014 0.60789 -0.06638
 C399 C 0.42602 0.58442 -0.04528
 C400 C 0.41921 0.54924 -0.04678
 C401 C 0.39680 0.53765 -0.07040
 C402 C 0.38109 0.56089 -0.09217
 C403 C 0.34371 0.57070 -0.13873
 C404 C 0.35958 0.54850 -0.11643
 H405 H 0.32746 0.55980 -0.15723
 H406 H 0.35512 0.52115 -0.11841
 H407 H 0.31474 0.61683 -0.17776
 H408 H 0.35632 0.70561 -0.12992
 H409 H 0.44334 0.59383 -0.02728
 H410 H 0.39191 0.51035 -0.07214
 H411 H 0.38675 0.66911 -0.09195
 H412 H 0.41626 0.63465 -0.06404
 C413 C -0.13645 -0.11857 0.10478
 C414 C -0.12739 -0.12408 0.14028
 C415 C -0.14434 -0.14597 0.16230
 C416 C -0.17068 -0.16289 0.14978
 C417 C -0.17910 -0.15752 0.11410
 C418 C -0.16239 -0.13582 0.09208
 C419 C -0.11810 -0.09441 0.08239
 C420 C -0.12562 -0.08662 0.04695
 C421 C -0.10811 -0.06351 0.02744
 C422 C -0.08261 -0.04756 0.04259
 C423 C -0.07473 -0.05538 0.07773
 C424 C -0.09227 -0.07848 0.09769
 C425 C -0.10143 -0.10770 0.15372
 C426 C -0.08425 -0.08543 0.13289
 H427 H -0.09434 -0.11200 0.18088
 H428 H -0.06446 -0.07329 0.14462
 H429 H -0.13610 -0.15046 0.18893
 H430 H -0.19956 -0.16866 0.10309
 H431 H -0.11442 -0.05832 0.00020
 H432 H -0.05524 -0.04291 0.08981
 H433 H -0.17049 -0.13264 0.06531
 H434 H -0.14494 -0.09795 0.03377
 C435 C -0.13670 0.37947 0.60390
 C436 C -0.12476 0.37055 0.63753
 C437 C -0.14106 0.34848 0.65999
 C438 C -0.16960 0.33553 0.64987
 C439 C -0.18140 0.34460 0.61657
 C440 C -0.16522 0.36614 0.59386
 C441 C -0.11874 0.40344 0.58089
 C442 C -0.12822 0.41319 0.54664
 C443 C -0.11126 0.43655 0.52679
 C444 C -0.08441 0.45090 0.54044
 C445 C -0.07434 0.44062 0.57414
 C446 C -0.09115 0.41699 0.59429
 C447 C -0.09689 0.38414 0.64881
 C448 C -0.08058 0.40708 0.62780
 H449 H -0.08774 0.37734 0.67456
 H450 H -0.05935 0.41727 0.63799
 H451 H -0.13147 0.34142 0.68544
 H452 H -0.20360 0.33563 0.60827
 H453 H -0.11920 0.44334 0.50052
 H454 H -0.05373 0.45163 0.58512
 H455 H -0.17574 0.37243 0.56886
 H456 H -0.14863 0.40315 0.53464
 C457 C 0.36316 -0.11640 0.60343
 C458 C 0.37467 -0.12536 0.63724
 C459 C 0.35821 -0.14766 0.65929
 C460 C 0.32991 -0.16084 0.64856
 C461 C 0.31850 -0.15168 0.61511
 C462 C 0.33484 -0.12990 0.59281
 C463 C 0.38139 -0.09237 0.58078
 C464 C 0.37240 -0.08265 0.54634
 C465 C 0.38983 -0.05962 0.52662
 C466 C 0.41665 -0.04552 0.54063
 C467 C 0.42606 -0.05550 0.57469
 C468 C 0.40882 -0.07886 0.59466
 C469 C 0.40233 -0.11167 0.64909
 C470 C 0.41890 -0.08870 0.62840
 H471 H 0.41115 -0.11847 0.67500
 H472 H 0.43999 -0.07852 0.63897
 H473 H 0.36751 -0.15477 0.68488
 H474 H 0.29648 -0.16081 0.60635
 H475 H 0.38237 -0.05306 0.50011
 H476 H 0.44661 -0.04464 0.58597
 H477 H 0.32465 -0.12359 0.56764
 H478 H 0.35209 -0.09260 0.53402
 C479 C 0.36197 0.38159 0.10273
 C480 C 0.37319 0.37363 0.13694
 C481 C 0.35645 0.35215 0.15955
 C482 C 0.32813 0.33886 0.14901
 C483 C 0.31701 0.34704 0.11516
 C484 C 0.33365 0.36798 0.09229
 C485 C 0.38047 0.40482 0.07949
 C486 C 0.37181 0.41345 0.04464
 C487 C 0.38935 0.43599 0.02446
 C488 C 0.41597 0.45066 0.03839
 C489 C 0.42516 0.44158 0.07280
 C490 C 0.40779 0.41873 0.09326
 C491 C 0.40081 0.38757 0.14863
 C492 C 0.41759 0.40987 0.12740
 H493 H 0.40940 0.38153 0.17484
 H494 H 0.43860 0.42034 0.13788
 H495 H 0.36554 0.34578 0.18544
 H496 H 0.29499 0.33781 0.10650
 H497 H 0.38208 0.44181 -0.00231
 H498 H 0.44556 0.45286 0.08403
 H499 H 0.32366 0.37358 0.06683
 H500 H 0.35165 0.40307 0.03238
 C501 C 0.13671 0.10436 0.12365
 C502 C 0.12503 0.13753 0.13102
 C503 C 0.14145 0.16035 0.15270
 C504 C 0.16997 0.15110 0.16657
 C505 C 0.18161 0.11832 0.15878
 C506 C 0.16524 0.09523 0.13779
 C507 C 0.11850 0.08079 0.10031
 C508 C 0.12742 0.04677 0.09269
 C509 C 0.11018 0.02621 0.06993
 C510 C 0.08363 0.03895 0.05397
 C511 C 0.07414 0.07254 0.06213
 C512 C 0.09115 0.09333 0.08531
 C513 C 0.09733 0.14798 0.11618
 C514 C 0.08095 0.12653 0.09349
 H515 H 0.08840 0.17341 0.12172
 H516 H 0.05988 0.13606 0.08224
 H517 H 0.13196 0.18541 0.15870
 H518 H 0.20383 0.11065 0.16830
 H519 H 0.11763 0.00010 0.06497
 H520 H 0.05377 0.08284 0.04991
 H521 H 0.17564 0.07066 0.13246
 H522 H 0.14754 0.03544 0.10411
 C523 C 0.13086 0.61274 0.61826
 C524 C 0.15213 0.63531 0.60244
 C525 C 0.16968 0.65740 0.62366
 C526 C 0.16716 0.65661 0.66068
 C527 C 0.14674 0.63364 0.67642
 C528 C 0.12864 0.61209 0.65555
 C529 C 0.11217 0.59001 0.59456
 C530 C 0.08880 0.56854 0.60733
 C531 C 0.07230 0.54758 0.58416
 C532 C 0.07887 0.54722 0.54785
 C533 C 0.10175 0.56879 0.53476
 C534 C 0.11806 0.59050 0.55767
 C535 C 0.15622 0.63523 0.56565
 C536 C 0.13989 0.61293 0.54381
 H537 H 0.17266 0.65232 0.55357
 H538 H 0.14422 0.61352 0.51554
 H539 H 0.18592 0.67466 0.61144
 H540 H 0.14458 0.63260 0.70500
 H541 H 0.05462 0.53115 0.59471
 H542 H 0.10648 0.56904 0.50656
 H543 H 0.11339 0.59488 0.66912
 H544 H 0.08277 0.56772 0.63500
 C545 C 0.63793 0.10290 0.62168
 C546 C 0.62645 0.13586 0.63032
 C547 C 0.64328 0.15802 0.65228
 C548 C 0.67207 0.14839 0.66509
 C549 C 0.68354 0.11585 0.65598
 C550 C 0.66673 0.09336 0.63476
 C551 C 0.61925 0.08003 0.59813
 C552 C 0.62787 0.04614 0.58948
 C553 C 0.61019 0.02626 0.56654
 C554 C 0.58350 0.03957 0.55140
 C555 C 0.57431 0.07301 0.56064
 C556 C 0.59174 0.09309 0.58406
 C557 C 0.59853 0.14681 0.61644
 C558 C 0.58176 0.12608 0.59342
 H559 H 0.58976 0.17209 0.62294
 H560 H 0.56056 0.13600 0.58291
 H561 H 0.63391 0.18288 0.65930
 H562 H 0.70594 0.10792 0.66464
 H563 H 0.61741 0.00022 0.56081
 H564 H 0.55384 0.08377 0.54910
 H565 H 0.67701 0.06896 0.62838
 H566 H 0.64807 0.03440 0.60024
 C567 C 0.63537 0.60401 0.11943
 C568 C 0.62408 0.63735 0.12675
 C569 C 0.64077 0.65996 0.14840
 C570 C 0.66919 0.65031 0.16228
 C571 C 0.68047 0.61738 0.15447
 C572 C 0.66383 0.59451 0.13352
 C573 C 0.61688 0.58066 0.09618
 C574 C 0.62539 0.54647 0.08872
 C575 C 0.60795 0.52613 0.06598
 C576 C 0.58160 0.53923 0.04987
 C577 C 0.57246 0.57296 0.05796
 C578 C 0.58968 0.59356 0.08113
 C579 C 0.59648 0.64818 0.11190
 C580 C 0.57986 0.62692 0.08923
 H581 H 0.58785 0.67374 0.11739
 H582 H 0.55892 0.63674 0.07795
 H583 H 0.63155 0.68515 0.15439
 H584 H 0.70260 0.60940 0.16396
 H585 H 0.61511 0.49989 0.06113
 H586 H 0.55221 0.58351 0.04568
 H587 H 0.67397 0.56980 0.12818
 H588 H 0.64533 0.53485 0.10025
   
