data_POSCAR
  _audit_creation_date              2014-09-24
  _audit_creation_method            'ToBaCCo'
  _symmetry_space_group_name_H-M    'P1'
  _symmetry_Int_Tables_number       1
  _symmetry_cell_setting            triclinic
  loop_
  _symmetry_equiv_pos_as_xyz
 x,y,z
_cell_length_a 47.9079
_cell_length_b 47.7503
_cell_length_c 47.9015
_cell_angle_alpha 89.923400
_cell_angle_beta 89.999000
_cell_angle_gamma 90.099500
loop_
  _atom_site_label
  _atom_site_type_symbol
  _atom_site_fract_x
  _atom_site_fract_y
  _atom_site_fract_z
N1 N 0.59231 0.66958 0.61392
 N2 N 0.58167 0.65837 0.63668
 C3 C 0.55914 0.67329 0.64452
 C4 C 0.55567 0.69482 0.62565
 C5 C 0.57694 0.69197 0.60651
 H6 H 0.54617 0.66886 0.66247
 H7 H 0.58086 0.70511 0.58852
 Cu8 Cu 0.59823 0.62513 0.65329
 Cu9 Cu 0.62525 0.65429 0.59555
 Cu10 Cu 0.65482 0.59494 0.62519
 N11 N 0.61478 0.59189 0.66990
 N12 N 0.63689 0.58009 0.65863
 C13 C 0.64398 0.55738 0.67372
 C14 C 0.62531 0.55499 0.69547
 C15 C 0.60704 0.57707 0.69260
 H16 H 0.66130 0.54363 0.66917
 H17 H 0.58948 0.58186 0.70595
 N18 N 0.66985 0.61315 0.59138
 N19 N 0.65860 0.63575 0.58010
 C20 C 0.67363 0.64320 0.55748
 C21 C 0.69519 0.62441 0.55455
 C22 C 0.69233 0.60565 0.57622
 H23 H 0.66934 0.66097 0.54416
 H24 H 0.70570 0.58796 0.58062
 H25 H 0.61952 0.61335 0.60861
 H26 H 0.64247 0.63594 0.63062
 N27 N 0.90870 0.33007 0.11326
 N28 N 0.91997 0.34188 0.13539
 C29 C 0.94263 0.32709 0.14314
 C30 C 0.94548 0.30502 0.12485
 C31 C 0.92375 0.30738 0.10617
 H32 H 0.95597 0.33189 0.16072
 H33 H 0.91918 0.29362 0.08883
 Cu34 Cu 0.90340 0.37509 0.15195
 Cu35 Cu 0.87531 0.34488 0.09533
 Cu36 Cu 0.84575 0.40420 0.12490
 N37 N 0.88683 0.40830 0.16852
 N38 N 0.86411 0.41949 0.15786
 C39 C 0.85672 0.44185 0.17325
 C40 C 0.87583 0.44471 0.19455
 C41 C 0.89467 0.42322 0.19109
 H42 H 0.83876 0.45497 0.16932
 H43 H 0.91259 0.41880 0.20408
 N44 N 0.83032 0.38562 0.09152
 N45 N 0.84157 0.36304 0.08027
 C46 C 0.82643 0.35551 0.05778
 C47 C 0.80480 0.37423 0.05490
 C48 C 0.80773 0.39303 0.07646
 H49 H 0.83080 0.33783 0.04440
 H50 H 0.79444 0.41079 0.08074
 H51 H 0.88079 0.38591 0.10771
 H52 H 0.85872 0.36330 0.13062
 N53 N 0.40785 0.16966 -0.11322
 N54 N 0.41880 0.15823 -0.13567
 C55 C 0.44150 0.17306 -0.14334
 C56 C 0.44475 0.19478 -0.12469
 C57 C 0.42318 0.19213 -0.10585
 H58 H 0.45466 0.16853 -0.16110
 H59 H 0.41896 0.20553 -0.08817
 Cu60 Cu 0.40208 0.12523 -0.15267
 Cu61 Cu 0.37458 0.15465 -0.09524
 Cu62 Cu 0.34492 0.09536 -0.12477
 N63 N 0.38551 0.09174 -0.16882
 N64 N 0.36309 0.08022 -0.15781
 C65 C 0.35585 0.05759 -0.17294
 C66 C 0.37474 0.05494 -0.19444
 C67 C 0.39330 0.07680 -0.19136
 H68 H 0.33820 0.04411 -0.16865
 H69 H 0.41102 0.08143 -0.20458
 N70 N 0.32962 0.11379 -0.09133
 N71 N 0.34092 0.13638 -0.08009
 C72 C 0.32580 0.14390 -0.05759
 C73 C 0.30414 0.12514 -0.05471
 C74 C 0.30702 0.10635 -0.07627
 H75 H 0.33018 0.16162 -0.04426
 H76 H 0.29366 0.08860 -0.08060
 H77 H 0.38030 0.11371 -0.10811
 H78 H 0.35768 0.13631 -0.13047
 N79 N 0.09152 0.82980 0.38663
 N80 N 0.08058 0.84129 0.36416
 C81 C 0.05796 0.82639 0.35637
 C82 C 0.05478 0.80460 0.37501
 C83 C 0.07629 0.80722 0.39392
 H84 H 0.04476 0.83106 0.33867
 H85 H 0.08053 0.79375 0.41159
 Cu86 Cu 0.09688 0.87475 0.34764
 Cu87 Cu 0.12463 0.84498 0.40482
 Cu88 Cu 0.15414 0.90446 0.37525
 N89 N 0.11367 0.90794 0.33104
 N90 N 0.13605 0.91951 0.34205
 C91 C 0.14326 0.94215 0.32687
 C92 C 0.12437 0.94478 0.30535
 C93 C 0.10588 0.92286 0.30845
 H94 H 0.16088 0.95567 0.33113
 H95 H 0.08809 0.91828 0.29533
 N96 N 0.16940 0.88610 0.40882
 N97 N 0.15817 0.86345 0.42008
 C98 C 0.17334 0.85593 0.44257
 C99 C 0.19496 0.87475 0.44542
 C100 C 0.19199 0.89358 0.42384
 H101 H 0.16908 0.83811 0.45586
 H102 H 0.20534 0.91132 0.41946
 H103 H 0.11893 0.88595 0.39221
 H104 H 0.14137 0.86351 0.36968
 C105 C 0.10407 0.14564 0.12524
 N106 N 0.12410 0.14568 0.10521
 C107 C 0.14412 0.12562 0.10523
 N108 N 0.14412 0.10551 0.12527
 C109 C 0.12409 0.10547 0.14530
 N110 N 0.10407 0.12553 0.14529
 C111 C 0.39537 0.85485 0.62513
 N112 N 0.37534 0.85486 0.60510
 C113 C 0.35533 0.87495 0.60509
 N114 N 0.35535 0.89502 0.62512
 C115 C 0.37537 0.89500 0.64516
 N116 N 0.39538 0.87492 0.64516
 C117 C 0.89557 0.64522 0.37465
 N118 N 0.89559 0.62508 0.35468
 C119 C 0.87557 0.60493 0.35474
 N120 N 0.85554 0.60493 0.37477
 C121 C 0.85551 0.62507 0.39473
 N122 N 0.87553 0.64521 0.39467
 C123 C 0.60511 0.35520 -0.12552
 N124 N 0.62516 0.35517 -0.10553
 C125 C 0.64523 0.37525 -0.10555
 N126 N 0.64525 0.39538 -0.12558
 C127 C 0.62518 0.39541 -0.14558
 N128 N 0.60511 0.37532 -0.14555
 C129 C 0.03932 0.22795 0.10195
 C130 C 0.00747 0.22241 0.10318
 C131 C 0.00478 0.24531 0.12553
 C132 C 0.03630 0.25118 0.12430
 C133 C 0.04353 0.20635 0.12537
 C134 C 0.04085 0.22924 0.14772
 C135 C 0.01202 0.20048 0.12660
 C136 C 0.00899 0.22371 0.14895
 C137 C -0.01677 0.26703 0.12546
 C138 C -0.03449 0.28490 0.12524
 C139 C 0.06513 0.18468 0.12529
 C140 C 0.08291 0.16686 0.12525
 H141 H 0.05202 0.22945 0.08263
 H142 H -0.00650 0.21984 0.08488
 H143 H 0.04605 0.27226 0.12336
 H144 H 0.05482 0.23180 0.16603
 H145 H 0.00227 0.17939 0.12753
 H146 H -0.00372 0.22219 0.16827
 C147 C 0.46713 0.77950 0.59910
 C148 C 0.49720 0.78331 0.61041
 C149 C 0.49460 0.75508 0.62562
 C150 C 0.46487 0.75093 0.61431
 C151 C 0.45584 0.79403 0.62537
 C152 C 0.45324 0.76580 0.64058
 C153 C 0.48557 0.79817 0.63667
 C154 C 0.48331 0.76960 0.65189
 C155 C 0.51629 0.73347 0.62573
 C156 C 0.53422 0.71579 0.62574
 C157 C 0.43425 0.81574 0.62525
 C158 C 0.41650 0.83359 0.62518
 H159 H 0.46025 0.78382 0.57739
 H160 H 0.51551 0.79027 0.59799
 H161 H 0.45658 0.73128 0.60512
 H162 H 0.43491 0.75884 0.65298
 H163 H 0.49385 0.81783 0.64585
 H164 H 0.49018 0.76530 0.67360
 C165 C 0.98177 0.70615 0.39386
 C166 C 1.00041 0.71395 0.36858
 C167 C 0.99505 0.74509 0.37455
 C168 C 0.97675 0.73762 0.39984
 C169 C 0.95619 0.70610 0.37452
 C170 C 0.95083 0.73723 0.38049
 C171 C 0.97450 0.71355 0.34923
 C172 C 0.96947 0.74503 0.35521
 C173 C 1.01671 0.76678 0.37463
 C174 C 1.03457 0.78459 0.37478
 C175 C 0.93454 0.68438 0.37455
 C176 C 0.91674 0.66652 0.37459
 H177 H 0.98661 0.68993 0.40975
 H178 H 1.02106 0.70465 0.36369
 H179 H 0.97789 0.74775 0.42066
 H180 H 0.93019 0.74655 0.38539
 H181 H 0.97337 0.70344 0.32841
 H182 H 0.96466 0.76126 0.33933
 C183 C 0.51721 0.29591 -0.14220
 C184 C 0.52155 0.26510 -0.15132
 C185 C 0.50562 0.25539 -0.12519
 C186 C 0.50094 0.28587 -0.11608
 C187 C 0.54446 0.29440 -0.12535
 C188 C 0.52852 0.28469 -0.09923
 C189 C 0.54913 0.26393 -0.13447
 C190 C 0.53287 0.25389 -0.10834
 C191 C 0.48396 0.23371 -0.12506
 C192 C 0.46610 0.21591 -0.12491
 C193 C 0.56609 0.31611 -0.12543
 C194 C 0.58390 0.33396 -0.12548
 H195 H 0.51101 0.31343 -0.15612
 H196 H 0.51846 0.25681 -0.17273
 H197 H 0.48088 0.29464 -0.10851
 H198 H 0.53162 0.29299 -0.07782
 H199 H 0.56920 0.25516 -0.14203
 H200 H 0.53907 0.23637 -0.09442
 C201 C 0.12095 0.05031 0.23729
 C202 C 0.09971 0.02588 0.23926
 C203 C 0.12397 0.00558 0.24466
 C204 C 0.14521 0.02967 0.24303
 C205 C 0.12401 0.04462 0.20588
 C206 C 0.14828 0.02433 0.21128
 C207 C 0.10278 0.02053 0.20752
 C208 C 0.12704 -0.00011 0.21325
 C209 C 0.12398 -0.01616 0.26627
 C210 C 0.12409 -0.03400 0.28409
 C211 C 0.12404 0.06635 0.18427
 C212 C 0.12407 0.08421 0.16649
 H213 H 0.11845 0.07129 0.24691
 H214 H 0.07974 0.02630 0.25100
 H215 H 0.16264 0.03320 0.25788
 H216 H 0.16826 0.02391 0.19955
 H217 H 0.08534 0.01700 0.19267
 H218 H 0.12954 -0.02109 0.20364
 C219 C 0.64982 0.46309 -0.22526
 C220 C 0.62975 0.46395 -0.25060
 C221 C 0.62468 0.49522 -0.24507
 C222 C 0.64476 0.49469 -0.22006
 C223 C 0.62492 0.45624 -0.20622
 C224 C 0.61986 0.48750 -0.20069
 C225 C 0.60484 0.45676 -0.23122
 C226 C 0.59977 0.48836 -0.22603
 C227 C 0.62472 0.51696 -0.26667
 C228 C 0.62492 0.53485 -0.28445
 C229 C 0.62507 0.43454 -0.18457
 C230 C 0.62516 0.41669 -0.16676
 H231 H 0.67041 0.45247 -0.22472
 H232 H 0.63380 0.45450 -0.27137
 H233 H 0.66117 0.51053 -0.21572
 H234 H 0.61580 0.49694 -0.17991
 H235 H 0.58844 0.44090 -0.23557
 H236 H 0.57918 0.49897 -0.22658
 C237 C 0.37115 0.98707 0.70020
 C238 C 0.35054 0.98836 0.72509
 C239 C 0.37518 0.99449 0.74469
 C240 C 0.39579 0.99354 0.72014
 C241 C 0.37527 0.95566 0.70580
 C242 C 0.39991 0.96179 0.72540
 C243 C 0.35466 0.95661 0.73035
 C244 C 0.37930 0.96308 0.75028
 C245 C 0.37509 1.01607 0.76639
 C246 C 0.37496 1.03381 0.78426
 C247 C 0.37533 0.93402 0.68415
 C248 C 0.37536 0.91620 0.66636
 H249 H 0.36780 0.99670 0.67937
 H250 H 0.33024 0.99954 0.72520
 H251 H 0.41270 1.00896 0.71618
 H252 H 0.42022 0.95062 0.72529
 H253 H 0.33775 0.94120 0.73431
 H254 H 0.38266 0.95346 0.77112
 C255 C 0.89487 0.54413 0.26864
 C256 C 0.90124 0.51274 0.27372
 C257 C 0.87589 0.50497 0.25565
 C258 C 0.86952 0.53603 0.25024
 C259 C 0.87574 0.54398 0.29438
 C260 C 0.85039 0.53621 0.27631
 C261 C 0.88211 0.51292 0.29980
 C262 C 0.85676 0.50482 0.28140
 C263 C 0.87595 0.48335 0.23397
 C264 C 0.87594 0.46567 0.21603
 C265 C 0.87566 0.56572 0.31593
 C266 C 0.87561 0.58362 0.33365
 H267 H 0.91053 0.56054 0.26361
 H268 H 0.92215 0.50284 0.27244
 H269 H 0.86434 0.54529 0.22962
 H270 H 0.82949 0.54611 0.27761
 H271 H 0.88727 0.50367 0.32044
 H272 H 0.84108 0.48842 0.28642
 C273 C 0.20003 0.13462 0.01425
 C274 C 0.22764 0.15153 0.01541
 C275 C 0.24353 0.12532 0.00586
 C276 C 0.21626 0.10841 0.00437
 C277 C 0.20470 0.12552 0.04467
 C278 C 0.22060 0.09931 0.03512
 C279 C 0.23197 0.14243 0.04616
 C280 C 0.24820 0.11622 0.03627
 C281 C 0.26515 0.12523 -0.01575
 C282 C 0.28293 0.12517 -0.03353
 C283 C 0.18307 0.12561 0.06627
 C284 C 0.16528 0.12564 0.08405
 H285 H 0.17999 0.14220 0.00543
 H286 H 0.23078 0.17300 0.00704
 H287 H 0.21006 0.09443 -0.01306
 H288 H 0.21747 0.07783 0.04347
 H289 H 0.23820 0.15643 0.06357
 H290 H 0.26826 0.10865 0.04507
 C291 C 0.79796 0.61104 0.48410
 C292 C 0.78519 0.63750 0.49770
 C293 C 0.75597 0.62470 0.49408
 C294 C 0.76841 0.59824 0.48081
 C295 C 0.79485 0.62488 0.45530
 C296 C 0.76563 0.61209 0.45167
 C297 C 0.78242 0.65135 0.46856
 C298 C 0.75286 0.63855 0.46527
 C299 C 0.73429 0.62458 0.51566
 C300 C 0.71645 0.62449 0.53340
 C301 C 0.81652 0.62498 0.43369
 C302 C 0.83432 0.62504 0.41592
 H303 H 0.81675 0.59973 0.49161
 H304 H 0.79299 0.64795 0.51687
 H305 H 0.76241 0.57640 0.48609
 H306 H 0.75782 0.60164 0.43251
 H307 H 0.78841 0.67319 0.46329
 H308 H 0.73407 0.64987 0.45777
 C309 C 0.73616 0.38406 -0.04946
 C310 C 0.73490 0.40082 -0.02181
 C311 C 0.74445 0.37454 -0.00595
 C312 C 0.74604 0.35778 -0.03326
 C313 C 0.70575 0.37486 -0.04489
 C314 C 0.71530 0.34859 -0.02903
 C315 C 0.70416 0.39162 -0.01758
 C316 C 0.71405 0.36534 -0.00139
 C317 C 0.76598 0.37439 0.01576
 C318 C 0.78369 0.37430 0.03362
 C319 C 0.68418 0.37505 -0.06657
 C320 C 0.66642 0.37517 -0.08438
 H321 H 0.74501 0.39176 -0.06947
 H322 H 0.74321 0.42228 -0.01859
 H323 H 0.76351 0.34386 -0.03946
 H324 H 0.70700 0.32711 -0.03225
 H325 H 0.68670 0.40554 -0.01137
 H326 H 0.70520 0.35763 0.01862
 C327 C 0.29421 0.85527 0.51931
 C328 C 0.26277 0.84974 0.52455
 C329 C 0.25568 0.87495 0.50591
 C330 C 0.28679 0.88049 0.50034
 C331 C 0.29462 0.87501 0.54462
 C332 C 0.28754 0.90022 0.52598
 C333 C 0.26351 0.86947 0.55019
 C334 C 0.25609 0.89469 0.53121
 C335 C 0.23401 0.87486 0.48433
 C336 C 0.21620 0.87478 0.46658
 C337 C 0.31631 0.87499 0.56618
 C338 C 0.33414 0.87496 0.58393
 H339 H 0.31012 0.83907 0.51465
 H340 H 0.25233 0.82898 0.52372
 H341 H 0.29611 0.88503 0.47960
 H342 H 0.29797 0.92099 0.52681
 H343 H 0.25418 0.86495 0.57092
 H344 H 0.24018 0.91090 0.53586
   
