data_POSCAR
  _audit_creation_date              2014-09-24
  _audit_creation_method            'ToBaCCo'
  _symmetry_space_group_name_H-M    'P1'
  _symmetry_Int_Tables_number       1
  _symmetry_cell_setting            triclinic
  loop_
  _symmetry_equiv_pos_as_xyz
 x,y,z
_cell_length_a 38.3476
_cell_length_b 40.9143
_cell_length_c 38.9779
_cell_angle_alpha 85.531600
_cell_angle_beta 95.649800
_cell_angle_gamma 94.758900
loop_
  _atom_site_label
  _atom_site_type_symbol
  _atom_site_fract_x
  _atom_site_fract_y
  _atom_site_fract_z
C1 C 0.21861 0.28293 0.28018
 C2 C 0.24220 0.30444 0.25649
 C3 C 0.26114 0.28672 0.23779
 C4 C 0.25493 0.24930 0.24434
 C5 C 0.19581 0.26000 0.25626
 C6 C 0.21497 0.24245 0.23757
 C7 C 0.24338 0.26060 0.30252
 C8 C 0.26230 0.24304 0.28362
 H9 H 0.24358 0.33114 0.25447
 H10 H 0.27046 0.23497 0.22904
 H11 H 0.16727 0.25766 0.25447
 H12 H 0.24535 0.25846 0.33059
 C13 C 0.72246 0.78340 0.28237
 C14 C 0.74596 0.80432 0.25814
 C15 C 0.76490 0.78609 0.23997
 C16 C 0.75877 0.74876 0.24755
 C17 C 0.69967 0.75986 0.25912
 C18 C 0.71880 0.74179 0.24097
 C19 C 0.74729 0.76158 0.30529
 C20 C 0.76621 0.74349 0.28695
 H21 H 0.74704 0.83100 0.25516
 H22 H 0.77430 0.73399 0.23271
 H23 H 0.67112 0.75769 0.25720
 H24 H 0.74920 0.76006 0.33336
 C25 C 0.71727 0.28108 0.77841
 C26 C 0.73943 0.30077 0.75525
 C27 C 0.75844 0.28147 0.73559
 C28 C 0.75198 0.24614 0.74251
 C29 C 0.69347 0.25792 0.75543
 C30 C 0.71180 0.23961 0.73666
 C31 C 0.74186 0.25853 0.80082
 C32 C 0.76001 0.24023 0.78187
 H33 H 0.74142 0.32750 0.75290
 H34 H 0.76681 0.23114 0.72719
 H35 H 0.66495 0.25598 0.75433
 H36 H 0.74437 0.25689 0.82890
 C37 C 0.21927 0.77992 0.78262
 C38 C 0.24247 0.80058 0.75790
 C39 C 0.26133 0.78212 0.73990
 C40 C 0.25544 0.74488 0.74810
 C41 C 0.19640 0.75594 0.75993
 C42 C 0.21548 0.73768 0.74192
 C43 C 0.24442 0.75852 0.80568
 C44 C 0.26328 0.74024 0.78750
 H45 H 0.24394 0.82727 0.75499
 H46 H 0.27089 0.72993 0.73337
 H47 H 0.16786 0.75363 0.75826
 H48 H 0.24698 0.75779 0.83374
 C49 C 0.05779 0.04579 0.00726
 H50 H 0.05782 0.04867 -0.02056
 C51 C 0.07909 0.06733 0.02788
 H52 H 0.09569 0.08683 0.01597
 C53 C 0.03523 0.01762 0.05685
 H54 H 0.01754 -0.00123 0.06804
 C55 C 0.05613 0.03860 0.07839
 H56 H 0.05470 0.03561 0.10609
 N57 N 0.03655 0.02144 0.02197
 C58 C 0.01491 -0.05164 -0.05482
 H59 H -0.01352 -0.05356 -0.05719
 C60 C 0.03300 -0.07119 -0.07375
 H61 H 0.01851 -0.08817 -0.09091
 C62 C 0.06865 -0.02755 -0.02916
 H63 H 0.08246 -0.01092 -0.01137
 C64 C 0.08775 -0.04669 -0.04759
 H65 H 0.11621 -0.04450 -0.04418
 Zn66 Zn 0.00650 -0.00509 -0.00792
 N67 N 0.03288 -0.03010 -0.03334
 C68 C -0.02160 0.02398 -0.07282
 N69 N -0.02078 0.02369 -0.03778
 C70 C -0.03892 0.04487 -0.02251
 C71 C -0.05979 0.06681 -0.04261
 C72 C -0.04219 0.04559 -0.09391
 C73 C -0.00785 -0.05811 0.04008
 C74 C -0.02840 -0.07990 0.06061
 C75 C -0.08006 -0.05451 0.03413
 C76 C -0.05857 -0.03318 0.01413
 N77 N -0.02308 -0.03489 0.01793
 H78 H -0.00639 0.00752 -0.08448
 H79 H -0.03736 0.04445 0.00539
 H80 H -0.07450 0.08329 -0.03021
 H81 H -0.04305 0.04550 -0.12177
 H82 H 0.02037 -0.05925 0.04220
 H83 H -0.01603 -0.09784 0.07872
 H84 H -0.10823 -0.05260 0.03142
 H85 H -0.07033 -0.01519 -0.00419
 C86 C 0.06974 -0.06863 -0.07012
 C87 C 0.07815 0.06372 0.06376
 C88 C -0.06479 -0.07783 0.05781
 C89 C -0.06158 0.06706 -0.07862
 C90 C 0.05655 0.54171 0.51211
 H91 H 0.05652 0.54485 0.48429
 C92 C 0.07791 0.56306 0.53290
 H93 H 0.09453 0.58264 0.52114
 C94 C 0.03409 0.51308 0.56150
 H95 H 0.01642 0.49412 0.57255
 C96 C 0.05502 0.53388 0.58321
 H97 H 0.05366 0.53063 0.61092
 N98 N 0.03535 0.51721 0.52663
 C99 C 0.01352 0.44523 0.44869
 H100 H -0.01491 0.44318 0.44649
 C101 C 0.03157 0.42620 0.42914
 H102 H 0.01706 0.40950 0.41170
 C103 C 0.06730 0.46915 0.47444
 H104 H 0.08115 0.48552 0.49247
 C105 C 0.08636 0.45058 0.45538
 H106 H 0.11482 0.45294 0.45853
 Zn107 Zn 0.00521 0.49101 0.49647
 N108 N 0.03153 0.46644 0.47049
 C109 C -0.02279 0.52113 0.43205
 N110 N -0.02202 0.52019 0.46712
 C111 C -0.03996 0.54120 0.48286
 C112 C -0.06038 0.56378 0.46320
 C113 C -0.04295 0.54340 0.41138
 C114 C -0.00935 0.43746 0.54396
 C115 C -0.03010 0.41535 0.56400
 C116 C -0.08159 0.44090 0.53733
 C117 C -0.05991 0.46254 0.51785
 N118 N -0.02442 0.46088 0.52195
 H119 H -0.00774 0.50479 0.42003
 H120 H -0.03842 0.54026 0.51078
 H121 H -0.07476 0.58026 0.47597
 H122 H -0.04364 0.54395 0.38349
 H123 H 0.01889 0.43637 0.54633
 H124 H -0.01788 0.39721 0.58197
 H125 H -0.10976 0.44274 0.53433
 H126 H -0.07153 0.48069 0.49963
 C127 C 0.06831 0.42901 0.43247
 C128 C 0.07703 0.55913 0.56877
 C129 C -0.06653 0.41731 0.56082
 C130 C -0.06198 0.56481 0.42716
 C131 C 0.55223 0.04268 0.50781
 H132 H 0.55277 0.04553 0.48003
 C133 C 0.57286 0.06448 0.52868
 H134 H 0.58949 0.08411 0.51703
 C135 C 0.52907 0.01431 0.55698
 H136 H 0.51139 -0.00472 0.56790
 C137 C 0.54923 0.03558 0.57876
 H138 H 0.54727 0.03261 0.60639
 N139 N 0.53106 0.01807 0.52219
 C140 C 0.51191 -0.05461 0.44471
 H141 H 0.48348 -0.05713 0.44216
 C142 C 0.53068 -0.07345 0.42564
 H143 H 0.51673 -0.09047 0.40820
 C144 C 0.56496 -0.02975 0.47095
 H145 H 0.57825 -0.01312 0.48903
 C146 C 0.58472 -0.04813 0.45239
 H147 H 0.61317 -0.04536 0.45597
 Zn148 Zn 0.50192 -0.00892 0.49200
 N149 N 0.52921 -0.03302 0.46653
 C150 C 0.47387 0.02029 0.42719
 N151 N 0.47408 0.01939 0.46221
 C152 C 0.45525 0.03994 0.47756
 C153 C 0.43458 0.06210 0.45754
 C154 C 0.45350 0.04213 0.40617
 C155 C 0.48882 -0.06225 0.53983
 C156 C 0.46881 -0.08446 0.56043
 C157 C 0.41635 -0.06062 0.53366
 C158 C 0.43732 -0.03881 0.51360
 N159 N 0.47293 -0.03953 0.51755
 H160 H 0.48964 0.00434 0.41548
 H161 H 0.45635 0.03906 0.50546
 H162 H 0.41962 0.07832 0.47000
 H163 H 0.45338 0.04274 0.37832
 H164 H 0.51714 -0.06257 0.54209
 H165 H 0.48171 -0.10191 0.57876
 H166 H 0.38809 -0.05943 0.53092
 H167 H 0.42509 -0.02117 0.49518
 C168 C 0.56741 -0.07009 0.42948
 C169 C 0.57124 0.06091 0.56448
 C170 C 0.43229 -0.08337 0.55755
 C171 C 0.43365 0.06315 0.42154
 C172 C 0.56223 0.54423 0.01128
 H173 H 0.56238 0.54723 -0.01653
 C174 C 0.58342 0.56571 0.03207
 H175 H 0.60010 0.58524 0.02030
 C176 C 0.53924 0.51604 0.06063
 H177 H 0.52133 0.49727 0.07166
 C178 C 0.56000 0.53697 0.08233
 H179 H 0.55826 0.53400 0.10999
 N180 N 0.54076 0.51995 0.02579
 C181 C 0.51744 0.44796 -0.05206
 H182 H 0.48901 0.44629 -0.05408
 C183 C 0.53499 0.42855 -0.07165
 H184 H 0.52010 0.41193 -0.08895
 C185 C 0.57169 0.47129 -0.02672
 H186 H 0.58591 0.48760 -0.00883
 C187 C 0.59027 0.45231 -0.04583
 H188 H 0.61874 0.45429 -0.04284
 Zn189 Zn 0.51022 0.49410 -0.00436
 N190 N 0.53592 0.46905 -0.03043
 C191 C 0.48186 0.52426 -0.06866
 N192 N 0.48336 0.52366 -0.03356
 C193 C 0.46614 0.54509 -0.01764
 C194 C 0.44558 0.56768 -0.03710
 C195 C 0.46153 0.54651 -0.08914
 C196 C 0.49474 0.44094 0.04328
 C197 C 0.47361 0.41945 0.06357
 C198 C 0.42272 0.44592 0.03685
 C199 C 0.44475 0.46691 0.01712
 N200 N 0.48014 0.46453 0.02116
 H201 H 0.49633 0.50755 -0.08083
 H202 H 0.46820 0.54437 0.01029
 H203 H 0.43166 0.58440 -0.02419
 H204 H 0.46014 0.54670 -0.11705
 H205 H 0.52289 0.43927 0.04560
 H206 H 0.48547 0.40120 0.08169
 H207 H 0.39465 0.44838 0.03395
 H208 H 0.43349 0.48518 -0.00119
 C209 C 0.57173 0.43084 -0.06855
 C210 C 0.58214 0.56211 0.06789
 C211 C 0.43732 0.42223 0.06052
 C212 C 0.44311 0.56826 -0.07315
 C213 C 0.12460 -0.12538 -0.12454
 C214 C 0.16015 -0.13046 -0.11343
 C215 C 0.17933 -0.14998 -0.13237
 C216 C 0.16285 -0.16429 -0.16233
 C217 C 0.12729 -0.15930 -0.17338
 C218 C 0.10810 -0.13978 -0.15443
 C219 C 0.07258 -0.13513 -0.16599
 C220 C 0.05647 -0.14935 -0.19544
 C221 C 0.07523 -0.16843 -0.21396
 C222 C 0.11024 -0.17344 -0.20319
 C223 C 0.21482 -0.15473 -0.12075
 C224 C 0.23092 -0.14057 -0.09127
 C225 C 0.21217 -0.12146 -0.07276
 C226 C 0.17719 -0.11637 -0.08359
 C227 C 0.18253 -0.18403 -0.18180
 C228 C 0.19901 -0.20034 -0.19791
 C229 C 0.10507 -0.10530 -0.10528
 C230 C 0.08892 -0.08859 -0.08926
 H231 H 0.05689 -0.12050 -0.15244
 H232 H 0.02928 -0.14554 -0.20392
 H233 H 0.06259 -0.17943 -0.23681
 H234 H 0.12373 -0.18849 -0.21844
 H235 H 0.23049 -0.16940 -0.13428
 H236 H 0.25808 -0.14445 -0.08275
 H237 H 0.22480 -0.11051 -0.04988
 H238 H 0.16371 -0.10132 -0.06832
 C239 C 0.12343 0.37444 0.37593
 C240 C 0.10617 0.34785 0.35824
 C241 C 0.12549 0.32903 0.33868
 C242 C 0.16196 0.33691 0.33693
 C243 C 0.17922 0.36351 0.35462
 C244 C 0.15990 0.38232 0.37418
 C245 C 0.17774 0.40880 0.39164
 C246 C 0.21363 0.41646 0.38981
 C247 C 0.23252 0.39807 0.37067
 C248 C 0.21565 0.37187 0.35322
 C249 C 0.10767 0.30256 0.32120
 C250 C 0.07177 0.29492 0.32299
 C251 C 0.05287 0.31332 0.34211
 C252 C 0.06973 0.33951 0.35959
 C253 C 0.18171 0.31773 0.31693
 C254 C 0.19827 0.30194 0.30034
 C255 C 0.10372 0.39368 0.39593
 C256 C 0.08749 0.40974 0.41257
 H257 H 0.16419 0.42383 0.40686
 H258 H 0.22685 0.43679 0.40332
 H259 H 0.26039 0.40412 0.36932
 H260 H 0.23148 0.35829 0.33867
 H261 H 0.12124 0.28753 0.30599
 H262 H 0.05855 0.27460 0.30947
 H263 H 0.02499 0.30728 0.34342
 H264 H 0.05391 0.35311 0.37411
 C265 C 0.62460 -0.12450 0.37484
 C266 C 0.60740 -0.14546 0.35016
 C267 C 0.62745 -0.16427 0.33131
 C268 C 0.66457 -0.16200 0.33723
 C269 C 0.68177 -0.14104 0.36190
 C270 C 0.66173 -0.12223 0.38076
 C271 C 0.67952 -0.10145 0.40528
 C272 C 0.71606 -0.09932 0.41101
 C273 C 0.73565 -0.11772 0.39258
 C274 C 0.71885 -0.13838 0.36828
 C275 C 0.60968 -0.18506 0.30678
 C276 C 0.57314 -0.18720 0.30104
 C277 C 0.55354 -0.16881 0.31948
 C278 C 0.57033 -0.14814 0.34379
 C279 C 0.68504 -0.18119 0.31796
 C280 C 0.70198 -0.19715 0.30193
 C281 C 0.60416 -0.10528 0.39412
 C282 C 0.58731 -0.08927 0.41020
 H283 H 0.66543 -0.08664 0.42026
 H284 H 0.72924 -0.08330 0.42987
 H285 H 0.76403 -0.11597 0.39713
 H286 H 0.73522 -0.15221 0.35459
 H287 H 0.62378 -0.19985 0.29180
 H288 H 0.55997 -0.20322 0.28219
 H289 H 0.52516 -0.17056 0.31493
 H290 H 0.55395 -0.13433 0.35749
 C291 C 0.62525 0.37494 -0.12520
 C292 C 0.60667 0.35271 -0.14780
 C293 C 0.62541 0.33346 -0.16748
 C294 C 0.66262 0.33658 -0.16444
 C295 C 0.68120 0.35877 -0.14180
 C296 C 0.66247 0.37801 -0.12212
 C297 C 0.68163 0.40002 -0.09966
 C298 C 0.71824 0.40294 -0.09672
 C299 C 0.73656 0.38413 -0.11597
 C300 C 0.71839 0.36226 -0.13829
 C301 C 0.60626 0.31141 -0.18990
 C302 C 0.56965 0.30844 -0.19280
 C303 C 0.55132 0.32726 -0.17356
 C304 C 0.56948 0.34918 -0.15128
 C305 C 0.68177 0.31700 -0.18461
 C306 C 0.69774 0.30079 -0.20132
 C307 C 0.60614 0.39468 -0.10516
 C308 C 0.59038 0.41113 -0.08848
 H309 H 0.66856 0.41518 -0.08414
 H310 H 0.73248 0.41990 -0.07941
 H311 H 0.76501 0.38650 -0.11359
 H312 H 0.73382 0.34816 -0.15271
 H313 H 0.61934 0.29624 -0.20540
 H314 H 0.55542 0.29145 -0.21007
 H315 H 0.52288 0.32486 -0.17590
 H316 H 0.55406 0.36327 -0.13685
 C317 C -0.12690 0.12948 -0.13529
 C318 C -0.16104 0.13088 -0.12480
 C319 C -0.18419 0.15318 -0.14268
 C320 C -0.17307 0.17397 -0.17094
 C321 C -0.13910 0.17229 -0.18171
 C322 C -0.11594 0.14997 -0.16383
 C323 C -0.08208 0.14880 -0.17499
 C324 C -0.07139 0.16912 -0.20302
 C325 C -0.09402 0.19096 -0.22049
 C326 C -0.12753 0.19263 -0.21007
 C327 C -0.21814 0.15421 -0.13163
 C328 C -0.22892 0.13380 -0.10372
 C329 C -0.20630 0.11200 -0.08623
 C330 C -0.17272 0.11045 -0.09653
 C331 C -0.19642 0.19741 -0.18844
 C332 C -0.21611 0.21692 -0.20231
 C333 C -0.10301 0.10735 -0.11622
 C334 C -0.08377 0.08897 -0.09954
 H335 H -0.06356 0.13220 -0.16222
 H336 H -0.04539 0.16791 -0.21122
 H337 H -0.08559 0.20669 -0.24225
 H338 H -0.14422 0.20998 -0.22449
 H339 H -0.23672 0.17074 -0.14441
 H340 H -0.25498 0.13492 -0.09563
 H341 H -0.21479 0.09619 -0.06457
 H342 H -0.15611 0.09306 -0.08210
 C343 C -0.12345 0.63138 0.37192
 C344 C -0.14061 0.65260 0.39063
 C345 C -0.16274 0.67574 0.37268
 C346 C -0.16760 0.67755 0.33611
 C347 C -0.15033 0.65645 0.31738
 C348 C -0.12817 0.63330 0.33535
 C349 C -0.11122 0.61244 0.31609
 C350 C -0.11603 0.61438 0.28010
 C351 C -0.13771 0.63700 0.26254
 C352 C -0.15473 0.65786 0.28083
 C353 C -0.17966 0.69664 0.39196
 C354 C -0.17486 0.69472 0.42794
 C355 C -0.15323 0.67209 0.44550
 C356 C -0.13624 0.65121 0.42720
 C357 C -0.19066 0.70088 0.31793
 C358 C -0.21013 0.72030 0.30347
 C359 C -0.10124 0.60750 0.39046
 C360 C -0.08314 0.58789 0.40670
 H361 H -0.09410 0.59447 0.32861
 H362 H -0.10286 0.59824 0.26576
 H363 H -0.14137 0.63839 0.23458
 H364 H -0.17132 0.67506 0.26604
 H365 H -0.19674 0.71467 0.37949
 H366 H -0.18801 0.71088 0.44227
 H367 H -0.14959 0.67068 0.47345
 H368 H -0.11968 0.63403 0.44206
 C369 C 0.37356 0.13004 0.36500
 C370 C 0.37557 0.16248 0.37574
 C371 C 0.35350 0.18586 0.35814
 C372 C 0.32954 0.17666 0.32991
 C373 C 0.32801 0.14442 0.31873
 C374 C 0.35009 0.12103 0.33634
 C375 C 0.34797 0.08891 0.32481
 C376 C 0.32475 0.08016 0.29664
 C377 C 0.30318 0.10304 0.27940
 C378 C 0.30465 0.13483 0.29023
 C379 C 0.35587 0.21809 0.36945
 C380 C 0.37938 0.22697 0.39735
 C381 C 0.40095 0.20412 0.41457
 C382 C 0.39918 0.17221 0.40402
 C383 C 0.30596 0.20016 0.31296
 C384 C 0.28617 0.21971 0.29939
 C385 C 0.39501 0.10585 0.38406
 C386 C 0.41271 0.08615 0.40070
 H387 H 0.36427 0.07029 0.33736
 H388 H 0.32351 0.05550 0.28812
 H389 H 0.28523 0.09613 0.25751
 H390 H 0.28737 0.15177 0.27598
 H391 H 0.33966 0.23676 0.35687
 H392 H 0.38086 0.25174 0.40564
 H393 H 0.41918 0.21114 0.43622
 H394 H 0.41654 0.15533 0.41823
 C395 C 0.37985 0.63346 -0.12817
 C396 C 0.36909 0.63056 -0.16368
 C397 C 0.34574 0.65274 -0.18149
 C398 C 0.33333 0.67767 -0.16369
 C399 C 0.34444 0.68082 -0.12829
 C400 C 0.36777 0.65865 -0.11048
 C401 C 0.37841 0.66222 -0.07505
 C402 C 0.36636 0.68699 -0.05774
 C403 C 0.34355 0.70867 -0.07516
 C404 C 0.33262 0.70574 -0.11002
 C405 C 0.33524 0.64930 -0.21695
 C406 C 0.34746 0.62466 -0.23432
 C407 C 0.37029 0.60297 -0.21689
 C408 C 0.38106 0.60577 -0.18197
 C409 C 0.30874 0.69979 -0.18155
 C410 C 0.28812 0.71820 -0.19590
 C411 C 0.40277 0.61021 -0.10958
 C412 C 0.42141 0.59101 -0.09341
 H413 H 0.39616 0.64599 -0.06037
 H414 H 0.37478 0.68937 -0.03065
 H415 H 0.33426 0.72788 -0.06160
 H416 H 0.31487 0.72322 -0.12244
 H417 H 0.31753 0.66560 -0.23161
 H418 H 0.33917 0.62238 -0.26144
 H419 H 0.37971 0.58387 -0.23050
 H420 H 0.39887 0.58835 -0.16953
 C421 C -0.12779 -0.13476 0.12146
 C422 C -0.16388 -0.12905 0.11949
 C423 C -0.18588 -0.14652 0.14310
 C424 C -0.17167 -0.16962 0.16853
 C425 C -0.13580 -0.17593 0.16994
 C426 C -0.11378 -0.15844 0.14633
 C427 C -0.07795 -0.16501 0.14838
 C428 C -0.06427 -0.18825 0.17301
 C429 C -0.08580 -0.20537 0.19607
 C430 C -0.12118 -0.19937 0.19469
 C431 C -0.22183 -0.14024 0.14076
 C432 C -0.23564 -0.11737 0.11580
 C433 C -0.21413 -0.10028 0.09272
 C434 C -0.17865 -0.10595 0.09442
 C435 C -0.19378 -0.18610 0.19377
 C436 C -0.21243 -0.19912 0.21482
 C437 C -0.10499 -0.11549 0.09862
 C438 C -0.08643 -0.09873 0.07988
 H439 H -0.06019 -0.15235 0.13095
 H440 H -0.03681 -0.19300 0.17419
 H441 H -0.07505 -0.22340 0.21514
 H442 H -0.13690 -0.21332 0.21314
 H443 H -0.23964 -0.15294 0.15811
 H444 H -0.26319 -0.11289 0.11437
 H445 H -0.22498 -0.08255 0.07337
 H446 H -0.16300 -0.09208 0.07585
 C447 C -0.13135 0.35967 0.62211
 C448 C -0.16714 0.36652 0.61988
 C449 C -0.19009 0.34898 0.64256
 C450 C -0.17712 0.32468 0.66732
 C451 C -0.14158 0.31720 0.66892
 C452 C -0.11861 0.33477 0.64626
 C453 C -0.08314 0.32703 0.64850
 C454 C -0.07072 0.30257 0.67240
 C455 C -0.09318 0.28537 0.69454
 C456 C -0.12824 0.29252 0.69296
 C457 C -0.22570 0.35641 0.63999
 C458 C -0.23829 0.38046 0.61570
 C459 C -0.21586 0.39761 0.59352
 C460 C -0.18068 0.39083 0.59547
 C461 C -0.20012 0.30825 0.69180
 C462 C -0.21946 0.29535 0.71229
 C463 C -0.10759 0.37904 0.60028
 C464 C -0.08849 0.39601 0.58224
 H465 H -0.06470 0.33971 0.63177
 H466 H -0.04351 0.29692 0.67374
 H467 H -0.08341 0.26639 0.71305
 H468 H -0.14473 0.27845 0.71067
 H469 H -0.24420 0.34370 0.65663
 H470 H -0.26561 0.38581 0.61408
 H471 H -0.22577 0.41626 0.57468
 H472 H -0.16430 0.40480 0.57761
 C473 C 0.37240 -0.14040 0.62396
 C474 C 0.37949 -0.13657 0.65984
 C475 C 0.35741 -0.15377 0.68353
 C476 C 0.32839 -0.17473 0.67123
 C477 C 0.32188 -0.17929 0.63546
 C478 C 0.34394 -0.16205 0.61175
 C479 C 0.33677 -0.16680 0.57610
 C480 C 0.30865 -0.18806 0.56421
 C481 C 0.28710 -0.20496 0.58741
 C482 C 0.29350 -0.20070 0.62266
 C483 C 0.36487 -0.14936 0.71925
 C484 C 0.39336 -0.12858 0.73122
 C485 C 0.41497 -0.11177 0.70805
 C486 C 0.40824 -0.11561 0.67275
 C487 C 0.30470 -0.19073 0.69528
 C488 C 0.28496 -0.20338 0.71550
 C489 C 0.39370 -0.12118 0.59972
 C490 C 0.41133 -0.10439 0.58015
 H491 H 0.35284 -0.15424 0.55708
 H492 H 0.30356 -0.19145 0.53686
 H493 H 0.26530 -0.22146 0.57805
 H494 H 0.27604 -0.21440 0.63971
 H495 H 0.34886 -0.16195 0.73830
 H496 H 0.39869 -0.12551 0.75862
 H497 H 0.43708 -0.09566 0.71748
 H498 H 0.42586 -0.10205 0.65577
 C499 C 0.37215 0.36675 0.12313
 C500 C 0.33748 0.37613 0.12365
 C501 C 0.31465 0.35882 0.14658
 C502 C 0.32661 0.33223 0.16885
 C503 C 0.36105 0.32246 0.16789
 C504 C 0.38390 0.33979 0.14497
 C505 C 0.41827 0.32971 0.14458
 C506 C 0.42974 0.30322 0.16622
 C507 C 0.40739 0.28626 0.18862
 C508 C 0.37341 0.29567 0.18957
 C509 C 0.28017 0.36876 0.14676
 C510 C 0.26858 0.39503 0.12490
 C511 C 0.29090 0.41195 0.10246
 C512 C 0.32498 0.40273 0.10174
 C513 C 0.30369 0.31545 0.19319
 C514 C 0.28442 0.30208 0.21350
 C515 C 0.39585 0.38543 0.10076
 C516 C 0.41507 0.40174 0.08233
 H517 H 0.43658 0.34212 0.12756
 H518 H 0.45610 0.29582 0.16558
 H519 H 0.41642 0.26570 0.20536
 H520 H 0.35698 0.28171 0.20740
 H521 H 0.26181 0.35635 0.16372
 H522 H 0.24213 0.40229 0.12536
 H523 H 0.28177 0.43235 0.08552
 H524 H 0.34132 0.41664 0.08380
 C525 C 0.13408 0.12971 0.12578
 C526 C 0.12916 0.16361 0.11899
 C527 C 0.14654 0.18678 0.14147
 C528 C 0.16876 0.17592 0.17058
 C529 C 0.17424 0.14210 0.17698
 C530 C 0.15682 0.11892 0.15452
 C531 C 0.16255 0.08523 0.16155
 C532 C 0.18487 0.07473 0.18995
 C533 C 0.20191 0.09740 0.21190
 C534 C 0.19677 0.13073 0.20562
 C535 C 0.14108 0.22052 0.13425
 C536 C 0.11911 0.23107 0.10562
 C537 C 0.10213 0.20842 0.08363
 C538 C 0.10699 0.17505 0.09011
 C539 C 0.18543 0.19946 0.19423
 C540 C 0.19897 0.21905 0.21395
 C541 C 0.11502 0.10596 0.10368
 C542 C 0.09855 0.08654 0.08542
 H543 H 0.14992 0.06668 0.14518
 H544 H 0.18897 0.04887 0.19494
 H545 H 0.21919 0.08912 0.23394
 H546 H 0.21065 0.14743 0.22340
 H547 H 0.15374 0.23908 0.15058
 H548 H 0.11526 0.25697 0.10047
 H549 H 0.08510 0.21674 0.06142
 H550 H 0.09324 0.15839 0.07222
 C551 C 0.13339 0.62334 0.63254
 C552 C 0.12831 0.62024 0.66818
 C553 C 0.14594 0.64331 0.69063
 C554 C 0.16857 0.66932 0.67732
 C555 C 0.17416 0.67209 0.64180
 C556 C 0.15649 0.64903 0.61934
 C557 C 0.16235 0.65238 0.58390
 C558 C 0.18505 0.67776 0.57104
 C559 C 0.20235 0.70029 0.59301
 C560 C 0.19705 0.69761 0.62801
 C561 C 0.14033 0.63978 0.72614
 C562 C 0.11795 0.61419 0.73909
 C563 C 0.10071 0.59164 0.71714
 C564 C 0.10571 0.59451 0.68208
 C565 C 0.18558 0.69351 0.70007
 C566 C 0.19934 0.71363 0.71909
 C567 C 0.11419 0.60053 0.60946
 C568 C 0.09760 0.58161 0.59070
 H569 H 0.14953 0.63542 0.56582
 H570 H 0.18926 0.67994 0.54387
 H571 H 0.21996 0.71995 0.58289
 H572 H 0.21112 0.71571 0.64409
 H573 H 0.15318 0.65669 0.74425
 H574 H 0.11398 0.61186 0.76631
 H575 H 0.08335 0.57179 0.72733
 H576 H 0.09173 0.57632 0.66606
 C577 C 0.62574 0.12650 0.62794
 C578 C 0.60811 0.13884 0.65390
 C579 C 0.62616 0.16191 0.67610
 C580 C 0.66175 0.17249 0.67226
 C581 C 0.67942 0.16009 0.64639
 C582 C 0.66136 0.13703 0.62415
 C583 C 0.67955 0.12502 0.59845
 C584 C 0.71460 0.13548 0.59483
 C585 C 0.73227 0.15801 0.61658
 C586 C 0.71501 0.17026 0.64211
 C587 C 0.60795 0.17393 0.70181
 C588 C 0.57292 0.16344 0.70548
 C589 C 0.55528 0.14087 0.68378
 C590 C 0.57253 0.12863 0.65825
 C591 C 0.68003 0.19621 0.69487
 C592 C 0.69476 0.21596 0.71381
 C593 C 0.60711 0.10313 0.60514
 C594 C 0.59108 0.08381 0.58644
 H595 H 0.66691 0.10746 0.58093
 H596 H 0.72813 0.12604 0.57504
 H597 H 0.75950 0.16604 0.61366
 H598 H 0.72985 0.18775 0.65841
 H599 H 0.62053 0.19152 0.71933
 H600 H 0.55940 0.17289 0.72528
 H601 H 0.52806 0.13280 0.68674
 H602 H 0.55766 0.11111 0.64201
 C603 C 0.63604 0.62875 0.13047
 C604 C 0.67180 0.62608 0.14259
 C605 C 0.68931 0.64932 0.16494
 C606 C 0.67093 0.67508 0.17502
 C607 C 0.63524 0.67789 0.16272
 C608 C 0.61774 0.65466 0.14038
 C609 C 0.58203 0.65796 0.12847
 C610 C 0.56412 0.68346 0.13835
 C611 C 0.58123 0.70616 0.16021
 C612 C 0.61637 0.70354 0.17233
 C613 C 0.72503 0.64611 0.17679
 C614 C 0.74297 0.62067 0.16683
 C615 C 0.72587 0.59796 0.14496
 C616 C 0.69069 0.60050 0.13290
 C617 C 0.68853 0.69856 0.19825
 C618 C 0.70260 0.71820 0.21766
 C619 C 0.61786 0.60477 0.10811
 C620 C 0.60201 0.58514 0.08968
 H621 H 0.56756 0.64093 0.11142
 H622 H 0.53682 0.68561 0.12899
 H623 H 0.56721 0.72592 0.16782
 H624 H 0.62852 0.72182 0.18927
 H625 H 0.73946 0.66320 0.19382
 H626 H 0.77030 0.61857 0.17614
 H627 H 0.73992 0.57824 0.13729
 H628 H 0.67850 0.58226 0.11593
   
