data_POSCAR
  _audit_creation_date              2014-09-24
  _audit_creation_method            'ToBaCCo'
  _symmetry_space_group_name_H-M    'P1'
  _symmetry_Int_Tables_number       1
  _symmetry_cell_setting            triclinic
  loop_
  _symmetry_equiv_pos_as_xyz
 x,y,z
_cell_length_a 19.5449
_cell_length_b 19.5457
_cell_length_c 19.5680
_cell_angle_alpha 89.918000
_cell_angle_beta 89.949700
_cell_angle_gamma 90.003700
loop_
  _atom_site_label
  _atom_site_type_symbol
  _atom_site_fract_x
  _atom_site_fract_y
  _atom_site_fract_z
C1 C -0.09197 0.51518 0.27970
 C2 C -0.02826 0.52826 0.24990
 C3 C -0.01518 0.59201 0.22014
 C4 C -0.06578 0.64257 0.21931
 C5 C -0.12975 0.62980 0.24998
 C6 C -0.14251 0.56580 0.28062
 C7 C 0.02483 0.47520 0.24990
 C8 C 0.01177 0.41141 0.22037
 C9 C 0.06243 0.36099 0.21955
 C10 C 0.12635 0.37380 0.24986
 C11 C 0.13912 0.43771 0.28019
 C12 C 0.08863 0.48830 0.27941
 H13 H -0.10155 0.46581 0.30333
 H14 H 0.03416 0.60160 0.19649
 H15 H -0.03750 0.40156 0.19686
 H16 H 0.09845 0.53756 0.30292
 H17 H -0.16899 0.66906 0.25002
 H18 H 0.16560 0.33460 0.24985
 C19 C -0.08996 0.48624 0.72358
 C20 C -0.02630 0.47339 0.75348
 C21 C -0.01294 0.40949 0.78282
 C22 C -0.06323 0.35858 0.78302
 C23 C -0.12707 0.37119 0.75221
 C24 C -0.14005 0.43529 0.72211
 C25 C 0.02660 0.52666 0.75346
 C26 C 0.01330 0.59046 0.78289
 C27 C 0.06368 0.64127 0.78319
 C28 C 0.12756 0.62868 0.75237
 C29 C 0.14048 0.56470 0.72216
 C30 C 0.09029 0.51384 0.72354
 H31 H -0.09991 0.53557 0.70014
 H32 H 0.03637 0.39998 0.80648
 H33 H -0.03604 0.59993 0.80658
 H34 H 0.10020 0.46458 0.70005
 H35 H -0.16611 0.33177 0.75156
 H36 H 0.16669 0.66802 0.75180
 C37 C 0.27983 -0.09166 0.51161
 C38 C 0.24993 -0.02798 0.52462
 C39 C 0.22059 -0.01488 0.58848
 C40 C 0.22035 -0.06531 0.63915
 C41 C 0.25107 -0.12914 0.62649
 C42 C 0.28126 -0.14203 0.56244
 C43 C 0.24959 0.02511 0.47151
 C44 C 0.21968 0.01205 0.40795
 C45 C 0.21847 0.06281 0.35749
 C46 C 0.24889 0.12685 0.37021
 C47 C 0.27962 0.13955 0.43395
 C48 C 0.27913 0.08895 0.48444
 H49 H 0.30318 -0.10132 0.46220
 H50 H 0.19684 0.03431 0.59824
 H51 H 0.19621 -0.03735 0.39842
 H52 H 0.30291 0.09872 0.53354
 H53 H 0.25145 -0.16812 0.66598
 H54 H 0.24871 0.16628 0.33117
 C55 C 0.72082 -0.09169 0.48856
 C56 C 0.75063 -0.02797 0.47534
 C57 C 0.77987 -0.01481 0.41142
 C58 C 0.78010 -0.06523 0.36089
 C59 C 0.74949 -0.12909 0.37375
 C60 C 0.71940 -0.14203 0.43786
 C61 C 0.75094 0.02511 0.52829
 C62 C 0.78077 0.01202 0.59192
 C63 C 0.78192 0.06277 0.64223
 C64 C 0.75154 0.12680 0.62932
 C65 C 0.72091 0.13951 0.56552
 C66 C 0.72143 0.08894 0.51516
 H67 H 0.69753 -0.10139 0.53801
 H68 H 0.80355 0.03442 0.40149
 H69 H 0.80422 -0.03739 0.60160
 H70 H 0.69771 0.09873 0.46600
 H71 H 0.74910 -0.16806 0.33435
 H72 H 0.75168 0.16623 0.66826
 C73 C 0.48620 0.27692 1.09021
 C74 C 0.47335 0.24689 1.02669
 C75 C 0.40951 0.21738 1.01357
 C76 C 0.35867 0.21712 1.06392
 C77 C 0.37130 0.24806 1.12762
 C78 C 0.43533 0.27836 1.14039
 C79 C 0.52660 0.24682 0.97375
 C80 C 0.59045 0.21735 0.98699
 C81 C 0.64122 0.21688 0.93656
 C82 C 0.62851 0.24757 0.87269
 C83 C 0.56450 0.27782 0.85980
 C84 C 0.51369 0.27661 0.91005
 H85 H 0.53549 0.30047 1.09999
 H86 H 0.40002 0.19361 0.96438
 H87 H 0.60001 0.19375 1.03632
 H88 H 0.46440 0.30013 0.90015
 H89 H 0.33195 0.24865 1.16672
 H90 H 0.66782 0.24800 0.83353
 C91 C 0.51368 0.72329 1.08985
 C92 C 0.52655 0.75293 1.02606
 C93 C 0.59041 0.78232 1.01256
 C94 C 0.64122 0.78283 1.06285
 C95 C 0.62857 0.75231 1.12682
 C96 C 0.56454 0.72216 1.13994
 C97 C 0.47326 0.75282 0.97330
 C98 C 0.40939 0.78216 0.98666
 C99 C 0.35851 0.78241 0.93644
 C100 C 0.37113 0.75164 0.87265
 C101 C 0.43520 0.72152 0.85966
 C102 C 0.48611 0.72294 0.90970
 H103 H 0.46438 0.69983 1.09994
 H104 H 0.59993 0.80583 0.96317
 H105 H 0.39989 0.80584 1.03591
 H106 H 0.53544 0.69952 0.89972
 H107 H 0.66791 0.75193 1.16586
 H108 H 0.33174 0.75105 0.83365
 B109 B 0.99990 1.06948 0.04291
 B110 B 1.00031 1.06951 -0.04326
 B111 B 1.06989 1.04287 0.00005
 B112 B 1.04297 0.99969 0.06976
 B113 B 0.95668 0.99980 0.06948
 B114 B 0.93033 1.04290 -0.00031
 B115 B 1.00017 0.92997 -0.04305
 B116 B 0.99990 0.92997 0.04315
 B117 B 0.93031 0.95664 -0.00025
 B118 B 0.95721 0.99972 -0.06988
 B119 B 1.04350 0.99976 -0.06963
 B120 B 1.06983 0.95656 0.00025
 B121 B 0.57013 0.50031 0.45681
 B122 B 0.50034 0.54358 0.43038
 B123 B 0.50038 0.45730 0.43014
 B124 B 0.54346 0.43041 0.49973
 B125 B 0.57006 0.50006 0.54302
 B126 B 0.54348 0.56993 0.50014
 B127 B 0.43054 0.50001 0.54306
 B128 B 0.50022 0.45678 0.56953
 B129 B 0.50033 0.54307 0.56972
 B130 B 0.45722 0.56996 0.50009
 B131 B 0.43060 0.50043 0.45690
 B132 B 0.45715 0.43043 0.49983
 C133 C 1.04791 1.29745 0.18544
 C134 C 1.03324 1.24600 0.15492
 C135 C 1.01617 1.18677 0.11754
 C136 C 1.00484 1.13589 0.08481
 C137 C 0.94812 0.70272 0.18676
 C138 C 0.96339 0.75407 0.15605
 C139 C 0.98165 0.81298 0.11838
 C140 C 0.99406 0.86360 0.08539
 C141 C 0.95074 1.29815 -0.18507
 C142 C 0.96569 1.24642 -0.15494
 C143 C 0.98330 1.18699 -0.11788
 C144 C 0.99508 1.13601 -0.08527
 C145 C 1.04979 0.70158 -0.18478
 C146 C 1.03492 0.75323 -0.15458
 C147 C 1.01738 0.81258 -0.11748
 C148 C 1.00558 0.86350 -0.08491
 C149 C 1.18584 1.04912 0.29748
 C150 C 1.15517 1.03435 0.24610
 C151 C 1.11765 1.01686 0.18702
 C152 C 1.08486 1.00507 0.13625
 C153 C 1.18644 0.94949 -0.29719
 C154 C 1.15599 0.96464 -0.24577
 C155 C 1.11860 0.98243 -0.18666
 C156 C 1.08576 0.99435 -0.13591
 C157 C 0.81389 0.94962 0.29717
 C158 C 0.84426 0.96480 0.24569
 C159 C 0.88159 0.98260 0.18652
 C160 C 0.91442 0.99449 0.13574
 C161 C 0.81446 1.04907 -0.29770
 C162 C 0.84507 1.03431 -0.24627
 C163 C 0.88254 1.01683 -0.18713
 C164 C 0.91531 1.00508 -0.13633
 C165 C 1.29830 1.18502 0.05011
 C166 C 1.24664 1.15474 0.03521
 C167 C 1.18730 1.11755 0.01755
 C168 C 1.13639 1.08490 0.00561
 C169 C 0.70160 1.18481 -0.04962
 C170 C 0.75334 1.15459 -0.03488
 C171 C 0.81282 1.11748 -0.01749
 C172 C 0.86381 1.08489 -0.00578
 C173 C 1.29815 0.81441 -0.04956
 C174 C 1.24650 0.84464 -0.03454
 C175 C 1.18719 0.88181 -0.01682
 C176 C 1.13629 0.91449 -0.00496
 C177 C 0.70157 0.81485 0.04882
 C178 C 0.75329 0.84504 0.03394
 C179 C 0.81276 0.88212 0.01651
 C180 C 0.86378 0.91471 0.00488
 C181 C 0.79738 0.55190 0.31321
 C182 C 0.74605 0.53667 0.34396
 C183 C 0.68715 0.51845 0.38164
 C184 C 0.63653 0.50609 0.41463
 C185 C 0.20267 0.45228 0.31428
 C186 C 0.25412 0.46701 0.34480
 C187 C 0.31334 0.48415 0.38219
 C188 C 0.36420 0.49551 0.41495
 C189 C 0.79668 0.44981 0.68737
 C190 C 0.74560 0.46485 0.65630
 C191 C 0.68687 0.48261 0.61832
 C192 C 0.63633 0.49456 0.58519
 C193 C 0.20379 0.55016 0.68745
 C194 C 0.25489 0.53507 0.65638
 C195 C 0.31364 0.51727 0.61841
 C196 C 0.36421 0.50533 0.58526
 C197 C 0.55003 0.68773 0.20340
 C198 C 0.53506 0.65688 0.25466
 C199 C 0.51745 0.61907 0.31357
 C200 C 0.50565 0.58596 0.36419
 C201 C 0.44979 0.68689 0.79640
 C202 C 0.46494 0.65592 0.74534
 C203 C 0.48284 0.61809 0.68661
 C204 C 0.49487 0.58508 0.63606
 C205 C 0.44992 0.31317 0.20356
 C206 C 0.46504 0.34427 0.25456
 C207 C 0.48290 0.38222 0.31325
 C208 C 0.49491 0.41528 0.36377
 C209 C 0.54993 0.31241 0.79642
 C210 C 0.53495 0.34336 0.74523
 C211 C 0.51732 0.38126 0.68636
 C212 C 0.50551 0.41440 0.63577
 C213 C 0.68678 0.79788 0.45160
 C214 C 0.65608 0.74639 0.46626
 C215 C 0.61849 0.68719 0.48352
 C216 C 0.58558 0.63636 0.49505
 C217 C 0.68676 0.20308 0.55062
 C218 C 0.65611 0.25437 0.53526
 C219 C 0.61852 0.31333 0.51719
 C220 C 0.58560 0.36402 0.50510
 C221 C 0.31394 0.79789 0.54887
 C222 C 0.34467 0.74641 0.53429
 C223 C 0.38226 0.68723 0.51706
 C224 C 0.41514 0.63641 0.50545
 C225 C 0.31379 0.20314 0.44867
 C226 C 0.34444 0.25443 0.46395
 C227 C 0.38203 0.31339 0.48202
 C228 C 0.41495 0.36405 0.49419
   
