data_POSCAR
  _audit_creation_date              2014-09-24
  _audit_creation_method            'ToBaCCo'
  _symmetry_space_group_name_H-M    'P1'
  _symmetry_Int_Tables_number       1
  _symmetry_cell_setting            triclinic
  loop_
  _symmetry_equiv_pos_as_xyz
 x,y,z
_cell_length_a 32.9442
_cell_length_b 33.3934
_cell_length_c 8.6601
_cell_angle_alpha 90.404500
_cell_angle_beta 90.059300
_cell_angle_gamma 90.094900
loop_
  _atom_site_label
  _atom_site_type_symbol
  _atom_site_fract_x
  _atom_site_fract_y
  _atom_site_fract_z
O1 O 0.21836 0.29181 0.10650
 O2 O 0.29539 0.21260 0.14283
 O3 O 0.21804 0.21449 0.07384
 O4 O 0.29550 0.28985 0.17598
 O5 O 0.28048 0.28367 0.42351
 O6 O 0.20307 0.20830 0.32136
 O7 O 0.28036 0.20640 0.39033
 O8 O 0.20329 0.28560 0.35397
 Cu9 Cu 0.25839 0.25284 0.10002
 Cu10 Cu 0.24022 0.24529 0.39703
 C11 C 0.19755 0.30180 0.22374
 C12 C 0.30124 0.19649 0.27315
 C13 C 0.19712 0.19898 0.18089
 C14 C 0.30137 0.29921 0.31647
 O15 O 0.79562 0.29004 0.32283
 O16 O 0.71820 0.21477 0.42172
 O17 O 0.79553 0.21281 0.35299
 O18 O 0.71849 0.29205 0.39201
 O19 O 0.70335 0.28557 0.14425
 O20 O 0.78042 0.20633 0.10520
 O21 O 0.70314 0.20831 0.17391
 O22 O 0.78053 0.28359 0.07500
 Cu23 Cu 0.75854 0.25310 0.39720
 Cu24 Cu 0.74028 0.24522 0.09980
 C25 C 0.80145 0.29926 0.18272
 C26 C 0.69724 0.19915 0.31402
 C27 C 0.80133 0.19655 0.22209
 C28 C 0.69764 0.30190 0.27509
 O29 O 0.71963 0.78487 0.57739
 O30 O 0.79660 0.70962 0.67915
 O31 O 0.71942 0.70768 0.61015
 O32 O 0.79700 0.78676 0.64603
 O33 O 0.78208 0.79393 0.89355
 O34 O 0.70446 0.71485 0.85768
 O35 O 0.78170 0.71676 0.92675
 O36 O 0.70475 0.79202 0.82499
 Cu37 Cu 0.75972 0.74649 0.60339
 Cu38 Cu 0.74168 0.75519 0.90051
 C39 C 0.69883 0.80083 0.68451
 C40 C 0.80244 0.70075 0.81962
 C41 C 0.69857 0.69820 0.72746
 C42 C 0.80299 0.80335 0.77631
 O43 O 0.29578 0.78792 0.85540
 O44 O 0.21892 0.70844 0.89538
 O45 O 0.29601 0.71058 0.82555
 O46 O 0.21849 0.78584 0.92473
 O47 O 0.20333 0.79125 0.67698
 O48 O 0.28080 0.71598 0.57780
 O49 O 0.20366 0.71388 0.64769
 O50 O 0.28056 0.79335 0.60768
 Cu51 Cu 0.25889 0.74762 0.90005
 Cu52 Cu 0.24049 0.75423 0.60278
 C53 C 0.30151 0.80369 0.72440
 C54 C 0.19804 0.69802 0.77863
 C55 C 0.30179 0.70085 0.68544
 C56 C 0.19746 0.80093 0.81708
 C57 C 1.00020 0.10314 0.10619
 C58 C 1.03647 0.08453 0.06440
 C59 C 1.03643 0.04431 0.01758
 C60 C 1.00025 0.02137 0.01986
 C61 C 0.96404 0.04071 0.06674
 C62 C 0.96395 0.08150 0.10545
 C63 C 1.00030 -0.02220 -0.02610
 C64 C 0.96411 -0.04175 -0.07304
 C65 C 0.96410 -0.08255 -0.11154
 C66 C 1.00039 -0.10400 -0.11206
 C67 C 1.03663 -0.08518 -0.07022
 C68 C 1.03653 -0.04495 -0.02360
 H69 H 1.00017 0.13454 0.13926
 H70 H 1.06481 0.03155 -0.02094
 H71 H 0.93567 0.02459 0.07461
 H72 H 0.93570 -0.02578 -0.08101
 H73 H 1.00041 -0.13542 -0.14486
 H74 H 1.06489 -0.03203 0.01501
 C75 C 0.50007 0.60353 0.61343
 C76 C 0.53631 0.58202 0.61280
 C77 C 0.53624 0.54126 0.57361
 C78 C 0.50002 0.52183 0.52622
 C79 C 0.46385 0.54466 0.52380
 C80 C 0.46381 0.58485 0.57102
 C81 C 0.49996 0.47831 0.47970
 C82 C 0.46372 0.45546 0.48194
 C83 C 0.46357 0.41529 0.43455
 C84 C 0.49976 0.39664 0.39218
 C85 C 0.53606 0.41817 0.39300
 C86 C 0.53611 0.45892 0.43236
 H87 H 0.50009 0.63492 0.64672
 H88 H 0.56461 0.52522 0.58139
 H89 H 0.43547 0.53185 0.48476
 H90 H 0.43540 0.46825 0.52090
 H91 H 0.49968 0.36526 0.35869
 H92 H 0.56452 0.47498 0.42466
 C93 C -0.00028 0.39667 0.11074
 C94 C -0.03647 0.41531 0.06908
 C95 C -0.03630 0.45541 0.02298
 C96 C -0.00002 0.47822 0.02583
 C97 C 0.03613 0.45885 0.07249
 C98 C 0.03605 0.41816 0.11052
 C99 C 0.00008 0.52167 -0.01947
 C100 C 0.03631 0.54097 -0.06610
 C101 C 0.03642 0.58165 -0.10433
 C102 C 0.00019 0.60319 -0.10473
 C103 C -0.03608 0.58462 -0.06307
 C104 C -0.03608 0.54454 -0.01679
 H105 H -0.00037 0.36534 0.14319
 H106 H -0.06464 0.46817 -0.01552
 H107 H 0.06457 0.47488 0.08063
 H108 H 0.06467 0.52490 -0.07417
 H109 H 0.00024 0.63450 -0.13741
 H110 H -0.06447 0.53183 0.02164
 C111 C 0.50032 0.89739 0.60816
 C112 C 0.46405 0.91888 0.60695
 C113 C 0.46411 0.95947 0.56753
 C114 C 0.50031 0.97874 0.52034
 C115 C 0.53652 0.95594 0.51856
 C116 C 0.53658 0.91595 0.56610
 C117 C 0.50031 1.02208 0.47348
 C118 C 0.53652 1.04499 0.47535
 C119 C 0.53658 1.08499 0.42795
 C120 C 0.50030 1.10345 0.38592
 C121 C 0.46403 1.08185 0.38704
 C122 C 0.46410 1.04125 0.42632
 H123 H 0.50032 0.86615 0.64171
 H124 H 0.43573 0.97551 0.57506
 H125 H 0.56489 0.96863 0.47983
 H126 H 0.56491 1.03238 0.51410
 H127 H 0.50028 1.13471 0.35254
 H128 H 0.43570 1.02513 0.41877
 C129 C 1.16674 0.17302 0.14504
 C130 C 1.13856 0.15102 0.11751
 C131 C 1.10420 0.12658 0.09152
 C132 C 1.07382 0.10682 0.07542
 C133 C 0.66649 0.66940 0.71075
 C134 C 0.63832 0.64670 0.69388
 C135 C 0.60403 0.62203 0.67034
 C136 C 0.57369 0.60273 0.64646
 C137 C -0.16662 0.32682 0.14598
 C138 C -0.13851 0.34886 0.11955
 C139 C -0.10422 0.37335 0.09458
 C140 C -0.07387 0.39312 0.07925
 C141 C 0.33358 0.83237 0.70621
 C142 C 0.36183 0.85486 0.68856
 C143 C 0.39624 0.87926 0.66455
 C144 C 0.42666 0.89833 0.64054
 C145 C -0.16578 0.67319 -0.14260
 C146 C -0.13779 0.65114 -0.11537
 C147 C -0.10363 0.62664 -0.08962
 C148 C -0.07337 0.60685 -0.07373
 C149 C 0.33339 1.16793 0.29012
 C150 C 0.36168 1.14555 0.30695
 C151 C 0.39616 1.12127 0.33022
 C152 C 0.42660 1.10229 0.35378
 C153 C 1.16705 -0.17317 -0.14807
 C154 C 1.13884 -0.15126 -0.12135
 C155 C 1.10444 -0.12694 -0.09619
 C156 C 1.07403 -0.10730 -0.08069
 C157 C 0.66576 0.33076 0.29288
 C158 C 0.63774 0.35349 0.31050
 C159 C 0.60359 0.37820 0.33473
 C160 C 0.57335 0.39750 0.35904
 C161 C 0.83355 -0.16962 -0.20776
 C162 C 0.86185 -0.14706 -0.19117
 C163 C 0.89629 -0.12253 -0.16810
 C164 C 0.92671 -0.10331 -0.14467
 C165 C 0.33334 0.32678 0.35437
 C166 C 0.36149 0.34881 0.38169
 C167 C 0.39581 0.37329 0.40758
 C168 C 0.42618 0.39307 0.42363
 C169 C 0.16620 0.66908 -0.20335
 C170 C 0.13820 0.64630 -0.18574
 C171 C 0.10405 0.62156 -0.16174
 C172 C 0.07378 0.60227 -0.13776
 C173 C 0.66686 1.17324 0.34884
 C174 C 0.63868 1.15131 0.37568
 C175 C 0.60432 1.12694 0.40113
 C176 C 0.57394 1.10723 0.41698
 C177 C 0.16570 0.33068 0.20700
 C178 C 0.13770 0.35343 0.19027
 C179 C 0.10357 0.37816 0.16707
 C180 C 0.07334 0.39747 0.14359
 C181 C 0.66687 0.82819 0.64671
 C182 C 0.63870 0.85002 0.61945
 C183 C 0.60433 0.87425 0.59355
 C184 C 0.57395 0.89385 0.57737
 C185 C 0.83344 0.16793 0.20421
 C186 C 0.86170 0.14548 0.18672
 C187 C 0.89613 0.12111 0.16284
 C188 C 0.92654 0.10204 0.13893
 C189 C 0.33376 0.67330 0.64861
 C190 C 0.36189 0.65129 0.62208
 C191 C 0.39617 0.62683 0.59698
 C192 C 0.42649 0.60707 0.58148
   
