data_POSCAR
  _audit_creation_date              2014-09-24
  _audit_creation_method            'ToBaCCo'
  _symmetry_space_group_name_H-M    'P1'
  _symmetry_Int_Tables_number       1
  _symmetry_cell_setting            triclinic
  loop_
  _symmetry_equiv_pos_as_xyz
 x,y,z
_cell_length_a 56.1365
_cell_length_b 56.2107
_cell_length_c 56.1757
_cell_angle_alpha 89.982100
_cell_angle_beta 89.985700
_cell_angle_gamma 89.993900
loop_
  _atom_site_label
  _atom_site_type_symbol
  _atom_site_fract_x
  _atom_site_fract_y
  _atom_site_fract_z
C1 C 0.29541 0.32672 0.01260
 C2 C 0.29489 0.32653 -0.01274
 C3 C 0.31056 0.31086 -0.02469
 C4 C 0.32660 0.29571 -0.01255
 C5 C 0.32623 0.29595 0.01281
 C6 C 0.31075 0.31135 0.02480
 H7 H 0.31089 0.31163 0.04412
 H8 H 0.31044 0.31066 -0.04395
 C9 C 0.70165 0.67223 0.01355
 C10 C 0.70423 0.67425 -0.01141
 C11 C 0.69042 0.69100 -0.02382
 C12 C 0.67309 0.70515 -0.01230
 C13 C 0.67088 0.70306 0.01291
 C14 C 0.68491 0.68652 0.02525
 H15 H 0.68330 0.68534 0.04446
 H16 H 0.69233 0.69182 -0.04300
 C17 C 0.70463 0.32615 0.98866
 C18 C 0.70458 0.32665 1.01406
 C19 C 0.68925 0.31069 1.02606
 C20 C 0.67395 0.29517 1.01382
 C21 C 0.67391 0.29524 0.98866
 C22 C 0.68943 0.31052 0.97652
 H23 H 0.68937 0.31063 0.95720
 H24 H 0.68883 0.31034 1.04535
 C25 C 0.29477 0.67459 0.98752
 C26 C 0.29685 0.67228 1.01267
 C27 C 0.31389 0.68650 1.02447
 C28 C 0.32810 0.70341 1.01246
 C29 C 0.32562 0.70532 0.98731
 C30 C 0.30871 0.69136 0.97546
 H31 H 0.30747 0.69248 0.95621
 H32 H 0.31538 0.68512 1.04364
 C33 C 0.01312 0.29511 0.32572
 C34 C -0.01211 0.29488 0.32529
 C35 C -0.02416 0.31020 0.30966
 C36 C -0.01183 0.32582 0.29457
 C37 C 0.01340 0.32577 0.29471
 C38 C 0.02546 0.31036 0.31024
 H39 H 0.04478 0.31050 0.31056
 H40 H -0.04348 0.31022 0.30952
 C41 C 0.01148 0.70098 0.67105
 C42 C -0.01361 0.70393 0.67334
 C43 C -0.02559 0.69017 0.69070
 C44 C -0.01390 0.67266 0.70451
 C45 C 0.01119 0.67012 0.70176
 C46 C 0.02325 0.68401 0.68497
 H47 H 0.04245 0.68225 0.68338
 H48 H -0.04470 0.69210 0.69245
 C49 C 0.98793 0.70511 0.32568
 C50 C 1.01312 0.70516 0.32578
 C51 C 1.02547 0.69023 0.30999
 C52 C 1.01354 0.67466 0.29424
 C53 C 0.98814 0.67447 0.29476
 C54 C 0.97588 0.68979 0.31016
 H55 H 0.95655 0.68953 0.31025
 H56 H 1.04477 0.69068 0.31035
 C57 C 0.98769 0.29745 0.67190
 C58 C 1.01290 0.29524 0.67422
 C59 C 1.02438 0.30923 0.69168
 C60 C 1.01195 0.32594 0.70551
 C61 C 0.98700 0.32811 0.70282
 C62 C 0.97532 0.31397 0.68594
 H63 H 0.95612 0.31525 0.68423
 H64 H 1.04356 0.30831 0.69369
 C65 C 0.32438 0.01219 0.29504
 C66 C 0.32669 -0.01295 0.29701
 C67 C 0.31255 -0.02480 0.31411
 C68 C 0.29571 -0.01284 0.32847
 C69 C 0.29375 0.01230 0.32604
 C70 C 0.30765 0.02420 0.30909
 H71 H 0.30653 0.04344 0.30790
 H72 H 0.31394 -0.04396 0.31554
 C73 C 0.67231 0.01279 0.70296
 C74 C 0.67440 -0.01225 0.70492
 C75 C 0.69118 -0.02424 0.69079
 C76 C 0.70526 -0.01208 0.67408
 C77 C 0.70318 0.01296 0.67216
 C78 C 0.68660 0.02496 0.68648
 H79 H 0.68533 0.04418 0.68531
 H80 H 0.69232 -0.04347 0.69182
 C81 C 0.32955 0.98824 0.70183
 C82 C 0.32709 1.01325 0.70493
 C83 C 0.30964 1.02517 0.69125
 C84 C 0.29594 1.01352 0.67365
 C85 C 0.29875 0.98849 0.67105
 C86 C 0.31562 0.97646 0.68487
 H87 H 0.31731 0.95731 0.68304
 H88 H 0.30779 1.04424 0.69325
 C89 C 0.67371 0.98766 0.29561
 C90 C 0.67402 1.01281 0.29556
 C91 C 0.68960 1.02487 0.31094
 C92 C 0.70499 1.01269 0.32671
 C93 C 0.70480 0.98731 0.32616
 C94 C 0.68929 0.97535 0.31070
 H95 H 0.68904 0.95604 0.31078
 H96 H 0.68938 1.04414 0.31063
 O97 O 0.87811 0.84495 0.47700
 O98 O 0.84471 0.87746 0.52309
 O99 O 0.87751 0.84454 0.52334
 O100 O 0.84507 0.87751 0.47673
 O101 O 0.81735 0.84962 0.47638
 O102 O 0.84970 0.81674 0.52294
 O103 O 0.81692 0.84963 0.52271
 O104 O 0.85036 0.81709 0.47662
 Cu105 Cu 0.86414 0.86391 0.50010
 Cu106 Cu 0.83079 0.83048 0.49964
 C107 C 0.86993 0.82548 0.46899
 C108 C 0.82510 0.86914 0.53067
 C109 C 0.86916 0.82497 0.53099
 C110 C 0.82567 0.86915 0.46865
 O111 O 0.12469 0.15814 0.47806
 O112 O 0.15788 0.12513 0.52388
 O113 O 0.12511 0.15793 0.52430
 O114 O 0.15763 0.12541 0.47757
 O115 O 0.18545 0.15321 0.47750
 O116 O 0.15292 0.18575 0.52424
 O117 O 0.18571 0.15292 0.52384
 O118 O 0.15248 0.18597 0.47798
 Cu119 Cu 0.13855 0.13885 0.50094
 Cu120 Cu 0.17195 0.17225 0.50087
 C121 C 0.13285 0.17774 0.47034
 C122 C 0.17745 0.13338 0.53163
 C123 C 0.13343 0.17742 0.53215
 C124 C 0.17712 0.13372 0.46966
 O125 O 0.12388 0.84309 0.52462
 O126 O 0.15595 0.87633 0.47806
 O127 O 0.12338 0.84318 0.47835
 O128 O 0.15655 0.87609 0.52436
 O129 O 0.18456 0.84847 0.52392
 O130 O 0.15142 0.81560 0.47793
 O131 O 0.18397 0.84873 0.47764
 O132 O 0.15190 0.81548 0.52419
 Cu133 Cu 0.13713 0.86245 0.50139
 Cu134 Cu 0.17078 0.82931 0.50087
 C135 C 0.13237 0.82357 0.53223
 C136 C 0.17548 0.86824 0.47002
 C137 C 0.13170 0.82372 0.47042
 C138 C 0.17625 0.86791 0.53189
 O139 O 0.87816 0.15548 0.52266
 O140 O 0.84498 0.12219 0.47686
 O141 O 0.87823 0.15460 0.47629
 O142 O 0.84532 0.12265 0.52311
 O143 O 0.81761 0.15058 0.52278
 O144 O 0.85057 0.18256 0.47597
 O145 O 0.81735 0.15019 0.47657
 O146 O 0.85042 0.18336 0.52229
 Cu147 Cu 0.86447 0.13594 0.49976
 Cu148 Cu 0.83123 0.16950 0.49937
 C149 C 0.86992 0.17512 0.53023
 C150 C 0.82544 0.13049 0.46903
 C151 C 0.87003 0.17404 0.46820
 C152 C 0.82580 0.13110 0.53080
 O153 O 0.52317 0.84218 0.87514
 O154 O 0.47697 0.87490 0.84212
 O155 O 0.47684 0.84198 0.87479
 O156 O 0.52327 0.87509 0.84246
 O157 O 0.52361 0.84740 0.81455
 O158 O 0.47716 0.81427 0.84691
 O159 O 0.47729 0.84721 0.81422
 O160 O 0.52351 0.81448 0.84725
 Cu161 Cu 0.50003 0.86131 0.86144
 Cu162 Cu 0.50043 0.82805 0.82793
 C163 C 0.53114 0.82274 0.86685
 C164 C 0.46935 0.86667 0.82250
 C165 C 0.46916 0.82247 0.86640
 C166 C 0.53126 0.86693 0.82295
 O167 O 0.52204 0.15414 0.12208
 O168 O 0.47575 0.12195 0.15574
 O169 O 0.47561 0.15454 0.12266
 O170 O 0.52215 0.12141 0.15499
 O171 O 0.52277 0.14933 0.18265
 O172 O 0.47626 0.18243 0.15034
 O173 O 0.47642 0.14988 0.18339
 O174 O 0.52264 0.18201 0.14979
 Cu175 Cu 0.49881 0.13521 0.13608
 Cu176 Cu 0.49958 0.16872 0.16931
 C177 C 0.53019 0.17358 0.13022
 C178 C 0.46827 0.13042 0.17533
 C179 C 0.46806 0.17414 0.13098
 C180 C 0.53034 0.12972 0.17435
 O181 O 0.52300 0.12332 0.84463
 O182 O 0.47687 0.15649 0.87736
 O183 O 0.47665 0.12358 0.84463
 O184 O 0.52311 0.15630 0.87732
 O185 O 0.52322 0.18400 0.84941
 O186 O 0.47677 0.15128 0.81671
 O187 O 0.47699 0.18419 0.84944
 O188 O 0.52312 0.15103 0.81673
 Cu189 Cu 0.49990 0.13712 0.86377
 Cu190 Cu 0.50004 0.17039 0.83025
 C191 C 0.53083 0.13149 0.82505
 C192 C 0.46920 0.17606 0.86905
 C193 C 0.46887 0.13183 0.82507
 C194 C 0.53093 0.17581 0.86902
 O195 O 0.47623 0.84487 0.12288
 O196 O 0.52191 0.87781 0.15646
 O197 O 0.52256 0.84505 0.12354
 O198 O 0.47561 0.87759 0.15580
 O199 O 0.47536 0.84971 0.18353
 O200 O 0.52229 0.81722 0.15131
 O201 O 0.52163 0.84995 0.18421
 O202 O 0.47598 0.81702 0.15064
 Cu203 Cu 0.49911 0.86413 0.13688
 Cu204 Cu 0.49879 0.83067 0.17020
 C205 C 0.46840 0.82529 0.13101
 C206 C 0.52944 0.86955 0.17611
 C207 C 0.53032 0.82554 0.13189
 C208 C 0.46759 0.86923 0.17522
 O209 O 0.87589 0.52342 0.84448
 O210 O 0.84383 0.47661 0.87740
 O211 O 0.87631 0.47716 0.84421
 O212 O 0.84340 0.52294 0.87769
 O213 O 0.81528 0.52287 0.85018
 O214 O 0.84818 0.47711 0.81671
 O215 O 0.81572 0.47656 0.84988
 O216 O 0.84776 0.52336 0.81698
 Cu217 Cu 0.86267 0.50005 0.86372
 Cu218 Cu 0.82890 0.49997 0.83069
 C219 C 0.86734 0.53126 0.82507
 C220 C 0.82429 0.46865 0.86926
 C221 C 0.86789 0.46942 0.82471
 C222 C 0.82371 0.53065 0.86966
 O223 O 0.12246 0.52386 0.15471
 O224 O 0.15601 0.47759 0.12251
 O225 O 0.12252 0.47747 0.15471
 O226 O 0.15558 0.52379 0.12224
 O227 O 0.18304 0.52400 0.15042
 O228 O 0.14995 0.47767 0.18291
 O229 O 0.18342 0.47782 0.15073
 O230 O 0.14993 0.52404 0.18287
 Cu231 Cu 0.13635 0.50064 0.13574
 Cu232 Cu 0.16931 0.50089 0.16959
 C233 C 0.13053 0.53184 0.17426
 C234 C 0.17551 0.46996 0.13108
 C235 C 0.13059 0.46970 0.17434
 C236 C 0.17499 0.53169 0.13074
 O237 O 0.87580 0.47734 0.15732
 O238 O 0.84274 0.52365 0.12489
 O239 O 0.87560 0.52354 0.15767
 O240 O 0.84269 0.47742 0.12471
 O241 O 0.81499 0.47721 0.15266
 O242 O 0.84786 0.52332 0.18559
 O243 O 0.81500 0.52345 0.15280
 O244 O 0.84811 0.47712 0.18527
 Cu245 Cu 0.86199 0.50050 0.13834
 Cu246 Cu 0.82870 0.50024 0.17188
 C247 C 0.86768 0.46947 0.17689
 C248 C 0.82320 0.53135 0.13326
 C249 C 0.86738 0.53118 0.17730
 C250 C 0.82316 0.46958 0.13302
 O251 O 0.12284 0.47716 0.84461
 O252 O 0.15627 0.52344 0.87686
 O253 O 0.12332 0.52341 0.84409
 O254 O 0.15556 0.47711 0.87751
 O255 O 0.18341 0.47642 0.84971
 O256 O 0.15115 0.52273 0.81628
 O257 O 0.18410 0.52275 0.84905
 O258 O 0.15070 0.47649 0.81682
 Cu259 Cu 0.13672 0.50037 0.86357
 Cu260 Cu 0.17015 0.49955 0.83019
 C261 C 0.13106 0.46902 0.82518
 C262 C 0.17591 0.53091 0.86847
 C263 C 0.13167 0.53083 0.82443
 C264 C 0.17497 0.46889 0.86930
 N265 N 0.27251 0.38203 0.03944
 C266 C 0.25550 0.37364 0.05438
 N267 N 0.25179 0.34985 0.05583
 N268 N 0.26456 0.33490 0.04256
 C269 C 0.28133 0.34328 0.02729
 N270 N 0.28529 0.36709 0.02616
 C271 C 0.24140 0.38979 0.06825
 C272 C 0.22951 0.40350 0.07970
 C273 C 0.21541 0.42003 0.09313
 N274 N 0.22324 0.42827 0.11441
 N275 N 0.21039 0.44404 0.12662
 C276 C 0.18929 0.45207 0.11795
 N277 N 0.18147 0.44373 0.09666
 N278 N 0.19432 0.42797 0.08445
 N279 N 0.72069 0.63016 0.06033
 C280 C 0.74414 0.62732 0.05533
 N281 N 0.75375 0.63929 0.03671
 N282 N 0.74028 0.65357 0.02340
 C283 C 0.71669 0.65623 0.02814
 N284 N 0.70722 0.64443 0.04702
 C285 C 0.75847 0.61152 0.06934
 C286 C 0.77032 0.59798 0.08102
 C287 C 0.78421 0.58154 0.09475
 N288 N 0.80539 0.57350 0.08641
 N289 N 0.81796 0.55768 0.09882
 C290 C 0.80974 0.54936 0.11999
 N291 N 0.78854 0.55749 0.12832
 N292 N 0.77598 0.57332 0.11590
 N293 N 0.75732 0.35358 0.96048
 C294 C 0.74714 0.37045 0.94652
 N295 N 0.72309 0.37250 0.94616
 N296 N 0.70960 0.35827 0.95951
 C297 C 0.71974 0.34164 0.97379
 N298 N 0.74384 0.33933 0.97385
 C299 C 0.76157 0.38638 0.93268
 C300 C 0.77327 0.40019 0.92114
 C301 C 0.78675 0.41708 0.90750
 N302 N 0.77816 0.42542 0.88655
 N303 N 0.79024 0.44172 0.87425
 C304 C 0.81131 0.45025 0.88252
 N305 N 0.81990 0.44182 0.90349
 N306 N 0.80781 0.42552 0.91579
 N307 N 0.25141 0.65212 0.94353
 C308 C 0.25462 0.62826 0.94517
 N309 N 0.27113 0.61963 0.96052
 N310 N 0.28390 0.63439 0.97398
 C311 C 0.28043 0.65827 0.97270
 N312 N 0.26418 0.66690 0.95700
 C313 C 0.24057 0.61224 0.93109
 C314 C 0.22884 0.59847 0.91955
 C315 C 0.21498 0.58173 0.90613
 N316 N 0.19378 0.57385 0.91461
 N317 N 0.18122 0.55778 0.90250
 C318 C 0.18945 0.54905 0.88152
 N319 N 0.21067 0.55702 0.87305
 N320 N 0.22323 0.57308 0.88516
 N321 N 0.06067 0.25727 0.35078
 C322 C 0.05387 0.25527 0.37384
 N323 N 0.03372 0.26633 0.38119
 N324 N 0.02066 0.27891 0.36590
 C325 C 0.02723 0.28071 0.34269
 N326 N 0.04761 0.26985 0.33548
 C327 C 0.06789 0.24166 0.39028
 C328 C 0.07961 0.23022 0.40413
 C329 C 0.09346 0.21661 0.42071
 N330 N 0.08533 0.19539 0.42882
 N331 N 0.09801 0.18290 0.44451
 C332 C 0.11923 0.19121 0.45258
 N333 N 0.12735 0.21245 0.44438
 N334 N 0.11467 0.22493 0.42869
 N335 N 0.04011 0.75360 0.64404
 C336 C 0.05458 0.74348 0.62757
 N337 N 0.05509 0.71945 0.62555
 N338 N 0.04139 0.70594 0.63943
 C339 C 0.02657 0.71603 0.65565
 N340 N 0.02640 0.74010 0.65793
 C341 C 0.06877 0.75800 0.61207
 C342 C 0.08048 0.77003 0.59870
 C343 C 0.09418 0.78414 0.58239
 N344 N 0.11536 0.77609 0.57405
 N345 N 0.12768 0.78880 0.55826
 C346 C 0.11922 0.80998 0.55027
 N347 N 0.09803 0.81803 0.55872
 N348 N 0.08571 0.80531 0.57451
 N349 N 0.96681 0.75731 0.35985
 C350 C 0.94713 0.74846 0.37069
 N351 N 0.94067 0.72561 0.36650
 N352 N 0.95360 0.71195 0.35208
 C353 C 0.97355 0.72060 0.34145
 N354 N 0.97975 0.74363 0.34541
 C355 C 0.93358 0.76281 0.38690
 C356 C 0.92216 0.77444 0.40085
 C357 C 0.90854 0.78783 0.41780
 N358 N 0.88744 0.77935 0.42592
 N359 N 0.87505 0.79143 0.44214
 C360 C 0.88336 0.81240 0.45080
 N361 N 0.90449 0.82087 0.44259
 N362 N 0.91688 0.80878 0.42637
 N363 N 0.96072 0.24458 0.64372
 C364 C 0.94640 0.25462 0.62708
 N365 N 0.94539 0.27866 0.62537
 N366 N 0.95849 0.29227 0.63970
 C367 C 0.97317 0.28227 0.65610
 N368 N 0.97382 0.25819 0.65807
 C369 C 0.93279 0.24004 0.61113
 C370 C 0.92145 0.22806 0.59741
 C371 C 0.90800 0.21416 0.58074
 N372 N 0.88691 0.22232 0.57229
 N373 N 0.87470 0.20977 0.55632
 C374 C 0.88318 0.18863 0.54823
 N375 N 0.90429 0.18047 0.55676
 N376 N 0.91651 0.19304 0.57274
 N377 N 0.34682 0.05608 0.25155
 C378 C 0.37073 0.05437 0.25465
 N379 N 0.37938 0.03906 0.27117
 N380 N 0.36462 0.02569 0.28404
 C381 C 0.34069 0.02703 0.28068
 N382 N 0.33204 0.04270 0.26443
 C383 C 0.38677 0.06833 0.24046
 C384 C 0.40057 0.07974 0.22863
 C385 C 0.41737 0.09304 0.21467
 N386 N 0.42604 0.11405 0.22275
 N387 N 0.44213 0.12605 0.21011
 C388 C 0.45013 0.11744 0.18898
 N389 N 0.44137 0.09641 0.18091
 N390 N 0.42527 0.08441 0.19356
 N391 N 0.63894 0.03468 0.75538
 C392 C 0.62695 0.05345 0.74610
 N393 N 0.62990 0.05894 0.72280
 N394 N 0.64431 0.04598 0.70913
 C395 C 0.65614 0.02696 0.71825
 N396 N 0.65336 0.02171 0.74171
 C397 C 0.61106 0.06719 0.76063
 C398 C 0.59746 0.07876 0.77254
 C399 C 0.58097 0.09254 0.78634
 N400 N 0.57292 0.11373 0.77807
 N401 N 0.55710 0.12626 0.79053
 C402 C 0.54879 0.11801 0.81169
 N403 N 0.55694 0.09681 0.81996
 N404 N 0.57276 0.08428 0.80749
 N405 N 0.37550 0.94490 0.71964
 C406 C 0.37361 0.94517 0.74370
 N407 N 0.35711 0.95942 0.75406
 N408 N 0.34304 0.97314 0.74076
 C409 C 0.34519 0.97321 0.71667
 N410 N 0.36145 0.95861 0.70634
 C411 C 0.38924 0.93092 0.75798
 C412 C 0.40271 0.91913 0.76980
 C413 C 0.41912 0.90532 0.78365
 N414 N 0.42710 0.91353 0.80489
 N415 N 0.44295 0.90108 0.81741
 C416 C 0.45135 0.88001 0.80908
 N417 N 0.44328 0.87180 0.78783
 N418 N 0.42743 0.88426 0.77532
 N419 N 0.61829 0.96722 0.26652
 C420 C 0.62574 0.94728 0.25518
 N421 N 0.64883 0.94052 0.25718
 N422 N 0.66406 0.95342 0.26998
 C423 C 0.65677 0.97361 0.28111
 N424 N 0.63352 0.98012 0.27933
 C425 C 0.60937 0.93348 0.24126
 C426 C 0.59556 0.92196 0.22956
 C427 C 0.57901 0.90834 0.21568
 N428 N 0.57081 0.88715 0.22379
 N429 N 0.55515 0.87468 0.21107
 C430 C 0.54717 0.88298 0.18981
 N431 N 0.55545 0.90420 0.18172
 N432 N 0.57112 0.91666 0.19444
 N433 N 0.37602 0.25663 0.97120
 C434 C 0.37339 0.25518 0.94729
 N435 N 0.35537 0.26720 0.93673
 N436 N 0.34037 0.28017 0.94973
 C437 C 0.34265 0.28163 0.97384
 N438 N 0.36099 0.26963 0.98414
 C439 C 0.38954 0.24116 0.93335
 C440 C 0.40320 0.22940 0.92170
 C441 C 0.41962 0.21548 0.90796
 N442 N 0.42770 0.22358 0.88671
 N443 N 0.44334 0.21088 0.87417
 C444 C 0.45140 0.18966 0.88248
 N445 N 0.44321 0.18158 0.90374
 N446 N 0.42758 0.19428 0.91627
 N447 N 0.64789 0.73597 0.93647
 C448 C 0.62800 0.74582 0.94590
 N449 N 0.62309 0.74229 0.96922
 N450 N 0.63768 0.72938 0.98272
 C451 C 0.65784 0.71955 0.97358
 N452 N 0.66246 0.72306 0.95003
 C453 C 0.61209 0.75952 0.93138
 C454 C 0.59841 0.77098 0.91947
 C455 C 0.58177 0.78453 0.90564
 N456 N 0.57336 0.80558 0.91392
 N457 N 0.55737 0.81786 0.90144
 C458 C 0.54923 0.80950 0.88027
 N459 N 0.55773 0.78844 0.87200
 N460 N 0.57373 0.77616 0.88449
 N461 N 0.36227 0.72694 0.06232
 C462 C 0.37257 0.74642 0.05257
 N463 N 0.36800 0.75180 0.02953
 N464 N 0.35369 0.73801 0.01660
 C465 C 0.34349 0.71818 0.02605
 N466 N 0.34797 0.71319 0.04935
 C467 C 0.38849 0.76086 0.06637
 C468 C 0.40209 0.77271 0.07798
 C469 C 0.41855 0.78649 0.09181
 N470 N 0.42678 0.80762 0.08356
 N471 N 0.44253 0.82011 0.09616
 C472 C 0.45058 0.81187 0.11742
 N473 N 0.44225 0.79073 0.12565
 N474 N 0.42651 0.77825 0.11305
 N475 N 0.63274 0.27388 0.06042
 C476 C 0.62901 0.25098 0.05387
 N477 N 0.64035 0.24234 0.03439
 N478 N 0.65481 0.25626 0.02172
 C479 C 0.65830 0.27935 0.02801
 N480 N 0.64718 0.28780 0.04776
 C481 C 0.61273 0.23638 0.06710
 C482 C 0.59871 0.22461 0.07832
 C483 C 0.58165 0.21117 0.09181
 N484 N 0.57355 0.21956 0.11294
 N485 N 0.55725 0.20748 0.12524
 C486 C 0.54847 0.18662 0.11681
 N487 N 0.55664 0.17823 0.09565
 N488 N 0.57295 0.19032 0.08335
 N489 N 0.26379 0.06413 0.64884
 C490 C 0.25471 0.05479 0.62856
 N491 N 0.25915 0.03172 0.62330
 N492 N 0.27220 0.01838 0.63791
 C493 C 0.28127 0.02742 0.65845
 N494 N 0.27684 0.05073 0.66343
 C495 C 0.24094 0.06918 0.61260
 C496 C 0.22945 0.08100 0.59888
 C497 C 0.21586 0.09475 0.58220
 N498 N 0.19471 0.08651 0.57398
 N499 N 0.18238 0.09893 0.55798
 C500 C 0.19080 0.12000 0.54965
 N501 N 0.21196 0.12823 0.55796
 N502 N 0.22430 0.11580 0.57396
 N503 N 0.73341 0.06332 0.35566
 C504 C 0.74601 0.05263 0.37321
 N505 N 0.74496 0.02868 0.37546
 N506 N 0.73181 0.01582 0.36052
 C507 C 0.71922 0.02624 0.34266
 N508 N 0.72027 0.05039 0.34075
 C509 C 0.76017 0.06648 0.38932
 C510 C 0.77201 0.07802 0.40299
 C511 C 0.78597 0.09167 0.41944
 N512 N 0.80706 0.08319 0.42760
 N513 N 0.81978 0.09566 0.44327
 C514 C 0.81182 0.11702 0.45128
 N515 N 0.79071 0.12548 0.44302
 N516 N 0.77801 0.11301 0.42736
 N517 N 0.73460 0.96600 0.61941
 C518 C 0.74673 0.94682 0.62758
 N519 N 0.74533 0.94110 0.65099
 N520 N 0.73228 0.95427 0.66581
 C521 C 0.72033 0.97370 0.65775
 N522 N 0.72156 0.97915 0.63422
 C523 C 0.76073 0.93270 0.61154
 C524 C 0.77239 0.92104 0.59780
 C525 C 0.78616 0.90743 0.58114
 N526 N 0.77786 0.88640 0.57275
 N527 N 0.79037 0.87407 0.55679
 C528 C 0.81159 0.88239 0.54868
 N529 N 0.81987 0.90345 0.55717
 N530 N 0.80736 0.91576 0.57312
 N531 N 0.24763 0.96992 0.36878
 C532 C 0.25308 0.94687 0.37322
 N533 N 0.27249 0.93719 0.36270
 N534 N 0.28611 0.95021 0.34831
 C535 C 0.28105 0.97351 0.34395
 N536 N 0.26129 0.98290 0.35437
 C537 C 0.23881 0.93301 0.38926
 C538 C 0.22711 0.92134 0.40296
 C539 C 0.21353 0.90746 0.41957
 N540 N 0.22199 0.88630 0.42750
 N541 N 0.20974 0.87368 0.44342
 C542 C 0.18860 0.88180 0.45194
 N543 N 0.18015 0.90297 0.44390
 N544 N 0.19241 0.91559 0.42798
 N545 N 0.05787 0.34858 0.74686
 C546 C 0.05246 0.37206 0.74792
 N547 N 0.03375 0.38042 0.73518
 N548 N 0.02076 0.36572 0.72188
 C549 C 0.02591 0.34212 0.72097
 N550 N 0.04486 0.33387 0.73356
 C551 C 0.06656 0.38803 0.76201
 C552 C 0.07828 0.40174 0.77363
 C553 C 0.09209 0.41840 0.78718
 N554 N 0.08376 0.42697 0.80815
 N555 N 0.09628 0.44297 0.82039
 C556 C 0.11755 0.45093 0.81204
 N557 N 0.12586 0.44226 0.79106
 N558 N 0.11334 0.42627 0.77883
 N559 N 0.03008 0.63315 0.24703
 C560 C 0.05391 0.63137 0.25024
 N561 N 0.06439 0.64436 0.26762
 N562 N 0.05137 0.65848 0.28153
 C563 C 0.02731 0.66009 0.27880
 N564 N 0.01712 0.64729 0.26097
 C565 C 0.06766 0.61511 0.23615
 C566 C 0.07906 0.60102 0.22466
 C567 C 0.09251 0.58382 0.21141
 N568 N 0.11341 0.57539 0.22008
 N569 N 0.12559 0.55891 0.20815
 C570 C 0.11725 0.55026 0.18718
 N571 N 0.09633 0.55876 0.17852
 N572 N 0.08415 0.57526 0.19045
 N573 N 0.94076 0.35015 0.25609
 C574 C 0.94721 0.37331 0.25420
 N575 N 0.96710 0.38095 0.26553
 N576 N 0.98023 0.36586 0.27826
 C577 C 0.97402 0.34256 0.27995
 N578 N 0.95390 0.33505 0.26881
 C579 C 0.93306 0.38956 0.24050
 C580 C 0.92122 0.40328 0.22903
 C581 C 0.90724 0.41975 0.21543
 N582 N 0.91528 0.42792 0.19419
 N583 N 0.90253 0.44360 0.18178
 C584 C 0.88131 0.45161 0.19019
 N585 N 0.87328 0.44334 0.21144
 N586 N 0.88604 0.42766 0.22386
 N587 N 0.96807 0.62274 0.74200
 C588 C 0.94495 0.62798 0.74638
 N589 N 0.93550 0.64805 0.73698
 N590 N 0.94884 0.66249 0.72368
 C591 C 0.97220 0.65755 0.71932
 N592 N 0.98135 0.63720 0.72870
 C593 C 0.93065 0.61219 0.76050
 C594 C 0.91893 0.59859 0.77227
 C595 C 0.90532 0.58200 0.78616
 N596 N 0.88414 0.57373 0.77805
 N597 N 0.87190 0.55773 0.79058
 C598 C 0.88045 0.54945 0.81163
 N599 N 0.90164 0.55783 0.81973
 N600 N 0.91388 0.57383 0.80720
 N601 N 0.73363 0.61951 0.96698
 C602 C 0.74622 0.62768 0.94809
 N603 N 0.74516 0.65113 0.94250
 N604 N 0.73199 0.66597 0.95550
 C605 C 0.71954 0.65791 0.97463
 N606 N 0.72045 0.63435 0.97996
 C607 C 0.76022 0.61158 0.93403
 C608 C 0.77179 0.59780 0.92234
 C609 C 0.78536 0.58108 0.90858
 N610 N 0.77685 0.57284 0.88756
 N611 N 0.78916 0.55688 0.87506
 C612 C 0.81040 0.54862 0.88318
 N613 N 0.81890 0.55695 0.90422
 N614 N 0.80658 0.57291 0.91672
 N615 N 0.24787 0.36837 0.97068
 C616 C 0.25109 0.37008 0.94686
 N617 N 0.26841 0.35699 0.93640
 N618 N 0.28225 0.34281 0.94944
 C619 C 0.27951 0.34122 0.97349
 N620 N 0.26174 0.35416 0.98366
 C621 C 0.23700 0.38631 0.93303
 C622 C 0.22553 0.40031 0.92149
 C623 C 0.21225 0.41736 0.90785
 N624 N 0.22079 0.42538 0.88674
 N625 N 0.20883 0.44171 0.87437
 C626 C 0.18792 0.45058 0.88271
 N627 N 0.17939 0.44247 0.90384
 N628 N 0.19137 0.42614 0.91621
 N629 N 0.24839 0.63270 0.03029
 C630 C 0.25396 0.62816 0.05330
 N631 N 0.27357 0.63840 0.06285
 N632 N 0.28728 0.65261 0.04972
 C633 C 0.28210 0.65704 0.02645
 N634 N 0.26213 0.64692 0.01721
 C635 C 0.23960 0.61227 0.06719
 C636 C 0.22775 0.59864 0.07877
 C637 C 0.21390 0.58209 0.09240
 N638 N 0.22197 0.57404 0.11367
 N639 N 0.20945 0.55813 0.12602
 C640 C 0.18844 0.54973 0.11748
 N641 N 0.18037 0.55787 0.09620
 N642 N 0.19290 0.57379 0.08386
 N643 N 0.74396 0.37568 0.03058
 C644 C 0.74472 0.37343 0.05456
 N645 N 0.73212 0.35578 0.06508
 N646 N 0.71927 0.34078 0.05197
 C647 C 0.71851 0.34270 0.02780
 N648 N 0.73109 0.36065 0.01753
 C649 C 0.75860 0.38960 0.06861
 C650 C 0.77026 0.40331 0.08030
 C651 C 0.78407 0.41980 0.09406
 N652 N 0.77593 0.42775 0.11534
 N653 N 0.78851 0.44346 0.12788
 C654 C 0.80967 0.45172 0.11955
 N655 N 0.81781 0.44367 0.09826
 N656 N 0.80522 0.42796 0.08572
 N657 N 0.93634 0.73686 0.64824
 C658 C 0.94609 0.74621 0.62826
 N659 N 0.96922 0.74164 0.62327
 N660 N 0.98223 0.72821 0.63785
 C661 C 0.97278 0.71888 0.65811
 N662 N 0.94940 0.72343 0.66281
 C663 C 0.93205 0.76042 0.61230
 C664 C 0.92052 0.77222 0.59857
 C665 C 0.90703 0.78608 0.58185
 N666 N 0.91553 0.80719 0.57382
 N667 N 0.90336 0.81972 0.55776
 C668 C 0.88228 0.81153 0.54917
 N669 N 0.87380 0.79040 0.55729
 N670 N 0.88597 0.77788 0.57335
 N671 N 0.96697 0.24237 0.35912
 C672 C 0.94703 0.25097 0.36970
 N673 N 0.94035 0.27374 0.36544
 N674 N 0.95330 0.28757 0.35119
 C675 C 0.97349 0.27918 0.34082
 N676 N 0.97993 0.25622 0.34485
 C677 C 0.93350 0.23648 0.38579
 C678 C 0.92206 0.22478 0.39968
 C679 C 0.90843 0.21139 0.41662
 N680 N 0.88738 0.21993 0.42480
 N681 N 0.87503 0.20792 0.44111
 C682 C 0.88334 0.18696 0.44980
 N683 N 0.90441 0.17841 0.44153
 N684 N 0.91676 0.19044 0.42522
 N685 N 0.06415 0.26424 0.64918
 C686 C 0.05479 0.25455 0.62919
 N687 N 0.03151 0.25827 0.62416
 N688 N 0.01799 0.27120 0.63872
 C689 C 0.02705 0.28085 0.65898
 N690 N 0.05057 0.27717 0.66372
 C691 C 0.06932 0.24080 0.61332
 C692 C 0.08121 0.22929 0.59966
 C693 C 0.09498 0.21567 0.58301
 N694 N 0.08671 0.19455 0.57480
 N695 N 0.09910 0.18224 0.55875
 C696 C 0.12017 0.19064 0.55036
 N697 N 0.12844 0.21177 0.55867
 N698 N 0.11605 0.22409 0.57472
 N699 N 0.06012 0.74388 0.35057
 C700 C 0.05357 0.74553 0.37373
 N701 N 0.03381 0.73388 0.38125
 N702 N 0.02090 0.72109 0.36602
 C703 C 0.02720 0.71964 0.34271
 N704 N 0.04720 0.73109 0.33533
 C705 C 0.06742 0.75939 0.39012
 C706 C 0.07899 0.77100 0.40396
 C707 C 0.09269 0.78473 0.42057
 N708 N 0.08429 0.80577 0.42887
 N709 N 0.09682 0.81832 0.44461
 C710 C 0.11818 0.81024 0.45258
 N711 N 0.12657 0.78919 0.44419
 N712 N 0.11404 0.77664 0.42845
 N713 N 0.65164 0.94059 0.74473
 C714 C 0.62816 0.94608 0.74610
 N715 N 0.61984 0.96524 0.73405
 N716 N 0.63457 0.97859 0.72112
 C717 C 0.65817 0.97335 0.71991
 N718 N 0.66638 0.95395 0.73179
 C719 C 0.61221 0.93172 0.75994
 C720 C 0.59852 0.91984 0.77143
 C721 C 0.58188 0.90595 0.78494
 N722 N 0.57348 0.91409 0.80605
 N723 N 0.55750 0.90153 0.81829
 C724 C 0.54937 0.88042 0.80981
 N725 N 0.55787 0.87228 0.78868
 N726 N 0.57386 0.88485 0.77645
 N727 N 0.36047 0.93697 0.27337
 C728 C 0.37062 0.94660 0.25374
 N729 N 0.36605 0.96961 0.24828
 N730 N 0.35187 0.98262 0.26214
 C731 C 0.34185 0.97332 0.28213
 N732 N 0.34631 0.95004 0.28720
 C733 C 0.38651 0.93278 0.23930
 C734 C 0.40017 0.92123 0.22743
 C735 C 0.41678 0.90758 0.21365
 N736 N 0.42515 0.91603 0.19264
 N737 N 0.44116 0.90368 0.18024
 C738 C 0.44935 0.88247 0.18845
 N739 N 0.44088 0.87403 0.20946
 N740 N 0.42487 0.88638 0.22186
 N741 N 0.63313 0.05985 0.27464
 C742 C 0.62915 0.05336 0.25175
 N743 N 0.64020 0.03377 0.24300
 N744 N 0.65464 0.02095 0.25680
 C745 C 0.65838 0.02717 0.27988
 N746 N 0.64754 0.04702 0.28844
 C747 C 0.61289 0.06675 0.23726
 C748 C 0.59889 0.07803 0.22554
 C749 C 0.58185 0.09151 0.21207
 N750 N 0.57311 0.08297 0.19125
 N751 N 0.55680 0.09522 0.17912
 C752 C 0.54866 0.11641 0.18743
 N753 N 0.55748 0.12493 0.20826
 N754 N 0.57378 0.11268 0.22038
 N755 N 0.37715 0.03069 0.74254
 C756 C 0.37198 0.05376 0.74714
 N757 N 0.35188 0.06334 0.73788
 N758 N 0.33737 0.05019 0.72451
 C759 C 0.34225 0.02689 0.71991
 N760 N 0.36261 0.01760 0.72917
 C761 C 0.38791 0.06793 0.76120
 C762 C 0.40158 0.07964 0.77287
 C763 C 0.41821 0.09335 0.78658
 N764 N 0.42649 0.11441 0.77821
 N765 N 0.44248 0.12680 0.79059
 C766 C 0.45073 0.11853 0.81177
 N767 N 0.44235 0.09746 0.82013
 N768 N 0.42636 0.08508 0.80774
 N769 N 0.64316 0.75611 0.04005
 C770 C 0.62673 0.74616 0.05468
 N771 N 0.62494 0.72214 0.05576
 N772 N 0.63902 0.70845 0.04246
 C773 C 0.65522 0.71835 0.02749
 N774 N 0.65726 0.74242 0.02674
 C775 C 0.61107 0.76082 0.06856
 C776 C 0.59755 0.77284 0.08011
 C777 C 0.58105 0.78677 0.09375
 N778 N 0.57271 0.77857 0.11486
 N779 N 0.55673 0.79108 0.12716
 C780 C 0.54855 0.81220 0.11874
 N781 N 0.55700 0.82041 0.09762
 N782 N 0.57298 0.80789 0.08532
 N783 N 0.35341 0.24304 0.04076
 C784 C 0.37017 0.25305 0.05497
 N785 N 0.37219 0.27707 0.05563
 N786 N 0.35805 0.29069 0.04232
 C787 C 0.34153 0.28072 0.02777
 N788 N 0.33924 0.25666 0.02744
 C789 C 0.38609 0.23846 0.06866
 C790 C 0.39988 0.22656 0.08003
 C791 C 0.41674 0.21276 0.09341
 N792 N 0.42543 0.22108 0.11433
 N793 N 0.44166 0.20867 0.12640
 C794 C 0.44977 0.18753 0.11794
 N795 N 0.44098 0.17922 0.09700
 N796 N 0.42475 0.19164 0.08493
 N797 N 0.61902 0.26569 0.96753
 C798 C 0.62679 0.25448 0.94763
 N799 N 0.64995 0.25668 0.94115
 N800 N 0.66492 0.26958 0.95426
 C801 C 0.65728 0.28059 0.97440
 N802 N 0.63398 0.27860 0.98064
 C803 C 0.61069 0.24050 0.93358
 C804 C 0.59706 0.22879 0.92186
 C805 C 0.58065 0.21494 0.90805
 N806 N 0.57256 0.19377 0.91633
 N807 N 0.55690 0.18115 0.90375
 C808 C 0.54882 0.18929 0.88247
 N809 N 0.55701 0.21047 0.87419
 N810 N 0.57267 0.22308 0.88677
 N811 N 0.38052 0.72847 0.95967
 C812 C 0.37182 0.74479 0.94418
 N813 N 0.34793 0.74806 0.94268
 N814 N 0.33319 0.73553 0.95643
 C815 C 0.34190 0.71947 0.97227
 N816 N 0.36581 0.71594 0.97341
 C817 C 0.38779 0.75859 0.92980
 C818 C 0.40154 0.77015 0.91806
 C819 C 0.41826 0.78385 0.90445
 N820 N 0.42671 0.77553 0.88343
 N821 N 0.44279 0.78794 0.87117
 C822 C 0.45098 0.80908 0.87955
 N823 N 0.44244 0.81739 0.90059
 N824 N 0.42636 0.80497 0.91284
 N825 N 0.75770 0.95898 0.35301
 C826 C 0.74769 0.94526 0.37018
 N827 N 0.72365 0.94501 0.37254
 N828 N 0.71004 0.95826 0.35835
 C829 C 0.72002 0.97232 0.34142
 N830 N 0.74408 0.97225 0.33879
 C831 C 0.76227 0.93165 0.38615
 C832 C 0.77412 0.92032 0.40002
 C833 C 0.78774 0.90691 0.41699
 N834 N 0.77947 0.88580 0.42523
 N835 N 0.79167 0.87369 0.44158
 C836 C 0.81254 0.88230 0.45026
 N837 N 0.82081 0.90343 0.44192
 N838 N 0.80859 0.91555 0.42557
 N839 N 0.28015 0.94529 0.62529
 C840 C 0.25607 0.94614 0.62704
 N841 N 0.24596 0.96073 0.64339
 N842 N 0.25951 0.97422 0.65743
 C843 C 0.28363 0.97370 0.65542
 N844 N 0.29371 0.95877 0.63931
 C845 C 0.24153 0.93207 0.61147
 C846 C 0.22952 0.92038 0.59808
 C847 C 0.21551 0.90660 0.58177
 N848 N 0.19421 0.91484 0.57392
 N849 N 0.18156 0.90238 0.55819
 C850 C 0.18980 0.88128 0.54978
 N851 N 0.21111 0.87305 0.55773
 N852 N 0.22375 0.88551 0.57346
 N853 N 0.27067 0.03992 0.38097
 C854 C 0.25426 0.05535 0.37231
 N855 N 0.25089 0.05680 0.34845
 N856 N 0.26342 0.04307 0.33370
 C857 C 0.27958 0.02729 0.34235
 N858 N 0.28320 0.02620 0.36624
 C859 C 0.24049 0.06976 0.38830
 C860 C 0.22899 0.08158 0.40204
 C861 C 0.21538 0.09531 0.41876
 N862 N 0.22379 0.11637 0.42699
 N863 N 0.21148 0.12874 0.44305
 C864 C 0.19036 0.12046 0.45144
 N865 N 0.18196 0.09939 0.44311
 N866 N 0.19427 0.08702 0.42705
 N867 N 0.72298 0.05943 0.63010
 C868 C 0.74634 0.05405 0.62722
 N869 N 0.75565 0.03526 0.63915
 N870 N 0.74197 0.02217 0.65345
 C871 C 0.71847 0.02731 0.65616
 N872 N 0.70931 0.04634 0.64439
 C873 C 0.76087 0.06784 0.61138
 C874 C 0.77282 0.07937 0.59780
 C875 C 0.78677 0.09297 0.58129
 N876 N 0.80793 0.08454 0.57328
 N877 N 0.82051 0.09684 0.55736
 C878 C 0.81235 0.11796 0.54893
 N879 N 0.79118 0.12639 0.55706
 N880 N 0.77860 0.11409 0.57297
 N881 N 0.94425 0.65128 0.25185
 C882 C 0.94591 0.62748 0.25542
 N883 N 0.96130 0.61909 0.27203
 N884 N 0.97477 0.63405 0.28456
 C885 C 0.97342 0.65787 0.28074
 N886 N 0.95772 0.66625 0.26438
 C887 C 0.93173 0.61133 0.24165
 C888 C 0.91999 0.59762 0.23006
 C889 C 0.90624 0.58110 0.21629
 N890 N 0.91446 0.57314 0.19505
 N891 N 0.90195 0.55738 0.18249
 C892 C 0.88080 0.54907 0.19078
 N893 N 0.87259 0.55713 0.21204
 N894 N 0.88510 0.57289 0.22459
 N895 N 0.94046 0.37052 0.72185
 C896 C 0.94544 0.37328 0.74529
 N897 N 0.96391 0.36110 0.75492
 N898 N 0.97711 0.34670 0.74146
 C899 C 0.97241 0.34413 0.71787
 N900 N 0.95367 0.35613 0.70839
 C901 C 0.93157 0.38924 0.75962
 C902 C 0.92002 0.40289 0.77149
 C903 C 0.90640 0.41942 0.78542
 N904 N 0.91493 0.42757 0.80647
 N905 N 0.90255 0.44337 0.81911
 C906 C 0.88124 0.45156 0.81111
 N907 N 0.87273 0.44331 0.79003
 N908 N 0.88511 0.42751 0.77740
 N909 N 0.05432 0.62417 0.72023
 C910 C 0.05370 0.62605 0.74428
 N911 N 0.03928 0.64254 0.75443
 N912 N 0.02573 0.65658 0.74092
 C913 C 0.02601 0.65445 0.71683
 N914 N 0.04078 0.63820 0.70672
 C915 C 0.06783 0.61046 0.75879
 C916 C 0.07953 0.59706 0.77080
 C917 C 0.09326 0.58075 0.78489
 N918 N 0.08493 0.57303 0.80619
 N919 N 0.09731 0.55730 0.81893
 C920 C 0.11843 0.54876 0.81078
 N921 N 0.12675 0.55659 0.78947
 N922 N 0.11437 0.57232 0.77673
 N923 N 0.03448 0.35984 0.24241
 C924 C 0.05412 0.37076 0.25126
 N925 N 0.06057 0.36662 0.27413
 N926 N 0.04768 0.35219 0.28782
 C927 C 0.02778 0.34148 0.27917
 N928 N 0.02159 0.34538 0.25611
 C929 C 0.06757 0.38704 0.23690
 C930 C 0.07890 0.40108 0.22527
 C931 C 0.09240 0.41814 0.21190
 N932 N 0.11327 0.42664 0.22057
 N933 N 0.12553 0.44297 0.20851
 C934 C 0.11730 0.45139 0.18739
 N935 N 0.09641 0.44281 0.17874
 N936 N 0.08415 0.42647 0.19080
   
