data_POSCAR
  _audit_creation_date              2014-09-24
  _audit_creation_method            'ToBaCCo'
  _symmetry_space_group_name_H-M    'P1'
  _symmetry_Int_Tables_number       1
  _symmetry_cell_setting            triclinic
  loop_
  _symmetry_equiv_pos_as_xyz
 x,y,z
_cell_length_a 17.9221
_cell_length_b 17.8785
_cell_length_c 17.3821
_cell_angle_alpha 89.479200
_cell_angle_beta 89.262800
_cell_angle_gamma 89.917200
loop_
  _atom_site_label
  _atom_site_type_symbol
  _atom_site_fract_x
  _atom_site_fract_y
  _atom_site_fract_z
C1 C -0.09618 0.51120 0.27627
 C2 C -0.02718 0.52554 0.24231
 C3 C -0.01063 0.59469 0.21035
 C4 C -0.06003 0.65448 0.21799
 C5 C -0.12808 0.64245 0.26040
 C6 C -0.14784 0.56874 0.28708
 C7 C 0.03000 0.46859 0.24385
 C8 C 0.01624 0.40051 0.21025
 C9 C 0.06949 0.34428 0.21223
 C10 C 0.13817 0.35662 0.24968
 C11 C 0.15233 0.42713 0.28389
 C12 C 0.09724 0.48238 0.28017
 H13 H -0.10688 0.45555 0.29919
 H14 H 0.04332 0.60214 0.18226
 H15 H -0.03669 0.39144 0.18209
 H16 H 0.10595 0.53664 0.30587
 H17 H -0.16689 0.68838 0.26814
 H18 H 0.17985 0.31272 0.25111
 C19 C -0.10014 0.48659 0.71301
 C20 C -0.03286 0.47383 0.74955
 C21 C -0.01778 0.40583 0.78466
 C22 C -0.06833 0.34659 0.78145
 C23 C -0.13751 0.35882 0.74283
 C24 C -0.15364 0.43031 0.70962
 C25 C 0.02402 0.53115 0.74955
 C26 C 0.01201 0.59604 0.79084
 C27 C 0.06510 0.65317 0.78992
 C28 C 0.13385 0.64139 0.74865
 C29 C 0.14728 0.57230 0.71026
 C30 C 0.09081 0.51894 0.71023
 H31 H -0.11064 0.54083 0.68674
 H32 H 0.03577 0.39905 0.81232
 H33 H -0.04090 0.60274 0.82106
 H34 H 0.09913 0.46638 0.68055
 H35 H -0.17837 0.31440 0.73970
 H36 H 0.17660 0.68416 0.74789
 C37 C 0.29914 -0.09773 0.51468
 C38 C 0.26487 -0.03026 0.53132
 C39 C 0.22432 -0.02059 0.59847
 C40 C 0.21459 -0.07975 0.64971
 C41 C 0.24560 -0.15100 0.63185
 C42 C 0.28918 -0.15984 0.56309
 C43 C 0.26277 0.02740 0.47323
 C44 C 0.22145 0.01513 0.40773
 C45 C 0.21881 0.06864 0.34893
 C46 C 0.25756 0.13773 0.35959
 C47 C 0.29702 0.15031 0.42901
 C48 C 0.29956 0.09411 0.48452
 H49 H 0.32954 -0.10241 0.46053
 H50 H 0.19855 0.03327 0.60988
 H51 H 0.19322 -0.03819 0.40236
 H52 H 0.32988 0.10235 0.53744
 H53 H 0.23726 -0.19766 0.67120
 H54 H 0.25643 0.18103 0.31561
 C55 C 0.71212 -0.10030 0.49129
 C56 C 0.74363 -0.03110 0.47415
 C57 C 0.77586 -0.01635 0.40327
 C58 C 0.77478 -0.06973 0.34629
 C59 C 0.73494 -0.13733 0.35905
 C60 C 0.70457 -0.15340 0.43367
 C61 C 0.74528 0.02609 0.53154
 C62 C 0.78301 0.01184 0.59837
 C63 C 0.78330 0.06395 0.65705
 C64 C 0.74604 0.13381 0.64587
 C65 C 0.71175 0.15009 0.57402
 C66 C 0.71111 0.09445 0.51821
 H67 H 0.68832 -0.10994 0.54825
 H68 H 0.80352 0.03693 0.39311
 H69 H 0.80980 -0.04231 0.60519
 H70 H 0.68424 0.10365 0.46342
 H71 H 0.73185 -0.17831 0.31365
 H72 H 0.74619 0.17547 0.69074
 C73 C 0.48109 0.27295 1.10111
 C74 C 0.47091 0.23476 1.03305
 C75 C 0.40390 0.20069 1.01704
 C76 C 0.34243 0.20854 1.06640
 C77 C 0.35130 0.25030 1.13565
 C78 C 0.42258 0.28066 1.15369
 C79 C 0.52900 0.23582 0.97498
 C80 C 0.59517 0.19861 0.98853
 C81 C 0.65559 0.20645 0.93766
 C82 C 0.64657 0.25072 0.86962
 C83 C 0.57626 0.28431 0.85418
 C84 C 0.51879 0.27731 0.90815
 H85 H 0.53481 0.29838 1.11229
 H86 H 0.39912 0.17166 0.96275
 H87 H 0.60037 0.16694 1.04179
 H88 H 0.46563 0.30479 0.89847
 H89 H 0.30481 0.25723 1.17539
 H90 H 0.69223 0.25708 0.82863
 C91 C 0.51317 0.73404 1.09798
 C92 C 0.52844 0.77030 1.02881
 C93 C 0.59754 0.80085 1.01304
 C94 C 0.65576 0.79217 1.06476
 C95 C 0.64251 0.74977 1.13359
 C96 C 0.56956 0.72249 1.15076
 C97 C 0.47307 0.77150 0.96990
 C98 C 0.40741 0.80955 0.98307
 C99 C 0.34843 0.80302 0.93234
 C100 C 0.35872 0.75987 0.86430
 C101 C 0.42864 0.72487 0.84913
 C102 C 0.48469 0.73060 0.90346
 H103 H 0.45809 0.71059 1.10843
 H104 H 0.60574 0.82942 0.95823
 H105 H 0.40141 0.84038 1.03631
 H106 H 0.53790 0.70273 0.89478
 H107 H 0.68694 0.74043 1.17428
 H108 H 0.31384 0.75446 0.82355
 B109 B 0.99913 1.07919 0.04744
 B110 B 1.04959 1.00410 0.07866
 B111 B 0.95396 1.00259 0.08088
 B112 B 0.92336 1.04823 0.00203
 B113 B 0.99854 1.07737 -0.05151
 B114 B 1.07603 1.05139 -0.00340
 B115 B 1.00099 0.92353 -0.04625
 B116 B 0.95127 0.99871 -0.07653
 B117 B 1.04711 1.00121 -0.07969
 B118 B 1.07799 0.95527 0.00063
 B119 B 1.00317 0.92561 0.05267
 B120 B 0.92524 0.95213 0.00415
 B121 B 0.57808 0.50225 0.45265
 B122 B 0.57478 0.50609 0.55049
 B123 B 0.54033 0.57895 0.49684
 B124 B 0.49830 0.54195 0.41807
 B125 B 0.50520 0.44733 0.42315
 B126 B 0.55263 0.42507 0.50459
 B127 B 0.42126 0.49507 0.54884
 B128 B 0.42413 0.49110 0.44985
 B129 B 0.45664 0.41853 0.50382
 B130 B 0.50015 0.45354 0.58181
 B131 B 0.49400 0.54964 0.57680
 B132 B 0.44587 0.57145 0.49489
 N133 N 1.02193 1.28114 0.09952
 C134 C 1.04998 1.27575 0.17165
 N135 N 1.04653 1.20906 0.20887
 N136 N 1.02214 1.14884 0.17234
 C137 C 1.00003 1.15286 0.09780
 N138 N 0.99827 1.22078 0.06300
 N139 N 0.93497 0.78926 0.20756
 C140 C 0.96111 0.72278 0.18238
 N141 N 1.01056 0.72322 0.12176
 N142 N 1.02877 0.78626 0.08440
 C143 C 1.00031 0.85252 0.10774
 N144 N 0.95527 0.85233 0.17157
 N145 N 0.92134 1.21269 -0.20176
 C146 C 0.95301 1.27847 -0.18301
 N147 N 1.00847 1.27721 -0.12969
 N148 N 1.02725 1.21453 -0.09244
 C149 C 0.99255 1.14942 -0.10811
 N150 N 0.94183 1.14991 -0.16581
 N151 N 0.99630 0.71965 -0.11130
 C152 C 1.04617 0.71993 -0.17162
 N153 N 1.07242 0.78659 -0.19690
 N154 N 1.05162 0.84923 -0.16172
 C155 C 1.00607 0.84906 -0.09839
 N156 N 0.97781 0.78245 -0.07441
 N157 N 1.12915 0.99224 0.28210
 C158 C 1.17915 1.05015 0.28198
 N159 N 1.19187 1.08686 0.21504
 N160 N 1.15495 1.06762 0.15239
 C161 C 1.10249 1.01278 0.15272
 N162 N 1.09089 0.97447 0.21934
 N163 N 1.20562 0.94372 -0.21187
 C164 C 1.17118 0.93821 -0.28042
 N165 N 1.10179 0.96832 -0.28736
 N166 N 1.06534 0.99562 -0.22642
 C167 C 1.09756 0.99632 -0.15634
 N168 N 1.16920 0.97158 -0.15121
 N169 N 0.78842 0.95542 0.20803
 C170 C 0.82005 0.94812 0.27776
 N171 N 0.89149 0.97216 0.28664
 N172 N 0.93206 0.99638 0.22673
 C173 C 0.90195 0.99955 0.15578
 N174 N 0.82894 0.98025 0.14843
 N175 N 0.79796 1.06732 -0.20648
 C176 C 0.82067 1.04292 -0.27605
 N177 N 0.87804 0.99257 -0.27946
 N178 N 0.91571 0.97286 -0.21695
 C179 C 0.89592 1.00094 -0.14786
 N180 N 0.83428 1.04542 -0.14402
 N181 N 1.20796 1.20289 0.06264
 C182 C 1.27553 1.17471 0.04300
 N183 N 1.27778 1.11416 -0.00437
 N184 N 1.21580 1.07920 -0.02544
 C185 C 1.14822 1.10487 -0.00246
 N186 N 1.14605 1.16912 0.03922
 N187 N 0.72030 1.10708 0.00221
 C188 C 0.72222 1.17065 -0.04180
 N189 N 0.78947 1.20043 -0.06016
 N190 N 0.85168 1.16607 -0.03793
 C191 C 0.85001 1.09962 0.00095
 N192 N 0.78265 1.07143 0.02166
 N193 N 1.28034 0.89523 0.00455
 C194 C 1.28121 0.83745 -0.04640
 N195 N 1.21549 0.81142 -0.07168
 N196 N 1.15238 0.84425 -0.04954
 C197 C 1.15148 0.90528 -0.00360
 N198 N 1.21699 0.92931 0.02468
 N199 N 0.72724 0.88004 -0.01123
 C200 C 0.72394 0.82657 0.04539
 N201 N 0.78751 0.80835 0.08186
 N202 N 0.85050 0.84397 0.06384
 C203 C 0.85316 0.90005 0.01058
 N204 N 0.79014 0.91662 -0.02783
 N205 N 0.76124 0.47841 0.33610
 C206 C 0.78471 0.55101 0.32652
 N207 N 0.74338 0.60526 0.35934
 N208 N 0.68223 0.58759 0.39946
 C209 C 0.65714 0.51620 0.40784
 N210 N 0.69843 0.46120 0.37499
 N211 N 0.28390 0.40188 0.31556
 C212 C 0.22288 0.44563 0.32347
 N213 N 0.22799 0.50801 0.36784
 N214 N 0.29063 0.52469 0.40465
 C215 C 0.35124 0.47973 0.39822
 N216 N 0.34625 0.41885 0.35218
 N217 N 0.71052 0.45590 0.70908
 C218 C 0.77614 0.45038 0.66975
 N219 N 0.77916 0.47742 0.59637
 N220 N 0.71792 0.50255 0.56162
 C221 C 0.65105 0.50468 0.59934
 N222 N 0.64950 0.48183 0.67430
 N223 N 0.21581 0.51603 0.60090
 C224 C 0.21817 0.55111 0.67013
 N225 N 0.28479 0.55489 0.70598
 N226 N 0.34672 0.52941 0.67143
 C227 C 0.34533 0.49857 0.59997
 N228 N 0.27793 0.49147 0.56611
 N229 N 0.48597 0.69009 0.26002
 C230 C 0.54997 0.67662 0.21899
 N231 N 0.58825 0.61320 0.23383
 N232 N 0.56640 0.56809 0.29097
 C233 C 0.50566 0.58358 0.33592
 N234 N 0.46481 0.64523 0.31824
 N235 N 0.41854 0.70150 0.70976
 C236 C 0.44651 0.68164 0.77882
 N237 N 0.49747 0.62504 0.78134
 N238 N 0.51624 0.58696 0.71837
 C239 C 0.48553 0.60421 0.64976
 N240 N 0.43803 0.66355 0.64701
 N241 N 0.46020 0.39617 0.21739
 C242 C 0.44073 0.32296 0.22397
 N243 N 0.45727 0.28650 0.29046
 N244 N 0.48558 0.32349 0.34988
 C245 C 0.50082 0.39796 0.34538
 N246 N 0.48801 0.43292 0.27699
 N247 N 0.54682 0.29209 0.71646
 C248 C 0.55832 0.32745 0.78396
 N249 N 0.53594 0.39982 0.79011
 N250 N 0.51100 0.43753 0.72908
 C251 C 0.50537 0.40425 0.65966
 N252 N 0.52122 0.32987 0.65566
 N253 N 0.61930 0.75162 0.39798
 C254 C 0.66372 0.78178 0.45133
 N255 N 0.66219 0.75181 0.52407
 N256 N 0.62180 0.69088 0.54109
 C257 C 0.57823 0.65992 0.48676
 N258 N 0.57690 0.69315 0.41616
 N259 N 0.68755 0.28530 0.59496
 C260 C 0.67605 0.22280 0.55356
 N261 N 0.63209 0.22818 0.49024
 N262 N 0.59789 0.29186 0.47134
 C263 C 0.60641 0.35353 0.51476
 N264 N 0.65333 0.34891 0.57572
 N265 N 0.29513 0.70534 0.56278
 C266 C 0.32245 0.77248 0.53972
 N267 N 0.38243 0.77333 0.49053
 N268 N 0.41724 0.71051 0.47024
 C269 C 0.39189 0.64337 0.49569
 N270 N 0.32881 0.64253 0.54030
 N271 N 0.41003 0.21540 0.46888
 C272 C 0.33720 0.21959 0.44822
 N273 N 0.29952 0.28382 0.46269
 N274 N 0.33545 0.34359 0.48886
 C275 C 0.41014 0.34175 0.50218
 N276 N 0.44591 0.27539 0.49432
   
