data_POSCAR
  _audit_creation_date              2014-09-24
  _audit_creation_method            'ToBaCCo'
  _symmetry_space_group_name_H-M    'P1'
  _symmetry_Int_Tables_number       1
  _symmetry_cell_setting            triclinic
  loop_
  _symmetry_equiv_pos_as_xyz
 x,y,z
_cell_length_a 43.7843
_cell_length_b 43.7815
_cell_length_c 43.7815
_cell_angle_alpha 89.999700
_cell_angle_beta 90.000900
_cell_angle_gamma 89.999600
loop_
  _atom_site_label
  _atom_site_type_symbol
  _atom_site_fract_x
  _atom_site_fract_y
  _atom_site_fract_z
C1 C 0.24998 0.50000 0.99996
 C2 C 0.74998 0.50003 0.00003
 C3 C -0.00003 0.25002 0.49997
 C4 C 1.00000 0.75003 0.50003
 C5 C 0.49994 -0.00001 0.25000
 C6 C 0.50002 0.00005 0.74999
 C7 C 0.29665 0.02312 0.46324
 H8 H 0.29744 0.04059 0.48070
 C9 C 0.31730 0.02391 0.43896
 H10 H 0.33403 0.04210 0.43761
 C11 C 0.27448 -0.02247 0.44408
 H12 H 0.25820 -0.04083 0.44648
 C13 C 0.29476 -0.02254 0.41942
 H14 H 0.29385 -0.04081 0.40277
 N15 N 0.27569 0.00026 0.46528
 C16 C 0.20331 0.03682 0.52311
 H17 H 0.20253 0.01937 0.54059
 C18 C 0.18265 0.06110 0.52391
 H19 H 0.16593 0.06244 0.54210
 C20 C 0.22547 0.05598 0.47752
 H21 H 0.24175 0.05358 0.45916
 C22 C 0.20519 0.08064 0.47746
 H23 H 0.20610 0.09729 0.45918
 Zn24 Zn 0.24998 0.00004 0.50003
 N25 N 0.22427 0.03479 0.50025
 C26 C 0.27450 0.02255 0.55597
 N27 N 0.27570 -0.00018 0.53478
 C28 C 0.29666 -0.02304 0.53681
 C29 C 0.31732 -0.02383 0.56108
 C30 C 0.29478 0.02262 0.58062
 C31 C 0.20331 -0.03674 0.47696
 C32 C 0.18265 -0.06102 0.47616
 C33 C 0.20520 -0.08056 0.52261
 C34 C 0.22548 -0.05591 0.52254
 N35 N 0.22427 -0.03471 0.49981
 H36 H 0.25822 0.04091 0.55357
 H37 H 0.29745 -0.04051 0.51935
 H38 H 0.33405 -0.04202 0.56242
 H39 H 0.29388 0.04089 0.59728
 H40 H 0.20252 -0.01928 0.45949
 H41 H 0.16592 -0.06236 0.45798
 H42 H 0.20612 -0.09722 0.54089
 H43 H 0.24176 -0.05351 0.54090
 C44 C 0.18357 0.08316 0.50084
 C45 C 0.31638 0.00084 0.41690
 C46 C 0.18358 -0.08308 0.49923
 C47 C 0.31640 -0.00076 0.58314
 C48 C 0.70331 0.02310 0.53674
 H49 H 0.70252 0.04056 0.51927
 C50 C 0.68266 0.02390 0.56102
 H51 H 0.66593 0.04209 0.56236
 C52 C 0.72548 -0.02248 0.55592
 H53 H 0.74177 -0.04084 0.55353
 C54 C 0.70521 -0.02254 0.58058
 H55 H 0.70613 -0.04080 0.59724
 N56 N 0.72428 0.00024 0.53471
 C57 C 0.79665 0.03679 0.47686
 H58 H 0.79744 0.01933 0.45940
 C59 C 0.81731 0.06107 0.47606
 H60 H 0.83403 0.06241 0.45787
 C61 C 0.77449 0.05597 0.52244
 H62 H 0.75821 0.05357 0.54081
 C63 C 0.79476 0.08062 0.52250
 H64 H 0.79385 0.09729 0.54077
 Zn65 Zn 0.74998 0.00001 0.49996
 N66 N 0.77569 0.03476 0.49972
 C67 C 0.72547 0.02249 0.44401
 N68 N 0.72427 -0.00023 0.46521
 C69 C 0.70331 -0.02309 0.46319
 C70 C 0.68265 -0.02389 0.43892
 C71 C 0.70519 0.02255 0.41936
 C72 C 0.79666 -0.03676 0.52305
 C73 C 0.81732 -0.06103 0.52385
 C74 C 0.79477 -0.08060 0.47742
 C75 C 0.77450 -0.05594 0.47747
 N76 N 0.77570 -0.03474 0.50019
 H77 H 0.74175 0.04086 0.44640
 H78 H 0.70253 -0.04055 0.48066
 H79 H 0.66592 -0.04208 0.43758
 H80 H 0.70609 0.04082 0.40269
 H81 H 0.79745 -0.01929 0.54051
 H82 H 0.83405 -0.06237 0.54204
 H83 H 0.79387 -0.09726 0.45915
 H84 H 0.75821 -0.05355 0.45911
 C85 C 0.81638 0.08314 0.49912
 C86 C 0.68359 0.00084 0.58309
 C87 C 0.81640 -0.08310 0.50079
 C88 C 0.68357 -0.00083 0.41685
 C89 C 0.47685 0.20335 1.03676
 H90 H 0.45941 0.20255 1.01927
 C91 C 0.47601 0.18268 1.06104
 H92 H 0.45783 0.16595 1.06234
 C93 C 0.52239 0.22551 1.05601
 H94 H 0.54076 0.24180 1.05365
 C95 C 0.52242 0.20524 1.08066
 H96 H 0.54066 0.20614 1.09735
 N97 N 0.49970 0.22431 1.03477
 C98 C 0.46328 0.29671 0.97686
 H99 H 0.48079 0.29750 0.95944
 C100 C 0.43901 0.31736 0.97600
 H101 H 0.43771 0.33409 0.95782
 C102 C 0.44399 0.27453 1.02239
 H103 H 0.44634 0.25824 1.04075
 C104 C 0.41934 0.29480 1.02238
 H105 H 0.40263 0.29388 1.04061
 Zn106 Zn 0.50000 0.25003 1.00003
 N107 N 0.46526 0.27574 0.99972
 C108 C 0.47761 0.22553 0.94403
 N109 N 0.50030 0.22432 0.96527
 C110 C 0.52316 0.20335 0.96328
 C111 C 0.52399 0.18270 0.93900
 C112 C 0.47759 0.20525 0.91938
 C113 C 0.53672 0.29670 1.02320
 C114 C 0.56099 0.31736 1.02406
 C115 C 0.58066 0.29481 0.97767
 C116 C 0.55601 0.27453 0.97767
 N117 N 0.53475 0.27574 1.00034
 H118 H 0.45924 0.24181 0.94640
 H119 H 0.54059 0.20256 0.98077
 H120 H 0.54218 0.16596 0.93769
 H121 H 0.45934 0.20617 0.90269
 H122 H 0.51921 0.29750 1.04062
 H123 H 0.56228 0.33409 1.04225
 H124 H 0.59737 0.29390 0.95944
 H125 H 0.55366 0.25825 0.95930
 C126 C 0.41688 0.31643 0.99900
 C127 C 0.49904 0.18361 1.08314
 C128 C 0.58312 0.31643 1.00106
 C129 C 0.50096 0.18362 0.91690
 C130 C 0.47683 0.79669 -0.03679
 H131 H 0.45938 0.79748 -0.01931
 C132 C 0.47600 0.81735 -0.06106
 H133 H 0.45782 0.83408 -0.06238
 C134 C 0.52238 0.77452 -0.05601
 H135 H 0.54075 0.75824 -0.05363
 C136 C 0.52242 0.79480 -0.08066
 H137 H 0.54068 0.79389 -0.09734
 N138 N 0.49968 0.77572 -0.03478
 C139 C 0.46324 0.70333 0.02311
 H140 H 0.48074 0.70254 0.04054
 C141 C 0.43897 0.68267 0.02396
 H142 H 0.43767 0.66594 0.04215
 C143 C 0.44397 0.72550 -0.02242
 H144 H 0.44633 0.74179 -0.04079
 C145 C 0.41932 0.70523 -0.02243
 H146 H 0.40262 0.70614 -0.04067
 Zn147 Zn 0.49997 0.75001 -0.00003
 N148 N 0.46522 0.72430 0.00025
 C149 C 0.47754 0.77451 0.05594
 N150 N 0.50024 0.77572 0.03472
 C151 C 0.52310 0.79668 0.03673
 C152 C 0.52392 0.81734 0.06100
 C153 C 0.47751 0.79478 0.08060
 C154 C 0.53670 0.70334 -0.02318
 C155 C 0.56097 0.68268 -0.02404
 C156 C 0.58062 0.70524 0.02236
 C157 C 0.55596 0.72551 0.02235
 N158 N 0.53471 0.72430 -0.00033
 H159 H 0.45918 0.75822 0.05357
 H160 H 0.54054 0.79748 0.01924
 H161 H 0.54210 0.83408 0.06232
 H162 H 0.45925 0.79387 0.09728
 H163 H 0.51920 0.70254 -0.04061
 H164 H 0.56228 0.66595 -0.04222
 H165 H 0.59732 0.70615 0.04060
 H166 H 0.55361 0.74180 0.04072
 C167 C 0.41685 0.68360 0.00095
 C168 C 0.49904 0.81643 -0.08315
 C169 C 0.58309 0.68361 -0.00102
 C170 C 0.50088 0.81641 0.08309
 C171 C 1.03674 0.47690 0.20330
 H172 H 1.01923 0.45947 0.20251
 C173 C 1.06101 0.47603 0.18265
 H174 H 1.06230 0.45785 0.16591
 C175 C 1.05602 0.52242 0.22547
 H176 H 1.05368 0.54079 0.24176
 C177 C 1.08068 0.52243 0.20520
 H178 H 1.09738 0.54065 0.20611
 N179 N 1.03477 0.49975 0.22427
 C180 C 0.97688 0.46331 0.29666
 H181 H 0.95944 0.48080 0.29746
 C182 C 0.97605 0.43903 0.31732
 H183 H 0.95787 0.43772 0.33406
 C184 C 1.02242 0.44407 0.27449
 H185 H 1.04079 0.44644 0.25820
 C186 C 1.02246 0.41941 0.29476
 H187 H 1.04070 0.40273 0.29385
 Zn188 Zn 1.00002 0.50006 0.24999
 N189 N 0.99973 0.46531 0.27570
 C190 C 0.94402 0.47769 0.22549
 N191 N 0.96527 0.50036 0.22428
 C192 C 0.96330 0.52322 0.20331
 C193 C 0.93902 0.52408 0.18266
 C194 C 0.91936 0.47769 0.20522
 C195 C 1.02318 0.53680 0.29666
 C196 C 1.02401 0.56108 0.31732
 C197 C 0.97760 0.58069 0.29477
 C198 C 0.97763 0.55604 0.27450
 N199 N 1.00032 0.53481 0.27570
 H200 H 0.94637 0.45932 0.24178
 H201 H 0.98080 0.54064 0.20252
 H202 H 0.93772 0.54226 0.16593
 H203 H 0.90265 0.45946 0.20614
 H204 H 1.04062 0.51932 0.29745
 H205 H 1.04219 0.56239 0.33406
 H206 H 0.95935 0.59738 0.29387
 H207 H 0.95926 0.55367 0.25821
 C208 C 0.99908 0.41693 0.31639
 C209 C 1.08313 0.49904 0.18357
 C210 C 1.00097 0.58317 0.31640
 C211 C 0.91689 0.50107 0.18359
 C212 C -0.03678 0.47684 0.79668
 H213 H -0.01928 0.45941 0.79747
 C214 C -0.06105 0.47598 0.81734
 H215 H -0.06235 0.45779 0.83407
 C216 C -0.05605 0.52237 0.77452
 H217 H -0.05370 0.54074 0.75823
 C218 C -0.08071 0.52238 0.79479
 H219 H -0.09741 0.54061 0.79388
 N220 N -0.03480 0.49970 0.77572
 C221 C 0.02308 0.46325 0.70333
 H222 H 0.04052 0.48073 0.70253
 C223 C 0.02391 0.43898 0.68266
 H224 H 0.04209 0.43766 0.66593
 C225 C -0.02247 0.44402 0.72549
 H226 H -0.04084 0.44639 0.74178
 C227 C -0.02251 0.41937 0.70521
 H228 H -0.04076 0.40268 0.70612
 Zn229 Zn -0.00006 0.49999 0.75001
 N230 N 0.00023 0.46525 0.72429
 C231 C 0.05594 0.47761 0.77451
 N232 N 0.03469 0.50028 0.77572
 C233 C 0.03667 0.52314 0.79669
 C234 C 0.06095 0.52399 0.81734
 C235 C 0.08060 0.47760 0.79477
 C236 C -0.02320 0.53676 0.70334
 C237 C -0.02403 0.56103 0.68268
 C238 C 0.02239 0.58063 0.70523
 C239 C 0.02235 0.55598 0.72551
 N240 N -0.00034 0.53475 0.72430
 H241 H 0.05359 0.45924 0.75821
 H242 H 0.01917 0.54057 0.79748
 H243 H 0.06225 0.54218 0.83407
 H244 H 0.09731 0.45937 0.79386
 H245 H -0.04065 0.51927 0.70254
 H246 H -0.04221 0.56235 0.66595
 H247 H 0.04064 0.59731 0.70615
 H248 H 0.04072 0.55360 0.74179
 C249 C 0.00087 0.41688 0.68358
 C250 C -0.08317 0.49899 0.81642
 C251 C -0.00099 0.58312 0.68361
 C252 C 0.08307 0.50098 0.81640
 C253 C 0.07427 0.19286 0.50009
 N254 N 0.08558 0.18184 0.47344
 N255 N 0.10799 0.16124 0.47355
 C256 C 0.11975 0.15101 0.50033
 N257 N 0.10848 0.16207 0.52698
 N258 N 0.08608 0.18268 0.52686
 C259 C 0.04900 0.21371 0.50000
 C260 C 0.02718 0.23053 0.49997
 C261 C 0.14279 0.12771 0.50048
 C262 C 0.16164 0.10764 0.50063
 C263 C 0.69281 0.57434 -0.00039
 N264 N 0.68207 0.58561 -0.02717
 N265 N 0.66146 0.60802 -0.02729
 C266 C 0.65095 0.61980 -0.00064
 N267 N 0.66174 0.60857 0.02614
 N268 N 0.68235 0.58616 0.02626
 C269 C 0.71366 0.54907 -0.00024
 C270 C 0.73048 0.52725 -0.00012
 C271 C 0.62765 0.64284 -0.00076
 C272 C 0.60758 0.66169 -0.00087
 C273 C 0.92569 -0.19281 0.50010
 N274 N 0.91444 -0.18175 0.47344
 N275 N 0.89203 -0.16115 0.47354
 C276 C 0.88022 -0.15096 0.50031
 N277 N 0.89144 -0.16206 0.52697
 N278 N 0.91384 -0.18266 0.52686
 C279 C 0.95097 -0.21366 0.50003
 C280 C 0.97279 -0.23048 0.50001
 C281 C 0.85718 -0.12765 0.50045
 C282 C 0.83833 -0.10759 0.50060
 C283 C 0.30716 0.42570 0.99958
 N284 N 0.31789 0.41440 0.97280
 N285 N 0.33850 0.39200 0.97269
 C286 C 0.34901 0.38023 0.99935
 N287 N 0.33824 0.39149 1.02613
 N288 N 0.31763 0.41389 1.02624
 C289 C 0.28630 0.45097 0.99971
 C290 C 0.26948 0.47279 0.99982
 C291 C 0.37232 0.35720 0.99924
 C292 C 0.39239 0.33835 0.99914
 C293 C 0.92567 0.19285 0.49984
 N294 N 0.91389 0.18264 0.47307
 N295 N 0.89149 0.16203 0.47296
 C296 C 0.88020 0.15100 0.49961
 N297 N 0.89193 0.16126 0.52639
 N298 N 0.91433 0.18187 0.52650
 C299 C 0.95094 0.21370 0.49993
 C300 C 0.97276 0.23052 0.49997
 C301 C 0.85716 0.12769 0.49946
 C302 C 0.83831 0.10762 0.49932
 C303 C 0.30715 0.57431 0.00034
 N304 N 0.31766 0.58608 -0.02632
 N305 N 0.33827 0.60848 -0.02620
 C306 C 0.34900 0.61978 0.00057
 N307 N 0.33843 0.60806 0.02723
 N308 N 0.31783 0.58565 0.02711
 C309 C 0.28630 0.54904 0.00020
 C310 C 0.26948 0.52722 0.00009
 C311 C 0.37230 0.64282 0.00069
 C312 C 0.39237 0.66168 0.00080
 C313 C 0.07430 -0.19280 0.49996
 N314 N 0.08619 -0.18270 0.47319
 N315 N 0.10859 -0.16209 0.47309
 C316 C 0.11977 -0.15094 0.49974
 N317 N 0.10792 -0.16109 0.52651
 N318 N 0.08552 -0.18170 0.52661
 C319 C 0.04903 -0.21365 0.50003
 C320 C 0.02721 -0.23047 0.50005
 C321 C 0.14280 -0.12764 0.49959
 C322 C 0.16165 -0.10757 0.49944
 C323 C 0.69282 0.42572 1.00046
 N324 N 0.68241 0.41386 0.97381
 N325 N 0.66180 0.39145 0.97393
 C326 C 0.65097 0.38025 1.00070
 N327 N 0.66143 0.39208 1.02736
 N328 N 0.68204 0.41448 1.02724
 C329 C 0.71367 0.45100 1.00031
 C330 C 0.73049 0.47282 1.00019
 C331 C 0.62767 0.35721 1.00082
 C332 C 0.60760 0.33836 1.00092
 C333 C 0.49975 0.07430 1.19283
 N334 N 0.52640 0.08573 1.18195
 N335 N 0.52628 0.10814 1.16134
 C336 C 0.49951 0.11977 1.15098
 N337 N 0.47285 0.10838 1.16192
 N338 N 0.47298 0.08597 1.18252
 C339 C 0.49986 0.04902 1.21369
 C340 C 0.49992 0.02720 1.23050
 C341 C 0.49936 0.14281 1.12768
 C342 C 0.49922 0.16167 1.10762
 C343 C -0.00022 0.69284 0.57432
 N344 N -0.02701 0.68253 0.58598
 N345 N -0.02714 0.66192 0.60838
 C346 C -0.00049 0.65098 0.61979
 N347 N 0.02629 0.66134 0.60817
 N348 N 0.02642 0.68195 0.58577
 C349 C -0.00011 0.71370 0.54905
 C350 C -0.00004 0.73053 0.52724
 C351 C -0.00066 0.62767 0.64282
 C352 C -0.00080 0.60761 0.66168
 C353 C 0.49981 0.92574 -0.19284
 N354 N 0.52646 0.91432 -0.18193
 N355 N 0.52632 0.89191 -0.16132
 C356 C 0.49954 0.88027 -0.15099
 N357 N 0.47290 0.89164 -0.16196
 N358 N 0.47303 0.91404 -0.18257
 C359 C 0.49993 0.95101 -0.21370
 C360 C 0.49999 0.97283 -0.23051
 C361 C 0.49938 0.85722 -0.12769
 C362 C 0.49923 0.83836 -0.10763
 C363 C 0.99979 0.30721 0.42567
 N364 N 1.02645 0.31814 0.41428
 N365 N 1.02633 0.33875 0.39188
 C366 C 0.99955 0.34907 0.38021
 N367 N 0.97290 0.33809 0.39156
 N368 N 0.97302 0.31748 0.41396
 C369 C 0.99989 0.28635 0.45094
 C370 C 0.99995 0.26952 0.47276
 C371 C 0.99940 0.37238 0.35717
 C372 C 0.99926 0.39245 0.33832
 C373 C 0.50013 0.92569 0.19282
 N374 N 0.52691 0.91397 0.18256
 N375 N 0.52704 0.89157 0.16195
 C376 C 0.50039 0.88023 0.15095
 N377 N 0.47361 0.89190 0.16126
 N378 N 0.47348 0.91430 0.18187
 C379 C 0.50002 0.95096 0.21368
 C380 C 0.49997 0.97278 0.23050
 C381 C 0.50055 0.85719 0.12765
 C382 C 0.50070 0.83834 0.10758
 C383 C 0.00014 0.30719 0.57428
 N384 N 0.02691 0.31743 0.58602
 N385 N 0.02704 0.33803 0.60842
 C386 C 0.00039 0.34904 0.61975
 N387 N -0.02639 0.33875 0.60805
 N388 N -0.02651 0.31815 0.58565
 C389 C 0.00004 0.28634 0.54900
 C390 C -0.00002 0.26952 0.52718
 C391 C 0.00054 0.37234 0.64279
 C392 C 0.00069 0.39240 0.66165
 C393 C 0.50024 0.07435 0.80717
 N394 N 0.52702 0.08598 0.81753
 N395 N 0.52715 0.10838 0.83814
 C396 C 0.50050 0.11981 0.84904
 N397 N 0.47372 0.10822 0.83864
 N398 N 0.47359 0.08582 0.81803
 C399 C 0.50012 0.04908 0.78632
 C400 C 0.50006 0.02726 0.76949
 C401 C 0.50065 0.14284 0.87235
 C402 C 0.50079 0.16170 0.89241
 C403 C 1.00022 0.69286 0.42571
 N404 N 0.97358 0.68198 0.41427
 N405 N 0.97371 0.66137 0.39186
 C406 C 1.00049 0.65101 0.38024
 N407 N 1.02714 0.66195 0.39164
 N408 N 1.02700 0.68255 0.41405
 C409 C 1.00011 0.71371 0.45099
 C410 C 1.00004 0.73053 0.47281
 C411 C 1.00065 0.62771 0.35720
 C412 C 1.00080 0.60765 0.33834
 C413 C 1.19283 0.49962 0.07427
 N414 N 1.18210 0.47285 0.08558
 N415 N 1.16150 0.47274 0.10799
 C416 C 1.15098 0.49939 0.11975
 N417 N 1.16176 0.52617 0.10849
 N418 N 1.18236 0.52628 0.08608
 C419 C 1.21368 0.49975 0.04900
 C420 C 1.23049 0.49987 0.02718
 C421 C 1.12768 0.49928 0.14279
 C422 C 1.10762 0.49918 0.16165
 C423 C 0.57432 0.00014 0.69281
 N424 N 0.58558 -0.02652 0.68176
 N425 N 0.60798 -0.02642 0.66115
 C426 C 0.61978 0.00035 0.65095
 N427 N 0.60856 0.02701 0.66205
 N428 N 0.58616 0.02690 0.68266
 C429 C 0.54905 0.00006 0.71367
 C430 C 0.52723 0.00003 0.73049
 C431 C 0.64282 0.00050 0.62765
 C432 C 0.66167 0.00064 0.60758
 C433 C -0.19286 0.49961 0.92572
 N434 N -0.18211 0.47283 0.91445
 N435 N -0.16151 0.47271 0.89205
 C436 C -0.15102 0.49937 0.88024
 N437 N -0.16182 0.52614 0.89146
 N438 N -0.18243 0.52627 0.91387
 C439 C -0.21371 0.49976 0.95099
 C440 C -0.23053 0.49988 0.97282
 C441 C -0.12772 0.49925 0.85720
 C442 C -0.10765 0.49914 0.83835
 C443 C 0.42565 0.00009 0.30718
 N444 N 0.41438 -0.02656 0.31823
 N445 N 0.39198 -0.02645 0.33884
 C446 C 0.38019 0.00033 0.34904
 N447 N 0.39141 0.02698 0.33793
 N448 N 0.41381 0.02686 0.31732
 C449 C 0.45092 0.00001 0.28632
 C450 C 0.47273 -0.00002 0.26950
 C451 C 0.35715 0.00048 0.37234
 C452 C 0.33830 0.00064 0.39241
 C453 C 0.19280 0.50038 0.92566
 N454 N 0.18211 0.52716 0.91434
 N455 N 0.16149 0.52727 0.89194
 C456 C 0.15094 0.50061 0.88020
 N457 N 0.16169 0.47384 0.89149
 N458 N 0.18230 0.47372 0.91389
 C459 C 0.21366 0.50025 0.95093
 C460 C 0.23048 0.50014 0.97275
 C461 C 0.12763 0.50073 0.85717
 C462 C 0.10756 0.50084 0.83832
 C463 C 0.57426 -0.00012 0.30716
 N464 N 0.58605 -0.02689 0.31736
 N465 N 0.60846 -0.02700 0.33796
 C466 C 0.61973 -0.00034 0.34900
 N467 N 0.60798 0.02643 0.33876
 N468 N 0.58557 0.02654 0.31816
 C469 C 0.54898 -0.00004 0.28631
 C470 C 0.52716 -0.00001 0.26949
 C471 C 0.64278 -0.00049 0.37230
 C472 C 0.66163 -0.00064 0.39237
 C473 C 0.80716 0.50046 0.07433
 N474 N 0.81793 0.52724 0.08558
 N475 N 0.83854 0.52736 0.10798
 C476 C 0.84902 0.50071 0.11979
 N477 N 0.83820 0.47393 0.10858
 N478 N 0.81759 0.47381 0.08618
 C479 C 0.78630 0.50031 0.04906
 C480 C 0.76948 0.50019 0.02724
 C481 C 0.87233 0.50082 0.14282
 C482 C 0.89240 0.50093 0.16167
 C483 C 0.42571 -0.00003 0.69283
 N484 N 0.41448 0.02663 0.68174
 N485 N 0.39207 0.02652 0.66114
 C486 C 0.38024 -0.00025 0.65099
 N487 N 0.39142 -0.02690 0.66212
 N488 N 0.41383 -0.02680 0.68273
 C489 C 0.45099 0.00004 0.71368
 C490 C 0.47281 0.00007 0.73050
 C491 C 0.35719 -0.00040 0.62769
 C492 C 0.33834 -0.00056 0.60762
   
