data_POSCAR
  _audit_creation_date              2014-09-24
  _audit_creation_method            'ToBaCCo'
  _symmetry_space_group_name_H-M    'P1'
  _symmetry_Int_Tables_number       1
  _symmetry_cell_setting            triclinic
  loop_
  _symmetry_equiv_pos_as_xyz
 x,y,z
_cell_length_a 21.8676
_cell_length_b 21.8627
_cell_length_c 21.9218
_cell_angle_alpha 83.751000
_cell_angle_beta 96.282100
_cell_angle_gamma 97.896500
loop_
  _atom_site_label
  _atom_site_type_symbol
  _atom_site_fract_x
  _atom_site_fract_y
  _atom_site_fract_z
C1 C 0.61705 0.61746 -0.00023
 C2 C 0.63085 0.55612 0.00197
 C3 C 0.58117 0.50764 0.00500
 C4 C 0.51887 0.51941 -0.00009
 C5 C 0.50722 0.58176 -0.00522
 C6 C 0.55577 0.63139 -0.00235
 C7 C 0.46621 0.46681 -0.00005
 C8 C 0.40701 0.47513 0.01524
 C9 C 0.35680 0.42759 0.01185
 C10 C 0.36767 0.36833 0.00004
 C11 C 0.42686 0.35738 -0.01182
 C12 C 0.47442 0.40756 -0.01532
 H13 H 0.65459 0.65495 -0.00030
 H14 H 0.59093 0.46046 0.00902
 H15 H 0.46007 0.59159 -0.00916
 H16 H 0.39901 0.51839 0.03050
 H17 H 0.33002 0.33069 0.00008
 H18 H 0.51760 0.39948 -0.03063
 C19 C -0.00549 0.62637 0.38177
 C20 C 0.00173 0.64318 0.44275
 C21 C 0.00681 0.59532 0.49116
 C22 C 0.00049 0.53239 0.47972
 C23 C -0.00779 0.51802 0.41790
 C24 C -0.00694 0.56466 0.36824
 C25 C 0.00355 0.48164 0.53192
 C26 C 0.01989 0.42344 0.52233
 C27 C 0.01716 0.37375 0.56854
 C28 C 0.00456 0.38414 0.62761
 C29 C -0.00805 0.44253 0.64007
 C30 C -0.01089 0.49015 0.59146
 H31 H -0.01461 0.66080 0.34395
 H32 H 0.01841 0.60713 0.53788
 H33 H -0.01253 0.47030 0.40848
 H34 H 0.03519 0.41580 0.47891
 H35 H 0.00461 0.34656 0.66404
 H36 H -0.02533 0.53337 0.60046
 C37 C 0.62721 -0.00641 0.61825
 C38 C 0.56573 -0.00655 0.63062
 C39 C 0.51924 -0.00544 0.58150
 C40 C 0.53362 0.00171 0.51979
 C41 C 0.59662 0.00605 0.50865
 C42 C 0.64432 0.00024 0.55739
 C43 C 0.48290 0.00518 0.46761
 C44 C 0.49114 -0.00943 0.40809
 C45 C 0.44338 -0.00664 0.35963
 C46 C 0.38508 0.00603 0.37220
 C47 C 0.37491 0.01874 0.43128
 C48 C 0.42476 0.02159 0.47734
 H49 H 0.66090 -0.01390 0.65726
 H50 H 0.47184 -0.00930 0.59222
 H51 H 0.60868 0.01699 0.46199
 H52 H 0.53422 -0.02403 0.39895
 H53 H 0.34739 0.00596 0.33586
 H54 H 0.41723 0.03690 0.52078
 O55 O 0.45744 -0.01491 -0.10130
 O56 O 0.43445 -0.02601 0.06430
 O57 O 0.42949 0.06185 -0.02717
 O58 O 0.45541 -0.10204 -0.01269
 O59 O 0.55561 -0.07450 0.00973
 O60 O 0.52937 0.08956 -0.00343
 O61 O 0.53464 0.00195 0.08593
 O62 O 0.55718 0.01464 -0.07829
 Cu63 Cu 0.43401 -0.02263 -0.02132
 Cu64 Cu 0.55414 0.01080 0.00568
 C65 C 0.51186 0.00069 -0.11772
 C66 C 0.48088 -0.01396 0.10342
 C67 C 0.47476 0.10374 -0.01726
 C68 C 0.51003 -0.11623 -0.00012
 O69 O -0.07530 0.55573 0.98958
 O70 O 0.08888 0.52993 1.00359
 O71 O 0.00146 0.53456 0.91386
 O72 O 0.01327 0.55765 1.07802
 O73 O -0.01507 0.45780 1.10142
 O74 O -0.02665 0.43444 0.93570
 O75 O 0.06140 0.42997 1.02708
 O76 O -0.10255 0.45561 1.01281
 Cu77 Cu 0.00997 0.55439 0.99406
 Cu78 Cu -0.02308 0.43429 1.02137
 C79 C -0.11690 0.51014 0.99978
 C80 C 0.10319 0.47534 1.01734
 C81 C -0.01453 0.48074 0.89646
 C82 C -0.00015 0.51238 1.11770
 O83 O -0.00453 -0.06159 0.43985
 O84 O 0.00500 0.10339 0.46511
 O85 O 0.08137 0.03244 0.43660
 O86 O -0.08433 0.01162 0.46056
 O87 O -0.06030 -0.00633 0.56075
 O88 O 0.10474 0.00473 0.53533
 O89 O 0.03301 0.08038 0.56384
 O90 O 0.01370 -0.08538 0.54006
 Cu91 Cu -0.00327 0.02359 0.44057
 Cu92 Cu 0.02495 -0.00427 0.55996
 C93 C 0.00335 -0.10164 0.48568
 C94 C 0.02138 0.12014 0.51889
 C95 C 0.12131 0.02123 0.48152
 C96 C -0.10048 0.00118 0.51497
 C97 C -0.28696 0.48711 1.02678
 C98 C -0.30689 0.54393 1.00061
 C99 C -0.26268 0.58837 0.97227
 C100 C -0.20147 0.57713 0.97152
 C101 C -0.18236 0.52087 0.99812
 C102 C -0.22581 0.47579 1.02525
 H103 H -0.31717 0.45188 1.05134
 H104 H -0.27516 0.63140 0.94825
 H105 H -0.16916 0.61248 0.94948
 H106 H -0.21213 0.43218 1.04697
 C107 C 0.27384 0.49820 0.99292
 C108 C 0.29274 0.44094 1.01797
 C109 C 0.24905 0.39608 1.04559
 C110 C 0.18771 0.40754 1.04638
 C111 C 0.16885 0.46438 1.02028
 C112 C 0.21286 0.50991 0.99444
 H113 H 0.30568 0.53346 0.97020
 H114 H 0.26206 0.35194 1.06637
 H115 H 0.15494 0.37171 1.06707
 H116 H 0.19972 0.55401 0.97357
 C117 C -0.01149 -0.27724 0.51136
 C118 C 0.00344 -0.29352 0.45446
 C119 C 0.01911 -0.24437 0.40895
 C120 C 0.01768 -0.18267 0.41892
 C121 C 0.00237 -0.16739 0.47520
 C122 C -0.01147 -0.21512 0.52162
 H123 H -0.02580 -0.31203 0.54769
 H124 H 0.03485 -0.25239 0.36582
 H125 H 0.03029 -0.14661 0.38289
 H126 H -0.02355 -0.20447 0.56556
 C127 C -0.00270 0.28939 0.49731
 C128 C 0.02386 0.31025 0.55397
 C129 C 0.05297 0.26875 0.59752
 C130 C 0.05336 0.20728 0.58561
 C131 C 0.02527 0.18619 0.52965
 C132 C -0.00168 0.22820 0.48517
 H133 H -0.02641 0.31973 0.46310
 H134 H 0.07491 0.28353 0.64110
 H135 H 0.07506 0.17607 0.62055
 H136 H -0.02393 0.21326 0.44173
 C137 C 0.59139 0.03091 -0.26448
 C138 C 0.55085 -0.00508 -0.30491
 C139 C 0.49588 -0.03749 -0.28365
 C140 C 0.48213 -0.03419 -0.22331
 C141 C 0.52344 0.00088 -0.18285
 C142 C 0.57811 0.03344 -0.20410
 H143 H 0.63334 0.05772 -0.27968
 H144 H 0.46396 -0.06625 -0.31320
 H145 H 0.44000 -0.06038 -0.20783
 H146 H 0.61067 0.06110 -0.17402
 C147 C 0.51130 0.01136 0.27267
 C148 C 0.45479 -0.01448 0.29536
 C149 C 0.40804 -0.04357 0.25484
 C150 C 0.41667 -0.04435 0.19264
 C151 C 0.47254 -0.01686 0.16980
 C152 C 0.52017 0.00990 0.21077
 H153 H 0.54796 0.03490 0.30221
 H154 H 0.36442 -0.06516 0.27098
 H155 H 0.37941 -0.06597 0.16234
 H156 H 0.56377 0.03160 0.19458
 C157 C 0.58831 -0.26201 0.02706
 C158 C 0.54372 -0.30628 -0.00107
 C159 C 0.48687 -0.28633 -0.02711
 C160 C 0.47562 -0.22515 -0.02557
 C161 C 0.52082 -0.18166 0.00141
 C162 C 0.57715 -0.20076 0.02781
 H163 H 0.63141 -0.27448 0.05096
 H164 H 0.45153 -0.31656 -0.05155
 H165 H 0.43196 -0.21148 -0.04715
 H166 H 0.61259 -0.16840 0.04971
 C167 C 0.39528 0.24950 -0.04537
 C168 C 0.44016 0.29327 -0.01784
 C169 C 0.49744 0.27442 0.00720
 C170 C 0.50918 0.21344 0.00569
 C171 C 0.46367 0.16937 -0.02012
 C172 C 0.40677 0.18816 -0.04615
 H173 H 0.35111 0.26248 -0.06612
 H174 H 0.53273 0.30631 0.02987
 H175 H 0.55332 0.20036 0.02652
 H176 H 0.37094 0.15533 -0.06681
 C177 C -0.24328 0.01610 0.59187
 C178 C -0.29239 0.00120 0.54604
 C179 C -0.27606 -0.01352 0.48907
 C180 C -0.21395 -0.01363 0.47891
 C181 C -0.16626 -0.00020 0.52551
 C182 C -0.18160 0.01455 0.58198
 H183 H -0.25119 0.03152 0.63517
 H184 H -0.31079 -0.02741 0.45252
 H185 H -0.20328 -0.02535 0.43483
 H186 H -0.14558 0.02677 0.61820
 C187 C 0.26964 0.05402 0.40264
 C188 C 0.31145 0.02520 0.44609
 C189 C 0.29088 -0.00146 0.50281
 C190 C 0.22968 -0.00088 0.51509
 C191 C 0.18737 0.02572 0.47068
 C192 C 0.20817 0.05397 0.41467
 H193 H 0.28419 0.07602 0.35901
 H194 H 0.32146 -0.02496 0.53695
 H195 H 0.21498 -0.02323 0.55856
 H196 H 0.17672 0.07540 0.37979
 C197 C -0.02936 0.49168 1.28668
 C198 C -0.00597 0.55075 1.30627
 C199 C 0.02098 0.59574 1.26230
 C200 C 0.02363 0.58271 1.20187
 C201 C -0.00007 0.52422 1.18292
 C202 C -0.02630 0.47871 1.22600
 H203 H -0.05262 0.45563 1.31684
 H204 H 0.04263 0.64083 1.27456
 H205 H 0.04472 0.61872 1.16993
 H206 H -0.04587 0.43338 1.21247
 C207 C -0.04451 0.40746 0.74512
 C208 C -0.01567 0.45414 0.70440
 C209 C 0.01019 0.51075 0.72695
 C210 C 0.00899 0.51976 0.78890
 C211 C -0.01754 0.47219 0.83005
 C212 C -0.04504 0.41623 0.80734
 H213 H -0.06612 0.36376 0.72913
 H214 H 0.03355 0.54739 0.69728
 H215 H 0.03068 0.56344 0.80495
 H216 H -0.06651 0.37900 0.83776
   
