data_POSCAR
  _audit_creation_date              2014-09-24
  _audit_creation_method            'ToBaCCo'
  _symmetry_space_group_name_H-M    'P1'
  _symmetry_Int_Tables_number       1
  _symmetry_cell_setting            triclinic
  loop_
  _symmetry_equiv_pos_as_xyz
 x,y,z
_cell_length_a 39.4727
_cell_length_b 39.4397
_cell_length_c 39.3919
_cell_angle_alpha 89.989800
_cell_angle_beta 89.845200
_cell_angle_gamma 90.157900
loop_
  _atom_site_label
  _atom_site_type_symbol
  _atom_site_fract_x
  _atom_site_fract_y
  _atom_site_fract_z
C1 C 0.15583 0.15773 0.19913
 N2 N 0.14297 0.18593 0.18409
 C3 C 0.15796 0.19962 0.15619
 N4 N 0.18624 0.18485 0.14333
 C5 C 0.19965 0.15671 0.15790
 N6 N 0.18421 0.14335 0.18581
 C7 C -0.16463 0.83940 0.20349
 N8 N -0.15017 0.81134 0.18949
 C9 C -0.16327 0.79709 0.16094
 N10 N -0.19111 0.81114 0.14650
 C11 C -0.20597 0.83910 0.15997
 N12 N -0.19248 0.85301 0.18847
 C13 C -0.15338 0.15409 -0.19466
 N14 N -0.18210 0.14064 -0.18122
 C15 C -0.19721 0.15483 -0.15357
 N16 N -0.18307 0.18304 -0.13941
 C17 C -0.15423 0.19676 -0.15260
 N18 N -0.13974 0.18211 -0.18019
 C19 C 0.15936 0.84342 -0.20400
 N20 N 0.14569 0.81516 -0.18953
 C21 C 0.15954 0.80152 -0.16103
 N22 N 0.18736 0.81638 -0.14712
 C23 C 0.20139 0.84457 -0.16116
 N24 N 0.18713 0.85780 -0.18954
 C25 C 0.16140 1.16296 0.79202
 N26 N 0.14744 1.19134 0.80568
 C27 C 0.16093 1.20618 0.83383
 N28 N 0.18888 1.19213 0.84833
 C29 C 0.20312 1.16371 0.83505
 N30 N 0.18920 1.14946 0.80699
 C31 C 0.84253 0.84318 0.80231
 N32 N 0.85608 0.81522 0.81724
 C33 C 0.84195 0.80153 0.84555
 N34 N 0.81385 0.81607 0.85896
 C35 C 0.79984 0.84397 0.84458
 N36 N 0.81427 0.85740 0.81619
 C37 C 0.15287 0.84496 1.19681
 N38 N 0.14035 0.81659 1.18171
 C39 C 0.15544 0.80312 1.15376
 N40 N 0.18355 0.81851 1.14091
 C41 C 0.19648 0.84689 1.15556
 N42 N 0.18101 0.85989 1.18350
 C43 C 0.84166 1.15824 1.20115
 N44 N 0.85675 1.18626 1.18770
 C45 C 0.84440 1.20123 1.15919
 N46 N 0.81650 1.18771 1.14413
 C47 C 0.80108 1.15972 1.15712
 N48 N 0.81381 1.14523 1.18561
 N49 N 0.46229 0.94341 0.96370
 N50 N 0.43496 0.92422 0.96072
 N51 N 0.53429 0.96612 0.93954
 N52 N 0.56156 0.96307 0.92027
 N53 N 0.53368 0.94247 0.96299
 N54 N 0.56049 0.92279 0.96036
 N55 N 0.46292 0.96677 0.93998
 N56 N 0.43609 0.96417 0.92029
 C57 C 0.41891 0.93744 0.93338
 C58 C 0.57758 0.93576 0.93348
 N59 N 0.53492 1.06297 0.96271
 N60 N 0.56239 1.08198 0.95986
 N61 N 0.46356 1.03947 0.93987
 N62 N 0.43690 1.04244 0.92005
 N63 N 0.46337 1.06298 0.96346
 N64 N 0.43650 1.08264 0.96022
 N65 N 0.53479 1.03915 0.93944
 N66 N 0.56203 1.04138 0.92012
 Mn67 Mn 0.49896 1.00289 0.93929
 C68 C 0.57896 1.06833 0.93299
 C69 C 0.42027 1.06954 0.93289
 N70 N 0.53451 0.94252 1.03580
 N71 N 0.56092 0.92227 1.03846
 N72 N 0.46415 0.96686 1.06058
 N73 N 0.43721 0.96465 1.08038
 N74 N 0.46315 0.94352 1.03684
 N75 N 0.43553 0.92480 1.03989
 N76 N 0.53555 0.96624 1.05914
 N77 N 0.56269 0.96271 1.07836
 Mn78 Mn 0.49832 0.94254 0.99984
 C79 C 0.57823 0.93506 1.06520
 C80 C 0.41968 0.93816 1.06731
 N81 N 0.46412 1.06296 1.03673
 N82 N 0.43674 1.08189 1.03993
 N83 N 0.53619 1.03936 1.05896
 N84 N 0.56372 1.04222 1.07773
 N85 N 0.53553 1.06309 1.03559
 N86 N 0.56259 1.08265 1.03779
 N87 N 0.46488 1.03960 1.06047
 N88 N 0.43810 1.04200 1.08039
 Mn89 Mn 0.49940 1.06349 0.99963
 Mn90 Mn 0.50029 1.00303 1.06024
 Cl91 Cl 0.49924 1.00299 0.99975
 C92 C 0.42085 1.06860 1.06745
 C93 C 0.57987 1.06947 1.06430
 N94 N 0.06072 0.46549 -0.03843
 N95 N 0.08039 0.43873 -0.04246
 N96 N 0.03653 0.53739 -0.06086
 N97 N 0.03920 0.56468 -0.08017
 N98 N 0.06066 0.53692 -0.03800
 N99 N 0.08032 0.56381 -0.04109
 N100 N 0.03683 0.46590 -0.06154
 N101 N 0.03957 0.43947 -0.08186
 C102 C 0.06693 0.42277 -0.06978
 C103 C 0.06679 0.58086 -0.06758
 N104 N -0.05957 0.53583 -0.03496
 N105 N -0.07928 0.56272 -0.03690
 N106 N -0.03587 0.46517 -0.05957
 N107 N -0.03847 0.43802 -0.07894
 N108 N -0.05870 0.46441 -0.03529
 N109 N -0.07750 0.43676 -0.03756
 N110 N -0.03644 0.53660 -0.05896
 N111 N -0.03982 0.56401 -0.07786
 Mn112 Mn 0.00024 0.50134 -0.06068
 C113 C -0.06680 0.57999 -0.06390
 C114 C -0.06469 0.42063 -0.06507
 N115 N 0.06223 0.53674 0.03481
 N116 N 0.08156 0.56400 0.03682
 N117 N 0.03951 0.46543 0.05903
 N118 N 0.04279 0.43825 0.07831
 N119 N 0.06230 0.46542 0.03470
 N120 N 0.08171 0.43834 0.03681
 N121 N 0.03911 0.53693 0.05884
 N122 N 0.04212 0.56435 0.07783
 Mn123 Mn 0.06191 0.50108 -0.00173
 C124 C 0.06887 0.58091 0.06389
 C125 C 0.06937 0.42169 0.06425
 N126 N -0.05706 0.46416 0.03780
 N127 N -0.07600 0.43671 0.04115
 N128 N -0.03394 0.53634 0.06078
 N129 N -0.03711 0.56343 0.08030
 N130 N -0.05801 0.53554 0.03786
 N131 N -0.07812 0.56195 0.04113
 N132 N -0.03323 0.46480 0.06096
 N133 N -0.03530 0.43780 0.08066
 Mn134 Mn -0.05877 0.49992 0.00136
 Mn135 Mn 0.00289 0.50094 0.06039
 Cl136 Cl 0.00157 0.50082 -0.00016
 C137 C -0.06221 0.42057 0.06812
 C138 C -0.06495 0.57911 0.06777
 N139 N 1.05789 -0.03729 0.53298
 N140 N 1.07816 -0.03992 0.55940
 N141 N 1.03212 -0.06094 0.46240
 N142 N 1.03401 -0.08039 0.43521
 N143 N 1.05563 -0.03735 0.46153
 N144 N 1.07414 -0.04012 0.43373
 N145 N 1.03436 -0.06086 0.53392
 N146 N 1.03803 -0.08017 0.56106
 C147 C 1.06560 -0.06690 0.57663
 C148 C 1.06047 -0.06720 0.41762
 N149 N 0.93583 -0.03746 0.46563
 N150 N 0.91548 -0.04033 0.43926
 N151 N 0.96151 -0.06088 0.53632
 N152 N 0.95947 -0.08035 0.56348
 N153 N 0.93806 -0.03735 0.53712
 N154 N 0.91945 -0.04020 0.56488
 N155 N 0.95927 -0.06099 0.46481
 N156 N 0.95548 -0.08049 0.43783
 Mn157 Mn 0.99681 -0.06138 0.49936
 C158 C 0.92792 -0.06740 0.42220
 C159 C 0.93301 -0.06726 0.58102
 N160 N 1.05586 0.03555 0.46139
 N161 N 1.07465 0.03859 0.43378
 N162 N 1.03467 0.05919 0.53371
 N163 N 1.03864 0.07893 0.56048
 N164 N 1.05811 0.03566 0.53292
 N165 N 1.07863 0.03876 0.55914
 N166 N 1.03243 0.05908 0.46222
 N167 N 1.03465 0.07876 0.43521
 Mn168 Mn 1.05732 -0.00087 0.49719
 C169 C 1.06121 0.06577 0.41774
 C170 C 1.06628 0.06597 0.57606
 N171 N 0.93830 0.03555 0.53703
 N172 N 0.92013 0.03810 0.56509
 N173 N 0.95964 0.05902 0.46470
 N174 N 0.95626 0.07827 0.43752
 N175 N 0.93606 0.03550 0.46550
 N176 N 0.91600 0.03814 0.43888
 N177 N 0.96188 0.05907 0.53613
 N178 N 0.96039 0.07823 0.56352
 Mn179 Mn 0.93660 -0.00093 0.50134
 Mn180 Mn 0.99714 0.05952 0.49919
 Cl181 Cl 0.99697 -0.00092 0.49927
 C182 C 0.93409 0.06500 0.58128
 C183 C 0.92879 0.06508 0.42174
 C184 C 1.11089 0.11903 0.28941
 C185 C 1.13934 0.10277 0.27483
 C186 C 1.15383 0.11537 0.24472
 C187 C 1.14051 0.14427 0.22858
 C188 C 1.11178 0.15981 0.24291
 C189 C 1.09722 0.14746 0.27278
 C190 C 1.09687 0.10545 0.32217
 C191 C 1.06909 0.12025 0.33912
 C192 C 1.05755 0.10718 0.36999
 C193 C 1.07331 0.07906 0.38480
 C194 C 1.10067 0.06380 0.36797
 C195 C 1.11258 0.07679 0.33694
 C196 C 1.15339 0.07421 0.29051
 C197 C 1.14027 0.06146 0.32084
 H198 H 1.17506 0.06161 0.27928
 H199 H 1.15219 0.03941 0.33203
 H200 H 1.17581 0.10269 0.23417
 H201 H 1.10050 0.18196 0.23130
 H202 H 1.03624 0.11929 0.38238
 H203 H 1.11292 0.04191 0.37915
 H204 H 1.07542 0.16075 0.28245
 H205 H 1.05600 0.14203 0.32917
 C206 C 0.87335 -0.11756 0.29484
 C207 C 0.88941 -0.14605 0.28012
 C208 C 0.87699 -0.16005 0.24975
 C209 C 0.84849 -0.14613 0.23347
 C210 C 0.83301 -0.11752 0.24810
 C211 C 0.84517 -0.10347 0.27821
 C212 C 0.88697 -0.10378 0.32761
 C213 C 0.87248 -0.07582 0.34452
 C214 C 0.88586 -0.06419 0.37515
 C215 C 0.91399 -0.08004 0.38978
 C216 C 0.92878 -0.10778 0.37313
 C217 C 0.91548 -0.11976 0.34230
 C218 C 0.91768 -0.16054 0.29587
 C219 C 0.93046 -0.14765 0.32623
 H220 H 0.93009 -0.18230 0.28459
 H221 H 0.95234 -0.15985 0.33740
 H222 H 0.88956 -0.18201 0.23902
 H223 H 0.81113 -0.10581 0.23647
 H224 H 0.87406 -0.04265 0.38742
 H225 H 0.95063 -0.12013 0.38420
 H226 H 0.83198 -0.08166 0.28800
 H227 H 0.85078 -0.06257 0.33467
 C228 C 0.88949 0.11511 0.71241
 C229 C 0.86095 0.09911 0.72731
 C230 C 0.84749 0.11138 0.75799
 C231 C 0.86202 0.13960 0.77421
 C232 C 0.89086 0.15476 0.75978
 C233 C 0.90445 0.14275 0.72940
 C234 C 0.90218 0.10224 0.67892
 C235 C 0.92970 0.11716 0.66153
 C236 C 0.93995 0.10489 0.62996
 C237 C 0.92314 0.07746 0.61487
 C238 C 0.89601 0.06207 0.63209
 C239 C 0.88535 0.07431 0.66384
 C240 C 0.84576 0.07124 0.71132
 C241 C 0.85777 0.05904 0.68033
 H242 H 0.82405 0.05882 0.72281
 H243 H 0.84499 0.03754 0.66890
 H244 H 0.82533 0.09923 0.76891
 H245 H 0.90284 0.17641 0.77173
 H246 H 0.96111 0.11707 0.61726
 H247 H 0.88296 0.04073 0.62066
 H248 H 0.92645 0.15574 0.71961
 H249 H 0.94355 0.13845 0.67163
 C250 C 1.12032 -0.11507 0.70453
 C251 C 1.10473 -0.14381 0.71946
 C252 C 1.11742 -0.15733 0.74994
 C253 C 1.14572 -0.14265 0.76604
 C254 C 1.16062 -0.11374 0.75120
 C255 C 1.14820 -0.10019 0.72106
 C256 C 1.10658 -0.10186 0.67163
 C257 C 1.12081 -0.07383 0.65449
 C258 C 1.10740 -0.06272 0.62374
 C259 C 1.07948 -0.07914 0.60920
 C260 C 1.06493 -0.10698 0.62606
 C261 C 1.07831 -0.11848 0.65704
 C262 C 1.07668 -0.15897 0.70380
 C263 C 1.06371 -0.14654 0.67333
 H264 H 1.06459 -0.18090 0.71524
 H265 H 1.04202 -0.15924 0.66224
 H266 H 1.10529 -0.17951 0.76086
 H267 H 1.18229 -0.10140 0.76270
 H268 H 1.11902 -0.04110 0.61131
 H269 H 1.04326 -0.11979 0.61504
 H270 H 1.16099 -0.07812 0.71116
 H271 H 1.14235 -0.06013 0.66420
 C272 C 0.29152 1.11491 1.12031
 C273 C 0.27651 1.14305 1.10401
 C274 C 0.24590 1.15643 1.11627
 C275 C 0.22962 1.14230 1.14486
 C276 C 0.24438 1.11389 1.16048
 C277 C 0.27479 1.10041 1.14845
 C278 C 0.32474 1.10205 1.10701
 C279 C 0.34211 1.07465 1.12186
 C280 C 0.37322 1.06399 1.10890
 C281 C 0.38790 1.08028 1.08084
 C282 C 0.37078 1.10741 1.06564
 C283 C 0.33946 1.11843 1.07852
 C284 C 0.29222 1.15790 1.07572
 C285 C 0.32296 1.14581 1.06321
 H286 H 0.28065 1.17937 1.06313
 H287 H 0.33412 1.15829 1.04134
 H288 H 0.23503 1.17819 1.10352
 H289 H 0.23267 1.10205 1.18239
 H290 H 0.38585 1.04285 1.12099
 H291 H 0.38188 1.12007 1.04383
 H292 H 0.28478 1.07876 1.16174
 H293 H 0.33227 1.06114 1.14355
 C294 C 0.29139 0.88827 0.87882
 C295 C 0.27645 0.85975 0.89476
 C296 C 0.24640 0.84562 0.88177
 C297 C 0.23075 0.85941 0.85279
 C298 C 0.24550 0.88818 0.83757
 C299 C 0.27524 0.90237 0.85031
 C300 C 0.32399 0.90197 0.89279
 C301 C 0.34113 0.92983 0.87828
 C302 C 0.37177 0.94119 0.89169
 C303 C 0.38621 0.92518 0.91989
 C304 C 0.36923 0.89766 0.93488
 C305 C 0.33834 0.88593 0.92151
 C306 C 0.29173 0.84530 0.92338
 C307 C 0.32195 0.85813 0.93650
 H308 H 0.28024 0.82355 0.93574
 H309 H 0.33281 0.84592 0.95857
 H310 H 0.23552 0.82358 0.89419
 H311 H 0.23429 0.89983 0.81539
 H312 H 0.38426 0.96260 0.87976
 H313 H 0.38014 0.88522 0.95682
 H314 H 0.28518 0.92425 0.83723
 H315 H 0.33154 0.94317 0.85647
 C316 C 0.70448 0.87909 1.11565
 C317 C 0.71901 0.89481 1.14446
 C318 C 0.74881 0.88173 1.15884
 C319 C 0.76473 0.85292 1.14499
 C320 C 0.75038 0.83786 1.11599
 C321 C 0.72082 0.85066 1.10157
 C322 C 0.67217 0.89328 1.10161
 C323 C 0.65536 0.87905 1.07346
 C324 C 0.62501 0.89278 1.06175
 C325 C 0.61057 0.92103 1.07771
 C326 C 0.62721 0.93568 1.10554
 C327 C 0.65774 0.92199 1.11762
 C328 C 0.70361 0.92337 1.15890
 C329 C 0.67371 0.93671 1.14574
 H330 H 0.71478 0.93555 1.18087
 H331 H 0.66278 0.95876 1.15794
 H332 H 0.75936 0.89402 1.18106
 H333 H 0.76179 0.81578 1.10432
 H334 H 0.61276 0.88110 1.04011
 H335 H 0.61630 0.95762 1.11798
 H336 H 0.71117 0.83774 1.07949
 H337 H 0.66502 0.85723 1.06016
 C338 C 0.70975 1.11415 0.88288
 C339 C 0.72451 1.14266 0.89894
 C340 C 0.75556 1.15580 0.88718
 C341 C 0.77240 1.14101 0.85931
 C342 C 0.75777 1.11227 0.84399
 C343 C 0.72706 1.09906 0.85553
 C344 C 0.67615 1.10147 0.89551
 C345 C 0.65914 1.07371 0.88075
 C346 C 0.62767 1.06319 0.89303
 C347 C 0.61226 1.07996 0.92033
 C348 C 0.62901 1.10749 0.93545
 C349 C 0.66072 1.11838 0.92322
 C350 C 0.70806 1.15807 0.92646
 C351 C 0.67691 1.14615 0.93837
 H352 H 0.71937 1.17982 0.93890
 H353 H 0.66519 1.15905 0.95965
 H354 H 0.76631 1.17785 0.89963
 H355 H 0.76986 1.09985 0.82265
 H356 H 0.61535 1.04176 0.88102
 H357 H 0.61734 1.12053 0.95668
 H358 H 0.71733 1.07712 0.84245
 H359 H 0.66950 1.05977 0.85963
 C360 C 0.12067 0.29261 0.11241
 C361 C 0.10429 0.27805 0.14094
 C362 C 0.11618 0.24749 0.15475
 C363 C 0.14444 0.23104 0.14067
 C364 C 0.16027 0.24530 0.11208
 C365 C 0.14861 0.27559 0.09810
 C366 C 0.10775 0.32572 0.09900
 C367 C 0.12253 0.34248 0.07101
 C368 C 0.10996 0.37355 0.05987
 C369 C 0.08237 0.38876 0.07627
 C370 C 0.06721 0.37222 0.10395
 C371 C 0.07967 0.34093 0.11542
 C372 C 0.07637 0.29422 0.15576
 C373 C 0.06432 0.32496 0.14326
 H374 H 0.06375 0.28304 0.17753
 H375 H 0.04274 0.33653 0.15575
 H376 H 0.10359 0.23678 0.17678
 H377 H 0.18203 0.23321 0.10052
 H378 H 0.12198 0.38574 0.03831
 H379 H 0.04573 0.38373 0.11667
 H380 H 0.16203 0.28526 0.07629
 H381 H 0.14386 0.33218 0.05738
 C382 C -0.11161 0.29017 -0.11457
 C383 C -0.14043 0.27575 -0.09861
 C384 C -0.15406 0.24500 -0.11061
 C385 C -0.13925 0.22823 -0.13839
 C386 C -0.11013 0.24226 -0.15343
 C387 C -0.09649 0.27267 -0.14178
 C388 C -0.09860 0.32361 -0.10201
 C389 C -0.07093 0.34056 -0.11714
 C390 C -0.06013 0.37195 -0.10501
 C391 C -0.07652 0.38733 -0.07749
 C392 C -0.10396 0.37066 -0.06199
 C393 C -0.11521 0.33907 -0.07415
 C394 C -0.15557 0.29223 -0.07097
 C395 C -0.14312 0.32310 -0.05888
 H396 H -0.17749 0.28116 -0.05854
 H397 H -0.15580 0.33485 -0.03748
 H398 H -0.17640 0.23438 -0.09854
 H399 H -0.09786 0.22992 -0.17471
 H400 H -0.03882 0.38423 -0.11733
 H401 H -0.11676 0.38237 -0.04063
 H402 H -0.07421 0.28199 -0.15464
 H403 H -0.05734 0.33025 -0.13852
 C404 C 0.12016 0.70906 -0.11713
 C405 C 0.10409 0.72376 -0.14562
 C406 C 0.11670 0.75409 -0.15966
 C407 C 0.14527 0.77018 -0.14570
 C408 C 0.16071 0.75574 -0.11710
 C409 C 0.14841 0.72571 -0.10300
 C410 C 0.10656 0.67622 -0.10345
 C411 C 0.12126 0.65929 -0.07567
 C412 C 0.10815 0.62849 -0.06423
 C413 C 0.08003 0.61366 -0.08007
 C414 C 0.06489 0.63038 -0.10756
 C415 C 0.07800 0.66143 -0.11939
 C416 C 0.07570 0.70800 -0.16005
 C417 C 0.06289 0.67758 -0.14717
 H418 H 0.06326 0.71929 -0.18176
 H419 H 0.04095 0.66638 -0.15933
 H420 H 0.10437 0.76497 -0.18165
 H421 H 0.18267 0.76750 -0.10558
 H422 H 0.12020 0.61621 -0.04286
 H423 H 0.04305 0.61915 -0.11988
 H424 H 0.16159 0.71598 -0.08116
 H425 H 0.14300 0.66920 -0.06243
 C426 C -0.12145 0.70563 0.11754
 C427 C -0.10616 0.72055 0.14639
 C428 C -0.11957 0.75054 0.16036
 C429 C -0.14816 0.76604 0.14593
 C430 C -0.16281 0.75134 0.11701
 C431 C -0.14974 0.72168 0.10301
 C432 C -0.10700 0.67323 0.10387
 C433 C -0.12092 0.65617 0.07573
 C434 C -0.10704 0.62581 0.06427
 C435 C -0.07890 0.61151 0.08042
 C436 C -0.06452 0.62836 0.10830
 C437 C -0.07843 0.65900 0.12018
 C438 C -0.07774 0.70534 0.16121
 C439 C -0.06413 0.67531 0.14834
 H440 H -0.06588 0.71678 0.18320
 H441 H -0.04219 0.66456 0.16080
 H442 H -0.10783 0.76162 0.18261
 H443 H -0.18476 0.76263 0.10511
 H444 H -0.11854 0.61344 0.04260
 H445 H -0.04268 0.61755 0.12088
 H446 H -0.16237 0.71178 0.08090
 H447 H -0.14262 0.66564 0.06221
 C448 C 1.12217 0.11826 0.70201
 C449 C 1.10642 0.14715 0.71629
 C450 C 1.11925 0.16173 0.74623
 C451 C 1.14784 0.14798 0.76249
 C452 C 1.16298 0.11896 0.74830
 C453 C 1.15043 0.10436 0.71864
 C454 C 1.10816 0.10387 0.66966
 C455 C 1.12238 0.07552 0.65316
 C456 C 1.10868 0.06337 0.62287
 C457 C 1.08049 0.07906 0.60819
 C458 C 1.06595 0.10715 0.62446
 C459 C 1.07958 0.11967 0.65494
 C460 C 1.07806 0.16144 0.70053
 C461 C 1.06489 0.14796 0.67058
 H462 H 1.06587 0.18349 0.71147
 H463 H 1.04296 0.16003 0.65938
 H464 H 1.10694 0.18398 0.75663
 H465 H 1.18491 0.10736 0.75995
 H466 H 1.12029 0.04156 0.61089
 H467 H 1.04406 0.11940 0.61336
 H468 H 1.16338 0.08226 0.70919
 H469 H 1.14412 0.06238 0.66305
 C470 C 0.88542 -0.11897 0.71071
 C471 C 0.85708 -0.10274 0.72554
 C472 C 0.84321 -0.11502 0.75609
 C473 C 0.85711 -0.14354 0.77241
 C474 C 0.88574 -0.15901 0.75780
 C475 C 0.89965 -0.14699 0.72753
 C476 C 0.89879 -0.10581 0.67754
 C477 C 0.92636 -0.12074 0.66036
 C478 C 0.93738 -0.10805 0.62916
 C479 C 0.92128 -0.08019 0.61423
 C480 C 0.89408 -0.06483 0.63123
 C481 C 0.88269 -0.07746 0.66262
 C482 C 0.84257 -0.07451 0.70966
 C483 C 0.85515 -0.06210 0.67895
 H484 H 0.82099 -0.06191 0.72106
 H485 H 0.84290 -0.04029 0.66764
 H486 H 0.82130 -0.10241 0.76687
 H487 H 0.89748 -0.18086 0.76952
 H488 H 0.95855 -0.12024 0.61663
 H489 H 0.88157 -0.04316 0.61994
 H490 H 0.92143 -0.16023 0.71773
 H491 H 0.93971 -0.14233 0.67036
 C492 C 1.10851 -0.11800 0.28789
 C493 C 1.13656 -0.10109 0.27310
 C494 C 1.15077 -0.11309 0.24268
 C495 C 1.13759 -0.14205 0.22643
 C496 C 1.10920 -0.15821 0.24091
 C497 C 1.09489 -0.14643 0.27109
 C498 C 1.09488 -0.10510 0.32103
 C499 C 1.06756 -0.12060 0.33825
 C500 C 1.05640 -0.10814 0.36948
 C501 C 1.07213 -0.07996 0.38437
 C502 C 1.09904 -0.06403 0.36730
 C503 C 1.11054 -0.07639 0.33591
 C504 C 1.15055 -0.07249 0.28890
 C505 C 1.13777 -0.06037 0.31958
 H506 H 1.17190 -0.05940 0.27749
 H507 H 1.14964 -0.03828 0.33087
 H508 H 1.17247 -0.09993 0.23199
 H509 H 1.09802 -0.18042 0.22919
 H510 H 1.03544 -0.12074 0.38208
 H511 H 1.11124 -0.04209 0.37855
 H512 H 1.07335 -0.16018 0.28090
 H513 H 1.05455 -0.14246 0.32823
 C514 C 0.87736 0.11470 0.29303
 C515 C 0.89419 0.14294 0.27849
 C516 C 0.88255 0.15699 0.24790
 C517 C 0.85406 0.14343 0.23121
 C518 C 0.83786 0.11500 0.24557
 C519 C 0.84926 0.10087 0.27592
 C520 C 0.89012 0.10098 0.32614
 C521 C 0.87481 0.07334 0.34301
 C522 C 0.88740 0.06181 0.37400
 C523 C 0.91553 0.07747 0.38900
 C524 C 0.93110 0.10487 0.37238
 C525 C 0.91863 0.11672 0.34123
 C526 C 0.92243 0.15717 0.29463
 C527 C 0.93442 0.14430 0.32527
 H528 H 0.93543 0.17871 0.28346
 H529 H 0.95631 0.15630 0.33677
 H530 H 0.89569 0.17878 0.23736
 H531 H 0.81597 0.10357 0.23356
 H532 H 0.87503 0.04052 0.38627
 H533 H 0.95296 0.11707 0.38373
 H534 H 0.83555 0.07923 0.28556
 H535 H 0.85305 0.06029 0.33286
 C536 C 0.11761 0.29667 -0.12664
 C537 C 0.14625 0.28202 -0.11093
 C538 C 0.16033 0.25195 -0.12389
 C539 C 0.14641 0.23594 -0.15265
 C540 C 0.11775 0.25057 -0.16789
 C541 C 0.10359 0.28036 -0.15516
 C542 C 0.10366 0.32905 -0.11233
 C543 C 0.07535 0.34571 -0.12624
 C544 C 0.06360 0.37600 -0.11229
 C545 C 0.07967 0.39057 -0.08413
 C546 C 0.10769 0.37412 -0.06985
 C547 C 0.11977 0.34358 -0.08371
 C548 C 0.16083 0.29756 -0.08248
 C549 C 0.14789 0.32764 -0.06918
 H550 H 0.18273 0.28634 -0.07036
 H551 H 0.16019 0.33867 -0.04721
 H552 H 0.18236 0.24125 -0.11152
 H553 H 0.10608 0.23916 -0.18999
 H554 H 0.04181 0.38809 -0.12369
 H555 H 0.12019 0.38511 -0.04796
 H556 H 0.08174 0.29019 -0.16819
 H557 H 0.06191 0.33590 -0.14792
 C558 C -0.11114 0.29197 0.12117
 C559 C -0.13917 0.27706 0.10451
 C560 C -0.15342 0.24679 0.11688
 C561 C -0.14035 0.23082 0.14602
 C562 C -0.11208 0.24551 0.16205
 C563 C -0.09770 0.27554 0.14988
 C564 C -0.09734 0.32485 0.10772
 C565 C -0.06981 0.34202 0.12273
 C566 C -0.05845 0.37296 0.10971
 C567 C -0.07418 0.38763 0.08146
 C568 C -0.10129 0.37059 0.06601
 C569 C -0.11296 0.33945 0.07889
 C570 C -0.15311 0.29257 0.07578
 C571 C -0.14028 0.32307 0.06324
 H572 H -0.17448 0.28108 0.06289
 H573 H -0.15212 0.33413 0.04106
 H574 H -0.17507 0.23600 0.10384
 H575 H -0.10103 0.23404 0.18441
 H576 H -0.03732 0.38551 0.12195
 H577 H -0.11347 0.38163 0.04400
 H578 H -0.07626 0.28552 0.16354
 H579 H -0.05676 0.33216 0.14459
 C580 C -0.11929 0.70895 -0.11108
 C581 C -0.10310 0.72388 -0.13953
 C582 C -0.11544 0.75433 -0.15322
 C583 C -0.14393 0.77031 -0.13906
 C584 C -0.15949 0.75573 -0.11047
 C585 C -0.14741 0.72556 -0.09664
 C586 C -0.10601 0.67591 -0.09787
 C587 C -0.12075 0.65870 -0.07012
 C588 C -0.10789 0.62766 -0.05921
 C589 C -0.08006 0.61293 -0.07561
 C590 C -0.06492 0.62993 -0.10304
 C591 C -0.07769 0.66117 -0.11429
 C592 C -0.07491 0.70818 -0.15435
 C593 C -0.06244 0.67755 -0.14197
 H594 H -0.06238 0.71966 -0.17602
 H595 H -0.04066 0.66637 -0.15444
 H596 H -0.10303 0.76531 -0.17522
 H597 H -0.18140 0.76746 -0.09882
 H598 H -0.11990 0.61512 -0.03786
 H599 H -0.04325 0.61879 -0.11577
 H600 H -0.16067 0.71564 -0.07483
 H601 H -0.14229 0.66860 -0.05653
 C602 C 0.11934 0.71099 0.11102
 C603 C 0.10253 0.72579 0.13908
 C604 C 0.11423 0.75653 0.15275
 C605 C 0.14283 0.77308 0.13905
 C606 C 0.15898 0.75851 0.11073
 C607 C 0.14747 0.72802 0.09693
 C608 C 0.10663 0.67763 0.09783
 C609 C 0.12191 0.66054 0.07037
 C610 C 0.10952 0.62923 0.05947
 C611 C 0.08166 0.61410 0.07562
 C612 C 0.06602 0.63096 0.10276
 C613 C 0.07827 0.66248 0.11397
 C614 C 0.07432 0.70968 0.15361
 C615 C 0.06243 0.67875 0.14131
 H616 H 0.06133 0.72108 0.17502
 H617 H 0.04062 0.66726 0.15356
 H618 H 0.10111 0.76724 0.17445
 H619 H 0.18093 0.77043 0.09920
 H620 H 0.12192 0.61679 0.03832
 H621 H 0.04432 0.61952 0.11528
 H622 H 0.16117 0.71818 0.07540
 H623 H 0.14349 0.67076 0.05698
 C624 C 0.29407 1.11982 0.87687
 C625 C 0.27979 1.14912 0.89188
 C626 C 0.24993 1.16324 0.87851
 C627 C 0.23398 1.14856 0.85021
 C628 C 0.24807 1.11922 0.83582
 C629 C 0.27756 1.10504 0.84887
 C630 C 0.32635 1.10597 0.89123
 C631 C 0.34274 1.07732 0.87761
 C632 C 0.37304 1.06573 0.89136
 C633 C 0.38792 1.08225 0.91908
 C634 C 0.37172 1.11061 0.93318
 C635 C 0.34114 1.12261 0.91941
 C636 C 0.29552 1.16423 0.91995
 C637 C 0.32547 1.15123 0.93345
 H638 H 0.28458 1.18657 0.93159
 H639 H 0.33667 1.16395 0.95509
 H640 H 0.23934 1.18583 0.89001
 H641 H 0.23640 1.10711 0.81411
 H642 H 0.38491 1.04369 0.88010
 H643 H 0.38299 1.12347 0.95471
 H644 H 0.28697 1.08262 0.83646
 H645 H 0.33280 1.06350 0.85623
 C646 C 0.28980 0.89083 1.11845
 C647 C 0.27467 0.86313 1.10131
 C648 C 0.24401 0.84934 1.11316
 C649 C 0.22794 0.86263 1.14209
 C650 C 0.24269 0.89050 1.15862
 C651 C 0.27313 0.90444 1.14702
 C652 C 0.32311 0.90410 1.10560
 C653 C 0.34058 0.93113 1.12121
 C654 C 0.37184 0.94209 1.10868
 C655 C 0.38653 0.92645 1.08032
 C656 C 0.36927 0.89977 1.06434
 C657 C 0.33782 0.88849 1.07675
 C658 C 0.29036 0.84912 1.07264
 C659 C 0.32121 0.86156 1.06059
 H660 H 0.27871 0.82803 1.05941
 H661 H 0.33238 0.84971 1.03841
 H662 H 0.23290 0.82792 1.09998
 H663 H 0.23090 0.90144 1.18091
 H664 H 0.38460 0.96288 1.12133
 H665 H 0.38036 0.88764 1.04227
 H666 H 0.28322 0.92566 1.16100
 H667 H 0.33070 0.94409 1.14318
 C668 C 0.70882 1.12150 1.11241
 C669 C 0.72346 1.10492 1.14064
 C670 C 0.75379 1.11714 1.15469
 C671 C 0.76996 1.14592 1.14116
 C672 C 0.75569 1.16192 1.11280
 C673 C 0.72560 1.14994 1.09858
 C674 C 0.67585 1.10828 1.09886
 C675 C 0.65891 1.12331 1.07125
 C676 C 0.62787 1.11054 1.06011
 C677 C 0.61290 1.08251 1.07612
 C678 C 0.62969 1.06704 1.10332
 C679 C 0.66091 1.07970 1.11481
 C680 C 0.70761 1.07647 1.15495
 C681 C 0.67705 1.06411 1.14229
 H682 H 0.71890 1.06367 1.17646
 H683 H 0.66571 1.04213 1.15440
 H684 H 0.76453 1.10437 1.17651
 H685 H 0.76758 1.18408 1.10167
 H686 H 0.61551 1.12280 1.03889
 H687 H 0.61838 1.04521 1.11574
 H688 H 0.71586 1.16352 1.07698
 H689 H 0.66901 1.14500 1.05796
 C690 C 0.70676 0.88337 0.88652
 C691 C 0.72136 0.89862 0.85738
 C692 C 0.75198 0.88613 0.84399
 C693 C 0.76840 0.85850 0.85926
 C694 C 0.75410 0.84401 0.88855
 C695 C 0.72384 0.85620 0.90201
 C696 C 0.67359 0.89664 0.89944
 C697 C 0.65667 0.88250 0.92765
 C698 C 0.62560 0.89533 0.93842
 C699 C 0.61050 0.92260 0.92149
 C700 C 0.62714 0.93711 0.89349
 C701 C 0.65845 0.92426 0.88228
 C702 C 0.70519 0.92603 0.84168
 C703 C 0.67449 0.93864 0.85393
 H704 H 0.71638 0.93786 0.81948
 H705 H 0.66299 0.95983 0.84081
 H706 H 0.76275 0.89772 0.82145
 H707 H 0.76616 0.82284 0.90114
 H708 H 0.61336 0.88376 0.96020
 H709 H 0.61567 0.95828 0.88028
 H710 H 0.71429 0.84376 0.92445
 H711 H 0.66677 0.86142 0.94173
   
