data_POSCAR
  _audit_creation_date              2014-09-24
  _audit_creation_method            'ToBaCCo'
  _symmetry_space_group_name_H-M    'P1'
  _symmetry_Int_Tables_number       1
  _symmetry_cell_setting            triclinic
  loop_
  _symmetry_equiv_pos_as_xyz
 x,y,z
_cell_length_a 22.1014
_cell_length_b 22.0781
_cell_length_c 18.0718
_cell_angle_alpha 90.096000
_cell_angle_beta 90.000600
_cell_angle_gamma 120.055300
loop_
  _atom_site_label
  _atom_site_type_symbol
  _atom_site_fract_x
  _atom_site_fract_y
  _atom_site_fract_z
O1 O -0.00765 0.55333 -0.09495
 O2 O 0.08760 0.48409 0.00873
 O3 O -0.00802 0.43835 -0.09562
 O4 O 0.08828 0.60298 0.00870
 O5 O 0.00762 0.56086 0.09473
 O6 O -0.08894 0.39630 -0.01005
 O7 O 0.00667 0.44531 0.09449
 O8 O -0.08832 0.51501 -0.00892
 Cu9 Cu 0.04868 0.52393 -0.05142
 Cu10 Cu -0.04928 0.47505 0.05077
 C11 C -0.06561 0.54424 -0.07113
 C12 C 0.06478 0.45468 0.07084
 C13 C -0.06653 0.38964 -0.07251
 C14 C 0.06570 0.60972 0.07094
 O15 O 0.60254 0.51380 -0.00899
 O16 O 0.43794 0.44463 0.09498
 O17 O 0.48454 0.39478 -0.00880
 O18 O 0.55270 0.56010 0.09435
 O19 O 0.51383 0.60172 0.00817
 O20 O 0.44570 0.43643 -0.09477
 O21 O 0.39560 0.48278 0.00879
 O22 O 0.56009 0.55190 -0.09513
 Cu23 Cu 0.52366 0.47405 0.05113
 Cu24 Cu 0.47436 0.52231 -0.05143
 C25 C 0.60907 0.54301 -0.07123
 C26 C 0.38910 0.45380 0.07116
 C27 C 0.45547 0.38782 -0.07129
 C28 C 0.54341 0.60881 0.07032
 O29 O 0.39690 0.91317 0.00856
 O30 O 0.56153 1.00901 -0.09488
 O31 O 0.51491 0.91249 0.00802
 O32 O 0.44684 1.00927 -0.09509
 O33 O 0.48582 1.09016 -0.00916
 O34 O 0.55360 0.99313 0.09440
 O35 O 0.60400 1.08967 -0.00851
 O36 O 0.43912 0.99402 0.09474
 Cu37 Cu 0.47569 0.95245 -0.05157
 Cu38 Cu 0.52488 1.05029 0.05111
 C39 C 0.39034 0.93582 0.07088
 C40 C 0.61052 1.06699 -0.07083
 C41 C 0.54425 0.93501 0.07032
 C42 C 0.45660 1.06773 -0.07161
 O43 O 1.08943 0.60401 0.49135
 O44 O 0.99373 0.43892 0.59431
 O45 O 1.08946 0.48548 0.49004
 O46 O 0.99305 0.55361 0.59438
 O47 O 0.91252 0.51521 0.50806
 O48 O 1.00857 0.44662 0.40429
 O49 O 0.91283 0.39688 0.50834
 O50 O 1.00887 0.56168 0.40504
 Cu51 Cu 1.04997 0.52473 0.55074
 Cu52 Cu 0.95215 0.47575 0.44823
 C53 C 1.06683 0.61063 0.42910
 C54 C 0.93549 0.39021 0.57054
 C55 C 1.06695 0.45627 0.42759
 C56 C 0.93506 0.54445 0.57041
 O57 O 0.56102 0.55356 0.59463
 O58 O 0.39566 0.48424 0.49201
 O59 O 0.44585 0.43866 0.59592
 O60 O 0.51426 0.60278 0.49111
 O61 O 0.55240 0.56012 0.40504
 O62 O 0.48395 0.39609 0.50970
 O63 O 0.43736 0.44528 0.40583
 O64 O 0.60261 0.51445 0.50851
 Cu65 Cu 0.47497 0.52416 0.55163
 Cu66 Cu 0.52324 0.47458 0.44907
 C67 C 0.60967 0.54417 0.57062
 C68 C 0.38873 0.45473 0.42978
 C69 C 0.45508 0.38978 0.57213
 C70 C 0.54330 0.60910 0.42877
 O71 O 0.51458 -0.08856 0.49100
 O72 O 0.44526 0.00658 0.59515
 O73 O 0.39609 -0.08892 0.49021
 O74 O 0.56059 0.00742 0.59479
 O75 O 0.60273 0.08816 0.50883
 O76 O 0.43821 -0.00787 0.40477
 O77 O 0.48410 0.08761 0.50948
 O78 O 0.55292 -0.00777 0.40509
 Cu79 Cu 0.47478 -0.04946 0.55096
 Cu80 Cu 0.52371 0.04867 0.44892
 C81 C 0.54378 -0.06582 0.42878
 C82 C 0.45484 0.06485 0.57167
 C83 C 0.38949 -0.06642 0.42783
 C84 C 0.60945 0.06553 0.57100
 C85 C 0.35385 0.36836 0.21283
 C86 C 0.35330 0.36820 0.28892
 C87 C 0.32341 0.40765 0.31062
 N88 N 0.30432 0.43030 0.25048
 C89 C 0.32413 0.40774 0.19067
 C90 C 0.32593 0.43498 0.38209
 C91 C 0.27583 0.45473 0.40091
 C92 C 0.28246 0.50358 0.45355
 C93 C 0.22058 0.50445 0.45361
 C94 C 0.17734 0.45596 0.40106
 N95 N 0.21196 0.42664 0.36911
 C96 C 0.10779 0.43782 0.38196
 C97 C 0.08313 0.40991 0.31041
 C98 C 0.01393 0.36952 0.28827
 C99 C 0.01402 0.36893 0.21219
 C100 C 0.08322 0.40869 0.19042
 N101 N 0.12522 0.43226 0.25046
 C102 C 0.10771 0.43508 0.11874
 C103 C 0.17720 0.45380 0.09980
 C104 C 0.21949 0.50138 0.04637
 C105 C 0.28171 0.50117 0.04645
 C106 C 0.27601 0.45346 0.09990
 N107 N 0.21242 0.42548 0.13216
 C108 C 0.32653 0.43443 0.11901
 H109 H 0.37502 0.34346 0.17815
 H110 H 0.37408 0.34323 0.32395
 H111 H 0.19219 0.38542 0.17143
 H112 H 0.32752 0.53820 0.48642
 H113 H 0.21143 0.53994 0.48650
 H114 H -0.03206 0.34436 0.32297
 H115 H -0.03180 0.34335 0.17719
 H116 H 0.32627 0.53536 0.01288
 H117 H 0.19130 0.38603 0.33033
 H118 H 0.20943 0.53572 0.01271
 C119 C 0.62913 0.64388 0.28744
 C120 C 0.62947 0.64419 0.21137
 C121 C 0.59033 0.67428 0.18940
 N122 N 0.56762 0.69366 0.24936
 C123 C 0.58988 0.67387 0.30932
 C124 C 0.56349 0.67195 0.11779
 C125 C 0.54501 0.72292 0.09852
 C126 C 0.49779 0.71766 0.04462
 C127 C 0.49796 0.78016 0.04461
 C128 C 0.54527 0.82224 0.09850
 N129 N 0.57314 0.78661 0.13100
 C130 C 0.56396 0.89183 0.11785
 C131 C 0.59071 0.91632 0.18955
 C132 C 0.62999 0.98560 0.21179
 C133 C 0.62989 0.98542 0.28787
 C134 C 0.59054 0.91604 0.30947
 N135 N 0.56806 0.87406 0.24932
 C136 C 0.56347 0.89125 0.38089
 C137 C 0.54428 0.82154 0.39964
 C138 C 0.49611 0.77917 0.45259
 C139 C 0.49602 0.71674 0.45262
 C140 C 0.54411 0.72239 0.39968
 N141 N 0.57263 0.78614 0.36761
 C142 C 0.56297 0.67167 0.38083
 H143 H 0.65381 0.62268 0.32230
 H144 H 0.65442 0.62321 0.17651
 H145 H 0.61303 0.80631 0.32875
 H146 H 0.46373 0.67326 0.01061
 H147 H 0.46404 0.79054 0.01061
 H148 H 0.65494 1.03165 0.17715
 H149 H 0.65472 1.03131 0.32294
 H150 H 0.46142 0.67206 0.48586
 H151 H 0.61296 0.80653 0.17061
 H152 H 0.46156 0.78933 0.48582
 C153 C 0.35586 0.98638 0.28860
 C154 C 0.35520 0.98627 0.21252
 C155 C 0.32586 0.91702 0.19053
 N156 N 0.30746 0.87499 0.25044
 C157 C 0.32713 0.91713 0.31053
 C158 C 0.32783 0.89257 0.11874
 C159 C 0.27722 0.82289 0.09960
 C160 C 0.28267 0.78075 0.04595
 C161 C 0.22037 0.71823 0.04592
 C162 C 0.17826 0.72357 0.09955
 N163 N 0.21369 0.78728 0.13198
 C164 C 0.10879 0.67265 0.11869
 C165 C 0.08440 0.67511 0.19030
 C166 C 0.01524 0.64515 0.21242
 C167 C 0.01558 0.64572 0.28849
 C168 C 0.08492 0.67591 0.31021
 N169 N 0.12674 0.69514 0.25012
 C170 C 0.10976 0.67353 0.38159
 C171 C 0.17957 0.72390 0.40045
 C172 C 0.22193 0.71745 0.45286
 C173 C 0.28458 0.77958 0.45306
 C174 C 0.27911 0.82277 0.40084
 N175 N 0.21516 0.78789 0.36892
 C176 C 0.33035 0.89252 0.38201
 H177 H 0.37661 1.03241 0.32344
 H178 H 0.37540 1.03212 0.17766
 H179 H 0.19506 0.80843 0.33035
 H180 H 0.32711 0.79112 0.01219
 H181 H 0.21013 0.67373 0.01212
 H182 H -0.03082 0.62376 0.17771
 H183 H -0.03021 0.62474 0.32351
 H184 H 0.32933 0.78893 0.48578
 H185 H 0.19375 0.80731 0.17140
 H186 H 0.21163 0.67234 0.48544
 C187 C 0.98559 0.63035 0.78800
 C188 C 0.98575 0.63034 0.71192
 C189 C 0.91654 0.59110 0.68977
 N190 N 0.87432 0.56856 0.74959
 C191 C 0.91628 0.59107 0.80969
 C192 C 0.89204 0.56428 0.61809
 C193 C 0.82254 0.54560 0.59885
 C194 C 0.78043 0.49809 0.54510
 C195 C 0.71808 0.49807 0.54511
 C196 C 0.72347 0.54558 0.59886
 N197 N 0.78708 0.57372 0.63129
 C198 C 0.67266 0.56424 0.61812
 C199 C 0.67489 0.59100 0.68981
 C200 C 0.64476 0.63010 0.71197
 C201 C 0.64433 0.62960 0.78805
 C202 C 0.67430 0.59030 0.80973
 N203 N 0.69419 0.56817 0.74966
 C204 C 0.67190 0.56313 0.88111
 C205 C 0.72268 0.54441 0.89998
 C206 C 0.71708 0.49635 0.95292
 C207 C 0.77952 0.49657 0.95289
 C208 C 0.82185 0.54479 0.89996
 N209 N 0.78643 0.57306 0.86795
 C210 C 0.89151 0.56401 0.88113
 H211 H 1.03144 0.65519 0.82302
 H212 H 1.03175 0.65520 0.67722
 H213 H 0.80655 0.61347 0.82910
 H214 H 0.79067 0.46391 0.51124
 H215 H 0.67367 0.46388 0.51122
 H216 H 0.62381 0.65511 0.67725
 H217 H 0.62303 0.65416 0.82305
 H218 H 0.78971 0.46207 0.98612
 H219 H 0.80705 0.61370 0.67081
 H220 H 0.67246 0.46169 0.98616
 C221 C 0.36933 0.01458 0.71336
 C222 C 0.36967 0.01470 0.78944
 C223 C 0.41018 0.08401 0.81149
 N224 N 0.43278 0.12597 0.75148
 C225 C 0.40929 0.08377 0.69150
 C226 C 0.43824 0.10874 0.88297
 C227 C 0.45683 0.17854 0.90209
 C228 C 0.50590 0.22178 0.95413
 C229 C 0.50566 0.28403 0.95417
 C230 C 0.45643 0.27765 0.90219
 N231 N 0.42772 0.21349 0.87056
 C232 C 0.43737 0.32844 0.88319
 C233 C 0.40940 0.32498 0.81170
 C234 C 0.36888 0.35363 0.78971
 C235 C 0.36909 0.35394 0.71364
 C236 C 0.40925 0.32502 0.69172
 N237 N 0.43243 0.30609 0.75162
 C238 C 0.43589 0.32734 0.62008
 C239 C 0.45488 0.27677 0.60102
 C240 C 0.50257 0.28233 0.54761
 C241 C 0.50253 0.21992 0.54754
 C242 C 0.45481 0.17772 0.60091
 N243 N 0.42669 0.21315 0.63327
 C244 C 0.43571 0.10809 0.61979
 H245 H 0.34376 -0.03137 0.67844
 H246 H 0.34436 -0.03124 0.82422
 H247 H 0.38659 0.19306 0.67248
 H248 H 0.54150 0.21241 0.98642
 H249 H 0.54108 0.32924 0.98651
 H250 H 0.34330 0.37395 0.82457
 H251 H 0.34373 0.37441 0.67877
 H252 H 0.53680 0.20968 0.51392
 H253 H 0.38696 0.19294 0.83203
 H254 H 0.53683 0.32690 0.51407
 C255 C 0.64476 0.01502 0.71235
 C256 C 0.64536 0.01542 0.78842
 C257 C 0.67563 0.08488 0.81015
 N258 N 0.69489 0.12668 0.75005
 C259 C 0.67480 0.08424 0.69023
 C260 C 0.67335 0.10984 0.88156
 C261 C 0.72377 0.17971 0.90037
 C262 C 0.71745 0.22222 0.95284
 C263 C 0.77957 0.28488 0.95294
 C264 C 0.82263 0.27926 0.90060
 N265 N 0.78767 0.21522 0.86871
 C266 C 0.89233 0.33045 0.88167
 C267 C 0.91685 0.32711 0.81013
 C268 C 0.98600 0.35573 0.78810
 C269 C 0.98585 0.35498 0.71202
 C270 C 0.91667 0.32571 0.69014
 N271 N 0.87473 0.30743 0.75012
 C272 C 0.89225 0.32768 0.61840
 C273 C 0.82260 0.27707 0.59937
 C274 C 0.78052 0.28257 0.54584
 C275 C 0.71799 0.22027 0.54591
 C276 C 0.72329 0.17811 0.59947
 N277 N 0.78697 0.21352 0.63177
 C278 C 0.67236 0.10862 0.61865
 H279 H 0.62330 -0.03113 0.67764
 H280 H 0.62433 -0.03038 0.82344
 H281 H 0.80695 0.19354 0.67112
 H282 H 0.67245 0.21200 0.98552
 H283 H 0.78902 0.32975 0.98568
 H284 H 1.03199 0.37646 0.82287
 H285 H 1.03163 0.37508 0.67709
 H286 H 0.67354 0.21009 0.51222
 H287 H 0.80810 0.19500 0.83007
 H288 H 0.79092 0.32704 0.51209
   
