data_POSCAR
  _audit_creation_date              2014-09-24
  _audit_creation_method            'ToBaCCo'
  _symmetry_space_group_name_H-M    'P1'
  _symmetry_Int_Tables_number       1
  _symmetry_cell_setting            triclinic
  loop_
  _symmetry_equiv_pos_as_xyz
 x,y,z
_cell_length_a 33.6037
_cell_length_b 42.1929
_cell_length_c 33.5798
_cell_angle_alpha 90.024000
_cell_angle_beta 91.136900
_cell_angle_gamma 89.966900
loop_
  _atom_site_label
  _atom_site_type_symbol
  _atom_site_fract_x
  _atom_site_fract_y
  _atom_site_fract_z
C1 C 1.25007 0.25208 0.25456
 C2 C 0.74960 -0.24833 0.24460
 C3 C 0.75011 0.25128 -0.25026
 C4 C 1.25049 -0.24825 -0.24980
 C5 C 0.24903 0.24742 0.74530
 C6 C 0.74959 0.74780 0.75536
 C7 C 0.75010 0.24727 0.24973
 C8 C 0.24984 0.74658 0.25021
 N9 N 1.07305 0.03343 0.04554
 N10 N 1.09832 0.05693 0.05191
 N11 N 1.04550 -0.03345 0.07216
 N12 N 1.05142 -0.05694 0.09758
 N13 N 1.07318 -0.03329 0.04509
 N14 N 1.09870 -0.05667 0.05131
 N15 N 1.04545 0.03326 0.07268
 N16 N 1.05111 0.05664 0.09829
 C17 C 1.08404 0.07115 0.08475
 C18 C 1.08452 -0.07122 0.08397
 N19 N 0.93207 -0.03312 0.04225
 N20 N 0.90643 -0.05635 0.04752
 N21 N 0.95977 0.03333 0.07100
 N22 N 0.95358 0.05627 0.09690
 N23 N 0.93214 0.03353 0.04278
 N24 N 0.90635 0.05659 0.04868
 N25 N 0.95976 -0.03333 0.07041
 N26 N 0.95375 -0.05672 0.09567
 Mn27 Mn 1.00262 -0.00006 0.07203
 C28 C 0.92060 -0.07088 0.08075
 C29 C 0.92039 0.07060 0.08232
 N30 N 1.07309 -0.03282 -0.04059
 N31 N 1.09918 -0.05563 -0.04658
 N32 N 1.04540 0.03385 -0.06849
 N33 N 1.05217 0.05646 -0.09466
 N34 N 1.07306 0.03379 -0.04028
 N35 N 1.09944 0.05634 -0.04650
 N36 N 1.04544 -0.03278 -0.06879
 N37 N 1.05196 -0.05557 -0.09481
 Mn38 Mn 1.07354 0.00030 0.00246
 C39 C 1.08532 -0.06967 -0.08025
 C40 C 1.08570 0.07037 -0.08024
 N41 N 0.93206 0.03391 -0.04297
 N42 N 0.90665 0.05736 -0.04909
 N43 N 0.95966 -0.03281 -0.07046
 N44 N 0.95423 -0.05657 -0.09560
 N45 N 0.93201 -0.03280 -0.04336
 N46 N 0.90700 -0.05653 -0.04925
 N47 N 0.95964 0.03396 -0.07013
 N48 N 0.95380 0.05748 -0.09552
 Mn49 Mn 0.93162 0.00040 -0.00034
 Mn50 Mn 1.00252 0.00055 -0.06994
 Cl51 Cl 1.00259 0.00031 0.00105
 C52 C 0.92080 0.07185 -0.08180
 C53 C 0.92139 -0.07108 -0.08181
 N54 N 1.06819 0.53501 0.54484
 N55 N 1.09307 0.55877 0.55100
 N56 N 1.04119 0.46802 0.57157
 N57 N 1.04647 0.44397 0.59627
 N58 N 1.06898 0.46833 0.54462
 N59 N 1.09397 0.44451 0.55020
 N60 N 1.04051 0.53474 0.57190
 N61 N 1.04577 0.55835 0.59728
 C62 C 1.07851 0.57307 0.58363
 C63 C 1.07939 0.42961 0.58241
 N64 N 0.92789 0.46746 0.54138
 N65 N 0.90183 0.44460 0.54725
 N66 N 0.95481 0.53418 0.57001
 N67 N 0.94780 0.55666 0.59631
 N68 N 0.92727 0.53413 0.54170
 N69 N 0.90072 0.55659 0.54796
 N70 N 0.95543 0.46751 0.56969
 N71 N 0.94887 0.44469 0.59565
 Mn72 Mn 0.99801 0.50111 0.57126
 C73 C 0.91560 0.43053 0.58096
 C74 C 0.91425 0.57053 0.58187
 N75 N 1.06947 0.46862 0.45905
 N76 N 1.09572 0.44587 0.45345
 N77 N 1.04120 0.53509 0.43078
 N78 N 1.04763 0.55791 0.40479
 N79 N 1.06872 0.53528 0.45911
 N80 N 1.09466 0.55823 0.45317
 N81 N 1.04196 0.46838 0.43072
 N82 N 1.04874 0.44543 0.40498
 Mn83 Mn 1.06928 0.50183 0.50195
 C84 C 1.08214 0.43156 0.41986
 C85 C 1.08082 0.57222 0.41941
 N86 N 0.92773 0.53427 0.45586
 N87 N 0.90195 0.55740 0.44934
 N88 N 0.95617 0.46778 0.42870
 N89 N 0.95064 0.44438 0.40307
 N90 N 0.92838 0.46762 0.45567
 N91 N 0.90317 0.44410 0.44918
 N92 N 0.95545 0.53445 0.42883
 N93 N 0.94935 0.55771 0.40315
 Mn94 Mn 0.92737 0.50088 0.49862
 Mn95 Mn 0.99868 0.50141 0.42929
 Cl96 Cl 0.99832 0.50132 0.50027
 C97 C 0.91606 0.57180 0.41657
 C98 C 0.91765 0.42983 0.41646
 N99 N 0.57114 0.03170 0.54298
 N100 N 0.59659 0.05509 0.54925
 N101 N 0.54348 -0.03490 0.57032
 N102 N 0.54961 -0.05795 0.59630
 N103 N 0.57112 -0.03500 0.54321
 N104 N 0.59686 -0.05813 0.54997
 N105 N 0.54347 0.03180 0.57007
 N106 N 0.54932 0.05526 0.59555
 C107 C 0.58239 0.06956 0.58197
 C108 C 0.58282 -0.07224 0.58298
 N109 N 0.43014 -0.03494 0.54028
 N110 N 0.40404 -0.05772 0.54625
 N111 N 0.45770 0.03180 0.56831
 N112 N 0.45141 0.05492 0.59393
 N113 N 0.43005 0.03169 0.54011
 N114 N 0.40416 0.05474 0.54574
 N115 N 0.45773 -0.03487 0.56853
 N116 N 0.45120 -0.05764 0.59454
 Mn117 Mn 0.50060 -0.00154 0.56977
 C118 C 0.41787 -0.07175 0.57993
 C119 C 0.41815 0.06906 0.57920
 N120 N 0.57112 -0.03517 0.45738
 N121 N 0.59745 -0.05778 0.45119
 N122 N 0.54350 0.03145 0.42899
 N123 N 0.55003 0.05423 0.40298
 N124 N 0.57113 0.03146 0.45722
 N125 N 0.59723 0.05425 0.45122
 N126 N 0.54348 -0.03519 0.42915
 N127 N 0.55022 -0.05781 0.40297
 Mn128 Mn 0.57157 -0.00176 0.50021
 C129 C 0.58370 -0.07179 0.41742
 C130 C 0.58340 0.06831 0.41754
 N131 N 0.43014 0.03148 0.45450
 N132 N 0.40546 0.05550 0.44902
 N133 N 0.45773 -0.03527 0.42745
 N134 N 0.45183 -0.05870 0.40191
 N135 N 0.43012 -0.03523 0.45459
 N136 N 0.40465 -0.05861 0.44829
 N137 N 0.45777 0.03149 0.42740
 N138 N 0.45269 0.05553 0.40266
 Mn139 Mn 0.42966 -0.00176 0.49734
 Mn140 Mn 0.50060 -0.00188 0.42778
 Cl141 Cl 0.50063 -0.00175 0.49878
 C142 C 0.42004 0.07019 0.41669
 C143 C 0.41879 -0.07305 0.41552
 N144 N 0.56843 0.53139 0.04536
 N145 N 0.59326 0.55526 0.05099
 N146 N 0.54007 0.46483 0.07210
 N147 N 0.54531 0.44112 0.09732
 N148 N 0.56785 0.46472 0.04513
 N149 N 0.59279 0.44095 0.05123
 N150 N 0.54064 0.53157 0.07231
 N151 N 0.54577 0.55559 0.09708
 C152 C 0.57862 0.57005 0.08325
 C153 C 0.57817 0.42648 0.08372
 N154 N 0.42687 0.46565 0.04156
 N155 N 0.40037 0.44313 0.04739
 N156 N 0.45490 0.53210 0.07026
 N157 N 0.44850 0.55495 0.09625
 N158 N 0.42739 0.53233 0.04192
 N159 N 0.40150 0.55535 0.04783
 N160 N 0.45432 0.46543 0.06995
 N161 N 0.44728 0.44274 0.09592
 Mn162 Mn 0.49751 0.49848 0.07163
 C163 C 0.41382 0.42896 0.08114
 C164 C 0.41533 0.56931 0.08161
 N165 N 0.56853 0.46494 -0.04059
 N166 N 0.59486 0.44233 -0.04684
 N167 N 0.54157 0.53184 -0.06861
 N168 N 0.54802 0.55502 -0.09406
 N169 N 0.56907 0.53160 -0.04027
 N170 N 0.59503 0.55461 -0.04563
 N171 N 0.54108 0.46516 -0.06899
 N172 N 0.54797 0.44270 -0.09536
 Mn173 Mn 0.56892 0.49815 0.00245
 C174 C 0.58133 0.42855 -0.08083
 C175 C 0.58124 0.56904 -0.07909
 N176 N 0.42808 0.53244 -0.04380
 N177 N 0.40316 0.55622 -0.04983
 N178 N 0.45531 0.46567 -0.07110
 N179 N 0.44927 0.44256 -0.09702
 N180 N 0.42747 0.46577 -0.04419
 N181 N 0.40168 0.44271 -0.05104
 N182 N 0.45588 0.53235 -0.07075
 N183 N 0.45067 0.55609 -0.09591
 Mn184 Mn 0.42700 0.49904 -0.00116
 Mn185 Mn 0.49844 0.49875 -0.07032
 Cl186 Cl 0.49796 0.49859 0.00065
 C187 C 0.41783 0.57071 -0.08227
 C188 C 0.41591 0.42843 -0.08389
 C189 C 1.13840 0.14527 0.14223
 C190 C 1.17170 0.16042 0.12544
 C191 C 1.19285 0.18390 0.14759
 C192 C 1.18055 0.19203 0.18635
 C193 C 1.14638 0.17775 0.20254
 C194 C 1.12521 0.15430 0.18039
 C195 C 1.09128 0.14016 0.19729
 C196 C 1.07866 0.14897 0.23500
 C197 C 1.09941 0.17190 0.25668
 C198 C 1.13293 0.18620 0.24079
 C199 C 1.22627 0.19857 0.13038
 C200 C 1.23840 0.19029 0.09232
 C201 C 1.21771 0.16732 0.07065
 C202 C 1.18473 0.15246 0.08688
 C203 C 1.20410 0.21395 0.21021
 C204 C 1.22444 0.23152 0.23023
 C205 C 1.11873 0.11951 0.12107
 C206 C 1.10274 0.09763 0.10416
 H207 H 1.07411 0.12227 0.18154
 H208 H 1.05263 0.13794 0.24746
 H209 H 1.08948 0.17866 0.28595
 H210 H 1.14804 0.20397 0.25874
 H211 H 1.24327 0.21662 0.14605
 H212 H 1.26399 0.20178 0.07960
 H213 H 1.22724 0.16098 0.04109
 H214 H 1.16953 0.13479 0.06885
 C215 C 1.13367 0.64750 0.63948
 C216 C 1.16630 0.66261 0.62140
 C217 C 1.18864 0.68577 0.64292
 C218 C 1.17815 0.69361 0.68232
 C219 C 1.14449 0.67952 0.69976
 C220 C 1.12214 0.65639 0.67824
 C221 C 1.08877 0.64241 0.69637
 C222 C 1.07780 0.65107 0.73467
 C223 C 1.09970 0.67368 0.75574
 C224 C 1.13271 0.68781 0.73865
 C225 C 1.22140 0.70037 0.62444
 C226 C 1.23176 0.69233 0.58575
 C227 C 1.20993 0.66966 0.56469
 C228 C 1.17754 0.65489 0.58216
 C229 C 1.20308 0.71492 0.70564
 C230 C 1.22428 0.73191 0.72555
 C231 C 1.11327 0.62173 0.61912
 C232 C 1.09701 0.59975 0.60274
 H233 H 1.07075 0.62477 0.68111
 H234 H 1.05216 0.64018 0.74806
 H235 H 1.09106 0.68033 0.78549
 H236 H 1.14875 0.70534 0.75618
 H237 H 1.23922 0.71819 0.63962
 H238 H 1.25687 0.70376 0.57204
 H239 H 1.21814 0.66345 0.53467
 H240 H 1.16139 0.63748 0.56456
 C241 C 0.63753 0.14382 0.63881
 C242 C 0.62634 0.15178 0.67801
 C243 C 0.64776 0.17545 0.69959
 C244 C 0.68021 0.19104 0.68184
 C245 C 0.69049 0.18392 0.64214
 C246 C 0.66909 0.16023 0.62055
 C247 C 0.68010 0.15334 0.58102
 C248 C 0.71133 0.16945 0.56329
 C249 C 0.73226 0.19260 0.58441
 C250 C 0.72211 0.19984 0.62341
 C251 C 0.63626 0.18281 0.73886
 C252 C 0.60444 0.16726 0.75629
 C253 C 0.58347 0.14414 0.73517
 C254 C 0.59417 0.13637 0.69649
 C255 C 0.70414 0.21323 0.70506
 C256 C 0.72459 0.23088 0.72494
 C257 C 0.61757 0.11798 0.61794
 C258 C 0.60135 0.09607 0.60124
 H259 H 0.66464 0.13557 0.56337
 H260 H 0.71931 0.16392 0.53299
 H261 H 0.75649 0.20505 0.57051
 H262 H 0.73919 0.21809 0.63861
 H263 H 0.65159 0.20069 0.75644
 H264 H 0.59601 0.17321 0.78632
 H265 H 0.55875 0.13215 0.74883
 H266 H 0.57690 0.11827 0.68124
 C267 C 0.63231 0.64647 0.13627
 C268 C 0.66335 0.66254 0.11675
 C269 C 0.68549 0.68636 0.13729
 C270 C 0.67643 0.69389 0.17716
 C271 C 0.64408 0.67899 0.19596
 C272 C 0.62194 0.65518 0.17545
 C273 C 0.59000 0.64034 0.19498
 C274 C 0.58017 0.64885 0.23368
 C275 C 0.60183 0.67216 0.25375
 C276 C 0.63348 0.68712 0.23528
 C277 C 0.71666 0.70191 0.11739
 C278 C 0.72567 0.69417 0.07823
 C279 C 0.70405 0.67084 0.05814
 C280 C 0.67321 0.65512 0.07703
 C281 C 0.70177 0.71539 0.19974
 C282 C 0.72324 0.73229 0.21950
 C283 C 0.61246 0.61993 0.11693
 C284 C 0.59666 0.59736 0.10140
 H285 H 0.57221 0.62214 0.18054
 H286 H 0.55560 0.63730 0.24814
 H287 H 0.59407 0.67871 0.28379
 H288 H 0.64936 0.70519 0.25206
 H289 H 0.73422 0.72027 0.13179
 H290 H 0.74956 0.70634 0.06341
 H291 H 0.71122 0.66486 0.02776
 H292 H 0.65714 0.63722 0.06015
 C293 C 0.86383 -0.14283 0.13780
 C294 C 0.84585 -0.16835 0.11678
 C295 C 0.82404 -0.19163 0.13776
 C296 C 0.82044 -0.18921 0.17957
 C297 C 0.83927 -0.16416 0.20070
 C298 C 0.86094 -0.14084 0.17974
 C299 C 0.87908 -0.11575 0.20147
 C300 C 0.87590 -0.11381 0.24271
 C301 C 0.85481 -0.13670 0.26323
 C302 C 0.83671 -0.16166 0.24264
 C303 C 0.80603 -0.21680 0.11618
 C304 C 0.80957 -0.21897 0.07499
 C305 C 0.83096 -0.19624 0.05445
 C306 C 0.84890 -0.17112 0.07495
 C307 C 0.79600 -0.21152 0.20089
 C308 C 0.77524 -0.22887 0.21992
 C309 C 0.88437 -0.11808 0.11643
 C310 C 0.90110 -0.09684 0.09966
 H311 H 0.89592 -0.09741 0.18689
 H312 H 0.88992 -0.09445 0.25883
 H313 H 0.85243 -0.13512 0.29527
 H314 H 0.82084 -0.17896 0.26000
 H315 H 0.78920 -0.23508 0.13091
 H316 H 0.79568 -0.23842 0.05893
 H317 H 0.83373 -0.19810 0.02248
 H318 H 0.86523 -0.15401 0.05770
 C319 C 0.85702 0.36028 0.63992
 C320 C 0.84667 0.33119 0.62135
 C321 C 0.82580 0.30769 0.64295
 C322 C 0.81550 0.31340 0.68299
 C323 C 0.82578 0.34249 0.70154
 C324 C 0.84648 0.36603 0.67992
 C325 C 0.85601 0.39507 0.69900
 C326 C 0.84530 0.40071 0.73826
 C327 C 0.82517 0.37765 0.75943
 C328 C 0.81560 0.34880 0.74150
 C329 C 0.81551 0.27890 0.62372
 C330 C 0.82550 0.27349 0.58421
 C331 C 0.84594 0.29645 0.56309
 C332 C 0.85650 0.32501 0.58130
 C333 C 0.79332 0.28993 0.70500
 C334 C 0.77423 0.27166 0.72453
 C335 C 0.87812 0.38450 0.61801
 C336 C 0.89541 0.40521 0.60068
 H337 H 0.87169 0.41375 0.68382
 H338 H 0.85271 0.42309 0.75232
 H339 H 0.81694 0.38212 0.78993
 H340 H 0.80012 0.33158 0.75933
 H341 H 0.79964 0.26035 0.63898
 H342 H 0.81735 0.25136 0.56993
 H343 H 0.85366 0.29211 0.53242
 H344 H 0.87234 0.34216 0.56366
 C345 C 0.35812 -0.14088 0.63928
 C346 C 0.34297 -0.13314 0.67713
 C347 C 0.32186 -0.15626 0.69898
 C348 C 0.31586 -0.18691 0.68277
 C349 C 0.33054 -0.19455 0.64475
 C350 C 0.35178 -0.17144 0.62291
 C351 C 0.36604 -0.17953 0.58486
 C352 C 0.35940 -0.20959 0.56880
 C353 C 0.33860 -0.23218 0.59018
 C354 C 0.32430 -0.22489 0.62777
 C355 C 0.30697 -0.14800 0.73678
 C356 C 0.31242 -0.11766 0.75232
 C357 C 0.33299 -0.09501 0.73090
 C358 C 0.34825 -0.10255 0.69378
 C359 C 0.29377 -0.21012 0.70510
 C360 C 0.27469 -0.22817 0.72486
 C361 C 0.37984 -0.11717 0.61727
 C362 C 0.39750 -0.09678 0.59983
 H363 H 0.38232 -0.16273 0.56710
 H364 H 0.37044 -0.21537 0.53961
 H365 H 0.33349 -0.25548 0.57757
 H366 H 0.30827 -0.24322 0.64328
 H367 H 0.29094 -0.16481 0.75472
 H368 H 0.30062 -0.11173 0.78115
 H369 H 0.33719 -0.07147 0.74310
 H370 H 0.36405 -0.08409 0.67830
 C371 C 0.35328 0.36029 0.14061
 C372 C 0.33517 0.36894 0.17676
 C373 C 0.31456 0.34581 0.19908
 C374 C 0.31217 0.31420 0.18510
 C375 C 0.32949 0.30568 0.14855
 C376 C 0.35014 0.32882 0.12620
 C377 C 0.36710 0.31983 0.08965
 C378 C 0.36361 0.28886 0.07552
 C379 C 0.34340 0.26623 0.09739
 C380 C 0.32652 0.27440 0.13357
 C381 C 0.29656 0.35502 0.23510
 C382 C 0.29866 0.38622 0.24852
 C383 C 0.31886 0.40885 0.22670
 C384 C 0.33703 0.40044 0.19127
 C385 C 0.29136 0.29076 0.20831
 C386 C 0.27328 0.27249 0.22869
 C387 C 0.37509 0.38389 0.11847
 C388 C 0.39298 0.40413 0.10098
 H389 H 0.38304 0.33662 0.07157
 H390 H 0.37662 0.28240 0.04742
 H391 H 0.34074 0.24222 0.08628
 H392 H 0.31104 0.25601 0.14952
 H393 H 0.28062 0.33829 0.25324
 H394 H 0.28455 0.39285 0.27601
 H395 H 0.32046 0.43307 0.23726
 H396 H 0.35234 0.41893 0.17536
 C397 C 0.86502 0.14593 -0.13840
 C398 C 0.83301 0.16188 -0.12026
 C399 C 0.81104 0.18519 -0.14197
 C400 C 0.82127 0.19243 -0.18164
 C401 C 0.85426 0.17739 -0.19922
 C402 C 0.87620 0.15407 -0.17753
 C403 C 0.90886 0.13916 -0.19586
 C404 C 0.91953 0.14708 -0.23449
 C405 C 0.89806 0.16987 -0.25570
 C406 C 0.86575 0.18492 -0.23843
 C407 C 0.77889 0.20059 -0.12340
 C408 C 0.76879 0.19323 -0.08443
 C409 C 0.79029 0.17046 -0.06318
 C410 C 0.82205 0.15488 -0.08075
 C411 C 0.79679 0.21413 -0.20505
 C412 C 0.77597 0.23136 -0.22515
 C413 C 0.88533 0.12022 -0.11760
 C414 C 0.90175 0.09836 -0.10098
 H415 H 0.92654 0.12135 -0.18053
 H416 H 0.94462 0.13547 -0.24803
 H417 H 0.90647 0.17594 -0.28570
 H418 H 0.85004 0.20255 -0.25608
 H419 H 0.76136 0.21852 -0.13870
 H420 H 0.74415 0.20526 -0.07065
 H421 H 0.78229 0.16481 -0.03294
 H422 H 0.83794 0.13740 -0.06301
 C423 C 0.85918 0.64480 0.35922
 C424 C 0.87743 0.66025 0.32692
 C425 C 0.85600 0.68352 0.30468
 C426 C 0.81648 0.69117 0.31491
 C427 C 0.79869 0.67648 0.34800
 C428 C 0.82011 0.65322 0.37025
 C429 C 0.80163 0.63868 0.40305
 C430 C 0.76306 0.64691 0.41357
 C431 C 0.74209 0.66966 0.39179
 C432 C 0.75954 0.68434 0.35934
 C433 C 0.87470 0.69849 0.27231
 C434 C 0.91353 0.69070 0.26224
 C435 C 0.93451 0.66794 0.28399
 C436 C 0.91681 0.65279 0.31598
 C437 C 0.79357 0.71318 0.29053
 C438 C 0.77398 0.73088 0.26993
 C439 C 0.87992 0.61943 0.38010
 C440 C 0.89667 0.59789 0.39698
 H441 H 0.81677 0.62091 0.42096
 H442 H 0.74939 0.63558 0.43877
 H443 H 0.71215 0.67597 0.40008
 H444 H 0.74206 0.70195 0.34336
 H445 H 0.85961 0.71640 0.25457
 H446 H 0.92742 0.70240 0.23742
 H447 H 0.96467 0.66198 0.27605
 H448 H 0.93434 0.63530 0.33206
 C449 C 0.36671 0.14665 0.36340
 C450 C 0.37792 0.15559 0.32457
 C451 C 0.35599 0.17934 0.30371
 C452 C 0.32306 0.19399 0.32185
 C453 C 0.31312 0.18622 0.36142
 C454 C 0.33503 0.16244 0.38229
 C455 C 0.32430 0.15478 0.42168
 C456 C 0.29282 0.17021 0.43993
 C457 C 0.27142 0.19351 0.41952
 C458 C 0.28129 0.20149 0.38068
 C459 C 0.36740 0.18765 0.26472
 C460 C 0.39965 0.17295 0.24690
 C461 C 0.42112 0.14972 0.26733
 C462 C 0.41050 0.14102 0.30571
 C463 C 0.29804 0.21553 0.29895
 C464 C 0.27665 0.23252 0.27921
 C465 C 0.38637 0.12012 0.38296
 C466 C 0.40206 0.09753 0.39857
 H467 H 0.34017 0.13691 0.43879
 H468 H 0.28499 0.16405 0.47007
 H469 H 0.24703 0.20546 0.43384
 H470 H 0.26385 0.21981 0.36602
 H471 H 0.35168 0.20567 0.24770
 H472 H 0.40802 0.17963 0.21710
 H473 H 0.44617 0.13838 0.25338
 H474 H 0.42818 0.12290 0.32046
 C475 C 0.36383 0.64571 -0.13812
 C476 C 0.37634 0.65477 -0.17649
 C477 C 0.35476 0.67825 -0.19820
 C478 C 0.32087 0.69250 -0.18136
 C479 C 0.30938 0.68445 -0.14233
 C480 C 0.33094 0.66095 -0.12062
 C481 C 0.31868 0.65303 -0.08178
 C482 C 0.28606 0.66793 -0.06489
 C483 C 0.26498 0.69095 -0.08613
 C484 C 0.27635 0.69919 -0.12444
 C485 C 0.36753 0.68672 -0.23668
 C486 C 0.40076 0.67242 -0.25320
 C487 C 0.42190 0.64946 -0.23195
 C488 C 0.40995 0.64063 -0.19403
 C489 C 0.29673 0.71420 -0.20495
 C490 C 0.27612 0.73152 -0.22504
 C491 C 0.38359 0.61970 -0.11759
 C492 C 0.39949 0.59755 -0.10119
 H493 H 0.33423 0.63534 -0.06406
 H494 H 0.27706 0.66157 -0.03517
 H495 H 0.23968 0.70248 -0.07287
 H496 H 0.25909 0.71727 -0.13977
 H497 H 0.35212 0.70452 -0.25432
 H498 H 0.41016 0.67921 -0.28264
 H499 H 0.44771 0.63844 -0.24489
 H500 H 0.42741 0.62272 -0.17862
 C501 C 1.14488 -0.13922 -0.13918
 C502 C 1.16200 -0.13125 -0.17605
 C503 C 1.18282 -0.15462 -0.19782
 C504 C 1.18658 -0.18575 -0.18247
 C505 C 1.17003 -0.19361 -0.14535
 C506 C 1.14907 -0.17025 -0.12360
 C507 C 1.13290 -0.17858 -0.08645
 C508 C 1.13744 -0.20911 -0.07116
 C509 C 1.15796 -0.23195 -0.09244
 C510 C 1.17409 -0.22444 -0.12917
 C511 C 1.19968 -0.14613 -0.23466
 C512 C 1.19642 -0.11535 -0.24933
 C513 C 1.17613 -0.09245 -0.22797
 C514 C 1.15896 -0.10019 -0.19181
 C515 C 1.20816 -0.20930 -0.20481
 C516 C 1.22681 -0.22768 -0.22453
 C517 C 1.12323 -0.11531 -0.11739
 C518 C 1.10562 -0.09480 -0.10007
 H519 H 1.11675 -0.16159 -0.06880
 H520 H 1.12499 -0.21506 -0.04263
 H521 H 1.16142 -0.25563 -0.08044
 H522 H 1.18982 -0.24298 -0.14465
 H523 H 1.21558 -0.16311 -0.25251
 H524 H 1.20970 -0.10925 -0.27741
 H525 H 1.17364 -0.06856 -0.23949
 H526 H 1.14347 -0.08153 -0.17635
 C527 C 1.14217 0.36136 0.36254
 C528 C 1.15437 0.36729 0.32311
 C529 C 1.17571 0.34374 0.30214
 C530 C 1.18473 0.31442 0.32074
 C531 C 1.17306 0.30863 0.36032
 C532 C 1.15169 0.33220 0.38133
 C533 C 1.14058 0.32601 0.42101
 C534 C 1.15041 0.29738 0.43944
 C535 C 1.17130 0.27433 0.41887
 C536 C 1.18252 0.27974 0.37971
 C537 C 1.18782 0.35028 0.26281
 C538 C 1.17933 0.37933 0.24486
 C539 C 1.15842 0.40236 0.26537
 C540 C 1.14593 0.39652 0.30400
 C541 C 1.20689 0.29075 0.29914
 C542 C 1.22595 0.27238 0.27976
 C543 C 1.12036 0.38553 0.38373
 C544 C 1.10260 0.40624 0.40055
 H545 H 1.12435 0.34324 0.43821
 H546 H 1.14179 0.29307 0.46985
 H547 H 1.17889 0.25215 0.43332
 H548 H 1.19875 0.26113 0.36490
 H549 H 1.20404 0.33312 0.24552
 H550 H 1.18902 0.38397 0.21486
 H551 H 1.15185 0.42489 0.25129
 H552 H 1.12976 0.41521 0.31870
 C553 C 0.64402 -0.14051 0.35759
 C554 C 0.67862 -0.13147 0.33705
 C555 C 0.69965 -0.15428 0.31454
 C556 C 0.68606 -0.18602 0.31285
 C557 C 0.65166 -0.19513 0.33360
 C558 C 0.63055 -0.17229 0.35606
 C559 C 0.59616 -0.18192 0.37648
 C560 C 0.58300 -0.21322 0.37473
 C561 C 0.60365 -0.23555 0.35273
 C562 C 0.63763 -0.22674 0.33235
 C563 C 0.73399 -0.14464 0.29396
 C564 C 0.74724 -0.11338 0.29570
 C565 C 0.72675 -0.09109 0.31783
 C566 C 0.69282 -0.09988 0.33831
 C567 C 0.70744 -0.20905 0.28945
 C568 C 0.72600 -0.22735 0.26948
 C569 C 0.62204 -0.11689 0.37960
 C570 C 0.60426 -0.09663 0.39724
 H571 H 0.57914 -0.16540 0.39398
 H572 H 0.55664 -0.22018 0.39052
 H573 H 0.59330 -0.25983 0.35145
 H574 H 0.65271 -0.24494 0.31564
 H575 H 0.75090 -0.16109 0.27628
 H576 H 0.77352 -0.10643 0.27975
 H577 H 0.73716 -0.06683 0.31912
 H578 H 0.67791 -0.08165 0.35510
 C579 C 0.64194 0.35963 -0.14034
 C580 C 0.66495 0.36888 -0.17326
 C581 C 0.68624 0.34570 -0.19497
 C582 C 0.68462 0.31343 -0.18350
 C583 C 0.66202 0.30422 -0.15034
 C584 C 0.64054 0.32739 -0.12872
 C585 C 0.61814 0.31762 -0.09567
 C586 C 0.61708 0.28588 -0.08424
 C587 C 0.63813 0.26325 -0.10535
 C588 C 0.66038 0.27218 -0.13808
 C589 C 0.70893 0.35551 -0.22786
 C590 C 0.71086 0.38732 -0.23874
 C591 C 0.69013 0.40999 -0.21744
 C592 C 0.66732 0.40101 -0.18512
 C593 C 0.70663 0.29000 -0.20579
 C594 C 0.72573 0.27169 -0.22530
 C595 C 0.61989 0.38340 -0.11854
 C596 C 0.60199 0.40371 -0.10103
 H597 H 0.60133 0.33437 -0.07830
 H598 H 0.59984 0.27881 -0.05884
 H599 H 0.63724 0.23864 -0.09632
 H600 H 0.67629 0.25375 -0.15357
 H601 H 0.72541 0.33877 -0.24553
 H602 H 0.72852 0.39439 -0.26385
 H603 H 0.69168 0.43468 -0.22602
 H604 H 0.65171 0.41955 -0.16954
 C605 C 1.14555 0.13936 -0.14014
 C606 C 1.13298 0.17141 -0.13979
 C607 C 1.15364 0.19442 -0.16237
 C608 C 1.18670 0.18523 -0.18514
 C609 C 1.19945 0.15324 -0.18528
 C610 C 1.17888 0.13025 -0.16264
 C611 C 1.19224 0.09842 -0.16323
 C612 C 1.22492 0.08955 -0.18560
 C613 C 1.24495 0.11201 -0.20786
 C614 C 1.23248 0.14350 -0.20783
 C615 C 1.14049 0.22628 -0.16171
 C616 C 1.10783 0.23517 -0.13932
 C617 C 1.08763 0.21268 -0.11722
 C618 C 1.09993 0.18113 -0.11734
 C619 C 1.20755 0.20843 -0.20880
 C620 C 1.22574 0.22671 -0.22915
 C621 C 1.12388 0.11558 -0.11807
 C622 C 1.10623 0.09525 -0.10042
 H623 H 1.17765 0.08006 -0.14642
 H624 H 1.23471 0.06510 -0.18571
 H625 H 1.27025 0.10500 -0.22528
 H626 H 1.24897 0.16006 -0.22570
 H627 H 1.15526 0.24460 -0.17844
 H628 H 1.09814 0.25964 -0.13914
 H629 H 1.06229 0.21972 -0.09988
 H630 H 1.08330 0.16449 -0.09967
 C631 C 1.13831 0.64293 0.35994
 C632 C 1.16059 0.66660 0.38033
 C633 C 1.18235 0.68942 0.35842
 C634 C 1.18175 0.68841 0.31627
 C635 C 1.15869 0.66522 0.29587
 C636 C 1.13689 0.64246 0.31775
 C637 C 1.11421 0.61945 0.29663
 C638 C 1.11310 0.61894 0.25513
 C639 C 1.13443 0.64117 0.23376
 C640 C 1.15702 0.66409 0.25372
 C641 C 1.20448 0.71277 0.37944
 C642 C 1.20510 0.71361 0.42094
 C643 C 1.18386 0.69132 0.44236
 C644 C 1.16185 0.66800 0.42244
 C645 C 1.20583 0.71038 0.29372
 C646 C 1.22614 0.72771 0.27397
 C647 C 1.11769 0.61853 0.38211
 C648 C 1.10076 0.59768 0.39960
 H649 H 1.09705 0.60167 0.31190
 H650 H 1.09558 0.60118 0.23948
 H651 H 1.13347 0.64067 0.20152
 H652 H 1.17303 0.68090 0.23574
 H653 H 1.22135 0.73066 0.36405
 H654 H 1.22209 0.73170 0.43656
 H655 H 1.18437 0.69214 0.47458
 H656 H 1.14575 0.65120 0.44037
 C657 C 0.64364 0.13845 0.36019
 C658 C 0.62720 0.16907 0.35450
 C659 C 0.64871 0.19240 0.33325
 C660 C 0.68648 0.18494 0.31785
 C661 C 0.70308 0.15442 0.32385
 C662 C 0.68163 0.13112 0.34512
 C663 C 0.69881 0.10074 0.35061
 C664 C 0.73606 0.09359 0.33545
 C665 C 0.75701 0.11636 0.31458
 C666 C 0.74087 0.14646 0.30878
 C667 C 0.63163 0.22278 0.32770
 C668 C 0.59433 0.22994 0.34275
 C669 C 0.57330 0.20714 0.36355
 C670 C 0.58940 0.17701 0.36945
 C671 C 0.70797 0.20820 0.29488
 C672 C 0.72658 0.22651 0.27498
 C673 C 0.62141 0.11426 0.38096
 C674 C 0.60365 0.09358 0.39784
 H675 H 0.68369 0.08221 0.36662
 H676 H 0.74871 0.07022 0.33989
 H677 H 0.78590 0.11067 0.30281
 H678 H 0.75833 0.16335 0.29236
 H679 H 0.64689 0.24129 0.31174
 H680 H 0.58169 0.25330 0.33824
 H681 H 0.54434 0.21282 0.37517
 H682 H 0.57194 0.16007 0.38581
 C683 C 0.63822 0.64078 -0.13667
 C684 C 0.65546 0.66677 -0.11594
 C685 C 0.67671 0.69027 -0.13716
 C686 C 0.68047 0.68766 -0.17894
 C687 C 0.66255 0.66202 -0.19976
 C688 C 0.64147 0.63847 -0.17856
 C689 C 0.62425 0.61284 -0.20000
 C690 C 0.62777 0.61056 -0.24118
 C691 C 0.64826 0.63367 -0.26193
 C692 C 0.66542 0.65918 -0.24164
 C693 C 0.69398 0.71589 -0.11583
 C694 C 0.69029 0.71829 -0.07466
 C695 C 0.66943 0.69535 -0.05392
 C696 C 0.65220 0.66980 -0.07416
 C697 C 0.70414 0.71040 -0.20054
 C698 C 0.72435 0.72808 -0.21975
 C699 C 0.61782 0.61602 -0.11507
 C700 C 0.60104 0.59486 -0.09813
 H701 H 0.60791 0.59430 -0.18524
 H702 H 0.61447 0.59078 -0.25708
 H703 H 0.65090 0.63182 -0.29393
 H704 H 0.68087 0.67662 -0.25917
 H705 H 0.71038 0.73434 -0.13072
 H706 H 0.70364 0.73806 -0.05880
 H707 H 0.66654 0.69738 -0.02198
 H708 H 0.63629 0.65254 -0.05675
 C709 C 0.86672 -0.14665 -0.13614
 C710 C 0.87667 -0.15485 -0.17561
 C711 C 0.85453 -0.17859 -0.19630
 C712 C 0.82258 -0.19395 -0.17740
 C713 C 0.81382 -0.18681 -0.13733
 C714 C 0.83596 -0.16307 -0.11661
 C715 C 0.82640 -0.15610 -0.07669
 C716 C 0.79586 -0.17216 -0.05777
 C717 C 0.77425 -0.19541 -0.07803
 C718 C 0.78296 -0.20273 -0.11738
 C719 C 0.86477 -0.18621 -0.23588
 C720 C 0.89604 -0.17083 -0.25445
 C721 C 0.91768 -0.14759 -0.23422
 C722 C 0.90822 -0.13957 -0.19526
 C723 C 0.79738 -0.21563 -0.19998
 C724 C 0.77599 -0.23268 -0.21967
 C725 C 0.88686 -0.12038 -0.11637
 C726 C 0.90295 -0.09807 -0.10044
 H727 H 0.84247 -0.13828 -0.05967
 H728 H 0.78891 -0.16652 -0.02724
 H729 H 0.75058 -0.20784 -0.06319
 H730 H 0.76542 -0.22104 -0.13190
 H731 H 0.84889 -0.20419 -0.25279
 H732 H 0.90354 -0.17700 -0.28468
 H733 H 0.94195 -0.13571 -0.24878
 H734 H 0.92599 -0.12141 -0.18072
 C735 C 0.86268 0.35607 0.35861
 C736 C 0.86650 0.35342 0.31681
 C737 C 0.84483 0.32975 0.29550
 C738 C 0.81950 0.30886 0.31611
 C739 C 0.81665 0.31085 0.35804
 C740 C 0.83833 0.33453 0.37938
 C741 C 0.83484 0.33620 0.42126
 C742 C 0.81064 0.31505 0.44150
 C743 C 0.78944 0.29190 0.42063
 C744 C 0.79227 0.28973 0.37937
 C745 C 0.84889 0.32771 0.25368
 C746 C 0.87367 0.34845 0.23351
 C747 C 0.89487 0.37159 0.25436
 C748 C 0.89143 0.37417 0.29552
 C749 C 0.79534 0.28623 0.29386
 C750 C 0.77501 0.26820 0.27443
 C751 C 0.88270 0.38166 0.37987
 C752 C 0.89888 0.40342 0.39687
 H753 H 0.85083 0.35376 0.43878
 H754 H 0.80832 0.31664 0.47355
 H755 H 0.77069 0.27553 0.43650
 H756 H 0.77528 0.27130 0.36442
 H757 H 0.83308 0.31006 0.23614
 H758 H 0.87644 0.34653 0.20154
 H759 H 0.91410 0.38763 0.23856
 H760 H 0.90860 0.39251 0.31041
 C761 C 0.36283 -0.14642 0.35746
 C762 C 0.34340 -0.17083 0.37853
 C763 C 0.32172 -0.19461 0.35732
 C764 C 0.31954 -0.19381 0.31519
 C765 C 0.33986 -0.16990 0.29409
 C766 C 0.36158 -0.14617 0.31528
 C767 C 0.38146 -0.12244 0.29349
 C768 C 0.37991 -0.12214 0.25200
 C769 C 0.35863 -0.14531 0.23129
 C770 C 0.33877 -0.16895 0.25193
 C771 C 0.30241 -0.21867 0.37900
 C772 C 0.30446 -0.21925 0.42049
 C773 C 0.32559 -0.19599 0.44124
 C774 C 0.34488 -0.17199 0.42065
 C775 C 0.29513 -0.21660 0.29336
 C776 C 0.27433 -0.23439 0.27392
 C777 C 0.38312 -0.12102 0.37896
 C778 C 0.39959 -0.09938 0.39601
 H779 H 0.39845 -0.10392 0.30823
 H780 H 0.39532 -0.10382 0.23583
 H781 H 0.35752 -0.14497 0.19906
 H782 H 0.32269 -0.18648 0.23444
 H783 H 0.28573 -0.23730 0.36413
 H784 H 0.28960 -0.23787 0.43663
 H785 H 0.32706 -0.19655 0.47347
 H786 H 0.36102 -0.15444 0.43807
 C787 C 0.35983 0.35645 -0.14423
 C788 C 0.34129 0.33117 -0.12402
 C789 C 0.32000 0.30765 -0.14604
 C790 C 0.31744 0.30957 -0.18810
 C791 C 0.33673 0.33446 -0.20836
 C792 C 0.35800 0.35796 -0.18636
 C793 C 0.37687 0.38271 -0.20728
 C794 C 0.37481 0.38417 -0.24873
 C795 C 0.35399 0.36120 -0.27023
 C796 C 0.33510 0.33658 -0.25045
 C797 C 0.30149 0.28271 -0.12520
 C798 C 0.30402 0.28100 -0.08378
 C799 C 0.32487 0.30397 -0.06225
 C800 C 0.34331 0.32885 -0.08199
 C801 C 0.29395 0.28665 -0.21062
 C802 C 0.27396 0.26844 -0.23013
 C803 C 0.37999 0.38137 -0.12186
 C804 C 0.39649 0.40260 -0.10408
 H805 H 0.39347 0.40113 -0.19191
 H806 H 0.38945 0.40325 -0.26423
 H807 H 0.35248 0.36243 -0.30242
 H808 H 0.31933 0.31925 -0.26852
 H809 H 0.28498 0.26427 -0.14068
 H810 H 0.28974 0.26173 -0.06830
 H811 H 0.32677 0.30252 -0.03007
 H812 H 0.35922 0.34615 -0.06398
 C813 C 1.14008 -0.14466 0.14230
 C814 C 1.14297 -0.14334 0.18442
 C815 C 1.16413 -0.16728 0.20578
 C816 C 1.18225 -0.19249 0.18496
 C817 C 1.17861 -0.19423 0.14294
 C818 C 1.15748 -0.17023 0.12153
 C819 C 1.15447 -0.17238 0.07953
 C820 C 1.17179 -0.19752 0.05922
 C821 C 1.19241 -0.22098 0.08016
 C822 C 1.19588 -0.21946 0.12155
 C823 C 1.16689 -0.16525 0.24785
 C824 C 1.14919 -0.14033 0.26821
 C825 C 1.12845 -0.11696 0.24733
 C826 C 1.12528 -0.11832 0.20593
 C827 C 1.20585 -0.21575 0.20690
 C828 C 1.22601 -0.23393 0.22642
 C829 C 1.12006 -0.11926 0.12056
 C830 C 1.10372 -0.09759 0.10341
 H831 H 1.13868 -0.15473 0.06198
 H832 H 1.16918 -0.19882 0.02708
 H833 H 1.20575 -0.24047 0.06425
 H834 H 1.21209 -0.23828 0.13657
 H835 H 1.18264 -0.18287 0.26548
 H836 H 1.15158 -0.13917 0.30038
 H837 H 1.11472 -0.09766 0.26328
 H838 H 1.10878 -0.09958 0.19106
 C839 C 1.13262 0.35352 0.63696
 C840 C 1.15926 0.33378 0.61618
 C841 C 1.18102 0.30988 0.63703
 C842 C 1.17590 0.30585 0.67846
 C843 C 1.14779 0.32453 0.69881
 C844 C 1.12611 0.34847 0.67800
 C845 C 1.09847 0.36708 0.69907
 C846 C 1.09237 0.36212 0.73952
 C847 C 1.11355 0.33869 0.75987
 C848 C 1.14102 0.32007 0.73992
 C849 C 1.20781 0.29063 0.61578
 C850 C 1.21280 0.29478 0.57501
 C851 C 1.19146 0.31810 0.55459
 C852 C 1.16500 0.33750 0.57481
 C853 C 1.20104 0.28392 0.70073
 C854 C 1.22245 0.26679 0.72032
 C855 C 1.11325 0.37992 0.61671
 C856 C 1.09761 0.40239 0.60070
 H857 H 1.08117 0.38552 0.68451
 H858 H 1.07105 0.37653 0.75514
 H859 H 1.10866 0.33490 0.79127
 H860 H 1.15668 0.30207 0.75702
 H861 H 1.22494 0.27211 0.63039
 H862 H 1.23330 0.27978 0.55917
 H863 H 1.19541 0.32121 0.52291
 H864 H 1.14900 0.35528 0.55766
 C865 C 0.63957 -0.14496 0.64133
 C866 C 0.67737 -0.15522 0.62857
 C867 C 0.69873 -0.17855 0.65081
 C868 C 0.68214 -0.19150 0.68564
 C869 C 0.64385 -0.18194 0.69775
 C870 C 0.62249 -0.15860 0.67552
 C871 C 0.58437 -0.14925 0.68836
 C872 C 0.56781 -0.16261 0.72217
 C873 C 0.58870 -0.18544 0.74390
 C874 C 0.62631 -0.19507 0.73198
 C875 C 0.73661 -0.18826 0.63765
 C876 C 0.75289 -0.17531 0.60346
 C877 C 0.73200 -0.15251 0.58171
 C878 C 0.69468 -0.14247 0.59399
 C879 C 0.70514 -0.21365 0.70983
 C880 C 0.72486 -0.23143 0.73025
 C881 C 0.61893 -0.11965 0.62011
 C882 C 0.60223 -0.09821 0.60293
 H883 H 0.56695 -0.13162 0.67240
 H884 H 0.53860 -0.15522 0.73155
 H885 H 0.57571 -0.19575 0.77014
 H886 H 0.64139 -0.21295 0.74981
 H887 H 0.75397 -0.20598 0.65354
 H888 H 0.78188 -0.18303 0.59380
 H889 H 0.74477 -0.14252 0.55516
 H890 H 0.67955 -0.12470 0.57605
 C891 C 0.63288 0.35136 0.13899
 C892 C 0.62115 0.34206 0.17754
 C893 C 0.64333 0.31863 0.19875
 C894 C 0.67714 0.30471 0.18131
 C895 C 0.68770 0.31285 0.14203
 C896 C 0.66547 0.33624 0.12077
 C897 C 0.67675 0.34416 0.08162
 C898 C 0.70902 0.32933 0.06396
 C899 C 0.73078 0.30648 0.08479
 C900 C 0.72042 0.29829 0.12342
 C901 C 0.63125 0.30985 0.23736
 C902 C 0.59812 0.32381 0.25450
 C903 C 0.57645 0.34677 0.23378
 C904 C 0.58772 0.35591 0.19575
 C905 C 0.70224 0.28342 0.20458
 C906 C 0.72362 0.26661 0.22461
 C907 C 0.61266 0.37743 0.11891
 C908 C 0.59657 0.39961 0.10268
 H909 H 0.66067 0.36174 0.06421
 H910 H 0.71717 0.33561 0.03395
 H911 H 0.75582 0.29503 0.07095
 H912 H 0.73816 0.28033 0.13842
 H913 H 0.64709 0.29202 0.25459
 H914 H 0.58922 0.31675 0.28401
 H915 H 0.55074 0.35754 0.24722
 H916 H 0.56985 0.37379 0.18075
 C917 C 0.86332 0.14183 0.14090
 C918 C 0.86311 0.14088 0.18305
 C919 C 0.84144 0.16399 0.20446
 C920 C 0.81999 0.18786 0.18358
 C921 C 0.82087 0.18924 0.14149
 C922 C 0.84263 0.16615 0.12006
 C923 C 0.84289 0.16788 0.07798
 C924 C 0.82228 0.19177 0.05765
 C925 C 0.80099 0.21434 0.07862
 C926 C 0.80018 0.21320 0.12008
 C927 C 0.84154 0.16249 0.24659
 C928 C 0.86234 0.13876 0.26698
 C929 C 0.88346 0.11609 0.24605
 C930 C 0.88398 0.11704 0.20458
 C931 C 0.79581 0.21006 0.20553
 C932 C 0.77534 0.22750 0.22488
 C933 C 0.88392 0.11724 0.11916
 C934 C 0.90073 0.09623 0.10192
 H935 H 0.85905 0.15086 0.06039
 H936 H 0.82286 0.19279 0.02546
 H937 H 0.78502 0.23286 0.06271
 H938 H 0.78330 0.23129 0.13513
 H939 H 0.82572 0.17966 0.26424
 H940 H 0.86205 0.13796 0.29919
 H941 H 0.89957 0.09769 0.26201
 H942 H 0.90093 0.09892 0.18966
 C943 C 0.85418 0.63940 0.64200
 C944 C 0.82168 0.63008 0.66553
 C945 C 0.80096 0.65307 0.68809
 C946 C 0.81272 0.68528 0.68685
 C947 C 0.84500 0.69465 0.66314
 C948 C 0.86583 0.67164 0.64066
 C949 C 0.89810 0.68156 0.61728
 C950 C 0.90947 0.71331 0.61614
 C951 C 0.88909 0.73580 0.63813
 C952 C 0.85719 0.72671 0.66142
 C953 C 0.76876 0.64314 0.71165
 C954 C 0.75724 0.61145 0.71274
 C955 C 0.77741 0.58899 0.69057
 C956 C 0.80929 0.59805 0.66722
 C957 C 0.79157 0.70853 0.71021
 C958 C 0.77314 0.72691 0.73025
 C959 C 0.87589 0.61566 0.61983
 C960 C 0.89358 0.59536 0.60210
 H961 H 0.91484 0.66493 0.59966
 H962 H 0.93423 0.72050 0.59810
 H963 H 0.89804 0.76043 0.63715
 H964 H 0.84224 0.74505 0.67802
 H965 H 0.75221 0.65970 0.72951
 H966 H 0.73257 0.60429 0.73091
 H967 H 0.76836 0.56438 0.69150
 H968 H 0.82404 0.57967 0.65054
 C969 C 0.36088 0.14055 0.63716
 C970 C 0.34249 0.16600 0.61633
 C971 C 0.32098 0.18937 0.63757
 C972 C 0.31810 0.18717 0.67947
 C973 C 0.33717 0.16209 0.70038
 C974 C 0.35851 0.13866 0.67916
 C975 C 0.37692 0.11360 0.70070
 C976 C 0.37430 0.11176 0.74200
 C977 C 0.35355 0.13473 0.76276
 C978 C 0.33520 0.15968 0.74237
 C979 C 0.30258 0.21445 0.61614
 C980 C 0.30543 0.21645 0.57487
 C981 C 0.32653 0.19364 0.55410
 C982 C 0.34486 0.16862 0.57443
 C983 C 0.29432 0.20983 0.70116
 C984 C 0.27411 0.22753 0.72040
 C985 C 0.38148 0.11587 0.61555
 C986 C 0.39836 0.09478 0.59851
 H987 H 0.39350 0.09519 0.68593
 H988 H 0.38852 0.09241 0.75797
 H989 H 0.35163 0.13323 0.79485
 H990 H 0.31958 0.17704 0.75991
 H991 H 0.28594 0.23278 0.63104
 H992 H 0.29124 0.23582 0.55893
 H993 H 0.32875 0.19536 0.52206
 H994 H 0.36094 0.15145 0.55700
 C995 C 0.35860 0.64067 0.14077
 C996 C 0.33621 0.66423 0.12029
 C997 C 0.31493 0.68742 0.14213
 C998 C 0.31615 0.68689 0.18430
 C999 C 0.33928 0.66377 0.20476
 C1000 C 0.36058 0.64063 0.18295
 C1001 C 0.38335 0.61770 0.20412
 C1002 C 0.38505 0.61764 0.24562
 C1003 C 0.36420 0.64024 0.26693
 C1004 C 0.34153 0.66308 0.24691
 C1005 C 0.29266 0.71065 0.12104
 C1006 C 0.29145 0.71103 0.07953
 C1007 C 0.31224 0.68839 0.05818
 C1008 C 0.33437 0.66517 0.07817
 C1009 C 0.29269 0.70934 0.20681
 C1010 C 0.27291 0.72713 0.22652
 C1011 C 0.37887 0.61598 0.11871
 C1012 C 0.39557 0.59494 0.10130
 H1013 H 0.40015 0.59965 0.18890
 H1014 H 0.40263 0.59994 0.26131
 H1015 H 0.36561 0.64009 0.29916
 H1016 H 0.32591 0.68019 0.26484
 H1017 H 0.27612 0.72880 0.13637
 H1018 H 0.27435 0.72902 0.06385
 H1019 H 0.31127 0.68885 0.02595
 H1020 H 0.35009 0.64808 0.06029
   
