data_POSCAR
  _audit_creation_date              2014-09-24
  _audit_creation_method            'ToBaCCo'
  _symmetry_space_group_name_H-M    'P1'
  _symmetry_Int_Tables_number       1
  _symmetry_cell_setting            triclinic
  loop_
  _symmetry_equiv_pos_as_xyz
 x,y,z
_cell_length_a 43.7108
_cell_length_b 43.6025
_cell_length_c 43.7016
_cell_angle_alpha 89.992800
_cell_angle_beta 89.940400
_cell_angle_gamma 89.954500
loop_
  _atom_site_label
  _atom_site_type_symbol
  _atom_site_fract_x
  _atom_site_fract_y
  _atom_site_fract_z
C1 C 0.60231 0.64717 0.62569
 C2 C 0.62502 0.64718 0.60304
 C3 C 0.64776 0.62451 0.60302
 C4 C 0.64776 0.60176 0.62569
 C5 C 0.62502 0.60164 0.64839
 C6 C 0.60232 0.62441 0.64835
 H7 H 0.62501 0.66478 0.58550
 H8 H 0.66540 0.58424 0.62562
 H9 H 0.58468 0.62445 0.66584
 C10 C 0.89845 0.35168 0.12535
 C11 C 0.87577 0.35173 0.10267
 C12 C 0.85316 0.37453 0.10261
 C13 C 0.85325 0.39732 0.12522
 C14 C 0.87594 0.39736 0.14784
 C15 C 0.89851 0.37453 0.14792
 H16 H 0.87568 0.33411 0.08513
 H17 H 0.83574 0.41495 0.12519
 H18 H 0.91603 0.37459 0.16550
 C19 C 0.39757 0.14769 -0.12502
 C20 C 0.39755 0.12496 -0.14770
 C21 C 0.37489 0.10224 -0.14770
 C22 C 0.35222 0.10226 -0.12501
 C23 C 0.35222 0.12495 -0.10231
 C24 C 0.37490 0.14765 -0.10232
 H25 H 0.41508 0.12497 -0.16528
 H26 H 0.33466 0.08471 -0.12503
 H27 H 0.37490 0.16520 -0.08473
 C28 C 0.10141 0.85168 0.37466
 C29 C 0.12408 0.85171 0.39735
 C30 C 0.14670 0.87446 0.39735
 C31 C 0.14665 0.89719 0.37471
 C32 C 0.12399 0.89721 0.35209
 C33 C 0.10139 0.87447 0.35205
 H34 H 0.12416 0.83413 0.41492
 H35 H 0.16416 0.91481 0.37470
 H36 H 0.08388 0.87456 0.33446
 N37 N 0.08816 0.17428 0.11314
 N38 N 0.07648 0.16202 0.13807
 C39 C 0.05161 0.17823 0.14654
 C40 C 0.04776 0.20174 0.12581
 C41 C 0.07119 0.19870 0.10493
 H42 H 0.03733 0.17335 0.16617
 H43 H 0.07552 0.21313 0.08527
 Cu44 Cu 0.09505 0.12586 0.15626
 Cu45 Cu 0.12445 0.15766 0.09305
 Cu46 Cu 0.15683 0.09247 0.12542
 N47 N 0.11268 0.08916 0.17427
 N48 N 0.13690 0.07616 0.16189
 C49 C 0.14448 0.05114 0.17824
 C50 C 0.12390 0.04845 0.20196
 C51 C 0.10399 0.07277 0.19894
 H52 H 0.16349 0.03603 0.17327
 H53 H 0.08470 0.07799 0.21355
 N54 N 0.17346 0.11256 0.08856
 N55 N 0.16115 0.13736 0.07624
 C56 C 0.17772 0.14552 0.05153
 C57 C 0.20137 0.12489 0.04833
 C58 C 0.19816 0.10433 0.07201
 H59 H 0.17304 0.16500 0.03695
 H60 H 0.21278 0.08489 0.07677
 H61 H 0.11822 0.11278 0.10725
 H62 H 0.14351 0.13738 0.13123
 N63 N 0.41105 0.82593 0.61189
 N64 N 0.42300 0.83847 0.63653
 C65 C 0.44784 0.82221 0.64499
 C66 C 0.45143 0.79838 0.62456
 C67 C 0.42783 0.80128 0.60387
 H68 H 0.46225 0.82723 0.66445
 H69 H 0.42324 0.78660 0.58447
 Cu70 Cu 0.40473 0.87488 0.65476
 Cu71 Cu 0.37467 0.84247 0.59202
 Cu72 Cu 0.34209 0.90746 0.62456
 N73 N 0.38649 0.91129 0.67298
 N74 N 0.36192 0.92391 0.66095
 C75 C 0.35396 0.94864 0.67763
 C76 C 0.37464 0.95154 0.70121
 C77 C 0.39500 0.92763 0.69774
 H78 H 0.33462 0.96339 0.67297
 H79 H 0.41447 0.92261 0.71216
 N80 N 0.32547 0.88735 0.58775
 N81 N 0.33786 0.86262 0.57536
 C82 C 0.32134 0.85445 0.55065
 C83 C 0.29763 0.87500 0.54753
 C84 C 0.30075 0.89553 0.57124
 H85 H 0.32612 0.83504 0.53601
 H86 H 0.28607 0.91492 0.57605
 H87 H 0.38069 0.88739 0.60598
 H88 H 0.35602 0.86264 0.63051
 N89 N 0.91189 0.67447 0.38727
 N90 N 0.92380 0.66199 0.36256
 C91 C 0.94853 0.67833 0.35394
 C92 C 0.95204 0.70215 0.37436
 C93 C 0.92857 0.69916 0.39520
 H94 H 0.96295 0.67335 0.33441
 H95 H 0.92401 0.71380 0.41465
 Cu96 Cu 0.90579 0.62547 0.34451
 Cu97 Cu 0.87566 0.65787 0.40735
 Cu98 Cu 0.84343 0.59270 0.37507
 N99 N 0.88776 0.58895 0.32646
 N100 N 0.86334 0.57620 0.33865
 C101 C 0.85555 0.55137 0.32209
 C102 C 0.87621 0.54853 0.29843
 C103 C 0.89637 0.57260 0.30170
 H104 H 0.83635 0.53650 0.32690
 H105 H 0.91577 0.57770 0.28717
 N106 N 0.82666 0.61287 0.41188
 N107 N 0.83895 0.63766 0.42418
 C108 C 0.82232 0.64592 0.44884
 C109 C 0.79863 0.62535 0.45205
 C110 C 0.80190 0.60474 0.42840
 H111 H 0.82701 0.66540 0.46339
 H112 H 0.78730 0.58531 0.42365
 H113 H 0.88198 0.61302 0.39346
 H114 H 0.85710 0.63761 0.36898
 N115 N 0.58890 0.32606 -0.11233
 N116 N 0.57688 0.33867 -0.13691
 C117 C 0.55209 0.32238 -0.14538
 C118 C 0.54856 0.29852 -0.12497
 C119 C 0.57217 0.30141 -0.10431
 H120 H 0.53765 0.32742 -0.16482
 H121 H 0.57683 0.28666 -0.08497
 Cu122 Cu 0.59501 0.37506 -0.15535
 Cu123 Cu 0.62533 0.34248 -0.09259
 Cu124 Cu 0.65802 0.40719 -0.12530
 N125 N 0.61343 0.41146 -0.17349
 N126 N 0.63817 0.42386 -0.16163
 C127 C 0.64616 0.44855 -0.17836
 C128 C 0.62535 0.45165 -0.20183
 C129 C 0.60489 0.42786 -0.19822
 H130 H 0.66563 0.46315 -0.17382
 H131 H 0.58529 0.42298 -0.21250
 N132 N 0.67474 0.38703 -0.08850
 N133 N 0.66223 0.36245 -0.07600
 C134 C 0.67872 0.35426 -0.05126
 C135 C 0.70256 0.37465 -0.04821
 C136 C 0.69951 0.39511 -0.07202
 H137 H 0.67382 0.33496 -0.03651
 H138 H 0.71425 0.41442 -0.07688
 H139 H 0.61932 0.38729 -0.10663
 H140 H 0.64375 0.36236 -0.13130
 C141 C -0.07964 0.32945 0.12548
 C142 C -0.06026 0.30977 0.12561
 C143 C -0.03756 0.28675 0.12577
 C144 C -0.01814 0.26713 0.12587
 C145 C 0.00468 0.24423 0.12595
 C146 C 0.02427 0.22478 0.12595
 C147 C 0.57900 0.67055 0.62566
 C148 C 0.55952 0.69016 0.62555
 C149 C 0.53671 0.71313 0.62538
 C150 C 0.51723 0.73273 0.62521
 C151 C 0.49437 0.75566 0.62501
 C152 C 0.47482 0.77518 0.62482
 C153 C 1.07943 0.82958 0.37456
 C154 C 1.05995 0.81005 0.37439
 C155 C 1.03715 0.78719 0.37418
 C156 C 1.01767 0.76767 0.37404
 C157 C 0.99485 0.74483 0.37399
 C158 C 0.97534 0.72533 0.37408
 C159 C 0.42084 0.17106 -0.12508
 C160 C 0.44032 0.19062 -0.12513
 C161 C 0.46317 0.21352 -0.12521
 C162 C 0.48269 0.23305 -0.12526
 C163 C 0.50558 0.25590 -0.12526
 C164 C 0.52516 0.27537 -0.12518
 C165 C 0.12387 -0.07942 0.32890
 C166 C 0.12370 -0.05985 0.30945
 C167 C 0.12348 -0.03695 0.28670
 C168 C 0.12335 -0.01737 0.26727
 C169 C 0.12333 0.00556 0.24454
 C170 C 0.12347 0.02515 0.22512
 C171 C 0.62498 0.57947 -0.32958
 C172 C 0.62492 0.55986 -0.31007
 C173 C 0.62486 0.53691 -0.28721
 C174 C 0.62485 0.51733 -0.26769
 C175 C 0.62493 0.49441 -0.24479
 C176 C 0.62507 0.47489 -0.22521
 C177 C 0.37489 1.07889 0.82901
 C178 C 0.37489 1.05935 0.80950
 C179 C 0.37489 1.03648 0.78664
 C180 C 0.37490 1.01697 0.76710
 C181 C 0.37489 0.99415 0.74419
 C182 C 0.37483 0.97469 0.72460
 C183 C 0.87607 0.42081 0.17102
 C184 C 0.87623 0.44043 0.19046
 C185 C 0.87643 0.46336 0.21325
 C186 C 0.87655 0.48292 0.23273
 C187 C 0.87658 0.50581 0.25556
 C188 C 0.87649 0.52533 0.27509
 C189 C 0.32892 0.12492 -0.07902
 C190 C 0.30938 0.12487 -0.05954
 C191 C 0.28651 0.12483 -0.03672
 C192 C 0.26699 0.12482 -0.01723
 C193 C 0.24413 0.12483 0.00559
 C194 C 0.22462 0.12486 0.02509
 C195 C 0.67109 0.62464 0.57969
 C196 C 0.69059 0.62481 0.56014
 C197 C 0.71343 0.62503 0.53723
 C198 C 0.73293 0.62519 0.51769
 C199 C 0.75579 0.62533 0.49481
 C200 C 0.77533 0.62538 0.47529
 C201 C 0.82985 0.37453 0.07934
 C202 C 0.81036 0.37451 0.05984
 C203 C 0.78754 0.37451 0.03698
 C204 C 0.76807 0.37453 0.01746
 C205 C 0.74526 0.37456 -0.00541
 C206 C 0.72578 0.37461 -0.02494
 C207 C 0.16999 0.87451 0.42058
 C208 C 0.18954 0.87461 0.44001
 C209 C 0.21244 0.87476 0.46273
 C210 C 0.23199 0.87487 0.48213
 C211 C 0.25487 0.87496 0.50488
 C212 C 0.27438 0.87499 0.52433
   
