data_POSCAR
  _audit_creation_date              2014-09-24
  _audit_creation_method            'ToBaCCo'
  _symmetry_space_group_name_H-M    'P1'
  _symmetry_Int_Tables_number       1
  _symmetry_cell_setting            triclinic
  loop_
  _symmetry_equiv_pos_as_xyz
 x,y,z
_cell_length_a 36.2163
_cell_length_b 36.2096
_cell_length_c 36.2301
_cell_angle_alpha 89.999500
_cell_angle_beta 90.093400
_cell_angle_gamma 89.885400
loop_
  _atom_site_label
  _atom_site_type_symbol
  _atom_site_fract_x
  _atom_site_fract_y
  _atom_site_fract_z
C1 C 0.26685 1.07420 0.03077
 C2 C 0.26168 1.09376 -0.00228
 C3 C 0.25300 1.07676 -0.03618
 C4 C 0.24825 1.03761 -0.03649
 C5 C 0.25593 1.01686 -0.00394
 C6 C 0.26651 1.03512 0.02926
 C7 C 0.27844 1.01361 0.05927
 C8 C 0.27445 0.97566 0.05914
 C9 C 0.25927 0.95738 0.02860
 C10 C 0.25250 0.97760 -0.00426
 C11 C 0.23364 1.01863 -0.06710
 C12 C 0.23068 0.98031 -0.06744
 C13 C 0.24195 0.95877 -0.03712
 C14 C 0.24070 0.91927 -0.03751
 C15 C 0.24356 0.90075 -0.00319
 C16 C 0.25196 0.91922 0.02980
 H17 H 0.29203 1.02551 0.08296
 H18 H 0.28433 0.96079 0.08308
 H19 H 0.22246 1.03288 -0.09071
 H20 H 0.21730 0.96829 -0.09116
 H21 H 0.26396 1.12353 -0.00140
 H22 H 0.24014 0.87107 -0.00184
 C23 C 0.74596 0.41607 0.46672
 C24 C 0.74518 0.39809 0.50117
 C25 C 0.74612 0.41767 0.53461
 C26 C 0.74862 0.45662 0.53382
 C27 C 0.74940 0.47547 0.49946
 C28 C 0.74760 0.45529 0.46584
 C29 C 0.74692 0.47510 0.43245
 C30 C 0.75065 0.51322 0.43174
 C31 C 0.75267 0.53382 0.46448
 C32 C 0.75209 0.51473 0.49879
 C33 C 0.75105 0.47725 0.56656
 C34 C 0.75247 0.51537 0.56592
 C35 C 0.75405 0.53478 0.53248
 C36 C 0.75685 0.57370 0.53169
 C37 C 0.75766 0.59182 0.49771
 C38 C 0.75559 0.57286 0.46415
 H39 H 0.74317 0.46183 0.40612
 H40 H 0.75198 0.52598 0.40491
 H41 H 0.75212 0.46452 0.59343
 H42 H 0.75223 0.52903 0.59233
 H43 H 0.74399 0.36818 0.50205
 H44 H 0.75961 0.62172 0.49744
 C45 C 0.75113 0.96256 1.07634
 C46 C 0.75444 0.99597 1.09531
 C47 C 0.75719 1.03023 1.07726
 C48 C 0.75940 1.03026 1.03805
 C49 C 0.75410 0.99682 1.01809
 C50 C 0.75015 0.96287 1.03733
 C51 C 0.74542 0.93030 1.01700
 C52 C 0.74650 0.93048 0.97877
 C53 C 0.74980 0.96361 0.95877
 C54 C 0.75351 0.99726 0.97870
 C55 C 0.76999 1.06178 1.01821
 C56 C 0.76953 1.06221 0.98000
 C57 C 0.75822 1.03123 0.95953
 C58 C 0.75482 1.03231 0.92040
 C59 C 0.75284 0.99830 0.90141
 C60 C 0.75099 0.96410 0.91962
 H61 H 0.74094 0.90397 1.03018
 H62 H 0.74480 0.90390 0.96569
 H63 H 0.78082 1.08605 1.03163
 H64 H 0.78038 1.08669 0.96707
 H65 H 0.75409 0.99496 1.12520
 H66 H 0.75175 0.99807 0.87152
 C67 C 0.24152 0.46552 0.57428
 C68 C 0.24322 0.49985 0.59211
 C69 C 0.24584 0.53312 0.57270
 C70 C 0.24780 0.53225 0.53371
 C71 C 0.24539 0.49788 0.51483
 C72 C 0.24140 0.46450 0.53510
 C73 C 0.23550 0.43152 0.51553
 C74 C 0.23630 0.43070 0.47715
 C75 C 0.24297 0.46282 0.45644
 C76 C 0.24582 0.49706 0.47548
 C77 C 0.25110 0.56478 0.51296
 C78 C 0.25282 0.56382 0.47487
 C79 C 0.24865 0.53060 0.45536
 C80 C 0.24769 0.53005 0.41634
 C81 C 0.24706 0.49588 0.39807
 C82 C 0.24528 0.46210 0.41727
 H83 H 0.22898 0.40600 0.52942
 H84 H 0.23029 0.40459 0.46413
 H85 H 0.25236 0.59172 0.52542
 H86 H 0.25778 0.58980 0.46124
 H87 H 0.24293 0.50082 0.62202
 H88 H 0.24783 0.49567 0.36817
 C89 C 0.91720 0.24229 -0.02813
 C90 C 0.89942 0.24251 0.00653
 C91 C 0.91871 0.23944 0.04007
 C92 C 0.95776 0.23711 0.03936
 C93 C 0.97666 0.23760 0.00506
 C94 C 0.95629 0.23743 -0.02860
 C95 C 0.97548 0.22856 -0.06111
 C96 C 1.01360 0.22718 -0.06194
 C97 C 1.03471 0.23408 -0.03019
 C98 C 1.01611 0.23606 0.00433
 C99 C 0.97836 0.23134 0.07168
 C100 C 1.01664 0.22988 0.07101
 C101 C 1.03657 0.23460 0.03802
 C102 C 1.07602 0.23476 0.03701
 C103 C 1.09318 0.23453 0.00216
 C104 C 1.07380 0.23506 -0.03145
 H105 H 0.96168 0.22015 -0.08607
 H106 H 1.02593 0.21839 -0.08756
 H107 H 0.96535 0.22640 0.09796
 H108 H 1.02965 0.22295 0.09679
 H109 H 0.86970 0.24575 0.00783
 H110 H 1.12297 0.23617 0.00108
 C111 C 0.57461 0.75240 0.53459
 C112 C 0.59256 0.74952 0.50048
 C113 C 0.57314 0.74582 0.46726
 C114 C 0.53417 0.74440 0.46808
 C115 C 0.51523 0.74911 0.50208
 C116 C 0.53547 0.75291 0.53548
 C117 C 0.51591 0.75745 0.56859
 C118 C 0.47762 0.75614 0.56938
 C119 C 0.45677 0.75294 0.53677
 C120 C 0.47590 0.74966 0.50266
 C121 C 0.51364 0.73669 0.43616
 C122 C 0.47542 0.73728 0.43670
 C123 C 0.45593 0.74579 0.46913
 C124 C 0.41698 0.74857 0.46925
 C125 C 0.39851 0.75051 0.50326
 C126 C 0.41754 0.75184 0.53711
 H127 H 0.52965 0.76225 0.59456
 H128 H 0.46515 0.75792 0.59623
 H129 H 0.52672 0.72913 0.41048
 H130 H 0.46155 0.72967 0.41144
 H131 H 0.62249 0.74995 0.49978
 H132 H 0.36858 0.75126 0.50344
 C133 C -0.03489 0.75957 0.08358
 C134 C 0.00027 0.75990 0.10083
 C135 C 0.03335 0.76089 0.08090
 C136 C 0.03214 0.76132 0.04205
 C137 C -0.00228 0.76036 0.02336
 C138 C -0.03599 0.76046 0.04386
 C139 C -0.06919 0.76285 0.02355
 C140 C -0.06979 0.76073 -0.01465
 C141 C -0.03715 0.75928 -0.03519
 C142 C -0.00284 0.75950 -0.01615
 C143 C 0.06477 0.76268 0.02134
 C144 C 0.06408 0.76322 -0.01669
 C145 C 0.03097 0.75908 -0.03645
 C146 C 0.03025 0.75643 -0.07575
 C147 C -0.00433 0.75696 -0.09338
 C148 C -0.03770 0.75786 -0.07421
 H149 H -0.09568 0.76754 0.03582
 H150 H -0.09660 0.76073 -0.02760
 H151 H 0.09171 0.76376 0.03397
 H152 H 0.09027 0.76819 -0.02962
 H153 H 0.00246 0.75864 0.13065
 H154 H -0.00575 0.75558 -0.12323
 C155 C 0.53064 0.24710 0.42872
 C156 C 0.49689 0.24674 0.41007
 C157 C 0.46301 0.24881 0.42849
 C158 C 0.46286 0.25152 0.46760
 C159 C 0.49695 0.25181 0.48719
 C160 C 0.53090 0.24980 0.46761
 C161 C 0.56413 0.25122 0.48746
 C162 C 0.56435 0.25229 0.52556
 C163 C 0.53138 0.25454 0.54578
 C164 C 0.49719 0.25413 0.52649
 C165 C 0.42989 0.25357 0.48782
 C166 C 0.43018 0.25693 0.52601
 C167 C 0.46334 0.25589 0.54627
 C168 C 0.46383 0.25712 0.58554
 C169 C 0.49815 0.25739 0.60390
 C170 C 0.53179 0.25648 0.58474
 H171 H 0.59070 0.25164 0.47414
 H172 H 0.59109 0.25110 0.53859
 H173 H 0.40319 0.25256 0.47472
 H174 H 0.40371 0.26066 0.53897
 H175 H 0.49710 0.24489 0.38019
 H176 H 0.49878 0.25815 0.63382
 C177 C 0.92567 -0.03239 0.24963
 C178 C 0.90798 0.00196 0.25380
 C179 C 0.92708 0.03543 0.25420
 C180 C 0.96602 0.03502 0.25155
 C181 C 0.98479 0.00096 0.24618
 C182 C 0.96439 -0.03249 0.24310
 C183 C 0.98302 -0.06401 0.23033
 C184 C 1.02106 -0.06448 0.22680
 C185 C 1.04257 -0.03362 0.23628
 C186 C 1.02406 0.00038 0.24303
 C187 C 0.98671 0.06759 0.25391
 C188 C 1.02475 0.06719 0.24967
 C189 C 1.04438 0.03391 0.24526
 C190 C 1.08342 0.03314 0.24158
 C191 C 1.10116 -0.00113 0.23719
 C192 C 1.08181 -0.03494 0.23594
 H193 H 0.96859 -0.08820 0.22076
 H194 H 1.03288 -0.08894 0.21458
 H195 H 0.97395 0.09404 0.25909
 H196 H 1.03795 0.09376 0.24952
 H197 H 0.87828 0.00304 0.25706
 H198 H 1.13106 -0.00127 0.23620
 C199 C 0.42430 0.47281 0.75196
 C200 C 0.40617 0.50689 0.75191
 C201 C 0.42500 0.54035 0.74773
 C202 C 0.46413 0.53991 0.74555
 C203 C 0.48324 0.50558 0.74705
 C204 C 0.46312 0.47194 0.74843
 C205 C 0.48221 0.43854 0.74389
 C206 C 0.52033 0.43771 0.74202
 C207 C 0.54124 0.47021 0.74489
 C208 C 0.52254 0.50472 0.74549
 C209 C 0.48464 0.57223 0.73976
 C210 C 0.52302 0.57139 0.73843
 C211 C 0.54282 0.53820 0.74305
 C212 C 0.58211 0.53712 0.74312
 C213 C 0.59994 0.50248 0.74393
 C214 C 0.58023 0.46911 0.74487
 H215 H 0.46814 0.41254 0.74046
 H216 H 0.53288 0.41109 0.73721
 H217 H 0.47146 0.59860 0.73524
 H218 H 0.53656 0.59716 0.73239
 H219 H 0.37637 0.50735 0.75488
 H220 H 0.62985 0.50137 0.74428
 C221 C 1.03446 0.92722 0.74015
 C222 C 0.99976 0.90977 0.74105
 C223 C 0.96703 0.92891 0.74788
 C224 C 0.96837 0.96733 0.75424
 C225 C 1.00232 0.98652 0.75011
 C226 C 1.03531 0.96661 0.74215
 C227 C 1.06707 0.98699 0.73328
 C228 C 1.06770 1.02526 0.73599
 C229 C 1.03661 1.04544 0.74774
 C230 C 1.00286 1.02592 0.75252
 C231 C 0.93665 0.98729 0.76382
 C232 C 0.93763 1.02516 0.76779
 C233 C 0.96936 1.04552 0.75890
 C234 C 0.96885 1.08472 0.75741
 C235 C 1.00304 1.10315 0.75580
 C236 C 1.03728 1.08462 0.75213
 H237 H 1.09138 0.97410 0.72189
 H238 H 1.09247 1.03855 0.72638
 H239 H 0.91038 0.97435 0.76866
 H240 H 0.91299 1.03779 0.77868
 H241 H 0.99781 0.88005 0.73801
 H242 H 1.00286 1.13301 0.75703
 C243 C 0.53638 0.42314 0.24406
 C244 C 0.50224 0.40516 0.24613
 C245 C 0.46890 0.42447 0.24889
 C246 C 0.46954 0.46348 0.25070
 C247 C 0.50378 0.48247 0.24790
 C248 C 0.53721 0.46229 0.24373
 C249 C 0.57007 0.48189 0.23747
 C250 C 0.57072 0.52027 0.23810
 C251 C 0.53853 0.54091 0.24486
 C252 C 0.50442 0.52181 0.24806
 C253 C 0.43694 0.48415 0.25423
 C254 C 0.43773 0.52229 0.25560
 C255 C 0.47082 0.54185 0.25094
 C256 C 0.47119 0.58086 0.24949
 C257 C 0.50526 0.59925 0.24856
 C258 C 0.53908 0.58008 0.24686
 H259 H 0.59560 0.46801 0.23083
 H260 H 0.59672 0.53335 0.23187
 H261 H 0.41010 0.47157 0.25594
 H262 H 0.41174 0.53594 0.26069
 H263 H 0.50148 0.37522 0.24596
 H264 H 0.50534 0.62918 0.24897
 O265 O 0.26449 0.15252 0.18961
 O266 O 0.30739 0.14636 0.24365
 O267 O 0.16631 0.19152 0.24423
 O268 O 0.15077 0.24048 0.28055
 O269 O 0.20911 0.24559 0.14656
 O270 O 0.25863 0.29127 0.13835
 O271 O 0.25703 0.30164 0.33695
 O272 O 0.21470 0.24862 0.34590
 O273 O 0.35342 0.24754 0.29471
 O274 O 0.36089 0.20343 0.23710
 O275 O 0.30988 0.34278 0.24632
 O276 O 0.25647 0.35064 0.19774
 O277 O 0.25448 0.34420 0.29092
 O278 O 0.21976 0.35623 0.23976
 O279 O 0.35416 0.29821 0.24324
 O280 O 0.37073 0.25064 0.20846
 O281 O 0.30922 0.25295 0.33891
 O282 O 0.26366 0.21160 0.35240
 O283 O 0.26458 0.19839 0.14668
 O284 O 0.29922 0.25108 0.13488
 O285 O 0.16372 0.24373 0.18990
 O286 O 0.15231 0.28573 0.24077
 O287 O 0.21262 0.14916 0.23868
 O288 O 0.25848 0.14059 0.28265
 Zr289 Zr 0.26038 0.18130 0.24068
 O290 O 0.29238 0.21395 0.27679
 Zr291 Zr 0.19309 0.24373 0.24048
 O292 O 0.22357 0.28024 0.27455
 Zr293 Zr 0.25861 0.24706 0.17653
 O294 O 0.29278 0.28108 0.20825
 Zr295 Zr 0.25957 0.25010 0.30862
 O296 O 0.22682 0.21299 0.27667
 Zr297 Zr 0.32482 0.24893 0.24438
 O298 O 0.29502 0.21461 0.20819
 Zr299 Zr 0.25930 0.31332 0.24267
 O300 O 0.22437 0.28110 0.20846
 O301 O 0.22542 0.21114 0.20631
 O302 O 0.29413 0.28425 0.27821
 C303 C 0.26639 0.16439 0.15611
 C304 C 0.17850 0.15803 0.24179
 C305 C 0.17506 0.24453 0.15626
 C306 C 0.25445 0.33515 0.32503
 C307 C 0.34296 0.25007 0.32840
 C308 C 0.34376 0.33191 0.24488
 H309 H 0.30753 0.19752 0.29254
 H310 H 0.30830 0.29617 0.19168
 H311 H 0.21069 0.19473 0.19019
 H312 H 0.20616 0.29533 0.28921
 H313 H 0.19960 0.22681 0.33924
 H314 H 0.15822 0.25617 0.30162
 H315 H 0.36161 0.26023 0.18456
 H316 H 0.32076 0.23663 0.14361
 H317 H 0.26830 0.18723 0.34107
 H318 H 0.23969 0.14869 0.30077
 H319 H 0.28109 0.35158 0.18598
 H320 H 0.23759 0.30750 0.14481
 H321 H 0.30036 0.12140 0.23482
 H322 H 0.36300 0.19051 0.26108
 H323 H 0.15942 0.30388 0.22163
 H324 H 0.19679 0.34650 0.25078
 O325 O 0.74731 0.85075 0.20776
 O326 O 0.70702 0.86045 0.26082
 O327 O 0.84599 0.81058 0.26323
 O328 O 0.85658 0.76299 0.30430
 O329 O 0.80848 0.75531 0.16612
 O330 O 0.75593 0.71388 0.15400
 O331 O 0.75510 0.70484 0.35353
 O332 O 0.79224 0.75860 0.36432
 O333 O 0.65566 0.75293 0.30889
 O334 O 0.64784 0.79959 0.25452
 O335 O 0.69920 0.66116 0.25746
 O336 O 0.75612 0.65166 0.21587
 O337 O 0.74840 0.66045 0.30961
 O338 O 0.78989 0.64694 0.26007
 O339 O 0.65587 0.70655 0.25425
 O340 O 0.64326 0.75695 0.21866
 O341 O 0.70016 0.74758 0.35291
 O342 O 0.74001 0.79299 0.36745
 O343 O 0.75529 0.80743 0.16293
 O344 O 0.71694 0.75609 0.14955
 O345 O 0.85015 0.75861 0.21305
 O346 O 0.85844 0.71718 0.26273
 O347 O 0.79949 0.85277 0.25929
 O348 O 0.74838 0.86440 0.29810
 Zr349 Zr 0.75103 0.82205 0.25794
 O350 O 0.71721 0.79010 0.29225
 Zr351 Zr 0.81784 0.75927 0.26064
 O352 O 0.78571 0.72288 0.29259
 Zr353 Zr 0.75608 0.75744 0.19287
 O354 O 0.71969 0.72355 0.22333
 Zr355 Zr 0.74951 0.75447 0.32461
 O356 O 0.78367 0.79123 0.29509
 Zr357 Zr 0.68583 0.75525 0.25861
 O358 O 0.71781 0.78931 0.22362
 Zr359 Zr 0.75049 0.69014 0.25949
 O360 O 0.78744 0.72237 0.22698
 O361 O 0.78771 0.79260 0.22494
 O362 O 0.71534 0.72007 0.29348
 C363 C 0.75020 0.84082 0.17388
 C364 C 0.83365 0.84397 0.26173
 C365 C 0.84185 0.75634 0.17878
 C366 C 0.75232 0.67111 0.34322
 C367 C 0.66642 0.74883 0.34257
 C368 C 0.66551 0.67259 0.25461
 H369 H 0.70169 0.80627 0.30788
 H370 H 0.70487 0.70880 0.20579
 H371 H 0.80351 0.80862 0.20950
 H372 H 0.80248 0.70765 0.30784
 H373 H 0.80660 0.78111 0.35847
 H374 H 0.84886 0.74559 0.32385
 H375 H 0.65364 0.74642 0.19572
 H376 H 0.69642 0.77252 0.15710
 H377 H 0.74637 0.81746 0.35734
 H378 H 0.76725 0.85869 0.31706
 H379 H 0.73440 0.65441 0.19950
 H380 H 0.77471 0.69581 0.16237
 H381 H 0.68919 0.85368 0.24124
 H382 H 0.64709 0.81237 0.27865
 H383 H 0.85003 0.69737 0.24589
 H384 H 0.81081 0.65524 0.27553
 O385 O 0.75185 0.15324 0.79937
 O386 O 0.71903 0.13942 0.74901
 O387 O 0.84821 0.20736 0.75733
 O388 O 0.86063 0.25785 0.72321
 O389 O 0.79325 0.25140 0.85290
 O390 O 0.74281 0.28316 0.86557
 O391 O 0.75212 0.29945 0.65720
 O392 O 0.78536 0.25055 0.64341
 O393 O 0.65289 0.24782 0.70445
 O394 O 0.63842 0.21484 0.75295
 O395 O 0.69953 0.34794 0.74892
 O396 O 0.74259 0.35826 0.79310
 O397 O 0.74571 0.34523 0.69964
 O398 O 0.79299 0.35382 0.75099
 O399 O 0.65452 0.30417 0.75013
 O400 O 0.64649 0.24809 0.79785
 O401 O 0.69610 0.25482 0.65959
 O402 O 0.75154 0.20590 0.65194
 O403 O 0.74647 0.19440 0.84645
 O404 O 0.69934 0.24786 0.85376
 O405 O 0.84083 0.25534 0.81223
 O406 O 0.84906 0.30121 0.75894
 O407 O 0.80767 0.15980 0.75186
 O408 O 0.75437 0.15051 0.70579
 Zr409 Zr 0.75439 0.18562 0.75249
 O410 O 0.71654 0.21630 0.72056
 Zr411 Zr 0.81489 0.25387 0.75908
 O412 O 0.78337 0.28464 0.72102
 Zr413 Zr 0.74678 0.24737 0.81975
 O414 O 0.71504 0.28444 0.78767
 Zr415 Zr 0.74803 0.25171 0.68810
 O416 O 0.78642 0.22065 0.71987
 Zr417 Zr 0.68315 0.25214 0.75258
 O418 O 0.71471 0.21454 0.78476
 Zr419 Zr 0.74738 0.31723 0.75176
 O420 O 0.77926 0.28660 0.79049
 O421 O 0.78478 0.21640 0.79007
 O422 O 0.71302 0.28637 0.71754
 C423 C 0.74868 0.16112 0.83353
 C424 C 0.84074 0.17308 0.75413
 C425 C 0.82756 0.25401 0.84534
 C426 C 0.74916 0.33334 0.66614
 C427 C 0.66237 0.25123 0.67080
 C428 C 0.66579 0.33808 0.74839
 H429 H 0.70141 0.19918 0.70561
 H430 H 0.69972 0.30012 0.80397
 H431 H 0.80064 0.20090 0.80610
 H432 H 0.80027 0.29976 0.70582
 H433 H 0.80999 0.25557 0.65407
 H434 H 0.85263 0.24684 0.69953
 H435 H 0.64273 0.27320 0.80798
 H436 H 0.68660 0.22395 0.85017
 H437 H 0.72626 0.19648 0.64773
 H438 H 0.77768 0.15502 0.69229
 H439 H 0.76121 0.35216 0.81218
 H440 H 0.74498 0.30845 0.85552
 H441 H 0.69482 0.14776 0.75853
 H442 H 0.64924 0.19009 0.74878
 H443 H 0.84347 0.31527 0.78170
 H444 H 0.78373 0.37847 0.74340
 O445 O 0.23900 0.83904 0.80362
 O446 O 0.28189 0.85002 0.75148
 O447 O 0.14512 0.79539 0.74163
 O448 O 0.13209 0.74720 0.70675
 O449 O 0.18533 0.74155 0.84213
 O450 O 0.23872 0.69953 0.85175
 O451 O 0.24332 0.69321 0.65300
 O452 O 0.19813 0.74441 0.64369
 O453 O 0.33568 0.74709 0.69699
 O454 O 0.34371 0.78905 0.75377
 O455 O 0.29211 0.65093 0.74398
 O456 O 0.23983 0.63964 0.78996
 O457 O 0.23988 0.64947 0.69793
 O458 O 0.20203 0.63651 0.74933
 O459 O 0.33655 0.69505 0.74824
 O460 O 0.34899 0.74493 0.78745
 O461 O 0.29115 0.74227 0.65296
 O462 O 0.24768 0.78416 0.64044
 O463 O 0.23670 0.79257 0.84582
 O464 O 0.27681 0.74305 0.85687
 O465 O 0.14323 0.74545 0.79559
 O466 O 0.13583 0.70180 0.74509
 O467 O 0.18790 0.84071 0.74920
 O468 O 0.24111 0.85460 0.71261
 Zr469 Zr 0.23833 0.81120 0.75158
 O470 O 0.27279 0.78008 0.71597
 Zr471 Zr 0.17425 0.74580 0.74725
 O472 O 0.20637 0.71131 0.71373
 Zr473 Zr 0.23680 0.74435 0.81435
 O474 O 0.27329 0.71185 0.78282
 Zr475 Zr 0.24198 0.74395 0.68234
 O476 O 0.20722 0.77944 0.71339
 Zr477 Zr 0.30608 0.74478 0.74780
 O478 O 0.27351 0.77787 0.78388
 Zr479 Zr 0.24166 0.67928 0.74700
 O480 O 0.20506 0.70956 0.78072
 O481 O 0.20327 0.77944 0.78359
 O482 O 0.27659 0.70976 0.71297
 C483 C 0.23810 0.82682 0.83714
 C484 C 0.15464 0.82941 0.74397
 C485 C 0.15198 0.74317 0.82975
 C486 C 0.24159 0.65946 0.66415
 C487 C 0.32484 0.74476 0.66311
 C488 C 0.32593 0.66131 0.74560
 H489 H 0.28753 0.79717 0.70064
 H490 H 0.28872 0.69668 0.79950
 H491 H 0.18695 0.79513 0.79890
 H492 H 0.18997 0.69612 0.69805
 H493 H 0.18259 0.76618 0.64952
 H494 H 0.14128 0.73377 0.68484
 H495 H 0.33958 0.73189 0.80948
 H496 H 0.29725 0.75921 0.84871
 H497 H 0.23713 0.80721 0.65050
 H498 H 0.22295 0.84894 0.69300
 H499 H 0.26303 0.64135 0.80430
 H500 H 0.21937 0.68192 0.84391
 H501 H 0.29907 0.84268 0.77147
 H502 H 0.34097 0.80526 0.73195
 H503 H 0.14221 0.68456 0.76535
 H504 H 0.18109 0.64401 0.73343
 O505 O 0.24235 0.35509 0.70788
 O506 O 0.20364 0.36519 0.76171
 O507 O 0.34209 0.31554 0.76424
 O508 O 0.35448 0.26714 0.80312
 O509 O 0.30384 0.25878 0.66628
 O510 O 0.25075 0.21799 0.65484
 O511 O 0.24874 0.20982 0.85451
 O512 O 0.29095 0.26168 0.86395
 O513 O 0.15292 0.25622 0.81104
 O514 O 0.14374 0.30350 0.75768
 O515 O 0.19620 0.16538 0.76000
 O516 O 0.25242 0.15622 0.71698
 O517 O 0.24743 0.16474 0.81083
 O518 O 0.28732 0.15187 0.76072
 O519 O 0.15291 0.21085 0.75773
 O520 O 0.14008 0.26165 0.72035
 O521 O 0.19820 0.25547 0.85454
 O522 O 0.24024 0.29877 0.86814
 O523 O 0.25036 0.31153 0.66329
 O524 O 0.21192 0.26002 0.65091
 O525 O 0.34603 0.26480 0.71250
 O526 O 0.35501 0.22184 0.76144
 O527 O 0.29598 0.35778 0.75706
 O528 O 0.24617 0.36918 0.79838
 Zr529 Zr 0.24760 0.32680 0.75818
 O530 O 0.21429 0.29503 0.79322
 Zr531 Zr 0.31445 0.26405 0.76057
 O532 O 0.28288 0.22776 0.79331
 Zr533 Zr 0.25173 0.26164 0.69360
 O534 O 0.21595 0.22778 0.72489
 Zr535 Zr 0.24710 0.25967 0.82534
 O536 O 0.28078 0.29627 0.79515
 Zr537 Zr 0.18254 0.25974 0.76042
 O538 O 0.21390 0.29366 0.72472
 Zr539 Zr 0.24748 0.19465 0.76074
 O540 O 0.28374 0.22689 0.72748
 O541 O 0.28379 0.29705 0.72495
 O542 O 0.21277 0.22492 0.79493
 C543 C 0.24498 0.34499 0.67403
 C544 C 0.33000 0.34887 0.76077
 C545 C 0.33731 0.26125 0.67845
 C546 C 0.24807 0.17583 0.84454
 C547 C 0.16435 0.25401 0.84469
 C548 C 0.16243 0.17686 0.75828
 H549 H 0.19900 0.31127 0.80898
 H550 H 0.20088 0.21280 0.70776
 H551 H 0.29924 0.31302 0.70910
 H552 H 0.29952 0.21264 0.80883
 H553 H 0.30569 0.28397 0.85819
 H554 H 0.34732 0.24957 0.82273
 H555 H 0.14945 0.24869 0.69823
 H556 H 0.19131 0.27612 0.65892
 H557 H 0.24548 0.32313 0.85716
 H558 H 0.26627 0.36404 0.81622
 H559 H 0.23001 0.15829 0.70147
 H560 H 0.26942 0.19976 0.66306
 H561 H 0.18495 0.35759 0.74328
 H562 H 0.14350 0.31617 0.78187
 H563 H 0.34710 0.20293 0.74336
 H564 H 0.30897 0.16106 0.77457
 O565 O 0.76253 0.65814 0.68788
 O566 O 0.80568 0.65131 0.74179
 O567 O 0.66450 0.69612 0.74360
 O568 O 0.64918 0.74511 0.78035
 O569 O 0.70665 0.75654 0.64642
 O570 O 0.75946 0.79553 0.63648
 O571 O 0.75369 0.80522 0.83645
 O572 O 0.71325 0.75106 0.84517
 O573 O 0.85169 0.75234 0.79336
 O574 O 0.85941 0.70842 0.73593
 O575 O 0.80807 0.84748 0.74437
 O576 O 0.75356 0.85660 0.69857
 O577 O 0.75784 0.84845 0.79117
 O578 O 0.71725 0.86044 0.74151
 O579 O 0.85247 0.80296 0.74218
 O580 O 0.86813 0.75574 0.70622
 O581 O 0.80760 0.75808 0.83766
 O582 O 0.76336 0.71557 0.85118
 O583 O 0.75646 0.70364 0.64490
 O584 O 0.79810 0.75328 0.63479
 O585 O 0.66174 0.74863 0.68958
 O586 O 0.65034 0.79037 0.74061
 O587 O 0.71087 0.65392 0.73741
 O588 O 0.75718 0.64476 0.78058
 Zr589 Zr 0.75854 0.68613 0.73924
 O590 O 0.79068 0.71845 0.77542
 Zr591 Zr 0.69123 0.74851 0.74004
 O592 O 0.72187 0.78487 0.77422
 Zr593 Zr 0.75641 0.75227 0.67558
 O594 O 0.79070 0.78614 0.70735
 Zr595 Zr 0.75786 0.75418 0.80767
 O596 O 0.72507 0.71732 0.77569
 Zr597 Zr 0.82298 0.75367 0.74303
 O598 O 0.79298 0.71950 0.70674
 Zr599 Zr 0.75754 0.81807 0.74235
 O600 O 0.72250 0.78612 0.70809
 O601 O 0.72323 0.71631 0.70540
 O602 O 0.79235 0.78849 0.77733
 C603 C 0.75997 0.66977 0.65437
 C604 C 0.67674 0.66262 0.74095
 C605 C 0.67278 0.75356 0.65619
 C606 C 0.75550 0.83891 0.82505
 C607 C 0.84131 0.75525 0.82706
 C608 C 0.84192 0.83666 0.74335
 H609 H 0.80590 0.70199 0.79106
 H610 H 0.80610 0.80134 0.69075
 H611 H 0.70773 0.70050 0.68940
 H612 H 0.70471 0.79989 0.78922
 H613 H 0.69856 0.72906 0.83826
 H614 H 0.65696 0.76042 0.80158
 H615 H 0.85811 0.76389 0.68214
 H616 H 0.81721 0.73531 0.64260
 H617 H 0.76595 0.69103 0.83959
 H618 H 0.73852 0.65248 0.79899
 H619 H 0.77724 0.85630 0.68498
 H620 H 0.74132 0.81450 0.64416
 H621 H 0.79887 0.62655 0.73223
 H622 H 0.86123 0.69527 0.75982
 H623 H 0.65833 0.80943 0.72275
 H624 H 0.69568 0.85135 0.75548
 O625 O 0.25441 0.65061 0.29308
 O626 O 0.21898 0.63789 0.24327
 O627 O 0.34982 0.70345 0.25356
 O628 O 0.36300 0.75269 0.21711
 O629 O 0.29459 0.74666 0.34672
 O630 O 0.24543 0.78111 0.35878
 O631 O 0.25552 0.79715 0.15071
 O632 O 0.28923 0.74766 0.13751
 O633 O 0.15564 0.74700 0.19676
 O634 O 0.14050 0.71382 0.24522
 O635 O 0.20346 0.84610 0.24254
 O636 O 0.24651 0.85600 0.28640
 O637 O 0.25042 0.84315 0.19305
 O638 O 0.29709 0.85076 0.24472
 O639 O 0.15762 0.80322 0.24207
 O640 O 0.14816 0.74769 0.28998
 O641 O 0.19949 0.75329 0.15242
 O642 O 0.25414 0.70371 0.14503
 O643 O 0.24559 0.69217 0.33935
 O644 O 0.20072 0.74740 0.34675
 O645 O 0.34234 0.75287 0.30649
 O646 O 0.35250 0.79695 0.25237
 O647 O 0.30871 0.65685 0.24464
 O648 O 0.25480 0.64763 0.19961
 Zr649 Zr 0.25566 0.68309 0.24603
 O650 O 0.21870 0.71440 0.21360
 Zr651 Zr 0.31718 0.75047 0.25306
 O652 O 0.28658 0.78172 0.21468
 Zr653 Zr 0.24833 0.74514 0.31302
 O654 O 0.21757 0.78264 0.28059
 Zr655 Zr 0.25105 0.74933 0.18147
 O656 O 0.28855 0.71759 0.21365
 Zr657 Zr 0.18551 0.75080 0.24519
 O658 O 0.21610 0.71274 0.27783
 Zr659 Zr 0.25089 0.81488 0.24510
 O660 O 0.28186 0.78381 0.28416
 O661 O 0.28609 0.71360 0.28374
 O662 O 0.21635 0.78458 0.21055
 C663 C 0.24938 0.65885 0.32695
 C664 C 0.34185 0.66947 0.24890
 C665 C 0.32887 0.75023 0.33942
 C666 C 0.25349 0.83116 0.15954
 C667 C 0.16558 0.75038 0.16326
 C668 C 0.16953 0.83695 0.24118
 H669 H 0.20344 0.69754 0.19848
 H670 H 0.20236 0.79857 0.29675
 H671 H 0.30157 0.69794 0.29998
 H672 H 0.30384 0.79657 0.19962
 H673 H 0.31357 0.75348 0.14845
 H674 H 0.35523 0.74009 0.19415
 H675 H 0.14484 0.77288 0.30003
 H676 H 0.18709 0.72401 0.34302
 H677 H 0.22881 0.69434 0.14103
 H678 H 0.27781 0.65211 0.18560
 H679 H 0.26503 0.84974 0.30554
 H680 H 0.24842 0.80630 0.34868
 H681 H 0.19568 0.64638 0.25474
 H682 H 0.15110 0.68906 0.24060
 H683 H 0.34688 0.81171 0.27468
 H684 H 0.28830 0.87562 0.23727
 O685 O 0.74388 0.33411 0.30710
 O686 O 0.78445 0.34497 0.25300
 O687 O 0.64801 0.29044 0.24437
 O688 O 0.63399 0.24035 0.21245
 O689 O 0.68820 0.23723 0.34693
 O690 O 0.74270 0.19629 0.35742
 O691 O 0.74396 0.18669 0.15843
 O692 O 0.69919 0.23810 0.14924
 O693 O 0.83763 0.24092 0.20045
 O694 O 0.84613 0.28415 0.25668
 O695 O 0.79467 0.14589 0.25716
 O696 O 0.73736 0.13655 0.29723
 O697 O 0.74803 0.14422 0.20450
 O698 O 0.70664 0.12976 0.25086
 O699 O 0.83891 0.18995 0.25093
 O700 O 0.85216 0.23961 0.29064
 O701 O 0.79249 0.23519 0.15720
 O702 O 0.74888 0.27698 0.14428
 O703 O 0.73862 0.28862 0.35009
 O704 O 0.77977 0.24048 0.36154
 O705 O 0.64574 0.24291 0.30088
 O706 O 0.63813 0.19683 0.25223
 O707 O 0.69067 0.33550 0.25404
 O708 O 0.74248 0.34912 0.21591
 Zr709 Zr 0.74109 0.30601 0.25527
 O710 O 0.77503 0.27442 0.21963
 Zr711 Zr 0.67664 0.24079 0.25245
 O712 O 0.70862 0.20549 0.21950
 Zr713 Zr 0.73965 0.24028 0.31910
 O714 O 0.77619 0.20753 0.28798
 Zr715 Zr 0.74370 0.23771 0.18713
 O716 O 0.70945 0.27382 0.21788
 Zr717 Zr 0.80861 0.23968 0.25170
 O718 O 0.77639 0.27318 0.28779
 Zr719 Zr 0.74427 0.17428 0.25319
 O720 O 0.70757 0.20496 0.28639
 O721 O 0.70608 0.27497 0.28800
 O722 O 0.77868 0.20408 0.21807
 C723 C 0.74170 0.32251 0.34078
 C724 C 0.65755 0.32439 0.24770
 C725 C 0.65482 0.24006 0.33490
 C726 C 0.74704 0.15333 0.17040
 C727 C 0.82636 0.23768 0.16677
 C728 C 0.82839 0.15631 0.25469
 H729 H 0.78962 0.29122 0.20384
 H730 H 0.79157 0.19287 0.30517
 H731 H 0.69002 0.29105 0.30318
 H732 H 0.69247 0.18970 0.20417
 H733 H 0.68393 0.26009 0.15502
 H734 H 0.64324 0.22666 0.19073
 H735 H 0.84248 0.22816 0.31341
 H736 H 0.80023 0.25624 0.35269
 H737 H 0.74101 0.30085 0.15485
 H738 H 0.72427 0.34281 0.19653
 H739 H 0.75917 0.13872 0.31358
 H740 H 0.72195 0.17941 0.35187
 H741 H 0.80226 0.33812 0.27261
 H742 H 0.84381 0.29950 0.23420
 H743 H 0.64480 0.18020 0.27290
 H744 H 0.68348 0.13942 0.24006
 N745 N 0.26090 0.08112 0.09756
 C746 C 0.27027 0.09504 0.06386
 N747 N 0.27977 0.13123 0.06196
 N748 N 0.27970 0.15243 0.09179
 C749 C 0.27012 0.13861 0.12515
 N750 N 0.26091 0.10239 0.12769
 N751 N 0.77820 0.58917 0.59521
 C752 C 0.75719 0.59732 0.56509
 N753 N 0.73752 0.62919 0.56494
 N754 N 0.73840 0.65179 0.59377
 C755 C 0.75869 0.64332 0.62407
 N756 N 0.77865 0.61159 0.62443
 N757 N 0.76738 0.89740 0.09124
 C758 C 0.74816 0.92868 0.09932
 N759 N 0.72902 0.93009 0.13146
 N760 N 0.72908 0.90163 0.15461
 C761 C 0.74805 0.87040 0.14646
 N762 N 0.76704 0.86860 0.11423
 N763 N 0.25800 0.40033 0.58953
 C764 C 0.23999 0.43216 0.59834
 N765 N 0.22321 0.43441 0.63175
 N766 N 0.22430 0.40627 0.65530
 C767 C 0.24201 0.37449 0.64640
 N768 N 0.25872 0.37188 0.61297
 N769 N 0.75801 0.06449 0.86239
 C770 C 0.75289 0.06563 0.89944
 N771 N 0.74473 0.09908 0.91490
 N772 N 0.74323 0.12994 0.89466
 C773 C 0.74929 0.12840 0.85778
 N774 N 0.75634 0.09503 0.84218
 N775 N 0.26865 0.56593 0.36255
 C776 C 0.24795 0.56441 0.39361
 N777 N 0.22746 0.59462 0.40300
 N778 N 0.22849 0.62544 0.38277
 C779 C 0.24973 0.62693 0.35202
 N780 N 0.26933 0.59646 0.34214
 N781 N 0.24501 0.91099 0.89538
 C782 C 0.23820 0.89724 0.92980
 N783 N 0.23152 0.86043 0.93264
 N784 N 0.23122 0.83874 0.90305
 C785 C 0.23768 0.85256 0.86887
 N786 N 0.24455 0.88926 0.86550
 N787 N 0.72321 0.36188 0.43232
 C788 C 0.74453 0.39263 0.43276
 N789 N 0.76496 0.40050 0.40221
 N790 N 0.76329 0.37921 0.37214
 C791 C 0.74149 0.34878 0.37176
 N792 N 0.72193 0.34034 0.40258
 N793 N 0.08819 0.24703 0.10257
 C794 C 0.09988 0.23652 0.06842
 N795 N 0.13652 0.22935 0.06417
 N796 N 0.16002 0.23211 0.09216
 C797 C 0.14812 0.24211 0.12608
 N798 N 0.11168 0.24945 0.13095
 N799 N 0.63087 0.77332 0.56625
 C800 C 0.59842 0.75473 0.56798
 N801 N 0.59022 0.73605 0.59949
 N802 N 0.61317 0.73660 0.62832
 C803 C 0.64554 0.75530 0.62636
 N804 N 0.65400 0.77348 0.59477
 N805 N 0.09520 0.74055 0.91409
 C806 C 0.06185 0.75246 0.90125
 N807 N 0.05880 0.75932 0.86452
 N808 N 0.08753 0.75572 0.84216
 C809 C 0.12086 0.74498 0.85534
 N810 N 0.12430 0.73725 0.89178
 N811 N 0.56532 0.26524 0.37375
 C812 C 0.56445 0.24586 0.40573
 N813 N 0.59395 0.22422 0.41458
 N814 N 0.62356 0.22286 0.39275
 C815 C 0.62422 0.24254 0.36091
 N816 N 0.59453 0.26347 0.35174
 N817 N 0.89921 0.74815 0.09472
 C818 C 0.93337 0.75784 0.10715
 N819 N 0.93679 0.76545 0.14377
 N820 N 0.90769 0.76467 0.16617
 C821 C 0.87355 0.75620 0.15320
 N822 N 0.86986 0.74762 0.11698
 N823 N 0.42959 0.27882 0.64028
 C824 C 0.42970 0.25856 0.60878
 N825 N 0.39876 0.23900 0.60013
 N826 N 0.36869 0.24054 0.62139
 C827 C 0.36867 0.26125 0.65260
 N828 N 0.39983 0.27996 0.66178
 N829 N 0.90981 0.25636 0.90609
 C830 C 0.89513 0.24706 0.93950
 N831 N 0.85796 0.24270 0.94138
 N832 N 0.83699 0.24573 0.91139
 C833 C 0.85197 0.25341 0.87793
 N834 N 0.88887 0.25911 0.87582
 N835 N 0.36094 0.73286 0.43397
 C836 C 0.39458 0.74914 0.43466
 N837 N 0.40672 0.76633 0.40347
 N838 N 0.38656 0.76628 0.37257
 C839 C 0.35313 0.74949 0.37198
 N840 N 0.34066 0.73318 0.40335
 N841 N 0.10075 0.09619 0.26422
 C842 C 0.10730 0.06688 0.24158
 N843 N 0.13746 0.06808 0.21940
 N844 N 0.15960 0.09738 0.21935
 C845 C 0.15234 0.12703 0.24110
 N846 N 0.12256 0.12588 0.26374
 N847 N 0.63903 0.56976 0.72475
 C848 C 0.60589 0.57093 0.74215
 N849 N 0.59608 0.60286 0.75952
 N850 N 0.61788 0.63257 0.75859
 C851 C 0.65080 0.63126 0.74077
 N852 N 0.66101 0.59918 0.72422
 N853 N 0.93705 0.14292 0.76441
 C854 C 0.93579 0.10630 0.75651
 N855 N 0.90248 0.09187 0.74638
 N856 N 0.87183 0.11245 0.74568
 C857 C 0.87341 0.14877 0.75452
 N858 N 0.90667 0.16355 0.76349
 N859 N 0.43480 0.63474 0.26952
 C860 C 0.43672 0.60338 0.24925
 N861 N 0.40676 0.59345 0.22871
 N862 N 0.37577 0.61349 0.22924
 C863 C 0.37387 0.64455 0.25004
 N864 N 0.40410 0.65496 0.26971
 N865 N 0.06226 0.86787 0.72936
 C866 C 0.06617 0.90403 0.73863
 N867 N 0.10032 0.91571 0.74923
 N868 N 0.12900 0.89249 0.75022
 C869 C 0.12453 0.85643 0.74098
 N870 N 0.09066 0.84467 0.73048
 N871 N 0.60141 0.40829 0.26077
 C872 C 0.56984 0.39932 0.24249
 N873 N 0.56798 0.36600 0.22543
 N874 N 0.59633 0.34266 0.22651
 C875 C 0.62787 0.35173 0.24450
 N876 N 0.63006 0.38507 0.26150
 N877 N 0.91799 0.90119 0.25938
 C878 C 0.90354 0.93541 0.25294
 N879 N 0.86624 0.93864 0.25140
 N880 N 0.84459 0.90942 0.25494
 C881 C 0.85905 0.87536 0.26043
 N882 N 0.89626 0.87161 0.26272
 N883 N 0.36753 0.43933 0.73721
 C884 C 0.40089 0.43928 0.75416
 N885 N 0.41111 0.40889 0.77387
 N886 N 0.38913 0.37938 0.77572
 C887 C 0.35586 0.37969 0.75846
 N888 N 0.34545 0.41023 0.73945
 N889 N 0.08082 0.25151 0.90331
 C890 C 0.09496 0.23810 0.93561
 N891 N 0.13149 0.22978 0.93659
 N892 N 0.15274 0.23452 0.90726
 C893 C 0.13866 0.24778 0.87525
 N894 N 0.10214 0.25606 0.87355
 N895 N 0.62802 0.72597 0.43292
 C896 C 0.59513 0.74387 0.43274
 N897 N 0.58478 0.76231 0.40161
 N898 N 0.60645 0.76265 0.37183
 C899 C 0.63947 0.74488 0.37239
 N900 N 0.64976 0.72660 0.40344
 N901 N 0.92867 0.73299 0.87261
 C902 C 0.92830 0.75520 0.90280
 N903 N 0.89833 0.77718 0.90847
 N904 N 0.86976 0.77648 0.88514
 C905 C 0.87061 0.75439 0.85485
 N906 N 0.90054 0.73272 0.84905
 N907 N 0.43020 0.22651 0.37362
 C908 C 0.42943 0.24732 0.40478
 N909 N 0.39933 0.26897 0.41104
 N910 N 0.37098 0.26921 0.38743
 C911 C 0.37219 0.24845 0.35625
 N912 N 0.40230 0.22718 0.34980
 N913 N 0.09618 0.78367 0.09708
 C914 C 0.06883 0.75827 0.10153
 N915 N 0.07496 0.72925 0.12434
 N916 N 0.10700 0.72581 0.14205
 C917 C 0.13463 0.75066 0.13709
 N918 N 0.12845 0.78003 0.11463
 N919 N 0.57057 0.23041 0.63405
 C920 C 0.56674 0.25531 0.60641
 N921 N 0.59564 0.27812 0.59872
 N922 N 0.62727 0.27575 0.61761
 C923 C 0.63110 0.25040 0.64494
 N924 N 0.60194 0.22829 0.65307
 N925 N 0.90645 0.25595 0.10614
 C926 C 0.89632 0.23791 0.07468
 N927 N 0.86383 0.21936 0.07456
 N928 N 0.84251 0.21871 0.10439
 C929 C 0.85276 0.23623 0.13590
 N930 N 0.88521 0.25497 0.13629
 N931 N 0.40180 0.77074 0.60177
 C932 C 0.39491 0.74953 0.57148
 N933 N 0.36559 0.72629 0.57242
 N934 N 0.34433 0.72411 0.60224
 C935 C 0.35170 0.74462 0.63273
 N936 N 0.38076 0.76822 0.63193
 N937 N 0.25365 0.08828 0.89713
 C938 C 0.24976 0.10044 0.93252
 N939 N 0.24507 0.13732 0.93781
 N940 N 0.24419 0.16078 0.90970
 C941 C 0.24803 0.14861 0.87463
 N942 N 0.25263 0.11182 0.86870
 N943 N 0.77816 0.62665 0.43002
 C944 C 0.75681 0.59589 0.43025
 N945 N 0.73425 0.58951 0.40089
 N946 N 0.73360 0.61266 0.37224
 C947 C 0.75490 0.64345 0.37242
 N948 N 0.77710 0.65002 0.40179
 N949 N 0.76219 0.05963 0.13636
 C950 C 0.75615 0.06252 0.09949
 N951 N 0.74674 0.09635 0.08582
 N952 N 0.74413 0.12583 0.10783
 C953 C 0.75039 0.12238 0.14460
 N954 N 0.75944 0.08878 0.15832
 N955 N 0.21953 0.57015 0.62287
 C956 C 0.24405 0.56772 0.59473
 N957 N 0.26733 0.59657 0.58875
 N958 N 0.26557 0.62692 0.60958
 C959 C 0.24071 0.62922 0.63746
 N960 N 0.21811 0.60014 0.64396
 N961 N 0.73081 0.90004 0.90281
 C962 C 0.75225 0.93016 0.89608
 N963 N 0.77471 0.92949 0.86614
 N964 N 0.77608 0.90000 0.84426
 C965 C 0.75548 0.86961 0.85160
 N966 N 0.73258 0.87019 0.88121
 N967 N 0.26303 0.39594 0.40686
 C968 C 0.24592 0.42732 0.39486
 N969 N 0.23139 0.42742 0.36033
 N970 N 0.23363 0.39769 0.33889
 C971 C 0.25026 0.36629 0.35097
 N972 N 0.26492 0.36587 0.38550
 N973 N 0.26774 0.86294 0.06453
 C974 C 0.25348 0.89751 0.06477
 N975 N 0.23988 0.91110 0.09717
 N976 N 0.24080 0.89098 0.12812
 C977 C 0.25524 0.85637 0.12764
 N978 N 0.26847 0.84287 0.09523
 N979 N 0.72392 0.40503 0.59845
 C980 C 0.74668 0.39642 0.56975
 N981 N 0.77095 0.36825 0.57398
 N982 N 0.77255 0.34960 0.60557
 C983 C 0.75051 0.35865 0.63453
 N984 N 0.72577 0.38652 0.63030
 N985 N 0.10435 0.09230 0.75989
 C986 C 0.07008 0.10657 0.75292
 N987 N 0.06739 0.14368 0.74831
 N988 N 0.09696 0.16520 0.74986
 C989 C 0.13102 0.15094 0.75623
 N990 N 0.13429 0.11392 0.76133
 N991 N 0.57375 0.63649 0.23152
 C992 C 0.57377 0.60244 0.24710
 N993 N 0.60503 0.59088 0.26474
 N994 N 0.63506 0.61227 0.26624
 C995 C 0.63472 0.64632 0.25056
 N996 N 0.60346 0.65793 0.23335
 N997 N 0.13892 0.93232 0.22687
 C998 C 0.10258 0.93158 0.23572
 N999 N 0.08786 0.89845 0.24614
 N1000 N 0.10822 0.86762 0.24703
 C1001 C 0.14445 0.86884 0.23780
 N1002 N 0.15925 0.90179 0.22789
 N1003 N 0.63077 0.42935 0.72267
 C1004 C 0.60130 0.43370 0.74522
 N1005 N 0.59174 0.40515 0.76782
 N1006 N 0.61066 0.37343 0.76758
 C1007 C 0.63993 0.36915 0.74465
 N1008 N 0.64980 0.39789 0.72266
 N1009 N 0.91111 0.09996 0.23656
 C1010 C 0.90426 0.06947 0.25737
 N1011 N 0.87295 0.06864 0.27791
 N1012 N 0.84940 0.09680 0.27757
 C1013 C 0.85629 0.12718 0.25691
 N1014 N 0.88776 0.12852 0.23664
 N1015 N 0.41034 0.60632 0.76170
 C1016 C 0.40158 0.57402 0.74463
 N1017 N 0.36845 0.57146 0.72726
 N1018 N 0.34496 0.59967 0.72705
 C1019 C 0.35367 0.63185 0.74395
 N1020 N 0.38694 0.63488 0.76108
 N1021 N 0.92784 0.88251 0.71813
 C1022 C 0.93232 0.90725 0.74590
 N1023 N 0.90588 0.90946 0.77243
 N1024 N 0.87579 0.88835 0.77077
 C1025 C 0.87141 0.86391 0.74274
 N1026 N 0.89813 0.86107 0.71676
 N1027 N 0.43234 0.37412 0.22261
 C1028 C 0.43452 0.40229 0.24715
 N1029 N 0.40571 0.40801 0.27057
 N1030 N 0.37563 0.38682 0.26894
 C1031 C 0.37363 0.35886 0.24409
 N1032 N 0.40264 0.35270 0.22131
   
