data_POSCAR
  _audit_creation_date              2014-09-24
  _audit_creation_method            'ToBaCCo'
  _symmetry_space_group_name_H-M    'P1'
  _symmetry_Int_Tables_number       1
  _symmetry_cell_setting            triclinic
  loop_
  _symmetry_equiv_pos_as_xyz
 x,y,z
_cell_length_a 28.8823
_cell_length_b 40.1915
_cell_length_c 36.5059
_cell_angle_alpha 89.126300
_cell_angle_beta 89.005000
_cell_angle_gamma 91.286000
loop_
  _atom_site_label
  _atom_site_type_symbol
  _atom_site_fract_x
  _atom_site_fract_y
  _atom_site_fract_z
N1 N 0.60331 0.67656 0.62229
 N2 N 0.58375 0.67362 0.65501
 C3 C 0.54839 0.69483 0.65738
 C4 C 0.54540 0.71151 0.62413
 C5 C 0.58062 0.69930 0.60249
 H6 H 0.52544 0.69699 0.68091
 H7 H 0.58889 0.70628 0.57437
 Cu8 Cu 0.60384 0.64026 0.68994
 Cu9 Cu 0.65624 0.65040 0.60761
 Cu10 Cu 0.68455 0.58518 0.66545
 N11 N 0.61279 0.59955 0.71802
 N12 N 0.64592 0.57899 0.70946
 C13 C 0.64399 0.55279 0.73289
 C14 C 0.60696 0.55681 0.75688
 C15 C 0.58796 0.58681 0.74670
 H16 H 0.66609 0.53149 0.73119
 H17 H 0.55782 0.59823 0.75865
 N18 N 0.71881 0.59577 0.61936
 N19 N 0.70864 0.62112 0.59775
 C20 C 0.73657 0.62101 0.56784
 C21 C 0.76504 0.59399 0.57048
 C22 C 0.75293 0.57850 0.60340
 H23 H 0.73462 0.63813 0.54481
 H24 H 0.76694 0.55575 0.61428
 H25 H 0.63289 0.60933 0.63812
 H26 H 0.67897 0.63609 0.65890
 N27 N 0.98994 0.35150 0.10117
 N28 N 0.99862 0.36903 0.13046
 C29 C 1.02759 0.35221 0.15204
 C30 C 1.03773 0.32253 0.13525
 C31 C 1.01380 0.32312 0.10269
 H32 H 1.03878 0.36045 0.17859
 H33 H 1.01140 0.30353 0.08277
 Cu34 Cu 0.96790 0.41067 0.13947
 Cu35 Cu 0.94416 0.36528 0.06577
 Cu36 Cu 0.86489 0.42103 0.10032
 N37 N 0.92390 0.44186 0.15867
 N38 N 0.88216 0.44381 0.14509
 C39 C 0.85610 0.46277 0.16704
 C40 C 0.88332 0.47359 0.19545
 C41 C 0.92622 0.46007 0.18924
 H42 H 0.81986 0.46774 0.16311
 H43 H 0.95570 0.46131 0.20708
 N44 N 0.85485 0.39584 0.05501
 N45 N 0.88488 0.37441 0.04219
 C46 C 0.86718 0.35970 0.01249
 C47 C 0.82434 0.37290 0.00601
 C48 C 0.81762 0.39585 0.03326
 H49 H 0.88389 0.34041 -0.00289
 H50 H 0.78712 0.41048 0.03763
 H51 H 0.93035 0.41462 0.07965
 H52 H 0.90595 0.38041 0.10968
 N53 N 0.41473 0.16692 -0.13279
 N54 N 0.42767 0.15721 -0.16557
 C55 C 0.44836 0.18300 -0.18382
 C56 C 0.44938 0.20995 -0.16079
 C57 C 0.42814 0.19889 -0.12853
 H58 H 0.46259 0.18204 -0.21138
 H59 H 0.42163 0.21326 -0.10423
 Cu60 Cu 0.41912 0.11110 -0.17979
 Cu61 Cu 0.37873 0.13775 -0.09935
 Cu62 Cu 0.32674 0.07079 -0.14320
 N63 N 0.40480 0.06520 -0.19216
 N64 N 0.36671 0.05023 -0.17955
 C65 C 0.36291 0.01984 -0.19432
 C66 C 0.40139 0.01528 -0.21651
 C67 C 0.42743 0.04444 -0.21447
 H68 H 0.33497 0.00207 -0.18849
 H69 H 0.45975 0.05033 -0.22878
 N70 N 0.30500 0.08728 -0.09550
 N71 N 0.32518 0.11235 -0.07854
 C72 C 0.30311 0.11691 -0.04627
 C73 C 0.26792 0.09317 -0.04259
 C74 C 0.27013 0.07476 -0.07418
 H75 H 0.31248 0.13568 -0.02665
 H76 H 0.24837 0.05358 -0.08097
 H77 H 0.38548 0.09015 -0.12189
 H78 H 0.34803 0.12106 -0.14494
 N79 N 0.03576 0.82832 0.38070
 N80 N 0.01943 0.84230 0.35094
 C81 C -0.00346 0.81921 0.33157
 C82 C -0.00214 0.78921 0.35056
 C83 C 0.02274 0.79592 0.38183
 H84 H -0.02027 0.82411 0.30586
 H85 H 0.03190 0.77846 0.40321
 Cu86 Cu 0.02766 0.88966 0.34097
 Cu87 Cu 0.07463 0.85346 0.41428
 Cu88 Cu 0.12691 0.92253 0.37104
 N89 N 0.04919 0.93367 0.32507
 N90 N 0.08980 0.94547 0.33504
 C91 C 0.09856 0.97476 0.31769
 C92 C 0.06079 0.98200 0.29656
 C93 C 0.02993 0.95556 0.30194
 H94 H 0.12946 0.99006 0.32102
 H95 H -0.00335 0.95211 0.28922
 N96 N 0.14829 0.90358 0.41774
 N97 N 0.12878 0.87721 0.43422
 C98 C 0.14991 0.87176 0.46633
 C99 C 0.18344 0.89643 0.47045
 C100 C 0.18140 0.91618 0.43932
 H101 H 0.14007 0.85239 0.48602
 H102 H 0.20162 0.93864 0.43332
 H103 H 0.06833 0.90355 0.39688
 H104 H 0.10082 0.87379 0.36789
 C105 C 0.12701 0.16460 0.13398
 C106 C 0.14566 0.13839 0.11394
 C107 C 0.14220 0.10613 0.12774
 C108 C 0.12056 0.09966 0.16184
 C109 C 0.10193 0.12547 0.18152
 C110 C 0.10578 0.15817 0.16776
 C111 C 0.12365 0.19823 0.12688
 N112 N 0.10191 0.21218 0.15589
 C113 C 0.09092 0.18800 0.18103
 C114 C 0.08011 0.11167 0.21214
 N115 N 0.08597 0.07831 0.21172
 C116 C 0.11080 0.07066 0.18126
 C117 C 0.16099 0.08565 0.10186
 N118 N 0.17630 0.10471 0.07296
 C119 C 0.16732 0.13702 0.08008
 H120 H 0.13624 0.21162 0.10262
 H121 H 0.07263 0.19181 0.20671
 H122 H 0.06084 0.12475 0.23292
 H123 H 0.11944 0.04570 0.17319
 H124 H 0.16317 0.05883 0.10384
 H125 H 0.17480 0.15781 0.06156
 C126 C 0.36939 0.83502 0.61997
 C127 C 0.33340 0.85596 0.60989
 C128 C 0.32496 0.88427 0.62982
 C129 C 0.35190 0.89179 0.66028
 C130 C 0.38763 0.87126 0.67011
 C131 C 0.39614 0.84246 0.65003
 C132 C 0.38870 0.80805 0.60325
 N133 N 0.42595 0.79870 0.62272
 C134 C 0.43077 0.81948 0.65142
 C135 C 0.41160 0.88699 0.69748
 N136 N 0.39071 0.91613 0.70472
 C137 C 0.35412 0.91925 0.68224
 C138 C 0.29278 0.90226 0.61110
 N139 N 0.28114 0.88540 0.58058
 C140 C 0.30552 0.85694 0.57965
 H141 H 0.37727 0.79667 0.57819
 H142 H 0.45880 0.81898 0.67072
 H143 H 0.44284 0.87848 0.71025
 H144 H 0.33247 0.94084 0.68049
 H145 H 0.28042 0.92660 0.61821
 H146 H 0.30547 0.83953 0.55731
 C147 C 0.91266 0.62988 0.38182
 C148 C 0.89154 0.60799 0.40769
 C149 C 0.87669 0.57657 0.39729
 C150 C 0.88191 0.56688 0.36073
 C151 C 0.90302 0.58840 0.33526
 C152 C 0.91810 0.62017 0.34581
 C153 C 0.92758 0.66261 0.38355
 N154 N 0.94110 0.67298 0.34938
 C155 C 0.93539 0.64727 0.32613
 C156 C 0.90137 0.57320 0.30177
 N157 N 0.87903 0.54336 0.30630
 C158 C 0.86673 0.53926 0.34213
 C159 C 0.85588 0.56130 0.42750
 N160 N 0.85713 0.58289 0.45568
 C161 C 0.87855 0.61157 0.44387
 H162 H 0.92639 0.67821 0.40745
 H163 H 0.94207 0.64850 0.29686
 H164 H 0.91359 0.58364 0.27575
 H165 H 0.84742 0.51805 0.35358
 H166 H 0.83947 0.53681 0.42857
 H167 H 0.88374 0.63351 0.46028
 C168 C 0.58692 0.34852 -0.12691
 C169 C 0.62670 0.36003 -0.10920
 C170 C 0.64022 0.39324 -0.11214
 C171 C 0.61444 0.41527 -0.13339
 C172 C 0.57506 0.40388 -0.15089
 C173 C 0.56152 0.37019 -0.14797
 C174 C 0.56683 0.31735 -0.12984
 N175 N 0.53046 0.31953 -0.15269
 C176 C 0.52696 0.35164 -0.16409
 C177 C 0.55751 0.43043 -0.16998
 N178 N 0.58572 0.45730 -0.16490
 C179 C 0.62077 0.44838 -0.14284
 C180 C 0.68057 0.39705 -0.09290
 N181 N 0.69202 0.36686 -0.07904
 C182 C 0.65947 0.34406 -0.08895
 H183 H 0.57884 0.29452 -0.11749
 H184 H 0.50159 0.36068 -0.18310
 H185 H 0.52725 0.43011 -0.18708
 H186 H 0.64878 0.46478 -0.13450
 H187 H 0.70087 0.41982 -0.09012
 H188 H 0.65979 0.31777 -0.08208
 N189 N 0.09521 0.26335 0.19085
 N190 N 0.07763 0.29494 0.18469
 C191 C 0.06245 0.29617 0.14994
 C192 C 0.07118 0.26618 0.13288
 C193 C 0.09136 0.24658 0.15944
 H194 H 0.06177 0.25882 0.10556
 H195 H 0.10758 0.25446 0.21576
 H196 H 0.07445 0.31310 0.20468
 N197 N 0.46588 0.76406 0.57788
 N198 N 0.49838 0.74146 0.57817
 C199 C 0.51056 0.73560 0.61312
 C200 C 0.48509 0.75553 0.63624
 C201 C 0.45735 0.77316 0.61264
 H202 H 0.48683 0.75718 0.66574
 H203 H 0.45074 0.77346 0.55423
 H204 H 0.51169 0.73017 0.55478
 N205 N 0.94529 0.72009 0.30600
 N206 N 0.96013 0.75331 0.30680
 C207 C 0.97871 0.75874 0.33990
 C208 C 0.97573 0.72965 0.36100
 C209 C 0.95454 0.70634 0.33880
 H210 H 0.98681 0.72598 0.38891
 H211 H 0.92833 0.70887 0.28422
 H212 H 0.95737 0.77028 0.28506
 N213 N 0.48883 0.28819 -0.19949
 N214 N 0.46855 0.25852 -0.20201
 C215 C 0.46882 0.24335 -0.16883
 C216 C 0.49062 0.26392 -0.14410
 C217 C 0.50280 0.29197 -0.16479
 H218 H 0.49764 0.25888 -0.11555
 H219 H 0.49426 0.30494 -0.22138
 H220 H 0.45481 0.24892 -0.22603
 N221 N 0.02137 0.05369 0.24794
 N222 N 0.01421 0.02734 0.26958
 C223 C 0.05469 0.01176 0.27360
 C224 C 0.08911 0.02845 0.25333
 C225 C 0.06630 0.05476 0.23758
 H226 H 0.12519 0.02219 0.25017
 H227 H -0.00424 0.07004 0.23980
 H228 H -0.01772 0.02041 0.28158
 N229 N 0.54265 0.50798 -0.17672
 N230 N 0.54924 0.53663 -0.19843
 C231 C 0.59024 0.53415 -0.21640
 C232 C 0.61116 0.50472 -0.20602
 C233 C 0.58032 0.48940 -0.18138
 H234 H 0.64369 0.49510 -0.21590
 H235 H 0.51341 0.50223 -0.16043
 H236 H 0.52507 0.55540 -0.20121
 N237 N 0.45236 0.94849 0.73421
 N238 N 0.45534 0.97559 0.75419
 C239 C 0.41218 0.98567 0.76220
 C240 C 0.38020 0.96437 0.74645
 C241 C 0.40725 0.94129 0.72891
 H242 H 0.34286 0.96609 0.74664
 H243 H 0.48071 0.93606 0.72334
 H244 H 0.48641 0.98701 0.76198
 N245 N 0.82533 0.50645 0.27398
 N246 N 0.82591 0.48883 0.24370
 C247 C 0.86844 0.49178 0.22800
 C248 C 0.89612 0.51249 0.24876
 C249 C 0.86728 0.52115 0.27751
 H250 H 0.93199 0.51988 0.24390
 H251 H 0.79664 0.50860 0.29150
 H252 H 0.79798 0.47447 0.23451
 N253 N 0.18892 0.06168 0.02703
 N254 N 0.21261 0.05880 -0.00400
 C255 C 0.23627 0.08755 -0.01103
 C256 C 0.22699 0.10997 0.01648
 C257 C 0.19681 0.09246 0.03993
 H258 H 0.24048 0.13513 0.01918
 H259 H 0.16751 0.04300 0.03877
 H260 H 0.21293 0.03730 -0.01971
 N261 N 0.83366 0.54701 0.50809
 N262 N 0.80988 0.55009 0.53907
 C263 C 0.79683 0.58196 0.54198
 C264 C 0.81363 0.60019 0.51189
 C265 C 0.83665 0.57701 0.49124
 H266 H 0.80795 0.62606 0.50509
 H267 H 0.84688 0.52471 0.49857
 H268 H 0.80125 0.53037 0.55705
 N269 N 0.75520 0.33090 -0.06024
 N270 N 0.79099 0.33276 -0.03825
 C271 C 0.79127 0.36269 -0.02205
 C272 C 0.75445 0.38098 -0.03454
 C273 C 0.73268 0.35981 -0.05868
 H274 H 0.74452 0.40573 -0.02676
 H275 H 0.74670 0.31029 -0.07606
 H276 H 0.81410 0.31354 -0.03390
 N277 N 0.25094 0.93055 0.54269
 N278 N 0.22612 0.93341 0.51282
 C279 C 0.21191 0.90281 0.50262
 C280 C 0.22869 0.87923 0.52678
 C281 C 0.25332 0.89803 0.55163
 H282 H 0.22450 0.85243 0.52590
 H283 H 0.26701 0.95046 0.55588
 H284 H 0.21908 0.95600 0.49975
   
