data_POSCAR
  _audit_creation_date              2014-09-24
  _audit_creation_method            'ToBaCCo'
  _symmetry_space_group_name_H-M    'P1'
  _symmetry_Int_Tables_number       1
  _symmetry_cell_setting            triclinic
  loop_
  _symmetry_equiv_pos_as_xyz
 x,y,z
_cell_length_a 30.5025
_cell_length_b 27.3155
_cell_length_c 29.8203
_cell_angle_alpha 85.818000
_cell_angle_beta 88.236600
_cell_angle_gamma 95.924700
loop_
  _atom_site_label
  _atom_site_type_symbol
  _atom_site_fract_x
  _atom_site_fract_y
  _atom_site_fract_z
N1 N 0.15442 1.22543 0.16138
 N2 N 0.12455 1.20048 0.18944
 C3 C 0.09521 1.23060 0.20253
 C4 C 0.10727 1.27643 0.18110
 C5 C 0.14511 1.27270 0.15561
 H6 H 0.06898 1.22069 0.22782
 H7 H 0.16539 1.30221 0.13634
 Cu8 Cu 0.12986 1.13317 0.21182
 Cu9 Cu 0.20468 1.19495 0.13747
 Cu10 Cu 0.21727 1.07671 0.18340
 N11 N 0.14586 1.07648 0.24815
 N12 N 0.18058 1.05441 0.23710
 C13 C 0.18466 1.01662 0.26783
 C14 C 0.15062 1.01570 0.29940
 C15 C 0.12661 1.05401 0.28653
 H16 H 0.21053 0.99237 0.26741
 H17 H 0.09804 1.06537 0.30365
 N18 N 0.25792 1.11237 0.13667
 N19 N 0.25286 1.15685 0.11814
 C20 C 0.28479 1.16960 0.08574
 C21 C 0.31110 1.13153 0.08485
 C22 C 0.29344 1.09593 0.11734
 H23 H 0.28843 1.20359 0.06436
 H24 H 0.30494 1.06032 0.12544
 H25 H 0.17834 1.12285 0.14677
 H26 H 0.20855 1.14830 0.19473
 N27 N 0.78027 0.74092 0.17234
 N28 N 0.80627 0.74207 0.20677
 C29 C 0.83560 0.70890 0.20266
 C30 C 0.82679 0.68574 0.16378
 C31 C 0.79157 0.70647 0.14534
 H32 H 0.86175 0.70296 0.22549
 H33 H 0.77664 0.69883 0.11381
 Cu34 Cu 0.79939 0.78727 0.25330
 Cu35 Cu 0.73623 0.78719 0.16355
 Cu36 Cu 0.75918 0.89285 0.22017
 N37 N 0.79570 0.83921 0.29400
 N38 N 0.77996 0.88080 0.28070
 C39 C 0.78131 0.91077 0.31466
 C40 C 0.79859 0.88604 0.35067
 C41 C 0.80749 0.84090 0.33710
 H42 H 0.77017 0.94717 0.31323
 H43 H 0.82110 0.81171 0.35684
 N44 N 0.72212 0.89035 0.16728
 N45 N 0.71181 0.84951 0.14697
 C46 C 0.68497 0.85911 0.11314
 C47 C 0.67837 0.90834 0.11261
 C48 C 0.70204 0.92722 0.14710
 H49 H 0.67181 0.83257 0.09051
 H50 H 0.70413 0.96466 0.15703
 H51 H 0.78298 0.83651 0.18562
 H52 H 0.73370 0.82136 0.22469
 N53 N 0.87609 1.31591 -0.18386
 N54 N 0.91468 1.31594 -0.20491
 C55 C 0.94534 1.34429 -0.18409
 C56 C 0.92459 1.36242 -0.14817
 C57 C 0.88073 1.34400 -0.14867
 H58 H 0.98017 1.34980 -0.19323
 H59 H 0.85447 1.34976 -0.12504
 Cu60 Cu 0.92111 1.27572 -0.25530
 Cu61 Cu 0.82282 1.27913 -0.20379
 Cu62 Cu 0.84219 1.18613 -0.27329
 N63 N 0.92539 1.23669 -0.30685
 N64 N 0.89430 1.20103 -0.31358
 C65 C 0.90623 1.17725 -0.34933
 C66 C 0.94663 1.19986 -0.36541
 C67 C 0.95827 1.23718 -0.33816
 H68 H 0.88739 1.14570 -0.36184
 H69 H 0.98854 1.26175 -0.34023
 N70 N 0.78512 1.18939 -0.24129
 N71 N 0.77737 1.22549 -0.21586
 C72 C 0.73621 1.21628 -0.19730
 C73 C 0.71755 1.17250 -0.21220
 C74 C 0.74910 1.15625 -0.23978
 H75 H 0.72201 1.23814 -0.17292
 H76 H 0.74667 1.12196 -0.25596
 H77 H 0.85957 1.22378 -0.21652
 H78 H 0.84249 1.25938 -0.26760
 N79 N 0.18474 0.72803 -0.10474
 N80 N 0.14300 0.73592 -0.10554
 C81 C 0.12483 0.72689 -0.06362
 C82 C 0.15643 0.71037 -0.03546
 C83 C 0.19403 0.71208 -0.06271
 H84 H 0.09280 0.73697 -0.05358
 H85 H 0.22709 0.70921 -0.05136
 Cu86 Cu 0.11860 0.76324 -0.16041
 Cu87 Cu 0.22612 0.75433 -0.15394
 Cu88 Cu 0.18729 0.84224 -0.22765
 N89 N 0.09890 0.79398 -0.21601
 N90 N 0.12598 0.82467 -0.24273
 C91 C 0.10465 0.83891 -0.27963
 C92 C 0.06224 0.81583 -0.27501
 C93 C 0.05943 0.78725 -0.23490
 H94 H 0.11932 0.86273 -0.30789
 H95 H 0.03152 0.76240 -0.22126
 N96 N 0.25062 0.84010 -0.21684
 N97 N 0.26531 0.80445 -0.19095
 C98 C 0.30811 0.81693 -0.18351
 C99 C 0.32076 0.86289 -0.20513
 C100 C 0.28380 0.87635 -0.22647
 H101 H 0.32655 0.79773 -0.15865
 H102 H 0.27975 0.91237 -0.24240
 H103 H 0.18927 0.81247 -0.16141
 H104 H 0.18602 0.77062 -0.20826
 C105 C 0.55006 1.12020 -0.09655
 H106 H 0.53033 1.13449 -0.07079
 C107 C 0.58408 1.15112 -0.11976
 H108 H 0.59005 1.18940 -0.11235
 C109 C 0.56954 1.05199 -0.13483
 H110 H 0.56474 1.01283 -0.13911
 C111 C 0.60364 1.08155 -0.15884
 H112 H 0.62461 1.06493 -0.18203
 N113 N 0.54403 1.07144 -0.10396
 C114 C 0.46817 1.03641 0.01859
 H115 H 0.48844 1.00826 0.03017
 C116 C 0.43660 1.05093 0.04815
 H117 H 0.43330 1.03459 0.08244
 C118 C 0.44434 1.08844 -0.04091
 H119 H 0.44655 1.10142 -0.07614
 C120 C 0.41241 1.10439 -0.01215
 H121 H 0.39024 1.12995 -0.02528
 Zn122 Zn 0.50801 1.02513 -0.06537
 N123 N 0.47135 1.05491 -0.02514
 C124 C 0.57332 1.01517 -0.00367
 N125 N 0.54734 0.98908 -0.03178
 C126 C 0.55001 0.94004 -0.03519
 C127 C 0.57809 0.91489 -0.00785
 C128 C 0.60161 0.99147 0.02438
 C129 C 0.46300 0.99073 -0.14224
 C130 C 0.43177 0.95945 -0.16302
 C131 C 0.41695 0.91158 -0.09178
 C132 C 0.44731 0.94429 -0.07221
 N133 N 0.47007 0.98250 -0.09756
 H134 H 0.57109 1.05431 -0.00226
 H135 H 0.53033 0.92026 -0.05888
 H136 H 0.57952 0.87570 -0.01006
 H137 H 0.62124 1.01261 0.04732
 H138 H 0.48064 1.02216 -0.16147
 H139 H 0.42568 0.96658 -0.19834
 H140 H 0.39900 0.88124 -0.07127
 H141 H 0.45269 0.93940 -0.03655
 C142 C 0.40802 1.08464 0.03277
 C143 C 0.61189 1.13150 -0.15042
 C144 C 0.40854 0.91936 -0.13734
 C145 C 0.60363 0.94052 0.02279
 C146 C -0.01618 0.57256 1.13395
 H147 H 0.01724 0.57064 1.14458
 C148 C -0.04324 0.60291 1.15491
 H149 H -0.03087 0.62414 1.18199
 C150 C -0.07255 0.54900 1.08439
 H151 H -0.08347 0.52905 1.05612
 C152 C -0.10054 0.57947 1.10408
 H153 H -0.13309 0.58206 1.09123
 N154 N -0.03129 0.54588 1.09975
 C155 C 0.05718 0.42986 1.09620
 H156 H 0.06703 0.43328 1.06085
 C157 C 0.07272 0.39336 1.12507
 H158 H 0.09468 0.36871 1.11190
 C159 C 0.01627 0.45762 1.15650
 H160 H -0.00647 0.48181 1.16864
 C161 C 0.03179 0.42250 1.18660
 H162 H 0.02137 0.42022 1.22180
 Zn163 Zn 0.00987 0.50971 1.07121
 N164 N 0.02968 0.46125 1.11234
 C165 C 0.09649 0.55759 1.07114
 N166 N 0.05703 0.55716 1.05108
 C167 C 0.04719 0.59613 1.02356
 C168 C 0.07676 0.63884 1.01723
 C169 C 0.12683 0.59970 1.06585
 C170 C -0.05200 0.44428 1.03334
 C171 C -0.07218 0.41807 0.99976
 C172 C -0.01609 0.45776 0.94629
 C173 C 0.00254 0.48408 0.98075
 N174 N -0.01573 0.47699 1.02324
 H175 H 0.10302 0.52699 1.09413
 H176 H 0.01488 0.59551 1.00951
 H177 H 0.06669 0.67103 0.99879
 H178 H 0.15680 0.60118 1.08447
 H179 H -0.06531 0.43872 1.06759
 H180 H -0.10122 0.39232 1.00800
 H181 H -0.00118 0.46345 0.91265
 H182 H 0.03190 0.50953 0.97371
 C183 C 0.06008 0.38988 1.17095
 C184 C -0.08566 0.60690 1.13973
 C185 C -0.05400 0.42439 0.95589
 C186 C 0.11671 0.64112 1.03933
 C187 C 1.02621 -0.07261 0.58848
 H188 H 1.04902 -0.03945 0.58358
 C189 C 1.03054 -0.10701 0.62480
 H190 H 1.05671 -0.10012 0.64792
 C191 C 0.96423 -0.12207 0.56420
 H192 H 0.93868 -0.12808 0.54028
 C193 C 0.96733 -0.15723 0.59996
 H194 H 0.94401 -0.19009 0.60368
 N195 N 0.99349 -0.08080 0.55904
 C196 C 1.03432 -0.01074 0.42599
 H197 H 1.00798 0.01223 0.41966
 C198 C 1.06802 -0.01148 0.39342
 H199 H 1.06718 0.01078 0.36211
 C200 C 1.06668 -0.06847 0.47431
 H201 H 1.06600 -0.09079 0.50580
 C202 C 1.10106 -0.07029 0.44257
 H203 H 1.12683 -0.09383 0.44978
 Zn204 Zn 0.98838 -0.03460 0.50947
 N205 N 1.03447 -0.03847 0.46579
 C206 C 1.01931 0.06753 0.50827
 N207 N 0.99201 0.03012 0.53009
 C208 C 0.96687 0.03820 0.56682
 C209 C 0.96688 0.08570 0.58142
 C210 C 1.02028 0.11549 0.52170
 C211 C 0.93093 -0.06828 0.44216
 C212 C 0.89034 -0.07970 0.42285
 C213 C 0.85400 -0.05375 0.48877
 C214 C 0.89524 -0.04270 0.50679
 N215 N 0.93279 -0.04957 0.48326
 H216 H 1.04026 0.06064 0.48019
 H217 H 0.94694 0.00772 0.58504
 H218 H 0.94636 0.09148 0.61039
 H219 H 1.04158 0.14510 0.50363
 H220 H 0.96083 -0.07512 0.42445
 H221 H 0.88952 -0.09448 0.39014
 H222 H 0.82435 -0.04806 0.50774
 H223 H 0.89707 -0.02905 0.53975
 C224 C 1.10221 -0.04117 0.40189
 C225 C 1.00074 -0.15000 0.63055
 C226 C 0.85130 -0.07221 0.44637
 C227 C 0.99347 0.12507 0.55814
 N228 N 0.09133 0.31700 1.19117
 N229 N 0.07540 0.35407 1.20250
 N230 N -0.14815 0.65131 1.14356
 N231 N -0.11205 0.64040 1.15984
 N232 N -0.05444 0.39102 0.88484
 N233 N -0.07424 0.39605 0.92211
 N234 N 0.15830 0.71805 1.01138
 N235 N 0.14224 0.68751 1.04359
 N236 N 1.14395 -0.01415 0.33582
 N237 N 1.13833 -0.04239 0.37017
 N238 N 1.03228 -0.18480 0.69460
 N239 N 1.00335 -0.18704 0.66668
 N240 N 0.80394 -0.09824 0.39065
 N241 N 0.80870 -0.08325 0.42835
 N242 N 0.97081 0.18658 0.60161
 N243 N 0.99408 0.17487 0.57049
 N244 N 0.34747 1.12775 0.05436
 N245 N 0.37257 1.09399 0.06241
 N246 N 0.67736 1.14444 -0.19608
 N247 N 0.65048 1.16131 -0.16918
 N248 N 0.35613 0.89678 -0.19203
 N249 N 0.37480 0.88705 -0.15535
 N250 N 0.65202 0.93502 0.08288
 N251 N 0.63058 0.91407 0.05237
   
