data_POSCAR
  _audit_creation_date              2014-09-24
  _audit_creation_method            'ToBaCCo'
  _symmetry_space_group_name_H-M    'P1'
  _symmetry_Int_Tables_number       1
  _symmetry_cell_setting            triclinic
  loop_
  _symmetry_equiv_pos_as_xyz
 x,y,z
_cell_length_a 44.4161
_cell_length_b 44.5836
_cell_length_c 44.3688
_cell_angle_alpha 87.161900
_cell_angle_beta 87.050300
_cell_angle_gamma 91.952700
loop_
  _atom_site_label
  _atom_site_type_symbol
  _atom_site_fract_x
  _atom_site_fract_y
  _atom_site_fract_z
C1 C 0.20531 0.51956 1.01875
 H2 H 0.20683 0.53634 1.00021
 C3 C 0.18302 0.52114 1.04185
 H4 H 0.16744 0.53915 1.03992
 C5 C 0.22263 0.47454 1.04111
 H6 H 0.23780 0.45612 1.04044
 C7 C 0.20057 0.47511 1.06468
 H8 H 0.20042 0.45752 1.08234
 N9 N 0.22448 0.49650 1.01870
 C10 C 0.29857 0.52945 0.95630
 H11 H 0.29768 0.51245 0.93977
 C12 C 0.32164 0.55161 0.95388
 H13 H 0.33813 0.55184 0.93501
 C14 C 0.27859 0.54906 1.00150
 H15 H 0.26239 0.54735 1.02057
 C16 C 0.30134 0.57159 0.99999
 H17 H 0.30230 0.58706 1.01800
 Zn18 Zn 0.25091 0.49451 0.98415
 N19 N 0.27780 0.52841 0.97996
 C20 C 0.22678 0.51492 0.92886
 N21 N 0.22612 0.49259 0.95093
 C22 C 0.20500 0.46971 0.95206
 C23 C 0.18293 0.46901 0.93083
 C24 C 0.20507 0.51511 0.90713
 C25 C 0.29450 0.46030 1.01022
 C26 C 0.31558 0.43797 1.01260
 C27 C 0.29662 0.41661 0.96798
 C28 C 0.27575 0.43936 0.96651
 N29 N 0.27521 0.46068 0.98741
 H30 H 0.24333 0.53325 0.92875
 H31 H 0.20463 0.45262 0.97027
 H32 H 0.16560 0.45125 0.93294
 H33 H 0.20560 0.53332 0.89003
 H34 H 0.29401 0.47794 1.02611
 H35 H 0.33133 0.43867 1.03041
 H36 H 0.29702 0.39998 0.95100
 H37 H 0.26065 0.44047 0.94818
 C38 C 0.32360 0.57273 0.97623
 C39 C 0.17981 0.49846 1.06532
 C40 C 0.31711 0.41593 0.99109
 C41 C 0.18240 0.49223 0.90831
 C42 C 0.79629 0.53247 -0.02142
 H43 H 0.79659 0.54877 -0.00416
 C44 C 0.81870 0.53391 -0.04474
 H45 H 0.83624 0.55141 -0.04519
 C46 C 0.77418 0.48857 -0.04035
 H47 H 0.75732 0.47045 -0.03807
 C48 C 0.79615 0.48917 -0.06407
 H49 H 0.79550 0.47181 -0.08027
 N50 N 0.77481 0.50990 -0.01949
 C51 C 0.70453 0.54041 0.04262
 H52 H 0.70495 0.52275 0.06020
 C53 C 0.68239 0.56178 0.04405
 H54 H 0.66626 0.56081 0.06324
 C55 C 0.72444 0.56216 -0.00435
 H56 H 0.74018 0.56149 -0.02369
 C57 C 0.70252 0.58395 -0.00391
 H58 H 0.70173 0.59994 -0.02299
 Zn59 Zn 0.74877 0.50677 0.01566
 N60 N 0.72470 0.54070 0.01850
 C61 C 0.77536 0.52423 0.06940
 N62 N 0.77377 0.50281 0.04868
 C63 C 0.79271 0.47951 0.04880
 C64 C 0.81478 0.47736 0.06998
 C65 C 0.79713 0.52296 0.09101
 C66 C 0.70153 0.47546 -0.00778
 C67 C 0.67806 0.45407 -0.00879
 C68 C 0.69588 0.42880 0.03597
 C69 C 0.71913 0.45079 0.03613
 N70 N 0.72134 0.47361 0.01452
 H71 H 0.76056 0.54295 0.06849
 H72 H 0.79137 0.46319 0.03162
 H73 H 0.83039 0.45927 0.06888
 H74 H 0.79839 0.54043 0.10705
 H75 H 0.70361 0.49409 -0.02442
 H76 H 0.66247 0.45609 -0.02669
 H77 H 0.69382 0.41128 0.05382
 H78 H 0.73469 0.45017 0.05407
 C79 C 0.68064 0.58345 0.02019
 C80 C 0.81913 0.51176 -0.06619
 C81 C 0.67466 0.43064 0.01357
 C82 C 0.81757 0.49958 0.09113
 C83 C -0.01894 0.29419 0.48027
 H84 H -0.03582 0.29182 0.49878
 C85 C -0.02102 0.31685 0.45779
 H86 H -0.04058 0.33058 0.45903
 C87 C 0.02619 0.27788 0.45677
 H88 H 0.04509 0.26325 0.45708
 C89 C 0.02509 0.30035 0.43374
 H90 H 0.04374 0.30241 0.41706
 N91 N 0.00447 0.27544 0.47955
 C92 C -0.02830 0.20251 0.54305
 H93 H -0.01135 0.20376 0.55965
 C94 C -0.05053 0.17949 0.54578
 H95 H -0.05088 0.16342 0.56492
 C96 C -0.04762 0.22138 0.49735
 H97 H -0.04572 0.23704 0.47792
 C98 C -0.07022 0.19869 0.49916
 H99 H -0.08555 0.19730 0.48105
 Zn100 Zn 0.00713 0.24919 0.51397
 N101 N -0.02706 0.22266 0.51897
 C102 C -0.01236 0.27521 0.56879
 N103 N 0.01004 0.27430 0.54680
 C104 C 0.03382 0.29442 0.54507
 C105 C 0.03541 0.31710 0.56550
 C106 C -0.01175 0.29770 0.58967
 C107 C 0.04121 0.20573 0.48717
 C108 C 0.06330 0.18436 0.48481
 C109 C 0.08465 0.20269 0.52972
 C110 C 0.06213 0.22380 0.53118
 N111 N 0.04089 0.22477 0.51017
 H112 H -0.03148 0.25950 0.56923
 H113 H 0.05103 0.29346 0.52701
 H114 H 0.05436 0.33313 0.56341
 H115 H -0.03046 0.29895 0.60613
 H116 H 0.02362 0.20656 0.47119
 H117 H 0.06248 0.16875 0.46691
 H118 H 0.10116 0.20194 0.54683
 H119 H 0.06105 0.23865 0.54970
 C120 C -0.07151 0.17699 0.52331
 C121 C 0.00157 0.32098 0.43418
 C122 C 0.08516 0.18232 0.50652
 C123 C 0.01203 0.31947 0.58770
 C124 C 0.96330 0.70395 0.52254
 H125 H 0.94749 0.70494 0.50479
 C126 C 0.96010 0.68117 0.54529
 H127 H 0.94134 0.66501 0.54523
 C128 C 1.00753 0.72337 0.54341
 H129 H 1.02657 0.73921 0.54195
 C130 C 1.00524 0.70086 0.56657
 H131 H 1.02260 0.69973 0.58280
 N132 N 0.98687 0.72428 0.52182
 C133 C 0.95999 0.79431 0.45776
 H134 H 0.97818 0.79331 0.44069
 C135 C 0.93893 0.81669 0.45531
 H136 H 0.94068 0.83243 0.43587
 C137 C 0.93661 0.77571 0.50450
 H138 H 0.93656 0.76047 0.52421
 C139 C 0.91512 0.79785 0.50302
 H140 H 0.89862 0.79925 0.52168
 Zn141 Zn 0.99231 0.75034 0.48695
 N142 N 0.95874 0.77469 0.48226
 C143 C 0.97750 0.72262 0.43278
 N144 N 0.99806 0.72525 0.45427
 C145 C 1.02187 0.70697 0.45551
 C146 C 1.02540 0.68447 0.43503
 C147 C 0.98011 0.70027 0.41186
 C148 C 1.02358 0.79636 0.51273
 C149 C 1.04514 0.81953 0.51465
 C150 C 1.07103 0.80280 0.46962
 C151 C 1.04891 0.77984 0.46858
 N152 N 1.02567 0.77724 0.48986
 H153 H 0.95828 0.73685 0.43273
 H154 H 1.03758 0.70925 0.47317
 H155 H 1.04434 0.66993 0.43669
 H156 H 0.96282 0.69763 0.39576
 H157 H 1.00460 0.79402 0.52906
 H158 H 1.04291 0.83462 0.53295
 H159 H 1.08880 0.80522 0.45193
 H160 H 1.04969 0.76491 0.45012
 C161 C 0.91659 0.81920 0.47854
 C162 C 0.98161 0.67899 0.56735
 C163 C 1.06897 0.82336 0.49259
 C164 C 1.00395 0.68039 0.41328
 C165 C 0.47669 -0.03694 0.29814
 H166 H 0.49389 -0.05354 0.29884
 C167 C 0.45361 -0.03762 0.32077
 H168 H 0.45330 -0.05482 0.33889
 C169 C 0.45765 0.00690 0.27472
 H170 H 0.45978 0.02469 0.25724
 C171 C 0.43418 0.00707 0.29690
 H172 H 0.41803 0.02469 0.29579
 N173 N 0.47843 -0.01478 0.27587
 C174 C 0.53864 -0.04741 0.20518
 H175 H 0.55598 -0.02969 0.20422
 C176 C 0.53951 -0.06933 0.18382
 H177 H 0.55764 -0.06735 0.16657
 C178 C 0.49268 -0.06844 0.22742
 H179 H 0.47412 -0.06758 0.24405
 C180 C 0.49253 -0.09080 0.20643
 H181 H 0.47425 -0.10753 0.20857
 Zn182 Zn 0.51321 -0.01279 0.24934
 N183 N 0.51529 -0.04707 0.22610
 C184 C 0.56719 -0.03126 0.27559
 N185 N 0.54655 -0.00948 0.27387
 C186 C 0.54701 0.01392 0.29235
 C187 C 0.56857 0.01587 0.31401
 C188 C 0.58915 -0.03023 0.29702
 C189 C 0.48976 0.01915 0.20155
 C190 C 0.48864 0.04089 0.17801
 C191 C 0.53359 0.06507 0.19543
 C192 C 0.53386 0.04276 0.21873
 N193 N 0.51216 0.02036 0.22123
 H194 H 0.56601 -0.05003 0.26114
 H195 H 0.52988 0.03054 0.29094
 H196 H 0.56781 0.03411 0.32922
 H197 H 0.60515 -0.04797 0.29841
 H198 H 0.47305 0.00084 0.20386
 H199 H 0.47059 0.03945 0.16258
 H200 H 0.55145 0.08230 0.19322
 H201 H 0.55189 0.04289 0.23418
 C202 C 0.51576 -0.09122 0.18344
 C203 C 0.43224 -0.01511 0.32062
 C204 C 0.51098 0.06401 0.17443
 C205 C 0.58972 -0.00667 0.31690
 C206 C 0.52295 -0.01334 0.70469
 H207 H 0.50496 -0.03041 0.70673
 C208 C 0.54595 -0.01469 0.68225
 H209 H 0.54542 -0.03291 0.66701
 C210 C 0.54423 0.03215 0.72103
 H211 H 0.54304 0.05074 0.73572
 C212 C 0.56766 0.03173 0.69880
 H213 H 0.58472 0.04976 0.69701
 N214 N 0.52245 0.00983 0.72348
 C215 C 0.46167 -0.02357 0.79879
 H216 H 0.44482 -0.00664 0.79784
 C217 C 0.45984 -0.04579 0.82215
 H218 H 0.44112 -0.04614 0.83881
 C219 C 0.50700 -0.04300 0.77858
 H220 H 0.52585 -0.04122 0.76214
 C221 C 0.50607 -0.06561 0.80162
 H222 H 0.52430 -0.08109 0.80255
 Zn223 Zn 0.48810 0.01140 0.75023
 N224 N 0.48508 -0.02245 0.77774
 C225 C 0.43319 -0.00996 0.72711
 N226 N 0.45456 0.01272 0.72577
 C227 C 0.45472 0.03550 0.70423
 C228 C 0.43318 0.03573 0.68242
 C229 C 0.41120 -0.01062 0.70571
 C230 C 0.51354 0.04606 0.79302
 C231 C 0.51522 0.06819 0.81404
 C232 C 0.46958 0.08860 0.79545
 C233 C 0.46885 0.06607 0.77463
 N234 N 0.49055 0.04527 0.77399
 H235 H 0.43385 -0.02821 0.74400
 H236 H 0.47238 0.05289 0.70332
 H237 H 0.43452 0.05343 0.66474
 H238 H 0.39466 -0.02910 0.70681
 H239 H 0.53009 0.02881 0.79246
 H240 H 0.53317 0.06774 0.82966
 H241 H 0.45192 0.10474 0.79602
 H242 H 0.45040 0.06462 0.75974
 C243 C 0.48252 -0.06689 0.82410
 C244 C 0.56855 0.00821 0.67885
 C245 C 0.49281 0.08960 0.81577
 C246 C 0.41138 0.01214 0.68262
 C247 C 0.21642 -0.02584 0.49630
 C248 C 0.23380 0.00064 0.49921
 C249 C 0.21961 0.02814 0.50154
 C250 C 0.18819 0.02918 0.50072
 C251 C 0.17091 0.00268 0.49807
 C252 C 0.18497 -0.02484 0.49600
 C253 C 0.26679 -0.00044 0.49995
 C254 C 0.28428 -0.00448 0.47332
 C255 C 0.31574 -0.00510 0.47395
 C256 C 0.32970 -0.00221 0.50131
 C257 C 0.31229 0.00157 0.52798
 C258 C 0.28087 0.00271 0.52726
 H259 H 0.22734 -0.04713 0.49472
 H260 H 0.23303 0.04862 0.50370
 H261 H 0.27343 -0.00668 0.45216
 H262 H 0.26736 0.00572 0.54788
 H263 H 0.14654 0.00345 0.49772
 H264 H 0.35407 -0.00282 0.50182
 C265 C 0.78299 -0.02709 0.49412
 C266 C 0.76806 -0.00062 0.50016
 C267 C 0.78475 0.02527 0.50689
 C268 C 0.81624 0.02479 0.50724
 C269 C 0.83102 -0.00175 0.50151
 C270 C 0.81442 -0.02773 0.49511
 C271 C 0.73500 -0.00002 0.49948
 C272 C 0.71744 0.00327 0.52623
 C273 C 0.68596 0.00348 0.52567
 C274 C 0.67202 0.00105 0.49825
 C275 C 0.68948 -0.00191 0.47144
 C276 C 0.72092 -0.00278 0.47210
 H277 H 0.77012 -0.04717 0.48911
 H278 H 0.77329 0.04580 0.51133
 H279 H 0.72825 0.00518 0.54745
 H280 H 0.73446 -0.00515 0.45136
 H281 H 0.85539 -0.00217 0.50198
 H282 H 0.64764 0.00142 0.49778
 C283 C 0.52428 0.28344 1.00598
 C284 C 0.49803 0.26627 1.00127
 C285 C 0.47059 0.28047 0.99801
 C286 C 0.46935 0.31168 0.99973
 C287 C 0.49564 0.32877 1.00416
 C288 C 0.52313 0.31471 1.00713
 C289 C 0.49934 0.23349 0.99948
 C290 C 0.50356 0.21534 1.02557
 C291 C 0.50444 0.18410 1.02390
 C292 C 0.50171 0.17104 0.99606
 C293 C 0.49779 0.18910 0.96993
 C294 C 0.49632 0.22029 0.97168
 H295 H 0.54556 0.27254 1.00821
 H296 H 0.45027 0.26722 0.99446
 H297 H 0.50566 0.22549 1.04711
 H298 H 0.49322 0.23430 0.95148
 H299 H 0.49474 0.35298 1.00515
 H300 H 0.50256 0.14685 0.99475
 C301 C 0.52797 0.71870 0.00416
 C302 C 0.50128 0.73363 -0.00118
 C303 C 0.47520 0.71707 -0.00781
 C304 C 0.47573 0.68574 -0.00875
 C305 C 0.50249 0.67100 -0.00375
 C306 C 0.52864 0.68744 0.00255
 C307 C 0.50056 0.76649 0.00040
 C308 C 0.49543 0.78452 -0.02554
 C309 C 0.49500 0.81580 -0.02409
 C310 C 0.49901 0.82907 0.00345
 C311 C 0.50379 0.81115 0.02947
 C312 C 0.50490 0.77992 0.02788
 H313 H 0.54817 0.73143 0.00918
 H314 H 0.45447 0.72850 -0.01163
 H315 H 0.49228 0.77422 -0.04684
 H316 H 0.50863 0.76604 0.04801
 H317 H 0.50292 0.64674 -0.00461
 H318 H 0.49841 0.85329 0.00462
 C319 C 1.00387 0.52624 0.28085
 C320 C 1.00335 0.49878 0.26671
 C321 C 1.00349 0.47167 0.28415
 C322 C 1.00411 0.47203 0.31565
 C323 C 1.00467 0.49947 0.32969
 C324 C 1.00456 0.52657 0.31234
 C325 C 1.00247 0.49839 0.23369
 C326 C 1.02940 0.49809 0.21579
 C327 C 1.02856 0.49784 0.18430
 C328 C 1.00078 0.49780 0.17071
 C329 C 0.97385 0.49806 0.18854
 C330 C 0.97469 0.49839 0.22003
 H331 H 1.00372 0.54719 0.26737
 H332 H 1.00297 0.45044 0.27324
 H333 H 1.05088 0.49815 0.22635
 H334 H 0.95387 0.49865 0.23388
 H335 H 1.00509 0.49974 0.35410
 H336 H 1.00014 0.49764 0.14631
 C337 C -0.00883 0.52759 0.71602
 C338 C -0.00391 0.50119 0.73334
 C339 C 0.00007 0.47409 0.71906
 C340 C -0.00114 0.47338 0.68764
 C341 C -0.00578 0.49983 0.67041
 C342 C -0.00947 0.52696 0.68454
 C343 C -0.00276 0.50194 0.76635
 C344 C -0.02927 0.50543 0.78422
 C345 C -0.02823 0.50581 0.81569
 C346 C -0.00059 0.50328 0.82927
 C347 C 0.02597 0.50009 0.81148
 C348 C 0.02484 0.49914 0.78005
 H349 H -0.01167 0.54858 0.72699
 H350 H 0.00380 0.45366 0.73242
 H351 H -0.05065 0.50738 0.77367
 H352 H 0.04537 0.49659 0.76625
 H353 H -0.00639 0.49933 0.64603
 H354 H 0.00024 0.50373 0.85364
 C355 C 0.14384 0.10773 0.50448
 C356 C 0.13823 0.12396 0.47767
 C357 C 0.11994 0.14885 0.47838
 C358 C 0.10696 0.15780 0.50596
 C359 C 0.11345 0.14184 0.53288
 C360 C 0.13173 0.11694 0.53211
 C361 C 0.16043 0.08059 0.50343
 C362 C 0.17349 0.05737 0.50233
 H363 H 0.14748 0.11701 0.45615
 H364 H 0.11564 0.16088 0.45733
 H365 H 0.10347 0.14787 0.55442
 H366 H 0.13578 0.10442 0.55298
 C367 C 0.60462 0.64030 0.01457
 C368 C 0.63357 0.65184 0.00550
 C369 C 0.65851 0.63363 0.00783
 C370 C 0.65473 0.60364 0.01928
 C371 C 0.62554 0.59247 0.02867
 C372 C 0.60074 0.61067 0.02634
 C373 C 0.57857 0.65812 0.01068
 C374 C 0.55608 0.67200 0.00715
 H375 H 0.63681 0.67475 -0.00372
 H376 H 0.68069 0.64294 0.00062
 H377 H 0.62171 0.56934 0.03700
 H378 H 0.57841 0.60143 0.03321
 C379 C 0.86087 -0.10393 0.48247
 C380 C 0.89080 -0.10070 0.47105
 C381 C 0.90861 -0.12580 0.46910
 C382 C 0.89674 -0.15462 0.47854
 C383 C 0.86642 -0.15775 0.48948
 C384 C 0.84861 -0.13253 0.49143
 C385 C 0.84348 -0.07762 0.48636
 C386 C 0.82981 -0.05507 0.49009
 H387 H 0.90059 -0.07865 0.46428
 H388 H 0.93200 -0.12247 0.46114
 H389 H 0.85656 -0.17964 0.49669
 H390 H 0.82546 -0.13528 0.50037
 C391 C 0.39087 0.35619 0.99409
 C392 C 0.38203 0.36814 0.96628
 C393 C 0.35731 0.38670 0.96516
 C394 C 0.34121 0.39366 0.99191
 C395 C 0.34971 0.38077 1.01965
 C396 C 0.37439 0.36220 1.02071
 C397 C 0.41796 0.33949 0.99560
 C398 C 0.44116 0.32638 0.99726
 H399 H 0.39474 0.36379 0.94555
 H400 H 0.35158 0.39659 0.94352
 H401 H 0.33754 0.38543 1.04058
 H402 H 0.38105 0.35309 1.04236
 C403 C 0.86779 0.10010 0.52039
 C404 C 0.85799 0.12882 0.51252
 C405 C 0.87740 0.15400 0.51422
 C406 C 0.90689 0.15074 0.52379
 C407 C 0.91625 0.12182 0.53227
 C408 C 0.89683 0.09671 0.53055
 C409 C 0.84880 0.07391 0.51653
 C410 C 0.83361 0.05165 0.51264
 H411 H 0.83556 0.13169 0.50458
 H412 H 0.86943 0.17598 0.50783
 H413 H 0.93895 0.11844 0.53922
 H414 H 0.90473 0.07457 0.53649
 C415 C 0.40026 0.63390 -0.02099
 C416 C 0.40399 0.60480 -0.03062
 C417 C 0.37899 0.58519 -0.03216
 C418 C 0.34980 0.59440 -0.02407
 C419 C 0.34620 0.62392 -0.01493
 C420 C 0.37129 0.64353 -0.01339
 C421 C 0.42638 0.65314 -0.01744
 C422 C 0.44869 0.66843 -0.01383
 H423 H 0.42633 0.59704 -0.03632
 H424 H 0.38264 0.56249 -0.03876
 H425 H 0.32401 0.63177 -0.00883
 H426 H 0.36816 0.66601 -0.00585
 C427 C 0.13061 -0.10018 0.49293
 C428 C 0.14141 -0.12822 0.48569
 C429 C 0.12144 -0.15321 0.48554
 C430 C 0.09047 -0.15040 0.49276
 C431 C 0.07992 -0.12206 0.49986
 C432 C 0.09985 -0.09718 0.49997
 C433 C 0.15082 -0.07430 0.49343
 C434 C 0.16683 -0.05202 0.49433
 H435 H 0.16521 -0.13079 0.48026
 H436 H 0.13025 -0.17477 0.48017
 H437 H 0.05615 -0.11900 0.50495
 H438 H 0.09124 -0.07557 0.50549
 C439 C 0.59811 0.36898 1.01361
 C440 C 0.59483 0.39971 1.00739
 C441 C 0.61969 0.41967 1.00764
 C442 C 0.64830 0.40919 1.01408
 C443 C 0.65137 0.37829 1.02076
 C444 C 0.62638 0.35828 1.02043
 C445 C 0.57237 0.34870 1.01220
 C446 C 0.55019 0.33271 1.01027
 H447 H 0.57304 0.40825 1.00217
 H448 H 0.61647 0.44338 1.00298
 H449 H 0.67314 0.36957 1.02562
 H450 H 0.62917 0.33450 1.02521
 C451 C 0.51041 0.12752 1.09833
 C452 C 0.50386 0.09703 1.09486
 C453 C 0.50426 0.07645 1.11957
 C454 C 0.51118 0.08607 1.14822
 C455 C 0.51812 0.11674 1.15148
 C456 C 0.51765 0.13736 1.12666
 C457 C 0.50906 0.14848 1.07275
 C458 C 0.50729 0.16516 1.05074
 H459 H 0.49832 0.08915 1.07303
 H460 H 0.49937 0.05293 1.11619
 H461 H 0.52333 0.12483 1.17329
 H462 H 0.52270 0.16095 1.12960
 C463 C -0.01800 0.60262 0.63045
 C464 C -0.01071 0.63137 0.63987
 C465 C -0.01140 0.65639 0.61959
 C466 C -0.01938 0.65291 0.58963
 C467 C -0.02709 0.62394 0.58060
 C468 C -0.02639 0.59903 0.60087
 C469 C -0.01560 0.57654 0.65051
 C470 C -0.01310 0.55416 0.66645
 H471 H -0.00413 0.63440 0.66272
 H472 H -0.00561 0.67841 0.62730
 H473 H -0.03277 0.62037 0.55758
 H474 H -0.03185 0.57686 0.59327
 C475 C 0.48540 0.87064 -0.09917
 C476 C 0.49317 0.86145 -0.12818
 C477 C 0.49178 0.88155 -0.15328
 C478 C 0.48258 0.91111 -0.14963
 C479 C 0.47446 0.91995 -0.12037
 C480 C 0.47588 0.89985 -0.09537
 C481 C 0.48825 0.85062 -0.07310
 C482 C 0.49108 0.83446 -0.05090
 H483 H 0.50060 0.83888 -0.13137
 H484 H 0.49789 0.87399 -0.17551
 H485 H 0.46781 0.94268 -0.11670
 H486 H 0.47001 0.90726 -0.07299
 C487 C 1.00198 0.39573 0.37056
 C488 C 0.98634 0.39665 0.39856
 C489 C 0.98588 0.37202 0.41926
 C490 C 1.00118 0.34561 0.41249
 C491 C 1.01665 0.34506 0.38380
 C492 C 1.01700 0.36986 0.36313
 C493 C 1.00308 0.42182 0.35005
 C494 C 1.00370 0.44439 0.33387
 H495 H 0.97489 0.41673 0.40468
 H496 H 0.97468 0.37471 0.44110
 H497 H 1.02789 0.32530 0.37663
 H498 H 1.02905 0.36884 0.34137
 C499 C 0.51117 0.85275 0.10882
 C500 C 0.48502 0.85852 0.12606
 C501 C 0.48657 0.87600 0.15127
 C502 C 0.51449 0.88842 0.15973
 C503 C 0.54082 0.88120 0.14262
 C504 C 0.53910 0.86367 0.11745
 C505 C 0.50909 0.83717 0.08131
 C506 C 0.50693 0.82495 0.05784
 H507 H 0.46321 0.85030 0.11945
 H508 H 0.46543 0.88116 0.16265
 H509 H 0.56304 0.88861 0.14864
 H510 H 0.55958 0.85906 0.10442
 C511 C 0.00780 0.39651 0.64221
 C512 C 0.01844 0.39968 0.61198
 C513 C 0.02020 0.37456 0.59449
 C514 C 0.01137 0.34578 0.60700
 C515 C 0.00093 0.34273 0.63754
 C516 C -0.00082 0.36798 0.65503
 C517 C 0.00486 0.42287 0.65944
 C518 C 0.00224 0.44561 0.67281
 H519 H 0.02496 0.42168 0.60175
 H520 H 0.02774 0.37783 0.57093
 H521 H -0.00584 0.32087 0.64787
 H522 H -0.00915 0.36529 0.67843
 C523 C 0.49357 0.14739 0.89034
 C524 C 0.52035 0.14264 0.87353
 C525 C 0.51998 0.12478 0.84853
 C526 C 0.49277 0.11135 0.84005
 C527 C 0.46580 0.11712 0.85647
 C528 C 0.46624 0.13497 0.88150
 C529 C 0.49452 0.16315 0.91783
 C530 C 0.49576 0.17543 0.94136
 H531 H 0.54164 0.15213 0.88019
 H532 H 0.54104 0.12103 0.83613
 H533 H 0.44457 0.10679 0.85077
 H534 H 0.44540 0.13834 0.89447
 C535 C 1.00587 0.60367 0.35821
 C536 C 0.99795 0.63158 0.34572
 C537 C 0.99763 0.65674 0.36343
 C538 C 1.00529 0.65422 0.39383
 C539 C 1.01336 0.62606 0.40602
 C540 C 1.01366 0.60104 0.38833
 C541 C 1.00540 0.57735 0.34070
 C542 C 1.00501 0.55455 0.32719
 H543 H 0.99185 0.63386 0.32241
 H544 H 0.99152 0.67815 0.35334
 H545 H 1.01877 0.62317 0.42948
 H546 H 1.01963 0.57950 0.39829
 C547 C 1.10566 0.49834 0.13001
 C548 C 1.11966 0.47156 0.12397
 C549 C 1.14452 0.47161 0.10330
 C550 C 1.15586 0.49859 0.08794
 C551 C 1.14177 0.52554 0.09511
 C552 C 1.11698 0.52533 0.11583
 C553 C 1.07892 0.49802 0.14979
 C554 C 1.05613 0.49787 0.16578
 H555 H 1.11093 0.45046 0.13470
 H556 H 1.15348 0.45006 0.09836
 H557 H 1.15008 0.54715 0.08539
 H558 H 1.10646 0.54628 0.12059
 C559 C 0.63285 0.00742 0.60315
 C560 C 0.62505 -0.01918 0.62026
 C561 C 0.60474 -0.01882 0.64536
 C562 C 0.59191 0.00819 0.65368
 C563 C 0.60043 0.03494 0.63674
 C564 C 0.62073 0.03452 0.61162
 C565 C 0.65216 0.00659 0.57618
 C566 C 0.66781 0.00544 0.55327
 H567 H 0.63431 -0.04028 0.61392
 H568 H 0.59890 -0.03971 0.65815
 H569 H 0.59065 0.05601 0.64231
 H570 H 0.62650 0.05522 0.59844
 C571 C -0.10503 0.50989 0.86975
 C572 C -0.11772 0.48311 0.88338
 C573 C -0.14278 0.48369 0.90368
 C574 C -0.15553 0.51113 0.91067
 C575 C -0.14292 0.53793 0.89646
 C576 C -0.11782 0.53729 0.87614
 C577 C -0.07827 0.50916 0.85013
 C578 C -0.05557 0.50795 0.83420
 H579 H -0.10790 0.46179 0.87873
 H580 H -0.15158 0.46272 0.91459
 H581 H -0.15240 0.55937 0.90114
 H582 H -0.10818 0.55816 0.86569
 C583 C 0.36885 -0.01108 0.39676
 C584 C 0.37510 -0.03880 0.38481
 C585 C 0.39520 -0.04015 0.35961
 C586 C 0.40932 -0.01373 0.34607
 C587 C 0.40245 0.01405 0.35799
 C588 C 0.38238 0.01533 0.38315
 C589 C 0.34952 -0.00965 0.42366
 C590 C 0.33386 -0.00788 0.44647
 H591 H 0.36474 -0.05939 0.39518
 H592 H 0.39978 -0.06183 0.35078
 H593 H 0.41330 0.03474 0.34845
 H594 H 0.37784 0.03690 0.39232
 C595 C 0.10551 0.49598 0.85346
 C596 C 0.11902 0.46854 0.85929
 C597 C 0.14463 0.46737 0.87632
 C598 C 0.15703 0.49368 0.88779
 C599 C 0.14370 0.52126 0.88113
 C600 C 0.11811 0.52236 0.86411
 C601 C 0.07788 0.49700 0.83791
 C602 C 0.05437 0.49820 0.82556
 H603 H 0.10945 0.44798 0.85114
 H604 H 0.15456 0.44586 0.88080
 H605 H 0.15235 0.54183 0.89002
 H606 H 0.10774 0.54370 0.85987
 C607 C 0.64624 -0.00555 0.39261
 C608 C 0.64180 0.02106 0.37561
 C609 C 0.62420 0.02061 0.35038
 C610 C 0.61077 -0.00651 0.34186
 C611 C 0.61607 -0.03327 0.35863
 C612 C 0.63365 -0.03276 0.38386
 C613 C 0.66227 -0.00466 0.41995
 C614 C 0.67499 -0.00360 0.44325
 H615 H 0.65144 0.04226 0.38219
 H616 H 0.62081 0.04152 0.33774
 H617 H 0.60569 -0.05443 0.35293
 H618 H 0.63680 -0.05346 0.39696
 C619 C 0.89440 0.49887 0.14619
 C620 C 0.87826 0.47205 0.14191
 C621 C 0.85271 0.47231 0.12475
 C622 C 0.84301 0.49945 0.11161
 C623 C 0.85899 0.52638 0.11669
 C624 C 0.88452 0.52605 0.13383
 C625 C 0.92194 0.49842 0.16191
 C626 C 0.94543 0.49819 0.17437
 H627 H 0.88572 0.45087 0.15137
 H628 H 0.84071 0.45126 0.12151
 H629 H 0.85243 0.54757 0.10651
 H630 H 0.89695 0.54693 0.13686
 C631 C 0.35549 0.00698 0.60666
 C632 C 0.36718 -0.01911 0.61959
 C633 C 0.38457 -0.01755 0.64486
 C634 C 0.39058 0.01020 0.65755
 C635 C 0.37810 0.03622 0.64484
 C636 C 0.36069 0.03460 0.61953
 C637 C 0.33949 0.00550 0.57935
 C638 C 0.32679 0.00391 0.55609
 H639 H 0.36343 -0.04057 0.60970
 H640 H 0.39423 -0.03790 0.65376
 H641 H 0.38206 0.05785 0.65427
 H642 H 0.35174 0.05494 0.60971
   
