data_POSCAR
  _audit_creation_date              2014-09-24
  _audit_creation_method            'ToBaCCo'
  _symmetry_space_group_name_H-M    'P1'
  _symmetry_Int_Tables_number       1
  _symmetry_cell_setting            triclinic
  loop_
  _symmetry_equiv_pos_as_xyz
 x,y,z
_cell_length_a 44.1815
_cell_length_b 44.8514
_cell_length_c 44.8492
_cell_angle_alpha 90.095600
_cell_angle_beta 89.993200
_cell_angle_gamma 89.962100
loop_
  _atom_site_label
  _atom_site_type_symbol
  _atom_site_fract_x
  _atom_site_fract_y
  _atom_site_fract_z
C1 C 0.27526 0.23489 0.23792
 C2 C 0.26247 0.22233 0.26362
 C3 C 0.23717 0.23522 0.27647
 C4 C 0.22441 0.26093 0.26391
 C5 C 0.23703 0.27330 0.23859
 C6 C 0.26266 0.26024 0.22555
 C7 C 0.29978 0.22715 0.22063
 N8 N 0.30242 0.24724 0.19810
 C9 C 0.27975 0.26755 0.20100
 C10 C 0.22002 0.29793 0.23132
 N11 N 0.19738 0.30088 0.25164
 C12 C 0.19995 0.27830 0.27168
 C13 C 0.22967 0.21833 0.30096
 N14 N 0.24982 0.19553 0.30334
 C15 C 0.26997 0.19787 0.28055
 H16 H 0.31486 0.20852 0.22448
 H17 H 0.27569 0.28611 0.18612
 H18 H 0.22413 0.31284 0.21281
 H19 H 0.18490 0.27449 0.29033
 H20 H 0.21113 0.22262 0.31616
 H21 H 0.28852 0.18267 0.27632
 C22 C 0.72496 -0.23600 0.23733
 C23 C 0.73748 -0.22362 0.26328
 C24 C 0.76228 -0.23693 0.27656
 C25 C 0.77481 -0.26287 0.26413
 C26 C 0.76254 -0.27494 0.23856
 C27 C 0.73725 -0.26155 0.22520
 C28 C 0.70089 -0.22789 0.21967
 N29 N 0.69789 -0.24807 0.19703
 C30 C 0.72032 -0.26874 0.20051
 C31 C 0.77950 -0.29962 0.23131
 N32 N 0.80192 -0.30314 0.25197
 C33 C 0.79889 -0.28054 0.27220
 C34 C 0.76965 -0.22013 0.30121
 N35 N 0.74987 -0.19698 0.30327
 C36 C 0.73010 -0.19900 0.28013
 H37 H 0.68620 -0.20908 0.22396
 H38 H 0.72485 -0.28741 0.18590
 H39 H 0.77498 -0.31419 0.21261
 H40 H 0.81357 -0.27629 0.29101
 H41 H 0.78784 -0.22470 0.31671
 H42 H 0.71191 -0.18348 0.27559
 C43 C 0.72491 0.23696 0.76200
 C44 C 0.73743 0.22453 0.73607
 C45 C 0.76220 0.23781 0.72273
 C46 C 0.77471 0.26378 0.73510
 C47 C 0.76241 0.27591 0.76065
 C48 C 0.73716 0.26255 0.77406
 C49 C 0.70090 0.22885 0.77971
 N50 N 0.69789 0.24905 0.80234
 C51 C 0.72025 0.26975 0.79878
 C52 C 0.77935 0.30058 0.76786
 N53 N 0.80178 0.30405 0.74721
 C54 C 0.79878 0.28143 0.72702
 C55 C 0.76960 0.22092 0.69815
 N56 N 0.74986 0.19776 0.69618
 C57 C 0.73010 0.19985 0.71932
 H58 H 0.68626 0.21001 0.77548
 H59 H 0.72477 0.28844 0.81336
 H60 H 0.77481 0.31517 0.78655
 H61 H 0.81348 0.27713 0.70822
 H62 H 0.78779 0.22542 0.68263
 H63 H 0.71195 0.18433 0.72393
 C64 C 0.27471 -0.23561 0.76338
 C65 C 0.26216 -0.22323 0.73746
 C66 C 0.23734 -0.23651 0.72419
 C67 C 0.22480 -0.26240 0.73659
 C68 C 0.23709 -0.27447 0.76212
 C69 C 0.26241 -0.26112 0.77547
 C70 C 0.29882 -0.22754 0.78101
 N71 N 0.30184 -0.24771 0.80360
 C72 C 0.27938 -0.26833 0.80011
 C73 C 0.22013 -0.29913 0.76931
 N74 N 0.19771 -0.30263 0.74865
 C75 C 0.20072 -0.28005 0.72849
 C76 C 0.22997 -0.21976 0.69957
 N77 N 0.24977 -0.19666 0.69751
 C78 C 0.26956 -0.19867 0.72064
 H79 H 0.31353 -0.20878 0.77673
 H80 H 0.27486 -0.28698 0.81468
 H81 H 0.22466 -0.31370 0.78796
 H82 H 0.18603 -0.27578 0.70969
 H83 H 0.21177 -0.22433 0.68407
 H84 H 0.28778 -0.18319 0.72516
 C85 C 0.72478 -0.23554 0.76283
 C86 C 0.73731 -0.22314 0.73692
 C87 C 0.76214 -0.23643 0.72362
 C88 C 0.77469 -0.26235 0.73597
 C89 C 0.76241 -0.27443 0.76149
 C90 C 0.73709 -0.26108 0.77487
 C91 C 0.70068 -0.22746 0.78051
 N92 N 0.69770 -0.24765 0.80307
 C93 C 0.72015 -0.26829 0.79953
 C94 C 0.77938 -0.29909 0.76868
 N95 N 0.80183 -0.30259 0.74803
 C96 C 0.79880 -0.28000 0.72787
 C97 C 0.76952 -0.21963 0.69903
 N98 N 0.74972 -0.19650 0.69702
 C99 C 0.72992 -0.19853 0.72014
 H100 H 0.68597 -0.20867 0.77628
 H101 H 0.72471 -0.28696 0.81408
 H102 H 0.77486 -0.31366 0.78733
 H103 H 0.81350 -0.27573 0.70908
 H104 H 0.78773 -0.22419 0.68353
 H105 H 0.71171 -0.18303 0.72471
 C106 C 0.27590 0.23632 0.76220
 C107 C 0.26294 0.22349 0.73668
 C108 C 0.23790 0.23654 0.72358
 C109 C 0.22555 0.26267 0.73575
 C110 C 0.23842 0.27534 0.76085
 C111 C 0.26388 0.26213 0.77405
 C112 C 0.30012 0.22838 0.77972
 N113 N 0.30344 0.24886 0.80205
 C114 C 0.28112 0.26962 0.79845
 C115 C 0.22165 0.30023 0.76788
 N116 N 0.19891 0.30302 0.74765
 C117 C 0.20121 0.28012 0.72787
 C118 C 0.23020 0.21936 0.69930
 N119 N 0.25003 0.19625 0.69725
 C120 C 0.27012 0.19864 0.72009
 H121 H 0.31461 0.20938 0.77562
 H122 H 0.27678 0.28849 0.81285
 H123 H 0.22589 0.31533 0.78626
 H124 H 0.18597 0.27607 0.70941
 H125 H 0.21182 0.22370 0.68395
 H126 H 0.28848 0.18328 0.72454
 C127 C 0.27458 -0.23604 0.23694
 C128 C 0.26204 -0.22368 0.26290
 C129 C 0.23723 -0.23698 0.27614
 C130 C 0.22470 -0.26287 0.26366
 C131 C 0.23699 -0.27493 0.23808
 C132 C 0.26230 -0.26156 0.22476
 C133 C 0.29868 -0.22795 0.21933
 N134 N 0.30172 -0.24810 0.19667
 C135 C 0.27928 -0.26874 0.20008
 C136 C 0.22005 -0.29960 0.23081
 N137 N 0.19764 -0.30313 0.25147
 C138 C 0.20064 -0.28054 0.27171
 C139 C 0.22986 -0.22023 0.30083
 N140 N 0.24966 -0.19712 0.30296
 C141 C 0.26943 -0.19912 0.27981
 H142 H 0.31338 -0.20918 0.22368
 H143 H 0.27478 -0.28739 0.18545
 H144 H 0.22459 -0.31416 0.21210
 H145 H 0.18596 -0.27629 0.29053
 H146 H 0.21167 -0.22480 0.31633
 H147 H 0.28764 -0.18363 0.27532
 C148 C 0.72565 0.23549 0.23792
 C149 C 0.73800 0.22335 0.26403
 C150 C 0.76300 0.23650 0.27713
 C151 C 0.77591 0.26205 0.26439
 C152 C 0.76388 0.27386 0.23862
 C153 C 0.73848 0.26061 0.22535
 C154 C 0.70135 0.22758 0.22043
 N155 N 0.69904 0.24737 0.19760
 C156 C 0.72174 0.26763 0.20048
 C157 C 0.78103 0.29829 0.23119
 N158 N 0.80334 0.30196 0.25194
 C159 C 0.80008 0.27965 0.27238
 C160 C 0.77019 0.21992 0.30192
 N161 N 0.75015 0.19704 0.30422
 C162 C 0.73034 0.19906 0.28111
 H163 H 0.68613 0.20911 0.22440
 H164 H 0.72597 0.28602 0.18546
 H165 H 0.77664 0.31266 0.21235
 H166 H 0.81457 0.27561 0.29136
 H167 H 0.78852 0.22438 0.31731
 H168 H 0.71200 0.18368 0.27670
 O169 O 0.27476 0.02828 0.47130
 O170 O 0.27477 -0.02965 0.52936
 O171 O 0.27473 -0.02971 0.47126
 O172 O 0.27475 0.02834 0.52940
 O173 O 0.22483 0.02843 0.52936
 O174 O 0.22482 -0.02973 0.47133
 O175 O 0.22485 -0.02965 0.52934
 O176 O 0.22485 0.02835 0.47134
 Cu177 Cu 0.27975 -0.00069 0.50033
 Cu178 Cu 0.21984 -0.00065 0.50034
 C179 C 0.24981 0.03825 0.46137
 C180 C 0.24981 -0.03958 0.53931
 C181 C 0.24977 -0.03968 0.46133
 C182 C 0.24979 0.03834 0.53935
 O183 O 0.72496 0.02896 0.52928
 O184 O 0.72493 -0.02910 0.47116
 O185 O 0.72489 -0.02904 0.52927
 O186 O 0.72495 0.02891 0.47122
 O187 O 0.77487 0.02888 0.47127
 O188 O 0.77481 -0.02914 0.52924
 O189 O 0.77485 -0.02922 0.47123
 O190 O 0.77488 0.02895 0.52924
 Cu191 Cu 0.71993 -0.00007 0.50023
 Cu192 Cu 0.77985 -0.00015 0.50024
 C193 C 0.74993 0.03894 0.53920
 C194 C 0.74989 -0.03912 0.46123
 C195 C 0.74984 -0.03902 0.53921
 C196 C 0.74992 0.03886 0.46132
 O197 O 0.47107 0.27153 0.02892
 O198 O 0.53004 0.27188 -0.02902
 O199 O 0.47097 0.27188 -0.02904
 O200 O 0.52994 0.27153 0.02890
 O201 O 0.53000 0.22236 0.02854
 O202 O 0.47116 0.22270 -0.02962
 O203 O 0.52991 0.22269 -0.02961
 O204 O 0.47107 0.22236 0.02856
 Cu205 Cu 0.50049 0.27663 -0.00004
 Cu206 Cu 0.50053 0.21759 -0.00055
 C207 C 0.46100 0.24690 0.03873
 C208 C 0.54006 0.24735 -0.03926
 C209 C 0.46101 0.24736 -0.03930
 C210 C 0.54006 0.24690 0.03868
 O211 O 0.52956 0.72869 0.02903
 O212 O 0.47050 0.72874 -0.02882
 O213 O 0.52955 0.72877 -0.02885
 O214 O 0.47051 0.72867 0.02903
 O215 O 0.47058 0.77786 0.02935
 O216 O 0.52937 0.77796 -0.02889
 O217 O 0.47057 0.77793 -0.02886
 O218 O 0.52939 0.77788 0.02934
 Cu219 Cu 0.50004 0.72379 0.00008
 Cu220 Cu 0.49998 0.78284 0.00025
 C221 C 0.53957 0.75327 0.03911
 C222 C 0.46044 0.75333 -0.03877
 C223 C 0.53954 0.75337 -0.03881
 C224 C 0.46044 0.75324 0.03912
 O225 O 0.02954 0.47106 0.27742
 O226 O -0.02950 0.52908 0.27752
 O227 O -0.02930 0.47084 0.27760
 O228 O 0.02929 0.52922 0.27736
 O229 O 0.02947 0.52871 0.22817
 O230 O -0.02975 0.47105 0.22841
 O231 O -0.02962 0.52891 0.22833
 O232 O 0.02916 0.47074 0.22825
 Cu233 Cu 0.00002 0.50007 0.28241
 Cu234 Cu -0.00018 0.49986 0.22336
 C235 C 0.03941 0.46090 0.25280
 C236 C -0.03966 0.53893 0.25293
 C237 C -0.03959 0.46099 0.25303
 C238 C 0.03947 0.53890 0.25271
 O239 O 0.02927 0.52980 0.72232
 O240 O -0.02936 0.47146 0.72196
 O241 O -0.02951 0.52968 0.72214
 O242 O 0.02953 0.47166 0.72215
 O243 O 0.02913 0.47141 0.77132
 O244 O -0.02964 0.52957 0.77134
 O245 O -0.02984 0.47174 0.77114
 O246 O 0.02942 0.52936 0.77151
 Cu247 Cu -0.00001 0.50064 0.71721
 Cu248 Cu -0.00024 0.50052 0.77625
 C249 C 0.03943 0.53951 0.74699
 C250 C -0.03971 0.46169 0.74650
 C251 C -0.03967 0.53957 0.74676
 C252 C 0.03943 0.46157 0.74675
 C253 C 0.36968 0.24699 0.13045
 C254 C 0.36002 0.21983 0.14271
 C255 C 0.33786 0.22003 0.16511
 C256 C 0.32530 0.24713 0.17519
 C257 C 0.33530 0.27415 0.16258
 C258 C 0.35750 0.27422 0.14025
 C259 C 0.39299 0.24693 0.10691
 C260 C 0.40274 0.27411 0.09477
 C261 C 0.42497 0.27396 0.07246
 C262 C 0.43741 0.24686 0.06221
 C263 C 0.42728 0.21978 0.07463
 C264 C 0.40511 0.21971 0.09703
 C265 C 0.36780 0.30096 0.12754
 C266 C 0.39005 0.30091 0.10520
 C267 C 0.37267 0.19303 0.13224
 C268 C 0.39482 0.19297 0.10978
 H269 H 0.35860 0.32212 0.13493
 H270 H 0.39738 0.32203 0.09600
 H271 H 0.36539 0.17191 0.14149
 H272 H 0.40399 0.17181 0.10236
 H273 H 0.33007 0.19911 0.17437
 H274 H 0.32611 0.29513 0.17045
 H275 H 0.43252 0.29493 0.06308
 H276 H 0.43669 0.19880 0.06699
 C277 C 0.63149 0.75269 0.13015
 C278 C 0.63673 0.77856 0.14694
 C279 C 0.65886 0.77820 0.16936
 C280 C 0.67622 0.75223 0.17502
 C281 C 0.67055 0.72653 0.15747
 C282 C 0.64819 0.72661 0.13529
 C283 C 0.60801 0.75288 0.10676
 C284 C 0.60241 0.72680 0.09031
 C285 C 0.57988 0.72701 0.06830
 C286 C 0.56326 0.75318 0.06243
 C287 C 0.56936 0.77922 0.07900
 C288 C 0.59158 0.77912 0.10134
 C289 C 0.64205 0.70098 0.11825
 C290 C 0.61949 0.70105 0.09621
 C291 C 0.61977 0.80439 0.14092
 C292 C 0.59764 0.80469 0.11846
 H293 H 0.65473 0.68065 0.12204
 H294 H 0.61543 0.68079 0.08364
 H295 H 0.62364 0.82457 0.15367
 H296 H 0.58510 0.82508 0.11453
 H297 H 0.66293 0.79855 0.18165
 H298 H 0.68268 0.70599 0.16147
 H299 H 0.57549 0.70691 0.05557
 H300 H 0.55660 0.79942 0.07477
 C301 C 0.63171 0.24818 -0.13058
 C302 C 0.63697 0.22232 -0.14739
 C303 C 0.65904 0.22273 -0.16987
 C304 C 0.67629 0.24872 -0.17559
 C305 C 0.67059 0.27441 -0.15802
 C306 C 0.64830 0.27429 -0.13576
 C307 C 0.60830 0.24794 -0.10711
 C308 C 0.60267 0.27400 -0.09063
 C309 C 0.58021 0.27373 -0.06854
 C310 C 0.56369 0.24752 -0.06264
 C311 C 0.56982 0.22151 -0.07925
 C312 C 0.59197 0.22166 -0.10165
 C313 C 0.64213 0.29990 -0.11869
 C314 C 0.61965 0.29978 -0.09657
 C315 C 0.62012 0.19645 -0.14133
 C316 C 0.59806 0.19611 -0.11879
 H317 H 0.65473 0.32026 -0.12252
 H318 H 0.61556 0.32003 -0.08399
 H319 H 0.62401 0.17628 -0.15409
 H320 H 0.58560 0.17569 -0.11483
 H321 H 0.66313 0.20237 -0.18217
 H322 H 0.68265 0.29497 -0.16206
 H323 H 0.57578 0.29382 -0.05578
 H324 H 0.55714 0.20128 -0.07499
 C325 C 0.36839 0.75291 -0.12967
 C326 C 0.35167 0.72686 -0.13486
 C327 C 0.32926 0.72683 -0.15700
 C328 C 0.32356 0.75254 -0.17445
 C329 C 0.34094 0.77848 -0.16874
 C330 C 0.36313 0.77880 -0.14636
 C331 C 0.39191 0.75306 -0.10633
 C332 C 0.40836 0.77928 -0.10084
 C333 C 0.43062 0.77933 -0.07853
 C334 C 0.43673 0.75328 -0.06206
 C335 C 0.42010 0.72714 -0.06800
 C336 C 0.39753 0.72697 -0.08998
 C337 C 0.38011 0.80460 -0.14028
 C338 C 0.40228 0.80486 -0.11785
 C339 C 0.35783 0.70122 -0.11793
 C340 C 0.38043 0.70124 -0.09593
 H341 H 0.37622 0.82479 -0.15295
 H342 H 0.41482 0.82523 -0.11387
 H343 H 0.34514 0.68091 -0.12177
 H344 H 0.38451 0.68097 -0.08345
 H345 H 0.31711 0.70631 -0.16105
 H346 H 0.33686 0.79884 -0.18094
 H347 H 0.44339 0.79952 -0.07424
 H348 H 0.42451 0.70703 -0.05535
 C349 C 0.13044 0.36886 0.25221
 C350 C 0.14250 0.35908 0.22493
 C351 C 0.16461 0.33664 0.22488
 C352 C 0.17462 0.32391 0.25185
 C353 C 0.16218 0.33398 0.27901
 C354 C 0.14012 0.35649 0.27932
 C355 C 0.10722 0.39250 0.25239
 C356 C 0.09523 0.40236 0.27967
 C357 C 0.07313 0.42483 0.27971
 C358 C 0.06295 0.43736 0.25270
 C359 C 0.07527 0.42714 0.22554
 C360 C 0.09743 0.40475 0.22526
 C361 C 0.12760 0.36693 0.30618
 C362 C 0.10554 0.38949 0.30635
 C363 C 0.13216 0.37191 0.19824
 C364 C 0.10999 0.39434 0.19840
 H365 H 0.13490 0.35760 0.32725
 H366 H 0.09647 0.39689 0.32756
 H367 H 0.14127 0.36453 0.17704
 H368 H 0.10264 0.40363 0.17732
 H369 H 0.17370 0.32878 0.20387
 H370 H 0.17000 0.32463 0.29989
 H371 H 0.06381 0.43245 0.30074
 H372 H 0.06767 0.43661 0.20461
 C373 C 0.13130 0.63054 0.74781
 C374 C 0.13656 0.64728 0.72196
 C375 C 0.15870 0.66968 0.72236
 C376 C 0.17603 0.67538 0.74833
 C377 C 0.17035 0.65788 0.77401
 C378 C 0.14797 0.63571 0.77390
 C379 C 0.10782 0.60717 0.74758
 C380 C 0.10220 0.59076 0.77363
 C381 C 0.07968 0.56874 0.77336
 C382 C 0.06309 0.56284 0.74717
 C383 C 0.06921 0.57938 0.72118
 C384 C 0.09141 0.60171 0.72132
 C385 C 0.14181 0.61872 0.79950
 C386 C 0.11926 0.59669 0.79939
 C387 C 0.11962 0.64123 0.69612
 C388 C 0.09750 0.61878 0.69578
 H389 H 0.15447 0.62253 0.81984
 H390 H 0.11518 0.58416 0.81963
 H391 H 0.12351 0.65394 0.67596
 H392 H 0.08498 0.61483 0.67538
 H393 H 0.16278 0.68192 0.70202
 H394 H 0.18246 0.66191 0.79456
 H395 H 0.07526 0.55603 0.79344
 H396 H 0.05647 0.57513 0.70096
 C397 C -0.13163 0.62998 0.25256
 C398 C -0.14831 0.63518 0.22650
 C399 C -0.17070 0.65736 0.22647
 C400 C -0.17640 0.67485 0.25221
 C401 C -0.15905 0.66913 0.27816
 C402 C -0.13690 0.64671 0.27847
 C403 C -0.10813 0.60659 0.25270
 C404 C -0.09172 0.60111 0.27893
 C405 C -0.06948 0.57876 0.27897
 C406 C -0.06336 0.56225 0.25290
 C407 C -0.07996 0.56818 0.22674
 C408 C -0.10251 0.59020 0.22658
 C409 C -0.11995 0.64063 0.30429
 C410 C -0.09781 0.61816 0.30454
 C411 C -0.14214 0.61820 0.20082
 C412 C -0.11957 0.59616 0.20084
 H413 H -0.12385 0.65333 0.32450
 H414 H -0.08529 0.61419 0.32492
 H415 H -0.15481 0.62204 0.18050
 H416 H -0.11549 0.58364 0.18055
 H417 H -0.18281 0.66141 0.20594
 H418 H -0.16314 0.68137 0.29855
 H419 H -0.05674 0.57448 0.29917
 H420 H -0.07555 0.55550 0.20661
 C421 C -0.13175 0.37082 0.74667
 C422 C -0.14850 0.36568 0.77271
 C423 C -0.17088 0.34354 0.77271
 C424 C -0.17652 0.32602 0.74698
 C425 C -0.15911 0.33168 0.72105
 C426 C -0.13695 0.35407 0.72077
 C427 C -0.10824 0.39418 0.74656
 C428 C -0.09175 0.39960 0.72037
 C429 C -0.06949 0.42190 0.72037
 C430 C -0.06344 0.43842 0.74645
 C431 C -0.08013 0.43256 0.77256
 C432 C -0.10269 0.41058 0.77268
 C433 C -0.11993 0.36010 0.69498
 C434 C -0.09778 0.38253 0.69476
 C435 C -0.14239 0.38268 0.79837
 C436 C -0.11982 0.40469 0.79839
 H437 H -0.12378 0.34738 0.67478
 H438 H -0.08519 0.38646 0.67441
 H439 H -0.15512 0.37889 0.81867
 H440 H -0.11579 0.41722 0.81867
 H441 H -0.18304 0.33953 0.79322
 H442 H -0.16316 0.31942 0.70068
 H443 H -0.05668 0.42614 0.70020
 H444 H -0.07577 0.44525 0.79269
 C445 C 0.24982 0.12880 0.37038
 C446 C 0.27738 0.13801 0.35786
 C447 C 0.27725 0.16001 0.33568
 C448 C 0.24982 0.17287 0.32608
 C449 C 0.22239 0.16335 0.33897
 C450 C 0.22225 0.14128 0.36109
 C451 C 0.24981 0.10563 0.39369
 C452 C 0.22223 0.09631 0.40611
 C453 C 0.22235 0.07423 0.42822
 C454 C 0.24981 0.06155 0.43799
 C455 C 0.27728 0.07125 0.42528
 C456 C 0.27739 0.09324 0.40308
 C457 C 0.19510 0.13140 0.37406
 C458 C 0.19509 0.10929 0.39617
 C459 C 0.30453 0.12508 0.36783
 C460 C 0.30453 0.10309 0.39007
 H461 H 0.17368 0.14084 0.36705
 H462 H 0.17366 0.10230 0.40559
 H463 H 0.32595 0.13202 0.35836
 H464 H 0.32597 0.09370 0.39712
 H465 H 0.29849 0.16745 0.32621
 H466 H 0.20115 0.17279 0.33148
 H467 H 0.20108 0.06701 0.43784
 H468 H 0.29854 0.06165 0.43256
 C469 C 0.74991 0.13039 0.62956
 C470 C 0.77742 0.14332 0.63840
 C471 C 0.77727 0.16563 0.66034
 C472 C 0.74988 0.17493 0.67353
 C473 C 0.72251 0.16164 0.66439
 C474 C 0.72238 0.13941 0.64237
 C475 C 0.74992 0.10695 0.60646
 C476 C 0.72239 0.09414 0.59750
 C477 C 0.72251 0.07192 0.57547
 C478 C 0.74993 0.06240 0.56248
 C479 C 0.77735 0.07548 0.57183
 C480 C 0.77746 0.09781 0.59376
 C481 C 0.69529 0.12605 0.63286
 C482 C 0.69529 0.10382 0.61078
 C483 C 0.80453 0.13361 0.62516
 C484 C 0.80455 0.11122 0.60324
 H485 H 0.67390 0.13284 0.64255
 H486 H 0.67389 0.09410 0.60408
 H487 H 0.82591 0.14339 0.63181
 H488 H 0.82595 0.10438 0.59361
 H489 H 0.79847 0.17543 0.66749
 H490 H 0.70130 0.16891 0.67410
 H491 H 0.70128 0.06201 0.56852
 H492 H 0.79859 0.06841 0.56199
 C493 C 0.24980 -0.13001 0.63040
 C494 C 0.22227 -0.14278 0.63938
 C495 C 0.22240 -0.16482 0.66152
 C496 C 0.24978 -0.17402 0.67476
 C497 C 0.27717 -0.16088 0.66549
 C498 C 0.27732 -0.13891 0.64327
 C499 C 0.24980 -0.10687 0.60706
 C500 C 0.27735 -0.09423 0.59796
 C501 C 0.27724 -0.07227 0.57573
 C502 C 0.24981 -0.06286 0.56270
 C503 C 0.22238 -0.07580 0.57219
 C504 C 0.22226 -0.09786 0.59432
 C505 C 0.30442 -0.12572 0.63360
 C506 C 0.30444 -0.10377 0.61131
 C507 C 0.19517 -0.13320 0.62608
 C508 C 0.19516 -0.11110 0.60395
 H509 H 0.32581 -0.13242 0.64333
 H510 H 0.32585 -0.09418 0.60449
 H511 H 0.17377 -0.14285 0.63285
 H512 H 0.17376 -0.10434 0.59428
 H513 H 0.20119 -0.17449 0.66877
 H514 H 0.29837 -0.16807 0.67523
 H515 H 0.29848 -0.06247 0.56868
 H516 H 0.20115 -0.06880 0.56232
 C517 C 0.74987 -0.13002 0.37030
 C518 C 0.72235 -0.13892 0.35743
 C519 C 0.72249 -0.16100 0.33525
 C520 C 0.74987 -0.17426 0.32602
 C521 C 0.77725 -0.16506 0.33926
 C522 C 0.77739 -0.14290 0.36136
 C523 C 0.74988 -0.10675 0.39358
 C524 C 0.77741 -0.09773 0.40633
 C525 C 0.77730 -0.07555 0.42841
 C526 C 0.74988 -0.06250 0.43785
 C527 C 0.72246 -0.07191 0.42482
 C528 C 0.72234 -0.09398 0.40263
 C529 C 0.80449 -0.13332 0.37466
 C530 C 0.80451 -0.11109 0.39675
 C531 C 0.69525 -0.12560 0.36705
 C532 C 0.69524 -0.10353 0.38929
 H533 H 0.82588 -0.14306 0.36794
 H534 H 0.82591 -0.10434 0.40642
 H535 H 0.67386 -0.13230 0.35731
 H536 H 0.67385 -0.09385 0.39607
 H537 H 0.70128 -0.16819 0.32550
 H538 H 0.79846 -0.17482 0.33205
 H539 H 0.79854 -0.06856 0.43829
 H540 H 0.70122 -0.06201 0.43184
 C541 C 0.63133 0.75297 -0.13000
 C542 C 0.64805 0.72691 -0.13526
 C543 C 0.67039 0.72688 -0.15747
 C544 C 0.67602 0.75260 -0.17492
 C545 C 0.65863 0.77854 -0.16914
 C546 C 0.63652 0.77886 -0.14669
 C547 C 0.60788 0.75312 -0.10657
 C548 C 0.59143 0.77934 -0.10101
 C549 C 0.56925 0.77939 -0.07863
 C550 C 0.56320 0.75334 -0.06216
 C551 C 0.57984 0.72719 -0.06816
 C552 C 0.60234 0.72702 -0.09022
 C553 C 0.61954 0.80467 -0.14054
 C554 C 0.59744 0.80493 -0.11803
 C555 C 0.64196 0.70126 -0.11833
 C556 C 0.61944 0.70129 -0.09625
 H557 H 0.62337 0.82486 -0.15321
 H558 H 0.58489 0.82530 -0.11400
 H559 H 0.65466 0.68095 -0.12222
 H560 H 0.61542 0.68101 -0.08376
 H561 H 0.68253 0.70635 -0.16157
 H562 H 0.66267 0.79891 -0.18135
 H563 H 0.55647 0.79958 -0.07429
 H564 H 0.57549 0.70707 -0.05551
 C565 C 0.36970 0.24816 -0.13094
 C566 C 0.36434 0.22221 -0.14757
 C567 C 0.34230 0.22258 -0.17008
 C568 C 0.32515 0.24863 -0.17599
 C569 C 0.33100 0.27443 -0.15864
 C570 C 0.35326 0.27434 -0.13636
 C571 C 0.39303 0.24793 -0.10740
 C572 C 0.39873 0.27407 -0.09108
 C573 C 0.42110 0.27380 -0.06889
 C574 C 0.43745 0.24753 -0.06275
 C575 C 0.43126 0.22145 -0.07922
 C576 C 0.40920 0.22159 -0.10171
 C577 C 0.35952 0.30004 -0.11946
 C578 C 0.38193 0.29992 -0.09726
 C579 C 0.38104 0.19629 -0.14128
 C580 C 0.40303 0.19596 -0.11869
 H581 H 0.34704 0.32044 -0.12346
 H582 H 0.38607 0.32023 -0.08481
 H583 H 0.37707 0.17605 -0.15391
 H584 H 0.41537 0.17549 -0.11455
 H585 H 0.33811 0.20215 -0.18220
 H586 H 0.31905 0.29503 -0.16284
 H587 H 0.42558 0.29394 -0.05626
 H588 H 0.44381 0.20116 -0.07479
 C589 C 0.36830 0.75264 0.12996
 C590 C 0.35160 0.72658 0.13503
 C591 C 0.32917 0.72650 0.15715
 C592 C 0.32344 0.75219 0.17471
 C593 C 0.34081 0.77815 0.16911
 C594 C 0.36301 0.77851 0.14676
 C595 C 0.39186 0.75283 0.10663
 C596 C 0.40829 0.77906 0.10128
 C597 C 0.43057 0.77916 0.07899
 C598 C 0.43672 0.75314 0.06241
 C599 C 0.42010 0.72697 0.06822
 C600 C 0.39751 0.72676 0.09018
 C601 C 0.37998 0.80433 0.14080
 C602 C 0.40217 0.80463 0.11839
 C603 C 0.35780 0.70095 0.11799
 C604 C 0.38042 0.70102 0.09601
 H605 H 0.37606 0.82450 0.15355
 H606 H 0.41471 0.82501 0.11451
 H607 H 0.34512 0.68063 0.12172
 H608 H 0.38453 0.68076 0.08344
 H609 H 0.31703 0.70597 0.16110
 H610 H 0.33669 0.79850 0.18140
 H611 H 0.44333 0.79936 0.07480
 H612 H 0.42454 0.70688 0.05548
 C613 C 0.63177 0.24704 0.13000
 C614 C 0.64411 0.27425 0.13956
 C615 C 0.66637 0.27421 0.16184
 C616 C 0.67624 0.24722 0.17462
 C617 C 0.66354 0.22012 0.16476
 C618 C 0.64133 0.21990 0.14241
 C619 C 0.60835 0.24696 0.10657
 C620 C 0.59607 0.21974 0.09692
 C621 C 0.57379 0.21980 0.07462
 C622 C 0.56372 0.24686 0.06208
 C623 C 0.57634 0.27395 0.07210
 C624 C 0.59868 0.27412 0.09429
 C625 C 0.62851 0.19310 0.13218
 C626 C 0.60628 0.19303 0.10980
 C627 C 0.63388 0.30097 0.12672
 C628 C 0.61153 0.30091 0.10448
 H629 H 0.63572 0.17201 0.14155
 H630 H 0.59698 0.17187 0.10256
 H631 H 0.64321 0.32212 0.13394
 H632 H 0.60426 0.32201 0.09518
 H633 H 0.67565 0.29519 0.16956
 H634 H 0.67124 0.19923 0.17418
 H635 H 0.56424 0.19883 0.06715
 H636 H 0.56884 0.29490 0.06262
 C637 C -0.13166 0.63060 0.74730
 C638 C -0.14837 0.63580 0.77337
 C639 C -0.17077 0.65796 0.77344
 C640 C -0.17646 0.67543 0.74774
 C641 C -0.15908 0.66971 0.72179
 C642 C -0.13691 0.64731 0.72143
 C643 C -0.10815 0.60722 0.74712
 C644 C -0.09171 0.60172 0.72088
 C645 C -0.06947 0.57939 0.72079
 C646 C -0.06336 0.56289 0.74683
 C647 C -0.07999 0.56883 0.77299
 C648 C -0.10255 0.59085 0.77320
 C649 C -0.11994 0.64122 0.69561
 C650 C -0.09779 0.61876 0.69532
 C651 C -0.14221 0.61884 0.79900
 C652 C -0.11963 0.59681 0.79894
 H653 H -0.12382 0.65390 0.67543
 H654 H -0.08524 0.61477 0.67493
 H655 H -0.15491 0.62268 0.81932
 H656 H -0.11556 0.58431 0.81920
 H657 H -0.18290 0.66202 0.79398
 H658 H -0.16316 0.68193 0.70143
 H659 H -0.05670 0.57509 0.70060
 H660 H -0.07559 0.55616 0.79309
 C661 C -0.13065 0.36917 0.25257
 C662 C -0.14711 0.36363 0.22643
 C663 C -0.16926 0.34127 0.22636
 C664 C -0.17501 0.32397 0.25216
 C665 C -0.15785 0.32999 0.27818
 C666 C -0.13590 0.35258 0.27852
 C667 C -0.10743 0.39280 0.25276
 C668 C -0.09122 0.39862 0.27906
 C669 C -0.06923 0.42117 0.27914
 C670 C -0.06314 0.43755 0.25304
 C671 C -0.07956 0.43130 0.22682
 C672 C -0.10184 0.40906 0.22662
 C673 C -0.11917 0.35900 0.30441
 C674 C -0.09727 0.38168 0.30470
 C675 C -0.14097 0.38048 0.20073
 C676 C -0.11867 0.40275 0.20080
 H677 H -0.12305 0.34641 0.32465
 H678 H -0.08491 0.38591 0.32513
 H679 H -0.15347 0.37638 0.18035
 H680 H -0.11461 0.41517 0.18049
 H681 H -0.18121 0.33697 0.20578
 H682 H -0.16195 0.31788 0.29860
 H683 H -0.05662 0.42569 0.29938
 H684 H -0.07516 0.44387 0.20666
 C685 C 0.13146 0.37050 0.74718
 C686 C 0.14109 0.35800 0.72007
 C687 C 0.16339 0.33572 0.72034
 C688 C 0.17610 0.32600 0.74746
 C689 C 0.16617 0.33888 0.77443
 C690 C 0.14382 0.36109 0.77442
 C691 C 0.10794 0.39385 0.74704
 C692 C 0.09818 0.40620 0.77417
 C693 C 0.07574 0.42833 0.77394
 C694 C 0.06313 0.43819 0.74682
 C695 C 0.07328 0.42556 0.71979
 C696 C 0.09564 0.40334 0.71979
 C697 C 0.13351 0.37402 0.80112
 C698 C 0.11106 0.39618 0.80100
 C699 C 0.12826 0.36807 0.69324
 C700 C 0.10594 0.39037 0.69311
 H701 H 0.14285 0.36693 0.82229
 H702 H 0.10373 0.40555 0.82208
 H703 H 0.13553 0.35864 0.67217
 H704 H 0.09663 0.39749 0.67193
 H705 H 0.17113 0.32623 0.69946
 H706 H 0.17547 0.33128 0.79543
 H707 H 0.06818 0.43789 0.79487
 H708 H 0.06374 0.43290 0.69879
 C709 C 0.13128 0.62999 0.25213
 C710 C 0.13653 0.64675 0.27803
 C711 C 0.15865 0.66916 0.27769
 C712 C 0.17598 0.67487 0.25173
 C713 C 0.17030 0.65735 0.22600
 C714 C 0.14795 0.63517 0.22605
 C715 C 0.10782 0.60660 0.25230
 C716 C 0.10221 0.59018 0.22621
 C717 C 0.07970 0.56814 0.22641
 C718 C 0.06312 0.56224 0.25259
 C719 C 0.06923 0.57880 0.27863
 C720 C 0.09142 0.60114 0.27855
 C721 C 0.14179 0.61816 0.20040
 C722 C 0.11926 0.59611 0.20045
 C723 C 0.11960 0.64069 0.30386
 C724 C 0.09749 0.61822 0.30414
 H725 H 0.15445 0.62198 0.18007
 H726 H 0.11519 0.58357 0.18018
 H727 H 0.12349 0.65341 0.32406
 H728 H 0.08498 0.61427 0.32453
 H729 H 0.16273 0.68140 0.29807
 H730 H 0.18242 0.66139 0.20546
 H731 H 0.07529 0.55543 0.20630
 H732 H 0.05650 0.57454 0.29885
 C733 C 0.74977 -0.12965 0.63011
 C734 C 0.72223 -0.13853 0.64295
 C735 C 0.72236 -0.16057 0.66510
 C736 C 0.74973 -0.17379 0.67434
 C737 C 0.77713 -0.16460 0.66114
 C738 C 0.77728 -0.14249 0.63906
 C739 C 0.74978 -0.10645 0.60684
 C740 C 0.77733 -0.09745 0.59412
 C741 C 0.77723 -0.07534 0.57204
 C742 C 0.74982 -0.06233 0.56258
 C743 C 0.72238 -0.07172 0.57558
 C744 C 0.72225 -0.09372 0.59777
 C745 C 0.80439 -0.13293 0.62580
 C746 C 0.80442 -0.11076 0.60372
 C747 C 0.69514 -0.12526 0.63331
 C748 C 0.69514 -0.10325 0.61108
 H749 H 0.82578 -0.14264 0.63253
 H750 H 0.82583 -0.10402 0.59407
 H751 H 0.67374 -0.13195 0.64301
 H752 H 0.67375 -0.09360 0.60428
 H753 H 0.70114 -0.16775 0.67482
 H754 H 0.79833 -0.17433 0.66836
 H755 H 0.79848 -0.06836 0.56219
 H756 H 0.70115 -0.06186 0.56855
 C757 C 0.24971 -0.13037 0.37020
 C758 C 0.22218 -0.14317 0.36123
 C759 C 0.22230 -0.16526 0.33906
 C760 C 0.24968 -0.17447 0.32578
 C761 C 0.27707 -0.16131 0.33505
 C762 C 0.27723 -0.13929 0.35729
 C763 C 0.24973 -0.10717 0.39355
 C764 C 0.27728 -0.09449 0.40263
 C765 C 0.27718 -0.07247 0.42487
 C766 C 0.24976 -0.06303 0.43793
 C767 C 0.22233 -0.07600 0.42846
 C768 C 0.22220 -0.09813 0.40633
 C769 C 0.30434 -0.12607 0.36695
 C770 C 0.30437 -0.10406 0.38925
 C771 C 0.19509 -0.13356 0.37456
 C772 C 0.19510 -0.11140 0.39671
 H773 H 0.32572 -0.13279 0.35719
 H774 H 0.32577 -0.09444 0.39605
 H775 H 0.17369 -0.14324 0.36781
 H776 H 0.17370 -0.10463 0.40640
 H777 H 0.20109 -0.17495 0.33181
 H778 H 0.29827 -0.16851 0.32527
 H779 H 0.29842 -0.06264 0.43190
 H780 H 0.20110 -0.06899 0.43836
 C781 C 0.75002 0.13008 0.37103
 C782 C 0.77758 0.14279 0.36204
 C783 C 0.77748 0.16499 0.34006
 C784 C 0.75009 0.17441 0.32699
 C785 C 0.72267 0.16136 0.33630
 C786 C 0.72250 0.13923 0.35835
 C787 C 0.75000 0.10672 0.39413
 C788 C 0.72243 0.09411 0.40322
 C789 C 0.72252 0.07194 0.42523
 C790 C 0.74995 0.06228 0.43807
 C791 C 0.77740 0.07518 0.42860
 C792 C 0.77754 0.09744 0.40668
 C793 C 0.69536 0.12608 0.36800
 C794 C 0.69533 0.10391 0.39008
 C795 C 0.80469 0.13295 0.37514
 C796 C 0.80467 0.11065 0.39707
 H797 H 0.67397 0.13297 0.35842
 H798 H 0.67390 0.09436 0.39689
 H799 H 0.82610 0.14256 0.36837
 H800 H 0.82607 0.10370 0.40659
 H801 H 0.79871 0.17458 0.33278
 H802 H 0.70146 0.16872 0.32667
 H803 H 0.70126 0.06217 0.43228
 H804 H 0.79864 0.06800 0.43833
 C805 C 0.24989 0.12911 0.63040
 C806 C 0.27745 0.13817 0.64307
 C807 C 0.27735 0.16028 0.66522
 C808 C 0.24997 0.17340 0.67463
 C809 C 0.22253 0.16402 0.66162
 C810 C 0.22236 0.14184 0.63953
 C811 C 0.24986 0.10586 0.60710
 C812 C 0.22228 0.09671 0.59452
 C813 C 0.22237 0.07456 0.57240
 C814 C 0.24981 0.06168 0.56275
 C815 C 0.27726 0.07122 0.57563
 C816 C 0.27740 0.09327 0.59784
 C817 C 0.19522 0.13211 0.62641
 C818 C 0.19518 0.10990 0.60431
 C819 C 0.30456 0.12502 0.63325
 C820 C 0.30454 0.10296 0.61101
 H821 H 0.17383 0.14173 0.63329
 H822 H 0.17375 0.10304 0.59477
 H823 H 0.32598 0.13184 0.64283
 H824 H 0.32594 0.09340 0.60407
 H825 H 0.29859 0.16761 0.67478
 H826 H 0.20133 0.17368 0.66897
 H827 H 0.20111 0.06746 0.56265
 H828 H 0.29851 0.06146 0.56846
   
