data_POSCAR
  _audit_creation_date              2014-09-24
  _audit_creation_method            'ToBaCCo'
  _symmetry_space_group_name_H-M    'P1'
  _symmetry_Int_Tables_number       1
  _symmetry_cell_setting            triclinic
  loop_
  _symmetry_equiv_pos_as_xyz
 x,y,z
_cell_length_a 54.0781
_cell_length_b 35.8368
_cell_length_c 19.8313
_cell_angle_alpha 89.502200
_cell_angle_beta 89.627400
_cell_angle_gamma 89.732600
loop_
  _atom_site_label
  _atom_site_type_symbol
  _atom_site_fract_x
  _atom_site_fract_y
  _atom_site_fract_z
C1 C 0.76000 0.29040 0.46233
 C2 C 0.75954 0.29035 0.53116
 C3 C 0.73933 0.30765 0.57209
 C4 C 0.77936 0.27100 0.56951
 C5 C 0.78030 0.27149 0.42482
 C6 C 0.74011 0.30720 0.42062
 C7 C 0.72989 0.34343 0.55777
 C8 C 0.71072 0.35858 0.59694
 C9 C 0.70117 0.33877 0.65332
 C10 C 0.71161 0.30375 0.66904
 C11 C 0.73009 0.28826 0.62861
 C12 C 0.79587 0.29173 0.60822
 C13 C 0.81507 0.27382 0.64268
 C14 C 0.81768 0.23487 0.64025
 C15 C 0.80091 0.21410 0.60187
 C16 C 0.78188 0.23206 0.56691
 C17 C 0.77486 0.24095 0.38397
 C18 C 0.79384 0.22073 0.35286
 C19 C 0.81877 0.23081 0.36190
 C20 C 0.82402 0.26235 0.40091
 C21 C 0.80498 0.28260 0.43184
 C22 C 0.71542 0.29579 0.42737
 C23 C 0.69711 0.31142 0.38613
 C24 C 0.70331 0.33838 0.33673
 C25 C 0.72804 0.34960 0.33034
 C26 C 0.74628 0.33397 0.37143
 H27 H 0.73742 0.35988 0.51656
 H28 H 0.70426 0.38623 0.58365
 H29 H 0.70507 0.28763 0.71207
 H30 H 0.73711 0.26079 0.64155
 H31 H 0.79413 0.32181 0.61067
 H32 H 0.82785 0.29038 0.67159
 H33 H 0.76921 0.21571 0.53728
 H34 H 0.75589 0.23209 0.37775
 H35 H 0.78862 0.19713 0.32283
 H36 H 0.84295 0.27104 0.40837
 H37 H 0.80951 0.30648 0.46241
 H38 H 0.71036 0.27480 0.46451
 H39 H 0.67822 0.30258 0.39388
 H40 H 0.73333 0.37036 0.29299
 H41 H 0.76526 0.34294 0.36516
 H42 H 0.80276 0.18415 0.59750
 C43 C 0.26111 0.79169 0.46061
 C44 C 0.26103 0.79160 0.52944
 C45 C 0.24139 0.80971 0.57120
 C46 C 0.28091 0.77202 0.56717
 C47 C 0.28125 0.77287 0.42221
 C48 C 0.24107 0.80887 0.41988
 C49 C 0.23280 0.84615 0.55776
 C50 C 0.21474 0.86247 0.59917
 C51 C 0.20564 0.84313 0.65599
 C52 C 0.21471 0.80733 0.67050
 C53 C 0.23213 0.79063 0.62819
 C54 C 0.29749 0.79256 0.60599
 C55 C 0.31665 0.77448 0.64030
 C56 C 0.31913 0.73552 0.63769
 C57 C 0.30232 0.71493 0.59915
 C58 C 0.28333 0.73308 0.56425
 C59 C 0.27559 0.74311 0.37968
 C60 C 0.29445 0.72309 0.34757
 C61 C 0.31943 0.73246 0.35764
 C62 C 0.32491 0.76341 0.39786
 C63 C 0.30601 0.78353 0.42960
 C64 C 0.21630 0.79817 0.42836
 C65 C 0.19784 0.81400 0.38788
 C66 C 0.20394 0.84048 0.33755
 C67 C 0.22874 0.85110 0.32958
 C68 C 0.24713 0.83526 0.36991
 H69 H 0.24026 0.86218 0.51592
 H70 H 0.20842 0.89055 0.58794
 H71 H 0.20804 0.79205 0.71430
 H72 H 0.23848 0.76267 0.64026
 H73 H 0.29582 0.82264 0.60872
 H74 H 0.32947 0.79090 0.66936
 H75 H 0.27060 0.71686 0.53458
 H76 H 0.25656 0.73478 0.37269
 H77 H 0.28917 0.70038 0.31536
 H78 H 0.34391 0.77165 0.40577
 H79 H 0.31071 0.80695 0.46110
 H80 H 0.21129 0.77752 0.46618
 H81 H 0.17891 0.80568 0.39689
 H82 H 0.23396 0.87152 0.29154
 H83 H 0.26615 0.84374 0.36238
 H84 H 0.30407 0.68497 0.59471
 C85 C 0.25258 0.21882 -0.46148
 C86 C 0.25010 0.22021 -0.52975
 C87 C 0.26999 0.23616 -0.57309
 C88 C 0.22755 0.20615 -0.56347
 C89 C 0.23546 0.19698 -0.41798
 C90 C 0.27258 0.23943 -0.42731
 C91 C 0.26491 0.26595 -0.61712
 C92 C 0.28399 0.28285 -0.65412
 C93 C 0.30864 0.26998 -0.64805
 C94 C 0.31329 0.23904 -0.60572
 C95 C 0.29422 0.22230 -0.56885
 C96 C 0.20395 0.21804 -0.54285
 C97 C 0.18280 0.20412 -0.57373
 C98 C 0.18466 0.17815 -0.62639
 C99 C 0.20854 0.16700 -0.64794
 C100 C 0.22966 0.18100 -0.61689
 C101 C 0.23170 0.15887 -0.42928
 C102 C 0.21538 0.13857 -0.38839
 C103 C 0.20225 0.15599 -0.33574
 C104 C 0.20670 0.19416 -0.32358
 C105 C 0.22322 0.21426 -0.36414
 C106 C 0.28978 0.22019 -0.38729
 C107 C 0.30914 0.23939 -0.35699
 C108 C 0.31123 0.27822 -0.36484
 C109 C 0.29375 0.29753 -0.40426
 C110 C 0.27457 0.27826 -0.43515
 H111 H 0.24626 0.27681 -0.62135
 H112 H 0.27905 0.30609 -0.68630
 H113 H 0.33187 0.22802 -0.60010
 H114 H 0.29842 0.19886 -0.53597
 H115 H 0.20190 0.23811 -0.50267
 H116 H 0.16488 0.21368 -0.55598
 H117 H 0.24772 0.17172 -0.63393
 H118 H 0.24140 0.14486 -0.46984
 H119 H 0.21271 0.10924 -0.39891
 H120 H 0.19795 0.20890 -0.28257
 H121 H 0.22621 0.24355 -0.35406
 H122 H 0.28850 0.19022 -0.38075
 H123 H 0.32247 0.22393 -0.32716
 H124 H 0.29516 0.32732 -0.41267
 H125 H 0.26135 0.29355 -0.46566
 H126 H 0.21143 0.14751 -0.68838
 C127 C -0.25009 0.72041 -0.52976
 C128 C -0.24764 0.71898 -0.46148
 C129 C -0.26480 0.69719 -0.41801
 C130 C -0.22760 0.73946 -0.42721
 C131 C -0.23019 0.73643 -0.57297
 C132 C -0.27259 0.70627 -0.56362
 C133 C -0.27697 0.71449 -0.36409
 C134 C -0.29345 0.69443 -0.32338
 C135 C -0.29795 0.65627 -0.33548
 C136 C -0.28493 0.63883 -0.38832
 C137 C -0.26863 0.65910 -0.42932
 C138 C -0.22557 0.77830 -0.43472
 C139 C -0.20639 0.79745 -0.40359
 C140 C -0.18893 0.77800 -0.36429
 C141 C -0.19106 0.73915 -0.35683
 C142 C -0.21042 0.72008 -0.38734
 C143 C -0.20597 0.72250 -0.56888
 C144 C -0.18688 0.73935 -0.60551
 C145 C -0.19149 0.77048 -0.64742
 C146 C -0.21613 0.78341 -0.65337
 C147 C -0.23523 0.76639 -0.61664
 C148 C -0.27040 0.68118 -0.61711
 C149 C -0.29147 0.66710 -0.64830
 C150 C -0.31538 0.67810 -0.62681
 C151 C -0.31733 0.70401 -0.57407
 C152 C -0.29623 0.71802 -0.54306
 H153 H -0.27394 0.74378 -0.35403
 H154 H -0.30214 0.70921 -0.28234
 H155 H -0.28765 0.60952 -0.39883
 H156 H -0.25898 0.64507 -0.46995
 H157 H -0.23877 0.79370 -0.46511
 H158 H -0.20495 0.82726 -0.41171
 H159 H -0.21173 0.69009 -0.38107
 H160 H -0.20180 0.69893 -0.53628
 H161 H -0.16830 0.72827 -0.60001
 H162 H -0.22105 0.80679 -0.68526
 H163 H -0.25388 0.77730 -0.62078
 H164 H -0.25231 0.67200 -0.63408
 H165 H -0.28851 0.64766 -0.68878
 H166 H -0.33528 0.71346 -0.55637
 H167 H -0.29835 0.73803 -0.50280
 H168 H -0.17774 0.72358 -0.32712
 O169 O -0.04513 0.92496 0.11001
 O170 O -0.07133 0.96461 0.05321
 C171 C -0.06705 0.93749 0.09515
 O172 O 0.02827 1.05237 0.12497
 O173 O 0.05397 1.01852 0.05583
 C174 C 0.05006 1.04198 0.10402
 O175 O -0.04135 1.05371 0.13273
 O176 O -0.06957 1.02587 0.06342
 C177 C -0.06385 1.04689 0.11375
 O178 O 0.02404 0.91696 0.10021
 O179 O 0.05227 0.95416 0.04496
 C180 C 0.04650 0.92636 0.08440
 Zr181 Zr -0.00993 0.94228 0.07336
 O182 O -0.00763 0.93452 0.17909
 O183 O -0.01272 0.88435 0.05606
 Zr184 Zr -0.00717 1.03631 0.08972
 O185 O -0.00648 1.03463 0.19633
 O186 O -0.00621 1.09524 0.08985
 O187 O -0.03040 0.99008 0.09600
 O188 O 0.01294 0.98701 0.09274
 O189 O 0.02362 0.93256 -0.13609
 O190 O 0.05205 0.96135 -0.06879
 C191 C 0.04615 0.93975 -0.11827
 O192 O -0.04221 1.06827 -0.11208
 O193 O -0.07001 1.03213 -0.05330
 C194 C -0.06459 1.05855 -0.09574
 O195 O 0.02712 1.06760 -0.10703
 O196 O 0.05368 1.02569 -0.05707
 C197 C 0.04909 1.05510 -0.09362
 O198 O -0.04555 0.94005 -0.13576
 O199 O -0.07171 0.97113 -0.06360
 C200 C -0.06746 0.94971 -0.11480
 Zr201 Zr -0.01036 0.95199 -0.09542
 O202 O -0.00992 0.95304 -0.20195
 O203 O -0.01394 0.89317 -0.09785
 Zr204 Zr -0.00783 1.04602 -0.07942
 O205 O -0.00533 1.05170 -0.18564
 O206 O -0.00881 1.10477 -0.06961
 Zr207 Zr -0.04548 0.99673 -0.00119
 Zr208 Zr 0.02809 0.99153 -0.00497
 O209 O 0.01228 0.99841 -0.10108
 O210 O -0.03101 1.00129 -0.09992
 O211 O 0.01188 0.93846 -0.01338
 O212 O -0.02889 1.04939 0.00750
 O213 O -0.03198 0.94196 -0.01112
 O214 O 0.01483 1.04665 0.00527
 H215 H 0.02423 0.98378 0.13150
 H216 H -0.03954 1.07184 0.01167
 H217 H 0.02326 1.00046 -0.14111
 H218 H -0.04391 0.92116 -0.01436
 H219 H -0.00626 1.10262 0.13788
 H220 H 0.00298 1.11131 -0.03370
 H221 H -0.02033 1.04039 -0.20503
 H222 H -0.00887 0.97951 -0.21576
 H223 H 0.00079 0.88219 -0.07574
 H224 H -0.01310 0.87226 0.10119
 H225 H -0.02002 0.95132 0.19997
 H226 H -0.00217 1.00885 0.20985
 O227 O 0.45489 0.42384 0.10775
 O228 O 0.42872 0.46374 0.05138
 C229 C 0.43297 0.43639 0.09288
 O230 O 0.52851 0.55133 0.12485
 O231 O 0.55425 0.51773 0.05539
 C232 C 0.55032 0.54106 0.10374
 O233 O 0.45867 0.55322 0.13257
 O234 O 0.43051 0.52512 0.06349
 C235 C 0.43618 0.54626 0.11370
 O236 O 0.52402 0.41557 0.09747
 O237 O 0.55229 0.45341 0.04385
 C238 C 0.54649 0.42517 0.08223
 Zr239 Zr 0.49008 0.44114 0.07113
 O240 O 0.49249 0.43151 0.17631
 O241 O 0.48720 0.38349 0.05115
 Zr242 Zr 0.49289 0.53473 0.09120
 O243 O 0.49568 0.52582 0.19659
 O244 O 0.49199 0.59320 0.10537
 O245 O 0.46950 0.48864 0.09534
 O246 O 0.51298 0.48557 0.09238
 O247 O 0.52389 0.43386 -0.13887
 O248 O 0.55217 0.46148 -0.06955
 C249 C 0.54637 0.44066 -0.12020
 O250 O 0.45801 0.56875 -0.11077
 O251 O 0.43014 0.53233 -0.05286
 C252 C 0.43561 0.55900 -0.09472
 O253 O 0.52732 0.56813 -0.10512
 O254 O 0.55381 0.52582 -0.05607
 C255 C 0.54927 0.55551 -0.09188
 O256 O 0.45470 0.44091 -0.13817
 O257 O 0.42849 0.47137 -0.06531
 C258 C 0.43278 0.45038 -0.11706
 Zr259 Zr 0.48985 0.45259 -0.09738
 O260 O 0.48981 0.45478 -0.20393
 O261 O 0.48645 0.39378 -0.10158
 Zr262 Zr 0.49235 0.54635 -0.07826
 O263 O 0.49488 0.55281 -0.18432
 O264 O 0.49091 0.60503 -0.06746
 Zr265 Zr 0.45462 0.49639 -0.00180
 Zr266 Zr 0.52815 0.49124 -0.00518
 O267 O 0.51251 0.49904 -0.10124
 O268 O 0.46919 0.50188 -0.10028
 O269 O 0.51201 0.43824 -0.01558
 O270 O 0.47141 0.54884 0.00878
 O271 O 0.46813 0.44171 -0.01353
 O272 O 0.51483 0.54624 0.00687
 H273 H 0.52421 0.48213 0.13124
 H274 H 0.46088 0.57139 0.01332
 H275 H 0.52361 0.50155 -0.14094
 H276 H 0.45617 0.42098 -0.01741
 H277 H 0.50565 0.60406 0.07839
 H278 H 0.50381 0.61194 -0.03481
 H279 H 0.48026 0.54060 -0.20404
 H280 H 0.49431 0.48048 -0.21727
 H281 H 0.50134 0.38268 -0.08047
 H282 H 0.48674 0.37079 0.09572
 H283 H 0.48150 0.44990 0.19839
 H284 H 0.48030 0.51347 0.21196
 C285 C 0.32890 0.28687 0.31887
 C286 C 0.32762 0.31861 0.27738
 C287 C 0.34992 0.33597 0.24801
 N288 N 0.34768 0.36688 0.20852
 N289 N 0.36763 0.38327 0.18225
 C290 C 0.39061 0.36941 0.19456
 N291 N 0.39286 0.33848 0.23403
 N292 N 0.37289 0.32207 0.26030
 C293 C 0.41281 0.38729 0.16580
 C294 C 0.41120 0.41862 0.12389
 H295 H 0.31020 0.33205 0.26632
 H296 H 0.43072 0.37529 0.17733
 H297 H 0.34706 0.27482 0.32737
 H298 H 0.39322 0.43029 0.11205
 C299 C -0.17121 0.78750 0.31980
 C300 C -0.17246 0.81948 0.27891
 C301 C -0.15016 0.83697 0.24988
 N302 N -0.15237 0.86804 0.21081
 N303 N -0.13240 0.88453 0.18481
 C304 C -0.10944 0.87060 0.19699
 N305 N -0.10721 0.83952 0.23607
 N306 N -0.12719 0.82302 0.26207
 C307 C -0.08722 0.88852 0.16838
 C308 C -0.08881 0.91987 0.12652
 H309 H -0.18987 0.83302 0.26811
 H310 H -0.06932 0.87644 0.17977
 H311 H -0.15306 0.77536 0.32808
 H312 H -0.10679 0.93159 0.11477
 C313 C 0.66264 0.66437 0.34471
 C314 C 0.66157 0.63801 0.29316
 C315 C 0.63805 0.62413 0.26619
 N316 N 0.63852 0.59826 0.21675
 N317 N 0.61759 0.58509 0.19154
 C318 C 0.59531 0.59725 0.21474
 N319 N 0.59479 0.62318 0.26425
 N320 N 0.61578 0.63638 0.28955
 C321 C 0.57211 0.58273 0.18657
 C322 C 0.57254 0.55623 0.13553
 H323 H 0.67816 0.62637 0.27120
 H324 H 0.55462 0.59314 0.20574
 H325 H 0.64521 0.67471 0.36459
 H326 H 0.59020 0.54619 0.11676
 C327 C 0.16265 1.16453 0.34522
 C328 C 0.16150 1.13811 0.29378
 C329 C 0.13795 1.12438 0.26681
 N330 N 0.13835 1.09847 0.21744
 N331 N 0.11738 1.08546 0.19218
 C332 C 0.09514 1.09782 0.21527
 N333 N 0.09468 1.12379 0.26473
 N334 N 0.11571 1.13683 0.29008
 C335 C 0.07191 1.08349 0.18700
 C336 C 0.07229 1.05697 0.13600
 H337 H 0.17805 1.12634 0.27186
 H338 H 0.05444 1.09407 0.20603
 H339 H 0.14524 1.17500 0.36507
 H340 H 0.08994 1.04676 0.11741
 C341 C 0.68275 0.35180 -0.30669
 C342 C 0.66789 0.38297 -0.32055
 C343 C 0.64805 0.39405 -0.27366
 N344 N 0.62695 0.40970 -0.29766
 N345 N 0.60864 0.41905 -0.25573
 C346 C 0.61089 0.41352 -0.18818
 N347 N 0.63217 0.39850 -0.16405
 N348 N 0.65035 0.38865 -0.20608
 C349 C 0.59094 0.42445 -0.14161
 C350 C 0.56637 0.42531 -0.16222
 H351 H 0.66878 0.39731 -0.36865
 H352 H 0.59559 0.43130 -0.09014
 H353 H 0.67811 0.33597 -0.26146
 H354 H 0.56167 0.41508 -0.21175
 C355 C 0.18730 0.85986 -0.29782
 C356 C 0.16702 0.88025 -0.32089
 C357 C 0.14741 0.89282 -0.27447
 N358 N 0.12442 0.90023 -0.29816
 N359 N 0.10634 0.91064 -0.25631
 C360 C 0.11065 0.91430 -0.18927
 N361 N 0.13373 0.90743 -0.16571
 N362 N 0.15175 0.89664 -0.20746
 C363 C 0.09093 0.92641 -0.14285
 C364 C 0.06605 0.92363 -0.15979
 H365 H 0.16441 0.88428 -0.37458
 H366 H 0.09610 0.93754 -0.09436
 H367 H 0.18829 0.85243 -0.24482
 H368 H 0.06096 0.91014 -0.20635
 C369 C 0.33978 0.71734 -0.32610
 C370 C 0.33842 0.68098 -0.30083
 C371 C 0.35918 0.66313 -0.26534
 N372 N 0.35577 0.62997 -0.23321
 N373 N 0.37444 0.61323 -0.20137
 C374 C 0.39724 0.62896 -0.20076
 N375 N 0.40068 0.66204 -0.23319
 N376 N 0.38198 0.67887 -0.26477
 C377 C 0.41811 0.61042 -0.16690
 C378 C 0.41482 0.57898 -0.12607
 H379 H 0.32142 0.66538 -0.30514
 H380 H 0.43645 0.62189 -0.17419
 H381 H 0.35609 0.73379 -0.31607
 H382 H 0.39635 0.56846 -0.11680
 C383 C -0.16155 1.21689 -0.32371
 C384 C -0.16266 1.18042 -0.29882
 C385 C -0.14172 1.16262 -0.26405
 N386 N -0.14491 1.12931 -0.23229
 N387 N -0.12608 1.11257 -0.20117
 C388 C -0.10333 1.12844 -0.20095
 N389 N -0.10010 1.16168 -0.23301
 N390 N -0.11896 1.17852 -0.26388
 C391 C -0.08231 1.10993 -0.16771
 C392 C -0.08544 1.07834 -0.12714
 H393 H -0.17959 1.16464 -0.30302
 H394 H -0.06402 1.12158 -0.17502
 H395 H -0.14531 1.23350 -0.31373
 H396 H -0.10387 1.06768 -0.11777
 C397 C 0.68506 0.63496 -0.29744
 C398 C 0.66821 0.64975 -0.25090
 C399 C 0.64951 0.62658 -0.21677
 N400 N 0.62943 0.64317 -0.18859
 N401 N 0.61180 0.62276 -0.15942
 C402 C 0.61368 0.58498 -0.15681
 N403 N 0.63399 0.56835 -0.18392
 N404 N 0.65156 0.58879 -0.21367
 C405 C 0.59379 0.56239 -0.12666
 C406 C 0.57004 0.57703 -0.11944
 H407 H 0.66684 0.67943 -0.24278
 H408 H 0.59747 0.53347 -0.11371
 H409 H 0.68399 0.60530 -0.30743
 H410 H 0.56613 0.60500 -0.13778
 C411 C 0.18519 1.13467 -0.29795
 C412 C 0.16810 1.14951 -0.25212
 C413 C 0.14938 1.12632 -0.21812
 N414 N 0.12920 1.14287 -0.19039
 N415 N 0.11157 1.12244 -0.16129
 C416 C 0.11354 1.08467 -0.15831
 N417 N 0.13394 1.06809 -0.18497
 N418 N 0.15152 1.08855 -0.21464
 C419 C 0.09366 1.06205 -0.12814
 C420 C 0.06983 1.07652 -0.12167
 H421 H 0.16658 1.17923 -0.24454
 H422 H 0.09743 1.03326 -0.11446
 H423 H 0.18426 1.10497 -0.30765
 H424 H 0.06586 1.10433 -0.14071
 C425 C 0.33232 0.29749 -0.33366
 C426 C 0.33135 0.33474 -0.31389
 C427 C 0.35277 0.35329 -0.28388
 N428 N 0.34991 0.38673 -0.25311
 N429 N 0.36919 0.40370 -0.22548
 C430 C 0.39207 0.38795 -0.22814
 N431 N 0.39496 0.35472 -0.25949
 N432 N 0.37567 0.33765 -0.28673
 C433 C 0.41354 0.40581 -0.19716
 C434 C 0.41126 0.43566 -0.15291
 H435 H 0.31426 0.35040 -0.31806
 H436 H 0.43158 0.39356 -0.20649
 H437 H 0.34881 0.28123 -0.32313
 H438 H 0.39312 0.44673 -0.14067
 C439 C -0.16786 0.79713 -0.33280
 C440 C -0.16883 0.83430 -0.31254
 C441 C -0.14744 0.85270 -0.28207
 N442 N -0.15029 0.88611 -0.25121
 N443 N -0.13104 0.90296 -0.22321
 C444 C -0.10819 0.88710 -0.22557
 N445 N -0.10530 0.85388 -0.25697
 N446 N -0.12457 0.83694 -0.28458
 C447 C -0.08673 0.90487 -0.19438
 C448 C -0.08901 0.93480 -0.15029
 H449 H -0.18590 0.85000 -0.31670
 H450 H -0.06869 0.89259 -0.20362
 H451 H -0.15138 0.78081 -0.32236
 H452 H -0.10714 0.94594 -0.13818
 C453 C 0.34026 0.71090 0.32778
 C454 C 0.33777 0.67580 0.29852
 C455 C 0.35904 0.65472 0.27173
 N456 N 0.35521 0.62222 0.23890
 N457 N 0.37419 0.60277 0.21405
 C458 C 0.39775 0.61500 0.22143
 N459 N 0.40160 0.64739 0.25466
 N460 N 0.38260 0.66691 0.27932
 C461 C 0.41884 0.59430 0.19263
 C462 C 0.41551 0.56416 0.14966
 H463 H 0.31991 0.66267 0.29533
 H464 H 0.43733 0.60433 0.20240
 H465 H 0.35861 0.72268 0.33135
 H466 H 0.39696 0.55512 0.13788
 C467 C -0.16020 1.20920 0.33302
 C468 C -0.16270 1.17624 0.29658
 C469 C -0.14130 1.15499 0.27102
 N470 N -0.14510 1.12416 0.23333
 N471 N -0.12605 1.10454 0.20941
 C472 C -0.10245 1.11491 0.22248
 N473 N -0.09863 1.14565 0.26049
 N474 N -0.11770 1.16533 0.28436
 C475 C -0.08127 1.09408 0.19443
 C476 C -0.08454 1.06474 0.14967
 H477 H -0.18071 1.16501 0.28588
 H478 H -0.06278 1.10330 0.20643
 H479 H -0.14171 1.21942 0.34220
 H480 H -0.10309 1.05630 0.13647
 C481 C 0.68470 0.35607 0.29194
 C482 C 0.66136 0.34121 0.27964
 C483 C 0.64342 0.35993 0.23497
 N484 N 0.62061 0.34509 0.22693
 N485 N 0.60396 0.36206 0.18795
 C486 C 0.60950 0.39447 0.15528
 N487 N 0.63238 0.40917 0.16288
 N488 N 0.64903 0.39223 0.20199
 C489 C 0.59085 0.41440 0.11461
 C490 C 0.56632 0.40271 0.11293
 H491 H 0.65590 0.31503 0.30263
 H492 H 0.59618 0.44005 0.08924
 H493 H 0.68999 0.38147 0.26566
 H494 H 0.56098 0.37761 0.14004
 C495 C 0.18518 0.85823 0.29329
 C496 C 0.16168 0.84361 0.28227
 C497 C 0.14365 0.86215 0.23765
 N498 N 0.12074 0.84748 0.23072
 N499 N 0.10402 0.86423 0.19165
 C500 C 0.10959 0.89626 0.15779
 N501 N 0.13256 0.91081 0.16432
 N502 N 0.14928 0.89408 0.20351
 C503 C 0.09089 0.91590 0.11683
 C504 C 0.06635 0.90420 0.11567
 H505 H 0.15619 0.81768 0.30612
 H506 H 0.09620 0.94132 0.09066
 H507 H 0.19050 0.88335 0.26619
 H508 H 0.06104 0.87935 0.14357
   
