data_POSCAR
  _audit_creation_date              2014-09-24
  _audit_creation_method            'ToBaCCo'
  _symmetry_space_group_name_H-M    'P1'
  _symmetry_Int_Tables_number       1
  _symmetry_cell_setting            triclinic
  loop_
  _symmetry_equiv_pos_as_xyz
 x,y,z
_cell_length_a 21.2807
_cell_length_b 21.1272
_cell_length_c 21.1595
_cell_angle_alpha 89.959000
_cell_angle_beta 82.768300
_cell_angle_gamma 88.512500
loop_
  _atom_site_label
  _atom_site_type_symbol
  _atom_site_fract_x
  _atom_site_fract_y
  _atom_site_fract_z
C1 C 0.59008 0.31874 0.02870
 C2 C 0.64323 0.35423 0.02212
 C3 C 0.62336 0.41703 0.03140
 N4 N 0.55923 0.42078 0.04100
 C5 C 0.53867 0.36069 0.03874
 C6 C 0.66352 0.46949 0.03421
 C7 C 0.63925 0.53248 0.03148
 C8 C 0.66472 0.58475 0.05743
 C9 C 0.62942 0.63665 0.04268
 C10 C 0.58298 0.61503 0.00806
 N11 N 0.58848 0.55112 0.00253
 C12 C 0.53831 0.65452 -0.01888
 C13 C 0.47982 0.63128 -0.03289
 C14 C 0.44058 0.65987 -0.07287
 C15 C 0.38841 0.62288 -0.07168
 C16 C 0.39783 0.57260 -0.03169
 N17 N 0.45353 0.57787 -0.00782
 C18 C 0.35437 0.52421 -0.01574
 C19 C 0.36940 0.46933 0.01795
 C20 C 0.32575 0.42608 0.04415
 C21 C 0.35974 0.37471 0.06273
 C22 C 0.42348 0.38771 0.04719
 N23 N 0.42874 0.44585 0.02047
 C24 C 0.47424 0.34334 0.04896
 H25 H 0.59057 0.26776 0.02593
 H26 H 0.69077 0.33490 0.01069
 H27 H 0.46973 0.46411 -0.00386
 H28 H 0.70370 0.58549 0.08565
 H29 H 0.63643 0.68473 0.05732
 H30 H 0.44905 0.70215 -0.10119
 H31 H 0.34838 0.63174 -0.09763
 H32 H 0.33910 0.33165 0.08231
 H33 H 0.56298 0.52263 -0.02478
 H34 H 0.27467 0.42971 0.04719
 C35 C 0.04985 0.63329 0.61588
 C36 C 0.05929 0.66631 0.55977
 C37 C 0.02808 0.63421 0.51630
 N38 N 0.00169 0.58166 0.54341
 C39 C 0.01442 0.58145 0.60437
 C40 C 0.02038 0.65411 0.45381
 C41 C 0.00686 0.60885 0.40825
 C42 C -0.02381 0.62123 0.35525
 C43 C -0.02431 0.56515 0.32247
 C44 C 0.00622 0.51995 0.35604
 N45 N 0.02384 0.54663 0.40901
 C46 C 0.01976 0.45640 0.33674
 C47 C 0.02650 0.40841 0.38203
 C48 C 0.04737 0.34662 0.36860
 C49 C 0.03524 0.31325 0.42419
 C50 C 0.00922 0.35615 0.47040
 N51 N 0.00404 0.41420 0.44436
 C52 C -0.01716 0.34131 0.53309
 C53 C -0.03232 0.38885 0.57984
 C54 C -0.06898 0.38085 0.63818
 C55 C -0.06736 0.43671 0.67128
 C56 C -0.02914 0.47695 0.63255
 N57 N -0.00832 0.44760 0.57690
 C58 C -0.00939 0.53695 0.65027
 H59 H 0.06802 0.64545 0.65969
 H60 H 0.08707 0.70837 0.55187
 H61 H 0.02632 0.46439 0.54217
 H62 H -0.04542 0.66544 0.34222
 H63 H -0.04630 0.55845 0.27967
 H64 H 0.06808 0.32683 0.32339
 H65 H 0.04407 0.26306 0.42876
 H66 H -0.09109 0.44614 0.71873
 H67 H 0.05134 0.52489 0.44076
 H68 H -0.09345 0.33894 0.65587
 C69 C 0.30581 0.01780 0.59262
 C70 C 0.33735 0.01293 0.64497
 C71 C 0.40054 0.02484 0.62467
 N72 N 0.40840 0.03462 0.56085
 C73 C 0.35068 0.02975 0.54096
 C74 C 0.44990 0.03001 0.66383
 C75 C 0.51343 0.03499 0.63517
 C76 C 0.56000 0.06764 0.66077
 C77 C 0.61552 0.05640 0.62163
 C78 C 0.60143 0.01773 0.57262
 N79 N 0.53863 0.00629 0.58012
 C80 C 0.64692 -0.00906 0.52485
 C81 C 0.63081 -0.02345 0.46367
 C82 C 0.66643 -0.06065 0.41763
 C83 C 0.63444 -0.06012 0.36521
 C84 C 0.57958 -0.02389 0.38137
 N85 N 0.57770 -0.00123 0.44136
 C86 C 0.53365 -0.00984 0.34032
 C87 C 0.47345 0.01785 0.36235
 C88 C 0.42986 0.04004 0.32354
 C89 C 0.37481 0.05426 0.36234
 C90 C 0.38544 0.04018 0.42427
 N91 N 0.44588 0.01825 0.42375
 C92 C 0.33770 0.03981 0.47755
 H93 H 0.25541 0.01263 0.59367
 H94 H 0.31494 0.00100 0.69189
 H95 H 0.46428 -0.00349 0.46170
 H96 H 0.55454 0.09711 0.70300
 H97 H 0.66112 0.07512 0.62822
 H98 H 0.71009 -0.08687 0.42141
 H99 H 0.64967 -0.08433 0.32067
 H100 H 0.33120 0.06986 0.34540
 H101 H 0.51586 -0.02530 0.55331
 H102 H 0.43516 0.04334 0.27228
 O103 O 0.42240 0.00008 -0.05826
 O104 O 0.47271 -0.03285 0.09852
 O105 O 0.42905 0.06658 0.04543
 O106 O 0.47064 -0.09876 -0.00318
 O107 O 0.56888 -0.07068 -0.03455
 O108 O 0.52361 0.09530 0.00138
 O109 O 0.56842 0.00115 0.06460
 O110 O 0.52078 0.02119 -0.09717
 Cu111 Cu 0.43868 -0.01886 0.02363
 Cu112 Cu 0.55502 0.01488 -0.02031
 C113 C 0.46291 0.01506 -0.10473
 C114 C 0.52879 -0.02118 0.10848
 C115 C 0.46946 0.10912 0.03112
 C116 C 0.52778 -0.11313 -0.02456
 O117 O -0.08266 0.53150 1.02600
 O118 O 0.09057 0.55619 0.99270
 O119 O -0.00644 0.57144 0.92837
 O120 O 0.01376 0.51940 1.09049
 O121 O 0.02940 0.42077 1.05626
 O122 O 0.00581 0.47233 0.89500
 O123 O 0.10334 0.45845 0.95535
 O124 O -0.06623 0.43191 0.99507
 Cu125 Cu 0.00246 0.55473 1.01264
 Cu126 Cu 0.01981 0.43608 0.97178
 C127 C -0.10332 0.47653 1.01764
 C128 C 0.12607 0.51131 0.96747
 C129 C -0.00385 0.53065 0.88409
 C130 C 0.02394 0.46114 1.10114
 O131 O 0.00216 -0.07017 0.41880
 O132 O -0.03232 0.09405 0.47212
 O133 O 0.06944 0.03201 0.42901
 O134 O -0.09977 -0.00418 0.46443
 O135 O -0.08500 -0.02766 0.56333
 O136 O 0.08539 -0.00176 0.52468
 O137 O -0.01309 0.06816 0.56929
 O138 O 0.01174 -0.09840 0.51769
 Cu139 Cu -0.01625 0.01490 0.43582
 Cu140 Cu 0.00166 -0.01807 0.55340
 C141 C 0.01117 -0.11260 0.45945
 C142 C -0.02826 0.10908 0.52948
 C143 C 0.10596 0.02193 0.47117
 C144 C -0.12152 -0.01981 0.52081
 N145 N -0.18682 0.40868 1.06252
 N146 N -0.24915 0.40509 1.06765
 C147 C -0.27181 0.45855 1.04261
 C148 C -0.22011 0.49617 1.02317
 N149 N -0.16846 0.46288 1.03608
 H150 H -0.21942 0.54046 0.99737
 N151 N 0.22482 0.49802 0.89797
 N152 N 0.28644 0.50167 0.90049
 C153 C 0.29331 0.52645 0.95780
 C154 C 0.23372 0.53804 0.99058
 N155 N 0.19247 0.51984 0.95134
 H156 H 0.22180 0.55208 1.03992
 N157 N 0.03071 -0.19626 0.37953
 N158 N 0.03334 -0.25893 0.37661
 C159 C 0.02364 -0.28087 0.43704
 C160 C 0.01498 -0.22859 0.47715
 N161 N 0.01993 -0.17727 0.43952
 H162 H 0.00206 -0.22737 0.52826
 N163 N -0.10021 0.19730 0.55972
 N164 N -0.09905 0.25994 0.55974
 C165 C -0.03772 0.27580 0.54764
 C166 C -0.00122 0.22063 0.54089
 N167 N -0.04196 0.17294 0.54909
 H168 H 0.04937 0.21548 0.52695
 N169 N 0.38357 0.04092 -0.17446
 N170 N 0.37855 0.04573 -0.23601
 C171 C 0.43624 0.03263 -0.26846
 C172 C 0.47728 0.02007 -0.22337
 N173 N 0.44250 0.02569 -0.16591
 H174 H 0.52658 0.00478 -0.23116
 N175 N 0.54854 -0.09346 0.19261
 N176 N 0.54885 -0.09226 0.25514
 C177 C 0.54653 -0.03086 0.27279
 C178 C 0.54568 0.00565 0.21852
 N179 N 0.54721 -0.03525 0.16964
 H180 H 0.53862 0.05646 0.21562
 N181 N 0.60723 -0.19714 -0.04707
 N182 N 0.61195 -0.25965 -0.04465
 C183 C 0.55266 -0.28121 -0.03034
 C184 C 0.51125 -0.22920 -0.02425
 N185 N 0.54726 -0.17798 -0.03482
 H186 H 0.46076 -0.22828 -0.00877
 N187 N 0.42043 0.19081 0.10381
 N188 N 0.42207 0.25307 0.11110
 C189 C 0.45894 0.27556 0.05979
 C190 C 0.47927 0.22506 0.02055
 N191 N 0.45471 0.17328 0.04984
 H192 H 0.50940 0.22564 -0.02467
 N193 N -0.21481 -0.03595 0.59674
 N194 N -0.27724 -0.03230 0.59955
 C195 C -0.29093 -0.02020 0.53998
 C196 C -0.23410 -0.01658 0.50038
 N197 N -0.18814 -0.02656 0.53773
 H198 H -0.22657 -0.00316 0.45067
 N199 N 0.18870 0.09437 0.43259
 N200 N 0.24985 0.10199 0.43557
 C201 C 0.27088 0.05076 0.46568
 C202 C 0.22052 0.01128 0.48081
 N203 N 0.17041 0.04026 0.45950
 H204 H 0.22015 -0.03405 0.50473
 N205 N 0.00641 0.38387 1.18565
 N206 N 0.00288 0.38144 1.24848
 C207 C 0.02036 0.43830 1.26852
 C208 C 0.03497 0.47570 1.21530
 N209 N 0.02543 0.44011 1.16499
 H210 H 0.04970 0.52439 1.21316
 N211 N -0.02812 0.60867 0.80515
 N212 N -0.03023 0.61214 0.74290
 C213 C -0.01410 0.55399 0.71871
 C214 C -0.00186 0.51486 0.76807
 N215 N -0.01138 0.55061 0.82096
 H216 H 0.01349 0.46556 0.76570
   
