data_POSCAR
  _audit_creation_date              2014-09-24
  _audit_creation_method            'ToBaCCo'
  _symmetry_space_group_name_H-M    'P1'
  _symmetry_Int_Tables_number       1
  _symmetry_cell_setting            triclinic
  loop_
  _symmetry_equiv_pos_as_xyz
 x,y,z
_cell_length_a 40.3280
_cell_length_b 40.3807
_cell_length_c 22.8106
_cell_angle_alpha 89.848000
_cell_angle_beta 90.076700
_cell_angle_gamma 120.073500
loop_
  _atom_site_label
  _atom_site_type_symbol
  _atom_site_fract_x
  _atom_site_fract_y
  _atom_site_fract_z
O1 O 0.45403 0.96339 0.55524
 O2 O 0.49186 1.03798 0.44091
 O3 O 0.45463 0.96349 0.44103
 O4 O 0.49127 1.03788 0.55516
 O5 O 0.54618 1.03801 0.55610
 O6 O 0.50954 0.96363 0.44197
 O7 O 0.54676 1.03812 0.44184
 O8 O 0.50894 0.96353 0.55618
 Cu9 Cu 0.46741 1.00068 0.49799
 Cu10 Cu 0.53340 1.00085 0.49911
 C11 C 0.47512 0.95091 0.57507
 C12 C 0.52567 1.05060 0.42199
 C13 C 0.47592 0.95104 0.42219
 C14 C 0.52488 1.05044 0.57497
 O15 O 0.03724 0.49095 0.55896
 O16 O -0.03733 0.45418 0.44471
 O17 O 0.03723 0.49144 0.44471
 O18 O -0.03735 0.45371 0.55895
 O19 O -0.03727 0.50851 0.55942
 O20 O 0.03731 0.54624 0.44518
 O21 O -0.03726 0.50899 0.44517
 O22 O 0.03732 0.54575 0.55943
 Cu23 Cu -0.00006 0.46704 0.50180
 Cu24 Cu 0.00003 0.53290 0.50236
 C25 C 0.04983 0.52453 0.57855
 C26 C -0.04982 0.47541 0.42557
 C27 C 0.04980 0.52518 0.42558
 C28 C -0.04987 0.47476 0.57854
 O29 O 0.50947 0.54582 0.55750
 O30 O 0.54616 0.50815 0.44337
 O31 O 0.50891 0.54535 0.44328
 O32 O 0.54675 0.50864 0.55762
 O33 O 0.49186 0.45381 0.55854
 O34 O 0.45402 0.49052 0.44420
 O35 O 0.49127 0.45332 0.44429
 O36 O 0.45458 0.49098 0.55841
 Cu37 Cu 0.53336 0.53252 0.50036
 Cu38 Cu 0.46739 0.46662 0.50146
 C39 C 0.47584 0.52474 0.57726
 C40 C 0.52487 0.47441 0.42448
 C41 C 0.47510 0.52411 0.42438
 C42 C 0.52567 0.47505 0.57746
 O43 O 0.38926 0.66818 -0.06736
 O44 O 0.39091 0.73280 -0.05010
 C45 C 0.36690 0.73807 -0.07871
 O46 O 0.33138 0.72080 -0.06773
 O47 O 0.26665 0.65776 -0.04978
 C48 C 0.26130 0.62848 -0.07820
 O49 O 0.27856 0.61028 -0.06716
 O50 O 0.34167 0.60874 -0.04949
 C51 C 0.37098 0.63270 -0.07811
 O52 O 0.39095 0.65795 0.04941
 O53 O 0.38939 0.72095 0.06668
 C54 C 0.37116 0.73819 0.07747
 O55 O 0.34183 0.73284 0.04891
 O56 O 0.27874 0.66819 0.06688
 C57 C 0.26149 0.63272 0.07803
 O58 O 0.26673 0.60874 0.04958
 O59 O 0.33144 0.61040 0.06721
 C60 C 0.36697 0.62867 0.07808
 Cr61 Cr 0.38798 0.69390 -0.00034
 Cr62 Cr 0.30572 0.69382 -0.00043
 Cr63 Cr 0.30567 0.61168 0.00002
 O64 O 0.33313 0.66647 -0.00025
 O65 O 0.60906 0.34207 -0.04992
 O66 O 0.61068 0.27912 -0.06746
 C67 C 0.62896 0.26195 -0.07837
 O68 O 0.65825 0.26725 -0.04974
 O69 O 0.72139 0.33194 -0.06725
 C70 C 0.73865 0.36743 -0.07822
 O71 O 0.73330 0.39133 -0.04975
 O72 O 0.66859 0.38964 -0.06753
 C73 C 0.63307 0.37138 -0.07850
 O74 O 0.61061 0.33160 0.06682
 O75 O 0.60898 0.26702 0.04926
 C76 C 0.63295 0.26171 0.07789
 O77 O 0.66848 0.27900 0.06700
 O78 O 0.73321 0.34209 0.04950
 C79 C 0.73849 0.37131 0.07802
 O80 O 0.72127 0.38955 0.06694
 O81 O 0.65818 0.39109 0.04917
 C82 C 0.62888 0.36706 0.07775
 Cr83 Cr 0.61198 0.30603 -0.00032
 Cr84 Cr 0.69426 0.30614 -0.00013
 Cr85 Cr 0.69426 0.38826 -0.00030
 O86 O 0.66683 0.33348 -0.00025
 C87 C 0.38487 0.81551 -0.26703
 C88 C 0.39751 0.85834 -0.25919
 C89 C 0.43361 0.86916 -0.29550
 C90 C 0.42121 0.82679 -0.30408
 C91 C 0.40735 0.81752 -0.21144
 C92 C 0.44346 0.82834 -0.24774
 C93 C 0.41976 0.85990 -0.20288
 C94 C 0.45608 0.87116 -0.23990
 C95 C 0.44833 0.89812 -0.34203
 C96 C 0.46052 0.92213 -0.38003
 C97 C 0.39281 0.78895 -0.16435
 C98 C 0.38094 0.76563 -0.12537
 H99 H 0.35542 0.79230 -0.27766
 H100 H 0.37877 0.87099 -0.26442
 H101 H 0.42197 0.81350 -0.34622
 H102 H 0.46219 0.81569 -0.24250
 H103 H 0.41900 0.87321 -0.16075
 H104 H 0.48553 0.89437 -0.22925
 C105 C 0.18120 0.61388 -0.26189
 C106 C 0.17322 0.58087 -0.30451
 C107 C 0.13003 0.56401 -0.29454
 C108 C 0.13756 0.59679 -0.25267
 C109 C 0.18170 0.58939 -0.21060
 C110 C 0.13851 0.57253 -0.20067
 C111 C 0.17418 0.55661 -0.25247
 C112 C 0.13055 0.53953 -0.24325
 C113 C 0.10107 0.54977 -0.34102
 C114 C 0.07706 0.53795 -0.37899
 C115 C 0.21030 0.60344 -0.16360
 C116 C 0.23366 0.61491 -0.12471
 H117 H 0.20235 0.64461 -0.26902
 H118 H 0.18717 0.58413 -0.34773
 H119 H 0.12218 0.61316 -0.25327
 H120 H 0.12455 0.56926 -0.15745
 H121 H 0.18956 0.54024 -0.25186
 H122 H 0.10940 0.50881 -0.23610
 C123 C 0.43395 0.57278 -0.19970
 C124 C 0.40847 0.54143 -0.24442
 C125 C 0.43555 0.56610 -0.29379
 C126 C 0.46125 0.59723 -0.24977
 C127 C 0.41008 0.59228 -0.21014
 C128 C 0.43717 0.61695 -0.25951
 C129 C 0.38438 0.56115 -0.25415
 C130 C 0.41169 0.58559 -0.30426
 C131 C 0.44983 0.55144 -0.34012
 C132 C 0.46167 0.53929 -0.37797
 C133 C 0.39600 0.60678 -0.16330
 C134 C 0.38452 0.61865 -0.12452
 H135 H 0.44294 0.56768 -0.15618
 H136 H 0.39683 0.51022 -0.23872
 H137 H 0.49301 0.61190 -0.24848
 H138 H 0.44881 0.64817 -0.26519
 H139 H 0.35261 0.54648 -0.25543
 H140 H 0.40270 0.59069 -0.34778
 C141 C 0.56746 0.18375 -0.26482
 C142 C 0.59297 0.17461 -0.30457
 C143 C 0.56490 0.13169 -0.29543
 C144 C 0.53917 0.14039 -0.25642
 C145 C 0.59013 0.18295 -0.21118
 C146 C 0.56206 0.14004 -0.20206
 C147 C 0.61586 0.17426 -0.25018
 C148 C 0.58757 0.13090 -0.24178
 C149 C 0.55074 0.10294 -0.34205
 C150 C 0.53899 0.07908 -0.38011
 C151 C 0.60409 0.21132 -0.16401
 C152 C 0.61549 0.23451 -0.12500
 H153 H 0.55935 0.20580 -0.27376
 H154 H 0.60552 0.18850 -0.34724
 H155 H 0.50748 0.12615 -0.25950
 H156 H 0.54951 0.12613 -0.15940
 H157 H 0.64755 0.18850 -0.24708
 H158 H 0.59568 0.10886 -0.23282
 C159 C 0.86137 0.43491 -0.20082
 C160 C 0.86981 0.40983 -0.24257
 C161 C 0.86993 0.43416 -0.29456
 C162 C 0.86192 0.45946 -0.25351
 C163 C 0.81826 0.40797 -0.21062
 C164 C 0.81837 0.43229 -0.26259
 C165 C 0.82626 0.38267 -0.25166
 C166 C 0.82682 0.40722 -0.30438
 C167 C 0.89889 0.44883 -0.34104
 C168 C 0.92291 0.46099 -0.37900
 C169 C 0.78966 0.39344 -0.16362
 C170 C 0.76629 0.38154 -0.12473
 H171 H 0.87526 0.44613 -0.15772
 H172 H 0.89128 0.40076 -0.23485
 H173 H 0.87691 0.49120 -0.25479
 H174 H 0.79689 0.44136 -0.27030
 H175 H 0.81127 0.35093 -0.25037
 H176 H 0.81294 0.39601 -0.34750
 C177 C 0.56445 0.38504 -0.25897
 C178 C 0.54116 0.40561 -0.24955
 C179 C 0.56638 0.43567 -0.29539
 C180 C 0.58945 0.41533 -0.30555
 C181 C 0.59264 0.41036 -0.21124
 C182 C 0.61786 0.44043 -0.25708
 C183 C 0.56957 0.43070 -0.20110
 C184 C 0.59457 0.46098 -0.24765
 C185 C 0.55167 0.44987 -0.34197
 C186 C 0.53948 0.46166 -0.38000
 C187 C 0.60717 0.39636 -0.16412
 C188 C 0.61904 0.38492 -0.12514
 H189 H 0.55223 0.35366 -0.26309
 H190 H 0.50946 0.39144 -0.24697
 H191 H 0.59746 0.40918 -0.34903
 H192 H 0.64957 0.45459 -0.25964
 H193 H 0.56156 0.43687 -0.15764
 H194 H 0.60679 0.49237 -0.24351
 C195 C 0.82414 0.44207 0.25411
 C196 C 0.82550 0.41746 0.30529
 C197 C 0.86884 0.43533 0.29565
 C198 C 0.86793 0.46016 0.24522
 C199 C 0.81756 0.41009 0.21115
 C200 C 0.86091 0.42797 0.20154
 C201 C 0.81846 0.38526 0.26158
 C202 C 0.86225 0.40336 0.25268
 C203 C 0.89761 0.44950 0.34241
 C204 C 0.92149 0.46127 0.38056
 C205 C 0.78917 0.39614 0.16386
 C206 C 0.76597 0.38476 0.12475
 H207 H 0.80815 0.45783 0.25417
 H208 H 0.81126 0.41329 0.34848
 H209 H 0.88858 0.49111 0.23901
 H210 H 0.87516 0.43214 0.15836
 H211 H 0.79780 0.35430 0.26777
 H212 H 0.87824 0.38759 0.25262
 C213 C 0.60214 0.19124 0.27589
 C214 C 0.55925 0.16466 0.29097
 C215 C 0.56630 0.13069 0.29479
 C216 C 0.60896 0.15681 0.28045
 C217 C 0.59249 0.18224 0.21061
 C218 C 0.59953 0.14827 0.21444
 C219 C 0.54983 0.15612 0.22496
 C220 C 0.55665 0.12171 0.22950
 C221 C 0.55163 0.10178 0.34139
 C222 C 0.53946 0.07780 0.37944
 C223 C 0.60700 0.21079 0.16348
 C224 C 0.61888 0.23411 0.12450
 H225 H 0.62101 0.22015 0.29442
 H226 H 0.54252 0.17107 0.32297
 H227 H 0.63311 0.15677 0.30379
 H228 H 0.61625 0.14185 0.18245
 H229 H 0.52567 0.15615 0.20161
 H230 H 0.53779 0.09281 0.21094
 C231 C 0.61328 0.42825 0.26522
 C232 C 0.60041 0.45826 0.25720
 C233 C 0.56486 0.43322 0.29483
 C234 C 0.57751 0.40343 0.30360
 C235 C 0.59004 0.40719 0.21055
 C236 C 0.55449 0.38215 0.24818
 C237 C 0.57739 0.43698 0.20181
 C238 C 0.54163 0.41216 0.24015
 C239 C 0.55073 0.44781 0.34148
 C240 C 0.53898 0.45990 0.37955
 C241 C 0.60398 0.39278 0.16338
 C242 C 0.61538 0.38100 0.12437
 H243 H 0.64290 0.43470 0.27500
 H244 H 0.61914 0.48972 0.26143
 H245 H 0.57740 0.38980 0.34598
 H246 H 0.53577 0.35069 0.24394
 H247 H 0.57749 0.45061 0.15944
 H248 H 0.51201 0.40571 0.23036
 C249 C 0.17080 0.55575 0.24636
 C250 C 0.17332 0.57755 0.30352
 C251 C 0.13114 0.56642 0.29567
 C252 C 0.12819 0.54440 0.23925
 C253 C 0.18242 0.59247 0.21118
 C254 C 0.14025 0.58134 0.20336
 C255 C 0.18540 0.61451 0.26759
 C256 C 0.14277 0.60314 0.26049
 C257 C 0.10237 0.55181 0.34243
 C258 C 0.07848 0.53970 0.38057
 C259 C 0.21081 0.60691 0.16388
 C260 C 0.23402 0.61872 0.12477
 H261 H 0.18265 0.53643 0.24001
 H262 H 0.18660 0.57583 0.34523
 H263 H 0.10434 0.51541 0.22812
 H264 H 0.12696 0.58305 0.16166
 H265 H 0.20924 0.64350 0.27871
 H266 H 0.13093 0.62246 0.26683
 C267 C 0.43997 0.86025 0.20049
 C268 C 0.41478 0.87104 0.23793
 C269 C 0.43573 0.86939 0.29319
 C270 C 0.46114 0.85904 0.25645
 C271 C 0.41032 0.81774 0.20950
 C272 C 0.43127 0.81607 0.26475
 C273 C 0.38491 0.82809 0.24624
 C274 C 0.40608 0.82688 0.30223
 C275 C 0.44997 0.89833 0.33954
 C276 C 0.46177 0.92231 0.37741
 C277 C 0.39625 0.78915 0.16265
 C278 C 0.38476 0.76580 0.12387
 H279 H 0.45374 0.87366 0.15814
 H280 H 0.40815 0.89397 0.22741
 H281 H 0.49264 0.87208 0.26116
 H282 H 0.43789 0.79315 0.27525
 H283 H 0.35341 0.81505 0.24151
 H284 H 0.39231 0.81348 0.34459
 C285 C 0.38251 0.56169 0.25907
 C286 C 0.40339 0.53871 0.24963
 C287 C 0.43364 0.56432 0.29488
 C288 C 0.41299 0.58707 0.30506
 C289 C 0.40744 0.58970 0.21078
 C290 C 0.43769 0.61531 0.25601
 C291 C 0.42809 0.56694 0.20063
 C292 C 0.45856 0.59233 0.24657
 C293 C 0.44833 0.55008 0.34144
 C294 C 0.46050 0.53827 0.37946
 C295 C 0.39292 0.60373 0.16368
 C296 C 0.38104 0.61517 0.12471
 H297 H 0.35108 0.54925 0.26368
 H298 H 0.38945 0.50706 0.24753
 H299 H 0.40695 0.59519 0.34852
 H300 H 0.45163 0.64697 0.25810
 H301 H 0.43414 0.55882 0.15717
 H302 H 0.49000 0.60478 0.24195
   
