data_POSCAR
  _audit_creation_date              2014-09-24
  _audit_creation_method            'ToBaCCo'
  _symmetry_space_group_name_H-M    'P1'
  _symmetry_Int_Tables_number       1
  _symmetry_cell_setting            triclinic
  loop_
  _symmetry_equiv_pos_as_xyz
 x,y,z
_cell_length_a 61.8574
_cell_length_b 61.9101
_cell_length_c 18.5014
_cell_angle_alpha 90.016400
_cell_angle_beta 90.001000
_cell_angle_gamma 119.895900
loop_
  _atom_site_label
  _atom_site_type_symbol
  _atom_site_fract_x
  _atom_site_fract_y
  _atom_site_fract_z
C1 C 0.23091 0.50265 0.46214
 C2 C 0.22874 0.49815 0.53835
 C3 C 0.24711 0.49488 0.57375
 C4 C 0.26875 0.49826 0.53823
 C5 C 0.27096 0.50334 0.46283
 C6 C 0.25265 0.50626 0.42690
 H7 H 0.25448 0.50920 0.36890
 H8 H 0.24553 0.49168 0.63157
 C9 C 0.49822 -0.27091 0.46110
 C10 C 0.50128 -0.26894 0.53755
 C11 C 0.50301 -0.24825 0.57390
 C12 C 0.50078 -0.22945 0.53760
 C13 C 0.49771 -0.23142 0.46117
 C14 C 0.49589 -0.25216 0.42483
 H15 H 0.49400 -0.25276 0.36648
 H16 H 0.50494 -0.24762 0.63224
 C17 C 1.27108 0.76982 0.46068
 C18 C 1.27055 0.76950 0.53779
 C19 C 1.25083 0.74965 0.57444
 C20 C 1.23116 0.72998 0.53726
 C21 C 1.23109 0.73028 0.46083
 C22 C 1.25097 0.74997 0.42387
 H23 H 1.25052 0.74966 0.36530
 H24 H 1.25083 0.74956 0.63309
 C25 C 0.77113 0.50300 0.46244
 C26 C 0.76963 0.49937 0.53866
 C27 C 0.74836 0.49686 0.57477
 C28 C 0.72958 0.49944 0.53893
 C29 C 0.73164 0.50310 0.46272
 C30 C 0.75243 0.50516 0.42636
 H31 H 0.75350 0.50739 0.36804
 H32 H 0.74714 0.49436 0.63282
 C33 C 0.49686 0.26825 0.46301
 C34 C 0.50056 0.27038 0.53921
 C35 C 0.50321 0.25170 0.57519
 C36 C 0.50068 0.23040 0.53932
 C37 C 0.49697 0.22879 0.46312
 C38 C 0.49477 0.24743 0.42684
 H39 H 0.49250 0.24628 0.36853
 H40 H 0.50578 0.25300 0.63323
 C41 C 0.73108 0.23017 0.46137
 C42 C 0.73113 0.23009 0.53780
 C43 C 0.75096 0.24973 0.57506
 C44 C 0.77113 0.26969 0.53878
 C45 C 0.77064 0.26962 0.46167
 C46 C 0.75076 0.25001 0.42467
 H47 H 0.75081 0.25008 0.36602
 H48 H 0.75051 0.24918 0.63361
 O49 O 1.03412 0.55421 0.13501
 O50 O 1.06207 0.54934 0.06516
 C51 C 1.05665 0.56015 0.11637
 O52 O 0.96495 0.44333 0.12584
 O53 O 0.93756 0.45004 0.05910
 C54 C 0.94257 0.43783 0.10682
 O55 O 1.03472 0.47985 0.13267
 O56 O 1.06234 0.51323 0.06436
 C57 C 1.05716 0.49669 0.11435
 O58 O 0.96460 0.52155 0.12574
 O59 O 0.93739 0.48742 0.05907
 C60 C 0.94227 0.50464 0.10670
 Zr61 Zr 0.99960 0.52736 0.08993
 O62 O 0.99830 0.53000 0.20360
 O63 O 1.00043 0.56168 0.07711
 Zr64 Zr 0.99990 0.47281 0.09078
 O65 O 0.99724 0.47138 0.20497
 O66 O 1.00267 0.44007 0.08916
 O67 O 1.02186 0.51118 0.10537
 O68 O 0.97811 0.48921 0.10327
 O69 O 0.96510 0.52150 -0.12841
 O70 O 0.93753 0.48721 -0.06290
 C71 C 0.94267 0.50452 -0.11034
 O72 O 1.03552 0.48029 -0.13173
 O73 O 1.06270 0.51345 -0.06196
 C74 C 1.05783 0.49716 -0.11250
 O75 O 0.96567 0.44349 -0.12730
 O76 O 0.93779 0.45012 -0.06276
 C77 C 0.94316 0.43791 -0.10962
 O78 O 1.03493 0.55410 -0.13555
 O79 O 1.06244 0.54935 -0.06330
 C80 C 1.05735 0.56001 -0.11564
 Zr81 Zr 1.00014 0.52757 -0.09107
 O82 O 0.99852 0.52976 -0.20471
 O83 O 1.00258 0.56285 -0.08285
 Zr84 Zr 1.00046 0.47301 -0.09133
 O85 O 0.99816 0.47150 -0.20560
 O86 O 1.00339 0.44036 -0.08947
 Zr87 Zr 1.03740 0.51890 0.00056
 Zr88 Zr 0.96279 0.48136 -0.00143
 O89 O 0.97877 0.48944 -0.10537
 O90 O 1.02247 0.51139 -0.10508
 O91 O 0.97734 0.52025 -0.00111
 O92 O 1.02198 0.47995 0.00029
 O93 O 1.02195 0.54244 0.00000
 O94 O 0.97785 0.45741 -0.00084
 H95 H 0.96684 0.48356 0.14570
 H96 H 1.03328 0.47292 0.00052
 H97 H 0.96780 0.48387 -0.14845
 H98 H 1.03347 0.56070 0.00008
 H99 H 0.98822 0.42725 0.06173
 H100 H 0.98891 0.42750 -0.06229
 H101 H 1.01240 0.48703 -0.22455
 H102 H 1.00113 0.51644 -0.22461
 H103 H 0.98715 0.56037 -0.05920
 H104 H 1.00070 0.56793 0.12659
 H105 H 0.99633 0.51434 0.22363
 H106 H 1.01107 0.48722 0.22392
 O107 O 0.44511 0.48028 0.13348
 O108 O 0.45063 0.51325 0.06348
 C109 C 0.43951 0.49709 0.11448
 O110 O 0.55661 0.52175 0.12568
 O111 O 0.54976 0.48738 0.06025
 C112 C 0.56208 0.50478 0.10735
 O113 O 0.51962 0.55443 0.13314
 O114 O 0.48674 0.54924 0.06307
 C115 C 0.50296 0.56025 0.11411
 O116 O 0.47824 0.44343 0.12699
 O117 O 0.51253 0.45005 0.06114
 C118 C 0.49519 0.43790 0.10863
 Zr119 Zr 0.47264 0.47283 0.09138
 O120 O 0.47286 0.47095 0.20562
 O121 O 0.43807 0.43939 0.08383
 Zr122 Zr 0.52736 0.52742 0.08924
 O123 O 0.53130 0.53049 0.20288
 O124 O 0.56078 0.56169 0.07586
 O125 O 0.48899 0.51126 0.10467
 O126 O 0.51081 0.48932 0.10394
 O127 O 0.47776 0.44295 -0.12621
 O128 O 0.51216 0.44977 -0.06088
 C129 C 0.49475 0.43749 -0.10800
 O130 O 0.51968 0.55461 -0.13356
 O131 O 0.48653 0.54907 -0.06423
 C132 C 0.50286 0.56025 -0.11481
 O133 O 0.55625 0.52138 -0.12771
 O134 O 0.54948 0.48712 -0.06190
 C135 C 0.56171 0.50442 -0.10933
 O136 O 0.44521 0.48012 -0.13425
 O137 O 0.45039 0.51296 -0.06407
 C138 C 0.43938 0.49675 -0.11516
 Zr139 Zr 0.47203 0.47219 -0.08993
 O140 O 0.46976 0.46801 -0.20347
 O141 O 0.43673 0.43949 -0.08070
 Zr142 Zr 0.52676 0.52681 -0.09222
 O143 O 0.52794 0.52540 -0.20646
 O144 O 0.55973 0.56204 -0.09128
 Zr145 Zr 0.48104 0.51858 -0.00048
 Zr146 Zr 0.51830 0.48113 -0.00026
 O147 O 0.51015 0.48865 -0.10462
 O148 O 0.48831 0.51058 -0.10569
 O149 O 0.47939 0.45710 0.00094
 O150 O 0.52000 0.54202 -0.00143
 O151 O 0.45747 0.47968 0.00075
 O152 O 0.54243 0.52001 -0.00148
 H153 H 0.51643 0.48380 0.14669
 H154 H 0.52692 0.56031 -0.00144
 H155 H 0.51562 0.48301 -0.14743
 H156 H 0.43918 0.47288 0.00082
 H157 H 0.56675 0.56807 0.12524
 H158 H 0.57174 0.56080 -0.05861
 H159 H 0.51253 0.52444 -0.22545
 H160 H 0.48274 0.48401 -0.22378
 H161 H 0.43912 0.42695 -0.05414
 H162 H 0.43263 0.43397 0.13419
 H163 H 0.47642 0.48738 0.22436
 H164 H 0.51796 0.51471 0.22328
 O165 O 0.52019 -0.03489 0.13155
 O166 O 0.48702 -0.06224 0.06207
 C167 C 0.50334 -0.05723 0.11266
 O168 O 0.47888 0.03520 0.12757
 O169 O 0.51283 0.06271 0.06084
 C170 C 0.49566 0.05761 0.10882
 O171 O 0.44622 -0.03455 0.13478
 O172 O 0.45104 -0.06208 0.06286
 C173 C 0.44030 -0.05696 0.11497
 O174 O 0.55693 0.03475 0.12617
 O175 O 0.54995 0.06245 0.06203
 C176 C 0.56231 0.05720 0.10871
 Zr177 Zr 0.52746 0.00003 0.09018
 O178 O 0.52983 0.00216 0.20440
 O179 O 0.56093 -0.00111 0.08118
 Zr180 Zr 0.47274 0.00020 0.08999
 O181 O 0.47049 0.00191 0.20358
 O182 O 0.43728 -0.00256 0.08128
 O183 O 0.48904 -0.02199 0.10430
 O184 O 0.51089 0.02162 0.10396
 O185 O 0.55669 0.03522 -0.12780
 O186 O 0.55005 0.06268 -0.06116
 C187 C 0.56215 0.05761 -0.10917
 O188 O 0.44516 -0.03432 -0.13321
 O189 O 0.45083 -0.06198 -0.06462
 C190 C 0.43956 -0.05675 -0.11484
 O191 O 0.47844 0.03536 -0.12678
 O192 O 0.51274 0.06272 -0.06094
 C193 C 0.49540 0.05772 -0.10828
 O194 O 0.51964 -0.03438 -0.13607
 O195 O 0.48700 -0.06201 -0.06543
 C196 C 0.50306 -0.05682 -0.11695
 Zr197 Zr 0.52767 0.00028 -0.09105
 O198 O 0.53161 0.00205 -0.20465
 O199 O 0.56049 -0.00224 -0.08239
 Zr200 Zr 0.47293 0.00041 -0.09151
 O201 O 0.47387 0.00308 -0.20571
 O202 O 0.43750 -0.00214 -0.08916
 Zr203 Zr 0.48147 -0.03711 -0.00107
 Zr204 Zr 0.51883 0.03747 -0.00011
 O205 O 0.51108 0.02190 -0.10460
 O206 O 0.48922 -0.02174 -0.10611
 O207 O 0.54296 0.02263 -0.00011
 O208 O 0.45796 -0.02160 -0.00086
 O209 O 0.52041 -0.02184 -0.00076
 O210 O 0.47987 0.02275 -0.00045
 H211 H 0.51644 0.03257 0.14708
 H212 H 0.43968 -0.03302 -0.00056
 H213 H 0.51657 0.03299 -0.14738
 H214 H 0.52724 -0.03332 -0.00121
 H215 H 0.43985 0.01373 0.06448
 H216 H 0.43921 0.01230 -0.06144
 H217 H 0.47536 -0.01102 -0.22509
 H218 H 0.51613 0.00057 -0.22459
 H219 H 0.57316 0.01282 -0.05675
 H220 H 0.56651 -0.00123 0.13131
 H221 H 0.51373 -0.01109 0.22379
 H222 H 0.48396 -0.00045 0.22358
 N223 N 1.19773 0.51128 0.31244
 C224 C 1.17373 0.49794 0.33492
 N225 N 1.16867 0.48567 0.39872
 N226 N 1.18708 0.48707 0.43947
 C227 C 1.21131 0.50110 0.41875
 N228 N 1.21613 0.51266 0.35330
 C229 C 1.15393 0.49745 0.29317
 C230 C 1.13704 0.49714 0.25978
 C231 C 1.11667 0.49682 0.22165
 N232 N 1.12099 0.51390 0.16952
 N233 N 1.10201 0.51387 0.13527
 C234 C 1.07809 0.49679 0.15215
 N235 N 1.07384 0.47972 0.20440
 N236 N 1.09282 0.47976 0.23862
 N237 N 0.49286 0.68920 0.30908
 C238 C 0.50017 0.67393 0.33923
 N239 N 0.50696 0.67703 0.40967
 N240 N 0.50630 0.69472 0.44887
 C241 C 0.49866 0.70997 0.41972
 N242 N 0.49221 0.70690 0.34848
 C243 C 0.50063 0.65461 0.29752
 C244 C 0.50108 0.63819 0.26372
 C245 C 0.50170 0.61846 0.22474
 N246 N 0.51875 0.61161 0.24188
 N247 N 0.51916 0.59307 0.20653
 C248 C 0.50252 0.58073 0.15288
 N249 N 0.48546 0.58764 0.13582
 N250 N 0.48505 0.60619 0.17120
 N251 N 0.33054 -0.17564 0.41253
 C252 C 0.32806 -0.17444 0.34021
 N253 N 0.30692 -0.19196 0.30765
 N254 N 0.28873 -0.20997 0.34652
 C255 C 0.29081 -0.21115 0.41956
 N256 N 0.31232 -0.19366 0.45118
 C257 C 0.34738 -0.15447 0.29914
 C258 C 0.36367 -0.13741 0.26567
 C259 C 0.38313 -0.11686 0.22673
 N260 N 0.39515 -0.12093 0.17175
 N261 N 0.41335 -0.10182 0.13605
 C262 C 0.42015 -0.07799 0.15417
 N263 N 0.40807 -0.07399 0.20927
 N264 N 0.38987 -0.09310 0.24496
 N265 N 0.81230 0.48304 0.37732
 C266 C 0.82608 0.50230 0.33203
 N267 N 0.82170 0.52167 0.32907
 N268 N 0.80420 0.52186 0.37056
 C269 C 0.79066 0.50281 0.41692
 N270 N 0.79479 0.48322 0.41883
 C271 C 0.84557 0.50255 0.28936
 C272 C 0.86228 0.50299 0.25465
 C273 C 0.88259 0.50379 0.21491
 N274 N 0.90637 0.52157 0.22974
 N275 N 0.92536 0.52200 0.19452
 C276 C 0.92121 0.50466 0.14322
 N277 N 0.89735 0.48690 0.12828
 N278 N 0.87835 0.48647 0.16356
 N279 N 0.47779 0.30007 0.33039
 C280 C 0.49708 0.32380 0.33350
 N281 N 0.51644 0.32928 0.37854
 N282 N 0.51642 0.31161 0.41968
 C283 C 0.49690 0.28791 0.41765
 N284 N 0.47775 0.28239 0.37153
 C285 C 0.49668 0.34303 0.29124
 C286 C 0.49621 0.35933 0.25681
 C287 C 0.49557 0.37893 0.21720
 N288 N 0.47781 0.38505 0.23172
 N289 N 0.47755 0.40368 0.19650
 C290 C 0.49504 0.41683 0.14553
 N291 N 0.51278 0.41061 0.13100
 N292 N 0.51304 0.39197 0.16626
 N293 N 0.68509 0.16714 0.39661
 C294 C 0.67615 0.17238 0.33624
 N295 N 0.68526 0.19649 0.31679
 N296 N 0.70268 0.21481 0.35674
 C297 C 0.71148 0.20967 0.41783
 N298 N 0.70252 0.18546 0.43656
 C299 C 0.65704 0.15266 0.29396
 C300 C 0.64082 0.13601 0.25910
 C301 C 0.62128 0.11599 0.21873
 N302 N 0.60819 0.12063 0.16833
 N303 N 0.58957 0.10192 0.13249
 C304 C 0.58343 0.07796 0.14590
 N305 N 0.59665 0.07341 0.19623
 N306 N 0.61526 0.09210 0.23202
 N307 N 0.49180 0.16978 -0.40671
 C308 C 0.49893 0.17386 -0.33653
 N309 N 0.50671 0.19667 -0.30764
 N310 N 0.50742 0.21485 -0.34791
 C311 C 0.50054 0.21108 -0.41880
 N312 N 0.49253 0.18800 -0.44680
 C313 C 0.49812 0.15419 -0.29350
 C314 C 0.49736 0.13743 -0.25832
 C315 C 0.49636 0.11718 -0.21785
 N316 N 0.47847 0.09341 -0.23218
 N317 N 0.47797 0.07449 -0.19645
 C318 C 0.49534 0.07869 -0.14513
 N319 N 0.51319 0.10255 -0.13067
 N320 N 0.51369 0.12148 -0.16645
 N321 N 0.68984 0.49353 -0.30804
 C322 C 0.67478 0.50130 -0.33700
 N323 N 0.67781 0.50840 -0.40717
 N324 N 0.69533 0.50766 -0.44721
 C325 C 0.71043 0.49966 -0.41917
 N326 N 0.70734 0.49281 -0.34826
 C327 C 0.65584 0.50205 -0.29409
 C328 C 0.63976 0.50276 -0.25906
 C329 C 0.62040 0.50365 -0.21876
 N330 N 0.61438 0.52147 -0.23309
 N331 N 0.59588 0.52189 -0.19746
 C332 C 0.58277 0.50450 -0.14626
 N333 N 0.58890 0.48671 -0.13182
 N334 N 0.60741 0.48629 -0.16750
 N335 N 0.83066 0.32372 -0.41045
 C336 C 0.82838 0.32392 -0.33771
 N337 N 0.80728 0.30606 -0.30601
 N338 N 0.78897 0.28864 -0.34599
 C339 C 0.79089 0.28836 -0.41932
 N340 N 0.81232 0.30627 -0.45025
 C341 C 0.84799 0.34297 -0.29501
 C342 C 0.86458 0.35918 -0.25995
 C343 C 0.88454 0.37873 -0.21947
 N344 N 0.90849 0.38498 -0.23302
 N345 N 0.92713 0.40365 -0.19727
 C346 C 0.92247 0.41672 -0.14673
 N347 N 0.89843 0.41036 -0.13306
 N348 N 0.87978 0.39167 -0.16886
 N349 N 0.50717 -0.18897 -0.31097
 C350 C 0.50010 -0.17352 -0.34118
 N351 N 0.49303 -0.17675 -0.41138
 N352 N 0.49321 -0.19475 -0.45032
 C353 C 0.50064 -0.21016 -0.42115
 N354 N 0.50733 -0.20697 -0.35009
 C355 C 0.50048 -0.15370 -0.29998
 C356 C 0.50090 -0.13677 -0.26653
 C357 C 0.50154 -0.11637 -0.22782
 N358 N 0.51847 -0.09256 -0.24547
 N359 N 0.51896 -0.07356 -0.21014
 C360 C 0.50250 -0.07775 -0.15601
 N361 N 0.48555 -0.10163 -0.13846
 N362 N 0.48507 -0.12063 -0.17381
 N363 N 0.30179 0.48957 -0.31140
 C364 C 0.32494 0.49849 -0.33938
 N365 N 0.32948 0.50737 -0.40781
 N366 N 0.31139 0.50722 -0.44719
 C367 C 0.28795 0.49800 -0.42029
 N368 N 0.28371 0.48944 -0.35097
 C369 C 0.34440 0.49828 -0.29769
 C370 C 0.36097 0.49806 -0.26401
 C371 C 0.38086 0.49765 -0.22530
 N372 N 0.38787 0.48075 -0.24264
 N373 N 0.40654 0.48048 -0.20750
 C374 C 0.41885 0.49714 -0.15388
 N375 N 0.41179 0.51406 -0.13663
 N376 N 0.39312 0.51432 -0.17181
 N377 N 1.18388 0.66695 -0.40149
 C378 C 1.17468 0.67215 -0.34158
 N379 N 1.18426 0.69621 -0.32080
 N380 N 1.20232 0.71453 -0.35914
 C381 C 1.21132 0.70946 -0.41988
 N382 N 1.20195 0.68528 -0.43983
 C383 C 1.15465 0.65251 -0.30159
 C384 C 1.13761 0.63611 -0.26834
 C385 C 1.11712 0.61667 -0.22915
 N386 N 1.09332 0.60993 -0.24701
 N387 N 1.07426 0.59191 -0.21071
 C388 C 1.07836 0.58002 -0.15527
 N389 N 1.10223 0.58683 -0.13750
 N390 N 1.12130 0.60486 -0.17382
 N391 N 0.83038 0.50829 -0.40818
 C392 C 0.82642 0.50123 -0.33797
 N393 N 0.80365 0.49349 -0.30875
 N394 N 0.78539 0.49276 -0.34875
 C395 C 0.78904 0.49957 -0.41969
 N396 N 0.81209 0.50755 -0.44800
 C397 C 0.84616 0.50201 -0.29529
 C398 C 0.86297 0.50273 -0.26042
 C399 C 0.88324 0.50364 -0.22021
 N400 N 0.87891 0.48635 -0.16875
 N401 N 0.89785 0.48680 -0.13304
 C402 C 0.92174 0.50456 -0.14764
 N403 N 0.92598 0.52188 -0.19905
 N404 N 0.90705 0.52143 -0.23473
 N405 N 0.50639 0.31013 -0.30794
 C406 C 0.49846 0.32505 -0.33688
 N407 N 0.49130 0.32194 -0.40702
 N408 N 0.49213 0.30449 -0.44705
 C409 C 0.50029 0.28951 -0.41900
 N410 N 0.50721 0.29269 -0.34814
 C411 C 0.49758 0.34389 -0.29390
 C412 C 0.49677 0.35986 -0.25869
 C413 C 0.49575 0.37908 -0.21809
 N414 N 0.47785 0.38503 -0.23232
 N415 N 0.47733 0.40342 -0.19643
 C416 C 0.49469 0.41648 -0.14506
 N417 N 0.51255 0.41041 -0.13072
 N418 N 0.51307 0.39201 -0.16664
 N419 N 0.69834 0.18324 -0.31962
 C420 C 0.67411 0.17378 -0.33852
 N421 N 0.66846 0.18289 -0.39779
 N422 N 0.68652 0.20082 -0.43721
 C423 C 0.71086 0.21012 -0.41900
 N424 N 0.71638 0.20115 -0.35903
 C425 C 0.65477 0.15404 -0.29698
 C426 C 0.63867 0.13724 -0.26230
 C427 C 0.61954 0.11699 -0.22168
 N428 N 0.60686 0.12131 -0.16919
 N429 N 0.58879 0.10240 -0.13251
 C430 C 0.58284 0.07855 -0.14700
 N431 N 0.59565 0.07432 -0.19943
 N432 N 0.61371 0.09322 -0.23608
 N433 N 1.18250 0.51377 -0.39789
 C434 C 1.17535 0.50119 -0.33456
 N435 N 1.18635 0.48810 -0.31254
 N436 N 1.20367 0.48728 -0.35336
 C437 C 1.21038 0.49915 -0.41833
 N438 N 1.19981 0.51293 -0.43861
 C439 C 1.15564 0.50090 -0.29303
 C440 C 1.13866 0.50033 -0.25956
 C441 C 1.11806 0.49936 -0.22115
 N442 N 1.09436 0.48200 -0.23857
 N443 N 1.07514 0.48124 -0.20374
 C444 C 1.07900 0.49782 -0.15032
 N445 N 1.10278 0.51519 -0.13296
 N446 N 1.12200 0.51595 -0.16783
 N447 N 0.48091 0.66973 -0.37933
 C448 C 0.50042 0.67473 -0.33549
 N449 N 0.52000 0.69831 -0.33223
 N450 N 0.52019 0.71630 -0.37221
 C451 C 0.50088 0.71124 -0.41719
 N452 N 0.48108 0.68770 -0.41931
 C453 C 0.50069 0.65514 -0.29493
 C454 C 0.50105 0.63854 -0.26193
 C455 C 0.50161 0.61868 -0.22376
 N456 N 0.48486 0.60618 -0.17069
 N457 N 0.48528 0.58755 -0.13585
 C458 C 0.50245 0.58081 -0.15299
 N459 N 0.51920 0.59338 -0.20617
 N460 N 0.51878 0.61199 -0.24099
 N461 N 0.30969 -0.16883 -0.37911
 C462 C 0.32486 -0.17312 -0.33589
 N463 N 0.32187 -0.19634 -0.33305
 N464 N 0.30439 -0.21468 -0.37282
 C465 C 0.28947 -0.21032 -0.41707
 N466 N 0.29221 -0.18716 -0.41889
 C467 C 0.34433 -0.15316 -0.29538
 C468 C 0.36091 -0.13625 -0.26231
 C469 C 0.38083 -0.11598 -0.22396
 N470 N 0.39339 -0.12039 -0.17132
 N471 N 0.41212 -0.10150 -0.13641
 C472 C 0.41892 -0.07758 -0.15308
 N473 N 0.40629 -0.07324 -0.20585
 N474 N 0.38757 -0.09212 -0.24073
 N475 N 0.48020 -0.19774 0.33065
 C476 C 0.50011 -0.17437 0.33422
 N477 N 0.51942 -0.16983 0.37835
 N478 N 0.51873 -0.18805 0.41833
 C479 C 0.49860 -0.21137 0.41591
 N480 N 0.47949 -0.21599 0.37064
 C481 C 0.50054 -0.15448 0.29338
 C482 C 0.50102 -0.13750 0.26021
 C483 C 0.50173 -0.11704 0.22185
 N484 N 0.51899 -0.09329 0.23901
 N485 N 0.51953 -0.07421 0.20407
 C486 C 0.50282 -0.07826 0.15082
 N487 N 0.48555 -0.10208 0.13376
 N488 N 0.48500 -0.12116 0.16873
 N489 N 0.31114 0.48183 0.37997
 C490 C 0.32586 0.50113 0.33598
 N491 N 0.32230 0.52103 0.33245
 N492 N 0.30471 0.52171 0.37239
 C493 C 0.29026 0.50259 0.41758
 N494 N 0.29357 0.48250 0.41988
 C495 C 0.34535 0.50069 0.29521
 C496 C 0.36184 0.50009 0.26217
 C497 C 0.38155 0.49921 0.22393
 N498 N 0.39404 0.51573 0.17039
 N499 N 0.41250 0.51502 0.13542
 C500 C 0.41910 0.49778 0.15287
 N501 N 0.40655 0.48125 0.20654
 N502 N 0.38808 0.48197 0.24149
 N503 N 1.16764 0.68459 0.39855
 C504 C 1.17253 0.67482 0.33940
 N505 N 1.19654 0.68350 0.31935
 N506 N 1.21513 0.70126 0.35775
 C507 C 1.21035 0.71082 0.41777
 N508 N 1.18623 0.70235 0.43693
 C509 C 1.15253 0.65517 0.29939
 C510 C 1.13567 0.63850 0.26640
 C511 C 1.11550 0.61853 0.22778
 N512 N 1.12014 0.60643 0.17424
 N513 N 1.10137 0.58777 0.13872
 C514 C 1.07735 0.58059 0.15566
 N515 N 1.07279 0.59275 0.20936
 N516 N 1.09155 0.61140 0.24485
 N517 N 0.47808 0.17788 0.33089
 C518 C 0.49749 0.17354 0.33388
 N519 N 0.51686 0.18748 0.37873
 N520 N 0.51674 0.20511 0.41980
 C521 C 0.49711 0.20920 0.41787
 N522 N 0.47794 0.19550 0.37195
 C523 C 0.49720 0.15396 0.29166
 C524 C 0.49681 0.13722 0.25727
 C525 C 0.49616 0.11697 0.21772
 N526 N 0.51344 0.12132 0.16612
 N527 N 0.51314 0.10241 0.13079
 C528 C 0.49556 0.07852 0.14593
 N529 N 0.47826 0.07425 0.19753
 N530 N 0.47856 0.09315 0.23281
 N531 N 0.69976 0.52204 0.32995
 C532 C 0.67603 0.50271 0.33288
 N533 N 0.67056 0.48339 0.37798
 N534 N 0.68824 0.48348 0.41933
 C535 C 0.71194 0.50303 0.41744
 N536 N 0.71745 0.52214 0.37128
 C537 C 0.65681 0.50301 0.29027
 C538 C 0.64054 0.50346 0.25558
 C539 C 0.62100 0.50419 0.21579
 N540 N 0.61501 0.52204 0.23018
 N541 N 0.59642 0.52239 0.19491
 C542 C 0.58319 0.50492 0.14402
 N543 N 0.58930 0.48710 0.12953
 N544 N 0.60790 0.48674 0.16484
 N545 N 0.81149 0.33049 0.37593
 C546 C 0.82599 0.32517 0.33295
 N547 N 0.82214 0.30161 0.33175
 N548 N 0.80445 0.28394 0.37267
 C549 C 0.79017 0.28931 0.41661
 N550 N 0.79378 0.31282 0.41689
 C551 C 0.84563 0.34434 0.29070
 C552 C 0.86245 0.36043 0.25606
 C553 C 0.88283 0.37968 0.21607
 N554 N 0.90659 0.38552 0.23106
 N555 N 0.92562 0.40383 0.19545
 C556 C 0.92153 0.41688 0.14354
 N557 N 0.89769 0.41092 0.12846
 N558 N 0.87865 0.39261 0.16411
   
