data_POSCAR
  _audit_creation_date              2014-09-24
  _audit_creation_method            'ToBaCCo'
  _symmetry_space_group_name_H-M    'P1'
  _symmetry_Int_Tables_number       1
  _symmetry_cell_setting            triclinic
  loop_
  _symmetry_equiv_pos_as_xyz
 x,y,z
_cell_length_a 20.0995
_cell_length_b 20.5696
_cell_length_c 32.6305
_cell_angle_alpha 89.754400
_cell_angle_beta 89.068400
_cell_angle_gamma 90.624900
loop_
  _atom_site_label
  _atom_site_type_symbol
  _atom_site_fract_x
  _atom_site_fract_y
  _atom_site_fract_z
O1 O 0.06557 0.56557 1.03538
 O2 O 0.09180 0.43436 0.95965
 O3 O 0.08665 0.56036 0.95677
 O4 O 0.08204 0.44022 1.03927
 O5 O -0.02632 0.42658 1.03256
 O6 O -0.02228 0.55257 0.95068
 O7 O -0.01684 0.42501 0.95243
 O8 O -0.04619 0.55171 1.02916
 Cu9 Cu 0.09191 0.50092 0.99850
 Cu10 Cu -0.03814 0.48750 0.99042
 C11 C 0.00377 0.58397 1.04659
 C12 C 0.04175 0.40778 0.94296
 C13 C 0.03341 0.57799 0.94001
 C14 C 0.02789 0.41267 1.05005
 O15 O 0.57098 -0.03302 0.54721
 O16 O 0.44701 -0.06279 0.46754
 O17 O 0.57251 -0.03203 0.46742
 O18 O 0.44421 -0.06540 0.54693
 O19 O 0.41887 0.03883 0.54826
 O20 O 0.54578 0.07184 0.46786
 O21 O 0.42004 0.04099 0.46850
 O22 O 0.54535 0.07089 0.54779
 Cu23 Cu 0.51140 -0.05866 0.50738
 Cu24 Cu 0.47997 0.06614 0.50833
 C25 C 0.57991 0.02421 0.56076
 C26 C 0.41229 -0.01616 0.45452
 C27 C 0.58055 0.02555 0.45388
 C28 C 0.40909 -0.01920 0.56065
 C29 C -0.00039 0.00497 0.24832
 C30 C -0.01190 -0.00834 0.75845
 C31 C -0.01272 -0.35587 0.08023
 C32 C 0.03632 -0.31682 0.09716
 C33 C 0.01959 -0.26222 0.12467
 C34 C 0.07086 -0.22232 0.13936
 C35 C 0.05656 -0.16943 0.16466
 C36 C -0.00976 -0.15475 0.17562
 C37 C -0.06097 -0.19538 0.16122
 C38 C -0.04660 -0.24835 0.13598
 C39 C -0.02806 -0.09920 0.20236
 C40 C 0.01774 -0.05367 0.21749
 H41 H 0.08800 -0.32555 0.08904
 H42 H 0.12226 -0.23217 0.13119
 H43 H 0.09813 -0.14087 0.17536
 H44 H -0.11246 -0.18593 0.16938
 H45 H -0.08745 -0.27831 0.12537
 H46 H -0.08022 -0.09382 0.21039
 H47 H -0.00167 -0.38492 0.06393
 H48 H 0.06914 -0.05489 0.20740
 C49 C 0.03020 0.36433 0.08330
 C50 C -0.02426 0.32611 0.09586
 C51 C -0.01847 0.27586 0.12829
 C52 C -0.06059 0.22097 0.12797
 C53 C -0.05330 0.17084 0.15674
 C54 C -0.00356 0.17502 0.18667
 C55 C 0.03644 0.23133 0.18794
 C56 C 0.02903 0.28123 0.15934
 C57 C 0.00998 0.12215 0.21649
 C58 C -0.02170 0.06137 0.21734
 H59 H -0.07081 0.32962 0.07957
 H60 H -0.09827 0.21615 0.10475
 H61 H -0.08624 0.12916 0.15481
 H62 H 0.07439 0.23640 0.21095
 H63 H 0.06062 0.32406 0.16172
 H64 H 0.04896 0.13111 0.23835
 H65 H 0.07826 0.35679 0.09709
 H66 H -0.06138 0.05031 0.19638
 C67 C 0.35498 -0.03406 0.59013
 C68 C 0.32002 0.01470 0.61048
 C69 C 0.25793 0.00175 0.63425
 C70 C 0.24058 0.04298 0.66678
 C71 C 0.17993 0.03457 0.68794
 C72 C 0.13490 -0.01447 0.67622
 C73 C 0.15205 -0.05551 0.64357
 C74 C 0.21328 -0.04797 0.62302
 C75 C 0.06815 -0.02087 0.69570
 C76 C 0.05651 -0.00741 0.73724
 H77 H 0.33848 0.06448 0.60873
 H78 H 0.27382 0.08220 0.67560
 H79 H 0.16731 0.06797 0.71237
 H80 H 0.11773 -0.09313 0.63377
 H81 H 0.22435 -0.07947 0.59732
 H82 H 0.02809 -0.03833 0.67674
 H83 H 0.34114 -0.08465 0.59496
 H84 H 0.09905 0.00227 0.75635
 C85 C -0.37159 0.03666 0.58989
 C86 C -0.32830 -0.01158 0.60346
 C87 C -0.27334 0.00052 0.63228
 C88 C -0.22027 -0.04317 0.63283
 C89 C -0.16714 -0.03384 0.65932
 C90 C -0.16647 0.01922 0.68650
 C91 C -0.21937 0.06327 0.68574
 C92 C -0.27262 0.05398 0.65915
 C93 C -0.11161 0.03085 0.71554
 C94 C -0.06768 -0.01790 0.72793
 H95 H -0.33225 -0.06004 0.59044
 H96 H -0.21959 -0.08419 0.61225
 H97 H -0.12643 -0.06763 0.65769
 H98 H -0.21991 0.10464 0.70619
 H99 H -0.31328 0.08788 0.66045
 H100 H -0.10747 0.07900 0.72875
 H101 H -0.36597 0.08624 0.60049
 H102 H -0.07374 -0.06656 0.71578
 C103 C 0.03823 -0.37399 0.90987
 C104 C -0.01716 -0.34524 0.89187
 C105 C -0.00985 -0.29061 0.86224
 C106 C -0.06114 -0.24520 0.85914
 C107 C -0.05417 -0.19124 0.83312
 C108 C 0.00442 -0.18183 0.80950
 C109 C 0.05443 -0.22882 0.81121
 C110 C 0.04754 -0.28267 0.83726
 C111 C 0.01484 -0.12485 0.78217
 C112 C -0.01729 -0.06527 0.78827
 H113 H -0.06689 -0.35936 0.90221
 H114 H -0.10628 -0.25108 0.87738
 H115 H -0.09503 -0.15757 0.83138
 H116 H 0.09941 -0.22331 0.79265
 H117 H 0.08689 -0.31810 0.83740
 H118 H 0.05125 -0.12932 0.75737
 H119 H 0.08768 -0.35576 0.90216
 H120 H -0.05230 -0.06118 0.81376
 C121 C 0.05205 0.35646 0.91226
 C122 C -0.00180 0.32423 0.89448
 C123 C 0.00438 0.27061 0.86447
 C124 C -0.05183 0.23138 0.85706
 C125 C -0.04823 0.17929 0.82976
 C126 C 0.01196 0.16521 0.80919
 C127 C 0.06741 0.20581 0.81539
 C128 C 0.06386 0.25800 0.84276
 C129 C 0.01897 0.10908 0.78121
 C130 C -0.02191 0.05332 0.78368
 H131 H -0.05174 0.33708 0.90440
 H132 H -0.09869 0.24079 0.87273
 H133 H -0.09290 0.15086 0.82468
 H134 H 0.11406 0.19663 0.79945
 H135 H 0.10764 0.28833 0.84637
 H136 H 0.06035 0.11075 0.75962
 H137 H 0.10275 0.34314 0.90472
 H138 H -0.06297 0.05244 0.80555
 C139 C -0.36886 0.03969 0.42193
 C140 C -0.32686 -0.00863 0.40651
 C141 C -0.27211 0.00314 0.37606
 C142 C -0.25243 0.06584 0.36296
 C143 C -0.19879 0.07419 0.33557
 C144 C -0.16350 0.02053 0.32048
 C145 C -0.18354 -0.04223 0.33327
 C146 C -0.23715 -0.05060 0.36074
 C147 C -0.10557 0.03314 0.29268
 C148 C -0.06781 -0.01476 0.27310
 H149 H -0.33390 -0.05799 0.41775
 H150 H -0.27700 0.10891 0.37410
 H151 H -0.18441 0.12310 0.32630
 H152 H -0.15795 -0.08516 0.32282
 H153 H -0.25106 -0.09947 0.37037
 H154 H -0.09076 0.08340 0.28765
 H155 H -0.36518 0.08922 0.41096
 H156 H -0.07734 -0.06563 0.27935
 C157 C 0.36245 -0.02964 0.42314
 C158 C 0.31912 0.01803 0.40915
 C159 C 0.26477 0.00596 0.37965
 C160 C 0.22397 0.05810 0.36854
 C161 C 0.17099 0.04886 0.34178
 C162 C 0.15748 -0.01305 0.32571
 C163 C 0.19816 -0.06514 0.33652
 C164 C 0.25135 -0.05589 0.36298
 C165 C 0.10117 -0.02545 0.29812
 C166 C 0.06403 0.02409 0.28067
 H167 H 0.32437 0.06684 0.42119
 H168 H 0.23282 0.10620 0.38087
 H169 H 0.14018 0.08994 0.33411
 H170 H 0.18874 -0.11340 0.32437
 H171 H 0.28097 -0.09777 0.37025
 H172 H 0.08902 -0.07537 0.29046
 H173 H 0.35970 -0.07896 0.41207
 H174 H 0.03267 0.01481 0.26492
   
