data_POSCAR
  _audit_creation_date              2014-09-24
  _audit_creation_method            'ToBaCCo'
  _symmetry_space_group_name_H-M    'P1'
  _symmetry_Int_Tables_number       1
  _symmetry_cell_setting            triclinic
  loop_
  _symmetry_equiv_pos_as_xyz
 x,y,z
_cell_length_a 21.7718
_cell_length_b 21.7678
_cell_length_c 21.8101
_cell_angle_alpha 90.457200
_cell_angle_beta 89.958000
_cell_angle_gamma 89.736500
loop_
  _atom_site_label
  _atom_site_type_symbol
  _atom_site_fract_x
  _atom_site_fract_y
  _atom_site_fract_z
C1 C 0.62234 0.62228 -0.00020
 C2 C 0.64007 0.56011 -0.00463
 C3 C 0.59337 0.51580 -0.00996
 C4 C 0.53112 0.53117 0.00013
 C5 C 0.51593 0.59356 0.00996
 C6 C 0.56025 0.64014 0.00430
 C7 C 0.48224 0.48232 0.00043
 C8 C 0.41995 0.49740 -0.00992
 C9 C 0.37363 0.45276 -0.00600
 C10 C 0.39111 0.39115 0.00084
 C11 C 0.45278 0.37378 0.00761
 C12 C 0.49744 0.42016 0.01107
 H13 H 0.65752 0.65740 -0.00023
 H14 H 0.60522 0.46949 -0.02299
 H15 H 0.46980 0.60564 0.02312
 H16 H 0.40782 0.54367 -0.02167
 H17 H 0.35599 0.35600 0.00089
 H18 H 0.54387 0.40818 0.02254
 C19 C -0.00070 0.61099 0.37586
 C20 C -0.00504 0.62814 0.43799
 C21 C -0.01093 0.58121 0.48152
 C22 C -0.00105 0.51895 0.46573
 C23 C 0.00797 0.50398 0.40315
 C24 C 0.00318 0.54907 0.35717
 C25 C -0.00015 0.47032 0.51473
 C26 C -0.00983 0.40772 0.50030
 C27 C -0.00631 0.36212 0.54569
 C28 C -0.00050 0.38078 0.60715
 C29 C 0.00584 0.44281 0.62370
 C30 C 0.01024 0.48641 0.57674
 H31 H -0.00053 0.64656 0.34130
 H32 H -0.02434 0.59303 0.52759
 H33 H 0.01974 0.45757 0.39057
 H34 H -0.02075 0.39482 0.45402
 H35 H -0.00087 0.34634 0.64279
 H36 H 0.02237 0.53278 0.58831
 C37 C 0.61207 -0.00004 0.62289
 C38 C 0.55041 0.00417 0.64125
 C39 C 0.50489 0.00847 0.59568
 C40 C 0.51932 -0.00064 0.53317
 C41 C 0.58149 -0.01042 0.51718
 C42 C 0.62879 -0.00458 0.56075
 C43 C 0.47020 0.00009 0.48450
 C44 C 0.48572 0.01089 0.42274
 C45 C 0.44195 0.00593 0.37578
 C46 C 0.38005 -0.00066 0.39215
 C47 C 0.36184 -0.00653 0.45356
 C48 C 0.40779 -0.00999 0.49890
 H49 H 0.64761 0.00004 0.65770
 H50 H 0.45856 0.01968 0.60876
 H51 H 0.59289 -0.02381 0.47098
 H52 H 0.53182 0.02385 0.41143
 H53 H 0.34542 -0.00116 0.35645
 H54 H 0.39530 -0.02105 0.54510
 O55 O 0.45912 0.00023 -0.07969
 O56 O 0.44112 -0.00041 0.08742
 O57 O 0.44442 0.08407 0.00463
 O58 O 0.46209 -0.08451 0.00408
 O59 O 0.56228 -0.07377 0.01510
 O60 O 0.54475 0.09397 0.01534
 O61 O 0.54136 0.00979 0.09880
 O62 O 0.55944 0.01034 -0.06918
 Cu63 Cu 0.44163 -0.00129 0.00301
 Cu64 Cu 0.56204 0.01098 0.01610
 C65 C 0.51218 0.00555 -0.10307
 C66 C 0.48789 0.00494 0.12165
 C67 C 0.49171 0.11771 0.01016
 C68 C 0.51546 -0.10784 0.00940
 O69 O -0.07391 0.56214 0.98574
 O70 O 0.09382 0.54467 0.98651
 O71 O 0.00970 0.54172 0.90223
 O72 O 0.01015 0.55883 1.07077
 O73 O 0.00011 0.45846 1.08006
 O74 O -0.00059 0.44144 0.91236
 O75 O 0.08395 0.44427 0.99592
 O76 O -0.08461 0.46190 0.99561
 Cu77 Cu 0.01084 0.56190 0.98538
 Cu78 Cu -0.00140 0.44148 0.99694
 C79 C -0.10796 0.51530 0.99075
 C80 C 0.11758 0.49160 0.99116
 C81 C 0.00484 0.48835 0.87866
 C82 C 0.00533 0.51143 1.10416
 O83 O -0.01407 -0.08648 0.43877
 O84 O -0.01289 0.08107 0.45649
 O85 O 0.07134 -0.00354 0.44244
 O86 O -0.09733 -0.00306 0.46024
 O87 O -0.08593 -0.01381 0.56020
 O88 O 0.08147 -0.01283 0.54265
 O89 O -0.00299 0.07157 0.55670
 O90 O -0.00272 -0.09726 0.53874
 Cu91 Cu -0.01428 -0.00197 0.43947
 Cu92 Cu -0.00144 -0.01407 0.55959
 C93 C -0.00840 -0.12051 0.48537
 C94 C -0.00802 0.10509 0.50943
 C95 C 0.10515 -0.00830 0.48974
 C96 C -0.12024 -0.00840 0.51358
 C97 C -0.29507 0.54458 0.99452
 C98 C -0.25895 0.57660 1.04654
 C99 C -0.19735 0.56635 1.04483
 C100 C -0.17653 0.52432 0.99192
 C101 C -0.21483 0.46572 0.99951
 C102 C -0.27661 0.47605 1.00135
 C103 C -0.26332 0.56507 0.93504
 C104 C -0.20168 0.55452 0.93373
 H105 H -0.28022 0.60381 1.08279
 H106 H -0.16643 0.58511 1.07915
 H107 H -0.19523 0.42036 1.00641
 H108 H -0.30769 0.43890 1.01190
 H109 H -0.28753 0.58562 0.89676
 H110 H -0.17344 0.56603 0.89445
 C111 C 0.30515 0.46781 0.99225
 C112 C 0.27198 0.44462 1.05005
 C113 C 0.21010 0.45296 1.04943
 C114 C 0.18622 0.48413 0.99133
 C115 C 0.22300 0.54418 0.98728
 C116 C 0.28505 0.53589 0.98792
 C117 C 0.27215 0.43599 0.93836
 C118 C 0.21019 0.44438 0.93799
 H119 H 0.29551 0.42422 1.08881
 H120 H 0.18095 0.43962 1.08745
 H121 H 0.20231 0.58959 0.98536
 H122 H 0.31542 0.57506 0.98716
 H123 H 0.29577 0.40964 0.90298
 H124 H 0.18099 0.42511 0.90246
 C125 C -0.00548 -0.30722 0.45431
 C126 C 0.04663 -0.27127 0.42286
 C127 C 0.04520 -0.20977 0.43380
 C128 C -0.00749 -0.18893 0.47590
 C129 C -0.06607 -0.21336 0.44543
 C130 C -0.06505 -0.27489 0.43416
 C131 C 0.00187 -0.28943 0.52294
 C132 C 0.00033 -0.22771 0.53398
 H133 H 0.08277 -0.29261 0.39562
 H134 H 0.07966 -0.17896 0.41559
 H135 H -0.10541 -0.18472 0.43428
 H136 H -0.10364 -0.29864 0.41336
 H137 H 0.01257 -0.32096 0.55963
 H138 H 0.00761 -0.20850 0.57946
 C139 C -0.00764 0.29325 0.53160
 C140 C 0.05003 0.26033 0.55626
 C141 C 0.04970 0.19828 0.54857
 C142 C -0.00804 0.17395 0.51657
 C143 C -0.06199 0.19856 0.55497
 C144 C -0.06190 0.26069 0.56267
 C145 C -0.01109 0.27214 0.46382
 C146 C -0.01145 0.20998 0.45621
 H147 H 0.08849 0.28412 0.57721
 H148 H 0.08765 0.16928 0.56301
 H149 H -0.09770 0.16966 0.57387
 H150 H -0.09770 0.28470 0.58807
 H151 H -0.01141 0.30191 0.42436
 H152 H -0.01271 0.18871 0.41105
 C153 C 0.53605 0.00460 -0.29027
 C154 C 0.55962 0.06288 -0.25777
 C155 C 0.55110 0.06333 -0.19595
 C156 C 0.51973 0.00545 -0.17160
 C157 C 0.45970 0.00048 -0.20854
 C158 C 0.46807 -0.00025 -0.27044
 C159 C 0.56755 -0.04903 -0.25660
 C160 C 0.55931 -0.04832 -0.19482
 H161 H 0.58068 0.10097 -0.28164
 H162 H 0.56486 0.10172 -0.16707
 H163 H 0.41456 -0.00447 -0.18807
 H164 H 0.42955 -0.00736 -0.30100
 H165 H 0.59323 -0.08532 -0.27966
 H166 H 0.57814 -0.08365 -0.16535
 C167 C 0.45878 0.00641 0.30790
 C168 C 0.52761 0.00872 0.29003
 C169 C 0.53780 0.00854 0.22841
 C170 C 0.47882 0.00558 0.18986
 C171 C 0.44532 -0.05162 0.21284
 C172 C 0.43499 -0.05129 0.27428
 C173 C 0.42948 0.06072 0.27381
 C174 C 0.43984 0.06022 0.21230
 H175 H 0.56594 0.00762 0.32152
 H176 H 0.58382 0.00837 0.20922
 H177 H 0.43191 -0.08975 0.18345
 H178 H 0.41284 -0.08935 0.29721
 H179 H 0.40329 0.09695 0.29637
 H180 H 0.42243 0.09592 0.18241
 C181 C 0.54480 -0.29498 0.00519
 C182 C 0.57680 -0.25904 -0.04650
 C183 C 0.56653 -0.19742 -0.04465
 C184 C 0.52450 -0.17642 0.00803
 C185 C 0.46592 -0.21478 -0.00013
 C186 C 0.47628 -0.27657 -0.00210
 C187 C 0.56528 -0.26299 0.06491
 C188 C 0.55470 -0.20134 0.06635
 H189 H 0.60396 -0.28045 -0.08265
 H190 H 0.58524 -0.16663 -0.07875
 H191 H 0.42057 -0.19522 -0.00732
 H192 H 0.43918 -0.30775 -0.01307
 H193 H 0.58584 -0.28704 0.10326
 H194 H 0.56620 -0.17294 0.10581
 C195 C 0.46789 0.30530 0.00943
 C196 C 0.53594 0.28524 0.01455
 C197 C 0.54424 0.22318 0.01506
 C198 C 0.48423 0.18636 0.01017
 C199 C 0.44424 0.21053 0.06313
 C200 C 0.43586 0.27250 0.06287
 C201 C 0.44496 0.27189 -0.04872
 C202 C 0.45333 0.21000 -0.04822
 H203 H 0.57508 0.31561 0.01630
 H204 H 0.58961 0.20251 0.01770
 H205 H 0.42485 0.18147 0.09834
 H206 H 0.40939 0.29627 0.09804
 H207 H 0.42470 0.29526 -0.08764
 H208 H 0.44016 0.18069 -0.08648
 C209 C -0.30670 -0.00517 0.54447
 C210 C -0.27051 0.04703 0.57611
 C211 C -0.20910 0.04551 0.56522
 C212 C -0.18858 -0.00738 0.52298
 C213 C -0.21287 -0.06583 0.55326
 C214 C -0.27431 -0.06471 0.56447
 C215 C -0.28935 0.00187 0.47588
 C216 C -0.22771 0.00022 0.46489
 H217 H -0.29164 0.08330 0.60348
 H218 H -0.17814 0.08001 0.58359
 H219 H -0.18420 -0.10516 0.56431
 H220 H -0.29796 -0.10319 0.58512
 H221 H -0.32110 0.01240 0.43918
 H222 H -0.20879 0.00727 0.41944
 C223 C 0.29310 -0.00793 0.46763
 C224 C 0.27249 -0.01135 0.53538
 C225 C 0.21039 -0.01173 0.54299
 C226 C 0.17394 -0.00835 0.48264
 C227 C 0.19801 0.04939 0.45103
 C228 C 0.25999 0.04973 0.44335
 C229 C 0.26034 -0.06223 0.43619
 C230 C 0.19829 -0.06234 0.44388
 H231 H 0.30255 -0.01168 0.57483
 H232 H 0.18944 -0.01300 0.58813
 H233 H 0.16891 0.08733 0.43684
 H234 H 0.28362 0.08821 0.42267
 H235 H 0.28419 -0.09804 0.41055
 H236 H 0.16926 -0.09807 0.42475
 C237 C 0.00364 0.53511 1.29199
 C238 C 0.06221 0.55830 1.26014
 C239 C 0.06283 0.54983 1.19825
 C240 C 0.00496 0.51879 1.17292
 C241 C -0.00052 0.45877 1.20936
 C242 C -0.00159 0.46705 1.27138
 C243 C -0.04981 0.56671 1.25769
 C244 C -0.04872 0.55856 1.19584
 H245 H 0.10047 0.57904 1.28447
 H246 H 0.10145 0.56335 1.16994
 H247 H -0.00606 0.41374 1.18841
 H248 H -0.00988 0.42850 1.30128
 H249 H -0.08642 0.59225 1.28035
 H250 H -0.08394 0.57737 1.16611
 C251 C 0.00646 0.45975 0.69182
 C252 C 0.06026 0.42966 0.72625
 C253 C 0.05971 0.43986 0.78787
 C254 C 0.00557 0.47954 0.81019
 C255 C 0.00950 0.53856 0.77216
 C256 C 0.00977 0.52850 0.71039
 C257 C -0.05162 0.43670 0.72470
 C258 C -0.05199 0.44688 0.78626
 H259 H 0.09626 0.40309 0.70380
 H260 H 0.09511 0.42192 0.81793
 H261 H 0.01041 0.58451 0.79182
 H262 H 0.01016 0.56686 0.67918
 H263 H -0.08990 0.41508 0.70120
 H264 H -0.09037 0.43389 0.81514
   
