data_POSCAR
  _audit_creation_date              2014-09-24
  _audit_creation_method            'ToBaCCo'
  _symmetry_space_group_name_H-M    'P1'
  _symmetry_Int_Tables_number       1
  _symmetry_cell_setting            triclinic
  loop_
  _symmetry_equiv_pos_as_xyz
 x,y,z
_cell_length_a 23.8188
_cell_length_b 27.8877
_cell_length_c 10.7125
_cell_angle_alpha 88.970900
_cell_angle_beta 91.268500
_cell_angle_gamma 127.409500
loop_
  _atom_site_label
  _atom_site_type_symbol
  _atom_site_fract_x
  _atom_site_fract_y
  _atom_site_fract_z
C1 C 0.53448 0.97528 0.59082
 C2 C 0.49857 0.94623 0.47705
 C3 C 0.47660 0.97286 0.39816
 C4 C 0.49327 1.02948 0.42454
 C5 C 0.52994 1.05902 0.53810
 C6 C 0.55358 1.03293 0.61500
 H7 H 0.57942 1.05425 0.70318
 H8 H 0.45162 0.95164 0.30942
 C9 C 0.07851 0.56622 0.50931
 C10 C 0.04694 0.55228 0.38871
 C11 C -0.02683 0.51967 0.37900
 C12 C -0.07106 0.48894 0.48224
 C13 C -0.03928 0.50216 0.60307
 C14 C 0.03470 0.54409 0.61405
 H15 H 0.05885 0.55476 0.70643
 H16 H -0.05019 0.51077 0.28620
 C17 C 0.50814 0.54013 0.58436
 C18 C 0.47115 0.52978 0.47038
 C19 C 0.46405 0.48952 0.38379
 C20 C 0.48669 0.45461 0.41085
 C21 C 0.51601 0.45857 0.53057
 C22 C 0.53200 0.50516 0.61086
 H23 H 0.55631 0.50975 0.70102
 H24 H 0.43981 0.48495 0.29334
 O25 O 0.50027 0.70579 -0.11039
 O26 O 0.51216 0.80360 -0.05490
 C27 C 0.48124 0.81826 -0.12665
 O28 O 0.41469 0.78721 -0.13730
 O29 O 0.28711 0.68501 -0.16012
 C30 C 0.28465 0.64790 -0.23307
 O31 O 0.31127 0.62117 -0.20467
 O32 O 0.40445 0.60998 -0.10830
 C33 C 0.46697 0.65138 -0.14339
 O34 O 0.46355 0.66523 0.12808
 O35 O 0.47150 0.75974 0.17823
 C36 C 0.44562 0.78755 0.19268
 O37 O 0.40313 0.78529 0.11390
 O38 O 0.27750 0.68063 0.09428
 C39 C 0.23430 0.62399 0.08281
 O40 O 0.24687 0.59463 0.01526
 O41 O 0.34655 0.59367 0.11856
 C42 C 0.40608 0.61918 0.17306
 Cr43 Cr 0.48354 0.73223 0.03313
 Cr44 Cr 0.34699 0.73309 -0.02206
 Cr45 Cr 0.32938 0.60764 -0.04368
 O46 O 0.38711 0.69146 -0.01191
 O47 O 0.53106 0.29544 -0.16560
 O48 O 0.52527 0.20186 -0.11386
 C49 C 0.57568 0.20719 -0.16786
 O50 O 0.63850 0.23847 -0.12392
 O51 O 0.75112 0.34042 -0.03048
 C52 C 0.76994 0.38692 -0.09264
 O53 O 0.73289 0.40539 -0.09984
 O54 O 0.61382 0.39206 -0.11402
 C55 C 0.56551 0.35143 -0.18672
 O56 O 0.50207 0.30167 0.06936
 O57 O 0.50131 0.20838 0.12555
 C58 C 0.52952 0.18269 0.15056
 O59 O 0.58890 0.20123 0.10865
 O60 O 0.69505 0.30636 0.19587
 C61 C 0.72589 0.36127 0.22428
 O62 O 0.72577 0.39875 0.15393
 O63 O 0.60561 0.38384 0.13743
 C64 C 0.53867 0.34995 0.13244
 Cr65 Cr 0.51858 0.25390 -0.01931
 Cr66 Cr 0.66661 0.27279 0.03663
 Cr67 Cr 0.66773 0.39180 0.01936
 O68 O 0.61742 0.30638 0.01334
 C69 C 0.54445 0.94544 -0.31402
 C70 C 0.59871 0.97293 -0.22585
 C71 C 0.58551 0.92744 -0.14966
 C72 C 0.52336 0.87591 -0.19460
 O73 O 0.49845 0.88659 -0.29393
 H74 H 0.64282 1.02033 -0.21800
 H75 H 0.61511 0.93186 -0.06679
 C76 C 0.15428 0.59519 -0.46527
 C77 C 0.19128 0.57757 -0.51912
 C78 C 0.24959 0.60085 -0.44510
 C79 C 0.24376 0.63025 -0.35038
 O80 O 0.18614 0.62682 -0.36213
 H81 H 0.17418 0.54584 -0.59424
 H82 H 0.28804 0.59233 -0.45163
 C83 C 0.52019 0.58264 -0.32744
 C84 C 0.57765 0.61365 -0.24606
 C85 C 0.56779 0.64771 -0.17432
 C86 C 0.50426 0.63403 -0.21407
 O87 O 0.47527 0.59485 -0.30725
 H88 H 0.62186 0.61199 -0.23987
 H89 H 0.60070 0.67621 -0.09691
 C90 C 0.53421 0.10794 -0.41217
 C91 C 0.48823 0.12147 -0.44208
 C92 C 0.50366 0.16470 -0.36125
 C93 C 0.55663 0.17410 -0.28498
 O94 O 0.57519 0.13971 -0.31438
 H95 H 0.44333 0.09874 -0.50548
 H96 H 0.47529 0.18340 -0.35167
 C97 C 0.92114 0.47077 -0.28088
 C98 C 0.94555 0.45103 -0.19126
 C99 C 0.89249 0.41860 -0.10843
 C100 C 0.83941 0.42101 -0.15221
 O101 O 0.85659 0.45311 -0.25664
 H102 H 0.99497 0.45710 -0.18978
 H103 H 0.89175 0.39465 -0.02704
 C104 C 0.52264 0.41427 -0.42276
 C105 C 0.48503 0.35565 -0.46711
 C106 C 0.50072 0.32667 -0.38903
 C107 C 0.54526 0.36830 -0.29979
 O108 O 0.55847 0.42136 -0.31874
 H109 H 0.44489 0.33335 -0.53934
 H110 H 0.47819 0.27933 -0.39176
 C111 C 0.85756 0.44101 0.45466
 C112 C 0.81673 0.38564 0.51579
 C113 C 0.75892 0.34875 0.44071
 C114 C 0.76832 0.38392 0.33955
 O115 O 0.82761 0.43930 0.34742
 H116 H 0.83055 0.37077 0.59642
 H117 H 0.71757 0.30093 0.45373
 C118 C 0.47951 0.05777 0.33198
 C119 C 0.42135 0.02888 0.25216
 C120 C 0.42874 0.07375 0.18201
 C121 C 0.49144 0.12632 0.22195
 O122 O 0.52270 0.11672 0.31134
 H123 H 0.37820 -0.01891 0.24698
 H124 H 0.39505 0.06841 0.10530
 C125 C 0.47985 0.41576 0.31023
 C126 C 0.41841 0.37669 0.24229
 C127 C 0.43202 0.34561 0.16903
 C128 C 0.50096 0.36848 0.19674
 O129 O 0.53040 0.41131 0.28211
 H130 H 0.36906 0.37045 0.24845
 H131 H 0.39626 0.31085 0.10226
 C132 C 0.08500 0.56037 0.27225
 C133 C 0.05550 0.51612 0.18185
 C134 C 0.10739 0.53528 0.09885
 C135 C 0.16509 0.59005 0.14324
 O136 O 0.15194 0.60588 0.24846
 H137 H 0.00315 0.47332 0.17980
 H138 H 0.10414 0.51151 0.01687
 C139 C 0.49394 0.89436 0.42647
 C140 C 0.54026 0.88155 0.45781
 C141 C 0.52401 0.83688 0.38014
 C142 C 0.47061 0.82654 0.30319
 O143 O 0.45239 0.86151 0.33020
 H144 H 0.58419 0.90443 0.52339
 H145 H 0.55136 0.81709 0.37450
 C146 C 0.44165 0.56114 0.43020
 C147 C 0.37517 0.54123 0.46469
 C148 C 0.35363 0.56198 0.37406
 C149 C 0.40868 0.59332 0.29153
 O150 O 0.46184 0.59256 0.32459
 H151 H 0.34340 0.51002 0.53935
 H152 H 0.30244 0.55252 0.36488
   
