data_POSCAR
  _audit_creation_date              2014-09-24
  _audit_creation_method            'ToBaCCo'
  _symmetry_space_group_name_H-M    'P1'
  _symmetry_Int_Tables_number       1
  _symmetry_cell_setting            triclinic
  loop_
  _symmetry_equiv_pos_as_xyz
 x,y,z
_cell_length_a 30.8577
_cell_length_b 17.9103
_cell_length_c 14.4283
_cell_angle_alpha 89.457900
_cell_angle_beta 90.231500
_cell_angle_gamma 89.922500
loop_
  _atom_site_label
  _atom_site_type_symbol
  _atom_site_fract_x
  _atom_site_fract_y
  _atom_site_fract_z
O1 O 0.06084 0.12877 0.17207
 O2 O 0.10798 0.06180 0.08209
 C3 C 0.09951 0.10989 0.14572
 O4 O -0.06082 -0.14167 0.15699
 O5 O -0.10796 -0.06690 0.07448
 C6 C -0.09945 -0.12152 0.13078
 O7 O 0.06131 -0.13275 0.17137
 O8 O 0.10804 -0.06246 0.08345
 C9 C 0.09991 -0.11230 0.14625
 O10 O -0.06152 0.13518 0.16195
 O11 O -0.10819 0.06345 0.07632
 C12 C -0.10008 0.11543 0.13538
 Zr13 Zr -0.00023 0.09262 0.12046
 O14 O -0.00455 0.08769 0.26672
 O15 O 0.00416 0.21049 0.12413
 Zr16 Zr 0.00028 -0.09571 0.11966
 O17 O -0.00267 -0.08740 0.26537
 O18 O 0.00503 -0.21343 0.12826
 O19 O 0.03882 -0.00162 0.13801
 O20 O -0.03794 -0.00205 0.13619
 O21 O -0.06103 0.13986 -0.15612
 O22 O -0.10808 0.06516 -0.07445
 C23 C -0.09966 0.11927 -0.13149
 O24 O 0.06195 -0.13020 -0.16477
 O25 O 0.10862 -0.06162 -0.07518
 C26 C 0.10050 -0.11038 -0.13824
 O27 O -0.06070 -0.13867 -0.15561
 O28 O -0.10787 -0.06522 -0.07400
 C29 C -0.09941 -0.11876 -0.13045
 O30 O 0.06142 0.13280 -0.16422
 O31 O 0.10837 0.06299 -0.07484
 C32 C 0.10006 0.11273 -0.13783
 Zr33 Zr 0.00006 0.09510 -0.11560
 O34 O -0.00486 0.09147 -0.26188
 O35 O 0.00462 0.21289 -0.12136
 Zr36 Zr 0.00047 -0.09340 -0.11660
 O37 O -0.00460 -0.08598 -0.26279
 O38 O 0.00544 -0.21093 -0.12535
 Zr39 Zr 0.06420 -0.00023 0.00268
 Zr40 Zr -0.06382 -0.00059 0.00113
 O41 O -0.03762 0.00086 -0.13322
 O42 O 0.03911 0.00115 -0.13348
 O43 O -0.03829 0.10848 0.00203
 O44 O 0.03759 -0.10833 0.00206
 O45 O 0.03708 0.10774 0.00300
 O46 O -0.03757 -0.10939 0.00099
 H47 H -0.05826 -0.00302 0.18919
 H48 H 0.05694 -0.15251 0.00263
 H49 H -0.05799 0.00122 -0.18649
 H50 H 0.05629 0.15202 0.00347
 H51 H -0.01368 -0.23383 0.07887
 H52 H -0.01363 -0.23227 -0.07706
 H53 H 0.02262 -0.06359 -0.28596
 H54 H 0.02184 0.06758 -0.28520
 H55 H -0.01539 0.23268 -0.07419
 H56 H -0.01860 0.23071 0.08244
 H57 H 0.01855 0.05350 0.28896
 H58 H -0.00262 -0.13945 0.28917
 O59 O 0.56059 0.63380 0.66497
 O60 O 0.60763 0.56514 0.57691
 C61 C 0.59925 0.61412 0.63964
 O62 O 0.43888 0.36417 0.65736
 O63 O 0.39160 0.43688 0.57252
 C64 C 0.40017 0.38380 0.63108
 O65 O 0.56082 0.37218 0.66895
 O66 O 0.60771 0.44025 0.57832
 C67 C 0.59940 0.39171 0.64274
 O68 O 0.43857 0.64106 0.65338
 O69 O 0.39144 0.56734 0.57146
 C70 C 0.39992 0.62078 0.62830
 Zr71 Zr 0.49965 0.59689 0.61395
 O72 O 0.49517 0.59271 0.76033
 O73 O 0.50427 0.71471 0.61700
 Zr74 Zr 0.49991 0.40867 0.61670
 O75 O 0.49761 0.41849 0.76235
 O76 O 0.50463 0.29094 0.62573
 O77 O 0.53864 0.50283 0.63281
 O78 O 0.46183 0.50263 0.63187
 O79 O 0.43790 0.64020 0.33658
 O80 O 0.39122 0.56704 0.42124
 C81 C 0.39936 0.62004 0.36259
 O82 O 0.56124 0.37106 0.33207
 O83 O 0.60816 0.44046 0.42008
 C84 C 0.59990 0.39117 0.35771
 O85 O 0.43863 0.36367 0.34054
 O86 O 0.39157 0.43723 0.42235
 C87 C 0.39998 0.38401 0.36532
 O88 O 0.56041 0.63230 0.32625
 O89 O 0.60765 0.56507 0.41801
 C90 C 0.59910 0.61277 0.35277
 Zr91 Zr 0.49932 0.59677 0.37818
 O92 O 0.49388 0.59453 0.23196
 O93 O 0.50430 0.71462 0.37365
 Zr94 Zr 0.49976 0.40796 0.38082
 O95 O 0.49467 0.41209 0.23450
 O96 O 0.50471 0.29019 0.37738
 Zr97 Zr 0.56381 0.50267 0.49731
 Zr98 Zr 0.43564 0.50231 0.49712
 O99 O 0.46176 0.50220 0.36266
 O100 O 0.53823 0.50242 0.36158
 O101 O 0.46126 0.61140 0.49578
 O102 O 0.53712 0.39467 0.49914
 O103 O 0.53681 0.61066 0.49593
 O104 O 0.46169 0.39346 0.49880
 H105 H 0.44164 0.50262 0.68508
 H106 H 0.55648 0.35047 0.50012
 H107 H 0.44152 0.50214 0.30919
 H108 H 0.55621 0.65470 0.49531
 H109 H 0.48487 0.27029 0.57839
 H110 H 0.48349 0.27000 0.42218
 H111 H 0.52141 0.43577 0.21072
 H112 H 0.51859 0.56506 0.20860
 H113 H 0.48137 0.73485 0.41400
 H114 H 0.48342 0.73468 0.57081
 H115 H 0.51911 0.56063 0.78339
 H116 H 0.49729 0.36671 0.78710
 C117 C 0.28966 0.27946 0.28084
 C118 C 0.28774 0.22713 0.20818
 C119 C 0.24776 0.19218 0.18609
 C120 C 0.20993 0.21006 0.23672
 C121 C 0.21188 0.26217 0.30958
 C122 C 0.25182 0.29732 0.33148
 C123 C 0.25296 0.34935 0.40478
 C124 C 0.21581 0.36558 0.45539
 C125 C 0.17678 0.33099 0.43401
 C126 C 0.17462 0.27996 0.36184
 C127 C 0.24660 0.14019 0.11275
 C128 C 0.28381 0.12350 0.06262
 C129 C 0.32289 0.15773 0.08434
 C130 C 0.32504 0.20896 0.15629
 C131 C 0.16901 0.17599 0.21160
 C132 C 0.13616 0.14661 0.18546
 C133 C 0.33051 0.31424 0.30514
 C134 C 0.36331 0.34475 0.32950
 H135 H 0.28253 0.37769 0.42414
 H136 H 0.21732 0.40525 0.51143
 H137 H 0.14799 0.34388 0.47340
 H138 H 0.14354 0.25444 0.34775
 H139 H 0.21698 0.11215 0.09303
 H140 H 0.28227 0.08388 0.00651
 H141 H 0.35169 0.14457 0.04511
 H142 H 0.35613 0.23437 0.17050
 C143 C 0.71030 0.70191 0.24990
 C144 C 0.71244 0.75620 0.17828
 C145 C 0.75294 0.78857 0.15467
 C146 C 0.79091 0.76683 0.20356
 C147 C 0.78905 0.71032 0.27248
 C148 C 0.74861 0.67749 0.29561
 C149 C 0.74753 0.62074 0.36467
 C150 C 0.78536 0.59706 0.40919
 C151 C 0.82490 0.62943 0.38661
 C152 C 0.82690 0.68557 0.31924
 C153 C 0.75441 0.84247 0.08225
 C154 C 0.71692 0.86370 0.03467
 C155 C 0.67725 0.83229 0.05822
 C156 C 0.67482 0.77923 0.12934
 C157 C 0.83157 0.80361 0.18318
 C158 C 0.86414 0.83651 0.16259
 C159 C 0.66883 0.67261 0.27941
 C160 C 0.63574 0.64670 0.30942
 H161 H 0.71760 0.59370 0.38456
 H162 H 0.78398 0.55334 0.46143
 H163 H 0.85421 0.61091 0.42137
 H164 H 0.85841 0.70893 0.30374
 H165 H 0.78449 0.86849 0.06130
 H166 H 0.71865 0.90491 -0.02056
 H167 H 0.64820 0.84915 0.02121
 H168 H 0.64328 0.75619 0.14518
 C169 C 0.70938 0.29070 0.73775
 C170 C 0.73257 0.31593 0.81610
 C171 C 0.77388 0.28496 0.83738
 C172 C 0.79158 0.22871 0.78042
 C173 C 0.76860 0.20420 0.70139
 C174 C 0.72714 0.23467 0.68061
 C175 C 0.70427 0.20801 0.60240
 C176 C 0.72211 0.15352 0.54579
 C177 C 0.76298 0.12460 0.56526
 C178 C 0.78608 0.14934 0.64219
 C179 C 0.79647 0.31095 0.91622
 C180 C 0.77863 0.36561 0.97269
 C181 C 0.73814 0.39566 0.95201
 C182 C 0.71525 0.37144 0.87452
 C183 C 0.83173 0.19215 0.80708
 C184 C 0.86391 0.15979 0.83259
 C185 C 0.66867 0.32558 0.71172
 C186 C 0.63604 0.35535 0.68411
 H187 H 0.67234 0.22870 0.58434
 H188 H 0.70408 0.13366 0.48656
 H189 H 0.77679 0.08253 0.52080
 H190 H 0.81776 0.12515 0.65447
 H191 H 0.82798 0.28902 0.93526
 H192 H 0.79625 0.38444 1.03308
 H193 H 0.72434 0.43782 0.99634
 H194 H 0.68381 0.39631 0.86130
 C195 C 0.29179 0.72909 0.71813
 C196 C 0.27529 0.71662 0.80833
 C197 C 0.23469 0.74769 0.83356
 C198 C 0.21096 0.79131 0.76842
 C199 C 0.22790 0.80507 0.67886
 C200 C 0.26859 0.77420 0.65377
 C201 C 0.28524 0.78972 0.56433
 C202 C 0.26233 0.83454 0.50160
 C203 C 0.22227 0.86389 0.52573
 C204 C 0.20509 0.84951 0.61327
 C205 C 0.21875 0.73413 0.92414
 C206 C 0.24229 0.69120 0.98780
 C207 C 0.28216 0.66133 0.96327
 C208 C 0.29860 0.67361 0.87461
 C209 C 0.17017 0.82470 0.79549
 C210 C 0.13735 0.85355 0.82237
 C211 C 0.33153 0.69265 0.68994
 C212 C 0.36353 0.66069 0.66394
 H213 H 0.31614 0.76777 0.54204
 H214 H 0.27558 0.84605 0.43360
 H215 H 0.20442 0.89799 0.47634
 H216 H 0.17386 0.87371 0.62901
 H217 H 0.18801 0.75646 0.94682
 H218 H 0.22960 0.68130 1.05666
 H219 H 0.30044 0.62844 1.01316
 H220 H 0.32982 0.64939 0.85879
 C221 C 0.29155 0.27523 0.71981
 C222 C 0.26862 0.23081 0.65534
 C223 C 0.22778 0.19993 0.67980
 C224 C 0.21046 0.21264 0.76899
 C225 C 0.23396 0.25530 0.83436
 C226 C 0.27461 0.28674 0.80961
 C227 C 0.29758 0.32894 0.87611
 C228 C 0.28093 0.33966 0.96466
 C229 C 0.24111 0.30923 0.98878
 C230 C 0.21780 0.26733 0.92481
 C231 C 0.20526 0.15624 0.61414
 C232 C 0.22299 0.14212 0.52737
 C233 C 0.26325 0.17121 0.50397
 C234 C 0.28577 0.21573 0.56654
 C235 C 0.16964 0.17879 0.79573
 C236 C 0.13683 0.14951 0.82262
 C237 C 0.33157 0.31152 0.69239
 C238 C 0.36377 0.34352 0.66689
 H239 H 0.32873 0.35363 0.86057
 H240 H 0.29903 0.37174 1.01486
 H241 H 0.22826 0.31793 1.05755
 H242 H 0.18706 0.24454 0.94722
 H243 H 0.17388 0.13228 0.62933
 H244 H 0.20542 0.10832 0.47812
 H245 H 0.27698 0.15968 0.43666
 H246 H 0.31683 0.23756 0.54478
 C247 C 0.70873 0.71194 0.74183
 C248 C 0.71267 0.79053 0.74760
 C249 C 0.75316 0.82287 0.77172
 C250 C 0.78956 0.77642 0.78919
 C251 C 0.78541 0.69781 0.78533
 C252 C 0.74490 0.66545 0.76127
 C253 C 0.74168 0.58668 0.75665
 C254 C 0.77737 0.54123 0.77577
 C255 C 0.81685 0.57289 0.80011
 C256 C 0.82103 0.65027 0.80492
 C257 C 0.75626 0.90162 0.77747
 C258 C 0.72053 0.94709 0.75895
 C259 C 0.68104 0.91546 0.73462
 C260 C 0.67694 0.83810 0.72904
 C261 C 0.83087 0.81000 0.81296
 C262 C 0.86388 0.84078 0.83577
 C263 C 0.66832 0.67890 0.71077
 C264 C 0.63588 0.65016 0.68101
 H265 H 0.71159 0.55935 0.73856
 H266 H 0.77434 0.48113 0.77195
 H267 H 0.84441 0.53731 0.81537
 H268 H 0.85239 0.67234 0.82422
 H269 H 0.78623 0.92895 0.79640
 H270 H 0.72351 1.00718 0.76354
 H271 H 0.65339 0.95105 0.72025
 H272 H 0.64552 0.81603 0.71021
 C273 C 0.28824 0.72455 0.27943
 C274 C 0.25101 0.70720 0.33267
 C275 C 0.21068 0.74170 0.31101
 C276 C 0.20774 0.79264 0.23581
 C277 C 0.24505 0.81043 0.18303
 C278 C 0.28539 0.77605 0.20476
 C279 C 0.32211 0.79401 0.15055
 C280 C 0.31908 0.84464 0.07685
 C281 C 0.27968 0.87854 0.05571
 C282 C 0.24301 0.86192 0.10798
 C283 C 0.17408 0.72454 0.36593
 C284 C 0.17722 0.67471 0.44043
 C285 C 0.21660 0.64067 0.46151
 C286 C 0.25313 0.65632 0.40834
 C287 C 0.16636 0.82561 0.21032
 C288 C 0.13337 0.85451 0.18304
 C289 C 0.32941 0.68994 0.30291
 C290 C 0.36246 0.65940 0.32676
 H291 H 0.35345 0.76903 0.16443
 H292 H 0.34746 0.85769 0.03596
 H293 H 0.27747 0.91786 -0.00156
 H294 H 0.21313 0.88972 0.08868
 H295 H 0.14279 0.74978 0.35223
 H296 H 0.14894 0.66242 0.48199
 H297 H 0.21889 0.60202 0.51946
 H298 H 0.28304 0.62864 0.42778
 C299 C 0.71064 0.29161 0.26627
 C300 C 0.74612 0.29381 0.32900
 C301 C 0.78553 0.25694 0.30688
 C302 C 0.78965 0.21992 0.22112
 C303 C 0.75425 0.21810 0.15817
 C304 C 0.71472 0.25441 0.18065
 C305 C 0.67998 0.25253 0.11638
 C306 C 0.68397 0.21505 0.03262
 C307 C 0.72239 0.17870 0.01105
 C308 C 0.75726 0.18016 0.07269
 C309 C 0.82002 0.25782 0.37186
 C310 C 0.81599 0.29518 0.45569
 C311 C 0.77785 0.33275 0.47645
 C312 C 0.74320 0.33221 0.41418
 C313 C 0.83031 0.18450 0.19638
 C314 C 0.86306 0.15399 0.17158
 C315 C 0.66972 0.32574 0.29185
 C316 C 0.63678 0.35480 0.31822
 H317 H 0.64944 0.27999 0.13013
 H318 H 0.65709 0.21417 -0.01578
 H319 H 0.72529 0.14958 -0.05405
 H320 H 0.78650 0.15127 0.05245
 H321 H 0.85034 0.22945 0.35877
 H322 H 0.84265 0.29511 0.50473
 H323 H 0.77501 0.36219 0.54137
 H324 H 0.71423 0.36228 0.43359
   
