data_POSCAR
  _audit_creation_date              2014-09-24
  _audit_creation_method            'ToBaCCo'
  _symmetry_space_group_name_H-M    'P1'
  _symmetry_Int_Tables_number       1
  _symmetry_cell_setting            triclinic
  loop_
  _symmetry_equiv_pos_as_xyz
 x,y,z
_cell_length_a 23.6881
_cell_length_b 23.4052
_cell_length_c 28.6647
_cell_angle_alpha 89.964900
_cell_angle_beta 90.491900
_cell_angle_gamma 89.782300
loop_
  _atom_site_label
  _atom_site_type_symbol
  _atom_site_fract_x
  _atom_site_fract_y
  _atom_site_fract_z
B1 B 0.28400 0.25149 0.30142
 B2 B 0.22046 0.22394 0.28983
 B3 B 0.22775 0.29460 0.29596
 B4 B 0.29010 0.31447 0.27325
 B5 B 0.32130 0.25380 0.25204
 B6 B 0.27781 0.19732 0.26265
 B7 B 0.22196 0.27121 0.20442
 B8 B 0.28606 0.29884 0.21619
 B9 B 0.27810 0.22839 0.20963
 B10 B 0.21618 0.20822 0.23256
 B11 B 0.18498 0.26856 0.25377
 B12 B 0.22831 0.32533 0.24301
 B13 B 0.70464 0.76870 0.30249
 B14 B 0.77443 0.77201 0.29407
 B15 B 0.74482 0.70940 0.30799
 B16 B 0.68071 0.70521 0.28187
 B17 B 0.67159 0.76679 0.25051
 B18 B 0.73035 0.80824 0.25830
 B19 B 0.76306 0.71008 0.21556
 B20 B 0.69337 0.70635 0.22411
 B21 B 0.72291 0.76859 0.21019
 B22 B 0.78696 0.77304 0.23607
 B23 B 0.79634 0.71180 0.26747
 B24 B 0.73779 0.66982 0.25934
 B25 B 0.73353 0.21605 -0.19889
 B26 B 0.71501 0.28357 -0.21004
 B27 B 0.78143 0.26811 -0.19479
 B28 B 0.79925 0.20453 -0.21825
 B29 B 0.74192 0.18110 -0.24936
 B30 B 0.68911 0.23066 -0.24393
 B31 B 0.77712 0.28151 -0.28750
 B32 B 0.79564 0.21395 -0.27633
 B33 B 0.72910 0.22990 -0.29173
 B34 B 0.71118 0.29332 -0.26799
 B35 B 0.76857 0.31646 -0.23735
 B36 B 0.82143 0.26685 -0.24252
 B37 B 0.27805 0.77235 -0.29939
 B38 B 0.21178 0.79183 -0.28722
 B39 B 0.22783 0.72279 -0.29402
 B40 B 0.29272 0.71028 -0.27205
 B41 B 0.31688 0.77377 -0.25050
 B42 B 0.26616 0.82478 -0.26012
 B43 B 0.22220 0.74397 -0.20225
 B44 B 0.28830 0.72453 -0.21513
 B45 B 0.27234 0.79349 -0.20772
 B46 B 0.20720 0.80618 -0.22963
 B47 B 0.18304 0.74292 -0.25133
 B48 B 0.23361 0.69185 -0.24179
 B49 B 1.22330 1.26829 0.71165
 B50 B 1.19366 1.20575 0.72467
 B51 B 1.26327 1.20942 0.71572
 B52 B 1.28766 1.27162 0.73733
 B53 B 1.23138 1.30659 0.76065
 B54 B 1.17241 1.26556 0.75244
 B55 B 1.24591 1.20594 0.80817
 B56 B 1.27598 1.26867 0.79531
 B57 B 1.20633 1.26548 0.80415
 B58 B 1.18160 1.20299 0.78246
 B59 B 1.23817 1.16797 0.75902
 B60 B 1.29707 1.20922 0.76734
 B61 B 0.77988 0.74319 0.79767
 B62 B 0.71279 0.72724 0.78486
 B63 B 0.73047 0.79465 0.79776
 B64 B 0.79528 0.80824 0.77607
 B65 B 0.81686 0.74736 0.74812
 B66 B 0.76516 0.69703 0.75382
 B67 B 0.72106 0.78701 0.70475
 B68 B 0.78837 0.80221 0.71786
 B69 B 0.77001 0.73532 0.70433
 B70 B 0.70562 0.72149 0.72622
 B71 B 0.68410 0.78190 0.75396
 B72 B 0.73571 0.83256 0.74870
 B73 B 1.22231 0.72986 0.20522
 B74 B 1.28900 0.71212 0.21935
 B75 B 1.27204 0.78013 0.20799
 B76 B 1.20701 0.79407 0.22892
 B77 B 1.18388 0.73229 0.25392
 B78 B 1.23499 0.68113 0.24765
 B79 B 1.27877 0.76723 0.30078
 B80 B 1.21228 0.78474 0.28699
 B81 B 1.22914 0.71670 0.29813
 B82 B 1.29386 0.70308 0.27736
 B83 B 1.31711 0.76449 0.25224
 B84 B 1.26602 0.81573 0.25824
 B85 B 0.77897 1.28610 0.20755
 B86 B 0.71093 1.29926 0.21826
 B87 B 0.73133 1.23395 0.20241
 B88 B 0.79525 1.21980 0.22617
 B89 B 0.81369 1.27841 0.25815
 B90 B 0.76088 1.32819 0.25277
 B91 B 0.71722 1.23349 0.29523
 B92 B 0.78552 1.22093 0.28428
 B93 B 0.76471 1.28648 0.30020
 B94 B 0.70081 1.30036 0.27636
 B95 B 0.68248 1.24161 0.24461
 B96 B 0.73541 1.19192 0.24952
 O97 O 0.41565 1.08781 0.04203
 O98 O 0.59186 0.91326 0.04418
 O99 O 0.41554 0.90760 0.03766
 O100 O 0.59245 1.09369 0.03431
 O101 O 0.49723 0.89949 0.06661
 O102 O 0.51090 1.10399 0.06253
 O103 O 0.60532 0.99906 0.06645
 O104 O 0.40413 1.00297 0.06679
 C105 C 0.40028 1.05471 0.07379
 C106 C 0.61083 0.94740 0.07388
 C107 C 0.44629 0.89186 0.07057
 C108 C 0.56184 1.11321 0.06551
 O109 O 0.53654 1.11798 -0.03030
 O110 O 0.46885 0.87995 -0.02603
 O111 O 0.37978 1.03837 -0.02164
 O112 O 0.62678 0.96065 -0.02110
 O113 O 0.55791 0.91291 -0.04714
 O114 O 0.44764 1.08341 -0.05076
 O115 O 0.59024 1.04911 -0.05156
 O116 O 0.41528 0.94797 -0.04979
 Co117 Co 0.47994 1.08920 0.00611
 Co118 Co 0.52639 0.91063 0.00939
 Co119 Co 0.41350 0.97690 0.00826
 Co120 Co 0.59339 1.02292 0.00721
 O121 O 0.50334 0.99993 0.00772
 C122 C 0.56925 1.09655 -0.05951
 C123 C 0.43581 0.89999 -0.05618
 C124 C 0.39917 1.06600 -0.05491
 C125 C 0.60765 0.92680 -0.05070
 O126 O 0.90817 0.58993 0.53612
 O127 O 1.09250 0.41201 0.54008
 O128 O 0.91448 0.41118 0.54324
 O129 O 1.08626 0.59107 0.53656
 O130 O 0.99848 0.40060 0.56841
 O131 O 1.00306 0.60411 0.56169
 O132 O 1.10238 0.49654 0.56446
 O133 O 0.90080 0.50771 0.56572
 C134 C 0.89322 0.55948 0.56946
 C135 C 1.10969 0.44506 0.57107
 C136 C 0.94750 0.39575 0.57496
 C137 C 1.05432 0.60856 0.56788
 O138 O 1.03412 0.62044 0.47161
 O139 O 0.96384 0.37578 0.47982
 O140 O 0.87813 0.53494 0.47372
 O141 O 1.12008 0.46174 0.47364
 O142 O 1.05143 0.40959 0.45178
 O143 O 0.94603 0.58313 0.44642
 O144 O 1.08463 0.55135 0.44761
 O145 O 0.91240 0.44279 0.45236
 Co146 Co 0.97547 0.58962 0.50422
 Co147 Co 1.02377 0.40942 0.50981
 Co148 Co 0.91079 0.47674 0.50864
 Co149 Co 1.08892 0.52265 0.50578
 O150 O 0.99977 0.49960 0.50691
 C151 C 1.06553 0.59982 0.44133
 C152 C 0.93040 0.39343 0.44923
 C153 C 0.89810 0.56402 0.44131
 C154 C 1.10001 0.42637 0.44536
 O155 O 1.09991 0.46745 0.05007
 O156 O 1.06941 0.57176 -0.07437
 O157 O 1.03743 0.39063 -0.03596
 O158 O 1.02402 0.62808 0.05342
 O159 O 1.08573 0.46190 -0.06281
 O160 O 1.09007 0.56715 0.05560
 O161 O 1.01677 0.63087 -0.03386
 O162 O 1.04828 0.39378 0.04855
 C163 C 1.09633 0.41528 0.05347
 C164 C 1.05467 0.62166 -0.06375
 C165 C 1.08030 0.40939 -0.05659
 C166 C 1.07475 0.61672 0.06168
 O167 O 0.99165 0.55483 0.10435
 O168 O 0.97826 0.44685 -0.08672
 O169 O 0.93870 0.43116 0.05448
 O170 O 0.91467 0.59098 -0.03188
 O171 O 0.96183 0.55030 -0.08883
 O172 O 1.00417 0.45347 0.10239
 O173 O 0.92375 0.57553 0.05620
 O174 O 0.92774 0.42140 -0.02879
 Co175 Co 1.04320 0.51042 0.07237
 Co176 Co 1.02256 0.50729 -0.06988
 Co177 Co 0.98963 0.41770 0.00947
 Co178 Co 0.97307 0.59675 0.01110
 O179 O 1.00538 0.50857 0.00549
 C180 C 0.94093 0.56895 0.09707
 C181 C 0.93276 0.42804 -0.07147
 C182 C 0.95530 0.43524 0.09530
 C183 C 0.91975 0.57782 -0.07410
 O184 O 0.55795 0.96382 0.58352
 O185 O 0.57265 1.04886 0.43172
 O186 O 0.55969 0.90610 0.47975
 O187 O 0.57275 1.10013 0.53717
 O188 O 0.54216 0.95242 0.41664
 O189 O 0.53815 1.06064 0.59730
 O190 O 0.53973 1.12553 0.45977
 O191 O 0.51861 0.89098 0.55504
 C192 C 0.55871 0.91169 0.57748
 C193 C 0.57672 1.10125 0.43642
 C194 C 0.57149 0.91633 0.43870
 C195 C 0.57906 1.08356 0.57791
 O196 O 0.42488 1.04016 0.58250
 O197 O 0.43195 0.99041 0.41947
 O198 O 0.41527 0.91624 0.51814
 O199 O 0.43194 1.11537 0.48768
 O200 O 0.46261 1.08528 0.42214
 O201 O 0.44391 0.94184 0.58546
 O202 O 0.46598 1.11757 0.56783
 O203 O 0.45677 0.90792 0.44113
 Co204 Co 0.49174 1.00246 0.57970
 Co205 Co 0.50198 1.01822 0.43014
 Co206 Co 0.48826 0.91607 0.49935
 Co207 Co 0.50201 1.10376 0.51242
 O208 O 0.49625 1.01009 0.50531
 C209 C 0.42469 1.09267 0.58472
 C210 C 0.42214 0.93899 0.42040
 C211 C 0.40524 0.92348 0.55992
 C212 C 0.42402 1.10790 0.44526
 O213 O 1.09781 1.06939 0.46887
 O214 O 0.89997 1.07398 0.51115
 O215 O 0.98006 1.06896 0.40981
 O216 O 1.01906 1.08090 0.57309
 O217 O 0.89875 1.04353 0.43394
 O218 O 1.09980 1.05095 0.54977
 O219 O 0.92341 1.04343 0.57739
 O220 O 1.07390 1.02762 0.40726
 C221 C 1.09623 1.06955 0.42592
 C222 C 0.90113 1.08155 0.55353
 C223 C 0.92888 1.07855 0.41252
 C224 C 1.07100 1.08723 0.57143
 O225 O 1.09258 0.93462 0.53229
 O226 O 0.90505 0.93031 0.46319
 O227 O 1.03037 0.92435 0.42031
 O228 O 0.96427 0.93727 0.57660
 O229 O 0.88821 0.96138 0.54084
 O230 O 1.10760 0.95194 0.45228
 O231 O 1.05722 0.97621 0.59028
 O232 O 0.93886 0.96321 0.40115
 Co233 Co 1.08999 1.00179 0.50010
 Co234 Co 0.90741 1.00212 0.48796
 Co235 Co 1.00496 0.99678 0.41844
 Co236 Co 0.99164 1.00876 0.57067
 O237 O 0.99850 1.00234 0.49438
 C238 C 1.08275 0.93453 0.57449
 C239 C 0.91217 0.92492 0.42079
 C240 C 1.08125 0.91629 0.42781
 C241 C 0.91345 0.92910 0.56913
 O242 O 0.59696 0.56868 -0.03676
 O243 O 0.40065 0.56981 0.00945
 O244 O 0.47823 0.56329 -0.09140
 O245 O 0.52099 0.57946 0.07170
 O246 O 0.39824 0.53561 -0.06685
 O247 O 0.60154 0.55167 0.04619
 O248 O 0.42568 0.54235 0.07648
 O249 O 0.57230 0.52273 -0.09623
 C250 C 0.59473 0.56579 -0.07987
 C251 C 0.40198 0.57889 0.05172
 C252 C 0.42669 0.57062 -0.08954
 C253 C 0.57277 0.58658 0.06932
 O254 O 0.59784 0.43584 0.03049
 O255 O 0.40783 0.42422 -0.03472
 O256 O 0.53135 0.41978 -0.07891
 O257 O 0.46665 0.43554 0.07724
 O258 O 0.39039 0.45920 0.04185
 O259 O 0.60901 0.45054 -0.04974
 O260 O 0.56038 0.47522 0.08885
 O261 O 0.43931 0.45567 -0.09804
 Co262 Co 0.59175 0.50180 -0.00300
 Co263 Co 0.40884 0.49724 -0.01204
 Co264 Co 0.50455 0.49158 -0.08211
 Co265 Co 0.49392 0.50718 0.06991
 O266 O 0.49984 0.49944 -0.00656
 C267 C 0.58756 0.43464 0.07259
 C268 C 0.41457 0.41720 -0.07706
 C269 C 0.58248 0.41288 -0.07190
 C270 C 0.41574 0.42725 0.07007
 C271 C 0.30255 1.19982 0.16435
 C272 C 0.32902 1.14952 0.16388
 C273 C 0.35518 1.12915 0.12062
 C274 C 0.37373 1.07559 0.11666
 H275 H 0.33220 1.12390 0.19532
 H276 H 0.35884 1.15833 0.09139
 H277 H 0.29915 1.22434 0.13233
 H278 H 0.36814 1.04579 0.14521
 C279 C 0.79096 0.70784 0.65697
 C280 C 0.81747 0.65730 0.65545
 C281 C 0.84321 0.63571 0.61222
 C282 C 0.86443 0.58273 0.61062
 H283 H 0.82201 0.63195 0.68694
 H284 H 0.84550 0.66335 0.58194
 H285 H 0.78642 0.73303 0.62543
 H286 H 0.86025 0.55488 0.64063
 C287 C 0.70840 0.79741 0.16171
 C288 C 0.69050 0.85159 0.15881
 C289 C 0.66332 0.87344 0.11623
 C290 C 0.64337 0.92689 0.11431
 H291 H 0.69151 0.87905 0.18924
 H292 H 0.65717 0.84471 0.08697
 H293 H 0.70627 0.77017 0.13121
 H294 H 0.65080 0.95608 0.14305
 C295 C 1.20877 0.29735 0.66298
 C296 C 1.18603 0.34974 0.65981
 C297 C 1.16096 0.37099 0.61581
 C298 C 1.14049 0.42428 0.61265
 H299 H 1.18230 0.37607 0.69074
 H300 H 1.15719 0.34213 0.58638
 H301 H 1.21201 0.27109 0.63200
 H302 H 1.14584 0.45350 0.64166
 C303 C 0.71280 1.18223 -0.15496
 C304 C 0.65952 1.16482 -0.15119
 C305 C 0.64151 1.13053 -0.11161
 C306 C 0.58744 1.12998 -0.09942
 H307 H 0.62825 1.17563 -0.17755
 H308 H 0.67275 1.10680 -0.09149
 H309 H 0.74352 1.17151 -0.12810
 H310 H 0.55699 1.15746 -0.11694
 C311 C 1.20892 0.68359 0.34280
 C312 C 1.15494 0.66949 0.34894
 C313 C 1.13745 0.63427 0.38838
 C314 C 1.08384 0.63472 0.40209
 H315 H 1.12277 0.68318 0.32428
 H316 H 1.16863 0.60856 0.40684
 H317 H 1.24068 0.66996 0.36790
 H318 H 1.05368 0.66387 0.38614
 C319 C 0.29341 0.82977 -0.16477
 C320 C 0.34788 0.83358 -0.15288
 C321 C 0.36624 0.87070 -0.11456
 C322 C 0.41745 0.86454 -0.09548
 H323 H 0.37955 0.80950 -0.17164
 H324 H 0.33712 0.90234 -0.10098
 H325 H 0.26207 0.85367 -0.14547
 H326 H 0.44514 0.83048 -0.10703
 C327 C 0.78252 0.31639 0.34741
 C328 C 0.83667 0.31895 0.36083
 C329 C 0.85579 0.35720 0.39811
 C330 C 0.90903 0.35437 0.41353
 H331 H 0.86849 0.29470 0.34232
 H332 H 0.82677 0.38847 0.41237
 H333 H 0.75078 0.34056 0.36601
 H334 H 0.93695 0.32090 0.40124
 C335 C 1.18497 0.27792 0.15827
 C336 C 1.18953 0.32123 0.12834
 C337 C 1.14267 0.33634 0.09623
 C338 C 1.14614 0.38393 0.07082
 H339 H 1.22454 0.35035 0.13127
 H340 H 1.10282 0.31394 0.09873
 H341 H 1.14897 0.24968 0.15500
 H342 H 1.18595 0.40669 0.07008
 C343 C 0.68909 0.81137 0.65983
 C344 C 0.68750 0.86786 0.65111
 C345 C 0.64820 0.89771 0.61909
 C346 C 0.60152 0.87500 0.60026
 H347 H 0.71384 0.89633 0.67137
 H348 H 0.65545 0.94315 0.61508
 H349 H 0.66343 0.78203 0.63981
 H350 H 0.59273 0.82988 0.60350
 C351 C 1.19799 0.72545 -0.15289
 C352 C 1.14414 0.71110 -0.14599
 C353 C 1.12892 0.67101 -0.10828
 C354 C 1.07709 0.67056 -0.09030
 H355 H 1.11201 0.72251 -0.17152
 H356 H 1.15913 0.63825 -0.09816
 H357 H 1.22861 0.71543 -0.12582
 H358 H 1.04825 0.70533 -0.09834
 C359 C 0.68461 1.20418 0.33765
 C360 C 0.68601 1.14700 0.34438
 C361 C 0.65088 1.11373 0.37727
 C362 C 0.61761 1.13609 0.41006
 H363 H 0.71248 1.12100 0.32222
 H364 H 0.65123 1.06780 0.37253
 H365 H 0.65786 1.23129 0.35855
 H366 H 0.61690 1.18174 0.41581
 C367 C 0.79169 0.68165 0.17130
 C368 C 0.83018 0.63967 0.17454
 C369 C 0.85966 0.61806 0.13285
 C370 C 0.90490 0.58385 0.13705
 H371 H 0.84207 0.62282 0.20848
 H372 H 0.84663 0.63337 0.09870
 H373 H 0.78063 0.69866 0.13729
 H374 H 0.91917 0.57081 0.17149
 C375 C 0.29424 1.18244 0.67195
 C376 C 0.30065 1.12577 0.66655
 C377 C 0.33872 1.09810 0.63249
 C378 C 0.38165 1.12448 0.61125
 H379 H 0.27870 1.09696 0.68966
 H380 H 0.33430 1.05229 0.62859
 H381 H 0.31422 1.21196 0.64831
 H382 H 0.38824 1.16983 0.61577
 C383 C 0.80881 0.28847 -0.14671
 C384 C 0.82385 0.34307 -0.13995
 C385 C 0.85964 0.36170 -0.10055
 C386 C 0.88896 0.41016 -0.10477
 H387 H 0.81378 0.37480 -0.16629
 H388 H 0.86587 0.33415 -0.07052
 H389 H 0.82003 0.25635 -0.12102
 H390 H 0.88561 0.43460 -0.13684
 C391 C 0.30993 0.78637 0.34740
 C392 C 0.31914 0.84162 0.35668
 C393 C 0.36184 0.86071 0.39079
 C394 C 0.37461 0.91625 0.39308
 H395 H 0.29892 0.87415 0.33535
 H396 H 0.38549 0.82958 0.41112
 H397 H 0.33080 0.75373 0.36816
 H398 H 0.35053 0.94666 0.37231
 C399 C 1.18834 1.18802 0.32833
 C400 C 1.14689 1.15158 0.31746
 C401 C 1.11843 1.11323 0.35078
 C402 C 1.12411 1.11378 0.39753
 H403 H 1.13415 1.14689 0.28129
 H404 H 1.09118 1.08161 0.33477
 H405 H 1.20180 1.19340 0.36414
 H406 H 1.14936 1.14571 0.41509
 C407 C 0.67587 0.68837 -0.18092
 C408 C 0.68014 0.69028 -0.13380
 C409 C 0.65027 0.65262 -0.10017
 C410 C 0.62069 0.60658 -0.11265
 H411 H 0.70798 0.72110 -0.11776
 H412 H 0.65547 0.66207 -0.06340
 H413 H 0.64738 0.65890 -0.19784
 H414 H 0.61625 0.59585 -0.14914
 C415 C 0.83699 1.17728 0.69298
 C416 C 0.83795 1.17779 0.64639
 C417 C 0.87349 1.13624 0.62184
 C418 C 0.87117 1.12946 0.57557
 H419 H 0.81077 1.20622 0.62653
 H420 H 0.90005 1.10805 0.64266
 H421 H 0.86438 1.14790 0.71183
 H422 H 0.84507 1.15739 0.55421
 C423 C 0.32973 0.67387 0.18906
 C424 C 0.33404 0.67559 0.14259
 C425 C 0.37038 0.63357 0.11912
 C426 C 0.37052 0.62668 0.07280
 H427 H 0.30907 0.70533 0.12205
 H428 H 0.39571 0.60523 0.14082
 H429 H 0.35474 0.64283 0.20838
 H430 H 0.34532 0.65443 0.05058
 C431 C 1.17394 0.82669 0.67688
 C432 C 1.17343 0.81691 0.63057
 C433 C 1.14500 0.85411 0.59591
 C434 C 1.10465 0.89143 0.60703
 H435 H 1.19910 0.78310 0.61624
 H436 H 1.15939 0.85158 0.56020
 H437 H 1.15121 0.86243 0.69147
 H438 H 1.08860 0.89341 0.64218
 C439 C 0.67810 0.33883 0.18251
 C440 C 0.62206 0.34526 0.18134
 C441 C 0.59408 0.38366 0.14733
 C442 C 0.61245 0.39093 0.10350
 H443 H 0.59633 0.32523 0.20773
 H444 H 0.55680 0.40633 0.15894
 H445 H 0.70359 0.36214 0.15783
 H446 H 0.64681 0.36507 0.09030
 C447 C 0.81557 0.80657 0.32779
 C448 C 0.80865 0.81096 0.37428
 C449 C 0.84190 0.84885 0.40572
 C450 C 0.88613 0.87985 0.39208
 H451 H 0.77434 0.78850 0.39059
 H452 H 0.82688 0.85353 0.44111
 H453 H 0.84868 0.82955 0.31039
 H454 H 0.90182 0.87635 0.35696
 C455 C 0.31782 0.30184 -0.17040
 C456 C 0.31408 0.30117 -0.12345
 C457 C 0.34563 0.33988 -0.09156
 C458 C 0.39088 0.36968 -0.10440
 H459 H 0.28209 0.27556 -0.10709
 H460 H 0.32865 0.34615 -0.05696
 H461 H 0.34741 0.32971 -0.18747
 H462 H 0.40874 0.36353 -0.13860
 C463 C 1.17732 0.29600 -0.15270
 C464 C 1.18957 0.35052 -0.14170
 C465 C 1.15848 0.38685 -0.10864
 C466 C 1.11856 0.36868 -0.07955
 H467 H 1.22191 0.37278 -0.16092
 H468 H 1.16709 0.43219 -0.11100
 H469 H 1.14412 0.27316 -0.13516
 H470 H 1.10982 0.32360 -0.07581
 C471 C 0.67345 0.80195 0.34374
 C472 C 0.67149 0.85960 0.34446
 C473 C 0.63222 0.89441 0.37231
 C474 C 0.61429 0.88098 0.41493
 H475 H 0.69479 0.88388 0.31900
 H476 H 0.61861 0.93441 0.35672
 H477 H 0.64816 0.77735 0.36769
 H478 H 0.63031 0.84308 0.43233
 C479 C 0.81027 0.72191 -0.15613
 C480 C 0.81966 0.66644 -0.14781
 C481 C 0.85344 0.64706 -0.10762
 C482 C 0.87674 0.59507 -0.10824
 H483 H 0.80511 0.63455 -0.17249
 H484 H 0.86360 0.67675 -0.07978
 H485 H 0.82569 0.75381 -0.13185
 H486 H 0.87005 0.56749 -0.13816
 C487 C 0.31716 1.24235 0.34922
 C488 C 0.32225 1.19091 0.36927
 C489 C 0.36409 1.17933 0.40654
 C490 C 0.37209 1.12576 0.42127
 H491 H 0.29908 1.15501 0.35498
 H492 H 0.39249 1.21287 0.41792
 H493 H 0.34114 1.27802 0.36290
 H494 H 0.34558 1.09196 0.40753
 C495 C 1.19173 0.71271 0.15796
 C496 C 1.19712 0.66042 0.13988
 C497 C 1.16421 0.63788 0.10027
 C498 C 1.11238 0.65595 0.08746
 H499 H 1.22614 0.63030 0.15593
 H500 H 1.18025 0.59806 0.08626
 H501 H 1.16365 0.74370 0.14192
 H502 H 1.09448 0.69467 0.10181
 C503 C 0.70122 1.21368 0.65970
 C504 C 0.69262 1.15971 0.64650
 C505 C 0.65431 1.14613 0.60729
 C506 C 0.62993 1.09492 0.60578
 H507 H 0.70883 1.12498 0.66785
 H508 H 0.64013 1.17976 0.58388
 H509 H 0.68367 1.24824 0.63893
 H510 H 0.64106 1.06338 0.63206
 C511 C 0.80987 0.31265 0.16379
 C512 C 0.84815 0.35433 0.16839
 C513 C 0.87783 0.37836 0.12800
 C514 C 0.92131 0.41400 0.13430
 H515 H 0.85884 0.37048 0.20279
 H516 H 0.86554 0.36515 0.09313
 H517 H 0.79944 0.29610 0.12952
 H518 H 0.93470 0.42517 0.16938
 C519 C 0.30857 0.78499 0.65290
 C520 C 0.30822 0.83667 0.63309
 C521 C 0.34755 0.85079 0.59545
 C522 C 0.35275 0.90472 0.58120
 H523 H 0.28264 0.87064 0.64770
 H524 H 0.37768 0.81882 0.58399
 H525 H 0.33499 0.75148 0.63866
 H526 H 0.32504 0.93744 0.59500
 C527 C 0.25805 1.17325 -0.14413
 C528 C 0.29639 1.13110 -0.14178
 C529 C 0.31790 1.10763 -0.09730
 C530 C 0.36704 1.07941 -0.09737
 H531 H 0.31662 1.11672 -0.17350
 H532 H 0.29746 1.11820 -0.06472
 H533 H 0.23744 1.18791 -0.11275
 H534 H 0.38918 1.07373 -0.13002
 C535 C 0.75817 0.67782 0.35603
 C536 C 0.79449 0.63368 0.35752
 C537 C 0.81765 0.60983 0.40124
 C538 C 0.86549 0.57936 0.39957
 H539 H 0.81188 0.61734 0.32527
 H540 H 0.79926 0.62125 0.43447
 H541 H 0.74065 0.69468 0.38795
 H542 H 0.88599 0.57269 0.36632
 C543 C 0.71283 1.20653 0.15433
 C544 C 0.65812 1.20058 0.14347
 C545 C 0.63865 1.16461 0.10488
 C546 C 0.58404 1.15088 0.10189
 H547 H 0.62610 1.21928 0.16556
 H548 H 0.66889 1.14756 0.08030
 H549 H 0.74491 1.18719 0.13268
 H550 H 0.55445 1.16754 0.12720
 C551 C 1.20634 0.68668 0.66332
 C552 C 1.15151 0.67672 0.65656
 C553 C 1.13138 0.64534 0.61578
 C554 C 1.07617 0.63863 0.60871
 H555 H 1.12051 0.69306 0.68079
 H556 H 1.16167 0.62832 0.59120
 H557 H 1.23717 0.67079 0.63876
 H558 H 1.04614 0.65577 0.63345
 C559 C 0.70750 0.82626 -0.15725
 C560 C 0.65208 0.82507 -0.14788
 C561 C 0.62338 0.85497 -0.11000
 C562 C 0.64376 0.89915 -0.08561
 H563 H 0.62404 0.79927 -0.16907
 H564 H 0.58057 0.84072 -0.10394
 H565 H 0.73666 0.85027 -0.13574
 H566 H 0.68609 0.91487 -0.09104
 C567 C 1.20112 0.32806 0.33862
 C568 C 1.14575 0.32436 0.34771
 C569 C 1.11547 0.35515 0.38465
 C570 C 1.13508 0.39990 0.40896
 H571 H 1.11957 0.29579 0.32727
 H572 H 1.07301 0.34009 0.39100
 H573 H 1.22856 0.35488 0.35940
 H574 H 1.17696 0.41654 0.40309
 C575 C 0.29359 0.81189 0.16319
 C576 C 0.34849 0.82127 0.15657
 C577 C 0.36886 0.85163 0.11550
 C578 C 0.42397 0.86121 0.11073
 H579 H 0.37947 0.80641 0.18189
 H580 H 0.33887 0.86648 0.08935
 H581 H 0.26268 0.82657 0.13776
 H582 H 0.45362 0.84645 0.13719
 C583 C 0.79841 0.31427 0.66847
 C584 C 0.85291 0.32597 0.66294
 C585 C 0.87229 0.35656 0.62191
 C586 C 0.92705 0.36674 0.61642
 H587 H 0.88401 0.31256 0.68870
 H588 H 0.84168 0.37029 0.59583
 H589 H 0.76759 0.32754 0.64245
 H590 H 0.95755 0.35268 0.64247
 C591 C 1.15580 1.17259 0.68787
 C592 C 1.10759 1.19296 0.66922
 C593 C 1.07506 1.16038 0.63385
 C594 C 1.10055 1.12975 0.60053
 H595 H 1.08982 1.23271 0.68178
 H596 H 1.02943 1.16099 0.63601
 H597 H 1.17134 1.13111 0.67712
 H598 H 1.14609 1.13145 0.59753
 C599 C 0.65620 0.67214 0.18734
 C600 C 0.60814 0.69192 0.16799
 C601 C 0.57632 0.65892 0.13241
 C602 C 0.60221 0.62868 0.09903
 H603 H 0.58989 0.73166 0.18011
 H604 H 0.53067 0.65932 0.13424
 H605 H 0.67237 0.63077 0.17692
 H606 H 0.64777 0.63064 0.09626
 C607 C 1.17649 0.82116 0.32254
 C608 C 1.12204 0.81116 0.33167
 C609 C 1.08926 0.84562 0.36503
 C610 C 1.11245 0.87248 0.40178
 H611 H 1.09912 0.77943 0.31179
 H612 H 1.04444 0.85000 0.35799
 H613 H 1.19812 0.85591 0.33980
 H614 H 1.15680 0.86683 0.41006
 C615 C 0.67765 0.31885 -0.17526
 C616 C 0.62414 0.30576 -0.16524
 C617 C 0.59047 0.33957 -0.13225
 C618 C 0.61359 0.36795 -0.09632
 H619 H 0.60270 0.27212 -0.18410
 H620 H 0.54556 0.34290 -0.13926
 H621 H 0.69764 0.35544 -0.15915
 H622 H 0.65808 0.36319 -0.08815
 C623 C 0.82378 1.18188 0.31665
 C624 C 0.81819 1.18033 0.36311
 C625 C 0.84912 1.13982 0.39280
 C626 C 0.90279 1.12489 0.38549
 H627 H 0.78613 1.20564 0.38008
 H628 H 0.82649 1.12214 0.42214
 H629 H 0.85390 1.15405 0.29970
 H630 H 0.92712 1.14548 0.35846
 C631 C 0.32713 0.69113 -0.17954
 C632 C 0.30937 0.64326 -0.15904
 C633 C 0.34211 0.61013 -0.12500
 C634 C 0.39825 0.61265 -0.11947
 H635 H 0.26730 0.62737 -0.16621
 H636 H 0.31811 0.57864 -0.10588
 H637 H 0.36844 0.70832 -0.17194
 H638 H 0.42374 0.64163 -0.13971
 C639 C 0.82493 0.83969 0.68326
 C640 C 0.87325 0.82135 0.66418
 C641 C 0.90581 0.85633 0.63106
 C642 C 0.88120 0.88887 0.59810
 H643 H 0.89137 0.78076 0.67474
 H644 H 0.95143 0.85411 0.63353
 H645 H 0.80957 0.88207 0.67497
 H646 H 0.83569 0.88845 0.59393
 C647 C 0.32083 0.33618 0.18017
 C648 C 0.37246 0.32109 0.16522
 C649 C 0.40618 0.35657 0.13333
 C650 C 0.38297 0.38732 0.09878
 H651 H 0.39271 0.28291 0.17873
 H652 H 0.45162 0.35596 0.13797
 H653 H 0.30309 0.37696 0.16983
 H654 H 0.33781 0.38547 0.09264
   
