data_POSCAR
  _audit_creation_date              2014-09-24
  _audit_creation_method            'ToBaCCo'
  _symmetry_space_group_name_H-M    'P1'
  _symmetry_Int_Tables_number       1
  _symmetry_cell_setting            triclinic
  loop_
  _symmetry_equiv_pos_as_xyz
 x,y,z
_cell_length_a 53.2763
_cell_length_b 53.2748
_cell_length_c 53.3281
_cell_angle_alpha 90.028400
_cell_angle_beta 89.971100
_cell_angle_gamma 90.035100
loop_
  _atom_site_label
  _atom_site_type_symbol
  _atom_site_fract_x
  _atom_site_fract_y
  _atom_site_fract_z
C1 C 0.18898 0.21255 0.22477
 N2 N 0.20475 0.19295 0.22865
 C3 C 0.22434 0.18903 0.21286
 N4 N 0.22815 0.20470 0.19317
 C5 C 0.21237 0.22431 0.18928
 N6 N 0.19279 0.22823 0.20508
 C7 C 0.68836 0.71290 0.72436
 N8 N 0.69227 0.72868 0.70477
 C9 C 0.71189 0.72478 0.68899
 N10 N 0.72759 0.70510 0.69281
 C11 C 0.72368 0.68933 0.71240
 N12 N 0.70407 0.69323 0.72817
 C13 C 0.31021 0.78837 0.72451
 N14 N 0.30641 0.77253 0.70494
 C15 C 0.28685 0.77635 0.68910
 N16 N 0.27110 0.79601 0.69283
 C17 C 0.27490 0.81185 0.71240
 N18 N 0.29446 0.80803 0.72824
 C19 C 0.81186 0.28759 0.22449
 N20 N 0.79601 0.30716 0.22828
 C21 C 0.77642 0.31092 0.21247
 N22 N 0.77267 0.29511 0.19287
 C23 C 0.78852 0.27553 0.18908
 N24 N 0.80811 0.27178 0.20489
 C25 C 0.81158 0.71244 0.27562
 N26 N 0.79576 0.69284 0.27182
 C27 C 0.77612 0.68907 0.28760
 N28 N 0.77231 0.70489 0.30717
 C29 C 0.78814 0.72450 0.31098
 N30 N 0.80777 0.72827 0.29520
 C31 C 0.31127 0.21174 -0.22494
 N32 N 0.29545 0.19215 -0.22885
 C33 C 0.27575 0.18834 -0.21315
 N34 N 0.27188 0.20412 -0.19355
 C35 C 0.28770 0.22371 -0.18964
 N36 N 0.30739 0.22751 -0.20533
 C37 C 0.68947 0.28745 -0.22409
 N38 N 0.70517 0.30715 -0.22794
 C39 C 0.72484 0.31105 -0.21226
 N40 N 0.72881 0.29525 -0.19271
 C41 C 0.71312 0.27555 -0.18885
 N42 N 0.69345 0.27166 -0.20454
 C43 C 0.18985 0.78762 0.27510
 N44 N 0.19360 0.77188 0.29474
 C45 C 0.21313 0.77578 0.31060
 N46 N 0.22890 0.79543 0.30682
 C47 C 0.22515 0.81118 0.28718
 N48 N 0.20562 0.80727 0.27132
 C49 C 0.46233 0.43856 0.47484
 N50 N 0.44272 0.45436 0.47867
 C51 C 0.43889 0.47395 0.46288
 N52 N 0.45468 0.47776 0.44327
 C53 C 0.47429 0.46197 0.43944
 N54 N 0.47811 0.44237 0.45522
 C55 C -0.03730 -0.06100 0.97407
 N56 N -0.02153 -0.05710 0.95446
 C57 C -0.02537 -0.03744 0.93876
 N58 N -0.04500 -0.02169 0.94265
 C59 C -0.06078 -0.02559 0.96225
 N60 N -0.05693 -0.04524 0.97796
 C61 C 1.03735 0.56110 0.97440
 N62 N 1.02152 0.55730 0.95483
 C63 C 1.02527 0.53767 0.93905
 N64 N 1.04485 0.52184 0.94283
 C65 C 1.06068 0.52564 0.96239
 N66 N 1.05693 0.54527 0.97818
 C67 C 0.53819 0.06041 0.47457
 N68 N 0.55786 0.04469 0.47835
 C69 C 0.56176 0.02511 0.46253
 N70 N 0.54598 0.02125 0.44294
 C71 C 0.52631 0.03697 0.43916
 N72 N 0.52242 0.05655 0.45497
 C73 C -0.03834 0.06135 0.52563
 N74 N -0.02251 0.05750 0.54518
 C75 C -0.02626 0.03782 0.56089
 N76 N -0.04586 0.02199 0.55706
 C77 C -0.06169 0.02583 0.53751
 N78 N -0.05793 0.04551 0.52180
 C79 C 0.46220 0.56126 0.02587
 N80 N 0.44262 0.54543 0.02197
 C81 C 0.43884 0.52573 0.03765
 N82 N 0.45463 0.52186 0.05722
 C83 C 0.47421 0.53769 0.06112
 N84 N 0.47799 0.55739 0.04544
 C85 C 0.53757 -0.06107 0.02539
 N86 N 0.55726 -0.04535 0.02157
 C87 C 0.56121 -0.02578 0.03739
 N88 N 0.54546 -0.02193 0.05703
 C89 C 0.52577 -0.03765 0.06085
 N90 N 0.52183 -0.05721 0.04503
 C91 C 1.03664 0.43901 0.52519
 N92 N 1.02090 0.44281 0.54484
 C93 C 1.02477 0.46239 0.56066
 N94 N 1.04441 0.47817 0.55683
 C95 C 1.06016 0.47438 0.53718
 N96 N 1.05628 0.45480 0.52137
 C97 C 0.41341 0.01146 0.21648
 H98 H 0.41447 0.02843 0.22757
 C99 C 0.42978 0.00797 0.19632
 H100 H 0.44354 0.02233 0.19211
 C101 C 0.39468 -0.02822 0.20914
 H102 H 0.38121 -0.04243 0.21437
 C103 C 0.41071 -0.03250 0.18886
 H104 H 0.40900 -0.04982 0.17837
 N105 N 0.39612 -0.00639 0.22231
 C106 C 0.33672 0.03346 0.26213
 H107 H 0.33577 0.02245 0.27915
 C108 C 0.32034 0.05360 0.25866
 H109 H 0.30703 0.05821 0.27330
 C110 C 0.35542 0.04078 0.22247
 H111 H 0.36877 0.03546 0.20820
 C112 C 0.33941 0.06108 0.21823
 H113 H 0.34066 0.07118 0.20066
 Zn114 Zn 0.37506 -0.00035 0.25028
 N115 N 0.35400 0.02762 0.24428
 C116 C 0.39483 0.02752 0.29134
 N117 N 0.39619 0.00569 0.27818
 C118 C 0.41347 -0.01217 0.28395
 C119 C 0.42990 -0.00868 0.30404
 C120 C 0.41092 0.03180 0.31156
 C121 C 0.33665 -0.03413 0.23852
 C122 C 0.32027 -0.05429 0.24200
 C123 C 0.33936 -0.06179 0.28239
 C124 C 0.35540 -0.04149 0.27812
 N125 N 0.35396 -0.02831 0.25633
 H126 H 0.38137 0.04174 0.28615
 H127 H 0.41448 -0.02915 0.27286
 H128 H 0.44364 -0.02305 0.30821
 H129 H 0.40927 0.04913 0.32205
 H130 H 0.33559 -0.02302 0.22158
 H131 H 0.30650 -0.05849 0.22768
 H132 H 0.34106 -0.07230 0.29968
 H133 H 0.36888 -0.03627 0.29230
 C134 C 0.32160 0.06777 0.23649
 C135 C 0.42852 -0.01423 0.18217
 C136 C 0.32153 -0.06847 0.26417
 C137 C 0.42872 0.01353 0.31819
 C138 C 0.08688 -0.01142 0.71573
 H139 H 0.08588 -0.02842 0.72678
 C140 C 0.07043 -0.00791 0.69567
 H141 H 0.05668 -0.02229 0.69148
 C142 C 0.10552 0.02831 0.70844
 H143 H 0.11899 0.04253 0.71365
 C144 C 0.08941 0.03260 0.68824
 H145 H 0.09105 0.04995 0.67780
 N146 N 0.10416 0.00645 0.72154
 C147 C 0.16365 -0.03340 0.76112
 H148 H 0.16463 -0.02239 0.77814
 C149 C 0.18002 -0.05355 0.75760
 H150 H 0.19334 -0.05815 0.77222
 C151 C 0.14491 -0.04074 0.72150
 H152 H 0.13153 -0.03542 0.70727
 C153 C 0.16091 -0.06105 0.71722
 H154 H 0.15963 -0.07115 0.69964
 Zn155 Zn 0.12530 0.00039 0.74942
 N156 N 0.14636 -0.02757 0.74331
 C157 C 0.10565 -0.02753 0.79048
 N158 N 0.10426 -0.00566 0.77739
 C159 C 0.08702 0.01220 0.78330
 C160 C 0.07065 0.00868 0.80344
 C161 C 0.08965 -0.03182 0.81078
 C162 C 0.16367 0.03419 0.73756
 C163 C 0.18012 0.05430 0.74106
 C164 C 0.16117 0.06174 0.78155
 C165 C 0.14509 0.04147 0.77728
 N166 N 0.14642 0.02835 0.75544
 H167 H 0.11898 -0.04181 0.78509
 H168 H 0.08609 0.02926 0.77235
 H169 H 0.05737 0.02333 0.80811
 H170 H 0.09088 -0.04944 0.82081
 H171 H 0.16456 0.02321 0.72051
 H172 H 0.19341 0.05892 0.72640
 H173 H 0.15999 0.07180 0.79915
 H174 H 0.13176 0.03613 0.79157
 C175 C 0.17873 -0.06772 0.73543
 C176 C 0.07160 0.01433 0.68158
 C177 C 0.17895 0.06842 0.76327
 C178 C 0.07188 -0.01356 0.81753
 C179 C 0.58673 0.48802 0.21629
 H180 H 0.58570 0.47099 0.22728
 C181 C 0.57035 0.49158 0.19617
 H182 H 0.55663 0.47721 0.19188
 C183 C 0.60536 0.52779 0.20920
 H184 H 0.61880 0.54200 0.21451
 C185 C 0.58933 0.53213 0.18895
 H186 H 0.59100 0.54952 0.17857
 N187 N 0.60398 0.50588 0.22222
 C188 C 0.66342 0.46603 0.26186
 H189 H 0.66433 0.47700 0.27891
 C190 C 0.67987 0.44595 0.25831
 H191 H 0.69319 0.44135 0.27294
 C192 C 0.64478 0.45874 0.22218
 H193 H 0.63142 0.46406 0.20793
 C194 C 0.66086 0.43850 0.21787
 H195 H 0.65966 0.42845 0.20026
 Zn196 Zn 0.62504 0.49978 0.25014
 N197 N 0.64615 0.47186 0.24403
 C198 C 0.60536 0.47177 0.29114
 N199 N 0.60394 0.49364 0.27806
 C200 C 0.58665 0.51146 0.28395
 C201 C 0.57026 0.50790 0.30407
 C202 C 0.58934 0.46744 0.31142
 C203 C 0.66341 0.53360 0.23844
 C204 C 0.67980 0.55375 0.24196
 C205 C 0.66076 0.56114 0.28242
 C206 C 0.64471 0.54086 0.27811
 N207 N 0.64612 0.52774 0.25626
 H208 H 0.61872 0.45752 0.28577
 H209 H 0.58570 0.52853 0.27301
 H210 H 0.55695 0.52252 0.30873
 H211 H 0.59059 0.44982 0.32145
 H212 H 0.66445 0.52254 0.22145
 H213 H 0.69355 0.55799 0.22762
 H214 H 0.65908 0.57160 0.29975
 H215 H 0.63124 0.53560 0.29230
 C216 C 0.67868 0.43184 0.23609
 C217 C 0.57156 0.51387 0.18216
 C218 C 0.67856 0.56787 0.26418
 C219 C 0.57152 0.48567 0.31816
 C220 C 0.91252 0.51160 0.71632
 H221 H 0.91345 0.52868 0.72727
 C222 C 0.92890 0.50809 0.69619
 H223 H 0.94219 0.52275 0.69153
 C224 C 0.89388 0.47186 0.70912
 H225 H 0.88054 0.45757 0.71449
 C226 C 0.90989 0.46757 0.68883
 H227 H 0.90866 0.44994 0.67879
 N228 N 0.89527 0.49374 0.72221
 C229 C 0.83580 0.53365 0.76186
 H230 H 0.83485 0.52272 0.77893
 C231 C 0.81942 0.55378 0.75832
 H232 H 0.80612 0.55846 0.77295
 C233 C 0.85447 0.54082 0.72217
 H234 H 0.86782 0.53544 0.70791
 C235 C 0.83846 0.56110 0.71785
 H236 H 0.83971 0.57113 0.70024
 Zn237 Zn 0.87418 0.49984 0.75014
 N238 N 0.85307 0.52775 0.74403
 C239 C 0.89387 0.52790 0.79112
 N240 N 0.89527 0.50601 0.77804
 C241 C 0.91255 0.48819 0.78392
 C242 C 0.92894 0.49176 0.80402
 C243 C 0.90992 0.53226 0.81135
 C244 C 0.83586 0.46591 0.73846
 C245 C 0.81952 0.44573 0.74201
 C246 C 0.83858 0.43845 0.78245
 C247 C 0.85455 0.45878 0.77813
 N248 N 0.85313 0.47186 0.75628
 H249 H 0.88041 0.54209 0.78585
 H250 H 0.91358 0.47116 0.77289
 H251 H 0.94268 0.47741 0.80827
 H252 H 0.90825 0.54962 0.82177
 H253 H 0.83490 0.47686 0.72141
 H254 H 0.80623 0.44103 0.72739
 H255 H 0.83984 0.42841 0.80006
 H256 H 0.86790 0.46419 0.79238
 C257 C 0.82067 0.56787 0.73609
 C258 C 0.92767 0.48584 0.68209
 C259 C 0.82080 0.43164 0.76423
 C260 C 0.92771 0.51402 0.81809
 C261 C 0.21598 0.41287 0.01137
 H262 H 0.22704 0.41389 0.02835
 C263 C 0.19585 0.42926 0.00788
 H264 H 0.19162 0.44299 0.02224
 C265 C 0.20871 0.39420 -0.02831
 H266 H 0.21396 0.38075 -0.04252
 C267 C 0.18845 0.41025 -0.03259
 H268 H 0.17799 0.40858 -0.04992
 N269 N 0.22183 0.39560 -0.00648
 C270 C 0.26149 0.33614 0.03335
 H271 H 0.27855 0.33519 0.02237
 C272 C 0.25798 0.31979 0.05349
 H273 H 0.27261 0.30649 0.05812
 C274 C 0.22181 0.35485 0.04063
 H275 H 0.20755 0.36821 0.03530
 C276 C 0.21752 0.33887 0.06093
 H277 H 0.19992 0.34014 0.07102
 Zn278 Zn 0.24977 0.37452 -0.00041
 N279 N 0.24366 0.35342 0.02750
 C280 C 0.29079 0.39422 0.02758
 N281 N 0.27771 0.39563 0.00572
 C282 C 0.28360 0.41293 -0.01207
 C283 C 0.30373 0.42934 -0.00850
 C284 C 0.31104 0.41029 0.03194
 C285 C 0.23808 0.33616 -0.03425
 C286 C 0.24164 0.31979 -0.05439
 C287 C 0.28214 0.33886 -0.06170
 C288 C 0.27778 0.35489 -0.04144
 N289 N 0.25590 0.35346 -0.02835
 H290 H 0.28551 0.38075 0.04175
 H291 H 0.27258 0.41396 -0.02907
 H292 H 0.30799 0.44310 -0.02282
 H293 H 0.32146 0.40862 0.04929
 H294 H 0.22106 0.33510 -0.02322
 H295 H 0.22729 0.30604 -0.05866
 H296 H 0.29950 0.34056 -0.07213
 H297 H 0.29198 0.36836 -0.03615
 C298 C 0.23577 0.32108 0.06765
 C299 C 0.18174 0.42804 -0.01433
 C300 C 0.26390 0.32105 -0.06846
 C301 C 0.31779 0.42811 0.01374
 C302 C 0.71726 0.08615 -0.01178
 H303 H 0.72832 0.08509 -0.02877
 C304 C 0.69706 0.06982 -0.00826
 H305 H 0.69278 0.05609 -0.02261
 C306 C 0.71006 0.10486 0.02789
 H307 H 0.71536 0.11831 0.04209
 C308 C 0.68974 0.08887 0.03220
 H309 H 0.67928 0.09058 0.04953
 N310 N 0.72318 0.10342 0.00605
 C311 C 0.76296 0.16284 -0.03381
 H312 H 0.78002 0.16378 -0.02286
 C313 C 0.75943 0.17926 -0.05390
 H314 H 0.77408 0.19258 -0.05852
 C315 C 0.72324 0.14417 -0.04105
 H316 H 0.70896 0.13081 -0.03571
 C317 C 0.71894 0.16022 -0.06130
 H318 H 0.70132 0.15899 -0.07133
 Zn319 Zn 0.75117 0.12447 -0.00005
 N320 N 0.74510 0.14556 -0.02796
 C321 C 0.79218 0.10475 -0.02803
 N322 N 0.77909 0.10336 -0.00617
 C323 C 0.78494 0.08608 0.01164
 C324 C 0.80506 0.06967 0.00809
 C325 C 0.81243 0.08868 -0.03237
 C326 C 0.73948 0.16287 0.03371
 C327 C 0.74300 0.17927 0.05383
 C328 C 0.78344 0.16019 0.06126
 C329 C 0.77913 0.14414 0.04100
 N330 N 0.75729 0.14556 0.02787
 H331 H 0.78693 0.11820 -0.04221
 H332 H 0.77390 0.08505 0.02864
 H333 H 0.80930 0.05593 0.02242
 H334 H 0.82287 0.09035 -0.04972
 H335 H 0.72250 0.16393 0.02264
 H336 H 0.72866 0.19303 0.05805
 H337 H 0.80077 0.15849 0.07172
 H338 H 0.79331 0.13065 0.03576
 C339 C 0.73720 0.17803 -0.06799
 C340 C 0.68295 0.07110 0.01395
 C341 C 0.76521 0.17801 0.06796
 C342 C 0.81915 0.07088 -0.01415
 C343 C 0.21594 0.58680 0.48817
 H344 H 0.22698 0.58584 0.47116
 C345 C 0.19578 0.57042 0.49163
 H346 H 0.19119 0.55710 0.47699
 C347 C 0.20856 0.60551 0.52781
 H348 H 0.21387 0.61888 0.54208
 C349 C 0.18823 0.58950 0.53204
 H350 H 0.17811 0.59075 0.54960
 N351 N 0.22176 0.60409 0.50601
 C352 C 0.26172 0.66349 0.46629
 H353 H 0.27873 0.66443 0.47733
 C354 C 0.25831 0.67987 0.44616
 H355 H 0.27298 0.69317 0.44159
 C356 C 0.22203 0.64482 0.45888
 H357 H 0.20772 0.63147 0.46417
 C358 C 0.21785 0.66083 0.43859
 H359 H 0.20028 0.65959 0.42846
 Zn360 Zn 0.24977 0.62514 0.50003
 N361 N 0.24383 0.64622 0.47208
 C362 C 0.29089 0.60539 0.47222
 N363 N 0.27771 0.60402 0.49403
 C364 C 0.28348 0.58674 0.51187
 C365 C 0.30360 0.57032 0.50840
 C366 C 0.31114 0.58930 0.46796
 C367 C 0.23794 0.66353 0.53377
 C368 C 0.24141 0.67993 0.55390
 C369 C 0.28186 0.66089 0.56140
 C370 C 0.27760 0.64483 0.54114
 N371 N 0.25579 0.64624 0.52797
 H372 H 0.28570 0.61884 0.45801
 H373 H 0.27237 0.58573 0.52883
 H374 H 0.30777 0.55658 0.52276
 H375 H 0.32165 0.59095 0.45066
 H376 H 0.22098 0.66456 0.52267
 H377 H 0.22706 0.69368 0.55808
 H378 H 0.29917 0.65922 0.57190
 H379 H 0.29181 0.63136 0.53593
 C380 C 0.23615 0.67862 0.43195
 C381 C 0.18157 0.57168 0.51379
 C382 C 0.26360 0.67871 0.56806
 C383 C 0.31777 0.57151 0.48622
 C384 C 0.71637 0.91394 0.51165
 H385 H 0.72731 0.91490 0.52871
 C386 C 0.69623 0.93030 0.50810
 H387 H 0.69155 0.94361 0.52272
 C388 C 0.70922 0.89523 0.47197
 H389 H 0.71461 0.88188 0.45772
 C390 C 0.68892 0.91123 0.46765
 H391 H 0.67889 0.90996 0.45004
 N392 N 0.72229 0.89666 0.49383
 C393 C 0.76189 0.83726 0.53378
 H394 H 0.77898 0.83632 0.52286
 C395 C 0.75831 0.82086 0.55389
 H396 H 0.77293 0.80756 0.55855
 C397 C 0.72217 0.85592 0.54094
 H398 H 0.70791 0.86926 0.53556
 C399 C 0.71781 0.83989 0.56120
 H400 H 0.70016 0.84113 0.57120
 Zn401 Zn 0.75023 0.87560 0.49997
 N402 N 0.74407 0.85452 0.52788
 C403 C 0.79121 0.89534 0.52798
 N404 N 0.77817 0.89670 0.50610
 C405 C 0.78410 0.91395 0.48827
 C406 C 0.80424 0.93034 0.49181
 C407 C 0.81148 0.91140 0.53232
 C408 C 0.73854 0.83721 0.46618
 C409 C 0.74211 0.82079 0.44609
 C410 C 0.78261 0.83984 0.43874
 C411 C 0.77827 0.85589 0.45900
 N412 N 0.75638 0.85449 0.47206
 H413 H 0.78590 0.88191 0.54217
 H414 H 0.77309 0.91495 0.47125
 H415 H 0.80853 0.94406 0.47746
 H416 H 0.82188 0.90976 0.54968
 H417 H 0.72145 0.83627 0.47711
 H418 H 0.72747 0.80747 0.44144
 H419 H 0.80025 0.84107 0.42872
 H420 H 0.79253 0.86926 0.46436
 C421 C 0.73604 0.82210 0.56794
 C422 C 0.68215 0.92903 0.48587
 C423 C 0.76437 0.82201 0.43202
 C424 C 0.81827 0.92916 0.51407
 C425 C 0.01099 0.21711 0.41360
 H426 H 0.02804 0.22811 0.41460
 C427 C 0.00740 0.19700 0.42998
 H428 H 0.02199 0.19240 0.44334
 C429 C -0.02861 0.20977 0.39477
 H430 H -0.04282 0.21508 0.38135
 C431 C -0.03297 0.18949 0.41078
 H432 H -0.05057 0.17940 0.40947
 N433 N -0.00677 0.22292 0.39625
 C434 C 0.03347 0.26248 0.33697
 H435 H 0.02247 0.27951 0.33588
 C436 C 0.05367 0.25889 0.32067
 H437 H 0.05800 0.27322 0.30694
 C438 C 0.04053 0.22278 0.35569
 H439 H 0.03517 0.20860 0.36912
 C440 C 0.06085 0.21840 0.33973
 H441 H 0.07125 0.20103 0.34146
 Zn442 Zn -0.00057 0.25082 0.37515
 N443 N 0.02748 0.24467 0.35422
 C444 C 0.02731 0.29192 0.39489
 N445 N 0.00543 0.27882 0.39619
 C446 C -0.01250 0.28473 0.41336
 C447 C -0.00904 0.30487 0.42974
 C448 C 0.03156 0.31222 0.41091
 C449 C -0.03419 0.23894 0.33671
 C450 C -0.05423 0.24241 0.32022
 C451 C -0.06173 0.28294 0.33911
 C452 C -0.04153 0.27870 0.35523
 N453 N -0.02841 0.25684 0.35395
 H454 H 0.04165 0.28654 0.38162
 H455 H -0.02959 0.27377 0.41422
 H456 H -0.02374 0.30953 0.44297
 H457 H 0.04920 0.32226 0.40976
 H458 H -0.02321 0.22188 0.33586
 H459 H -0.05880 0.22773 0.30694
 H460 H -0.07180 0.30056 0.34026
 H461 H -0.03625 0.29301 0.36857
 C462 C 0.06770 0.23661 0.32196
 C463 C -0.01480 0.18283 0.42865
 C464 C -0.06835 0.26464 0.32134
 C465 C 0.01322 0.31897 0.42861
 C466 C -0.01123 0.71564 0.08606
 H467 H -0.02828 0.72663 0.08518
 C468 C -0.00778 0.69549 0.06967
 H469 H -0.02247 0.69087 0.05642
 C470 C 0.02851 0.70836 0.10459
 H471 H 0.04283 0.71370 0.11789
 C472 C 0.03274 0.68805 0.08856
 H473 H 0.05034 0.67798 0.08974
 N474 N 0.00667 0.72150 0.10326
 C475 C -0.03295 0.76127 0.16282
 H476 H -0.02185 0.77825 0.16381
 C477 C -0.05305 0.75779 0.17926
 H478 H -0.05721 0.77217 0.19300
 C479 C -0.04036 0.72157 0.14419
 H480 H -0.03519 0.70734 0.13072
 C481 C -0.06060 0.71730 0.16029
 H482 H -0.07110 0.69997 0.15865
 Zn483 Zn 0.00068 0.74947 0.12434
 N484 N -0.02719 0.74341 0.14553
 C485 C -0.02734 0.79052 0.10479
 N486 N -0.00549 0.77740 0.10329
 C487 C 0.01228 0.78327 0.08594
 C488 C 0.00871 0.80342 0.06961
 C489 C -0.03171 0.81079 0.08880
 C490 C 0.03465 0.73778 0.16252
 C491 C 0.05483 0.74136 0.17883
 C492 C 0.06210 0.78186 0.15980
 C493 C 0.04180 0.77749 0.14383
 N494 N 0.02871 0.75560 0.14527
 H495 H -0.04150 0.78526 0.11830
 H496 H 0.02928 0.77222 0.08483
 H497 H 0.02301 0.80767 0.05582
 H498 H -0.04904 0.82125 0.09057
 H499 H 0.02362 0.72076 0.16359
 H500 H 0.05912 0.72703 0.19256
 H501 H 0.07251 0.79923 0.15810
 H502 H 0.03648 0.79168 0.13040
 C503 C -0.06722 0.73558 0.17809
 C504 C 0.01443 0.68135 0.07083
 C505 C 0.06889 0.76364 0.17758
 C506 C -0.01352 0.81753 0.07095
 C507 C 0.48825 0.21557 0.58728
 H508 H 0.47116 0.22651 0.58634
 C509 C 0.49184 0.19547 0.57086
 H510 H 0.47723 0.19082 0.55754
 C511 C 0.52794 0.20840 0.60597
 H512 H 0.54217 0.21377 0.61934
 C513 C 0.53230 0.18814 0.58992
 H514 H 0.54994 0.17813 0.59116
 N515 N 0.50605 0.22146 0.60457
 C516 C 0.46600 0.26104 0.66398
 H517 H 0.47702 0.27807 0.66503
 C518 C 0.44583 0.25747 0.68031
 H519 H 0.44153 0.27182 0.69404
 C520 C 0.45885 0.22132 0.64528
 H521 H 0.46416 0.20713 0.63183
 C522 C 0.43856 0.21696 0.66127
 H523 H 0.42813 0.19959 0.65957
 Zn524 Zn 0.49988 0.24939 0.62565
 N525 N 0.47193 0.24322 0.64671
 C526 C 0.47189 0.29042 0.60601
 N527 N 0.49376 0.27733 0.60460
 C528 C 0.51160 0.28320 0.58733
 C529 C 0.50807 0.30333 0.57096
 C530 C 0.46757 0.31068 0.58998
 C531 C 0.53374 0.23773 0.66396
 C532 C 0.55390 0.24131 0.68030
 C533 C 0.56116 0.28184 0.66132
 C534 C 0.54087 0.27747 0.64532
 N535 N 0.52781 0.25556 0.64672
 H536 H 0.45768 0.28515 0.61946
 H537 H 0.52861 0.27216 0.58629
 H538 H 0.52243 0.30759 0.55723
 H539 H 0.45021 0.32112 0.59166
 H540 H 0.52273 0.22069 0.66499
 H541 H 0.55819 0.22695 0.69400
 H542 H 0.57157 0.29921 0.65964
 H543 H 0.53557 0.29166 0.63189
 C544 C 0.43176 0.23520 0.67905
 C545 C 0.51410 0.18141 0.57210
 C546 C 0.56795 0.26359 0.67906
 C547 C 0.48582 0.31742 0.57219
 C548 C 0.51110 0.71713 0.91375
 H549 H 0.52810 0.72821 0.91476
 C550 C 0.50762 0.69698 0.93012
 H551 H 0.52200 0.69276 0.94381
 C552 C 0.47138 0.70982 0.89516
 H553 H 0.45715 0.71506 0.88174
 C554 C 0.46711 0.68954 0.91118
 H555 H 0.44977 0.67905 0.90953
 N556 N 0.49323 0.72297 0.89652
 C557 C 0.53309 0.76259 0.83703
 H558 H 0.52206 0.77961 0.83601
 C559 C 0.55320 0.75903 0.82061
 H560 H 0.55745 0.77337 0.80687
 C561 C 0.54029 0.72289 0.85568
 H562 H 0.53503 0.70870 0.86914
 C563 C 0.56053 0.71853 0.83961
 H564 H 0.57095 0.70117 0.84127
 Zn565 Zn 0.49931 0.75090 0.87543
 N566 N 0.52722 0.74477 0.85431
 C567 C 0.52735 0.79197 0.89501
 N568 N 0.50547 0.77887 0.89647
 C569 C 0.48767 0.78475 0.91378
 C570 C 0.49127 0.80487 0.93016
 C571 C 0.53172 0.81225 0.91102
 C572 C 0.46544 0.73912 0.83717
 C573 C 0.44529 0.74264 0.82082
 C574 C 0.43796 0.78315 0.83982
 C575 C 0.45823 0.77884 0.85583
 N576 N 0.47133 0.75698 0.85442
 H577 H 0.54158 0.78660 0.88162
 H578 H 0.47060 0.77379 0.91476
 H579 H 0.47667 0.80952 0.94351
 H580 H 0.54935 0.82229 0.90974
 H581 H 0.47648 0.72211 0.83613
 H582 H 0.44103 0.72827 0.80710
 H583 H 0.42752 0.80050 0.84149
 H584 H 0.46352 0.79306 0.86926
 C585 C 0.56726 0.73677 0.82181
 C586 C 0.48540 0.68284 0.92892
 C587 C 0.43121 0.76488 0.82205
 C588 C 0.51352 0.81897 0.92887
 C589 C 0.12999 0.22427 0.27214
 C590 C 0.11360 0.20456 0.27787
 C591 C 0.09335 0.20854 0.29408
 C592 C 0.16825 0.21668 0.24145
 C593 C 0.10582 0.25204 0.29887
 C594 C 0.12606 0.24801 0.28267
 C595 C 0.15081 0.22014 0.25545
 C596 C 0.08922 0.23234 0.30476
 H597 H 0.11642 0.18612 0.26976
 H598 H 0.08073 0.19309 0.29796
 H599 H 0.10333 0.27049 0.30704
 H600 H 0.13868 0.26339 0.27841
 C601 C 0.62940 0.72455 0.77177
 C602 C 0.61305 0.70481 0.77753
 C603 C 0.59284 0.70876 0.79380
 C604 C 0.66762 0.71702 0.74103
 C605 C 0.60526 0.75228 0.79859
 C606 C 0.62546 0.74828 0.78233
 C607 C 0.65020 0.72046 0.75504
 C608 C 0.58872 0.73255 0.80452
 H609 H 0.61588 0.68639 0.76941
 H610 H 0.58026 0.69328 0.79772
 H611 H 0.60278 0.77071 0.80678
 H612 H 0.63805 0.76368 0.77805
 C613 C 0.36906 0.77694 0.77206
 C614 C 0.38538 0.79671 0.77780
 C615 C 0.40558 0.79282 0.79407
 C616 C 0.33090 0.78434 0.74125
 C617 C 0.39320 0.74930 0.79891
 C618 C 0.37300 0.75324 0.78265
 C619 C 0.34829 0.78096 0.75530
 C620 C 0.40973 0.76906 0.80481
 H621 H 0.38254 0.81512 0.76965
 H622 H 0.41815 0.80832 0.79796
 H623 H 0.39569 0.73089 0.80712
 H624 H 0.36044 0.73782 0.77839
 C625 C -0.13038 0.27654 0.27115
 C626 C -0.13216 0.28398 0.29626
 C627 C -0.11200 0.28014 0.31258
 C628 C -0.16854 0.28383 0.24031
 C629 C -0.08817 0.26134 0.27871
 C630 C -0.10834 0.26522 0.26242
 C631 C -0.15114 0.28050 0.25437
 C632 C -0.08977 0.26876 0.30400
 H633 H -0.14916 0.29270 0.30323
 H634 H -0.11394 0.28576 0.33200
 H635 H -0.07120 0.25285 0.27144
 H636 H -0.10674 0.25946 0.24299
 C637 C -0.12940 0.72372 0.22817
 C638 C -0.11317 0.70390 0.22241
 C639 C -0.09295 0.70773 0.20613
 C640 C -0.16766 0.71642 0.25894
 C641 C -0.10513 0.75129 0.20132
 C642 C -0.12534 0.74741 0.21759
 C643 C -0.15021 0.71975 0.24492
 C644 C -0.08870 0.73148 0.19539
 H645 H -0.11610 0.68550 0.23056
 H646 H -0.08045 0.69219 0.20221
 H647 H -0.10255 0.76970 0.19311
 H648 H -0.13784 0.76287 0.22187
 C649 C 0.36936 0.22302 0.72878
 C650 C 0.38572 0.20327 0.72310
 C651 C 0.40601 0.20721 0.70693
 C652 C 0.33098 0.21555 0.75936
 C653 C 0.39366 0.25072 0.70209
 C654 C 0.37337 0.24674 0.71824
 C655 C 0.34848 0.21895 0.74542
 C656 C 0.41021 0.23099 0.69623
 H657 H 0.38283 0.18486 0.73121
 H658 H 0.41860 0.19173 0.70307
 H659 H 0.39619 0.26914 0.69391
 H660 H 0.36078 0.26213 0.72247
 C661 C 0.63031 0.27581 0.72879
 C662 C 0.61393 0.29553 0.72314
 C663 C 0.59365 0.29159 0.70698
 C664 C 0.66867 0.28334 0.75934
 C665 C 0.60605 0.24809 0.70207
 C666 C 0.62632 0.25209 0.71822
 C667 C 0.65118 0.27990 0.74541
 C668 C 0.58948 0.26781 0.69625
 H669 H 0.61680 0.31395 0.73128
 H670 H 0.58105 0.30705 0.70315
 H671 H 0.60353 0.22967 0.69386
 H672 H 0.63893 0.23670 0.72241
 C673 C 0.13104 0.77595 0.22752
 C674 C 0.11469 0.79567 0.22177
 C675 C 0.09449 0.79170 0.20552
 C676 C 0.16918 0.78350 0.25835
 C677 C 0.10693 0.74820 0.20071
 C678 C 0.12713 0.75222 0.21696
 C679 C 0.15180 0.78005 0.24429
 C680 C 0.09037 0.76790 0.19480
 H681 H 0.11751 0.81409 0.22991
 H682 H 0.08190 0.80715 0.20162
 H683 H 0.10445 0.72976 0.19252
 H684 H 0.13971 0.73684 0.22123
 C685 C 0.27171 0.13003 0.22445
 C686 C 0.29688 0.13171 0.21713
 C687 C 0.31311 0.11148 0.22103
 C688 C 0.24101 0.16828 0.21695
 C689 C 0.27902 0.08779 0.23966
 C690 C 0.26282 0.10804 0.23572
 C691 C 0.25500 0.15085 0.22038
 C692 C 0.30437 0.08928 0.23235
 H693 H 0.30397 0.14868 0.20845
 H694 H 0.33258 0.11333 0.21550
 H695 H 0.27164 0.07084 0.24810
 H696 H 0.24335 0.10651 0.24139
 C697 C 0.77088 0.63019 0.72392
 C698 C 0.76196 0.60824 0.73526
 C699 C 0.77813 0.58797 0.73924
 C700 C 0.74028 0.66852 0.71644
 C701 C 0.81224 0.61154 0.72050
 C702 C 0.79605 0.63180 0.71656
 C703 C 0.75423 0.65105 0.71984
 C704 C 0.80347 0.58939 0.73190
 H705 H 0.74250 0.60677 0.74097
 H706 H 0.77072 0.57107 0.74775
 H707 H 0.83171 0.61334 0.71494
 H708 H 0.80316 0.64873 0.70783
 C709 C 0.77109 0.36918 0.77640
 C710 C 0.76214 0.39111 0.76509
 C711 C 0.77828 0.41143 0.76111
 C712 C 0.74054 0.33076 0.78388
 C713 C 0.81243 0.38793 0.77981
 C714 C 0.79626 0.36763 0.78375
 C715 C 0.75447 0.34827 0.78046
 C716 C 0.80362 0.41007 0.76843
 H717 H 0.74268 0.39253 0.75939
 H718 H 0.77085 0.42832 0.75262
 H719 H 0.83189 0.38618 0.78535
 H720 H 0.80340 0.35071 0.79246
 C721 C 0.27163 -0.13082 0.27608
 C722 C 0.27737 -0.11457 0.29588
 C723 C 0.29360 -0.09429 0.29204
 C724 C 0.24093 -0.16915 0.28340
 C725 C 0.29837 -0.10645 0.24849
 C726 C 0.28216 -0.12672 0.25239
 C727 C 0.25492 -0.15168 0.28006
 C728 C 0.30429 -0.09000 0.26829
 H729 H 0.26926 -0.11753 0.31428
 H730 H 0.29751 -0.08178 0.30757
 H731 H 0.30655 -0.10384 0.23008
 H732 H 0.27788 -0.13923 0.23694
 C733 C 0.22853 -0.13009 0.72343
 C734 C 0.20337 -0.13175 0.71611
 C735 C 0.18717 -0.11147 0.71998
 C736 C 0.25916 -0.16846 0.71613
 C737 C 0.22129 -0.08779 0.73855
 C738 C 0.23746 -0.10808 0.73464
 C739 C 0.24519 -0.15098 0.71945
 C740 C 0.19594 -0.08926 0.73127
 H741 H 0.19625 -0.14873 0.70747
 H742 H 0.16770 -0.11331 0.71446
 H743 H 0.22870 -0.07084 0.74697
 H744 H 0.25692 -0.10658 0.74032
 C745 C 0.72883 0.36978 0.22392
 C746 C 0.73762 0.39180 0.23523
 C747 C 0.72134 0.41199 0.23920
 C748 C 0.75967 0.33162 0.21649
 C749 C 0.68736 0.38819 0.22050
 C750 C 0.70368 0.36802 0.21656
 C751 C 0.74561 0.34901 0.21987
 C752 C 0.69601 0.41041 0.23188
 H753 H 0.75707 0.39339 0.24093
 H754 H 0.72865 0.42894 0.24769
 H755 H 0.66791 0.38628 0.21494
 H756 H 0.69666 0.35104 0.20785
 C757 C 0.72858 0.63011 0.27621
 C758 C 0.71800 0.62610 0.25253
 C759 C 0.70174 0.60587 0.24860
 C760 C 0.75939 0.66834 0.28358
 C761 C 0.70656 0.59358 0.29209
 C762 C 0.72283 0.61381 0.29597
 C763 C 0.74534 0.65091 0.28022
 C764 C 0.69582 0.58937 0.26834
 H765 H 0.72227 0.63864 0.23712
 H766 H 0.69353 0.60333 0.23020
 H767 H 0.70265 0.58104 0.30757
 H768 H 0.73098 0.61670 0.31436
 C769 C 0.22909 0.13055 0.77540
 C770 C 0.23787 0.10856 0.76403
 C771 C 0.22159 0.08836 0.76006
 C772 C 0.25993 0.16873 0.78295
 C773 C 0.18763 0.11209 0.77886
 C774 C 0.20394 0.13227 0.78279
 C775 C 0.24587 0.15133 0.77950
 C776 C 0.19627 0.08989 0.76744
 H777 H 0.25733 0.10701 0.75831
 H778 H 0.22890 0.07142 0.75154
 H779 H 0.16818 0.11397 0.78445
 H780 H 0.19693 0.14923 0.79154
 C781 C 0.22376 0.27141 0.13006
 C782 C 0.23502 0.26244 0.10810
 C783 C 0.23894 0.27857 0.08780
 C784 C 0.21639 0.24087 0.16845
 C785 C 0.22030 0.31273 0.11136
 C786 C 0.21642 0.29657 0.13165
 C787 C 0.21974 0.25479 0.15095
 C788 C 0.23162 0.30391 0.08920
 H789 H 0.24071 0.24297 0.10665
 H790 H 0.24738 0.27113 0.07089
 H791 H 0.21476 0.33220 0.11315
 H792 H 0.20775 0.30372 0.14859
 C793 C 0.72366 0.77217 0.63008
 C794 C 0.71632 0.79733 0.63174
 C795 C 0.72033 0.81358 0.61155
 C796 C 0.71602 0.74146 0.66828
 C797 C 0.73911 0.77952 0.58795
 C798 C 0.73506 0.76330 0.60816
 C799 C 0.71950 0.75546 0.65087
 C800 C 0.73178 0.80485 0.58941
 H801 H 0.70754 0.80441 0.64865
 H802 H 0.71478 0.83304 0.61337
 H803 H 0.74765 0.77215 0.57106
 H804 H 0.74075 0.74384 0.60665
 C805 C 0.77662 0.77200 0.36989
 C806 C 0.78399 0.79716 0.36821
 C807 C 0.78003 0.81343 0.38840
 C808 C 0.78411 0.74122 0.33169
 C809 C 0.76126 0.77940 0.41205
 C810 C 0.76526 0.76316 0.39184
 C811 C 0.78070 0.75526 0.34909
 C812 C 0.76860 0.80474 0.41056
 H813 H 0.79274 0.80421 0.35128
 H814 H 0.78559 0.83289 0.38656
 H815 H 0.75274 0.77205 0.42896
 H816 H 0.75955 0.74369 0.39336
 C817 C 0.27610 0.27111 -0.13066
 C818 C 0.29584 0.27686 -0.11434
 C819 C 0.29190 0.29309 -0.09411
 C820 C 0.28361 0.24039 -0.16890
 C821 C 0.24839 0.29789 -0.10647
 C822 C 0.25238 0.28166 -0.12669
 C823 C 0.28018 0.25439 -0.15148
 C824 C 0.26812 0.30380 -0.08994
 H825 H 0.31426 0.26873 -0.11720
 H826 H 0.30737 0.29700 -0.08155
 H827 H 0.22996 0.30607 -0.10395
 H828 H 0.23698 0.27738 -0.13925
 C829 C 0.72495 0.22807 -0.13004
 C830 C 0.73630 0.23691 -0.10809
 C831 C 0.74032 0.22066 -0.08791
 C832 C 0.71730 0.25885 -0.16817
 C833 C 0.72160 0.18662 -0.11160
 C834 C 0.71762 0.20290 -0.13176
 C835 C 0.72080 0.24482 -0.15079
 C836 C 0.73300 0.19531 -0.08943
 H837 H 0.74199 0.25638 -0.10654
 H838 H 0.74883 0.22800 -0.07099
 H839 H 0.71605 0.16715 -0.11347
 H840 H 0.70888 0.19585 -0.14870
 C841 C 0.22436 0.72848 0.36967
 C842 C 0.21699 0.70332 0.36799
 C843 C 0.22081 0.68710 0.38823
 C844 C 0.21708 0.75915 0.33137
 C845 C 0.23943 0.72118 0.41193
 C846 C 0.23558 0.73738 0.39167
 C847 C 0.22039 0.74517 0.34883
 C848 C 0.23208 0.69585 0.41044
 H849 H 0.20835 0.69623 0.35102
 H850 H 0.21524 0.66764 0.38638
 H851 H 0.24785 0.72857 0.42887
 H852 H 0.24129 0.75684 0.39319
 C853 C 0.27551 0.72878 0.63020
 C854 C 0.25181 0.71822 0.62616
 C855 C 0.24791 0.70194 0.60596
 C856 C 0.28285 0.75961 0.66839
 C857 C 0.29149 0.70672 0.59377
 C858 C 0.29534 0.72301 0.61398
 C859 C 0.27950 0.74556 0.65099
 C860 C 0.26772 0.69599 0.58953
 H861 H 0.23635 0.72251 0.63865
 H862 H 0.22949 0.69374 0.60338
 H863 H 0.30703 0.70279 0.58128
 H864 H 0.31375 0.73115 0.61690
 C865 C 0.77721 0.22801 0.13015
 C866 C 0.79702 0.22225 0.11389
 C867 C 0.79315 0.20598 0.09368
 C868 C 0.78455 0.25881 0.16836
 C869 C 0.74958 0.20120 0.10590
 C870 C 0.75350 0.21746 0.12611
 C871 C 0.78121 0.24477 0.15094
 C872 C 0.76937 0.19527 0.08944
 H873 H 0.81544 0.23038 0.11680
 H874 H 0.80867 0.20206 0.08116
 H875 H 0.73115 0.19301 0.10334
 H876 H 0.73805 0.22174 0.13862
 C877 C 0.47376 0.37961 0.52226
 C878 C 0.45399 0.36328 0.52799
 C879 C 0.45788 0.34307 0.54423
 C880 C 0.46635 0.41783 0.49152
 C881 C 0.50140 0.35543 0.54906
 C882 C 0.49746 0.37564 0.53282
 C883 C 0.46973 0.40041 0.50554
 C884 C 0.48165 0.33890 0.55495
 H885 H 0.43558 0.36614 0.51985
 H886 H 0.44239 0.33050 0.54812
 H887 H 0.51982 0.35292 0.55726
 H888 H 0.51288 0.38821 0.52857
 C889 C -0.02574 0.87987 0.02123
 C890 C -0.04550 0.86354 0.02700
 C891 C -0.04155 0.84327 0.04316
 C892 C -0.03324 0.91821 -0.00933
 C893 C 0.00201 0.85557 0.04782
 C894 C -0.00199 0.87584 0.03167
 C895 C -0.02982 0.90073 0.00460
 C896 C -0.01774 0.83905 0.05377
 H897 H -0.06394 0.86645 0.01896
 H898 H -0.05704 0.83071 0.04709
 H899 H 0.02046 0.85302 0.05593
 H900 H 0.01343 0.88840 0.02738
 C901 C 0.02631 0.61905 0.02090
 C902 C 0.01501 0.64105 0.01208
 C903 C 0.01113 0.66131 0.02830
 C904 C 0.03360 0.58075 -0.00981
 C905 C 0.02989 0.63764 0.06226
 C906 C 0.03374 0.61739 0.04601
 C907 C 0.03028 0.59821 0.00420
 C908 C 0.01853 0.65984 0.05358
 H909 H 0.00925 0.64256 -0.00734
 H910 H 0.00265 0.67825 0.02096
 H911 H 0.03550 0.63580 0.08168
 H912 H 0.04244 0.60043 0.05305
 C913 C 0.52648 0.11930 0.52207
 C914 C 0.53378 0.11760 0.54721
 C915 C 0.52977 0.13778 0.56349
 C916 C 0.53408 0.08111 0.49129
 C917 C 0.51108 0.16147 0.52949
 C918 C 0.51513 0.14127 0.51325
 C919 C 0.53062 0.09852 0.50532
 C920 C 0.51836 0.15996 0.55481
 H921 H 0.54252 0.10065 0.55425
 H922 H 0.53529 0.13592 0.58293
 H923 H 0.50258 0.17839 0.52216
 H924 H 0.50947 0.14281 0.49380
 C925 C -0.02698 0.12051 0.47843
 C926 C -0.03424 0.11884 0.45327
 C927 C -0.03031 0.13909 0.43707
 C928 C -0.03437 0.08215 0.50902
 C929 C -0.01181 0.16281 0.47120
 C930 C -0.01578 0.14253 0.48736
 C931 C -0.03101 0.09964 0.49507
 C932 C -0.01903 0.16132 0.44585
 H933 H -0.04286 0.10185 0.44614
 H934 H -0.03577 0.13725 0.41761
 H935 H -0.00340 0.17976 0.47861
 H936 H -0.01016 0.14405 0.50682
 C937 C 0.47351 0.62048 0.97872
 C938 C 0.49720 0.62455 0.96812
 C939 C 0.50108 0.64483 0.95194
 C940 C 0.46619 0.58210 1.00930
 C941 C 0.45754 0.65704 0.95690
 C942 C 0.45371 0.63676 0.97309
 C943 C 0.46953 0.59960 0.99537
 C944 C 0.48129 0.66131 0.94613
 H945 H 0.51264 0.61202 0.97230
 H946 H 0.51948 0.64741 0.94370
 H947 H 0.44202 0.66957 0.95307
 H948 H 0.43531 0.63382 0.98125
 C949 C 0.52595 0.88114 0.97883
 C950 C 0.51461 0.85917 0.98769
 C951 C 0.51055 0.83895 0.97146
 C952 C 0.53363 0.91934 1.00958
 C953 C 0.52920 0.86263 0.93741
 C954 C 0.53323 0.88283 0.95367
 C955 C 0.53013 0.90193 0.99555
 C956 C 0.51780 0.84045 0.94613
 H957 H 0.50898 0.85763 1.00715
 H958 H 0.50205 0.82202 0.97883
 H959 H 0.53469 0.86449 0.91795
 H960 H 0.54196 0.89979 0.94660
 C961 C 0.02528 0.38118 0.47860
 C962 C 0.01385 0.35923 0.48739
 C963 C 0.00990 0.33900 0.47116
 C964 C 0.03278 0.41940 0.50938
 C965 C 0.02885 0.36263 0.43723
 C966 C 0.03276 0.38285 0.45350
 C967 C 0.02935 0.40199 0.49534
 C968 C 0.01737 0.34046 0.44588
 H969 H 0.00805 0.35772 0.50681
 H970 H 0.00133 0.32208 0.47846
 H971 H 0.03451 0.36447 0.41782
 H972 H 0.04157 0.39978 0.44649
 C973 C 0.37992 0.52142 0.47429
 C974 C 0.37588 0.53200 0.49797
 C975 C 0.35568 0.54828 0.50187
 C976 C 0.41815 0.49064 0.46691
 C977 C 0.34346 0.54345 0.45835
 C978 C 0.36367 0.52717 0.45450
 C979 C 0.40072 0.50467 0.47029
 C980 C 0.33923 0.55420 0.48210
 H981 H 0.38839 0.52773 0.51340
 H982 H 0.35312 0.55649 0.52027
 H983 H 0.33096 0.54736 0.44285
 H984 H 0.36658 0.51902 0.43611
 C985 C 0.88132 0.02089 -0.02634
 C986 C 0.87736 0.03146 -0.00264
 C987 C 0.85714 0.04770 0.00135
 C988 C 0.91957 -0.00983 -0.03386
 C989 C 0.84477 0.04288 -0.04212
 C990 C 0.86499 0.02662 -0.04606
 C991 C 0.90213 0.00417 -0.03043
 C992 C 0.84062 0.05361 -0.01836
 H993 H 0.88993 0.02719 0.01274
 H994 H 0.85464 0.05590 0.01976
 H995 H 0.83220 0.04677 -0.05758
 H996 H 0.86784 0.01848 -0.06446
 C997 C 0.62046 0.02139 0.02597
 C998 C 0.62453 0.03194 0.00229
 C999 C 0.64485 0.04809 -0.00164
 C1000 C 0.58204 -0.00918 0.03337
 C1001 C 0.65711 0.04321 0.04185
 C1002 C 0.63679 0.02705 0.04573
 C1003 C 0.59955 0.00476 0.02999
 C1004 C 0.66137 0.05392 0.01811
 H1005 H 0.61197 0.02774 -0.01312
 H1006 H 0.64743 0.05629 -0.02004
 H1007 H 0.66967 0.04705 0.05734
 H1008 H 0.63385 0.01892 0.06412
 C1009 C 0.11924 0.52177 0.52575
 C1010 C 0.11756 0.54693 0.53307
 C1011 C 0.13782 0.56318 0.52920
 C1012 C 0.08093 0.49106 0.53315
 C1013 C 0.16152 0.52909 0.51060
 C1014 C 0.14125 0.51288 0.51451
 C1015 C 0.09839 0.50506 0.52977
 C1016 C 0.16004 0.55444 0.51791
 H1017 H 0.10058 0.55402 0.54173
 H1018 H 0.13597 0.58264 0.53473
 H1019 H 0.17848 0.52171 0.50218
 H1020 H 0.14277 0.49341 0.50884
 C1021 C 0.11958 0.47809 -0.02629
 C1022 C 0.13587 0.47235 -0.04607
 C1023 C 0.15608 0.45607 -0.04221
 C1024 C 0.08139 0.50890 -0.03363
 C1025 C 0.14376 0.45122 0.00128
 C1026 C 0.12356 0.46749 -0.00262
 C1027 C 0.09879 0.49485 -0.03029
 C1028 C 0.16026 0.44531 -0.01847
 H1029 H 0.13301 0.48050 -0.06445
 H1030 H 0.16863 0.45216 -0.05770
 H1031 H 0.14628 0.44300 0.01968
 H1032 H 0.11102 0.47176 0.01280
 C1033 C 0.61980 0.97879 0.47373
 C1034 C 0.61820 0.95362 0.46637
 C1035 C 0.63846 0.93743 0.47029
 C1036 C 0.58144 1.00938 0.46632
 C1037 C 0.66203 0.97156 0.48901
 C1038 C 0.64175 0.98772 0.48505
 C1039 C 0.59893 0.99543 0.46969
 C1040 C 0.66062 0.94622 0.48167
 H1041 H 0.60126 0.94650 0.45765
 H1042 H 0.63667 0.91797 0.46473
 H1043 H 0.67894 0.97898 0.49750
 H1044 H 0.64321 1.00719 0.49075
 C1045 C 0.88048 0.97919 0.52621
 C1046 C 0.86411 0.97349 0.54593
 C1047 C 0.84388 0.95722 0.54202
 C1048 C 0.91870 1.01000 0.53367
 C1049 C 0.85634 0.95230 0.49857
 C1050 C 0.87655 0.96856 0.50253
 C1051 C 0.90128 0.99595 0.53027
 C1052 C 0.83976 0.94643 0.51827
 H1053 H 0.86693 0.98167 0.56432
 H1054 H 0.83128 0.95335 0.55747
 H1055 H 0.85386 0.94406 0.48017
 H1056 H 0.88916 0.97280 0.48715
 C1057 C 0.37993 0.47819 0.02599
 C1058 C 0.36357 0.47242 0.04570
 C1059 C 0.34337 0.45613 0.04174
 C1060 C 0.41813 0.50900 0.03353
 C1061 C 0.35581 0.45135 -0.00172
 C1062 C 0.37601 0.46762 0.00228
 C1063 C 0.40072 0.49495 0.03009
 C1064 C 0.33925 0.44541 0.01797
 H1065 H 0.36639 0.48055 0.06411
 H1066 H 0.33077 0.45220 0.05719
 H1067 H 0.35333 0.44315 -0.02014
 H1068 H 0.38860 0.47192 -0.01309
 C1069 C 0.52165 0.47346 0.38041
 C1070 C 0.51275 0.48477 0.35847
 C1071 C 0.52895 0.48875 0.33822
 C1072 C 0.49097 0.46599 0.41869
 C1073 C 0.56304 0.47008 0.36180
 C1074 C 0.54681 0.46613 0.38204
 C1075 C 0.50496 0.46939 0.40125
 C1076 C 0.55429 0.48145 0.33965
 H1077 H 0.49329 0.49045 0.35699
 H1078 H 0.52156 0.49723 0.32132
 H1079 H 0.58251 0.46455 0.36361
 H1080 H 0.55391 0.45742 0.39896
 C1081 C 0.02200 -0.02576 0.87978
 C1082 C 0.04715 -0.03311 0.88140
 C1083 C 0.06339 -0.02915 0.86117
 C1084 C -0.00870 -0.03333 0.91802
 C1085 C 0.02932 -0.01041 0.83761
 C1086 C 0.01312 -0.01441 0.85785
 C1087 C 0.00530 -0.02988 0.90059
 C1088 C 0.05465 -0.01775 0.83904
 H1089 H 0.05424 -0.04185 0.89831
 H1090 H 0.08285 -0.03471 0.86298
 H1091 H 0.02194 -0.00190 0.82072
 H1092 H -0.00635 -0.00871 0.85638
 C1093 C 0.02136 0.02635 0.61965
 C1094 C 0.02716 0.04613 0.63592
 C1095 C 0.04350 0.04225 0.65606
 C1096 C -0.00952 0.03377 0.58156
 C1097 C 0.04829 -0.00128 0.64371
 C1098 C 0.03196 0.00265 0.62358
 C1099 C 0.00455 0.03038 0.59892
 C1100 C 0.05426 0.01849 0.66019
 H1101 H 0.01900 0.06454 0.63310
 H1102 H 0.04744 0.05775 0.66859
 H1103 H 0.05652 -0.01969 0.64619
 H1104 H 0.02766 -0.01277 0.61104
 C1105 C 0.52162 0.52608 0.12002
 C1106 C 0.52732 0.54580 0.13640
 C1107 C 0.54356 0.54186 0.15661
 C1108 C 0.49090 0.53360 0.08183
 C1109 C 0.54844 0.49838 0.14413
 C1110 C 0.53221 0.50237 0.12393
 C1111 C 0.50491 0.53017 0.09923
 C1112 C 0.55431 0.51809 0.16070
 H1113 H 0.51917 0.56422 0.13360
 H1114 H 0.54743 0.55732 0.16922
 H1115 H 0.55666 0.47996 0.14659
 H1116 H 0.52798 0.48699 0.11132
 C1117 C 0.47846 -0.02620 0.11992
 C1118 C 0.47271 -0.04600 0.13617
 C1119 C 0.45647 -0.04214 0.15641
 C1120 C 0.50914 -0.03359 0.08163
 C1121 C 0.45169 0.00142 0.14423
 C1122 C 0.46792 -0.00249 0.12399
 C1123 C 0.49516 -0.03021 0.09908
 C1124 C 0.44577 -0.01837 0.16067
 H1125 H 0.48082 -0.06442 0.13323
 H1126 H 0.45256 -0.05766 0.16892
 H1127 H 0.44351 0.01984 0.14681
 H1128 H 0.47219 0.01295 0.11148
 C1129 C 0.97749 0.47379 0.61976
 C1130 C 0.98639 0.48512 0.64171
 C1131 C 0.97022 0.48905 0.66198
 C1132 C 1.00813 0.46639 0.58144
 C1133 C 0.93613 0.47028 0.63842
 C1134 C 0.95234 0.46638 0.61816
 C1135 C 0.99416 0.46976 0.59890
 C1136 C 0.94489 0.48167 0.66057
 H1137 H 1.00585 0.49085 0.64317
 H1138 H 0.97761 0.49755 0.67888
 H1139 H 0.91667 0.46469 0.63663
 H1140 H 0.94524 0.45766 0.60123
 C1141 C 0.97772 0.52620 0.88020
 C1142 C 0.97199 0.54595 0.86389
 C1143 C 0.95572 0.54202 0.84370
 C1144 C 1.00853 0.53365 0.91835
 C1145 C 0.95088 0.49851 0.85606
 C1146 C 0.96713 0.50249 0.87624
 C1147 C 0.99449 0.53026 0.90096
 C1148 C 0.94498 0.51824 0.83954
 H1149 H 0.98014 0.56437 0.86674
 H1150 H 0.95182 0.55750 0.83114
 H1151 H 0.94266 0.48008 0.85355
 H1152 H 0.97140 0.48708 0.88879
 C1153 C 0.47884 0.02550 0.38025
 C1154 C 0.47309 0.04530 0.36400
 C1155 C 0.45679 0.04144 0.34382
 C1156 C 0.50962 0.03291 0.41843
 C1157 C 0.45195 -0.00211 0.35606
 C1158 C 0.46824 0.00180 0.37624
 C1159 C 0.49560 0.02952 0.40103
 C1160 C 0.44603 0.01767 0.33962
 H1161 H 0.48125 0.06371 0.36689
 H1162 H 0.45288 0.05695 0.33132
 H1163 H 0.44372 -0.02053 0.35352
 H1164 H 0.47251 -0.01364 0.38874
   
