data_POSCAR
  _audit_creation_date              2014-09-24
  _audit_creation_method            'ToBaCCo'
  _symmetry_space_group_name_H-M    'P1'
  _symmetry_Int_Tables_number       1
  _symmetry_cell_setting            triclinic
  loop_
  _symmetry_equiv_pos_as_xyz
 x,y,z
_cell_length_a 47.2000
_cell_length_b 46.2817
_cell_length_c 43.6549
_cell_angle_alpha 89.986600
_cell_angle_beta 88.469900
_cell_angle_gamma 95.799800
loop_
  _atom_site_label
  _atom_site_type_symbol
  _atom_site_fract_x
  _atom_site_fract_y
  _atom_site_fract_z
C1 C 0.20416 0.53694 1.05074
 H2 H 0.20821 0.55321 1.03293
 C3 C 0.18029 0.53733 1.07027
 H4 H 0.16644 0.55439 1.06740
 C5 C 0.21681 0.49441 1.07471
 H6 H 0.23070 0.47729 1.07586
 C7 C 0.19314 0.49383 1.09470
 H8 H 0.19022 0.47625 1.11106
 N9 N 0.22176 0.51562 1.05317
 C10 C 0.30146 0.54513 1.00491
 H11 H 0.30383 0.52562 0.99182
 C12 C 0.32219 0.56874 1.00231
 H13 H 0.34068 0.56651 0.98773
 C14 C 0.27462 0.57051 1.04061
 H15 H 0.25609 0.57104 1.05558
 C16 C 0.29482 0.59480 1.03855
 H17 H 0.29163 0.61391 1.05202
 Zn18 Zn 0.25069 0.51370 1.02261
 N19 N 0.27804 0.54654 1.02339
 C20 C 0.23966 0.53340 0.96305
 N21 N 0.23230 0.51262 0.98461
 C22 C 0.21003 0.49208 0.98067
 C23 C 0.19396 0.49201 0.95425
 C24 C 0.22425 0.53415 0.93630
 C25 C 0.28630 0.47866 1.05294
 C26 C 0.30233 0.45524 1.05700
 C27 C 0.28478 0.43517 1.00925
 C28 C 0.26915 0.45904 1.00611
 N29 N 0.27012 0.48014 1.02781
 H30 H 0.25702 0.54994 0.96682
 H31 H 0.20437 0.47609 0.99845
 H32 H 0.17627 0.47548 0.95241
 H33 H 0.23032 0.55122 0.91968
 H34 H 0.28701 0.49594 1.06967
 H35 H 0.31523 0.45474 1.07713
 H36 H 0.28350 0.41923 0.99118
 H37 H 0.25664 0.46087 0.98598
 C38 C 0.31871 0.59435 1.01875
 C39 C 0.17396 0.51529 1.09239
 C40 C 0.30196 0.43303 1.03497
 C41 C 0.20076 0.51358 0.93164
 C42 C 0.77447 0.51308 -0.07120
 H43 H 0.75987 0.52946 -0.06854
 C44 C 0.79366 0.51464 -0.09614
 H45 H 0.79335 0.53210 -0.11262
 C46 C 0.79370 0.47144 -0.05228
 H47 H 0.79381 0.45495 -0.03473
 C48 C 0.81327 0.47217 -0.07691
 H49 H 0.82780 0.45560 -0.07819
 N50 N 0.77488 0.49175 -0.04983
 C51 C 0.73221 0.54556 0.00520
 H52 H 0.74789 0.54557 0.02277
 C53 C 0.71544 0.56871 0.00333
 H54 H 0.71897 0.58646 0.01929
 C55 C 0.70910 0.52252 -0.03712
 H56 H 0.70682 0.50437 -0.05279
 C57 C 0.69197 0.54517 -0.03986
 H58 H 0.67644 0.54431 -0.05775
 Zn59 Zn 0.75152 0.49174 -0.01398
 N60 N 0.72899 0.52327 -0.01512
 C61 C 0.79724 0.51776 0.01855
 N62 N 0.77625 0.49539 0.01948
 C63 C 0.77435 0.47547 0.04250
 C64 C 0.79398 0.47774 0.06599
 C65 C 0.81738 0.52084 0.04145
 C66 C 0.70654 0.45578 0.01243
 C67 C 0.68572 0.43218 0.01497
 C68 C 0.70613 0.41166 -0.03038
 C69 C 0.72649 0.43578 -0.03210
 N70 N 0.72627 0.45727 -0.01088
 H71 H 0.79852 0.53304 -0.00032
 H72 H 0.75790 0.45746 0.04244
 H73 H 0.79174 0.46116 0.08350
 H74 H 0.83400 0.53879 0.04001
 H75 H 0.70675 0.47329 0.02887
 H76 H 0.67070 0.43209 0.03403
 H77 H 0.70652 0.39502 -0.04781
 H78 H 0.74202 0.43755 -0.05079
 C79 C 0.69496 0.56865 -0.01952
 C80 C 0.81374 0.49439 -0.09898
 C81 C 0.68491 0.40975 -0.00701
 C82 C 0.81612 0.50069 0.06567
 C83 C -0.01649 0.28326 0.49161
 H84 H -0.01246 0.29285 0.51380
 C85 C -0.02277 0.30102 0.46751
 H86 H -0.02250 0.32388 0.47241
 C87 C -0.02148 0.24181 0.45982
 H88 H -0.02154 0.21857 0.45719
 C89 C -0.02751 0.25884 0.43480
 H90 H -0.03173 0.24834 0.41296
 N91 N -0.01543 0.25432 0.48739
 C92 C -0.03425 0.18423 0.55425
 H93 H -0.01463 0.18461 0.56643
 C94 C -0.05586 0.16183 0.55989
 H95 H -0.05253 0.14502 0.57630
 C96 C -0.06217 0.20497 0.51745
 H97 H -0.06452 0.22170 0.50073
 C98 C -0.08435 0.18302 0.52243
 H99 H -0.10314 0.18305 0.50882
 Zn100 Zn -0.00601 0.23195 0.52159
 N101 N -0.03740 0.20476 0.53266
 C102 C -0.01396 0.26063 0.57883
 N103 N 0.00356 0.25759 0.55408
 C104 C 0.02864 0.27448 0.55024
 C105 C 0.03647 0.29640 0.57104
 C106 C -0.00694 0.28241 0.60039
 C107 C 0.03997 0.20242 0.53738
 C108 C 0.06484 0.18880 0.53348
 C109 C 0.06219 0.19575 0.47886
 C110 C 0.03751 0.20956 0.48390
 N111 N 0.02667 0.21230 0.51281
 H112 H -0.03384 0.24690 0.58125
 H113 H 0.04209 0.27154 0.53026
 H114 H 0.05619 0.31012 0.56684
 H115 H -0.02183 0.28488 0.61919
 H116 H 0.03156 0.20565 0.56025
 H117 H 0.07426 0.18101 0.55377
 H118 H 0.07027 0.19366 0.45558
 H119 H 0.02734 0.21820 0.46461
 C120 C -0.08107 0.16069 0.54348
 C121 C -0.02815 0.28904 0.43821
 C122 C 0.07642 0.18526 0.50379
 C123 C 0.01838 0.30118 0.59619
 C124 C 0.98335 0.70390 0.50642
 H125 H 0.96930 0.70108 0.48724
 C126 C 0.98254 0.68249 0.52898
 H127 H 0.96772 0.66316 0.52703
 C128 C 1.01985 0.73254 0.53201
 H129 H 1.03449 0.75200 0.53298
 C130 C 1.01976 0.71162 0.55514
 H131 H 1.03409 0.71579 0.57387
 N132 N 1.00162 0.72843 0.50844
 C133 C 0.96015 0.79140 0.45558
 H134 H 0.97571 0.79711 0.43737
 C135 C 0.93517 0.80530 0.45761
 H136 H 0.93191 0.82177 0.44086
 C137 C 0.94674 0.76447 0.50073
 H138 H 0.95162 0.74924 0.51807
 C139 C 0.92168 0.77790 0.50373
 H140 H 0.90737 0.77252 0.52316
 Zn141 Zn 1.00108 0.75575 0.47627
 N142 N 0.96545 0.77142 0.47700
 C143 C 0.98814 0.73181 0.41706
 N144 N 1.00747 0.73531 0.43967
 C145 C 1.03147 0.72141 0.43871
 C146 C 1.03664 0.70276 0.41466
 C147 C 0.99235 0.71307 0.39253
 C148 C 1.02633 0.80451 0.50591
 C149 C 1.04675 0.82759 0.51189
 C150 C 1.07419 0.81390 0.46767
 C151 C 1.05299 0.79125 0.46234
 N152 N 1.02989 0.78671 0.48169
 H153 H 0.96889 0.74259 0.41863
 H154 H 1.04619 0.72411 0.45731
 H155 H 1.05564 0.69143 0.41498
 H156 H 0.97610 0.71013 0.37554
 H157 H 1.00759 0.80061 0.52073
 H158 H 1.04340 0.84139 0.53144
 H159 H 1.09209 0.81682 0.45165
 H160 H 1.05509 0.77737 0.44272
 C161 C 0.91565 0.79868 0.48215
 C162 C 1.00092 0.68609 0.55370
 C163 C 1.07133 0.83245 0.49294
 C164 C 1.01668 0.69766 0.39148
 C165 C 0.44757 -0.02956 0.26880
 H166 H 0.45096 -0.04608 0.25201
 C167 C 0.42447 -0.03377 0.28969
 H168 H 0.40994 -0.05338 0.28859
 C169 C 0.46279 0.01556 0.29174
 H170 H 0.47817 0.03452 0.29269
 C171 C 0.43997 0.01239 0.31274
 H172 H 0.43821 0.02893 0.33002
 N173 N 0.46589 -0.00491 0.26993
 C174 C 0.52814 -0.03931 0.21447
 H175 H 0.54542 -0.03047 0.22846
 C176 C 0.53235 -0.06245 0.19512
 H177 H 0.55281 -0.07121 0.19515
 C178 C 0.48134 -0.03773 0.19693
 H179 H 0.46156 -0.02778 0.19773
 C180 C 0.48460 -0.06101 0.17702
 H181 H 0.46683 -0.06844 0.16300
 Zn182 Zn 0.49851 0.00288 0.24385
 N183 N 0.50274 -0.02785 0.21568
 C184 C 0.53070 -0.01930 0.28703
 N185 N 0.52968 0.00537 0.27044
 C186 C 0.54952 0.02856 0.27361
 C187 C 0.57215 0.02692 0.29360
 C188 C 0.55300 -0.02211 0.30656
 C189 C 0.47105 0.05035 0.22350
 C190 C 0.46726 0.07467 0.20586
 C191 C 0.51429 0.07255 0.18338
 C192 C 0.51727 0.04826 0.20180
 N193 N 0.49577 0.03765 0.22134
 H194 H 0.51441 -0.03725 0.28431
 H195 H 0.54804 0.04811 0.26044
 H196 H 0.58803 0.04537 0.29516
 H197 H 0.55357 -0.04242 0.31879
 H198 H 0.45377 0.04123 0.23832
 H199 H 0.44718 0.08409 0.20799
 H200 H 0.53181 0.08018 0.16808
 H201 H 0.53658 0.03752 0.20014
 C202 C 0.51044 -0.07407 0.17616
 C203 C 0.42022 -0.01235 0.31161
 C204 C 0.48877 0.08604 0.18510
 C205 C 0.57430 0.00098 0.31004
 C206 C 0.54004 -0.01982 0.71428
 H207 H 0.52555 -0.03896 0.71930
 C208 C 0.56213 -0.02113 0.69252
 H209 H 0.56409 -0.04146 0.68090
 C210 C 0.55349 0.03028 0.72231
 H211 H 0.54966 0.05036 0.73359
 C212 C 0.57582 0.02995 0.70070
 H213 H 0.58922 0.04987 0.69566
 N214 N 0.53597 0.00569 0.72839
 C215 C 0.47437 -0.04062 0.78749
 H216 H 0.45539 -0.03384 0.77766
 C217 C 0.47204 -0.06443 0.80740
 H218 H 0.45122 -0.07566 0.81273
 C219 C 0.52442 -0.03449 0.79277
 H220 H 0.54482 -0.02275 0.78689
 C221 C 0.52308 -0.05825 0.81265
 H222 H 0.54257 -0.06396 0.82243
 Zn223 Zn 0.50377 0.00729 0.75488
 N224 N 0.50026 -0.02594 0.78084
 C225 C 0.44540 0.01266 0.74449
 N226 N 0.47068 0.00771 0.73082
 C227 C 0.47279 0.00334 0.70007
 C228 C 0.44891 0.00340 0.68188
 C229 C 0.42103 0.01334 0.72713
 C230 C 0.52768 0.04254 0.80232
 C231 C 0.53059 0.06639 0.82200
 C232 C 0.49522 0.08826 0.79338
 C233 C 0.49305 0.06397 0.77425
 N234 N 0.50868 0.04141 0.77938
 H235 H 0.44422 0.01637 0.76894
 H236 H 0.49306 -0.00012 0.68941
 H237 H 0.45183 0.00027 0.65754
 H238 H 0.40121 0.01753 0.73859
 H239 H 0.54034 0.02471 0.80574
 H240 H 0.54549 0.06639 0.84047
 H241 H 0.48212 0.10538 0.78843
 H242 H 0.47873 0.06318 0.75531
 C243 C 0.49655 -0.07359 0.82018
 C244 C 0.58029 0.00410 0.68533
 C245 C 0.51388 0.08955 0.81820
 C246 C 0.42239 0.00843 0.69536
 C247 C 0.23780 0.05299 0.51137
 C248 C 0.25813 0.04707 0.53660
 C249 C 0.27200 0.02146 0.53183
 C250 C 0.26319 0.00531 0.50225
 C251 C 0.25578 0.05360 0.48183
 C252 C 0.26939 0.02809 0.47658
 C253 C 0.21722 0.02562 0.50971
 C254 C 0.23059 -0.00018 0.50487
 H255 H 0.26277 0.06228 0.55500
 H256 H 0.27358 -0.01494 0.49906
 H257 H 0.25855 0.07222 0.46659
 H258 H 0.19442 0.02657 0.51034
 C259 C 0.76092 -0.05780 0.47932
 C260 C 0.73881 -0.06262 0.50546
 C261 C 0.72473 -0.03774 0.51279
 C262 C 0.73451 -0.01144 0.49204
 C263 C 0.74461 -0.04735 0.45250
 C264 C 0.73012 -0.02251 0.45919
 C265 C 0.78085 -0.03155 0.48867
 C266 C 0.76683 -0.00656 0.49571
 H267 H 0.73459 -0.08304 0.51768
 H268 H 0.72381 0.00838 0.49667
 H269 H 0.74425 -0.05837 0.43069
 H270 H 0.80370 -0.03208 0.48853
 C271 C 0.44053 0.27823 1.00128
 C272 C 0.44398 0.26208 0.97122
 C273 C 0.47002 0.24954 0.96780
 C274 C 0.48964 0.25561 0.99519
 C275 C 0.44509 0.25626 1.02631
 C276 C 0.47155 0.24399 1.02320
 C277 C 0.46636 0.30063 1.00211
 C278 C 0.49278 0.28886 0.99905
 H279 H 0.42743 0.25931 0.95443
 H280 H 0.51018 0.24614 0.99313
 H281 H 0.42929 0.25073 1.04428
 H282 H 0.46470 0.32362 1.00536
 C283 C 0.55737 0.72832 0.00041
 C284 C 0.55817 0.74774 -0.02781
 C285 C 0.53289 0.76123 -0.03188
 C286 C 0.50992 0.75315 -0.00667
 C287 C 0.55024 0.74785 0.02715
 C288 C 0.52482 0.76154 0.02331
 C289 C 0.53113 0.70680 -0.00294
 C290 C 0.50559 0.71975 -0.00642
 H291 H 0.57685 0.75179 -0.04277
 H292 H 0.48999 0.76342 -0.00935
 H293 H 0.56412 0.75152 0.04635
 H294 H 0.53187 0.68348 -0.00208
 C295 C 0.97480 0.45800 0.28617
 C296 C 0.94861 0.45746 0.26667
 C297 C 0.95153 0.47735 0.24187
 C298 C 0.98074 0.49569 0.24033
 C299 C 0.99923 0.45304 0.26398
 C300 C 1.00294 0.47336 0.23951
 C301 C 0.98076 0.48942 0.29638
 C302 C 0.98409 0.50983 0.27197
 H303 H 0.92962 0.44265 0.27098
 H304 H 0.98321 0.51186 0.22162
 H305 H 1.01354 0.43654 0.26759
 H306 H 0.98055 0.49551 0.32031
 C307 C 0.02731 0.53725 0.72683
 C308 C -0.00056 0.53392 0.74570
 C309 C -0.00374 0.50884 0.76471
 C310 C 0.02162 0.49077 0.76220
 C311 C 0.05074 0.53689 0.75023
 C312 C 0.04778 0.51180 0.76931
 C313 C 0.02806 0.50888 0.70918
 C314 C 0.02479 0.48375 0.72813
 H315 H -0.01578 0.54984 0.74496
 H316 H 0.01923 0.47111 0.77709
 H317 H 0.06766 0.55434 0.75189
 H318 H 0.02940 0.50836 0.68443
 C319 C 0.10116 0.17133 0.49795
 C320 C 0.11888 0.16229 0.52051
 C321 C 0.14256 0.14496 0.51309
 N322 N 0.15953 0.13723 0.53567
 N323 N 0.18007 0.12016 0.52966
 C324 C 0.18437 0.11019 0.50083
 N325 N 0.16756 0.11810 0.47821
 N326 N 0.14705 0.13520 0.48420
 C327 C 0.20531 0.08949 0.49422
 C328 C 0.22253 0.07964 0.51665
 H329 H 0.11562 0.16751 0.54436
 H330 H 0.20563 0.07996 0.47156
 H331 H 0.10699 0.16740 0.47423
 H332 H 0.22166 0.08851 0.53958
 C333 C 0.67678 0.59260 -0.02348
 C334 C 0.67237 0.61354 -0.00129
 C335 C 0.65281 0.63587 -0.00627
 N336 N 0.64667 0.65410 0.01678
 N337 N 0.62823 0.67369 0.01279
 C338 C 0.61535 0.67581 -0.01448
 N339 N 0.62171 0.65778 -0.03758
 N340 N 0.64009 0.63819 -0.03357
 C341 C 0.59367 0.69595 -0.01900
 C342 C 0.58393 0.71332 0.00433
 H343 H 0.68226 0.61302 0.02072
 H344 H 0.58346 0.69557 -0.04095
 H345 H 0.66532 0.59299 -0.04464
 H346 H 0.59336 0.71322 0.02668
 C347 C 0.89013 -0.18565 0.48752
 C348 C 0.87757 -0.17017 0.46501
 C349 C 0.85402 -0.15254 0.47249
 N350 N 0.84094 -0.13938 0.44981
 N351 N 0.82047 -0.12235 0.45642
 C352 C 0.81237 -0.11780 0.48599
 N353 N 0.82539 -0.13103 0.50865
 N354 N 0.84577 -0.14813 0.50204
 C355 C 0.79126 -0.09749 0.49386
 C356 C 0.77676 -0.08366 0.47163
 H357 H 0.88511 -0.17071 0.44142
 H358 H 0.78833 -0.09184 0.51774
 H359 H 0.88073 -0.18645 0.51046
 H360 H 0.78011 -0.08897 0.44772
 C361 C 0.31937 0.41035 1.03918
 C362 C 0.32134 0.38688 1.01923
 C363 C 0.34242 0.36580 1.02294
 N364 N 0.34472 0.34484 1.00155
 N365 N 0.36468 0.32657 1.00349
 C366 C 0.38307 0.32849 1.02698
 N367 N 0.38057 0.34922 1.04859
 N368 N 0.36063 0.36754 1.04662
 C369 C 0.40666 0.30996 1.02807
 C370 C 0.41271 0.29159 1.00393
 H371 H 0.30804 0.38392 0.99952
 H372 H 0.42122 0.31282 1.04685
 H373 H 0.33274 0.41146 1.05904
 H374 H 0.39821 0.28891 0.98508
 C375 C 0.89814 0.13460 0.54660
 C376 C 0.87061 0.13261 0.53533
 C377 C 0.85370 0.10436 0.53184
 N378 N 0.82680 0.10303 0.52130
 N379 N 0.81214 0.07747 0.51587
 C380 C 0.82397 0.05233 0.52064
 N381 N 0.85078 0.05369 0.53131
 N382 N 0.86536 0.07920 0.53684
 C383 C 0.80914 0.02394 0.51295
 C384 C 0.78051 0.02015 0.50505
 H385 H 0.86165 0.15176 0.52737
 H386 H 0.82150 0.00557 0.51410
 H387 H 0.90553 0.11546 0.55678
 H388 H 0.76801 0.03848 0.50699
 C389 C 0.33975 0.62044 0.01637
 C390 C 0.36009 0.62467 -0.00746
 C391 C 0.38309 0.64857 -0.00795
 N392 N 0.40631 0.64647 -0.02644
 N393 N 0.42821 0.66695 -0.02629
 C394 C 0.42761 0.69053 -0.00789
 N395 N 0.40409 0.69305 0.01013
 N396 N 0.38224 0.67235 0.01022
 C397 C 0.45285 0.71183 -0.00607
 C398 C 0.47987 0.70227 -0.00911
 H399 H 0.36043 0.60917 -0.02593
 H400 H 0.45010 0.73383 0.00085
 H401 H 0.33926 0.63682 0.03404
 H402 H 0.48108 0.67913 -0.01185
 C403 C 0.09145 -0.14406 0.49976
 C404 C 0.11808 -0.13778 0.48500
 C405 C 0.13659 -0.11123 0.49226
 N406 N 0.16367 -0.10698 0.48058
 N407 N 0.18012 -0.08252 0.48634
 C408 C 0.16999 -0.06143 0.50393
 N409 N 0.14297 -0.06571 0.51554
 N410 N 0.12662 -0.09014 0.50991
 C411 C 0.18672 -0.03349 0.50928
 C412 C 0.21580 -0.02788 0.50202
 H413 H 0.12595 -0.15226 0.46812
 H414 H 0.17526 -0.01700 0.52007
 H415 H 0.08600 -0.12979 0.51823
 H416 H 0.22757 -0.04567 0.49464
 C417 C 0.66351 0.38614 0.99285
 C418 C 0.63917 0.38368 1.01208
 C419 C 0.61558 0.36066 1.00864
 N420 N 0.59011 0.36379 1.02265
 N421 N 0.56800 0.34399 1.01907
 C422 C 0.57048 0.32014 1.00148
 N423 N 0.59613 0.31667 0.98787
 N424 N 0.61827 0.33665 0.99126
 C425 C 0.54557 0.29881 0.99683
 C426 C 0.51814 0.30710 1.00128
 H427 H 0.63555 0.40023 1.02872
 H428 H 0.54905 0.27739 0.98865
 H429 H 0.66512 0.36954 0.97554
 H430 H 0.51615 0.32972 1.00655
 C431 C 0.48329 0.10985 1.16681
 C432 C 0.50120 0.12272 1.14343
 C433 C 0.49227 0.14637 1.12430
 N434 N 0.50899 0.15713 1.10030
 N435 N 0.50072 0.17800 1.08251
 C436 C 0.47539 0.18890 1.08809
 N437 N 0.45879 0.17824 1.11215
 N438 N 0.46704 0.15740 1.12988
 C439 C 0.46541 0.21158 1.06853
 C440 C 0.48091 0.22305 1.04280
 H441 H 0.52161 0.11506 1.13800
 H442 H 0.44504 0.21890 1.07479
 H443 H 0.46297 0.11848 1.17058
 H444 H 0.50133 0.21526 1.03743
 C445 C -0.00073 0.66297 0.57736
 C446 C 0.01964 0.66058 0.59961
 C447 C 0.01699 0.63653 0.62192
 N448 N 0.03749 0.63444 0.64280
 N449 N 0.03543 0.61257 0.66287
 C450 C 0.01275 0.59200 0.66278
 N451 N -0.00775 0.59413 0.64196
 N452 N -0.00568 0.61597 0.62192
 C453 C 0.01014 0.56746 0.68435
 C454 C 0.03036 0.56361 0.70630
 H455 H 0.03836 0.67603 0.60050
 H456 H -0.00822 0.55153 0.68271
 H457 H -0.01862 0.64638 0.57656
 H458 H 0.04897 0.57921 0.70800
 C459 C 0.49360 0.90168 -0.15802
 C460 C 0.51581 0.88500 -0.15185
 C461 C 0.51314 0.86157 -0.12884
 N462 N 0.53539 0.84579 -0.12457
 N463 N 0.53381 0.82504 -0.10329
 C464 C 0.50991 0.81926 -0.08541
 N465 N 0.48757 0.83499 -0.08974
 N466 N 0.48915 0.85577 -0.11107
 C467 C 0.50840 0.79698 -0.06110
 C468 C 0.53141 0.78103 -0.05591
 H469 H 0.53596 0.88896 -0.16429
 H470 H 0.48921 0.79404 -0.04694
 H471 H 0.47295 0.89600 -0.14698
 H472 H 0.54996 0.78469 -0.07112
 C473 C 0.96691 0.30525 0.41343
 C474 C 0.96430 0.33514 0.41415
 C475 C 0.96360 0.35299 0.38643
 N476 N 0.96231 0.38195 0.38951
 N477 N 0.96337 0.39910 0.36499
 C478 C 0.96577 0.38797 0.33639
 N479 N 0.96673 0.35889 0.33321
 N480 N 0.96573 0.34168 0.35782
 C481 C 0.96827 0.40722 0.30942
 C482 C 0.97135 0.43731 0.31286
 H483 H 0.96332 0.34681 0.43547
 H484 H 0.96873 0.39781 0.28672
 H485 H 0.96507 0.29462 0.39132
 H486 H 0.97086 0.44638 0.33572
 C487 C 0.51537 0.90289 0.15842
 C488 C 0.49648 0.88860 0.13781
 C489 C 0.50440 0.86319 0.12031
 N490 N 0.48782 0.85196 0.09739
 N491 N 0.49521 0.82933 0.08119
 C492 C 0.51938 0.81701 0.08745
 N493 N 0.53576 0.82808 0.11053
 N494 N 0.52843 0.85071 0.12663
 C495 C 0.52864 0.79269 0.06931
 C496 C 0.51474 0.78238 0.04302
 H497 H 0.47594 0.89596 0.13359
 H498 H 0.54777 0.78391 0.07643
 H499 H 0.53594 0.89454 0.16016
 H500 H 0.49561 0.79177 0.03670
 C501 C 0.02567 0.32558 0.61458
 C502 C 0.01012 0.33394 0.64020
 C503 C 0.01624 0.36309 0.65341
 N504 N 0.00472 0.36967 0.68105
 N505 N 0.00918 0.39648 0.69229
 C506 C 0.02511 0.41770 0.67616
 N507 N 0.03649 0.41113 0.64852
 N508 N 0.03222 0.38433 0.63741
 C509 C 0.02907 0.44774 0.68721
 C510 C 0.02324 0.45510 0.71756
 H511 H -0.00716 0.31975 0.65039
 H512 H 0.03748 0.46415 0.67085
 H513 H 0.04441 0.33982 0.60760
 H514 H 0.01767 0.43779 0.73400
 C515 C 0.51612 0.11242 0.83967
 C516 C 0.49968 0.13598 0.83991
 C517 C 0.50055 0.15741 0.86493
 N518 N 0.48170 0.17767 0.86546
 N519 N 0.48111 0.19645 0.88851
 C520 C 0.49940 0.19579 0.91194
 N521 N 0.51853 0.17576 0.91125
 N522 N 0.51907 0.15688 0.88820
 C523 C 0.49783 0.21561 0.93831
 C524 C 0.47493 0.23230 0.94221
 H525 H 0.48447 0.13855 0.82235
 H526 H 0.51389 0.21533 0.95545
 H527 H 0.53094 0.11117 0.85807
 H528 H 0.45886 0.23078 0.92484
 C529 C 1.02100 0.67577 0.37001
 C530 C 1.00239 0.66613 0.34686
 C531 C 1.00423 0.63739 0.33278
 N532 N 0.98740 0.62834 0.30914
 N533 N 0.98702 0.60122 0.29862
 C534 C 1.00333 0.58219 0.31157
 N535 N 1.02024 0.59134 0.33495
 N536 N 1.02078 0.61840 0.34526
 C537 C 1.00064 0.55127 0.30370
 C538 C 0.98978 0.53986 0.27630
 H539 H 0.98496 0.67816 0.34056
 H540 H 1.00830 0.53695 0.32051
 H541 H 1.03942 0.66391 0.37300
 H542 H 0.98696 0.55445 0.25747
 C543 C 1.14966 0.51534 0.10967
 C544 C 1.13978 0.49423 0.13154
 C545 C 1.11227 0.49462 0.14820
 N546 N 1.10387 0.47318 0.16862
 N547 N 1.07908 0.47291 0.18393
 C548 C 1.06164 0.49404 0.17940
 N549 N 1.06998 0.51549 0.15890
 N550 N 1.09483 0.51576 0.14354
 C551 C 1.03454 0.49427 0.19700
 C552 C 1.02650 0.47321 0.21936
 H553 H 1.15174 0.47628 0.13677
 H554 H 1.02181 0.51195 0.19297
 H555 H 1.13627 0.53268 0.10597
 H556 H 1.04021 0.45606 0.22245
 C557 C 0.60280 0.00486 0.66088
 C558 C 0.61334 -0.01983 0.64840
 C559 C 0.63407 -0.01814 0.62245
 N560 N 0.64465 -0.04261 0.61202
 N561 N 0.66303 -0.04151 0.58823
 C562 C 0.67145 -0.01589 0.57391
 N563 N 0.66083 0.00856 0.58431
 N564 N 0.64250 0.00748 0.60813
 C565 C 0.69170 -0.01422 0.54753
 C566 C 0.70478 -0.03833 0.53723
 H567 H 0.60650 -0.04111 0.65773
 H568 H 0.69657 0.00680 0.53688
 H569 H 0.61150 0.02599 0.65233
 H570 H 0.69977 -0.05873 0.54933
 C571 C -0.16492 0.49795 0.87542
 C572 C -0.13991 0.48422 0.87404
 C573 C -0.11752 0.49162 0.85046
 N574 N -0.09357 0.47769 0.85003
 N575 N -0.07259 0.48494 0.82960
 C576 C -0.07475 0.50646 0.80889
 N577 N -0.09873 0.52035 0.80926
 N578 N -0.11973 0.51306 0.82966
 C579 C -0.05144 0.51534 0.78678
 C580 C -0.02701 0.50069 0.78448
 H581 H -0.13562 0.46870 0.89136
 H582 H -0.05397 0.53372 0.77221
 H583 H -0.16813 0.51376 0.85785
 H584 H -0.02591 0.48164 0.79864
 C585 C 0.39579 -0.01635 0.33368
 C586 C 0.38286 0.00730 0.34528
 C587 C 0.36075 0.00490 0.36972
 N588 N 0.34809 0.02885 0.37793
 N589 N 0.32901 0.02780 0.40100
 C590 C 0.32191 0.00277 0.41687
 N591 N 0.33454 -0.02127 0.40864
 N592 N 0.35361 -0.02024 0.38545
 C593 C 0.30161 0.00190 0.44321
 C594 C 0.28732 0.02603 0.45078
 H595 H 0.38937 0.02881 0.33625
 H596 H 0.29842 -0.01787 0.45656
 H597 H 0.38750 -0.03819 0.34035
 H598 H 0.29039 0.04479 0.43574
 C599 C 0.18469 0.51623 0.90526
 C600 C 0.16025 0.49817 0.89786
 C601 C 0.14283 0.50441 0.87165
 N602 N 0.11902 0.48661 0.86561
 N603 N 0.10251 0.49247 0.84260
 C604 C 0.10918 0.51640 0.82479
 N605 N 0.13304 0.53414 0.83077
 N606 N 0.14955 0.52828 0.85377
 C607 C 0.09089 0.52353 0.79968
 C608 C 0.06623 0.50581 0.79254
 H609 H 0.15279 0.47944 0.91164
 H610 H 0.09728 0.54321 0.78690
 H611 H 0.19130 0.53418 0.88986
 H612 H 0.06093 0.48602 0.80562
 C613 C 0.59711 -0.00364 0.32886
 C614 C 0.61848 0.01736 0.33824
 C615 C 0.64204 0.00832 0.35627
 N616 N 0.65473 0.02606 0.37778
 N617 N 0.67501 0.01697 0.39508
 C618 C 0.68348 -0.01005 0.39118
 N619 N 0.67120 -0.02743 0.36925
 N620 N 0.65079 -0.01850 0.35225
 C621 C 0.70507 -0.02127 0.41035
 C622 C 0.71228 -0.00972 0.43902
 H623 H 0.61727 0.04024 0.33416
 H624 H 0.71334 -0.04091 0.40237
 H625 H 0.59801 -0.02553 0.33745
 H626 H 0.70246 0.00921 0.44685
 C627 C 0.83733 0.50402 0.08789
 C628 C 0.83843 0.48623 0.11366
 C629 C 0.86212 0.48965 0.13505
 N630 N 0.86143 0.47217 0.16003
 N631 N 0.88285 0.47435 0.17938
 C632 C 0.90586 0.49407 0.17451
 N633 N 0.90657 0.51162 0.14952
 N634 N 0.88508 0.50946 0.13014
 C635 C 0.92992 0.49608 0.19555
 C636 C 0.92932 0.47820 0.22137
 H637 H 0.82179 0.46907 0.11886
 H638 H 0.94811 0.51145 0.19004
 H639 H 0.85416 0.52162 0.08478
 H640 H 0.91036 0.46339 0.22582
 C641 C 0.39756 0.00963 0.67841
 C642 C 0.39496 0.00219 0.64743
 C643 C 0.36933 0.00684 0.63032
 N644 N 0.36619 -0.00378 0.60149
 N645 N 0.34369 0.00134 0.58525
 C646 C 0.32357 0.01740 0.59725
 N647 N 0.32672 0.02800 0.62606
 N648 N 0.34913 0.02277 0.64233
 C649 C 0.29947 0.02487 0.57918
 C650 C 0.29289 0.01227 0.55080
 H651 H 0.41168 -0.00752 0.63505
 H652 H 0.28669 0.04081 0.58899
 H653 H 0.37894 0.01657 0.69026
 H654 H 0.30432 -0.00563 0.54303
   
