data_POSCAR
  _audit_creation_date              2014-09-24
  _audit_creation_method            'ToBaCCo'
  _symmetry_space_group_name_H-M    'P1'
  _symmetry_Int_Tables_number       1
  _symmetry_cell_setting            triclinic
  loop_
  _symmetry_equiv_pos_as_xyz
 x,y,z
_cell_length_a 16.0875
_cell_length_b 16.2522
_cell_length_c 16.2675
_cell_angle_alpha 89.464500
_cell_angle_beta 89.050300
_cell_angle_gamma 90.592400
loop_
  _atom_site_label
  _atom_site_type_symbol
  _atom_site_fract_x
  _atom_site_fract_y
  _atom_site_fract_z
C1 C 0.00676 0.41158 0.18499
 C2 C 0.07795 0.41042 0.24261
 C3 C 0.08183 0.47211 0.29553
 C4 C 0.00759 0.53408 0.28711
 C5 C -0.07127 0.41640 0.23697
 C6 C -0.07367 0.48155 0.28709
 C7 C 0.01199 0.49856 0.14178
 C8 C 0.01058 0.56414 0.19734
 H9 H 0.12911 0.36831 0.23352
 H10 H 0.00767 0.58363 0.33361
 H11 H -0.12554 0.37767 0.22629
 H12 H 0.00605 0.50720 0.07593
 C13 C -0.00428 0.40571 0.77398
 C14 C -0.05487 0.41162 0.70316
 C15 C -0.06772 0.49180 0.67688
 C16 C 0.00042 0.54893 0.70438
 C17 C 0.07672 0.42577 0.74263
 C18 C 0.08199 0.50449 0.70384
 C19 C -0.02393 0.47629 0.83141
 C20 C -0.01644 0.55775 0.79081
 H21 H -0.09274 0.36073 0.68047
 H22 H 0.00288 0.60735 0.66837
 H23 H 0.13068 0.38744 0.75318
 H24 H -0.03077 0.46920 0.89757
 C25 C 0.20822 -0.00787 0.41305
 C26 C 0.23573 0.07949 0.43208
 C27 C 0.28550 0.08656 0.49836
 C28 C 0.30202 0.00035 0.54105
 C29 C 0.28776 -0.05392 0.40411
 C30 C 0.33043 -0.06258 0.47301
 C31 C 0.16438 -0.03739 0.49474
 C32 C 0.21385 -0.02913 0.56336
 H33 H 0.21488 0.13208 0.39690
 H34 H 0.34470 0.00340 0.59386
 H35 H 0.29834 -0.09364 0.35182
 H36 H 0.09800 -0.04948 0.49938
 C37 C 0.79222 0.00697 0.40761
 C38 C 0.74872 -0.06796 0.41838
 C39 C 0.70681 -0.07615 0.49436
 C40 C 0.70626 0.00023 0.54375
 C41 C 0.72722 0.07084 0.41258
 C42 C 0.68942 0.07676 0.48554
 C43 C 0.84604 0.01523 0.48889
 C44 C 0.79716 0.00917 0.56154
 H45 H 0.75643 -0.11894 0.37606
 H46 H 0.66428 -0.00292 0.59860
 H47 H 0.71963 0.11489 0.36325
 H48 H 0.91347 0.01466 0.48871
 C49 C 0.41277 0.21310 0.99820
 C50 C 0.42943 0.23554 1.08181
 C51 C 0.50025 0.28725 1.09192
 C52 C 0.54822 0.30085 1.01148
 C53 C 0.41241 0.29037 0.95348
 C54 C 0.48992 0.33222 0.94842
 C55 C 0.49000 0.16936 0.97168
 C56 C 0.56690 0.21866 0.98067
 H57 H 0.39353 0.21112 1.13393
 H58 H 0.60408 0.34089 1.01793
 H59 H 0.36297 0.30608 0.91151
 H60 H 0.49035 0.10494 0.95474
 C61 C 0.41364 0.80252 1.01487
 C62 C 0.43326 0.77610 0.93139
 C63 C 0.49712 0.72542 0.92448
 C64 C 0.54608 0.71405 1.00690
 C65 C 0.41122 0.72701 1.07056
 C66 C 0.48411 0.68863 1.07742
 C67 C 0.49036 0.84951 1.03501
 C68 C 0.56590 0.79824 1.02650
 H69 H 0.40521 0.80564 0.87822
 H70 H 0.59976 0.67178 1.00229
 H71 H 0.36208 0.71852 1.11663
 H72 H 0.49200 0.91601 1.04014
 B73 B 0.99350 1.07992 0.03719
 B74 B 1.04423 0.99279 0.07725
 B75 B 0.93409 0.99675 0.07415
 B76 B 0.90163 1.04734 -0.01537
 B77 B 0.99197 1.07584 -0.07266
 B78 B 1.08084 1.04426 -0.01497
 B79 B 0.99029 0.89817 -0.06207
 B80 B 0.93662 0.98549 -0.10029
 B81 B 1.04803 0.98615 -0.10025
 B82 B 1.07652 0.93327 -0.00827
 B83 B 0.98617 0.90461 0.04937
 B84 B 0.90048 0.93652 -0.00935
 B85 B 0.60070 0.50474 0.46481
 B86 B 0.51394 0.55737 0.42351
 B87 B 0.51171 0.44656 0.42832
 B88 B 0.55969 0.41689 0.52157
 B89 B 0.59203 0.50554 0.57458
 B90 B 0.56563 0.59374 0.51470
 B91 B 0.41703 0.51262 0.56698
 B92 B 0.50300 0.45430 0.60577
 B93 B 0.50451 0.56539 0.59957
 B94 B 0.45468 0.59458 0.50633
 B95 B 0.42013 0.50457 0.45678
 B96 B 0.44872 0.41935 0.51919
 C97 C 1.06943 1.20816 0.15439
 C98 C 1.08175 1.28585 0.10265
 C99 C 1.00869 1.32764 0.14402
 C100 C 0.99647 1.25070 0.19976
 C101 C 0.94956 1.29322 0.08252
 C102 C 1.02388 1.24831 0.04158
 C103 C 1.00599 1.17090 0.09199
 C104 C 0.93469 1.21621 0.13684
 H105 H 1.13193 1.19339 0.17609
 H106 H 1.13958 1.31959 0.08517
 H107 H 0.98587 1.24994 0.26740
 H108 H 0.90570 1.33541 0.05186
 H109 H 1.05809 1.22480 -0.00827
 H110 H 0.87350 1.19409 0.15730
 C111 C 0.95698 0.73525 0.07604
 C112 C 1.03807 0.69258 0.10137
 C113 C 0.99359 0.65529 0.17547
 C114 C 0.91201 0.69690 0.15129
 C115 C 1.01594 0.73170 0.22540
 C116 C 1.06069 0.77046 0.15010
 C117 C 0.98149 0.81519 0.11957
 C118 C 0.93523 0.77506 0.19880
 H119 H 0.92520 0.74797 0.02138
 H120 H 1.07832 0.65035 0.06588
 H121 H 0.84974 0.66685 0.15156
 H122 H 1.04083 0.73177 0.28868
 H123 H 1.11927 0.79954 0.16749
 H124 H 0.89867 0.79453 0.25319
 C125 C 1.06492 1.22349 -0.15693
 C126 C 1.02930 1.25241 -0.23831
 C127 C 0.98882 1.32113 -0.19692
 C128 C 1.02128 1.29938 -0.11987
 C129 C 0.91194 1.27315 -0.18457
 C130 C 0.95199 1.19788 -0.22388
 C131 C 0.98743 1.16680 -0.13760
 C132 C 0.94279 1.24453 -0.10202
 H133 H 1.13111 1.21013 -0.16517
 H134 H 1.06427 1.25833 -0.29769
 H135 H 1.05077 1.34644 -0.08021
 H136 H 0.84818 1.29450 -0.19671
 H137 H 0.93352 1.18042 -0.28601
 H138 H 0.89901 1.24919 -0.05178
 C139 C 1.04101 0.72221 -0.08187
 C140 C 0.96170 0.66602 -0.08925
 C141 C 0.98981 0.63949 -0.17344
 C142 C 1.06880 0.69284 -0.16721
 C143 C 0.94591 0.71318 -0.21215
 C144 C 0.91633 0.74179 -0.12668
 C145 C 0.99483 0.79933 -0.11679
 C146 C 1.02477 0.76717 -0.20479
 H147 H 1.09182 0.72388 -0.03920
 H148 H 0.93584 0.62247 -0.04215
 H149 H 1.13314 0.67356 -0.18289
 H150 H 0.90991 0.71210 -0.26935
 H151 H 0.85039 0.75654 -0.11900
 H152 H 1.05477 0.78406 -0.26380
 C153 C 1.07352 0.93210 0.24873
 C154 C 1.16430 0.91215 0.26876
 C155 C 1.16524 0.98290 0.33063
 C156 C 1.07695 1.00127 0.31326
 C157 C 1.19422 1.04118 0.26238
 C158 C 1.19219 0.97158 0.19936
 C159 C 1.09887 0.99291 0.17676
 C160 C 1.10504 1.06210 0.24546
 H161 H 1.02640 0.88484 0.25350
 H162 H 1.18780 0.84906 0.27966
 H163 H 1.03194 1.01501 0.36365
 H164 H 1.24563 1.08726 0.26520
 H165 H 1.25625 0.97149 0.17442
 H166 H 1.08427 1.12147 0.27017
 C167 C 1.20199 0.95471 -0.21809
 C168 C 1.16691 0.90324 -0.28867
 C169 C 1.18090 0.97533 -0.34825
 C170 C 1.21641 1.02741 -0.27872
 C171 C 1.09542 1.00804 -0.32810
 C172 C 1.08012 0.93640 -0.26662
 C173 C 1.11202 0.98690 -0.19329
 C174 C 1.12926 1.05938 -0.25662
 H175 H 1.26148 0.93562 -0.19252
 H176 H 1.18354 0.83836 -0.30110
 H177 H 1.27405 1.06540 -0.28108
 H178 H 1.05365 1.03233 -0.37603
 H179 H 1.02273 0.90335 -0.26130
 H180 H 1.11802 1.12481 -0.26024
 C181 C 0.84427 0.93435 0.21387
 C182 C 0.89600 0.96213 0.28767
 C183 C 0.82492 1.01116 0.31976
 C184 C 0.77079 0.98439 0.24734
 C185 C 0.85110 1.08675 0.27056
 C186 C 0.92446 1.03917 0.23656
 C187 C 0.87629 1.00886 0.16214
 C188 C 0.80105 1.05910 0.19619
 H189 H 0.82531 0.87534 0.18777
 H190 H 0.92678 0.92091 0.33221
 H191 H 0.70535 0.96199 0.25163
 H192 H 0.85502 1.14994 0.29588
 H193 H 0.96872 1.08723 0.22674
 H194 H 0.75823 1.10240 0.17013
 C195 C 0.86549 0.90657 -0.25515
 C196 C 0.78101 0.94253 -0.28025
 C197 C 0.82328 0.99414 -0.34949
 C198 C 0.90550 0.95719 -0.32702
 C199 C 0.83406 1.06387 -0.28904
 C200 C 0.79484 1.01252 -0.21865
 C201 C 0.88117 0.97828 -0.19316
 C202 C 0.91888 1.02807 -0.26610
 H203 H 0.86874 0.84032 -0.24653
 H204 H 0.71819 0.91575 -0.27820
 H205 H 0.94849 0.93228 -0.37448
 H206 H 0.81405 1.12745 -0.30125
 H207 H 0.73846 1.02419 -0.18263
 H208 H 0.97610 1.06087 -0.26058
 C209 C 1.23210 1.11743 0.06177
 C210 C 1.31030 1.08918 0.01305
 C211 C 1.32949 1.17317 -0.00974
 C212 C 1.25771 1.20456 0.03712
 C213 C 1.28042 1.16911 -0.08506
 C214 C 1.25525 1.08020 -0.06408
 C215 C 1.17518 1.10691 -0.01551
 C216 C 1.20254 1.19903 -0.03836
 H217 H 1.22114 1.10583 0.12641
 H218 H 1.35774 1.04565 0.03570
 H219 H 1.26181 1.25700 0.08008
 H220 H 1.30202 1.18958 -0.14727
 H221 H 1.26382 1.03960 -0.11498
 H222 H 1.17637 1.25980 -0.05362
 C223 C 0.77862 1.19769 0.02397
 C224 C 0.73668 1.22658 -0.05596
 C225 C 0.65253 1.18860 -0.02761
 C226 C 0.69372 1.16330 0.05130
 C227 C 0.67645 1.10764 -0.06688
 C228 C 0.76288 1.14384 -0.09501
 C229 C 0.80537 1.11156 -0.01421
 C230 C 0.71568 1.07971 0.01432
 H231 H 0.80224 1.24649 0.06284
 H232 H 0.74554 1.28808 -0.08521
 H233 H 0.66361 1.17483 0.11211
 H234 H 0.63377 1.07095 -0.10529
 H235 H 0.79039 1.15093 -0.15694
 H236 H 0.67815 1.04385 0.05837
 C237 C 1.22184 0.84632 -0.07753
 C238 C 1.29288 0.90122 -0.04366
 C239 C 1.32483 0.83145 0.00815
 C240 C 1.25697 0.77459 -0.02780
 C241 C 1.26816 0.84954 0.07956
 C242 C 1.23553 0.92161 0.02915
 C243 C 1.16373 0.87091 -0.00505
 C244 C 1.19978 0.79526 0.04435
 H245 H 1.20056 0.82609 -0.13838
 H246 H 1.34024 0.93964 -0.07657
 H247 H 1.26651 0.71152 -0.05182
 H248 H 1.28925 0.84637 0.14406
 H249 H 1.21990 0.97728 0.05499
 H250 H 1.18531 0.73557 0.07346
 C251 C 0.73817 0.87923 -0.07261
 C252 C 0.70950 0.79173 -0.04720
 C253 C 0.65029 0.82597 0.01278
 C254 C 0.67174 0.90904 -0.01105
 C255 C 0.71083 0.82227 0.07810
 C256 C 0.77750 0.78927 0.01892
 C257 C 0.80682 0.88009 -0.00517
 C258 C 0.73851 0.90963 0.05594
 H259 H 0.73939 0.89036 -0.13847
 H260 H 0.69480 0.74203 -0.09130
 H261 H 0.62178 0.95273 -0.02604
 H262 H 0.69741 0.80191 0.14218
 H263 H 0.80068 0.72644 0.02865
 H264 H 0.73966 0.95056 0.10642
 C265 C 0.72360 0.56373 0.33172
 C266 C 0.81290 0.58227 0.35956
 C267 C 0.84356 0.50329 0.32235
 C268 C 0.75619 0.48452 0.29062
 C269 C 0.82382 0.45626 0.40062
 C270 C 0.79478 0.53597 0.43899
 C271 C 0.70096 0.51547 0.41319
 C272 C 0.73550 0.43768 0.37161
 H273 H 0.69789 0.61770 0.30274
 H274 H 0.84467 0.64318 0.35417
 H275 H 0.74254 0.46671 0.22651
 H276 H 0.86642 0.40976 0.42658
 H277 H 0.83726 0.56616 0.48287
 H278 H 0.71021 0.37635 0.37860
 C279 C 0.25024 0.56963 0.38717
 C280 C 0.23294 0.54002 0.30009
 C281 C 0.16628 0.48233 0.33414
 C282 C 0.18273 0.50946 0.41971
 C283 C 0.23160 0.41390 0.34341
 C284 C 0.29956 0.47228 0.30963
 C285 C 0.32138 0.50260 0.39991
 C286 C 0.25016 0.44360 0.43022
 H287 H 0.22491 0.62981 0.40349
 H288 H 0.22644 0.58127 0.24578
 H289 H 0.13108 0.52491 0.46282
 H290 H 0.22619 0.34772 0.32801
 H291 H 0.32490 0.45793 0.24823
 H292 H 0.24806 0.40498 0.48319
 C293 C 0.74810 0.54579 0.60161
 C294 C 0.78576 0.57639 0.68127
 C295 C 0.84229 0.50241 0.68023
 C296 C 0.80371 0.47018 0.60208
 C297 C 0.77424 0.45270 0.72946
 C298 C 0.71617 0.52764 0.72672
 C299 C 0.67750 0.49830 0.64204
 C300 C 0.73596 0.42284 0.64855
 H301 H 0.73144 0.58302 0.55266
 H302 H 0.80224 0.63849 0.70238
 H303 H 0.84294 0.44042 0.55531
 H304 H 0.78309 0.41591 0.78621
 H305 H 0.69040 0.54762 0.78635
 H306 H 0.72525 0.35715 0.64540
 C307 C 0.28825 0.58578 0.69468
 C308 C 0.20947 0.60611 0.64580
 C309 C 0.16466 0.53061 0.68033
 C310 C 0.24168 0.51096 0.73199
 C311 C 0.19955 0.47959 0.61038
 C312 C 0.24642 0.55591 0.57534
 C313 C 0.32485 0.53173 0.62277
 C314 C 0.27644 0.45844 0.66155
 H315 H 0.30611 0.63964 0.72771
 H316 H 0.18186 0.66823 0.63969
 H317 H 0.24241 0.49364 0.79818
 H318 H 0.15897 0.43560 0.57752
 H319 H 0.25020 0.59995 0.52597
 H320 H 0.30015 0.39980 0.68123
 C321 C 0.55975 0.57860 0.24761
 C322 C 0.47923 0.58542 0.19758
 C323 C 0.50546 0.66901 0.16698
 C324 C 0.58572 0.66478 0.21519
 C325 C 0.46205 0.70769 0.24259
 C326 C 0.43593 0.62219 0.27413
 C327 C 0.51608 0.61309 0.32652
 C328 C 0.54247 0.70181 0.29251
 H329 H 0.60537 0.53003 0.24576
 H330 H 0.45157 0.53958 0.15546
 H331 H 0.64832 0.67985 0.18968
 H332 H 0.42081 0.76171 0.23921
 H333 H 0.37121 0.61279 0.29038
 H334 H 0.56284 0.76116 0.31830
 C335 C 0.58218 0.65563 0.73389
 C336 C 0.54601 0.73945 0.75968
 C337 C 0.51218 0.69876 0.83845
 C338 C 0.54561 0.61809 0.81571
 C339 C 0.43140 0.67978 0.79321
 C340 C 0.46541 0.71736 0.71359
 C341 C 0.50134 0.63124 0.68667
 C342 C 0.46377 0.59787 0.76917
 H343 H 0.64577 0.65977 0.70875
 H344 H 0.57888 0.79972 0.75839
 H345 H 0.57695 0.57922 0.86216
 H346 H 0.36933 0.68778 0.82264
 H347 H 0.42887 0.76849 0.69051
 H348 H 0.41612 0.54993 0.77560
 C349 C 0.48192 0.29544 0.30443
 C350 C 0.43791 0.33625 0.23309
 C351 C 0.51298 0.32005 0.17469
 C352 C 0.55682 0.27837 0.24641
 C353 C 0.55092 0.40192 0.19789
 C354 C 0.47709 0.41796 0.25846
 C355 C 0.52118 0.38123 0.33320
 C356 C 0.59627 0.36204 0.27072
 H357 H 0.45407 0.23878 0.33129
 H358 H 0.37106 0.32715 0.21962
 H359 H 0.59079 0.21929 0.24408
 H360 H 0.57847 0.44309 0.14964
 H361 H 0.44476 0.47090 0.27681
 H362 H 0.66375 0.35664 0.26505
 C363 C 0.52848 0.44814 0.77317
 C364 C 0.45191 0.40955 0.81826
 C365 C 0.51023 0.35086 0.86230
 C366 C 0.58489 0.38999 0.81870
 C367 C 0.50230 0.29001 0.79017
 C368 C 0.44190 0.34973 0.74652
 C369 C 0.51449 0.39370 0.69885
 C370 C 0.57681 0.33326 0.74484
 H371 H 0.56663 0.49713 0.75132
 H372 H 0.39996 0.44136 0.85008
 H373 H 0.64343 0.40848 0.84888
 H374 H 0.49348 0.22229 0.79511
 H375 H 0.38474 0.31967 0.72575
 H376 H 0.63761 0.30470 0.73305
 C377 C 0.71424 0.72013 0.56384
 C378 C 0.73554 0.76894 0.48530
 C379 C 0.69019 0.84040 0.51793
 C380 C 0.67149 0.79766 0.59491
 C381 C 0.61490 0.81385 0.48091
 C382 C 0.65651 0.73617 0.44565
 C383 C 0.63011 0.68550 0.52363
 C384 C 0.59129 0.76509 0.55980
 H385 H 0.77193 0.70140 0.59301
 H386 H 0.79901 0.77092 0.45720
 H387 H 0.67732 0.81732 0.65832
 H388 H 0.57470 0.85716 0.44625
 H389 H 0.66702 0.71680 0.38237
 H390 H 0.54027 0.77337 0.60074
 C391 C 0.58214 0.25679 0.46775
 C392 C 0.67092 0.23714 0.44247
 C393 C 0.66983 0.16556 0.50649
 C394 C 0.58257 0.18544 0.53001
 C395 C 0.70243 0.22458 0.57110
 C396 C 0.70161 0.29751 0.50778
 C397 C 0.60989 0.31999 0.53143
 C398 C 0.61216 0.24516 0.59553
 H399 H 0.52892 0.26450 0.43292
 H400 H 0.69203 0.24028 0.37735
 H401 H 0.53697 0.13484 0.54189
 H402 H 0.75360 0.21386 0.61419
 H403 H 0.75696 0.33758 0.50143
 H404 H 0.58639 0.22036 0.65377
 C405 C 0.45100 0.75996 0.47274
 C406 C 0.39237 0.79850 0.41403
 C407 C 0.35106 0.84635 0.48396
 C408 C 0.41039 0.81061 0.54350
 C409 C 0.29008 0.77355 0.49684
 C410 C 0.33502 0.72456 0.42733
 C411 C 0.39614 0.68553 0.49177
 C412 C 0.35111 0.73661 0.55997
 H413 H 0.50301 0.73934 0.43707
 H414 H 0.41500 0.82744 0.35591
 H415 H 0.43903 0.85446 0.58691
 H416 H 0.22182 0.77746 0.50682
 H417 H 0.31359 0.71032 0.36503
 H418 H 0.32709 0.71946 0.62081
 C419 C 0.41900 0.24739 0.56641
 C420 C 0.33414 0.21774 0.60130
 C421 C 0.31650 0.17323 0.52091
 C422 C 0.39962 0.20136 0.48526
 C423 C 0.27706 0.25248 0.48779
 C424 C 0.29671 0.29785 0.56801
 C425 C 0.38396 0.32886 0.53056
 C426 C 0.36106 0.28157 0.45152
 H427 H 0.46375 0.24370 0.61530
 H428 H 0.32375 0.19311 0.66448
 H429 H 0.43827 0.15846 0.44874
 H430 H 0.21635 0.25811 0.45690
 H431 H 0.24047 0.32201 0.59821
 H432 H 0.35725 0.31007 0.39030
   
