data_POSCAR
  _audit_creation_date              2014-09-24
  _audit_creation_method            'ToBaCCo'
  _symmetry_space_group_name_H-M    'P1'
  _symmetry_Int_Tables_number       1
  _symmetry_cell_setting            triclinic
  loop_
  _symmetry_equiv_pos_as_xyz
 x,y,z
_cell_length_a 54.1077
_cell_length_b 26.5351
_cell_length_c 15.0291
_cell_angle_alpha 90.003000
_cell_angle_beta 89.999600
_cell_angle_gamma 89.998600
loop_
  _atom_site_label
  _atom_site_type_symbol
  _atom_site_fract_x
  _atom_site_fract_y
  _atom_site_fract_z
C1 C 0.72917 0.26554 0.54895
 C2 C 0.72939 0.26567 0.45504
 C3 C 0.75050 0.24988 0.40896
 C4 C 0.77148 0.23391 0.45576
 C5 C 0.77129 0.23373 0.54988
 C6 C 0.75013 0.24957 0.59592
 H7 H 0.74998 0.24946 0.66816
 H8 H 0.75056 0.25006 0.33675
 C9 C 0.22939 0.76559 0.54979
 C10 C 0.22930 0.76602 0.45602
 C11 C 0.25024 0.75017 0.40904
 C12 C 0.27128 0.73388 0.45503
 C13 C 0.27139 0.73340 0.54898
 C14 C 0.25041 0.74929 0.59594
 H15 H 0.25040 0.74903 0.66814
 H16 H 0.25016 0.75051 0.33687
 C17 C 0.27038 0.26535 -0.54752
 C18 C 0.27033 0.26535 -0.45376
 C19 C 0.24930 0.24951 -0.40723
 C20 C 0.22823 0.23363 -0.45370
 C21 C 0.22827 0.23369 -0.54784
 C22 C 0.24937 0.24955 -0.59417
 H23 H 0.24948 0.24963 -0.66637
 H24 H 0.24937 0.24957 -0.33503
 C25 C -0.22971 0.76560 -0.54771
 C26 C -0.22965 0.76557 -0.45396
 C27 C -0.25060 0.74941 -0.40729
 C28 C -0.27164 0.73327 -0.45362
 C29 C -0.27171 0.73335 -0.54777
 C30 C -0.25070 0.74954 -0.59423
 H31 H -0.25065 0.74966 -0.66644
 H32 H -0.25047 0.74942 -0.33509
 N33 N 0.02581 0.94686 -0.15675
 N34 N 0.04519 0.94185 -0.20938
 N35 N -0.02624 0.91186 -0.09498
 N36 N -0.04560 0.88198 -0.10404
 N37 N -0.02623 0.94687 -0.15678
 N38 N -0.04556 0.94178 -0.20960
 N39 N 0.02582 0.91186 -0.09494
 N40 N 0.04520 0.88205 -0.10378
 C41 C 0.05693 0.90115 -0.17565
 C42 C -0.05731 0.90105 -0.17602
 N43 N -0.02619 0.94692 0.15840
 N44 N -0.04556 0.94192 0.21107
 N45 N 0.02586 0.91190 0.09667
 N46 N 0.04521 0.88202 0.10579
 N47 N 0.02584 0.94693 0.15843
 N48 N 0.04517 0.94187 0.21129
 N49 N -0.02620 0.91189 0.09663
 N50 N -0.04558 0.88208 0.10553
 Mn51 Mn -0.00019 0.91124 0.00084
 C52 C -0.05730 0.90121 0.17740
 C53 C 0.05692 0.90112 0.17777
 N54 N -0.02620 1.05538 -0.15679
 N55 N -0.04561 1.06029 -0.20929
 N56 N 0.02586 1.09040 -0.09504
 N57 N 0.04525 1.12019 -0.10399
 N58 N 0.02584 1.05536 -0.15680
 N59 N 0.04522 1.06034 -0.20949
 N60 N -0.02620 1.09040 -0.09502
 N61 N -0.04562 1.12012 -0.10375
 Mn62 Mn -0.00019 1.00112 -0.15788
 C63 C -0.05737 1.10096 -0.17553
 C64 C 0.05698 1.10105 -0.17588
 N65 N 0.02581 1.05542 0.15835
 N66 N 0.04520 1.06037 0.21091
 N67 N -0.02625 1.09042 0.09658
 N68 N -0.04563 1.12024 0.10558
 N69 N -0.02623 1.05540 0.15836
 N70 N -0.04559 1.06042 0.21111
 N71 N 0.02581 1.09043 0.09656
 N72 N 0.04522 1.12018 0.10533
 Mn73 Mn -0.00019 1.00117 0.15948
 Mn74 Mn -0.00020 1.09105 0.00077
 Cl75 Cl -0.00019 1.00114 0.00080
 C76 C 0.05696 1.10103 0.17716
 C77 C -0.05735 1.10112 0.17751
 N78 N 0.47420 0.40979 -0.09806
 N79 N 0.45482 0.37998 -0.10695
 N80 N 0.52626 0.44480 -0.15980
 N81 N 0.54567 0.43984 -0.21234
 N82 N 0.52626 0.40979 -0.09800
 N83 N 0.54567 0.38004 -0.10678
 N84 N 0.47421 0.44479 -0.15986
 N85 N 0.45485 0.43978 -0.21254
 C86 C 0.44310 0.39909 -0.17886
 C87 C 0.55743 0.39917 -0.17861
 N88 N 0.52621 0.58833 -0.09807
 N89 N 0.54559 0.61814 -0.10693
 N90 N 0.47416 0.55330 -0.15987
 N91 N 0.45476 0.55825 -0.21245
 N92 N 0.47415 0.58832 -0.09808
 N93 N 0.45474 0.61807 -0.10691
 N94 N 0.52621 0.55331 -0.15985
 N95 N 0.54559 0.55831 -0.21248
 Mn96 Mn 0.50021 0.49905 -0.16095
 C97 C 0.55732 0.59902 -0.17878
 C98 C 0.44299 0.59893 -0.17875
 N99 N 0.52619 0.40980 0.09361
 N100 N 0.54555 0.37994 0.10264
 N101 N 0.47415 0.44488 0.15534
 N102 N 0.45479 0.43991 0.20805
 N103 N 0.47413 0.40984 0.09357
 N104 N 0.45474 0.38005 0.10255
 N105 N 0.52618 0.44483 0.15536
 N106 N 0.54552 0.43980 0.20815
 Mn107 Mn 0.50019 0.40917 -0.00222
 C108 C 0.55725 0.39906 0.17457
 C109 C 0.44302 0.39921 0.17445
 N110 N 0.47420 0.58836 0.09352
 N111 N 0.45486 0.61825 0.10256
 N112 N 0.52625 0.55332 0.15529
 N113 N 0.54561 0.55833 0.20800
 N114 N 0.52626 0.58834 0.09351
 N115 N 0.54564 0.61815 0.10246
 N116 N 0.47421 0.55336 0.15531
 N117 N 0.45488 0.55844 0.20813
 Mn118 Mn 0.50020 0.58897 -0.00229
 Mn119 Mn 0.50020 0.49910 0.15641
 Cl120 Cl 0.50020 0.49907 -0.00227
 C121 C 0.44316 0.59917 0.17452
 C122 C 0.55737 0.59904 0.17437
 C123 C 0.37314 0.32461 0.36496
 C124 C 0.34946 0.35688 0.37453
 C125 C 0.33438 0.31377 0.33306
 C126 C 0.35772 0.28120 0.32413
 C127 C 0.37695 0.34637 0.27122
 C128 C 0.36189 0.30324 0.22981
 C129 C 0.35361 0.37896 0.28031
 C130 C 0.33817 0.33556 0.23941
 C131 C 0.31091 0.29592 0.36990
 C132 C 0.29208 0.28169 0.40449
 C133 C 0.40063 0.36475 0.23678
 C134 C 0.42004 0.38022 0.20842
 H135 H 0.38773 0.32035 0.41636
 H136 H 0.34406 0.37867 0.43454
 H137 H 0.35913 0.24079 0.34253
 H138 H 0.36729 0.28135 0.16994
 H139 H 0.35220 0.41940 0.26207
 H140 H 0.32354 0.33985 0.18820
 C141 C -0.12720 0.82551 0.36591
 C142 C -0.15090 0.85768 0.37607
 C143 C -0.16592 0.81488 0.33337
 C144 C -0.14257 0.78241 0.32385
 C145 C -0.12335 0.84803 0.27278
 C146 C -0.13836 0.80522 0.23013
 C147 C -0.14670 0.88052 0.28245
 C148 C -0.16209 0.83742 0.24032
 C149 C -0.18935 0.79672 0.36971
 C150 C -0.20813 0.78223 0.40418
 C151 C -0.09968 0.86663 0.23902
 C152 C -0.08027 0.88222 0.21109
 H153 H -0.11264 0.82088 0.41730
 H154 H -0.15636 0.87896 0.43657
 H155 H -0.14117 0.74186 0.34125
 H156 H -0.13290 0.78383 0.16977
 H157 H -0.14811 0.92110 0.26521
 H158 H -0.17670 0.84208 0.18912
 C159 C 0.64677 0.61999 0.28017
 C160 C 0.66209 0.66370 0.23969
 C161 C 0.66578 0.68529 0.33352
 C162 C 0.65083 0.64188 0.37459
 C163 C 0.62333 0.65229 0.27128
 C164 C 0.62705 0.67387 0.36520
 C165 C 0.63827 0.69573 0.23027
 C166 C 0.64234 0.71758 0.32479
 C167 C 0.68915 0.70335 0.37086
 C168 C 0.70786 0.71772 0.40618
 C169 C 0.59970 0.63371 0.23674
 C170 C 0.58033 0.61811 0.20835
 H171 H 0.64832 0.57962 0.26161
 H172 H 0.67675 0.65975 0.18850
 H173 H 0.65628 0.62001 0.43443
 H174 H 0.61244 0.67780 0.41660
 H175 H 0.63281 0.71770 0.17057
 H176 H 0.64080 0.75792 0.34352
 C177 C 0.14637 1.12101 0.28223
 C178 C 0.16190 1.16403 0.24051
 C179 C 0.16570 1.18636 0.33373
 C180 C 0.15054 1.14363 0.37602
 C181 C 0.12310 1.15374 0.27252
 C182 C 0.12693 1.17605 0.36582
 C183 C 0.13824 1.19649 0.23028
 C184 C 0.14243 1.21907 0.32418
 C185 C 0.18912 1.20416 0.37070
 C186 C 0.20786 1.21832 0.40597
 C187 C 0.09940 1.13537 0.23861
 C188 C 0.07996 1.11993 0.21070
 H189 H 0.14769 1.08045 0.26476
 H190 H 0.17654 1.15933 0.18944
 H191 H 0.15591 1.12218 0.43644
 H192 H 0.11234 1.18073 0.41711
 H193 H 0.13288 1.21804 0.16999
 H194 H 0.14111 1.25961 0.34182
 C195 C 0.63880 0.30368 -0.23117
 C196 C 0.64300 0.28060 -0.32471
 C197 C 0.66627 0.31330 -0.33485
 C198 C 0.66244 0.33612 -0.24198
 C199 C 0.62362 0.34618 -0.27406
 C200 C 0.64689 0.37889 -0.28436
 C201 C 0.62747 0.32338 -0.36702
 C202 C 0.65107 0.35578 -0.37779
 C203 C 0.68976 0.29533 -0.37131
 C204 C 0.70860 0.28104 -0.40589
 C205 C 0.59990 0.36469 -0.24020
 C206 C 0.58046 0.38021 -0.21225
 H207 H 0.63347 0.28242 -0.17053
 H208 H 0.64169 0.23997 -0.34166
 H209 H 0.67708 0.34113 -0.19097
 H210 H 0.64821 0.41954 -0.26757
 H211 H 0.61288 0.31840 -0.41822
 H212 H 0.65641 0.37693 -0.43857
 C213 C 0.13803 0.80515 -0.22767
 C214 C 0.14226 0.78214 -0.32123
 C215 C 0.16560 0.81461 -0.33094
 C216 C 0.16176 0.83736 -0.23805
 C217 C 0.12301 0.84785 -0.27063
 C218 C 0.14635 0.88034 -0.28049
 C219 C 0.12688 0.82512 -0.36360
 C220 C 0.15057 0.85729 -0.37395
 C221 C 0.18904 0.79645 -0.36723
 C222 C 0.20782 0.78203 -0.40179
 C223 C 0.09933 0.86652 -0.23705
 C224 C 0.07991 0.88214 -0.20924
 H225 H 0.13257 0.78389 -0.16717
 H226 H 0.14087 0.74154 -0.33835
 H227 H 0.17636 0.84215 -0.18687
 H228 H 0.14775 0.92096 -0.26354
 H229 H 0.11232 0.82036 -0.41498
 H230 H 0.15603 0.87845 -0.43459
 C231 C 0.36661 0.64038 -0.36739
 C232 C 0.34107 0.62891 -0.32549
 C233 C 0.33415 0.68481 -0.33491
 C234 C 0.35934 0.69652 -0.37746
 C235 C 0.37681 0.65195 -0.27419
 C236 C 0.36990 0.70785 -0.28375
 C237 C 0.35162 0.64019 -0.23172
 C238 C 0.34434 0.69642 -0.24178
 C239 C 0.31068 0.70294 -0.37133
 C240 C 0.29189 0.71749 -0.40588
 C241 C 0.40053 0.63343 -0.24037
 C242 C 0.41997 0.61789 -0.21242
 H243 H 0.37600 0.61725 -0.41884
 H244 H 0.32894 0.59666 -0.34300
 H245 H 0.36221 0.71986 -0.43791
 H246 H 0.38204 0.74011 -0.26639
 H247 H 0.34871 0.61677 -0.17142
 H248 H 0.33492 0.71961 -0.19053
 C249 C -0.13369 1.14198 -0.36378
 C250 C -0.15921 1.13022 -0.32212
 C251 C -0.16624 1.18606 -0.33142
 C252 C -0.14106 1.19806 -0.37373
 C253 C -0.12358 1.15358 -0.27048
 C254 C -0.13060 1.20942 -0.27991
 C255 C -0.14876 1.14153 -0.22822
 C256 C -0.15616 1.19769 -0.23818
 C257 C -0.18967 1.20391 -0.36832
 C258 C -0.20837 1.21818 -0.40368
 C259 C -0.09985 1.13524 -0.23674
 C260 C -0.08040 1.11982 -0.20896
 H261 H -0.12420 1.11900 -0.41519
 H262 H -0.17127 1.09789 -0.33983
 H263 H -0.13822 1.22148 -0.43409
 H264 H -0.11854 1.24176 -0.26234
 H265 H -0.15164 1.11801 -0.16802
 H266 H -0.16569 1.22075 -0.18698
 C267 C 0.64860 0.64013 -0.23226
 C268 C 0.65901 0.62909 -0.32633
 C269 C 0.66595 0.68498 -0.33531
 C270 C 0.65591 0.69636 -0.24191
 C271 C 0.62338 0.65211 -0.27421
 C272 C 0.63030 0.70802 -0.28334
 C273 C 0.63343 0.64078 -0.36769
 C274 C 0.64072 0.69692 -0.37732
 C275 C 0.68932 0.70306 -0.37220
 C276 C 0.70801 0.71752 -0.40744
 C277 C 0.59971 0.63358 -0.24034
 C278 C 0.58029 0.61801 -0.21241
 H279 H 0.65156 0.61650 -0.17225
 H280 H 0.67110 0.59687 -0.34437
 H281 H 0.66544 0.71936 -0.19064
 H282 H 0.61821 0.74025 -0.26544
 H283 H 0.62394 0.61784 -0.41916
 H284 H 0.63780 0.72046 -0.43750
 C285 C 0.13020 1.20964 -0.28141
 C286 C 0.15588 1.19736 -0.24106
 C287 C 0.16562 1.18618 -0.33496
 C288 C 0.14032 1.19873 -0.37591
 C289 C 0.12305 1.15382 -0.27268
 C290 C 0.13281 1.14268 -0.36665
 C291 C 0.14834 1.14123 -0.23180
 C292 C 0.15845 1.13037 -0.32636
 C293 C 0.18903 1.20396 -0.37231
 C294 C 0.20777 1.21816 -0.40764
 C295 C 0.09937 1.13550 -0.23814
 C296 C 0.07996 1.12004 -0.20979
 H297 H 0.11831 1.24203 -0.26271
 H298 H 0.16563 1.21999 -0.18982
 H299 H 0.13733 1.22253 -0.43570
 H300 H 0.12309 1.12011 -0.41809
 H301 H 0.15137 1.11732 -0.17218
 H302 H 0.17034 1.09799 -0.34521
 C303 C 0.35180 0.35844 -0.23182
 C304 C 0.34132 0.36968 -0.32568
 C305 C 0.33427 0.31385 -0.33482
 C306 C 0.34439 0.30228 -0.24161
 C307 C 0.37696 0.34633 -0.27417
 C308 C 0.36993 0.29049 -0.28345
 C309 C 0.36683 0.35786 -0.36746
 C310 C 0.35943 0.30178 -0.37725
 C311 C 0.31078 0.29600 -0.37118
 C312 C 0.29196 0.28172 -0.40565
 C313 C 0.40068 0.36468 -0.24041
 C314 C 0.42012 0.38015 -0.21249
 H315 H 0.34895 0.38200 -0.17166
 H316 H 0.32926 0.40202 -0.34341
 H317 H 0.33488 0.27927 -0.19030
 H318 H 0.38199 0.25814 -0.26586
 H319 H 0.37630 0.38080 -0.41896
 H320 H 0.36224 0.27831 -0.43757
 C321 C -0.14855 0.86000 -0.23174
 C322 C -0.15877 0.87071 -0.32617
 C323 C -0.16579 0.81482 -0.33465
 C324 C -0.15592 0.80378 -0.24087
 C325 C -0.12326 0.84770 -0.27291
 C326 C -0.13026 0.79180 -0.28153
 C327 C -0.13314 0.85871 -0.36677
 C328 C -0.14050 0.80256 -0.37591
 C329 C -0.18922 0.79672 -0.37144
 C330 C -0.20801 0.78223 -0.40598
 C331 C -0.09961 0.86628 -0.23849
 C332 C -0.08024 0.88191 -0.21010
 H333 H -0.15159 0.88388 -0.17208
 H334 H -0.17077 0.90295 -0.34490
 H335 H -0.16556 0.78104 -0.18950
 H336 H -0.11825 0.75955 -0.26295
 H337 H -0.12353 0.88138 -0.41833
 H338 H -0.13749 0.77877 -0.43573
 C339 C 0.35382 0.62017 0.27954
 C340 C 0.34971 0.64169 0.37418
 C341 C 0.33485 0.68533 0.33347
 C342 C 0.33859 0.66410 0.23941
 C343 C 0.37729 0.65242 0.27134
 C344 C 0.36245 0.69608 0.23068
 C345 C 0.37353 0.67362 0.36547
 C346 C 0.35832 0.71756 0.32542
 C347 C 0.31150 0.70330 0.37073
 C348 C 0.29279 0.71757 0.40597
 C349 C 0.40089 0.63387 0.23687
 C350 C 0.42025 0.61827 0.20851
 H351 H 0.35226 0.57988 0.26044
 H352 H 0.34417 0.61962 0.43369
 H353 H 0.32396 0.66043 0.18804
 H354 H 0.36799 0.71825 0.17131
 H355 H 0.38811 0.67727 0.41705
 H356 H 0.35988 0.75782 0.34469
 C357 C -0.14672 1.12156 0.28342
 C358 C -0.15081 1.14317 0.37802
 C359 C -0.16583 1.18660 0.33732
 C360 C -0.16211 1.16528 0.24330
 C361 C -0.12333 1.15403 0.27476
 C362 C -0.13834 1.19748 0.23412
 C363 C -0.12707 1.17534 0.36887
 C364 C -0.14244 1.21906 0.32883
 C365 C -0.18923 1.20439 0.37474
 C366 C -0.20800 1.21853 0.40997
 C367 C -0.09969 1.13565 0.24004
 C368 C -0.08031 1.12016 0.21155
 H369 H -0.14821 1.08123 0.26453
 H370 H -0.15622 1.12111 0.43769
 H371 H -0.17677 1.16136 0.19210
 H372 H -0.13292 1.21965 0.17459
 H373 H -0.11246 1.17923 0.42028
 H374 H -0.14096 1.25936 0.34789
 C375 C 0.64852 0.35925 0.23079
 C376 C 0.65853 0.36981 0.32556
 C377 C 0.66577 0.31402 0.33352
 C378 C 0.65612 0.30313 0.23941
 C379 C 0.62323 0.34632 0.27131
 C380 C 0.63045 0.29052 0.27940
 C381 C 0.63289 0.35716 0.36549
 C382 C 0.64048 0.30113 0.37411
 C383 C 0.68916 0.29626 0.37080
 C384 C 0.70788 0.28204 0.40602
 C385 C 0.59957 0.36460 0.23683
 C386 C 0.58019 0.38006 0.20849
 H387 H 0.65153 0.38341 0.17148
 H388 H 0.67036 0.40218 0.34493
 H389 H 0.66596 0.28076 0.18801
 H390 H 0.61861 0.25814 0.26018
 H391 H 0.62309 0.37947 0.41709
 H392 H 0.63750 0.27707 0.43359
 C393 C 0.14816 0.86064 0.23431
 C394 C 0.15827 0.87116 0.32898
 C395 C 0.16539 0.81530 0.33704
 C396 C 0.15565 0.80446 0.24301
 C397 C 0.12286 0.84799 0.27502
 C398 C 0.12997 0.79213 0.28321
 C399 C 0.13261 0.85881 0.36912
 C400 C 0.14008 0.80270 0.37783
 C401 C 0.18882 0.79727 0.37387
 C402 C 0.20763 0.78278 0.40833
 C403 C 0.09921 0.86646 0.24043
 C404 C 0.07984 0.88202 0.21192
 H405 H 0.15122 0.88472 0.17492
 H406 H 0.17018 0.90345 0.34818
 H407 H 0.16539 0.78196 0.19157
 H408 H 0.11805 0.75983 0.26416
 H409 H 0.12290 0.88124 0.42075
 H410 H 0.13707 0.77871 0.43739
   
