data_POSCAR
  _audit_creation_date              2014-09-24
  _audit_creation_method            'ToBaCCo'
  _symmetry_space_group_name_H-M    'P1'
  _symmetry_Int_Tables_number       1
  _symmetry_cell_setting            triclinic
  loop_
  _symmetry_equiv_pos_as_xyz
 x,y,z
_cell_length_a 19.9001
_cell_length_b 20.0169
_cell_length_c 32.5354
_cell_angle_alpha 90.094900
_cell_angle_beta 89.889100
_cell_angle_gamma 87.747400
loop_
  _atom_site_label
  _atom_site_type_symbol
  _atom_site_fract_x
  _atom_site_fract_y
  _atom_site_fract_z
O1 O -0.05855 0.56679 0.96268
 O2 O -0.06279 0.43238 1.03929
 O3 O -0.06008 0.56145 1.04196
 O4 O -0.06155 0.43589 0.95908
 O5 O 0.04941 0.42914 0.95989
 O6 O 0.05102 0.55583 1.04177
 O7 O 0.04746 0.42625 1.04028
 O8 O 0.05251 0.55959 0.96250
 Cu9 Cu -0.07188 0.49943 1.00043
 Cu10 Cu 0.06125 0.49155 1.00098
 C11 C -0.00239 0.58742 0.95047
 C12 C -0.00859 0.40731 1.05406
 C13 C -0.00425 0.58013 1.05589
 C14 C -0.00620 0.41119 0.94532
 O15 O 0.45166 -0.05473 0.45745
 O16 O 0.57439 -0.05021 0.54218
 O17 O 0.44317 -0.05559 0.53686
 O18 O 0.58081 -0.05012 0.46176
 O19 O 0.57304 0.06026 0.46215
 O20 O 0.43499 0.05477 0.53773
 O21 O 0.56581 0.05942 0.54240
 O22 O 0.44323 0.05547 0.45839
 Cu23 Cu 0.51374 -0.06376 0.49984
 Cu24 Cu 0.50378 0.06854 0.50043
 C25 C 0.42689 -0.00006 0.44322
 C26 C 0.59096 0.00552 0.55722
 C27 C 0.41434 -0.00149 0.54918
 C28 C 0.59912 0.00581 0.44831
 C29 C 0.14982 -0.00344 0.26362
 H30 H 0.15334 -0.00411 0.23044
 C31 C 0.20828 -0.00257 0.28725
 H32 H 0.25693 -0.00374 0.27223
 C33 C 0.08228 -0.00104 0.32375
 H34 H 0.03314 -0.00007 0.33792
 C35 C 0.13937 0.00086 0.34849
 H36 H 0.13385 0.00300 0.38160
 N37 N 0.08838 -0.00346 0.28210
 C38 C -0.05131 -0.09959 0.19967
 H39 H -0.09545 -0.06719 0.20417
 C40 C -0.05561 -0.15703 0.17557
 H41 H -0.10262 -0.16792 0.16074
 C42 C 0.06327 -0.12623 0.21416
 H43 H 0.10934 -0.11495 0.22957
 C44 C 0.06119 -0.18414 0.19032
 H45 H 0.10585 -0.21647 0.18717
 Zn46 Zn 0.00984 -0.00425 0.24905
 N47 N 0.00787 -0.08446 0.21773
 C48 C -0.03587 0.07425 0.18162
 N49 N 0.00790 0.07125 0.21372
 C50 C 0.04844 0.12283 0.22200
 C51 C 0.04564 0.18025 0.19764
 C52 C -0.03998 0.13052 0.15637
 C53 C -0.08244 -0.05530 0.30478
 C54 C -0.13893 -0.05437 0.33028
 C55 C -0.16251 0.06082 0.31105
 C56 C -0.10568 0.05764 0.28575
 N57 N -0.06706 0.00015 0.28314
 H58 H -0.06815 0.03336 0.17567
 H59 H 0.08201 0.12017 0.24805
 H60 H 0.07751 0.22132 0.20479
 H61 H -0.07502 0.13236 0.13092
 H62 H -0.05068 -0.10023 0.30215
 H63 H -0.15089 -0.09872 0.34741
 H64 H -0.19306 0.10670 0.31301
 H65 H -0.09222 0.10116 0.26840
 C66 C 0.00125 -0.19981 0.17069
 C67 C 0.20319 0.00056 0.33020
 C68 C -0.17973 0.00412 0.33331
 C69 C 0.00036 0.18467 0.16475
 C70 C -0.01698 0.13175 0.76813
 H71 H -0.03102 0.13415 0.73607
 C72 C -0.01920 0.19007 0.79183
 H73 H -0.03420 0.23742 0.77787
 C74 C 0.01682 0.06717 0.82601
 H75 H 0.02996 0.01936 0.83957
 C76 C 0.01550 0.12424 0.85076
 H77 H 0.02823 0.11993 0.88302
 N78 N 0.00200 0.07193 0.78526
 C79 C 0.12131 -0.06194 0.71153
 H80 H 0.10848 -0.10723 0.72720
 C81 C 0.17628 -0.06306 0.68474
 H82 H 0.20607 -0.10896 0.68028
 C83 C 0.09707 0.05231 0.69647
 H84 H 0.06553 0.09688 0.70059
 C85 C 0.15151 0.05335 0.66941
 H86 H 0.16173 0.09879 0.65288
 Zn87 Zn 0.00522 -0.00519 0.75093
 N88 N 0.08282 -0.00481 0.71683
 C89 C -0.06594 -0.01129 0.67603
 N90 N -0.07230 -0.00207 0.71732
 C91 C -0.13351 0.01005 0.73510
 C92 C -0.19162 0.01308 0.71107
 C93 C -0.12269 -0.00828 0.65085
 C94 C 0.06177 -0.09889 0.80727
 C95 C 0.06260 -0.15388 0.83365
 C96 C -0.04832 -0.17933 0.80957
 C97 C -0.04695 -0.12404 0.78352
 N98 N 0.00691 -0.08413 0.78352
 H99 H -0.01686 -0.02121 0.66257
 H100 H -0.13706 0.01716 0.76802
 H101 H -0.24020 0.02226 0.72550
 H102 H -0.11712 -0.01555 0.61800
 H103 H 0.10436 -0.06695 0.80634
 H104 H 0.10560 -0.16410 0.85333
 H105 H -0.09223 -0.20960 0.81034
 H106 H -0.08962 -0.11239 0.76402
 C107 C 0.19105 -0.00510 0.66296
 C108 C -0.00160 0.18662 0.83347
 C109 C 0.00649 -0.19379 0.83540
 C110 C -0.18626 0.00466 0.66836
 C111 C -0.04337 -0.36835 0.12385
 C112 C -0.00319 -0.36733 0.08777
 C113 C 0.03887 -0.31394 0.08114
 C114 C 0.03997 -0.26078 0.10863
 C115 C -0.00090 -0.25924 0.14370
 C116 C -0.04240 -0.31366 0.15199
 C117 C -0.08268 -0.42345 0.13338
 C118 C -0.12128 -0.42408 0.16917
 C119 C -0.12081 -0.37044 0.19641
 C120 C -0.08147 -0.31588 0.18820
 H121 H -0.08293 -0.46704 0.11385
 H122 H -0.15114 -0.46676 0.17600
 H123 H -0.15044 -0.37149 0.22432
 H124 H -0.08127 -0.27612 0.21074
 H125 H 0.07005 -0.31257 0.05382
 H126 H 0.07219 -0.21969 0.10208
 C127 C -0.06729 0.34305 0.10955
 C128 C -0.00961 0.35717 0.08483
 C129 C 0.04994 0.31790 0.09082
 C130 C 0.05215 0.26338 0.11715
 C131 C -0.00470 0.24574 0.13909
 C132 C -0.06447 0.28635 0.13639
 C133 C -0.12639 0.38517 0.11054
 C134 C -0.18121 0.37023 0.13510
 C135 C -0.17860 0.31418 0.16012
 C136 C -0.12073 0.27300 0.16124
 H137 H -0.13140 0.43154 0.09407
 H138 H -0.22569 0.40319 0.13526
 H139 H -0.22110 0.30335 0.17947
 H140 H -0.12016 0.23155 0.18251
 H141 H 0.09527 0.32733 0.07361
 H142 H 0.09850 0.23338 0.11958
 C143 C 0.29906 -0.04264 0.56749
 C144 C 0.35547 -0.00400 0.57677
 C145 C 0.35536 0.03437 0.61279
 C146 C 0.30171 0.03328 0.64029
 C147 C 0.24640 -0.00594 0.63251
 C148 C 0.24408 -0.04357 0.59561
 C149 C 0.29474 -0.07831 0.53013
 C150 C 0.23836 -0.11471 0.52099
 C151 C 0.18490 -0.11582 0.54853
 C152 C 0.18729 -0.08039 0.58538
 H153 H 0.33405 -0.07764 0.50728
 H154 H 0.23587 -0.14162 0.49218
 H155 H 0.14099 -0.14369 0.54110
 H156 H 0.14383 -0.08138 0.60533
 H157 H 0.39770 0.06473 0.61999
 H158 H 0.30355 0.06293 0.66814
 C159 C -0.34808 0.06513 0.61329
 C160 C -0.36044 0.00706 0.58899
 C161 C -0.31872 -0.05060 0.59496
 C162 C -0.26322 -0.05009 0.62080
 C163 C -0.24696 0.00776 0.64200
 C164 C -0.28917 0.06611 0.63836
 C165 C -0.39363 0.12135 0.61497
 C166 C -0.37817 0.17873 0.63677
 C167 C -0.31785 0.18141 0.65799
 C168 C -0.27384 0.12567 0.65910
 H169 H -0.44282 0.12142 0.60116
 H170 H -0.41341 0.22132 0.63733
 H171 H -0.30577 0.22642 0.67444
 H172 H -0.22790 0.12979 0.67645
 H173 H -0.32689 -0.09626 0.57807
 H174 H -0.23186 -0.09531 0.62381
 C175 C -0.03613 -0.29319 0.93157
 C176 C -0.00092 -0.35460 0.92258
 C177 C 0.03740 -0.36065 0.88650
 C178 C 0.03940 -0.30799 0.85863
 C179 C 0.00323 -0.24783 0.86609
 C180 C -0.03444 -0.23960 0.90288
 C181 C -0.07108 -0.28287 0.96907
 C182 C -0.10497 -0.22209 0.97748
 C183 C -0.10432 -0.17025 0.94908
 C184 C -0.06921 -0.17853 0.91219
 H185 H -0.07174 -0.32085 0.99258
 H186 H -0.13150 -0.21502 1.00634
 H187 H -0.13053 -0.12310 0.95586
 H188 H -0.06898 -0.13648 0.89135
 H189 H 0.06522 -0.40694 0.87956
 H190 H 0.06892 -0.31438 0.83078
 C191 C 0.03852 0.35729 0.87929
 C192 C -0.00652 0.35881 0.91322
 C193 C -0.05038 0.30646 0.91852
 C194 C -0.04832 0.25170 0.89212
 C195 C -0.00256 0.24755 0.85940
 C196 C 0.04142 0.30058 0.85262
 C197 C 0.08013 0.41121 0.87085
 C198 C 0.12566 0.40800 0.83822
 C199 C 0.13065 0.35137 0.81339
 C200 C 0.08910 0.29805 0.82039
 H201 H 0.07730 0.45669 0.88883
 H202 H 0.15735 0.44963 0.83224
 H203 H 0.16662 0.34890 0.78838
 H204 H 0.09496 0.25501 0.80040
 H205 H -0.08516 0.30688 0.94421
 H206 H -0.08230 0.21164 0.89755
 C207 C -0.35143 -0.03182 0.37982
 C208 C -0.34847 0.00724 0.41620
 C209 C -0.29348 0.04747 0.42270
 C210 C -0.23998 0.04681 0.39503
 C211 C -0.23996 0.00598 0.36005
 C212 C -0.29648 -0.03273 0.35164
 C213 C -0.40860 -0.06846 0.37014
 C214 C -0.41082 -0.10623 0.33416
 C215 C -0.35679 -0.10774 0.30693
 C216 C -0.30024 -0.07113 0.31532
 H217 H -0.45262 -0.06735 0.38967
 H218 H -0.45499 -0.13400 0.32718
 H219 H -0.35903 -0.13681 0.27892
 H220 H -0.26013 -0.07246 0.29281
 H221 H -0.29098 0.07812 0.45010
 H222 H -0.19733 0.07714 0.40151
 C223 C 0.36953 0.04956 0.37953
 C224 C 0.37604 -0.00111 0.41000
 C225 C 0.32919 -0.05152 0.41114
 C226 C 0.27429 -0.05020 0.38477
 C227 C 0.26416 0.00156 0.35629
 C228 C 0.31189 0.05224 0.35346
 C229 C 0.41936 0.09713 0.37385
 C230 C 0.41039 0.14867 0.34539
 C231 C 0.35202 0.15388 0.32200
 C232 C 0.30311 0.10630 0.32587
 H233 H 0.46627 0.09437 0.39053
 H234 H 0.44886 0.18493 0.34158
 H235 H 0.34488 0.19463 0.30042
 H236 H 0.25850 0.11265 0.30718
 H237 H 0.33377 -0.09136 0.43354
 H238 H 0.23868 -0.08963 0.38701
   
