data_POSCAR
  _audit_creation_date              2014-09-24
  _audit_creation_method            'ToBaCCo'
  _symmetry_space_group_name_H-M    'P1'
  _symmetry_Int_Tables_number       1
  _symmetry_cell_setting            triclinic
  loop_
  _symmetry_equiv_pos_as_xyz
 x,y,z
_cell_length_a 30.6960
_cell_length_b 30.9640
_cell_length_c 29.8454
_cell_angle_alpha 90.086300
_cell_angle_beta 90.078800
_cell_angle_gamma 89.322800
loop_
  _atom_site_label
  _atom_site_type_symbol
  _atom_site_fract_x
  _atom_site_fract_y
  _atom_site_fract_z
Si1 Si 0.25157 0.50336 0.99832
 Si2 Si 0.74558 0.49949 -0.00040
 Si3 Si -0.00164 0.24583 0.49857
 Si4 Si 1.00458 0.75237 0.49841
 Si5 Si 0.50308 -0.00153 0.25065
 Si6 Si 0.50160 0.00433 0.75239
 C7 C 0.31679 0.03148 0.45026
 H8 H 0.31692 0.05512 0.47698
 C9 C 0.34876 0.03256 0.41716
 H10 H 0.37309 0.05760 0.41823
 C11 C 0.28596 -0.03093 0.41756
 H12 H 0.26243 -0.05653 0.41869
 C13 C 0.31724 -0.03085 0.38352
 H14 H 0.31729 -0.05630 0.35859
 N15 N 0.28642 -0.00010 0.45015
 C16 C 0.17946 0.04580 0.53405
 H17 H 0.17755 0.01882 0.55692
 C18 C 0.14775 0.07840 0.53531
 H19 H 0.12158 0.07658 0.55950
 C20 C 0.21502 0.08011 0.47353
 H21 H 0.24057 0.08003 0.44870
 C22 C 0.18427 0.11382 0.47408
 H23 H 0.18642 0.13954 0.44966
 Zn24 Zn 0.24933 -0.00208 0.50084
 N25 N 0.21194 0.04691 0.50318
 C26 C 0.28249 0.02411 0.58631
 N27 N 0.28612 -0.00433 0.55166
 C28 C 0.31904 -0.03404 0.55000
 C29 C 0.35098 -0.03499 0.58324
 C30 C 0.31344 0.02377 0.62081
 C31 C 0.18554 -0.05581 0.46420
 C32 C 0.15602 -0.08974 0.46339
 C33 C 0.18330 -0.11287 0.53559
 C34 C 0.21302 -0.07906 0.53456
 N35 N 0.21346 -0.05128 0.49927
 H36 H 0.25638 0.04781 0.58666
 H37 H 0.32125 -0.05605 0.52189
 H38 H 0.37772 -0.05801 0.58078
 H39 H 0.31101 0.04727 0.64762
 H40 H 0.18577 -0.03255 0.43719
 H41 H 0.13361 -0.09272 0.43553
 H42 H 0.18259 -0.13430 0.56423
 H43 H 0.23476 -0.07426 0.56259
 C44 C 0.14969 0.11268 0.50472
 C45 C 0.34966 0.00072 0.38364
 C46 C 0.15438 -0.11835 0.49970
 C47 C 0.34868 -0.00544 0.61882
 C48 C 0.68373 0.02971 0.54965
 H49 H 0.68084 0.05115 0.52118
 C50 C 0.65264 0.03147 0.58364
 H51 H 0.62565 0.05403 0.58031
 C52 C 0.72099 -0.02762 0.58618
 H53 H 0.74705 -0.05131 0.58665
 C54 C 0.69108 -0.02637 0.62149
 H55 H 0.69548 -0.04849 0.64919
 N56 N 0.71701 0.00045 0.55135
 C57 C 0.82111 0.05022 0.46795
 H58 H 0.82405 0.02392 0.44420
 C59 C 0.85020 0.08441 0.46631
 H60 H 0.87579 0.08378 0.44139
 C61 C 0.78546 0.08128 0.53079
 H62 H 0.76052 0.07955 0.55622
 C63 C 0.81382 0.11630 0.53025
 H64 H 0.80995 0.14163 0.55501
 Zn65 Zn 0.75459 -0.00055 0.50098
 N66 N 0.78965 0.04917 0.49989
 C67 C 0.71910 0.02997 0.41865
 N68 N 0.71869 -0.00231 0.44950
 C69 C 0.69030 -0.03553 0.44616
 C70 C 0.66055 -0.03708 0.41082
 C71 C 0.68975 0.02980 0.38285
 C72 C 0.82088 -0.05352 0.53683
 C73 C 0.85164 -0.08709 0.53717
 C74 C 0.82563 -0.10942 0.46437
 C75 C 0.79472 -0.07603 0.46585
 N76 N 0.79284 -0.04893 0.50178
 H77 H 0.74142 0.05646 0.42231
 H78 H 0.69024 -0.06039 0.47159
 H79 H 0.63737 -0.06315 0.40948
 H80 H 0.69018 0.05597 0.35884
 H81 H 0.81980 -0.03060 0.56421
 H82 H 0.87400 -0.09024 0.56511
 H83 H 0.82727 -0.13039 0.43532
 H84 H 0.77318 -0.07104 0.43765
 C85 C 0.84698 0.11803 0.49785
 C86 C 0.65598 0.00326 0.62044
 C87 C 0.85444 -0.11516 0.50037
 C88 C 0.65966 -0.00383 0.37889
 C89 C 0.46282 0.19151 1.06295
 H90 H 0.43497 0.19504 1.04094
 C91 C 0.46226 0.16098 1.09734
 H92 H 0.43385 0.14098 1.10139
 C93 C 0.53488 0.21104 1.08201
 H94 H 0.56393 0.22900 1.07480
 C95 C 0.53566 0.18110 1.11686
 H96 H 0.56485 0.17772 1.13701
 N97 N 0.49864 0.21607 1.05614
 C98 C 0.44672 0.31818 0.96955
 H99 H 0.47030 0.31593 0.94272
 C100 C 0.41344 0.34914 0.96758
 H101 H 0.41156 0.37068 0.93907
 C102 C 0.42203 0.29418 1.04039
 H103 H 0.42616 0.27341 1.06917
 C104 C 0.38848 0.32512 1.04004
 H105 H 0.36643 0.32735 1.06826
 Zn106 Zn 0.49886 0.25328 1.00571
 N107 N 0.45018 0.29120 1.00532
 C108 C 0.46692 0.21806 0.92331
 N109 N 0.49928 0.21725 0.95450
 C110 C 0.53260 0.18810 0.95197
 C111 C 0.53404 0.15773 0.91743
 C112 C 0.46742 0.18864 0.88774
 C113 C 0.55885 0.30945 1.04474
 C114 C 0.59349 0.33808 1.04602
 C115 C 0.60349 0.32709 0.96660
 C116 C 0.57001 0.29690 0.96740
 N117 N 0.54843 0.28879 1.00611
 H118 H 0.44021 0.24087 0.92634
 H119 H 0.55752 0.18777 0.97764
 H120 H 0.56005 0.13385 0.91734
 H121 H 0.44153 0.19010 0.86312
 H122 H 0.54015 0.30362 1.07478
 H123 H 0.60188 0.35208 1.07801
 H124 H 0.61810 0.33439 0.93464
 H125 H 0.56002 0.28132 0.93667
 C126 C 0.38398 0.35306 1.00326
 C127 C 0.49921 0.15522 1.12462
 C128 C 0.61595 0.34840 1.00637
 C129 C 0.50104 0.15750 0.88469
 C130 C 0.46290 0.81882 -0.04965
 H131 H 0.44078 0.82005 -0.02147
 C132 C 0.46135 0.85126 -0.08203
 H133 H 0.43771 0.87733 -0.07886
 C134 C 0.52208 0.78448 -0.08686
 H135 H 0.54660 0.75921 -0.08786
 C136 C 0.52114 0.81591 -0.12049
 H137 H 0.54490 0.81452 -0.14725
 N138 N 0.49338 0.78670 -0.05216
 C139 C 0.44541 0.68415 0.03442
 H140 H 0.47012 0.68399 0.06030
 C141 C 0.41177 0.65421 0.03580
 H142 H 0.41066 0.63105 0.06292
 C143 C 0.41812 0.71313 -0.03368
 H144 H 0.42123 0.73565 -0.06108
 C145 C 0.38438 0.68321 -0.03403
 H146 H 0.36132 0.68321 -0.06153
 Zn147 Zn 0.49705 0.74912 -0.00218
 N148 N 0.44790 0.71289 0.00013
 C149 C 0.46988 0.78374 0.08259
 N150 N 0.50014 0.78483 0.04929
 C151 C 0.53205 0.81487 0.04915
 C152 C 0.53390 0.84604 0.08281
 C153 C 0.47075 0.81423 0.11724
 C154 C 0.54694 0.68304 -0.04004
 C155 C 0.58039 0.65233 -0.04316
 C156 C 0.61356 0.68339 0.02270
 C157 C 0.57935 0.71358 0.02460
 N158 N 0.54679 0.71265 -0.00638
 H159 H 0.44409 0.76035 0.08157
 H160 H 0.55530 0.81539 0.02195
 H161 H 0.55906 0.87024 0.08163
 H162 H 0.44567 0.81391 0.14273
 H163 H 0.52039 0.68272 -0.06391
 H164 H 0.57962 0.62874 -0.06995
 H165 H 0.63842 0.68361 0.04848
 H166 H 0.57819 0.73679 0.05164
 C167 C 0.38112 0.65316 0.00093
 C168 C 0.49111 0.85031 -0.11764
 C169 C 0.61389 0.65174 -0.01105
 C170 C 0.50251 0.84644 0.11698
 C171 C 1.05039 0.46555 0.17976
 H172 H 1.02858 0.43843 0.18164
 C173 C 1.08432 0.46520 0.14859
 H174 H 1.08850 0.43763 0.12658
 C175 C 1.07004 0.53540 0.20445
 H176 H 1.06367 0.56337 0.22512
 C177 C 1.10407 0.53656 0.17357
 H178 H 1.12427 0.56495 0.17186
 N179 N 1.04450 0.49990 0.20768
 C180 C 0.96898 0.44962 0.31975
 H181 H 0.94606 0.47627 0.32277
 C182 C 0.96796 0.41583 0.35055
 H183 H 0.94453 0.41749 0.37755
 C184 C 1.02888 0.41718 0.28220
 H185 H 1.05320 0.41819 0.25616
 C186 C 1.02847 0.38219 0.31181
 H187 H 1.05191 0.35622 0.30712
 Zn188 Zn 0.99741 0.49921 0.24892
 N189 N 0.99909 0.44981 0.28642
 C190 C 0.91860 0.46551 0.21434
 N191 N 0.94545 0.50014 0.21491
 C192 C 0.93763 0.53516 0.18854
 C193 C 0.90171 0.53617 0.15981
 C194 C 0.88259 0.46493 0.18565
 C195 C 1.03771 0.55508 0.30927
 C196 C 1.04140 0.59003 0.33846
 C197 C 0.96567 0.60750 0.32481
 C198 C 0.96393 0.57310 0.29452
 N199 N 0.99974 0.54784 0.28724
 H200 H 0.92583 0.43771 0.23502
 H201 H 0.95994 0.56194 0.18919
 H202 H 0.89664 0.56380 0.13814
 H203 H 0.86201 0.43678 0.18481
 H204 H 1.06545 0.53390 0.30362
 H205 H 1.07270 0.59583 0.35384
 H206 H 0.93612 0.62580 0.33127
 H207 H 0.93358 0.56583 0.27791
 C208 C 0.99784 0.38122 0.34686
 C209 C 1.11171 0.50106 0.14532
 C210 C 1.00490 0.61665 0.34728
 C211 C 0.87411 0.50042 0.15759
 C212 C -0.04666 0.46980 0.82057
 H213 H -0.01902 0.44796 0.82328
 C214 C -0.07942 0.46900 0.85290
 H215 H -0.07573 0.44687 0.88066
 C216 C -0.08236 0.52717 0.78263
 H217 H -0.08301 0.55079 0.75618
 C218 C -0.11668 0.52643 0.81329
 H219 H -0.14377 0.54853 0.80832
 N220 N -0.04852 0.49865 0.78636
 C221 C 0.03379 0.44108 0.68288
 H222 H 0.06053 0.46353 0.68299
 C223 C 0.03422 0.40609 0.65338
 H224 H 0.06142 0.40170 0.63068
 C225 C -0.03511 0.42061 0.71112
 H226 H -0.06231 0.42687 0.73327
 C227 C -0.03642 0.38566 0.68144
 H228 H -0.06452 0.36484 0.68114
 Zn229 Zn -0.00000 0.49782 0.74703
 N230 N -0.00041 0.44754 0.71111
 C231 C 0.07801 0.46445 0.78624
 N232 N 0.05027 0.49895 0.78369
 C233 C 0.05564 0.53433 0.81007
 C234 C 0.09024 0.53615 0.84034
 C235 C 0.11285 0.46476 0.81637
 C236 C -0.03647 0.55226 0.68154
 C237 C -0.03844 0.58701 0.65192
 C238 C 0.03507 0.60509 0.67297
 C239 C 0.03490 0.57101 0.70355
 N240 N -0.00073 0.54566 0.70761
 H241 H 0.07250 0.43614 0.76593
 H242 H 0.03252 0.56089 0.80802
 H243 H 0.09348 0.56421 0.86174
 H244 H 0.13442 0.43689 0.81837
 H245 H -0.06372 0.53055 0.68392
 H246 H -0.06832 0.59235 0.63344
 H247 H 0.06462 0.62340 0.66937
 H248 H 0.06382 0.56409 0.72306
 C249 C -0.00144 0.37822 0.65209
 C250 C -0.11547 0.49738 0.84953
 C251 C -0.00214 0.61396 0.64672
 C252 C 0.11909 0.50084 0.84408
 C253 C 0.08855 0.21999 0.50096
 C254 C 0.04510 0.20632 0.49968
 C255 C 0.03662 0.16186 0.50011
 C256 C 0.07067 0.13173 0.50199
 C257 C 0.11408 0.14529 0.50296
 C258 C 0.12283 0.18970 0.50208
 H259 H 0.09610 0.25402 0.50177
 H260 H 0.00373 0.14988 0.49921
 H261 H 0.06308 0.09765 0.50215
 H262 H 0.15611 0.20090 0.50316
 C263 C 0.66337 0.53948 -0.01645
 C264 C 0.70717 0.54680 -0.00561
 C265 C 0.72097 0.58946 0.00064
 C266 C 0.69091 0.62387 -0.00136
 C267 C 0.64675 0.61617 -0.01074
 C268 C 0.63353 0.57363 -0.01874
 H269 H 0.65169 0.50734 -0.02321
 H270 H 0.75488 0.59624 0.00722
 H271 H 0.70217 0.65645 0.00416
 H272 H 0.59975 0.56653 -0.02584
 C273 C 0.92704 -0.20952 0.53293
 C274 C 0.95669 -0.21055 0.49722
 C275 C 0.95214 -0.18069 0.46225
 C276 C 0.91798 -0.15050 0.46260
 C277 C 0.88871 -0.14894 0.49867
 C278 C 0.89345 -0.17867 0.53383
 H279 H 0.93038 -0.23172 0.56072
 H280 H 0.97540 -0.18032 0.43500
 H281 H 0.91520 -0.12743 0.43547
 H282 H 0.87124 -0.17786 0.56199
 C283 C 0.29530 0.42961 0.96248
 C284 C 0.28903 0.45595 1.00018
 C285 C 0.31339 0.44800 1.03909
 C286 C 0.34336 0.41374 1.04056
 C287 C 0.35005 0.38745 1.00274
 C288 C 0.32563 0.39562 0.96372
 H289 H 0.27760 0.43576 0.93174
 H290 H 0.30946 0.46854 1.06825
 H291 H 0.36227 0.40859 1.07079
 H292 H 0.33021 0.37583 0.93411
 C293 C 0.93045 0.19868 0.45776
 C294 C 0.94761 0.21359 0.49836
 C295 C 0.92992 0.19915 0.53882
 C296 C 0.89607 0.16933 0.53871
 C297 C 0.87947 0.15330 0.49805
 C298 C 0.89641 0.16915 0.45757
 H299 H 0.94428 0.20874 0.42616
 H300 H 0.94347 0.20950 0.57052
 H301 H 0.88436 0.15731 0.57048
 H302 H 0.88403 0.15796 0.42567
 C303 C 0.31265 0.56002 -0.03936
 C304 C 0.28750 0.55119 -0.00140
 C305 C 0.29252 0.57643 0.03725
 C306 C 0.32255 0.61009 0.03792
 C307 C 0.34760 0.61919 -0.00023
 C308 C 0.34203 0.59412 -0.03903
 H309 H 0.30988 0.54024 -0.06916
 H310 H 0.27419 0.56950 0.06728
 H311 H 0.32642 0.62888 0.06826
 H312 H 0.36149 0.60003 -0.06859
 C313 C 0.05763 -0.18342 0.53685
 C314 C 0.05299 -0.21235 0.50105
 C315 C 0.08267 -0.21126 0.46540
 C316 C 0.11621 -0.18112 0.46526
 C317 C 0.12089 -0.15214 0.50110
 C318 C 0.09175 -0.15395 0.53723
 H319 H 0.03429 -0.18294 0.56403
 H320 H 0.07926 -0.23269 0.43698
 H321 H 0.13828 -0.18007 0.43700
 H322 H 0.09441 -0.13142 0.56487
 C323 C 0.71043 0.41918 0.96914
 C324 C 0.71081 0.45073 1.00277
 C325 C 0.68168 0.44762 1.03854
 C326 C 0.65115 0.41467 1.03975
 C327 C 0.65023 0.38257 1.00613
 C328 C 0.68130 0.38487 0.97140
 H329 H 0.73171 0.42128 0.94049
 H330 H 0.68104 0.47208 1.06454
 H331 H 0.62748 0.41576 1.06647
 H332 H 0.68305 0.36067 0.94533
 C333 C 0.46488 0.07499 1.21366
 C334 C 0.50255 0.04925 1.21747
 C335 C 0.53989 0.06025 1.19335
 C336 C 0.53908 0.09532 1.16410
 C337 C 0.50091 0.12032 1.15868
 C338 C 0.46403 0.11025 1.18440
 H339 H 0.43577 0.06736 1.23222
 H340 H 0.56925 0.04063 1.19579
 H341 H 0.56787 0.10172 1.14440
 H342 H 0.43437 0.12932 1.18149
 C343 C 0.02706 0.71715 0.58415
 C344 C 0.00030 0.71435 0.54630
 C345 C -0.02856 0.67992 0.54240
 C346 C -0.02933 0.64754 0.57474
 C347 C -0.00242 0.64967 0.61296
 C348 C 0.02509 0.68563 0.61761
 H349 H 0.04979 0.74327 0.58789
 H350 H -0.04935 0.67702 0.51321
 H351 H -0.05017 0.62027 0.56865
 H352 H 0.04550 0.68950 0.64685
 C353 C 0.49524 0.91506 -0.22549
 C354 C 0.49859 0.95729 -0.20883
 C355 C 0.49848 0.96404 -0.16234
 C356 C 0.49545 0.92921 -0.13297
 C357 C 0.49299 0.88685 -0.14945
 C358 C 0.49311 0.87996 -0.19600
 H359 H 0.49429 0.90923 -0.26126
 H360 H 0.50079 0.99615 -0.14834
 H361 H 0.49579 0.93529 -0.09722
 H362 H 0.49094 0.84755 -0.20943
 C363 C 0.95917 0.30216 0.43537
 C364 C 0.99827 0.28219 0.44872
 C365 C 1.03692 0.29295 0.42669
 C366 C 1.03678 0.32445 0.39314
 C367 C 0.99775 0.34537 0.38029
 C368 C 0.95877 0.33291 0.40117
 H369 H 0.92881 0.29439 0.45171
 H370 H 1.06757 0.27813 0.43597
 H371 H 1.06760 0.33335 0.37845
 H372 H 0.92782 0.34719 0.39152
 C373 C 0.49549 0.90966 0.22620
 C374 C 0.50094 0.95204 0.21079
 C375 C 0.50495 0.95936 0.16463
 C376 C 0.50539 0.92497 0.13454
 C377 C 0.50118 0.88240 0.14978
 C378 C 0.49547 0.87500 0.19587
 H379 H 0.49161 0.90339 0.26165
 H380 H 0.50804 0.99154 0.15128
 H381 H 0.50870 0.93171 0.09911
 H382 H 0.49186 0.84244 0.20842
 C383 C -0.03893 0.30940 0.55503
 C384 C -0.00274 0.28211 0.54837
 C385 C 0.03262 0.28433 0.57804
 C386 C 0.03274 0.31505 0.61244
 C387 C -0.00298 0.34325 0.61833
 C388 C -0.03922 0.33952 0.58992
 H389 H -0.06678 0.30793 0.53283
 H390 H 0.06058 0.26317 0.57433
 H391 H 0.06086 0.31710 0.63427
 H392 H -0.06706 0.36104 0.59368
 C393 C 0.46134 0.07211 0.80298
 C394 C 0.50067 0.05461 0.78705
 C395 C 0.54003 0.07229 0.80173
 C396 C 0.54013 0.10684 0.83186
 C397 C 0.50080 0.12370 0.84907
 C398 C 0.46135 0.10621 0.83375
 H399 H 0.43053 0.05874 0.79297
 H400 H 0.57092 0.05876 0.79088
 H401 H 0.57115 0.11981 0.84220
 H402 H 0.43043 0.11764 0.84680
 C403 C 0.97873 0.71957 0.41286
 C404 C 1.00776 0.71599 0.44890
 C405 C 1.03739 0.68136 0.45027
 C406 C 1.03669 0.64946 0.41729
 C407 C 1.00723 0.65221 0.38113
 C408 C 0.97899 0.68842 0.37885
 H409 H 0.95525 0.74578 0.41119
 H410 H 1.05979 0.67780 0.47814
 H411 H 1.05827 0.62191 0.42142
 H412 H 0.95657 0.69261 0.35117
 C413 C 1.18625 0.53988 0.05309
 C414 C 1.21290 0.50350 0.04601
 C415 C 1.20667 0.46635 0.07189
 C416 C 1.17404 0.46563 0.10452
 C417 C 1.14720 0.50207 0.11172
 C418 C 1.15390 0.53934 0.08591
 H419 H 1.18998 0.56848 0.03267
 H420 H 1.22605 0.43748 0.06617
 H421 H 1.16967 0.43655 0.12404
 H422 H 1.13327 0.56765 0.09022
 C423 C 0.56514 0.04247 0.69731
 C424 C 0.55259 0.00417 0.71836
 C425 C 0.57586 -0.03406 0.70944
 C426 C 0.61006 -0.03430 0.67845
 C427 C 0.62212 0.00391 0.65633
 C428 C 0.59991 0.04253 0.66725
 H429 H 0.54735 0.07232 0.70331
 H430 H 0.56679 -0.06411 0.72496
 H431 H 0.62579 -0.06484 0.67065
 H432 H 0.60879 0.07286 0.65202
 C433 C -0.19067 0.46050 0.94309
 C434 C -0.21533 0.49792 0.95178
 C435 C -0.20777 0.53500 0.92627
 C436 C -0.17549 0.53494 0.89328
 C437 C -0.15079 0.49730 0.88404
 C438 C -0.15957 0.45983 0.90900
 H439 H -0.19545 0.43145 0.96241
 H440 H -0.22580 0.56456 0.93245
 H441 H -0.16937 0.56492 0.87600
 H442 H -0.14250 0.42973 0.90250
 C443 C 0.46371 0.00327 0.33637
 C444 C 0.45640 -0.00279 0.29043
 C445 C 0.41375 -0.00907 0.27503
 C446 C 0.37877 -0.00841 0.30521
 C447 C 0.38610 -0.00108 0.35112
 C448 C 0.42896 0.00434 0.36633
 H449 H 0.49616 0.00762 0.34953
 H450 H 0.40751 -0.01407 0.23969
 H451 H 0.34601 -0.01277 0.29264
 H452 H 0.43567 0.00909 0.40162
 C453 C 0.19064 0.46500 0.94069
 C454 C 0.21549 0.50192 0.94846
 C455 C 0.20954 0.53825 0.92109
 C456 C 0.17888 0.53766 0.88641
 C457 C 0.15378 0.50070 0.87864
 C458 C 0.16033 0.46420 0.90583
 H459 H 0.19414 0.43699 0.96216
 H460 H 0.22749 0.56752 0.92723
 H461 H 0.17443 0.56623 0.86594
 H462 H 0.14089 0.43558 0.90116
 C463 C 0.57772 -0.04038 0.29182
 C464 C 0.55444 -0.00196 0.28385
 C465 C 0.56785 0.03631 0.30455
 C466 C 0.60311 0.03597 0.33411
 C467 C 0.62549 -0.00278 0.34370
 C468 C 0.61293 -0.04083 0.32162
 H469 H 0.56808 -0.07030 0.27622
 H470 H 0.55001 0.06624 0.29919
 H471 H 0.61159 0.06568 0.35102
 H472 H 0.62990 -0.07106 0.32800
 C473 C 0.80515 0.46228 0.06064
 C474 C 0.77935 0.49891 0.05159
 C475 C 0.78151 0.53453 0.08056
 C476 C 0.81156 0.53475 0.11590
 C477 C 0.83903 0.49886 0.12349
 C478 C 0.83467 0.46219 0.09623
 H479 H 0.80319 0.43386 0.03969
 H480 H 0.76085 0.56254 0.07572
 H481 H 0.81372 0.56312 0.13701
 H482 H 0.85539 0.43405 0.10129
 C483 C 0.46230 0.00310 0.66617
 C484 C 0.45477 0.00201 0.71252
 C485 C 0.41194 -0.00249 0.72813
 C486 C 0.37707 -0.00430 0.69784
 C487 C 0.38481 -0.00307 0.65150
 C488 C 0.42773 0.00043 0.63601
 H489 H 0.49483 0.00581 0.65280
 H490 H 0.40544 -0.00514 0.76364
 H491 H 0.34421 -0.00756 0.71047
 H492 H 0.43445 0.00157 0.60041
   
