data_POSCAR
  _audit_creation_date              2014-09-24
  _audit_creation_method            'ToBaCCo'
  _symmetry_space_group_name_H-M    'P1'
  _symmetry_Int_Tables_number       1
  _symmetry_cell_setting            triclinic
  loop_
  _symmetry_equiv_pos_as_xyz
 x,y,z
_cell_length_a 27.3362
_cell_length_b 27.3362
_cell_length_c 27.3362
_cell_angle_alpha 89.934500
_cell_angle_beta 89.934500
_cell_angle_gamma 90.065500
loop_
  _atom_site_label
  _atom_site_type_symbol
  _atom_site_fract_x
  _atom_site_fract_y
  _atom_site_fract_z
N1 N 0.40838 0.41215 1.41031
 N2 N 1.08899 0.58899 0.91100
 N3 N 0.58968 -0.09162 0.08785
 N4 N -0.08785 1.08968 -0.40838
 N5 N 0.58572 0.58955 0.58732
 N6 N 0.91095 0.41095 0.08905
 N7 N 0.41268 0.08572 0.91045
 N8 N 0.08955 0.91268 0.41427
 Zn9 Zn 0.05354 0.96449 0.02466
 Zn10 Zn 0.02358 1.05216 -0.03258
 Zn11 Zn -0.03714 0.96112 -0.03648
 Zn12 Zn -0.03419 1.02161 0.05467
 O13 O 0.00138 0.99978 0.00251
 O14 O 0.11117 0.98929 0.00562
 O15 O 0.00206 1.05192 -0.09417
 O16 O -0.01379 0.89993 -0.04241
 O17 O 0.08887 1.05440 -0.03676
 O18 O 0.05292 0.90283 0.00320
 O19 O -0.04284 0.98468 -0.09768
 O20 O -0.09581 0.99977 0.05389
 O21 O 0.00479 1.10962 -0.00748
 O22 O -0.09845 0.95501 -0.01339
 O23 O -0.03835 1.08692 0.05708
 O24 O -0.00933 1.00285 0.11229
 O25 O 0.05586 0.96064 0.08999
 C26 C 0.12197 1.02656 -0.01995
 C27 C -0.02513 1.02269 -0.11784
 C28 C 0.02382 0.87945 -0.02438
 C29 C -0.11908 0.97251 0.02440
 C30 C -0.02103 1.12019 0.02963
 C31 C 0.02808 0.97761 0.12310
 Zn32 Zn 0.46652 0.02340 0.44584
 Zn33 Zn 0.46295 -0.03705 0.53705
 Zn34 Zn 0.55416 -0.03349 0.47660
 Zn35 Zn 0.52340 0.05416 0.53348
 O36 O 0.50171 0.00171 0.49829
 O37 O 0.40482 0.00178 0.44653
 O38 O 0.48600 -0.09828 0.54280
 O39 O 0.55680 -0.03769 0.41131
 O40 O 0.40172 -0.04280 0.51400
 O41 O 0.49164 0.00424 0.38841
 O42 O 0.55347 -0.09518 0.49822
 O43 O 0.58869 0.05680 0.53769
 O44 O 0.45720 -0.01400 0.59828
 O45 O 0.61159 -0.00836 0.49575
 O46 O 0.50178 0.05347 0.59518
 O47 O 0.50425 0.11159 0.50836
 O48 O 0.46231 0.08869 0.44320
 C49 C 0.38130 -0.02524 0.47614
 C50 C 0.52385 -0.11870 0.52524
 C51 C 0.52908 -0.02113 0.37796
 C52 C 0.62204 0.02908 0.52113
 C53 C 0.47476 0.02385 0.61869
 C54 C 0.47887 0.12204 0.47092
 Zn55 Zn 0.94533 0.46580 0.47839
 Zn56 Zn 1.03648 0.46286 0.53888
 Zn57 Zn 1.03257 0.52358 0.44784
 Zn58 Zn 0.97534 0.55354 0.53551
 O59 O 0.99748 0.50138 0.50022
 O60 O 0.94611 0.40419 0.50023
 O61 O 1.09767 0.45716 0.51532
 O62 O 1.00748 0.50479 0.39038
 O63 O 1.01339 0.40155 0.54499
 O64 O 0.94292 0.46165 0.41308
 O65 O 1.09417 0.50206 0.44808
 O66 O 0.99438 0.61117 0.51071
 O67 O 1.04240 0.48621 0.60007
 O68 O 1.03676 0.58887 0.44560
 O69 O 0.99680 0.55292 0.59717
 O70 O 0.91001 0.55586 0.53936
 O71 O 0.88770 0.49067 0.49715
 C72 C 0.97560 0.38092 0.52748
 C73 C 1.11784 0.47487 0.47730
 C74 C 0.97037 0.47896 0.37981
 C75 C 1.01995 0.62197 0.47344
 C76 C 1.02438 0.52382 0.62055
 C77 C 0.87690 0.52808 0.52239
 Zn78 Zn 0.46449 0.47534 0.94645
 Zn79 Zn 0.55216 0.53257 0.97642
 Zn80 Zn 0.46112 0.53648 1.03713
 Zn81 Zn 0.52161 0.44533 1.03419
 O82 O 0.49978 0.49748 0.99861
 O83 O 0.48929 0.49438 0.88882
 O84 O 0.55192 0.59417 0.99794
 O85 O 0.39993 0.54240 1.01378
 O86 O 0.55440 0.53676 0.91113
 O87 O 0.40283 0.49680 0.94708
 O88 O 0.48468 0.59767 1.04284
 O89 O 0.49977 0.44611 1.09580
 O90 O 0.60962 0.50748 0.99521
 O91 O 0.45501 0.51339 1.09845
 O92 O 0.58692 0.44292 1.03835
 O93 O 0.50285 0.38770 1.00933
 O94 O 0.46064 0.41001 0.94414
 C95 C 0.52656 0.51995 0.87803
 C96 C 0.52269 0.61784 1.02513
 C97 C 0.37945 0.52438 0.97617
 C98 C 0.47251 0.47560 1.11907
 C99 C 0.62019 0.47037 1.02103
 C100 C 0.47761 0.37690 0.97191
 C101 C 1.26826 0.44259 0.44496
 C102 C 1.24122 0.47290 0.41391
 C103 C 1.19237 0.48345 0.42454
 C104 C 1.36030 0.42250 0.42282
 C105 C 1.19732 0.43338 0.49763
 C106 C 1.24627 0.42287 0.48687
 C107 C 1.31840 0.43155 0.43334
 C108 C 1.16979 0.46376 0.46651
 H109 H 1.25786 0.48832 0.38135
 H110 H 1.17230 0.50696 0.39980
 H111 H 1.18106 0.41765 0.53019
 H112 H 1.26690 0.39931 0.51114
 C113 C 0.22902 0.55733 0.94475
 C114 C 0.25143 0.57732 0.98620
 C115 C 0.30036 0.56656 0.99667
 C116 C 0.13704 0.57815 0.92316
 C117 C 0.30447 0.51566 0.92421
 C118 C 0.25563 0.52646 0.91387
 C119 C 0.17890 0.56872 0.93341
 C120 C 0.32748 0.53565 0.96570
 H121 H 0.23115 0.60133 1.01032
 H122 H 0.31696 0.58254 1.02886
 H123 H 0.32422 0.49174 0.89960
 H124 H 0.23866 0.51082 0.88166
 C125 C -0.26988 0.93939 0.05460
 C126 C -0.24724 0.91992 0.01299
 C127 C -0.19816 0.93069 0.00297
 C128 C -0.36216 0.91885 0.07559
 C129 C -0.19436 0.98049 0.07619
 C130 C -0.24334 0.96969 0.08610
 C131 C -0.32017 0.92808 0.06549
 C132 C -0.17113 0.96108 0.03453
 H133 H -0.26745 0.89636 -0.01161
 H134 H -0.18140 0.91517 -0.02938
 H135 H -0.17469 1.00400 0.10126
 H136 H -0.26048 0.98490 0.11843
 C137 C 0.77221 0.06026 0.55548
 C138 C 0.73507 0.09122 0.57218
 C139 C 0.68625 0.08135 0.56064
 C140 C 0.86417 0.07908 0.57896
 C141 C 0.71158 0.00955 0.51526
 C142 C 0.76040 0.01951 0.52687
 C143 C 0.82233 0.07024 0.56806
 C144 C 0.67391 0.04028 0.53218
 H145 H 0.74382 0.12288 0.59433
 H146 H 0.65819 0.10574 0.57427
 H147 H 0.70335 -0.02236 0.49332
 H148 H 0.78889 -0.00468 0.51374
 C149 C 0.44452 0.27221 0.43974
 C150 C 0.42782 0.23507 0.40878
 C151 C 0.43936 0.18625 0.41864
 C152 C 0.42104 0.36417 0.42091
 C153 C 0.48474 0.21158 0.49044
 C154 C 0.47313 0.26040 0.48048
 C155 C 0.43194 0.32233 0.42975
 C156 C 0.46782 0.17391 0.45971
 H157 H 0.40567 0.24382 0.37711
 H158 H 0.42572 0.15819 0.39426
 H159 H 0.50668 0.20335 0.52236
 H160 H 0.48626 0.28889 0.50468
 C161 C 0.94540 0.23012 0.56061
 C162 C 0.91390 0.25666 0.53031
 C163 C 0.92381 0.30564 0.51950
 C164 C 0.92441 0.13784 0.58114
 C165 C 0.99703 0.30184 0.56930
 C166 C 0.98700 0.25276 0.58007
 C167 C 0.93451 0.17983 0.57192
 C168 C 0.96547 0.32887 0.53891
 H169 H 0.88156 0.23952 0.51509
 H170 H 0.89874 0.32531 0.49599
 H171 H 1.02938 0.31860 0.58483
 H172 H 1.01161 0.23255 0.60364
 C173 C 0.05525 0.72902 -0.05733
 C174 C 0.08613 0.75563 -0.02646
 C175 C 0.07578 0.80447 -0.01567
 C176 C 0.07683 0.63704 -0.07815
 C177 C 0.00333 0.80036 -0.06657
 C178 C 0.01380 0.75143 -0.07733
 C179 C 0.06659 0.67890 -0.06872
 C180 C 0.03429 0.82748 -0.03565
 H181 H 0.11834 0.73866 -0.01083
 H182 H 0.10039 0.82422 0.00826
 H183 H -0.02887 0.81696 -0.08255
 H184 H -0.01032 0.73115 -0.10133
 C185 C 0.55504 0.76826 1.05741
 C186 C 0.58609 0.74122 1.02709
 C187 C 0.57545 0.69237 1.01655
 C188 C 0.57718 0.86030 1.07749
 C189 C 0.50236 0.69732 1.06661
 C190 C 0.51313 0.74627 1.07712
 C191 C 0.56665 0.81840 1.06844
 C192 C 0.53349 0.66979 1.03623
 H193 H 0.61865 0.75786 1.01168
 H194 H 0.60020 0.67230 0.99304
 H195 H 0.46981 0.68105 1.08234
 H196 H 0.48886 0.76690 1.10069
 C197 C 0.43939 0.44540 1.26988
 C198 C 0.46969 0.41390 1.24334
 C199 C 0.48049 0.42380 1.19435
 C200 C 0.41885 0.42441 1.36216
 C201 C 0.43069 0.49703 1.19816
 C202 C 0.41993 0.48700 1.24723
 C203 C 0.42808 0.43451 1.32016
 C204 C 0.46108 0.46547 1.17113
 H205 H 0.48490 0.38156 1.26048
 H206 H 0.50400 0.39874 1.17468
 H207 H 0.41517 0.52938 1.18140
 H208 H 0.39636 0.51160 1.26745
 C209 C 0.56026 -0.05548 0.22778
 C210 C 0.51951 -0.02687 0.23959
 C211 C 0.50955 -0.01526 0.28841
 C212 C 0.57908 -0.07896 0.13583
 C213 C 0.58135 -0.06065 0.31375
 C214 C 0.59122 -0.07218 0.26493
 C215 C 0.57024 -0.06806 0.17766
 C216 C 0.54028 -0.03218 0.32609
 H217 H 0.49532 -0.01374 0.21110
 H218 H 0.47764 0.00668 0.29664
 H219 H 0.60574 -0.07428 0.34181
 H220 H 0.62288 -0.09433 0.25617
 C221 C -0.05741 1.05504 -0.26826
 C222 C -0.07713 1.01313 -0.24627
 C223 C -0.06662 1.00236 -0.19733
 C224 C -0.07750 1.07718 -0.36030
 C225 C -0.01655 1.07545 -0.19237
 C226 C -0.02710 1.08609 -0.24122
 C227 C -0.06845 1.06665 -0.31841
 C228 C -0.03624 1.03349 -0.16979
 H229 H -0.10069 0.98886 -0.26690
 H230 H -0.08235 0.96981 -0.18106
 H231 H 0.00696 1.10020 -0.17230
 H232 H -0.01168 1.11865 -0.25786
 C233 C 1.05733 0.55525 0.77098
 C234 C 1.07732 0.51380 0.74857
 C235 C 1.06656 0.50333 0.69963
 C236 C 1.07815 0.57683 0.86296
 C237 C 1.01566 0.57578 0.69553
 C238 C 1.02646 0.58613 0.74437
 C239 C 1.06872 0.56659 0.82109
 C240 C 1.03565 0.53429 0.67252
 H241 H 1.10133 0.48967 0.76885
 H242 H 1.08254 0.47113 0.68304
 H243 H 0.99174 0.60039 0.67578
 H244 H 1.01082 0.61834 0.76134
 C245 C 0.72612 0.55987 0.55328
 C246 C 0.76302 0.59066 0.57087
 C247 C 0.81206 0.58052 0.56058
 C248 C 0.63380 0.57895 0.57502
 C249 C 0.78743 0.50873 0.51476
 C250 C 0.73839 0.51896 0.52512
 C251 C 0.67578 0.57004 0.56476
 C252 C 0.82486 0.53933 0.53252
 H253 H 0.75390 0.62241 0.59274
 H254 H 0.83992 0.60482 0.57481
 H255 H 0.79602 0.47674 0.49307
 H256 H 0.71009 0.49487 0.51137
 C257 C 0.77069 0.43919 1.05352
 C258 C 0.75864 0.47957 1.02447
 C259 C 0.70970 0.48954 1.01351
 C260 C 0.86287 0.42093 1.07636
 C261 C 0.68471 0.41847 1.06047
 C262 C 0.73366 0.40859 1.07135
 C263 C 0.82093 0.42940 1.06565
 C264 C 0.67214 0.45919 1.03156
 H265 H 0.78704 0.50350 1.01050
 H266 H 0.70130 0.52117 0.99118
 H267 H 0.65674 0.39438 1.07495
 H268 H 0.74261 0.37724 1.09391
 C269 C 0.27248 1.05682 -0.05383
 C270 C 0.23561 1.08788 -0.07093
 C271 C 0.18667 1.07831 -0.05956
 C272 C 0.36463 1.07523 -0.07698
 C273 C 0.21134 1.00658 -0.01357
 C274 C 0.26029 1.01626 -0.02501
 C275 C 0.32271 1.06654 -0.06620
 C276 C 0.17394 1.03743 -0.03088
 H277 H 0.24468 1.11941 -0.09325
 H278 H 0.15883 1.10276 -0.07349
 H279 H 0.20280 0.97481 0.00855
 H280 H 0.28857 0.99199 -0.01157
 C281 C 0.23025 -0.05716 0.44658
 C282 C 0.25704 -0.02730 0.41474
 C283 C 0.30613 -0.01691 0.42441
 C284 C 0.13779 -0.07705 0.42618
 C285 C 0.30191 -0.06628 0.49803
 C286 C 0.25274 -0.07663 0.48825
 C287 C 0.17986 -0.06807 0.43598
 C288 C 0.32919 -0.03632 0.46615
 H289 H 0.24001 -0.01210 0.38235
 H290 H 0.32601 0.00628 0.39911
 H291 H 0.31854 -0.08178 0.53046
 H292 H 0.23232 -0.09986 0.51310
 C293 C 0.55342 -0.26975 0.55716
 C294 C 0.51175 -0.24726 0.57662
 C295 C 0.50197 -0.19809 0.56628
 C296 C 0.57382 -0.36221 0.57705
 C297 C 0.57559 -0.19387 0.51691
 C298 C 0.58526 -0.24296 0.52730
 C299 C 0.56401 -0.32014 0.56807
 C300 C 0.53384 -0.17081 0.53632
 H301 H 0.48689 -0.26768 0.59986
 H302 H 0.46953 -0.18146 0.58178
 H303 H 0.60089 -0.17399 0.49372
 H304 H 0.61765 -0.25999 0.51210
 C305 C 1.05383 0.77248 0.44318
 C306 C 1.07093 0.73561 0.41212
 C307 C 1.05956 0.68667 0.42169
 C308 C 1.07697 0.86463 0.42477
 C309 C 1.01357 0.71134 0.49341
 C310 C 1.02501 0.76029 0.48374
 C311 C 1.06620 0.82271 0.43345
 C312 C 1.03088 0.67394 0.46257
 H313 H 1.09324 0.74468 0.38059
 H314 H 1.07349 0.65882 0.39723
 H315 H 0.99145 0.70280 0.52519
 H316 H 1.01157 0.78857 0.50801
 C317 C -0.05352 1.27069 0.06081
 C318 C -0.02447 1.25864 0.02043
 C319 C -0.01351 1.20970 0.01046
 C320 C -0.07636 1.36287 0.07906
 C321 C -0.06047 1.18471 0.08153
 C322 C -0.07136 1.23366 0.09141
 C323 C -0.06565 1.32093 0.07060
 C324 C -0.03156 1.17214 0.04081
 H325 H -0.01050 1.28704 -0.00351
 H326 H 0.00882 1.20130 -0.02118
 H327 H -0.07495 1.15674 0.10562
 H328 H -0.09391 1.24261 0.12276
 C329 C 0.44671 0.22612 0.94013
 C330 C 0.42913 0.26302 0.90933
 C331 C 0.43942 0.31206 0.91948
 C332 C 0.42497 0.13380 0.92104
 C333 C 0.48524 0.28743 0.99127
 C334 C 0.47487 0.23839 0.98103
 C335 C 0.43524 0.17578 0.92996
 C336 C 0.46748 0.32486 0.96067
 H337 H 0.40726 0.25390 0.87758
 H338 H 0.42519 0.33992 0.89518
 H339 H 0.50692 0.29602 1.02326
 H340 H 0.48863 0.21009 1.00513
 C341 C 0.55682 0.55383 0.72752
 C342 C 0.51626 0.52501 0.73971
 C343 C 0.50658 0.51357 0.78865
 C344 C 0.57523 0.57697 0.63536
 C345 C 0.57831 0.55956 0.81332
 C346 C 0.58788 0.57093 0.76438
 C347 C 0.56654 0.56620 0.67728
 C348 C 0.53743 0.53087 0.82605
 H349 H 0.49199 0.51157 0.71143
 H350 H 0.47481 0.49145 0.79719
 H351 H 0.60276 0.57348 0.84117
 H352 H 0.61941 0.59324 0.75532
 C353 C 0.44284 0.05342 0.76975
 C354 C 0.47270 0.08526 0.74295
 C355 C 0.48309 0.07559 0.69386
 C356 C 0.42295 0.07382 0.86221
 C357 C 0.43372 0.00197 0.69809
 C358 C 0.42337 0.01175 0.74726
 C359 C 0.43193 0.06401 0.82013
 C360 C 0.46368 0.03384 0.67081
 H361 H 0.48790 0.11765 0.75999
 H362 H 0.50628 0.10089 0.67399
 H363 H 0.41822 -0.03047 0.68146
 H364 H 0.40014 -0.01311 0.76768
 C365 C 0.05987 0.94671 0.27388
 C366 C 0.01896 0.97487 0.26161
 C367 C 0.00873 0.98524 0.21256
 C368 C 0.07895 0.92497 0.36620
 C369 C 0.08052 0.93942 0.18794
 C370 C 0.09066 0.92913 0.23698
 C371 C 0.07004 0.93524 0.32422
 C372 C 0.03933 0.96748 0.17514
 H373 H -0.00513 0.98863 0.28991
 H374 H -0.02326 1.00692 0.20398
 H375 H 0.10482 0.92519 0.16007
 H376 H 0.12241 0.90726 0.24610
 C377 C 0.93919 0.44648 0.22931
 C378 C 0.90859 0.42864 0.26633
 C379 C 0.91847 0.43953 0.31528
 C380 C 0.92094 0.42364 0.13713
 C381 C 0.98954 0.48649 0.29029
 C382 C 0.97957 0.47553 0.24135
 C383 C 0.92940 0.43435 0.17906
 C384 C 0.95919 0.46844 0.32786
 H385 H 0.87724 0.40609 0.25739
 H386 H 0.89438 0.42505 0.34326
 H387 H 1.02117 0.50882 0.29870
 H388 H 1.00350 0.48950 0.21295
   
