data_POSCAR
  _audit_creation_date              2014-09-24
  _audit_creation_method            'ToBaCCo'
  _symmetry_space_group_name_H-M    'P1'
  _symmetry_Int_Tables_number       1
  _symmetry_cell_setting            triclinic
  loop_
  _symmetry_equiv_pos_as_xyz
 x,y,z
_cell_length_a 14.7772
_cell_length_b 14.1674
_cell_length_c 14.0747
_cell_angle_alpha 88.342100
_cell_angle_beta 89.551900
_cell_angle_gamma 91.549100
loop_
  _atom_site_label
  _atom_site_type_symbol
  _atom_site_fract_x
  _atom_site_fract_y
  _atom_site_fract_z
C1 C 0.45122 1.03953 -0.57522
 C2 C 0.40863 0.99965 -0.49163
 C3 C 0.46241 0.95553 -0.42247
 C4 C 0.55777 0.95090 -0.42832
 C5 C 0.60100 0.98649 -0.51446
 C6 C 0.54623 1.03309 -0.58236
 H7 H 0.57804 1.05939 -0.64752
 H8 H 0.42791 0.93021 -0.35820
 C9 C -0.58330 1.48206 -0.04211
 C10 C -0.55816 1.57929 -0.03456
 C11 C -0.47526 1.60428 0.00774
 C12 C -0.41220 1.53613 0.03640
 C13 C -0.43642 1.43933 0.02488
 C14 C -0.52062 1.41460 -0.01384
 H15 H -0.53876 1.34015 -0.01842
 H16 H -0.45788 1.67872 0.01402
 C17 C 0.03875 0.46907 0.41324
 C18 C 0.05080 0.56457 0.43796
 C19 C 0.01287 0.59627 0.52117
 C20 C -0.03000 0.53424 0.58721
 C21 C -0.04278 0.43869 0.56254
 C22 C -0.00508 0.40697 0.47884
 H23 H -0.01647 0.33326 0.46222
 H24 H 0.02377 0.67023 0.53715
 O25 O -0.24531 0.94951 -0.07046
 O26 O 0.20223 1.03165 -0.18925
 O27 O -0.07314 1.09214 -0.24986
 O28 O -0.02791 0.83849 -0.21321
 O29 O 0.01487 0.74707 -0.08393
 O30 O -0.07452 1.21684 -0.14839
 O31 O 0.07176 0.98869 -0.26859
 O32 O -0.16006 0.95450 -0.20938
 Zr33 Zr -0.02878 0.97944 -0.16158
 O34 O 0.08172 0.92438 -0.09452
 O35 O -0.10721 1.05800 -0.07260
 C36 C -0.23544 0.94537 -0.16295
 C37 C 0.15746 1.01066 -0.26603
 C38 C -0.08917 1.17863 -0.22889
 C39 C -0.01260 0.75784 -0.16972
 H40 H 0.07179 1.13215 -0.16985
 O41 O 0.05164 1.09002 -0.11605
 H42 H -0.11740 0.84538 -0.07339
 O43 O -0.07719 0.89612 -0.04993
 O44 O 0.25328 1.06686 0.07003
 O45 O -0.19228 0.97223 0.18724
 O46 O 0.07748 1.26214 -0.06100
 O47 O 0.16096 0.79162 -0.01490
 O48 O -0.07106 0.74704 0.06626
 O49 O -0.15266 1.21866 0.00307
 O50 O 0.04314 1.16670 0.21183
 O51 O 0.07944 0.91259 0.24950
 O52 O -0.00051 1.25874 0.08344
 O53 O 0.07777 0.78715 0.14882
 O54 O 0.20788 1.17669 -0.06889
 O55 O -0.24060 1.08815 0.04941
 O56 O -0.20001 0.83551 0.07269
 O57 O 0.25037 0.92288 -0.05698
 O58 O 0.16812 1.05622 0.20906
 O59 O -0.06115 1.00601 0.26951
 Zr60 Zr 0.16002 1.03525 -0.04311
 Zr61 Zr -0.15052 0.97465 0.04188
 Zr62 Zr -0.02442 1.16211 -0.02125
 Zr63 Zr 0.03289 0.84475 0.02056
 Zr64 Zr 0.03837 1.02632 0.16086
 O65 O -0.04336 0.91692 0.11553
 O66 O 0.08607 1.11251 0.04990
 C67 C 0.24299 1.06995 0.16279
 C68 C -0.14693 0.98398 0.26533
 C69 C 0.16425 1.25530 -0.07106
 C70 C 0.23564 0.83242 -0.04598
 C71 C -0.15771 0.75634 0.07820
 C72 C -0.22767 1.17830 0.03260
 C73 C 0.02952 1.24743 0.16829
 C74 C 0.09209 0.82525 0.22947
 H75 H -0.10453 1.12156 0.14036
 O76 O -0.07154 1.08314 0.09458
 H77 H 0.16931 0.92183 0.10086
 O78 O 0.11611 0.94958 0.06981
 C79 C 0.40615 1.07970 0.34446
 C80 C 0.44717 1.14325 0.27929
 C81 C 0.39309 1.14678 0.20144
 C82 C 0.32138 1.08707 0.22439
 O83 O 0.32789 1.04762 0.31127
 H84 H 0.51034 1.18208 0.28751
 H85 H 0.40388 1.18857 0.13655
 C86 C -0.30810 0.97128 0.45440
 C87 C -0.24149 0.91873 0.49824
 C88 C -0.16948 0.92069 0.43558
 C89 C -0.19752 0.97134 0.35662
 O90 O -0.28032 1.00145 0.36801
 H91 H -0.24483 0.87831 0.56430
 H92 H -0.10634 0.88453 0.44412
 C93 C -0.39823 0.92066 -0.34329
 C94 C -0.43852 0.86125 -0.27344
 C95 C -0.38480 0.86570 -0.19567
 C96 C -0.31460 0.92605 -0.22257
 O97 O -0.32163 0.95903 -0.31186
 H98 H -0.50052 0.81921 -0.27784
 H99 H -0.39436 0.82761 -0.12839
 C100 C 0.31302 1.01227 -0.46044
 C101 C 0.23708 0.98139 -0.50815
 C102 C 0.16786 0.98201 -0.44305
 C103 C 0.20627 1.01097 -0.35913
 O104 O 0.29399 1.02931 -0.36974
 H105 H 0.23330 0.95213 -0.57808
 H106 H 0.09875 0.95762 -0.45380
 C107 C 0.32341 1.44529 -0.06539
 C108 C 0.24455 1.49597 -0.06341
 C109 C 0.17582 1.43209 -0.07567
 C110 C 0.21598 1.34576 -0.08033
 O111 O 0.30518 1.35340 -0.07434
 H112 H 0.23529 1.56895 -0.04702
 H113 H 0.10419 1.44593 -0.07327
 C114 C 0.38973 0.65235 -0.07210
 C115 C 0.35830 0.65659 -0.16419
 C116 C 0.30388 0.73269 -0.16812
 C117 C 0.30566 0.76902 -0.07831
 O118 O 0.35813 0.72074 -0.01975
 H119 H 0.37071 0.60774 -0.22026
 H120 H 0.26196 0.75458 -0.22708
 C121 C -0.32247 0.57230 0.07166
 C122 C -0.25418 0.52114 0.11421
 C123 C -0.18350 0.58399 0.12544
 C124 C -0.21379 0.66932 0.09127
 O125 O -0.29739 0.66249 0.05903
 H126 H -0.25344 0.44737 0.13494
 H127 H -0.11736 0.56906 0.15379
 C128 C -0.38329 1.35907 0.05952
 C129 C -0.41333 1.30031 0.13337
 C130 C -0.36037 1.22334 0.13103
 C131 C -0.30158 1.24096 0.05593
 O132 O -0.31517 1.32336 0.01186
 H133 H -0.46976 1.31175 0.18059
 H134 H -0.36323 1.16198 0.17868
 C135 C 0.05638 1.43374 0.32313
 C136 C 0.06286 1.48613 0.23853
 C137 C 0.05863 1.42176 0.16923
 C138 C 0.04981 1.33517 0.21597
 O139 O 0.04934 1.34188 0.30850
 H140 H 0.05985 1.56146 0.22611
 H141 H 0.05542 1.43669 0.09360
 C142 C -0.09455 1.36755 -0.38140
 C143 C -0.18054 1.37679 -0.34511
 C144 C -0.19615 1.29606 -0.29165
 C145 C -0.11933 1.24365 -0.30197
 O146 O -0.05817 1.28698 -0.35668
 H147 H -0.22335 1.43737 -0.35150
 H148 H -0.25226 1.28166 -0.24300
 C149 C -0.04495 0.57005 -0.32240
 C150 C -0.04912 0.51814 -0.23747
 C151 C -0.04139 0.58300 -0.16871
 C152 C -0.03265 0.66932 -0.21631
 O153 O -0.03615 0.66199 -0.30855
 H154 H -0.04739 0.44267 -0.22513
 H155 H -0.03721 0.56864 -0.09291
 C156 C 0.10075 0.63663 0.38186
 C157 C 0.18835 0.63144 0.34883
 C158 C 0.20189 0.71247 0.29532
 C159 C 0.12225 0.76078 0.30264
 O160 O 0.06131 0.71482 0.35517
 H161 H 0.23393 0.57339 0.35771
 H162 H 0.25913 0.72984 0.24900
   
