data_POSCAR
  _audit_creation_date              2014-09-24
  _audit_creation_method            'ToBaCCo'
  _symmetry_space_group_name_H-M    'P1'
  _symmetry_Int_Tables_number       1
  _symmetry_cell_setting            triclinic
  loop_
  _symmetry_equiv_pos_as_xyz
 x,y,z
_cell_length_a 40.1254
_cell_length_b 40.4403
_cell_length_c 23.9280
_cell_angle_alpha 89.933500
_cell_angle_beta 90.059500
_cell_angle_gamma 119.836900
loop_
  _atom_site_label
  _atom_site_type_symbol
  _atom_site_fract_x
  _atom_site_fract_y
  _atom_site_fract_z
C1 C 0.44885 0.89740 0.49961
 C2 C 0.46336 0.91718 0.54968
 C3 C 0.48427 0.95713 0.54965
 C4 C 0.48920 0.97800 0.49989
 C5 C 0.47332 0.95730 0.45003
 C6 C 0.45425 0.91740 0.44975
 C7 C 0.51065 1.02088 0.50000
 C8 C 0.52747 1.04176 0.45055
 C9 C 0.54653 1.08171 0.45046
 C10 C 0.55092 1.10147 0.50027
 C11 C 0.53544 1.08146 0.54987
 C12 C 0.51460 1.04156 0.54956
 H13 H 0.43335 0.86646 0.49935
 H14 H 0.49669 0.97150 0.58865
 H15 H 0.47532 0.97170 0.41105
 H16 H 0.52615 1.02740 0.41182
 H17 H 0.56637 1.13241 0.50053
 H18 H 0.50155 1.02714 0.58827
 C19 C 0.10289 0.55495 0.49631
 C20 C 0.08328 0.54014 0.54648
 C21 C 0.04304 0.51832 0.54672
 C22 C 0.02163 0.51277 0.49710
 C23 C 0.04224 0.52919 0.44722
 C24 C 0.08245 0.54905 0.44666
 C25 C -0.02164 0.49004 0.49720
 C26 C -0.04245 0.47439 0.44719
 C27 C -0.08270 0.45439 0.44693
 C28 C -0.10290 0.44761 0.49702
 C29 C -0.08304 0.46168 0.54718
 C30 C -0.04286 0.48362 0.54718
 H31 H 0.13407 0.57101 0.49579
 H32 H 0.02898 0.50571 0.58582
 H33 H 0.02762 0.52695 0.40829
 H34 H -0.02786 0.47727 0.40801
 H35 H -0.13407 0.43141 0.49708
 H36 H -0.02874 0.49557 0.58649
 C37 C 0.45145 0.55489 0.50369
 C38 C 0.46588 0.54912 0.55361
 C39 C 0.48633 0.52937 0.55338
 C40 C 0.49069 0.51298 0.50364
 C41 C 0.47492 0.51842 0.45386
 C42 C 0.45644 0.54008 0.45378
 C43 C 0.51129 0.49037 0.50384
 C44 C 0.52616 0.48390 0.45398
 C45 C 0.54446 0.46207 0.45430
 C46 C 0.55020 0.44814 0.50462
 C47 C 0.53669 0.45496 0.55451
 C48 C 0.51643 0.47485 0.55401
 H49 H 0.43627 0.57084 0.50360
 H50 H 0.49871 0.52717 0.59237
 H51 H 0.47646 0.50589 0.41480
 H52 H 0.52401 0.49573 0.41455
 H53 H 0.56518 0.43201 0.50495
 H54 H 0.50477 0.47773 0.59318
 O55 O 0.39307 0.65912 -0.04249
 O56 O 0.39216 0.72186 -0.06284
 C57 C 0.37428 0.73904 -0.07682
 O58 O 0.34422 0.73411 -0.05159
 O59 O 0.28198 0.66971 -0.07177
 C60 C 0.26445 0.63424 -0.08158
 O61 O 0.26837 0.61063 -0.05107
 O62 O 0.33397 0.61287 -0.06415
 C63 C 0.36993 0.63106 -0.07266
 O64 O 0.38748 0.66976 0.06813
 O65 O 0.38978 0.73413 0.04780
 C66 C 0.36465 0.73903 0.07303
 O67 O 0.32955 0.72184 0.05906
 O68 O 0.26573 0.65908 0.03888
 C69 C 0.26078 0.63107 0.06915
 O70 O 0.27851 0.61288 0.06069
 O71 O 0.34187 0.61067 0.04762
 C72 C 0.36945 0.63430 0.07807
 Cr73 Cr 0.38858 0.69520 0.00251
 Cr74 Cr 0.30639 0.69517 -0.00621
 Cr75 Cr 0.30669 0.61377 -0.00173
 O76 O 0.33392 0.66811 -0.00182
 O77 O 0.60729 0.32811 -0.05727
 O78 O 0.60643 0.26394 -0.04220
 C79 C 0.62954 0.25966 -0.07374
 O80 O 0.66552 0.27723 -0.06576
 O81 O 0.73095 0.33953 -0.05074
 C82 C 0.73513 0.36852 -0.07763
 O83 O 0.71764 0.38618 -0.06451
 O84 O 0.65490 0.38749 -0.04245
 C85 C 0.62513 0.36333 -0.06902
 O86 O 0.60913 0.33935 0.05418
 O87 O 0.61223 0.27711 0.06923
 C88 C 0.63065 0.25959 0.07721
 O89 O 0.65809 0.26396 0.04568
 O90 O 0.72148 0.32818 0.06074
 C91 C 0.73888 0.36339 0.07253
 O92 O 0.73331 0.38754 0.04593
 O93 O 0.66917 0.38607 0.06797
 C94 C 0.63396 0.36836 0.08103
 Cr95 Cr 0.61082 0.30314 0.00586
 Cr96 Cr 0.69297 0.30324 -0.00239
 Cr97 Cr 0.69273 0.38477 0.00173
 O98 O 0.66554 0.33044 0.00173
 C99 C 0.43523 0.79622 -0.20010
 C100 C 0.41565 0.81487 -0.21790
 C101 C 0.38308 0.80950 -0.18881
 C102 C 0.36987 0.78526 -0.14243
 C103 C 0.45599 0.89744 -0.40142
 C104 C 0.42210 0.77196 -0.15375
 C105 C 0.42814 0.83845 -0.26714
 C106 C 0.43789 0.85763 -0.30895
 C107 C 0.44826 0.87942 -0.35855
 C108 C 0.38909 0.76599 -0.12454
 H109 H 0.46041 0.80007 -0.22242
 H110 H 0.36763 0.82372 -0.20236
 H111 H 0.34437 0.78129 -0.12102
 H112 H 0.43758 0.75758 -0.14123
 C113 C 0.20824 0.63101 -0.21106
 C114 C 0.18901 0.59206 -0.22365
 C115 C 0.19408 0.56680 -0.18950
 C116 C 0.21841 0.58044 -0.14304
 C117 C 0.10351 0.54802 -0.40485
 C118 C 0.23258 0.64473 -0.16468
 C119 C 0.16466 0.57831 -0.27220
 C120 C 0.14476 0.56764 -0.31342
 C121 C 0.12214 0.55637 -0.36239
 C122 C 0.23805 0.61961 -0.13015
 H123 H 0.20457 0.65083 -0.23729
 H124 H 0.17939 0.53660 -0.19893
 H125 H 0.22200 0.56032 -0.11746
 H126 H 0.24724 0.67503 -0.15607
 C127 C 0.37543 0.57816 -0.19986
 C128 C 0.41453 0.59923 -0.21308
 C129 C 0.43935 0.62996 -0.17932
 C130 C 0.42504 0.63990 -0.13291
 C131 C 0.45846 0.56126 -0.39730
 C132 C 0.36104 0.58803 -0.15357
 C133 C 0.42867 0.58986 -0.26233
 C134 C 0.43938 0.58155 -0.30431
 C135 C 0.45044 0.57106 -0.35419
 C136 C 0.38562 0.61923 -0.11976
 H137 H 0.35595 0.55435 -0.22579
 H138 H 0.46966 0.64652 -0.18925
 H139 H 0.44474 0.66413 -0.10791
 H140 H 0.33057 0.57153 -0.14477
 C141 C 0.56006 0.19020 -0.18080
 C142 C 0.58502 0.18461 -0.21521
 C143 C 0.62424 0.20283 -0.20266
 C144 C 0.63861 0.22682 -0.15628
 C145 C 0.54244 0.10211 -0.39844
 C146 C 0.57436 0.21421 -0.13425
 C147 C 0.57090 0.16095 -0.26420
 C148 C 0.56046 0.14177 -0.30595
 C149 C 0.54992 0.12003 -0.35556
 C150 C 0.61389 0.23298 -0.12163
 H151 H 0.52963 0.17628 -0.19021
 H152 H 0.64383 0.19874 -0.22905
 H153 H 0.66916 0.24079 -0.14790
 H154 H 0.55456 0.21839 -0.10858
 C155 C 0.80601 0.37683 -0.18950
 C156 C 0.81111 0.40888 -0.21918
 C157 C 0.79178 0.42792 -0.20224
 C158 C 0.76728 0.41493 -0.15603
 C159 C 0.89584 0.45255 -0.40113
 C160 C 0.78150 0.36374 -0.14318
 C161 C 0.83533 0.42169 -0.26791
 C162 C 0.85505 0.43212 -0.30930
 C163 C 0.87742 0.44364 -0.35849
 C164 C 0.76173 0.38258 -0.12600
 H165 H 0.82075 0.36179 -0.20239
 H166 H 0.79542 0.45268 -0.22500
 H167 H 0.75254 0.43013 -0.14406
 H168 H 0.77787 0.33877 -0.12111
 C169 C 0.61768 0.42690 -0.17938
 C170 C 0.58489 0.40068 -0.20873
 C171 C 0.56459 0.36267 -0.19127
 C172 C 0.57727 0.35071 -0.14519
 C173 C 0.54484 0.44253 -0.39342
 C174 C 0.63045 0.41503 -0.13318
 C175 C 0.57293 0.41232 -0.25813
 C176 C 0.56333 0.42175 -0.30021
 C177 C 0.55285 0.43277 -0.35021
 C178 C 0.61057 0.37668 -0.11584
 H179 H 0.63370 0.45639 -0.19269
 H180 H 0.53924 0.34211 -0.21378
 H181 H 0.56126 0.32099 -0.13308
 H182 H 0.65621 0.43572 -0.11167
 C183 C 0.79844 0.36266 0.19517
 C184 C 0.81609 0.40063 0.21273
 C185 C 0.80961 0.42685 0.18329
 C186 C 0.78511 0.41502 0.13691
 C187 C 0.89770 0.44255 0.39774
 C188 C 0.77395 0.35075 0.14891
 C189 C 0.83955 0.41222 0.26228
 C190 C 0.85849 0.42165 0.30446
 C191 C 0.87992 0.43271 0.35453
 C192 C 0.76669 0.37671 0.11948
 H193 H 0.80317 0.34210 0.21774
 H194 H 0.82305 0.45631 0.19667
 H195 H 0.78010 0.43571 0.11535
 H196 H 0.76027 0.32105 0.13674
 C197 C 0.57890 0.20253 0.20608
 C198 C 0.59990 0.18435 0.21862
 C199 C 0.63052 0.19005 0.18424
 C200 C 0.64030 0.21413 0.13772
 C201 C 0.55952 0.10145 0.40165
 C202 C 0.58860 0.22659 0.15972
 C203 C 0.59027 0.16061 0.26757
 C204 C 0.58143 0.14134 0.30928
 C205 C 0.57010 0.11949 0.35882
 C206 C 0.61955 0.23286 0.12509
 H207 H 0.55517 0.19836 0.23245
 H208 H 0.64702 0.17617 0.19364
 H209 H 0.66434 0.21840 0.11206
 H210 H 0.57202 0.24053 0.15135
 C211 C 0.57110 0.37678 0.19224
 C212 C 0.59806 0.40887 0.22187
 C213 C 0.63655 0.42786 0.20518
 C214 C 0.64815 0.41479 0.15923
 C215 C 0.55654 0.45289 0.40279
 C216 C 0.58262 0.36363 0.14619
 C217 C 0.58652 0.42178 0.27029
 C218 C 0.57713 0.43230 0.31143
 C219 C 0.56616 0.44391 0.36034
 C220 C 0.62135 0.38243 0.12923
 H221 H 0.54123 0.36179 0.20494
 H222 H 0.65768 0.45264 0.22792
 H223 H 0.67818 0.42996 0.14743
 H224 H 0.56127 0.33865 0.12412
 C225 C 0.20240 0.57832 0.19668
 C226 C 0.18448 0.59942 0.20988
 C227 C 0.19040 0.63009 0.17597
 C228 C 0.21461 0.63996 0.12945
 C229 C 0.10294 0.56186 0.39461
 C230 C 0.22662 0.58812 0.15028
 C231 C 0.16105 0.59015 0.25926
 C232 C 0.14211 0.58192 0.30136
 C233 C 0.12067 0.57156 0.35138
 C234 C 0.23327 0.61927 0.11633
 H235 H 0.19806 0.55455 0.22272
 H236 H 0.17672 0.64667 0.18589
 H237 H 0.21917 0.66416 0.10435
 H238 H 0.24052 0.57161 0.14151
 C239 C 0.42641 0.80933 0.18510
 C240 C 0.39919 0.81465 0.21418
 C241 C 0.36093 0.79605 0.19631
 C242 C 0.34979 0.77187 0.14993
 C243 C 0.44123 0.89675 0.39796
 C244 C 0.41536 0.78516 0.13868
 C245 C 0.41028 0.83812 0.26348
 C246 C 0.41968 0.85719 0.30536
 C247 C 0.43103 0.87884 0.35503
 C248 C 0.37683 0.76593 0.12074
 H249 H 0.45610 0.82351 0.19870
 H250 H 0.33960 0.79987 0.21862
 H251 H 0.31989 0.75752 0.13736
 H252 H 0.43690 0.78122 0.11730
 C253 C 0.37212 0.56695 0.18636
 C254 C 0.40249 0.59224 0.22047
 C255 C 0.42235 0.63118 0.20772
 C256 C 0.41181 0.64486 0.16121
 C257 C 0.44348 0.54828 0.40218
 C258 C 0.36151 0.58055 0.13978
 C259 C 0.41298 0.57854 0.26917
 C260 C 0.42211 0.56790 0.31052
 C261 C 0.43333 0.55664 0.35962
 C262 C 0.38117 0.61971 0.12673
 H263 H 0.35650 0.53676 0.19592
 H264 H 0.44586 0.65102 0.23392
 H265 H 0.42753 0.67515 0.15248
 H266 H 0.33776 0.56041 0.11423
   
