data_POSCAR
  _audit_creation_date              2014-09-24
  _audit_creation_method            'ToBaCCo'
  _symmetry_space_group_name_H-M    'P1'
  _symmetry_Int_Tables_number       1
  _symmetry_cell_setting            triclinic
  loop_
  _symmetry_equiv_pos_as_xyz
 x,y,z
_cell_length_a 48.1125
_cell_length_b 48.0662
_cell_length_c 48.1583
_cell_angle_alpha 89.986100
_cell_angle_beta 90.022200
_cell_angle_gamma 89.970300
loop_
  _atom_site_label
  _atom_site_type_symbol
  _atom_site_fract_x
  _atom_site_fract_y
  _atom_site_fract_z
C1 C 0.19340 0.15968 0.19063
 C2 C 0.18168 0.14842 0.21483
 C3 C 0.15766 0.16017 0.22708
 C4 C 0.14585 0.18390 0.21428
 C5 C 0.15734 0.19531 0.19006
 C6 C 0.18114 0.18310 0.17813
 C7 C 0.21714 0.14763 0.17869
 C8 C 0.22899 0.15844 0.15405
 C9 C 0.21628 0.18201 0.14185
 C10 C 0.19260 0.19426 0.15364
 C11 C 0.18022 0.21760 0.14123
 C12 C 0.15639 0.22985 0.15288
 C13 C 0.14511 0.21857 0.17735
 H14 H 0.19217 0.13103 0.22454
 H15 H 0.12687 0.19300 0.22220
 H16 H 0.22541 0.12896 0.18814
 H17 H 0.22522 0.19175 0.12368
 H18 H 0.18926 0.22638 0.12257
 H19 H 0.12651 0.22765 0.18626
 C20 C -0.18988 0.84392 0.19638
 C21 C -0.17705 0.85586 0.21970
 C22 C -0.15247 0.84443 0.23115
 C23 C -0.14124 0.82038 0.21848
 C24 C -0.15390 0.80824 0.19522
 C25 C -0.17833 0.82001 0.18416
 C26 C -0.21402 0.85577 0.18506
 C27 C -0.22717 0.84411 0.16149
 C28 C -0.21530 0.81990 0.14970
 C29 C -0.19115 0.80790 0.16080
 C30 C -0.17938 0.78416 0.14858
 C31 C -0.15497 0.77228 0.15945
 C32 C -0.14244 0.78442 0.18287
 H33 H -0.18578 0.87489 0.22795
 H34 H -0.12314 0.81019 0.22714
 H35 H -0.22299 0.87356 0.19552
 H36 H -0.22391 0.81084 0.13102
 H37 H -0.18896 0.77516 0.13029
 H38 H -0.12382 0.77520 0.19160
 C39 C -0.19503 0.15361 -0.19306
 C40 C -0.18269 0.14199 -0.21678
 C41 C -0.15915 0.15435 -0.22891
 C42 C -0.14810 0.17870 -0.21711
 C43 C -0.16023 0.19057 -0.19344
 C44 C -0.18383 0.17801 -0.18139
 C45 C -0.21839 0.14112 -0.18091
 C46 C -0.23102 0.15249 -0.15692
 C47 C -0.21947 0.17708 -0.14561
 C48 C -0.19612 0.18978 -0.15760
 C49 C -0.18462 0.21389 -0.14584
 C50 C -0.16099 0.22645 -0.15760
 C51 C -0.14900 0.21467 -0.18149
 H52 H -0.19152 0.12339 -0.22594
 H53 H -0.12971 0.18814 -0.22607
 H54 H -0.22715 0.12303 -0.19101
 H55 H -0.22768 0.18594 -0.12665
 H56 H -0.19377 0.22263 -0.12722
 H57 H -0.13101 0.22441 -0.19092
 C58 C 0.19382 0.84240 -0.19244
 C59 C 0.18265 0.85505 -0.21622
 C60 C 0.15847 0.84445 -0.22921
 C61 C 0.14598 0.82047 -0.21760
 C62 C 0.15697 0.80765 -0.19384
 C63 C 0.18097 0.81862 -0.18121
 C64 C 0.21752 0.85345 -0.17953
 C65 C 0.22861 0.84101 -0.15552
 C66 C 0.21578 0.81713 -0.14456
 C67 C 0.19205 0.80587 -0.15722
 C68 C 0.17904 0.78227 -0.14609
 C69 C 0.15506 0.77118 -0.15858
 C70 C 0.14424 0.78397 -0.18253
 H71 H 0.19231 0.87397 -0.22363
 H72 H 0.12818 0.81089 -0.22745
 H73 H 0.22751 0.87164 -0.18831
 H74 H 0.22396 0.80761 -0.12586
 H75 H 0.18731 0.77280 -0.12740
 H76 H 0.12595 0.77535 -0.19247
 C77 C 0.15955 1.19346 0.80934
 C78 C 0.14838 1.18166 0.78513
 C79 C 0.16027 1.15768 0.77289
 C80 C 0.18403 1.14600 0.78572
 C81 C 0.19535 1.15758 0.80994
 C82 C 0.18301 1.18133 0.82185
 C83 C 0.14737 1.21716 0.82127
 C84 C 0.15808 1.22909 0.84592
 C85 C 0.18170 1.21651 0.85812
 C86 C 0.19408 1.19287 0.84636
 C87 C 0.21746 1.18062 0.85878
 C88 C 0.22983 1.15682 0.84715
 C89 C 0.21864 1.14546 0.82268
 H90 H 0.13095 1.19206 0.77541
 H91 H 0.19324 1.12705 0.77780
 H92 H 0.12867 1.22533 0.81180
 H93 H 0.19137 1.22552 0.87631
 H94 H 0.22617 1.18972 0.87745
 H95 H 0.22782 1.12690 0.81378
 C96 C 0.84359 0.81055 0.80376
 C97 C 0.85556 0.82330 0.78042
 C98 C 0.84425 0.84794 0.76894
 C99 C 0.82029 0.85932 0.78162
 C100 C 0.80811 0.84672 0.80490
 C101 C 0.81976 0.82222 0.81598
 C102 C 0.85534 0.78634 0.81509
 C103 C 0.84365 0.77326 0.83868
 C104 C 0.81951 0.78525 0.85047
 C105 C 0.80763 0.80947 0.83935
 C106 C 0.78395 0.82137 0.85156
 C107 C 0.77218 0.84583 0.84067
 C108 C 0.78436 0.85830 0.81724
 H109 H 0.87454 0.81447 0.77218
 H110 H 0.81019 0.87747 0.77294
 H111 H 0.87306 0.77728 0.80463
 H112 H 0.81043 0.77668 0.86915
 H113 H 0.77493 0.81182 0.86985
 H114 H 0.77522 0.87697 0.80849
 C115 C 0.15425 0.80490 1.19272
 C116 C 0.14286 0.81745 1.21645
 C117 C 0.15546 0.84097 1.22843
 C118 C 0.17982 0.85179 1.21645
 C119 C 0.19141 0.83949 1.19272
 C120 C 0.17853 0.81601 1.18075
 C121 C 0.14142 0.78167 1.18061
 C122 C 0.15237 0.76907 1.15640
 C123 C 0.17687 0.78052 1.14483
 C124 C 0.18985 0.80375 1.15674
 C125 C 0.21405 0.81491 1.14491
 C126 C 0.22701 0.83834 1.15666
 C127 C 0.21556 0.85046 1.18064
 H128 H 0.12388 0.80921 1.22534
 H129 H 0.18988 0.86969 1.22574
 H130 H 0.12214 0.77438 1.18959
 H131 H 0.18671 0.77091 1.12705
 H132 H 0.22293 0.80526 1.12661
 H133 H 0.22516 0.86877 1.18961
 C134 C 0.84262 1.19339 1.19294
 C135 C 0.85540 1.18214 1.21661
 C136 C 0.84484 1.15797 1.22964
 C137 C 0.82075 1.14554 1.21820
 C138 C 0.80780 1.15661 1.19455
 C139 C 0.81873 1.18062 1.18187
 C140 C 0.85364 1.21710 1.17997
 C141 C 0.84105 1.22827 1.15608
 C142 C 0.81707 1.21551 1.14529
 C143 C 0.80585 1.19179 1.15800
 C144 C 0.78215 1.17886 1.14703
 C145 C 0.77109 1.15487 1.15956
 C146 C 0.78401 1.14396 1.18339
 H147 H 0.87439 1.19174 1.22389
 H148 H 0.81120 1.12774 1.22810
 H149 H 0.87191 1.22703 1.18863
 H150 H 0.80743 1.22375 1.12667
 H151 H 0.77257 1.18719 1.12842
 H152 H 0.77542 1.12566 1.19336
 O153 O 0.46079 1.04740 1.05098
 O154 O 0.43049 1.02017 1.02622
 C155 C 0.43583 1.03986 1.04384
 O156 O 0.53904 1.04425 0.95242
 O157 O 0.56949 1.01928 0.97928
 C158 C 0.56404 1.03708 0.95979
 O159 O 0.46086 1.04700 0.95526
 O160 O 0.43053 1.02008 0.98028
 C161 C 0.43589 1.03956 0.96243
 O162 O 0.53899 1.04472 1.05402
 O163 O 0.56944 1.01938 1.02754
 C164 C 0.56399 1.03742 1.04681
 Zr165 Zr 0.49994 1.03141 1.03844
 O166 O 0.50243 1.07536 1.03846
 O167 O 0.49670 1.03114 1.08229
 Zr168 Zr 0.49996 1.03137 0.96831
 O169 O 0.50131 1.07524 0.97096
 O170 O 0.49714 1.03261 0.92447
 O171 O 0.47517 1.03667 1.00331
 O172 O 0.52416 1.03652 1.00336
 O173 O 0.53934 0.94821 1.05436
 O174 O 0.56962 0.97342 1.02758
 C175 C 0.56429 0.95556 1.04704
 O176 O 0.46114 0.94512 0.95524
 O177 O 0.43070 0.97179 0.98038
 C178 C 0.43614 0.95240 0.96248
 O179 O 0.53938 0.94808 0.95265
 O180 O 0.56964 0.97337 0.97938
 C181 C 0.56432 0.95547 0.95996
 O182 O 0.46108 0.94519 1.05156
 O183 O 0.43068 0.97181 1.02629
 C184 C 0.43610 0.95243 1.04422
 Zr185 Zr 0.50016 0.96102 1.03860
 O186 O 0.50351 0.91711 1.03863
 O187 O 0.49692 0.96116 1.08243
 Zr188 Zr 0.50019 0.96092 0.96833
 O189 O 0.50354 0.91700 0.96857
 O190 O 0.49703 0.96082 0.92448
 Zr191 Zr 0.45884 0.99604 1.00334
 Zr192 Zr 0.54128 0.99627 1.00343
 O193 O 0.52432 0.95594 1.00349
 O194 O 0.47545 0.95544 1.00344
 O195 O 0.52479 0.99630 1.04399
 O196 O 0.47598 0.99608 0.96318
 O197 O 0.47589 0.99618 1.04358
 O198 O 0.52478 0.99620 0.96288
 H199 H 0.53680 1.05280 1.00332
 H200 H 0.46338 0.99608 0.94691
 H201 H 0.53707 0.93974 1.00352
 H202 H 0.46317 0.99621 1.05975
 H203 H 0.51126 1.01961 0.91712
 H204 H 0.51249 0.97221 0.91717
 H205 H 0.48790 0.90968 0.97970
 H206 H 0.48808 0.90975 1.02723
 H207 H 0.51235 0.97264 1.08971
 H208 H 0.51258 1.02030 1.08959
 H209 H 0.48994 1.08212 1.02359
 H210 H 0.50124 1.08213 0.95157
 O211 O -0.05578 0.46095 0.04459
 O212 O -0.02897 0.43054 0.01954
 C213 C -0.04842 0.43595 0.03737
 O214 O -0.05251 0.53928 -0.05445
 O215 O -0.02744 0.56961 -0.02758
 C216 C -0.04523 0.56427 -0.04709
 O217 O -0.05537 0.46092 -0.05166
 O218 O -0.02875 0.43053 -0.02635
 C219 C -0.04809 0.43592 -0.04431
 O220 O -0.05298 0.53927 0.04729
 O221 O -0.02768 0.56962 0.02066
 C222 C -0.04562 0.56426 0.04002
 Zr223 Zr -0.04005 0.50009 0.03159
 O224 O -0.08393 0.50337 0.03108
 O225 O -0.04044 0.49690 0.07543
 Zr226 Zr -0.03967 0.50009 -0.03865
 O227 O -0.08355 0.50336 -0.03886
 O228 O -0.03937 0.49686 -0.08249
 O229 O -0.04531 0.47532 -0.00355
 O230 O -0.04492 0.52426 -0.00356
 O231 O 0.04318 0.53913 0.04780
 O232 O 0.01820 0.56956 0.02092
 C233 C 0.03596 0.56413 0.04044
 O234 O 0.04646 0.46082 -0.05106
 O235 O 0.01954 0.43046 -0.02609
 C236 C 0.03909 0.43583 -0.04382
 O237 O 0.04384 0.53913 -0.05382
 O238 O 0.01851 0.56954 -0.02730
 C239 C 0.03656 0.56413 -0.04654
 O240 O 0.04590 0.46083 0.04508
 O241 O 0.01929 0.43047 0.01979
 C242 C 0.03861 0.43584 0.03777
 Zr243 Zr 0.03029 0.50000 0.03201
 O244 O 0.07417 0.50317 0.03218
 O245 O 0.03003 0.49677 0.07585
 Zr246 Zr 0.03065 0.49999 -0.03826
 O247 O 0.07454 0.50312 -0.03810
 O248 O 0.03066 0.49678 -0.08210
 Zr249 Zr -0.00471 0.45878 -0.00330
 Zr250 Zr -0.00465 0.54130 -0.00333
 O251 O 0.03558 0.52413 -0.00310
 O252 O 0.03590 0.47523 -0.00308
 O253 O -0.00489 0.52480 0.03724
 O254 O -0.00450 0.47587 -0.04352
 O255 O -0.00492 0.47590 0.03690
 O256 O -0.00445 0.52481 -0.04389
 H257 H -0.06112 0.53700 -0.00365
 H258 H -0.00442 0.46316 -0.05972
 H259 H 0.05183 0.53679 -0.00299
 H260 H -0.00500 0.46323 0.05313
 H261 H -0.02795 0.51236 -0.08972
 H262 H 0.01962 0.51251 -0.08944
 H263 H 0.08177 0.48776 -0.02650
 H264 H 0.08153 0.48758 0.02096
 H265 H 0.01865 0.51230 0.08309
 H266 H -0.02882 0.51218 0.08281
 H267 H -0.09117 0.48761 0.02004
 H268 H -0.09091 0.48790 -0.02748
 O269 O 1.05557 -0.04442 0.53906
 O270 O 1.02889 -0.01916 0.56939
 C271 C 1.04825 -0.03715 0.56401
 O272 O 1.05288 0.05480 0.46088
 O273 O 1.02765 0.02805 0.43059
 C274 C 1.04556 0.04747 0.43593
 O275 O 1.05568 0.05204 0.53909
 O276 O 1.02893 0.02682 0.56939
 C277 C 1.04835 0.04473 0.56404
 O278 O 1.05272 -0.04715 0.46088
 O279 O 1.02759 -0.02028 0.43057
 C280 C 1.04541 -0.03981 0.43593
 Zr281 Zr 1.03990 -0.03132 0.49998
 O282 O 1.08378 -0.03113 0.49673
 O283 O 1.04000 -0.07525 0.50317
 Zr284 Zr 1.03994 0.03906 0.49999
 O285 O 1.08382 0.03890 0.49678
 O286 O 1.03995 0.08299 0.50318
 O287 O 1.04537 0.00385 0.52471
 O288 O 1.04498 0.00387 0.47586
 O289 O 0.95650 -0.04692 0.46094
 O290 O 0.98168 -0.02020 0.43060
 C291 C 0.96375 -0.03959 0.43599
 O292 O 0.95384 0.05202 0.53910
 O293 O 0.98064 0.02684 0.56943
 C294 C 0.96116 0.04469 0.56405
 O295 O 0.95653 0.05484 0.46094
 O296 O 0.98171 0.02810 0.43061
 C297 C 0.96378 0.04750 0.43599
 O298 O 0.95385 -0.04422 0.53907
 O299 O 0.98063 -0.01909 0.56941
 C300 C 0.96118 -0.03696 0.56402
 Zr301 Zr 0.96956 -0.03125 0.50000
 O302 O 0.92568 -0.03119 0.49683
 O303 O 0.96965 -0.07518 0.50320
 Zr304 Zr 0.96963 0.03916 0.50001
 O305 O 0.92574 0.03940 0.49683
 O306 O 0.96995 0.08309 0.50325
 Zr307 Zr 1.00477 0.00388 0.54118
 Zr308 Zr 1.00471 0.00392 0.45881
 O309 O 0.96448 0.00397 0.47592
 O310 O 0.96416 0.00395 0.52471
 O311 O 1.00470 -0.03673 0.47528
 O312 O 1.00480 0.04418 0.52412
 O313 O 1.00474 -0.03639 0.52409
 O314 O 1.00476 0.04456 0.47527
 H315 H 1.06118 0.00384 0.46316
 H316 H 1.00480 0.06041 0.53681
 H317 H 0.94822 0.00399 0.46328
 H318 H 1.00473 -0.05265 0.53674
 H319 H 1.02850 0.09030 0.48776
 H320 H 0.98092 0.09037 0.48749
 H321 H 0.91842 0.02769 0.51204
 H322 H 0.91838 -0.01983 0.51231
 H323 H 0.98082 -0.08250 0.48759
 H324 H 1.02832 -0.08255 0.48792
 H325 H 1.09108 -0.02007 0.51243
 H326 H 1.09111 0.02756 0.51230
 C327 C 1.12094 0.12454 0.29922
 C328 C 1.11738 0.15280 0.29350
 C329 C 1.12951 0.16461 0.26990
 C330 C 1.14559 0.14834 0.25138
 C331 C 1.14904 0.11978 0.25775
 C332 C 1.13682 0.10811 0.28135
 C333 C 1.10796 0.11223 0.32319
 C334 C 1.09701 0.10160 0.34304
 C335 C 1.08382 0.08847 0.36644
 C336 C 1.09162 0.09554 0.39354
 C337 C 1.07909 0.08236 0.41621
 C338 C 1.05859 0.06189 0.41204
 C339 C 1.05080 0.05509 0.38467
 C340 C 1.06334 0.06830 0.36208
 H341 H 1.10527 0.16578 0.30736
 H342 H 1.12695 0.18676 0.26700
 H343 H 1.16008 0.10584 0.24402
 H344 H 1.13948 0.08610 0.28545
 H345 H 1.10747 0.11113 0.39714
 H346 H 1.08558 0.08811 0.43696
 H347 H 1.03507 0.03949 0.38065
 H348 H 1.05715 0.06267 0.34119
 C349 C 0.88690 -0.11803 0.30089
 C350 C 0.90244 -0.13379 0.28213
 C351 C 0.88956 -0.14622 0.25928
 C352 C 0.86066 -0.14313 0.25457
 C353 C 0.84535 -0.12711 0.27393
 C354 C 0.85836 -0.11476 0.29677
 C355 C 0.90030 -0.10502 0.32423
 C356 C 0.91153 -0.09400 0.34372
 C357 C 0.92491 -0.08068 0.36689
 C358 C 0.91739 -0.08771 0.39406
 C359 C 0.93012 -0.07449 0.41658
 C360 C 0.95055 -0.05400 0.41219
 C361 C 0.95806 -0.04721 0.38475
 C362 C 0.94531 -0.06048 0.36229
 H363 H 0.92465 -0.13623 0.28499
 H364 H 0.90278 -0.15719 0.24480
 H365 H 0.82305 -0.12480 0.27232
 H366 H 0.84607 -0.10277 0.31133
 H367 H 0.90161 -0.10333 0.39785
 H368 H 0.92383 -0.08023 0.43740
 H369 H 0.97373 -0.03159 0.38058
 H370 H 0.95129 -0.05489 0.34133
 C371 C 0.87990 0.11744 0.69975
 C372 C 0.87651 0.14632 0.70122
 C373 C 0.86371 0.15835 0.72435
 C374 C 0.85412 0.14160 0.74632
 C375 C 0.85754 0.11258 0.74458
 C376 C 0.87036 0.10060 0.72145
 C377 C 0.89347 0.10507 0.67616
 C378 C 0.90498 0.09462 0.65653
 C379 C 0.91892 0.08203 0.63328
 C380 C 0.91213 0.08996 0.60615
 C381 C 0.92580 0.07781 0.58358
 C382 C 0.94651 0.05755 0.58788
 C383 C 0.95312 0.04970 0.61528
 C384 C 0.93940 0.06187 0.63778
 H385 H 0.88378 0.15954 0.68451
 H386 H 0.86107 0.18071 0.72495
 H387 H 0.85072 0.09918 0.76132
 H388 H 0.87298 0.07823 0.72056
 H389 H 0.89629 0.10556 0.60245
 H390 H 0.92019 0.08435 0.56281
 H391 H 0.96889 0.03414 0.61939
 H392 H 0.94481 0.05556 0.65871
 C393 C 1.12373 -0.11556 0.69993
 C394 C 1.15209 -0.11311 0.70557
 C395 C 1.16360 -0.12628 0.72878
 C396 C 1.14692 -0.14233 0.74696
 C397 C 1.11825 -0.14459 0.74069
 C398 C 1.10688 -0.13133 0.71749
 C399 C 1.11179 -0.10174 0.67625
 C400 C 1.10145 -0.09017 0.65658
 C401 C 1.08869 -0.07641 0.63329
 C402 C 1.09586 -0.08393 0.60615
 C403 C 1.08291 -0.07102 0.58356
 C404 C 1.06256 -0.05040 0.58785
 C405 C 1.05570 -0.04284 0.61526
 C406 C 1.06868 -0.05578 0.63778
 H407 H 1.16540 -0.10111 0.69194
 H408 H 1.18582 -0.12457 0.73161
 H409 H 1.10403 -0.15551 0.75422
 H410 H 1.08480 -0.13316 0.71344
 H411 H 1.11131 -0.09991 0.60246
 H412 H 1.08870 -0.07734 0.56277
 H413 H 1.04018 -0.02703 0.61936
 H414 H 1.06297 -0.04980 0.65871
 C415 C 0.29982 1.12025 1.11723
 C416 C 0.29520 1.11784 1.14575
 C417 C 0.27201 1.13043 1.15793
 C418 C 0.25281 1.14584 1.14178
 C419 C 0.25805 1.14810 1.11293
 C420 C 0.28125 1.13543 1.10089
 C421 C 0.32345 1.10689 1.10467
 C422 C 0.34311 1.09554 1.09406
 C423 C 0.36642 1.08180 1.08132
 C424 C 0.39357 1.08884 1.08902
 C425 C 0.41619 1.07529 1.07679
 C426 C 0.41194 1.05448 1.05667
 C427 C 0.38452 1.04765 1.04901
 C428 C 0.36196 1.06123 1.06126
 H429 H 0.30961 1.10630 1.15866
 H430 H 0.26999 1.12878 1.18023
 H431 H 0.24374 1.15857 1.09912
 H432 H 0.28450 1.13721 1.07869
 H433 H 0.39724 1.10474 1.10453
 H434 H 0.43698 1.08107 1.08318
 H435 H 0.38044 1.03179 1.03357
 H436 H 0.34102 1.05564 1.05513
 C437 C 0.30008 0.87640 0.88481
 C438 C 0.27905 0.89369 0.87454
 C439 C 0.25586 0.88219 0.86137
 C440 C 0.25337 0.85319 0.85831
 C441 C 0.27463 0.83596 0.86870
 C442 C 0.29784 0.84752 0.88185
 C443 C 0.32384 0.88838 0.89846
 C444 C 0.34355 0.89878 0.90989
 C445 C 0.36686 0.91164 0.92352
 C446 C 0.39404 0.90455 0.91597
 C447 C 0.41663 0.91760 0.92878
 C448 C 0.41231 0.93800 0.94931
 C449 C 0.38486 0.94479 0.95690
 C450 C 0.36234 0.93170 0.94407
 H451 H 0.28053 0.91607 0.87680
 H452 H 0.23966 0.89597 0.85395
 H453 H 0.27346 0.81359 0.86638
 H454 H 0.31403 0.83394 0.88968
 H455 H 0.39776 0.88905 0.90006
 H456 H 0.43745 0.91186 0.92244
 H457 H 0.38073 0.96034 0.97264
 H458 H 0.34138 0.93737 0.95007
 C459 C 0.70087 0.88133 1.12581
 C460 C 0.70572 0.85287 1.12258
 C461 C 0.72924 0.84055 1.13440
 C462 C 0.74858 0.85649 1.14983
 C463 C 0.74306 0.88526 1.15301
 C464 C 0.71953 0.89745 1.14110
 C465 C 0.67702 0.89409 1.11300
 C466 C 0.65723 0.90485 1.10202
 C467 C 0.63383 0.91779 1.08857
 C468 C 0.60671 0.90989 1.09550
 C469 C 0.58403 0.92223 1.08211
 C470 C 0.58822 0.94265 1.06157
 C471 C 0.61560 0.95052 1.05488
 C472 C 0.63821 0.93816 1.06830
 H473 H 0.69125 0.84013 1.11093
 H474 H 0.73145 0.81829 1.13210
 H475 H 0.75743 0.89894 1.16357
 H476 H 0.71610 0.91961 1.14350
 H477 H 0.60310 0.89412 1.11116
 H478 H 0.56327 0.91568 1.08778
 H479 H 0.61963 0.96619 1.03923
 H480 H 0.65912 0.94444 1.06279
 C481 C 0.69913 1.11344 0.88078
 C482 C 0.71782 1.09778 0.86507
 C483 C 0.74071 1.11055 0.85257
 C484 C 0.74551 1.13947 0.85555
 C485 C 0.72621 1.15492 0.87152
 C486 C 0.70333 1.14201 0.88393
 C487 C 0.67576 1.10015 0.89387
 C488 C 0.65627 1.08900 0.90497
 C489 C 0.63310 1.07570 0.91840
 C490 C 0.63776 1.05532 0.93862
 C491 C 0.61531 1.04264 0.95198
 C492 C 0.58782 1.05021 0.94528
 C493 C 0.58338 1.07062 0.92478
 C494 C 0.60589 1.08328 0.91146
 H495 H 0.71489 1.07555 0.86271
 H496 H 0.75515 1.09724 0.84165
 H497 H 0.72789 1.17723 0.87375
 H498 H 0.68882 1.15440 0.89589
 H499 H 0.65875 1.04930 0.94413
 H500 H 0.61952 1.02699 0.96760
 H501 H 0.56253 1.07695 0.91911
 H502 H 0.60206 1.09904 0.89583
 C503 C 0.11773 0.30032 0.11368
 C504 C 0.12059 0.29951 0.14259
 C505 C 0.13320 0.27664 0.15537
 C506 C 0.14314 0.25426 0.13936
 C507 C 0.14020 0.25531 0.11030
 C508 C 0.12757 0.27819 0.09757
 C509 C 0.10452 0.32375 0.10054
 C510 C 0.09335 0.34330 0.08951
 C511 C 0.07987 0.36654 0.07633
 C512 C 0.08678 0.39375 0.08399
 C513 C 0.07348 0.41634 0.07139
 C514 C 0.05302 0.41198 0.05093
 C515 C 0.04633 0.38450 0.04330
 C516 C 0.05967 0.36197 0.05593
 H517 H 0.11309 0.31657 0.15525
 H518 H 0.13547 0.27658 0.17774
 H519 H 0.14730 0.23824 0.09745
 H520 H 0.12536 0.27856 0.07518
 H521 H 0.10239 0.39751 0.09976
 H522 H 0.07915 0.43717 0.07776
 H523 H 0.03074 0.38034 0.02762
 H524 H 0.05418 0.34098 0.04984
 C525 C -0.12495 0.29901 -0.11981
 C526 C -0.15384 0.29670 -0.12221
 C527 C -0.16561 0.27316 -0.13457
 C528 C -0.14859 0.25162 -0.14471
 C529 C -0.11956 0.25420 -0.14225
 C530 C -0.10785 0.27773 -0.12988
 C531 C -0.11275 0.32303 -0.10680
 C532 C -0.10216 0.34292 -0.09582
 C533 C -0.08906 0.36635 -0.08261
 C534 C -0.09606 0.39351 -0.09045
 C535 C -0.08289 0.41621 -0.07791
 C536 C -0.06248 0.41200 -0.05737
 C537 C -0.05575 0.38457 -0.04954
 C538 C -0.06895 0.36196 -0.06209
 H539 H -0.16727 0.31308 -0.11452
 H540 H -0.18801 0.27191 -0.13646
 H541 H -0.10592 0.23781 -0.14949
 H542 H -0.08546 0.27925 -0.12802
 H543 H -0.11160 0.39713 -0.10633
 H544 H -0.08859 0.43700 -0.08443
 H545 H -0.04020 0.38052 -0.03378
 H546 H -0.06337 0.34102 -0.05588
 C547 C 0.11458 0.69993 -0.12286
 C548 C 0.14360 0.70080 -0.12464
 C549 C 0.15680 0.72391 -0.13634
 C550 C 0.14110 0.74647 -0.14642
 C551 C 0.11193 0.74534 -0.14461
 C552 C 0.09878 0.72222 -0.13289
 C553 C 0.10101 0.67635 -0.11042
 C554 C 0.08960 0.65672 -0.09981
 C555 C 0.07596 0.63344 -0.08688
 C556 C 0.08352 0.60623 -0.09391
 C557 C 0.07059 0.58363 -0.08097
 C558 C 0.04990 0.58799 -0.06076
 C559 C 0.04232 0.61547 -0.05400
 C560 C 0.05528 0.63801 -0.06698
 H561 H 0.15603 0.68363 -0.11697
 H562 H 0.17926 0.72404 -0.13774
 H563 H 0.09929 0.76253 -0.15184
 H564 H 0.07631 0.72181 -0.13150
 H565 H 0.09952 0.60247 -0.10929
 H566 H 0.07693 0.56279 -0.08669
 H567 H 0.02646 0.61963 -0.03859
 H568 H 0.04926 0.65899 -0.06139
 C569 C -0.11847 0.70056 0.12052
 C570 C -0.10156 0.72231 0.12985
 C571 C -0.11341 0.74558 0.14260
 C572 C -0.14239 0.74741 0.14616
 C573 C -0.15921 0.72540 0.13675
 C574 C -0.14730 0.70213 0.12402
 C575 C -0.10621 0.67680 0.10708
 C576 C -0.09578 0.65707 0.09567
 C577 C -0.08316 0.63372 0.08186
 C578 C -0.06288 0.63818 0.06155
 C579 C -0.05064 0.61559 0.04797
 C580 C -0.05854 0.58816 0.05455
 C581 C -0.07892 0.58391 0.07509
 C582 C -0.09114 0.60656 0.08863
 H583 H -0.07923 0.72135 0.12714
 H584 H -0.09995 0.76235 0.14928
 H585 H -0.18154 0.72607 0.13949
 H586 H -0.16057 0.68538 0.11690
 H587 H -0.05653 0.65912 0.05617
 H588 H -0.03500 0.61967 0.03232
 H589 H -0.08549 0.56311 0.08068
 H590 H -0.10683 0.60289 0.10435
 C591 C 1.12494 0.12065 0.70074
 C592 C 1.10842 0.13648 0.71858
 C593 C 1.11999 0.14881 0.74218
 C594 C 1.14854 0.14553 0.74859
 C595 C 1.16490 0.12951 0.73008
 C596 C 1.15319 0.11727 0.70648
 C597 C 1.11274 0.10757 0.67678
 C598 C 1.10219 0.09651 0.65693
 C599 C 1.08917 0.08321 0.63353
 C600 C 1.09625 0.09097 0.60643
 C601 C 1.08315 0.07835 0.58376
 C602 C 1.06273 0.05780 0.58793
 C603 C 1.05593 0.05004 0.61530
 C604 C 1.06906 0.06267 0.63789
 H605 H 1.08642 0.13901 0.71446
 H606 H 1.10599 0.15978 0.75589
 H607 H 1.18704 0.12708 0.73300
 H608 H 1.16624 0.10521 0.69265
 H609 H 1.11180 0.10687 0.60282
 H610 H 1.08890 0.08483 0.56300
 H611 H 1.04037 0.03427 0.61933
 H612 H 1.06342 0.05650 0.65879
 C613 C 0.88199 -0.11297 0.69915
 C614 C 0.88508 -0.14155 0.70332
 C615 C 0.87266 -0.15447 0.72616
 C616 C 0.85673 -0.13902 0.74549
 C617 C 0.85378 -0.11009 0.74072
 C618 C 0.86630 -0.09730 0.71786
 C619 C 0.89511 -0.09969 0.67581
 C620 C 0.90625 -0.08858 0.65633
 C621 C 0.91972 -0.07536 0.63315
 C622 C 0.91276 -0.08296 0.60598
 C623 C 0.92611 -0.07040 0.58345
 C624 C 0.94669 -0.05004 0.58783
 C625 C 0.95342 -0.04245 0.61527
 C626 C 0.94002 -0.05505 0.63773
 H627 H 0.89702 -0.15395 0.68879
 H628 H 0.87485 -0.17679 0.72781
 H629 H 0.84287 -0.09678 0.75517
 H630 H 0.86398 -0.07506 0.71496
 H631 H 0.89707 -0.09868 0.60220
 H632 H 0.92040 -0.07674 0.56265
 H633 H 0.96910 -0.02684 0.61943
 H634 H 0.94557 -0.04900 0.65869
 C635 C 1.11885 -0.11996 0.29993
 C636 C 1.12955 -0.10370 0.27833
 C637 C 1.14155 -0.11639 0.25514
 C638 C 1.14299 -0.14557 0.25323
 C639 C 1.13224 -0.16175 0.27509
 C640 C 1.12026 -0.14900 0.29828
 C641 C 1.10625 -0.10680 0.32363
 C642 C 1.09563 -0.09554 0.34332
 C643 C 1.08288 -0.08183 0.36662
 C644 C 1.06277 -0.06128 0.36215
 C645 C 1.05053 -0.04767 0.38469
 C646 C 1.05827 -0.05444 0.41208
 C647 C 1.07844 -0.07524 0.41634
 C648 C 1.09066 -0.08881 0.39374
 H649 H 1.12847 -0.08121 0.27934
 H650 H 1.14930 -0.10339 0.23849
 H651 H 1.13335 -0.18423 0.27437
 H652 H 1.11209 -0.16178 0.31492
 H653 H 1.05659 -0.05571 0.34124
 H654 H 1.03505 -0.03182 0.38060
 H655 H 1.08488 -0.08098 0.43712
 H656 H 1.10622 -0.10470 0.39742
 C657 C 0.88515 0.12305 0.30023
 C658 C 0.88765 0.15143 0.29458
 C659 C 0.87438 0.16299 0.27146
 C660 C 0.85818 0.14635 0.25338
 C661 C 0.85588 0.11765 0.25965
 C662 C 0.86923 0.10623 0.28276
 C663 C 0.89905 0.11106 0.32384
 C664 C 0.91066 0.10070 0.34348
 C665 C 0.92446 0.08795 0.36674
 C666 C 0.91703 0.09517 0.39388
 C667 C 0.92997 0.08223 0.41646
 C668 C 0.95051 0.06181 0.41216
 C669 C 0.95799 0.05489 0.38474
 C670 C 0.94503 0.06787 0.36222
 H671 H 0.89976 0.16471 0.30814
 H672 H 0.87614 0.18523 0.26863
 H673 H 0.84482 0.10346 0.24618
 H674 H 0.86736 0.08413 0.28682
 H675 H 0.90111 0.11068 0.39760
 H676 H 0.92371 0.08807 0.43726
 H677 H 0.97374 0.03933 0.38062
 H678 H 0.95093 0.06212 0.34129
 C679 C 0.11959 0.29983 -0.11731
 C680 C 0.13483 0.28132 -0.10095
 C681 C 0.14760 0.25815 -0.11298
 C682 C 0.14536 0.25287 -0.14183
 C683 C 0.12986 0.27200 -0.15799
 C684 C 0.11718 0.29516 -0.14582
 C685 C 0.10616 0.32345 -0.10475
 C686 C 0.09478 0.34311 -0.09415
 C687 C 0.08102 0.36642 -0.08139
 C688 C 0.06054 0.36192 -0.06128
 C689 C 0.04696 0.38448 -0.04900
 C690 C 0.05369 0.41193 -0.05669
 C691 C 0.07442 0.41623 -0.07687
 C692 C 0.08796 0.39360 -0.08913
 H693 H 0.13660 0.28461 -0.07876
 H694 H 0.15812 0.24388 -0.09917
 H695 H 0.12821 0.26995 -0.18028
 H696 H 0.10558 0.30953 -0.15874
 H697 H 0.05502 0.34095 -0.05512
 H698 H 0.03117 0.38037 -0.03351
 H699 H 0.08013 0.43705 -0.08328
 H700 H 0.10380 0.39731 -0.10469
 C701 C -0.12379 0.29973 0.11548
 C702 C -0.10647 0.27864 0.12560
 C703 C -0.11789 0.25546 0.13887
 C704 C -0.14684 0.25304 0.14219
 C705 C -0.16409 0.27437 0.13197
 C706 C -0.15262 0.29757 0.11871
 C707 C -0.11190 0.32347 0.10171
 C708 C -0.10160 0.34320 0.09018
 C709 C -0.08888 0.36653 0.07645
 C710 C -0.06880 0.36203 0.05593
 C711 C -0.05583 0.38460 0.04305
 C712 C -0.06276 0.41206 0.05054
 C713 C -0.08318 0.41636 0.07103
 C714 C -0.09612 0.39372 0.08390
 H715 H -0.08413 0.28007 0.12313
 H716 H -0.10410 0.23921 0.14617
 H717 H -0.18643 0.27326 0.13449
 H718 H -0.16621 0.31381 0.11101
 H719 H -0.06303 0.34106 0.05002
 H720 H -0.04026 0.38049 0.02734
 H721 H -0.08902 0.43719 0.07731
 H722 H -0.11163 0.39743 0.09979
 C723 C -0.11942 0.70108 -0.12567
 C724 C -0.10325 0.71969 -0.14097
 C725 C -0.11535 0.74330 -0.15286
 C726 C -0.14407 0.74894 -0.14965
 C727 C -0.16005 0.72966 -0.13418
 C728 C -0.14782 0.70606 -0.12238
 C729 C -0.10673 0.67715 -0.11289
 C730 C -0.09600 0.65731 -0.10194
 C731 C -0.08306 0.63388 -0.08854
 C732 C -0.06272 0.63826 -0.06824
 C733 C -0.05033 0.61563 -0.05487
 C734 C -0.05814 0.58821 -0.06161
 C735 C -0.07852 0.58403 -0.08218
 C736 C -0.09089 0.60673 -0.09552
 H737 H -0.08114 0.71617 -0.14341
 H738 H -0.10164 0.75762 -0.16343
 H739 H -0.18228 0.73197 -0.13185
 H740 H -0.16059 0.69163 -0.11073
 H741 H -0.05649 0.65919 -0.06268
 H742 H -0.03469 0.61966 -0.03920
 H743 H -0.08502 0.56324 -0.08789
 H744 H -0.10663 0.60312 -0.11121
 C745 C 0.11240 0.69950 0.11904
 C746 C 0.10923 0.70458 0.14741
 C747 C 0.12233 0.72739 0.15977
 C748 C 0.13906 0.74574 0.14395
 C749 C 0.14198 0.74010 0.11524
 C750 C 0.12878 0.71729 0.10302
 C751 C 0.09884 0.67609 0.10629
 C752 C 0.08757 0.65656 0.09535
 C753 C 0.07424 0.63334 0.08201
 C754 C 0.05406 0.63796 0.06160
 C755 C 0.04149 0.61547 0.04818
 C756 C 0.04897 0.58797 0.05501
 C757 C 0.06916 0.58356 0.07572
 C758 C 0.08171 0.60611 0.08909
 H759 H 0.09675 0.69076 0.16008
 H760 H 0.12006 0.72974 0.18198
 H761 H 0.15344 0.75383 0.10164
 H762 H 0.13118 0.71368 0.08094
 H763 H 0.04814 0.65897 0.05594
 H764 H 0.02600 0.61966 0.03240
 H765 H 0.07541 0.56270 0.08151
 H766 H 0.09733 0.60231 0.10486
 C767 C 0.30039 1.11847 0.88643
 C768 C 0.29959 1.12133 0.85752
 C769 C 0.27669 1.13385 0.84472
 C770 C 0.25428 1.14370 0.86070
 C771 C 0.25531 1.14077 0.88976
 C772 C 0.27822 1.12823 0.90252
 C773 C 0.32382 1.10533 0.89959
 C774 C 0.34337 1.09421 0.91065
 C775 C 0.36661 1.08077 0.92385
 C776 C 0.39379 1.08781 0.91629
 C777 C 0.41637 1.07453 0.92891
 C778 C 0.41203 1.05396 0.94927
 C779 C 0.38459 1.04715 0.95681
 C780 C 0.36207 1.06047 0.94417
 H781 H 0.31667 1.11389 0.84488
 H782 H 0.27664 1.13610 0.82234
 H783 H 0.23822 1.14780 0.90259
 H784 H 0.27858 1.12603 0.92490
 H785 H 0.39754 1.10350 0.90058
 H786 H 0.43719 1.08029 0.92260
 H787 H 0.38045 1.03147 0.97243
 H788 H 0.34110 1.05488 0.95019
 C789 C 0.29963 0.87412 1.11886
 C790 C 0.29808 0.87152 1.14776
 C791 C 0.27454 0.85974 1.16008
 C792 C 0.25224 0.85042 1.14362
 C793 C 0.25409 0.85301 1.11457
 C794 C 0.27763 0.86480 1.10230
 C795 C 0.32354 0.88683 1.10617
 C796 C 0.34335 0.89774 1.09539
 C797 C 0.36671 0.91110 1.08236
 C798 C 0.39386 0.90424 1.09027
 C799 C 0.41649 0.91755 1.07780
 C800 C 0.41224 0.93794 1.05724
 C801 C 0.38482 0.94455 1.04935
 C802 C 0.36226 0.93121 1.06184
 H803 H 0.31501 0.87865 1.16077
 H804 H 0.27387 0.85773 1.18247
 H805 H 0.23712 0.84638 1.10137
 H806 H 0.27856 0.86684 1.07991
 H807 H 0.39752 0.88869 1.10615
 H808 H 0.43728 0.91194 1.08437
 H809 H 0.38074 0.96008 1.03357
 H810 H 0.34133 0.93667 1.05555
 C811 C 0.69962 1.11471 1.12401
 C812 C 0.70057 1.14375 1.12594
 C813 C 0.72373 1.15684 1.13762
 C814 C 0.74627 1.14101 1.14754
 C815 C 0.74504 1.11183 1.14563
 C816 C 0.72186 1.09879 1.13392
 C817 C 0.67603 1.10127 1.11147
 C818 C 0.65642 1.08997 1.10073
 C819 C 0.63318 1.07648 1.08763
 C820 C 0.60598 1.08415 1.09452
 C821 C 0.58342 1.07134 1.08141
 C822 C 0.58780 1.05068 1.06116
 C823 C 0.61527 1.04301 1.05452
 C824 C 0.63776 1.05583 1.06768
 H825 H 0.68344 1.15627 1.11836
 H826 H 0.72393 1.17931 1.13912
 H827 H 0.76220 1.09910 1.15273
 H828 H 0.72139 1.07630 1.13241
 H829 H 0.60221 1.10012 1.10994
 H830 H 0.56260 1.07776 1.08703
 H831 H 0.61944 1.02716 1.03909
 H832 H 0.65873 1.04973 1.06218
 C833 C 0.70059 0.88261 0.87952
 C834 C 0.72237 0.89947 0.87018
 C835 C 0.74560 0.88753 0.85746
 C836 C 0.74736 0.85852 0.85393
 C837 C 0.72532 0.84175 0.86335
 C838 C 0.70209 0.85374 0.87605
 C839 C 0.67688 0.89495 0.89294
 C840 C 0.65716 0.90541 0.90432
 C841 C 0.63381 0.91804 0.91810
 C842 C 0.63822 0.93830 0.93847
 C843 C 0.61563 0.95051 0.95204
 C844 C 0.58824 0.94260 0.94541
 C845 C 0.58403 0.92224 0.92481
 C846 C 0.60669 0.91005 0.91128
 H847 H 0.72147 0.92183 0.87286
 H848 H 0.76238 0.90095 0.85077
 H849 H 0.72593 0.81939 0.86063
 H850 H 0.68533 0.84051 0.88318
 H851 H 0.65913 0.94465 0.94390
 H852 H 0.61967 0.96614 0.96773
 H853 H 0.56326 0.91566 0.91918
 H854 H 0.60305 0.89438 0.89553
   
