data_POSCAR
  _audit_creation_date              2014-09-24
  _audit_creation_method            'ToBaCCo'
  _symmetry_space_group_name_H-M    'P1'
  _symmetry_Int_Tables_number       1
  _symmetry_cell_setting            triclinic
  loop_
  _symmetry_equiv_pos_as_xyz
 x,y,z
_cell_length_a 21.5470
_cell_length_b 18.1115
_cell_length_c 19.2758
_cell_angle_alpha 90.000000
_cell_angle_beta 90.000000
_cell_angle_gamma 90.000000
loop_
  _atom_site_label
  _atom_site_type_symbol
  _atom_site_fract_x
  _atom_site_fract_y
  _atom_site_fract_z
O1 O 0.17055 0.14534 0.27062
 O2 O 0.29124 0.26126 0.35122
 O3 O 0.17460 0.28035 0.30838
 O4 O 0.28400 0.12338 0.30920
 O5 O 0.31730 0.15572 0.20510
 O6 O 0.20927 0.31272 0.20493
 O7 O 0.32567 0.29166 0.24718
 O8 O 0.20468 0.17711 0.16660
 Cu9 Cu 0.22749 0.20022 0.32098
 Cu10 Cu 0.26816 0.23864 0.19598
 C11 C 0.16660 0.14245 0.20499
 C12 C 0.33014 0.29435 0.31271
 C13 C 0.17089 0.32035 0.25447
 C14 C 0.31797 0.11204 0.25643
 O15 O 0.82540 0.28035 0.30838
 O16 O 0.71600 0.12338 0.30920
 O17 O 0.82945 0.14534 0.27062
 O18 O 0.70876 0.26126 0.35122
 O19 O 0.67433 0.29166 0.24718
 O20 O 0.79532 0.17711 0.16660
 O21 O 0.68270 0.15572 0.20510
 O22 O 0.79073 0.31272 0.20493
 Cu23 Cu 0.77251 0.20022 0.32098
 Cu24 Cu 0.73184 0.23864 0.19598
 C25 C 0.82911 0.32035 0.25447
 C26 C 0.68203 0.11204 0.25643
 C27 C 0.83340 0.14245 0.20499
 C28 C 0.66986 0.29435 0.31271
 O29 O 0.70468 0.82289 0.66660
 O30 O 0.82567 0.70834 0.74718
 O31 O 0.70927 0.68728 0.70493
 O32 O 0.81730 0.84428 0.70510
 O33 O 0.78400 0.87662 0.80920
 O34 O 0.67460 0.71965 0.80838
 O35 O 0.79124 0.73874 0.85122
 O36 O 0.67055 0.85466 0.77062
 Cu37 Cu 0.76816 0.76136 0.69598
 Cu38 Cu 0.72749 0.79978 0.82098
 C39 C 0.66660 0.85755 0.70499
 C40 C 0.83014 0.70565 0.81271
 C41 C 0.67089 0.67965 0.75447
 C42 C 0.81797 0.88796 0.75643
 O43 O 0.32945 0.85466 0.77062
 O44 O 0.20876 0.73874 0.85122
 O45 O 0.32540 0.71965 0.80838
 O46 O 0.21600 0.87662 0.80920
 O47 O 0.18270 0.84428 0.70510
 O48 O 0.29073 0.68728 0.70493
 O49 O 0.17433 0.70834 0.74718
 O50 O 0.29532 0.82289 0.66660
 Cu51 Cu 0.27251 0.79978 0.82098
 Cu52 Cu 0.23184 0.76136 0.69598
 C53 C 0.33340 0.85755 0.70499
 C54 C 0.16986 0.70565 0.81271
 C55 C 0.32911 0.67965 0.75447
 C56 C 0.18203 0.88796 0.75643
 C57 C 1.05672 0.06827 0.07669
 C58 C 1.00000 0.07539 0.11163
 C59 C 0.94328 0.06827 0.07669
 C60 C 0.94302 0.04844 0.00605
 C61 C 1.00000 0.03834 -0.02941
 C62 C 1.05698 0.04844 0.00605
 C63 C 1.11299 0.04099 -0.03054
 C64 C 1.11303 0.02514 -0.10127
 C65 C 1.05700 0.01655 -0.13772
 C66 C 1.00000 0.02279 -0.10146
 C67 C 0.88701 0.04099 -0.03054
 C68 C 0.88697 0.02514 -0.10127
 C69 C 0.94300 0.01655 -0.13772
 C70 C 0.94360 0.00490 -0.21011
 C71 C 1.00000 0.00071 -0.24548
 C72 C 1.05640 0.00490 -0.21011
 H73 H 1.15725 0.04804 -0.00473
 H74 H 1.15735 0.02126 -0.12741
 H75 H 0.84275 0.04804 -0.00473
 H76 H 0.84265 0.02126 -0.12741
 H77 H 1.00000 0.09400 0.16498
 H78 H 1.00000 -0.00693 -0.30124
 C79 C 0.44323 0.37102 0.43688
 C80 C 0.50000 0.35155 0.40646
 C81 C 0.55677 0.37102 0.43688
 C82 C 0.55705 0.41295 0.49849
 C83 C 0.50000 0.43479 0.52897
 C84 C 0.44295 0.41295 0.49849
 C85 C 0.38698 0.43532 0.52927
 C86 C 0.38703 0.48064 0.58774
 C87 C 0.44306 0.50423 0.61788
 C88 C 0.50000 0.47989 0.58918
 C89 C 0.61302 0.43532 0.52927
 C90 C 0.61297 0.48064 0.58774
 C91 C 0.55694 0.50423 0.61788
 C92 C 0.55689 0.55384 0.67429
 C93 C 0.50000 0.57660 0.70303
 C94 C 0.44311 0.55384 0.67429
 H95 H 0.34270 0.41930 0.50736
 H96 H 0.34272 0.49760 0.60894
 H97 H 0.65730 0.41930 0.50736
 H98 H 0.65728 0.49760 0.60894
 H99 H 0.50000 0.31747 0.36030
 H100 H 0.50000 0.61798 0.74355
 C101 C 0.05677 0.62898 -0.06312
 C102 C 0.00000 0.64845 -0.09354
 C103 C -0.05677 0.62898 -0.06312
 C104 C -0.05705 0.58705 -0.00151
 C105 C 0.00000 0.56521 0.02897
 C106 C 0.05705 0.58705 -0.00151
 C107 C 0.11302 0.56468 0.02927
 C108 C 0.11297 0.51936 0.08774
 C109 C 0.05694 0.49577 0.11788
 C110 C 0.00000 0.52011 0.08918
 C111 C -0.11302 0.56468 0.02927
 C112 C -0.11297 0.51936 0.08774
 C113 C -0.05694 0.49577 0.11788
 C114 C -0.05689 0.44616 0.17429
 C115 C 0.00000 0.42340 0.20303
 C116 C 0.05689 0.44616 0.17429
 H117 H 0.15730 0.58070 0.00736
 H118 H 0.15728 0.50240 0.10894
 H119 H -0.15730 0.58070 0.00736
 H120 H -0.15728 0.50240 0.10894
 H121 H 0.00000 0.68253 -0.13970
 H122 H 0.00000 0.38202 0.24355
 C123 C 0.55640 0.99510 0.28989
 C124 C 0.50000 0.99929 0.25452
 C125 C 0.44360 0.99510 0.28989
 C126 C 0.44300 0.98345 0.36228
 C127 C 0.50000 0.97721 0.39854
 C128 C 0.55700 0.98345 0.36228
 C129 C 0.61303 0.97486 0.39873
 C130 C 0.61299 0.95901 0.46946
 C131 C 0.55698 0.95156 0.50605
 C132 C 0.50000 0.96166 0.47059
 C133 C 0.38697 0.97486 0.39873
 C134 C 0.38701 0.95901 0.46946
 C135 C 0.44302 0.95156 0.50605
 C136 C 0.44328 0.93173 0.57669
 C137 C 0.50000 0.92461 0.61163
 C138 C 0.55672 0.93173 0.57669
 H139 H 0.65735 0.97874 0.37259
 H140 H 0.65725 0.95196 0.49527
 H141 H 0.34265 0.97874 0.37259
 H142 H 0.34275 0.95196 0.49527
 H143 H 0.50000 1.00693 0.19876
 H144 H 0.50000 0.90600 0.66498
 N145 N 1.11550 0.10475 0.17441
 N146 N 1.11245 0.09438 0.10923
 N147 N 0.61878 0.63157 0.74627
 N148 N 0.61317 0.59212 0.69200
 N149 N -0.11878 0.36843 0.24627
 N150 N -0.11317 0.40788 0.19199
 N151 N 0.38450 0.89525 0.67441
 N152 N 0.38755 0.90562 0.60923
 N153 N -0.11751 0.66944 -0.15740
 N154 N -0.11351 0.65626 -0.09270
 N155 N 0.35376 1.05406 0.25425
 N156 N 0.38756 0.99942 0.25050
 N157 N 1.14624 -0.05406 -0.24575
 N158 N 1.11244 0.00058 -0.24950
 N159 N 0.61751 0.33056 0.34260
 N160 N 0.61351 0.34374 0.40730
 N161 N 0.85376 -0.05406 -0.24575
 N162 N 0.88756 0.00058 -0.24950
 N163 N 0.38249 0.33056 0.34260
 N164 N 0.38649 0.34374 0.40730
 N165 N 0.11751 0.66945 -0.15740
 N166 N 0.11351 0.65626 -0.09270
 N167 N 0.64624 1.05406 0.25425
 N168 N 0.61244 0.99942 0.25050
 N169 N 0.11878 0.36843 0.24627
 N170 N 0.11317 0.40788 0.19199
 N171 N 0.61550 0.89525 0.67441
 N172 N 0.61245 0.90562 0.60923
 N173 N 0.88450 0.10475 0.17441
 N174 N 0.88755 0.09438 0.10923
 N175 N 0.38122 0.63157 0.74627
 N176 N 0.38683 0.59212 0.69199
   
