data_POSCAR
  _audit_creation_date              2014-09-24
  _audit_creation_method            'ToBaCCo'
  _symmetry_space_group_name_H-M    'P1'
  _symmetry_Int_Tables_number       1
  _symmetry_cell_setting            triclinic
  loop_
  _symmetry_equiv_pos_as_xyz
 x,y,z
_cell_length_a 29.1944
_cell_length_b 29.1391
_cell_length_c 29.3374
_cell_angle_alpha 90.172200
_cell_angle_beta 90.047100
_cell_angle_gamma 90.138600
loop_
  _atom_site_label
  _atom_site_type_symbol
  _atom_site_fract_x
  _atom_site_fract_y
  _atom_site_fract_z
N1 N 0.54827 0.09204 0.02272
 N2 N 0.58129 0.11851 0.03891
 N3 N 0.45199 0.09191 -0.02227
 N4 N 0.41882 0.11822 -0.03796
 N5 N 0.45192 0.09161 0.02251
 N6 N 0.41870 0.11772 0.03854
 N7 N 0.54833 0.09234 -0.02206
 N8 N 0.58139 0.11902 -0.03759
 C9 C 0.60170 0.13472 0.00086
 C10 C 0.39831 0.13371 0.00039
 N11 N 0.45227 -0.02263 -0.09279
 N12 N 0.41925 -0.03860 -0.11925
 N13 N 0.54855 0.02285 -0.09219
 N14 N 0.58179 0.03911 -0.11806
 N15 N 0.54860 -0.02223 -0.09260
 N16 N 0.58188 -0.03793 -0.11875
 N17 N 0.45219 0.02245 -0.09240
 N18 N 0.41911 0.03843 -0.11859
 Mn19 Mn 0.50027 0.05775 -0.05758
 C20 C 0.39882 -0.00008 -0.13473
 C21 C 0.60231 0.00076 -0.13403
 N22 N 0.45199 0.02120 0.09129
 N23 N 0.41875 0.03687 0.11751
 N24 N 0.54843 -0.02347 0.09106
 N25 N 0.58156 -0.03946 0.11719
 N26 N 0.54832 0.02162 0.09149
 N27 N 0.58138 0.03757 0.11793
 N28 N 0.45208 -0.02388 0.09089
 N29 N 0.41891 -0.04016 0.11683
 Mn30 Mn 0.50012 0.05697 0.05736
 C31 C 0.39838 -0.00182 0.13284
 C32 C 0.60185 -0.00095 0.13334
 N33 N 0.54869 -0.09246 -0.02380
 N34 N 0.58350 -0.12065 -0.04027
 N35 N 0.45228 -0.09339 0.02078
 N36 N 0.41931 -0.12017 0.03641
 N37 N 0.45228 -0.09286 -0.02396
 N38 N 0.41725 -0.12093 -0.04049
 N39 N 0.54864 -0.09303 0.02093
 N40 N 0.58137 -0.11996 0.03663
 Mn41 Mn 0.50046 -0.05793 -0.05864
 Mn42 Mn 0.50036 -0.05879 0.05627
 Cl43 Cl 0.50031 -0.00049 -0.00065
 C44 C 0.60244 -0.13623 -0.00119
 C45 C 0.39817 -0.13642 -0.00144
 N46 N 0.09153 0.45256 0.02312
 N47 N 0.11763 0.41923 0.03884
 N48 N 0.09163 0.54939 -0.02079
 N49 N 0.11816 0.58262 -0.03623
 N50 N 0.09146 0.54909 0.02399
 N51 N 0.11789 0.58214 0.04028
 N52 N 0.09178 0.45286 -0.02165
 N53 N 0.11807 0.41973 -0.03767
 C54 C 0.13359 0.39902 0.00050
 C55 C 0.13391 0.60281 0.00227
 N56 N -0.02282 0.54936 -0.09094
 N57 N -0.03868 0.58244 -0.11720
 N58 N 0.02238 0.45304 -0.09150
 N59 N 0.03857 0.42024 -0.11806
 N60 N -0.02261 0.45282 -0.09180
 N61 N -0.03831 0.41985 -0.11859
 N62 N 0.02218 0.54955 -0.09066
 N63 N 0.03821 0.58275 -0.11673
 Mn64 Mn 0.05735 0.50122 -0.05649
 C65 C -0.00018 0.60304 -0.13265
 C66 C 0.00030 0.39976 -0.13434
 N67 N 0.02131 0.54839 0.09301
 N68 N 0.03714 0.58143 0.11960
 N69 N -0.02361 0.45171 0.09191
 N70 N -0.03965 0.41846 0.11790
 N71 N 0.02139 0.45188 0.09217
 N72 N 0.03723 0.41873 0.11836
 N73 N -0.02369 0.54825 0.09279
 N74 N -0.03975 0.58121 0.11925
 Mn75 Mn 0.05677 0.50048 0.05843
 C76 C -0.00136 0.60166 0.13536
 C77 C -0.00126 0.39812 0.13378
 N78 N -0.09262 0.45207 -0.02270
 N79 N -0.12087 0.41722 -0.03939
 N80 N -0.09319 0.54839 0.02292
 N81 N -0.11973 0.58131 0.03894
 N82 N -0.09299 0.54864 -0.02185
 N83 N -0.11939 0.58175 -0.03756
 N84 N -0.09312 0.45187 0.02204
 N85 N -0.12004 0.41892 0.03752
 Mn86 Mn -0.05814 0.50073 -0.05718
 Mn87 Mn -0.05876 0.50006 0.05777
 Cl88 Cl -0.00069 0.50064 0.00063
 C89 C -0.13639 0.39799 -0.00043
 C90 C -0.13546 0.60188 0.00079
 N91 N 0.02285 0.09142 0.45102
 N92 N 0.03858 0.11759 0.41784
 N93 N -0.02109 0.09209 0.54735
 N94 N -0.03652 0.11880 0.58033
 N95 N 0.02390 0.09190 0.54691
 N96 N 0.04036 0.11850 0.57959
 N97 N -0.02214 0.09162 0.45150
 N98 N -0.03829 0.11792 0.41867
 C99 C 0.00001 0.13351 0.39792
 C100 C 0.00222 0.13464 0.60020
 N101 N -0.09169 -0.02257 0.54831
 N102 N -0.11777 -0.03827 0.58156
 N103 N -0.09241 0.02204 0.45233
 N104 N -0.11857 0.03797 0.41926
 N105 N -0.09273 -0.02303 0.45243
 N106 N -0.11911 -0.03907 0.41943
 N107 N -0.09138 0.02250 0.54822
 N108 N -0.11724 0.03877 0.58141
 Mn109 Mn -0.05711 0.05742 0.49986
 C110 C -0.13309 0.00042 0.60195
 C111 C -0.13467 -0.00059 0.39903
 N112 N 0.09318 0.02159 0.54632
 N113 N 0.11963 0.03761 0.57927
 N114 N 0.09181 -0.02397 0.45052
 N115 N 0.11774 -0.04023 0.41737
 N116 N 0.09215 0.02111 0.45045
 N117 N 0.11831 0.03680 0.41725
 N118 N 0.09288 -0.02349 0.54640
 N119 N 0.11912 -0.03942 0.57941
 Mn120 Mn 0.05839 0.05686 0.49867
 C121 C 0.13524 -0.00087 0.59962
 C122 C 0.13366 -0.00188 0.39687
 N123 N -0.02348 -0.09314 0.45184
 N124 N -0.04043 -0.12140 0.41728
 N125 N 0.02259 -0.09309 0.54725
 N126 N 0.03871 -0.11918 0.58027
 N127 N -0.02240 -0.09283 0.54772
 N128 N -0.03817 -0.11873 0.58108
 N129 N 0.02148 -0.09361 0.45136
 N130 N 0.03687 -0.12054 0.41849
 Mn131 Mn -0.05793 -0.05827 0.50009
 Mn132 Mn 0.05755 -0.05890 0.49887
 Cl133 Cl 0.00023 -0.00071 0.49938
 C134 C -0.00138 -0.13693 0.39793
 C135 C 0.00037 -0.13459 0.60110
 C136 C 0.63883 0.16707 0.00124
 C137 C 0.66953 0.19482 0.00150
 C138 C 0.70556 0.22862 0.00169
 C139 C 0.72746 0.24053 -0.03909
 C140 C 0.76123 0.27466 -0.03920
 C141 C 0.77324 0.29702 0.00145
 C142 C 0.75164 0.28480 0.04230
 C143 C 0.71787 0.25067 0.04242
 C144 C 0.80672 0.33335 0.00101
 C145 C 0.83427 0.36423 0.00042
 H146 H 0.71811 0.22380 -0.07080
 H147 H 0.77763 0.28393 -0.07100
 H148 H 0.76057 0.30195 0.07391
 H149 H 0.70105 0.24182 0.07412
 C150 C 0.36424 0.83446 -0.00040
 C151 C 0.33321 0.80711 0.00047
 C152 C 0.29670 0.77386 0.00137
 C153 C 0.27385 0.76191 -0.03898
 C154 C 0.23955 0.72832 -0.03841
 C155 C 0.22797 0.70654 0.00252
 C156 C 0.25051 0.71881 0.04296
 C157 C 0.28480 0.75241 0.04239
 C158 C 0.19408 0.67060 0.00274
 C159 C 0.16628 0.63995 0.00267
 H160 H 0.28286 0.77820 -0.07091
 H161 H 0.22245 0.71899 -0.06990
 H162 H 0.24193 0.70208 0.07477
 H163 H 0.30235 0.76130 0.07376
 C164 C 0.36100 0.16566 0.00057
 C165 C 0.33016 0.19308 0.00061
 C166 C 0.29398 0.22653 0.00056
 C167 C 0.27670 0.24342 0.04186
 C168 C 0.24287 0.27733 0.04179
 C169 C 0.22620 0.29448 0.00042
 C170 C 0.24313 0.27724 -0.04088
 C171 C 0.27696 0.24334 -0.04081
 C172 C 0.19283 0.33073 0.00037
 C173 C 0.16547 0.36164 0.00038
 H174 H 0.28972 0.23077 0.07404
 H175 H 0.23011 0.29051 0.07391
 H176 H 0.23058 0.29036 -0.07305
 H177 H 0.29018 0.23061 -0.07293
 C178 C 0.63605 0.83443 -0.00017
 C179 C 0.66678 0.80687 0.00050
 C180 C 0.70294 0.77338 0.00096
 C181 C 0.71544 0.75209 0.04188
 C182 C 0.74941 0.71831 0.04202
 C183 C 0.77101 0.70568 0.00125
 C184 C 0.75882 0.72727 -0.03959
 C185 C 0.72485 0.76105 -0.03973
 C186 C 0.80467 0.66966 0.00111
 C187 C 0.83230 0.63898 0.00096
 H188 H 0.69863 0.76126 0.07352
 H189 H 0.75848 0.70174 0.07377
 H190 H 0.77521 0.71768 -0.07133
 H191 H 0.71537 0.77720 -0.07158
 C192 C -0.00141 0.63871 0.16768
 C193 C -0.00124 0.66933 0.19539
 C194 C -0.00086 0.70527 0.22913
 C195 C 0.04052 0.71887 0.24935
 C196 C 0.04073 0.75259 0.28338
 C197 C -0.00043 0.77284 0.29732
 C198 C -0.04177 0.75955 0.27681
 C199 C -0.04198 0.72582 0.24278
 C200 C -0.00046 0.80627 0.33352
 C201 C -0.00074 0.83377 0.36430
 H202 H 0.07249 0.70310 0.23915
 H203 H 0.07287 0.76253 0.29910
 H204 H -0.07381 0.77490 0.28742
 H205 H -0.07419 0.71546 0.22747
 C206 C 0.00070 0.36299 0.83303
 C207 C 0.00136 0.33268 0.80499
 C208 C 0.00244 0.29720 0.77078
 C209 C 0.02959 0.30286 0.73184
 C210 C 0.03006 0.26900 0.69798
 C211 C 0.00339 0.22930 0.70290
 C212 C -0.02359 0.22348 0.74196
 C213 C -0.02406 0.25738 0.77585
 C214 C 0.00307 0.19517 0.66735
 C215 C 0.00275 0.16720 0.63699
 H216 H 0.05015 0.33355 0.72752
 H217 H 0.05095 0.27391 0.66787
 H218 H -0.04443 0.19296 0.74605
 H219 H -0.04523 0.25270 0.80580
 C220 C -0.00140 0.36092 0.16571
 C221 C -0.00160 0.33021 0.19314
 C222 C -0.00196 0.29424 0.22665
 C223 C 0.03611 0.26547 0.23163
 C224 C 0.03633 0.23167 0.26541
 C225 C -0.00151 0.22653 0.29433
 C226 C -0.03973 0.25503 0.28904
 C227 C -0.03995 0.28879 0.25529
 C228 C -0.00074 0.19299 0.33023
 C229 C -0.00029 0.16551 0.36085
 H230 H 0.06571 0.26946 0.20975
 H231 H 0.06610 0.20990 0.26928
 H232 H -0.06911 0.25144 0.31129
 H233 H -0.06950 0.31094 0.25182
 C234 C -0.00004 0.64015 0.83532
 C235 C 0.00014 0.67078 0.80779
 C236 C 0.00039 0.70665 0.77418
 C237 C -0.04096 0.72577 0.75924
 C238 C -0.04084 0.75924 0.72516
 C239 C 0.00063 0.77373 0.70589
 C240 C 0.04201 0.75496 0.72117
 C241 C 0.04189 0.72149 0.75525
 C242 C 0.00061 0.80675 0.66951
 C243 C 0.00053 0.83383 0.63853
 H244 H -0.07325 0.71443 0.77354
 H245 H -0.07304 0.77341 0.71349
 H246 H 0.07425 0.76581 0.70641
 H247 H 0.07404 0.70683 0.76645
 C248 C 0.36172 -0.00008 0.83316
 C249 C 0.33108 -0.00013 0.80559
 C250 C 0.29514 -0.00022 0.77200
 C251 C 0.27738 -0.04189 0.75574
 C252 C 0.24374 -0.04203 0.72176
 C253 C 0.22773 -0.00050 0.70390
 C254 C 0.24516 0.04117 0.72048
 C255 C 0.27880 0.04131 0.75446
 C256 C 0.19446 -0.00068 0.66768
 C257 C 0.16714 -0.00080 0.63685
 H258 H 0.28987 -0.07421 0.76897
 H259 H 0.23059 -0.07445 0.70910
 H260 H 0.23312 0.07348 0.70683
 H261 H 0.29239 0.07372 0.76669
 C262 C 0.63900 -0.00097 0.16539
 C263 C 0.66968 -0.00096 0.19291
 C264 C 0.70566 -0.00092 0.22647
 C265 C 0.72243 -0.04250 0.24349
 C266 C 0.75605 -0.04244 0.27749
 C267 C 0.77303 -0.00080 0.29459
 C268 C 0.75660 0.04078 0.27724
 C269 C 0.72298 0.04072 0.24325
 C270 C 0.80625 -0.00071 0.33087
 C271 C 0.83351 -0.00065 0.36174
 H272 H 0.70918 -0.07490 0.23086
 H273 H 0.76842 -0.07479 0.29076
 H274 H 0.76940 0.07318 0.29032
 H275 H 0.71016 0.07307 0.23042
 C276 C 0.36105 -0.00214 0.16463
 C277 C 0.33021 -0.00233 0.19191
 C278 C 0.29402 -0.00247 0.22519
 C279 C 0.27867 -0.04401 0.24371
 C280 C 0.24483 -0.04403 0.27744
 C281 C 0.22620 -0.00249 0.29278
 C282 C 0.24122 0.03902 0.27393
 C283 C 0.27505 0.03903 0.24020
 C284 C 0.19283 -0.00237 0.32887
 C285 C 0.16549 -0.00219 0.35963
 H286 H 0.29320 -0.07629 0.23245
 H287 H 0.23358 -0.07632 0.29189
 H288 H 0.22715 0.07134 0.28565
 H289 H 0.28677 0.07137 0.22622
 C290 C 0.63970 0.00105 0.83427
 C291 C 0.67060 0.00120 0.80705
 C292 C 0.70683 0.00126 0.77383
 C293 C 0.72239 0.04278 0.75543
 C294 C 0.75622 0.04271 0.72170
 C295 C 0.77462 0.00113 0.70623
 C296 C 0.75941 -0.04037 0.72497
 C297 C 0.72558 -0.04030 0.75870
 C298 C 0.80791 0.00094 0.67009
 C299 C 0.83518 0.00073 0.63927
 H300 H 0.70802 0.07510 0.76677
 H301 H 0.76763 0.07498 0.70733
 H302 H 0.77329 -0.07273 0.71314
 H303 H 0.71368 -0.07261 0.77259
   
