data_POSCAR
  _audit_creation_date              2014-09-24
  _audit_creation_method            'ToBaCCo'
  _symmetry_space_group_name_H-M    'P1'
  _symmetry_Int_Tables_number       1
  _symmetry_cell_setting            triclinic
  loop_
  _symmetry_equiv_pos_as_xyz
 x,y,z
_cell_length_a 38.7467
_cell_length_b 38.9148
_cell_length_c 39.2236
_cell_angle_alpha 89.747500
_cell_angle_beta 89.634300
_cell_angle_gamma 90.079300
loop_
  _atom_site_label
  _atom_site_type_symbol
  _atom_site_fract_x
  _atom_site_fract_y
  _atom_site_fract_z
N1 N 0.31751 0.24870 0.22245
 N2 N 0.30326 0.27629 0.20918
 C3 C 0.32071 0.28519 0.18062
 C4 C 0.34724 0.26201 0.17605
 C5 C 0.34453 0.23924 0.20298
 H6 H 0.31432 0.30646 0.16397
 H7 H 0.36043 0.21691 0.20753
 Cu8 Cu 0.26254 0.29671 0.23009
 Cu9 Cu 0.29872 0.22567 0.26257
 Cu10 Cu 0.22551 0.26126 0.29963
 N11 N 0.22185 0.31686 0.25125
 N12 N 0.20723 0.30272 0.27825
 C13 C 0.17882 0.32081 0.28665
 C14 C 0.17565 0.34764 0.26375
 C15 C 0.20329 0.34444 0.24166
 H16 H 0.16138 0.31459 0.30740
 H17 H 0.20884 0.36050 0.21973
 N18 N 0.24808 0.21940 0.31735
 N19 N 0.27598 0.20598 0.30319
 C20 C 0.28475 0.17735 0.32046
 C21 C 0.26133 0.17258 0.34660
 C22 C 0.23846 0.19960 0.34406
 H23 H 0.30637 0.16092 0.31433
 H24 H 0.21633 0.20417 0.36034
 H25 H 0.24811 0.24150 0.25623
 H26 H 0.27584 0.26854 0.28409
 N27 N 0.68441 -0.24384 0.21955
 N28 N 0.69892 -0.27078 0.20530
 C29 C 0.68164 -0.27864 0.17663
 C30 C 0.65516 -0.25525 0.17279
 C31 C 0.65760 -0.23352 0.20040
 H32 H 0.68800 -0.29945 0.15953
 H33 H 0.64130 -0.21171 0.20601
 Cu34 Cu 0.73950 -0.29225 0.22532
 Cu35 Cu 0.70183 -0.22348 0.26135
 Cu36 Cu 0.77353 -0.26185 0.29782
 N37 N 0.77939 -0.31396 0.24639
 N38 N 0.79216 -0.30232 0.27512
 C39 C 0.81949 -0.32168 0.28404
 C40 C 0.82418 -0.34653 0.25945
 C41 C 0.79837 -0.34099 0.23592
 H42 H 0.83528 -0.31754 0.30629
 H43 H 0.79397 -0.35537 0.21283
 N44 N 0.75100 -0.22074 0.31703
 N45 N 0.72325 -0.20658 0.30356
 C46 C 0.71437 -0.17885 0.32210
 C47 C 0.73778 -0.17531 0.34816
 C48 C 0.76066 -0.20216 0.34427
 H49 H 0.69315 -0.16177 0.31653
 H50 H 0.78298 -0.20735 0.35985
 H51 H 0.75248 -0.23887 0.25507
 H52 H 0.72367 -0.26790 0.28042
 N53 N 0.68306 0.24740 0.77731
 N54 N 0.69542 0.27622 0.78967
 C55 C 0.67703 0.28488 0.81763
 C56 C 0.65210 0.26005 0.82303
 C57 C 0.65660 0.23664 0.79707
 H58 H 0.68176 0.30713 0.83335
 H59 H 0.64176 0.21349 0.79294
 Cu60 Cu 0.73539 0.29894 0.76926
 Cu61 Cu 0.70194 0.22615 0.73649
 Cu62 Cu 0.77384 0.26444 0.69987
 N63 N 0.77783 0.31787 0.74995
 N64 N 0.79237 0.30471 0.72259
 C65 C 0.82135 0.32243 0.71515
 C66 C 0.82522 0.34782 0.73928
 C67 C 0.79723 0.34430 0.76101
 H68 H 0.83871 0.31692 0.69418
 H69 H 0.79165 0.35958 0.78332
 N70 N 0.75149 0.22341 0.68069
 N71 N 0.72443 0.20842 0.69501
 C72 C 0.71630 0.18014 0.67703
 C73 C 0.73929 0.17734 0.65022
 C74 C 0.76122 0.20510 0.65319
 H75 H 0.69560 0.16247 0.68319
 H76 H 0.78314 0.21096 0.63699
 H77 H 0.75178 0.24425 0.74371
 H78 H 0.72317 0.27026 0.71537
 N79 N 0.31867 -0.24710 0.78075
 N80 N 0.30566 -0.27507 0.79473
 C81 C 0.32345 -0.28256 0.82322
 C82 C 0.34875 -0.25796 0.82719
 C83 C 0.34509 -0.23585 0.79987
 H84 H 0.31807 -0.30389 0.84022
 H85 H 0.36024 -0.21308 0.79455
 Cu86 Cu 0.26587 -0.29849 0.77552
 Cu87 Cu 0.29987 -0.22693 0.73942
 Cu88 Cu 0.22616 -0.26427 0.70686
 N89 N 0.22305 -0.31738 0.75782
 N90 N 0.20754 -0.30384 0.73124
 C91 C 0.17832 -0.32148 0.72510
 C92 C 0.17546 -0.34735 0.74912
 C93 C 0.20418 -0.34411 0.76952
 H94 H 0.16034 -0.31583 0.70486
 H95 H 0.21060 -0.35975 0.79142
 N96 N 0.24881 -0.22416 0.68558
 N97 N 0.27717 -0.21011 0.69779
 C98 C 0.28579 -0.18277 0.67829
 C99 C 0.26164 -0.17948 0.65281
 C100 C 0.23859 -0.20605 0.65809
 H101 H 0.30740 -0.16581 0.68278
 H102 H 0.21567 -0.21126 0.64340
 H103 H 0.25004 -0.24384 0.74931
 H104 H 0.27716 -0.27098 0.72042
 N105 N 0.70134 -0.23066 0.79259
 N106 N 0.71495 -0.25841 0.80622
 C107 C 0.69605 -0.26776 0.83369
 C108 C 0.66943 -0.24457 0.83738
 C109 C 0.67345 -0.22136 0.81097
 H110 H 0.70119 -0.28967 0.84991
 H111 H 0.65729 -0.19942 0.80553
 Cu112 Cu 0.75613 -0.27946 0.78692
 Cu113 Cu 0.72064 -0.20863 0.75209
 Cu114 Cu 0.79268 -0.24669 0.71584
 N115 N 0.79604 -0.30090 0.76555
 N116 N 0.80993 -0.28805 0.73758
 C117 C 0.83682 -0.30766 0.72804
 C118 C 0.83996 -0.33403 0.75133
 C119 C 0.81378 -0.32915 0.77485
 H120 H 0.85306 -0.30301 0.70596
 H121 H 0.80813 -0.34496 0.79693
 N122 N 0.77156 -0.20471 0.69749
 N123 N 0.74395 -0.19025 0.71110
 C124 C 0.73560 -0.16232 0.69250
 C125 C 0.75916 -0.15917 0.66619
 C126 C 0.78158 -0.18631 0.67001
 H127 H 0.71402 -0.14548 0.69757
 H128 H 0.80339 -0.19228 0.65379
 H129 H 0.74219 -0.25287 0.73236
 H130 H 0.77072 -0.22519 0.75897
 N131 N 0.29358 0.22078 0.80121
 N132 N 0.28323 0.25087 0.81241
 C133 C 0.30350 0.26045 0.83848
 C134 C 0.32773 0.23505 0.84362
 C135 C 0.32077 0.21023 0.81966
 H136 H 0.30119 0.28421 0.85249
 H137 H 0.33475 0.18655 0.81567
 Cu138 Cu 0.24474 0.27487 0.79151
 Cu139 Cu 0.27214 0.19829 0.76264
 Cu140 Cu 0.20297 0.23967 0.72503
 N141 N 0.20458 0.29663 0.77132
 N142 N 0.18843 0.28281 0.74536
 C143 C 0.16142 0.30274 0.73691
 C144 C 0.16069 0.33037 0.75877
 C145 C 0.18833 0.32583 0.78028
 H146 H 0.14337 0.29740 0.71670
 H147 H 0.19569 0.34233 0.80111
 N148 N 0.22154 0.19574 0.70835
 N149 N 0.24732 0.17960 0.72331
 C150 C 0.25472 0.15095 0.70566
 C151 C 0.23272 0.14915 0.67828
 C152 C 0.21206 0.17787 0.68057
 H153 H 0.27561 0.13349 0.71130
 H154 H 0.19242 0.18563 0.66267
 H155 H 0.25407 0.24255 0.73910
 H156 H 0.22385 0.22036 0.76934
 N157 N 0.30062 -0.23022 0.20554
 N158 N 0.28593 -0.25709 0.19145
 C159 C 0.30542 -0.26745 0.16484
 C160 C 0.33353 -0.24580 0.16221
 C161 C 0.32977 -0.22249 0.18833
 H162 H 0.29950 -0.28879 0.14830
 H163 H 0.34686 -0.20137 0.19422
 Cu164 Cu 0.24259 -0.27539 0.20909
 Cu165 Cu 0.28088 -0.20691 0.24484
 Cu166 Cu 0.20362 -0.23885 0.27664
 N167 N 0.19925 -0.29310 0.22729
 N168 N 0.18448 -0.27888 0.25400
 C169 C 0.15617 -0.29703 0.26265
 C170 C 0.15301 -0.32390 0.24010
 C171 C 0.18061 -0.32072 0.21791
 H172 H 0.13951 -0.29153 0.28416
 H173 H 0.18710 -0.33791 0.19727
 N174 N 0.22701 -0.19859 0.29609
 N175 N 0.25681 -0.18685 0.28437
 C176 C 0.26682 -0.16013 0.30366
 C177 C 0.24206 -0.15482 0.32847
 C178 C 0.21716 -0.17946 0.32299
 H179 H 0.29041 -0.14567 0.30009
 H180 H 0.19395 -0.18343 0.33795
 H181 H 0.25453 -0.24896 0.26401
 H182 H 0.23032 -0.21979 0.23478
 N183 N 0.70038 0.22958 0.20064
 N184 N 0.71303 0.25867 0.18883
 C185 C 0.69640 0.26732 0.16006
 C186 C 0.67208 0.24229 0.15362
 C187 C 0.67525 0.21866 0.17975
 H188 H 0.70087 0.29062 0.14556
 H189 H 0.65946 0.19608 0.18402
 Cu190 Cu 0.74806 0.28394 0.21334
 Cu191 Cu 0.71499 0.21050 0.24411
 Cu192 Cu 0.79172 0.24321 0.27558
 N193 N 0.79161 0.30125 0.23008
 N194 N 0.80859 0.28541 0.25444
 C195 C 0.83728 0.30346 0.26159
 C196 C 0.83831 0.33180 0.24035
 C197 C 0.80907 0.32969 0.22064
 H198 H 0.85590 0.29668 0.28089
 H199 H 0.80091 0.34769 0.20123
 N200 N 0.76989 0.20100 0.29351
 N201 N 0.74031 0.18904 0.28192
 C202 C 0.73107 0.16125 0.30037
 C203 C 0.75598 0.15555 0.32467
 C204 C 0.78026 0.18104 0.31967
 H205 H 0.70768 0.14656 0.29678
 H206 H 0.80315 0.18527 0.33471
 H207 H 0.74058 0.25164 0.26684
 H208 H 0.76417 0.22703 0.23333
 C209 C 0.28190 -0.01401 0.40483
 C210 C 0.28474 0.02103 0.40723
 C211 C 0.26362 0.03093 0.43401
 N212 N 0.24811 0.00320 0.44818
 C213 C 0.25885 -0.02423 0.43001
 C214 C 0.25816 0.06510 0.44448
 C215 C 0.25280 0.07372 0.47927
 C216 C 0.25148 0.10684 0.49194
 C217 C 0.24830 0.10419 0.52666
 C218 C 0.24746 0.06945 0.53486
 N219 N 0.25109 0.05119 0.50571
 C220 C 0.24573 0.05575 0.56860
 C221 C 0.25189 0.02055 0.57613
 C222 C 0.26371 0.00814 0.60705
 C223 C 0.26467 -0.02688 0.60470
 C224 C 0.25452 -0.03514 0.57193
 N225 N 0.24653 -0.00602 0.55464
 C226 C 0.25048 -0.06884 0.55885
 C227 C 0.24043 -0.07406 0.52465
 C228 C 0.22174 -0.10182 0.51283
 C229 C 0.22109 -0.09920 0.47791
 C230 C 0.23843 -0.06918 0.46917
 N231 N 0.24987 -0.05387 0.49799
 C232 C 0.24657 -0.05786 0.43564
 H233 H 0.29661 -0.03009 0.38770
 H234 H 0.30166 0.03715 0.39200
 H235 H 0.26685 -0.03311 0.49914
 H236 H 0.25465 0.13080 0.47837
 H237 H 0.24912 0.12597 0.54349
 H238 H 0.27201 0.02252 0.62900
 H239 H 0.27182 -0.04361 0.62538
 H240 H 0.20932 -0.11791 0.46153
 H241 H 0.25351 0.02482 0.50394
 H242 H 0.20918 -0.12175 0.52764
 C243 C 0.75061 -0.01028 0.60586
 C244 C 0.74752 0.02467 0.60382
 C245 C 0.74962 0.03344 0.56956
 N246 N 0.75453 0.00476 0.55074
 C247 C 0.75453 -0.02208 0.57284
 C248 C 0.74978 0.06739 0.55626
 C249 C 0.75673 0.07395 0.52133
 C250 C 0.77235 0.10337 0.50875
 C251 C 0.77199 0.10118 0.47391
 C252 C 0.75726 0.06976 0.46573
 N253 N 0.74809 0.05326 0.49502
 C254 C 0.75013 0.05791 0.43224
 C255 C 0.73953 0.02367 0.42667
 C256 C 0.72013 0.01199 0.39957
 C257 C 0.71992 -0.02320 0.40155
 C258 C 0.73800 -0.03188 0.43068
 N259 N 0.74988 -0.00314 0.44598
 C260 C 0.74631 -0.06535 0.44194
 C261 C 0.76057 -0.06984 0.47458
 C262 C 0.78446 -0.09453 0.48388
 C263 C 0.78846 -0.09187 0.51858
 C264 C 0.76701 -0.06556 0.52931
 N265 N 0.75094 -0.05148 0.50222
 C266 C 0.76053 -0.05662 0.56348
 H267 H 0.75155 -0.02466 0.62940
 H268 H 0.74586 0.04126 0.62567
 H269 H 0.73131 -0.03314 0.50307
 H270 H 0.78371 0.12419 0.52298
 H271 H 0.78140 0.12120 0.45731
 H272 H 0.70641 0.02700 0.38084
 H273 H 0.70760 -0.03979 0.38340
 H274 H 0.80566 -0.10719 0.53404
 H275 H 0.73344 0.03084 0.49689
 H276 H 0.79836 -0.11198 0.46743
 C277 C 0.39080 0.25044 -0.01178
 C278 C 0.39283 0.25431 0.02278
 C279 C 0.42734 0.25118 0.03133
 N280 N 0.44631 0.24499 0.00292
 C281 C 0.42410 0.24505 -0.02358
 C282 C 0.44062 0.25096 0.06488
 C283 C 0.47561 0.24291 0.07116
 C284 C 0.48763 0.22671 0.10016
 C285 C 0.52291 0.22631 0.09785
 C286 C 0.53185 0.24125 0.06681
 N287 N 0.50261 0.25115 0.05059
 C288 C 0.56597 0.24810 0.05509
 C289 C 0.57208 0.25846 0.02106
 C290 C 0.59986 0.27753 0.00922
 C291 C 0.59794 0.27777 -0.02569
 C292 C 0.56821 0.25998 -0.03402
 N293 N 0.55245 0.24829 -0.00536
 C294 C 0.55684 0.25166 -0.06709
 C295 C 0.52368 0.23749 -0.07124
 C296 C 0.51429 0.21323 -0.09516
 C297 C 0.47912 0.20913 -0.09219
 C298 C 0.46816 0.23106 -0.06661
 N299 N 0.49562 0.24740 -0.05314
 C300 C 0.43354 0.23764 -0.05767
 H301 H 0.36700 0.25014 -0.02583
 H302 H 0.37073 0.25713 0.03933
 H303 H 0.49483 0.26725 -0.03534
 H304 H 0.47271 0.21560 0.12081
 H305 H 0.53926 0.21627 0.11755
 H306 H 0.61893 0.29113 0.02392
 H307 H 0.61652 0.28994 -0.04234
 H308 H 0.46356 0.19141 -0.10671
 H309 H 0.50126 0.26609 0.02851
 H310 H 0.53101 0.19909 -0.11221
 C311 C 0.61046 0.74397 -0.01347
 C312 C 0.60909 0.74270 0.02141
 C313 C 0.57496 0.74798 0.03069
 N314 N 0.55557 0.75271 0.00249
 C315 C 0.57712 0.74983 -0.02462
 C316 C 0.56246 0.75195 0.06439
 C317 C 0.52784 0.76129 0.07047
 C318 C 0.51673 0.78266 0.09642
 C319 C 0.48136 0.78324 0.09505
 C320 C 0.47182 0.76202 0.06844
 N321 N 0.50038 0.74959 0.05276
 C322 C 0.43755 0.75310 0.06023
 C323 C 0.42776 0.74769 0.02598
 C324 C 0.39452 0.74145 0.01468
 C325 C 0.39596 0.74101 -0.02020
 C326 C 0.42999 0.74717 -0.02933
 N327 N 0.44929 0.75160 -0.00105
 C328 C 0.44242 0.75214 -0.06295
 C329 C 0.47682 0.76243 -0.06890
 C330 C 0.48753 0.78437 -0.09475
 C331 C 0.52290 0.78563 -0.09337
 C332 C 0.53279 0.76426 -0.06684
 N333 N 0.50446 0.75108 -0.05122
 C334 C 0.56716 0.75568 -0.05880
 H335 H 0.63396 0.74258 -0.02825
 H336 H 0.63133 0.74016 0.03760
 H337 H 0.50417 0.73226 -0.03217
 H338 H 0.53247 0.79713 0.11395
 H339 H 0.46470 0.79838 0.11129
 H340 H 0.37100 0.73928 0.02932
 H341 H 0.37378 0.73845 -0.03646
 H342 H 0.53935 0.80115 -0.10966
 H343 H 0.50100 0.73112 0.03355
 H344 H 0.47154 0.79868 -0.11228
 C345 C -0.01279 0.39263 0.24979
 C346 C 0.02224 0.39456 0.25321
 C347 C 0.03107 0.42906 0.25150
 N348 N 0.00233 0.44816 0.24653
 C349 C -0.02462 0.42598 0.24614
 C350 C 0.06519 0.44227 0.25175
 C351 C 0.07206 0.47728 0.24437
 C352 C 0.10201 0.48944 0.22923
 C353 C 0.09986 0.52456 0.22873
 C354 C 0.06796 0.53330 0.24246
 N355 N 0.05113 0.50410 0.25191
 C356 C 0.05595 0.56727 0.24845
 C357 C 0.02153 0.57332 0.25880
 C358 C 0.00987 0.60114 0.27742
 C359 C -0.02547 0.59937 0.27778
 C360 C -0.03428 0.56968 0.26053
 N361 N -0.00545 0.55380 0.24903
 C362 C -0.06794 0.55845 0.25258
 C363 C -0.07259 0.52527 0.23915
 C364 C -0.09738 0.51561 0.21579
 C365 C -0.09472 0.48057 0.21228
 C366 C -0.06831 0.46995 0.23348
 N367 N -0.05419 0.49745 0.24898
 C368 C -0.05927 0.43553 0.24006
 H369 H -0.02714 0.36893 0.24839
 H370 H 0.03891 0.37248 0.25471
 H371 H -0.03575 0.49684 0.26827
 H372 H 0.12319 0.47475 0.21879
 H373 H 0.12028 0.54094 0.21956
 H374 H 0.02502 0.62031 0.29041
 H375 H -0.04208 0.61806 0.28963
 H376 H -0.11006 0.46481 0.19550
 H377 H 0.02829 0.50267 0.26600
 H378 H -0.11481 0.53204 0.20182
 C379 C -0.01214 0.60846 0.75496
 C380 C 0.02301 0.60700 0.75735
 C381 C 0.03197 0.57259 0.75613
 N382 N 0.00331 0.55298 0.75318
 C383 C -0.02373 0.57489 0.75232
 C384 C 0.06585 0.55968 0.75939
 C385 C 0.07208 0.52482 0.76720
 C386 C 0.09926 0.51333 0.78690
 C387 C 0.09719 0.47820 0.78769
 C388 C 0.06890 0.46904 0.76830
 N389 N 0.05299 0.49770 0.75662
 C390 C 0.05921 0.43480 0.76125
 C391 C 0.02429 0.42501 0.75714
 C392 C 0.01207 0.39155 0.75834
 C393 C -0.02294 0.39317 0.75454
 C394 C -0.03131 0.42761 0.75134
 N395 N -0.00235 0.44705 0.75306
 C396 C -0.06464 0.44058 0.74444
 C397 C -0.06963 0.47549 0.73601
 C398 C -0.09439 0.48755 0.71366
 C399 C -0.09266 0.52273 0.71438
 C400 C -0.06676 0.53119 0.73699
 N401 N -0.05198 0.50226 0.74936
 C402 C -0.05828 0.56497 0.74659
 H403 H -0.02689 0.63192 0.75422
 H404 H 0.03960 0.62901 0.76063
 H405 H -0.03366 0.50103 0.76872
 H406 H 0.11799 0.52868 0.80039
 H407 H 0.11409 0.46141 0.80193
 H408 H 0.02632 0.36813 0.76247
 H409 H -0.03970 0.37108 0.75341
 H410 H -0.10811 0.54007 0.69921
 H411 H 0.03272 0.49854 0.73931
 H412 H -0.11131 0.47263 0.69764
 C413 C 0.42627 0.26321 0.13251
 C414 C 0.39647 0.28941 0.13537
 C415 C 0.37222 0.26033 0.14694
 C416 C 0.40172 0.23411 0.14450
 C417 C 0.36188 0.25332 0.10991
 C418 C 0.38665 0.28234 0.09790
 C419 C 0.41612 0.25571 0.09518
 C420 C 0.39160 0.22690 0.10711
 H421 H 0.45234 0.26859 0.14276
 H422 H 0.39819 0.31518 0.14726
 H423 H 0.40815 0.21421 0.16378
 H424 H 0.33511 0.24937 0.10080
 H425 H 0.38060 0.30277 0.07903
 H426 H 0.38961 0.20106 0.09539
 C427 C 0.61443 0.72098 0.09954
 C428 C 0.64157 0.74898 0.10788
 C429 C 0.63119 0.74652 0.14566
 C430 C 0.60455 0.71848 0.13772
 C431 C 0.60385 0.77471 0.14097
 C432 C 0.61396 0.77728 0.10274
 C433 C 0.58712 0.74941 0.09448
 C434 C 0.57689 0.74662 0.13258
 H435 H 0.61864 0.69845 0.08277
 H436 H 0.66843 0.74986 0.09790
 H437 H 0.60087 0.69427 0.15238
 H438 H 0.59928 0.79692 0.15805
 H439 H 0.61776 0.80153 0.08818
 H440 H 0.55055 0.74469 0.14369
 C441 C 0.57245 0.24983 -0.13566
 C442 C 0.59463 0.28160 -0.14505
 C443 C 0.62639 0.25831 -0.14841
 C444 C 0.60455 0.22651 -0.13942
 C445 C 0.63520 0.26380 -0.11070
 C446 C 0.60294 0.28704 -0.10697
 C447 C 0.58118 0.25503 -0.09760
 C448 C 0.61316 0.23189 -0.10131
 H449 H 0.54689 0.24527 -0.14739
 H450 H 0.58723 0.30211 -0.16334
 H451 H 0.60520 0.20147 -0.15283
 H452 H 0.66124 0.26963 -0.10058
 H453 H 0.60185 0.31258 -0.09454
 H454 H 0.62076 0.21133 -0.08315
 C455 C 0.42821 0.74723 -0.13120
 C456 C 0.40185 0.71789 -0.13635
 C457 C 0.37395 0.74470 -0.14423
 C458 C 0.40000 0.77408 -0.13946
 C459 C 0.36357 0.74626 -0.10642
 C460 C 0.39192 0.71948 -0.09818
 C461 C 0.41794 0.74911 -0.09308
 C462 C 0.38986 0.77577 -0.10122
 H463 H 0.45457 0.74667 -0.14240
 H464 H 0.40657 0.69403 -0.15107
 H465 H 0.40339 0.79662 -0.15660
 H466 H 0.33669 0.74572 -0.09645
 H467 H 0.38874 0.69664 -0.08139
 H468 H 0.38496 0.79965 -0.08660
 C469 C 0.10778 0.39358 0.22793
 C470 C 0.14568 0.40306 0.23594
 C471 C 0.14698 0.37320 0.26166
 C472 C 0.10946 0.36351 0.25385
 C473 C 0.13510 0.39698 0.29056
 C474 C 0.13336 0.42715 0.26487
 C475 C 0.09554 0.41764 0.25658
 C476 C 0.09715 0.38780 0.28268
 H477 H 0.09645 0.39220 0.20205
 H478 H 0.16577 0.40955 0.21666
 H479 H 0.09983 0.33704 0.24943
 H480 H 0.14665 0.39813 0.31635
 H481 H 0.14414 0.45287 0.27074
 H482 H 0.07748 0.38160 0.30247
 C483 C 0.13451 0.57448 0.75051
 C484 C 0.13763 0.60371 0.72384
 C485 C 0.14823 0.62847 0.75229
 C486 C 0.14557 0.59957 0.77902
 C487 C 0.11043 0.63855 0.75850
 C488 C 0.09946 0.61332 0.73009
 C489 C 0.09640 0.58439 0.75704
 C490 C 0.10726 0.60933 0.78535
 H491 H 0.14514 0.54835 0.74640
 H492 H 0.15034 0.60157 0.69850
 H493 H 0.16470 0.59378 0.79918
 H494 H 0.10073 0.66518 0.76165
 H495 H 0.08057 0.61896 0.70966
 H496 H 0.09461 0.61156 0.81071
 C497 C -0.10760 0.60520 0.28689
 C498 C -0.11071 0.63704 0.26321
 C499 C -0.14906 0.62865 0.25798
 C500 C -0.14634 0.59733 0.28173
 C501 C -0.14042 0.60637 0.22684
 C502 C -0.10166 0.61453 0.23197
 C503 C -0.09852 0.58297 0.25556
 C504 C -0.13724 0.57468 0.25063
 H505 H -0.09510 0.60432 0.31226
 H506 H -0.09990 0.66290 0.26846
 H507 H -0.16499 0.59043 0.30224
 H508 H -0.15389 0.60673 0.20195
 H509 H -0.08313 0.62162 0.21141
 H510 H -0.14971 0.54935 0.24672
 C511 C -0.10322 0.38845 0.77090
 C512 C -0.14192 0.39804 0.77004
 C513 C -0.14735 0.37184 0.74138
 C514 C -0.10907 0.36175 0.74227
 C515 C -0.13999 0.39941 0.71417
 C516 C -0.13414 0.42596 0.74291
 C517 C -0.09546 0.41607 0.74347
 C518 C -0.10123 0.38964 0.71497
 H519 H -0.08823 0.38401 0.79453
 H520 H -0.15869 0.40149 0.79281
 H521 H -0.09897 0.33507 0.74214
 H522 H -0.15541 0.40384 0.69081
 H523 H -0.14574 0.45197 0.74413
 H524 H -0.08435 0.38624 0.69227
 C525 C 0.28916 0.11858 0.41238
 C526 C 0.28635 0.11392 0.37328
 C527 C 0.26055 0.14387 0.37200
 C528 C 0.26325 0.14885 0.41068
 C529 C 0.23014 0.11895 0.37683
 C530 C 0.25585 0.08866 0.37849
 C531 C 0.25887 0.09346 0.41750
 C532 C 0.23280 0.12344 0.41583
 H533 H 0.31353 0.11830 0.42710
 H534 H 0.30839 0.10988 0.35554
 H535 H 0.26623 0.17393 0.42371
 H536 H 0.20584 0.11940 0.36201
 H537 H 0.25188 0.06440 0.36429
 H538 H 0.21035 0.12736 0.43309
 C539 C 0.73816 0.13569 0.57118
 C540 C 0.71199 0.13798 0.60098
 C541 C 0.74133 0.14893 0.62474
 C542 C 0.76753 0.14706 0.59525
 C543 C 0.74831 0.11131 0.63434
 C544 C 0.71904 0.09997 0.61009
 C545 C 0.74561 0.09776 0.58060
 C546 C 0.77471 0.10905 0.60463
 H547 H 0.73257 0.14677 0.54570
 H548 H 0.68615 0.15018 0.59973
 H549 H 0.78755 0.16656 0.58901
 H550 H 0.75239 0.10146 0.66061
 H551 H 0.69853 0.08091 0.61611
 H552 H 0.80062 0.09702 0.60613
 C553 C 0.25612 -0.13847 0.57311
 C554 C 0.28591 -0.14391 0.59862
 C555 C 0.25934 -0.15123 0.62694
 C556 C 0.22952 -0.14625 0.60177
 C557 C 0.25839 -0.11302 0.63646
 C558 C 0.28490 -0.10533 0.60766
 C559 C 0.25476 -0.09988 0.58257
 C560 C 0.22841 -0.10764 0.61113
 H561 H 0.25675 -0.15043 0.54750
 H562 H 0.30963 -0.15911 0.59369
 H563 H 0.20664 -0.16320 0.59923
 H564 H 0.25945 -0.10273 0.66278
 H565 H 0.30837 -0.08911 0.60986
 H566 H 0.20463 -0.09263 0.61635
 C567 C 0.71066 -0.10503 0.39671
 C568 C 0.73415 -0.10872 0.36480
 C569 C 0.73946 -0.14685 0.37360
 C570 C 0.71591 -0.14352 0.40502
 C571 C 0.77132 -0.13818 0.39505
 C572 C 0.76613 -0.09966 0.38643
 C573 C 0.74274 -0.09597 0.41807
 C574 C 0.74775 -0.13445 0.42681
 H575 H 0.68503 -0.09239 0.39782
 H576 H 0.72846 -0.09828 0.33906
 H577 H 0.69521 -0.16188 0.41245
 H578 H 0.79640 -0.15189 0.39438
 H579 H 0.78688 -0.08146 0.37877
 H580 H 0.75207 -0.14657 0.45206
 C581 C 0.62236 0.72735 -0.09164
 C582 C 0.61557 0.72651 -0.13039
 C583 C 0.64214 0.75539 -0.13557
 C584 C 0.64945 0.75622 -0.09715
 C585 C 0.61389 0.78277 -0.13162
 C586 C 0.58698 0.75381 -0.12607
 C587 C 0.59410 0.75499 -0.08732
 C588 C 0.62091 0.78372 -0.09278
 H589 H 0.62573 0.70405 -0.07558
 H590 H 0.61363 0.70297 -0.14613
 H591 H 0.67546 0.75713 -0.08549
 H592 H 0.61034 0.80564 -0.14822
 H593 H 0.56176 0.75175 -0.13913
 H594 H 0.62305 0.80734 -0.07717
 C595 C 0.37874 0.26504 -0.09020
 C596 C 0.38404 0.26306 -0.12918
 C597 C 0.35610 0.23514 -0.13087
 C598 C 0.35031 0.23711 -0.09221
 C599 C 0.38331 0.20683 -0.12630
 C600 C 0.41162 0.23486 -0.12424
 C601 C 0.40600 0.23657 -0.08520
 C602 C 0.37785 0.20873 -0.08716
 H603 H 0.37695 0.28934 -0.07559
 H604 H 0.38630 0.28544 -0.14670
 H605 H 0.32477 0.23812 -0.07928
 H606 H 0.38518 0.18281 -0.14133
 H607 H 0.43621 0.23498 -0.13886
 H608 H 0.37539 0.18632 -0.06971
 C609 C 0.38180 0.72482 0.09279
 C610 C 0.38786 0.72431 0.13168
 C611 C 0.36144 0.75336 0.13584
 C612 C 0.35484 0.75388 0.09731
 C613 C 0.38998 0.78056 0.13192
 C614 C 0.41676 0.75144 0.12736
 C615 C 0.41033 0.75231 0.08847
 C616 C 0.38365 0.78120 0.09298
 H617 H 0.37856 0.70136 0.07712
 H618 H 0.38932 0.70092 0.14790
 H619 H 0.32905 0.75479 0.08518
 H620 H 0.39345 0.80359 0.14814
 H621 H 0.44175 0.74936 0.14085
 H622 H 0.38196 0.80467 0.07690
 C623 C 0.63549 0.24776 0.07232
 C624 C 0.63885 0.27326 0.10229
 C625 C 0.64520 0.24287 0.12654
 C626 C 0.64228 0.21742 0.09697
 C627 C 0.60641 0.23960 0.13405
 C628 C 0.59967 0.27014 0.10962
 C629 C 0.59625 0.24488 0.07973
 C630 C 0.60313 0.21419 0.10393
 H631 H 0.64958 0.24923 0.04768
 H632 H 0.65361 0.29771 0.10150
 H633 H 0.66012 0.19568 0.09204
 H634 H 0.59461 0.23616 0.15970
 H635 H 0.58206 0.29197 0.11491
 H636 H 0.58956 0.18906 0.10422
 C637 C -0.09203 0.61998 0.72097
 C638 C -0.13144 0.61321 0.72224
 C639 C -0.13483 0.63976 0.75089
 C640 C -0.09588 0.64689 0.74973
 C641 C -0.12988 0.61177 0.77813
 C642 C -0.12607 0.58483 0.74952
 C643 C -0.08678 0.59179 0.74804
 C644 C -0.09054 0.61840 0.77691
 H645 H -0.07630 0.62323 0.69742
 H646 H -0.14862 0.61124 0.69979
 H647 H -0.08370 0.67273 0.74998
 H648 H -0.14551 0.60845 0.80173
 H649 H -0.13944 0.55961 0.75023
 H650 H -0.07371 0.62043 0.79961
 C651 C -0.09111 0.37964 0.26722
 C652 C -0.13045 0.38563 0.26862
 C653 C -0.13507 0.35950 0.23981
 C654 C -0.09603 0.35302 0.23839
 C655 C -0.13189 0.38808 0.21283
 C656 C -0.12689 0.41457 0.24172
 C657 C -0.08751 0.40826 0.24001
 C658 C -0.09238 0.38193 0.21131
 H659 H -0.07464 0.37624 0.29003
 H660 H -0.14640 0.38687 0.29219
 H661 H -0.08360 0.32737 0.23714
 H662 H -0.14887 0.39152 0.19040
 H663 H -0.14069 0.43941 0.24403
 H664 H -0.07653 0.38051 0.18769
 C665 C 0.09482 0.38279 0.79032
 C666 C 0.09580 0.35226 0.76511
 C667 C 0.13456 0.35847 0.75956
 C668 C 0.13402 0.38868 0.78464
 C669 C 0.12719 0.38276 0.72955
 C670 C 0.08811 0.37703 0.73509
 C671 C 0.08718 0.40729 0.76046
 C672 C 0.12624 0.41332 0.75454
 H673 H 0.08134 0.38291 0.81537
 H674 H 0.08352 0.32680 0.76934
 H675 H 0.15313 0.39352 0.80502
 H676 H 0.14078 0.38249 0.70456
 H677 H 0.06942 0.37225 0.71431
 H678 H 0.13954 0.43808 0.74929
 C679 C 0.10591 0.60410 0.21425
 C680 C 0.09775 0.64291 0.21537
 C681 C 0.12679 0.64798 0.24124
 C682 C 0.13554 0.60954 0.24007
 C683 C 0.10149 0.64206 0.27100
 C684 C 0.07210 0.63658 0.24507
 C685 C 0.08068 0.59771 0.24434
 C686 C 0.11005 0.60323 0.27000
 H687 H 0.10736 0.58959 0.18998
 H688 H 0.09295 0.65955 0.19283
 H689 H 0.16190 0.59859 0.23791
 H690 H 0.09956 0.65770 0.29452
 H691 H 0.04667 0.64960 0.24530
 H692 H 0.11517 0.58680 0.29261
 C693 C 0.75893 -0.12398 0.58422
 C694 C 0.78768 -0.12902 0.61099
 C695 C 0.75983 -0.13237 0.63888
 C696 C 0.73117 -0.12767 0.61245
 C697 C 0.76092 -0.09352 0.64538
 C698 C 0.78887 -0.08972 0.61717
 C699 C 0.76032 -0.08480 0.59054
 C700 C 0.73224 -0.08851 0.61846
 H701 H 0.75715 -0.13771 0.55957
 H702 H 0.81057 -0.14586 0.60788
 H703 H 0.70741 -0.14353 0.61079
 H704 H 0.76160 -0.08124 0.67086
 H705 H 0.81267 -0.07395 0.61900
 H706 H 0.70905 -0.07205 0.62143
 C707 C 0.24889 -0.07446 0.36730
 C708 C 0.27360 -0.10551 0.36431
 C709 C 0.24262 -0.12865 0.35620
 C710 C 0.21796 -0.09795 0.35879
 C711 C 0.23724 -0.13693 0.39418
 C712 C 0.26837 -0.11359 0.40269
 C713 C 0.24387 -0.08262 0.40569
 C714 C 0.21264 -0.10569 0.39714
 H715 H 0.25220 -0.04924 0.35443
 H716 H 0.29884 -0.10536 0.35078
 H717 H 0.19719 -0.09176 0.34040
 H718 H 0.23238 -0.16288 0.40506
 H719 H 0.28921 -0.12003 0.42091
 H720 H 0.18680 -0.10535 0.40950
 C721 C 0.72788 0.11253 0.39772
 C722 C 0.75840 0.13721 0.39035
 C723 C 0.75542 0.12898 0.35225
 C724 C 0.72507 0.10448 0.35922
 C725 C 0.78121 0.09936 0.35593
 C726 C 0.78413 0.10702 0.39441
 C727 C 0.75345 0.08258 0.40188
 C728 C 0.75091 0.07449 0.36332
 H729 H 0.70579 0.11804 0.41501
 H730 H 0.76159 0.16327 0.40129
 H731 H 0.70061 0.10329 0.34471
 H732 H 0.80321 0.09420 0.33843
 H733 H 0.80928 0.10768 0.40778
 H734 H 0.74974 0.04941 0.35008
 C735 C 0.21654 0.11268 0.59865
 C736 C 0.20395 0.10358 0.63506
 C737 C 0.23431 0.12396 0.64977
 C738 C 0.24684 0.13358 0.61379
 C739 C 0.25703 0.09167 0.64984
 C740 C 0.22667 0.07098 0.63463
 C741 C 0.23980 0.08038 0.59840
 C742 C 0.26982 0.10108 0.61353
 H743 H 0.19902 0.12138 0.57807
 H744 H 0.17682 0.10493 0.64423
 H745 H 0.25506 0.15964 0.60544
 H746 H 0.27361 0.08276 0.67107
 H747 H 0.21707 0.04567 0.64379
 H748 H 0.29705 0.10003 0.60463
   
