data_POSCAR
  _audit_creation_date              2014-09-24
  _audit_creation_method            'ToBaCCo'
  _symmetry_space_group_name_H-M    'P1'
  _symmetry_Int_Tables_number       1
  _symmetry_cell_setting            triclinic
  loop_
  _symmetry_equiv_pos_as_xyz
 x,y,z
_cell_length_a 41.9272
_cell_length_b 38.1668
_cell_length_c 26.7018
_cell_angle_alpha 90.431100
_cell_angle_beta 89.909600
_cell_angle_gamma 90.237900
loop_
  _atom_site_label
  _atom_site_type_symbol
  _atom_site_fract_x
  _atom_site_fract_y
  _atom_site_fract_z
O1 O 0.23720 0.28123 0.18384
 O2 O 0.29069 0.21627 0.24064
 O3 O 0.23854 0.21261 0.18788
 O4 O 0.28940 0.28406 0.23662
 O5 O 0.26058 0.28576 0.30593
 O6 O 0.20943 0.21494 0.25682
 O7 O 0.26188 0.21765 0.30997
 O8 O 0.20815 0.28201 0.25298
 Cu9 Cu 0.26678 0.24838 0.20519
 Cu10 Cu 0.23223 0.25025 0.28851
 C11 C 0.21335 0.29230 0.20862
 C12 C 0.28555 0.20619 0.28514
 C13 C 0.21501 0.20195 0.21378
 C14 C 0.28383 0.29679 0.27980
 O15 O 0.71186 0.28257 0.23978
 O16 O 0.76480 0.21260 0.19317
 O17 O 0.71194 0.21464 0.24389
 O18 O 0.76512 0.28066 0.18819
 O19 O 0.79122 0.28550 0.25970
 O20 O 0.74040 0.21615 0.31344
 O21 O 0.79380 0.21755 0.26190
 O22 O 0.73862 0.28424 0.31097
 Cu23 Cu 0.73568 0.24741 0.20916
 Cu24 Cu 0.76878 0.25103 0.29359
 C25 C 0.71595 0.29489 0.28365
 C26 C 0.78865 0.20367 0.21930
 C27 C 0.71716 0.20407 0.28806
 C28 C 0.78715 0.29448 0.21444
 O29 O 0.79004 0.71739 0.74358
 O30 O 0.73699 0.78350 0.68844
 O31 O 0.78940 0.78524 0.74072
 O32 O 0.73769 0.71491 0.69102
 O33 O 0.70905 0.71661 0.76055
 O34 O 0.76076 0.78680 0.81018
 O35 O 0.70807 0.78378 0.75771
 O36 O 0.76162 0.71866 0.81331
 Cu37 Cu 0.76634 0.75012 0.70888
 Cu38 Cu 0.73212 0.75160 0.79255
 C39 C 0.78505 0.70708 0.78802
 C40 C 0.71324 0.79447 0.71354
 C41 C 0.78409 0.79778 0.78412
 C42 C 0.71433 0.70414 0.71714
 O43 O 0.23868 0.71594 0.81168
 O44 O 0.28949 0.78549 0.75852
 O45 O 0.23695 0.78410 0.81003
 O46 O 0.29188 0.71763 0.75976
 O47 O 0.26282 0.71331 0.69102
 O48 O 0.20983 0.78274 0.73920
 O49 O 0.26294 0.78145 0.68728
 O50 O 0.21011 0.71478 0.74223
 Cu51 Cu 0.26702 0.75091 0.79209
 Cu52 Cu 0.23365 0.74790 0.70786
 C53 C 0.21543 0.70395 0.78625
 C54 C 0.28513 0.79489 0.71355
 C55 C 0.21408 0.79488 0.78316
 C56 C 0.28670 0.70415 0.71691
 C57 C 1.01869 0.05349 0.12779
 C58 C 0.98597 0.05378 0.12849
 C59 C 0.97607 0.04399 0.08090
 N60 N 1.00158 0.03750 0.05131
 C61 C 1.02769 0.04365 0.07973
 C62 C 0.94425 0.04402 0.06357
 C63 C 0.93535 0.02458 0.02038
 C64 C 0.90747 0.02876 -0.00690
 C65 C 0.90681 0.00243 -0.04239
 C66 C 0.93450 -0.01673 -0.03635
 N67 N 0.95185 -0.00298 0.00166
 C68 C 0.94228 -0.04749 -0.06324
 C69 C 0.97390 -0.05979 -0.06682
 C70 C 0.98284 -0.09256 -0.08450
 C71 C 1.01557 -0.09288 -0.08508
 C72 C 1.02548 -0.06028 -0.06777
 N73 N 0.99999 -0.04013 -0.05651
 C74 C 1.05740 -0.04856 -0.06533
 C75 C 1.06612 -0.01773 -0.03920
 C76 C 1.09395 0.00114 -0.04688
 C77 C 1.09433 0.02766 -0.01167
 C78 C 1.06697 0.02382 0.01721
 N79 N 1.04970 -0.00366 -0.00042
 C80 C 1.05921 0.04341 0.06082
 H81 H 1.03400 0.05961 0.15926
 H82 H 0.97123 0.06024 0.16052
 H83 H 1.02971 -0.01471 0.01663
 H84 H 0.88939 0.04863 -0.00215
 H85 H 0.88812 -0.00202 -0.06965
 H86 H 0.96748 -0.11409 -0.09558
 H87 H 1.03027 -0.11470 -0.09670
 H88 H 1.11274 0.04744 -0.00826
 H89 H 0.97201 -0.01424 0.01758
 H90 H 1.11202 -0.00361 -0.07509
 C91 C 0.51553 0.40831 0.41392
 C92 C 0.48280 0.40864 0.41392
 C93 C 0.47374 0.44145 0.43123
 N94 N 0.49976 0.46114 0.44189
 C95 C 0.52533 0.44095 0.43120
 C96 C 0.44209 0.45374 0.43421
 C97 C 0.43408 0.48456 0.46080
 C98 C 0.40639 0.50363 0.45423
 C99 C 0.40676 0.53003 0.48963
 C100 C 0.43447 0.52598 0.51737
 N101 N 0.45115 0.49843 0.49904
 C102 C 0.44306 0.54560 0.56054
 C103 C 0.47476 0.54574 0.57840
 C104 C 0.48436 0.55602 0.62595
 C105 C 0.51708 0.55581 0.62576
 C106 C 0.52638 0.54542 0.57809
 N107 N 0.50048 0.53896 0.54936
 C108 C 0.55803 0.54499 0.55983
 C109 C 0.56626 0.52509 0.51676
 C110 C 0.59403 0.52865 0.48883
 C111 C 0.59391 0.50209 0.45367
 C112 C 0.56586 0.48343 0.46052
 N113 N 0.54906 0.49769 0.49874
 C114 C 0.55726 0.45263 0.43419
 H115 H 0.53030 0.38643 0.40274
 H116 H 0.46752 0.38706 0.40272
 H117 H 0.52879 0.48684 0.51522
 H118 H 0.38789 0.49907 0.42670
 H119 H 0.38860 0.54985 0.49404
 H120 H 0.46942 0.56280 0.65762
 H121 H 0.53221 0.56240 0.65726
 H122 H 0.61232 0.49717 0.42606
 H123 H 0.47121 0.48724 0.51534
 H124 H 0.61256 0.54824 0.49293
 C125 C -0.01526 0.59627 -0.07179
 C126 C 0.01741 0.59506 -0.07296
 C127 C 0.02591 0.56166 -0.05810
 N128 N -0.00043 0.54248 -0.04774
 C129 C -0.02563 0.56361 -0.05611
 C130 C 0.05732 0.54853 -0.05739
 C131 C 0.06517 0.51641 -0.03474
 C132 C 0.09267 0.49752 -0.04437
 C133 C 0.09211 0.46911 -0.01301
 C134 C 0.06446 0.47168 0.01546
 N135 N 0.04804 0.50048 0.00161
 C136 C 0.05586 0.44907 0.05514
 C137 C 0.02427 0.44740 0.07391
 C138 C 0.01495 0.43075 0.11756
 C139 C -0.01770 0.43172 0.11896
 C140 C -0.02740 0.44976 0.07681
 N141 N -0.00169 0.45917 0.04925
 C142 C -0.05941 0.45433 0.06155
 C143 C -0.06823 0.47770 0.02306
 C144 C -0.09814 0.47926 0.00095
 C145 C -0.09761 0.50712 -0.03136
 C146 C -0.06757 0.52219 -0.02774
 N147 N -0.04984 0.50416 0.00554
 C148 C -0.05788 0.55309 -0.05249
 H149 H -0.02969 0.61872 -0.08120
 H150 H 0.03305 0.61639 -0.08351
 H151 H -0.02782 0.51191 0.01974
 H152 H 0.11114 0.50347 -0.07140
 H153 H 0.11008 0.44889 -0.01167
 H154 H 0.02993 0.41894 0.14566
 H155 H -0.03232 0.42015 0.14785
 H156 H -0.11733 0.51550 -0.05439
 H157 H 0.02819 0.51088 0.01977
 H158 H -0.11861 0.46265 0.00776
 C159 C 0.48562 1.09756 0.42901
 C160 C 0.51830 1.09644 0.42847
 C161 C 0.52677 1.06316 0.44391
 N162 N 0.50040 1.04396 0.45399
 C163 C 0.47521 1.06495 0.44487
 C164 C 0.55821 1.05013 0.44536
 C165 C 0.56598 1.01822 0.46869
 C166 C 0.59358 0.99934 0.45983
 C167 C 0.59288 0.97118 0.49165
 C168 C 0.56504 0.97388 0.51961
 N169 N 0.54864 1.00252 0.50500
 C170 C 0.55619 0.95152 0.55946
 C171 C 0.52442 0.94980 0.57749
 C172 C 0.51471 0.93337 0.62111
 C173 C 0.48203 0.93413 0.62160
 C174 C 0.47273 0.95183 0.57894
 N175 N 0.49869 0.96125 0.55198
 C176 C 0.44090 0.95604 0.56271
 C177 C 0.43236 0.97914 0.52378
 C178 C 0.40269 0.98030 0.50085
 C179 C 0.40334 1.00807 0.46839
 C180 C 0.43323 1.02344 0.47270
 N181 N 0.45073 1.00570 0.50657
 C182 C 0.44297 1.05433 0.44800
 H183 H 0.47121 1.11990 0.41905
 H184 H 0.53397 1.11775 0.41795
 H185 H 0.47254 1.01371 0.52131
 H186 H 0.61222 1.00511 0.43300
 H187 H 0.61088 0.95102 0.49358
 H188 H 0.52944 0.92182 0.64975
 H189 H 0.46709 0.92267 0.65019
 H190 H 0.38382 1.01620 0.44477
 H191 H 0.52862 1.01299 0.52263
 H192 H 0.38231 0.96348 0.50726
 C193 C 1.15243 0.13007 0.15418
 N194 N 1.18075 0.13649 0.13124
 N195 N 1.20131 0.15955 0.15079
 C196 C 1.19449 0.17653 0.19441
 N197 N 1.16641 0.16950 0.21775
 N198 N 1.14563 0.14698 0.19774
 C199 C 1.12862 0.10702 0.13091
 N200 N 1.09728 0.11539 0.13343
 N201 N 1.07548 0.09527 0.11106
 C202 C 1.08398 0.06560 0.08607
 N203 N 1.11544 0.05708 0.08420
 N204 N 1.13738 0.07759 0.10572
 C205 C 0.65003 0.63234 0.65479
 N206 N 0.64090 0.65436 0.69222
 N207 N 0.66171 0.67656 0.71288
 C208 C 0.69231 0.67792 0.69636
 N209 N 0.70149 0.65593 0.65884
 N210 N 0.68076 0.63332 0.63867
 C211 C 0.62652 0.60922 0.63077
 N212 N 0.63542 0.57877 0.60829
 N213 N 0.61375 0.55814 0.58632
 C214 C 0.58248 0.56744 0.58520
 N215 N 0.57383 0.59808 0.60748
 N216 N 0.59534 0.61841 0.63014
 C217 C -0.15175 0.36585 0.15090
 N218 N -0.17406 0.34909 0.12266
 N219 N -0.19426 0.32641 0.14346
 C220 C -0.19264 0.31929 0.19316
 N221 N -0.17032 0.33612 0.22139
 N222 N -0.15037 0.35912 0.20069
 C223 C -0.12873 0.38981 0.12763
 N224 N -0.11195 0.41313 0.15589
 N225 N -0.09036 0.43411 0.13483
 C226 C -0.08445 0.43221 0.08486
 N227 N -0.10124 0.40885 0.05667
 N228 N -0.12311 0.38818 0.07761
 C229 C 0.34783 0.86736 0.64972
 N230 N 0.34655 0.86338 0.70017
 N231 N 0.32634 0.84052 0.72058
 C232 C 0.30647 0.82108 0.69131
 N233 N 0.30753 0.82533 0.64091
 N234 N 0.32794 0.84794 0.62047
 C235 C 0.37114 0.89128 0.62702
 N236 N 0.37809 0.88880 0.57746
 N237 N 0.40011 0.90954 0.55708
 C238 C 0.41579 0.93375 0.58538
 N239 N 0.40862 0.93646 0.63487
 N240 N 0.38681 0.91548 0.65537
 C241 C -0.15050 0.63825 -0.14574
 N242 N -0.17634 0.64988 -0.11989
 N243 N -0.19716 0.67141 -0.14122
 C244 C -0.19290 0.68207 -0.18919
 N245 N -0.16716 0.67028 -0.21511
 N246 N -0.14636 0.64876 -0.19378
 C247 C -0.12693 0.61549 -0.12179
 N248 N -0.10065 0.60485 -0.14735
 N249 N -0.07883 0.58492 -0.12539
 C250 C -0.08245 0.57491 -0.07701
 N251 N -0.10882 0.58544 -0.05149
 N252 N -0.13064 0.60539 -0.07347
 C253 C 0.35031 1.13846 0.35294
 N254 N 0.35462 1.14881 0.30486
 N255 N 0.33372 1.16998 0.28305
 C256 C 0.30773 1.18157 0.30851
 N257 N 0.30331 1.17108 0.35651
 N258 N 0.32421 1.14989 0.37832
 C259 C 0.37395 1.11604 0.37737
 N260 N 0.37000 1.10600 0.42567
 N261 N 0.39184 1.08630 0.44807
 C262 C 0.41846 1.07598 0.42302
 N263 N 0.42232 1.08594 0.37467
 N264 N 0.40049 1.10562 0.35228
 C265 C 1.15128 -0.13359 -0.15768
 N266 N 1.14714 -0.14633 -0.20485
 N267 N 1.16776 -0.16916 -0.22441
 C268 C 1.19322 -0.18019 -0.19742
 N269 N 1.19745 -0.16719 -0.15038
 N270 N 1.17688 -0.14433 -0.13090
 C271 C 1.12774 -0.10987 -0.13501
 N272 N 1.10069 -0.10140 -0.15996
 N273 N 1.07857 -0.08143 -0.13823
 C274 C 1.08267 -0.06921 -0.09075
 N275 N 1.10994 -0.07729 -0.06611
 N276 N 1.13203 -0.09729 -0.08780
 C277 C 0.65165 0.36770 0.34289
 N278 N 0.64738 0.35435 0.29607
 N279 N 0.66814 0.33157 0.27678
 C280 C 0.69387 0.32128 0.30366
 N281 N 0.69823 0.33480 0.35032
 N282 N 0.67751 0.35760 0.36957
 C283 C 0.62796 0.39135 0.36532
 N284 N 0.60095 0.39965 0.34017
 N285 N 0.57871 0.41961 0.36165
 C286 C 0.58265 0.43196 0.40910
 N287 N 0.60987 0.42402 0.43396
 N288 N 0.63209 0.40406 0.41250
 C289 C 0.84649 -0.13016 -0.15603
 N290 N 0.82055 -0.14080 -0.12962
 N291 N 0.79995 -0.16370 -0.14937
 C292 C 0.80454 -0.17681 -0.19626
 N293 N 0.83029 -0.16581 -0.22286
 N294 N 0.85090 -0.14295 -0.20309
 C295 C 0.87036 -0.10682 -0.13311
 N296 N 0.89745 -0.09842 -0.15826
 N297 N 0.92005 -0.07904 -0.13644
 C298 C 0.91642 -0.06737 -0.08860
 N299 N 0.88909 -0.07535 -0.06371
 N300 N 0.86650 -0.09477 -0.08553
 C301 C 0.34690 0.37063 0.34067
 N302 N 0.35164 0.35750 0.29387
 N303 N 0.33114 0.33454 0.27406
 C304 C 0.30516 0.32386 0.30033
 N305 N 0.30025 0.33723 0.34696
 N306 N 0.32075 0.36021 0.36676
 C307 C 0.37062 0.39408 0.36372
 N308 N 0.36647 0.40635 0.41113
 N309 N 0.38891 0.42586 0.43313
 C310 C 0.41640 0.43373 0.40860
 N311 N 0.42034 0.42185 0.36093
 N312 N 0.39789 0.40236 0.33892
 C313 C 0.15206 0.63194 -0.15032
 N314 N 0.14749 0.64387 -0.19750
 N315 N 0.16802 0.66635 -0.21791
 C316 C 0.19386 0.67779 -0.19188
 N317 N 0.19859 0.66570 -0.14478
 N318 N 0.17806 0.64315 -0.12437
 C319 C 0.12840 0.60866 -0.12709
 N320 N 0.10115 0.60014 -0.15182
 N321 N 0.07882 0.58058 -0.12999
 C322 C 0.08289 0.56878 -0.08260
 N323 N 0.11035 0.57688 -0.05809
 N324 N 0.13267 0.59653 -0.07991
 C325 C 0.65343 1.13273 0.35213
 N326 N 0.64904 1.14430 0.30471
 N327 N 0.66969 1.16655 0.28411
 C328 C 0.69548 1.17812 0.31017
 N329 N 0.70002 1.16639 0.35751
 N330 N 0.67936 1.14407 0.37811
 C331 C 0.62963 1.10969 0.37551
 N332 N 0.60248 1.10100 0.35062
 N333 N 0.58004 1.08163 0.37252
 C334 C 0.58388 1.07022 0.42015
 N335 N 0.61123 1.07850 0.44484
 N336 N 0.63367 1.09795 0.42294
 C337 C 0.14817 0.35969 0.14156
 N338 N 0.17948 0.36091 0.12853
 N339 N 0.20040 0.33941 0.14978
 C340 C 0.19080 0.31648 0.18547
 N341 N 0.15957 0.31558 0.19880
 N342 N 0.13860 0.33659 0.17696
 C343 C 0.12479 0.38259 0.11773
 N344 N 0.09423 0.37159 0.11176
 N345 N 0.07262 0.39244 0.09115
 C346 C 0.08049 0.42540 0.07661
 N347 N 0.11118 0.43633 0.08260
 N348 N 0.13298 0.41524 0.10242
 C349 C 0.64820 0.86251 0.64747
 N350 N 0.67949 0.86362 0.63428
 N351 N 0.70038 0.84197 0.65530
 C352 C 0.69076 0.81897 0.69090
 N353 N 0.65956 0.81819 0.70442
 N354 N 0.63862 0.83936 0.68280
 C355 C 0.62484 0.88541 0.62361
 N356 N 0.59429 0.87441 0.61755
 N357 N 0.57276 0.89516 0.59655
 C358 C 0.58069 0.92803 0.58169
 N359 N 0.61136 0.93899 0.58786
 N360 N 0.63309 0.91798 0.60806
 C361 C 0.85346 0.13177 0.15952
 N362 N 0.86265 0.15500 0.19549
 N363 N 0.84176 0.17734 0.21537
 C364 C 0.81104 0.17761 0.19946
 N365 N 0.80183 0.15442 0.16343
 N366 N 0.82262 0.13171 0.14406
 C367 C 0.87687 0.10832 0.13615
 N368 N 0.86759 0.07791 0.11378
 N369 N 0.88895 0.05720 0.09153
 C370 C 0.92030 0.06636 0.09000
 N371 N 0.92940 0.09688 0.11240
 N372 N 0.90818 0.11732 0.13532
 C373 C 0.35169 0.63301 0.65580
 N374 N 0.36083 0.65602 0.69207
 N375 N 0.33988 0.67812 0.71234
 C376 C 0.30914 0.67835 0.69654
 N377 N 0.29997 0.65538 0.66019
 N378 N 0.32084 0.63290 0.64043
 C379 C 0.37518 0.60978 0.63220
 N380 N 0.36609 0.57926 0.60994
 N381 N 0.38759 0.55863 0.58786
 C382 C 0.41890 0.56798 0.58641
 N383 N 0.42779 0.59866 0.60858
 N384 N 0.40643 0.61901 0.63133
   
