data_POSCAR
  _audit_creation_date              2014-09-24
  _audit_creation_method            'ToBaCCo'
  _symmetry_space_group_name_H-M    'P1'
  _symmetry_Int_Tables_number       1
  _symmetry_cell_setting            triclinic
  loop_
  _symmetry_equiv_pos_as_xyz
 x,y,z
_cell_length_a 22.0878
_cell_length_b 22.1242
_cell_length_c 27.8685
_cell_angle_alpha 89.836900
_cell_angle_beta 90.500500
_cell_angle_gamma 89.932000
loop_
  _atom_site_label
  _atom_site_type_symbol
  _atom_site_fract_x
  _atom_site_fract_y
  _atom_site_fract_z
B1 B 0.26312 0.20340 0.20631
 B2 B 0.30367 0.26669 0.21579
 B3 B 0.23126 0.27112 0.19679
 B4 B 0.19144 0.21609 0.22348
 B5 B 0.24008 0.17639 0.25970
 B6 B 0.31006 0.20783 0.25436
 B7 B 0.23437 0.29331 0.29180
 B8 B 0.19381 0.22984 0.28243
 B9 B 0.26608 0.22553 0.30147
 B10 B 0.30604 0.28046 0.27474
 B11 B 0.25741 0.32018 0.23845
 B12 B 0.18737 0.28869 0.24391
 B13 B 0.72272 0.76593 0.30053
 B14 B 0.79678 0.76260 0.28829
 B15 B 0.75619 0.69896 0.29062
 B16 B 0.68711 0.71350 0.26728
 B17 B 0.68590 0.78809 0.25059
 B18 B 0.75442 0.81876 0.26445
 B19 B 0.77251 0.73017 0.19794
 B20 B 0.69863 0.73346 0.21021
 B21 B 0.73925 0.79718 0.20798
 B22 B 0.80828 0.78252 0.23120
 B23 B 0.80945 0.70794 0.24783
 B24 B 0.74098 0.67730 0.23411
 B25 B 0.72573 0.22786 -0.20068
 B26 B 0.73034 0.30027 -0.21808
 B27 B 0.79367 0.25989 -0.20807
 B28 B 0.78142 0.18881 -0.22683
 B29 B 0.70903 0.18524 -0.24893
 B30 B 0.67721 0.25491 -0.24282
 B31 B 0.77319 0.26531 -0.30331
 B32 B 0.76856 0.19295 -0.28586
 B33 B 0.70529 0.23341 -0.29598
 B34 B 0.71750 0.30447 -0.27715
 B35 B 0.78985 0.30803 -0.25510
 B36 B 0.82168 0.23835 -0.26118
 B37 B 0.29698 0.75926 -0.29049
 B38 B 0.23403 0.80067 -0.28507
 B39 B 0.22895 0.72810 -0.30229
 B40 B 0.28177 0.68872 -0.27207
 B41 B 0.32008 0.73755 -0.23534
 B42 B 0.29027 0.80766 -0.24415
 B43 B 0.20104 0.73527 -0.20828
 B44 B 0.26387 0.69372 -0.21383
 B45 B 0.26899 0.76621 -0.19652
 B46 B 0.21621 0.80577 -0.22676
 B47 B 0.17785 0.75690 -0.26345
 B48 B 0.20764 0.68683 -0.25462
 B49 B 1.23468 1.27767 0.69838
 B50 B 1.22933 1.20327 0.70869
 B51 B 1.29716 1.23653 0.70943
 B52 B 1.28959 1.30543 0.73406
 B53 B 1.21494 1.31409 0.74861
 B54 B 1.17734 1.25022 0.73202
 B55 B 1.26108 1.21893 0.80052
 B56 B 1.26646 1.29312 0.79017
 B57 B 1.19850 1.25985 0.78932
 B58 B 1.20625 1.19097 0.76480
 B59 B 1.28088 1.18237 0.75035
 B60 B 1.31844 1.24617 0.76675
 B61 B 0.76903 0.73245 0.80267
 B62 B 0.69595 0.73090 0.78487
 B63 B 0.73292 0.79720 0.78839
 B64 B 0.80460 0.78604 0.77069
 B65 B 0.81196 0.71152 0.75597
 B66 B 0.74428 0.67727 0.76537
 B67 B 0.72773 0.76322 0.69543
 B68 B 0.80093 0.76472 0.71317
 B69 B 0.76400 0.69852 0.70959
 B70 B 0.69232 0.70956 0.72736
 B71 B 0.68492 0.78408 0.74215
 B72 B 0.75263 0.81833 0.73264
 B73 B 1.23245 0.70186 0.29004
 B74 B 1.19761 0.76841 0.28257
 B75 B 1.27072 0.76634 0.29990
 B76 B 1.30402 0.70882 0.27142
 B77 B 1.25075 0.67443 0.23589
 B78 B 1.18411 0.71162 0.24348
 B79 B 1.26514 0.79099 0.20514
 B80 B 1.30010 0.72457 0.21279
 B81 B 1.22702 0.72658 0.19536
 B82 B 1.19357 0.78413 0.22385
 B83 B 1.24688 0.81855 0.25931
 B84 B 1.31348 0.78137 0.25173
 B85 B 0.76225 1.26829 0.30387
 B86 B 0.76126 1.19530 0.28786
 B87 B 0.69683 1.23495 0.28795
 B88 B 0.71193 1.30560 0.26916
 B89 B 0.78770 1.30883 0.25724
 B90 B 0.81845 1.23997 0.26954
 B91 B 0.73563 1.22572 0.19685
 B92 B 0.73669 1.29873 0.21277
 B93 B 0.80113 1.25908 0.21272
 B94 B 0.78599 1.18847 0.23151
 B95 B 0.71023 1.18524 0.24347
 B96 B 0.67947 1.25410 0.23115
 O97 O 0.57867 1.11450 0.08352
 O98 O 0.64928 1.06357 0.03881
 C99 C 0.63376 1.10341 0.07091
 O100 O 0.42234 0.89034 0.08576
 O101 O 0.35112 0.94304 0.04161
 C102 C 0.36689 0.90454 0.07474
 O103 O 0.58923 0.90256 0.08913
 O104 O 0.65475 0.95959 0.04396
 C105 C 0.64292 0.92124 0.07851
 O106 O 0.41341 1.10914 0.08233
 O107 O 0.34672 1.04812 0.04120
 C108 C 0.35952 1.08967 0.07292
 Zr109 Zr 0.49703 1.07745 0.05787
 O110 O 0.49952 1.06647 0.13328
 O111 O 0.49187 1.17268 0.06339
 Zr112 Zr 0.50457 0.92673 0.06010
 O113 O 0.50474 0.93452 0.13574
 O114 O 0.50596 0.83093 0.06213
 O115 O 0.55564 1.00522 0.06785
 O116 O 0.44771 0.99980 0.06780
 O117 O 0.41052 1.10479 -0.08846
 O118 O 0.34495 1.04987 -0.04184
 C119 C 0.35690 1.09052 -0.07454
 O120 O 0.58540 0.89769 -0.08941
 O121 O 0.65215 0.95882 -0.04844
 C122 C 0.63897 0.91855 -0.08122
 O123 O 0.42232 0.88314 -0.08353
 O124 O 0.35107 0.93477 -0.03990
 C125 C 0.36724 0.89317 -0.07064
 O126 O 0.57553 1.10995 -0.09048
 O127 O 0.64794 1.06367 -0.04316
 C128 C 0.63082 1.10155 -0.07653
 Zr129 Zr 0.49463 1.07483 -0.06309
 O130 O 0.48760 1.06937 -0.13886
 O131 O 0.49427 1.17057 -0.06522
 Zr132 Zr 0.50277 0.92378 -0.05993
 O133 O 0.49450 0.92051 -0.13565
 O134 O 0.51399 0.82884 -0.05480
 Zr135 Zr 0.59155 1.00593 -0.00201
 Zr136 Zr 0.40803 0.99667 -0.00109
 O137 O 0.44503 0.99633 -0.07018
 O138 O 0.55302 1.00215 -0.07142
 O139 O 0.44111 1.08595 -0.00249
 O140 O 0.55835 0.91706 -0.00006
 O141 O 0.54751 1.09039 -0.00306
 O142 O 0.44975 0.91092 0.00055
 H143 H 0.42208 0.99932 0.09680
 H144 H 0.58872 0.88411 -0.00004
 H145 H 0.41703 0.99395 -0.09808
 H146 H 0.57143 1.12821 -0.00355
 H147 H 0.54345 0.81659 0.04670
 H148 H 0.48385 0.81349 -0.03169
 H149 H 0.52323 0.95013 -0.14913
 H150 H 0.52586 1.05232 -0.15115
 H151 H 0.46132 1.18474 -0.04417
 H152 H 0.50129 1.18956 0.03149
 H153 H 0.49566 1.10753 0.14704
 H154 H 0.50468 0.89272 0.14867
 O155 O 1.07491 0.60786 0.58659
 O156 O 1.14599 0.55974 0.54045
 C157 C 1.13000 0.59882 0.57321
 O158 O 0.92295 0.38269 0.58623
 O159 O 0.85007 0.43063 0.54040
 C160 C 0.86766 0.39091 0.57226
 O161 O 1.08702 0.39764 0.59059
 O162 O 1.15233 0.45055 0.54240
 C163 C 1.14060 0.41172 0.57650
 O164 O 0.91042 0.60259 0.58424
 O165 O 0.84420 0.53924 0.54480
 C166 C 0.85689 0.58130 0.57627
 Zr167 Zr 0.99398 0.57377 0.55761
 O168 O 0.99544 0.58509 0.63301
 O169 O 0.98935 0.66808 0.54569
 Zr170 Zr 1.00299 0.42240 0.56169
 O171 O 0.99831 0.42645 0.63751
 O172 O 1.01545 0.32744 0.56365
 O173 O 1.05313 0.50142 0.56901
 O174 O 0.94565 0.49490 0.56882
 O175 O 0.90715 0.59684 0.41111
 O176 O 0.84205 0.53887 0.45581
 C177 C 0.85349 0.57829 0.42197
 O178 O 1.08357 0.39372 0.41168
 O179 O 1.15047 0.45236 0.45475
 C180 C 1.13743 0.41289 0.42146
 O181 O 0.91876 0.37847 0.41793
 O182 O 0.84789 0.43033 0.46168
 C183 C 0.86370 0.38920 0.43073
 O184 O 1.07411 0.59911 0.40723
 O185 O 1.14566 0.55095 0.45410
 C186 C 1.12962 0.58587 0.41867
 Zr187 Zr 0.99201 0.56991 0.43823
 O188 O 0.98462 0.57364 0.36253
 O189 O 0.99289 0.66562 0.44146
 Zr190 Zr 1.00034 0.41763 0.44164
 O191 O 0.99215 0.41084 0.36609
 O192 O 1.01315 0.32291 0.44767
 Zr193 Zr 1.08900 0.50044 0.49924
 Zr194 Zr 0.90553 0.49039 0.50012
 O195 O 0.94351 0.49042 0.43111
 O196 O 1.04955 0.49626 0.43002
 O197 O 0.93677 0.58047 0.49800
 O198 O 1.05557 0.41160 0.50141
 O199 O 1.04630 0.58559 0.49732
 O200 O 0.94816 0.40502 0.50223
 H201 H 0.91969 0.49254 0.59755
 H202 H 1.08478 0.37757 0.50147
 H203 H 0.91687 0.48729 0.40244
 H204 H 1.07190 0.62230 0.49582
 H205 H 0.98347 0.30894 0.54347
 H206 H 0.97626 0.30528 0.46190
 H207 H 1.01874 0.44188 0.35187
 H208 H 1.01134 0.54186 0.34962
 H209 H 0.95431 0.67893 0.45588
 H210 H 0.99019 0.68714 0.57782
 H211 H 0.97920 0.54776 0.64752
 H212 H 1.02901 0.45595 0.64862
 O213 O 0.88949 0.41005 -0.08393
 O214 O 0.94870 0.34327 -0.04088
 C215 C 0.90849 0.35616 -0.07403
 O216 O 1.09537 0.58239 -0.09181
 O217 O 1.04107 0.64979 -0.04647
 C218 C 1.07898 0.63662 -0.08059
 O219 O 1.09279 0.41519 -0.09517
 O220 O 1.04661 0.34575 -0.04612
 C221 C 1.07928 0.36023 -0.08302
 O222 O 0.87516 0.57419 -0.07881
 O223 O 0.93328 0.64538 -0.03983
 C224 C 0.88900 0.62945 -0.06859
 Zr225 Zr 0.91535 0.49340 -0.05467
 O226 O 0.90220 0.49690 -0.12991
 O227 O 0.82154 0.48658 -0.04133
 Zr228 Zr 1.06680 0.49849 -0.06450
 O229 O 1.05475 0.50076 -0.13987
 O230 O 1.16240 0.49458 -0.06985
 O231 O 0.99205 0.44225 -0.06843
 O232 O 0.98824 0.54882 -0.06881
 O233 O 0.89225 0.57635 0.09004
 O234 O 0.93876 0.64654 0.04159
 C235 C 0.90075 0.63107 0.07515
 O236 O 1.11562 0.41902 0.08216
 O237 O 1.06342 0.34764 0.03858
 C238 C 1.10471 0.36398 0.06978
 O239 O 1.11476 0.58203 0.07832
 O240 O 1.05345 0.64971 0.03809
 C241 C 1.09867 0.63615 0.06709
 O242 O 0.90558 0.41187 0.09628
 O243 O 0.95893 0.34447 0.05024
 C244 C 0.92341 0.35784 0.08592
 Zr245 Zr 0.92848 0.49475 0.06467
 O246 O 0.93683 0.50174 0.14020
 O247 O 0.83321 0.48503 0.06848
 Zr248 Zr 1.07931 0.49975 0.05546
 O249 O 1.07966 0.50236 0.13135
 O250 O 1.17494 0.49737 0.05075
 Zr251 Zr 1.00102 0.40498 0.00094
 Zr252 Zr 0.99449 0.58873 -0.00054
 O253 O 1.00292 0.55104 0.06846
 O254 O 1.00712 0.44293 0.06996
 O255 O 0.90837 0.54831 0.00516
 O256 O 1.08625 0.44646 -0.00502
 O257 O 0.91273 0.43960 0.00598
 O258 O 1.08324 0.55417 -0.00566
 H259 H 0.98392 0.57473 -0.09769
 H260 H 1.12289 0.42086 -0.00786
 H261 H 1.00447 0.57866 0.09637
 H262 H 0.87903 0.41019 0.00811
 H263 H 1.17920 0.53069 -0.05369
 H264 H 1.18715 0.52880 0.02748
 H265 H 1.12270 0.50271 0.14178
 H266 H 0.97021 0.47464 0.15046
 H267 H 0.81471 0.51617 0.04739
 H268 H 0.80142 0.48414 -0.07319
 H269 H 0.94031 0.48272 -0.14452
 H270 H 1.09582 0.50098 -0.15397
 O271 O 0.38591 0.91272 0.41454
 O272 O 0.44252 0.84511 0.45898
 C273 C 0.40060 0.85857 0.42697
 O274 O 0.59473 1.08358 0.40650
 O275 O 0.53826 1.15079 0.45037
 C276 C 0.57646 1.13762 0.41644
 O277 O 0.59763 0.91804 0.40560
 O278 O 0.55252 0.84810 0.45509
 C279 C 0.58913 0.86331 0.42050
 O280 O 0.37518 1.07560 0.41937
 O281 O 0.43017 1.14702 0.46076
 C282 C 0.38703 1.13066 0.43116
 Zr283 Zr 0.41573 0.99487 0.44225
 O284 O 0.41562 0.99710 0.36632
 O285 O 0.32047 0.98563 0.44650
 Zr286 Zr 0.56666 0.99998 0.43446
 O287 O 0.55880 1.00351 0.35872
 O288 O 0.66249 0.99770 0.43138
 O289 O 0.49222 0.94243 0.42949
 O290 O 0.48821 1.05053 0.42919
 O291 O 0.39629 1.08062 0.59031
 O292 O 0.44618 1.14962 0.54325
 C293 C 0.41099 1.13554 0.57871
 O294 O 0.61387 0.92001 0.58156
 O295 O 0.55906 0.84902 0.53958
 C296 C 0.60106 0.86483 0.57038
 O297 O 0.60977 1.08465 0.57909
 O298 O 0.54872 1.15128 0.53759
 C299 C 0.59088 1.13853 0.56920
 O300 O 0.40455 0.91363 0.59437
 O301 O 0.45599 0.84564 0.54741
 C302 C 0.42056 0.85923 0.58311
 Zr303 Zr 0.42545 0.99669 0.56174
 O304 O 0.42091 0.99939 0.63742
 O305 O 0.32985 0.98885 0.55842
 Zr306 Zr 0.57798 1.00115 0.55414
 O307 O 0.58730 1.00613 0.62974
 O308 O 0.67318 0.99916 0.54518
 Zr309 Zr 0.49962 0.90617 0.49922
 Zr310 Zr 0.49352 1.08992 0.49772
 O311 O 0.50104 1.05086 0.56665
 O312 O 0.50448 0.94518 0.56817
 O313 O 0.40684 1.05030 0.50228
 O314 O 0.58505 0.94786 0.49423
 O315 O 0.41141 0.94167 0.50318
 O316 O 0.58259 1.05611 0.49330
 H317 H 0.48358 1.07656 0.40040
 H318 H 0.62217 0.92277 0.49281
 H319 H 0.50350 1.07597 0.59594
 H320 H 0.37697 0.91318 0.50549
 H321 H 0.67817 1.03423 0.44766
 H322 H 0.68554 1.03785 0.53034
 H323 H 0.56094 0.97469 0.64379
 H324 H 0.46301 1.00237 0.64938
 H325 H 0.31274 1.02975 0.55326
 H326 H 0.30557 1.01676 0.46892
 H327 H 0.37263 0.99706 0.35576
 H328 H 0.52783 0.97354 0.34904
 O329 O 0.86976 1.08626 0.43827
 O330 O 0.92431 1.03378 0.38209
 C331 C 0.88021 1.06869 0.39505
 O332 O 1.10512 1.11113 0.55516
 O333 O 1.05953 1.05361 0.61347
 C334 C 1.09917 1.09259 0.59868
 O335 O 1.08222 1.11810 0.42621
 O336 O 1.02677 1.05686 0.37602
 C337 C 1.06229 1.10287 0.38445
 O338 O 0.87827 1.08438 0.56936
 O339 O 0.94588 1.03729 0.62037
 C340 C 0.89735 1.06898 0.61145
 Zr341 Zr 0.91164 1.05938 0.50256
 O342 O 0.89796 1.15403 0.50661
 O343 O 0.81800 1.04003 0.50594
 Zr344 Zr 1.06047 1.08243 0.49328
 O345 O 1.03659 1.17485 0.49997
 O346 O 1.15179 1.10796 0.48382
 O347 O 0.97970 1.08176 0.45451
 O348 O 0.98903 1.08269 0.54063
 O349 O 0.90957 0.87738 0.57105
 O350 O 0.96844 0.93555 0.62119
 C351 C 0.93043 0.89178 0.61271
 O352 O 1.10684 0.89441 0.42784
 O353 O 1.04187 0.94507 0.37684
 C354 C 1.08325 0.90493 0.38601
 O355 O 1.12819 0.90886 0.56038
 O356 O 1.07007 0.95839 0.61605
 C357 C 1.11596 0.92560 0.60378
 O358 O 0.90942 0.86607 0.44096
 O359 O 0.94715 0.92940 0.38287
 C360 C 0.92015 0.88056 0.39715
 Zr361 Zr 0.93482 0.90953 0.50393
 O362 O 0.94836 0.81510 0.51093
 O363 O 0.83972 0.89712 0.50331
 Zr364 Zr 1.08539 0.93245 0.49460
 O365 O 1.11157 0.84050 0.49723
 O366 O 1.17752 0.95448 0.48333
 Zr367 Zr 0.99078 0.99401 0.42669
 Zr368 Zr 1.00523 0.99679 0.57027
 O369 O 1.01615 0.91023 0.54075
 O370 O 1.00750 0.90826 0.45756
 O371 O 0.91571 0.98343 0.54671
 O372 O 1.07991 1.00791 0.45101
 O373 O 0.90794 0.98129 0.46193
 O374 O 1.08879 1.00977 0.53534
 H375 H 0.98664 1.11710 0.56326
 H376 H 1.11204 1.01173 0.42659
 H377 H 1.02380 0.87533 0.56233
 H378 H 0.87076 0.97369 0.44272
 H379 H 1.17589 1.07031 0.48430
 H380 H 1.19362 0.97236 0.51336
 H381 H 1.07631 0.81722 0.50850
 H382 H 0.97877 0.80299 0.48690
 H383 H 0.82244 0.92556 0.52688
 H384 H 0.79668 1.07950 0.50624
 H385 H 0.91677 1.17254 0.47803
 H386 H 1.02078 1.18889 0.46852
 O387 O 0.39510 0.38139 -0.05705
 O388 O 0.43986 0.43919 -0.11560
 C389 C 0.40020 0.40038 -0.10053
 O390 O 0.39246 0.59751 0.07008
 O391 O 0.45829 0.54798 0.12106
 C392 C 0.41636 0.58750 0.11183
 O393 O 0.37094 0.58430 -0.06148
 O394 O 0.42870 0.53498 -0.11736
 C395 C 0.38283 0.56760 -0.10483
 O396 O 0.41917 0.37399 0.07162
 O397 O 0.47335 0.43639 0.12189
 C398 C 0.43823 0.39005 0.11345
 Zr399 Zr 0.43985 0.41048 0.00473
 O400 O 0.34839 0.38463 0.01322
 O401 O 0.46653 0.31885 0.00120
 Zr402 Zr 0.41472 0.56027 0.00339
 O403 O 0.32255 0.53805 0.01433
 O404 O 0.38943 0.65258 0.00191
 O405 O 0.41142 0.48296 -0.03735
 O406 O 0.42037 0.48493 0.04704
 O407 O 0.63040 0.40679 0.05968
 O408 O 0.57593 0.45955 0.11578
 C409 C 0.61997 0.42450 0.10291
 O410 O 0.58972 0.61576 -0.07357
 O411 O 0.53109 0.55723 -0.12365
 C412 C 0.56875 0.60132 -0.11519
 O413 O 0.58966 0.62778 0.05642
 O414 O 0.55265 0.56437 0.11476
 C415 C 0.57899 0.61352 0.10029
 O416 O 0.62159 0.40840 -0.07163
 O417 O 0.55389 0.45531 -0.12276
 C418 C 0.60246 0.42368 -0.11378
 Zr419 Zr 0.58844 0.43371 -0.00468
 O420 O 0.68199 0.45344 -0.00828
 O421 O 0.60252 0.33908 -0.00800
 Zr422 Zr 0.56515 0.58336 -0.00636
 O423 O 0.66034 0.59518 -0.00573
 O424 O 0.55216 0.67784 -0.01344
 Zr425 Zr 0.49468 0.49587 -0.07264
 Zr426 Zr 0.50942 0.49917 0.07118
 O427 O 0.59219 0.51188 0.03587
 O428 O 0.58422 0.50943 -0.04909
 O429 O 0.52053 0.41146 0.04345
 O430 O 0.48375 0.58239 -0.04306
 O431 O 0.51103 0.41009 -0.04280
 O432 O 0.49256 0.58472 0.04015
 H433 H 0.38830 0.48098 0.07150
 H434 H 0.47597 0.61723 -0.06464
 H435 H 0.62928 0.51963 0.05514
 H436 H 0.51331 0.37549 -0.06525
 H437 H 0.42202 0.67522 -0.01416
 H438 H 0.51958 0.68954 0.00886
 H439 H 0.67733 0.56793 -0.03031
 H440 H 0.70347 0.41406 -0.00859
 H441 H 0.58065 0.32058 0.01918
 H442 H 0.42864 0.29495 0.00155
 H443 H 0.32509 0.42202 0.01890
 H444 H 0.30731 0.51781 -0.01502
 C445 C 0.27265 1.15829 0.16260
 C446 C 0.22706 1.12384 0.14200
 C447 C 0.25265 1.09492 0.10405
 C448 C 0.31191 1.11386 0.10400
 O449 O 0.32424 1.15209 0.13945
 H450 H 0.18041 1.12039 0.15320
 H451 H 0.23114 1.06293 0.08007
 C452 C 0.77610 0.64780 0.67031
 C453 C 0.73935 0.59788 0.66330
 C454 C 0.76160 0.56884 0.62406
 C455 C 0.81073 0.60255 0.61008
 O456 O 0.81982 0.65025 0.63820
 H457 H 0.70044 0.58457 0.68416
 H458 H 0.74595 0.52649 0.60910
 C459 C 0.73147 0.84641 0.16623
 C460 C 0.77745 0.88096 0.14685
 C461 C 0.75140 0.91366 0.11022
 C462 C 0.69142 0.89680 0.10990
 O463 O 0.67944 0.85641 0.14380
 H464 H 0.82461 0.88153 0.15768
 H465 H 0.77329 0.94601 0.08693
 C466 C 1.22203 0.31059 0.64822
 C467 C 1.24727 0.29613 0.60450
 C468 C 1.22635 0.33856 0.57272
 C469 C 1.18876 0.37530 0.59884
 O470 O 1.18561 0.35799 0.64437
 H471 H 1.27521 0.25775 0.59577
 H472 H 1.23265 0.33877 0.53424
 C473 C 0.70554 1.20411 -0.14973
 C474 C 0.72312 1.22770 -0.10592
 C475 C 0.70309 1.18763 -0.07234
 C476 C 0.67431 1.14288 -0.09800
 O477 O 0.67496 1.15320 -0.14472
 H478 H 0.74712 1.26936 -0.09902
 H479 H 0.70511 1.19277 -0.03376
 C480 C 1.22007 0.65626 0.33239
 C481 C 1.26455 0.62129 0.35407
 C482 C 1.23671 0.59149 0.39033
 C483 C 1.17727 0.61004 0.38800
 O484 O 1.16680 0.64921 0.35286
 H485 H 1.31199 0.61846 0.34496
 H486 H 1.25704 0.55939 0.41506
 C487 C 0.28748 0.79154 -0.14460
 C488 C 0.26310 0.77415 -0.10113
 C489 C 0.28542 0.81386 -0.06778
 C490 C 0.32239 0.85239 -0.09295
 O491 O 0.32424 0.83847 -0.13922
 H492 H 0.23305 0.73674 -0.09414
 H493 H 0.27851 0.81255 -0.02938
 C494 C 0.77570 0.29532 0.35603
 C495 C 0.73384 0.30370 0.39221
 C496 C 0.76088 0.34027 0.42532
 C497 C 0.81740 0.35154 0.40743
 O498 O 0.82668 0.32441 0.36577
 H499 H 0.68800 0.28790 0.39426
 H500 H 0.74152 0.35714 0.45822
 C501 C 1.20756 0.29024 0.14496
 C502 C 1.23219 0.27315 0.10165
 C503 C 1.19200 0.29229 0.06723
 C504 C 1.14587 0.31990 0.09188
 O505 O 1.15574 0.31945 0.13879
 H506 H 1.27464 0.25017 0.09565
 H507 H 1.19794 0.29054 0.02874
 C508 C 0.69876 0.77708 0.64359
 C509 C 0.68480 0.73378 0.60935
 C510 C 0.64617 0.76055 0.57738
 C511 C 0.63891 0.81838 0.59389
 O512 O 0.67063 0.82874 0.63377
 H513 H 0.69726 0.68687 0.60861
 H514 H 0.62490 0.73997 0.54636
 C515 C 1.15309 0.72564 -0.16672
 C516 C 1.11884 0.77118 -0.14647
 C517 C 1.08707 0.74456 -0.11028
 C518 C 1.10410 0.68473 -0.11107
 O519 O 1.14396 0.67313 -0.14523
 H520 H 1.11774 0.81845 -0.15651
 H521 H 1.05494 0.76595 -0.08663
 C522 C 0.64484 1.22306 0.32568
 C523 C 0.59713 1.26189 0.33460
 C524 C 0.56676 1.23716 0.37242
 C525 C 0.59777 1.18483 0.38347
 O526 O 0.64475 1.17604 0.35504
 H527 H 0.58640 1.30372 0.31617
 H528 H 0.52574 1.25393 0.38867
 C529 C 0.80063 0.71308 0.14723
 C530 C 0.78461 0.73807 0.10338
 C531 C 0.82436 0.71489 0.07097
 C532 C 0.86117 0.67656 0.09700
 O533 O 0.84646 0.67480 0.14301
 H534 H 0.74761 0.76848 0.09536
 H535 H 0.82376 0.72172 0.03251
 C536 C 0.34572 1.22548 0.66855
 C537 C 0.38317 1.26920 0.64938
 C538 C 0.41169 1.24213 0.61174
 C539 C 0.38983 1.18383 0.61082
 O540 O 0.35047 1.17368 0.64537
 H541 H 0.38777 1.31576 0.66062
 H542 H 0.44484 1.26221 0.58821
 C543 C 0.83847 0.26890 -0.16366
 C544 C 0.87169 0.22297 -0.14212
 C545 C 0.90142 0.24880 -0.10429
 C546 C 0.88422 0.30854 -0.10536
 O547 O 0.84623 0.32090 -0.14128
 H548 H 0.87374 0.17596 -0.15260
 H549 H 0.93248 0.22701 -0.07946
 C550 C 0.29843 0.78273 0.35177
 C551 C 0.27753 0.76196 0.39542
 C552 C 0.31887 0.78064 0.42908
 C553 C 0.36213 0.81219 0.40410
 O554 O 0.34923 0.81413 0.35737
 H555 H 0.23626 0.73745 0.40242
 H556 H 0.31486 0.77662 0.46765
 C557 C 1.13570 1.20581 0.30945
 C558 C 1.07717 1.21451 0.29244
 C559 C 1.04210 1.17353 0.31595
 C560 C 1.08149 1.14290 0.34569
 O561 O 1.13801 1.16255 0.34225
 H562 H 1.06229 1.24500 0.26426
 H563 H 0.99354 1.16787 0.31287
 C564 C 0.63965 0.70824 -0.18620
 C565 C 0.58037 0.72075 -0.19965
 C566 C 0.54590 0.67780 -0.17804
 C567 C 0.58650 0.64239 -0.15307
 O568 O 0.64304 0.66103 -0.15732
 H569 H 0.56443 0.75497 -0.22457
 H570 H 0.49703 0.67413 -0.17879
 C571 C 0.79296 1.13684 0.68616
 C572 C 0.78537 1.07781 0.70163
 C573 C 0.82774 1.04484 0.67811
 C574 C 0.85774 1.08611 0.65014
 O575 O 0.83649 1.14160 0.65435
 H576 H 0.75488 1.06134 0.72889
 H577 H 0.83468 0.99643 0.67989
 C578 C 0.35467 0.69793 0.18472
 C579 C 0.41260 0.69678 0.20422
 C580 C 0.44144 0.65097 0.18198
 C581 C 0.40013 0.62929 0.14929
 O582 O 0.34747 0.65739 0.15061
 H583 H 0.42994 0.72233 0.23443
 H584 H 0.48725 0.63555 0.18846
 C585 C 1.21579 0.85745 0.68471
 C586 C 1.21363 0.91426 0.70536
 C587 C 1.17415 0.94632 0.67826
 C588 C 1.15812 0.90836 0.64146
 O589 O 1.18249 0.85407 0.64528
 H590 H 1.23259 0.92836 0.73949
 H591 H 1.15679 0.99091 0.68581
 C592 C 0.72121 0.35266 0.17918
 C593 C 0.74104 0.41119 0.18681
 C594 C 0.70362 0.44667 0.15996
 C595 C 0.66435 0.40691 0.13829
 O596 O 0.67504 0.35008 0.14916
 H597 H 0.77604 0.42646 0.21133
 H598 H 0.70469 0.49540 0.15647
 C599 C 0.84772 0.77955 0.32369
 C600 C 0.89871 0.74518 0.33292
 C601 C 0.93477 0.78109 0.36006
 C602 C 0.90397 0.83501 0.36316
 O603 O 0.85083 0.83407 0.34209
 H604 H 0.90881 0.69988 0.32079
 H605 H 0.97779 0.76929 0.37648
 C606 C 0.28857 0.33858 -0.17196
 C607 C 0.25715 0.38901 -0.15723
 C608 C 0.29637 0.41891 -0.12840
 C609 C 0.34940 0.38652 -0.13066
 O610 O 0.34473 0.33692 -0.15577
 H611 H 0.21219 0.40368 -0.16751
 H612 H 0.28782 0.45990 -0.10844
 C613 C 1.14908 0.27025 -0.17044
 C614 C 1.11345 0.22555 -0.15046
 C615 C 1.08278 0.25278 -0.11401
 C616 C 1.10152 0.31212 -0.11470
 O617 O 1.14112 0.32277 -0.14900
 H618 H 1.11157 0.17830 -0.16027
 H619 H 1.05071 0.23197 -0.08995
 C620 C 0.69304 0.78300 0.35063
 C621 C 0.70724 0.75764 0.39469
 C622 C 0.66549 0.77977 0.42596
 C623 C 0.62932 0.81791 0.39914
 O624 O 0.64637 0.82052 0.35370
 H625 H 0.74419 0.72756 0.40360
 H626 H 0.66441 0.77256 0.46435
 C627 C 0.79666 0.71884 -0.14493
 C628 C 0.81218 0.76271 -0.11158
 C629 C 0.84793 0.73509 -0.07804
 C630 C 0.85207 0.67618 -0.09276
 O631 O 0.82123 0.66601 -0.13315
 H632 H 0.80295 0.81039 -0.11262
 H633 H 0.87002 0.75589 -0.04747
 C634 C 0.28826 1.20649 0.35378
 C635 C 0.26213 1.22373 0.39652
 C636 C 0.30033 1.20341 0.43192
 C637 C 0.34694 1.17515 0.40835
 O638 O 0.33920 1.17624 0.36117
 H639 H 0.21987 1.24750 0.40150
 H640 H 0.29283 1.20503 0.47022
 C641 C 1.20017 0.71047 0.14317
 C642 C 1.22491 0.72726 0.09976
 C643 C 1.18431 0.70941 0.06527
 C644 C 1.13747 0.68245 0.08959
 O645 O 1.14763 0.68235 0.13674
 H646 H 1.26824 0.74842 0.09360
 H647 H 1.19095 0.71059 0.02683
 C648 C 0.66098 1.22489 0.65921
 C649 C 0.62785 1.27104 0.63787
 C650 C 0.59867 1.24574 0.59954
 C651 C 0.61620 1.18609 0.60005
 O652 O 0.65378 1.17328 0.63616
 H653 H 0.62530 1.31782 0.64891
 H654 H 0.56734 1.26768 0.57501
 C655 C 0.85352 0.27088 0.17522
 C656 C 0.89984 0.23091 0.16498
 C657 C 0.93124 0.25656 0.12805
 C658 C 0.90220 0.31052 0.11887
 O659 O 0.85544 0.31940 0.14753
 H660 H 0.90893 0.18771 0.18188
 H661 H 0.97132 0.23896 0.11090
 C662 C 0.34573 0.76946 0.66858
 C663 C 0.38113 0.72435 0.64896
 C664 C 0.41385 0.75144 0.61353
 C665 C 0.39638 0.81116 0.61421
 O666 O 0.35524 0.82222 0.64753
 H667 H 0.38227 0.67703 0.65885
 H668 H 0.44661 0.73036 0.59025
 C669 C 0.27383 1.18772 -0.14861
 C670 C 0.24944 1.20458 -0.10508
 C671 C 0.27138 1.16428 -0.07202
 C672 C 0.30866 1.12635 -0.09731
 O673 O 0.31076 1.14094 -0.14348
 H674 H 0.22152 1.24337 -0.09740
 H675 H 0.26580 1.16617 -0.03350
 C676 C 0.76448 0.65038 0.33288
 C677 C 0.71904 0.61500 0.35210
 C678 C 0.74519 0.58377 0.38952
 C679 C 0.80468 0.60231 0.39054
 O680 O 0.81627 0.64229 0.35623
 H681 H 0.67218 0.61287 0.34060
 H682 H 0.72374 0.55100 0.41270
 C683 C 0.72166 1.19832 0.14496
 C684 C 0.76246 1.19200 0.10782
 C685 C 0.73569 1.15447 0.07520
 C686 C 0.68031 1.14077 0.09431
 O687 O 0.67150 1.16731 0.13626
 H688 H 0.80725 1.21038 0.10466
 H689 H 0.75422 1.13915 0.04153
 C690 C 1.21027 0.70181 0.64612
 C691 C 1.23744 0.71545 0.60289
 C692 C 1.21489 0.67482 0.57038
 C693 C 1.17494 0.63956 0.59567
 O694 O 1.17158 0.65627 0.64129
 H695 H 1.26970 0.75080 0.59547
 H696 H 1.22388 0.67337 0.53228
 C697 C 0.72103 0.84876 -0.17298
 C698 C 0.75830 0.89841 -0.16627
 C699 C 0.73530 0.92908 -0.12810
 C700 C 0.68520 0.89659 -0.11458
 O701 O 0.67622 0.84810 -0.14184
 H702 H 0.79800 0.91052 -0.18664
 H703 H 0.75125 0.97152 -0.11352
 C704 C 1.22510 0.33953 0.33476
 C705 C 1.27113 0.37303 0.35580
 C706 C 1.24502 0.40468 0.39211
 C707 C 1.18504 0.38827 0.39069
 O708 O 1.17277 0.34895 0.35602
 H709 H 1.31841 0.37404 0.34600
 H710 H 1.26684 0.43620 0.41630
 C711 C 0.27713 0.83547 0.16197
 C712 C 0.23225 0.86906 0.13945
 C713 C 0.25960 0.89733 0.10220
 C714 C 0.31917 0.87920 0.10472
 O715 O 0.33015 0.84178 0.14096
 H716 H 0.18486 0.87205 0.14871
 H717 H 0.23898 0.92861 0.07698
 C718 C 0.79335 0.28857 0.64562
 C719 C 0.77761 0.26331 0.60197
 C720 C 0.79768 0.30290 0.56802
 C721 C 0.82447 0.34911 0.59339
 O722 O 0.82269 0.34009 0.64024
 H723 H 0.75489 0.22084 0.59545
 H724 H 0.79699 0.29661 0.52952
 C725 C 1.20819 1.15698 0.67106
 C726 C 1.23974 1.10561 0.65856
 C727 C 1.20163 1.07481 0.62950
 C728 C 1.14879 1.10759 0.62959
 O729 O 1.15272 1.15828 0.65346
 H730 H 1.28417 1.09104 0.67038
 H731 H 1.21078 1.03308 0.61073
 C732 C 0.64839 0.71591 0.17445
 C733 C 0.59760 0.74996 0.16396
 C734 C 0.56268 0.71354 0.13626
 C735 C 0.59394 0.65977 0.13407
 O736 O 0.64627 0.66122 0.15627
 H737 H 0.58692 0.79532 0.17560
 H738 H 0.52005 0.72482 0.11900
 C739 C 1.14349 0.79522 0.31119
 C740 C 1.08557 0.79763 0.29181
 C741 C 1.05726 0.84295 0.31510
 C742 C 1.09885 0.86318 0.34819
 O743 O 1.15123 0.83458 0.34617
 H744 H 1.06790 0.77326 0.26112
 H745 H 1.01165 0.85912 0.30893
 C746 C 0.70603 0.35622 -0.18976
 C747 C 0.71292 0.41528 -0.20536
 C748 C 0.67105 0.44805 -0.18114
 C749 C 0.64203 0.40666 -0.15262
 O750 O 0.66340 0.35124 -0.15718
 H751 H 0.74258 0.43188 -0.23315
 H752 H 0.66368 0.49639 -0.18294
 C753 C 0.77709 1.14117 0.32108
 C754 C 0.75702 1.08273 0.31339
 C755 C 0.79550 1.04690 0.33899
 C756 C 0.83562 1.08640 0.35996
 O757 O 0.82436 1.14334 0.34998
 H758 H 0.72114 1.06776 0.28957
 H759 H 0.79443 0.99814 0.34225
 C760 C 0.28188 0.63666 -0.18400
 C761 C 0.28266 0.57978 -0.20465
 C762 C 0.32261 0.54724 -0.17835
 C763 C 0.34031 0.58513 -0.14200
 O764 O 0.31644 0.63964 -0.14529
 H765 H 0.26246 0.56590 -0.23840
 H766 H 0.33909 0.50238 -0.18612
 C767 C 0.85753 0.78676 0.68424
 C768 C 0.91663 0.77284 0.69731
 C769 C 0.95190 0.81488 0.67545
 C770 C 0.91193 0.85122 0.65071
 O771 O 0.85497 0.83400 0.65533
 H772 H 0.93203 0.73816 0.72204
 H773 H 1.00085 0.81733 0.67585
 C774 C 0.36227 0.28982 0.18896
 C775 C 0.42061 0.27971 0.20594
 C776 C 0.45670 0.31955 0.18222
 C777 C 0.41805 0.35093 0.15239
 O778 O 0.36101 0.33285 0.15596
 H779 H 0.43479 0.24894 0.23415
 H780 H 0.50540 0.32391 0.18518
   
