data_POSCAR
  _audit_creation_date              2014-09-24
  _audit_creation_method            'ToBaCCo'
  _symmetry_space_group_name_H-M    'P1'
  _symmetry_Int_Tables_number       1
  _symmetry_cell_setting            triclinic
  loop_
  _symmetry_equiv_pos_as_xyz
 x,y,z
_cell_length_a 45.8988
_cell_length_b 45.8694
_cell_length_c 37.6241
_cell_angle_alpha 89.955500
_cell_angle_beta 90.147300
_cell_angle_gamma 87.842300
loop_
  _atom_site_label
  _atom_site_type_symbol
  _atom_site_fract_x
  _atom_site_fract_y
  _atom_site_fract_z
O1 O 0.02018 0.29246 -0.03461
 O2 O -0.03968 0.29044 0.03091
 O3 O 0.01703 0.29399 0.03455
 O4 O -0.03646 0.29017 -0.03805
 O5 O -0.03134 0.24216 -0.03783
 O6 O 0.02041 0.24591 0.03687
 O7 O -0.03551 0.24242 0.03134
 O8 O 0.02532 0.24446 -0.03136
 Cu9 Cu -0.01018 0.29660 -0.00194
 Cu10 Cu -0.00497 0.23892 -0.00027
 C11 C 0.03332 0.26869 -0.04349
 C12 C -0.04789 0.26594 0.04230
 C13 C 0.02786 0.27064 0.04817
 C14 C -0.04303 0.26553 -0.05042
 O15 O 0.53036 0.79775 0.46853
 O16 O 0.47427 0.79294 0.53828
 O17 O 0.53104 0.79733 0.53795
 O18 O 0.47384 0.79335 0.46921
 O19 O 0.48053 0.74549 0.46776
 O20 O 0.53543 0.74926 0.53889
 O21 O 0.47942 0.74494 0.53708
 O22 O 0.53723 0.74985 0.47027
 Cu23 Cu 0.50183 0.80017 0.50353
 Cu24 Cu 0.50862 0.74258 0.50332
 C25 C 0.54372 0.77458 0.45804
 C26 C 0.46714 0.76804 0.54941
 C27 C 0.54291 0.77394 0.55029
 C28 C 0.46747 0.76868 0.45666
 O29 O 0.97952 0.70149 -0.03290
 O30 O 1.03399 0.70583 0.03903
 O31 O 0.97711 0.70417 0.03579
 O32 O 1.03642 0.70286 -0.03003
 O33 O 1.03353 0.75085 -0.03312
 O34 O 0.97424 0.75223 0.03275
 O35 O 1.03074 0.75387 0.03612
 O36 O 0.97703 0.74949 -0.03624
 Cu37 Cu 1.00712 0.69878 0.00328
 Cu38 Cu 1.00364 0.75640 -0.00042
 C39 C 0.96877 0.72480 -0.04680
 C40 C 1.04163 0.73064 0.04992
 C41 C 0.96538 0.72843 0.04533
 C42 C 1.04520 0.72661 -0.04291
 O43 O 0.46693 0.20350 0.46417
 O44 O 0.52419 0.20874 0.53236
 O45 O 0.46756 0.20422 0.53307
 O46 O 0.52343 0.20868 0.46310
 O47 O 0.51738 0.25662 0.46275
 O48 O 0.46207 0.25223 0.53273
 O49 O 0.51823 0.25669 0.53205
 O50 O 0.46131 0.25150 0.46367
 Cu51 Cu 0.49618 0.20146 0.49822
 Cu52 Cu 0.48921 0.25906 0.49776
 C53 C 0.45424 0.22664 0.45238
 C54 C 0.53096 0.23361 0.54392
 C55 C 0.45518 0.22755 0.54473
 C56 C 0.52988 0.23347 0.45090
 O57 O 0.70754 0.03050 -0.04456
 O58 O 0.70582 -0.02564 0.02574
 O59 O 0.70203 0.03132 0.02462
 O60 O 0.71079 -0.02631 -0.04324
 O61 O 0.75850 -0.02649 -0.03550
 O62 O 0.74991 0.03402 0.02803
 O63 O 0.75324 -0.02242 0.03312
 O64 O 0.75548 0.03077 -0.03961
 Cu65 Cu 0.70172 0.00233 -0.00995
 Cu66 Cu 0.75910 0.00395 -0.00309
 C67 C 0.73190 0.04038 -0.05378
 C68 C 0.72928 -0.03346 0.04176
 C69 C 0.72453 0.04289 0.03729
 C70 C 0.73616 -0.03666 -0.05031
 O71 O 0.20578 0.47218 0.53754
 O72 O 0.20924 0.52853 0.46776
 O73 O 0.20705 0.47172 0.46803
 O74 O 0.20782 0.52860 0.53729
 O75 O 0.25597 0.52534 0.53814
 O76 O 0.25513 0.46793 0.47013
 O77 O 0.25734 0.52501 0.46973
 O78 O 0.25392 0.46841 0.53847
 Cu79 Cu 0.20262 0.50063 0.50239
 Cu80 Cu 0.26041 0.49632 0.50419
 C81 C 0.22934 0.46056 0.54963
 C82 C 0.23395 0.53670 0.45733
 C83 C 0.23099 0.45977 0.45779
 C84 C 0.23209 0.53678 0.54928
 O85 O 0.29328 1.02725 0.03800
 O86 O 0.30027 0.96887 -0.02941
 O87 O 0.29805 1.02618 -0.03071
 O88 O 0.29587 0.97000 0.03938
 O89 O 0.24794 0.97006 0.03448
 O90 O 0.25021 1.02577 -0.03553
 O91 O 0.25235 0.96907 -0.03433
 O92 O 0.24545 1.02651 0.03323
 Cu93 Cu 0.30169 0.99809 0.00476
 Cu94 Cu 0.24423 0.99782 -0.00108
 C95 C 0.26806 1.03695 0.04712
 C96 C 0.27738 0.95889 -0.04320
 C97 C 0.27444 1.03585 -0.04491
 C98 C 0.27145 0.96040 0.04883
 O99 O 0.79709 0.52840 0.52650
 O100 O 0.79797 0.47123 0.45747
 O101 O 0.79934 0.52839 0.45741
 O102 O 0.79561 0.47136 0.52635
 O103 O 0.74756 0.47471 0.52372
 O104 O 0.75129 0.53123 0.45486
 O105 O 0.74993 0.47460 0.45479
 O106 O 0.74902 0.53106 0.52393
 Cu107 Cu 0.80235 0.49958 0.49212
 Cu108 Cu 0.74467 0.50323 0.48899
 C109 C 0.77281 0.53943 0.53706
 C110 C 0.77402 0.46298 0.44459
 C111 C 0.77590 0.53968 0.44452
 C112 C 0.77086 0.46327 0.53674
 O113 O 0.22066 0.26594 0.30085
 O114 O 0.23195 0.20151 0.24397
 O115 O 0.25996 0.22427 0.29675
 O116 O 0.19258 0.24330 0.24714
 O117 O 0.21792 0.26885 0.20924
 O118 O 0.28476 0.25152 0.26013
 O119 O 0.25811 0.22714 0.20701
 O120 O 0.24449 0.29259 0.26252
 Cu121 Cu 0.22368 0.23119 0.27591
 Cu122 Cu 0.25381 0.26261 0.23087
 C123 C 0.23089 0.29015 0.29168
 C124 C 0.24698 0.20322 0.21582
 C125 C 0.28379 0.23514 0.28729
 C126 C 0.19384 0.25896 0.21934
 O127 O 0.70648 0.75470 0.25855
 O128 O 0.77058 0.73744 0.20252
 O129 O 0.74585 0.71237 0.25643
 O130 O 0.73109 0.77965 0.20490
 O131 O 0.75821 0.80386 0.24239
 O132 O 0.77481 0.73615 0.29218
 O133 O 0.79801 0.76262 0.23865
 O134 O 0.73461 0.77725 0.29657
 Cu135 Cu 0.73573 0.74361 0.22690
 Cu136 Cu 0.76910 0.77246 0.27119
 C137 C 0.70977 0.76842 0.28749
 C138 C 0.79515 0.74747 0.21070
 C139 C 0.76288 0.71274 0.28310
 C140 C 0.74233 0.80323 0.21471
 O141 O 0.78455 0.24076 0.23508
 O142 O 0.71811 0.23317 0.28811
 O143 O 0.74149 0.20564 0.23429
 O144 O 0.76112 0.26863 0.28891
 O145 O 0.73604 0.29805 0.25276
 O146 O 0.71899 0.23554 0.19625
 O147 O 0.69377 0.26203 0.25063
 O148 O 0.76100 0.27155 0.19911
 Cu149 Cu 0.75372 0.23411 0.26534
 Cu150 Cu 0.72493 0.26973 0.22103
 C151 C 0.78419 0.25736 0.20802
 C152 C 0.69455 0.24631 0.27848
 C153 C 0.72747 0.20997 0.20550
 C154 C 0.75165 0.29409 0.28039
 O155 O 0.25672 0.70456 0.26459
 O156 O 0.27059 0.77003 0.21078
 O157 O 0.29792 0.74187 0.26241
 O158 O 0.23017 0.73174 0.21223
 O159 O 0.20574 0.75883 0.25129
 O160 O 0.27400 0.77017 0.30067
 O161 O 0.24568 0.79713 0.24938
 O162 O 0.23363 0.73249 0.30404
 Cu163 Cu 0.26630 0.73433 0.23358
 Cu164 Cu 0.23729 0.76737 0.28021
 C165 C 0.24332 0.70758 0.29395
 C166 C 0.26001 0.79473 0.22067
 C167 C 0.29757 0.75749 0.29028
 C168 C 0.20640 0.74370 0.22297
 O169 O 0.70003 0.26195 0.73839
 O170 O 0.76866 0.27219 0.78692
 O171 O 0.74069 0.29950 0.73571
 O172 O 0.72787 0.23517 0.79063
 O173 O 0.75028 0.20683 0.75105
 O174 O 0.76504 0.27195 0.69705
 O175 O 0.79198 0.24336 0.74867
 O176 O 0.72376 0.23452 0.69906
 Cu177 Cu 0.73190 0.26999 0.76676
 Cu178 Cu 0.76014 0.23642 0.71996
 C179 C 0.70024 0.24678 0.71013
 C180 C 0.79194 0.25899 0.77653
 C181 C 0.75493 0.29683 0.70695
 C182 C 0.73714 0.21010 0.78055
 O183 O 0.30344 0.73591 0.74806
 O184 O 0.23811 0.72481 0.80193
 O185 O 0.26217 0.69861 0.74772
 O186 O 0.27895 0.76277 0.80214
 O187 O 0.25234 0.79085 0.76603
 O188 O 0.23758 0.72736 0.71024
 O189 O 0.21198 0.75275 0.76515
 O190 O 0.27795 0.76519 0.71216
 Cu191 Cu 0.27328 0.72773 0.77866
 Cu192 Cu 0.24229 0.76185 0.73476
 C193 C 0.30191 0.75227 0.72081
 C194 C 0.21388 0.73687 0.79284
 C195 C 0.24746 0.70221 0.71930
 C196 C 0.26818 0.78775 0.79358
 O197 O 0.25155 0.29564 0.74763
 O198 O 0.27026 0.22911 0.79916
 O199 O 0.29262 0.25513 0.74459
 O200 O 0.22934 0.26946 0.80252
 O201 O 0.20147 0.24623 0.76487
 O202 O 0.26608 0.22755 0.71019
 O203 O 0.24116 0.20415 0.76485
 O204 O 0.22675 0.26935 0.70976
 Cu205 Cu 0.26363 0.26496 0.77708
 Cu206 Cu 0.23104 0.23428 0.73386
 C207 C 0.23673 0.29359 0.71924
 C208 C 0.25841 0.20537 0.79122
 C209 C 0.29026 0.23874 0.71761
 C210 C 0.20460 0.26032 0.79361
 O211 O 0.73706 0.76938 0.70588
 O212 O 0.80400 0.75134 0.75666
 O213 O 0.77656 0.72712 0.70357
 O214 O 0.76416 0.79297 0.75873
 O215 O 0.74027 0.76681 0.79752
 O216 O 0.75036 0.70203 0.74101
 O217 O 0.77895 0.72453 0.79353
 O218 O 0.71159 0.74436 0.74419
 Cu219 Cu 0.77303 0.76269 0.72736
 Cu220 Cu 0.74270 0.73191 0.77284
 C221 C 0.71288 0.75988 0.71626
 C222 C 0.80290 0.73510 0.78396
 C223 C 0.76506 0.70344 0.71257
 C224 C 0.75062 0.79086 0.78797
 C225 C 0.25888 0.10485 0.12178
 C226 C 0.23407 0.09125 0.10910
 C227 C 0.23714 0.06878 0.08437
 C228 C 0.26495 0.05942 0.07236
 C229 C 0.28928 0.07362 0.08594
 N230 N 0.28565 0.09585 0.10966
 C231 C 0.25627 0.12929 0.14724
 N232 N 0.27431 0.15206 0.14428
 C233 C 0.27206 0.17574 0.16604
 C234 C 0.25081 0.17722 0.19284
 C235 C 0.23256 0.15358 0.19689
 C236 C 0.23514 0.12970 0.17412
 H237 H 0.21763 0.05876 0.07475
 H238 H 0.31115 0.06742 0.07739
 H239 H 0.28675 0.19338 0.16227
 H240 H 0.21593 0.15376 0.21727
 H241 H 0.21242 0.09833 0.11758
 H242 H 0.22083 0.11169 0.17763
 C243 C 0.77034 0.60616 0.61630
 C244 C 0.74508 0.59098 0.60868
 C245 C 0.74598 0.56919 0.58289
 C246 C 0.77199 0.56226 0.56479
 C247 C 0.79682 0.57789 0.57322
 N248 N 0.79533 0.59936 0.59818
 C249 C 0.76993 0.63008 0.64261
 N250 N 0.78671 0.65353 0.63714
 C251 C 0.78612 0.67689 0.65946
 C252 C 0.76785 0.67744 0.68937
 C253 C 0.75113 0.65304 0.69604
 C254 C 0.75208 0.62941 0.67279
 H255 H 0.72629 0.55777 0.57712
 H256 H 0.81725 0.57338 0.55962
 H257 H 0.79958 0.69513 0.65352
 H258 H 0.73686 0.65240 0.71889
 H259 H 0.72463 0.59631 0.62184
 H260 H 0.73899 0.61083 0.67845
 C261 C 0.73008 0.90182 0.12105
 C262 C 0.70415 0.90847 0.10248
 C263 C 0.70356 0.93042 0.07668
 C264 C 0.72897 0.94540 0.06879
 C265 C 0.75439 0.93813 0.08837
 N266 N 0.75426 0.91694 0.11358
 C267 C 0.73201 0.87786 0.14737
 N268 N 0.71333 0.85554 0.14533
 C269 C 0.71562 0.83194 0.16721
 C270 C 0.73778 0.82988 0.19300
 C271 C 0.75671 0.85304 0.19622
 C272 C 0.75402 0.87693 0.17332
 H273 H 0.68339 0.93517 0.06246
 H274 H 0.77449 0.94911 0.08364
 H275 H 0.70045 0.81463 0.16403
 H276 H 0.77416 0.85229 0.21566
 H277 H 0.68454 0.89682 0.10782
 H278 H 0.76922 0.89433 0.17565
 C279 C 0.22737 0.39194 0.62574
 C280 C 0.20720 0.41556 0.62867
 C281 C 0.20747 0.43800 0.60350
 C282 C 0.22833 0.43718 0.57633
 C283 C 0.24830 0.41335 0.57468
 N284 N 0.24709 0.39141 0.59881
 C285 C 0.22744 0.36726 0.65069
 N286 N 0.23010 0.33967 0.63759
 C287 C 0.23185 0.31589 0.65911
 C288 C 0.23208 0.31928 0.69614
 C289 C 0.22948 0.34754 0.71029
 C290 C 0.22668 0.37163 0.68758
 H291 H 0.19172 0.45611 0.60549
 H292 H 0.26449 0.41189 0.55381
 H293 H 0.23416 0.29443 0.64727
 H294 H 0.22970 0.35093 0.73877
 H295 H 0.19112 0.41631 0.64969
 H296 H 0.22503 0.39342 0.69863
 C297 C 0.88392 0.26208 0.11645
 C298 C 0.89891 0.23634 0.10591
 C299 C 0.92140 0.23766 0.08126
 C300 C 0.92933 0.26462 0.06707
 C301 C 0.91367 0.28991 0.07837
 N302 N 0.89153 0.28798 0.10217
 C303 C 0.85933 0.26139 0.14168
 N304 N 0.83642 0.28085 0.13780
 C305 C 0.81251 0.28042 0.15906
 C306 C 0.81079 0.25952 0.18621
 C307 C 0.83460 0.23987 0.19134
 C308 C 0.85883 0.24070 0.16916
 H309 H 0.93255 0.21746 0.07341
 H310 H 0.91874 0.31118 0.06812
 H311 H 0.79475 0.29618 0.15444
 H312 H 0.83430 0.22349 0.21207
 H313 H 0.89293 0.21527 0.11593
 H314 H 0.87696 0.22534 0.17357
 C315 C 0.40029 0.76127 0.62761
 C316 C 0.41838 0.73680 0.61959
 C317 C 0.44024 0.73909 0.59420
 C318 C 0.44430 0.76570 0.57683
 C319 C 0.42583 0.78970 0.58567
 N320 N 0.40443 0.78684 0.61025
 C321 C 0.37603 0.75949 0.65322
 N322 N 0.35157 0.77677 0.64833
 C323 C 0.32794 0.77534 0.66994
 C324 C 0.32810 0.75562 0.69852
 C325 C 0.35344 0.73825 0.70465
 C326 C 0.37739 0.74011 0.68213
 H327 H 0.45389 0.71999 0.58809
 H328 H 0.42809 0.81056 0.57271
 H329 H 0.30895 0.78935 0.66444
 H330 H 0.35463 0.72288 0.72651
 H331 H 0.41526 0.71587 0.63201
 H332 H 0.39673 0.72658 0.68746
 C333 C 0.10667 0.73627 0.13103
 C334 C 0.08922 0.76107 0.12228
 C335 C 0.06784 0.75916 0.09604
 C336 C 0.06357 0.73260 0.07863
 C337 C 0.08120 0.70823 0.08849
 N338 N 0.10221 0.71074 0.11376
 C339 C 0.13102 0.73765 0.15677
 N340 N 0.15491 0.71957 0.15216
 C341 C 0.17878 0.72056 0.17352
 C342 C 0.17956 0.74067 0.20160
 C343 C 0.15477 0.75884 0.20761
 C344 C 0.13052 0.75744 0.18526
 H345 H 0.05479 0.77853 0.08919
 H346 H 0.07876 0.68738 0.07560
 H347 H 0.19729 0.70593 0.16815
 H348 H 0.15438 0.77458 0.22906
 H349 H 0.09261 0.78196 0.13465
 H350 H 0.11166 0.77169 0.19032
 C351 C 0.59866 0.23971 0.62145
 C352 C 0.58036 0.26423 0.61418
 C353 C 0.55814 0.26219 0.58904
 C354 C 0.55397 0.23580 0.57124
 C355 C 0.57257 0.21174 0.57951
 N356 N 0.59430 0.21435 0.60378
 C357 C 0.62365 0.24117 0.64614
 N358 N 0.64760 0.22345 0.64028
 C359 C 0.67194 0.22437 0.66082
 C360 C 0.67311 0.24402 0.68933
 C361 C 0.64833 0.26185 0.69657
 C362 C 0.62359 0.26052 0.67506
 H363 H 0.54436 0.28132 0.58338
 H364 H 0.57022 0.19102 0.56626
 H365 H 0.69045 0.21001 0.65452
 H366 H 0.64824 0.27721 0.71842
 H367 H 0.58362 0.28501 0.62689
 H368 H 0.60470 0.27443 0.68113
 C369 C 0.73295 0.11139 0.87332
 C370 C 0.75475 0.10833 0.89930
 C371 C 0.75486 0.08455 0.92231
 C372 C 0.73291 0.06418 0.91997
 C373 C 0.71156 0.06789 0.89338
 N374 N 0.71221 0.09103 0.87073
 C375 C 0.73201 0.13691 0.84965
 N376 N 0.73205 0.13324 0.81374
 C377 C 0.73308 0.15629 0.79100
 C378 C 0.73377 0.18486 0.80429
 C379 C 0.73284 0.18901 0.84119
 C380 C 0.73228 0.16508 0.86393
 H381 H 0.77159 0.08254 0.94261
 H382 H 0.69441 0.05248 0.89068
 H383 H 0.73359 0.15230 0.76265
 H384 H 0.73352 0.21068 0.85249
 H385 H 0.77150 0.12424 0.90172
 H386 H 0.73221 0.16846 0.89242
 C387 C 0.23740 0.60827 0.38552
 C388 C 0.25963 0.60370 0.41070
 C389 C 0.25890 0.57974 0.43340
 C390 C 0.23569 0.56078 0.43157
 C391 C 0.21391 0.56602 0.40584
 N392 N 0.21538 0.58926 0.38346
 C393 C 0.23735 0.63397 0.36221
 N394 N 0.23698 0.63063 0.32626
 C395 C 0.23848 0.65382 0.30380
 C396 C 0.23998 0.68221 0.31745
 C397 C 0.23958 0.68604 0.35441
 C398 C 0.23862 0.66194 0.37686
 H399 H 0.27601 0.57651 0.45305
 H400 H 0.19578 0.55170 0.40356
 H401 H 0.23856 0.65009 0.27539
 H402 H 0.24090 0.70758 0.36595
 H403 H 0.27735 0.61856 0.41272
 H404 H 0.23889 0.66505 0.40540
 C405 C 0.28131 0.88715 0.88437
 C406 C 0.30632 0.89377 0.90393
 C407 C 0.30539 0.91767 0.92700
 C408 C 0.27959 0.93480 0.93074
 C409 C 0.25534 0.92780 0.91009
 N410 N 0.25682 0.90457 0.88775
 C411 C 0.28037 0.86173 0.86031
 N412 N 0.26085 0.86263 0.83302
 C413 C 0.25727 0.83964 0.81093
 C414 C 0.27346 0.81341 0.81617
 C415 C 0.29382 0.81196 0.84408
 C416 C 0.29743 0.83608 0.86613
 H417 H 0.32462 0.92240 0.94236
 H418 H 0.23509 0.94059 0.91188
 H419 H 0.24124 0.84172 0.78985
 H420 H 0.30667 0.79210 0.84915
 H421 H 0.32641 0.88084 0.90137
 H422 H 0.31262 0.83421 0.88811
 C423 C 0.77158 0.39204 0.37127
 C424 C 0.79769 0.39734 0.38930
 C425 C 0.79879 0.42097 0.41262
 C426 C 0.77396 0.43918 0.41811
 C427 C 0.74855 0.43352 0.39889
 N428 N 0.74804 0.41049 0.37627
 C429 C 0.76859 0.36687 0.34721
 N430 N 0.74840 0.36883 0.32068
 C431 C 0.74320 0.34619 0.29860
 C432 C 0.75836 0.31928 0.30307
 C433 C 0.77931 0.31672 0.33025
 C434 C 0.78457 0.34046 0.35227
 H435 H 0.81888 0.42464 0.42682
 H436 H 0.72898 0.44718 0.40205
 H437 H 0.72675 0.34909 0.27811
 H438 H 0.79141 0.29631 0.33470
 H439 H 0.81707 0.38357 0.38539
 H440 H 0.80024 0.33776 0.37367
 C441 C 0.10697 0.26931 0.88792
 C442 C 0.10627 0.24906 0.91576
 C443 C 0.08197 0.24871 0.93779
 C444 C 0.05870 0.26895 0.93266
 C445 C 0.06032 0.28910 0.90471
 N446 N 0.08399 0.28855 0.88291
 C447 C 0.13219 0.26945 0.86388
 N448 N 0.12803 0.26803 0.82809
 C449 C 0.15078 0.26577 0.80499
 C450 C 0.17958 0.26511 0.81773
 C451 C 0.18422 0.26754 0.85445
 C452 C 0.16059 0.26940 0.87760
 H453 H 0.08151 0.23290 0.95917
 H454 H 0.04262 0.30489 0.89987
 H455 H 0.14638 0.26419 0.77679
 H456 H 0.20611 0.26699 0.86532
 H457 H 0.12417 0.23336 0.92002
 H458 H 0.16441 0.27055 0.90598
 C459 C 0.61287 0.77810 0.38291
 C460 C 0.58898 0.79797 0.37982
 C461 C 0.56644 0.79723 0.40470
 C462 C 0.56741 0.77623 0.43183
 C463 C 0.59161 0.75670 0.43380
 N464 N 0.61359 0.75831 0.40987
 C465 C 0.63734 0.77808 0.35767
 N466 N 0.66505 0.77439 0.37027
 C467 C 0.68853 0.77253 0.34833
 C468 C 0.68464 0.77327 0.31135
 C469 C 0.65626 0.77700 0.29776
 C470 C 0.63255 0.77984 0.32088
 H471 H 0.54809 0.81267 0.40244
 H472 H 0.59324 0.74044 0.45465
 H473 H 0.71009 0.76937 0.35975
 H474 H 0.65245 0.77756 0.26934
 H475 H 0.58802 0.81411 0.35879
 H476 H 0.61068 0.78227 0.31016
 C477 C 0.90242 0.72196 0.87606
 C478 C 0.91324 0.69586 0.89149
 C479 C 0.93575 0.69663 0.91651
 C480 C 0.94734 0.72340 0.92655
 C481 C 0.93625 0.74890 0.90970
 N482 N 0.91450 0.74751 0.88528
 C483 C 0.87780 0.72274 0.85064
 N484 N 0.87617 0.74427 0.82570
 C485 C 0.85315 0.74772 0.80311
 C486 C 0.82943 0.72939 0.80562
 C487 C 0.83073 0.70689 0.83094
 C488 C 0.85494 0.70337 0.85332
 H489 H 0.94363 0.67631 0.92840
 H490 H 0.94460 0.77004 0.91607
 H491 H 0.85293 0.76548 0.78414
 H492 H 0.81283 0.69236 0.83387
 H493 H 0.90455 0.67507 0.88424
 H494 H 0.85511 0.68647 0.87341
 C495 C 0.38444 0.22264 0.37751
 C496 C 0.39426 0.19707 0.39503
 C497 C 0.41747 0.19818 0.41900
 C498 C 0.43075 0.22470 0.42568
 C499 C 0.42066 0.24960 0.40703
 N500 N 0.39815 0.24794 0.38372
 C501 C 0.35930 0.22322 0.35291
 N502 N 0.35795 0.24369 0.32671
 C503 C 0.33464 0.24700 0.30457
 C504 C 0.31039 0.22959 0.30881
 C505 C 0.31139 0.20814 0.33545
 C506 C 0.33584 0.20479 0.35744
 H507 H 0.42470 0.17843 0.43271
 H508 H 0.43049 0.27042 0.41108
 H509 H 0.33472 0.26392 0.28450
 H510 H 0.29309 0.19435 0.33973
 H511 H 0.38431 0.17642 0.39019
 H512 H 0.33577 0.18878 0.37857
 C513 C 0.74390 0.89035 0.87998
 C514 C 0.76403 0.89307 0.90776
 C515 C 0.76204 0.91744 0.92987
 C516 C 0.73964 0.93867 0.92481
 C517 C 0.72005 0.93524 0.89655
 N518 N 0.72277 0.91157 0.87486
 C519 C 0.74506 0.86457 0.85674
 N520 N 0.74394 0.86800 0.82081
 C521 C 0.74555 0.84481 0.79825
 C522 C 0.74775 0.81629 0.81177
 C523 C 0.74822 0.81233 0.84871
 C524 C 0.74723 0.83643 0.87128
 H525 H 0.77748 0.91931 0.95150
 H526 H 0.70263 0.95134 0.89172
 H527 H 0.74495 0.84864 0.76986
 H528 H 0.75006 0.79064 0.86009
 H529 H 0.78114 0.87655 0.91218
 H530 H 0.74789 0.83316 0.89979
 C531 C 0.22918 0.38795 0.38622
 C532 C 0.25104 0.38873 0.41223
 C533 C 0.25204 0.41265 0.43494
 C534 C 0.23089 0.43540 0.43230
 C535 C 0.20936 0.43383 0.40587
 N536 N 0.20920 0.41054 0.38346
 C537 C 0.22765 0.36276 0.36224
 N538 N 0.22730 0.36688 0.32641
 C539 C 0.22771 0.34407 0.30325
 C540 C 0.22810 0.31529 0.31601
 C541 C 0.22754 0.31071 0.35285
 C542 C 0.22765 0.33438 0.37603
 H543 H 0.26888 0.41303 0.45514
 H544 H 0.19281 0.45112 0.40297
 H545 H 0.22796 0.34841 0.27497
 H546 H 0.22801 0.28882 0.36371
 H547 H 0.26725 0.37106 0.41476
 H548 H 0.22786 0.33062 0.40446
 C549 C 0.27435 0.10490 0.88149
 C550 C 0.30081 0.09492 0.89679
 C551 C 0.30104 0.07153 0.92061
 C552 C 0.27494 0.05816 0.92950
 C553 C 0.24908 0.06844 0.91275
 N554 N 0.24949 0.09112 0.88956
 C555 C 0.27242 0.13022 0.85716
 N556 N 0.25057 0.13175 0.83263
 C557 C 0.24629 0.15505 0.81068
 C558 C 0.26420 0.17910 0.81330
 C559 C 0.28692 0.17800 0.83835
 C560 C 0.29119 0.15358 0.86020
 H561 H 0.32161 0.06433 0.93247
 H562 H 0.22843 0.05875 0.91827
 H563 H 0.22841 0.15505 0.79187
 H564 H 0.30117 0.19613 0.84134
 H565 H 0.32113 0.10488 0.89035
 H566 H 0.30832 0.15353 0.88002
 C567 C 0.77746 0.61048 0.37069
 C568 C 0.80345 0.60092 0.38758
 C569 C 0.80316 0.57735 0.41108
 C570 C 0.77709 0.56332 0.41785
 C571 C 0.75181 0.57303 0.39963
 N572 N 0.75264 0.59599 0.37687
 C573 C 0.77596 0.63620 0.34693
 N574 N 0.75476 0.63802 0.32156
 C575 C 0.75082 0.66175 0.30017
 C576 C 0.76839 0.68591 0.30429
 C577 C 0.79047 0.68447 0.33018
 C578 C 0.79439 0.65968 0.35144
 H579 H 0.82320 0.57045 0.42440
 H580 H 0.73130 0.56265 0.40375
 H581 H 0.73344 0.66199 0.28066
 H582 H 0.80445 0.70267 0.33435
 H583 H 0.82378 0.61141 0.38271
 H584 H 0.81095 0.65947 0.37196
 C585 C 0.11467 0.72587 0.88425
 C586 C 0.10569 0.69947 0.89870
 C587 C 0.08241 0.69963 0.92249
 C588 C 0.06802 0.72605 0.93221
 C589 C 0.07742 0.75193 0.91648
 N590 N 0.10006 0.75115 0.89324
 C591 C 0.13980 0.72704 0.85982
 N592 N 0.14033 0.74866 0.83502
 C593 C 0.16328 0.75171 0.81268
 C594 C 0.18790 0.73270 0.81519
 C595 C 0.18781 0.71030 0.84061
 C596 C 0.16382 0.70731 0.86281
 H597 H 0.07594 0.67903 0.93350
 H598 H 0.06693 0.77283 0.92270
 H599 H 0.16257 0.76943 0.79364
 H600 H 0.20640 0.69523 0.84355
 H601 H 0.11631 0.67886 0.89152
 H602 H 0.16456 0.69033 0.88281
 C603 C 0.59555 0.23948 0.37109
 C604 C 0.57750 0.26401 0.37896
 C605 C 0.55595 0.26196 0.40482
 C606 C 0.55220 0.23556 0.42281
 C607 C 0.57054 0.21148 0.41396
 N608 N 0.59162 0.21410 0.38895
 C609 C 0.61985 0.24095 0.34547
 N610 N 0.64383 0.22299 0.35026
 C611 C 0.66756 0.22389 0.32882
 C612 C 0.66807 0.24377 0.30044
 C613 C 0.64324 0.26189 0.29433
 C614 C 0.61913 0.26056 0.31675
 H615 H 0.54237 0.28112 0.41089
 H616 H 0.56850 0.19076 0.42732
 H617 H 0.68611 0.20929 0.33427
 H618 H 0.64262 0.27741 0.27262
 H619 H 0.58045 0.28481 0.36615
 H620 H 0.60018 0.27466 0.31147
 C621 C 0.89199 0.26205 0.86829
 C622 C 0.90905 0.23683 0.87640
 C623 C 0.93052 0.23796 0.90267
 C624 C 0.93516 0.26415 0.92070
 C625 C 0.91790 0.28893 0.91144
 N626 N 0.89687 0.28719 0.88613
 C627 C 0.86755 0.26167 0.84265
 N628 N 0.84434 0.28058 0.84752
 C629 C 0.82042 0.28073 0.82616
 C630 C 0.81890 0.26095 0.79784
 C631 C 0.84300 0.24191 0.79158
 C632 C 0.86732 0.24217 0.81391
 H633 H 0.94326 0.21830 0.90910
 H634 H 0.92062 0.30954 0.92480
 H635 H 0.80244 0.29597 0.83175
 H636 H 0.84281 0.22637 0.76993
 H637 H 0.90530 0.21621 0.86354
 H638 H 0.88566 0.22729 0.80864
 C639 C 0.39920 0.76360 0.37948
 C640 C 0.41777 0.73909 0.38587
 C641 C 0.44021 0.74081 0.41080
 C642 C 0.44437 0.76689 0.42928
 C643 C 0.42549 0.79096 0.42191
 N644 N 0.40356 0.78865 0.39782
 C645 C 0.37410 0.76247 0.35480
 N646 N 0.35001 0.77993 0.36110
 C647 C 0.32567 0.77926 0.34046
 C648 C 0.32463 0.76014 0.31138
 C649 C 0.34954 0.74259 0.30377
 C650 C 0.37425 0.74366 0.32536
 H651 H 0.45416 0.72167 0.41578
 H652 H 0.42778 0.81143 0.43573
 H653 H 0.30706 0.79336 0.34712
 H654 H 0.34979 0.72764 0.28151
 H655 H 0.41455 0.71853 0.37263
 H656 H 0.39322 0.73000 0.31890
 C657 C 0.26759 0.89322 0.12715
 C658 C 0.24256 0.91062 0.11942
 C659 C 0.24392 0.93264 0.09402
 C660 C 0.27019 0.93761 0.07649
 C661 C 0.29481 0.91989 0.08514
 N662 N 0.29285 0.89821 0.10964
 C663 C 0.26663 0.86888 0.15280
 N664 N 0.28299 0.84399 0.14678
 C665 C 0.28183 0.82027 0.16843
 C666 C 0.26341 0.82086 0.19820
 C667 C 0.24713 0.84668 0.20544
 C668 C 0.24863 0.87064 0.18285
 H669 H 0.22438 0.94573 0.08805
 H670 H 0.31542 0.92286 0.07194
 H671 H 0.29496 0.80089 0.16208
 H672 H 0.23274 0.84820 0.22819
 H673 H 0.22192 0.90679 0.13214
 H674 H 0.23584 0.89031 0.18889
 C675 C 0.76497 0.39547 0.61404
 C676 C 0.74064 0.41409 0.60714
 C677 C 0.74266 0.43628 0.58207
 C678 C 0.76891 0.44020 0.56399
 C679 C 0.79282 0.42122 0.57175
 N680 N 0.79020 0.39943 0.59599
 C681 C 0.76330 0.37100 0.63944
 N682 N 0.77875 0.34563 0.63300
 C683 C 0.77699 0.32186 0.65448
 C684 C 0.75887 0.32289 0.68451
 C685 C 0.74350 0.34917 0.69216
 C686 C 0.74562 0.37317 0.66975
 H687 H 0.72366 0.45034 0.57678
 H688 H 0.81337 0.42334 0.55813
 H689 H 0.78943 0.30212 0.64780
 H690 H 0.72939 0.35105 0.71514
 H691 H 0.72000 0.41112 0.62026
 H692 H 0.73358 0.39321 0.67617
 C693 C 0.71772 0.11344 0.11065
 C694 C 0.69813 0.09078 0.11332
 C695 C 0.69979 0.06786 0.08883
 C696 C 0.72144 0.06724 0.06259
 C697 C 0.74058 0.09030 0.06093
 N698 N 0.73809 0.11268 0.08445
 C699 C 0.71712 0.13805 0.13573
 N700 N 0.72070 0.16546 0.12302
 C701 C 0.72255 0.18888 0.14487
 C702 C 0.72205 0.18517 0.18185
 C703 C 0.71832 0.15711 0.19556
 C704 C 0.71540 0.13352 0.17252
 H705 H 0.68466 0.05037 0.09080
 H706 H 0.75733 0.09067 0.04073
 H707 H 0.72571 0.21017 0.13336
 H708 H 0.71794 0.15345 0.22400
 H709 H 0.68159 0.09102 0.13380
 H710 H 0.71310 0.11183 0.18331
 C711 C 0.23466 0.60537 0.62532
 C712 C 0.21298 0.58474 0.62815
 C713 C 0.21180 0.56239 0.60302
 C714 C 0.23270 0.56021 0.57594
 C715 C 0.25422 0.58106 0.57437
 N716 N 0.25442 0.60308 0.59849
 C717 C 0.23621 0.62991 0.65031
 N718 N 0.24029 0.65713 0.63730
 C719 C 0.24293 0.68059 0.65892
 C720 C 0.24255 0.67712 0.69595
 C721 C 0.23862 0.64921 0.70998
 C722 C 0.23499 0.62557 0.68718
 H723 H 0.19488 0.54663 0.60495
 H724 H 0.27049 0.58019 0.55358
 H725 H 0.24624 0.70177 0.64720
 H726 H 0.23831 0.64577 0.73845
 H727 H 0.19685 0.58629 0.64908
 H728 H 0.23215 0.60404 0.69815
 C729 C 0.89345 0.73124 0.11736
 C730 C 0.90220 0.70462 0.10155
 C731 C 0.92599 0.70357 0.07846
 C732 C 0.94093 0.72898 0.07088
 C733 C 0.93170 0.75505 0.08762
 N734 N 0.90864 0.75548 0.11022
 C735 C 0.86826 0.73376 0.14173
 N736 N 0.86815 0.75447 0.16762
 C737 C 0.84540 0.75873 0.19031
 C738 C 0.82055 0.74198 0.18720
 C739 C 0.82010 0.72060 0.16056
 C740 C 0.84394 0.71632 0.13791
 H741 H 0.93245 0.68298 0.06621
 H742 H 0.94277 0.77509 0.08277
 H743 H 0.84656 0.77563 0.21028
 H744 H 0.80130 0.70730 0.15714
 H745 H 0.89109 0.68476 0.10721
 H746 H 0.84291 0.70014 0.11707
 C747 C 0.38710 0.22520 0.62182
 C748 C 0.39610 0.19934 0.60439
 C749 C 0.41875 0.19989 0.57968
 C750 C 0.43227 0.22612 0.57216
 C751 C 0.42297 0.25132 0.59068
 N752 N 0.40103 0.25021 0.61473
 C753 C 0.36275 0.22636 0.64747
 N754 N 0.36249 0.24712 0.67330
 C755 C 0.34011 0.25077 0.69661
 C756 C 0.31569 0.23335 0.69414
 C757 C 0.31550 0.21171 0.66779
 C758 C 0.33902 0.20805 0.64453
 H759 H 0.42536 0.17992 0.56608
 H760 H 0.43301 0.27195 0.58598
 H761 H 0.34109 0.26783 0.71638
 H762 H 0.29703 0.19788 0.66487
 H763 H 0.38599 0.17890 0.60990
 H764 H 0.33805 0.19180 0.62376
 C765 C 0.09425 0.27339 0.12771
 C766 C 0.08522 0.29922 0.11015
 C767 C 0.06301 0.29852 0.08480
 C768 C 0.04984 0.27218 0.07683
 C769 C 0.05887 0.24707 0.09582
 N770 N 0.08053 0.24829 0.12039
 C771 C 0.11894 0.27231 0.15301
 N772 N 0.11978 0.25158 0.17894
 C773 C 0.14284 0.24781 0.20144
 C774 C 0.16734 0.26496 0.19778
 C775 C 0.16683 0.28666 0.17146
 C776 C 0.14266 0.29050 0.14917
 H777 H 0.05657 0.31845 0.07094
 H778 H 0.04905 0.22637 0.09082
 H779 H 0.14243 0.23071 0.22125
 H780 H 0.18533 0.30029 0.16765
 H781 H 0.09517 0.31972 0.11584
 H782 H 0.14320 0.30667 0.12825
 C783 C 0.61207 0.77574 0.62651
 C784 C 0.60317 0.80162 0.60891
 C785 C 0.58011 0.80129 0.58461
 C786 C 0.56602 0.77525 0.57767
 C787 C 0.57510 0.75009 0.59654
 N788 N 0.59751 0.75097 0.62013
 C789 C 0.63727 0.77425 0.65111
 N790 N 0.63809 0.75370 0.67727
 C791 C 0.66143 0.74959 0.69929
 C792 C 0.68625 0.76617 0.69494
 C793 C 0.68580 0.78765 0.66833
 C794 C 0.66136 0.79186 0.64651
 H795 H 0.57369 0.82123 0.57076
 H796 H 0.56462 0.72962 0.59233
 H797 H 0.66092 0.73267 0.71932
 H798 H 0.70454 0.80085 0.66398
 H799 H 0.61380 0.82188 0.61385
 H800 H 0.66189 0.80788 0.62542
   
