data_POSCAR
  _audit_creation_date              2014-09-24
  _audit_creation_method            'ToBaCCo'
  _symmetry_space_group_name_H-M    'P1'
  _symmetry_Int_Tables_number       1
  _symmetry_cell_setting            triclinic
  loop_
  _symmetry_equiv_pos_as_xyz
 x,y,z
_cell_length_a 46.0515
_cell_length_b 35.4352
_cell_length_c 23.0184
_cell_angle_alpha 89.904200
_cell_angle_beta 89.927300
_cell_angle_gamma 90.092400
loop_
  _atom_site_label
  _atom_site_type_symbol
  _atom_site_fract_x
  _atom_site_fract_y
  _atom_site_fract_z
C1 C 0.80110 0.20428 0.44821
 C2 C 0.81326 0.19320 0.50111
 C3 C 0.80103 0.20419 0.55400
 C4 C 0.77584 0.22698 0.55461
 C5 C 0.76325 0.23845 0.50116
 C6 C 0.77590 0.22708 0.44766
 C7 C 0.76302 0.23879 0.39526
 C8 C 0.73822 0.26121 0.39532
 C9 C 0.72536 0.27278 0.44774
 C10 C 0.73794 0.26133 0.50119
 C11 C 0.76292 0.23860 0.60704
 C12 C 0.73812 0.26103 0.60705
 C13 C 0.72526 0.27273 0.55464
 C14 C 0.70006 0.29553 0.55398
 C15 C 0.68793 0.30655 0.50101
 C16 C 0.70020 0.29551 0.44826
 H17 H 0.77204 0.23068 0.35366
 H18 H 0.72919 0.26943 0.35378
 H19 H 0.77191 0.23041 0.64862
 H20 H 0.72907 0.26916 0.64862
 H21 H 0.83262 0.17567 0.50111
 H22 H 0.66858 0.32406 0.50071
 C23 C 0.20039 0.79587 0.55400
 C24 C 0.18819 0.80692 0.50117
 C25 C 0.20030 0.79575 0.44831
 C26 C 0.22537 0.77283 0.44773
 C27 C 0.23799 0.76139 0.50117
 C28 C 0.22545 0.77295 0.55460
 C29 C 0.23828 0.76131 0.60703
 C30 C 0.26299 0.73870 0.60706
 C31 C 0.27581 0.72688 0.55464
 C32 C 0.26318 0.73835 0.50118
 C33 C 0.23813 0.76107 0.39530
 C34 C 0.26285 0.73847 0.39529
 C35 C 0.27570 0.72681 0.44771
 C36 C 0.30075 0.70390 0.44821
 C37 C 0.31299 0.69279 0.50096
 C38 C 0.30093 0.70391 0.55395
 H39 H 0.22928 0.76961 0.64855
 H40 H 0.27201 0.73053 0.64863
 H41 H 0.22908 0.76927 0.35378
 H42 H 0.27182 0.73019 0.35374
 H43 H 0.16892 0.82454 0.50119
 H44 H 0.33227 0.67515 0.50065
 C45 C 0.19884 0.20428 -0.44799
 C46 C 0.18664 0.19317 -0.50082
 C47 C 0.19890 0.20415 -0.55378
 C48 C 0.22414 0.22695 -0.55453
 C49 C 0.23676 0.23844 -0.50114
 C50 C 0.22409 0.22708 -0.44758
 C51 C 0.23700 0.23882 -0.39525
 C52 C 0.26185 0.26125 -0.39544
 C53 C 0.27473 0.27280 -0.44794
 C54 C 0.26212 0.26133 -0.50131
 C55 C 0.23709 0.23856 -0.60703
 C56 C 0.26194 0.26100 -0.60717
 C57 C 0.27482 0.27272 -0.55483
 C58 C 0.30008 0.29553 -0.55431
 C59 C 0.31224 0.30657 -0.50141
 C60 C 0.29994 0.29554 -0.44859
 H61 H 0.22795 0.23072 -0.35360
 H62 H 0.27090 0.26948 -0.35396
 H63 H 0.22808 0.23035 -0.64856
 H64 H 0.27100 0.26912 -0.64879
 H65 H 0.16724 0.17564 -0.50072
 H66 H 0.33163 0.32408 -0.50121
 C67 C -0.30090 0.70359 -0.44855
 C68 C -0.31302 0.69254 -0.50147
 C69 C -0.30082 0.70381 -0.55434
 C70 C -0.27571 0.72687 -0.55482
 C71 C -0.26316 0.73830 -0.50130
 C72 C -0.27579 0.72663 -0.44787
 C73 C -0.26297 0.73830 -0.39539
 C74 C -0.23825 0.76098 -0.39531
 C75 C -0.22541 0.77285 -0.44766
 C76 C -0.23795 0.76144 -0.50118
 C77 C -0.26280 0.73881 -0.60717
 C78 C -0.23809 0.76149 -0.60705
 C79 C -0.22530 0.77315 -0.55456
 C80 C -0.20019 0.79620 -0.55377
 C81 C -0.18810 0.80719 -0.50078
 C82 C -0.20034 0.79586 -0.44805
 H83 H -0.27198 0.72996 -0.35384
 H84 H -0.22927 0.76915 -0.35374
 H85 H -0.27175 0.73066 -0.64879
 H86 H -0.22906 0.76986 -0.64857
 H87 H -0.33232 0.67482 -0.50151
 H88 H -0.16881 0.82488 -0.50044
 N89 N 0.03018 0.96000 -0.10203
 N90 N 0.05038 0.95335 -0.14137
 N91 N -0.03092 0.93353 -0.06197
 N92 N -0.05103 0.90793 -0.07332
 N93 N -0.03084 0.96000 -0.10199
 N94 N -0.05086 0.95321 -0.14156
 N95 N 0.03017 0.93355 -0.06198
 N96 N 0.05038 0.90811 -0.07304
 C97 C 0.06294 0.92123 -0.12225
 C98 C -0.06345 0.92099 -0.12264
 N99 N -0.03088 0.95997 0.10340
 N100 N -0.05105 0.95327 0.14284
 N101 N 0.03014 0.93349 0.06343
 N102 N 0.05023 0.90793 0.07478
 N103 N 0.03014 0.95995 0.10334
 N104 N 0.05020 0.95317 0.14285
 N105 N -0.03095 0.93353 0.06346
 N106 N -0.05119 0.90806 0.07471
 Mn107 Mn -0.00039 0.93310 0.00074
 C108 C -0.06369 0.92115 0.12390
 C109 C 0.06272 0.92098 0.12401
 N110 N -0.03073 1.04125 -0.10211
 N111 N -0.05083 1.04798 -0.14154
 N112 N 0.03035 1.06772 -0.06237
 N113 N 0.05043 1.09335 -0.07396
 N114 N 0.03029 1.04125 -0.10226
 N115 N 0.05030 1.04808 -0.14198
 N116 N -0.03074 1.06770 -0.06218
 N117 N -0.05087 1.09321 -0.07343
 Mn118 Mn -0.00027 1.00062 -0.10261
 C119 C -0.06337 1.08012 -0.12261
 C120 C 0.06286 1.08031 -0.12329
 N121 N 0.03025 1.04120 0.10313
 N122 N 0.05037 1.04790 0.14253
 N123 N -0.03076 1.06770 0.06328
 N124 N -0.05077 1.09333 0.07477
 N125 N -0.03077 1.04122 0.10329
 N126 N -0.05076 1.04804 0.14299
 N127 N 0.03033 1.06766 0.06309
 N128 N 0.05053 1.09316 0.07424
 Mn129 Mn -0.00032 1.00058 0.10380
 Mn130 Mn -0.00020 1.06812 0.00046
 Cl131 Cl -0.00030 1.00061 0.00060
 C132 C 0.06300 1.08006 0.12347
 C133 C -0.06323 1.08029 0.12415
 N134 N 0.53081 0.45880 -0.10334
 N135 N 0.55087 0.45203 -0.14292
 N136 N 0.46971 0.43237 -0.06315
 N137 N 0.44949 0.40689 -0.07426
 N138 N 0.46979 0.45883 -0.10319
 N139 N 0.44965 0.45215 -0.14255
 N140 N 0.53080 0.43234 -0.06331
 N141 N 0.55088 0.40677 -0.07466
 C142 C 0.56338 0.41983 -0.12399
 C143 C 0.43701 0.42001 -0.12347
 N144 N 0.46974 0.45877 0.10219
 N145 N 0.44966 0.45200 0.14180
 N146 N 0.53077 0.43234 0.06212
 N147 N 0.55092 0.40685 0.07334
 N148 N 0.53076 0.45878 0.10205
 N149 N 0.55088 0.45208 0.14144
 N150 N 0.46968 0.43232 0.06228
 N151 N 0.44953 0.40675 0.07373
 Mn152 Mn 0.50024 0.43192 -0.00051
 C153 C 0.43707 0.41980 0.12301
 C154 C 0.56344 0.41995 0.12250
 N155 N 0.46989 0.54008 -0.10340
 N156 N 0.44985 0.54688 -0.14295
 N157 N 0.53098 0.56650 -0.06354
 N158 N 0.55115 0.59204 -0.07493
 N159 N 0.53091 0.54005 -0.10347
 N160 N 0.55101 0.54680 -0.14302
 N161 N 0.46989 0.56654 -0.06349
 N162 N 0.44982 0.59212 -0.07487
 Mn163 Mn 0.50035 0.49944 -0.10386
 C164 C 0.43734 0.57908 -0.12411
 C165 C 0.56362 0.57896 -0.12417
 N166 N 0.53087 0.54003 0.10193
 N167 N 0.55088 0.54685 0.14154
 N168 N 0.46987 0.56649 0.06194
 N169 N 0.44973 0.59199 0.07314
 N170 N 0.46985 0.54002 0.10198
 N171 N 0.44973 0.54673 0.14143
 N172 N 0.53096 0.56650 0.06190
 N173 N 0.55104 0.59212 0.07329
 Mn174 Mn 0.50031 0.49940 0.10255
 Mn175 Mn 0.50042 0.56693 -0.00080
 Cl176 Cl 0.50033 0.49942 -0.00066
 C177 C 0.56345 0.57908 0.12263
 C178 C 0.43719 0.57888 0.12240
 C179 C 0.34285 0.33407 0.30603
 N180 N 0.33697 0.36895 0.28475
 N181 N 0.35406 0.38444 0.24445
 C182 C 0.37757 0.36554 0.22420
 N183 N 0.38337 0.33059 0.24527
 N184 N 0.36627 0.31510 0.28557
 C185 C 0.32636 0.31919 0.35384
 C186 C 0.31353 0.30762 0.39598
 C187 C 0.39768 0.38381 0.18558
 C188 C 0.41529 0.39988 0.15562
 C189 C -0.15778 0.83528 0.30662
 N190 N -0.16346 0.87041 0.28620
 N191 N -0.14646 0.88598 0.24583
 C192 C -0.12326 0.86689 0.22466
 N193 N -0.11766 0.83168 0.24487
 N194 N -0.13466 0.81611 0.28524
 C195 C -0.17410 0.82027 0.35449
 C196 C -0.18682 0.80854 0.39663
 C197 C -0.10317 0.88521 0.18614
 C198 C -0.08553 0.90128 0.15631
 C199 C 0.65692 0.66514 0.30587
 N200 N 0.66295 0.63029 0.28479
 N201 N 0.64602 0.61475 0.24443
 C202 C 0.62254 0.63356 0.22390
 N203 N 0.61659 0.66849 0.24477
 N204 N 0.63352 0.68403 0.28514
 C205 C 0.67322 0.68007 0.35373
 C206 C 0.68590 0.69168 0.39591
 C207 C 0.60260 0.61522 0.18523
 C208 C 0.58510 0.59909 0.15524
 C209 C 0.15668 1.16559 0.30644
 N210 N 0.16255 1.13065 0.28559
 N211 N 0.14564 1.11521 0.24513
 C212 C 0.12233 1.13424 0.22428
 N213 N 0.11654 1.16926 0.24491
 N214 N 0.13346 1.18470 0.28538
 C215 C 0.17292 1.18043 0.35438
 C216 C 0.18558 1.19199 0.39658
 C217 C 0.10234 1.11600 0.18569
 C218 C 0.08476 1.09995 0.15583
 C219 C 0.65738 0.33410 -0.30659
 N220 N 0.63391 0.31512 -0.28601
 N221 N 0.61686 0.33062 -0.24580
 C222 C 0.62273 0.36557 -0.22493
 N223 N 0.64628 0.38448 -0.24530
 N224 N 0.66334 0.36899 -0.28551
 C225 C 0.67383 0.31921 -0.35431
 C226 C 0.68664 0.30763 -0.39638
 C227 C 0.60268 0.38385 -0.18640
 C228 C 0.58510 0.39991 -0.15651
 C229 C 0.15722 0.83551 -0.30389
 N230 N 0.13407 0.81628 -0.28247
 N231 N 0.11701 0.83183 -0.24232
 C232 C 0.12260 0.86709 -0.22237
 N233 N 0.14583 0.88625 -0.24357
 N234 N 0.16289 0.87069 -0.28372
 C235 C 0.17359 0.82051 -0.35156
 C236 C 0.18634 0.80879 -0.39356
 C237 C 0.10247 0.88538 -0.18409
 C238 C 0.08480 0.90142 -0.15445
 C239 C 0.34349 0.66510 -0.30666
 N240 N 0.36694 0.68405 -0.28613
 N241 N 0.38396 0.66848 -0.24594
 C242 C 0.37807 0.63348 -0.22504
 N243 N 0.35455 0.61461 -0.24536
 N244 N 0.33752 0.63018 -0.28556
 C245 C 0.32708 0.68008 -0.35436
 C246 C 0.31431 0.69173 -0.39642
 C247 C 0.39810 0.61514 -0.18653
 C248 C 0.41565 0.59903 -0.15665
 C249 C -0.15684 1.16567 -0.30600
 N250 N -0.16283 1.13076 -0.28490
 N251 N -0.14595 1.11532 -0.24436
 C252 C -0.12258 1.13433 -0.22366
 N253 N -0.11668 1.16933 -0.24454
 N254 N -0.13356 1.18477 -0.28509
 C255 C -0.17305 1.18050 -0.35403
 C256 C -0.18568 1.19205 -0.39629
 C257 C -0.10263 1.11608 -0.18498
 C258 C -0.08509 1.10003 -0.15506
 C259 C 0.65697 0.66473 -0.30845
 N260 N 0.66289 0.62978 -0.28755
 N261 N 0.64605 0.61429 -0.24684
 C262 C 0.62278 0.63330 -0.22577
 N263 N 0.61694 0.66833 -0.24646
 N264 N 0.63378 0.68381 -0.28718
 C265 C 0.67315 0.67964 -0.35657
 C266 C 0.68578 0.69129 -0.39886
 C267 C 0.60285 0.61500 -0.18689
 C268 C 0.58533 0.59891 -0.15680
 C269 C 0.15634 1.16594 -0.30784
 N270 N 0.16246 1.13126 -0.28611
 N271 N 0.14552 1.11585 -0.24547
 C272 C 0.12195 1.13465 -0.22531
 N273 N 0.11591 1.16941 -0.24684
 N274 N 0.13285 1.18482 -0.28748
 C275 C 0.17269 1.18073 -0.35590
 C276 C 0.18544 1.19223 -0.39819
 C277 C 0.10200 1.11640 -0.18634
 C278 C 0.08451 1.10032 -0.15612
 C279 C 0.34309 0.33472 -0.30621
 N280 N 0.36630 0.31555 -0.28523
 N281 N 0.38327 0.33094 -0.24481
 C282 C 0.37755 0.36597 -0.22415
 N283 N 0.35425 0.38506 -0.24492
 N284 N 0.33728 0.36967 -0.28533
 C285 C 0.32677 0.31991 -0.35406
 C286 C 0.31403 0.30834 -0.39614
 C287 C 0.39759 0.38416 -0.18560
 C288 C 0.41521 0.40017 -0.15579
 C289 C -0.15714 0.83516 -0.30567
 N290 N -0.16311 0.87001 -0.28456
 N291 N -0.14613 0.88551 -0.24424
 C292 C -0.12265 0.86664 -0.22380
 N293 N -0.11676 0.83171 -0.24471
 N294 N -0.13374 0.81621 -0.28502
 C295 C -0.17352 0.82024 -0.35343
 C296 C -0.18629 0.80863 -0.39548
 C297 C -0.10266 0.88493 -0.18517
 C298 C -0.08513 0.90102 -0.15521
 C299 C 0.34365 0.66450 0.30558
 N300 N 0.36687 0.68364 0.28427
 N301 N 0.38376 0.66817 0.24377
 C302 C 0.37794 0.63309 0.22335
 N303 N 0.35464 0.61402 0.24444
 N304 N 0.33774 0.62949 0.28494
 C305 C 0.32742 0.67939 0.35351
 C306 C 0.31475 0.69103 0.39567
 C307 C 0.39791 0.61483 0.18471
 C308 C 0.41546 0.59877 0.15482
 C309 C -0.15650 1.16592 0.30828
 N310 N -0.16269 1.13123 0.28675
 N311 N -0.14580 1.11581 0.24620
 C312 C -0.12218 1.13461 0.22592
 N313 N -0.11606 1.16938 0.24725
 N314 N -0.13296 1.18480 0.28781
 C315 C -0.17281 1.18071 0.35626
 C316 C -0.18554 1.19222 0.39848
 C317 C -0.10228 1.11636 0.18704
 C318 C -0.08483 1.10028 0.15689
 C319 C 0.65714 0.33464 0.30565
 N320 N 0.63387 0.31548 0.28482
 N321 N 0.61694 0.33088 0.24432
 C322 C 0.62277 0.36589 0.22342
 N323 N 0.64613 0.38496 0.24403
 N324 N 0.66306 0.36957 0.28453
 C325 C 0.67343 0.31984 0.35358
 C326 C 0.68614 0.30829 0.39573
 C327 C 0.60277 0.38408 0.18478
 C328 C 0.58519 0.40009 0.15490
 C329 C 0.15678 0.83519 0.30634
 N330 N 0.13334 0.81619 0.28591
 N331 N 0.11626 0.83171 0.24576
 C332 C 0.12210 0.86672 0.22482
 N333 N 0.14562 0.88564 0.24506
 N334 N 0.16269 0.87012 0.28520
 C335 C 0.17327 0.82023 0.35394
 C336 C 0.18614 0.80857 0.39587
 C337 C 0.10203 0.88500 0.18635
 C338 C 0.08444 0.90107 0.15649
   
