data_POSCAR
  _audit_creation_date              2014-09-24
  _audit_creation_method            'ToBaCCo'
  _symmetry_space_group_name_H-M    'P1'
  _symmetry_Int_Tables_number       1
  _symmetry_cell_setting            triclinic
  loop_
  _symmetry_equiv_pos_as_xyz
 x,y,z
_cell_length_a 42.4677
_cell_length_b 40.0368
_cell_length_c 40.2317
_cell_angle_alpha 89.974500
_cell_angle_beta 89.765500
_cell_angle_gamma 89.687900
loop_
  _atom_site_label
  _atom_site_type_symbol
  _atom_site_fract_x
  _atom_site_fract_y
  _atom_site_fract_z
C1 C 0.29802 0.29628 0.23711
 H2 H 0.29944 0.29687 0.26395
 C3 C 0.31800 0.31625 0.21805
 H4 H 0.33450 0.33251 0.23045
 C5 C 0.27445 0.27453 0.18849
 H6 H 0.25785 0.25783 0.17702
 C7 C 0.29397 0.29408 0.16847
 H8 H 0.29212 0.29216 0.14170
 N9 N 0.27650 0.27631 0.22217
 C10 C 0.20233 0.26249 0.29615
 H11 H 0.20133 0.23551 0.29705
 C12 C 0.18172 0.28154 0.31563
 H13 H 0.16519 0.26899 0.33186
 C14 C 0.22532 0.31149 0.27393
 H15 H 0.24188 0.32312 0.25717
 C16 C 0.20516 0.33151 0.29298
 H17 H 0.20652 0.35840 0.29064
 Zn18 Zn 0.25038 0.25001 0.24989
 N19 N 0.22383 0.27763 0.27613
 C20 C 0.27541 0.22566 0.31087
 N21 N 0.27709 0.22378 0.27715
 C22 C 0.29879 0.20393 0.26182
 C23 C 0.31940 0.18426 0.28052
 C24 C 0.29560 0.20645 0.33054
 C25 C 0.20215 0.23776 0.20453
 C26 C 0.18181 0.21890 0.18498
 C27 C 0.20621 0.16873 0.20643
 C28 C 0.22609 0.18856 0.22559
 N29 N 0.22400 0.22244 0.22398
 H30 H 0.25851 0.24212 0.32264
 H31 H 0.30002 0.20340 0.23496
 H32 H 0.33661 0.16877 0.26782
 H33 H 0.29352 0.20787 0.35733
 H34 H 0.20072 0.26474 0.20407
 H35 H 0.16503 0.23161 0.16915
 H36 H 0.20808 0.14181 0.20821
 H37 H 0.24298 0.17680 0.24187
 C38 C 0.18304 0.31656 0.31426
 C39 C 0.31601 0.31543 0.18321
 C40 C 0.18378 0.18388 0.18566
 C41 C 0.31791 0.18530 0.31538
 C42 C 0.79777 0.79576 0.23642
 H43 H 0.79867 0.79674 0.26328
 C44 C 0.81840 0.81514 0.21752
 H45 H 0.83407 0.83159 0.23074
 C46 C 0.77478 0.77380 0.18774
 H47 H 0.75830 0.75702 0.17619
 C48 C 0.79489 0.79276 0.16781
 H49 H 0.79348 0.78928 0.14123
 N50 N 0.77628 0.77593 0.22138
 C51 C 0.70145 0.76250 0.29479
 H52 H 0.70033 0.73552 0.29559
 C53 C 0.68088 0.78158 0.31428
 H54 H 0.66425 0.76905 0.33042
 C55 C 0.72477 0.81145 0.27287
 H56 H 0.74150 0.82304 0.25627
 C57 C 0.70466 0.83151 0.29195
 H58 H 0.70620 0.85840 0.28977
 Zn59 Zn 0.74978 0.74986 0.24893
 N60 N 0.72310 0.77760 0.27493
 C61 C 0.77433 0.72545 0.31014
 N62 N 0.77624 0.72364 0.27642
 C63 C 0.79808 0.70387 0.26120
 C64 C 0.81860 0.68422 0.28000
 C65 C 0.79443 0.70624 0.32990
 C66 C 0.70210 0.73740 0.20289
 C67 C 0.68207 0.71841 0.18310
 C68 C 0.70605 0.66838 0.20539
 C69 C 0.72565 0.68834 0.22473
 N70 N 0.72363 0.72221 0.22283
 H71 H 0.75732 0.74184 0.32182
 H72 H 0.79949 0.70341 0.23435
 H73 H 0.83594 0.66881 0.26740
 H74 H 0.79219 0.70760 0.35669
 H75 H 0.70059 0.76438 0.20234
 H76 H 0.66501 0.73099 0.16750
 H77 H 0.70843 0.64148 0.20679
 H78 H 0.74239 0.67668 0.24125
 C79 C 0.68241 0.81660 0.31311
 C80 C 0.81731 0.81414 0.18242
 C81 C 0.68399 0.68339 0.18409
 C82 C 0.81688 0.68517 0.31486
 C83 C 0.79841 0.29481 0.73732
 H84 H 0.79967 0.29552 0.76417
 C85 C 0.81874 0.31439 0.71829
 H86 H 0.83534 0.33052 0.73072
 C87 C 0.77491 0.27305 0.68866
 H88 H 0.75818 0.25650 0.67717
 C89 C 0.79478 0.29224 0.66866
 H90 H 0.79309 0.29018 0.64189
 N91 N 0.77677 0.27501 0.72235
 C92 C 0.70236 0.26220 0.79620
 H93 H 0.70103 0.23524 0.79703
 C94 C 0.68225 0.28147 0.81604
 H95 H 0.66574 0.26909 0.83244
 C96 C 0.72586 0.31095 0.77402
 H97 H 0.74251 0.32239 0.75723
 C98 C 0.70622 0.33118 0.79344
 H99 H 0.70801 0.35806 0.79131
 Zn100 Zn 0.75037 0.24912 0.75015
 N101 N 0.72392 0.27711 0.77610
 C102 C 0.77526 0.22577 0.81144
 N103 N 0.77689 0.22319 0.77786
 C104 C 0.79850 0.20300 0.76305
 C105 C 0.81907 0.18365 0.78212
 C106 C 0.79537 0.20699 0.83157
 C107 C 0.70232 0.23635 0.70460
 C108 C 0.68198 0.21722 0.68529
 C109 C 0.70606 0.16735 0.70778
 C110 C 0.72593 0.18744 0.72668
 N111 N 0.72400 0.22129 0.72445
 H112 H 0.75828 0.24238 0.82285
 H113 H 0.79991 0.20213 0.73620
 H114 H 0.83649 0.16928 0.76864
 H115 H 0.79158 0.20901 0.85804
 H116 H 0.70100 0.26333 0.70366
 H117 H 0.66532 0.22972 0.66915
 H118 H 0.70779 0.14046 0.71008
 H119 H 0.74267 0.17589 0.74328
 C120 C 0.68416 0.31647 0.81496
 C121 C 0.81699 0.31338 0.68345
 C122 C 0.68378 0.18221 0.68663
 C123 C 0.81803 0.18501 0.81736
 C124 C 0.29685 0.79601 0.73791
 H125 H 0.29784 0.79671 0.76477
 C126 C 0.31727 0.81573 0.71911
 H127 H 0.33366 0.83195 0.73173
 C128 C 0.27402 0.77408 0.68897
 H129 H 0.25755 0.75738 0.67729
 C130 C 0.29399 0.79339 0.66921
 H131 H 0.29261 0.79128 0.64243
 N132 N 0.27551 0.77603 0.72268
 C133 C 0.20032 0.76163 0.79543
 H134 H 0.19916 0.73465 0.79568
 C135 C 0.17963 0.78035 0.81511
 H136 H 0.16241 0.76755 0.83033
 C137 C 0.22367 0.81099 0.77444
 H138 H 0.24062 0.82288 0.75830
 C139 C 0.20340 0.83069 0.79369
 H140 H 0.20545 0.85761 0.79262
 Zn141 Zn 0.24903 0.74969 0.75002
 N142 N 0.22207 0.77711 0.77598
 C143 C 0.27308 0.72547 0.81143
 N144 N 0.27536 0.72356 0.77775
 C145 C 0.29728 0.70364 0.76286
 C146 C 0.31744 0.68386 0.78198
 C147 C 0.29279 0.70616 0.83151
 C148 C 0.20144 0.73705 0.70392
 C149 C 0.18124 0.71797 0.68441
 C150 C 0.20537 0.66804 0.70673
 C151 C 0.22509 0.68808 0.72584
 N152 N 0.22306 0.72194 0.72381
 H153 H 0.25603 0.74199 0.82286
 H154 H 0.29899 0.70308 0.73602
 H155 H 0.33481 0.66827 0.76965
 H156 H 0.29020 0.70756 0.85825
 H157 H 0.20002 0.76403 0.70316
 H158 H 0.16459 0.73049 0.66828
 H159 H 0.20715 0.64114 0.70891
 H160 H 0.24177 0.67649 0.74248
 C161 C 0.18110 0.81538 0.81452
 C162 C 0.31592 0.81467 0.68424
 C163 C 0.18312 0.68295 0.68559
 C164 C 0.31526 0.68487 0.81682
 Si165 Si -0.00010 0.00124 0.00145
 Si166 Si -0.00037 0.50060 0.50063
 Si167 Si 0.50016 0.00022 0.50134
 Si168 Si 0.49998 0.50073 0.00044
 C169 C 0.11919 -0.12522 -0.12441
 C170 C 0.12602 -0.11522 -0.15697
 C171 C 0.14608 -0.13455 -0.17689
 C172 C 0.15956 -0.16420 -0.16448
 C173 C 0.15244 -0.17409 -0.13173
 C174 C 0.13240 -0.15470 -0.11185
 C175 C 0.09888 -0.10506 -0.10380
 C176 C 0.08202 -0.08799 -0.08653
 C177 C 0.06209 -0.06737 -0.06597
 C178 C 0.04534 -0.04071 -0.08003
 C179 C 0.02647 -0.02021 -0.05998
 C180 C 0.02423 -0.02624 -0.02571
 C181 C 0.04091 -0.05308 -0.01173
 C182 C 0.05978 -0.07358 -0.03179
 H183 H 0.11587 -0.09247 -0.16696
 H184 H 0.15076 -0.12650 -0.20212
 H185 H 0.16276 -0.19654 -0.12131
 H186 H 0.12735 -0.16261 -0.08664
 H187 H 0.04703 -0.03564 -0.10643
 H188 H 0.01401 0.00049 -0.07128
 H189 H 0.03948 -0.05802 0.01470
 H190 H 0.07268 -0.09410 -0.02064
 C191 C 0.12063 0.37694 0.37383
 C192 C 0.10948 0.34795 0.35855
 C193 C 0.12974 0.32829 0.33917
 C194 C 0.16146 0.33740 0.33481
 C195 C 0.17240 0.36663 0.35028
 C196 C 0.15211 0.38623 0.36965
 C197 C 0.09987 0.39706 0.39399
 C198 C 0.08268 0.41396 0.41104
 C199 C 0.06240 0.43417 0.43165
 C200 C 0.04548 0.41953 0.45775
 C201 C 0.02639 0.43926 0.47832
 C202 C 0.02410 0.47380 0.47293
 C203 C 0.04090 0.48835 0.44662
 C204 C 0.06000 0.46861 0.42606
 H205 H 0.08513 0.34057 0.36157
 H206 H 0.12050 0.30619 0.32724
 H207 H 0.19677 0.37408 0.34778
 H208 H 0.16102 0.40855 0.38148
 H209 H 0.04724 0.39292 0.46236
 H210 H 0.01382 0.42752 0.49860
 H211 H 0.03944 0.51499 0.44217
 H212 H 0.07303 0.48022 0.40598
 C213 C 0.62044 -0.12312 0.37335
 C214 C 0.60910 -0.15190 0.35784
 C215 C 0.62920 -0.17150 0.33821
 C216 C 0.66095 -0.16253 0.33382
 C217 C 0.67209 -0.13350 0.34948
 C218 C 0.65196 -0.11396 0.36911
 C219 C 0.59985 -0.10308 0.39380
 C220 C 0.58280 -0.08624 0.41108
 C221 C 0.56268 -0.06607 0.43192
 C222 C 0.54568 -0.08081 0.45792
 C223 C 0.52669 -0.06113 0.47865
 C224 C 0.52459 -0.02653 0.47353
 C225 C 0.54148 -0.01188 0.44734
 C226 C 0.56047 -0.03157 0.42662
 H227 H 0.58473 -0.15918 0.36090
 H228 H 0.61981 -0.19344 0.32614
 H229 H 0.69648 -0.12617 0.34696
 H230 H 0.66101 -0.09179 0.38110
 H231 H 0.54728 -0.10747 0.46230
 H232 H 0.51404 -0.07295 0.49882
 H233 H 0.54015 0.01480 0.44309
 H234 H 0.57356 -0.01988 0.40663
 C235 C 0.62404 0.37724 -0.12334
 C236 C 0.61206 0.34873 -0.13879
 C237 C 0.63157 0.32896 -0.15890
 C238 C 0.66335 0.33750 -0.16382
 C239 C 0.67514 0.36626 -0.14819
 C240 C 0.65559 0.38597 -0.12808
 C241 C 0.60394 0.39753 -0.10262
 C242 C 0.58705 0.41450 -0.08529
 C243 C 0.56677 0.43469 -0.06469
 C244 C 0.54521 0.41949 -0.04314
 C245 C 0.52519 0.43906 -0.02342
 C246 C 0.52642 0.47403 -0.02531
 C247 C 0.54844 0.48915 -0.04650
 C248 C 0.56845 0.46957 -0.06623
 H249 H 0.58763 0.34181 -0.13536
 H250 H 0.62169 0.30724 -0.17092
 H251 H 0.69959 0.37325 -0.15113
 H252 H 0.66512 0.40795 -0.11616
 H253 H 0.54386 0.39251 -0.04159
 H254 H 0.50893 0.42676 -0.00677
 H255 H 0.54998 0.51611 -0.04796
 H256 H 0.58514 0.48160 -0.08270
 C257 C -0.12133 0.12658 -0.12318
 C258 C -0.12616 0.11820 -0.15639
 C259 C -0.14613 0.13755 -0.17622
 C260 C -0.16207 0.16608 -0.16331
 C261 C -0.15650 0.17398 -0.12939
 C262 C -0.13646 0.15449 -0.10977
 C263 C -0.10106 0.10634 -0.10275
 C264 C -0.08423 0.08925 -0.08560
 C265 C -0.06433 0.06867 -0.06513
 C266 C -0.06897 0.03413 -0.06395
 C267 C -0.04974 0.01408 -0.04401
 C268 C -0.02579 0.02836 -0.02485
 C269 C -0.02096 0.06300 -0.02650
 C270 C -0.04022 0.08306 -0.04644
 H271 H -0.11477 0.09633 -0.16695
 H272 H -0.14993 0.12851 -0.20115
 H273 H -0.16614 0.19606 -0.11771
 H274 H -0.13261 0.16142 -0.08408
 H275 H -0.08741 0.02268 -0.07850
 H276 H -0.05357 -0.01255 -0.04386
 H277 H -0.00217 0.07468 -0.01278
 H278 H -0.03623 0.10975 -0.04738
 C279 C -0.12104 0.62488 0.37441
 C280 C -0.13406 0.61182 0.34532
 C281 C -0.15419 0.63143 0.32590
 C282 C -0.16159 0.66440 0.33537
 C283 C -0.14832 0.67730 0.36465
 C284 C -0.12818 0.65765 0.38401
 C285 C -0.10057 0.60458 0.39456
 C286 C -0.08356 0.58759 0.41161
 C287 C -0.06343 0.56735 0.43218
 C288 C -0.06065 0.53301 0.42632
 C289 C -0.04154 0.51328 0.44672
 C290 C -0.02527 0.52761 0.47342
 C291 C -0.02753 0.56222 0.47862
 C292 C -0.04665 0.58194 0.45822
 H293 H -0.12878 0.58643 0.33772
 H294 H -0.16433 0.62064 0.30375
 H295 H -0.15321 0.70271 0.37237
 H296 H -0.11817 0.66803 0.40645
 H297 H -0.07322 0.52150 0.40598
 H298 H -0.03922 0.48692 0.44132
 H299 H -0.01469 0.57425 0.49831
 H300 H -0.04840 0.60855 0.46280
 C301 C 0.37997 0.12485 0.37484
 C302 C 0.36684 0.11180 0.34580
 C303 C 0.34675 0.13147 0.32639
 C304 C 0.33949 0.16449 0.33582
 C305 C 0.35291 0.17739 0.36502
 C306 C 0.37301 0.15768 0.38437
 C307 C 0.40035 0.10447 0.39503
 C308 C 0.41727 0.08743 0.41213
 C309 C 0.43730 0.06712 0.43278
 C310 C 0.43991 0.03275 0.42702
 C311 C 0.45894 0.01298 0.44747
 C312 C 0.47529 0.02729 0.47413
 C313 C 0.47319 0.06192 0.47924
 C314 C 0.45414 0.08169 0.45879
 H315 H 0.37198 0.08637 0.33825
 H316 H 0.33649 0.12067 0.30429
 H317 H 0.34814 0.20284 0.37271
 H318 H 0.38311 0.16806 0.40677
 H319 H 0.42728 0.02125 0.40671
 H320 H 0.46114 -0.01340 0.44213
 H321 H 0.48610 0.07394 0.49888
 H322 H 0.45253 0.10832 0.46329
 C323 C 0.37574 0.62386 -0.12256
 C324 C 0.36303 0.61095 -0.15187
 C325 C 0.34342 0.63079 -0.17164
 C326 C 0.33625 0.66385 -0.16231
 C327 C 0.34919 0.67660 -0.13280
 C328 C 0.36880 0.65671 -0.11308
 C329 C 0.39594 0.60342 -0.10226
 C330 C 0.41293 0.58630 -0.08532
 C331 C 0.43332 0.56589 -0.06521
 C332 C 0.45495 0.54415 -0.08034
 C333 C 0.47498 0.52450 -0.06087
 C334 C 0.47370 0.52664 -0.02608
 C335 C 0.45164 0.54806 -0.01102
 C336 C 0.43162 0.56772 -0.03050
 H337 H 0.36820 0.58552 -0.15940
 H338 H 0.33351 0.62012 -0.19397
 H339 H 0.34446 0.70207 -0.12517
 H340 H 0.37862 0.66699 -0.09049
 H341 H 0.45632 0.54236 -0.10718
 H342 H 0.49126 0.50766 -0.07312
 H343 H 0.45004 0.54969 0.01581
 H344 H 0.41487 0.58434 -0.01851
 C345 C -0.12110 -0.12676 0.12317
 C346 C -0.11269 -0.13544 0.15556
 C347 C -0.13283 -0.15487 0.17508
 C348 C -0.16202 -0.16619 0.16257
 C349 C -0.16994 -0.15714 0.12959
 C350 C -0.14971 -0.13766 0.11024
 C351 C -0.10052 -0.10639 0.10328
 C352 C -0.08342 -0.08914 0.08665
 C353 C -0.06323 -0.06829 0.06682
 C354 C -0.04637 -0.04241 0.08174
 C355 C -0.02722 -0.02170 0.06242
 C356 C -0.02501 -0.02643 0.02791
 C357 C -0.04135 -0.05297 0.01326
 C358 C -0.06049 -0.07369 0.03257
 H359 H -0.09043 -0.12731 0.16575
 H360 H -0.12460 -0.16187 0.19950
 H361 H -0.19232 -0.16372 0.11879
 H362 H -0.15659 -0.13081 0.08523
 H363 H -0.04808 -0.03820 0.10829
 H364 H -0.01433 -0.00215 0.07469
 H365 H -0.03907 -0.05802 -0.01305
 H366 H -0.07313 -0.09390 0.02081
 C367 C -0.12194 0.37427 0.62354
 C368 C -0.11027 0.35842 0.65198
 C369 C -0.13008 0.33854 0.67145
 C370 C -0.16186 0.33426 0.66268
 C371 C -0.17332 0.35026 0.63399
 C372 C -0.15348 0.37013 0.61458
 C373 C -0.10161 0.39486 0.60359
 C374 C -0.08471 0.41217 0.58679
 C375 C -0.06470 0.43287 0.56661
 C376 C -0.04054 0.45133 0.58124
 C377 C -0.02123 0.47157 0.56160
 C378 C -0.02604 0.47376 0.52715
 C379 C -0.05003 0.45480 0.51261
 C380 C -0.06932 0.43456 0.53224
 H381 H -0.08587 0.36138 0.65909
 H382 H -0.12044 0.32622 0.69313
 H383 H -0.19775 0.34783 0.62682
 H384 H -0.16277 0.38238 0.59266
 H385 H -0.03657 0.44999 0.60779
 H386 H -0.00242 0.48512 0.57346
 H387 H -0.05386 0.45536 0.48611
 H388 H -0.08781 0.42020 0.52061
 C389 C 0.37764 -0.12480 0.62464
 C390 C 0.34619 -0.12899 0.61536
 C391 C 0.32612 -0.14867 0.63471
 C392 C 0.33726 -0.16444 0.66367
 C393 C 0.36894 -0.16005 0.67280
 C394 C 0.38897 -0.14037 0.65339
 C395 C 0.39822 -0.10451 0.60465
 C396 C 0.41531 -0.08747 0.58779
 C397 C 0.43552 -0.06706 0.56752
 C398 C 0.43094 -0.06548 0.53313
 C399 C 0.45037 -0.04545 0.51342
 C400 C 0.47445 -0.02657 0.52790
 C401 C 0.47925 -0.02869 0.56236
 C402 C 0.45981 -0.04873 0.58207
 H403 H 0.33714 -0.11697 0.59320
 H404 H 0.30178 -0.15118 0.62726
 H405 H 0.37834 -0.17220 0.69470
 H406 H 0.41330 -0.13737 0.66075
 H407 H 0.41237 -0.07975 0.52154
 H408 H 0.44654 -0.04494 0.48693
 H409 H 0.49812 -0.01521 0.57418
 H410 H 0.46375 -0.04997 0.60864
 C411 C 0.37605 0.37716 0.12299
 C412 C 0.38806 0.36137 0.15131
 C413 C 0.36858 0.34127 0.17091
 C414 C 0.33678 0.33669 0.16239
 C415 C 0.32495 0.35267 0.13385
 C416 C 0.34448 0.37277 0.11430
 C417 C 0.39614 0.39784 0.10286
 C418 C 0.41303 0.41512 0.08603
 C419 C 0.43331 0.43566 0.06599
 C420 C 0.45478 0.45717 0.08117
 C421 C 0.47478 0.47685 0.06174
 C422 C 0.47362 0.47496 0.02695
 C423 C 0.45170 0.45381 0.01184
 C424 C 0.43171 0.43412 0.03127
 H425 H 0.41250 0.36452 0.15820
 H426 H 0.37849 0.32898 0.19246
 H427 H 0.30050 0.35001 0.12688
 H428 H 0.33492 0.38496 0.09248
 H429 H 0.45607 0.45872 0.10802
 H430 H 0.49096 0.49348 0.07403
 H431 H 0.45021 0.45236 -0.01499
 H432 H 0.41509 0.41768 0.01925
 C433 C 0.12260 0.12439 0.12506
 C434 C 0.11088 0.15286 0.14116
 C435 C 0.13073 0.17220 0.16091
 C436 C 0.16260 0.16328 0.16483
 C437 C 0.17413 0.13457 0.14858
 C438 C 0.15424 0.11528 0.12882
 C439 C 0.10221 0.10451 0.10467
 C440 C 0.08526 0.08774 0.08755
 C441 C 0.06519 0.06757 0.06709
 C442 C 0.03245 0.07138 0.06885
 C443 C 0.01301 0.05156 0.04912
 C444 C 0.02612 0.02763 0.02756
 C445 C 0.05898 0.02419 0.02563
 C446 C 0.07841 0.04401 0.04537
 H447 H 0.08639 0.16007 0.13849
 H448 H 0.12105 0.19390 0.17344
 H449 H 0.19862 0.12729 0.15074
 H450 H 0.16357 0.09334 0.11640
 H451 H 0.02195 0.08963 0.08547
 H452 H -0.01228 0.05491 0.05065
 H453 H 0.06980 0.00630 0.00896
 H454 H 0.10373 0.04095 0.04370
 C455 C 0.12197 0.62260 0.62579
 C456 C 0.11029 0.65139 0.64133
 C457 C 0.13013 0.67104 0.66079
 C458 C 0.16197 0.66210 0.66498
 C459 C 0.17346 0.63306 0.64927
 C460 C 0.15359 0.61348 0.62980
 C461 C 0.10162 0.60249 0.60558
 C462 C 0.08470 0.58560 0.58853
 C463 C 0.06470 0.56543 0.56800
 C464 C 0.03194 0.56722 0.57162
 C465 C 0.01257 0.54774 0.55148
 C466 C 0.02576 0.52643 0.52741
 C467 C 0.05864 0.52447 0.52416
 C468 C 0.07800 0.54395 0.54430
 H469 H 0.08583 0.65863 0.63844
 H470 H 0.12047 0.69298 0.67291
 H471 H 0.19794 0.62576 0.65164
 H472 H 0.16290 0.59130 0.61778
 H473 H 0.02138 0.58364 0.58999
 H474 H -0.01273 0.54927 0.55470
 H475 H 0.06952 0.50796 0.50618
 H476 H 0.10333 0.54225 0.54139
 C477 C 0.62257 0.12185 0.62687
 C478 C 0.61092 0.15070 0.64234
 C479 C 0.63077 0.17033 0.66183
 C480 C 0.66258 0.16131 0.66610
 C481 C 0.67403 0.13220 0.65048
 C482 C 0.65414 0.11264 0.63100
 C483 C 0.60221 0.10180 0.60659
 C484 C 0.58530 0.08498 0.58947
 C485 C 0.56528 0.06488 0.56886
 C486 C 0.53252 0.06679 0.57237
 C487 C 0.51314 0.04738 0.55217
 C488 C 0.52632 0.02601 0.52814
 C489 C 0.55920 0.02394 0.52498
 C490 C 0.57857 0.04335 0.54519
 H491 H 0.58649 0.15802 0.63937
 H492 H 0.62115 0.19233 0.67386
 H493 H 0.69848 0.12483 0.65292
 H494 H 0.66343 0.09042 0.61903
 H495 H 0.52197 0.08325 0.59071
 H496 H 0.48784 0.04900 0.55532
 H497 H 0.57007 0.00738 0.50704
 H498 H 0.60391 0.04156 0.54235
 C499 C 0.62379 0.62324 0.12303
 C500 C 0.63024 0.61357 0.15574
 C501 C 0.64978 0.63311 0.17563
 C502 C 0.66312 0.66265 0.16304
 C503 C 0.65645 0.67217 0.13012
 C504 C 0.63692 0.65258 0.11027
 C505 C 0.60365 0.60312 0.10259
 C506 C 0.58673 0.58629 0.08550
 C507 C 0.56643 0.56626 0.06516
 C508 C 0.56810 0.53137 0.06681
 C509 C 0.54816 0.51194 0.04726
 C510 C 0.52620 0.52723 0.02613
 C511 C 0.52494 0.56220 0.02415
 C512 C 0.54490 0.58163 0.04369
 H513 H 0.62010 0.59096 0.16589
 H514 H 0.65412 0.62534 0.20099
 H515 H 0.66669 0.69452 0.11957
 H516 H 0.63214 0.66025 0.08496
 H517 H 0.58477 0.51920 0.08322
 H518 H 0.54973 0.48497 0.04877
 H519 H 0.50872 0.57463 0.00754
 H520 H 0.54355 0.60861 0.04205
   
