data_POSCAR
  _audit_creation_date              2014-09-24
  _audit_creation_method            'ToBaCCo'
  _symmetry_space_group_name_H-M    'P1'
  _symmetry_Int_Tables_number       1
  _symmetry_cell_setting            triclinic
  loop_
  _symmetry_equiv_pos_as_xyz
 x,y,z
_cell_length_a 44.6747
_cell_length_b 44.7027
_cell_length_c 39.7625
_cell_angle_alpha 89.998800
_cell_angle_beta 90.009100
_cell_angle_gamma 90.795700
loop_
  _atom_site_label
  _atom_site_type_symbol
  _atom_site_fract_x
  _atom_site_fract_y
  _atom_site_fract_z
C1 C 0.37541 0.02120 0.29797
 C2 C 0.35692 0.04727 0.28519
 C3 C 0.34013 0.04036 0.25763
 C4 C 0.34322 0.00791 0.24529
 C5 C 0.35286 -0.00435 0.30399
 C6 C 0.33613 -0.01141 0.27637
 C7 C 0.39402 0.01114 0.26769
 C8 C 0.37706 0.00407 0.24019
 H9 H 0.35738 0.06937 0.29660
 H10 H 0.32935 0.00239 0.22286
 H11 H 0.35270 -0.01795 0.32666
 H12 H 0.41828 0.00973 0.26796
 C13 C 0.12011 -0.01668 0.77580
 C14 C 0.13686 -0.04370 0.76250
 C15 C 0.15416 -0.03741 0.73516
 C16 C 0.15297 -0.00458 0.72347
 C17 C 0.14447 0.00708 0.78256
 C18 C 0.16162 0.01350 0.75504
 C19 C 0.10300 -0.00541 0.74756
 C20 C 0.12122 0.00136 0.71883
 H21 H 0.13658 -0.06541 0.77485
 H22 H 0.16714 0.00036 0.70109
 H23 H 0.14562 0.02018 0.80558
 H24 H 0.07897 -0.00199 0.74819
 C25 C 0.62289 0.48385 0.27854
 C26 C 0.63923 0.45683 0.26482
 C27 C 0.65635 0.46307 0.23740
 C28 C 0.65552 0.49589 0.22587
 C29 C 0.64731 0.50752 0.28499
 C30 C 0.66426 0.51391 0.25736
 C31 C 0.60478 0.49597 0.24887
 C32 C 0.62201 0.50240 0.22136
 H33 H 0.63879 0.43504 0.27698
 H34 H 0.66951 0.50081 0.20338
 H35 H 0.64855 0.52071 0.30793
 H36 H 0.58078 0.49951 0.24968
 C37 C 0.87565 0.52079 0.79725
 C38 C 0.85708 0.54682 0.78453
 C39 C 0.84013 0.53983 0.75711
 C40 C 0.84316 0.50736 0.74484
 C41 C 0.85316 0.49524 0.80350
 C42 C 0.83628 0.48810 0.77603
 C43 C 0.89410 0.51067 0.76686
 C44 C 0.87698 0.50354 0.73950
 H45 H 0.85757 0.56894 0.79589
 H46 H 0.82917 0.50178 0.72252
 H47 H 0.85314 0.48169 0.82621
 H48 H 0.91836 0.50930 0.76695
 C49 C 0.28276 0.41714 0.99860
 C50 C 0.27207 0.39732 1.02783
 C51 C 0.24872 0.37876 1.01940
 C52 C 0.23853 0.38140 0.98264
 C53 C 0.29013 0.39553 0.97019
 C54 C 0.26716 0.37685 0.96189
 C55 C 0.25476 0.43367 0.98695
 C56 C 0.23147 0.41483 0.97887
 H57 H 0.28075 0.39923 1.05328
 H58 H 0.21977 0.36604 0.97562
 H59 H 0.31174 0.39505 0.95763
 H60 H 0.25210 0.45766 0.98983
 C61 C 0.77257 0.07452 0.98640
 C62 C 0.76347 0.09488 0.95727
 C63 C 0.74137 0.11430 0.96569
 C64 C 0.73064 0.11162 1.00244
 C65 C 0.78135 0.09588 1.01491
 C66 C 0.75950 0.11527 1.02335
 C67 C 0.74521 0.05962 0.99740
 C68 C 0.72213 0.08017 1.00619
 H69 H 0.77355 0.09411 0.93242
 H70 H 0.71282 0.12763 1.00936
 H71 H 0.80249 0.09479 1.02841
 H72 H 0.74148 0.03558 0.99575
 C73 C 0.27447 0.57563 0.48546
 C74 C 0.26580 0.59643 0.45664
 C75 C 0.24355 0.61567 0.46493
 C76 C 0.23218 0.61257 0.50129
 C77 C 0.28250 0.59633 0.51474
 C78 C 0.26054 0.61557 0.52304
 C79 C 0.24529 0.55980 0.49596
 C80 C 0.22315 0.57931 0.50417
 H81 H 0.27602 0.59578 0.43186
 H82 H 0.21420 0.62841 0.50810
 H83 H 0.30339 0.59505 0.52869
 H84 H 0.24176 0.53574 0.49457
 C85 C 0.78246 0.91735 0.49994
 C86 C 0.77172 0.89752 0.52914
 C87 C 0.74837 0.87897 0.52065
 C88 C 0.73824 0.88164 0.48387
 C89 C 0.78986 0.89576 0.47154
 C90 C 0.76691 0.87709 0.46317
 C91 C 0.75449 0.93390 0.48825
 C92 C 0.73120 0.91508 0.48011
 H93 H 0.78038 0.89939 0.55460
 H94 H 0.71949 0.86629 0.47679
 H95 H 0.81148 0.89529 0.45900
 H96 H 0.75184 0.95789 0.49114
 C97 C -0.00934 0.28584 0.39790
 C98 C 0.01678 0.28894 0.37289
 C99 C 0.02003 0.26460 0.35242
 C100 C -0.00336 0.23936 0.35889
 C101 C -0.03556 0.27935 0.37748
 C102 C -0.03239 0.25392 0.35605
 C103 C -0.00308 0.25684 0.41720
 C104 C 0.00016 0.23244 0.39686
 H105 H 0.03206 0.30806 0.37241
 H106 H -0.00084 0.21954 0.34229
 H107 H -0.05578 0.29260 0.37820
 H108 H -0.00112 0.25574 0.44441
 C109 C 0.01183 0.77506 0.10205
 C110 C -0.01483 0.77672 0.12611
 C111 C -0.01747 0.75283 0.14722
 C112 C 0.00701 0.72915 0.14242
 C113 C 0.03910 0.77090 0.12473
 C114 C 0.03671 0.74698 0.14586
 C115 C 0.00779 0.74515 0.08354
 C116 C 0.00524 0.72108 0.10464
 H117 H -0.03094 0.79472 0.12560
 H118 H 0.00499 0.70966 0.15966
 H119 H 0.05871 0.78556 0.12405
 H120 H 0.00716 0.74317 0.05632
 C121 C 0.51203 0.27513 0.60384
 C122 C 0.48527 0.27671 0.62779
 C123 C 0.48256 0.25274 0.64879
 C124 C 0.50707 0.22909 0.64401
 C125 C 0.53921 0.27091 0.62662
 C126 C 0.53677 0.24692 0.64764
 C127 C 0.50805 0.24528 0.58520
 C128 C 0.50543 0.22114 0.60619
 H129 H 0.46909 0.29464 0.62717
 H130 H 0.50501 0.20956 0.66117
 H131 H 0.55885 0.28553 0.62601
 H132 H 0.50745 0.24339 0.55797
 C133 C 0.49202 0.78528 0.90109
 C134 C 0.51809 0.78833 0.87601
 C135 C 0.52142 0.76386 0.85575
 C136 C 0.49822 0.73853 0.86256
 C137 C 0.46449 0.77847 0.87917
 C138 C 0.46759 0.75404 0.85890
 C139 C 0.49759 0.75792 0.91960
 C140 C 0.50107 0.73225 0.89854
 H141 H 0.53316 0.80761 0.87515
 H142 H 0.50079 0.71862 0.84610
 H143 H 0.44439 0.79189 0.87950
 H144 H 0.49927 0.75694 0.94685
 C145 C -0.22867 0.62594 0.95271
 C146 C -0.20271 0.60726 0.96541
 C147 C -0.20975 0.59041 0.99288
 C148 C -0.24219 0.59366 1.00522
 C149 C -0.25437 0.60360 0.94656
 C150 C -0.26156 0.58682 0.97410
 C151 C -0.23863 0.64450 0.98307
 C152 C -0.24581 0.62749 1.01049
 H153 H -0.18060 0.60760 0.95400
 H154 H -0.24781 0.57975 1.02758
 H155 H -0.26797 0.60361 0.92389
 H156 H -0.23989 0.66876 0.98291
 C157 C -0.26620 0.36992 0.47389
 C158 C -0.29324 0.38655 0.48739
 C159 C -0.28689 0.40376 0.51479
 C160 C -0.25399 0.40260 0.52634
 C161 C -0.24250 0.39434 0.46716
 C162 C -0.23604 0.41140 0.49473
 C163 C -0.25479 0.35275 0.50201
 C164 C -0.24796 0.37086 0.53080
 H165 H -0.31500 0.38627 0.47512
 H166 H -0.24900 0.41669 0.54876
 H167 H -0.22950 0.39564 0.44408
 H168 H -0.25140 0.32873 0.50128
 C169 C 0.23375 -0.12833 -0.02731
 C170 C 0.20670 -0.11149 -0.01421
 C171 C 0.21286 -0.09433 0.01327
 C172 C 0.24561 -0.09574 0.02531
 C173 C 0.25772 -0.10410 -0.03371
 C174 C 0.26401 -0.08709 -0.00604
 C175 C 0.24470 -0.14559 0.00098
 C176 C 0.25134 -0.12752 0.02986
 H177 H 0.18504 -0.11172 -0.02669
 H178 H 0.25044 -0.08168 0.04779
 H179 H 0.27101 -0.10295 -0.05658
 H180 H 0.24809 -0.16961 0.00023
 C181 C 0.27086 1.12560 0.45187
 C182 C 0.29689 1.10706 0.46468
 C183 C 0.28983 1.09011 0.49207
 C184 C 0.25730 1.09310 0.50420
 C185 C 0.24534 1.10309 0.44549
 C186 C 0.23814 1.08620 0.47293
 C187 C 0.26062 1.14401 0.48222
 C188 C 0.25342 1.12688 0.50954
 H189 H 0.31907 1.10761 0.45343
 H190 H 0.25166 1.07910 0.52648
 H191 H 0.23186 1.10306 0.42273
 H192 H 0.25925 1.16826 0.48216
 C193 C 0.16726 0.53300 0.25044
 C194 C 0.14738 0.52231 0.22125
 C195 C 0.12884 0.49895 0.22970
 C196 C 0.13156 0.48877 0.26645
 C197 C 0.14568 0.54034 0.27890
 C198 C 0.12702 0.51738 0.28723
 C199 C 0.18384 0.50502 0.26204
 C200 C 0.16502 0.48173 0.27015
 H201 H 0.14926 0.53097 0.19579
 H202 H 0.11621 0.47001 0.27350
 H203 H 0.14520 0.56194 0.29146
 H204 H 0.20784 0.50239 0.25912
 C205 C -0.17528 1.02276 0.26372
 C206 C -0.15493 1.01360 0.29284
 C207 C -0.13566 0.99136 0.28444
 C208 C -0.13847 0.98058 0.24773
 C209 C -0.15390 1.03133 0.23514
 C210 C -0.13466 1.00935 0.22673
 C211 C -0.19039 0.99548 0.25281
 C212 C -0.16999 0.97226 0.24404
 H213 H -0.15564 1.02371 0.31768
 H214 H -0.12257 0.96266 0.24082
 H215 H -0.15491 1.05242 0.22155
 H216 H -0.21446 0.99191 0.25452
 C217 C 0.32518 0.52387 -0.23535
 C218 C 0.34593 0.51509 -0.20652
 C219 C 0.36519 0.49288 -0.21485
 C220 C 0.36216 0.48165 -0.25127
 C221 C 0.34596 0.53199 -0.26453
 C222 C 0.36522 0.51006 -0.27287
 C223 C 0.30935 0.49476 -0.24603
 C224 C 0.32888 0.47266 -0.25429
 H225 H 0.34530 0.52528 -0.18171
 H226 H 0.37801 0.46370 -0.25812
 H227 H 0.34473 0.55293 -0.27837
 H228 H 0.28527 0.49124 -0.24472
 C229 C 0.66755 0.03242 -0.24876
 C230 C 0.64770 0.02178 -0.27799
 C231 C 0.62908 -0.00152 -0.26957
 C232 C 0.63169 -0.01170 -0.23281
 C233 C 0.64593 0.03984 -0.22036
 C234 C 0.62719 0.01693 -0.21207
 C235 C 0.68403 0.00441 -0.23709
 C236 C 0.66513 -0.01883 -0.22902
 H237 H 0.64961 0.03047 -0.30343
 H238 H 0.61628 -0.03041 -0.22578
 H239 H 0.64549 0.06144 -0.20781
 H240 H 0.70803 0.00171 -0.23995
 C241 C 0.03468 0.24161 0.84944
 C242 C 0.03794 0.26760 0.87459
 C243 C 0.01350 0.27105 0.89488
 C244 C -0.01200 0.24804 0.88805
 C245 C 0.02771 0.21409 0.87130
 C246 C 0.00331 0.21732 0.89161
 C247 C 0.00732 0.24739 0.83098
 C248 C -0.01831 0.25100 0.85209
 H249 H 0.05731 0.28255 0.87542
 H250 H -0.03189 0.25071 0.90454
 H251 H 0.04099 0.19390 0.87087
 H252 H 0.00631 0.24909 0.80373
 C253 C 0.52561 0.26222 0.14722
 C254 C 0.52710 0.23555 0.12317
 C255 C 0.50314 0.23300 0.10211
 C256 C 0.47957 0.25759 0.10695
 C257 C 0.52153 0.28948 0.12454
 C258 C 0.49755 0.28721 0.10347
 C259 C 0.49569 0.25832 0.16579
 C260 C 0.47155 0.25587 0.14475
 H261 H 0.54498 0.21930 0.12373
 H262 H 0.46004 0.25567 0.08974
 H263 H 0.53624 0.30905 0.12527
 H264 H 0.49376 0.25766 0.19301
 C265 C 0.02525 0.76175 0.64675
 C266 C 0.02680 0.73501 0.62279
 C267 C 0.00283 0.73234 0.60176
 C268 C -0.02081 0.75687 0.60654
 C269 C 0.02107 0.78892 0.62396
 C270 C -0.00293 0.78652 0.60293
 C271 C -0.00464 0.75782 0.66536
 C272 C -0.02879 0.75524 0.64434
 H273 H 0.04474 0.71884 0.62336
 H274 H -0.04035 0.75483 0.58936
 H275 H 0.03573 0.80853 0.62458
 H276 H -0.00655 0.75724 0.69259
 C277 C 0.53606 0.74192 0.35084
 C278 C 0.53910 0.76792 0.37590
 C279 C 0.51470 0.77127 0.39620
 C280 C 0.48933 0.74818 0.38961
 C281 C 0.52901 0.71439 0.37250
 C282 C 0.50465 0.71751 0.39283
 C283 C 0.50711 0.74801 0.33148
 C284 C 0.48266 0.75137 0.35163
 H285 H 0.55836 0.78302 0.37664
 H286 H 0.46945 0.75077 0.40609
 H287 H 0.54229 0.69421 0.37199
 H288 H 0.50609 0.74977 0.30424
 B289 B -0.02137 0.01470 1.03251
 B290 B -0.03549 0.00658 0.99473
 B291 B -0.01013 0.03419 0.99883
 B292 B 0.01503 0.02433 1.02844
 B293 B 0.00455 -0.01056 1.04231
 B294 B -0.02724 -0.02127 1.02140
 B295 B 0.01727 -0.01445 0.97555
 B296 B 0.03148 -0.00635 1.01328
 B297 B 0.00604 -0.03379 1.00906
 B298 B -0.01905 -0.02399 0.97959
 B299 B -0.00856 0.01081 0.96565
 B300 B 0.02329 0.02152 0.98655
 B301 B 0.47987 0.51498 0.53393
 B302 B 0.46610 0.50692 0.49598
 B303 B 0.49153 0.53442 0.50040
 B304 B 0.51635 0.52446 0.53033
 B305 B 0.50558 0.48960 0.54406
 B306 B 0.47396 0.47903 0.52274
 B307 B 0.51895 0.48568 0.47747
 B308 B 0.53282 0.49371 0.51536
 B309 B 0.50731 0.46637 0.51083
 B310 B 0.48256 0.47628 0.48104
 B311 B 0.49333 0.51105 0.46725
 B312 B 0.52501 0.52162 0.48854
 B313 B 0.51748 0.96976 0.54754
 B314 B 0.53395 0.97801 0.51101
 B315 B 0.50543 0.95350 0.51213
 B316 B 0.48042 0.96477 0.54127
 B317 B 0.49430 0.99749 0.55797
 B318 B 0.52795 1.00536 0.53917
 B319 B 0.48494 1.00625 0.49105
 B320 B 0.46835 0.99801 0.52747
 B321 B 0.49693 1.02247 0.52636
 B322 B 0.52187 1.01119 0.49729
 B323 B 0.50796 0.97857 0.48056
 B324 B 0.47436 0.97067 0.49930
 B325 B 0.01776 0.46936 1.04669
 B326 B 0.03418 0.47756 1.01011
 B327 B 0.00561 0.45310 1.01132
 B328 B -0.01932 0.46444 1.04051
 B329 B -0.00534 0.49715 1.05715
 B330 B 0.02829 0.50494 1.03826
 B331 B -0.01481 0.50589 0.99025
 B332 B -0.03135 0.49770 1.02671
 B333 B -0.00273 0.52210 1.02552
 B334 B 0.02214 0.51076 0.99640
 B335 B 0.00814 0.47816 0.97972
 B336 B -0.02545 0.47033 0.99855
 B337 B 0.00464 0.52202 0.47404
 B338 B 0.02222 0.51745 0.51063
 B339 B -0.00543 0.54202 0.50752
 B340 B -0.03190 0.52819 0.48130
 B341 B -0.01990 0.49385 0.46845
 B342 B 0.01410 0.48749 0.48662
 B343 B -0.02707 0.49216 0.53651
 B344 B -0.04464 0.49686 0.49998
 B345 B -0.01702 0.47224 0.50295
 B346 B 0.00947 0.48606 0.52924
 B347 B -0.00254 0.52044 0.54214
 B348 B -0.03654 0.52679 0.52399
 B349 B 0.50517 0.02242 -0.02510
 B350 B 0.52283 0.01806 0.01147
 B351 B 0.49508 0.04251 0.00829
 B352 B 0.46862 0.02847 -0.01781
 B353 B 0.48074 -0.00587 -0.03052
 B354 B 0.51479 -0.01203 -0.01237
 B355 B 0.47366 -0.00732 0.03755
 B356 B 0.45602 -0.00283 0.00103
 B357 B 0.48375 -0.02734 0.00407
 B358 B 0.51021 -0.01331 0.03025
 B359 B 0.49809 0.02107 0.04301
 B360 B 0.46404 0.02723 0.02488
 B361 B 0.49028 0.49000 -0.03577
 B362 B 0.47386 0.49866 0.00054
 B363 B 0.49985 0.47227 -0.00064
 B364 B 0.52653 0.48233 -0.02871
 B365 B 0.51624 0.51620 -0.04484
 B366 B 0.48307 0.52597 -0.02667
 B367 B 0.52504 0.52284 0.02267
 B368 B 0.54150 0.51429 -0.01361
 B369 B 0.51536 0.54065 -0.01257
 B370 B 0.48881 0.53053 0.01557
 B371 B 0.49908 0.49665 0.03165
 B372 B 0.53218 0.48681 0.01351
 B373 B -0.00992 0.98892 0.46317
 B374 B -0.02611 0.99762 0.49961
 B375 B -0.00025 0.97110 0.49820
 B376 B 0.02633 0.98106 0.46997
 B377 B 0.01611 1.01500 0.45397
 B378 B -0.01691 1.02491 0.47237
 B379 B 0.02531 1.02152 0.52143
 B380 B 0.04153 1.01294 0.48503
 B381 B 0.01552 1.03942 0.48628
 B382 B -0.01092 1.02939 0.51459
 B383 B -0.00072 0.99544 0.53053
 B384 B 0.03223 0.98546 0.51216
 B385 B 0.76567 0.22903 0.21704
 B386 B 0.75754 0.21494 0.25481
 B387 B 0.78510 0.24037 0.25075
 B388 B 0.77518 0.26545 0.22109
 B389 B 0.74032 0.25484 0.20716
 B390 B 0.72968 0.22307 0.22809
 B391 B 0.73629 0.26760 0.27391
 B392 B 0.74440 0.28179 0.23618
 B393 B 0.71701 0.25629 0.24037
 B394 B 0.72687 0.23128 0.26988
 B395 B 0.76165 0.24188 0.28388
 B396 B 0.77228 0.27373 0.26297
 B397 B 0.71946 0.76751 0.70332
 B398 B 0.72782 0.78396 0.73984
 B399 B 0.70335 0.75540 0.73880
 B400 B 0.71458 0.73046 0.70958
 B401 B 0.74724 0.74442 0.69275
 B402 B 0.75510 0.77805 0.71155
 B403 B 0.75627 0.73504 0.75961
 B404 B 0.74792 0.71846 0.72321
 B405 B 0.77234 0.74708 0.72425
 B406 B 0.76110 0.77196 0.75339
 B407 B 0.72856 0.75797 0.77026
 B408 B 0.72065 0.72439 0.75151
 B409 B 0.27155 0.25434 0.77518
 B410 B 0.26712 0.27189 0.73856
 B411 B 0.29167 0.24424 0.74181
 B412 B 0.27771 0.21781 0.76798
 B413 B 0.24332 0.22985 0.78067
 B414 B 0.23705 0.26383 0.76244
 B415 B 0.24186 0.22264 0.71261
 B416 B 0.24641 0.20510 0.74918
 B417 B 0.22182 0.23273 0.74607
 B418 B 0.23577 0.25916 0.71982
 B419 B 0.27020 0.24711 0.70709
 B420 B 0.27646 0.21315 0.72530
 B421 B 0.23931 0.74058 0.28550
 B422 B 0.24788 0.72433 0.24906
 B423 B 0.22129 0.75011 0.25055
 B424 B 0.23132 0.77676 0.27864
 B425 B 0.26538 0.76668 0.29446
 B426 B 0.27530 0.73367 0.27609
 B427 B 0.27155 0.77573 0.22694
 B428 B 0.26309 0.79201 0.26335
 B429 B 0.28965 0.76608 0.26201
 B430 B 0.27955 0.73956 0.23383
 B431 B 0.24548 0.74962 0.21807
 B432 B 0.23549 0.78257 0.23641
 B433 B 0.26530 0.72942 0.71684
 B434 B 0.25714 0.71559 0.75473
 B435 B 0.28470 0.74098 0.75047
 B436 B 0.27482 0.76586 0.72058
 B437 B 0.23996 0.75517 0.70671
 B438 B 0.22930 0.72353 0.72791
 B439 B 0.23589 0.76839 0.77333
 B440 B 0.24403 0.78232 0.73550
 B441 B 0.21663 0.75684 0.73988
 B442 B 0.22646 0.73204 0.76962
 B443 B 0.26122 0.74273 0.78356
 B444 B 0.27189 0.77443 0.76238
 B445 B 0.21964 0.26798 0.20267
 B446 B 0.22778 0.28448 0.23922
 B447 B 0.20334 0.25589 0.23805
 B448 B 0.21476 0.23093 0.20894
 B449 B 0.24749 0.24491 0.19231
 B450 B 0.25522 0.27857 0.21113
 B451 B 0.25618 0.23560 0.25925
 B452 B 0.24804 0.21898 0.22282
 B453 B 0.27243 0.24763 0.22397
 B454 B 0.26100 0.27252 0.25301
 B455 B 0.22838 0.25852 0.26968
 B456 B 0.22061 0.22491 0.25092
 B457 B 0.77261 0.75545 0.27591
 B458 B 0.76810 0.77302 0.23932
 B459 B 0.79271 0.74541 0.24250
 B460 B 0.77883 0.71894 0.26867
 B461 B 0.74443 0.73090 0.28141
 B462 B 0.73807 0.76487 0.26323
 B463 B 0.74291 0.72373 0.21335
 B464 B 0.74754 0.70618 0.24990
 B465 B 0.72288 0.73376 0.24685
 B466 B 0.73675 0.76024 0.22061
 B467 B 0.77119 0.74827 0.20782
 B468 B 0.77754 0.71431 0.22598
 B469 B 0.73955 0.24003 0.78688
 B470 B 0.74820 0.22368 0.75052
 B471 B 0.72166 0.24951 0.75182
 B472 B 0.73166 0.27622 0.77986
 B473 B 0.76565 0.26611 0.79586
 B474 B 0.77556 0.23302 0.77764
 B475 B 0.77205 0.27496 0.72833
 B476 B 0.76351 0.29136 0.76464
 B477 B 0.79003 0.26537 0.76350
 B478 B 0.77995 0.23880 0.73538
 B479 B 0.74595 0.24888 0.71944
 B480 B 0.73598 0.28190 0.73763
 C481 C 0.39323 1.02838 0.32782
 C482 C 0.40761 1.03277 0.35295
 C483 C 0.42426 1.03537 0.38284
 C484 C 0.43841 1.03468 0.40852
 C485 C 0.45478 1.02990 0.43817
 C486 C 0.46847 1.02206 0.46256
 C487 C -0.10640 0.52804 0.82698
 C488 C -0.09198 0.53246 0.85207
 C489 C -0.07533 0.53508 0.88196
 C490 C -0.06122 0.53438 0.90767
 C491 C -0.04491 0.52958 0.93736
 C492 C -0.03128 0.52172 0.96177
 C493 C 0.10260 -0.02369 0.80586
 C494 C 0.08963 -0.02880 0.83172
 C495 C 0.07541 -0.03304 0.86287
 C496 C 0.06338 -0.03426 0.88983
 C497 C 0.04886 -0.03215 0.92100
 C498 C 0.03561 -0.02682 0.94649
 C499 C 0.60554 0.47683 0.30868
 C500 C 0.59256 0.47165 0.33452
 C501 C 0.57819 0.46729 0.36555
 C502 C 0.56593 0.46595 0.39237
 C503 C 0.55109 0.46797 0.42335
 C504 C 0.53756 0.47327 0.44866
 C505 C 0.60969 0.51466 0.19094
 C506 C 0.59877 0.52399 0.16537
 C507 C 0.58505 0.53287 0.13508
 C508 C 0.57244 0.53769 0.10891
 C509 C 0.55670 0.53903 0.07823
 C510 C 0.54272 0.53551 0.05263
 C511 C 0.10965 1.01286 0.68992
 C512 C 0.09888 1.02220 0.66427
 C513 C 0.08532 1.03113 0.63390
 C514 C 0.07282 1.03601 0.60767
 C515 C 0.05715 1.03746 0.57696
 C516 C 0.04315 1.03405 0.55134
 C517 C -0.11015 0.49371 0.70826
 C518 C -0.09876 0.48643 0.68211
 C519 C -0.08465 0.47980 0.65131
 C520 C -0.07200 0.47658 0.62485
 C521 C -0.05665 0.47650 0.59388
 C522 C -0.04339 0.48036 0.56785
 C523 C 0.39010 -0.00573 0.20904
 C524 C 0.40164 -0.01300 0.18296
 C525 C 0.41590 -0.01963 0.15226
 C526 C 0.42867 -0.02284 0.12586
 C527 C 0.44411 -0.02293 0.09496
 C528 C 0.45739 -0.01909 0.06894
 C529 C 0.30858 0.43628 0.00652
 C530 C 0.33160 0.45001 0.01068
 C531 C 0.36001 0.46374 0.01288
 C532 C 0.38514 0.47365 0.01268
 C533 C 0.41510 0.48342 0.01028
 C534 C 0.44092 0.49063 0.00677
 C535 C -0.19169 0.93645 0.50783
 C536 C -0.16860 0.95008 0.51179
 C537 C -0.14007 0.96362 0.51359
 C538 C -0.11487 0.97333 0.51297
 C539 C -0.08486 0.98281 0.51006
 C540 C -0.05904 0.98979 0.50616
 C541 C -0.20244 0.05504 0.97862
 C542 C -0.17927 0.04215 0.97507
 C543 C -0.15024 0.03064 0.97422
 C544 C -0.12454 0.02334 0.97605
 C545 C -0.09415 0.01701 0.98070
 C546 C -0.06820 0.01246 0.98621
 C547 C 0.29960 0.55631 0.47782
 C548 C 0.32279 0.54343 0.47447
 C549 C 0.35178 0.53179 0.47394
 C550 C 0.37740 0.52432 0.47609
 C551 C 0.40768 0.51775 0.48115
 C552 C 0.43353 0.51299 0.48702
 C553 C 0.19271 0.56966 0.50956
 C554 C 0.16703 0.56177 0.51295
 C555 C 0.13682 0.55266 0.51555
 C556 C 0.11095 0.54488 0.51655
 C557 C 0.08068 0.53571 0.51624
 C558 C 0.05488 0.52777 0.51469
 C559 C 0.69319 0.07105 0.01066
 C560 C 0.66749 0.06311 0.01374
 C561 C 0.63729 0.05388 0.01615
 C562 C 0.61145 0.04598 0.01711
 C563 C 0.58122 0.03664 0.01686
 C564 C 0.55546 0.02855 0.01540
 C565 C 0.70088 0.92546 0.47973
 C566 C 0.67543 0.93377 0.48151
 C567 C 0.64570 0.94320 0.48558
 C568 C 0.62040 0.95107 0.49034
 C569 C 0.59094 0.96019 0.49696
 C570 C 0.56586 0.96798 0.50306
 C571 C 0.20113 0.42518 0.97855
 C572 C 0.17567 0.43346 0.98037
 C573 C 0.14592 0.44281 0.98450
 C574 C 0.12062 0.45064 0.98929
 C575 C 0.09115 0.45971 0.99595
 C576 C 0.06606 0.46749 1.00210
 C577 C -0.01294 0.31221 0.41987
 C578 C -0.01590 0.33418 0.43731
 C579 C -0.01903 0.36063 0.45670
 C580 C -0.02102 0.38403 0.47179
 C581 C -0.02206 0.41270 0.48706
 C582 C -0.02132 0.43827 0.49699
 C583 C 0.48832 -0.18817 -0.07722
 C584 C 0.48528 -0.16603 -0.06007
 C585 C 0.48207 -0.13938 -0.04104
 C586 C 0.48003 -0.11582 -0.02626
 C587 C 0.47890 -0.08701 -0.01134
 C588 C 0.47956 -0.06135 -0.00166
 C589 C 0.01446 -0.19836 1.08033
 C590 C 0.01616 -0.17537 1.06443
 C591 C 0.01732 -0.14730 1.04795
 C592 C 0.01732 -0.12257 1.03574
 C593 C 0.01581 -0.09283 1.02371
 C594 C 0.01287 -0.06701 1.01560
 C595 C 0.51475 0.30176 0.58222
 C596 C 0.51656 0.32477 0.56636
 C597 C 0.51789 0.35283 0.54990
 C598 C 0.51804 0.37756 0.53767
 C599 C 0.51672 0.40730 0.52561
 C600 C 0.51394 0.43312 0.51745
 C601 C 0.50172 1.19092 0.59344
 C602 C 0.49888 1.16591 0.58207
 C603 C 0.49605 1.13663 0.56840
 C604 C 0.49430 1.11155 0.55699
 C605 C 0.49332 1.08181 0.54443
 C606 C 0.49376 1.05605 0.53508
 C607 C 0.00164 0.69080 1.09202
 C608 C -0.00109 0.66573 1.08077
 C609 C -0.00379 0.63640 1.06723
 C610 C -0.00545 0.61127 1.05592
 C611 C -0.00634 0.58148 1.04347
 C612 C -0.00586 0.55570 1.03420
 C613 C 0.50692 0.70459 -0.08822
 C614 C 0.51175 0.68057 -0.07535
 C615 C 0.51666 0.65254 -0.05957
 C616 C 0.51974 0.62839 -0.04630
 C617 C 0.52154 0.59944 -0.03176
 C618 C 0.52084 0.57403 -0.02126
 C619 C 0.00659 1.20318 0.41061
 C620 C 0.01160 1.17919 0.42344
 C621 C 0.01669 1.15120 0.43922
 C622 C 0.01989 1.12709 0.45251
 C623 C 0.02178 1.09817 0.46707
 C624 C 0.02109 1.07276 0.47760
 C625 C 0.77863 0.64378 0.92292
 C626 C 0.78309 0.65813 0.89780
 C627 C 0.78572 0.67470 0.86787
 C628 C 0.78502 0.68877 0.84213
 C629 C 0.78016 0.70503 0.81243
 C630 C 0.77223 0.71863 0.78803
 C631 C 0.27818 0.14359 0.42219
 C632 C 0.28264 0.15809 0.39718
 C633 C 0.28530 0.17486 0.36739
 C634 C 0.28463 0.18909 0.34176
 C635 C 0.27986 0.20550 0.31215
 C636 C 0.27201 0.21918 0.28776
 C637 C 0.72675 0.35252 0.44377
 C638 C 0.72163 0.33963 0.41786
 C639 C 0.71742 0.32550 0.38665
 C640 C 0.71623 0.31354 0.35966
 C641 C 0.71841 0.29910 0.32845
 C642 C 0.72381 0.28590 0.30295
 C643 C 0.22682 0.85429 0.94253
 C644 C 0.22169 0.84136 0.91665
 C645 C 0.21738 0.82711 0.88554
 C646 C 0.21607 0.81499 0.85864
 C647 C 0.21811 0.80032 0.82757
 C648 C 0.22343 0.78691 0.80218
 C649 C 0.26274 0.86077 0.05875
 C650 C 0.27201 0.84984 0.08435
 C651 C 0.28089 0.83609 0.11462
 C652 C 0.28576 0.82344 0.14076
 C653 C 0.28724 0.80765 0.17138
 C654 C 0.28392 0.79358 0.19695
 C655 C 0.76349 0.35920 0.55969
 C656 C 0.77279 0.34836 0.58533
 C657 C 0.78166 0.33475 0.61568
 C658 C 0.78651 0.32224 0.64191
 C659 C 0.78794 0.30661 0.67264
 C660 C 0.78454 0.29268 0.69830
 C661 C 0.24355 0.13972 0.54078
 C662 C 0.23624 0.15108 0.56693
 C663 C 0.22959 0.16515 0.59774
 C664 C 0.22636 0.17778 0.62421
 C665 C 0.22627 0.19310 0.65519
 C666 C 0.23011 0.20633 0.68123
 C667 C 0.74442 0.64045 0.04169
 C668 C 0.73718 0.65191 0.06782
 C669 C 0.73058 0.66607 0.09858
 C670 C 0.72738 0.67876 0.12503
 C671 C 0.72731 0.69413 0.15597
 C672 C 0.73116 0.70740 0.18199
 C673 C 0.18636 0.55884 0.24253
 C674 C 0.20002 0.58190 0.23842
 C675 C 0.21362 0.61038 0.23632
 C676 C 0.22341 0.63554 0.23663
 C677 C 0.23300 0.66554 0.23914
 C678 C 0.24005 0.69137 0.24274
 C679 C 0.68672 0.05822 0.74339
 C680 C 0.70042 0.08126 0.73938
 C681 C 0.71403 0.10974 0.73743
 C682 C 0.72379 0.13491 0.73787
 C683 C 0.73333 0.16490 0.74054
 C684 C 0.74036 0.19073 0.74422
 C685 C 0.80540 0.04789 0.27145
 C686 C 0.79267 0.07115 0.27493
 C687 C 0.78135 0.10024 0.27568
 C688 C 0.77420 0.12596 0.27375
 C689 C 0.76799 0.15635 0.26899
 C690 C 0.76348 0.18228 0.26341
 C691 C 0.30587 0.54898 0.77237
 C692 C 0.29304 0.57218 0.77581
 C693 C 0.28152 0.60119 0.77645
 C694 C 0.27417 0.62683 0.77439
 C695 C 0.26775 0.65714 0.76942
 C696 C 0.26311 0.68301 0.76362
 C697 C 0.31923 0.44226 0.74015
 C698 C 0.31137 0.41660 0.73663
 C699 C 0.30229 0.38642 0.73389
 C700 C 0.29455 0.36056 0.73280
 C701 C 0.28541 0.33030 0.73302
 C702 C 0.27747 0.30452 0.73453
 C703 C 0.82073 0.94338 0.23967
 C704 C 0.81272 0.91771 0.23667
 C705 C 0.80348 0.88753 0.23435
 C706 C 0.79563 0.86169 0.23346
 C707 C 0.78640 0.83145 0.23380
 C708 C 0.77842 0.80568 0.23532
 C709 C 0.67543 0.95084 0.77133
 C710 C 0.68369 0.92538 0.76952
 C711 C 0.69305 0.89565 0.76542
 C712 C 0.70088 0.87036 0.76065
 C713 C 0.70997 0.84090 0.75400
 C714 C 0.71776 0.81583 0.74786
 C715 C 0.17539 0.45142 0.27046
 C716 C 0.18366 0.42596 0.26864
 C717 C 0.19301 0.39622 0.26455
 C718 C 0.20082 0.37091 0.25980
 C719 C 0.20988 0.34144 0.25321
 C720 C 0.21767 0.31636 0.24713
 C721 C 0.06117 0.23776 0.82769
 C722 C 0.08325 0.23459 0.81048
 C723 C 0.10984 0.23123 0.79136
 C724 C 0.13336 0.22908 0.77651
 C725 C 0.16214 0.22786 0.76153
 C726 C 0.18780 0.22850 0.75181
 C727 C 0.56250 0.73818 0.32905
 C728 C 0.58454 0.73510 0.31174
 C729 C 0.61106 0.73186 0.29250
 C730 C 0.63453 0.72980 0.27755
 C731 C 0.66327 0.72870 0.26245
 C732 C 0.68890 0.72942 0.25265
 C733 C 0.55227 0.26473 0.16889
 C734 C 0.57531 0.26634 0.18475
 C735 C 0.60341 0.26743 0.20122
 C736 C 0.62816 0.26740 0.21346
 C737 C 0.65791 0.26590 0.22555
 C738 C 0.68375 0.26301 0.23373
 C739 C 0.05190 0.76443 0.66838
 C740 C 0.07494 0.76620 0.68423
 C741 C 0.10303 0.76750 0.70068
 C742 C 0.12778 0.76763 0.71291
 C743 C 0.15754 0.76629 0.72499
 C744 C 0.18337 0.76350 0.73318
 C745 C 0.94094 0.75163 0.65707
 C746 C 0.91589 0.74888 0.66841
 C747 C 0.88658 0.74614 0.68205
 C748 C 0.86147 0.74445 0.69344
 C749 C 0.83170 0.74352 0.70601
 C750 C 0.80593 0.74397 0.71540
 C751 C 0.44126 0.25229 0.15742
 C752 C 0.41618 0.24954 0.16871
 C753 C 0.38683 0.24680 0.18227
 C754 C 0.36169 0.24509 0.19359
 C755 C 0.33188 0.24413 0.20605
 C756 C 0.30607 0.24455 0.21532
 C757 C 0.45345 0.75772 0.33767
 C758 C 0.42950 0.76267 0.32472
 C759 C 0.40152 0.76766 0.30884
 C760 C 0.37740 0.77079 0.29551
 C761 C 0.34846 0.77256 0.28096
 C762 C 0.32303 0.77178 0.27050
 C763 C 0.95403 0.25696 0.83889
 C764 C 0.93002 0.26189 0.82605
 C765 C 0.90198 0.26687 0.81028
 C766 C 0.87782 0.26998 0.79703
 C767 C 0.84885 0.27176 0.78253
 C768 C 0.82341 0.27101 0.77207
 C769 C 0.61156 0.98268 0.70559
 C770 C 0.59725 0.97079 0.68355
 C771 C 0.58053 0.95956 0.65615
 C772 C 0.56606 0.95346 0.63150
 C773 C 0.54898 0.95159 0.60181
 C774 C 0.53454 0.95551 0.57670
 C775 C 0.11145 0.48302 1.20486
 C776 C 0.09724 0.47099 1.18282
 C777 C 0.08064 0.45959 1.15542
 C778 C 0.06626 0.45334 1.13074
 C779 C 0.04925 0.45131 1.10101
 C780 C 0.03483 0.45514 1.07586
 C781 C -0.11562 0.01270 1.19783
 C782 C -0.10097 0.01719 1.17291
 C783 C -0.08480 0.02290 1.14316
 C784 C -0.07117 0.02664 1.11739
 C785 C -0.05492 0.02816 1.08713
 C786 C -0.04044 0.02557 1.06186
 C787 C 0.38430 0.51338 0.69825
 C788 C 0.39905 0.51783 0.67341
 C789 C 0.41543 0.52349 0.64380
 C790 C 0.42928 0.52716 0.61816
 C791 C 0.44582 0.52860 0.58810
 C792 C 0.46055 0.52593 0.56302
 C793 C 0.38630 0.48160 -0.19085
 C794 C 0.40343 0.47431 -0.16907
 C795 C 0.42291 0.46890 -0.14196
 C796 C 0.43910 0.46750 -0.11784
 C797 C 0.45743 0.47007 -0.08916
 C798 C 0.47247 0.47615 -0.06494
 C799 C -0.11448 0.98010 0.30839
 C800 C -0.09729 0.97291 0.33015
 C801 C -0.07774 0.96765 0.35726
 C802 C -0.06150 0.96637 0.38134
 C803 C -0.04309 0.96905 0.40996
 C804 C -0.02795 0.97515 0.43409
 C805 C 0.10538 0.52072 0.31369
 C806 C 0.08826 0.52515 0.33647
 C807 C 0.06919 0.53076 0.36392
 C808 C 0.05353 0.53441 0.38816
 C809 C 0.03584 0.53582 0.41740
 C810 C 0.02136 0.53313 0.44274
 C811 C 0.60553 0.02037 -0.18565
 C812 C 0.58841 0.02492 -0.16290
 C813 C 0.56939 0.03069 -0.13546
 C814 C 0.55379 0.03448 -0.11120
 C815 C 0.53619 0.03605 -0.08191
 C816 C 0.52179 0.03346 -0.05650
 C817 C 0.71024 0.57100 -0.02418
 C818 C 0.68578 0.55942 -0.02346
 C819 C 0.65640 0.54759 -0.02301
 C820 C 0.63085 0.53873 -0.02247
 C821 C 0.60060 0.52956 -0.02115
 C822 C 0.57460 0.52248 -0.01890
 C823 C 0.21004 1.07017 0.47444
 C824 C 0.18566 1.05841 0.47503
 C825 C 0.15635 1.04640 0.47537
 C826 C 0.13085 1.03741 0.47588
 C827 C 0.10062 1.02815 0.47723
 C828 C 0.07463 1.02104 0.47955
 C829 C 0.19065 -0.07417 1.02549
 C830 C 0.16946 -0.05881 1.03151
 C831 C 0.14250 -0.04313 1.03389
 C832 C 0.11828 -0.03184 1.03253
 C833 C 0.08917 -0.02107 1.02780
 C834 C 0.06394 -0.01362 1.02203
 C835 C 0.69105 0.42404 0.52710
 C836 C 0.67006 0.43962 0.53328
 C837 C 0.64332 0.45565 0.53591
 C838 C 0.61926 0.46728 0.53475
 C839 C 0.59030 0.47847 0.53016
 C840 C 0.56516 0.48621 0.52439
 C841 C -0.20924 0.42942 0.49583
 C842 C -0.18575 0.44280 0.49588
 C843 C -0.15732 0.45660 0.49539
 C844 C -0.13241 0.46703 0.49501
 C845 C -0.10278 0.47794 0.49515
 C846 C -0.07723 0.48654 0.49628
 C847 C 0.29099 -0.06939 -0.00452
 C848 C 0.31463 -0.05627 -0.00410
 C849 C 0.34320 -0.04276 -0.00419
 C850 C 0.36820 -0.03253 -0.00428
 C851 C 0.39789 -0.02178 -0.00390
 C852 C 0.42346 -0.01323 -0.00265
 C853 C 0.31210 1.07196 0.50792
 C854 C 0.33279 1.05784 0.51858
 C855 C 0.35897 1.04264 0.52773
 C856 C 0.38261 1.03081 0.53257
 C857 C 0.41131 1.01830 0.53469
 C858 C 0.43630 1.00868 0.53352
 C859 C -0.18752 0.57212 1.00859
 C860 C -0.16684 0.55788 1.01905
 C861 C -0.14065 0.54257 1.02791
 C862 C -0.11700 0.53066 1.03248
 C863 C -0.08832 0.51809 1.03429
 C864 C -0.06335 0.50842 1.03290
 C865 C -0.00032 0.70665 0.57981
 C866 C -0.00112 0.68403 0.56313
 C867 C -0.00080 0.65637 0.54566
 C868 C -0.00025 0.63190 0.53273
 C869 C -0.00007 0.60221 0.52021
 C870 C -0.00111 0.57610 0.51229
 C871 C 0.49991 0.20732 0.08015
 C872 C 0.49908 0.18468 0.06350
 C873 C 0.49941 0.15699 0.04608
 C874 C 0.49999 0.13249 0.03320
 C875 C 0.50023 0.10276 0.02076
 C876 C 0.49927 0.07663 0.01292
 C877 C -0.00614 0.19341 0.91410
 C878 C -0.01190 0.17194 0.93168
 C879 C -0.01643 0.14534 0.95077
 C880 C -0.01846 0.12167 0.96550
 C881 C -0.01863 0.09282 0.98057
 C882 C -0.01662 0.06743 0.99090
 C883 C 0.49534 0.69355 0.41532
 C884 C 0.48969 0.67208 0.43293
 C885 C 0.48527 0.64550 0.45207
 C886 C 0.48329 0.62185 0.46685
 C887 C 0.48316 0.59303 0.48199
 C888 C 0.48516 0.56767 0.49238
 C889 C 0.51252 0.79619 0.41943
 C890 C 0.51165 0.81776 0.43784
 C891 C 0.51124 0.84395 0.45812
 C892 C 0.51097 0.86707 0.47402
 C893 C 0.51029 0.89522 0.49060
 C894 C 0.50896 0.92018 0.50232
 C895 C 0.01145 0.29590 0.91823
 C896 C 0.01075 0.31743 0.93672
 C897 C 0.01059 0.34359 0.95708
 C898 C 0.01055 0.36668 0.97305
 C899 C 0.01014 0.39481 0.98971
 C900 C 0.00899 0.41976 1.00147
 C901 C 0.49055 0.31150 0.08081
 C902 C 0.48720 0.33340 0.06342
 C903 C 0.48575 0.36050 0.04494
 C904 C 0.48633 0.38453 0.03095
 C905 C 0.48894 0.41361 0.01689
 C906 C 0.49271 0.43905 0.00725
 C907 C -0.00995 0.81067 0.58012
 C908 C -0.01332 0.83248 0.56259
 C909 C -0.01474 0.85949 0.54397
 C910 C -0.01411 0.88348 0.52990
 C911 C -0.01140 0.91252 0.51576
 C912 C -0.00753 0.93792 0.50609
 C913 C 0.23282 0.36136 0.04426
 C914 C 0.22086 0.34716 0.06633
 C915 C 0.20955 0.33058 0.09379
 C916 C 0.20339 0.31623 0.11850
 C917 C 0.20147 0.29928 0.14828
 C918 C 0.20538 0.28495 0.17346
 C919 C 0.73247 0.86150 0.54544
 C920 C 0.72049 0.84722 0.56745
 C921 C 0.70918 0.83053 0.59482
 C922 C 0.70303 0.81607 0.61946
 C923 C 0.70114 0.79899 0.64914
 C924 C 0.70509 0.78456 0.67424
 C925 C 0.26376 0.63453 0.55202
 C926 C 0.26817 0.64917 0.57695
 C927 C 0.27380 0.66541 0.60668
 C928 C 0.27748 0.67913 0.63240
 C929 C 0.27893 0.69554 0.66255
 C930 C 0.27628 0.71017 0.68770
 C931 C 0.76308 0.13441 0.05213
 C932 C 0.76776 0.14914 0.07695
 C933 C 0.77366 0.16541 0.10658
 C934 C 0.77753 0.17911 0.13228
 C935 C 0.77916 0.19544 0.16248
 C936 C 0.77660 0.20997 0.18772
 C937 C 0.73027 0.13558 0.94177
 C938 C 0.72321 0.15284 0.92002
 C939 C 0.71810 0.17243 0.89294
 C940 C 0.71693 0.18869 0.86886
 C941 C 0.71968 0.20707 0.84024
 C942 C 0.72581 0.22214 0.81607
 C943 C 0.23221 0.63668 0.44085
 C944 C 0.22483 0.65371 0.41902
 C945 C 0.21925 0.67309 0.39186
 C946 C 0.21766 0.68921 0.36771
 C947 C 0.21996 0.70752 0.33899
 C948 C 0.22578 0.72260 0.31474
 C949 C 0.77031 0.85552 0.43667
 C950 C 0.77488 0.83849 0.41385
 C951 C 0.78069 0.81958 0.38634
 C952 C 0.78452 0.80406 0.36203
 C953 C 0.78615 0.78652 0.33270
 C954 C 0.78361 0.77213 0.30728
 C955 C 0.27050 0.35520 0.93546
 C956 C 0.27489 0.33805 0.91271
 C957 C 0.28042 0.31895 0.88528
 C958 C 0.28400 0.30326 0.86105
 C959 C 0.28534 0.28555 0.83183
 C960 C 0.28263 0.27106 0.80650
 C961 C 0.82031 0.45999 0.77442
 C962 C 0.80863 0.43558 0.77384
 C963 C 0.79671 0.40625 0.77357
 C964 C 0.78781 0.38072 0.77318
 C965 C 0.77864 0.35048 0.77202
 C966 C 0.77159 0.32448 0.76988
 C967 C 0.32014 0.96050 0.27455
 C968 C 0.30840 0.93612 0.27373
 C969 C 0.29642 0.90682 0.27315
 C970 C 0.28745 0.88132 0.27250
 C971 C 0.27822 0.85110 0.27106
 C972 C 0.27115 0.82512 0.26873
 C973 C 0.17454 0.94054 0.72303
 C974 C 0.19015 0.91953 0.71702
 C975 C 0.20618 0.89280 0.71460
 C976 C 0.21778 0.86874 0.71592
 C977 C 0.22891 0.83979 0.72065
 C978 C 0.23659 0.81466 0.72649
 C979 C 0.67633 0.44080 0.22493
 C980 C 0.69162 0.41961 0.21868
 C981 C 0.70728 0.39268 0.21604
 C982 C 0.71861 0.36848 0.21720
 C983 C 0.72948 0.33940 0.22175
 C984 C 0.73702 0.31421 0.22744
 C985 C 0.68191 0.54092 0.25597
 C986 C 0.69494 0.56459 0.25557
 C987 C 0.70831 0.59322 0.25559
 C988 C 0.71838 0.61826 0.25558
 C989 C 0.72894 0.64799 0.25504
 C990 C 0.73732 0.67359 0.25368
 C991 C 0.17950 0.04036 0.75388
 C992 C 0.19276 0.06391 0.75373
 C993 C 0.20641 0.09240 0.75409
 C994 C 0.21672 0.11734 0.75435
 C995 C 0.22752 0.14699 0.75410
 C996 C 0.23607 0.17255 0.75290
 C997 C 0.32204 0.06269 0.24182
 C998 C 0.30795 0.08344 0.23125
 C999 C 0.29280 0.10967 0.22224
 C1000 C 0.28098 0.13333 0.21752
 C1001 C 0.26847 0.16202 0.21551
 C1002 C 0.25881 0.18698 0.21676
 C1003 C 0.82192 0.56212 0.74140
 C1004 C 0.80776 0.58286 0.73094
 C1005 C 0.79256 0.60910 0.72208
 C1006 C 0.78073 0.63278 0.71749
 C1007 C 0.76824 0.66148 0.71565
 C1008 C 0.75862 0.68646 0.71703
 C1009 C 0.95700 0.74987 0.16944
 C1010 C 0.93450 0.74922 0.18633
 C1011 C 0.90696 0.74972 0.20405
 C1012 C 0.88256 0.75040 0.21715
 C1013 C 0.85290 0.75070 0.22981
 C1014 C 0.82680 0.74972 0.23779
 C1015 C 0.45677 0.24955 0.67059
 C1016 C 0.43405 0.24869 0.68712
 C1017 C 0.40628 0.24896 0.70440
 C1018 C 0.38173 0.24946 0.71716
 C1019 C 0.35195 0.24960 0.72947
 C1020 C 0.32579 0.24854 0.73722
 C1021 C 0.44368 0.74476 0.83628
 C1022 C 0.42224 0.73913 0.81858
 C1023 C 0.39570 0.73472 0.79931
 C1024 C 0.37208 0.73275 0.78442
 C1025 C 0.34330 0.73261 0.76913
 C1026 C 0.31795 0.73460 0.75862
 C1027 C 0.94476 0.24506 0.33499
 C1028 C 0.92321 0.23921 0.31754
 C1029 C 0.89651 0.23458 0.29860
 C1030 C 0.87276 0.23244 0.28399
 C1031 C 0.84383 0.23213 0.26902
 C1032 C 0.81840 0.23402 0.25872
 C1033 C 0.04513 0.26231 0.32940
 C1034 C 0.06688 0.26144 0.31124
 C1035 C 0.09329 0.26112 0.29126
 C1036 C 0.11657 0.26097 0.27562
 C1037 C 0.14488 0.26046 0.25929
 C1038 C 0.16994 0.25927 0.24775
 C1039 C 0.54626 0.76167 0.83238
 C1040 C 0.56778 0.76086 0.81386
 C1041 C 0.59392 0.76060 0.79344
 C1042 C 0.61699 0.76047 0.77742
 C1043 C 0.64509 0.75999 0.76067
 C1044 C 0.67002 0.75880 0.74880
 C1045 C 0.56095 0.23983 0.67041
 C1046 C 0.58280 0.23643 0.68789
 C1047 C 0.60986 0.23498 0.70643
 C1048 C 0.63390 0.23561 0.72044
 C1049 C 0.66299 0.23832 0.73447
 C1050 C 0.68844 0.24220 0.74405
 C1051 C 0.06085 0.74004 0.16873
 C1052 C 0.08264 0.73673 0.18631
 C1053 C 0.10963 0.73535 0.20500
 C1054 C 0.13361 0.73603 0.21911
 C1055 C 0.16265 0.73880 0.23324
 C1056 C 0.18808 0.74273 0.24285
   
