data_POSCAR
  _audit_creation_date              2014-09-24
  _audit_creation_method            'ToBaCCo'
  _symmetry_space_group_name_H-M    'P1'
  _symmetry_Int_Tables_number       1
  _symmetry_cell_setting            triclinic
  loop_
  _symmetry_equiv_pos_as_xyz
 x,y,z
_cell_length_a 40.9929
_cell_length_b 40.8798
_cell_length_c 23.6879
_cell_angle_alpha 89.927000
_cell_angle_beta 89.927200
_cell_angle_gamma 120.049900
loop_
  _atom_site_label
  _atom_site_type_symbol
  _atom_site_fract_x
  _atom_site_fract_y
  _atom_site_fract_z
C1 C 0.46065 0.92058 0.55209
 C2 C 0.45089 0.90126 0.50068
 C3 C 0.46047 0.92076 0.44937
 C4 C 0.48045 0.96070 0.44884
 C5 C 0.49048 0.98071 0.50069
 C6 C 0.48052 0.96060 0.55261
 C7 C 0.49068 0.98104 0.60350
 C8 C 0.51018 1.02037 0.60342
 C9 C 0.52040 1.04090 0.55245
 C10 C 0.51049 1.02088 0.50060
 C11 C 0.49065 0.98113 0.39787
 C12 C 0.51034 1.02046 0.39775
 C13 C 0.52056 1.04094 0.44863
 C14 C 0.54057 1.08095 0.44906
 C15 C 0.55009 1.10035 0.50040
 C16 C 0.54026 1.08091 0.55184
 H17 H 0.48359 0.96675 0.64396
 H18 H 0.51723 1.03461 0.64384
 H19 H 0.48350 0.96684 0.35751
 H20 H 0.51749 1.03472 0.35727
 H21 H 0.43559 0.87056 0.50048
 H22 H 0.56539 1.13107 0.50032
 C23 C -0.08059 0.45983 0.44936
 C24 C -0.10004 0.44998 0.50068
 C25 C -0.08077 0.45945 0.55210
 C26 C -0.04087 0.47943 0.55263
 C27 C -0.02084 0.48950 0.50070
 C28 C -0.04076 0.47962 0.44883
 C29 C -0.02036 0.48980 0.39786
 C30 C 0.01888 0.50928 0.39779
 C31 C 0.03921 0.51940 0.44868
 C32 C 0.01919 0.50947 0.50061
 C33 C -0.02044 0.48963 0.60352
 C34 C 0.01880 0.50931 0.60341
 C35 C 0.03916 0.51949 0.55243
 C36 C 0.07900 0.53944 0.55180
 C37 C 0.09838 0.54898 0.50042
 C38 C 0.07904 0.53920 0.44913
 H39 H -0.03459 0.48273 0.35749
 H40 H 0.03318 0.51638 0.35737
 H41 H -0.03469 0.48249 0.64399
 H42 H 0.03306 0.51645 0.64376
 H43 H -0.13065 0.43470 0.50049
 H44 H 0.12897 0.56425 0.50034
 C45 C 0.46003 0.53991 0.55290
 C46 C 0.45052 0.54970 0.50145
 C47 C 0.46033 0.54006 0.45018
 C48 C 0.48013 0.52001 0.44974
 C49 C 0.49005 0.50996 0.50165
 C50 C 0.48002 0.51996 0.55352
 C51 C 0.49026 0.50976 0.60446
 C52 C 0.50993 0.49018 0.60446
 C53 C 0.52012 0.47993 0.55352
 C54 C 0.51003 0.48988 0.50164
 C55 C 0.49025 0.50975 0.39882
 C56 C 0.50973 0.48998 0.39881
 C57 C 0.51990 0.47977 0.44974
 C58 C 0.53971 0.45972 0.45017
 C59 C 0.54957 0.45014 0.50144
 C60 C 0.54010 0.45998 0.55290
 H61 H 0.48314 0.51689 0.64489
 H62 H 0.51709 0.48309 0.64488
 H63 H 0.48315 0.51692 0.35841
 H64 H 0.51679 0.48277 0.35841
 H65 H 0.43524 0.56505 0.50117
 H66 H 0.56484 0.43478 0.50116
 O67 O 0.38869 0.66884 -0.06560
 O68 O 0.39054 0.73260 -0.04781
 C69 C 0.36696 0.73730 -0.07649
 O70 O 0.33200 0.71998 -0.06554
 O71 O 0.26837 0.65801 -0.04742
 C72 C 0.26365 0.62965 -0.07610
 O73 O 0.28092 0.61193 -0.06532
 O74 O 0.34268 0.61011 -0.04753
 C75 C 0.37098 0.63379 -0.07635
 O76 O 0.39038 0.65789 0.04673
 O77 O 0.38873 0.71988 0.06453
 C78 C 0.37109 0.73721 0.07543
 O79 O 0.34285 0.73259 0.04674
 O80 O 0.28099 0.66886 0.06483
 C81 C 0.26362 0.63379 0.07571
 O82 O 0.26826 0.61012 0.04700
 O83 O 0.33177 0.61185 0.06480
 C84 C 0.36672 0.62956 0.07559
 Cr85 Cr 0.38757 0.69380 -0.00053
 Cr86 Cr 0.30706 0.69385 -0.00035
 Cr87 Cr 0.30692 0.61302 -0.00027
 O88 O 0.33385 0.66689 -0.00038
 O89 O 0.61145 0.33105 -0.06541
 O90 O 0.60959 0.26728 -0.04744
 C91 C 0.63321 0.26265 -0.07622
 O92 O 0.66815 0.27992 -0.06537
 O93 O 0.73175 0.34187 -0.04767
 C94 C 0.73646 0.37022 -0.07649
 O95 O 0.71921 0.38796 -0.06567
 O96 O 0.65745 0.38976 -0.04770
 C97 C 0.62917 0.36610 -0.07634
 O98 O 0.60967 0.34190 0.04690
 O99 O 0.61131 0.27991 0.06488
 C100 C 0.62897 0.26260 0.07582
 O101 O 0.65720 0.26721 0.04699
 O102 O 0.71904 0.33092 0.06468
 C103 C 0.73636 0.36597 0.07545
 O104 O 0.73179 0.38968 0.04663
 O105 O 0.66826 0.38794 0.06460
 C106 C 0.63331 0.37022 0.07557
 Cr107 Cr 0.61252 0.30604 -0.00027
 Cr108 Cr 0.69303 0.30599 -0.00035
 Cr109 Cr 0.69317 0.38682 -0.00053
 O110 O 0.66624 0.33295 -0.00038
 C111 C 0.43202 0.80802 -0.18583
 C112 C 0.40660 0.81373 -0.21778
 C113 C 0.36842 0.79502 -0.20299
 C114 C 0.35559 0.77047 -0.15673
 C115 C 0.45035 0.89962 -0.39932
 C116 C 0.41927 0.78346 -0.13947
 C117 C 0.41939 0.83806 -0.26655
 C118 C 0.42957 0.85795 -0.30792
 C119 C 0.44098 0.88067 -0.35695
 C120 C 0.38084 0.76425 -0.12451
 H121 H 0.46164 0.82231 -0.19701
 H122 H 0.34848 0.79918 -0.22751
 H123 H 0.32584 0.75616 -0.14650
 H124 H 0.43945 0.77929 -0.11570
 C125 C 0.20585 0.57326 -0.20202
 C126 C 0.18710 0.59275 -0.21647
 C127 C 0.19285 0.62397 -0.18452
 C128 C 0.21747 0.63582 -0.13848
 C129 C 0.10104 0.55061 -0.39696
 C130 C 0.23047 0.58504 -0.15607
 C131 C 0.16269 0.58116 -0.26490
 C132 C 0.14275 0.57144 -0.30602
 C133 C 0.11998 0.56014 -0.35479
 C134 C 0.23671 0.61657 -0.12384
 H135 H 0.20167 0.54911 -0.22655
 H136 H 0.17853 0.63932 -0.19544
 H137 H 0.22165 0.66023 -0.11468
 H138 H 0.24480 0.56957 -0.14609
 C139 C 0.37648 0.56860 -0.18520
 C140 C 0.40762 0.59412 -0.21734
 C141 C 0.42713 0.63241 -0.20284
 C142 C 0.41545 0.64525 -0.15667
 C143 C 0.44948 0.55025 -0.39855
 C144 C 0.36472 0.58136 -0.13894
 C145 C 0.41911 0.58132 -0.26600
 C146 C 0.42875 0.57110 -0.30730
 C147 C 0.43998 0.55966 -0.35625
 C148 C 0.38399 0.61990 -0.12427
 H149 H 0.36112 0.53889 -0.19616
 H150 H 0.45122 0.65243 -0.22750
 H151 H 0.43092 0.67509 -0.14667
 H152 H 0.34038 0.56110 -0.11503
 C153 C 0.63197 0.20540 -0.20295
 C154 C 0.59384 0.18683 -0.21775
 C155 C 0.56836 0.19244 -0.18568
 C156 C 0.58101 0.21677 -0.13921
 C157 C 0.55049 0.10176 -0.39959
 C158 C 0.64470 0.22972 -0.15658
 C159 C 0.58116 0.16275 -0.26664
 C160 C 0.57108 0.14307 -0.30810
 C161 C 0.55979 0.12057 -0.35721
 C162 C 0.61940 0.23585 -0.12426
 H163 H 0.65195 0.20131 -0.22755
 H164 H 0.53878 0.17826 -0.19686
 H165 H 0.56079 0.22088 -0.11537
 H166 H 0.67442 0.24394 -0.14637
 C167 C 0.80697 0.37571 -0.18566
 C168 C 0.81268 0.40692 -0.21777
 C169 C 0.79404 0.42649 -0.20315
 C170 C 0.76955 0.41479 -0.15689
 C171 C 0.89833 0.44886 -0.39930
 C172 C 0.78248 0.36394 -0.13930
 C173 C 0.83694 0.41842 -0.26653
 C174 C 0.85677 0.42808 -0.30791
 C175 C 0.87943 0.43934 -0.35694
 C176 C 0.76334 0.38326 -0.12450
 H177 H 0.82120 0.36030 -0.19670
 H178 H 0.79820 0.45064 -0.22780
 H179 H 0.75529 0.43031 -0.14679
 H180 H 0.77831 0.33953 -0.11540
 C181 C 0.57308 0.36754 -0.20262
 C182 C 0.59261 0.40584 -0.21735
 C183 C 0.62373 0.43135 -0.18544
 C184 C 0.63547 0.41857 -0.13917
 C185 C 0.55070 0.44968 -0.39856
 C186 C 0.58474 0.35469 -0.15645
 C187 C 0.58113 0.41866 -0.26602
 C188 C 0.57148 0.42887 -0.30731
 C189 C 0.56022 0.44029 -0.35626
 C190 C 0.61619 0.38002 -0.12427
 H191 H 0.54900 0.34754 -0.22712
 H192 H 0.63910 0.46106 -0.19657
 H193 H 0.65981 0.43882 -0.11542
 H194 H 0.56926 0.32484 -0.14627
 C195 C 0.80671 0.43105 0.18451
 C196 C 0.81226 0.40548 0.21661
 C197 C 0.79357 0.36721 0.20200
 C198 C 0.76920 0.35443 0.15576
 C199 C 0.89746 0.44903 0.39804
 C200 C 0.78234 0.41834 0.13817
 C201 C 0.83639 0.41822 0.26536
 C202 C 0.85612 0.42836 0.30671
 C203 C 0.87865 0.43970 0.35572
 C204 C 0.76314 0.37982 0.12340
 H205 H 0.82098 0.46074 0.19555
 H206 H 0.79761 0.34716 0.22664
 H207 H 0.75490 0.32460 0.14568
 H208 H 0.77828 0.43863 0.11429
 C209 C 0.62369 0.19241 0.18577
 C210 C 0.59264 0.18685 0.21792
 C211 C 0.57307 0.20543 0.20300
 C212 C 0.58462 0.22973 0.15644
 C213 C 0.55114 0.10183 0.40038
 C214 C 0.63532 0.21671 0.13911
 C215 C 0.58130 0.16280 0.26700
 C216 C 0.57176 0.14314 0.30861
 C217 C 0.56060 0.12065 0.35788
 C218 C 0.61602 0.23581 0.12404
 H219 H 0.63910 0.17821 0.19703
 H220 H 0.54904 0.20138 0.22766
 H221 H 0.56912 0.24397 0.14615
 H222 H 0.65963 0.22079 0.11521
 C223 C 0.56841 0.37557 0.18508
 C224 C 0.59391 0.40673 0.21703
 C225 C 0.63207 0.42633 0.20216
 C226 C 0.64482 0.41471 0.15582
 C227 C 0.55049 0.44852 0.39879
 C228 C 0.58108 0.36387 0.13864
 C229 C 0.58121 0.41816 0.26588
 C230 C 0.57111 0.42778 0.30732
 C231 C 0.55979 0.43901 0.35641
 C232 C 0.61950 0.38321 0.12361
 H233 H 0.53880 0.36014 0.19632
 H234 H 0.65207 0.45045 0.22668
 H235 H 0.67456 0.43024 0.14554
 H236 H 0.56084 0.33949 0.11489
 C237 C 0.19277 0.56851 0.18467
 C238 C 0.18712 0.59402 0.21666
 C239 C 0.20595 0.63234 0.20205
 C240 C 0.23054 0.64521 0.15591
 C241 C 0.10111 0.55008 0.39778
 C242 C 0.21737 0.58131 0.13844
 C243 C 0.16274 0.58118 0.26528
 C244 C 0.14282 0.57094 0.30656
 C245 C 0.12006 0.55948 0.35548
 C246 C 0.23668 0.61987 0.12364
 H247 H 0.17840 0.53879 0.19572
 H248 H 0.20184 0.65234 0.22660
 H249 H 0.24493 0.67507 0.14581
 H250 H 0.22148 0.56105 0.11463
 C251 C 0.37656 0.80772 0.18462
 C252 C 0.40762 0.81331 0.21661
 C253 C 0.42711 0.79462 0.20187
 C254 C 0.41548 0.77018 0.15562
 C255 C 0.44933 0.89874 0.39805
 C256 C 0.36485 0.78328 0.13828
 C257 C 0.41905 0.83751 0.26536
 C258 C 0.42865 0.85728 0.30673
 C259 C 0.43986 0.87988 0.35573
 C260 C 0.38408 0.76407 0.12338
 H261 H 0.36121 0.82200 0.19576
 H262 H 0.45115 0.79869 0.22642
 H263 H 0.43093 0.75587 0.14545
 H264 H 0.34055 0.77919 0.11449
 C265 C 0.36789 0.57339 0.20239
 C266 C 0.40605 0.59297 0.21704
 C267 C 0.43156 0.62414 0.18486
 C268 C 0.41892 0.63586 0.13843
 C269 C 0.44950 0.55123 0.39880
 C270 C 0.35517 0.58503 0.15605
 C271 C 0.41873 0.58153 0.26589
 C272 C 0.42884 0.57192 0.30733
 C273 C 0.44017 0.56071 0.35642
 C274 C 0.38050 0.61654 0.12362
 H275 H 0.34788 0.54927 0.22708
 H276 H 0.46117 0.63956 0.19592
 H277 H 0.43916 0.66025 0.11450
 H278 H 0.32542 0.56952 0.14595
   
