data_POSCAR
  _audit_creation_date              2014-09-24
  _audit_creation_method            'ToBaCCo'
  _symmetry_space_group_name_H-M    'P1'
  _symmetry_Int_Tables_number       1
  _symmetry_cell_setting            triclinic
  loop_
  _symmetry_equiv_pos_as_xyz
 x,y,z
_cell_length_a 36.5789
_cell_length_b 36.5736
_cell_length_c 35.4928
_cell_angle_alpha 89.989200
_cell_angle_beta 89.979500
_cell_angle_gamma 87.934700
loop_
  _atom_site_label
  _atom_site_type_symbol
  _atom_site_fract_x
  _atom_site_fract_y
  _atom_site_fract_z
O1 O 0.03608 0.29841 -0.03139
 O2 O -0.03522 0.29916 0.04214
 O3 O 0.03636 0.29662 0.04148
 O4 O -0.03570 0.30135 -0.03110
 O5 O -0.03496 0.24095 -0.03359
 O6 O 0.03527 0.23625 0.04062
 O7 O -0.03561 0.23883 0.03999
 O8 O 0.03568 0.23802 -0.03310
 Cu9 Cu 0.00034 0.30497 0.00544
 Cu10 Cu 0.00008 0.23246 0.00334
 C11 C 0.04798 0.26802 -0.04470
 C12 C -0.04754 0.26908 0.05363
 C13 C 0.04791 0.26561 0.05349
 C14 C -0.04733 0.27192 -0.04489
 O15 O 0.46065 0.79575 0.53304
 O16 O 0.52959 0.79680 0.45738
 O17 O 0.45855 0.79385 0.46031
 O18 O 0.53223 0.79921 0.53074
 O19 O 0.53617 0.73885 0.53355
 O20 O 0.46456 0.73351 0.46107
 O21 O 0.53519 0.73649 0.45979
 O22 O 0.46565 0.73538 0.53474
 Cu23 Cu 0.49487 0.80249 0.49527
 Cu24 Cu 0.50094 0.73000 0.49748
 C25 C 0.45127 0.76533 0.54656
 C26 C 0.54394 0.76681 0.44556
 C27 C 0.44925 0.76276 0.44854
 C28 C 0.54644 0.76992 0.54440
 O29 O 0.96306 0.70697 -0.04247
 O30 O 1.03355 0.70252 0.03174
 O31 O 0.96203 0.70560 0.03065
 O32 O 1.03441 0.70382 -0.04167
 O33 O 1.03416 0.76421 -0.04107
 O34 O 0.96358 0.76591 0.03287
 O35 O 1.03430 0.76289 0.03247
 O36 O 0.96321 0.76733 -0.04092
 Cu37 Cu 0.99825 0.69866 -0.00554
 Cu38 Cu 0.99883 0.77114 -0.00408
 C39 C 0.95114 0.73792 -0.05438
 C40 C 1.04584 0.73199 0.04478
 C41 C 0.95078 0.73607 0.04430
 C42 C 1.04639 0.73375 -0.05396
 O43 O 0.46879 0.19968 0.46773
 O44 O 0.53937 0.20465 0.54151
 O45 O 0.46832 0.20105 0.54127
 O46 O 0.54013 0.20309 0.46845
 O47 O 0.53398 0.26338 0.46619
 O48 O 0.46391 0.26145 0.54047
 O49 O 0.53458 0.26503 0.53973
 O50 O 0.46351 0.26004 0.46685
 Cu51 Cu 0.50459 0.19603 0.50484
 Cu52 Cu 0.49844 0.26853 0.50320
 C53 C 0.45426 0.22909 0.45465
 C54 C 0.54899 0.23571 0.55310
 C55 C 0.45423 0.23097 0.55356
 C56 C 0.54909 0.23359 0.45481
 O57 O 0.70111 0.04473 -0.03765
 O58 O 0.70007 -0.02693 0.03550
 O59 O 0.70017 0.04468 0.03547
 O60 O 0.70014 -0.02673 -0.03770
 O61 O 0.76058 -0.02787 -0.03866
 O62 O 0.76057 0.04067 0.03724
 O63 O 0.76047 -0.03002 0.03501
 O64 O 0.76154 0.04279 -0.03622
 Cu65 Cu 0.69428 0.00918 -0.00112
 Cu66 Cu 0.76686 0.00609 -0.00061
 C67 C 0.73158 0.05603 -0.04922
 C68 C 0.73019 -0.04073 0.04767
 C69 C 0.73038 0.05456 0.04900
 C70 C 0.73037 -0.03908 -0.05094
 O71 O 0.20117 0.52614 0.46359
 O72 O 0.20214 0.45604 0.53827
 O73 O 0.20160 0.52760 0.53713
 O74 O 0.20197 0.45461 0.46539
 O75 O 0.26241 0.45371 0.46466
 O76 O 0.26203 0.52597 0.53674
 O77 O 0.26258 0.45517 0.53852
 O78 O 0.26161 0.52450 0.46332
 Cu79 Cu 0.19563 0.49134 0.50113
 Cu80 Cu 0.26822 0.48964 0.50079
 C81 C 0.23125 0.53708 0.45062
 C82 C 0.23255 0.44378 0.55114
 C83 C 0.23180 0.53906 0.54924
 C84 C 0.23232 0.44188 0.45276
 O85 O 0.29909 1.02427 0.03868
 O86 O 0.29842 0.95401 -0.03580
 O87 O 0.29917 1.02558 -0.03485
 O88 O 0.29811 0.95277 0.03709
 O89 O 0.23767 0.95632 0.03732
 O90 O 0.23877 1.02840 -0.03491
 O91 O 0.23799 0.95766 -0.03646
 O92 O 0.23869 1.02701 0.03862
 Cu93 Cu 0.30478 0.98895 0.00128
 Cu94 Cu 0.23223 0.99263 0.00112
 C95 C 0.26897 1.03743 0.05155
 C96 C 0.26805 0.94397 -0.04881
 C97 C 0.26910 1.03926 -0.04729
 C98 C 0.26765 0.94227 0.04947
 O99 O 0.80129 0.54149 0.53518
 O100 O 0.79942 0.46982 0.46210
 O101 O 0.80188 0.54068 0.46148
 O102 O 0.80021 0.46991 0.53515
 O103 O 0.73978 0.47374 0.53545
 O104 O 0.74154 0.54611 0.46340
 O105 O 0.73904 0.47463 0.46159
 O106 O 0.74084 0.54413 0.53614
 Cu107 Cu 0.80680 0.50515 0.49851
 Cu108 Cu 0.73421 0.50988 0.49897
 C109 C 0.77129 0.55479 0.54824
 C110 C 0.76881 0.46022 0.44930
 C111 C 0.77202 0.55564 0.45017
 C112 C 0.76973 0.45981 0.54783
 C113 C 0.23808 0.25112 0.25326
 C114 C 0.26503 0.22451 0.25305
 C115 C 0.26631 0.19515 0.22411
 C116 C 0.29468 0.22398 0.28159
 C117 C 0.23589 0.27946 0.28290
 C118 C 0.20997 0.25377 0.22348
 C119 C 0.23662 0.17241 0.21899
 C120 C 0.23741 0.14599 0.19058
 C121 C 0.26835 0.14106 0.16738
 C122 C 0.29868 0.16283 0.17358
 C123 C 0.29761 0.18969 0.20166
 C124 C 0.29963 0.19388 0.30578
 C125 C 0.32661 0.19389 0.33372
 C126 C 0.34898 0.22410 0.33795
 C127 C 0.34458 0.25372 0.31291
 C128 C 0.31801 0.25342 0.28472
 C129 C 0.24886 0.31437 0.27569
 C130 C 0.24839 0.34081 0.30407
 C131 C 0.23361 0.33314 0.33960
 C132 C 0.21948 0.29854 0.34637
 C133 C 0.22105 0.27167 0.31830
 C134 C 0.21818 0.26880 0.18828
 C135 C 0.19138 0.27146 0.16024
 C136 C 0.15637 0.25822 0.16681
 C137 C 0.14830 0.24310 0.20207
 C138 C 0.17472 0.24157 0.23047
 H139 H 0.21280 0.17511 0.23698
 H140 H 0.21387 0.12921 0.18698
 H141 H 0.32295 0.15962 0.15626
 H142 H 0.32099 0.20667 0.20546
 H143 H 0.28214 0.17072 0.30346
 H144 H 0.32942 0.17061 0.35248
 H145 H 0.31554 0.27628 0.26541
 H146 H 0.26014 0.32078 0.24835
 H147 H 0.25916 0.36741 0.29816
 H148 H 0.20803 0.29206 0.37361
 H149 H 0.21076 0.24485 0.32411
 H150 H 0.24526 0.27857 0.18267
 H151 H 0.19816 0.28316 0.13320
 H152 H 0.12138 0.23302 0.20782
 H153 H 0.16798 0.23018 0.25767
 H154 H 0.36180 0.27711 0.31497
 C155 C 0.76357 0.74350 0.24762
 C156 C 0.73482 0.76830 0.24532
 C157 C 0.73364 0.79729 0.21588
 C158 C 0.70370 0.76833 0.27227
 C159 C 0.76808 0.71677 0.27917
 C160 C 0.79158 0.74136 0.21744
 C161 C 0.76274 0.82097 0.21175
 C162 C 0.76187 0.84766 0.18364
 C163 C 0.73136 0.85199 0.15980
 C164 C 0.70163 0.82917 0.16484
 C165 C 0.70283 0.80198 0.19258
 C166 C 0.69345 0.80062 0.29147
 C167 C 0.66588 0.80064 0.31869
 C168 C 0.64796 0.76830 0.32728
 C169 C 0.65735 0.73626 0.30702
 C170 C 0.68468 0.73638 0.27948
 C171 C 0.77794 0.68003 0.27133
 C172 C 0.78092 0.65431 0.30034
 C173 C 0.77336 0.66467 0.33763
 C174 C 0.76450 0.70144 0.34580
 C175 C 0.76287 0.72745 0.31695
 C176 C 0.78270 0.72816 0.18161
 C177 C 0.80912 0.72638 0.15314
 C178 C 0.84443 0.73870 0.15988
 C179 C 0.85322 0.75193 0.19578
 C180 C 0.82716 0.75258 0.22458
 H181 H 0.78613 0.81886 0.23038
 H182 H 0.78492 0.86524 0.18090
 H183 H 0.67772 0.83194 0.14695
 H184 H 0.67987 0.78432 0.19565
 H185 H 0.70756 0.82564 0.28614
 H186 H 0.65924 0.82582 0.33362
 H187 H 0.69159 0.71135 0.26436
 H188 H 0.78257 0.67102 0.24261
 H189 H 0.78787 0.62604 0.29351
 H190 H 0.75916 0.71004 0.37454
 H191 H 0.75687 0.75581 0.32409
 H192 H 0.75537 0.71919 0.17583
 H193 H 0.80177 0.71616 0.12563
 H194 H 0.88039 0.76131 0.20163
 H195 H 0.83439 0.76265 0.25218
 H196 H 0.64375 0.71101 0.31259
 C197 C 0.73564 0.24164 0.25160
 C198 C 0.76163 0.26730 0.25131
 C199 C 0.79055 0.26755 0.22191
 C200 C 0.76250 0.29626 0.28055
 C201 C 0.70824 0.23996 0.28203
 C202 C 0.73343 0.21386 0.22160
 C203 C 0.81395 0.23683 0.21598
 C204 C 0.84073 0.23720 0.18794
 C205 C 0.84533 0.26868 0.16597
 C206 C 0.82265 0.29984 0.17279
 C207 C 0.79547 0.29923 0.20047
 C208 C 0.79393 0.29986 0.30264
 C209 C 0.79515 0.32709 0.33018
 C210 C 0.76490 0.35124 0.33613
 C211 C 0.73364 0.34787 0.31352
 C212 C 0.73262 0.32089 0.28573
 C213 C 0.67250 0.25376 0.27592
 C214 C 0.64664 0.25304 0.30483
 C215 C 0.65581 0.23725 0.33979
 C216 C 0.69137 0.22249 0.34549
 C217 C 0.71758 0.22425 0.31690
 C218 C 0.71906 0.22329 0.18616
 C219 C 0.71744 0.19687 0.15777
 C220 C 0.73106 0.16103 0.16428
 C221 C 0.74535 0.15172 0.19984
 C222 C 0.74587 0.17780 0.22854
 H223 H 0.81169 0.21263 0.23324
 H224 H 0.85817 0.21297 0.18383
 H225 H 0.82557 0.32453 0.15639
 H226 H 0.77800 0.32338 0.20495
 H227 H 0.81741 0.28135 0.29874
 H228 H 0.81967 0.32898 0.34704
 H229 H 0.70862 0.31943 0.26806
 H230 H 0.66490 0.26571 0.24898
 H231 H 0.61931 0.26431 0.29971
 H232 H 0.69905 0.21026 0.37227
 H233 H 0.74506 0.21328 0.32183
 H234 H 0.70916 0.25103 0.18057
 H235 H 0.70638 0.20462 0.13049
 H236 H 0.75574 0.12416 0.20553
 H237 H 0.75684 0.17015 0.25588
 H238 H 0.71008 0.36634 0.31699
 C239 C 0.26021 0.75123 0.24826
 C240 C 0.23408 0.72572 0.24792
 C241 C 0.20515 0.72603 0.21862
 C242 C 0.23311 0.69660 0.27700
 C243 C 0.28775 0.75261 0.27856
 C244 C 0.26221 0.77944 0.21863
 C245 C 0.18089 0.75634 0.21444
 C246 C 0.15459 0.75701 0.18592
 C247 C 0.15144 0.72696 0.16158
 C248 C 0.17490 0.69605 0.16674
 C249 C 0.20155 0.69563 0.19501
 C250 C 0.20200 0.69343 0.29971
 C251 C 0.20114 0.66663 0.32778
 C252 C 0.23145 0.64254 0.33364
 C253 C 0.26223 0.64528 0.31019
 C254 C 0.26286 0.67177 0.28188
 C255 C 0.32315 0.73781 0.27261
 C256 C 0.34919 0.73865 0.30133
 C257 C 0.34057 0.75556 0.33588
 C258 C 0.30533 0.77119 0.34143
 C259 C 0.27893 0.76933 0.31307
 C260 C 0.27853 0.77108 0.18380
 C261 C 0.28030 0.79795 0.15586
 C262 C 0.26494 0.83318 0.16216
 C263 C 0.24864 0.84139 0.19711
 C264 C 0.24792 0.81489 0.22540
 H265 H 0.18229 0.77950 0.23329
 H266 H 0.13655 0.78098 0.18314
 H267 H 0.17309 0.67242 0.14855
 H268 H 0.21976 0.67181 0.19813
 H269 H 0.17860 0.71210 0.29607
 H270 H 0.17697 0.66518 0.34526
 H271 H 0.28657 0.67286 0.26373
 H272 H 0.33037 0.72514 0.24592
 H273 H 0.37629 0.72673 0.29631
 H274 H 0.29809 0.78433 0.36788
 H275 H 0.25173 0.78110 0.31787
 H276 H 0.28989 0.74384 0.17836
 H277 H 0.29295 0.79103 0.12908
 H278 H 0.23690 0.86847 0.20270
 H279 H 0.23552 0.82175 0.25232
 H280 H 0.28579 0.62679 0.31353
 C281 C 0.76459 0.27537 0.75316
 C282 C 0.73883 0.24951 0.75345
 C283 C 0.71056 0.24790 0.72362
 C284 C 0.73808 0.22100 0.78314
 C285 C 0.79273 0.27704 0.78284
 C286 C 0.76634 0.30265 0.72265
 C287 C 0.68533 0.27715 0.71780
 C288 C 0.65892 0.27528 0.68950
 C289 C 0.65674 0.24374 0.66705
 C290 C 0.68153 0.21414 0.67360
 C291 C 0.70819 0.21625 0.70161
 C292 C 0.70670 0.21767 0.80539
 C293 C 0.70535 0.19048 0.83299
 C294 C 0.73546 0.16615 0.83882
 C295 C 0.76670 0.16931 0.81613
 C296 C 0.76781 0.19619 0.78825
 C297 C 0.82801 0.26230 0.77608
 C298 C 0.85424 0.26188 0.80465
 C299 C 0.84595 0.27742 0.83993
 C300 C 0.81099 0.29344 0.84619
 C301 C 0.78436 0.29283 0.81792
 C302 C 0.78344 0.29358 0.68839
 C303 C 0.78469 0.31946 0.65945
 C304 C 0.76805 0.35439 0.66417
 C305 C 0.75100 0.36333 0.69857
 C306 C 0.75075 0.33784 0.72785
 H307 H 0.68582 0.30128 0.73540
 H308 H 0.63991 0.29834 0.68555
 H309 H 0.68057 0.18945 0.65686
 H310 H 0.72720 0.19324 0.70599
 H311 H 0.68329 0.23629 0.80149
 H312 H 0.68086 0.18873 0.84994
 H313 H 0.79170 0.19734 0.77037
 H314 H 0.83487 0.25022 0.74901
 H315 H 0.88111 0.24963 0.79912
 H316 H 0.80401 0.30550 0.87324
 H317 H 0.75722 0.30447 0.82338
 H318 H 0.79574 0.26651 0.68414
 H319 H 0.79795 0.31198 0.63313
 H320 H 0.73829 0.39020 0.70295
 H321 H 0.73771 0.34523 0.75432
 H322 H 0.79013 0.15065 0.81949
 C323 C 0.23582 0.73273 0.74691
 C324 C 0.26208 0.75813 0.74724
 C325 C 0.29004 0.75973 0.71734
 C326 C 0.26411 0.78568 0.77751
 C327 C 0.20666 0.73260 0.77603
 C328 C 0.23518 0.70374 0.71764
 C329 C 0.32568 0.74599 0.72417
 C330 C 0.35208 0.74667 0.69577
 C331 C 0.34353 0.76237 0.66061
 C332 C 0.30806 0.77707 0.65419
 C333 C 0.28133 0.77534 0.68226
 C334 C 0.27889 0.77610 0.81274
 C335 C 0.28049 0.80229 0.84136
 C336 C 0.26644 0.83807 0.83532
 C337 C 0.25169 0.84752 0.79997
 C338 C 0.25120 0.82167 0.77104
 C339 C 0.18313 0.76330 0.78148
 C340 C 0.15654 0.76333 0.80972
 C341 C 0.15229 0.73226 0.83240
 C342 C 0.17501 0.70105 0.82597
 C343 C 0.20200 0.70127 0.79807
 C344 C 0.20384 0.69988 0.69543
 C345 C 0.20289 0.67262 0.66786
 C346 C 0.23335 0.64871 0.66198
 C347 C 0.26447 0.65230 0.68475
 C348 C 0.26519 0.67926 0.71257
 H349 H 0.33280 0.73412 0.75127
 H350 H 0.37932 0.73544 0.70143
 H351 H 0.30088 0.78922 0.62724
 H352 H 0.25394 0.78627 0.67677
 H353 H 0.28916 0.74842 0.81798
 H354 H 0.29192 0.79443 0.86844
 H355 H 0.23995 0.82945 0.74385
 H356 H 0.18527 0.78723 0.76380
 H357 H 0.13905 0.78757 0.81352
 H358 H 0.17235 0.67666 0.84290
 H359 H 0.21961 0.67715 0.79398
 H360 H 0.18022 0.71823 0.69923
 H361 H 0.17847 0.67053 0.65088
 H362 H 0.28817 0.63399 0.68139
 H363 H 0.28910 0.68081 0.73037
 H364 H 0.24098 0.87503 0.79463
 C365 C 0.26584 0.23178 0.75649
 C366 C 0.23900 0.25851 0.75609
 C367 C 0.23662 0.28623 0.72584
 C368 C 0.21061 0.26125 0.78563
 C369 C 0.26672 0.20229 0.78532
 C370 C 0.29531 0.23069 0.72771
 C371 C 0.24946 0.32135 0.73216
 C372 C 0.24892 0.34712 0.70310
 C373 C 0.23420 0.33855 0.66780
 C374 C 0.22019 0.30375 0.66193
 C375 C 0.22184 0.27756 0.69066
 C376 C 0.21879 0.27514 0.82134
 C377 C 0.19176 0.27746 0.84923
 C378 C 0.15658 0.26501 0.84196
 C379 C 0.14852 0.25117 0.80614
 C380 C 0.17516 0.24998 0.77795
 C381 C 0.23675 0.17986 0.79025
 C382 C 0.23743 0.15283 0.81805
 C383 C 0.26852 0.14697 0.84083
 C384 C 0.29905 0.16855 0.83492
 C385 C 0.29811 0.19601 0.80745
 C386 C 0.30012 0.20007 0.70421
 C387 C 0.32689 0.19946 0.67604
 C388 C 0.34922 0.22957 0.67084
 C389 C 0.34495 0.25977 0.69515
 C390 C 0.31857 0.26010 0.72359
 H391 H 0.26072 0.32843 0.75931
 H392 H 0.25960 0.37389 0.70830
 H393 H 0.20879 0.29657 0.63488
 H394 H 0.21168 0.25056 0.68553
 H395 H 0.24602 0.28416 0.82751
 H396 H 0.19855 0.28815 0.87671
 H397 H 0.16845 0.23942 0.75039
 H398 H 0.21285 0.18315 0.77245
 H399 H 0.21372 0.13624 0.82141
 H400 H 0.32345 0.16463 0.85192
 H401 H 0.32171 0.21270 0.80375
 H402 H 0.28267 0.17695 0.70724
 H403 H 0.32959 0.17574 0.65786
 H404 H 0.36213 0.28311 0.69233
 H405 H 0.31621 0.28340 0.74234
 H406 H 0.12148 0.24167 0.79987
 C407 C 0.73670 0.77608 0.74404
 C408 C 0.76383 0.74966 0.74439
 C409 C 0.76550 0.72013 0.71576
 C410 C 0.79236 0.74816 0.77417
 C411 C 0.73349 0.80403 0.77395
 C412 C 0.70818 0.77739 0.71454
 C413 C 0.73695 0.69577 0.71239
 C414 C 0.73849 0.66829 0.68512
 C415 C 0.76906 0.66405 0.66128
 C416 C 0.79821 0.68772 0.66558
 C417 C 0.79640 0.71555 0.69261
 C418 C 0.79716 0.71654 0.79624
 C419 C 0.82373 0.71470 0.82451
 C420 C 0.84594 0.74457 0.83135
 C421 C 0.84146 0.77603 0.80881
 C422 C 0.81525 0.77760 0.78016
 C423 C 0.74634 0.83913 0.76761
 C424 C 0.74557 0.86496 0.79659
 C425 C 0.73062 0.85645 0.83182
 C426 C 0.71643 0.82172 0.83763
 C427 C 0.71829 0.79548 0.80898
 C428 C 0.71540 0.79195 0.67886
 C429 C 0.68850 0.79213 0.65081
 C430 C 0.65446 0.77686 0.65788
 C431 C 0.64732 0.76253 0.69372
 C432 C 0.67375 0.76344 0.72205
 H433 H 0.71355 0.69789 0.73102
 H434 H 0.71584 0.65014 0.68297
 H435 H 0.82217 0.68509 0.64772
 H436 H 0.81895 0.73379 0.69525
 H437 H 0.78002 0.69338 0.79182
 H438 H 0.82654 0.69006 0.84134
 H439 H 0.81302 0.80169 0.76251
 H440 H 0.75795 0.84609 0.74057
 H441 H 0.75640 0.89168 0.79143
 H442 H 0.70486 0.81459 0.86463
 H443 H 0.70814 0.76847 0.81413
 H444 H 0.74186 0.80297 0.67279
 H445 H 0.69459 0.80325 0.62332
 H446 H 0.62118 0.75088 0.69988
 H447 H 0.66776 0.75231 0.74957
 H448 H 0.85854 0.79926 0.81297
 N449 N 0.30086 0.07634 0.09353
 C450 C 0.26900 0.06339 0.08024
 N451 N 0.23702 0.07604 0.09569
 N452 N 0.23689 0.10055 0.12344
 C453 C 0.26871 0.11359 0.13673
 N454 N 0.30070 0.10107 0.12113
 N455 N 0.73948 0.59337 0.59489
 C456 C 0.77128 0.58286 0.57773
 N457 N 0.80259 0.59897 0.58811
 N458 N 0.80198 0.62479 0.61465
 C459 C 0.77011 0.63528 0.63193
 N460 N 0.73892 0.61898 0.62152
 N461 N 0.76229 0.91911 0.09013
 C462 C 0.73024 0.93228 0.07530
 N463 N 0.69843 0.91882 0.08819
 N464 N 0.69873 0.89314 0.11486
 C465 C 0.73081 0.88015 0.12988
 N466 N 0.76255 0.89367 0.11697
 N467 N 0.26219 0.41251 0.60467
 C468 C 0.23304 0.41625 0.58117
 N469 N 0.20427 0.39430 0.58612
 N470 N 0.20476 0.36931 0.61346
 C471 C 0.23378 0.36577 0.63719
 N472 N 0.26244 0.38790 0.63235
 N473 N 0.91115 0.30106 0.09540
 C474 C 0.92569 0.26913 0.08151
 N475 N 0.91369 0.23712 0.09543
 N476 N 0.88828 0.23703 0.12230
 C477 C 0.87364 0.26893 0.13618
 N478 N 0.88554 0.30095 0.12211
 N479 N 0.42155 0.73552 0.59964
 C480 C 0.42339 0.76471 0.57620
 N481 N 0.39885 0.79315 0.58049
 N482 N 0.37323 0.79231 0.60715
 C483 C 0.37155 0.76322 0.63080
 N484 N 0.39627 0.73491 0.62663
 N485 N 0.08310 0.76161 0.09245
 C486 C 0.07349 0.73051 0.07475
 N487 N 0.08953 0.69815 0.08559
 N488 N 0.11437 0.69698 0.11307
 C489 C 0.12393 0.72808 0.13095
 N490 N 0.10777 0.76040 0.12004
 N491 N 0.58468 0.27038 0.59835
 C492 C 0.57704 0.23779 0.58246
 N493 N 0.59564 0.20715 0.59436
 N494 N 0.62102 0.20907 0.62112
 C495 C 0.62866 0.24165 0.63717
 N496 N 0.60994 0.27226 0.62524
 N497 N 0.76459 0.09375 0.90608
 C498 C 0.73239 0.08466 0.92189
 N499 N 0.70112 0.10243 0.91045
 N500 N 0.70208 0.12841 0.88418
 C501 C 0.73430 0.13748 0.86820
 N502 N 0.76551 0.11958 0.87970
 N503 N 0.19943 0.58157 0.40906
 C504 C 0.23111 0.56448 0.42039
 N505 N 0.26279 0.57301 0.40314
 N506 N 0.26282 0.59766 0.37552
 C507 C 0.23120 0.61489 0.36415
 N508 N 0.19950 0.60639 0.38155
 N509 N 0.29634 0.89217 0.91664
 C510 C 0.26763 0.91631 0.92133
 N511 N 0.23851 0.91455 0.89779
 N512 N 0.23825 0.88975 0.87033
 C513 C 0.26685 0.86544 0.86574
 N514 N 0.29584 0.86700 0.88951
 N515 N 0.73576 0.42391 0.40322
 C516 C 0.76782 0.43205 0.41993
 N517 N 0.79893 0.41365 0.40906
 N518 N 0.79800 0.38798 0.38250
 C519 C 0.76596 0.37981 0.36565
 N520 N 0.73487 0.39835 0.37654
 N521 N 0.09923 0.29551 0.92232
 C522 C 0.07622 0.26741 0.92598
 N523 N 0.07978 0.23857 0.90206
 N524 N 0.10522 0.23796 0.87520
 C525 C 0.12842 0.26592 0.87165
 N526 N 0.12506 0.29465 0.89580
 N527 N 0.58276 0.79931 0.40128
 C528 C 0.57083 0.76718 0.41488
 N529 N 0.58393 0.73541 0.39938
 N530 N 0.60816 0.73577 0.37136
 C531 C 0.62028 0.76790 0.35776
 N532 N 0.60709 0.79965 0.37336
 N533 N 0.91038 0.70857 0.90369
 C534 C 0.92473 0.73961 0.91738
 N535 N 0.91308 0.77231 0.90274
 N536 N 0.88815 0.77387 0.87537
 C537 C 0.87372 0.74283 0.86170
 N538 N 0.88528 0.71017 0.87650
 N539 N 0.41266 0.19523 0.41421
 C540 C 0.42671 0.22754 0.42471
 N541 N 0.41522 0.25857 0.40667
 N542 N 0.39066 0.25737 0.37907
 C543 C 0.37647 0.22513 0.36851
 N544 N 0.38789 0.19408 0.38673
 N545 N 0.70148 0.91188 0.91400
 C546 C 0.73045 0.93356 0.91891
 N547 N 0.75943 0.92979 0.89518
 N548 N 0.75933 0.90540 0.86733
 C549 C 0.73047 0.88354 0.86251
 N550 N 0.70161 0.88710 0.88647
 N551 N 0.26183 0.40879 0.40033
 C552 C 0.23270 0.41333 0.42376
 N553 N 0.20390 0.39128 0.41965
 N554 N 0.20432 0.36545 0.39314
 C555 C 0.23332 0.36114 0.36945
 N556 N 0.26201 0.38334 0.37349
 N557 N 0.23720 0.07957 0.91015
 C558 C 0.26918 0.06629 0.92507
 N559 N 0.30105 0.07968 0.91229
 N560 N 0.30089 0.10541 0.88566
 C561 C 0.26889 0.11855 0.87057
 N562 N 0.23708 0.10508 0.88338
 N563 N 0.74549 0.61043 0.41947
 C564 C 0.77274 0.58430 0.42140
 N565 N 0.80053 0.58502 0.39609
 N566 N 0.80082 0.61068 0.36946
 C567 C 0.77368 0.63694 0.36765
 N568 N 0.74609 0.63644 0.39322
 N569 N 0.08457 0.76503 0.90307
 C570 C 0.07300 0.73327 0.91799
 N571 N 0.08763 0.70111 0.90474
 N572 N 0.11291 0.70077 0.87768
 C573 C 0.12435 0.73253 0.86260
 N574 N 0.10965 0.76466 0.87585
 N575 N 0.60179 0.20631 0.42083
 C576 C 0.57705 0.23455 0.42527
 N577 N 0.57842 0.26370 0.40173
 N578 N 0.60342 0.26447 0.37448
 C579 C 0.62831 0.23634 0.37011
 N580 N 0.62714 0.20731 0.39390
 N581 N 0.90212 0.30347 0.92133
 C582 C 0.92478 0.27351 0.92545
 N583 N 0.92136 0.24492 0.90152
 N584 N 0.89639 0.24633 0.87422
 C585 C 0.87356 0.27616 0.87017
 N586 N 0.87676 0.30466 0.89434
 N587 N 0.41861 0.73059 0.39759
 C588 C 0.42061 0.76064 0.41982
 N589 N 0.39602 0.78888 0.41467
 N590 N 0.37023 0.78707 0.38830
 C591 C 0.36842 0.75717 0.36578
 N592 N 0.39314 0.72900 0.37088
 N593 N 0.29586 0.88979 0.08306
 C594 C 0.26696 0.91371 0.07841
 N595 N 0.23739 0.91094 0.10119
 N596 N 0.23685 0.88538 0.12790
 C597 C 0.26564 0.86131 0.13246
 N598 N 0.29510 0.86388 0.10943
 N599 N 0.79828 0.40860 0.58303
 C600 C 0.76909 0.43196 0.57748
 N601 N 0.73951 0.42958 0.60030
 N602 N 0.73924 0.40493 0.62792
 C603 C 0.76835 0.38144 0.63341
 N604 N 0.79781 0.38360 0.61033
 N605 N 0.70187 0.10666 0.08288
 C606 C 0.73049 0.08231 0.07876
 N607 N 0.75928 0.08400 0.10271
 N608 N 0.75932 0.10894 0.13004
 C609 C 0.73082 0.13346 0.13406
 N610 N 0.70215 0.13196 0.10988
 N611 N 0.20043 0.58509 0.58944
 C612 C 0.23198 0.56766 0.57826
 N613 N 0.26389 0.57693 0.59456
 N614 N 0.26426 0.60260 0.62115
 C615 C 0.23276 0.62016 0.63239
 N616 N 0.20084 0.61092 0.61592
 N617 N 0.92015 0.76537 0.09837
 C618 C 0.92288 0.73684 0.07397
 N619 N 0.89971 0.70891 0.07781
 N620 N 0.87450 0.70963 0.10494
 C621 C 0.87196 0.73803 0.12957
 N622 N 0.89531 0.76583 0.12584
 N623 N 0.41241 0.19855 0.59500
 C624 C 0.42668 0.23047 0.58361
 N625 N 0.41549 0.26200 0.60090
 N626 N 0.39100 0.26164 0.62865
 C627 C 0.37660 0.22976 0.64011
 N628 N 0.38773 0.19822 0.62262
 N629 N 0.09922 0.29157 0.08753
 C630 C 0.07620 0.26366 0.08271
 N631 N 0.07970 0.23392 0.10547
 N632 N 0.10512 0.23229 0.13234
 C633 C 0.12831 0.26009 0.13705
 N634 N 0.12500 0.28970 0.11405
 N635 N 0.59546 0.80176 0.57678
 C636 C 0.57481 0.77180 0.57347
 N637 N 0.58057 0.74356 0.59780
 N638 N 0.60582 0.74531 0.62470
 C639 C 0.62664 0.77514 0.62795
 N640 N 0.62112 0.80328 0.60337
   
