data_POSCAR
  _audit_creation_date              2014-09-24
  _audit_creation_method            'ToBaCCo'
  _symmetry_space_group_name_H-M    'P1'
  _symmetry_Int_Tables_number       1
  _symmetry_cell_setting            triclinic
  loop_
  _symmetry_equiv_pos_as_xyz
 x,y,z
_cell_length_a 21.6659
_cell_length_b 21.6659
_cell_length_c 21.6658
_cell_angle_alpha 94.044300
_cell_angle_beta 85.956100
_cell_angle_gamma 94.043000
loop_
  _atom_site_label
  _atom_site_type_symbol
  _atom_site_fract_x
  _atom_site_fract_y
  _atom_site_fract_z
O1 O 0.57302 0.51351 0.06022
 O2 O 0.40528 0.50573 0.03978
 O3 O 0.48527 0.42635 0.06122
 O4 O 0.49362 0.59335 0.03863
 O5 O 0.51190 0.57337 -0.06225
 O6 O 0.50359 0.40640 -0.03966
 O7 O 0.42410 0.48629 -0.06107
 O8 O 0.59186 0.49411 -0.04066
 Cu9 Cu 0.48739 0.51177 0.06014
 Cu10 Cu 0.50975 0.48799 -0.06108
 C11 C 0.61076 0.50458 0.01345
 C12 C 0.38631 0.49530 -0.01432
 C13 C 0.49366 0.38819 0.01474
 C14 C 0.50359 0.61155 -0.01577
 O15 O 0.04043 0.59449 0.49421
 O16 O 0.06087 0.42673 0.48641
 O17 O 0.03945 0.50616 0.40651
 O18 O 0.06203 0.51451 0.57349
 O19 O -0.03885 0.49619 0.59346
 O20 O -0.06143 0.48788 0.42647
 O21 O -0.04001 0.40790 0.50582
 O22 O -0.06042 0.57565 0.51363
 Cu23 Cu 0.06087 0.51238 0.48810
 Cu24 Cu -0.06035 0.49002 0.51188
 C25 C -0.01368 0.61345 0.50469
 C26 C 0.01410 0.38899 0.49540
 C27 C -0.01495 0.49619 0.38830
 C28 C 0.01557 0.50612 0.61166
 O29 O 0.50614 0.03984 0.59436
 O30 O 0.51395 0.06028 0.42661
 O31 O 0.42684 0.06127 0.51436
 O32 O 0.59384 0.03869 0.50604
 O33 O 0.57387 -0.06219 0.48773
 O34 O 0.40689 -0.03961 0.49606
 O35 O 0.49453 -0.04060 0.40777
 O36 O 0.48674 -0.06101 0.57553
 Cu37 Cu 0.51225 0.06019 0.51224
 Cu38 Cu 0.48848 -0.06103 0.48988
 C39 C 0.49565 -0.01426 0.61333
 C40 C 0.50494 0.01352 0.38887
 C41 C 0.38868 0.01479 0.50600
 C42 C 0.61204 -0.01572 0.49607
 C43 C 0.49871 -0.05697 -0.13585
 C44 C 0.49950 -0.11849 -0.12031
 C45 C 0.50020 -0.13457 -0.05896
 C46 C 0.49890 -0.08706 -0.01046
 C47 C 0.49939 -0.02409 -0.02490
 C48 C 0.49990 -0.00899 -0.08776
 C49 C 0.50168 0.05372 -0.10058
 C50 C 0.50158 0.10043 -0.05331
 C51 C 0.49976 0.08690 0.00928
 C52 C 0.49937 0.02395 0.02371
 C53 C 0.49710 -0.10058 0.05212
 C54 C 0.49715 -0.05386 0.09938
 C55 C 0.49897 0.00884 0.08655
 C56 C 0.50031 0.05683 0.13464
 C57 C 0.49928 0.11833 0.11913
 C58 C 0.49835 0.13440 0.05779
 H59 H 0.50352 0.06802 -0.14731
 H60 H 0.50335 0.14729 -0.06715
 H61 H 0.49528 -0.14744 0.06598
 H62 H 0.49534 -0.06816 0.14611
 H63 H 0.49963 -0.15473 -0.15681
 H64 H 0.49918 0.15456 0.15564
 C65 C 0.13560 0.49954 0.94298
 C66 C 0.12008 0.50055 0.88148
 C67 C 0.05874 0.50144 0.86542
 C68 C 0.01023 0.50002 0.91292
 C69 C 0.02467 0.50042 0.97587
 C70 C 0.08751 0.50084 0.99097
 C71 C 0.10034 0.50264 1.05368
 C72 C 0.05308 0.50268 1.10041
 C73 C -0.00951 0.50089 1.08688
 C74 C -0.02394 0.50040 1.02391
 C75 C -0.05235 0.49819 0.89939
 C76 C -0.09962 0.49811 0.94610
 C77 C -0.08680 0.49991 1.00880
 C78 C -0.13489 0.50115 1.05678
 C79 C -0.11936 0.50034 1.11830
 C80 C -0.05801 0.49960 1.13439
 H81 H 0.14707 0.50445 1.06798
 H82 H 0.06693 0.50449 1.14726
 H83 H -0.06620 0.49641 0.85253
 H84 H -0.14635 0.49627 0.93179
 H85 H 0.15658 0.50068 0.84524
 H86 H -0.15587 0.50024 1.15453
 C87 C -0.05649 -0.13578 0.50134
 C88 C -0.11801 -0.12025 0.50050
 C89 C -0.13409 -0.05889 0.49977
 C90 C -0.08659 -0.01039 0.50108
 C91 C -0.02362 -0.02483 0.50061
 C92 C -0.00851 -0.08769 0.50012
 C93 C 0.05419 -0.10051 0.49833
 C94 C 0.10091 -0.05324 0.49840
 C95 C 0.08737 0.00934 0.50022
 C96 C 0.02442 0.02378 0.50063
 C97 C -0.10011 0.05219 0.50289
 C98 C -0.05339 0.09946 0.50286
 C99 C 0.00931 0.08663 0.50105
 C100 C 0.05730 0.13471 0.49974
 C101 C 0.11880 0.11919 0.50072
 C102 C 0.13487 0.05785 0.50160
 H103 H 0.06850 -0.14724 0.49649
 H104 H 0.14777 -0.06708 0.49662
 H105 H -0.14697 0.06605 0.50470
 H106 H -0.06769 0.14619 0.50468
 H107 H -0.15425 -0.15675 0.50038
 H108 H 0.15504 0.15569 0.50083
 C109 C -0.23050 0.55186 1.00788
 C110 C -0.26863 0.49917 0.97241
 C111 C -0.32168 0.50485 1.02299
 C112 C -0.28464 0.55741 1.05813
 C113 C -0.29474 0.45625 1.05985
 C114 C -0.24072 0.45047 1.00953
 C115 C -0.20315 0.50304 1.04468
 C116 C -0.25699 0.50880 1.09522
 H117 H -0.20379 0.59143 0.98652
 H118 H -0.27397 0.49530 0.92167
 H119 H -0.30328 0.60148 1.07804
 H120 H -0.32178 0.41685 1.08120
 H121 H -0.22240 0.40630 0.98954
 H122 H -0.25553 0.51323 1.14641
 C123 C 0.23105 0.44851 0.99187
 C124 C 0.28516 0.44273 0.94157
 C125 C 0.32228 0.49525 0.97664
 C126 C 0.26935 0.50112 1.02733
 C127 C 0.29557 0.54395 0.93977
 C128 C 0.25764 0.49146 0.90447
 C129 C 0.20384 0.49742 0.95506
 C130 C 0.24158 0.54990 0.99015
 H131 H 0.20421 0.40904 1.01326
 H132 H 0.30360 0.39857 0.92167
 H133 H 0.27462 0.50500 1.07808
 H134 H 0.32266 0.58329 0.91836
 H135 H 0.25611 0.48700 0.85329
 H136 H 0.22339 0.59414 1.01012
 C137 C -0.00923 -0.24158 0.45060
 C138 C 0.02793 -0.26953 0.49928
 C139 C -0.02273 -0.32252 0.50491
 C140 C -0.05959 -0.29563 0.45631
 C141 C -0.05786 -0.28559 0.55755
 C142 C -0.00759 -0.23144 0.55201
 C143 C -0.04439 -0.20404 0.50320
 C144 C -0.09494 -0.25790 0.50892
 H145 H 0.01075 -0.22321 0.40645
 H146 H 0.07868 -0.27477 0.49540
 H147 H -0.08095 -0.32258 0.41687
 H148 H -0.07779 -0.30422 0.60162
 H149 H 0.01375 -0.20474 0.59159
 H150 H -0.14613 -0.25641 0.51335
 C151 C 0.09580 0.25673 0.49158
 C152 C 0.05870 0.28419 0.44287
 C153 C 0.02362 0.32145 0.49532
 C154 C 0.06050 0.29469 0.54401
 C155 C -0.02699 0.26846 0.50123
 C156 C 0.00841 0.23011 0.44866
 C157 C 0.04523 0.20294 0.49758
 C158 C 0.01014 0.24072 0.55003
 H159 H 0.14699 0.25522 0.48712
 H160 H 0.07858 0.30265 0.39871
 H161 H 0.08189 0.32186 0.58330
 H162 H -0.07772 0.27383 0.50510
 H163 H -0.01299 0.20326 0.40920
 H164 H -0.00983 0.22259 0.59430
 C165 C 0.49127 -0.09546 -0.25797
 C166 C 0.44268 -0.05840 -0.28575
 C167 C 0.49536 -0.02328 -0.32263
 C168 C 0.54392 -0.06012 -0.29566
 C169 C 0.50093 0.02740 -0.26966
 C170 C 0.44816 -0.00810 -0.23160
 C171 C 0.49692 -0.04488 -0.20413
 C172 C 0.54957 -0.00974 -0.24162
 H173 H 0.48683 -0.14665 -0.25648
 H174 H 0.39864 -0.07833 -0.30442
 H175 H 0.58339 -0.08150 -0.32255
 H176 H 0.50482 0.07815 -0.27491
 H177 H 0.40855 0.01326 -0.20496
 H178 H 0.59370 0.01025 -0.22320
 C179 C 0.50860 0.09529 0.25666
 C180 C 0.45622 0.05997 0.29466
 C181 C 0.50495 0.02308 0.32134
 C182 C 0.55736 0.05817 0.28404
 C183 C 0.49898 -0.02752 0.26833
 C184 C 0.45014 0.00964 0.24068
 C185 C 0.50254 0.04474 0.20286
 C186 C 0.55150 0.00791 0.22995
 H187 H 0.51305 0.14648 0.25516
 H188 H 0.41696 0.08135 0.32189
 H189 H 0.60154 0.07805 0.30245
 H190 H 0.49512 -0.07825 0.27368
 H191 H 0.40585 -0.01032 0.22260
 H192 H 0.59094 -0.01348 0.20304
 C193 C 0.50752 -0.25657 -0.09810
 C194 C 0.55636 -0.28429 -0.06134
 C195 C 0.50395 -0.32119 -0.02589
 C196 C 0.45513 -0.29428 -0.06245
 C197 C 0.49861 -0.26821 0.02472
 C198 C 0.55114 -0.23019 -0.01102
 C199 C 0.50209 -0.20281 -0.04746
 C200 C 0.44968 -0.24030 -0.01207
 H201 H 0.51158 -0.25492 -0.14928
 H202 H 0.60029 -0.30305 -0.08148
 H203 H 0.41560 -0.32133 -0.08354
 H204 H 0.49504 -0.27359 0.07544
 H205 H 0.59086 -0.20349 0.01009
 H206 H 0.40562 -0.22191 0.00817
 C207 C 0.54831 0.24039 0.01100
 C208 C 0.49922 0.26802 -0.02580
 C209 C 0.49357 0.32095 0.02484
 C210 C 0.54255 0.29430 0.06141
 C211 C 0.44133 0.28376 0.06023
 C212 C 0.44687 0.22972 0.00989
 C213 C 0.49608 0.20261 0.04634
 C214 C 0.49034 0.25631 0.09700
 H215 H 0.59249 0.22225 -0.00922
 H216 H 0.50278 0.27344 -0.07652
 H217 H 0.58194 0.32156 0.08254
 H218 H 0.39728 0.30226 0.08036
 H219 H 0.40730 0.20281 -0.01127
 H220 H 0.48626 0.25460 0.14818
 C221 C -0.25608 -0.09804 0.49230
 C222 C -0.29385 -0.06240 0.54464
 C223 C -0.32070 -0.02584 0.49578
 C224 C -0.28374 -0.06128 0.44341
 C225 C -0.26773 0.02477 0.50119
 C226 C -0.23989 -0.01201 0.55016
 C227 C -0.20233 -0.04740 0.49779
 C228 C -0.22965 -0.01096 0.44870
 H229 H -0.25442 -0.14922 0.48824
 H230 H -0.32096 -0.08349 0.58415
 H231 H -0.30243 -0.08142 0.39946
 H232 H -0.27311 0.07550 0.50475
 H233 H -0.22155 0.00822 0.59424
 H234 H -0.20290 0.01015 0.40901
 C235 C 0.23026 0.00994 0.55297
 C236 C 0.26850 -0.02575 0.50057
 C237 C 0.32144 0.02489 0.50616
 C238 C 0.28431 0.06028 0.55844
 C239 C 0.29473 0.06146 0.45722
 C240 C 0.24081 0.01105 0.45152
 C241 C 0.20309 0.04639 0.50380
 C242 C 0.25679 0.09705 0.50947
 H243 H 0.20340 -0.01121 0.59257
 H244 H 0.27392 -0.07647 0.49701
 H245 H 0.30287 0.08041 0.60246
 H246 H 0.32194 0.08258 0.41780
 H247 H 0.22261 -0.00917 0.40736
 H248 H 0.25510 0.14823 0.51356
 C249 C -0.09720 0.49227 1.25637
 C250 C -0.06046 0.44342 1.28411
 C251 C -0.02504 0.49584 1.32103
 C252 C -0.06157 0.54466 1.29410
 C253 C 0.02560 0.50118 1.26807
 C254 C -0.01012 0.44865 1.23004
 C255 C -0.04654 0.49770 1.20264
 C256 C -0.01116 0.55011 1.24015
 H257 H -0.14838 0.48821 1.25470
 H258 H -0.08062 0.39950 1.30285
 H259 H -0.08267 0.58419 1.32115
 H260 H 0.07632 0.50475 1.27348
 H261 H 0.01100 0.40893 1.20334
 H262 H 0.00908 0.59417 1.22176
 C263 C 0.09790 0.50944 0.74349
 C264 C 0.06229 0.45723 0.70552
 C265 C 0.02570 0.50621 0.67889
 C266 C 0.06111 0.55845 0.71606
 C267 C -0.02491 0.50056 0.73184
 C268 C 0.01190 0.45147 0.75945
 C269 C 0.04726 0.50370 0.79721
 C270 C 0.01079 0.55291 0.77012
 H271 H 0.14908 0.51352 0.74518
 H272 H 0.08340 0.41784 0.67825
 H273 H 0.08122 0.60250 0.69755
 H274 H -0.07564 0.49701 0.72645
 H275 H -0.00830 0.40729 0.77760
 H276 H -0.01035 0.59248 0.79704
   
