data_POSCAR
  _audit_creation_date              2014-09-24
  _audit_creation_method            'ToBaCCo'
  _symmetry_space_group_name_H-M    'P1'
  _symmetry_Int_Tables_number       1
  _symmetry_cell_setting            triclinic
  loop_
  _symmetry_equiv_pos_as_xyz
 x,y,z
_cell_length_a 55.9754
_cell_length_b 55.8844
_cell_length_c 27.3342
_cell_angle_alpha 89.358000
_cell_angle_beta 90.328500
_cell_angle_gamma 120.046500
loop_
  _atom_site_label
  _atom_site_type_symbol
  _atom_site_fract_x
  _atom_site_fract_y
  _atom_site_fract_z
C1 C 0.15053 0.43112 0.48301
 C2 C 0.16411 0.43389 0.43837
 C3 C 0.19193 0.44074 0.43925
 C4 C 0.20574 0.44263 0.48355
 C5 C 0.19150 0.44000 0.52785
 C6 C 0.16433 0.43542 0.52802
 C7 C 0.23452 0.44663 0.48332
 C8 C 0.25110 0.45546 0.52580
 C9 C 0.27619 0.45570 0.52806
 C10 C 0.28634 0.44956 0.48635
 C11 C 0.27164 0.44293 0.44229
 C12 C 0.24545 0.44063 0.44136
 H13 H 0.12937 0.42674 0.48257
 H14 H 0.20268 0.44446 0.40492
 H15 H 0.20103 0.44091 0.56268
 H16 H 0.24450 0.46147 0.55811
 H17 H 0.30622 0.45067 0.48810
 H18 H 0.23368 0.43337 0.40800
 C19 C 0.56854 -0.27974 0.49296
 C20 C 0.56120 -0.27017 0.45095
 C21 C 0.55766 -0.24712 0.45484
 C22 C 0.56291 -0.23265 0.49906
 C23 C 0.56937 -0.24334 0.54117
 C24 C 0.57127 -0.26752 0.53887
 C25 C 0.56175 -0.20644 0.50080
 C26 C 0.55520 -0.19808 0.54474
 C27 C 0.55605 -0.17267 0.54761
 C28 C 0.56186 -0.15612 0.50562
 C29 C 0.56683 -0.16455 0.46059
 C30 C 0.56749 -0.18935 0.45870
 H31 H 0.57064 -0.29792 0.49031
 H32 H 0.55105 -0.24028 0.42304
 H33 H 0.57336 -0.23274 0.57568
 H34 H 0.54974 -0.21102 0.57716
 H35 H 0.56155 -0.13694 0.50787
 H36 H 0.57295 -0.19488 0.42446
 C37 C 1.28511 0.84007 0.51495
 C38 C 1.27623 0.82372 0.47278
 C39 C 1.25140 0.79828 0.47465
 C40 C 1.23413 0.79022 0.51621
 C41 C 1.24385 0.80724 0.55817
 C42 C 1.26965 0.83163 0.55818
 C43 C 1.20591 0.76471 0.51510
 C44 C 1.19222 0.75177 0.55899
 C45 C 1.16485 0.72965 0.55909
 C46 C 1.15178 0.71892 0.51402
 C47 C 1.16553 0.72993 0.46960
 C48 C 1.19210 0.75332 0.47039
 H49 H 1.30474 0.85918 0.51478
 H50 H 1.24538 0.78511 0.44302
 H51 H 1.23142 0.80229 0.59081
 H52 H 1.20275 0.75890 0.59353
 H53 H 1.13110 0.70119 0.51334
 H54 H 1.20147 0.76266 0.43574
 C55 C 0.85167 0.57622 0.50020
 C56 C 0.83974 0.57291 0.45377
 C57 C 0.81350 0.57013 0.44972
 C58 C 0.79962 0.57237 0.49077
 C59 C 0.81204 0.57539 0.53734
 C60 C 0.83769 0.57664 0.54229
 C61 C 0.77237 0.57137 0.48432
 C62 C 0.75353 0.56392 0.52351
 C63 C 0.72809 0.56314 0.51765
 C64 C 0.72119 0.56900 0.47126
 C65 C 0.73899 0.57549 0.43145
 C66 C 0.76470 0.57744 0.43838
 H67 H 0.87152 0.57742 0.50386
 H68 H 0.80391 0.56586 0.41411
 H69 H 0.80233 0.57725 0.56998
 H70 H 0.75825 0.55809 0.55848
 H71 H 0.70140 0.56766 0.46531
 H72 H 0.77856 0.58406 0.40748
 C73 C 0.41872 0.27464 0.51534
 C74 C 0.42488 0.26822 0.46947
 C75 C 0.42739 0.24464 0.46474
 C76 C 0.42318 0.22694 0.50493
 C77 C 0.41810 0.23455 0.55134
 C78 C 0.41643 0.25872 0.55711
 C79 C 0.42458 0.20099 0.49814
 C80 C 0.43146 0.18904 0.53754
 C81 C 0.43237 0.16448 0.53183
 C82 C 0.42713 0.15233 0.48537
 C83 C 0.42128 0.16429 0.44526
 C84 C 0.41945 0.18814 0.45192
 H85 H 0.41723 0.29314 0.51882
 H86 H 0.43339 0.24062 0.42966
 H87 H 0.41470 0.22147 0.58299
 H88 H 0.43677 0.19914 0.57261
 H89 H 0.42843 0.13386 0.47965
 H90 H 0.41359 0.19619 0.42081
 C91 C 0.72248 0.14991 0.52882
 C92 C 0.72958 0.16297 0.48283
 C93 C 0.75497 0.18762 0.47713
 C94 C 0.77375 0.19886 0.51643
 C95 C 0.76596 0.18492 0.56223
 C96 C 0.74018 0.16107 0.56884
 C97 C 0.80102 0.22517 0.51023
 C98 C 0.81482 0.24129 0.55137
 C99 C 0.84116 0.26489 0.54762
 C100 C 0.85309 0.27350 0.50101
 C101 C 0.83911 0.25908 0.45889
 C102 C 0.81349 0.23462 0.46375
 H103 H 0.70262 0.13140 0.53410
 H104 H 0.75957 0.19820 0.44219
 H105 H 0.77977 0.19208 0.59324
 H106 H 0.80495 0.23578 0.58675
 H107 H 0.87296 0.29216 0.49706
 H108 H 0.80379 0.22303 0.43108
 O109 O 0.98489 0.52490 -0.07803
 O110 O 1.01380 0.53151 0.08772
 O111 O 0.95182 0.50321 0.03132
 O112 O 1.04719 0.55338 -0.02225
 O113 O 0.96746 0.49364 0.09417
 O114 O 1.03117 0.53410 -0.08984
 O115 O 1.05244 0.53995 0.05795
 O116 O 0.94623 0.49193 -0.05293
 C117 C 0.95965 0.51473 -0.07470
 C118 C 1.03898 0.54716 0.08450
 C119 C 0.95671 0.50628 0.07552
 C120 C 1.04215 0.55554 -0.06546
 O121 O 1.01321 0.47975 -0.08896
 O122 O 0.98524 0.45788 0.07738
 O123 O 0.95160 0.44610 -0.03151
 O124 O 1.04722 0.49159 0.02041
 O125 O 1.03162 0.49501 0.08830
 O126 O 0.96687 0.47124 -0.09450
 O127 O 1.05207 0.51004 -0.05983
 O128 O 0.94648 0.45208 0.05290
 Co129 Co 0.99906 0.50213 -0.07959
 Co130 Co 0.99950 0.49488 0.07863
 Co131 Co 0.95395 0.47579 -0.00011
 Co132 Co 1.04481 0.52128 -0.00089
 O133 O 0.99934 0.49852 -0.00048
 C134 C 1.03840 0.48931 -0.08624
 C135 C 0.95998 0.44277 0.07450
 C136 C 0.95633 0.44787 -0.07577
 C137 C 1.04237 0.48444 0.06366
 O138 O 0.46643 0.45012 -0.06911
 O139 O 0.47828 0.49911 0.08682
 O140 O 0.50191 0.45039 0.03949
 O141 O 0.46191 0.52257 -0.05573
 O142 O 0.51173 0.48351 0.09137
 O143 O 0.45169 0.48167 -0.06290
 O144 O 0.45355 0.49625 0.02462
 O145 O 0.50151 0.44604 -0.05186
 C146 C 0.47762 0.43592 -0.06837
 C147 C 0.45498 0.49112 0.06855
 C148 C 0.50215 0.45822 0.08216
 C149 C 0.44584 0.49972 -0.07291
 O150 O 0.50096 0.52301 -0.10387
 O151 O 0.54943 0.53164 0.04757
 O152 O 0.54703 0.49277 -0.05816
 O153 O 0.48107 0.54875 0.02618
 O154 O 0.51788 0.54800 0.04693
 O155 O 0.51515 0.48818 -0.11078
 O156 O 0.51310 0.55020 -0.04078
 O157 O 0.55100 0.49475 0.03407
 Co158 Co 0.48486 0.48684 -0.08092
 Co159 Co 0.51313 0.51406 0.06176
 Co160 Co 0.52304 0.47353 -0.00901
 Co161 Co 0.48436 0.52252 -0.00662
 O162 O 0.50127 0.49737 -0.01055
 C163 C 0.51446 0.54702 -0.08585
 C164 C 0.56251 0.51922 0.04848
 C165 C 0.53962 0.49386 -0.10111
 C166 C 0.50200 0.55743 0.05535
 O167 O 0.54769 0.01691 -0.05024
 O168 O 0.49922 -0.02176 0.10208
 O169 O 0.54724 0.05406 0.05647
 O170 O 0.47734 -0.06764 -0.02798
 O171 O 0.51498 0.02760 0.10916
 O172 O 0.51482 -0.03077 -0.04912
 O173 O 0.51027 -0.03763 0.03879
 O174 O 0.55096 0.05607 -0.03572
 C175 C 0.56159 0.04243 -0.05072
 C176 C 0.51199 -0.03295 0.08386
 C177 C 0.53972 0.04570 0.09942
 C178 C 0.49818 -0.05600 -0.05743
 O179 O 0.47619 -0.01983 -0.08824
 O180 O 0.46676 0.01849 0.06773
 O181 O 0.50284 0.05335 -0.04071
 O182 O 0.45923 -0.05984 0.05421
 O183 O 0.45051 -0.02817 0.06174
 O184 O 0.51100 0.02898 -0.09298
 O185 O 0.45146 -0.04115 -0.02568
 O186 O 0.50272 0.05711 0.05081
 Co187 Co 0.51128 -0.00083 -0.06368
 Co188 Co 0.48412 -0.00079 0.07943
 Co189 Co 0.52345 0.05027 0.00761
 Co190 Co 0.48193 -0.03765 0.00504
 O191 O 0.50022 0.00459 0.00892
 C192 C 0.45286 -0.03460 -0.06959
 C193 C 0.47882 0.04396 0.06752
 C194 C 0.50284 0.04581 -0.08355
 C195 C 0.44394 -0.05228 0.07193
 C196 C 1.12330 0.42488 0.30763
 N197 N 1.10965 0.41924 0.35083
 N198 N 1.12278 0.42192 0.39288
 C199 C 1.15015 0.43036 0.39361
 N200 N 1.16366 0.43554 0.35009
 N201 N 1.15056 0.43306 0.30794
 C202 C 1.10922 0.42486 0.26229
 N203 N 1.12365 0.43675 0.22064
 N204 N 1.11123 0.44047 0.18189
 C205 C 1.08394 0.43227 0.18348
 N206 N 1.06943 0.41960 0.22458
 N207 N 1.08181 0.41595 0.26323
 C208 C 1.07127 0.44133 0.14602
 N209 N 1.04644 0.43895 0.15554
 N210 N 1.03668 0.45156 0.12722
 C211 C 1.05121 0.46680 0.08795
 N212 N 1.07566 0.46847 0.07714
 N213 N 1.08561 0.45604 0.10593
 C214 C 0.54859 0.68846 0.32096
 N215 N 0.55997 0.68271 0.35993
 N216 N 0.56399 0.69611 0.40170
 C217 C 0.55710 0.71608 0.40624
 N218 N 0.54598 0.72206 0.36679
 N219 N 0.54160 0.70836 0.32501
 C220 C 0.54353 0.67262 0.27613
 N221 N 0.52460 0.67056 0.24258
 N222 N 0.51877 0.65414 0.20396
 C223 C 0.53189 0.63950 0.19757
 N224 N 0.55108 0.64199 0.23073
 N225 N 0.55669 0.65813 0.26939
 C226 C 0.52473 0.61989 0.15758
 N227 N 0.54026 0.60788 0.15034
 N228 N 0.53308 0.58838 0.11695
 C229 C 0.51000 0.58000 0.08971
 N230 N 0.49446 0.59213 0.09643
 N231 N 0.50173 0.61181 0.12988
 C232 C 0.32006 -0.14659 0.34437
 N233 N 0.32664 -0.13034 0.38429
 N234 N 0.31286 -0.14024 0.42592
 C235 C 0.29166 -0.16670 0.42931
 N236 N 0.28517 -0.18302 0.38914
 N237 N 0.29924 -0.17322 0.34752
 C238 C 0.33491 -0.13481 0.29861
 N239 N 0.33765 -0.15072 0.26439
 N240 N 0.35252 -0.13917 0.22406
 C241 C 0.36467 -0.11144 0.21640
 N242 N 0.36150 -0.09574 0.25031
 N243 N 0.34703 -0.10718 0.29077
 C244 C 0.38257 -0.09787 0.17428
 N245 N 0.38952 -0.07153 0.16265
 N246 N 0.40825 -0.05754 0.12834
 C247 C 0.42093 -0.06929 0.10465
 N248 N 0.41373 -0.09584 0.11560
 N249 N 0.39475 -0.10995 0.14978
 C250 C 0.88098 0.56908 0.32889
 N251 N 0.85521 0.56546 0.32521
 N252 N 0.84221 0.56689 0.36478
 C253 C 0.85439 0.57180 0.40957
 N254 N 0.88027 0.57560 0.41299
 N255 N 0.89328 0.57421 0.37347
 C256 C 0.89473 0.56567 0.28627
 N257 N 0.91978 0.56772 0.29153
 N258 N 0.93140 0.56223 0.25431
 C259 C 0.91849 0.55457 0.21036
 N260 N 0.89363 0.55300 0.20469
 N261 N 0.88196 0.55849 0.24205
 C262 C 0.93000 0.54509 0.17216
 N263 N 0.91800 0.53735 0.12734
 N264 N 0.92708 0.52593 0.09513
 C265 C 0.94827 0.52167 0.10704
 N266 N 0.96041 0.52979 0.15147
 N267 N 0.95153 0.54137 0.18331
 C268 C 0.44183 0.32268 0.35082
 N269 N 0.43843 0.32977 0.39644
 N270 N 0.43266 0.31229 0.43386
 C271 C 0.43013 0.28707 0.42722
 N272 N 0.43338 0.27995 0.38139
 N273 N 0.43909 0.29741 0.34388
 C274 C 0.44930 0.34243 0.31016
 N275 N 0.45191 0.33523 0.26410
 N276 N 0.45958 0.35354 0.22751
 C277 C 0.46500 0.37970 0.23575
 N278 N 0.46230 0.38686 0.28179
 N279 N 0.45455 0.36854 0.31833
 C280 C 0.47424 0.40005 0.19580
 N281 N 0.48197 0.42682 0.20474
 N282 N 0.49091 0.44543 0.16851
 C283 C 0.49238 0.43789 0.12210
 N284 N 0.48452 0.41110 0.11315
 N285 N 0.47567 0.39252 0.14938
 C286 C 0.67374 0.12845 0.36633
 N287 N 0.69927 0.15056 0.35853
 N288 N 0.71705 0.16165 0.39544
 C289 C 0.70997 0.15102 0.44149
 N290 N 0.68440 0.12890 0.44901
 N291 N 0.66663 0.11785 0.41223
 C292 C 0.65400 0.11605 0.32612
 N293 N 0.62825 0.09457 0.33502
 N294 N 0.61015 0.08318 0.29876
 C295 C 0.61717 0.09282 0.25224
 N296 N 0.64294 0.11428 0.24327
 N297 N 0.66105 0.12571 0.27958
 C298 C 0.59713 0.08034 0.21246
 N299 N 0.60432 0.08938 0.16567
 N300 N 0.58601 0.07820 0.12962
 C301 C 0.55987 0.05764 0.13909
 N302 N 0.55269 0.04856 0.18586
 N303 N 0.57101 0.05970 0.22192
 C304 C 0.45159 0.12894 -0.35266
 N305 N 0.44700 0.11784 -0.39793
 N306 N 0.44075 0.12931 -0.43504
 C307 C 0.43890 0.15243 -0.42858
 N308 N 0.44352 0.16348 -0.38304
 N309 N 0.44971 0.15195 -0.34581
 C310 C 0.45866 0.11627 -0.31210
 N311 N 0.46168 0.12613 -0.26597
 N312 N 0.46828 0.11460 -0.22932
 C313 C 0.47215 0.09286 -0.23757
 N314 N 0.46912 0.08301 -0.28368
 N315 N 0.46245 0.09448 -0.32027
 C316 C 0.47978 0.08039 -0.19746
 N317 N 0.48574 0.06010 -0.20644
 N318 N 0.49304 0.04900 -0.17011
 C319 C 0.49456 0.05777 -0.12350
 N320 N 0.48849 0.07797 -0.11449
 N321 N 0.48127 0.08912 -0.15084
 C322 C 0.67330 0.54287 -0.36786
 N323 N 0.69799 0.54429 -0.36065
 N324 N 0.71573 0.55078 -0.39755
 C325 C 0.70950 0.55616 -0.44307
 N326 N 0.68473 0.55472 -0.44986
 N327 N 0.66700 0.54819 -0.41312
 C328 C 0.65356 0.53569 -0.32769
 N329 N 0.62842 0.53298 -0.33629
 N330 N 0.61033 0.52643 -0.30009
 C331 C 0.61675 0.52243 -0.25394
 N332 N 0.64191 0.52517 -0.24527
 N333 N 0.66001 0.53166 -0.28154
 C334 C 0.59675 0.51516 -0.21420
 N335 N 0.60356 0.51242 -0.16758
 N336 N 0.58533 0.50571 -0.13153
 C337 C 0.55964 0.50144 -0.14083
 N338 N 0.55283 0.50420 -0.18744
 N339 N 0.57108 0.51097 -0.22348
 C340 C 0.88163 0.30929 -0.32949
 N341 N 0.85625 0.28650 -0.32564
 N342 N 0.84329 0.27205 -0.36526
 C343 C 0.85507 0.27988 -0.41035
 N344 N 0.88061 0.30262 -0.41382
 N345 N 0.89359 0.31704 -0.37425
 C346 C 0.89528 0.32646 -0.28679
 N347 N 0.92011 0.34980 -0.29209
 N348 N 0.93160 0.36693 -0.25480
 C349 C 0.91878 0.36136 -0.21073
 N350 N 0.89415 0.33773 -0.20502
 N351 N 0.88260 0.32055 -0.24246
 C352 C 0.93011 0.38234 -0.17244
 N353 N 0.91809 0.37792 -0.12761
 N354 N 0.92702 0.39842 -0.09537
 C355 C 0.94805 0.42402 -0.10726
 N356 N 0.96020 0.42820 -0.15169
 N357 N 0.95149 0.40775 -0.18356
 C358 C 0.54211 -0.14390 -0.32109
 N359 N 0.55936 -0.12606 -0.35552
 N360 N 0.56378 -0.13536 -0.39704
 C361 C 0.55128 -0.16288 -0.40565
 N362 N 0.53422 -0.18083 -0.37093
 N363 N 0.52958 -0.17149 -0.32943
 C364 C 0.53671 -0.13296 -0.27676
 N365 N 0.51505 -0.14908 -0.24694
 N366 N 0.50937 -0.13812 -0.20873
 C367 C 0.52527 -0.11074 -0.19907
 N368 N 0.54708 -0.09484 -0.22853
 N369 N 0.55264 -0.10572 -0.26672
 C370 C 0.51853 -0.09766 -0.15956
 N371 N 0.53554 -0.07040 -0.15090
 N372 N 0.52906 -0.05746 -0.11762
 C373 C 0.50528 -0.07126 -0.09182
 N374 N 0.48825 -0.09864 -0.09998
 N375 N 0.49478 -0.11165 -0.13339
 C376 C 0.31795 0.46784 -0.33906
 N377 N 0.30450 0.48190 -0.34908
 N378 N 0.29115 0.47817 -0.39139
 C379 C 0.29121 0.46060 -0.42535
 N380 N 0.30480 0.44674 -0.41524
 N381 N 0.31782 0.45021 -0.37285
 C382 C 0.33285 0.47154 -0.29308
 N383 N 0.33988 0.45253 -0.27915
 N384 N 0.35497 0.45629 -0.23923
 C385 C 0.36379 0.47931 -0.21191
 N386 N 0.35660 0.49832 -0.22552
 N387 N 0.34122 0.49441 -0.26534
 C388 C 0.38274 0.48421 -0.17117
 N389 N 0.39761 0.50960 -0.15080
 N390 N 0.41719 0.51450 -0.11788
 C391 C 0.42243 0.49413 -0.10426
 N392 N 0.40717 0.46867 -0.12389
 N393 N 0.38773 0.46383 -0.15680
 C394 C 1.12379 0.69551 -0.31127
 N395 N 1.11055 0.68717 -0.35480
 N396 N 1.12379 0.69828 -0.39653
 C397 C 1.15085 0.71823 -0.39656
 N398 N 1.16395 0.72679 -0.35272
 N399 N 1.15075 0.71552 -0.31091
 C400 C 1.10959 0.68116 -0.26617
 N401 N 1.12382 0.68420 -0.22406
 N402 N 1.11133 0.66812 -0.18525
 C403 C 1.08415 0.64862 -0.18722
 N404 N 1.06984 0.64626 -0.22884
 N405 N 1.08231 0.66221 -0.26755
 C406 C 1.07141 0.62715 -0.14930
 N407 N 1.04646 0.60469 -0.15841
 N408 N 1.03659 0.58249 -0.12956
 C409 C 1.05110 0.58197 -0.09014
 N410 N 1.07566 0.60478 -0.07973
 N411 N 1.08573 0.62699 -0.10903
 C412 C 0.87189 0.57183 -0.32349
 N413 N 0.88831 0.58629 -0.36177
 N414 N 0.87741 0.58868 -0.40369
 C415 C 0.84965 0.57696 -0.40900
 N416 N 0.83321 0.56301 -0.37027
 N417 N 0.84412 0.56041 -0.32836
 C418 C 0.88416 0.56686 -0.27941
 N419 N 0.86822 0.54742 -0.24557
 N420 N 0.87976 0.54117 -0.20840
 C421 C 0.90767 0.55420 -0.20358
 N422 N 0.92352 0.57391 -0.23698
 N423 N 0.91201 0.58006 -0.27420
 C424 C 0.92079 0.54566 -0.16562
 N425 N 0.94872 0.55888 -0.16195
 N426 N 0.96097 0.54967 -0.13130
 C427 C 0.94580 0.52687 -0.10304
 N428 N 0.91783 0.51387 -0.10604
 N429 N 0.90554 0.52313 -0.13670
 C430 C 0.41552 0.29103 -0.30832
 N431 N 0.40864 0.29983 -0.34957
 N432 N 0.40815 0.28876 -0.39260
 C433 C 0.41412 0.26808 -0.39638
 N434 N 0.42008 0.25857 -0.35462
 N435 N 0.42108 0.27004 -0.31148
 C436 C 0.41938 0.30617 -0.26262
 N437 N 0.43771 0.30781 -0.22811
 N438 N 0.44426 0.32512 -0.19062
 C439 C 0.43254 0.34121 -0.18611
 N440 N 0.41372 0.33898 -0.21994
 N441 N 0.40740 0.32194 -0.25758
 C442 C 0.44222 0.36312 -0.14924
 N443 N 0.42920 0.37793 -0.14441
 N444 N 0.43983 0.40030 -0.11646
 C445 C 0.46399 0.40884 -0.09234
 N446 N 0.47679 0.39372 -0.09628
 N447 N 0.46606 0.37123 -0.12415
 C448 C 0.70629 0.12675 -0.29445
 N449 N 0.72388 0.15436 -0.29943
 N450 N 0.73588 0.16515 -0.34237
 C451 C 0.73050 0.14875 -0.38203
 N452 N 0.71321 0.12111 -0.37675
 N453 N 0.70149 0.11030 -0.33375
 C454 C 0.69032 0.11503 -0.24925
 N455 N 0.67539 0.08721 -0.24272
 N456 N 0.65826 0.07627 -0.20488
 C457 C 0.65520 0.09269 -0.17229
 N458 N 0.67043 0.12056 -0.17836
 N459 N 0.68776 0.13153 -0.21605
 C460 C 0.63350 0.08026 -0.13475
 N461 N 0.62525 0.09588 -0.11018
 N462 N 0.60308 0.08399 -0.08124
 C463 C 0.58848 0.05607 -0.07562
 N464 N 0.59717 0.04056 -0.09924
 N465 N 0.61921 0.05242 -0.12828
 C466 C 1.12701 0.44108 -0.34569
 N467 N 1.11261 0.43218 -0.38805
 N468 N 1.12452 0.42984 -0.42832
 C469 C 1.15133 0.43604 -0.42810
 N470 N 1.16558 0.44446 -0.38522
 N471 N 1.15371 0.44706 -0.34492
 C472 C 1.11398 0.44536 -0.30244
 N473 N 1.12928 0.46021 -0.26357
 N474 N 1.11743 0.46554 -0.22621
 C475 C 1.08982 0.45607 -0.22621
 N476 N 1.07456 0.44096 -0.26480
 N477 N 1.08640 0.43580 -0.30221
 C478 C 1.07663 0.46319 -0.18679
 N479 N 1.04878 0.45183 -0.18604
 N480 N 1.03667 0.45954 -0.15289
 C481 C 1.05192 0.47898 -0.11917
 N482 N 1.07979 0.49018 -0.11949
 N483 N 1.09191 0.48237 -0.15260
 C484 C 0.57459 0.69036 -0.33832
 N485 N 0.57719 0.68257 -0.38380
 N486 N 0.57704 0.69678 -0.42298
 C487 C 0.57436 0.71954 -0.41872
 N488 N 0.57255 0.72784 -0.37287
 N489 N 0.57254 0.71346 -0.33344
 C490 C 0.57153 0.67225 -0.29636
 N491 N 0.56590 0.67737 -0.25059
 N492 N 0.56042 0.65911 -0.21431
 C493 C 0.56031 0.63510 -0.22258
 N494 N 0.56636 0.63029 -0.26811
 N495 N 0.57188 0.64850 -0.30419
 C496 C 0.55122 0.61324 -0.18484
 N497 N 0.54558 0.58754 -0.19768
 N498 N 0.53480 0.56675 -0.16546
 C499 C 0.52950 0.57087 -0.11891
 N500 N 0.53563 0.59670 -0.10561
 N501 N 0.54623 0.61752 -0.13806
 C502 C 0.30898 -0.12267 -0.31628
 N503 N 0.28857 -0.14951 -0.31208
 N504 N 0.27502 -0.16380 -0.35163
 C505 C 0.28146 -0.15182 -0.39686
 N506 N 0.30145 -0.12484 -0.40062
 N507 N 0.31486 -0.11057 -0.36123
 C508 C 0.32654 -0.10748 -0.27436
 N509 N 0.34807 -0.08148 -0.28126
 N510 N 0.36602 -0.06841 -0.24544
 C511 C 0.36317 -0.08076 -0.20115
 N512 N 0.34135 -0.10661 -0.19379
 N513 N 0.32336 -0.11976 -0.22978
 C514 C 0.38505 -0.06723 -0.16410
 N515 N 0.38275 -0.07855 -0.11886
 N516 N 0.40390 -0.06744 -0.08754
 C517 C 0.42813 -0.04472 -0.10049
 N518 N 0.43023 -0.03326 -0.14542
 N519 N 0.40908 -0.04421 -0.17648
 C520 C 0.56989 -0.11835 0.33600
 N521 N 0.57471 -0.10716 0.38125
 N522 N 0.57475 -0.12154 0.42032
 C523 C 0.57003 -0.14775 0.41596
 N524 N 0.56580 -0.15879 0.37044
 N525 N 0.56569 -0.14437 0.33120
 C526 C 0.56684 -0.10318 0.29425
 N527 N 0.56031 -0.11427 0.24877
 N528 N 0.55510 -0.10128 0.21255
 C529 C 0.55614 -0.07681 0.22058
 N530 N 0.56302 -0.06563 0.26585
 N531 N 0.56831 -0.07852 0.30188
 C532 C 0.54747 -0.06370 0.18282
 N533 N 0.54284 -0.04295 0.19543
 N534 N 0.53248 -0.03255 0.16318
 C535 C 0.52661 -0.04226 0.11682
 N536 N 0.53173 -0.06267 0.10374
 N537 N 0.54191 -0.07326 0.13623
 C538 C 0.31256 0.43819 0.31759
 N539 N 0.29139 0.44341 0.31286
 N540 N 0.27752 0.44380 0.35218
 C541 C 0.28439 0.43912 0.39769
 N542 N 0.30523 0.43344 0.40202
 N543 N 0.31896 0.43292 0.36286
 C544 C 0.33008 0.44051 0.27567
 N545 N 0.35181 0.43645 0.28274
 N546 N 0.36954 0.44103 0.24671
 C547 C 0.36627 0.44983 0.20203
 N548 N 0.34427 0.45350 0.19455
 N549 N 0.32649 0.44893 0.23074
 C550 C 0.38783 0.45768 0.16453
 N551 N 0.38542 0.46651 0.11917
 N552 N 0.40633 0.47603 0.08739
 C553 C 0.43040 0.47714 0.09996
 N554 N 0.43258 0.46796 0.14500
 N555 N 0.41169 0.45831 0.17653
 C556 C 1.12850 0.68641 0.34062
 N557 N 1.11296 0.68423 0.38017
 N558 N 1.12465 0.69865 0.42047
 C559 C 1.15237 0.71605 0.42288
 N560 N 1.16788 0.71859 0.38292
 N561 N 1.15619 0.70402 0.34263
 C562 C 1.11552 0.66869 0.29773
 N563 N 1.13105 0.66695 0.26139
 N564 N 1.11913 0.64944 0.22445
 C565 C 1.09123 0.63309 0.22237
 N566 N 1.07575 0.63509 0.25843
 N567 N 1.08765 0.65248 0.29539
 C568 C 1.07786 0.61235 0.18356
 N569 N 1.04993 0.59655 0.18196
 N570 N 1.03764 0.57644 0.14930
 C571 C 1.05276 0.57127 0.11690
 N572 N 1.08072 0.58726 0.11804
 N573 N 1.09303 0.60746 0.15070
 C574 C 0.42128 0.13077 0.30910
 N575 N 0.40848 0.11408 0.34817
 N576 N 0.40746 0.12472 0.39092
 C577 C 0.41891 0.15246 0.39617
 N578 N 0.43112 0.16915 0.35672
 N579 N 0.43241 0.15851 0.31402
 C580 C 0.42544 0.11897 0.26428
 N581 N 0.44514 0.13521 0.23122
 N582 N 0.45123 0.12398 0.19397
 C583 C 0.43772 0.09611 0.18824
 N584 N 0.41764 0.07997 0.22070
 N585 N 0.41169 0.09117 0.25808
 C586 C 0.44655 0.08324 0.15116
 N587 N 0.43240 0.05539 0.14560
 N588 N 0.44205 0.04309 0.11681
 C589 C 0.46627 0.05814 0.09251
 N590 N 0.48020 0.08607 0.09726
 N591 N 0.47047 0.09840 0.12597
 C592 C 0.70577 0.57624 0.29423
 N593 N 0.70120 0.58819 0.33328
 N594 N 0.71269 0.58897 0.37646
 C595 C 0.72951 0.57814 0.38216
 N596 N 0.73466 0.56679 0.34275
 N597 N 0.72289 0.56573 0.29964
 C598 C 0.69009 0.57228 0.24876
 N599 N 0.68700 0.55285 0.21591
 N600 N 0.66994 0.54688 0.17790
 C601 C 0.65554 0.56029 0.17115
 N602 N 0.65914 0.58013 0.20340
 N603 N 0.67599 0.58592 0.24156
 C604 C 0.63408 0.55153 0.13323
 N605 N 0.62078 0.56596 0.12592
 N606 N 0.59888 0.55631 0.09659
 C607 C 0.58936 0.53180 0.07350
 N608 N 0.60299 0.51759 0.07996
 N609 N 0.62501 0.52733 0.10918
 C610 C 0.87308 0.29824 0.32458
 N611 N 0.88957 0.30034 0.36281
 N612 N 0.87876 0.28702 0.40476
 C613 C 0.85101 0.27081 0.41016
 N614 N 0.83450 0.26818 0.37149
 N615 N 0.84532 0.28172 0.32954
 C616 C 0.88523 0.31547 0.28042
 N617 N 0.86918 0.31875 0.24659
 N618 N 0.88060 0.33652 0.20930
 C619 C 0.90849 0.35156 0.20433
 N620 N 0.92446 0.34790 0.23772
 N621 N 0.91307 0.33028 0.27506
 C622 C 0.92147 0.37317 0.16618
 N623 N 0.94939 0.38796 0.16220
 N624 N 0.96152 0.40936 0.13132
 C625 C 0.94624 0.41685 0.10315
 N626 N 0.91828 0.40179 0.10647
 N627 N 0.90612 0.38031 0.13735
   
