data_POSCAR
  _audit_creation_date              2014-09-24
  _audit_creation_method            'ToBaCCo'
  _symmetry_space_group_name_H-M    'P1'
  _symmetry_Int_Tables_number       1
  _symmetry_cell_setting            triclinic
  loop_
  _symmetry_equiv_pos_as_xyz
 x,y,z
_cell_length_a 38.3964
_cell_length_b 37.8341
_cell_length_c 36.9910
_cell_angle_alpha 90.047700
_cell_angle_beta 90.024800
_cell_angle_gamma 90.446700
loop_
  _atom_site_label
  _atom_site_type_symbol
  _atom_site_fract_x
  _atom_site_fract_y
  _atom_site_fract_z
Si1 Si 0.25270 0.50130 1.00067
 Si2 Si 0.74882 0.50015 -0.00052
 Si3 Si 0.00138 0.24575 0.50205
 Si4 Si 0.99819 0.75233 0.49837
 Si5 Si 0.49790 0.00436 0.25118
 Si6 Si 0.49941 -0.00227 0.74828
 C7 C 0.30126 0.02779 0.45764
 H8 H 0.30236 0.04741 0.47892
 C9 C 0.32500 0.02930 0.42913
 H10 H 0.34445 0.05018 0.42834
 C11 C 0.27532 -0.02412 0.43325
 H12 H 0.25641 -0.04530 0.43536
 C13 C 0.29864 -0.02360 0.40423
 H14 H 0.29748 -0.04424 0.38394
 N15 N 0.27698 0.00145 0.45913
 C16 C 0.19554 0.04276 0.52903
 H17 H 0.19456 0.02212 0.54924
 C18 C 0.17218 0.07078 0.53065
 H19 H 0.15315 0.07185 0.55223
 C20 C 0.22070 0.06596 0.47540
 H21 H 0.23908 0.06356 0.45347
 C22 C 0.19775 0.09445 0.47600
 H23 H 0.19872 0.11406 0.45470
 Zn24 Zn 0.24774 0.00038 0.50026
 N25 N 0.21924 0.04089 0.50176
 C26 C 0.27679 0.02473 0.56670
 N27 N 0.27716 -0.00131 0.54128
 C28 C 0.30044 -0.02820 0.54301
 C29 C 0.32455 -0.02969 0.57122
 C30 C 0.30050 0.02424 0.59538
 C31 C 0.19360 -0.04038 0.47167
 C32 C 0.16896 -0.06766 0.47010
 C33 C 0.19376 -0.09222 0.52455
 C34 C 0.21798 -0.06445 0.52511
 N35 N 0.21751 -0.03930 0.49881
 H36 H 0.25873 0.04635 0.56438
 H37 H 0.30057 -0.04818 0.52207
 H38 H 0.34328 -0.05094 0.57213
 H39 H 0.30041 0.04532 0.61521
 H40 H 0.19343 -0.01968 0.45150
 H41 H 0.14981 -0.06811 0.44858
 H42 H 0.19399 -0.11193 0.54577
 H43 H 0.23661 -0.06267 0.54693
 C44 C 0.17321 0.09676 0.50381
 C45 C 0.32375 0.00331 0.40226
 C46 C 0.16896 -0.09372 0.49687
 C47 C 0.32468 -0.00312 0.59753
 C48 C 0.69730 0.02545 0.54085
 H49 H 0.69689 0.04560 0.52012
 C50 C 0.67290 0.02611 0.56880
 H51 H 0.65366 0.04689 0.56969
 C52 C 0.72196 -0.02709 0.56424
 H53 H 0.74057 -0.04823 0.56188
 C54 C 0.69796 -0.02743 0.59266
 H55 H 0.69832 -0.04868 0.61227
 N56 N 0.72121 -0.00085 0.53907
 C57 C 0.80390 0.04150 0.47054
 H58 H 0.80458 0.02119 0.44994
 C59 C 0.82797 0.06932 0.46968
 H60 H 0.84724 0.07052 0.44832
 C61 C 0.77892 0.06397 0.52443
 H62 H 0.76033 0.06131 0.54618
 C63 C 0.80259 0.09224 0.52460
 H64 H 0.80201 0.11142 0.54635
 Zn65 Zn 0.75090 -0.00125 0.49822
 N66 N 0.78001 0.03932 0.49761
 C67 C 0.72253 0.02394 0.43190
 N68 N 0.72180 -0.00246 0.45690
 C69 C 0.69824 -0.02941 0.45467
 C70 C 0.67406 -0.03052 0.42649
 C71 C 0.69875 0.02385 0.40326
 C72 C 0.80412 -0.04250 0.52672
 C73 C 0.82836 -0.06978 0.52804
 C74 C 0.80392 -0.09336 0.47275
 C75 C 0.78008 -0.06561 0.47246
 N76 N 0.78057 -0.04095 0.49929
 H77 H 0.74083 0.04560 0.43463
 H78 H 0.69782 -0.04968 0.47529
 H79 H 0.65498 -0.05174 0.42531
 H80 H 0.69898 0.04531 0.38389
 H81 H 0.80432 -0.02219 0.54732
 H82 H 0.84724 -0.07061 0.54979
 H83 H 0.80368 -0.11266 0.45110
 H84 H 0.76176 -0.06345 0.45042
 C85 C 0.82744 0.09479 0.49707
 C86 C 0.67310 -0.00067 0.59482
 C87 C 0.82835 -0.09534 0.50072
 C88 C 0.67417 -0.00352 0.40070
 C89 C 0.47141 0.20045 1.04213
 H90 H 0.45157 0.19912 1.02139
 C91 C 0.47024 0.17708 1.07128
 H92 H 0.44941 0.15769 1.07309
 C93 C 0.52350 0.22655 1.06455
 H94 H 0.54460 0.24533 1.06142
 C95 C 0.52333 0.20360 1.09415
 H96 H 0.54416 0.20495 1.11388
 N97 N 0.49767 0.22465 1.03936
 C98 C 0.45665 0.30663 0.96873
 H99 H 0.47646 0.30693 0.94794
 C100 C 0.42940 0.33082 0.96745
 H101 H 0.42810 0.34976 0.94555
 C102 C 0.43476 0.28247 1.02343
 H103 H 0.43738 0.26418 1.04564
 C104 C 0.40709 0.30624 1.02319
 H105 H 0.38830 0.30595 1.04503
 Zn106 Zn 0.49827 0.25341 0.99754
 N107 N 0.45879 0.28303 0.99637
 C108 C 0.47300 0.22321 0.93181
 N109 N 0.49875 0.22269 0.95712
 C110 C 0.52481 0.19857 0.95558
 C111 C 0.52583 0.17382 0.92759
 C112 C 0.47303 0.19888 0.90335
 C113 C 0.54006 0.30816 1.02404
 C114 C 0.56769 0.33233 1.02469
 C115 C 0.59035 0.30537 0.97040
 C116 C 0.56227 0.28164 0.97076
 N117 N 0.53794 0.28336 0.99745
 H118 H 0.45207 0.24199 0.93397
 H119 H 0.54460 0.19837 0.97641
 H120 H 0.54651 0.15452 0.92675
 H121 H 0.45227 0.19917 0.88352
 H122 H 0.52002 0.30930 1.04454
 H123 H 0.56906 0.35214 1.04583
 H124 H 0.60947 0.30408 0.94892
 H125 H 0.55968 0.26234 0.94938
 C126 C 0.40449 0.33071 0.99502
 C127 C 0.49650 0.17861 1.09746
 C128 C 0.59300 0.33097 0.99758
 C129 C 0.49965 0.17391 0.90131
 C130 C 0.47663 0.80196 -0.03936
 H131 H 0.45702 0.80265 -0.01837
 C132 C 0.47541 0.82610 -0.06784
 H133 H 0.45475 0.84540 -0.06890
 C134 C 0.52818 0.77670 -0.06304
 H135 H 0.54908 0.75791 -0.06067
 C136 C 0.52794 0.80042 -0.09201
 H137 H 0.54851 0.79965 -0.11203
 N138 N 0.50264 0.77781 -0.03754
 C139 C 0.46130 0.69409 0.03158
 H140 H 0.48139 0.69336 0.05208
 C141 C 0.43359 0.67001 0.03281
 H142 H 0.43222 0.65069 0.05438
 C143 C 0.43907 0.71939 -0.02228
 H144 H 0.44169 0.73815 -0.04412
 C145 C 0.41092 0.69575 -0.02207
 H146 H 0.39179 0.69656 -0.04358
 Zn147 Zn 0.50330 0.74801 0.00355
 N148 N 0.46347 0.71823 0.00441
 C149 C 0.47865 0.77683 0.06997
 N150 N 0.50438 0.77781 0.04466
 C151 C 0.53071 0.80202 0.04654
 C152 C 0.53190 0.82653 0.07475
 C153 C 0.47885 0.80092 0.09864
 C154 C 0.54449 0.69410 -0.02448
 C155 C 0.57175 0.66993 -0.02561
 C156 C 0.59468 0.69565 0.02939
 C157 C 0.56698 0.71939 0.02949
 N158 N 0.54265 0.71826 0.00271
 H159 H 0.45749 0.75800 0.06753
 H160 H 0.55046 0.80261 0.02570
 H161 H 0.55266 0.84608 0.07569
 H162 H 0.45796 0.80045 0.11832
 H163 H 0.52445 0.69339 -0.04504
 H164 H 0.57283 0.65057 -0.04717
 H165 H 0.61374 0.69642 0.05098
 H166 H 0.56461 0.73816 0.05134
 C167 C 0.40825 0.67078 0.00568
 C168 C 0.50135 0.82539 -0.09433
 C169 C 0.59699 0.67064 0.00165
 C170 C 0.50563 0.82610 0.10090
 C171 C 1.04254 0.47085 0.19380
 H172 H 1.02256 0.45055 0.19259
 C173 C 1.07048 0.47005 0.16969
 H174 H 1.07213 0.44904 0.14986
 C175 C 1.06435 0.52361 0.22045
 H176 H 1.06153 0.54480 0.23978
 C177 C 1.09273 0.52382 0.19679
 H178 H 1.11182 0.54501 0.19816
 N179 N 1.04009 0.49723 0.21868
 C180 C 0.97387 0.45402 0.30385
 H181 H 0.95390 0.47401 0.30485
 C182 C 0.97297 0.42580 0.32814
 H183 H 0.95223 0.42397 0.34792
 C184 C 1.02597 0.43250 0.27767
 H185 H 1.04697 0.43558 0.25850
 C186 C 1.02606 0.40386 0.30150
 H187 H 1.04699 0.38486 0.30043
 Zn188 Zn 1.00028 0.49704 0.24883
 N189 N 1.00000 0.45677 0.27915
 C190 C 0.93651 0.47049 0.21972
 N191 N 0.96081 0.49686 0.21821
 C192 C 0.95855 0.52327 0.19338
 C193 C 0.93074 0.52414 0.16909
 C194 C 0.90827 0.47036 0.19588
 C195 C 1.02596 0.54023 0.30426
 C196 C 1.02642 0.56846 0.32861
 C197 C 0.97342 0.58997 0.30141
 C198 C 0.97395 0.56134 0.27754
 N199 N 1.00010 0.53729 0.27926
 H200 H 0.93919 0.44928 0.23901
 H201 H 0.97854 0.54355 0.19240
 H202 H 0.92922 0.54518 0.14932
 H203 H 0.88914 0.44920 0.19706
 H204 H 1.04607 0.52039 0.30545
 H205 H 1.04698 0.57048 0.34858
 H206 H 0.95238 0.60884 0.30010
 H207 H 0.95315 0.55810 0.25814
 C208 C 0.99934 0.40055 0.32698
 C209 C 1.09576 0.49680 0.17118
 C210 C 0.99986 0.59350 0.32719
 C211 C 0.90540 0.49743 0.17036
 C212 C -0.04106 0.47482 0.80705
 H213 H -0.02115 0.45480 0.80864
 C214 C -0.06900 0.47418 0.83118
 H215 H -0.07071 0.45357 0.85143
 C216 C -0.06272 0.52676 0.77937
 H217 H -0.05983 0.54759 0.75965
 C218 C -0.09108 0.52711 0.80302
 H219 H -0.11009 0.54804 0.80125
 N220 N -0.03855 0.50071 0.78165
 C221 C 0.02738 0.45685 0.69719
 H222 H 0.04729 0.47719 0.69575
 C223 C 0.02832 0.42815 0.67350
 H224 H 0.04905 0.42628 0.65375
 C225 C -0.02459 0.43490 0.72396
 H226 H -0.04554 0.43799 0.74313
 C227 C -0.02464 0.40576 0.70071
 H228 H -0.04548 0.38635 0.70225
 Zn229 Zn 0.00114 0.50051 0.75138
 N230 N 0.00132 0.45961 0.72192
 C231 C 0.06494 0.47557 0.78084
 N232 N 0.04076 0.50170 0.78181
 C233 C 0.04319 0.52868 0.80605
 C234 C 0.07101 0.53036 0.83032
 C235 C 0.09319 0.47625 0.80466
 C236 C -0.02506 0.54163 0.69512
 C237 C -0.02609 0.56934 0.67027
 C238 C 0.02668 0.59310 0.69678
 C239 C 0.02672 0.56493 0.72119
 N240 N 0.00094 0.54003 0.72007
 H241 H 0.06212 0.45389 0.76204
 H242 H 0.02328 0.54875 0.80665
 H243 H 0.07264 0.55183 0.84966
 H244 H 0.11219 0.45524 0.80394
 H245 H -0.04487 0.52115 0.69446
 H246 H -0.04679 0.57032 0.65040
 H247 H 0.04739 0.61270 0.69765
 H248 H 0.04762 0.56276 0.74058
 C249 C 0.00204 0.40243 0.67525
 C250 C -0.09419 0.50059 0.82915
 C251 C 0.00004 0.59528 0.67110
 C252 C 0.09620 0.50388 0.82963
 C253 C 0.09866 0.17301 0.50419
 C254 C 0.08984 0.19076 0.47230
 C255 C 0.06141 0.21364 0.47179
 C256 C 0.04164 0.21888 0.50318
 C257 C 0.05101 0.20165 0.53525
 C258 C 0.07942 0.17880 0.53575
 C259 C 0.12593 0.14716 0.50403
 C260 C 0.14793 0.12462 0.50392
 H261 H 0.10439 0.18626 0.44766
 H262 H 0.05436 0.22634 0.44666
 H263 H 0.03582 0.20518 0.55963
 H264 H 0.08586 0.16503 0.56051
 C265 C 0.67225 0.59506 0.00243
 C266 C 0.69625 0.59232 -0.02591
 C267 C 0.71999 0.56447 -0.02657
 C268 C 0.71996 0.53926 0.00123
 C269 C 0.69603 0.54226 0.02967
 C270 C 0.67234 0.57009 0.03033
 C271 C 0.64648 0.62246 0.00214
 C272 C 0.62424 0.64477 0.00190
 H273 H 0.69620 0.61133 -0.04780
 H274 H 0.73771 0.56233 -0.04916
 H275 H 0.69536 0.52276 0.05109
 H276 H 0.65373 0.57180 0.05226
 C277 C 0.90418 -0.17041 0.50086
 C278 C 0.92883 -0.17020 0.52876
 C279 C 0.95650 -0.19397 0.52814
 C280 C 0.95966 -0.21829 0.49973
 C281 C 0.93486 -0.21855 0.47186
 C282 C 0.90717 -0.19473 0.47248
 C283 C 0.87673 -0.14472 0.50073
 C284 C 0.85434 -0.12256 0.50069
 H285 H 0.92694 -0.15135 0.55073
 H286 H 0.97566 -0.19312 0.54962
 H287 H 0.93711 -0.23658 0.44931
 H288 H 0.88841 -0.19492 0.45059
 C289 C 0.32948 0.40658 0.99582
 C290 C 0.32945 0.43219 0.96852
 C291 C 0.30576 0.46001 0.96980
 C292 C 0.28178 0.46237 0.99826
 C293 C 0.28172 0.43656 1.02547
 C294 C 0.30546 0.40872 1.02420
 C295 C 0.35518 0.37911 0.99544
 C296 C 0.37734 0.35671 0.99519
 H297 H 0.34808 0.43095 0.94657
 H298 H 0.30645 0.47996 0.94882
 H299 H 0.26394 0.43819 1.04806
 H300 H 0.30546 0.38922 1.04563
 C301 C 0.90584 0.16818 0.49964
 C302 C 0.93976 0.15508 0.50114
 C303 C 0.96817 0.17829 0.50187
 C304 C 0.96305 0.21498 0.50128
 C305 C 0.92894 0.22804 0.49950
 C306 C 0.90043 0.20473 0.49876
 C307 C 0.87695 0.14372 0.49876
 C308 C 0.85381 0.12201 0.49800
 H309 H 0.94426 0.12684 0.50166
 H310 H 0.99403 0.16726 0.50276
 H311 H 0.92438 0.25622 0.49842
 H312 H 0.87428 0.21519 0.49738
 C313 C 0.33134 0.59566 0.00527
 C314 C 0.33070 0.57023 0.03274
 C315 C 0.30640 0.54258 0.03159
 C316 C 0.28241 0.54021 0.00309
 C317 C 0.28291 0.56587 -0.02426
 C318 C 0.30726 0.59355 -0.02312
 C319 C 0.35772 0.62289 0.00547
 C320 C 0.38044 0.64506 0.00559
 H321 H 0.34936 0.57145 0.05470
 H322 H 0.30666 0.52273 0.05267
 H323 H 0.26513 0.56423 -0.04688
 H324 H 0.30772 0.61291 -0.04468
 C325 C 0.09235 -0.16913 0.49627
 C326 C 0.06773 -0.16917 0.46834
 C327 C 0.03995 -0.19325 0.46888
 C328 C 0.03668 -0.21763 0.49723
 C329 C 0.06142 -0.21758 0.52515
 C330 C 0.08921 -0.19346 0.52461
 C331 C 0.12000 -0.14325 0.49647
 C332 C 0.14263 -0.12099 0.49665
 H333 H 0.06975 -0.15030 0.44641
 H334 H 0.02083 -0.19264 0.44736
 H335 H 0.05909 -0.23563 0.54767
 H336 H 0.10794 -0.19346 0.54652
 C337 C 0.66995 0.40598 0.99640
 C338 C 0.67062 0.43098 0.96853
 C339 C 0.69497 0.45860 0.96924
 C340 C 0.71896 0.46136 0.99770
 C341 C 0.71840 0.43613 1.02547
 C342 C 0.69401 0.40849 1.02477
 C343 C 0.64354 0.37880 0.99667
 C344 C 0.62081 0.35666 0.99702
 H345 H 0.65197 0.42945 0.94658
 H346 H 0.69476 0.47813 0.94783
 H347 H 0.73616 0.43808 1.04808
 H348 H 0.69351 0.38946 1.04664
 C349 C 0.49581 0.10355 1.17659
 C350 C 0.46740 0.08020 1.17788
 C351 C 0.46786 0.05134 1.20136
 C352 C 0.49684 0.04537 1.22355
 C353 C 0.52469 0.06960 1.22330
 C354 C 0.52425 0.09852 1.19972
 C355 C 0.49644 0.13122 1.14994
 C356 C 0.49663 0.15335 1.12651
 H357 H 0.44527 0.08381 1.16012
 H358 H 0.44602 0.03303 1.20139
 H359 H 0.54705 0.06591 1.24059
 H360 H 0.54635 0.11648 1.19898
 C361 C 0.00053 0.67280 0.59445
 C362 C 0.02744 0.67351 0.56895
 C363 C 0.02691 0.69808 0.54081
 C364 C -0.00041 0.72231 0.53802
 C365 C -0.02725 0.72172 0.56375
 C366 C -0.02672 0.69708 0.59192
 C367 C 0.00026 0.64619 0.62220
 C368 C 0.00013 0.62327 0.64481
 H369 H 0.04853 0.65470 0.57049
 H370 H 0.04759 0.69786 0.52089
 H371 H -0.04894 0.73965 0.56177
 H372 H -0.04783 0.69656 0.61135
 C373 C 0.49972 0.90140 -0.17258
 C374 C 0.52607 0.90475 -0.19854
 C375 C 0.52573 0.93299 -0.22297
 C376 C 0.49922 0.95832 -0.22138
 C377 C 0.47237 0.95414 -0.19599
 C378 C 0.47268 0.92594 -0.17166
 C379 C 0.50079 0.87364 -0.14602
 C380 C 0.50126 0.85121 -0.12289
 H381 H 0.54703 0.88578 -0.19966
 H382 H 0.54631 0.93496 -0.24278
 H383 H 0.45114 0.97264 -0.19475
 H384 H 0.45202 0.92351 -0.15185
 C385 C 1.00177 0.32318 0.40372
 C386 C 0.97556 0.29739 0.40649
 C387 C 0.97579 0.27333 0.43522
 C388 C 1.00205 0.27515 0.46161
 C389 C 1.02886 0.30029 0.45790
 C390 C 1.02866 0.32425 0.42922
 C391 C 1.00058 0.34949 0.37569
 C392 C 0.99988 0.37238 0.35307
 H393 H 0.95472 0.29617 0.38676
 H394 H 0.95527 0.25371 0.43679
 H395 H 1.04988 0.30173 0.47726
 H396 H 1.04921 0.34394 0.42723
 C397 C 0.50334 0.90648 0.17441
 C398 C 0.50213 0.90163 0.21194
 C399 C 0.50068 0.93100 0.23497
 C400 C 0.50005 0.96531 0.22060
 C401 C 0.50200 0.96992 0.18302
 C402 C 0.50347 0.94068 0.16009
 C403 C 0.50431 0.87678 0.15012
 C404 C 0.50497 0.85306 0.12835
 H405 H 0.50222 0.87527 0.22333
 H406 H 0.49981 0.92696 0.26394
 H407 H 0.50253 0.99597 0.17111
 H408 H 0.50470 0.94476 0.13113
 C409 C 0.00220 0.32300 0.60057
 C410 C 0.03264 0.31695 0.58083
 C411 C 0.03242 0.29278 0.55228
 C412 C 0.00169 0.27464 0.54291
 C413 C -0.02839 0.27968 0.56379
 C414 C -0.02818 0.30393 0.59237
 C415 C 0.00185 0.35006 0.62791
 C416 C 0.00182 0.37355 0.64993
 H417 H 0.05638 0.33136 0.58709
 H418 H 0.05627 0.28852 0.53740
 H419 H -0.05224 0.26558 0.55784
 H420 H -0.05186 0.30828 0.60761
 C421 C 0.49866 0.09641 0.82444
 C422 C 0.52856 0.08881 0.80433
 C423 C 0.52874 0.05996 0.78063
 C424 C 0.49915 0.03818 0.77718
 C425 C 0.46886 0.04679 0.79641
 C426 C 0.46866 0.07562 0.82004
 C427 C 0.49908 0.12456 0.85063
 C428 C 0.49935 0.14743 0.87335
 H429 H 0.55187 0.10486 0.80734
 H430 H 0.55219 0.05467 0.76558
 H431 H 0.44528 0.03129 0.79324
 H432 H 0.44526 0.08142 0.83520
 C433 C 0.99728 0.67224 0.40262
 C434 C 0.96995 0.67267 0.42764
 C435 C 0.96992 0.69754 0.45557
 C436 C 0.99711 0.72232 0.45862
 C437 C 1.02429 0.72208 0.43329
 C438 C 1.02433 0.69716 0.40534
 C439 C 0.99828 0.64519 0.37529
 C440 C 0.99906 0.62191 0.35304
 H441 H 0.94901 0.65337 0.42596
 H442 H 0.94899 0.69704 0.47520
 H443 H 1.04591 0.74044 0.43549
 H444 H 1.04575 0.69687 0.38629
 C445 C 1.17372 0.49719 0.09619
 C446 C 1.17429 0.47023 0.07026
 C447 C 1.19879 0.47118 0.04238
 C448 C 1.22307 0.49897 0.04027
 C449 C 1.22270 0.52578 0.06649
 C450 C 1.19813 0.52484 0.09441
 C451 C 1.14702 0.49720 0.12347
 C452 C 1.12397 0.49709 0.14559
 H453 H 1.15538 0.44884 0.07122
 H454 H 1.19841 0.45053 0.02208
 H455 H 1.24070 0.54785 0.06503
 H456 H 1.19773 0.54599 0.11416
 C457 C 0.59457 -0.00278 0.66916
 C458 C 0.56054 -0.00254 0.65565
 C459 C 0.53223 -0.00259 0.67930
 C460 C 0.53755 -0.00271 0.71686
 C461 C 0.57176 -0.00340 0.73031
 C462 C 0.60016 -0.00334 0.70657
 C463 C 0.62339 -0.00224 0.64428
 C464 C 0.64657 -0.00161 0.62229
 H465 H 0.55589 -0.00224 0.62676
 H466 H 0.50629 -0.00253 0.66796
 H467 H 0.57648 -0.00399 0.75917
 H468 H 0.62639 -0.00368 0.71736
 C469 C -0.17219 0.50233 0.90400
 C470 C -0.17265 0.52973 0.92943
 C471 C -0.19718 0.52937 0.95729
 C472 C -0.22159 0.50172 0.95985
 C473 C -0.22132 0.47448 0.93411
 C474 C -0.19673 0.47483 0.90622
 C475 C -0.14544 0.50166 0.87681
 C476 C -0.12237 0.50114 0.85474
 H477 H -0.15364 0.55100 0.92812
 H478 H -0.19673 0.55035 0.97723
 H479 H -0.23942 0.45252 0.93594
 H480 H -0.19640 0.45334 0.88685
 C481 C 0.39945 0.00500 0.32490
 C482 C 0.40486 -0.02357 0.30150
 C483 C 0.43367 -0.02362 0.27834
 C484 C 0.45742 0.00475 0.27875
 C485 C 0.45114 0.03386 0.30125
 C486 C 0.42238 0.03392 0.32434
 C487 C 0.37165 0.00402 0.35095
 C488 C 0.34931 0.00352 0.37384
 H489 H 0.38721 -0.04605 0.30166
 H490 H 0.43757 -0.04606 0.26075
 H491 H 0.46905 0.05612 0.30169
 H492 H 0.41847 0.05616 0.34231
 C493 C 0.17393 0.50502 0.90493
 C494 C 0.19796 0.47742 0.90688
 C495 C 0.22248 0.47663 0.93484
 C496 C 0.22320 0.50354 0.96095
 C497 C 0.19932 0.53131 0.95867
 C498 C 0.17485 0.53210 0.93073
 C499 C 0.14724 0.50473 0.87763
 C500 C 0.12425 0.50439 0.85542
 H501 H 0.19728 0.45617 0.88724
 H502 H 0.24014 0.45458 0.93644
 H503 H 0.19921 0.55203 0.97889
 H504 H 0.15623 0.55345 0.92964
 C505 C 0.59462 -0.00071 0.32760
 C506 C 0.59927 0.00075 0.29006
 C507 C 0.57026 0.00220 0.26714
 C508 C 0.53648 0.00257 0.28163
 C509 C 0.53207 0.00047 0.31923
 C510 C 0.56097 -0.00101 0.34204
 C511 C 0.62399 -0.00184 0.35176
 C512 C 0.64746 -0.00267 0.37340
 H513 H 0.62521 0.00078 0.27857
 H514 H 0.57415 0.00317 0.23817
 H515 H 0.50643 -0.00026 0.33122
 H516 H 0.55704 -0.00242 0.37102
 C517 C 0.82762 0.49680 0.09516
 C518 C 0.80382 0.52459 0.09296
 C519 C 0.77929 0.52533 0.06499
 C520 C 0.77837 0.49819 0.03914
 C521 C 0.80205 0.47027 0.04167
 C522 C 0.82650 0.46952 0.06961
 C523 C 0.85429 0.49704 0.12247
 C524 C 0.87729 0.49721 0.14465
 H525 H 0.80466 0.54600 0.11242
 H526 H 0.76177 0.54749 0.06319
 H527 H 0.80199 0.44935 0.02165
 H528 H 0.84494 0.44802 0.07089
 C529 C 0.40127 -0.00210 0.67410
 C530 C 0.41052 -0.03304 0.69239
 C531 C 0.43926 -0.03300 0.71563
 C532 C 0.45894 -0.00200 0.72071
 C533 C 0.44921 0.02909 0.70287
 C534 C 0.42048 0.02904 0.67967
 C535 C 0.37340 -0.00267 0.64807
 C536 C 0.35080 -0.00299 0.62544
 H537 H 0.39599 -0.05734 0.68808
 H538 H 0.44659 -0.05738 0.72877
 H539 H 0.46431 0.05316 0.70625
 H540 H 0.41370 0.05308 0.66550
   
