data_POSCAR
  _audit_creation_date              2014-09-24
  _audit_creation_method            'ToBaCCo'
  _symmetry_space_group_name_H-M    'P1'
  _symmetry_Int_Tables_number       1
  _symmetry_cell_setting            triclinic
  loop_
  _symmetry_equiv_pos_as_xyz
 x,y,z
_cell_length_a 46.0895
_cell_length_b 44.8370
_cell_length_c 8.7783
_cell_angle_alpha 90.354800
_cell_angle_beta 89.999100
_cell_angle_gamma 90.058300
loop_
  _atom_site_label
  _atom_site_type_symbol
  _atom_site_fract_x
  _atom_site_fract_y
  _atom_site_fract_z
O1 O 0.28183 0.22046 0.15540
 O2 O 0.22639 0.27830 0.09600
 O3 O 0.28185 0.27842 0.15534
 O4 O 0.22634 0.22035 0.09674
 O5 O 0.21730 0.22069 0.34315
 O6 O 0.27277 0.27877 0.40196
 O7 O 0.21731 0.27866 0.34262
 O8 O 0.27278 0.22082 0.40205
 Cu9 Cu 0.25508 0.24935 0.10155
 Cu10 Cu 0.24406 0.24977 0.39676
 C11 C 0.28696 0.21086 0.28854
 C12 C 0.21220 0.28827 0.20946
 C13 C 0.28697 0.28842 0.28837
 C14 C 0.21210 0.21065 0.21017
 O15 O 0.71820 0.27909 0.15515
 O16 O 0.77360 0.22106 0.09636
 O17 O 0.71814 0.22113 0.15563
 O18 O 0.77368 0.27900 0.09649
 O19 O 0.78273 0.27935 0.34290
 O20 O 0.72721 0.22146 0.40225
 O21 O 0.78268 0.22138 0.34298
 O22 O 0.72725 0.27941 0.40180
 Cu23 Cu 0.74493 0.25004 0.10160
 Cu24 Cu 0.75595 0.25044 0.39681
 C25 C 0.71308 0.28906 0.28820
 C26 C 0.78778 0.21140 0.20991
 C27 C 0.71302 0.21150 0.28874
 C28 C 0.78794 0.28901 0.20983
 O29 O 0.78259 0.72138 0.65775
 O30 O 0.72732 0.77938 0.59745
 O31 O 0.78282 0.77934 0.65641
 O32 O 0.72714 0.72143 0.59857
 O33 O 0.71807 0.72193 0.84519
 O34 O 0.77378 0.77983 0.90282
 O35 O 0.71828 0.77989 0.84411
 O36 O 0.77352 0.72188 0.90437
 Cu37 Cu 0.75595 0.75034 0.60322
 Cu38 Cu 0.74494 0.75095 0.89843
 C39 C 0.78766 0.71180 0.79101
 C40 C 0.71317 0.78944 0.71085
 C41 C 0.78807 0.78941 0.78927
 C42 C 0.71293 0.71188 0.71228
 O43 O 0.28180 0.77952 0.84401
 O44 O 0.22641 0.72154 0.90417
 O45 O 0.28186 0.72156 0.84516
 O46 O 0.22631 0.77948 0.90292
 O47 O 0.21725 0.77902 0.65652
 O48 O 0.27279 0.72108 0.59853
 O49 O 0.21734 0.72105 0.65754
 O50 O 0.27275 0.77903 0.59736
 Cu51 Cu 0.25507 0.75059 0.89838
 Cu52 Cu 0.24406 0.75000 0.60317
 C53 C 0.28692 0.78907 0.71074
 C54 C 0.21224 0.71147 0.79078
 C55 C 0.28698 0.71151 0.71226
 C56 C 0.21204 0.78909 0.78942
 C57 C 1.02687 0.06191 0.05524
 C58 C 1.00050 0.07703 0.06826
 C59 C 0.97409 0.06194 0.05482
 C60 C 0.97377 0.03085 0.02749
 C61 C 1.00042 0.01523 0.01404
 C62 C 1.02711 0.03081 0.02795
 C63 C 1.05327 0.01490 0.01431
 C64 C 1.05323 -0.01574 -0.01258
 C65 C 1.02703 -0.03162 -0.02679
 C66 C 1.00038 -0.01601 -0.01326
 C67 C 0.94757 0.01497 0.01337
 C68 C 0.94753 -0.01568 -0.01353
 C69 C 0.97369 -0.03159 -0.02725
 C70 C 0.97393 -0.06267 -0.05477
 C71 C 1.00029 -0.07780 -0.06789
 C72 C 1.02670 -0.06271 -0.05438
 H73 H 1.07404 0.02604 0.02428
 H74 H 1.07397 -0.02691 -0.02216
 H75 H 0.92683 0.02613 0.02299
 H76 H 0.92676 -0.02681 -0.02348
 H77 H 1.00053 0.10091 0.08951
 H78 H 1.00026 -0.10167 -0.08940
 C79 C 0.52629 0.56246 0.55662
 C80 C 0.49990 0.57750 0.57064
 C81 C 0.47352 0.56236 0.55699
 C82 C 0.47325 0.53131 0.52849
 C83 C 0.49993 0.51578 0.51402
 C84 C 0.52659 0.53141 0.52807
 C85 C 0.55278 0.51558 0.51335
 C86 C 0.55279 0.48497 0.48547
 C87 C 0.52662 0.46904 0.47128
 C88 C 0.49994 0.48457 0.48565
 C89 C 0.44708 0.51538 0.51422
 C90 C 0.44710 0.48477 0.48626
 C91 C 0.47328 0.46894 0.47163
 C92 C 0.47358 0.43788 0.44327
 C93 C 0.49998 0.42284 0.42938
 C94 C 0.52636 0.43798 0.44301
 H95 H 0.57353 0.52676 0.52331
 H96 H 0.57356 0.47387 0.47515
 H97 H 0.42632 0.52648 0.52456
 H98 H 0.42634 0.47360 0.47623
 H99 H 0.49988 0.60134 0.59282
 H100 H 0.49999 0.39898 0.40739
 C101 C -0.02686 0.43739 0.05297
 C102 C -0.00049 0.42229 0.06567
 C103 C 0.02592 0.43736 0.05259
 C104 C 0.02624 0.46841 0.02590
 C105 C -0.00041 0.48400 0.01278
 C106 C -0.02710 0.46844 0.02629
 C107 C -0.05326 0.48433 0.01295
 C108 C -0.05322 0.51494 -0.01308
 C109 C -0.02702 0.53081 -0.02668
 C110 C -0.00037 0.51521 -0.01361
 C111 C 0.05244 0.48427 0.01221
 C112 C 0.05248 0.51488 -0.01380
 C113 C 0.02632 0.53077 -0.02701
 C114 C 0.02608 0.56183 -0.05339
 C115 C -0.00029 0.57694 -0.06605
 C116 C -0.02670 0.56186 -0.05314
 H117 H -0.07403 0.47320 0.02249
 H118 H -0.07396 0.52609 -0.02244
 H119 H 0.07318 0.47312 0.02155
 H120 H 0.07325 0.52601 -0.02339
 H121 H -0.00052 0.39845 0.08654
 H122 H -0.00025 0.60079 -0.08667
 C123 C 0.47371 0.93795 0.55497
 C124 C 0.50010 0.92292 0.56844
 C125 C 0.52649 0.93804 0.55521
 C126 C 0.52675 0.96906 0.52775
 C127 C 0.50008 0.98458 0.51386
 C128 C 0.47342 0.96897 0.52749
 C129 C 0.44723 0.98479 0.51336
 C130 C 0.44722 1.01537 0.48634
 C131 C 0.47339 1.03127 0.47245
 C132 C 0.50006 1.01575 0.48639
 C133 C 0.55293 0.98497 0.51392
 C134 C 0.55291 1.01554 0.48685
 C135 C 0.52673 1.03136 0.47269
 C136 C 0.52643 1.06237 0.44505
 C137 C 0.50004 1.07740 0.43156
 C138 C 0.47365 1.06229 0.44485
 H139 H 0.42648 0.97363 0.52306
 H140 H 0.42645 1.02645 0.47640
 H141 H 0.57369 0.97388 0.52391
 H142 H 0.57367 1.02670 0.47712
 H143 H 0.50011 0.89910 0.58983
 H144 H 0.50003 1.10122 0.41003
 C145 C 1.15147 0.15810 0.29135
 C146 C 1.14470 0.14790 0.14476
 C147 C 1.16089 0.15783 0.02014
 C148 C 1.18353 0.17823 0.04163
 C149 C 1.19025 0.18912 0.18862
 C150 C 1.17404 0.17850 0.31342
 C151 C 1.12043 0.12815 0.12219
 C152 C 1.09964 0.11215 0.10489
 C153 C 1.07482 0.09405 0.08627
 C154 C 1.05322 0.07912 0.07156
 H155 H 1.13903 0.15059 0.38860
 H156 H 1.15579 0.15010 -0.09395
 H157 H 1.19544 0.18574 -0.05739
 H158 H 1.17847 0.18619 0.42832
 C159 C 0.65131 0.65823 0.79343
 C160 C 0.64419 0.64836 0.64661
 C161 C 0.66010 0.65855 0.52147
 C162 C 0.68282 0.67885 0.54282
 C163 C 0.68985 0.68927 0.68985
 C164 C 0.67399 0.67853 0.81508
 C165 C 0.61985 0.62868 0.62434
 C166 C 0.59903 0.61272 0.60704
 C167 C 0.57420 0.59464 0.58823
 C168 C 0.55262 0.57970 0.57327
 H169 H 0.63909 0.65053 0.89106
 H170 H 0.65470 0.65111 0.40725
 H171 H 0.69459 0.68670 0.44407
 H172 H 0.67885 0.68607 0.92971
 C173 C -0.16086 0.34131 0.01930
 C174 C -0.14466 0.35158 0.14379
 C175 C -0.15141 0.34177 0.29048
 C176 C -0.17398 0.32143 0.31275
 C177 C -0.19020 0.31047 0.18808
 C178 C -0.18349 0.32096 0.04100
 C179 C -0.12039 0.37128 0.12097
 C180 C -0.09962 0.38725 0.10336
 C181 C -0.07481 0.40531 0.08437
 C182 C -0.05322 0.42021 0.06942
 H183 H -0.15577 0.34873 -0.09486
 H184 H -0.13896 0.34955 0.38765
 H185 H -0.17840 0.31405 0.42773
 H186 H -0.19541 0.31319 -0.05793
 C187 C 0.34837 0.84319 0.79053
 C188 C 0.35566 0.85238 0.64340
 C189 C 0.33988 0.84161 0.51837
 C190 C 0.31714 0.82139 0.54019
 C191 C 0.30996 0.81164 0.68759
 C192 C 0.32568 0.82298 0.81265
 C193 C 0.38004 0.87196 0.62089
 C194 C 0.40089 0.88784 0.60374
 C195 C 0.42576 0.90584 0.58540
 C196 C 0.44737 0.92073 0.57097
 H197 H 0.36049 0.85133 0.88808
 H198 H 0.34540 0.84852 0.40391
 H199 H 0.30549 0.81307 0.44155
 H200 H 0.32072 0.81595 0.92755
 C201 C -0.15989 0.65885 -0.01658
 C202 C -0.14415 0.64801 -0.14152
 C203 C -0.15127 0.65735 -0.28863
 C204 C -0.17376 0.67774 -0.31081
 C205 C -0.18945 0.68912 -0.18582
 C206 C -0.18243 0.67925 -0.03845
 C207 C -0.11997 0.62823 -0.11890
 C208 C -0.09927 0.61220 -0.10165
 C209 C -0.07454 0.59405 -0.08326
 C210 C -0.05301 0.57909 -0.06890
 H211 H -0.15450 0.65183 0.09787
 H212 H -0.13918 0.64916 -0.38612
 H213 H -0.17861 0.68486 -0.42569
 H214 H -0.19407 0.68760 0.06011
 C215 C 0.33981 1.15823 0.48022
 C216 C 0.35564 1.14759 0.35515
 C217 C 0.34842 1.15692 0.20816
 C218 C 0.32575 1.17712 0.18624
 C219 C 0.30998 1.18831 0.31139
 C220 C 0.31709 1.17843 0.45862
 C221 C 0.38000 1.12805 0.37758
 C222 C 0.40083 1.11220 0.39489
 C223 C 0.42569 1.09425 0.41359
 C224 C 0.44730 1.07942 0.42839
 H225 H 0.34526 1.15121 0.59457
 H226 H 0.36058 1.14888 0.11056
 H227 H 0.32084 1.18424 0.07146
 H228 H 0.30539 1.18664 0.55731
 C229 C 1.15125 -0.15868 -0.29180
 C230 C 1.14451 -0.14846 -0.14522
 C231 C 1.16077 -0.15827 -0.02067
 C232 C 1.18345 -0.17856 -0.04219
 C233 C 1.19015 -0.18948 -0.18913
 C234 C 1.17388 -0.17898 -0.31389
 C235 C 1.12020 -0.12881 -0.12252
 C236 C 1.09941 -0.11288 -0.10492
 C237 C 1.07459 -0.09483 -0.08590
 C238 C 1.05302 -0.07993 -0.07089
 H239 H 1.13876 -0.15126 -0.38900
 H240 H 1.15568 -0.15052 0.09339
 H241 H 1.19541 -0.18598 0.05681
 H242 H 1.17830 -0.18669 -0.42876
 C243 C 0.65167 0.34283 0.20730
 C244 C 0.64440 0.35249 0.35424
 C245 C 0.66017 0.34215 0.47947
 C246 C 0.68290 0.32189 0.45805
 C247 C 0.69006 0.31167 0.31086
 C248 C 0.67434 0.32258 0.18558
 C249 C 0.62003 0.37208 0.37644
 C250 C 0.59919 0.38797 0.39349
 C251 C 0.57432 0.40596 0.41191
 C252 C 0.55271 0.42081 0.42656
 H253 H 0.63955 0.35064 0.10959
 H254 H 0.65467 0.34943 0.59379
 H255 H 0.69455 0.31392 0.55684
 H256 H 0.67930 0.31518 0.07083
 C257 C 0.84900 -0.15843 -0.29229
 C258 C 0.85580 -0.14821 -0.14576
 C259 C 0.83952 -0.15798 -0.02113
 C260 C 0.81677 -0.17824 -0.04250
 C261 C 0.81002 -0.18916 -0.18939
 C262 C 0.82630 -0.17869 -0.31424
 C263 C 0.88019 -0.12861 -0.12319
 C264 C 0.90105 -0.11272 -0.10565
 C265 C 0.92594 -0.09473 -0.08661
 C266 C 0.94756 -0.07986 -0.07151
 H267 H 0.86150 -0.15103 -0.38957
 H268 H 0.84465 -0.15023 0.09290
 H269 H 0.80480 -0.18564 0.05656
 H270 H 0.82184 -0.18640 -0.42908
 C271 C 0.34844 0.34226 0.20764
 C272 C 0.35564 0.35200 0.35457
 C273 C 0.33980 0.34168 0.47972
 C274 C 0.31709 0.32137 0.45823
 C275 C 0.30999 0.31107 0.31107
 C276 C 0.32577 0.32195 0.18586
 C277 C 0.37999 0.37167 0.37684
 C278 C 0.40081 0.38762 0.39394
 C279 C 0.42566 0.40569 0.41237
 C280 C 0.44725 0.42063 0.42697
 H281 H 0.36060 0.35005 0.10999
 H282 H 0.34526 0.34902 0.59402
 H283 H 0.30539 0.31341 0.55696
 H284 H 0.32087 0.31450 0.07113
 C285 C 0.15962 0.65856 -0.01697
 C286 C 0.14384 0.64778 -0.14195
 C287 C 0.15099 0.65712 -0.28902
 C288 C 0.17355 0.67748 -0.31113
 C289 C 0.18929 0.68882 -0.18611
 C290 C 0.18224 0.67893 -0.03878
 C291 C 0.11958 0.62805 -0.11941
 C292 C 0.09882 0.61206 -0.10221
 C293 C 0.07402 0.59396 -0.08378
 C294 C 0.05244 0.57903 -0.06931
 H295 H 0.15421 0.65154 0.09745
 H296 H 0.13886 0.64897 -0.38653
 H297 H 0.17842 0.68461 -0.42597
 H298 H 0.19390 0.68724 0.05982
 C299 C 0.66022 1.15871 0.48047
 C300 C 0.64434 1.14808 0.35546
 C301 C 0.65150 1.15749 0.20849
 C302 C 0.67415 1.17775 0.18653
 C303 C 0.68998 1.18892 0.31161
 C304 C 0.68292 1.17898 0.45882
 C305 C 0.62001 1.12845 0.37792
 C306 C 0.59920 1.11253 0.39522
 C307 C 0.57436 1.09449 0.41391
 C308 C 0.55277 1.07959 0.42869
 H309 H 0.65480 1.15164 0.59482
 H310 H 0.63931 1.14946 0.11095
 H311 H 0.67902 1.18493 0.07177
 H312 H 0.69465 1.18716 0.55746
 C313 C 0.15954 0.34104 0.01741
 C314 C 0.14366 0.35167 0.14231
 C315 C 0.15076 0.34227 0.28935
 C316 C 0.17338 0.32202 0.31146
 C317 C 0.18921 0.31084 0.18648
 C318 C 0.18220 0.32078 0.03922
 C319 C 0.11937 0.37130 0.11965
 C320 C 0.09859 0.38722 0.10219
 C321 C 0.07380 0.40526 0.08342
 C322 C 0.05223 0.42016 0.06870
 H323 H 0.15417 0.34811 -0.09697
 H324 H 0.13856 0.35030 0.38680
 H325 H 0.17821 0.31484 0.42626
 H326 H 0.19395 0.31259 -0.05934
 C327 C 0.66031 0.84199 0.51866
 C328 C 0.64455 0.85275 0.64373
 C329 C 0.65184 0.84356 0.79083
 C330 C 0.67450 0.82335 0.81287
 C331 C 0.69019 0.81202 0.68776
 C332 C 0.68302 0.82178 0.54040
 C333 C 0.62018 0.87229 0.62131
 C334 C 0.59934 0.88813 0.60420
 C335 C 0.57446 0.90607 0.58585
 C336 C 0.55284 0.92090 0.57136
 H337 H 0.65479 0.84891 0.40422
 H338 H 0.63975 0.85169 0.88843
 H339 H 0.67946 0.81632 0.92775
 H340 H 0.69465 0.81347 0.44173
 C341 C 0.84049 0.15816 0.01831
 C342 C 0.85632 0.14782 0.14338
 C343 C 0.84916 0.15757 0.29035
 C344 C 0.82655 0.17788 0.31225
 C345 C 0.81077 0.18877 0.18712
 C346 C 0.81783 0.17848 0.03991
 C347 C 0.88061 0.12814 0.12097
 C348 C 0.90140 0.11218 0.10378
 C349 C 0.92621 0.09410 0.08533
 C350 C 0.94778 0.07918 0.07083
 H351 H 0.84591 0.15082 -0.09602
 H352 H 0.86132 0.14976 0.38793
 H353 H 0.82168 0.18533 0.42701
 H354 H 0.80613 0.18644 -0.05877
 C355 C 0.34847 0.65785 0.79371
 C356 C 0.35560 0.64798 0.64694
 C357 C 0.33973 0.65817 0.52170
 C358 C 0.31705 0.67847 0.54291
 C359 C 0.31001 0.68889 0.68989
 C360 C 0.32582 0.67815 0.81522
 C361 C 0.37993 0.62833 0.62481
 C362 C 0.40074 0.61241 0.60760
 C363 C 0.42558 0.59439 0.58883
 C364 C 0.44717 0.57952 0.57382
 H365 H 0.36066 0.65016 0.89142
 H366 H 0.34514 0.65073 0.40752
 H367 H 0.30531 0.68632 0.44409
 H368 H 0.32096 0.68570 0.92981
   
