data_POSCAR
  _audit_creation_date              2014-09-24
  _audit_creation_method            'ToBaCCo'
  _symmetry_space_group_name_H-M    'P1'
  _symmetry_Int_Tables_number       1
  _symmetry_cell_setting            triclinic
  loop_
  _symmetry_equiv_pos_as_xyz
 x,y,z
_cell_length_a 14.6656
_cell_length_b 14.7056
_cell_length_c 15.8948
_cell_angle_alpha 89.956200
_cell_angle_beta 90.180300
_cell_angle_gamma 120.134400
loop_
  _atom_site_label
  _atom_site_type_symbol
  _atom_site_fract_x
  _atom_site_fract_y
  _atom_site_fract_z
O1 O 0.36753 0.51465 0.31800
 O2 O 0.19491 0.51589 0.35292
 C3 C 0.14441 0.56266 0.36960
 O4 O 0.15134 0.63794 0.32528
 O5 O 0.32857 0.81367 0.34702
 C6 C 0.42750 0.86409 0.35887
 O7 O 0.49175 0.85371 0.31188
 O8 O 0.49346 0.68054 0.34115
 C9 C 0.44648 0.58358 0.35929
 O10 O 0.32427 0.51294 0.15242
 O11 O 0.14670 0.50367 0.18786
 C12 C 0.13101 0.56616 0.14277
 O13 O 0.17785 0.66445 0.15668
 O14 O 0.34907 0.84520 0.17896
 C15 C 0.42487 0.85787 0.13229
 O16 O 0.47684 0.81162 0.14542
 O17 O 0.48890 0.64331 0.17411
 C18 C 0.42105 0.56349 0.13307
 Cr19 Cr 0.26097 0.51718 0.25267
 Cr20 Cr 0.25444 0.73776 0.25190
 Cr21 Cr 0.48238 0.74448 0.24331
 O22 O 0.33264 0.66651 0.24933
 O23 O 0.52282 0.33521 0.64591
 O24 O 0.51065 0.15464 0.67367
 C25 C 0.57839 0.14278 0.63282
 O26 O 0.67517 0.18904 0.65259
 O27 O 0.85270 0.35749 0.68860
 C28 C 0.86796 0.43608 0.64452
 O29 O 0.82171 0.48776 0.65874
 O30 O 0.65038 0.49662 0.68065
 C31 C 0.57475 0.43357 0.63337
 O32 O 0.50788 0.36141 0.81246
 O33 O 0.50632 0.18643 0.84080
 C34 C 0.55348 0.13663 0.85899
 O35 O 0.63257 0.14709 0.81809
 O36 O 0.80534 0.32101 0.85362
 C37 C 0.85588 0.41823 0.87112
 O38 O 0.84841 0.48675 0.82735
 O39 O 0.67099 0.48457 0.84872
 C40 C 0.57207 0.43590 0.85997
 Cr41 Cr 0.51729 0.26199 0.74341
 Cr42 Cr 0.73883 0.25645 0.75311
 Cr43 Cr 0.74513 0.48361 0.75375
 O44 O 0.66708 0.33400 0.75012
 C45 C 0.47047 -0.06006 0.43150
 C46 C 0.59115 -0.00384 0.44264
 C47 C 0.62778 0.06357 0.50909
 C48 C 0.54065 0.06900 0.55878
 C49 C 0.48189 0.09677 0.49253
 C50 C 0.44508 0.02919 0.42604
 C51 C 0.42628 -0.11288 0.51686
 C52 C 0.46284 -0.04540 0.58335
 H53 H 0.64374 -0.01544 0.40194
 H54 H 0.71118 0.10890 0.52425
 H55 H 0.47076 0.16422 0.49729
 H56 H 0.40259 0.03890 0.37401
 H57 H 0.37182 -0.19649 0.52443
 H58 H 0.43947 -0.07131 0.64769
 C59 C 1.07138 0.52710 0.44403
 C60 C 0.95650 0.49041 0.41997
 C61 C 0.88977 0.46013 0.48679
 C62 C 0.94364 0.46903 0.57193
 C63 C 0.99910 0.40435 0.56078
 C64 C 1.06582 0.43470 0.49403
 C65 C 1.10058 0.61413 0.50986
 C66 C 1.03380 0.58373 0.57678
 H67 H 0.92980 0.48785 0.35576
 H68 H 0.80604 0.43173 0.47965
 H69 H 0.98753 0.34033 0.60172
 H70 H 1.11028 0.39617 0.47868
 H71 H 1.16824 0.69280 0.50443
 H72 H 1.04450 0.63632 0.62857
 C73 C 0.48432 0.54684 0.43282
 C74 C 0.57924 0.63352 0.48140
 C75 C 0.61012 0.59703 0.54801
 C76 C 0.54331 0.47702 0.56024
 C77 C 0.42934 0.45443 0.56639
 C78 C 0.39854 0.49096 0.49988
 C79 C 0.51813 0.46697 0.40855
 C80 C 0.54903 0.43051 0.47517
 H81 H 0.61902 0.71637 0.46514
 H82 H 0.67608 0.64913 0.58792
 H83 H 0.37760 0.41407 0.61902
 H84 H 0.32047 0.48186 0.49577
 H85 H 0.51882 0.44215 0.34436
 H86 H 0.57620 0.37454 0.46789
 C87 C 0.45648 -0.06722 1.05928
 C88 C 0.38955 -0.01427 1.04655
 C89 C 0.42052 0.05320 0.98016
 C90 C 0.51566 0.06182 0.93223
 C91 C 0.60127 0.09189 0.99988
 C92 C 0.57038 0.02444 1.06620
 C93 C 0.45111 -0.11933 0.97419
 C94 C 0.48211 -0.05183 0.90776
 H95 H 0.32342 -0.02837 1.08598
 H96 H 0.38062 0.09608 0.96363
 H97 H 0.67932 0.16103 0.99629
 H98 H 0.62200 0.03590 1.11918
 H99 H 0.42410 -0.20246 0.96674
 H100 H 0.48167 -0.07724 0.84356
 C101 C 1.05822 0.52479 1.07349
 C102 C 1.00502 0.41015 1.06303
 C103 C 0.93436 0.37224 0.99283
 C104 C 0.92978 0.45561 0.94598
 C105 C 0.90220 0.51069 1.00839
 C106 C 0.97297 0.54880 1.07882
 C107 C 1.10954 0.56770 0.99273
 C108 C 1.03869 0.52954 0.92252
 H109 H 1.01565 0.35689 1.10383
 H110 H 0.88901 0.28912 0.97756
 H111 H 0.83388 0.52072 1.00345
 H112 H 0.96194 0.58955 1.13133
 H113 H 1.19357 0.62180 0.98533
 H114 H 1.06494 0.55252 0.85816
 C115 C 0.45875 0.52735 1.05929
 C116 C 0.53701 0.49143 1.08426
 C117 C 0.57363 0.46058 1.01797
 C118 C 0.52902 0.46858 0.93242
 C119 C 0.40839 0.40356 0.94319
 C120 C 0.37171 0.43428 1.00943
 C121 C 0.51703 0.61378 0.99312
 C122 C 0.55388 0.58307 0.92685
 H123 H 0.56069 0.48935 1.14870
 H124 H 0.62852 0.43202 1.02582
 H125 H 0.35588 0.33899 0.90243
 H126 H 0.28835 0.39582 1.02437
 H127 H 0.52784 0.69226 0.99777
 H128 H 0.59609 0.63522 0.87490
   
