data_POSCAR
  _audit_creation_date              2014-09-24
  _audit_creation_method            'ToBaCCo'
  _symmetry_space_group_name_H-M    'P1'
  _symmetry_Int_Tables_number       1
  _symmetry_cell_setting            triclinic
  loop_
  _symmetry_equiv_pos_as_xyz
 x,y,z
_cell_length_a 28.0993
_cell_length_b 22.5729
_cell_length_c 10.5936
_cell_angle_alpha 89.627600
_cell_angle_beta 88.901400
_cell_angle_gamma 90.246800
loop_
  _atom_site_label
  _atom_site_type_symbol
  _atom_site_fract_x
  _atom_site_fract_y
  _atom_site_fract_z
C1 C 0.75094 0.32054 0.59577
 C2 C 0.73012 0.31461 0.47544
 C3 C 0.74732 0.27238 0.39029
 C4 C 0.78539 0.23516 0.42030
 C5 C 0.80634 0.24079 0.54073
 C6 C 0.79098 0.28567 0.62343
 H7 H 0.80563 0.28689 0.71730
 H8 H 0.73264 0.27172 0.29651
 C9 C 0.21207 0.75202 0.58666
 C10 C 0.20110 0.75958 0.45663
 C11 C 0.22659 0.72820 0.36420
 C12 C 0.26230 0.68871 0.39692
 C13 C 0.27510 0.68220 0.52508
 C14 C 0.24928 0.71304 0.61820
 H15 H 0.26028 0.70903 0.71515
 H16 H 0.21593 0.73088 0.26640
 C17 C 0.27727 0.27868 -0.56563
 C18 C 0.28400 0.27511 -0.43412
 C19 C 0.25680 0.23368 -0.36228
 C20 C 0.22836 0.19027 -0.42135
 C21 C 0.22611 0.19072 -0.55534
 C22 C 0.24883 0.23648 -0.62362
 H23 H 0.24521 0.23862 -0.72544
 H24 H 0.26302 0.23001 -0.26179
 C25 C -0.25463 0.82404 -0.59060
 C26 C -0.23608 0.82663 -0.46761
 C27 C -0.25214 0.78581 -0.37669
 C28 C -0.28640 0.74271 -0.40384
 C29 C -0.30502 0.73987 -0.52854
 C30 C -0.29050 0.78310 -0.61781
 H31 H -0.30260 0.78050 -0.71421
 H32 H -0.23943 0.78978 -0.28120
 O33 O -0.09394 0.90107 0.18918
 O34 O -0.13139 0.96655 0.05864
 C35 C -0.13177 0.92460 0.14231
 O36 O 0.06563 1.08657 0.25035
 O37 O 0.11494 1.02091 0.14755
 C38 C 0.10738 1.06372 0.22573
 O39 O -0.06894 1.10522 0.21956
 O40 O -0.11902 1.06402 0.07490
 C41 C -0.11052 1.09869 0.16878
 O42 O 0.03349 0.87143 0.23095
 O43 O 0.10002 0.91730 0.14677
 C44 C 0.07894 0.87827 0.22076
 Zr45 Zr -0.02133 0.91907 0.15010
 O46 O -0.02851 0.91769 0.34962
 O47 O -0.03760 0.82756 0.14231
 Zr48 Zr -0.00211 1.06608 0.16997
 O49 O -0.00814 1.05869 0.36905
 O50 O 0.00347 1.15928 0.18458
 O51 O -0.05478 1.00030 0.17001
 O52 O 0.02766 0.98385 0.19667
 O53 O 0.06375 0.88082 -0.20705
 O54 O 0.11416 0.92152 -0.06278
 C55 C 0.10473 0.88518 -0.15320
 O56 O -0.04418 1.11450 -0.23535
 O57 O -0.10725 1.06776 -0.13579
 C58 C -0.08961 1.10485 -0.21676
 O59 O 0.08740 1.09424 -0.18405
 O60 O 0.12616 1.02537 -0.06284
 C61 C 0.12560 1.06898 -0.14407
 O62 O -0.06424 0.91135 -0.26717
 O63 O -0.11611 0.97238 -0.16041
 C64 C -0.10563 0.93510 -0.24936
 Zr65 Zr -0.00131 0.92487 -0.16581
 O66 O 0.01505 0.92851 -0.36161
 O67 O -0.01781 0.83342 -0.17662
 Zr68 Zr 0.01527 1.07327 -0.14641
 O69 O 0.02537 1.08204 -0.34440
 O70 O 0.02165 1.16636 -0.12766
 Zr71 Zr -0.07128 1.00877 -0.02245
 Zr72 Zr 0.06712 0.98131 0.02584
 O73 O 0.04882 0.99157 -0.16474
 O74 O -0.03271 1.00742 -0.19493
 O75 O 0.02854 0.90185 0.00605
 O76 O -0.03253 1.08803 -0.00059
 O77 O -0.05285 0.91876 -0.02424
 O78 O 0.04962 1.07239 0.02661
 H79 H 0.04464 0.97879 0.27714
 H80 H -0.04946 1.12641 -0.00368
 H81 H 0.07428 0.98788 -0.23006
 H82 H -0.07797 0.88862 -0.03744
 H83 H 0.03229 1.17159 0.13606
 H84 H 0.04957 1.17457 -0.07493
 H85 H 0.04748 1.05080 -0.37337
 H86 H -0.00063 0.96421 -0.39575
 H87 H 0.00501 0.81180 -0.12352
 H88 H -0.01324 0.80892 0.08713
 H89 H -0.05666 0.94166 0.37332
 H90 H -0.04003 1.04215 0.38963
 O91 O 0.43084 0.39321 0.21552
 O92 O 0.38297 0.43667 0.06804
 C93 C 0.38967 0.40305 0.16604
 O94 O 0.54418 0.61711 0.23927
 O95 O 0.60778 0.56675 0.15306
 C96 C 0.58936 0.60530 0.22934
 O97 O 0.41257 0.59589 0.18421
 O98 O 0.37389 0.53242 0.05109
 C99 C 0.37431 0.57340 0.13602
 O100 O 0.56408 0.40328 0.25140
 O101 O 0.61674 0.46774 0.15469
 C102 C 0.60635 0.42649 0.23538
 Zr103 Zr 0.49901 0.42625 0.16133
 O104 O 0.49113 0.42088 0.35994
 O105 O 0.50511 0.33322 0.14859
 Zr106 Zr 0.48553 0.57538 0.15052
 O107 O 0.47590 0.57374 0.34874
 O108 O 0.47329 0.66783 0.14534
 O109 O 0.44922 0.49500 0.16198
 O110 O 0.53074 0.50677 0.19650
 O111 O 0.59201 0.40230 -0.18522
 O112 O 0.63103 0.46615 -0.05419
 C113 C 0.63045 0.42435 -0.13784
 O114 O 0.44680 0.59277 -0.26265
 O115 O 0.38949 0.53476 -0.16570
 C116 C 0.40370 0.57355 -0.25023
 O117 O 0.57320 0.61741 -0.19206
 O118 O 0.62199 0.56954 -0.05377
 C119 C 0.61392 0.60913 -0.13963
 O120 O 0.46223 0.38455 -0.24320
 O121 O 0.39741 0.43134 -0.15503
 C122 C 0.41669 0.39224 -0.22951
 Zr123 Zr 0.51998 0.42511 -0.15233
 O124 O 0.53724 0.42585 -0.34774
 O125 O 0.52490 0.33161 -0.14537
 Zr126 Zr 0.50774 0.57325 -0.16276
 O127 O 0.52747 0.57128 -0.35675
 O128 O 0.49491 0.66534 -0.17733
 Zr129 Zr 0.43299 0.49006 -0.03165
 Zr130 Zr 0.57219 0.51056 0.02905
 O131 O 0.55600 0.50519 -0.16333
 O132 O 0.47364 0.49304 -0.20091
 O133 O 0.55228 0.42056 0.02305
 O134 O 0.45521 0.57924 -0.02500
 O135 O 0.46929 0.40917 -0.01138
 O136 O 0.53705 0.59230 0.01133
 H137 H 0.54621 0.50945 0.27954
 H138 H 0.43179 0.61136 -0.03720
 H139 H 0.58207 0.50879 -0.22726
 H140 H 0.45087 0.37172 -0.01506
 H141 H 0.50190 0.68679 0.10679
 H142 H 0.51129 0.68462 -0.10668
 H143 H 0.50509 0.54443 -0.39938
 H144 H 0.50996 0.44336 -0.39201
 H145 H 0.54554 0.32131 -0.07388
 H146 H 0.50058 0.31783 0.23580
 H147 H 0.47022 0.45388 0.38586
 H148 H 0.44740 0.54914 0.36771
 N149 N 0.30254 0.38578 0.19090
 N150 N 0.27323 0.35502 0.26509
 C151 C 0.29865 0.32522 0.35136
 C152 C 0.34666 0.33747 0.33019
 C153 C 0.34743 0.37600 0.22741
 H154 H 0.37697 0.31878 0.37704
 H155 H 0.29179 0.41216 0.11533
 H156 H 0.23637 0.35323 0.25435
 N157 N -0.22081 0.92113 0.15383
 N158 N -0.25364 0.89360 0.22400
 C159 C -0.23161 0.85643 0.30364
 C160 C -0.18316 0.85900 0.28114
 C161 C -0.17768 0.90130 0.18776
 H162 H -0.15555 0.83629 0.33216
 H163 H -0.22786 0.95426 0.08759
 H164 H -0.29007 0.90240 0.22154
 N165 N 0.64480 0.59778 0.40437
 N166 N 0.67480 0.63472 0.47111
 C167 C 0.66863 0.69066 0.42867
 C168 C 0.63575 0.68994 0.33107
 C169 C 0.62170 0.63120 0.32041
 H170 H 0.62367 0.72700 0.27503
 H171 H 0.64061 0.55240 0.42025
 H172 H 0.70015 0.61951 0.53424
 N173 N 0.19245 1.08717 0.21143
 N174 N 0.22514 1.12361 0.26962
 C175 C 0.20395 1.14663 0.37308
 C176 C 0.15680 1.12626 0.38227
 C177 C 0.15103 1.08995 0.27713
 H178 H 0.12961 1.13977 0.44974
 H179 H 0.19863 1.06599 0.12531
 H180 H 0.25974 1.13176 0.23579
 N181 N 0.71842 0.40684 -0.13146
 N182 N 0.75207 0.37720 -0.20647
 C183 C 0.72966 0.35574 -0.30848
 C184 C 0.68157 0.36988 -0.29795
 C185 C 0.67603 0.40138 -0.18718
 H186 H 0.65317 0.35653 -0.35922
 H187 H 0.72540 0.42789 -0.04625
 H188 H 0.78823 0.37446 -0.18641
 N189 N 0.15939 0.80145 -0.11762
 N190 N 0.18584 0.76518 -0.18631
 C191 C 0.18640 0.78371 -0.30810
 C192 C 0.15883 0.83489 -0.31525
 C193 C 0.14211 0.84386 -0.19321
 H194 H 0.15117 0.86210 -0.39655
 H195 H 0.15138 0.79533 -0.02169
 H196 H 0.20141 0.72702 -0.14971
 N197 N 0.39071 0.62089 -0.45316
 N198 N 0.35602 0.65290 -0.51364
 C199 C 0.31586 0.64977 -0.44299
 C200 C 0.32465 0.61689 -0.33280
 C201 C 0.37200 0.59894 -0.34483
 H202 H 0.30082 0.60974 -0.25264
 H203 H 0.42658 0.62170 -0.48006
 H204 H 0.36379 0.68398 -0.58422
 N205 N -0.16369 1.10127 -0.33249
 N206 N -0.19154 1.13808 -0.40512
 C207 C -0.17099 1.19197 -0.40630
 C208 C -0.12898 1.19062 -0.33785
 C209 C -0.12526 1.13217 -0.29697
 H210 H -0.10511 1.22710 -0.31891
 H211 H -0.17382 1.05902 -0.30172
 H212 H -0.22463 1.12646 -0.44112
 N213 N 0.69648 0.64940 -0.13207
 N214 N 0.72412 0.68801 -0.20652
 C215 C 0.69701 0.70691 -0.30278
 C216 C 0.65154 0.68375 -0.28761
 C217 C 0.65306 0.64720 -0.18292
 H218 H 0.62124 0.69107 -0.34725
 H219 H 0.70847 0.62548 -0.05429
 H220 H 0.76043 0.69558 -0.19440
 N221 N 0.19277 1.05028 -0.28926
 N222 N 0.21790 1.08478 -0.37780
 C223 C 0.21105 1.14214 -0.34833
 C224 C 0.18187 1.14543 -0.24108
 C225 C 0.17007 1.08706 -0.20895
 H226 H 0.16604 1.18515 -0.20226
 H227 H 0.18637 1.00490 -0.29860
 H228 H 0.23778 1.06797 -0.45367
 N229 N 0.40478 0.30045 -0.35065
 N230 N 0.37012 0.26924 -0.39974
 C231 C 0.32877 0.29787 -0.38125
 C232 C 0.33732 0.35000 -0.31503
 C233 C 0.38653 0.34982 -0.29810
 H234 H 0.31186 0.38312 -0.28514
 H235 H 0.44043 0.28751 -0.35241
 H236 H 0.37493 0.22923 -0.44721
 N237 N -0.16145 0.95483 -0.42306
 N238 N -0.19689 0.92720 -0.47802
 C239 C -0.20057 0.87184 -0.42969
 C240 C -0.16658 0.86480 -0.33745
 C241 C -0.14317 0.91855 -0.33565
 H242 H -0.15995 0.82633 -0.27898
 H243 H -0.14931 0.99707 -0.44814
 H244 H -0.21829 0.94675 -0.54597
 N245 N 0.29420 0.55779 0.23031
 N246 N 0.26442 0.58870 0.30149
 C247 C 0.27860 0.64576 0.30068
 C248 C 0.31862 0.65167 0.22314
 C249 C 0.32829 0.59446 0.18435
 H250 H 0.34115 0.69036 0.21070
 H251 H 0.29386 0.51164 0.22442
 H252 H 0.23734 0.57012 0.35810
 N253 N -0.19367 1.13551 0.16217
 N254 N -0.22244 1.17439 0.23073
 C255 C -0.19701 1.19491 0.32830
 C256 C -0.15139 1.17036 0.32147
 C257 C -0.15096 1.13359 0.21736
 H258 H -0.12157 1.17919 0.38169
 H259 H -0.20406 1.11280 0.08157
 H260 H -0.25812 1.18241 0.21127
 N261 N 0.68249 0.44552 0.33990
 N262 N 0.71419 0.41693 0.40660
 C263 C 0.69908 0.36092 0.42403
 C264 C 0.65517 0.35345 0.36731
 C265 C 0.64588 0.40876 0.31589
 H266 H 0.63462 0.31309 0.35855
 H267 H 0.68712 0.48884 0.30668
 H268 H 0.74690 0.43463 0.43314
 N269 N 0.08280 0.80603 0.39567
 N270 N 0.11437 0.77599 0.45973
 C271 C 0.15796 0.78999 0.41456
 C272 C 0.15405 0.83033 0.31483
 C273 C 0.10543 0.83952 0.30680
 H274 H 0.18225 0.84919 0.25609
 H275 H 0.04612 0.80309 0.41284
 H276 H 0.10595 0.74549 0.53141
   
