data_POSCAR
  _audit_creation_date              2014-09-24
  _audit_creation_method            'ToBaCCo'
  _symmetry_space_group_name_H-M    'P1'
  _symmetry_Int_Tables_number       1
  _symmetry_cell_setting            triclinic
  loop_
  _symmetry_equiv_pos_as_xyz
 x,y,z
_cell_length_a 21.6931
_cell_length_b 22.0257
_cell_length_c 20.9752
_cell_angle_alpha 88.194400
_cell_angle_beta 88.974700
_cell_angle_gamma 91.112200
loop_
  _atom_site_label
  _atom_site_type_symbol
  _atom_site_fract_x
  _atom_site_fract_y
  _atom_site_fract_z
N1 N 0.22791 0.22247 0.22379
 N2 N -0.21679 0.78681 0.18451
 N3 N -0.21987 0.22900 -0.23928
 N4 N 0.21328 0.78602 -0.21894
 N5 N 0.20941 1.21923 0.77959
 N6 N 0.78927 0.78989 0.81970
 N7 N 0.22094 0.78297 1.22169
 N8 N 0.77249 1.21857 1.20877
 O9 O 0.55762 0.93673 0.90139
 O10 O 0.44129 0.92747 1.09039
 O11 O 0.62232 0.99540 1.05336
 O12 O 0.37394 0.96731 0.96437
 O13 O 0.55128 0.92989 1.07786
 O14 O 0.44069 0.93952 0.88878
 O15 O 0.37303 0.95659 1.02206
 O16 O 0.62668 0.99846 0.93933
 C17 C 0.61173 0.94721 0.91797
 C18 C 0.38896 0.92088 1.06812
 C19 C 0.60687 0.94224 1.07021
 C20 C 0.38746 0.93726 0.91281
 O21 O 0.44618 1.05520 0.86390
 O22 O 0.55452 1.04108 1.12560
 O23 O 0.57500 1.11145 0.93934
 O24 O 0.43112 1.10585 1.04809
 O25 O 0.43839 1.04159 1.12449
 O26 O 0.56349 1.05182 0.86274
 O27 O 0.37817 1.07187 0.94262
 O28 O 0.56370 1.10583 1.05049
 Co29 Co 0.50219 0.99693 0.89019
 Co30 Co 0.49704 0.98870 1.09419
 Co31 Co 0.58935 1.04961 0.99596
 Co32 Co 0.40831 1.03291 1.01444
 O33 O 0.49923 1.01385 0.99278
 C34 C 0.39785 1.07978 0.88560
 C35 C 0.57055 1.09313 1.10730
 C36 C 0.58000 1.10288 0.88175
 C37 C 0.42581 1.09504 1.10613
 O38 O 0.06542 0.44679 0.12621
 O39 O 0.04715 0.55671 -0.12917
 O40 O 0.08230 0.40169 -0.03363
 O41 O 0.11093 0.57945 0.05600
 O42 O 0.05559 0.44455 -0.12035
 O43 O 0.05262 0.56034 0.13580
 O44 O 0.10838 0.56813 -0.05387
 O45 O 0.02957 0.37382 0.06803
 C46 C 0.06671 0.39262 0.10905
 C47 C 0.09888 0.57416 -0.11105
 C48 C 0.09110 0.40938 -0.09171
 C49 C 0.10064 0.58389 0.11339
 O50 O -0.06104 0.55335 0.11509
 O51 O -0.06478 0.43499 -0.08623
 O52 O -0.07758 0.40989 0.02646
 O53 O -0.00660 0.61997 -0.05789
 O54 O -0.06853 0.54744 -0.08498
 O55 O -0.05436 0.43722 0.12009
 O56 O -0.00840 0.62330 0.05710
 O57 O -0.02226 0.35001 -0.05027
 Co58 Co 0.00195 0.49895 0.11290
 Co59 Co -0.00518 0.49633 -0.09488
 Co60 Co 0.00340 0.41266 -0.00479
 Co61 Co 0.04832 0.59055 0.00037
 O62 O 0.01466 0.50215 0.00770
 C63 C -0.05463 0.60709 0.09284
 C64 C -0.05980 0.37733 -0.09040
 C65 C -0.08923 0.40863 0.08480
 C66 C -0.05806 0.60273 -0.07808
 O67 O 1.07438 0.08147 0.44998
 O68 O 0.87101 0.04407 0.55710
 O69 O 0.93408 0.02085 0.36017
 O70 O 1.02920 0.02667 0.65264
 O71 O 0.87449 0.05689 0.43700
 O72 O 1.07153 0.06872 0.56529
 O73 O 0.96096 0.07758 0.57657
 O74 O 1.04791 0.02959 0.36819
 C75 C 1.07142 0.07686 0.39113
 C76 C 0.90468 0.08390 0.58012
 C77 C 0.89408 0.05869 0.37981
 C78 C 1.07123 0.06379 0.62606
 O79 O 1.10460 -0.04867 0.55306
 O80 O 0.86262 -0.05650 0.42609
 O81 O 1.04970 -0.09006 0.41248
 O82 O 0.92123 -0.03297 0.62222
 O83 O 0.87605 -0.07603 0.54382
 O84 O 1.11921 -0.02721 0.43580
 O85 O 1.01933 -0.07489 0.59877
 O86 O 0.94422 -0.10024 0.39828
 Co87 Co 1.08210 0.01494 0.50044
 Co88 Co 0.88205 -0.00828 0.49187
 Co89 Co 0.99370 -0.03280 0.39306
 Co90 Co 0.99092 0.00041 0.58263
 O91 O 0.98366 -0.01004 0.48899
 C92 C 1.07532 -0.08293 0.59192
 C93 C 0.88780 -0.09768 0.39717
 C94 C 1.10466 -0.07632 0.41207
 C95 C 0.88636 -0.07432 0.60204
 C96 C 1.13818 0.15350 0.24243
 C97 C 1.18600 0.18932 0.26638
 C98 C 1.18648 0.19825 0.33236
 C99 C 1.14491 0.16542 0.37344
 C100 C 1.10251 0.12289 0.34892
 C101 C 1.09763 0.12096 0.28265
 C102 C 1.09462 0.06862 0.23918
 C103 C 1.13964 0.10406 0.19527
 H104 H 1.22058 0.22848 0.35214
 H105 H 1.14929 0.16995 0.42443
 H106 H 1.04814 0.06285 0.21849
 H107 H 1.11428 0.02650 0.25998
 H108 H 1.11866 0.11740 0.14913
 H109 H 1.18557 0.08279 0.19136
 C110 C 0.85224 -0.21721 0.27861
 C111 C 0.80131 -0.19315 0.24681
 C112 C 0.76938 -0.14687 0.27822
 C113 C 0.79443 -0.11949 0.33222
 C114 C 0.85184 -0.13783 0.35613
 C115 C 0.87653 -0.19066 0.33175
 C116 C 0.94073 -0.20815 0.31488
 C117 C 0.91421 -0.23691 0.25619
 H118 H 0.72774 -0.12838 0.25846
 H119 H 0.77191 -0.08019 0.35097
 H120 H 0.95930 -0.24194 0.34963
 H121 H 0.97185 -0.16873 0.30278
 H122 H 0.91753 -0.28716 0.25719
 H123 H 0.93030 -0.21323 0.21123
 C124 C 0.84001 0.14051 0.73183
 C125 C 0.81268 0.19501 0.71413
 C126 C 0.82417 0.21838 0.65156
 C127 C 0.85618 0.18336 0.60667
 C128 C 0.87901 0.12611 0.62525
 C129 C 0.87434 0.10820 0.68956
 C130 C 0.85489 0.04931 0.72171
 C131 C 0.81702 0.08533 0.76837
 H132 H 0.80608 0.26199 0.63691
 H133 H 0.86104 0.19977 0.55760
 H134 H 0.89373 0.02543 0.74465
 H135 H 0.82624 0.02180 0.69021
 H136 H 0.83451 0.08250 0.81776
 H137 H 0.76678 0.07646 0.76423
 C138 C 1.11665 -0.17049 0.74193
 C139 C 1.17937 -0.18157 0.73270
 C140 C 1.20401 -0.17185 0.67042
 C141 C 1.16889 -0.14342 0.62214
 C142 C 1.10764 -0.12601 0.63468
 C143 C 1.08205 -0.14312 0.69460
 C144 C 1.04648 -0.10784 0.74207
 C145 C 1.08392 -0.13851 0.79370
 H146 H 1.25060 -0.18506 0.65942
 H147 H 1.19049 -0.13267 0.57611
 H148 H 1.05698 -0.05840 0.73811
 H149 H 0.99671 -0.12075 0.74476
 H150 H 1.05618 -0.17025 0.82544
 H151 H 1.11358 -0.10536 0.81822
 C152 C 0.31170 1.21520 1.14275
 C153 C 0.28304 1.19407 1.19987
 C154 C 0.30656 1.14073 1.22894
 C155 C 0.35728 1.11110 1.20169
 C156 C 0.38621 1.13408 1.14487
 C157 C 0.36135 1.18588 1.11582
 C158 C 0.39288 1.24461 1.09647
 C159 C 0.33835 1.27661 1.12565
 H160 H 0.28533 1.12120 1.27213
 H161 H 0.37227 1.06895 1.22381
 H162 H 0.39642 1.25107 1.04374
 H163 H 0.43668 1.25215 1.12211
 H164 H 0.31032 1.30125 1.08971
 H165 H 0.35031 1.30291 1.16826
 C166 C 0.32011 0.81265 0.81177
 C167 C 0.25651 0.81952 0.81897
 C168 C 0.23634 0.85790 0.86756
 C169 C 0.27874 0.89460 0.90052
 C170 C 0.34259 0.89267 0.88685
 C171 C 0.36178 0.84827 0.84447
 C172 C 0.40617 0.85175 0.78919
 C173 C 0.36041 0.81286 0.75346
 H174 H 0.18791 0.86055 0.87923
 H175 H 0.26111 0.92707 0.93354
 H176 H 0.44981 0.82814 0.79981
 H177 H 0.41192 0.89856 0.76824
 H178 H 0.37772 0.76690 0.74347
 H179 H 0.34037 0.83769 0.71216
 C180 C 0.68091 0.80114 1.13819
 C181 C 0.74151 0.82142 1.14637
 C182 C 0.76055 0.87671 1.11612
 C183 C 0.71724 0.91419 1.08611
 C184 C 0.65401 0.89756 1.08743
 C185 C 0.63786 0.83872 1.11002
 C186 C 0.58801 0.81689 1.15567
 C187 C 0.63521 0.77543 1.18614
 H188 H 0.80793 0.89248 1.11924
 H189 H 0.73260 0.95809 1.06650
 H190 H 0.55064 0.79174 1.13152
 H191 H 0.57218 0.85298 1.18768
 H192 H 0.62529 0.72642 1.17910
 H193 H 0.64640 0.78725 1.23582
 C194 C 0.68743 1.23324 0.83393
 C195 C 0.71745 1.21078 0.77987
 C196 C 0.68467 1.16480 0.74778
 C197 C 0.63454 1.13277 0.77806
 C198 C 0.61431 1.14788 0.83976
 C199 C 0.63676 1.20333 0.86238
 C200 C 0.65248 1.22507 0.92699
 C201 C 0.70872 1.25675 0.89601
 H202 H 0.70179 1.14856 0.70277
 H203 H 0.61628 1.09259 0.75603
 H204 H 0.66506 1.18862 0.96144
 H205 H 0.61802 1.25729 0.94520
 H206 H 0.75248 1.23638 0.91198
 H207 H 0.70701 1.30708 0.89759
 C208 C 0.19793 0.32932 0.20524
 C209 C 0.19964 0.26920 0.18588
 C210 C 0.16348 0.25311 0.13392
 C211 C 0.11877 0.29259 0.11065
 C212 C 0.11328 0.35126 0.13453
 C213 C 0.15667 0.37008 0.17887
 C214 C 0.14697 0.39992 0.24112
 C215 C 0.19197 0.35505 0.26987
 H216 H 0.16574 0.20795 0.11554
 H217 H 0.08680 0.27606 0.07600
 H218 H 0.09903 0.39360 0.26020
 H219 H 0.16481 0.44761 0.23972
 H220 H 0.16974 0.32295 0.30554
 H221 H 0.23564 0.37693 0.28513
 C222 C -0.13788 0.24184 -0.15950
 C223 C -0.18232 0.26698 -0.20002
 C224 C -0.19170 0.33006 -0.19768
 C225 C -0.15307 0.36704 -0.16080
 C226 C -0.10502 0.34113 -0.12522
 C227 C -0.10132 0.27824 -0.12244
 C228 C -0.04580 0.24096 -0.12981
 C229 C -0.08413 0.20158 -0.17212
 H230 H -0.22731 0.35073 -0.22607
 H231 H -0.15936 0.41570 -0.16199
 H232 H -0.03313 0.21771 -0.08422
 H233 H -0.00757 0.26626 -0.15562
 H234 H -0.09120 0.15487 -0.15152
 H235 H -0.06712 0.20458 -0.22247
 C236 C 0.22411 0.68902 -0.15410
 C237 C 0.19689 0.72266 -0.20372
 C238 C 0.14939 0.69171 -0.23643
 C239 C 0.12128 0.63801 -0.21015
 C240 C 0.14135 0.61264 -0.15183
 C241 C 0.19792 0.63513 -0.12964
 C242 C 0.22419 0.64454 -0.06514
 C243 C 0.25169 0.70438 -0.09179
 H244 H 0.12954 0.71137 -0.27903
 H245 H 0.07997 0.62047 -0.23193
 H246 H 0.25977 0.61060 -0.05314
 H247 H 0.18946 0.65101 -0.02686
 H248 H 0.30293 0.70505 -0.09384
 H249 H 0.23040 0.74438 -0.06988
 C250 C -0.19492 0.67912 0.16568
 C251 C -0.18347 0.74088 0.15243
 C252 C -0.13624 0.75709 0.10782
 C253 C -0.09518 0.71312 0.08657
 C254 C -0.10153 0.65209 0.10843
 C255 C -0.15483 0.63580 0.14418
 C256 C -0.16421 0.59682 0.20322
 C257 C -0.20899 0.64416 0.22643
 H258 H -0.12758 0.80431 0.09420
 H259 H -0.05617 0.72775 0.05691
 H260 H -0.12184 0.59374 0.23214
 H261 H -0.18704 0.55258 0.19329
 H262 H -0.19312 0.66731 0.26957
 H263 H -0.25761 0.62727 0.22901
 C264 C 1.11029 0.17575 0.75354
 C265 C 1.17075 0.19421 0.73606
 C266 C 1.19255 0.17856 0.67500
 C267 C 1.15864 0.13793 0.63813
 C268 C 1.10349 0.11045 0.66245
 C269 C 1.07815 0.13367 0.71822
 C270 C 1.05069 0.10225 0.77629
 C271 C 1.08504 0.14886 0.81509
 H272 H 1.23771 0.19431 0.65808
 H273 H 1.17804 0.12461 0.59294
 H274 H 1.06779 0.05531 0.78354
 H275 H 0.99978 0.10652 0.77892
 H276 H 1.12050 0.12932 0.84656
 H277 H 1.05428 0.18035 0.83952
 C278 C 0.85486 -0.20341 0.72006
 C279 C 0.80605 -0.18305 0.75783
 C280 C 0.77552 -0.13113 0.73287
 C281 C 0.79872 -0.09853 0.67812
 C282 C 0.85345 -0.11606 0.64722
 C283 C 0.87710 -0.17153 0.66741
 C284 C 0.92873 -0.21351 0.65654
 C285 C 0.90421 -0.24959 0.71607
 H286 H 0.73506 -0.11399 0.75662
 H287 H 0.77469 -0.05878 0.66122
 H288 H 0.97440 -0.19169 0.66288
 H289 H 0.92366 -0.23833 0.61156
 H290 H 0.93659 -0.24868 0.75636
 H291 H 0.88534 -0.29535 0.70542
 C292 C 1.17251 -0.20836 0.32837
 C293 C 1.20050 -0.18296 0.27219
 C294 C 1.20623 -0.11802 0.27116
 C295 C 1.18012 -0.08292 0.32023
 C296 C 1.14742 -0.11090 0.37237
 C297 C 1.14730 -0.17395 0.37491
 C298 C 1.12617 -0.22636 0.41610
 C299 C 1.15569 -0.26607 0.36540
 H300 H 1.22818 -0.09358 0.23107
 H301 H 1.18275 -0.03389 0.31551
 H302 H 1.07503 -0.23052 0.41896
 H303 H 1.15006 -0.22811 0.46253
 H304 H 1.12084 -0.29563 0.34311
 H305 H 1.19712 -0.29013 0.38253
 C306 C 0.79461 0.18516 0.31716
 C307 C 0.80965 0.18997 0.25206
 C308 C 0.86343 0.15985 0.23185
 C309 C 0.89290 0.11787 0.27348
 C310 C 0.87038 0.10707 0.33660
 C311 C 0.82458 0.14602 0.35785
 C312 C 0.76989 0.13881 0.40185
 C313 C 0.73701 0.18333 0.35726
 H314 H 0.87877 0.16409 0.18248
 H315 H 0.93080 0.09182 0.25527
 H316 H 0.77888 0.15732 0.44957
 H317 H 0.74955 0.09205 0.40231
 H318 H 0.72827 0.22770 0.37920
 H319 H 0.69653 0.16237 0.33440
 C320 C 0.20344 0.28430 -0.12806
 C321 C 0.19143 0.27227 -0.19210
 C322 C 0.15649 0.31652 -0.22554
 C323 C 0.12974 0.36561 -0.19403
 C324 C 0.13525 0.37151 -0.12754
 C325 C 0.17575 0.33185 -0.09673
 C326 C 0.16752 0.29426 -0.03683
 C327 C 0.19867 0.24289 -0.07055
 H328 H 0.14756 0.31182 -0.27578
 H329 H 0.09999 0.39548 -0.22089
 H330 H 0.11811 0.28401 -0.02604
 H331 H 0.19507 0.31250 0.00268
 H332 H 0.16767 0.20295 -0.07734
 H333 H 0.24456 0.23210 -0.05085
 C334 C -0.20928 0.28249 0.11296
 C335 C -0.20509 0.27123 0.17913
 C336 C -0.17357 0.31558 0.21395
 C337 C -0.14200 0.36449 0.18268
 C338 C -0.13832 0.36935 0.11531
 C339 C -0.17630 0.32982 0.08177
 C340 C -0.16366 0.29236 0.02516
 C341 C -0.19997 0.24082 0.05917
 H342 H -0.17127 0.31109 0.26541
 H343 H -0.11572 0.39518 0.21159
 H344 H -0.11402 0.28228 0.01889
 H345 H -0.18682 0.31046 -0.01803
 H346 H -0.17133 0.20120 0.07241
 H347 H -0.24401 0.22940 0.03566
 C348 C -0.13061 0.75507 -0.10755
 C349 C -0.17621 0.74199 -0.15146
 C350 C -0.19070 0.68064 -0.16214
 C351 C -0.15436 0.63415 -0.13547
 C352 C -0.10260 0.64878 -0.09863
 C353 C -0.09352 0.70978 -0.08346
 C354 C -0.03721 0.75013 -0.08832
 C355 C -0.07870 0.80051 -0.11208
 H356 H -0.22838 0.66905 -0.19294
 H357 H -0.16452 0.58743 -0.14680
 H358 H -0.00371 0.73543 -0.12525
 H359 H -0.01688 0.75934 -0.04137
 H360 H -0.06783 0.81726 -0.16152
 H361 H -0.08443 0.83696 -0.07711
 C362 C 0.13495 0.71101 0.22201
 C363 C 0.19664 0.72669 0.20793
 C364 C 0.23003 0.68514 0.17028
 C365 C 0.20021 0.63568 0.14201
 C366 C 0.13675 0.62532 0.15210
 C367 C 0.10616 0.66126 0.19580
 C368 C 0.04702 0.69408 0.18842
 C369 C 0.07859 0.74860 0.21690
 H370 H 0.27844 0.69307 0.15897
 H371 H 0.22585 0.60799 0.10947
 H372 H 0.00986 0.67316 0.21936
 H373 H 0.03476 0.70234 0.13776
 H374 H 0.05903 0.75983 0.26422
 H375 H 0.08482 0.78791 0.18264
 C376 C 0.27403 1.12871 0.77696
 C377 C 0.26346 1.18942 0.79461
 C378 C 0.31270 1.21754 0.82742
 C379 C 0.36049 1.18264 0.85369
 C380 C 0.36302 1.11993 0.84356
 C381 C 0.32299 1.09563 0.79980
 C382 C 0.28779 1.03697 0.80174
 C383 C 0.23365 1.07252 0.77674
 H384 H 0.31317 1.26560 0.83625
 H385 H 0.39300 1.20386 0.88513
 H386 H 0.28009 1.01829 0.85113
 H387 H 0.30636 1.00444 0.76713
 H388 H 0.19503 1.07258 0.81182
 H389 H 0.22080 1.05953 0.72792
 C390 C 0.32532 0.80815 1.19099
 C391 C 0.26257 0.80825 1.17863
 C392 C 0.24411 0.83121 1.11840
 C393 C 0.28664 0.86391 1.07795
 C394 C 0.34847 0.87193 1.09616
 C395 C 0.36712 0.83941 1.15112
 C396 C 0.40434 0.85815 1.20704
 C397 C 0.35901 0.82210 1.24997
 H398 H 0.19604 0.82860 1.10549
 H399 H 0.26982 0.88724 1.03597
 H400 H 0.40218 0.90769 1.21503
 H401 H 0.45130 0.83886 1.20642
 H402 H 0.33262 0.85083 1.28296
 H403 H 0.37922 0.78085 1.27241
 C404 C 0.69882 1.13337 1.21483
 C405 C 0.71597 1.19286 1.19407
 C406 C 0.67094 1.22453 1.15808
 C407 C 0.61963 1.19347 1.13318
 C408 C 0.60976 1.13109 1.14704
 C409 C 0.64676 1.10393 1.19328
 C410 C 0.67715 1.04359 1.19586
 C411 C 0.73424 1.07595 1.21952
 H412 H 0.67656 1.27234 1.14572
 H413 H 0.59021 1.21723 1.09993
 H414 H 0.68460 1.02466 1.14814
 H415 H 0.65531 1.01177 1.23215
 H416 H 0.77372 1.07539 1.18503
 H417 H 0.74518 1.06280 1.26959
 C418 C 0.68602 0.80310 0.86618
 C419 C 0.74798 0.82078 0.86108
 C420 C 0.76659 0.87507 0.88960
 C421 C 0.72223 0.91486 0.91318
 C422 C 0.65882 0.90111 0.90744
 C423 C 0.64228 0.84259 0.88846
 C424 C 0.59594 0.82191 0.84145
 C425 C 0.64405 0.77843 0.81737
 H426 H 0.81464 0.88931 0.88780
 H427 H 0.73744 0.95846 0.93024
 H428 H 0.58449 0.85804 0.80560
 H429 H 0.55551 0.79836 0.86516
 H430 H 0.66029 0.78929 0.76767
 H431 H 0.63149 0.72989 0.82757
   
