data_POSCAR
  _audit_creation_date              2014-09-24
  _audit_creation_method            'ToBaCCo'
  _symmetry_space_group_name_H-M    'P1'
  _symmetry_Int_Tables_number       1
  _symmetry_cell_setting            triclinic
  loop_
  _symmetry_equiv_pos_as_xyz
 x,y,z
_cell_length_a 65.4780
_cell_length_b 65.5379
_cell_length_c 52.4461
_cell_angle_alpha 89.993800
_cell_angle_beta 89.985300
_cell_angle_gamma 88.389300
loop_
  _atom_site_label
  _atom_site_type_symbol
  _atom_site_fract_x
  _atom_site_fract_y
  _atom_site_fract_z
O1 O -0.02159 0.29940 0.02537
 O2 O 0.01844 0.30092 -0.02401
 O3 O -0.02139 0.30002 -0.02430
 O4 O 0.01825 0.30027 0.02564
 O5 O 0.01990 0.26653 0.02491
 O6 O -0.01963 0.26628 -0.02490
 O7 O 0.02010 0.26717 -0.02462
 O8 O -0.01984 0.26566 0.02465
 Cu9 Cu -0.00174 0.30357 0.00074
 Cu10 Cu 0.00030 0.26301 -0.00005
 C11 C -0.02750 0.28225 0.03328
 C12 C 0.02607 0.28428 -0.03259
 C13 C -0.02723 0.28308 -0.03297
 C14 C 0.02581 0.28342 0.03363
 O15 O 0.47871 0.80000 0.52447
 O16 O 0.51877 0.80065 0.47508
 O17 O 0.47891 0.79992 0.47481
 O18 O 0.51855 0.80065 0.52473
 O19 O 0.52002 0.76690 0.52471
 O20 O 0.48050 0.76617 0.47492
 O21 O 0.52026 0.76690 0.47518
 O22 O 0.48028 0.76625 0.52447
 Cu23 Cu 0.49858 0.80372 0.49976
 Cu24 Cu 0.50042 0.76316 0.49982
 C25 C 0.47271 0.78300 0.53275
 C26 C 0.52633 0.78386 0.46688
 C27 C 0.47298 0.78290 0.46651
 C28 C 0.52601 0.78387 0.53308
 O29 O 0.98170 0.70072 -0.02634
 O30 O 1.02162 0.70202 0.02320
 O31 O 0.98178 0.70066 0.02336
 O32 O 1.02152 0.70207 -0.02641
 O33 O 1.01936 0.73581 -0.02628
 O34 O 0.97973 0.73440 0.02335
 O35 O 1.01945 0.73576 0.02319
 O36 O 0.97965 0.73446 -0.02621
 Cu37 Cu 1.00185 0.69795 -0.00155
 Cu38 Cu 0.99932 0.73850 -0.00148
 C39 C 0.97391 0.71740 -0.03459
 C40 C 1.02735 0.71914 0.03143
 C41 C 0.97401 0.71732 0.03169
 C42 C 1.02722 0.71921 -0.03464
 O43 O 0.48126 0.19921 0.47641
 O44 O 0.52068 0.19967 0.52660
 O45 O 0.48085 0.19876 0.52609
 O46 O 0.52112 0.20011 0.47697
 O47 O 0.51934 0.23386 0.47750
 O48 O 0.47919 0.23251 0.52648
 O49 O 0.51891 0.23342 0.52700
 O50 O 0.47958 0.23296 0.47693
 Cu51 Cu 0.50114 0.19602 0.50146
 Cu52 Cu 0.49907 0.23658 0.50201
 C53 C 0.47372 0.21603 0.46828
 C54 C 0.52650 0.21665 0.53519
 C55 C 0.47320 0.21544 0.53453
 C56 C 0.52710 0.21725 0.46906
 O57 O 0.70167 0.02082 -0.02375
 O58 O 0.70079 -0.01950 0.02528
 O59 O 0.70170 0.02029 0.02586
 O60 O 0.70077 -0.01902 -0.02442
 O61 O 0.73455 -0.02068 -0.02440
 O62 O 0.73548 0.01852 0.02575
 O63 O 0.73457 -0.02116 0.02516
 O64 O 0.73545 0.01904 -0.02373
 Cu65 Cu 0.69782 0.00080 0.00073
 Cu66 Cu 0.73841 -0.00126 0.00068
 C67 C 0.71874 0.02681 -0.03189
 C68 C 0.71756 -0.02715 0.03346
 C69 C 0.71878 0.02609 0.03420
 C70 C 0.71754 -0.02652 -0.03282
 O71 O 0.20187 0.52109 0.47388
 O72 O 0.20138 0.48167 0.52405
 O73 O 0.20198 0.52151 0.52351
 O74 O 0.20127 0.48128 0.47436
 O75 O 0.23505 0.47988 0.47430
 O76 O 0.23576 0.51999 0.52332
 O77 O 0.23517 0.48026 0.52387
 O78 O 0.23566 0.51959 0.47382
 Cu79 Cu 0.19821 0.50152 0.49897
 Cu80 Cu 0.23881 0.49977 0.49882
 C81 C 0.21887 0.52704 0.46547
 C82 C 0.21822 0.47428 0.53237
 C83 C 0.21902 0.52761 0.53159
 C84 C 0.21807 0.47378 0.46607
 O85 O 0.29805 1.01924 0.02411
 O86 O 0.29747 0.97983 -0.02605
 O87 O 0.29701 1.01969 -0.02554
 O88 O 0.29848 0.97941 0.02361
 O89 O 0.26470 0.98003 0.02463
 O90 O 0.26324 1.02019 -0.02438
 O91 O 0.26370 0.98043 -0.02490
 O92 O 0.26427 1.01975 0.02514
 Cu93 Cu 0.30117 0.99949 -0.00108
 Cu94 Cu 0.26058 1.00016 0.00023
 C95 C 0.28123 1.02619 0.03304
 C96 C 0.28047 0.97344 -0.03386
 C97 C 0.27985 1.02678 -0.03317
 C98 C 0.28181 0.97290 0.03236
 O99 O 0.80017 0.51814 0.52451
 O100 O 0.79962 0.47824 0.47499
 O101 O 0.80010 0.51804 0.47485
 O102 O 0.79960 0.47831 0.52464
 O103 O 0.76581 0.47976 0.52462
 O104 O 0.76631 0.51937 0.47495
 O105 O 0.76584 0.47966 0.47508
 O106 O 0.76638 0.51949 0.52450
 Cu107 Cu 0.80329 0.49805 0.49975
 Cu108 Cu 0.76269 0.49971 0.49980
 C109 C 0.78335 0.52559 0.53279
 C110 C 0.78262 0.47219 0.46673
 C111 C 0.78326 0.52544 0.46655
 C112 C 0.78259 0.47229 0.53295
 C113 C 0.27165 0.28470 0.31185
 C114 C 0.28588 0.26898 0.31278
 C115 C 0.28095 0.25550 0.29348
 N116 N 0.26416 0.26251 0.28092
 C117 C 0.25839 0.28034 0.29208
 C118 C 0.29241 0.23753 0.28743
 C119 C 0.28791 0.22405 0.26720
 C120 C 0.30090 0.20829 0.25902
 C121 C 0.29142 0.19900 0.23894
 C122 C 0.27283 0.20928 0.23529
 N123 N 0.27068 0.22431 0.25289
 C124 C 0.25863 0.20442 0.21600
 C125 C 0.24113 0.21645 0.20953
 C126 C 0.22761 0.21185 0.19012
 C127 C 0.21332 0.22751 0.18928
 C128 C 0.21847 0.24121 0.20823
 N129 N 0.23546 0.23438 0.22052
 C130 C 0.20710 0.25926 0.21417
 C131 C 0.21178 0.27295 0.23411
 C132 C 0.19899 0.28899 0.24195
 C133 C 0.20853 0.29834 0.26194
 C134 C 0.22694 0.28780 0.26590
 N135 N 0.22894 0.27257 0.24854
 C136 C 0.24105 0.29254 0.28535
 H137 H 0.27108 0.29779 0.32445
 H138 H 0.29850 0.26773 0.32606
 H139 H 0.24185 0.26342 0.24557
 H140 H 0.31583 0.20405 0.26650
 H141 H 0.29767 0.18625 0.22806
 H142 H 0.22805 0.19865 0.17771
 H143 H 0.20051 0.22860 0.17625
 H144 H 0.20241 0.31127 0.27259
 H145 H 0.25761 0.23316 0.25621
 H146 H 0.18416 0.29338 0.23430
 C147 C 0.71469 0.72939 0.31222
 C148 C 0.72884 0.71360 0.31119
 C149 C 0.74190 0.71780 0.29115
 N150 N 0.73610 0.73560 0.27994
 C151 C 0.71947 0.74275 0.29273
 C152 C 0.75914 0.70552 0.28426
 C153 C 0.77305 0.71009 0.26450
 C154 C 0.79143 0.69955 0.26041
 C155 C 0.80073 0.70870 0.24009
 C156 C 0.78783 0.72463 0.23219
 N157 N 0.77082 0.72513 0.24692
 C158 C 0.79224 0.73806 0.21188
 C159 C 0.78081 0.75606 0.20587
 C160 C 0.78567 0.76949 0.18648
 C161 C 0.77145 0.78523 0.18744
 C162 C 0.75829 0.78093 0.20734
 N163 N 0.76408 0.76312 0.21852
 C164 C 0.74098 0.79315 0.21413
 C165 C 0.72707 0.78855 0.23387
 C166 C 0.70864 0.79903 0.23792
 C167 C 0.69940 0.78994 0.25832
 C168 C 0.71237 0.77409 0.26630
 N169 N 0.72936 0.77359 0.25154
 C170 C 0.70807 0.76076 0.28675
 H171 H 0.70222 0.73078 0.32572
 H172 H 0.72948 0.70058 0.32389
 H173 H 0.74239 0.76460 0.25457
 H174 H 0.79769 0.68675 0.27118
 H175 H 0.81550 0.70426 0.23227
 H176 H 0.79822 0.76818 0.17310
 H177 H 0.77084 0.79828 0.17479
 H178 H 0.68464 0.79437 0.26616
 H179 H 0.75785 0.73420 0.24397
 H180 H 0.70234 0.81178 0.22709
 C181 C 0.72831 0.28607 0.31261
 C182 C 0.71313 0.27210 0.31211
 C183 C 0.71791 0.25853 0.29255
 N184 N 0.73547 0.26385 0.28111
 C185 C 0.74190 0.28067 0.29328
 C186 C 0.70637 0.24129 0.28633
 C187 C 0.71150 0.22696 0.26698
 C188 C 0.70177 0.20862 0.26354
 C189 C 0.71125 0.19884 0.24342
 C190 C 0.72656 0.21141 0.23500
 N191 N 0.72636 0.22868 0.24920
 C192 C 0.74011 0.20649 0.21470
 C193 C 0.75761 0.21756 0.20824
 C194 C 0.77117 0.21220 0.18887
 C195 C 0.78632 0.22620 0.18933
 C196 C 0.78157 0.23974 0.20893
 N197 N 0.76404 0.23438 0.22041
 C198 C 0.79311 0.25697 0.21517
 C199 C 0.78801 0.27127 0.23456
 C200 C 0.79779 0.28957 0.23808
 C201 C 0.78834 0.29932 0.25824
 C202 C 0.77298 0.28677 0.26660
 N203 N 0.77314 0.26954 0.25233
 C204 C 0.75945 0.29169 0.28691
 H205 H 0.72915 0.29882 0.32564
 H206 H 0.70013 0.27191 0.32486
 H207 H 0.76463 0.25675 0.25571
 H208 H 0.68929 0.20272 0.27461
 H209 H 0.70743 0.18399 0.23608
 H210 H 0.77033 0.19946 0.17583
 H211 H 0.79930 0.22643 0.17656
 H212 H 0.79220 0.31414 0.26565
 H213 H 0.73482 0.24150 0.24576
 H214 H 0.81029 0.29547 0.22705
 C215 C 0.27146 0.71347 0.31137
 C216 C 0.28675 0.72733 0.31076
 C217 C 0.28213 0.74076 0.29100
 N218 N 0.26456 0.73547 0.27957
 C219 C 0.25797 0.71880 0.29193
 C220 C 0.29381 0.75784 0.28456
 C221 C 0.28885 0.77206 0.26502
 C222 C 0.29879 0.79024 0.26131
 C223 C 0.28943 0.79995 0.24106
 C224 C 0.27396 0.78749 0.23283
 N225 N 0.27396 0.77035 0.24727
 C226 C 0.26046 0.79241 0.21251
 C227 C 0.24280 0.78151 0.20626
 C228 C 0.22923 0.78693 0.18694
 C229 C 0.21392 0.77311 0.18760
 C230 C 0.21861 0.75960 0.20727
 N231 N 0.23624 0.76482 0.21860
 C232 C 0.20693 0.74251 0.21367
 C233 C 0.21195 0.72823 0.23312
 C234 C 0.20208 0.70999 0.23672
 C235 C 0.21148 0.70025 0.25692
 C236 C 0.22689 0.71275 0.26523
 N237 N 0.22683 0.72994 0.25088
 C238 C 0.24037 0.70784 0.28559
 H239 H 0.27050 0.70083 0.32456
 H240 H 0.29972 0.72754 0.32353
 H241 H 0.23538 0.74271 0.25421
 H242 H 0.31134 0.79610 0.27227
 H243 H 0.29342 0.81468 0.23351
 H244 H 0.23017 0.79961 0.17380
 H245 H 0.20090 0.77297 0.17491
 H246 H 0.20755 0.68547 0.26439
 H247 H 0.26534 0.75761 0.24404
 H248 H 0.18956 0.70413 0.22571
 C249 C 0.78759 0.22775 0.81151
 C250 C 0.77251 0.21370 0.81259
 C251 C 0.75868 0.21876 0.79341
 N252 N 0.76486 0.23545 0.78076
 C253 C 0.78252 0.24102 0.79175
 C254 C 0.74112 0.20755 0.78760
 C255 C 0.72731 0.21214 0.76748
 C256 C 0.71190 0.19943 0.75971
 C257 C 0.70215 0.20888 0.73956
 C258 C 0.71180 0.22718 0.73545
 N259 N 0.72689 0.22919 0.75286
 C260 C 0.70638 0.24123 0.71589
 C261 C 0.71778 0.25841 0.70901
 C262 C 0.71273 0.27166 0.68922
 C263 C 0.72783 0.28569 0.68812
 C264 C 0.74165 0.28064 0.70731
 N265 N 0.73544 0.26397 0.71999
 C266 C 0.75919 0.29186 0.71314
 C267 C 0.77297 0.28728 0.73330
 C268 C 0.78831 0.30005 0.74115
 C269 C 0.79805 0.29061 0.76132
 C270 C 0.78845 0.27228 0.76536
 N271 N 0.77341 0.27022 0.74789
 C272 C 0.79387 0.25824 0.78494
 H273 H 0.80073 0.22819 0.82400
 H274 H 0.77190 0.20112 0.82591
 H275 H 0.76499 0.25731 0.74490
 H276 H 0.70821 0.18469 0.76751
 H277 H 0.68953 0.20280 0.72892
 H278 H 0.69958 0.27123 0.67674
 H279 H 0.72846 0.29827 0.67478
 H280 H 0.81061 0.29674 0.77202
 H281 H 0.73538 0.24207 0.75578
 H282 H 0.79198 0.31481 0.73339
 C283 C 0.27214 0.71381 0.68781
 C284 C 0.28612 0.72897 0.68711
 C285 C 0.28082 0.74260 0.70640
 N286 N 0.26406 0.73621 0.71877
 C287 C 0.25867 0.71863 0.70747
 C288 C 0.29190 0.76014 0.71261
 C289 C 0.28704 0.77375 0.73284
 C290 C 0.29967 0.78907 0.74110
 C291 C 0.28993 0.79866 0.76116
 C292 C 0.27155 0.78900 0.76472
 N293 N 0.26977 0.77406 0.74707
 C294 C 0.25721 0.79429 0.78400
 C295 C 0.23994 0.78283 0.79037
 C296 C 0.22633 0.78780 0.80983
 C297 C 0.21234 0.77264 0.81053
 C298 C 0.21777 0.75888 0.79142
 N299 N 0.23463 0.76518 0.77920
 C300 C 0.20674 0.74128 0.78530
 C301 C 0.21169 0.72755 0.76522
 C302 C 0.19917 0.71207 0.75715
 C303 C 0.20893 0.70247 0.73710
 C304 C 0.22720 0.71228 0.73335
 N305 N 0.22890 0.72731 0.75089
 C306 C 0.24147 0.70710 0.71394
 H307 H 0.27189 0.70078 0.67514
 H308 H 0.29882 0.72977 0.67395
 H309 H 0.24167 0.73592 0.75405
 H310 H 0.31453 0.79281 0.73367
 H311 H 0.29587 0.81118 0.77209
 H312 H 0.22651 0.80091 0.82237
 H313 H 0.19956 0.77194 0.82355
 H314 H 0.20305 0.68985 0.72628
 H315 H 0.25691 0.76564 0.74371
 H316 H 0.18437 0.70824 0.76468
 C317 C 0.21269 0.23095 0.81320
 C318 C 0.22666 0.21500 0.81225
 C319 C 0.23989 0.21907 0.79233
 N320 N 0.23434 0.23693 0.78110
 C321 C 0.21773 0.24426 0.79377
 C322 C 0.25700 0.20657 0.78555
 C323 C 0.27114 0.21103 0.76600
 C324 C 0.28939 0.20021 0.76201
 C325 C 0.29904 0.20938 0.74196
 C326 C 0.28648 0.22560 0.73413
 N327 N 0.26934 0.22625 0.74861
 C328 C 0.29134 0.23919 0.71414
 C329 C 0.28019 0.25736 0.70813
 C330 C 0.28551 0.27093 0.68911
 C331 C 0.27139 0.28676 0.68988
 C332 C 0.25783 0.28239 0.70932
 N333 N 0.26327 0.26443 0.72039
 C334 C 0.24047 0.29465 0.71576
 C335 C 0.22625 0.29006 0.73516
 C336 C 0.20780 0.30059 0.73884
 C337 C 0.19828 0.29154 0.75907
 C338 C 0.21110 0.27566 0.76730
 N339 N 0.22828 0.27510 0.75288
 C340 C 0.20653 0.26238 0.78770
 H341 H 0.20016 0.23246 0.82660
 H342 H 0.22708 0.20197 0.82494
 H343 H 0.24126 0.26611 0.75620
 H344 H 0.29533 0.18721 0.77268
 H345 H 0.31380 0.20476 0.73429
 H346 H 0.29831 0.26966 0.67608
 H347 H 0.27112 0.29993 0.67742
 H348 H 0.18344 0.29602 0.76663
 H349 H 0.25657 0.23561 0.74567
 H350 H 0.20168 0.31336 0.72790
 C351 C 0.77222 0.78650 0.81038
 C352 C 0.78668 0.77099 0.81113
 C353 C 0.78166 0.75730 0.79211
 N354 N 0.76458 0.76397 0.77989
 C355 C 0.75874 0.78181 0.79098
 C356 C 0.79324 0.73940 0.78606
 C357 C 0.78878 0.72579 0.76595
 C358 C 0.80181 0.70999 0.75794
 C359 C 0.79247 0.70071 0.73776
 C360 C 0.77393 0.71101 0.73387
 N361 N 0.77166 0.72605 0.75145
 C362 C 0.75996 0.70629 0.71424
 C363 C 0.74239 0.71822 0.70775
 C364 C 0.72921 0.71382 0.68790
 C365 C 0.71466 0.72925 0.68729
 C366 C 0.71933 0.74261 0.70681
 N367 N 0.73627 0.73580 0.71923
 C368 C 0.70755 0.76030 0.71319
 C369 C 0.71190 0.77374 0.73351
 C370 C 0.69869 0.78925 0.74190
 C371 C 0.70811 0.79863 0.76195
 C372 C 0.72688 0.78864 0.76539
 N373 N 0.72920 0.77371 0.74768
 C374 C 0.74109 0.79366 0.78460
 H375 H 0.77164 0.79967 0.82284
 H376 H 0.79951 0.77001 0.82413
 H377 H 0.74241 0.76511 0.74420
 H378 H 0.81669 0.70575 0.76558
 H379 H 0.79881 0.68797 0.72695
 H380 H 0.73004 0.70089 0.67506
 H381 H 0.70200 0.73040 0.67404
 H382 H 0.70171 0.81123 0.77296
 H383 H 0.75863 0.73502 0.75449
 H384 H 0.68366 0.79328 0.73455
 C385 C 0.28130 0.04092 0.05121
 C386 C 0.28102 0.05417 0.06717
 C387 C 0.28023 0.07018 0.08595
 C388 C 0.29051 0.08831 0.08170
 C389 C 0.28890 0.10428 0.09932
 C390 C 0.27691 0.10235 0.12142
 C391 C 0.26689 0.08394 0.12570
 C392 C 0.26854 0.06798 0.10807
 C393 C 0.27431 0.11970 0.13946
 C394 C 0.25502 0.12449 0.15006
 C395 C 0.25235 0.14127 0.16627
 C396 C 0.26888 0.15348 0.17216
 C397 C 0.28819 0.14873 0.16196
 C398 C 0.29091 0.13195 0.14570
 C399 C 0.26579 0.17122 0.18798
 C400 C 0.26277 0.18623 0.20089
 H401 H 0.29952 0.09022 0.06457
 H402 H 0.29657 0.11834 0.09531
 H403 H 0.25776 0.08188 0.14268
 H404 H 0.26052 0.05401 0.11155
 H405 H 0.24189 0.11555 0.14533
 H406 H 0.23731 0.14489 0.17394
 H407 H 0.30110 0.15809 0.16640
 H408 H 0.30598 0.12852 0.13807
 C409 C 0.78344 0.54144 0.55163
 C410 C 0.78322 0.55500 0.56717
 C411 C 0.78259 0.57144 0.58536
 C412 C 0.76958 0.57064 0.60649
 C413 C 0.76817 0.58706 0.62346
 C414 C 0.77974 0.60455 0.61947
 C415 C 0.79302 0.60507 0.59839
 C416 C 0.79441 0.58862 0.58145
 C417 C 0.77747 0.62243 0.63675
 C418 C 0.77668 0.64236 0.62674
 C419 C 0.77381 0.65918 0.64284
 C420 C 0.77172 0.65634 0.66914
 C421 C 0.77269 0.63661 0.67934
 C422 C 0.77554 0.61974 0.66326
 C423 C 0.76797 0.67369 0.68545
 C424 C 0.76451 0.68840 0.69873
 H425 H 0.76028 0.55745 0.60962
 H426 H 0.75762 0.58631 0.63932
 H427 H 0.80231 0.61820 0.59499
 H428 H 0.80454 0.58940 0.56516
 H429 H 0.77781 0.64492 0.60640
 H430 H 0.77296 0.67439 0.63474
 H431 H 0.77109 0.63425 0.69968
 H432 H 0.77631 0.60461 0.67156
 C433 C 0.71739 0.95784 0.05128
 C434 C 0.71762 0.94436 0.06693
 C435 C 0.71840 0.92809 0.08537
 C436 C 0.70953 0.90943 0.07985
 C437 C 0.71122 0.89326 0.09718
 C438 C 0.72187 0.89554 0.12027
 C439 C 0.73047 0.91448 0.12580
 C440 C 0.72874 0.93063 0.10845
 C441 C 0.72458 0.87805 0.13807
 C442 C 0.74350 0.87424 0.15014
 C443 C 0.74634 0.85736 0.16616
 C444 C 0.73033 0.84409 0.17040
 C445 C 0.71137 0.84785 0.15873
 C446 C 0.70850 0.86472 0.14266
 C447 C 0.73362 0.82631 0.18611
 C448 C 0.73676 0.81130 0.19898
 H449 H 0.70159 0.90726 0.06197
 H450 H 0.70467 0.87880 0.09221
 H451 H 0.73853 0.91679 0.14354
 H452 H 0.73567 0.94502 0.11292
 H453 H 0.75626 0.88403 0.14671
 H454 H 0.76111 0.85453 0.17499
 H455 H 0.69887 0.83766 0.16189
 H456 H 0.69370 0.86737 0.13387
 C457 C 0.21817 0.45867 0.55153
 C458 C 0.21850 0.44535 0.56740
 C459 C 0.21933 0.42924 0.58605
 C460 C 0.20898 0.41117 0.58173
 C461 C 0.21061 0.39510 0.59922
 C462 C 0.22270 0.39689 0.62126
 C463 C 0.23280 0.41524 0.62561
 C464 C 0.23113 0.43129 0.60810
 C465 C 0.22527 0.37945 0.63918
 C466 C 0.24457 0.37453 0.64966
 C467 C 0.24720 0.35770 0.66581
 C468 C 0.23060 0.34558 0.67176
 C469 C 0.21129 0.35046 0.66168
 C470 C 0.20862 0.36729 0.64548
 C471 C 0.23361 0.32783 0.68760
 C472 C 0.23652 0.31283 0.70056
 H473 H 0.19990 0.40938 0.56465
 H474 H 0.20287 0.38109 0.59517
 H475 H 0.24200 0.41717 0.64254
 H476 H 0.23921 0.44521 0.61164
 H477 H 0.25774 0.38340 0.64489
 H478 H 0.26224 0.35399 0.67340
 H479 H 0.19833 0.34118 0.66618
 H480 H 0.19354 0.37082 0.63795
 C481 C 0.95668 0.28153 0.05216
 C482 C 0.94324 0.28059 0.06780
 C483 C 0.92704 0.27908 0.08620
 C484 C 0.90960 0.29183 0.08433
 C485 C 0.89348 0.28975 0.10154
 C486 C 0.89458 0.27482 0.12083
 C487 C 0.91230 0.26226 0.12274
 C488 C 0.92841 0.26438 0.10553
 C489 C 0.87711 0.27200 0.13843
 C490 C 0.87112 0.25225 0.14513
 C491 C 0.85436 0.24953 0.16115
 C492 C 0.84337 0.26646 0.17073
 C493 C 0.84927 0.28618 0.16434
 C494 C 0.86603 0.28895 0.14828
 C495 C 0.82582 0.26351 0.18666
 C496 C 0.81101 0.26071 0.19975
 H497 H 0.90834 0.30319 0.06936
 H498 H 0.87994 0.29947 0.09937
 H499 H 0.91372 0.25082 0.13758
 H500 H 0.94185 0.25444 0.10716
 H501 H 0.87913 0.23890 0.13756
 H502 H 0.84985 0.23420 0.16587
 H503 H 0.84087 0.29939 0.17168
 H504 H 0.87040 0.30433 0.14369
 C505 C 0.45689 0.78262 0.55164
 C506 C 0.44343 0.78199 0.56729
 C507 C 0.42719 0.78086 0.58567
 C508 C 0.40955 0.79323 0.58298
 C509 C 0.39336 0.79145 0.60015
 C510 C 0.39459 0.77721 0.62022
 C511 C 0.41252 0.76506 0.62297
 C512 C 0.42869 0.76687 0.60579
 C513 C 0.37702 0.77462 0.63772
 C514 C 0.37133 0.75498 0.64529
 C515 C 0.35441 0.75243 0.66109
 C516 C 0.34296 0.76945 0.66958
 C517 C 0.34858 0.78907 0.66237
 C518 C 0.36550 0.79166 0.64653
 C519 C 0.32515 0.76664 0.68511
 C520 C 0.31011 0.76389 0.69778
 H521 H 0.40819 0.80403 0.56739
 H522 H 0.37967 0.80083 0.59733
 H523 H 0.41403 0.75415 0.63841
 H524 H 0.44229 0.75723 0.60806
 H525 H 0.37968 0.74155 0.63853
 H526 H 0.35011 0.73717 0.66645
 H527 H 0.33982 0.80235 0.66885
 H528 H 0.36964 0.80697 0.64125
 C529 C 0.04335 0.71985 0.05004
 C530 C 0.05707 0.72091 0.06527
 C531 C 0.07373 0.72273 0.08294
 C532 C 0.07398 0.71182 0.10589
 C533 C 0.09017 0.71387 0.12304
 C534 C 0.10629 0.72692 0.11743
 C535 C 0.10591 0.73773 0.09424
 C536 C 0.08975 0.73564 0.07715
 C537 C 0.12344 0.72934 0.13560
 C538 C 0.13161 0.74869 0.13981
 C539 C 0.14813 0.75095 0.15630
 C540 C 0.15672 0.73395 0.16887
 C541 C 0.14859 0.71466 0.16507
 C542 C 0.13202 0.71236 0.14856
 C543 C 0.17418 0.73637 0.18511
 C544 C 0.18897 0.73890 0.19830
 H545 H 0.06163 0.70182 0.11059
 H546 H 0.08993 0.70552 0.14084
 H547 H 0.11823 0.74763 0.08918
 H548 H 0.08974 0.74411 0.05941
 H549 H 0.12515 0.76210 0.13043
 H550 H 0.15430 0.76595 0.15915
 H551 H 0.15518 0.70139 0.17464
 H552 H 0.12621 0.69724 0.14551
 C553 C 0.54217 0.21698 0.55428
 C554 C 0.55553 0.21762 0.57004
 C555 C 0.57170 0.21881 0.58852
 C556 C 0.58980 0.20724 0.58525
 C557 C 0.60593 0.20917 0.60247
 C558 C 0.60417 0.22276 0.62318
 C559 C 0.58578 0.23410 0.62651
 C560 C 0.56968 0.23213 0.60927
 C561 C 0.62165 0.22557 0.64075
 C562 C 0.62655 0.24522 0.64919
 C563 C 0.64341 0.24801 0.66502
 C564 C 0.65558 0.23122 0.67268
 C565 C 0.65074 0.21159 0.66461
 C566 C 0.63389 0.20876 0.64874
 C567 C 0.67331 0.23431 0.68824
 C568 C 0.68828 0.23726 0.70096
 H569 H 0.59158 0.19697 0.56916
 H570 H 0.61997 0.20043 0.59921
 H571 H 0.58387 0.24448 0.64243
 H572 H 0.55573 0.24116 0.61198
 H573 H 0.61763 0.25850 0.64307
 H574 H 0.64709 0.26329 0.67104
 H575 H 0.66006 0.19849 0.67045
 H576 H 0.63037 0.19343 0.64279
 C577 C 0.71928 0.04297 0.94971
 C578 C 0.72019 0.05683 0.93467
 C579 C 0.72181 0.07367 0.91724
 C580 C 0.73318 0.09055 0.92419
 C581 C 0.73517 0.10686 0.90731
 C582 C 0.72581 0.10651 0.88317
 C583 C 0.71427 0.08954 0.87641
 C584 C 0.71232 0.07321 0.89335
 C585 C 0.72822 0.12378 0.86518
 C586 C 0.71159 0.13123 0.85058
 C587 C 0.71385 0.14786 0.83418
 C588 C 0.73275 0.15719 0.83213
 C589 C 0.74941 0.14974 0.84636
 C590 C 0.74720 0.13316 0.86275
 C591 C 0.73509 0.17468 0.81594
 C592 C 0.73756 0.18952 0.80283
 H593 H 0.74054 0.09110 0.94267
 H594 H 0.74388 0.11983 0.91324
 H595 H 0.70706 0.08875 0.85787
 H596 H 0.70352 0.06019 0.88776
 H597 H 0.69675 0.12447 0.85223
 H598 H 0.70083 0.15356 0.82330
 H599 H 0.76412 0.15683 0.84487
 H600 H 0.76036 0.12759 0.87343
 C601 C 0.21921 0.54272 0.44640
 C602 C 0.21986 0.55610 0.43066
 C603 C 0.22104 0.57229 0.41223
 C604 C 0.23987 0.57682 0.40130
 C605 C 0.24129 0.59305 0.38416
 C606 C 0.22386 0.60502 0.37774
 C607 C 0.20495 0.60020 0.38863
 C608 C 0.20356 0.58394 0.40577
 C609 C 0.22558 0.62276 0.36031
 C610 C 0.21493 0.64124 0.36553
 C611 C 0.21726 0.65822 0.34977
 C612 C 0.23021 0.65696 0.32857
 C613 C 0.24064 0.63857 0.32299
 C614 C 0.23834 0.62157 0.33873
 C615 C 0.23338 0.67472 0.31310
 C616 C 0.23638 0.68970 0.30045
 H617 H 0.25352 0.56798 0.40628
 H618 H 0.25612 0.59654 0.37642
 H619 H 0.19122 0.60898 0.38384
 H620 H 0.18890 0.58056 0.41412
 H621 H 0.20521 0.64273 0.38217
 H622 H 0.20920 0.67242 0.35433
 H623 H 0.25070 0.63743 0.30662
 H624 H 0.24654 0.60749 0.33403
 C625 C 0.28011 0.95781 0.94701
 C626 C 0.27947 0.94450 0.93119
 C627 C 0.27830 0.92841 0.91262
 C628 C 0.26421 0.93003 0.89261
 C629 C 0.26233 0.91399 0.87529
 C630 C 0.27452 0.89607 0.87777
 C631 C 0.28886 0.89471 0.89772
 C632 C 0.29070 0.91078 0.91504
 C633 C 0.27185 0.87863 0.86011
 C634 C 0.28887 0.86719 0.85106
 C635 C 0.28622 0.85041 0.83504
 C636 C 0.26656 0.84483 0.82789
 C637 C 0.24956 0.85620 0.83663
 C638 C 0.25216 0.87298 0.85260
 C639 C 0.26370 0.82719 0.81211
 C640 C 0.26094 0.81230 0.79919
 H641 H 0.25453 0.94362 0.89056
 H642 H 0.25134 0.91560 0.85994
 H643 H 0.29827 0.88103 0.90033
 H644 H 0.30158 0.90931 0.93054
 H645 H 0.30422 0.87129 0.85627
 H646 H 0.29949 0.84171 0.82836
 H647 H 0.23426 0.85194 0.83131
 H648 H 0.23875 0.88128 0.85954
 C649 C 0.78228 0.45642 0.44780
 C650 C 0.78168 0.44300 0.43212
 C651 C 0.78058 0.42680 0.41370
 C652 C 0.79275 0.40906 0.41656
 C653 C 0.79097 0.39291 0.39936
 C654 C 0.77692 0.39429 0.37909
 C655 C 0.76497 0.41232 0.37616
 C656 C 0.76679 0.42846 0.39337
 C657 C 0.77429 0.37675 0.36157
 C658 C 0.75463 0.37129 0.35373
 C659 C 0.75203 0.35439 0.33795
 C660 C 0.76901 0.34274 0.32974
 C661 C 0.78865 0.34814 0.33721
 C662 C 0.79129 0.36504 0.35304
 C663 C 0.76613 0.32494 0.31427
 C664 C 0.76330 0.30990 0.30166
 H665 H 0.80340 0.40758 0.43231
 H666 H 0.80019 0.37914 0.40232
 H667 H 0.75422 0.41395 0.36056
 H668 H 0.75730 0.44213 0.39097
 H669 H 0.74122 0.37980 0.36028
 H670 H 0.73675 0.35027 0.33239
 H671 H 0.80190 0.33921 0.33095
 H672 H 0.80662 0.36900 0.35852
 C673 C 0.04110 0.28471 0.94961
 C674 C 0.05465 0.28479 0.93405
 C675 C 0.07109 0.28448 0.91581
 C676 C 0.08802 0.29667 0.91962
 C677 C 0.10450 0.29556 0.90268
 C678 C 0.10427 0.28218 0.88169
 C679 C 0.08701 0.27024 0.87779
 C680 C 0.07056 0.27137 0.89477
 C681 C 0.12222 0.28015 0.86447
 C682 C 0.11962 0.27794 0.83798
 C683 C 0.13657 0.27519 0.82198
 C684 C 0.15631 0.27461 0.83223
 C685 C 0.15906 0.27703 0.85850
 C686 C 0.14216 0.27980 0.87452
 C687 C 0.17375 0.27080 0.81605
 C688 C 0.18854 0.26719 0.80294
 H689 H 0.08859 0.30688 0.93584
 H690 H 0.11744 0.30514 0.90600
 H691 H 0.08648 0.25960 0.86203
 H692 H 0.05757 0.26178 0.89173
 H693 H 0.10449 0.27837 0.82964
 H694 H 0.13428 0.27333 0.80166
 H695 H 0.17427 0.27647 0.86666
 H696 H 0.14466 0.28114 0.89485
 C697 C 0.54227 0.78400 0.44813
 C698 C 0.55590 0.78381 0.43268
 C699 C 0.57244 0.78322 0.41460
 C700 C 0.57196 0.76992 0.39375
 C701 C 0.58849 0.76857 0.37690
 C702 C 0.60577 0.78050 0.38073
 C703 C 0.60596 0.79405 0.40154
 C704 C 0.58941 0.79538 0.41836
 C705 C 0.62375 0.77832 0.36359
 C706 C 0.64367 0.77803 0.37369
 C707 C 0.66060 0.77521 0.35772
 C708 C 0.65789 0.77269 0.33146
 C709 C 0.63817 0.77319 0.32116
 C710 C 0.62119 0.77598 0.33711
 C711 C 0.67535 0.76893 0.31531
 C712 C 0.69012 0.76541 0.30215
 H713 H 0.55895 0.76035 0.39074
 H714 H 0.58799 0.75781 0.36127
 H715 H 0.61892 0.80361 0.40482
 H716 H 0.58994 0.80573 0.43444
 H717 H 0.64614 0.77948 0.39401
 H718 H 0.67580 0.77473 0.36591
 H719 H 0.63590 0.77124 0.30086
 H720 H 0.60607 0.77637 0.32874
 C721 C 0.95898 0.71707 0.94749
 C722 C 0.94554 0.71717 0.93178
 C723 C 0.92928 0.71780 0.91332
 C724 C 0.91100 0.70799 0.91837
 C725 C 0.89477 0.70955 0.90110
 C726 C 0.89659 0.72101 0.87856
 C727 C 0.91516 0.73054 0.87346
 C728 C 0.93137 0.72894 0.89075
 C729 C 0.87898 0.72360 0.86090
 C730 C 0.87440 0.74274 0.84980
 C731 C 0.85738 0.74544 0.83398
 C732 C 0.84471 0.72907 0.82898
 C733 C 0.84924 0.70991 0.83967
 C734 C 0.86626 0.70718 0.85554
 C735 C 0.82675 0.73220 0.81352
 C736 C 0.81159 0.73525 0.80089
 H737 H 0.90917 0.69943 0.93585
 H738 H 0.88060 0.70227 0.90573
 H739 H 0.91712 0.73924 0.85613
 H740 H 0.94546 0.73660 0.88666
 H741 H 0.88370 0.75575 0.85385
 H742 H 0.85394 0.76037 0.82592
 H743 H 0.83953 0.69714 0.83591
 H744 H 0.86952 0.69222 0.86357
 C745 C 0.45805 0.21598 0.44917
 C746 C 0.44467 0.21629 0.43338
 C747 C 0.42843 0.21707 0.41488
 C748 C 0.41509 0.20084 0.41274
 C749 C 0.39875 0.20204 0.39558
 C750 C 0.39554 0.21952 0.38035
 C751 C 0.40921 0.23563 0.38242
 C752 C 0.42552 0.23440 0.39959
 C753 C 0.37768 0.22127 0.36295
 C754 C 0.37955 0.23021 0.33869
 C755 C 0.36249 0.23268 0.32283
 C756 C 0.34337 0.22625 0.33098
 C757 C 0.34140 0.21708 0.35492
 C758 C 0.35843 0.21458 0.37080
 C759 C 0.32561 0.22977 0.31526
 C760 C 0.31060 0.23310 0.30244
 H761 H 0.41720 0.18735 0.42449
 H762 H 0.38863 0.18930 0.39421
 H763 H 0.40699 0.24941 0.37125
 H764 H 0.43569 0.24710 0.40120
 H765 H 0.39420 0.23529 0.33199
 H766 H 0.36418 0.23980 0.30433
 H767 H 0.32664 0.21215 0.36147
 H768 H 0.35642 0.20791 0.38949
 C769 C 0.71734 0.95788 0.94800
 C770 C 0.71758 0.94456 0.93215
 C771 C 0.71836 0.92843 0.91353
 C772 C 0.70903 0.90992 0.91860
 C773 C 0.71073 0.89383 0.90116
 C774 C 0.72185 0.89604 0.87841
 C775 C 0.73091 0.91483 0.87331
 C776 C 0.72917 0.93090 0.89077
 C777 C 0.72458 0.87860 0.86054
 C778 C 0.74367 0.87448 0.84903
 C779 C 0.74652 0.85762 0.83300
 C780 C 0.73035 0.84465 0.82820
 C781 C 0.71123 0.84872 0.83931
 C782 C 0.70835 0.86558 0.85539
 C783 C 0.73364 0.82685 0.81252
 C784 C 0.73681 0.81183 0.79969
 H785 H 0.70072 0.90780 0.93624
 H786 H 0.70382 0.87948 0.90580
 H787 H 0.73935 0.91709 0.85582
 H788 H 0.73646 0.94517 0.88665
 H789 H 0.75654 0.88402 0.85291
 H790 H 0.76142 0.85453 0.82461
 H791 H 0.69861 0.83877 0.83571
 H792 H 0.69342 0.86848 0.86374
 C793 C 0.21796 0.45794 0.44722
 C794 C 0.21829 0.44446 0.43157
 C795 C 0.21917 0.42819 0.41314
 C796 C 0.23103 0.43005 0.39111
 C797 C 0.23278 0.41385 0.37384
 C798 C 0.22269 0.39553 0.37840
 C799 C 0.21052 0.39393 0.40040
 C800 C 0.20880 0.41015 0.41766
 C801 C 0.22536 0.37793 0.36075
 C802 C 0.20876 0.36567 0.35455
 C803 C 0.21153 0.34871 0.33860
 C804 C 0.23089 0.34378 0.32868
 C805 C 0.24744 0.35598 0.33455
 C806 C 0.24471 0.37295 0.35044
 C807 C 0.23399 0.32591 0.31309
 C808 C 0.23699 0.31081 0.30034
 H809 H 0.23912 0.44395 0.38742
 H810 H 0.24204 0.41564 0.35693
 H811 H 0.20277 0.37995 0.40462
 H812 H 0.19966 0.40851 0.43472
 H813 H 0.19364 0.36925 0.36195
 H814 H 0.19861 0.33936 0.33417
 H815 H 0.26251 0.35224 0.32709
 H816 H 0.25784 0.38189 0.35515
 C817 C 0.27915 0.04190 0.94914
 C818 C 0.27809 0.05552 0.93371
 C819 C 0.27628 0.07201 0.91565
 C820 C 0.25920 0.08530 0.91651
 C821 C 0.25729 0.10141 0.89917
 C822 C 0.27246 0.10447 0.88066
 C823 C 0.28961 0.09103 0.87994
 C824 C 0.29148 0.07489 0.89733
 C825 C 0.27041 0.12173 0.86240
 C826 C 0.28740 0.13341 0.85604
 C827 C 0.28520 0.15018 0.83966
 C828 C 0.26604 0.15543 0.82938
 C829 C 0.24914 0.14373 0.83528
 C830 C 0.25129 0.12699 0.85165
 C831 C 0.26346 0.17322 0.81351
 C832 C 0.26079 0.18828 0.80061
 H833 H 0.24738 0.08326 0.93068
 H834 H 0.24407 0.11167 0.90049
 H835 H 0.30143 0.09287 0.86576
 H836 H 0.30475 0.06466 0.89647
 H837 H 0.30226 0.12990 0.86424
 H838 H 0.29837 0.15920 0.83530
 H839 H 0.23424 0.14766 0.82742
 H840 H 0.23799 0.11813 0.85587
 C841 C 0.78329 0.54113 0.44749
 C842 C 0.78289 0.55449 0.43169
 C843 C 0.78192 0.57064 0.41310
 C844 C 0.79237 0.58867 0.41729
 C845 C 0.79055 0.60479 0.39990
 C846 C 0.77818 0.60310 0.37810
 C847 C 0.76799 0.58478 0.37387
 C848 C 0.76985 0.56868 0.39126
 C849 C 0.77538 0.62060 0.36033
 C850 C 0.75594 0.62558 0.35030
 C851 C 0.75310 0.64245 0.33428
 C852 C 0.76963 0.65456 0.32801
 C853 C 0.78907 0.64965 0.33767
 C854 C 0.79195 0.63278 0.35374
 C855 C 0.76642 0.67234 0.31227
 C856 C 0.76332 0.68735 0.29939
 H857 H 0.80166 0.59039 0.43420
 H858 H 0.79837 0.61878 0.40387
 H859 H 0.75858 0.58292 0.35710
 H860 H 0.76170 0.55478 0.38783
 H861 H 0.74283 0.61670 0.35532
 H862 H 0.73796 0.64620 0.32702
 H863 H 0.80197 0.65893 0.33292
 H864 H 0.80713 0.62920 0.36094
 C865 C 0.04225 0.71991 0.94760
 C866 C 0.05584 0.72094 0.93218
 C867 C 0.07233 0.72273 0.91425
 C868 C 0.08624 0.73837 0.91717
 C869 C 0.10235 0.74026 0.89995
 C870 C 0.10478 0.72650 0.87951
 C871 C 0.09074 0.71078 0.87674
 C872 C 0.07460 0.70893 0.89400
 C873 C 0.12201 0.72855 0.86135
 C874 C 0.13309 0.71121 0.85262
 C875 C 0.14984 0.71331 0.83634
 C876 C 0.15566 0.73272 0.82854
 C877 C 0.14454 0.75002 0.83680
 C878 C 0.12782 0.74797 0.85306
 C879 C 0.17343 0.73509 0.81282
 C880 C 0.18849 0.73762 0.80009
 H881 H 0.08468 0.74908 0.93284
 H882 H 0.11308 0.75232 0.90285
 H883 H 0.09210 0.70009 0.86105
 H884 H 0.06389 0.69678 0.89155
 H885 H 0.12913 0.69608 0.85887
 H886 H 0.15841 0.69982 0.83014
 H887 H 0.14891 0.76512 0.83086
 H888 H 0.11942 0.76158 0.85914
 C889 C 0.54319 0.21796 0.45055
 C890 C 0.55696 0.21901 0.43539
 C891 C 0.57366 0.22082 0.41776
 C892 C 0.58998 0.23322 0.42393
 C893 C 0.60614 0.23536 0.40684
 C894 C 0.60621 0.22510 0.38327
 C895 C 0.58980 0.21254 0.37729
 C896 C 0.57361 0.21044 0.39443
 C897 C 0.62333 0.22764 0.36505
 C898 C 0.63151 0.21083 0.35137
 C899 C 0.64799 0.21324 0.33475
 C900 C 0.65644 0.23245 0.33156
 C901 C 0.64826 0.24928 0.34486
 C902 C 0.63182 0.24691 0.36147
 C903 C 0.67380 0.23497 0.31514
 C904 C 0.68851 0.23758 0.30183
 H905 H 0.59021 0.24128 0.44197
 H906 H 0.61870 0.24488 0.41218
 H907 H 0.58932 0.20462 0.35919
 H908 H 0.56102 0.20084 0.38944
 H909 H 0.62545 0.19577 0.35392
 H910 H 0.65427 0.20009 0.32461
 H911 H 0.65467 0.26423 0.34249
 H912 H 0.62567 0.26020 0.37141
 C913 C 0.95710 0.28282 0.94795
 C914 C 0.94377 0.28221 0.93214
 C915 C 0.92768 0.28104 0.91355
 C916 C 0.93011 0.26830 0.89230
 C917 C 0.91411 0.26633 0.87491
 C918 C 0.89543 0.27709 0.87858
 C919 C 0.89326 0.29011 0.89980
 C920 C 0.90928 0.29204 0.91718
 C921 C 0.87808 0.27425 0.86082
 C922 C 0.86544 0.29093 0.85341
 C923 C 0.84871 0.28805 0.83736
 C924 C 0.84441 0.26849 0.82852
 C925 C 0.85699 0.25184 0.83560
 C926 C 0.87373 0.25468 0.85160
 C927 C 0.82678 0.26532 0.81281
 C928 C 0.81189 0.26229 0.79998
 H929 H 0.94429 0.25972 0.88931
 H930 H 0.91634 0.25639 0.85859
 H931 H 0.87900 0.29839 0.90333
 H932 H 0.90720 0.30187 0.93364
 H933 H 0.86853 0.30620 0.85996
 H934 H 0.83905 0.30105 0.83199
 H935 H 0.85372 0.23661 0.82898
 H936 H 0.88297 0.24149 0.85725
 C937 C 0.45727 0.78244 0.44748
 C938 C 0.44390 0.78166 0.43174
 C939 C 0.42776 0.78027 0.41326
 C940 C 0.41001 0.79251 0.41568
 C941 C 0.39391 0.79043 0.39846
 C942 C 0.39534 0.77601 0.37861
 C943 C 0.41338 0.76398 0.37613
 C944 C 0.42946 0.76610 0.39336
 C945 C 0.37788 0.77312 0.36102
 C946 C 0.37239 0.75337 0.35367
 C947 C 0.35562 0.75056 0.33770
 C948 C 0.34413 0.76742 0.32883
 C949 C 0.34954 0.78715 0.33586
 C950 C 0.36631 0.79000 0.35187
 C951 C 0.32655 0.76438 0.31298
 C952 C 0.31174 0.76155 0.29995
 H953 H 0.40849 0.80345 0.43111
 H954 H 0.38013 0.79973 0.40106
 H955 H 0.41505 0.75294 0.36086
 H956 H 0.44314 0.75655 0.39131
 H957 H 0.38079 0.74006 0.36069
 H958 H 0.35149 0.73522 0.33247
 H959 H 0.34075 0.80031 0.32908
 H960 H 0.37029 0.80539 0.35698
 C961 C 0.28220 0.95702 0.05118
 C962 C 0.28210 0.94351 0.06678
 C963 C 0.28147 0.92723 0.08515
 C964 C 0.27047 0.92993 0.10784
 C965 C 0.26891 0.91377 0.12507
 C966 C 0.27831 0.89466 0.11980
 C967 C 0.28962 0.89221 0.09712
 C968 C 0.29115 0.90839 0.07991
 C969 C 0.27579 0.87718 0.13744
 C970 C 0.29223 0.86349 0.14257
 C971 C 0.28956 0.84664 0.15847
 C972 C 0.27046 0.84325 0.16942
 C973 C 0.25408 0.85688 0.16463
 C974 C 0.25671 0.87374 0.14878
 C975 C 0.26741 0.82550 0.18493
 C976 C 0.26445 0.81052 0.19762
 H977 H 0.26292 0.94445 0.11208
 H978 H 0.26032 0.91621 0.14250
 H979 H 0.29681 0.87762 0.09236
 H980 H 0.29960 0.90610 0.06233
 H981 H 0.30715 0.86586 0.13435
 H982 H 0.30234 0.83618 0.16207
 H983 H 0.23920 0.85433 0.17289
 H984 H 0.24369 0.88381 0.14490
 C985 C 0.78223 0.45653 0.55190
 C986 C 0.78154 0.44310 0.56756
 C987 C 0.78027 0.42687 0.58593
 C988 C 0.76558 0.42802 0.60530
 C989 C 0.76361 0.41182 0.62238
 C990 C 0.77631 0.39422 0.62029
 C991 C 0.79124 0.39335 0.60099
 C992 C 0.79318 0.40956 0.58391
 C993 C 0.77360 0.37662 0.63769
 C994 C 0.79064 0.36562 0.64744
 C995 C 0.78799 0.34871 0.66326
 C996 C 0.76830 0.34259 0.66949
 C997 C 0.75127 0.35351 0.66003
 C998 C 0.75388 0.37042 0.64426
 C999 C 0.76547 0.32486 0.68514
 C1000 C 0.76278 0.30992 0.69799
 H1001 H 0.75551 0.44135 0.60704
 H1002 H 0.75215 0.41306 0.63724
 H1003 H 0.80107 0.37991 0.59868
 H1004 H 0.80452 0.40847 0.56889
 H1005 H 0.80600 0.37015 0.64295
 H1006 H 0.80127 0.34036 0.67051
 H1007 H 0.73597 0.34883 0.66465
 H1008 H 0.74047 0.37838 0.63676
 C1009 C 0.71932 0.04174 0.05327
 C1010 C 0.72019 0.05510 0.06900
 C1011 C 0.72172 0.07128 0.08739
 C1012 C 0.74072 0.07971 0.09228
 C1013 C 0.74229 0.09580 0.10957
 C1014 C 0.72485 0.10371 0.12223
 C1015 C 0.70582 0.09505 0.11731
 C1016 C 0.70428 0.07892 0.09999
 C1017 C 0.72653 0.12120 0.14005
 C1018 C 0.71172 0.13719 0.13999
 C1019 C 0.71385 0.15411 0.15591
 C1020 C 0.73074 0.15524 0.17213
 C1021 C 0.74537 0.13927 0.17264
 C1022 C 0.74328 0.12235 0.15674
 C1023 C 0.73355 0.17312 0.18751
 C1024 C 0.73631 0.18822 0.20004
 H1025 H 0.75430 0.07398 0.08253
 H1026 H 0.75710 0.10233 0.11264
 H1027 H 0.69216 0.10066 0.12696
 H1028 H 0.68950 0.07250 0.09635
 H1029 H 0.69879 0.13687 0.12714
 H1030 H 0.70249 0.16645 0.15527
 H1031 H 0.75851 0.14000 0.18513
 H1032 H 0.75478 0.11017 0.15748
 C1033 C 0.21949 0.54370 0.55011
 C1034 C 0.22034 0.55747 0.56527
 C1035 C 0.22192 0.57419 0.58289
 C1036 C 0.21204 0.57373 0.60655
 C1037 C 0.21397 0.58993 0.62369
 C1038 C 0.22587 0.60676 0.61737
 C1039 C 0.23561 0.60710 0.59346
 C1040 C 0.23364 0.59093 0.57638
 C1041 C 0.22828 0.62386 0.63559
 C1042 C 0.24736 0.63292 0.63856
 C1043 C 0.24960 0.64937 0.65515
 C1044 C 0.23283 0.65700 0.66906
 C1045 C 0.21381 0.64799 0.66649
 C1046 C 0.21154 0.63149 0.64989
 C1047 C 0.23521 0.67439 0.68541
 C1048 C 0.23776 0.68915 0.69863
 H1049 H 0.20297 0.56081 0.61180
 H1050 H 0.20646 0.58913 0.64204
 H1051 H 0.24460 0.61997 0.58787
 H1052 H 0.24131 0.59147 0.55808
 H1053 H 0.26061 0.62721 0.62813
 H1054 H 0.26439 0.65622 0.65703
 H1055 H 0.20071 0.65383 0.67711
 H1056 H 0.19661 0.62498 0.64783
 C1057 C 0.95826 0.71693 0.05067
 C1058 C 0.94480 0.71702 0.06636
 C1059 C 0.92850 0.71760 0.08478
 C1060 C 0.92618 0.73432 0.10122
 C1061 C 0.90979 0.73546 0.11827
 C1062 C 0.89544 0.71989 0.11907
 C1063 C 0.89805 0.70300 0.10270
 C1064 C 0.91448 0.70189 0.08566
 C1065 C 0.87748 0.72162 0.13633
 C1066 C 0.85802 0.71612 0.12777
 C1067 C 0.84095 0.71865 0.14358
 C1068 C 0.84308 0.72665 0.16814
 C1069 C 0.86240 0.73189 0.17697
 C1070 C 0.87950 0.72939 0.16119
 C1071 C 0.82533 0.73021 0.18386
 C1072 C 0.81035 0.73358 0.19673
 H1073 H 0.93688 0.74663 0.10058
 H1074 H 0.90804 0.74879 0.13035
 H1075 H 0.88741 0.69066 0.10308
 H1076 H 0.91613 0.68888 0.07301
 H1077 H 0.85591 0.71038 0.10863
 H1078 H 0.82603 0.71467 0.13650
 H1079 H 0.86422 0.73810 0.19596
 H1080 H 0.89431 0.73353 0.16843
 C1081 C 0.45731 0.21509 0.55333
 C1082 C 0.44377 0.21523 0.56892
 C1083 C 0.42741 0.21591 0.58726
 C1084 C 0.42993 0.22589 0.61059
 C1085 C 0.41367 0.22757 0.62782
 C1086 C 0.39464 0.21930 0.62191
 C1087 C 0.39237 0.20899 0.59859
 C1088 C 0.40865 0.20734 0.58138
 C1089 C 0.37703 0.22204 0.63955
 C1090 C 0.36339 0.20614 0.64363
 C1091 C 0.34637 0.20908 0.65946
 C1092 C 0.34276 0.22794 0.67141
 C1093 C 0.35635 0.24376 0.66770
 C1094 C 0.37338 0.24085 0.65192
 C1095 C 0.32479 0.23136 0.68679
 C1096 C 0.30965 0.23468 0.69937
 H1097 H 0.44439 0.23258 0.61533
 H1098 H 0.41598 0.23537 0.64575
 H1099 H 0.37785 0.20270 0.59333
 H1100 H 0.40649 0.19968 0.56331
 H1101 H 0.36592 0.19142 0.63461
 H1102 H 0.33594 0.19673 0.66221
 H1103 H 0.35363 0.25846 0.67674
 H1104 H 0.38341 0.25348 0.64888
 C1105 C 0.04153 0.28337 0.05267
 C1106 C 0.05494 0.28294 0.06842
 C1107 C 0.07118 0.28197 0.08690
 C1108 C 0.08908 0.29268 0.08276
 C1109 C 0.10530 0.29088 0.10003
 C1110 C 0.10384 0.27828 0.12165
 C1111 C 0.08566 0.26784 0.12584
 C1112 C 0.06945 0.26967 0.10856
 C1113 C 0.12147 0.27552 0.13926
 C1114 C 0.12671 0.25605 0.14898
 C1115 C 0.14372 0.25325 0.16481
 C1116 C 0.15570 0.26984 0.17119
 C1117 C 0.15051 0.28931 0.16187
 C1118 C 0.13350 0.29215 0.14599
 C1119 C 0.17364 0.26665 0.18669
 C1120 C 0.18878 0.26353 0.19934
 H1121 H 0.09062 0.30215 0.06598
 H1122 H 0.11918 0.29890 0.09609
 H1123 H 0.08397 0.25823 0.14247
 H1124 H 0.05567 0.26131 0.11196
 H1125 H 0.11795 0.24290 0.14385
 H1126 H 0.14768 0.23809 0.17180
 H1127 H 0.15969 0.30225 0.16670
 H1128 H 0.12972 0.30735 0.13904
 C1129 C 0.54171 0.78398 0.55213
 C1130 C 0.55511 0.78364 0.56789
 C1131 C 0.57133 0.78274 0.58640
 C1132 C 0.56971 0.77029 0.60793
 C1133 C 0.58593 0.76847 0.62519
 C1134 C 0.60403 0.77909 0.62109
 C1135 C 0.60537 0.79186 0.59961
 C1136 C 0.58913 0.79363 0.58237
 C1137 C 0.62168 0.77633 0.63864
 C1138 C 0.63360 0.79299 0.64554
 C1139 C 0.65066 0.79016 0.66135
 C1140 C 0.65601 0.77065 0.67043
 C1141 C 0.64414 0.75402 0.66387
 C1142 C 0.62709 0.75682 0.64812
 C1143 C 0.67399 0.76749 0.68584
 C1144 C 0.68917 0.76444 0.69843
 H1145 H 0.55600 0.76179 0.61123
 H1146 H 0.58433 0.75874 0.64171
 H1147 H 0.61918 0.80002 0.59575
 H1148 H 0.59059 0.80323 0.56568
 H1149 H 0.62970 0.80822 0.63878
 H1150 H 0.65974 0.80313 0.66631
 H1151 H 0.64822 0.73884 0.67068
 H1152 H 0.61842 0.74364 0.64285
   
