data_POSCAR
  _audit_creation_date              2014-09-24
  _audit_creation_method            'ToBaCCo'
  _symmetry_space_group_name_H-M    'P1'
  _symmetry_Int_Tables_number       1
  _symmetry_cell_setting            triclinic
  loop_
  _symmetry_equiv_pos_as_xyz
 x,y,z
_cell_length_a 35.5316
_cell_length_b 34.3727
_cell_length_c 36.2182
_cell_angle_alpha 90.304100
_cell_angle_beta 89.229400
_cell_angle_gamma 88.773400
loop_
  _atom_site_label
  _atom_site_type_symbol
  _atom_site_fract_x
  _atom_site_fract_y
  _atom_site_fract_z
C1 C 0.33728 0.39323 1.36363
 C2 C 0.36657 0.39122 1.33748
 C3 C 0.39423 0.36231 1.33953
 C4 C 0.39244 0.33462 1.36804
 C5 C 0.36326 0.33685 1.39361
 C6 C 0.33564 0.36638 1.39150
 C7 C 0.30554 0.41652 1.36658
 N8 N 0.28401 0.40449 1.39573
 C9 C 0.30281 0.37365 1.41111
 C10 C 0.36653 0.30528 1.41627
 N11 N 0.39700 0.28302 1.40545
 C12 C 0.41316 0.30129 1.37593
 C13 C 0.41765 0.36671 1.30909
 N14 N 0.40434 0.39716 1.28883
 C15 C 0.37318 0.41221 1.30607
 H16 H 0.29902 0.44013 1.34803
 H17 H 0.29304 0.35613 1.43383
 H18 H 0.34750 0.29954 1.43900
 H19 H 0.43704 0.29050 1.35981
 H20 H 0.44171 0.34837 1.30155
 H21 H 0.35627 0.43648 1.29620
 C22 C 1.15384 0.59323 0.85785
 C23 C 1.12627 0.58976 0.83067
 C24 C 1.09756 0.61736 0.82859
 C25 C 1.09596 0.64883 0.85336
 C26 C 1.12320 0.65251 0.87981
 C27 C 1.15270 0.62463 0.88189
 C28 C 1.18548 0.57128 0.86583
 N29 N 1.20423 0.58866 0.89388
 C30 C 1.18422 0.62158 0.90360
 C31 C 1.11509 0.68652 0.89887
 N32 N 1.08351 0.70395 0.88461
 C33 C 1.07197 0.68063 0.85651
 C34 C 1.07653 0.60846 0.79830
 N35 N 1.09195 0.57637 0.78136
 C36 C 1.12227 0.56454 0.80130
 H37 H 1.19476 0.54538 0.85092
 H38 H 1.19131 0.64165 0.92541
 H39 H 1.13222 0.69793 0.92066
 H40 H 1.04766 0.68564 0.83942
 H41 H 1.05229 0.62498 0.78885
 H42 H 1.14136 0.54072 0.79388
 C43 C 0.67199 -0.09760 0.13791
 C44 C 0.65015 -0.09449 0.17052
 C45 C 0.62235 -0.12113 0.17713
 C46 C 0.61584 -0.15087 0.15177
 C47 C 0.63671 -0.15356 0.11947
 C48 C 0.66538 -0.12688 0.11265
 C49 C 0.70310 -0.07822 0.12554
 N50 N 0.71619 -0.09502 0.09340
 C51 C 0.69272 -0.12483 0.08548
 C52 C 0.62503 -0.18628 0.10108
 N53 N 0.59806 -0.20391 0.12192
 C54 C 0.59252 -0.18213 0.15307
 C55 C 0.60704 -0.11322 0.21125
 N56 N 0.62482 -0.08239 0.22607
 C57 C 0.65123 -0.07049 0.20127
 H58 H 0.71615 -0.05506 0.14066
 H59 H 0.69523 -0.14446 0.06214
 H60 H 0.63699 -0.19739 0.07539
 H61 H 0.57265 -0.18801 0.17513
 H62 H 0.58461 -0.12908 0.22445
 H63 H 0.67055 -0.04706 0.20576
 C64 C -0.16275 1.10339 -0.36377
 C65 C -0.13640 1.09996 -0.33538
 C66 C -0.10730 1.12597 -0.33322
 C67 C -0.10409 1.15572 -0.35951
 C68 C -0.12992 1.15873 -0.38744
 C69 C -0.15936 1.13234 -0.38970
 C70 C -0.19525 1.08401 -0.37131
 N71 N -0.21203 1.10038 -0.40139
 C72 C -0.18971 1.13000 -0.41272
 C73 C -0.12156 1.19126 -0.40746
 N74 N -0.09112 1.20888 -0.39255
 C75 C -0.08033 1.18673 -0.36308
 C76 C -0.08757 1.11712 -0.30181
 N77 N -0.10394 1.08643 -0.28477
 C78 C -0.13383 1.07577 -0.30527
 H79 H -0.20538 1.05961 -0.35564
 H80 H -0.19562 1.15002 -0.43492
 H81 H -0.13744 1.20097 -0.43101
 H82 H -0.05779 1.19293 -0.34435
 H83 H -0.06326 1.13228 -0.29196
 H84 H -0.15323 1.05306 -0.29812
 C85 C 0.65733 0.58396 0.63800
 C86 C 0.63418 0.58389 0.66977
 C87 C 0.60836 0.61401 0.67562
 C88 C 0.60540 0.64453 0.65050
 C89 C 0.62784 0.64458 0.61924
 C90 C 0.65418 0.61424 0.61300
 C91 C 0.68739 0.56078 0.62655
 N92 N 0.70264 0.57654 0.59559
 C93 C 0.68248 0.60918 0.58712
 C94 C 0.62069 0.67910 0.60138
 N95 N 0.59472 0.70042 0.62143
 C96 C 0.58541 0.67913 0.65167
 C97 C 0.59187 0.60872 0.70945
 N98 N 0.60719 0.57632 0.72498
 C99 C 0.63303 0.56068 0.70077
 H100 H 0.69871 0.53563 0.64083
 H101 H 0.68881 0.62858 0.56452
 H102 H 0.63527 0.68867 0.57675
 H103 H 0.56542 0.68773 0.67313
 H104 H 0.57064 0.62772 0.72208
 H105 H 0.65086 0.53544 0.70599
 C106 C 0.82840 0.39826 0.13181
 C107 C 0.85294 0.39694 0.16181
 C108 C 0.88387 0.37174 0.16108
 C109 C 0.89033 0.34718 0.13041
 C110 C 0.86656 0.34928 0.10058
 C111 C 0.83529 0.37485 0.10139
 C112 C 0.79481 0.41775 0.12613
 N113 N 0.78059 0.40666 0.09289
 C114 C 0.80579 0.38042 0.07768
 C115 C 0.87823 0.32109 0.07572
 N116 N 0.90807 0.30090 0.08993
 C117 C 0.91562 0.31698 0.12350
 C118 C 0.90206 0.37609 0.19417
 N119 N 0.88276 0.40311 0.21490
 C120 C 0.85255 0.41579 0.19543
 H121 H 0.78203 0.43826 0.14548
 H122 H 0.80253 0.36460 0.05210
 H123 H 0.86395 0.31410 0.05041
 H124 H 0.93764 0.30747 0.14192
 H125 H 0.92715 0.36039 0.20279
 H126 H 0.83197 0.43740 0.20494
 C127 C 0.33036 0.12110 0.85907
 C128 C 0.36117 0.11686 0.83446
 C129 C 0.38910 0.14459 0.83382
 C130 C 0.38626 0.17722 0.85737
 C131 C 0.35554 0.18133 0.88088
 C132 C 0.32765 0.15349 0.88157
 C133 C 0.29830 0.09992 0.86554
 N134 N 0.27606 0.11949 0.89081
 C135 C 0.29417 0.15236 0.90049
 C136 C 0.35802 0.21622 0.89878
 N137 N 0.38951 0.23405 0.88681
 C138 C 0.40729 0.21037 0.86154
 C139 C 0.41395 0.13439 0.80577
 N140 N 0.40157 0.10168 0.78907
 C141 C 0.36936 0.09073 0.80638
 H142 H 0.29112 0.07323 0.85157
 H143 H 0.28440 0.17376 0.92064
 H144 H 0.33798 0.22803 0.91889
 H145 H 0.43274 0.21733 0.84644
 H146 H 0.43816 0.15066 0.79686
 H147 H 0.35256 0.06625 0.79835
 C148 C 0.18396 0.88694 0.35009
 C149 C 0.16059 0.88622 0.31932
 C150 C 0.13589 0.85615 0.31476
 C151 C 0.13460 0.82612 0.34068
 C152 C 0.15789 0.82653 0.37107
 C153 C 0.18325 0.85712 0.37554
 C154 C 0.21105 0.91235 0.36068
 N155 N 0.22789 0.89860 0.39168
 C156 C 0.21099 0.86457 0.40082
 C157 C 0.15045 0.79341 0.39113
 N158 N 0.12374 0.77308 0.37321
 C159 C 0.11405 0.79280 0.34233
 C160 C 0.11736 0.86252 0.28217
 N161 N 0.13074 0.89542 0.26669
 C162 C 0.15725 0.91011 0.28913
 H163 H 0.21920 0.93785 0.34538
 H164 H 0.21785 0.84657 0.42431
 H165 H 0.16382 0.78441 0.41647
 H166 H 0.09336 0.78356 0.32262
 H167 H 0.09644 0.84409 0.27006
 H168 H 0.17299 0.93615 0.28375
 Zn169 Zn 0.04689 0.97452 0.00777
 Zn170 Zn 0.01436 1.04697 -0.02321
 Zn171 Zn -0.02832 0.97235 -0.02998
 Zn172 Zn -0.01908 1.01277 0.04344
 O173 O 0.00326 1.00144 -0.00075
 O174 O 0.08753 0.99600 -0.01269
 O175 O -0.00879 1.05174 -0.06582
 O176 O -0.00845 0.92384 -0.04037
 O177 O 0.06317 1.05085 -0.03443
 O178 O 0.04575 0.92723 -0.01111
 O179 O -0.03843 0.99636 -0.07374
 O180 O -0.06602 0.99713 0.04510
 O181 O 0.00135 1.08959 0.00317
 O182 O -0.07404 0.96558 -0.00764
 O183 O -0.02167 1.06358 0.05407
 O184 O 0.00383 0.99059 0.08159
 O185 O 0.05626 0.96700 0.05580
 C186 C 0.09105 1.02783 -0.02978
 C187 C -0.02933 1.03001 -0.08503
 C188 C 0.02265 0.90836 -0.03017
 C189 C -0.08661 0.97821 0.02341
 C190 C -0.01306 1.09313 0.03525
 C191 C 0.03545 0.97315 0.08406
 Zn192 Zn 0.49708 -0.05249 0.48489
 Zn193 Zn 0.52242 -0.01812 0.55502
 Zn194 Zn 0.53760 0.02260 0.48303
 Zn195 Zn 0.45858 0.01834 0.51406
 O196 O 0.50401 -0.00716 0.50927
 O197 O 0.51420 -0.09343 0.50901
 O198 O 0.56684 0.00328 0.56187
 O199 O 0.55424 -0.00068 0.44068
 O200 O 0.53088 -0.06930 0.56285
 O201 O 0.52201 -0.05496 0.44241
 O202 O 0.57909 0.03343 0.50936
 O203 O 0.45878 0.06453 0.49161
 O204 O 0.49274 0.00024 0.59179
 O205 O 0.51693 0.06843 0.46925
 O206 O 0.44562 0.02779 0.56142
 O207 O 0.42004 -0.00817 0.49505
 O208 O 0.44906 -0.06210 0.47544
 C209 C 0.52784 -0.09784 0.54079
 C210 C 0.58833 0.02364 0.54190
 C211 C 0.54556 -0.03319 0.42665
 C212 C 0.48393 0.08281 0.47393
 C213 C 0.46169 0.01921 0.59152
 C214 C 0.41921 -0.04184 0.48052
 Zn215 Zn 0.95081 0.47783 0.47953
 Zn216 Zn 1.02090 0.46919 0.52436
 Zn217 Zn 1.02218 0.50880 0.45015
 Zn218 Zn 0.98393 0.54779 0.51357
 O219 O 0.99458 0.50077 0.49204
 O220 O 0.94627 0.43136 0.50014
 O221 O 1.06686 0.45523 0.50620
 O222 O 1.00025 0.49154 0.40909
 O223 O 0.99706 0.42423 0.53429
 O224 O 0.94630 0.46976 0.43082
 O225 O 1.06646 0.48441 0.45186
 O226 O 1.00482 0.58794 0.49019
 O227 O 1.02885 0.49281 0.56836
 O228 O 1.03304 0.55889 0.44254
 O229 O 1.00144 0.55024 0.55910
 O230 O 0.93448 0.55820 0.51809
 O231 O 0.91001 0.50505 0.49450
 C232 C 0.96614 0.41148 0.52229
 C233 C 1.08287 0.46339 0.47567
 C234 C 0.96872 0.47582 0.40398
 C235 C 1.02520 0.58941 0.46122
 C236 C 1.01957 0.52687 0.57959
 C237 C 0.90618 0.53791 0.51035
 Zn238 Zn 0.50895 0.52535 1.05560
 Zn239 Zn 0.48062 0.55955 0.98594
 Zn240 Zn 0.52525 0.48460 0.98363
 Zn241 Zn 0.44656 0.48817 1.01487
 O242 O 0.49041 0.51429 1.01002
 O243 O 0.51510 0.57666 1.06360
 O244 O 0.50512 0.56175 0.94305
 O245 O 0.56746 0.47412 1.00911
 O246 O 0.49639 0.60080 1.01025
 O247 O 0.55462 0.50442 1.06190
 O248 O 0.54000 0.50764 0.94166
 O249 O 0.44856 0.44284 0.99070
 O250 O 0.43169 0.56827 0.97647
 O251 O 0.50711 0.43882 0.96909
 O252 O 0.40642 0.51401 0.99668
 O253 O 0.43536 0.47723 1.06212
 O254 O 0.48112 0.50579 1.09240
 C255 C 0.51078 0.60516 1.04176
 C256 C 0.52950 0.53962 0.92733
 C257 C 0.57671 0.48399 1.04156
 C258 C 0.47447 0.42490 0.97260
 C259 C 0.40325 0.54714 0.98157
 C260 C 0.45168 0.48546 1.09209
 C261 C 1.23044 0.44765 0.38464
 C262 C 1.24923 0.41939 0.40632
 C263 C 1.23075 0.40653 0.43885
 C264 C 1.19461 0.42074 0.44871
 C265 C 1.17645 0.44836 0.42609
 C266 C 1.19465 0.46181 0.39438
 C267 C 1.14020 0.46209 0.43532
 C268 C 1.12147 0.44872 0.46709
 C269 C 1.13986 0.42158 0.48987
 C270 C 1.17615 0.40765 0.48072
 H271 H 1.24408 0.38569 0.45694
 H272 H 1.18102 0.48312 0.37679
 H273 H 1.12659 0.48327 0.41756
 H274 H 1.18966 0.38651 0.49855
 H275 H 1.24250 0.45871 0.35943
 H276 H 1.12610 0.41087 0.51455
 C277 C 0.24898 0.53610 0.90544
 C278 C 0.23740 0.57554 0.90900
 C279 C 0.26117 0.60107 0.92805
 C280 C 0.29587 0.58781 0.94206
 C281 C 0.30647 0.54809 0.93870
 C282 C 0.28272 0.52251 0.92055
 C283 C 0.34103 0.53476 0.95284
 C284 C 0.36597 0.56095 0.96885
 C285 C 0.35559 0.60054 0.97140
 C286 C 0.32060 0.61377 0.95865
 H287 H 0.25380 0.63170 0.93050
 H288 H 0.29043 0.49196 0.91766
 H289 H 0.34913 0.50426 0.95024
 H290 H 0.31315 0.64440 0.96123
 H291 H 0.23147 0.51513 0.89197
 H292 H 0.37446 0.62118 0.98359
 C293 C -0.23621 0.89043 0.04586
 C294 C -0.25162 0.91470 0.07422
 C295 C -0.23209 0.94879 0.08311
 C296 C -0.19755 0.95713 0.06613
 C297 C -0.18191 0.93180 0.03891
 C298 C -0.20188 0.89890 0.02854
 C299 C -0.14621 0.93936 0.02338
 C300 C -0.12587 0.97155 0.03558
 C301 C -0.14247 0.99707 0.06191
 C302 C -0.17796 0.99010 0.07683
 H303 H -0.24328 0.96921 0.10342
 H304 H -0.19052 0.87913 0.00759
 H305 H -0.13370 0.91949 0.00312
 H306 H -0.18964 1.01001 0.09748
 H307 H -0.24961 0.86396 0.03755
 H308 H -0.12767 1.02237 0.07144
 C309 C 0.74305 0.10430 0.54858
 C310 C 0.75430 0.09003 0.58341
 C311 C 0.72956 0.06514 0.60234
 C312 C 0.69485 0.05523 0.58733
 C313 C 0.68422 0.06974 0.55252
 C314 C 0.70860 0.09418 0.53337
 C315 C 0.64939 0.05959 0.53756
 C316 C 0.62495 0.03528 0.55724
 C317 C 0.63592 0.02134 0.59204
 C318 C 0.67046 0.03113 0.60687
 H319 H 0.73634 0.05412 0.62938
 H320 H 0.70106 0.10550 0.50654
 H321 H 0.64135 0.07063 0.51075
 H322 H 0.67810 0.01979 0.63368
 H323 H 0.76098 0.12272 0.53230
 H324 H 0.61785 0.00251 0.60790
 C325 C 0.38395 0.22860 0.44572
 C326 C 0.40796 0.24803 0.42071
 C327 C 0.44321 0.23011 0.41182
 C328 C 0.45390 0.19416 0.42740
 C329 C 0.42912 0.17547 0.45200
 C330 C 0.39437 0.19294 0.46099
 C331 C 0.43928 0.13941 0.46718
 C332 C 0.47417 0.12149 0.45837
 C333 C 0.49902 0.14049 0.43425
 C334 C 0.48894 0.17647 0.41885
 H335 H 0.46286 0.24411 0.39341
 H336 H 0.37497 0.17887 0.47973
 H337 H 0.41985 0.12530 0.48588
 H338 H 0.50848 0.19034 0.40012
 H339 H 0.35631 0.23990 0.45312
 H340 H 0.52610 0.12736 0.42694
 C341 C 0.95752 0.25771 0.61199
 C342 C 0.92457 0.24317 0.59578
 C343 C 0.90790 0.26544 0.56734
 C344 C 0.92298 0.30086 0.55603
 C345 C 0.95562 0.31499 0.57279
 C346 C 0.97276 0.29303 0.60062
 C347 C 0.97024 0.35094 0.56159
 C348 C 0.95225 0.37294 0.53397
 C349 C 0.91986 0.35815 0.51746
 C350 C 0.90545 0.32256 0.52829
 H351 H 0.88263 0.25620 0.55401
 H352 H 0.99795 0.30324 0.61378
 H353 H 0.99519 0.36191 0.57463
 H354 H 0.88037 0.31214 0.51508
 H355 H 0.97211 0.24205 0.63343
 H356 H 0.90539 0.37419 0.49604
 C357 C 0.03862 0.75747 -0.12520
 C358 C 0.06692 0.73873 -0.10411
 C359 C 0.07788 0.75716 -0.07113
 C360 C 0.06214 0.79327 -0.06021
 C361 C 0.03459 0.81192 -0.08207
 C362 C 0.02279 0.79349 -0.11434
 C363 C 0.02006 0.84899 -0.07167
 C364 C 0.03347 0.86766 -0.03994
 C365 C 0.06013 0.84805 -0.01798
 C366 C 0.07416 0.81130 -0.02788
 H367 H 0.09849 0.74365 -0.05337
 H368 H 0.00170 0.80721 -0.13156
 H369 H -0.00039 0.86379 -0.08886
 H370 H 0.09506 0.79733 -0.01059
 H371 H 0.02907 0.74527 -0.15085
 H372 H 0.07067 0.86148 0.00685
 C373 C 0.56415 0.73935 1.14182
 C374 C 0.58039 0.76214 1.11367
 C375 C 0.57793 0.74912 1.07685
 C376 C 0.55970 0.71450 1.06836
 C377 C 0.54491 0.69131 1.09698
 C378 C 0.54717 0.70412 1.13360
 C379 C 0.52832 0.65566 1.08847
 C380 C 0.52523 0.64372 1.05153
 C381 C 0.53859 0.66787 1.02324
 C382 C 0.55601 0.70272 1.03157
 H383 H 0.58896 0.76652 1.05451
 H384 H 0.53586 0.68686 1.15593
 H385 H 0.51788 0.63730 1.11042
 H386 H 0.56686 0.72029 1.00923
 H387 H 0.56588 0.74768 1.17056
 H388 H 0.53680 0.65911 0.99455
 C389 C 0.45816 0.41482 1.24897
 C390 C 0.41925 0.41086 1.25428
 C391 C 0.39463 0.42220 1.22606
 C392 C 0.40856 0.43787 1.19307
 C393 C 0.44770 0.44297 1.18839
 C394 C 0.47229 0.43107 1.21639
 C395 C 0.46150 0.45963 1.15571
 C396 C 0.43679 0.47006 1.12721
 C397 C 0.39807 0.46406 1.13185
 C398 C 0.38400 0.44852 1.16468
 H399 H 0.36459 0.41865 1.22983
 H400 H 0.50240 0.43450 1.21317
 H401 H 0.49152 0.46354 1.15204
 H402 H 0.35395 0.44458 1.16778
 H403 H 0.47747 0.40640 1.27052
 H404 H 0.37863 0.47174 1.11015
 C405 C 0.61915 -0.02681 0.26997
 C406 C 0.61712 -0.06687 0.26247
 C407 C 0.60494 -0.09184 0.29050
 C408 C 0.59264 -0.07711 0.32468
 C409 C 0.59338 -0.03666 0.33184
 C410 C 0.60744 -0.01180 0.30447
 C411 C 0.57910 -0.02198 0.36577
 C412 C 0.56342 -0.04741 0.39188
 C413 C 0.56379 -0.08761 0.38443
 C414 C 0.57845 -0.10232 0.35133
 H415 H 0.60418 -0.12289 0.28536
 H416 H 0.60839 0.01928 0.30937
 H417 H 0.57900 0.00905 0.37127
 H418 H 0.57789 -0.13341 0.34624
 H419 H 0.62846 -0.00702 0.24874
 H420 H 0.55246 -0.10789 0.40426
 C421 C -0.10003 1.03057 -0.24169
 C422 C -0.09294 1.06975 -0.24991
 C423 C -0.07525 1.09271 -0.22335
 C424 C -0.06460 1.07696 -0.18935
 C425 C -0.07166 1.03755 -0.18128
 C426 C -0.08948 1.01461 -0.20772
 C427 C -0.06064 1.02193 -0.14703
 C428 C -0.04244 1.04537 -0.12103
 C429 C -0.03595 1.08461 -0.12966
 C430 C -0.04692 1.10020 -0.16331
 H431 H -0.07023 1.12310 -0.22887
 H432 H -0.09513 0.98432 -0.20222
 H433 H -0.06583 0.99168 -0.14084
 H434 H -0.04140 1.13048 -0.16903
 H435 H -0.11334 1.01209 -0.26172
 H436 H -0.02224 1.10358 -0.11028
 C437 C 1.08842 0.52137 0.73681
 C438 C 1.08042 0.56046 0.74638
 C439 C 1.06158 0.58429 0.72083
 C440 C 1.05088 0.56960 0.68650
 C441 C 1.05919 0.53041 0.67696
 C442 C 1.07792 0.50648 0.70243
 C443 C 1.04883 0.51609 0.64209
 C444 C 1.03019 0.54062 0.61686
 C445 C 1.02193 0.57947 0.62713
 C446 C 1.03220 0.59379 0.66148
 H447 H 1.05588 0.61466 0.72719
 H448 H 1.08448 0.47631 0.69576
 H449 H 1.05537 0.48610 0.63462
 H450 H 1.02561 0.62390 0.66841
 H451 H 1.10259 0.50221 0.75600
 H452 H 1.00768 0.59916 0.60843
 C453 C 0.74442 0.52358 0.57222
 C454 C 0.73682 0.56348 0.57741
 C455 C 0.76351 0.59056 0.56581
 C456 C 0.79793 0.57794 0.55008
 C457 C 0.80532 0.53770 0.54485
 C458 C 0.77824 0.51078 0.55568
 C459 C 0.84014 0.52502 0.53003
 C460 C 0.86821 0.55192 0.52164
 C461 C 0.86057 0.59184 0.52684
 C462 C 0.82552 0.60480 0.54052
 H463 H 0.75802 0.62136 0.57035
 H464 H 0.78352 0.47982 0.55201
 H465 H 0.84600 0.49411 0.52662
 H466 H 0.82034 0.63573 0.54446
 H467 H 0.72404 0.50240 0.58089
 H468 H 0.88184 0.61302 0.52057
 C469 C 0.73705 0.40851 1.04160
 C470 C 0.74660 0.41825 1.07828
 C471 C 0.71974 0.43978 1.09964
 C472 C 0.68464 0.45059 1.08520
 C473 C 0.67566 0.44027 1.04865
 C474 C 0.70214 0.41938 1.02708
 C475 C 0.64036 0.45100 1.03435
 C476 C 0.61388 0.47198 1.05628
 C477 C 0.62327 0.48200 1.09269
 C478 C 0.65824 0.47142 1.10698
 H479 H 0.72520 0.44755 1.12795
 H480 H 0.69588 0.41140 0.99886
 H481 H 0.63359 0.44311 1.00624
 H482 H 0.66461 0.47956 1.13513
 H483 H 0.75649 0.39292 1.02345
 H484 H 0.60354 0.49813 1.11029
 C485 C 0.21610 1.13730 -0.08127
 C486 C 0.24164 1.10887 -0.09567
 C487 C 0.23127 1.06949 -0.09472
 C488 C 0.19697 1.05880 -0.07827
 C489 C 0.17176 1.08789 -0.06443
 C490 C 0.18145 1.12698 -0.06635
 C491 C 0.13728 1.07750 -0.04861
 C492 C 0.12803 1.03825 -0.04519
 C493 C 0.15361 1.00930 -0.05794
 C494 C 0.18765 1.01951 -0.07476
 H495 H 0.25058 1.04696 -0.10486
 H496 H 0.16237 1.14963 -0.05596
 H497 H 0.11779 1.09996 -0.03851
 H498 H 0.20670 0.99672 -0.08490
 H499 H 0.22220 1.16795 -0.08247
 H500 H 0.14683 0.97882 -0.05573
 C501 C 0.26480 -0.04469 0.40442
 C502 C 0.25774 -0.08470 0.40885
 C503 C 0.28318 -0.10724 0.42989
 C504 C 0.31592 -0.09078 0.44401
 C505 C 0.32245 -0.05069 0.43914
 C506 C 0.29638 -0.02783 0.41986
 C507 C 0.35554 -0.03438 0.45258
 C508 C 0.38305 -0.05808 0.46919
 C509 C 0.37652 -0.09795 0.47366
 C510 C 0.34299 -0.11406 0.46173
 H511 H 0.27907 -0.13815 0.43321
 H512 H 0.30084 0.00297 0.41593
 H513 H 0.36066 -0.00367 0.44866
 H514 H 0.33865 -0.14490 0.46554
 H515 H 0.24552 -0.02592 0.38958
 H516 H 0.39741 -0.11665 0.48653
 C517 C 0.56466 -0.23872 0.64083
 C518 C 0.58128 -0.26302 0.61325
 C519 C 0.58369 -0.24873 0.57693
 C520 C 0.56974 -0.21155 0.56830
 C521 C 0.55407 -0.18726 0.59639
 C522 C 0.55168 -0.20116 0.63255
 C523 C 0.54078 -0.14967 0.58768
 C524 C 0.54180 -0.13687 0.55097
 C525 C 0.55670 -0.16163 0.52318
 C526 C 0.57090 -0.19847 0.53180
 H527 H 0.59506 -0.26694 0.55482
 H528 H 0.53968 -0.18303 0.65447
 H529 H 0.52901 -0.13078 0.60916
 H530 H 0.58262 -0.21679 0.50988
 H531 H 0.56279 -0.24792 0.66927
 H532 H 0.55796 -0.15217 0.49471
 C533 C 1.10519 0.70633 0.35850
 C534 C 1.10818 0.73667 0.38432
 C535 C 1.09401 0.73180 0.42033
 C536 C 1.07634 0.69710 0.43027
 C537 C 1.07393 0.66648 0.40419
 C538 C 1.08861 0.67136 0.36843
 C539 C 1.05679 0.63157 0.41425
 C540 C 1.04132 0.62700 0.44987
 C541 C 1.04309 0.65799 0.47528
 C542 C 1.06065 0.69259 0.46566
 H543 H 1.09578 0.75545 0.44010
 H544 H 1.08691 0.64830 0.34804
 H545 H 1.05547 0.60800 0.39432
 H546 H 1.06202 0.71579 0.48595
 H547 H 1.11593 0.70978 0.33062
 H548 H 1.03163 0.65516 0.50297
 C549 C -0.07757 1.26103 0.03614
 C550 C -0.07509 1.26835 0.07442
 C551 C -0.05664 1.24028 0.09650
 C552 C -0.04343 1.20485 0.08116
 C553 C -0.04653 1.19803 0.04282
 C554 C -0.06296 1.22662 0.02050
 C555 C -0.03453 1.16212 0.02766
 C556 C -0.02124 1.13223 0.05064
 C557 C -0.01828 1.13916 0.08871
 C558 C -0.02868 1.17540 0.10378
 H559 H -0.05488 1.24448 0.12605
 H560 H -0.06546 1.22194 -0.00897
 H561 H -0.03740 1.15672 -0.00168
 H562 H -0.02628 1.17997 0.13327
 H563 H -0.09036 1.28217 0.01790
 H564 H -0.00806 1.11642 0.10684
 C565 C 0.37225 0.30034 0.90727
 C566 C 0.40030 0.27217 0.89861
 C567 C 0.43830 0.28089 0.90418
 C568 C 0.44789 0.31674 0.92001
 C569 C 0.41911 0.34406 0.92991
 C570 C 0.38153 0.33589 0.92279
 C571 C 0.42820 0.37902 0.94717
 C572 C 0.46579 0.38761 0.95452
 C573 C 0.49445 0.36088 0.94383
 C574 C 0.48555 0.32557 0.92690
 H575 H 0.46005 0.25928 0.89762
 H576 H 0.35922 0.35675 0.92979
 H577 H 0.40590 0.39971 0.95472
 H578 H 0.50804 0.30513 0.91943
 H579 H 0.34289 0.29457 0.90245
 H580 H 0.52367 0.36703 0.94904
 C581 C 0.60089 0.52329 0.77066
 C582 C 0.59854 0.56300 0.76168
 C583 C 0.58596 0.58986 0.78872
 C584 C 0.57382 0.57737 0.82339
 C585 C 0.57533 0.53734 0.83207
 C586 C 0.58951 0.51056 0.80568
 C587 C 0.56182 0.52493 0.86661
 C588 C 0.54602 0.55208 0.89190
 C589 C 0.54517 0.59180 0.88293
 C590 C 0.55924 0.60437 0.84913
 H591 H 0.58506 0.62068 0.78264
 H592 H 0.59094 0.47975 0.81181
 H593 H 0.56250 0.49422 0.87330
 H594 H 0.55800 0.63516 0.84283
 H595 H 0.61047 0.50203 0.75029
 H596 H 0.53354 0.61328 0.90214
 C597 C 0.45701 0.07824 0.75331
 C598 C 0.41789 0.08411 0.75637
 C599 C 0.39502 0.07428 0.72654
 C600 C 0.41116 0.05962 0.69356
 C601 C 0.45058 0.05344 0.69085
 C602 C 0.47322 0.06256 0.72099
 C603 C 0.46676 0.03910 0.65778
 C604 C 0.44423 0.03212 0.62692
 C605 C 0.40514 0.03871 0.62979
 C606 C 0.38868 0.05190 0.66296
 H607 H 0.36486 0.07941 0.72862
 H608 H 0.50349 0.05821 0.71935
 H609 H 0.49702 0.03457 0.65568
 H610 H 0.35845 0.05665 0.66448
 H611 H 0.47495 0.08570 0.77610
 H612 H 0.38725 0.03345 0.60638
 C613 C 0.14657 0.92328 0.20613
 C614 C 0.11944 0.91128 0.23193
 C615 C 0.08115 0.91453 0.22341
 C616 C 0.06990 0.92970 0.18936
 C617 C 0.09739 0.94073 0.16302
 C618 C 0.13566 0.93752 0.17173
 C619 C 0.08609 0.95478 0.12849
 C620 C 0.04766 0.95902 0.12044
 C621 C 0.02062 0.94900 0.14721
 C622 C 0.03163 0.93410 0.18124
 H623 H 0.06022 0.90570 0.24356
 H624 H 0.15711 0.94604 0.15200
 H625 H 0.10709 0.96282 0.10808
 H626 H 0.01022 0.92602 0.20120
 H627 H 0.17623 0.92079 0.21238
 H628 H -0.00915 0.95192 0.14149
 C629 C 0.86438 0.42262 0.27833
 C630 C 0.89253 0.41618 0.25125
 C631 C 0.93021 0.42324 0.25988
 C632 C 0.93967 0.43689 0.29511
 C633 C 0.91121 0.44262 0.32238
 C634 C 0.87364 0.43539 0.31369
 C635 C 0.92077 0.45551 0.35784
 C636 C 0.95837 0.46349 0.36627
 C637 C 0.98630 0.45851 0.33866
 C638 C 0.97708 0.44508 0.30350
 H639 H 0.95195 0.41884 0.23891
 H640 H 0.85143 0.43974 0.33418
 H641 H 0.89893 0.45949 0.37880
 H642 H 0.99923 0.44105 0.28289
 H643 H 0.83522 0.41718 0.27218
 H644 H 1.01548 0.46429 0.34445
   
