data_POSCAR
  _audit_creation_date              2014-09-24
  _audit_creation_method            'ToBaCCo'
  _symmetry_space_group_name_H-M    'P1'
  _symmetry_Int_Tables_number       1
  _symmetry_cell_setting            triclinic
  loop_
  _symmetry_equiv_pos_as_xyz
 x,y,z
_cell_length_a 27.5091
_cell_length_b 26.6779
_cell_length_c 33.0808
_cell_angle_alpha 89.933300
_cell_angle_beta 89.736700
_cell_angle_gamma 118.091900
loop_
  _atom_site_label
  _atom_site_type_symbol
  _atom_site_fract_x
  _atom_site_fract_y
  _atom_site_fract_z
O1 O 0.05217 0.64302 1.28803
 O2 O -0.05998 0.59133 1.21467
 O3 O -0.05469 0.58493 1.29338
 O4 O 0.04714 0.63344 1.20957
 O5 O 0.04606 0.55017 1.21023
 O6 O -0.05627 0.50143 1.29224
 O7 O -0.06122 0.50805 1.21313
 O8 O 0.05056 0.55946 1.28900
 Cu9 Cu -0.00380 0.62123 1.25137
 Cu10 Cu -0.00545 0.52154 1.25104
 C11 C 0.07015 0.61048 1.30145
 C12 C -0.07957 0.54138 1.20092
 C13 C -0.07223 0.53484 1.30739
 C14 C 0.06428 0.59991 1.19592
 O15 O 0.40964 0.46939 1.27589
 O16 O 0.49596 0.44767 1.20076
 O17 O 0.47041 0.41804 1.27570
 O18 O 0.44671 0.50904 1.20330
 O19 O 0.51831 0.58549 1.22686
 O20 O 0.54449 0.49431 1.29644
 O21 O 0.56933 0.52501 1.22112
 O22 O 0.48304 0.54440 1.29883
 Cu23 Cu 0.44815 0.45357 1.23681
 Cu24 Cu 0.53603 0.54474 1.26326
 C25 C 0.43152 0.51023 1.30053
 C26 C 0.54683 0.48264 1.19752
 C27 C 0.51248 0.44122 1.29825
 C28 C 0.47885 0.56240 1.20227
 O29 O 0.50223 0.93880 1.28018
 O30 O 0.52775 1.04483 1.20324
 O31 O 0.53206 1.04780 1.28306
 O32 O 0.46937 0.93349 1.20496
 O33 O 0.38831 0.92677 1.22025
 O34 O 0.45045 1.04365 1.29035
 O35 O 0.44505 1.03749 1.21136
 O36 O 0.42257 0.93557 1.29522
 Cu37 Cu 0.51533 0.99187 1.24165
 Cu38 Cu 0.41915 0.98524 1.25537
 C39 C 0.45920 0.91977 1.30168
 C40 C 0.49156 1.05883 1.19311
 C41 C 0.50058 1.06496 1.29999
 C42 C 0.41715 0.91045 1.19996
 O43 O 0.93566 0.44398 0.70970
 O44 O 1.04267 0.53580 0.77783
 O45 O 1.04275 0.49667 0.70578
 O46 O 0.93994 0.45567 0.78881
 O47 O 0.95308 0.38134 0.80017
 O48 O 1.06011 0.42709 0.72391
 O49 O 1.05548 0.46367 0.79732
 O50 O 0.95200 0.37193 0.72156
 Cu51 Cu 0.98864 0.48926 0.74431
 Cu52 Cu 1.00680 0.40474 0.76234
 C53 C 0.92579 0.39348 0.70270
 C54 C 1.06687 0.51596 0.79982
 C55 C 1.06927 0.46850 0.70102
 C56 C 0.92872 0.41006 0.80828
 O57 O 0.54721 0.48691 0.70637
 O58 O 0.48460 0.53433 0.78634
 O59 O 0.49212 0.54456 0.70753
 O60 O 0.54932 0.48777 0.78650
 O61 O 0.62502 0.57042 0.78727
 O62 O 0.56802 0.62688 0.71044
 O63 O 0.56047 0.61675 0.78877
 O64 O 0.62288 0.56948 0.70841
 Cu65 Cu 0.51094 0.50506 0.74634
 Cu66 Cu 0.60152 0.60392 0.74888
 C67 C 0.59535 0.52015 0.69345
 C68 C 0.51197 0.58353 0.80131
 C69 C 0.52073 0.59590 0.69580
 C70 C 0.59703 0.52026 0.80063
 O71 O 0.60221 0.04987 0.71674
 O72 O 0.54257 -0.06145 0.79198
 O73 O 0.54225 -0.06079 0.71274
 O74 O 0.57494 0.04807 0.79286
 O75 O 0.49409 0.04415 0.78201
 O76 O 0.46017 -0.06573 0.70764
 O77 O 0.46080 -0.06579 0.78575
 O78 O 0.52103 0.04452 0.70470
 Cu79 Cu 0.57302 -0.00574 0.75444
 Cu80 Cu 0.47697 -0.01038 0.74429
 C81 C 0.57254 0.06540 0.69692
 C82 C 0.49240 -0.08306 0.80193
 C83 C 0.49453 -0.08200 0.69666
 C84 C 0.53921 0.06464 0.80066
 O85 O 0.39164 0.62910 0.95477
 O86 O 0.38375 0.72192 0.94286
 C87 C 0.35474 0.74717 0.93891
 O88 O 0.31666 0.74071 0.96350
 O89 O 0.22707 0.64256 0.96110
 C90 C 0.20206 0.58867 0.95864
 O91 O 0.21462 0.55716 0.97984
 O92 O 0.30496 0.55919 0.95101
 C93 C 0.35418 0.58528 0.93769
 O94 O 0.40648 0.65321 1.03477
 O95 O 0.40297 0.74783 1.02157
 C96 C 0.37300 0.75754 1.04619
 O97 O 0.32054 0.73176 1.04489
 O98 O 0.22786 0.63608 1.04309
 C99 C 0.22759 0.59631 1.06459
 O100 O 0.25370 0.56947 1.05465
 O101 O 0.34092 0.56412 1.02639
 C102 C 0.38446 0.60062 1.04302
 Cr103 Cr 0.39337 0.68647 0.98882
 Cr104 Cr 0.27446 0.68635 1.00299
 Cr105 Cr 0.27996 0.56557 1.00281
 O106 O 0.31603 0.64641 0.99820
 O107 O 0.58509 0.32852 0.96157
 O108 O 0.60784 0.24499 0.95239
 C109 C 0.64273 0.22716 0.94738
 O110 O 0.68390 0.24139 0.96997
 O111 O 0.76243 0.34503 0.96123
 C112 C 0.77796 0.39706 0.95337
 O113 O 0.76174 0.42731 0.97318
 O114 O 0.66229 0.41149 0.95873
 C115 C 0.61468 0.37700 0.94584
 O116 O 0.57881 0.31193 1.04213
 O117 O 0.59857 0.22657 1.03375
 C118 C 0.63535 0.22497 1.05613
 O119 O 0.68668 0.25557 1.05014
 O120 O 0.77064 0.35598 1.04177
 C121 C 0.76974 0.39520 1.06249
 O122 O 0.73926 0.41749 1.05399
 O123 O 0.64092 0.40394 1.03934
 C124 C 0.59804 0.36269 1.05421
 Cr125 Cr 0.59575 0.28006 0.99766
 Cr126 Cr 0.72389 0.30083 1.00565
 Cr127 Cr 0.69994 0.41178 1.00618
 O128 O 0.67302 0.33099 1.00324
 O129 O 0.66890 0.40768 0.54490
 O130 O 0.76373 0.40827 0.54013
 C131 C 0.76861 0.37070 0.56042
 O132 O 0.74475 0.31880 0.55099
 O133 O 0.65531 0.22739 0.53246
 C134 C 0.60763 0.21819 0.54450
 O135 O 0.58279 0.24404 0.53073
 O136 O 0.58623 0.34272 0.52281
 C137 C 0.61668 0.38187 0.54728
 O138 O 0.66955 0.42238 0.46473
 O139 O 0.76005 0.41443 0.45937
 C140 C 0.78453 0.38525 0.45208
 O141 O 0.77433 0.33962 0.47121
 O142 O 0.68459 0.24813 0.45304
 C143 C 0.63743 0.22856 0.43729
 O144 O 0.59989 0.23932 0.45075
 O145 O 0.60599 0.33881 0.44232
 C146 C 0.63272 0.39225 0.43973
 Cr147 Cr 0.71403 0.40990 0.50210
 Cr148 Cr 0.71318 0.28520 0.50174
 Cr149 Cr 0.59685 0.29269 0.48705
 O150 O 0.67454 0.32890 0.49709
 O151 O 0.33471 0.57659 0.53486
 O152 O 0.23807 0.57091 0.54489
 C153 C 0.20759 0.59398 0.55116
 O154 O 0.21179 0.63607 0.53109
 O155 O 0.29813 0.72934 0.55386
 C156 C 0.34868 0.75732 0.56322
 O157 O 0.38736 0.75776 0.54177
 O158 O 0.39676 0.66529 0.55098
 C159 C 0.37392 0.61180 0.55657
 O160 O 0.32635 0.58528 0.45397
 O161 O 0.22780 0.57590 0.46341
 C162 C 0.21901 0.61195 0.44383
 O163 O 0.23915 0.66392 0.45389
 O164 O 0.32078 0.76121 0.47661
 C165 C 0.36228 0.77197 0.45477
 O166 O 0.39256 0.74847 0.46023
 O167 O 0.40662 0.65921 0.47066
 C168 C 0.37773 0.61683 0.44864
 Cr169 Cr 0.28285 0.58005 0.49939
 Cr170 Cr 0.26922 0.69630 0.50383
 Cr171 Cr 0.39301 0.70615 0.50581
 O172 O 0.31514 0.66058 0.50304
 C173 C 0.39829 0.51684 0.32980
 C174 C 0.41882 0.55810 0.35735
 C175 C 0.38402 0.56425 0.38883
 C176 C 0.40749 0.60553 0.41600
 H177 H 0.46251 0.58799 0.35712
 H178 H 0.34008 0.53563 0.38980
 H179 H 0.35462 0.48699 0.33033
 H180 H 0.45156 0.63356 0.41414
 C181 C 0.45370 0.88200 0.33270
 C182 C 0.41310 0.86370 0.35993
 C183 C 0.41009 0.82514 0.39293
 C184 C 0.37341 0.81384 0.42248
 H185 H 0.38224 0.87809 0.35851
 H186 H 0.43672 0.80544 0.39267
 H187 H 0.48517 0.86859 0.33543
 H188 H 0.34730 0.83419 0.42185
 C189 C 0.11344 0.63295 0.33233
 C190 C 0.12994 0.60036 0.35250
 C191 C 0.16957 0.62419 0.38584
 C192 C 0.18237 0.59080 0.40861
 H193 H 0.11252 0.55552 0.34553
 H194 H 0.18708 0.66912 0.39256
 H195 H 0.13039 0.67751 0.34012
 H196 H 0.16447 0.54589 0.40171
 C197 C 0.52398 0.40617 0.32707
 C198 C 0.56775 0.42943 0.35130
 C199 C 0.57880 0.39588 0.38159
 C200 C 0.62070 0.42200 0.40714
 H201 H 0.59565 0.47468 0.34947
 H202 H 0.55202 0.35043 0.38369
 H203 H 0.49581 0.36103 0.32885
 H204 H 0.64644 0.46765 0.40494
 C205 C 0.51858 0.10632 0.33017
 C206 C 0.56838 0.12995 0.34718
 C207 C 0.57940 0.16950 0.38144
 C208 C 0.62662 0.19096 0.40192
 H209 H 0.59962 0.11874 0.33723
 H210 H 0.54756 0.18023 0.39067
 H211 H 0.48838 0.11813 0.34172
 H212 H 0.65851 0.18036 0.39262
 C213 C 0.88880 0.51594 0.34176
 C214 C 0.87675 0.46848 0.36281
 C215 C 0.83751 0.45092 0.39699
 C216 C 0.82659 0.40494 0.41958
 H217 H 0.89593 0.44242 0.35485
 H218 H 0.81649 0.47573 0.40327
 H219 H 0.87053 0.54252 0.35057
 H220 H 0.84762 0.38017 0.41321
 C221 C 0.57994 0.47454 1.16563
 C222 C 0.55800 0.42944 1.14121
 C223 C 0.58989 0.42171 1.10832
 C224 C 0.56817 0.37351 1.08708
 H225 H 0.51546 0.39736 1.14543
 H226 H 0.63121 0.45506 1.10176
 H227 H 0.62264 0.50632 1.16185
 H228 H 0.52751 0.33981 1.09493
 C229 C 0.87914 0.52436 1.17169
 C230 C 0.85822 0.47396 1.15332
 C231 C 0.81811 0.45926 1.12007
 C232 C 0.80660 0.41352 1.09769
 H233 H 0.87265 0.44384 1.16153
 H234 H 0.79992 0.48649 1.11304
 H235 H 0.86507 0.55444 1.16261
 H236 H 0.82682 0.38816 1.10483
 C237 C 0.50377 0.09935 1.15933
 C238 C 0.55305 0.12214 1.14074
 C239 C 0.56688 0.16084 1.10584
 C240 C 0.61815 0.18523 1.09054
 H241 H 0.58451 0.11179 1.15135
 H242 H 0.53556 0.16970 1.09297
 H243 H 0.47216 0.10975 1.14926
 H244 H 0.64940 0.17737 1.10472
 C245 C 0.47121 0.59759 1.17140
 C246 C 0.44699 0.57435 1.13663
 C247 C 0.43616 0.60636 1.10495
 C248 C 0.40880 0.57819 1.07235
 H249 H 0.43345 0.52950 1.13164
 H250 H 0.44614 0.65039 1.10955
 H251 H 0.48736 0.64276 1.17647
 H252 H 0.39725 0.53342 1.06959
 C253 C 0.10519 0.61920 1.16278
 C254 C 0.12940 0.58871 1.14977
 C255 C 0.16749 0.60807 1.11488
 C256 C 0.19344 0.57929 1.10174
 H257 H 0.12026 0.54877 1.16431
 H258 H 0.17324 0.64607 1.09900
 H259 H 0.11537 0.65956 1.14847
 H260 H 0.18838 0.54178 1.11795
 C261 C 0.38786 0.86467 1.17053
 C262 C 0.41227 0.85348 1.13953
 C263 C 0.37884 0.81024 1.10928
 C264 C 0.40272 0.80137 1.07688
 H265 H 0.45661 0.87742 1.13574
 H266 H 0.33467 0.78545 1.11362
 H267 H 0.34331 0.84161 1.17308
 H268 H 0.44707 0.82598 1.07338
 C269 C 0.62032 0.50223 0.66074
 C270 C 0.59135 0.45614 0.63805
 C271 C 0.61841 0.44071 0.60532
 C272 C 0.58967 0.39807 0.57971
 H273 H 0.54751 0.43014 0.64327
 H274 H 0.66281 0.46498 0.60213
 H275 H 0.66379 0.52884 0.65442
 H276 H 0.54522 0.37439 0.58263
 C277 C 0.59974 0.10712 0.66437
 C278 C 0.57280 0.11941 0.63596
 C279 C 0.60374 0.15872 0.60274
 C280 C 0.57816 0.17545 0.57607
 H281 H 0.52821 0.10008 0.63689
 H282 H 0.64808 0.17553 0.60085
 H283 H 0.64431 0.12640 0.66258
 H284 H 0.53418 0.16033 0.57927
 C285 C 0.88451 0.36085 0.67156
 C286 C 0.85887 0.38525 0.65146
 C287 C 0.82104 0.35861 0.61742
 C288 C 0.80412 0.39026 0.59619
 H289 H 0.86755 0.42811 0.65937
 H290 H 0.80868 0.31498 0.60912
 H291 H 0.87684 0.31824 0.66407
 H292 H 0.81860 0.43428 0.60470
 C293 C 0.50014 0.62108 0.66490
 C294 C 0.45365 0.59121 0.64429
 C295 C 0.43626 0.61860 0.61269
 C296 C 0.39285 0.58763 0.58934
 H297 H 0.42885 0.54611 0.65013
 H298 H 0.45968 0.66413 0.60806
 H299 H 0.52513 0.66593 0.65824
 H300 H 0.37039 0.54202 0.59397
 C301 C 0.47991 0.87742 0.66615
 C302 C 0.42947 0.85412 0.64964
 C303 C 0.41467 0.81574 0.61491
 C304 C 0.36360 0.79250 0.59976
 H305 H 0.39843 0.86478 0.66101
 H306 H 0.44611 0.80771 0.60102
 H307 H 0.51032 0.86566 0.65516
 H308 H 0.33207 0.79960 0.61445
 C309 C 0.10842 0.48202 0.67040
 C310 C 0.11804 0.52221 0.64294
 C311 C 0.15932 0.53523 0.61071
 C312 C 0.16468 0.57304 0.58248
 H313 H 0.09493 0.54580 0.64392
 H314 H 0.18586 0.51543 0.61063
 H315 H 0.13096 0.45790 0.66851
 H316 H 0.13781 0.59250 0.58357
 C317 C 0.48855 0.60300 0.83405
 C318 C 0.43817 0.57123 0.84978
 C319 C 0.41956 0.59276 0.88435
 C320 C 0.36969 0.56331 0.90156
 H321 H 0.41150 0.52927 0.83796
 H322 H 0.44828 0.63388 0.89647
 H323 H 0.51454 0.64490 0.84630
 H324 H 0.34032 0.52264 0.88924
 C325 C 0.10799 0.55474 0.82841
 C326 C 0.11422 0.53740 0.86478
 C327 C 0.15400 0.57712 0.89398
 C328 C 0.15598 0.55852 0.93094
 H329 H 0.08918 0.49317 0.87327
 H330 H 0.18385 0.61957 0.88452
 H331 H 0.13042 0.59947 0.82061
 H332 H 0.12698 0.51507 0.93900
 C333 C 0.47276 0.87122 0.83230
 C334 C 0.42325 0.84833 0.84993
 C335 C 0.40996 0.80428 0.88127
 C336 C 0.36567 0.78718 0.90504
 H337 H 0.39387 0.86317 0.84238
 H338 H 0.43848 0.78744 0.88618
 H339 H 0.50181 0.85656 0.84134
 H340 H 0.33799 0.80520 0.90087
 C341 C 0.62122 0.50151 0.83334
 C342 C 0.59315 0.45352 0.85451
 C343 C 0.61915 0.43991 0.88898
 C344 C 0.59107 0.39267 0.91096
 H345 H 0.55055 0.42497 0.84714
 H346 H 0.66152 0.46903 0.89656
 H347 H 0.66350 0.53006 0.84157
 H348 H 0.54889 0.36363 0.90281
 C349 C 0.88731 0.38851 0.84063
 C350 C 0.86963 0.42009 0.86077
 C351 C 0.83107 0.39407 0.89475
 C352 C 0.81673 0.42428 0.91960
 H353 H 0.88482 0.46456 0.85328
 H354 H 0.81446 0.34875 0.89979
 H355 H 0.87310 0.34475 0.84988
 H356 H 0.83285 0.46952 0.91461
 C357 C 0.54827 0.10752 0.83160
 C358 C 0.59120 0.12838 0.85641
 C359 C 0.59548 0.16899 0.88808
 C360 C 0.63659 0.18763 0.91450
 H361 H 0.62239 0.11456 0.85400
 H362 H 0.56443 0.18305 0.89015
 H363 H 0.51703 0.12117 0.83483
 H364 H 0.66729 0.17311 0.91211
   
