data_POSCAR
  _audit_creation_date              2014-09-24
  _audit_creation_method            'ToBaCCo'
  _symmetry_space_group_name_H-M    'P1'
  _symmetry_Int_Tables_number       1
  _symmetry_cell_setting            triclinic
  loop_
  _symmetry_equiv_pos_as_xyz
 x,y,z
_cell_length_a 39.6388
_cell_length_b 39.3575
_cell_length_c 20.9041
_cell_angle_alpha 90.712900
_cell_angle_beta 89.527600
_cell_angle_gamma 89.210300
loop_
  _atom_site_label
  _atom_site_type_symbol
  _atom_site_fract_x
  _atom_site_fract_y
  _atom_site_fract_z
O1 O 0.02022 0.24902 -0.10482
 O2 O -0.04057 0.26290 0.02861
 O3 O 0.02546 0.25371 0.01804
 O4 O -0.04631 0.25671 -0.09478
 O5 O -0.05156 0.20123 -0.08548
 O6 O 0.01926 0.19816 0.02524
 O7 O -0.04475 0.20732 0.03747
 O8 O 0.01353 0.19357 -0.09734
 Cu9 Cu -0.00980 0.26124 -0.03934
 Cu10 Cu -0.01659 0.19459 -0.02951
 C11 C 0.02776 0.21882 -0.12252
 C12 C -0.05294 0.23721 0.05603
 C13 C 0.03470 0.22507 0.04003
 C14 C -0.06151 0.22933 -0.10828
 O15 O 0.46263 0.75127 0.58734
 O16 O 0.53220 0.73303 0.47237
 O17 O 0.46626 0.74202 0.46351
 O18 O 0.52885 0.74255 0.59445
 O19 O 0.52103 0.68760 0.60783
 O20 O 0.46045 0.68679 0.47658
 O21 O 0.52496 0.67799 0.48582
 O22 O 0.45630 0.69611 0.59993
 Cu23 Cu 0.49804 0.74786 0.52818
 Cu24 Cu 0.48982 0.68170 0.54391
 C25 C 0.44750 0.72657 0.61292
 C26 C 0.54075 0.70229 0.46069
 C27 C 0.45280 0.71400 0.44790
 C28 C 0.53602 0.71484 0.62227
 O29 O 0.96779 0.74658 -0.06210
 O30 O 1.03152 0.76474 0.06137
 O31 O 0.96504 0.76044 0.06036
 O32 O 1.03416 0.75316 -0.06041
 O33 O 1.02919 0.80824 -0.07766
 O34 O 0.96051 0.81519 0.03953
 O35 O 1.02555 0.81971 0.04347
 O36 O 0.96447 0.80136 -0.08260
 Cu37 Cu 0.99997 0.75062 0.00169
 Cu38 Cu 0.99424 0.81652 -0.02125
 C39 C 0.95524 0.77103 -0.09350
 C40 C 1.03974 0.79535 0.07248
 C41 C 0.95096 0.78934 0.06996
 C42 C 1.04399 0.77995 -0.08816
 O43 O 0.52780 0.23307 0.52978
 O44 O 0.46539 0.25113 0.40231
 O45 O 0.53097 0.25470 0.41393
 O46 O 0.46173 0.22447 0.51620
 O47 O 0.45414 0.27643 0.55513
 O48 O 0.52380 0.30660 0.45369
 O49 O 0.45919 0.30318 0.44184
 O50 O 0.51881 0.28477 0.56892
 Cu51 Cu 0.49700 0.23548 0.46200
 Cu52 Cu 0.48803 0.29779 0.50902
 C53 C 0.53457 0.25655 0.56993
 C54 C 0.45211 0.28074 0.40039
 C55 C 0.53953 0.28565 0.41715
 C56 C 0.44582 0.24534 0.55239
 O57 O 0.74311 -0.03724 0.10266
 O58 O 0.74179 0.03136 -0.01834
 O59 O 0.73366 -0.03434 -0.02195
 O60 O 0.73591 0.03149 0.10421
 O61 O 0.79156 0.03056 0.10014
 O62 O 0.78931 -0.03811 -0.02091
 O63 O 0.79722 0.02599 -0.02593
 O64 O 0.79882 -0.03643 0.10010
 Cu65 Cu 0.73350 -0.00251 0.04333
 Cu66 Cu 0.79930 -0.00406 0.03920
 C67 C 0.77167 -0.04872 0.12094
 C68 C 0.76993 0.04006 -0.04301
 C69 C 0.76096 -0.04796 -0.04214
 C70 C 0.76397 0.04305 0.12235
 O71 O 0.26612 0.46812 0.53083
 O72 O 0.26986 0.53936 0.41733
 O73 O 0.27107 0.47208 0.40743
 O74 O 0.26481 0.53470 0.54022
 O75 O 0.32044 0.53412 0.54716
 O76 O 0.32664 0.47256 0.41483
 O77 O 0.32548 0.53844 0.42401
 O78 O 0.32171 0.46898 0.53825
 Cu79 Cu 0.26229 0.50353 0.47288
 Cu80 Cu 0.32912 0.50351 0.48147
 C81 C 0.29352 0.45656 0.55379
 C82 C 0.29846 0.55138 0.40256
 C83 C 0.30004 0.46123 0.38956
 C84 C 0.29178 0.54514 0.56589
 O85 O 0.26305 1.03844 0.02516
 O86 O 0.25989 0.96839 -0.09503
 O87 O 0.26153 1.03523 -0.09869
 O88 O 0.26543 0.97142 0.02936
 O89 O 0.20984 0.97259 0.03649
 O90 O 0.20594 1.03537 -0.09217
 O91 O 0.20428 0.96953 -0.08706
 O92 O 0.20747 1.03817 0.03140
 Cu93 Cu 0.26810 1.00320 -0.03541
 Cu94 Cu 0.20141 1.00390 -0.02725
 C95 C 0.23549 1.05060 0.04791
 C96 C 0.23121 0.95696 -0.11089
 C97 C 0.23305 1.04658 -0.11663
 C98 C 0.23827 0.96109 0.05462
 O99 O 0.77367 0.46113 0.49850
 O100 O 0.76523 0.53178 0.61662
 O101 O 0.76362 0.46417 0.62117
 O102 O 0.77267 0.52792 0.49290
 O103 O 0.71746 0.52749 0.48003
 O104 O 0.70842 0.46588 0.60835
 O105 O 0.71007 0.53231 0.60285
 O106 O 0.71840 0.46214 0.48618
 Cu107 Cu 0.77436 0.49624 0.55903
 Cu108 Cu 0.70812 0.49704 0.54348
 C109 C 0.74730 0.44953 0.47249
 C110 C 0.73621 0.54466 0.62835
 C111 C 0.73434 0.45354 0.63519
 C112 C 0.74631 0.53849 0.46465
 C113 C 0.18874 0.20092 0.12821
 C114 C 0.21883 0.18703 0.15176
 C115 C 0.24250 0.20856 0.17960
 C116 C 0.23725 0.24416 0.18186
 C117 C 0.20706 0.25751 0.15587
 C118 C 0.18223 0.23599 0.13166
 C119 C 0.26283 0.26703 0.21197
 C120 C 0.25328 0.29943 0.23638
 C121 C 0.27690 0.32079 0.26490
 C122 C 0.30996 0.30877 0.27378
 C123 C 0.32014 0.27644 0.25134
 C124 C 0.29680 0.25628 0.21893
 H125 H 0.17090 0.18461 0.10431
 H126 H 0.26475 0.19695 0.19988
 H127 H 0.20238 0.28461 0.15428
 H128 H 0.22737 0.30826 0.23463
 H129 H 0.32704 0.32389 0.30197
 H130 H 0.30556 0.23202 0.20007
 C131 C 0.79918 0.79382 0.18382
 C132 C 0.76500 0.80103 0.19544
 C133 C 0.74494 0.77668 0.22450
 C134 C 0.75917 0.74628 0.24842
 C135 C 0.79394 0.73977 0.23682
 C136 C 0.81386 0.76301 0.20339
 C137 C 0.73766 0.72197 0.28531
 C138 C 0.74715 0.68742 0.29256
 C139 C 0.72663 0.66513 0.32682
 C140 C 0.69580 0.67708 0.35242
 C141 C 0.68555 0.71096 0.34519
 C142 C 0.70713 0.73340 0.31436
 H143 H 0.81372 0.81177 0.15660
 H144 H 0.71822 0.78211 0.22847
 H145 H 0.80606 0.71691 0.25386
 H146 H 0.77019 0.67728 0.27146
 H147 H 0.68054 0.66035 0.38102
 H148 H 0.69964 0.75988 0.31376
 C149 C 0.81600 0.19021 0.20703
 C150 C 0.82436 0.22469 0.20813
 C151 C 0.80055 0.24868 0.23102
 C152 C 0.76925 0.23824 0.25661
 C153 C 0.76219 0.20306 0.25696
 C154 C 0.78513 0.17906 0.23131
 C155 C 0.74380 0.26377 0.28181
 C156 C 0.70902 0.25634 0.28155
 C157 C 0.68503 0.27883 0.30865
 C158 C 0.69584 0.31004 0.33354
 C159 C 0.72995 0.31904 0.33135
 C160 C 0.75390 0.29541 0.30754
 H161 H 0.83294 0.17218 0.18339
 H162 H 0.80648 0.27536 0.22789
 H163 H 0.73884 0.19389 0.27702
 H164 H 0.70018 0.23281 0.26082
 H165 H 0.67811 0.32685 0.35807
 H166 H 0.78033 0.30177 0.31003
 C167 C 0.19083 0.82218 0.17848
 C168 C 0.18278 0.78815 0.18814
 C169 C 0.20662 0.76657 0.21612
 C170 C 0.23755 0.77897 0.24005
 C171 C 0.24455 0.81383 0.23068
 C172 C 0.22165 0.83526 0.19907
 C173 C 0.26219 0.75539 0.27311
 C174 C 0.29615 0.76467 0.28457
 C175 C 0.31881 0.74231 0.31457
 C176 C 0.30785 0.70993 0.33159
 C177 C 0.27485 0.69974 0.31984
 C178 C 0.25191 0.72291 0.29378
 H179 H 0.17385 0.83799 0.15115
 H180 H 0.20047 0.74001 0.21787
 H181 H 0.26762 0.82497 0.24738
 H182 H 0.30568 0.78899 0.27036
 H183 H 0.32453 0.69302 0.35731
 H184 H 0.22610 0.71486 0.29029
 C185 C 0.67097 0.30783 0.70987
 C186 C 0.66201 0.27345 0.71058
 C187 C 0.68521 0.24928 0.73271
 C188 C 0.71654 0.25921 0.75792
 C189 C 0.72472 0.29403 0.75766
 C190 C 0.70240 0.31836 0.73280
 C191 C 0.74065 0.23325 0.78357
 C192 C 0.77582 0.23856 0.78169
 C193 C 0.79841 0.21456 0.80663
 C194 C 0.78575 0.18453 0.83246
 C195 C 0.75099 0.17813 0.83335
 C196 C 0.72862 0.20298 0.81073
 H197 H 0.65412 0.32601 0.68780
 H198 H 0.67867 0.22271 0.72965
 H199 H 0.74845 0.30260 0.77680
 H200 H 0.78600 0.26123 0.76059
 H201 H 0.80288 0.16687 0.85520
 H202 H 0.70181 0.19861 0.81506
 C203 C 0.29934 0.69220 0.68869
 C204 C 0.31064 0.72359 0.71172
 C205 C 0.28691 0.74868 0.72974
 C206 C 0.25194 0.74316 0.72279
 C207 C 0.24140 0.71151 0.69802
 C208 C 0.26482 0.68568 0.68292
 C209 C 0.22658 0.77048 0.73941
 C210 C 0.19329 0.76221 0.75761
 C211 C 0.16904 0.78782 0.77018
 C212 C 0.17837 0.82188 0.76664
 C213 C 0.21171 0.83069 0.75338
 C214 C 0.23540 0.80510 0.73754
 H215 H 0.31755 0.67354 0.67101
 H216 H 0.29612 0.77242 0.74888
 H217 H 0.21501 0.70683 0.68912
 H218 H 0.18602 0.73597 0.76193
 H219 H 0.15997 0.84169 0.77843
 H220 H 0.26044 0.81256 0.72314
 C221 C 0.30364 0.30584 0.66529
 C222 C 0.26931 0.31293 0.65659
 C223 C 0.24567 0.28837 0.67303
 C224 C 0.25571 0.25781 0.70291
 C225 C 0.29065 0.25119 0.71059
 C226 C 0.31447 0.27506 0.69087
 C227 C 0.22958 0.23399 0.72777
 C228 C 0.23655 0.19894 0.73530
 C229 C 0.21213 0.17721 0.76076
 C230 C 0.18013 0.19059 0.77720
 C231 C 0.17242 0.22511 0.76923
 C232 C 0.19744 0.24667 0.74657
 H233 H 0.32242 0.32373 0.64952
 H234 H 0.21939 0.29360 0.66301
 H235 H 0.29959 0.22825 0.73319
 H236 H 0.26092 0.18827 0.72190
 H237 H 0.16187 0.17467 0.80057
 H238 H 0.19169 0.27359 0.74508
 C239 C 0.68762 0.69317 0.72385
 C240 C 0.71917 0.68042 0.74202
 C241 C 0.74408 0.70314 0.76245
 C242 C 0.73828 0.73869 0.76104
 C243 C 0.70684 0.75074 0.73860
 C244 C 0.68115 0.72826 0.72203
 C245 C 0.76480 0.76327 0.78203
 C246 C 0.75557 0.79604 0.80563
 C247 C 0.78010 0.81965 0.82320
 C248 C 0.81411 0.80969 0.82092
 C249 C 0.82408 0.77728 0.79913
 C250 C 0.79948 0.75427 0.77931
 H251 H 0.66872 0.67555 0.70729
 H252 H 0.76760 0.69284 0.78003
 H253 H 0.70205 0.77769 0.73341
 H254 H 0.72931 0.80337 0.81138
 H255 H 0.83298 0.82656 0.84004
 H256 H 0.80776 0.72960 0.76149
 C257 C 0.23591 0.07900 0.08870
 C258 C 0.20717 0.09242 0.11341
 C259 C 0.20326 0.12685 0.14154
 C260 C 0.22719 0.15055 0.14182
 H261 H 0.18372 0.07892 0.10757
 H262 H 0.17785 0.13397 0.15631
 H263 H 0.25983 0.09118 0.09659
 H264 H 0.25313 0.14398 0.13041
 C265 C 0.73209 0.57544 0.66881
 C266 C 0.75815 0.59456 0.68747
 C267 C 0.75433 0.62985 0.71301
 C268 C 0.72520 0.64328 0.73554
 H269 H 0.78360 0.58595 0.67613
 H270 H 0.77598 0.64606 0.70742
 H271 H 0.70644 0.58434 0.67632
 H272 H 0.70343 0.62732 0.74132
 C273 C 0.77452 0.92233 0.16402
 C274 C 0.75460 0.89536 0.15921
 C275 C 0.76597 0.86292 0.18660
 C276 C 0.74995 0.83380 0.17572
 H277 H 0.73263 0.89605 0.12866
 H278 H 0.78948 0.86236 0.21283
 H279 H 0.79750 0.92037 0.19162
 H280 H 0.72563 0.83396 0.15241
 C281 C 0.29366 0.42817 0.59841
 C282 C 0.26957 0.40480 0.60014
 C283 C 0.27536 0.37401 0.63781
 C284 C 0.25823 0.34541 0.62788
 H285 H 0.24769 0.40684 0.56958
 H286 H 0.29608 0.37405 0.67133
 H287 H 0.31634 0.42446 0.62634
 H288 H 0.23651 0.34553 0.59671
 C289 C 0.92345 0.24174 0.10562
 C290 C 0.91319 0.21527 0.14022
 C291 C 0.88451 0.21562 0.18531
 C292 C 0.85681 0.23528 0.17936
 H293 H 0.92578 0.19079 0.13428
 H294 H 0.88382 0.19438 0.21777
 H295 H 0.91311 0.26692 0.11523
 H296 H 0.85674 0.25692 0.14789
 C297 C 0.41804 0.73309 0.65496
 C298 C 0.40544 0.70821 0.69094
 C299 C 0.37070 0.70739 0.71692
 C300 C 0.34704 0.73158 0.70857
 H301 H 0.41972 0.68467 0.69505
 H302 H 0.36323 0.68326 0.73657
 H303 H 0.40516 0.75734 0.65107
 H304 H 0.35379 0.75668 0.69294
 C305 C 0.06695 0.80342 0.11711
 C306 C 0.09172 0.78130 0.13039
 C307 C 0.12224 0.79327 0.16277
 C308 C 0.15046 0.77427 0.16484
 H309 H 0.09098 0.75547 0.11184
 H310 H 0.12217 0.81899 0.18192
 H311 H 0.06897 0.82964 0.13301
 H312 H 0.15003 0.74806 0.14830
 C313 C 0.56269 0.25227 0.61516
 C314 C 0.56920 0.27677 0.65846
 C315 C 0.60121 0.28116 0.69306
 C316 C 0.62936 0.26242 0.68392
 H317 H 0.55106 0.29736 0.66546
 H318 H 0.60219 0.30333 0.72422
 H319 H 0.57972 0.23085 0.60800
 H320 H 0.62907 0.23922 0.65570
 C321 C 0.77221 0.06583 0.91223
 C322 C 0.74736 0.08791 0.89886
 C323 C 0.75564 0.11746 0.85937
 C324 C 0.73785 0.14658 0.86202
 H325 H 0.72283 0.08627 0.92183
 H326 H 0.77882 0.11626 0.83147
 H327 H 0.79697 0.06987 0.89127
 H328 H 0.71397 0.14767 0.88764
 C329 C 0.30126 0.58151 0.36238
 C330 C 0.27683 0.60514 0.35881
 C331 C 0.28470 0.63841 0.33148
 C332 C 0.26385 0.66528 0.33771
 H333 H 0.25260 0.60131 0.38183
 H334 H 0.30929 0.64158 0.30937
 H335 H 0.32591 0.58662 0.34205
 H336 H 0.23862 0.66210 0.35688
 C337 C 0.22799 0.92795 0.84480
 C338 C 0.25421 0.90925 0.82280
 C339 C 0.24968 0.87562 0.79158
 C340 C 0.22116 0.86662 0.76197
 H341 H 0.27960 0.91623 0.83586
 H342 H 0.26927 0.85676 0.79968
 H343 H 0.20246 0.91992 0.83583
 H344 H 0.20170 0.88552 0.75331
 C345 C 0.74995 0.42024 0.42786
 C346 C 0.72374 0.41170 0.39122
 C347 C 0.72064 0.37992 0.35363
 C348 C 0.74052 0.35218 0.35871
 H349 H 0.70174 0.42835 0.39060
 H350 H 0.69826 0.37848 0.32435
 H351 H 0.77296 0.40516 0.42734
 H352 H 0.76374 0.35299 0.38543
 C353 C 0.05462 0.21205 0.83008
 C354 C 0.07993 0.23357 0.82082
 C355 C 0.11100 0.22160 0.78817
 C356 C 0.13938 0.23956 0.79033
 H357 H 0.07939 0.25842 0.84386
 H358 H 0.11130 0.19649 0.76626
 H359 H 0.05635 0.18662 0.80963
 H360 H 0.13863 0.26522 0.80981
 C361 C 0.56995 0.69392 0.41954
 C362 C 0.59456 0.71592 0.40802
 C363 C 0.62589 0.70404 0.37625
 C364 C 0.65302 0.72374 0.37214
 H365 H 0.59264 0.74181 0.42615
 H366 H 0.62702 0.67822 0.35766
 H367 H 0.57293 0.66771 0.40357
 H368 H 0.65122 0.75005 0.38795
 C369 C 0.92981 0.76470 0.86210
 C370 C 0.91734 0.78957 0.82538
 C371 C 0.88444 0.78907 0.79290
 C372 C 0.85992 0.76678 0.80485
 H373 H 0.92997 0.81381 0.82409
 H374 H 0.87795 0.81212 0.76766
 H375 H 0.91903 0.73960 0.86050
 H376 H 0.86530 0.74294 0.82804
 C377 C 0.42780 0.29027 0.35093
 C378 C 0.40882 0.26805 0.31918
 C379 C 0.37998 0.28109 0.28234
 C380 C 0.35349 0.26171 0.26866
 H381 H 0.41197 0.24099 0.32662
 H382 H 0.37884 0.30806 0.27270
 H383 H 0.42270 0.31724 0.34570
 H384 H 0.35526 0.23453 0.27601
 C385 C 0.75970 0.92346 0.91171
 C386 C 0.78764 0.91223 0.88143
 C387 C 0.79044 0.88055 0.84318
 C388 C 0.77024 0.85361 0.84961
 H389 H 0.81070 0.92649 0.88618
 H390 H 0.81288 0.87820 0.81348
 H391 H 0.73586 0.91093 0.90470
 H392 H 0.74730 0.85560 0.87787
 C393 C 0.30369 0.43411 0.34111
 C394 C 0.27921 0.41207 0.32864
 C395 C 0.28733 0.38068 0.29246
 C396 C 0.26615 0.35454 0.29041
 H397 H 0.25451 0.41530 0.35074
 H398 H 0.31222 0.37800 0.27096
 H399 H 0.32873 0.42952 0.32122
 H400 H 0.24072 0.35764 0.30928
 C401 C 0.23183 0.07265 0.83849
 C402 C 0.20244 0.08527 0.81703
 C403 C 0.19833 0.11715 0.78103
 C404 C 0.22143 0.14177 0.77775
 H405 H 0.17910 0.07285 0.82958
 H406 H 0.17318 0.12205 0.76329
 H407 H 0.25544 0.08354 0.82323
 H408 H 0.24701 0.13713 0.79329
 C409 C 0.74867 0.56533 0.41620
 C410 C 0.72230 0.57232 0.37845
 C411 C 0.71664 0.60455 0.34450
 C412 C 0.73849 0.63019 0.34114
 H413 H 0.70096 0.55540 0.37878
 H414 H 0.69123 0.60856 0.32715
 H415 H 0.77073 0.58118 0.41652
 H416 H 0.76469 0.62654 0.35368
 C417 C 0.07208 0.77974 0.87130
 C418 C 0.09231 0.75253 0.86080
 C419 C 0.12562 0.75492 0.82824
 C420 C 0.13394 0.78048 0.78943
 H421 H 0.08645 0.72858 0.88305
 H422 H 0.14449 0.73610 0.84091
 H423 H 0.07886 0.80412 0.85212
 H424 H 0.11507 0.79909 0.77599
 C425 C 0.56884 0.29759 0.38063
 C426 C 0.59118 0.27619 0.35284
 C427 C 0.62373 0.28884 0.32934
 C428 C 0.64966 0.26750 0.31689
 H429 H 0.58698 0.24903 0.35339
 H430 H 0.62702 0.31604 0.32718
 H431 H 0.57395 0.32459 0.38211
 H432 H 0.64525 0.24037 0.31698
 C433 C 0.90770 0.23029 0.85253
 C434 C 0.89354 0.20136 0.83217
 C435 C 0.85860 0.19793 0.80905
 C436 C 0.83479 0.22248 0.81159
 H437 H 0.90722 0.17758 0.83794
 H438 H 0.85140 0.17235 0.79586
 H439 H 0.89548 0.25465 0.84538
 H440 H 0.84136 0.24854 0.82178
 C441 C 0.42744 0.71193 0.39711
 C442 C 0.40865 0.73832 0.37777
 C443 C 0.37876 0.73153 0.33826
 C444 C 0.35292 0.75365 0.33382
 H445 H 0.41283 0.76362 0.39694
 H446 H 0.37608 0.70608 0.31868
 H447 H 0.42145 0.68661 0.37996
 H448 H 0.35576 0.77960 0.35066
 C449 C 0.23969 0.93422 0.10317
 C450 C 0.21237 0.92656 0.13808
 C451 C 0.20806 0.89506 0.17493
 C452 C 0.23133 0.87020 0.18104
 H453 H 0.18997 0.94250 0.13446
 H454 H 0.18271 0.89093 0.19266
 H455 H 0.26274 0.91937 0.10639
 H456 H 0.25740 0.87431 0.16804
 C457 C 0.73052 0.42478 0.67930
 C458 C 0.69978 0.41397 0.69632
 C459 C 0.69216 0.38032 0.72328
 C460 C 0.71382 0.35381 0.72419
 H461 H 0.67788 0.42943 0.68480
 H462 H 0.66598 0.37638 0.73593
 H463 H 0.75302 0.41076 0.69234
 H464 H 0.74030 0.35734 0.71385
 C465 C 0.76444 0.07265 0.16631
 C466 C 0.79336 0.08375 0.19133
 C467 C 0.79828 0.11767 0.22083
 C468 C 0.77523 0.14305 0.22250
 H469 H 0.81610 0.06849 0.18464
 H470 H 0.82388 0.12293 0.23524
 H471 H 0.74104 0.08663 0.17370
 H472 H 0.74908 0.13828 0.21181
 C473 C 0.29080 0.57110 0.61670
 C474 C 0.26586 0.59411 0.62249
 C475 C 0.27097 0.62424 0.66326
 C476 C 0.25343 0.65308 0.65501
 H477 H 0.24403 0.59288 0.59167
 H478 H 0.29201 0.62389 0.69610
 H479 H 0.31345 0.57406 0.64490
 H480 H 0.23158 0.65327 0.62415
 C481 C 0.92270 0.79403 0.11539
 C482 C 0.90423 0.76866 0.13829
 C483 C 0.87248 0.77693 0.17277
 C484 C 0.84902 0.75359 0.18433
 H485 H 0.91068 0.74247 0.12643
 H486 H 0.86715 0.80338 0.18436
 H487 H 0.91484 0.82005 0.12575
 H488 H 0.85500 0.72696 0.17562
 C489 C 0.41604 0.23366 0.58822
 C490 C 0.40156 0.25259 0.63460
 C491 C 0.36662 0.24650 0.65607
 C492 C 0.35113 0.26918 0.69464
 H493 H 0.41403 0.27535 0.65137
 H494 H 0.35195 0.22727 0.63175
 H495 H 0.40409 0.21051 0.57213
 H496 H 0.36581 0.28961 0.71515
 C497 C 0.06404 0.22170 0.08192
 C498 C 0.08975 0.24332 0.08211
 C499 C 0.12114 0.23340 0.11462
 C500 C 0.15001 0.25019 0.10744
 H501 H 0.08881 0.26617 0.05372
 H502 H 0.12112 0.21022 0.14218
 H503 H 0.06634 0.19816 0.10810
 H504 H 0.15015 0.27427 0.08285
 C505 C 0.56306 0.71292 0.66975
 C506 C 0.58897 0.73428 0.67036
 C507 C 0.61967 0.72519 0.70591
 C508 C 0.64864 0.74166 0.69756
 H509 H 0.58912 0.75603 0.63904
 H510 H 0.61919 0.70285 0.73570
 H511 H 0.56417 0.69032 0.69888
 H512 H 0.64882 0.76488 0.67020
   
