data_POSCAR
  _audit_creation_date              2014-09-24
  _audit_creation_method            'ToBaCCo'
  _symmetry_space_group_name_H-M    'P1'
  _symmetry_Int_Tables_number       1
  _symmetry_cell_setting            triclinic
  loop_
  _symmetry_equiv_pos_as_xyz
 x,y,z
_cell_length_a 48.7767
_cell_length_b 50.4970
_cell_length_c 47.1895
_cell_angle_alpha 89.312700
_cell_angle_beta 90.393800
_cell_angle_gamma 90.961100
loop_
  _atom_site_label
  _atom_site_type_symbol
  _atom_site_fract_x
  _atom_site_fract_y
  _atom_site_fract_z
C1 C 0.21667 0.18529 0.19812
 C2 C 0.20463 0.17342 0.22206
 C3 C 0.18148 0.18438 0.23519
 C4 C 0.17111 0.20829 0.22357
 C5 C 0.18336 0.22068 0.19983
 C6 C 0.20623 0.20908 0.18715
 C7 C 0.23872 0.17322 0.18468
 C8 C 0.25052 0.18436 0.15989
 C9 C 0.24049 0.20887 0.14994
 C10 C 0.21854 0.22113 0.16329
 C11 C 0.20843 0.24507 0.15265
 C12 C 0.18501 0.25656 0.16432
 C13 C 0.17265 0.24414 0.18810
 H14 H 0.21425 0.15597 0.23078
 H15 H 0.15285 0.21700 0.23204
 H16 H 0.24524 0.15416 0.19272
 H17 H 0.24990 0.21884 0.13195
 H18 H 0.21884 0.25458 0.13497
 H19 H 0.15436 0.25233 0.19717
 C20 C -0.22429 0.81053 0.21762
 C21 C -0.20867 0.82509 0.23721
 C22 C -0.18100 0.81896 0.24311
 C23 C -0.16975 0.79690 0.22938
 C24 C -0.18523 0.78209 0.20974
 C25 C -0.21250 0.78912 0.20365
 C26 C -0.25133 0.81769 0.21124
 C27 C -0.26665 0.80449 0.19002
 C28 C -0.25461 0.78281 0.17647
 C29 C -0.22787 0.77499 0.18327
 C30 C -0.21612 0.75352 0.16955
 C31 C -0.18888 0.74631 0.17532
 C32 C -0.17359 0.76079 0.19549
 H33 H -0.21861 0.84088 0.24830
 H34 H -0.14847 0.79186 0.23261
 H35 H -0.25954 0.83490 0.22148
 H36 H -0.26616 0.77154 0.16091
 H37 H -0.22827 0.74240 0.15434
 H38 H -0.15239 0.75587 0.19968
 C39 C -0.20891 0.18679 -0.20074
 C40 C -0.19451 0.17476 -0.22256
 C41 C -0.17045 0.18650 -0.23363
 C42 C -0.16179 0.21144 -0.22356
 C43 C -0.17649 0.22408 -0.20222
 C44 C -0.19988 0.21145 -0.19045
 C45 C -0.23186 0.17409 -0.18872
 C46 C -0.24557 0.18485 -0.16524
 C47 C -0.23649 0.21003 -0.15565
 C48 C -0.21408 0.22335 -0.16821
 C49 C -0.20528 0.24818 -0.15834
 C50 C -0.18225 0.26119 -0.17016
 C51 C -0.16787 0.24888 -0.19202
 H52 H -0.20188 0.15593 -0.23065
 H53 H -0.14324 0.22072 -0.23175
 H54 H -0.23894 0.15585 -0.19827
 H55 H -0.24562 0.21905 -0.13743
 H56 H -0.21657 0.25753 -0.14158
 H57 H -0.14969 0.25840 -0.20080
 C58 C 0.24821 0.80073 -0.24456
 C59 C 0.23504 0.81402 -0.26691
 C60 C 0.20757 0.80790 -0.27459
 C61 C 0.19440 0.78644 -0.26021
 C62 C 0.20768 0.77249 -0.23826
 C63 C 0.23447 0.78004 -0.23003
 C64 C 0.27471 0.80849 -0.23599
 C65 C 0.28726 0.79679 -0.21209
 C66 C 0.27350 0.77578 -0.19799
 C67 C 0.24739 0.76718 -0.20698
 C68 C 0.23370 0.74638 -0.19275
 C69 C 0.20714 0.73831 -0.20107
 C70 C 0.19422 0.75159 -0.22379
 H71 H 0.24670 0.82904 -0.27833
 H72 H 0.17325 0.78121 -0.26468
 H73 H 0.28526 0.82421 -0.24759
 H74 H 0.28257 0.76671 -0.17932
 H75 H 0.24386 0.73626 -0.17534
 H76 H 0.17349 0.74593 -0.22989
 C77 C 0.17648 1.22071 0.79478
 C78 C 0.16602 1.21200 0.76875
 C79 C 0.17425 1.18784 0.75683
 C80 C 0.19524 1.17371 0.77109
 C81 C 0.20668 1.18286 0.79671
 C82 C 0.19691 1.20625 0.80878
 C83 C 0.16606 1.24343 0.80725
 C84 C 0.17493 1.25172 0.83436
 C85 C 0.19643 1.23761 0.84758
 C86 C 0.20734 1.21504 0.83502
 C87 C 0.22797 1.20067 0.84878
 C88 C 0.23805 1.17733 0.83697
 C89 C 0.22717 1.16852 0.81093
 H90 H 0.15150 1.22456 0.75792
 H91 H 0.20199 1.15485 0.76341
 H92 H 0.15100 1.25464 0.79546
 H93 H 0.20368 1.24289 0.86852
 H94 H 0.23632 1.20780 0.86867
 H95 H 0.23432 1.15026 0.80194
 C96 C 0.80780 0.78229 0.77323
 C97 C 0.81880 0.79203 0.74781
 C98 C 0.80584 0.81224 0.73202
 C99 C 0.78046 0.82155 0.74197
 C100 C 0.76917 0.81184 0.76749
 C101 C 0.78311 0.79230 0.78331
 C102 C 0.82167 0.76292 0.78886
 C103 C 0.81143 0.75304 0.81492
 C104 C 0.78666 0.76355 0.82498
 C105 C 0.77255 0.78299 0.80939
 C106 C 0.74813 0.79343 0.81960
 C107 C 0.73413 0.81303 0.80413
 C108 C 0.74460 0.82194 0.77794
 H109 H 0.83729 0.78309 0.74012
 H110 H 0.77005 0.83742 0.73094
 H111 H 0.84134 0.75671 0.78109
 H112 H 0.77759 0.75612 0.84443
 H113 H 0.73998 0.78637 0.83968
 H114 H 0.73403 0.83729 0.76615
 C115 C 0.18932 0.77310 1.24207
 C116 C 0.17630 0.78641 1.26400
 C117 C 0.18776 0.80980 1.27527
 C118 C 0.21316 0.81925 1.26490
 C119 C 0.22629 0.80628 1.24275
 C120 C 0.21414 0.78324 1.23111
 C121 C 0.17733 0.75021 1.23048
 C122 C 0.18920 0.73736 1.20717
 C123 C 0.21407 0.74808 1.19631
 C124 C 0.22651 0.77070 1.20810
 C125 C 0.25072 0.78148 1.19656
 C126 C 0.26291 0.80442 1.20797
 C127 C 0.25084 0.81650 1.23135
 H128 H 0.15656 0.77912 1.27139
 H129 H 0.22251 0.83697 1.27371
 H130 H 0.15901 0.74229 1.24044
 H131 H 0.22340 0.73987 1.17772
 H132 H 0.26008 0.77212 1.17856
 H133 H 0.25999 0.83445 1.23990
 C134 C 0.80615 1.23105 1.22565
 C135 C 0.81334 1.22225 1.25294
 C136 C 0.80247 1.19829 1.26427
 C137 C 0.78264 1.18433 1.24799
 C138 C 0.77524 1.19300 1.22068
 C139 C 0.78739 1.21619 1.20925
 C140 C 0.81834 1.25404 1.21418
 C141 C 0.81274 1.26208 1.18613
 C142 C 0.79397 1.24710 1.16983
 C143 C 0.78114 1.22431 1.18126
 C144 C 0.76267 1.20915 1.16494
 C145 C 0.75004 1.18613 1.17632
 C146 C 0.75631 1.17843 1.20438
 H147 H 0.82907 1.23330 1.26422
 H148 H 0.77263 1.16668 1.25646
 H149 H 0.83237 1.26562 1.22714
 H150 H 0.78977 1.25280 1.14804
 H151 H 0.75855 1.21506 1.14320
 H152 H 0.74650 1.16101 1.21364
 O153 O 0.52150 0.97571 0.94100
 O154 O 0.46780 0.97661 1.05769
 O155 O 0.54008 0.95012 1.02859
 O156 O 0.46578 0.94637 0.97556
 O157 O 0.51858 0.97385 1.06017
 O158 O 0.47191 0.97434 0.94189
 O159 O 0.46225 0.94728 1.02630
 O160 O 0.53341 0.94827 0.97430
 C161 C 0.53039 0.95338 0.94859
 C162 C 0.46158 0.95332 1.05153
 C163 C 0.53319 0.95439 1.05365
 C164 C 0.46694 0.95101 0.94976
 O165 O 0.47200 1.02372 0.96513
 O166 O 0.52343 1.02368 1.04426
 O167 O 0.55311 0.99802 0.97158
 O168 O 0.43995 0.99690 1.02272
 O169 O 0.47174 1.02496 1.03533
 O170 O 0.52140 1.02547 0.96164
 O171 O 0.44110 0.99420 0.97188
 O172 O 0.55474 1.00013 1.02367
 Co173 Co 0.49658 0.99867 0.95634
 Co174 Co 0.49531 0.99861 1.04453
 Co175 Co 0.54064 0.97510 0.99927
 Co176 Co 0.45591 0.97247 0.99918
 O177 O 0.49735 0.98644 1.00003
 C178 C 0.44730 1.01769 0.96589
 C179 C 0.54800 1.01973 1.03833
 C180 C 0.54618 1.02087 0.96419
 C181 C 0.44708 1.01994 1.03035
 O182 O 0.03170 0.49062 0.04097
 O183 O 0.02911 0.53425 -0.05920
 O184 O 0.00169 0.45647 -0.02944
 O185 O 0.04198 0.53956 0.02782
 O186 O 0.02694 0.48462 -0.05359
 O187 O 0.01402 0.53371 0.06040
 O188 O 0.04888 0.54443 -0.02038
 O189 O 0.01207 0.45773 0.02070
 C190 C 0.03172 0.46671 0.03499
 C191 C 0.04904 0.54426 -0.04650
 C192 C 0.02225 0.46148 -0.04492
 C193 C 0.03626 0.54338 0.05291
 O194 O -0.03252 0.52664 0.03848
 O195 O -0.02644 0.48682 -0.05790
 O196 O -0.03722 0.47985 0.03076
 O197 O -0.00178 0.56581 -0.02890
 O198 O -0.02306 0.53667 -0.05627
 O199 O -0.01347 0.48903 0.06829
 O200 O -0.00998 0.56121 0.02256
 O201 O -0.04678 0.48105 -0.01854
 Co202 Co -0.00074 0.50778 0.03793
 Co203 Co 0.00169 0.51046 -0.05174
 Co204 Co -0.01589 0.47225 0.00040
 Co205 Co 0.01829 0.54953 0.00011
 O206 O 0.00202 0.51113 -0.00507
 C207 C -0.03113 0.55122 0.03423
 C208 C -0.04744 0.47993 -0.04465
 C209 C -0.03253 0.47456 0.05663
 C210 C -0.01994 0.55998 -0.04747
 O211 O 1.05788 0.01984 0.47298
 O212 O 0.94682 0.03359 0.52595
 O213 O 0.98018 0.05297 0.46144
 O214 O 1.01961 0.02199 0.55484
 O215 O 0.94238 0.03411 0.47300
 O216 O 1.03897 0.03914 0.51832
 O217 O 0.97081 0.01143 0.55719
 O218 O 1.02639 0.04623 0.46660
 C219 C 1.05044 0.04072 0.46167
 C220 C 0.95482 0.03016 0.55095
 C221 C 0.95497 0.05368 0.46324
 C222 C 1.03353 0.04046 0.54393
 O223 O 1.06523 -0.00423 0.52210
 O224 O 0.94480 -0.01655 0.47175
 O225 O 1.02071 -0.00510 0.44542
 O226 O 0.98127 -0.03677 0.53382
 O227 O 0.94332 -0.01776 0.52515
 O228 O 1.03605 -0.02457 0.48361
 O229 O 1.02915 -0.02713 0.53410
 O230 O 0.97132 0.00338 0.44024
 Co231 Co 1.03586 0.00701 0.50177
 Co232 Co 0.94916 0.00842 0.49904
 Co233 Co 0.99948 0.02307 0.45686
 Co234 Co 0.99975 -0.00610 0.54106
 O235 O 0.99430 0.00906 0.49849
 C236 C 1.05447 -0.02244 0.53833
 C237 C 0.95320 -0.01400 0.44671
 C238 C 1.03204 -0.02478 0.45737
 C239 C 0.95592 -0.03791 0.53265
 C240 C 1.14576 0.14586 0.30762
 C241 C 1.16142 0.13167 0.28847
 C242 C 1.17269 0.14415 0.26459
 C243 C 1.16915 0.17156 0.25921
 C244 C 1.15307 0.18559 0.27868
 C245 C 1.14148 0.17287 0.30239
 C246 C 1.13352 0.13221 0.33263
 C247 C 1.10578 0.13551 0.33914
 C248 C 1.09382 0.12150 0.36173
 C249 C 1.10942 0.10411 0.37868
 C250 C 1.13738 0.10128 0.37243
 C251 C 1.14923 0.11504 0.34956
 C252 C 1.09627 0.08854 0.40215
 C253 C 1.10422 0.06238 0.40843
 C254 C 1.09027 0.04714 0.42892
 C255 C 1.06787 0.05761 0.44321
 C256 C 1.06051 0.08394 0.43773
 C257 C 1.07470 0.09930 0.41768
 H258 H 1.16441 0.11062 0.29160
 H259 H 1.18324 0.13164 0.24996
 H260 H 1.15015 0.20669 0.27661
 H261 H 1.12961 0.18433 0.31703
 H262 H 1.09312 0.14835 0.32619
 H263 H 1.07212 0.12379 0.36539
 H264 H 1.15018 0.08849 0.38524
 H265 H 1.17076 0.11235 0.34514
 H266 H 1.12049 0.05326 0.39673
 H267 H 1.09615 0.02679 0.43260
 H268 H 1.04340 0.09254 0.44864
 H269 H 1.06844 0.11953 0.41409
 C270 C 0.86635 -0.13315 0.29989
 C271 C 0.87290 -0.15980 0.29586
 C272 C 0.85760 -0.17553 0.27709
 C273 C 0.83501 -0.16513 0.26194
 C274 C 0.82885 -0.13818 0.26606
 C275 C 0.84425 -0.12254 0.28467
 C276 C 0.88193 -0.11652 0.32041
 C277 C 0.88845 -0.08992 0.31389
 C278 C 0.90144 -0.07374 0.33390
 C279 C 0.90815 -0.08377 0.36093
 C280 C 0.90228 -0.11056 0.36719
 C281 C 0.88935 -0.12676 0.34714
 C282 C 0.92019 -0.06611 0.38287
 C283 C 0.91096 -0.06784 0.41098
 C284 C 0.92163 -0.05088 0.43159
 C285 C 0.94181 -0.03173 0.42462
 C286 C 0.95118 -0.03005 0.39653
 C287 C 0.94044 -0.04704 0.37587
 H288 H 0.88991 -0.16852 0.30725
 H289 H 0.86299 -0.19614 0.27561
 H290 H 0.81271 -0.12853 0.25424
 H291 H 0.83857 -0.10209 0.28741
 H292 H 0.88330 -0.08154 0.29334
 H293 H 0.90552 -0.05315 0.32850
 H294 H 0.90751 -0.11896 0.38770
 H295 H 0.88443 -0.14711 0.35288
 H296 H 0.89509 -0.08204 0.41696
 H297 H 0.91396 -0.05273 0.45302
 H298 H 0.96685 -0.01566 0.39052
 H299 H 0.94816 -0.04541 0.35445
 C300 C 0.87539 0.14408 0.70381
 C301 C 0.86231 0.13060 0.72632
 C302 C 0.84799 0.14444 0.74674
 C303 C 0.84583 0.17215 0.74500
 C304 C 0.85912 0.18574 0.72268
 C305 C 0.87383 0.17189 0.70240
 C306 C 0.88981 0.12897 0.68158
 C307 C 0.88912 0.13734 0.65306
 C308 C 0.90109 0.12220 0.63200
 C309 C 0.91372 0.09806 0.63879
 C310 C 0.91495 0.09002 0.66740
 C311 C 0.90339 0.10537 0.68851
 C312 C 0.92470 0.08094 0.61612
 C313 C 0.94790 0.06525 0.62102
 C314 C 0.95747 0.04850 0.60001
 C315 C 0.94442 0.04741 0.57343
 C316 C 0.92148 0.06326 0.56835
 C317 C 0.91159 0.07962 0.58950
 H318 H 0.86260 0.10922 0.72797
 H319 H 0.83859 0.13330 0.76395
 H320 H 0.85779 0.20705 0.72056
 H321 H 0.88396 0.18300 0.68564
 H322 H 0.87867 0.15524 0.64681
 H323 H 0.90023 0.12938 0.61031
 H324 H 0.92422 0.07147 0.67353
 H325 H 0.90489 0.09853 0.71028
 H326 H 0.95886 0.06603 0.64102
 H327 H 0.97527 0.03658 0.60448
 H328 H 0.91087 0.06273 0.54812
 H329 H 0.89333 0.09087 0.58507
 C330 C 1.16430 -0.14449 0.66495
 C331 C 1.15555 -0.17054 0.67084
 C332 C 1.16996 -0.18640 0.69015
 C333 C 1.19347 -0.17654 0.70460
 C334 C 1.20204 -0.15019 0.69819
 C335 C 1.18781 -0.13460 0.67858
 C336 C 1.14850 -0.12728 0.64535
 C337 C 1.16188 -0.11194 0.62444
 C338 C 1.14698 -0.09517 0.60649
 C339 C 1.11839 -0.09310 0.60930
 C340 C 1.10512 -0.10845 0.63039
 C341 C 1.11997 -0.12548 0.64803
 C342 C 1.10240 -0.07505 0.59044
 C343 C 1.07558 -0.08205 0.58193
 C344 C 1.06014 -0.06490 0.56506
 C345 C 1.07127 -0.04050 0.55581
 C346 C 1.09818 -0.03355 0.56375
 C347 C 1.11355 -0.05058 0.58105
 H348 H 1.13764 -0.17877 0.66021
 H349 H 1.16280 -0.20662 0.69287
 H350 H 1.21892 -0.14067 0.70920
 H351 H 1.19469 -0.11436 0.67481
 H352 H 1.18386 -0.11314 0.62183
 H353 H 1.15786 -0.08407 0.59021
 H354 H 1.08326 -0.10699 0.63368
 H355 H 1.10923 -0.13678 0.66428
 H356 H 1.06648 -0.10092 0.58812
 H357 H 1.03949 -0.07087 0.55908
 H358 H 1.10715 -0.01476 0.55704
 H359 H 1.13395 -0.04429 0.58750
 C360 C 0.31049 1.14188 1.11440
 C361 C 0.30806 1.13869 1.14384
 C362 C 0.28872 1.15286 1.15886
 C363 C 0.27116 1.17085 1.14490
 C364 C 0.27421 1.17428 1.11527
 C365 C 0.29347 1.15990 1.10030
 C366 C 0.33058 1.12620 1.09852
 C367 C 0.32323 1.11420 1.07276
 C368 C 0.34188 1.09837 1.05858
 C369 C 0.36827 1.09446 1.06980
 C370 C 0.37571 1.10687 1.09529
 C371 C 0.35708 1.12253 1.10949
 C372 C 0.38783 1.07668 1.05585
 C373 C 0.41581 1.08356 1.05477
 C374 C 0.43488 1.06549 1.04525
 C375 C 0.42640 1.04009 1.03659
 C376 C 0.39825 1.03376 1.03595
 C377 C 0.37911 1.05190 1.04551
 H378 H 0.32092 1.12488 1.15530
 H379 H 0.28829 1.15008 1.18161
 H380 H 0.26088 1.18704 1.10309
 H381 H 0.29500 1.16285 1.07759
 H382 H 0.30285 1.11653 1.06393
 H383 H 0.33565 1.08916 1.03890
 H384 H 0.39577 1.10393 1.10468
 H385 H 0.36340 1.13175 1.12914
 H386 H 0.42305 1.10273 1.06199
 H387 H 0.45639 1.07114 1.04556
 H388 H 0.39110 1.01442 1.02915
 H389 H 0.35767 1.04604 1.04614
 C390 C 0.36096 0.83000 0.82526
 C391 C 0.34279 0.84611 0.81006
 C392 C 0.31927 0.83524 0.79752
 C393 C 0.31361 0.80783 0.79935
 C394 C 0.33254 0.79157 0.81367
 C395 C 0.35580 0.80261 0.82681
 C396 C 0.38369 0.84238 0.84147
 C397 C 0.38562 0.83819 0.87083
 C398 C 0.40376 0.85346 0.88713
 C399 C 0.42069 0.87298 0.87432
 C400 C 0.42007 0.87571 0.84458
 C401 C 0.40151 0.86079 0.82838
 C402 C 0.43653 0.89216 0.89208
 C403 C 0.43886 0.91894 0.88364
 C404 C 0.45020 0.93780 0.90186
 C405 C 0.45901 0.93045 0.92915
 C406 C 0.45807 0.90360 0.93718
 C407 C 0.44716 0.88461 0.91874
 H408 H 0.34613 0.86737 0.80904
 H409 H 0.30500 0.84860 0.78742
 H410 H 0.32924 0.77035 0.81508
 H411 H 0.36964 0.78983 0.83843
 H412 H 0.37184 0.82428 0.88138
 H413 H 0.40327 0.85098 0.90993
 H414 H 0.43327 0.89000 0.83387
 H415 H 0.40047 0.86416 0.80568
 H416 H 0.43058 0.92572 0.86355
 H417 H 0.45066 0.95839 0.89513
 H418 H 0.46513 0.89738 0.95799
 H419 H 0.44638 0.86411 0.92571
 C420 C 0.65748 0.83713 1.16272
 C421 C 0.66532 0.83783 1.19143
 C422 C 0.68995 0.82669 1.20059
 C423 C 0.70725 0.81383 1.18145
 C424 C 0.69846 0.81183 1.15300
 C425 C 0.67426 0.82363 1.14376
 C426 C 0.63307 0.85183 1.15211
 C427 C 0.61859 0.84334 1.12790
 C428 C 0.59846 0.85911 1.11547
 C429 C 0.59155 0.88354 1.12734
 C430 C 0.60453 0.89104 1.15281
 C431 C 0.62524 0.87562 1.16479
 C432 C 0.57294 0.90203 1.11184
 C433 C 0.57726 0.92967 1.11334
 C434 C 0.56259 0.94691 1.09578
 C435 C 0.54383 0.93687 1.07593
 C436 C 0.53841 0.90958 1.07510
 C437 C 0.55244 0.89235 1.09327
 H438 H 0.65257 0.84719 1.20695
 H439 H 0.69503 0.82775 1.22291
 H440 H 0.71118 0.80294 1.13714
 H441 H 0.66951 0.82314 1.12134
 H442 H 0.62331 0.82479 1.11793
 H443 H 0.58930 0.85254 1.09578
 H444 H 0.59933 0.90926 1.16316
 H445 H 0.63585 0.88307 1.18333
 H446 H 0.59309 0.93808 1.12682
 H447 H 0.56727 0.96796 1.09634
 H448 H 0.52386 0.90159 1.05986
 H449 H 0.54779 0.87137 1.09202
 C450 C 0.69146 1.14078 0.87831
 C451 C 0.70967 1.12822 0.86015
 C452 C 0.73015 1.14258 0.84600
 C453 C 0.73289 1.17038 0.84874
 C454 C 0.71388 1.18295 0.86648
 C455 C 0.69376 1.16837 0.88117
 C456 C 0.67035 1.12497 0.89414
 C457 C 0.64447 1.13542 0.89999
 C458 C 0.62448 1.12005 0.91394
 C459 C 0.62963 1.09363 0.92191
 C460 C 0.65566 1.08337 0.91637
 C461 C 0.67580 1.09890 0.90309
 C462 C 0.60779 1.07641 0.93482
 C463 C 0.61460 1.05562 0.95360
 C464 C 0.59454 1.03775 0.96328
 C465 C 0.56701 1.04076 0.95533
 C466 C 0.55985 1.06218 0.93771
 C467 C 0.58003 1.07961 0.92729
 H468 H 0.70829 1.10708 0.85681
 H469 H 0.74438 1.13115 0.83394
 H470 H 0.71374 1.20419 0.86884
 H471 H 0.68020 1.17883 0.89504
 H472 H 0.63934 1.15530 0.89327
 H473 H 0.60493 1.12891 0.91829
 H474 H 0.66045 1.06305 0.92163
 H475 H 0.69566 1.09029 0.89972
 H476 H 0.63553 1.05283 0.96061
 H477 H 0.60062 1.02135 0.97674
 H478 H 0.53877 1.06485 0.93106
 H479 H 0.57389 1.09499 0.91252
 C480 C 0.14998 0.32621 0.12431
 C481 C 0.16478 0.30786 0.10857
 C482 C 0.17565 0.28535 0.12147
 C483 C 0.17314 0.28083 0.15085
 C484 C 0.15908 0.29958 0.16684
 C485 C 0.14741 0.32180 0.15372
 C486 C 0.13634 0.34900 0.10976
 C487 C 0.13212 0.37311 0.12369
 C488 C 0.11774 0.39364 0.11033
 C489 C 0.10755 0.39073 0.08256
 C490 C 0.11298 0.36716 0.06822
 C491 C 0.12669 0.34650 0.08172
 C492 C 0.08958 0.41104 0.06916
 C493 C 0.06763 0.40287 0.05174
 C494 C 0.04980 0.42121 0.03992
 C495 C 0.05297 0.44836 0.04548
 C496 C 0.07505 0.45685 0.06256
 C497 C 0.09327 0.43835 0.07424
 H498 H 0.16794 0.31067 0.08606
 H499 H 0.18564 0.27127 0.10806
 H500 H 0.15701 0.29718 0.18954
 H501 H 0.13591 0.33518 0.16664
 H502 H 0.13969 0.37611 0.14503
 H503 H 0.11386 0.41142 0.12214
 H504 H 0.10613 0.36434 0.04659
 H505 H 0.12892 0.32828 0.07023
 H506 H 0.06350 0.38209 0.04788
 H507 H 0.03288 0.41388 0.02710
 H508 H 0.07795 0.47765 0.06726
 H509 H 0.11012 0.44540 0.08731
 C510 C -0.15480 0.33702 -0.13859
 C511 C -0.15432 0.33183 -0.16778
 C512 C -0.16341 0.30733 -0.17805
 C513 C -0.17305 0.28744 -0.15935
 C514 C -0.17372 0.29276 -0.13018
 C515 C -0.16478 0.31729 -0.11994
 C516 C -0.14367 0.36239 -0.12742
 C517 C -0.15696 0.37550 -0.10542
 C518 C -0.14519 0.39823 -0.09341
 C519 C -0.11979 0.40824 -0.10304
 C520 C -0.10697 0.39551 -0.12563
 C521 C -0.11882 0.37293 -0.13772
 C522 C -0.10541 0.43038 -0.08823
 C523 C -0.08886 0.44858 -0.10343
 C524 C -0.07137 0.46618 -0.08917
 C525 C -0.07025 0.46614 -0.05943
 C526 C -0.08851 0.44962 -0.04422
 C527 C -0.10582 0.43181 -0.05848
 H528 H -0.14700 0.34677 -0.18267
 H529 H -0.16307 0.30402 -0.20067
 H530 H -0.18057 0.27774 -0.11515
 H531 H -0.16492 0.32056 -0.09730
 H532 H -0.17635 0.36801 -0.09733
 H533 H -0.15580 0.40776 -0.07634
 H534 H -0.08713 0.40227 -0.13321
 H535 H -0.10790 0.36305 -0.15436
 H536 H -0.08859 0.44849 -0.12636
 H537 H -0.05771 0.47890 -0.10144
 H538 H -0.08809 0.44910 -0.02127
 H539 H -0.11815 0.41801 -0.04606
 C540 C 0.16597 0.67397 -0.15670
 C541 C 0.16420 0.67623 -0.18639
 C542 C 0.17748 0.69710 -0.20077
 C543 C 0.19286 0.71619 -0.18580
 C544 C 0.19466 0.71390 -0.15612
 C545 C 0.18140 0.69304 -0.14175
 C546 C 0.15129 0.65217 -0.14132
 C547 C 0.16347 0.63936 -0.11790
 C548 C 0.14919 0.61948 -0.10291
 C549 C 0.12241 0.61196 -0.11100
 C550 C 0.11040 0.62458 -0.13462
 C551 C 0.12465 0.64441 -0.14959
 C552 C 0.10644 0.59191 -0.09431
 C553 C 0.08870 0.57389 -0.10802
 C554 C 0.07113 0.55730 -0.09237
 C555 C 0.07096 0.55825 -0.06262
 C556 C 0.08985 0.57510 -0.04882
 C557 C 0.10738 0.59179 -0.06450
 H558 H 0.15279 0.66167 -0.19856
 H559 H 0.17605 0.69809 -0.22367
 H560 H 0.20598 0.72851 -0.14393
 H561 H 0.18276 0.69214 -0.11885
 H562 H 0.18412 0.64462 -0.11125
 H563 H 0.15914 0.60994 -0.08503
 H564 H 0.08960 0.61969 -0.14107
 H565 H 0.11450 0.65418 -0.16721
 H566 H 0.08790 0.57308 -0.13093
 H567 H 0.05695 0.54440 -0.10364
 H568 H 0.09015 0.57636 -0.02592
 H569 H 0.12068 0.60553 -0.05328
 C570 C -0.15162 0.68257 0.12970
 C571 C -0.14550 0.68662 0.15853
 C572 C -0.15777 0.70704 0.17339
 C573 C -0.17629 0.72411 0.15976
 C574 C -0.18251 0.71995 0.13099
 C575 C -0.17049 0.69937 0.11622
 C576 C -0.13767 0.66155 0.11354
 C577 C -0.13000 0.66602 0.08518
 C578 C -0.11556 0.64698 0.07042
 C579 C -0.10807 0.62306 0.08370
 C580 C -0.11639 0.61824 0.11179
 C581 C -0.13109 0.63721 0.12649
 C582 C -0.09009 0.60413 0.06897
 C583 C -0.09316 0.57657 0.07305
 C584 C -0.07463 0.55913 0.06096
 C585 C -0.05270 0.56892 0.04453
 C586 C -0.05028 0.59635 0.03960
 C587 C -0.06864 0.61371 0.05173
 H588 H -0.13079 0.67434 0.16955
 H589 H -0.15276 0.70940 0.19561
 H590 H -0.19636 0.73289 0.11963
 H591 H -0.17602 0.69667 0.09418
 H592 H -0.13441 0.68458 0.07455
 H593 H -0.10990 0.65119 0.04867
 H594 H -0.11078 0.60018 0.12279
 H595 H -0.13707 0.63287 0.14812
 H596 H -0.10970 0.56850 0.08585
 H597 H -0.07706 0.53807 0.06506
 H598 H -0.03363 0.60456 0.02702
 H599 H -0.06532 0.63477 0.04845
 C600 C 1.13265 0.15582 0.68436
 C601 C 1.15921 0.14762 0.69157
 C602 C 1.17320 0.15847 0.71483
 C603 C 1.16096 0.17775 0.73198
 C604 C 1.13441 0.18615 0.72399
 C605 C 1.12077 0.17563 0.70054
 C606 C 1.11671 0.14285 0.66114
 C607 C 1.08830 0.13842 0.66397
 C608 C 1.07334 0.12506 0.64313
 C609 C 1.08640 0.11529 0.61905
 C610 C 1.11465 0.12034 0.61572
 C611 C 1.12962 0.13403 0.63649
 C612 C 1.07098 0.09812 0.59884
 C613 C 1.07631 0.09900 0.56956
 C614 C 1.06322 0.08107 0.55124
 C615 C 1.04460 0.06195 0.56192
 C616 C 1.03859 0.06178 0.59098
 C617 C 1.05163 0.07955 0.60918
 H618 H 1.16904 0.13230 0.67964
 H619 H 1.19382 0.15179 0.71875
 H620 H 1.12299 0.19991 0.73644
 H621 H 1.10052 0.18281 0.69541
 H622 H 1.07762 0.14452 0.68277
 H623 H 1.05154 0.12191 0.64618
 H624 H 1.12541 0.11291 0.59755
 H625 H 1.15136 0.13745 0.63337
 H626 H 1.09087 0.11328 0.56088
 H627 H 1.06830 0.08162 0.52893
 H628 H 1.02458 0.04716 0.59996
 H629 H 1.04736 0.07790 0.63162
 C630 C 0.84471 -0.15481 0.65864
 C631 C 0.86013 -0.16656 0.68039
 C632 C 0.84737 -0.17734 0.70428
 C633 C 0.81855 -0.17687 0.70734
 C634 C 0.80315 -0.16494 0.68530
 C635 C 0.81608 -0.15414 0.66130
 C636 C 0.85888 -0.14199 0.63422
 C637 C 0.85055 -0.11712 0.62412
 C638 C 0.86583 -0.10354 0.60352
 C639 C 0.88978 -0.11452 0.59251
 C640 C 0.89748 -0.13989 0.60173
 C641 C 0.88215 -0.15351 0.62233
 C642 C 0.90760 -0.09851 0.57329
 C643 C 0.93621 -0.09761 0.57743
 C644 C 0.95248 -0.07908 0.56266
 C645 C 0.94036 -0.06109 0.54366
 C646 C 0.91210 -0.06335 0.53798
 C647 C 0.89591 -0.08190 0.55259
 H648 H 0.88231 -0.16661 0.67944
 H649 H 0.86062 -0.18475 0.72093
 H650 H 0.78100 -0.16464 0.68585
 H651 H 0.80361 -0.14541 0.64469
 H652 H 0.83298 -0.10756 0.63313
 H653 H 0.85960 -0.08383 0.59722
 H654 H 0.91562 -0.14899 0.59336
 H655 H 0.88881 -0.17287 0.62937
 H656 H 0.94580 -0.11005 0.59336
 H657 H 0.97421 -0.07773 0.56745
 H658 H 0.90229 -0.04995 0.52313
 H659 H 0.87404 -0.08256 0.54849
 C660 C 1.13879 -0.14560 0.33316
 C661 C 1.15596 -0.13260 0.31341
 C662 C 1.17228 -0.14702 0.29515
 C663 C 1.17222 -0.17485 0.29641
 C664 C 1.15583 -0.18784 0.31688
 C665 C 1.13919 -0.17342 0.33488
 C666 C 1.12026 -0.13020 0.35149
 C667 C 1.11468 -0.13845 0.37946
 C668 C 1.09764 -0.12365 0.39670
 C669 C 1.08602 -0.10002 0.38655
 C670 C 1.09132 -0.09199 0.35845
 C671 C 1.10801 -0.10697 0.34111
 C672 C 1.06975 -0.08301 0.40552
 C673 C 1.04800 -0.06780 0.39475
 C674 C 1.03491 -0.04955 0.41189
 C675 C 1.04298 -0.04644 0.44027
 C676 C 1.06360 -0.06264 0.45151
 C677 C 1.07697 -0.08056 0.43430
 H678 H 1.15671 -0.11120 0.31188
 H679 H 1.18434 -0.13630 0.27948
 H680 H 1.15559 -0.20922 0.31881
 H681 H 1.12613 -0.18417 0.34964
 H682 H 1.12389 -0.15609 0.38830
 H683 H 1.09372 -0.13070 0.41806
 H684 H 1.08313 -0.07374 0.34996
 H685 H 1.11132 -0.10026 0.31952
 H686 H 1.04139 -0.06963 0.37291
 H687 H 1.01888 -0.03747 0.40277
 H688 H 1.07039 -0.06054 0.47329
 H689 H 1.09383 -0.09157 0.44331
 C690 C 0.83837 0.16605 0.33935
 C691 C 0.82547 0.14951 0.31945
 C692 C 0.81269 0.16012 0.29544
 C693 C 0.81259 0.18775 0.29034
 C694 C 0.82454 0.20427 0.31122
 C695 C 0.83727 0.19356 0.33528
 C696 C 0.85430 0.15439 0.36321
 C697 C 0.88004 0.16514 0.37089
 C698 C 0.89651 0.15229 0.39097
 C699 C 0.88760 0.12840 0.40374
 C700 C 0.86134 0.11834 0.39692
 C701 C 0.84487 0.13123 0.37700
 C702 C 0.90622 0.11275 0.42226
 C703 C 0.89568 0.09779 0.44514
 C704 C 0.91206 0.07956 0.45947
 C705 C 0.93945 0.07615 0.45152
 C706 C 0.95067 0.09249 0.43015
 C707 C 0.93416 0.11053 0.41553
 H708 H 0.82639 0.12817 0.32167
 H709 H 0.80476 0.14623 0.28005
 H710 H 0.82388 0.22562 0.30942
 H711 H 0.84642 0.20685 0.35065
 H712 H 0.88799 0.18286 0.36051
 H713 H 0.91648 0.16074 0.39601
 H714 H 0.85391 0.09982 0.40604
 H715 H 0.82497 0.12267 0.37186
 H716 H 0.87446 0.09951 0.45134
 H717 H 0.90302 0.06745 0.47617
 H718 H 0.97172 0.09020 0.42357
 H719 H 0.94291 0.12156 0.39788
 C720 C 0.13407 0.31361 -0.12300
 C721 C 0.16149 0.30803 -0.11647
 C722 C 0.17512 0.28791 -0.13055
 C723 C 0.16171 0.27283 -0.15176
 C724 C 0.13415 0.27893 -0.15822
 C725 C 0.12068 0.29895 -0.14414
 C726 C 0.11924 0.33468 -0.10808
 C727 C 0.09165 0.33076 -0.10046
 C728 C 0.07693 0.35114 -0.08834
 C729 C 0.08947 0.37592 -0.08341
 C730 C 0.11733 0.37960 -0.09019
 C731 C 0.13207 0.35918 -0.10239
 C732 C 0.07315 0.39809 -0.07246
 C733 C 0.07677 0.42384 -0.08359
 C734 C 0.06038 0.44445 -0.07451
 C735 C 0.03987 0.43974 -0.05422
 C736 C 0.03648 0.41410 -0.04276
 C737 C 0.05299 0.39351 -0.05173
 H738 H 0.17237 0.31905 -0.10025
 H739 H 0.19644 0.28494 -0.12519
 H740 H 0.12215 0.26755 -0.17324
 H741 H 0.09960 0.30296 -0.14989
 H742 H 0.08131 0.31196 -0.10416
 H743 H 0.05546 0.34772 -0.08364
 H744 H 0.12768 0.39835 -0.08628
 H745 H 0.15326 0.36283 -0.10814
 H746 H 0.09183 0.42795 -0.09988
 H747 H 0.06352 0.46401 -0.08371
 H748 H 0.02104 0.40992 -0.02687
 H749 H 0.04997 0.37399 -0.04241
 C750 C -0.14518 0.33045 0.15076
 C751 C -0.17256 0.32491 0.14325
 C752 C -0.18634 0.30285 0.15483
 C753 C -0.17286 0.28570 0.17383
 C754 C -0.14532 0.29126 0.18104
 C755 C -0.13173 0.31350 0.16982
 C756 C -0.13033 0.35343 0.13818
 C757 C -0.11495 0.37075 0.15535
 C758 C -0.10015 0.39192 0.14327
 C759 C -0.10010 0.39596 0.11372
 C760 C -0.11561 0.37851 0.09665
 C761 C -0.13072 0.35763 0.10877
 C762 C -0.08355 0.41780 0.10055
 C763 C -0.09294 0.43064 0.07581
 C764 C -0.07653 0.44952 0.06198
 C765 C -0.05059 0.45646 0.07287
 C766 C -0.04154 0.44464 0.09820
 C767 C -0.05779 0.42531 0.11182
 H768 H -0.18338 0.33784 0.12868
 H769 H -0.20763 0.29943 0.14913
 H770 H -0.13403 0.27817 0.19502
 H771 H -0.11046 0.31715 0.17554
 H772 H -0.11454 0.36797 0.17814
 H773 H -0.08886 0.40518 0.15712
 H774 H -0.11558 0.38054 0.07379
 H775 H -0.14212 0.34428 0.09509
 H776 H -0.11292 0.42594 0.06691
 H777 H -0.08406 0.45854 0.04255
 H778 H -0.02148 0.44955 0.10681
 H779 H -0.04970 0.41564 0.13061
 C780 C -0.14295 0.69531 -0.13889
 C781 C -0.14096 0.69751 -0.16844
 C782 C -0.15630 0.71599 -0.18351
 C783 C -0.17400 0.73339 -0.16955
 C784 C -0.17619 0.73078 -0.13977
 C785 C -0.16081 0.71207 -0.12470
 C786 C -0.12632 0.67549 -0.12325
 C787 C -0.11377 0.68160 -0.09716
 C788 C -0.09699 0.66318 -0.08338
 C789 C -0.09242 0.63833 -0.09545
 C790 C -0.10520 0.63225 -0.12142
 C791 C -0.12207 0.65048 -0.13499
 C792 C -0.07434 0.61866 -0.08143
 C793 C -0.08097 0.59153 -0.08284
 C794 C -0.06322 0.57270 -0.07177
 C795 C -0.03853 0.58047 -0.05856
 C796 C -0.03224 0.60758 -0.05607
 C797 C -0.04993 0.62654 -0.06758
 H798 H -0.12728 0.68501 -0.18008
 H799 H -0.15465 0.71581 -0.20634
 H800 H -0.18877 0.74386 -0.12763
 H801 H -0.16294 0.71071 -0.10190
 H802 H -0.11645 0.70079 -0.08768
 H803 H -0.08769 0.66836 -0.06326
 H804 H -0.10182 0.61350 -0.13159
 H805 H -0.13176 0.64496 -0.15482
 H806 H -0.09994 0.58477 -0.09261
 H807 H -0.06894 0.55196 -0.07348
 H808 H -0.01340 0.61409 -0.04585
 H809 H -0.04412 0.64727 -0.06630
 C810 C 0.14970 0.67109 0.16786
 C811 C 0.13475 0.68827 0.18465
 C812 C 0.14765 0.70988 0.19763
 C813 C 0.17616 0.71482 0.19460
 C814 C 0.19106 0.69679 0.17815
 C815 C 0.17795 0.67545 0.16480
 C816 C 0.13550 0.64941 0.15257
 C817 C 0.13940 0.64651 0.12337
 C818 C 0.12443 0.62742 0.10835
 C819 C 0.10553 0.61049 0.12231
 C820 C 0.10234 0.61294 0.15178
 C821 C 0.11699 0.63237 0.16670
 C822 C 0.08842 0.59127 0.10591
 C823 C 0.06101 0.58587 0.11353
 C824 C 0.04433 0.56939 0.09690
 C825 C 0.05457 0.55835 0.07207
 C826 C 0.08205 0.56312 0.06475
 C827 C 0.09888 0.57917 0.08163
 H828 H 0.11279 0.68555 0.18687
 H829 H 0.13456 0.72326 0.20873
 H830 H 0.21305 0.69840 0.17595
 H831 H 0.18996 0.66216 0.15223
 H832 H 0.15331 0.65968 0.11197
 H833 H 0.12707 0.62658 0.08563
 H834 H 0.08843 0.59994 0.16336
 H835 H 0.11386 0.63413 0.18929
 H836 H 0.05205 0.59512 0.13176
 H837 H 0.02312 0.56615 0.10285
 H838 H 0.09046 0.55464 0.04577
 H839 H 0.12002 0.58231 0.07544
 C840 C 0.30138 1.13387 0.88093
 C841 C 0.30142 1.13622 0.85119
 C842 C 0.28091 1.15023 0.83694
 C843 C 0.25974 1.16212 0.85205
 C844 C 0.25960 1.15961 0.88177
 C845 C 0.28020 1.14577 0.89603
 C846 C 0.32316 1.11885 0.89610
 C847 C 0.31683 1.10312 0.92005
 C848 C 0.33709 1.08836 0.93374
 C849 C 0.36418 1.08878 0.92372
 C850 C 0.37063 1.10488 0.90009
 C851 C 0.35040 1.11979 0.88652
 C852 C 0.38529 1.07146 0.93686
 C853 C 0.41282 1.08003 0.93917
 C854 C 0.43295 1.06284 0.94933
 C855 C 0.42595 1.03676 0.95744
 C856 C 0.39832 1.02853 0.95621
 C857 C 0.37826 1.04563 0.94596
 H858 H 0.31715 1.12699 0.83883
 H859 H 0.28182 1.15200 0.81408
 H860 H 0.24341 1.16817 0.89408
 H861 H 0.27965 1.14462 0.91894
 H862 H 0.29604 1.10171 0.92788
 H863 H 0.33147 1.07646 0.95210
 H864 H 0.39119 1.10547 0.89158
 H865 H 0.35613 1.13202 0.86844
 H866 H 0.41886 1.09995 0.93286
 H867 H 0.45405 1.06981 0.95032
 H868 H 0.39226 1.00858 0.96244
 H869 H 0.35737 1.03823 0.94420
 C870 C 0.33332 0.84087 1.16782
 C871 C 0.30996 0.83346 1.15192
 C872 C 0.28739 0.82128 1.16497
 C873 C 0.28737 0.81660 1.19432
 C874 C 0.31049 0.82405 1.21040
 C875 C 0.33334 0.83587 1.19726
 C876 C 0.35704 0.85446 1.15370
 C877 C 0.37219 0.87448 1.16756
 C878 C 0.39291 0.88868 1.15337
 C879 C 0.39875 0.88355 1.12480
 C880 C 0.38424 0.86289 1.11133
 C881 C 0.36391 0.84839 1.12565
 C882 C 0.41827 0.90081 1.10843
 C883 C 0.43327 0.89067 1.08570
 C884 C 0.44833 0.90761 1.06779
 C885 C 0.44926 0.93497 1.07261
 C886 C 0.43592 0.94495 1.09636
 C887 C 0.42038 0.92813 1.11391
 H888 H 0.30876 0.83760 1.12939
 H889 H 0.26961 0.81609 1.15220
 H890 H 0.31097 0.82046 1.23307
 H891 H 0.35105 0.84091 1.21016
 H892 H 0.36746 0.87988 1.18908
 H893 H 0.40399 0.90404 1.16471
 H894 H 0.38778 0.85845 1.08929
 H895 H 0.35322 0.83269 1.11446
 H896 H 0.43285 0.86969 1.08125
 H897 H 0.45874 0.89941 1.04978
 H898 H 0.43618 0.96602 1.10045
 H899 H 0.40890 0.93686 1.13086
 C900 C 0.69284 1.13884 1.12698
 C901 C 0.71092 1.12687 1.14643
 C902 C 0.72970 1.14213 1.16195
 C903 C 0.73062 1.16988 1.15893
 C904 C 0.71267 1.18187 1.13937
 C905 C 0.69417 1.16655 1.12346
 C906 C 0.67228 1.12249 1.11108
 C907 C 0.64610 1.13234 1.10478
 C908 C 0.62639 1.11654 1.09112
 C909 C 0.63211 1.09028 1.08382
 C910 C 0.65845 1.08059 1.08967
 C911 C 0.67831 1.09654 1.10287
 C912 C 0.61045 1.07279 1.07115
 C913 C 0.61717 1.05299 1.05174
 C914 C 0.59696 1.03575 1.04111
 C915 C 0.56943 1.03826 1.04906
 C916 C 0.56261 1.05829 1.06806
 C917 C 0.58286 1.07518 1.07912
 H918 H 0.71031 1.10568 1.15014
 H919 H 0.74354 1.13207 1.17633
 H920 H 0.71255 1.20318 1.13663
 H921 H 0.68093 1.17649 1.10839
 H922 H 0.64050 1.15207 1.11099
 H923 H 0.60657 1.12494 1.08648
 H924 H 0.66362 1.06042 1.08472
 H925 H 0.69838 1.08839 1.10678
 H926 H 0.63806 1.05075 1.04472
 H927 H 0.60296 1.02034 1.02681
 H928 H 0.54164 1.06062 1.07488
 H929 H 0.57688 1.08970 1.09448
 C930 C 0.66177 0.84719 0.83955
 C931 C 0.68576 0.84415 0.85593
 C932 C 0.70908 0.83299 0.84437
 C933 C 0.70918 0.82488 0.81605
 C934 C 0.68546 0.82822 0.79942
 C935 C 0.66193 0.83914 0.81109
 C936 C 0.63703 0.85910 0.85225
 C937 C 0.62034 0.87636 0.83644
 C938 C 0.59854 0.88923 0.84929
 C939 C 0.59307 0.88534 0.87831
 C940 C 0.60917 0.86728 0.89375
 C941 C 0.63065 0.85420 0.88085
 C942 C 0.57246 0.90156 0.89319
 C943 C 0.55837 0.89129 0.91696
 C944 C 0.54324 0.90789 0.93417
 C945 C 0.54130 0.93496 0.92762
 C946 C 0.55319 0.94481 0.90256
 C947 C 0.56883 0.92835 0.88564
 H948 H 0.68672 0.85078 0.87764
 H949 H 0.72726 0.83109 0.85750
 H950 H 0.68500 0.82195 0.77755
 H951 H 0.64377 0.84094 0.79794
 H952 H 0.62467 0.88069 0.81439
 H953 H 0.58633 0.90263 0.83658
 H954 H 0.60599 0.86396 0.91619
 H955 H 0.64263 0.84057 0.89354
 H956 H 0.55990 0.87061 0.92294
 H957 H 0.53390 0.89977 0.95321
 H958 H 0.55209 0.96567 0.89712
 H959 H 0.57948 0.93712 0.86771
   
