data_POSCAR
  _audit_creation_date              2014-09-24
  _audit_creation_method            'ToBaCCo'
  _symmetry_space_group_name_H-M    'P1'
  _symmetry_Int_Tables_number       1
  _symmetry_cell_setting            triclinic
  loop_
  _symmetry_equiv_pos_as_xyz
 x,y,z
_cell_length_a 45.8222
_cell_length_b 45.8087
_cell_length_c 45.8991
_cell_angle_alpha 89.928500
_cell_angle_beta 89.948700
_cell_angle_gamma 90.004200
loop_
  _atom_site_label
  _atom_site_type_symbol
  _atom_site_fract_x
  _atom_site_fract_y
  _atom_site_fract_z
C1 C 0.25013 0.27205 0.22783
 C2 C 0.27187 0.27188 0.20629
 C3 C 0.29347 0.25023 0.20636
 C4 C 0.29351 0.22859 0.22795
 C5 C 0.27193 0.22843 0.24966
 C6 C 0.25013 0.25024 0.24964
 C7 C 0.22840 0.29362 0.22797
 C8 C 0.20679 0.29357 0.24959
 C9 C 0.20674 0.27198 0.27123
 C10 C 0.22831 0.25025 0.27142
 C11 C 0.22846 0.22851 0.29298
 C12 C 0.25010 0.20690 0.29295
 C13 C 0.27176 0.20685 0.27138
 H14 H 0.27203 0.28854 0.18947
 H15 H 0.31032 0.21192 0.22781
 H16 H 0.22824 0.31043 0.21131
 H17 H 0.18992 0.27214 0.28787
 H18 H 0.21180 0.22835 0.30978
 H19 H 0.28841 0.19003 0.27155
 C20 C 0.74963 -0.27187 0.22779
 C21 C 0.72786 -0.27174 0.20631
 C22 C 0.70618 -0.25014 0.20640
 C23 C 0.70614 -0.22850 0.22798
 C24 C 0.72774 -0.22832 0.24962
 C25 C 0.74961 -0.25008 0.24956
 C26 C 0.77141 -0.29340 0.22789
 C27 C 0.79306 -0.29334 0.24946
 C28 C 0.79307 -0.27174 0.27108
 C29 C 0.77145 -0.25006 0.27128
 C30 C 0.77126 -0.22835 0.29282
 C31 C 0.74957 -0.20680 0.29283
 C32 C 0.72789 -0.20678 0.27132
 H33 H 0.72778 -0.28842 0.18954
 H34 H 0.68930 -0.21184 0.22794
 H35 H 0.77152 -0.31017 0.21121
 H36 H 0.80988 -0.27182 0.28772
 H37 H 0.78794 -0.22818 0.30957
 H38 H 0.71120 -0.19000 0.27152
 C39 C 0.75023 0.27228 0.77186
 C40 C 0.72850 0.27208 0.79341
 C41 C 0.70689 0.25041 0.79339
 C42 C 0.70686 0.22879 0.77180
 C43 C 0.72844 0.22867 0.75009
 C44 C 0.75024 0.25050 0.75008
 C45 C 0.77195 0.29387 0.77168
 C46 C 0.79358 0.29387 0.75005
 C47 C 0.79362 0.27228 0.72843
 C48 C 0.77205 0.25054 0.72829
 C49 C 0.77189 0.22883 0.70675
 C50 C 0.75025 0.20722 0.70681
 C51 C 0.72861 0.20713 0.72839
 H52 H 0.72840 0.28876 0.81018
 H53 H 0.69007 0.21207 0.77190
 H54 H 0.77204 0.31064 0.78836
 H55 H 0.81041 0.27240 0.71174
 H56 H 0.78855 0.22870 0.68995
 H57 H 0.71196 0.19030 0.72824
 C58 C 0.24949 -0.27270 0.77262
 C59 C 0.27117 -0.27253 0.79419
 C60 C 0.29282 -0.25093 0.79409
 C61 C 0.29298 -0.22934 0.77245
 C62 C 0.27147 -0.22918 0.75072
 C63 C 0.24961 -0.25095 0.75076
 C64 C 0.22771 -0.29423 0.77251
 C65 C 0.20615 -0.29420 0.75085
 C66 C 0.20623 -0.27264 0.72915
 C67 C 0.22786 -0.25096 0.72895
 C68 C 0.22814 -0.22927 0.70733
 C69 C 0.24983 -0.20772 0.70734
 C70 C 0.27142 -0.20767 0.72894
 H71 H 0.27125 -0.28915 0.81105
 H72 H 0.30984 -0.21272 0.77257
 H73 H 0.22753 -0.31098 0.78926
 H74 H 0.18949 -0.27273 0.71244
 H75 H 0.21153 -0.22912 0.69051
 H76 H 0.28811 -0.19088 0.72875
 C77 C 0.75018 -0.27219 0.77229
 C78 C 0.72849 -0.27202 0.79388
 C79 C 0.70688 -0.25039 0.79383
 C80 C 0.70676 -0.22877 0.77222
 C81 C 0.72828 -0.22862 0.75047
 C82 C 0.75012 -0.25041 0.75046
 C83 C 0.77193 -0.29374 0.77213
 C84 C 0.79350 -0.29371 0.75045
 C85 C 0.79347 -0.27213 0.72877
 C86 C 0.77188 -0.25042 0.72862
 C87 C 0.77164 -0.22871 0.70704
 C88 C 0.74998 -0.20714 0.70710
 C89 C 0.72838 -0.20707 0.72872
 H90 H 0.72838 -0.28866 0.81071
 H91 H 0.68993 -0.21213 0.77238
 H92 H 0.77207 -0.31052 0.78885
 H93 H 0.81023 -0.27223 0.71205
 H94 H 0.78827 -0.22856 0.69020
 H95 H 0.71171 -0.19027 0.72857
 C96 C 0.25014 0.27161 0.77152
 C97 C 0.27191 0.27146 0.79298
 C98 C 0.29354 0.24985 0.79287
 C99 C 0.29358 0.22821 0.77132
 C100 C 0.27196 0.22803 0.74970
 C101 C 0.25012 0.24981 0.74976
 C102 C 0.22837 0.29314 0.77141
 C103 C 0.20673 0.29306 0.74988
 C104 C 0.20666 0.27149 0.72828
 C105 C 0.22826 0.24979 0.72805
 C106 C 0.22841 0.22807 0.70654
 C107 C 0.25009 0.20651 0.70653
 C108 C 0.27178 0.20647 0.72802
 H109 H 0.27208 0.28811 0.80976
 H110 H 0.31042 0.21158 0.77144
 H111 H 0.22822 0.30995 0.78804
 H112 H 0.18981 0.27163 0.71170
 H113 H 0.21171 0.22790 0.68980
 H114 H 0.28846 0.18968 0.72782
 C115 C 0.24982 -0.27239 0.22772
 C116 C 0.27162 -0.27228 0.20623
 C117 C 0.29335 -0.25074 0.20636
 C118 C 0.29343 -0.22915 0.22798
 C119 C 0.27179 -0.22895 0.24962
 C120 C 0.24987 -0.25065 0.24953
 C121 C 0.22798 -0.29386 0.22779
 C122 C 0.20630 -0.29377 0.24936
 C123 C 0.20631 -0.27222 0.27101
 C124 C 0.22799 -0.25060 0.27125
 C125 C 0.22820 -0.22893 0.29281
 C126 C 0.24996 -0.20744 0.29285
 C127 C 0.27167 -0.20744 0.27135
 H128 H 0.27168 -0.28893 0.18943
 H129 H 0.31032 -0.21253 0.22796
 H130 H 0.22785 -0.31060 0.21108
 H131 H 0.18947 -0.27227 0.28765
 H132 H 0.21149 -0.22873 0.30957
 H133 H 0.28841 -0.19070 0.27157
 C134 C 0.75079 0.27273 0.22802
 C135 C 0.72914 0.27250 0.20642
 C136 C 0.70761 0.25079 0.20645
 C137 C 0.70752 0.22915 0.22804
 C138 C 0.72900 0.22905 0.24979
 C139 C 0.75076 0.25092 0.24982
 C140 C 0.77246 0.29435 0.22820
 C141 C 0.79399 0.29438 0.24988
 C142 C 0.79400 0.27276 0.27153
 C143 C 0.77248 0.25098 0.27166
 C144 C 0.77228 0.22925 0.29322
 C145 C 0.75068 0.20760 0.29314
 C146 C 0.72913 0.20749 0.27152
 H147 H 0.72901 0.28915 0.18961
 H148 H 0.69074 0.21245 0.22786
 H149 H 0.77258 0.31114 0.21149
 H150 H 0.81073 0.27290 0.28826
 H151 H 0.78887 0.22913 0.31007
 H152 H 0.71251 0.19063 0.27165
 O153 O 0.27421 0.02781 0.47147
 O154 O 0.27425 -0.02909 0.52827
 O155 O 0.27425 -0.02905 0.47152
 O156 O 0.27420 0.02777 0.52821
 O157 O 0.22593 0.02773 0.52825
 O158 O 0.22599 -0.02909 0.47156
 O159 O 0.22598 -0.02913 0.52831
 O160 O 0.22594 0.02777 0.47151
 Cu161 Cu 0.27910 -0.00064 0.49987
 Cu162 Cu 0.22109 -0.00069 0.49991
 C163 C 0.25007 0.03739 0.46191
 C164 C 0.25012 -0.03870 0.53788
 C165 C 0.25013 -0.03865 0.46197
 C166 C 0.25006 0.03734 0.53780
 O167 O 0.72594 0.02853 0.52837
 O168 O 0.72575 -0.02825 0.47160
 O169 O 0.72579 -0.02832 0.52835
 O170 O 0.72593 0.02861 0.47163
 O171 O 0.77420 0.02847 0.47157
 O172 O 0.77405 -0.02846 0.52829
 O173 O 0.77401 -0.02839 0.47154
 O174 O 0.77420 0.02840 0.52831
 Cu175 Cu 0.72098 0.00015 0.49999
 Cu176 Cu 0.77899 -0.00001 0.49992
 C177 C 0.75010 0.03805 0.53792
 C178 C 0.74984 -0.03790 0.46198
 C179 C 0.74990 -0.03799 0.53790
 C180 C 0.75009 0.03815 0.46203
 O181 O 0.47238 0.27439 0.02770
 O182 O 0.52925 0.27442 -0.02909
 O183 O 0.47241 0.27432 -0.02904
 O184 O 0.52922 0.27450 0.02766
 O185 O 0.52931 0.22622 0.02778
 O186 O 0.47250 0.22604 -0.02892
 O187 O 0.52934 0.22614 -0.02896
 O188 O 0.47247 0.22611 0.02782
 Cu189 Cu 0.50081 0.27928 -0.00070
 Cu190 Cu 0.50091 0.22126 -0.00056
 C191 C 0.46283 0.25024 0.03735
 C192 C 0.53889 0.25029 -0.03861
 C193 C 0.46286 0.25014 -0.03854
 C194 C 0.53884 0.25039 0.03730
 O195 O 0.52834 0.72535 0.02946
 O196 O 0.47152 0.72519 -0.02728
 O197 O 0.52836 0.72531 -0.02729
 O198 O 0.47150 0.72522 0.02946
 O199 O 0.47139 0.77350 0.02937
 O200 O 0.52826 0.77359 -0.02738
 O201 O 0.47142 0.77347 -0.02737
 O202 O 0.52824 0.77363 0.02937
 Cu203 Cu 0.49994 0.72040 0.00110
 Cu204 Cu 0.49982 0.77842 0.00099
 C205 C 0.53788 0.74952 0.03899
 C206 C 0.46188 0.74930 -0.03690
 C207 C 0.53790 0.74946 -0.03692
 C208 C 0.46184 0.74935 0.03899
 O209 O 0.02797 0.47250 0.27357
 O210 O -0.02890 0.52935 0.27352
 O211 O -0.02886 0.47249 0.27363
 O212 O 0.02796 0.52935 0.27347
 O213 O 0.02796 0.52932 0.22529
 O214 O -0.02887 0.47246 0.22545
 O215 O -0.02890 0.52932 0.22534
 O216 O 0.02797 0.47247 0.22539
 Cu217 Cu -0.00046 0.50093 0.27841
 Cu218 Cu -0.00046 0.50090 0.22050
 C219 C 0.03756 0.46288 0.24949
 C220 C -0.03850 0.53893 0.24942
 C221 C -0.03844 0.46287 0.24957
 C222 C 0.03756 0.53892 0.24935
 O223 O 0.02798 0.52871 0.72647
 O224 O -0.02892 0.47189 0.72627
 O225 O -0.02886 0.52875 0.72641
 O226 O 0.02791 0.47186 0.72632
 O227 O 0.02782 0.47167 0.77450
 O228 O -0.02896 0.52857 0.77460
 O229 O -0.02901 0.47171 0.77445
 O230 O 0.02789 0.52853 0.77466
 Cu231 Cu -0.00047 0.50032 0.72151
 Cu232 Cu -0.00057 0.50010 0.77942
 C233 C 0.03755 0.53820 0.75060
 C234 C -0.03856 0.46220 0.75033
 C235 C -0.03849 0.53826 0.75052
 C236 C 0.03745 0.46217 0.75040
 C237 C 0.31569 0.25022 0.18417
 C238 C 0.33431 0.25022 0.16559
 C239 C 0.35653 0.25024 0.14341
 C240 C 0.34913 0.24451 0.11436
 C241 C 0.37073 0.24451 0.09281
 C242 C 0.39984 0.25024 0.10021
 C243 C 0.40724 0.25597 0.12926
 C244 C 0.38563 0.25597 0.15082
 C245 C 0.42207 0.25022 0.07804
 C246 C 0.44068 0.25022 0.05946
 H247 H 0.32670 0.24005 0.10839
 H248 H 0.36477 0.24005 0.07042
 H249 H 0.42967 0.26042 0.13523
 H250 H 0.39160 0.26042 0.17321
 C251 C 0.68511 0.74982 0.18547
 C252 C 0.66645 0.74980 0.16695
 C253 C 0.64420 0.74978 0.14484
 C254 C 0.64590 0.76932 0.12140
 C255 C 0.62428 0.76928 0.09990
 C256 C 0.60086 0.74969 0.10176
 C257 C 0.59915 0.73015 0.12521
 C258 C 0.62077 0.73019 0.14670
 C259 C 0.57863 0.74963 0.07962
 C260 C 0.56002 0.74958 0.06107
 H261 H 0.66392 0.78456 0.11974
 H262 H 0.62582 0.78448 0.08186
 H263 H 0.58114 0.71491 0.12686
 H264 H 0.61924 0.71498 0.16474
 C265 C 0.68586 0.25038 -0.18560
 C266 C 0.66725 0.25036 -0.16700
 C267 C 0.64505 0.25036 -0.14480
 C268 C 0.62105 0.23154 -0.14707
 C269 C 0.59948 0.23153 -0.12548
 C270 C 0.60181 0.25033 -0.10154
 C271 C 0.62581 0.26915 -0.09928
 C272 C 0.64738 0.26916 -0.12087
 C273 C 0.57962 0.25031 -0.07933
 C274 C 0.56103 0.25030 -0.06073
 H275 H 0.61903 0.21690 -0.16548
 H276 H 0.58102 0.21688 -0.12745
 H277 H 0.62784 0.28378 -0.08087
 H278 H 0.66585 0.28381 -0.11890
 C279 C 0.31499 0.74907 -0.18370
 C280 C 0.33357 0.74909 -0.16511
 C281 C 0.35575 0.74912 -0.14293
 C282 C 0.35147 0.73349 -0.11702
 C283 C 0.37304 0.73352 -0.09546
 C284 C 0.39897 0.74917 -0.09974
 C285 C 0.40324 0.76480 -0.12566
 C286 C 0.38168 0.76477 -0.14721
 C287 C 0.42116 0.74920 -0.07756
 C288 C 0.43976 0.74924 -0.05899
 H289 H 0.33151 0.72132 -0.11348
 H290 H 0.36951 0.72137 -0.07550
 H291 H 0.42321 0.77697 -0.12919
 H292 H 0.38521 0.77692 -0.16717
 C293 C 0.18457 0.31579 0.24956
 C294 C 0.16596 0.33439 0.24955
 C295 C 0.14374 0.35660 0.24955
 C296 C 0.14158 0.37611 0.27294
 C297 C 0.12000 0.39771 0.27294
 C298 C 0.10049 0.39988 0.24954
 C299 C 0.10265 0.38037 0.22616
 C300 C 0.12423 0.35877 0.22616
 C301 C 0.07829 0.42212 0.24953
 C302 C 0.05969 0.44074 0.24950
 H303 H 0.15655 0.37463 0.29114
 H304 H 0.11852 0.41269 0.29113
 H305 H 0.08768 0.38185 0.20796
 H306 H 0.12571 0.34380 0.20797
 C307 C 0.18507 0.68481 0.75088
 C308 C 0.16640 0.66625 0.75089
 C309 C 0.14411 0.64411 0.75085
 C310 C 0.13349 0.63295 0.77725
 C311 C 0.11182 0.61144 0.77721
 C312 C 0.10069 0.60100 0.75077
 C313 C 0.11131 0.61216 0.72438
 C314 C 0.13298 0.63367 0.72442
 C315 C 0.07840 0.57885 0.75073
 C316 C 0.05974 0.56029 0.75068
 H317 H 0.14194 0.64087 0.79781
 H318 H 0.10376 0.60296 0.79774
 H319 H 0.10286 0.60424 0.70382
 H320 H 0.14104 0.64215 0.70389
 C321 C -0.18587 0.68568 0.24942
 C322 C -0.16721 0.66711 0.24939
 C323 C -0.14494 0.64495 0.24939
 C324 C -0.13181 0.63641 0.27560
 C325 C -0.11017 0.61487 0.27560
 C326 C -0.10157 0.60179 0.24938
 C327 C -0.11470 0.61033 0.22317
 C328 C -0.13634 0.63187 0.22317
 C329 C -0.07930 0.57962 0.24939
 C330 C -0.06066 0.56104 0.24940
 H331 H -0.13829 0.64638 0.29600
 H332 H -0.10016 0.60843 0.29600
 H333 H -0.10822 0.60036 0.20277
 H334 H -0.14636 0.63831 0.20278
 C335 C -0.18541 0.31492 0.75004
 C336 C -0.16683 0.33356 0.75004
 C337 C -0.14465 0.35582 0.75006
 C338 C -0.11653 0.34947 0.73987
 C339 C -0.09498 0.37109 0.73991
 C340 C -0.10146 0.39917 0.75014
 C341 C -0.12958 0.40552 0.76033
 C342 C -0.15113 0.38389 0.76029
 C343 C -0.07927 0.42142 0.75019
 C344 C -0.06069 0.44005 0.75025
 H345 H -0.11129 0.32783 0.73191
 H346 H -0.07331 0.36594 0.73198
 H347 H -0.13483 0.42715 0.76829
 H348 H -0.17280 0.38903 0.76823
 C349 C 0.25008 0.18467 0.31514
 C350 C 0.25007 0.16604 0.33372
 C351 C 0.25007 0.14379 0.35589
 C352 C 0.25060 0.11425 0.34802
 C353 C 0.25060 0.09262 0.36957
 C354 C 0.25006 0.10045 0.39906
 C355 C 0.24953 0.12999 0.40693
 C356 C 0.24953 0.15161 0.38539
 C357 C 0.25005 0.07819 0.42123
 C358 C 0.25005 0.05956 0.43981
 H359 H 0.25102 0.10796 0.32528
 H360 H 0.25101 0.06985 0.36324
 H361 H 0.24911 0.13628 0.42967
 H362 H 0.24912 0.17439 0.39171
 C363 C 0.75025 0.18503 0.68463
 C364 C 0.75025 0.16644 0.66606
 C365 C 0.75027 0.14423 0.64390
 C366 C 0.74999 0.15212 0.61439
 C367 C 0.74998 0.13054 0.59286
 C368 C 0.75025 0.10098 0.60074
 C369 C 0.75053 0.09309 0.63024
 C370 C 0.75054 0.11467 0.65178
 C371 C 0.75021 0.07877 0.57858
 C372 C 0.75017 0.06017 0.56001
 H373 H 0.74977 0.17491 0.60806
 H374 H 0.74975 0.13688 0.57011
 H375 H 0.75074 0.07030 0.63658
 H376 H 0.75075 0.10833 0.67452
 C377 C 0.24993 -0.18555 0.68509
 C378 C 0.25000 -0.16697 0.66645
 C379 C 0.25006 -0.14480 0.64421
 C380 C 0.24792 -0.11529 0.65192
 C381 C 0.24795 -0.09373 0.63030
 C382 C 0.25013 -0.10160 0.60088
 C383 C 0.25228 -0.13111 0.59318
 C384 C 0.25225 -0.15266 0.61480
 C385 C 0.25014 -0.07942 0.57864
 C386 C 0.25013 -0.06083 0.56002
 H387 H 0.24622 -0.10896 0.67459
 H388 H 0.24627 -0.07098 0.63650
 H389 H 0.25397 -0.13744 0.57050
 H390 H 0.25391 -0.17542 0.60860
 C391 C 0.74955 -0.18462 0.31501
 C392 C 0.74955 -0.16605 0.33361
 C393 C 0.74957 -0.14389 0.35581
 C394 C 0.75216 -0.15175 0.38521
 C395 C 0.75220 -0.13022 0.40679
 C396 C 0.74965 -0.10072 0.39906
 C397 C 0.74706 -0.09286 0.36967
 C398 C 0.74702 -0.11440 0.34809
 C399 C 0.74970 -0.07856 0.42127
 C400 C 0.74976 -0.06000 0.43987
 H401 H 0.75414 -0.17449 0.39142
 H402 H 0.75421 -0.13654 0.42945
 H403 H 0.74508 -0.07012 0.36345
 H404 H 0.74501 -0.10807 0.32542
 C405 C 0.68471 0.74960 -0.18395
 C406 C 0.66614 0.74958 -0.16534
 C407 C 0.64397 0.74957 -0.14312
 C408 C 0.61997 0.73076 -0.14538
 C409 C 0.59842 0.73074 -0.12379
 C410 C 0.60078 0.74954 -0.09984
 C411 C 0.62478 0.76835 -0.09759
 C412 C 0.64633 0.76837 -0.11918
 C413 C 0.57861 0.74952 -0.07763
 C414 C 0.56002 0.74950 -0.05903
 H415 H 0.61793 0.71614 -0.16380
 H416 H 0.57995 0.71611 -0.12575
 H417 H 0.62682 0.78297 -0.07916
 H418 H 0.66480 0.78300 -0.11722
 C419 C 0.31578 0.24986 -0.18503
 C420 C 0.33441 0.24988 -0.16651
 C421 C 0.35663 0.24991 -0.14439
 C422 C 0.35236 0.23438 -0.11842
 C423 C 0.37396 0.23441 -0.09691
 C424 C 0.39992 0.24998 -0.10129
 C425 C 0.40419 0.26552 -0.12726
 C426 C 0.38259 0.26548 -0.14877
 C427 C 0.42213 0.25003 -0.07916
 C428 C 0.44074 0.25007 -0.06061
 H429 H 0.33236 0.22227 -0.11481
 H430 H 0.37043 0.22233 -0.07690
 H431 H 0.42418 0.27763 -0.13086
 H432 H 0.38612 0.27756 -0.16877
 C433 C 0.31444 0.74923 0.18543
 C434 C 0.33310 0.74921 0.16690
 C435 C 0.35538 0.74921 0.14479
 C436 C 0.34809 0.74318 0.11578
 C437 C 0.36974 0.74320 0.09428
 C438 C 0.39876 0.74925 0.10172
 C439 C 0.40605 0.75527 0.13073
 C440 C 0.38440 0.75525 0.15223
 C441 C 0.42103 0.74928 0.07960
 C442 C 0.43968 0.74931 0.06106
 H443 H 0.32571 0.73848 0.10980
 H444 H 0.36386 0.73852 0.07191
 H445 H 0.42843 0.75997 0.13672
 H446 H 0.39027 0.75994 0.17460
 C447 C 0.68548 0.25073 0.18422
 C448 C 0.66694 0.25069 0.16561
 C449 C 0.64480 0.25064 0.14341
 C450 C 0.64663 0.27017 0.11996
 C451 C 0.62510 0.27012 0.09838
 C452 C 0.60166 0.25055 0.10017
 C453 C 0.59984 0.23103 0.12362
 C454 C 0.62137 0.23107 0.14520
 C455 C 0.57951 0.25051 0.07797
 C456 C 0.56094 0.25046 0.05939
 H457 H 0.66466 0.28539 0.11837
 H458 H 0.62672 0.28531 0.08034
 H459 H 0.58181 0.21581 0.12521
 H460 H 0.61975 0.21588 0.16324
 C461 C -0.18547 0.68528 0.75045
 C462 C -0.16685 0.66668 0.75046
 C463 C -0.14465 0.64448 0.75048
 C464 C -0.13181 0.63567 0.77676
 C465 C -0.11023 0.61408 0.77678
 C466 C -0.10140 0.60122 0.75053
 C467 C -0.11424 0.61004 0.72426
 C468 C -0.13582 0.63163 0.72423
 C469 C -0.07920 0.57901 0.75055
 C470 C -0.06061 0.56040 0.75055
 H471 H -0.13848 0.64547 0.79717
 H472 H -0.10045 0.60743 0.79722
 H473 H -0.10757 0.60024 0.70384
 H474 H -0.14560 0.63828 0.70380
 C475 C -0.18503 0.31545 0.24989
 C476 C -0.16648 0.33411 0.24989
 C477 C -0.14434 0.35637 0.24986
 C478 C -0.11616 0.34997 0.23986
 C479 C -0.09465 0.37162 0.23981
 C480 C -0.10122 0.39977 0.24975
 C481 C -0.12940 0.40618 0.25975
 C482 C -0.15091 0.38452 0.25981
 C483 C -0.07909 0.42205 0.24969
 C484 C -0.06053 0.44070 0.24963
 H485 H -0.11085 0.32827 0.23212
 H486 H -0.07293 0.36644 0.23203
 H487 H -0.13471 0.42787 0.26749
 H488 H -0.17263 0.38971 0.26758
 C489 C 0.18449 0.31523 0.74994
 C490 C 0.16586 0.33380 0.75000
 C491 C 0.14363 0.35598 0.75009
 C492 C 0.14161 0.37555 0.77344
 C493 C 0.12001 0.39712 0.77352
 C494 C 0.10035 0.39920 0.75025
 C495 C 0.10236 0.37962 0.72690
 C496 C 0.12396 0.35805 0.72683
 C497 C 0.07815 0.42141 0.75031
 C498 C 0.05955 0.44002 0.75035
 H499 H 0.15671 0.37414 0.79154
 H500 H 0.11865 0.41215 0.79167
 H501 H 0.08727 0.38104 0.70880
 H502 H 0.12533 0.34302 0.70867
 C503 C 0.18517 0.68531 0.24929
 C504 C 0.16647 0.66680 0.24926
 C505 C 0.14415 0.64472 0.24925
 C506 C 0.13327 0.63388 0.27567
 C507 C 0.11157 0.61240 0.27567
 C508 C 0.10067 0.60168 0.24926
 C509 C 0.11155 0.61253 0.22284
 C510 C 0.13325 0.63401 0.22283
 C511 C 0.07838 0.57956 0.24927
 C512 C 0.05973 0.56101 0.24930
 H513 H 0.14155 0.64201 0.29622
 H514 H 0.10332 0.60416 0.29623
 H515 H 0.10327 0.60439 0.20229
 H516 H 0.14151 0.64224 0.20228
 C517 C 0.74992 -0.18495 0.68488
 C518 C 0.74988 -0.16636 0.66627
 C519 C 0.74985 -0.14418 0.64406
 C520 C 0.74736 -0.11470 0.65179
 C521 C 0.74735 -0.09313 0.63020
 C522 C 0.74982 -0.10094 0.60080
 C523 C 0.75230 -0.13042 0.59307
 C524 C 0.75232 -0.15199 0.61466
 C525 C 0.74983 -0.07874 0.57859
 C526 C 0.74985 -0.06014 0.56000
 H527 H 0.74544 -0.10842 0.67446
 H528 H 0.74542 -0.07040 0.63641
 H529 H 0.75423 -0.13670 0.57040
 H530 H 0.75425 -0.17472 0.60845
 C531 C 0.24999 -0.18529 0.31504
 C532 C 0.25002 -0.16674 0.33365
 C533 C 0.25008 -0.14460 0.35584
 C534 C 0.25235 -0.15249 0.38525
 C535 C 0.25238 -0.13097 0.40683
 C536 C 0.25014 -0.10146 0.39909
 C537 C 0.24787 -0.09356 0.36967
 C538 C 0.24784 -0.11509 0.34809
 C539 C 0.25015 -0.07931 0.42128
 C540 C 0.25014 -0.06075 0.43987
 H541 H 0.25409 -0.17525 0.39148
 H542 H 0.25414 -0.13731 0.42951
 H543 H 0.24612 -0.07081 0.36344
 H544 H 0.24607 -0.10875 0.32542
 C545 C 0.75064 0.18539 0.31533
 C546 C 0.75059 0.16677 0.33391
 C547 C 0.75051 0.14453 0.35607
 C548 C 0.75068 0.11499 0.34820
 C549 C 0.75058 0.09337 0.36974
 C550 C 0.75032 0.10121 0.39924
 C551 C 0.75015 0.13075 0.40711
 C552 C 0.75025 0.15237 0.38557
 C553 C 0.75022 0.07896 0.42139
 C554 C 0.75015 0.06032 0.43995
 H555 H 0.75088 0.10870 0.32545
 H556 H 0.75071 0.07059 0.36341
 H557 H 0.74995 0.13704 0.42985
 H558 H 0.75012 0.17515 0.39189
 C559 C 0.25006 0.18431 0.68439
 C560 C 0.25005 0.16571 0.66583
 C561 C 0.25006 0.14351 0.64369
 C562 C 0.24946 0.15140 0.61420
 C563 C 0.24946 0.12982 0.59267
 C564 C 0.25005 0.10026 0.60056
 C565 C 0.25064 0.09238 0.63006
 C566 C 0.25065 0.11396 0.65158
 C567 C 0.25003 0.07806 0.57841
 C568 C 0.25004 0.05946 0.55987
 H569 H 0.24900 0.17419 0.60786
 H570 H 0.24899 0.13615 0.56992
 H571 H 0.25110 0.06959 0.63639
 H572 H 0.25111 0.10763 0.67433
   
