data_POSCAR
  _audit_creation_date              2014-09-24
  _audit_creation_method            'ToBaCCo'
  _symmetry_space_group_name_H-M    'P1'
  _symmetry_Int_Tables_number       1
  _symmetry_cell_setting            triclinic
  loop_
  _symmetry_equiv_pos_as_xyz
 x,y,z
_cell_length_a 48.1232
_cell_length_b 47.7138
_cell_length_c 48.1239
_cell_angle_alpha 89.951800
_cell_angle_beta 89.995500
_cell_angle_gamma 89.992300
loop_
  _atom_site_label
  _atom_site_type_symbol
  _atom_site_fract_x
  _atom_site_fract_y
  _atom_site_fract_z
C1 C 0.60418 0.64512 0.62562
 C2 C 0.60427 0.62443 0.64630
 C3 C 0.62496 0.60374 0.64641
 C4 C 0.64556 0.60378 0.62579
 C5 C 0.64546 0.62447 0.60512
 C6 C 0.62477 0.64513 0.60504
 H7 H 0.58829 0.62448 0.66221
 H8 H 0.66161 0.58781 0.62580
 H9 H 0.62469 0.66115 0.58904
 C10 C 0.89649 0.35403 0.12517
 C11 C 0.89640 0.37475 0.14582
 C12 C 0.87575 0.39545 0.14587
 C13 C 0.85517 0.39545 0.12527
 C14 C 0.85523 0.37477 0.10463
 C15 C 0.87588 0.35406 0.10458
 H16 H 0.91231 0.37480 0.16180
 H17 H 0.83918 0.41147 0.12532
 H18 H 0.87587 0.33807 0.08856
 C19 C 0.39567 0.14584 -0.12538
 C20 C 0.39560 0.12515 -0.14603
 C21 C 0.37495 0.10446 -0.14612
 C22 C 0.35436 0.10446 -0.12554
 C23 C 0.35441 0.12513 -0.10488
 C24 C 0.37507 0.14582 -0.10481
 H25 H 0.41155 0.12516 -0.16196
 H26 H 0.33836 0.08845 -0.12560
 H27 H 0.37512 0.16182 -0.08882
 C28 C 0.10323 0.85371 0.37478
 C29 C 0.10328 0.87447 0.35414
 C30 C 0.12393 0.89517 0.35407
 C31 C 0.14453 0.89513 0.37464
 C32 C 0.14450 0.87441 0.39528
 C33 C 0.12386 0.85371 0.39535
 H34 H 0.08736 0.87455 0.33818
 H35 H 0.16051 0.91116 0.37458
 H36 H 0.12390 0.83768 0.41137
 N37 N 0.09234 0.17027 0.11310
 N38 N 0.08172 0.15909 0.13574
 C39 C 0.05920 0.17399 0.14342
 C40 C 0.05572 0.19547 0.12458
 C41 C 0.07697 0.19262 0.10562
 H42 H 0.04628 0.16961 0.16130
 H43 H 0.08094 0.20581 0.08777
 Cu44 Cu 0.09837 0.12620 0.15292
 Cu45 Cu 0.12522 0.15504 0.09503
 Cu46 Cu 0.15468 0.09576 0.12456
 N47 N 0.11478 0.09258 0.16888
 N48 N 0.13681 0.08078 0.15768
 C49 C 0.14386 0.05802 0.17267
 C50 C 0.12525 0.05556 0.19428
 C51 C 0.10706 0.07767 0.19140
 H52 H 0.16120 0.04431 0.16822
 H53 H 0.08958 0.08247 0.20470
 N54 N 0.16975 0.11400 0.09105
 N55 N 0.15853 0.13659 0.07979
 C56 C 0.17350 0.14401 0.05729
 C57 C 0.19500 0.12520 0.05442
 C58 C 0.19216 0.10646 0.07600
 H59 H 0.16917 0.16175 0.04398
 H60 H 0.20546 0.08873 0.08036
 H61 H 0.11935 0.11426 0.10837
 H62 H 0.14238 0.13689 0.13007
 N63 N 0.40715 0.82994 0.61284
 N64 N 0.41806 0.84146 0.63514
 C65 C 0.44061 0.82661 0.64286
 C66 C 0.44380 0.80480 0.62438
 C67 C 0.42235 0.80740 0.60560
 H68 H 0.45373 0.83123 0.66052
 H69 H 0.41814 0.79393 0.58803
 Cu70 Cu 0.40167 0.87471 0.65182
 Cu71 Cu 0.37411 0.84498 0.59484
 Cu72 Cu 0.34456 0.90427 0.62426
 N73 N 0.38492 0.90796 0.66814
 N74 N 0.36256 0.91942 0.65723
 C75 C 0.35527 0.94197 0.67238
 C76 C 0.37408 0.94464 0.69380
 C77 C 0.39262 0.92287 0.69064
 H78 H 0.33766 0.95539 0.66817
 H79 H 0.41030 0.91830 0.70375
 N80 N 0.32940 0.88587 0.59089
 N81 N 0.34066 0.86328 0.57969
 C82 C 0.32563 0.85576 0.55727
 C83 C 0.30407 0.87451 0.55439
 C84 C 0.30693 0.89330 0.57589
 H85 H 0.32998 0.83802 0.54400
 H86 H 0.29360 0.91102 0.58021
 H87 H 0.37970 0.88597 0.60753
 H88 H 0.35738 0.86332 0.62996
 N89 N 0.90798 0.66937 0.38758
 N90 N 0.91919 0.65763 0.36553
 C91 C 0.94170 0.67254 0.35783
 C92 C 0.94456 0.69461 0.37606
 C93 C 0.92296 0.69210 0.39468
 H94 H 0.95500 0.66779 0.34035
 H95 H 0.91849 0.70577 0.41203
 Cu96 Cu 0.90325 0.62405 0.34907
 Cu97 Cu 0.87487 0.65435 0.40543
 Cu98 Cu 0.84537 0.59517 0.37587
 N99 N 0.88609 0.59121 0.33236
 N100 N 0.86345 0.58002 0.34296
 C101 C 0.85599 0.55771 0.32756
 C102 C 0.87496 0.55491 0.30631
 C103 C 0.89378 0.57638 0.30982
 H104 H 0.83814 0.54451 0.33151
 H105 H 0.91166 0.58078 0.29692
 N106 N 0.83012 0.61354 0.40920
 N107 N 0.84136 0.63609 0.42047
 C108 C 0.82631 0.64357 0.44289
 C109 C 0.80473 0.62483 0.44569
 C110 C 0.80762 0.60608 0.42416
 H111 H 0.83066 0.66126 0.45622
 H112 H 0.79432 0.58835 0.41980
 H113 H 0.88039 0.61326 0.39306
 H114 H 0.85868 0.63597 0.37006
 N115 N 0.59273 0.33057 -0.11300
 N116 N 0.58184 0.34207 -0.13535
 C117 C 0.55928 0.32724 -0.14302
 C118 C 0.55606 0.30547 -0.12446
 C119 C 0.57750 0.30807 -0.10569
 H120 H 0.54617 0.33184 -0.16070
 H121 H 0.58169 0.29462 -0.08807
 Cu122 Cu 0.59830 0.37525 -0.15214
 Cu123 Cu 0.62580 0.34558 -0.09505
 Cu124 Cu 0.65545 0.40475 -0.12469
 N125 N 0.61510 0.40843 -0.16859
 N126 N 0.63748 0.41986 -0.15772
 C127 C 0.64480 0.44238 -0.17294
 C128 C 0.62599 0.44506 -0.19436
 C129 C 0.60742 0.42332 -0.19113
 H130 H 0.66243 0.45578 -0.16877
 H131 H 0.58972 0.41878 -0.20421
 N132 N 0.67057 0.38639 -0.09125
 N133 N 0.65928 0.36385 -0.07996
 C134 C 0.67428 0.35635 -0.05750
 C135 C 0.69587 0.37506 -0.05469
 C136 C 0.69305 0.39381 -0.07627
 H137 H 0.66989 0.33865 -0.04417
 H138 H 0.70641 0.41150 -0.08065
 H139 H 0.62028 0.38656 -0.10789
 H140 H 0.64256 0.36382 -0.13024
 C141 C -0.00949 0.27735 0.10158
 C142 C -0.04115 0.27162 0.10278
 C143 C -0.04402 0.29452 0.12502
 C144 C -0.01269 0.30059 0.12382
 C145 C -0.00514 0.25577 0.12490
 C146 C -0.00800 0.27868 0.14713
 C147 C -0.03647 0.24971 0.12610
 C148 C -0.03967 0.27295 0.14833
 C149 C -0.06565 0.31612 0.12508
 C150 C -0.08343 0.33391 0.12512
 C151 C 0.01654 0.23422 0.12481
 C152 C 0.03440 0.21652 0.12472
 H153 H 0.00317 0.27892 0.08235
 H154 H -0.05503 0.26896 0.08455
 H155 H -0.00315 0.32175 0.12288
 H156 H 0.00587 0.28134 0.16537
 H157 H -0.04601 0.22855 0.12703
 H158 H -0.05233 0.27138 0.16756
 C159 C 0.51504 0.72900 0.59901
 C160 C 0.54531 0.73337 0.60907
 C161 C 0.54348 0.70569 0.62528
 C162 C 0.51354 0.70097 0.61523
 C163 C 0.50459 0.74442 0.62500
 C164 C 0.50276 0.71673 0.64122
 C165 C 0.53453 0.74914 0.63506
 C166 C 0.53303 0.72111 0.65127
 C167 C 0.56513 0.68410 0.62542
 C168 C 0.58293 0.66634 0.62551
 C169 C 0.48292 0.76598 0.62482
 C170 C 0.46508 0.78370 0.62464
 H171 H 0.50740 0.73248 0.57752
 H172 H 0.56305 0.73997 0.59585
 H173 H 0.50516 0.68093 0.60708
 H174 H 0.48502 0.71013 0.65444
 H175 H 0.54291 0.76918 0.64321
 H176 H 0.54067 0.71762 0.67277
 C177 C 1.00099 0.78515 0.36419
 C178 C 1.01588 0.79673 0.39031
 C179 C 1.04382 0.79413 0.37508
 C180 C 1.02927 0.78289 0.34895
 C181 C 1.00507 0.75526 0.37536
 C182 C 1.03301 0.75266 0.36013
 C183 C 1.01962 0.76651 0.40149
 C184 C 1.04789 0.76424 0.38626
 C185 C 1.06540 0.81578 0.37495
 C186 C 1.08315 0.83358 0.37486
 C187 C 0.98349 0.73362 0.37556
 C188 C 0.96573 0.71582 0.37577
 H189 H 0.98147 0.79351 0.35511
 H190 H 1.00908 0.81510 0.40272
 H191 H 1.03348 0.78986 0.32735
 H192 H 1.03981 0.73429 0.34773
 H193 H 1.01541 0.75954 0.42310
 H194 H 1.06742 0.75589 0.39533
 C195 C 0.46819 0.24694 -0.14181
 C196 C 0.47237 0.21612 -0.15100
 C197 C 0.45634 0.20642 -0.12512
 C198 C 0.45181 0.23691 -0.11593
 C199 C 0.49523 0.24515 -0.12493
 C200 C 0.47919 0.23545 -0.09904
 C201 C 0.49975 0.21466 -0.13412
 C202 C 0.48337 0.20462 -0.10824
 C203 C 0.43469 0.18484 -0.12522
 C204 C 0.41690 0.16707 -0.12529
 C205 C 0.51691 0.26669 -0.12480
 C206 C 0.53476 0.28440 -0.12466
 H207 H 0.46219 0.26459 -0.15561
 H208 H 0.46932 0.20793 -0.17237
 H209 H 0.43186 0.24582 -0.10844
 H210 H 0.48223 0.24364 -0.07767
 H211 H 0.51970 0.20574 -0.14160
 H212 H 0.48938 0.18698 -0.09443
 C213 C 0.12133 0.00070 0.28604
 C214 C 0.10011 -0.02364 0.28801
 C215 C 0.12419 -0.04404 0.29355
 C216 C 0.14540 -0.02004 0.29191
 C217 C 0.12448 -0.00513 0.25480
 C218 C 0.14856 -0.02554 0.26034
 C219 C 0.10327 -0.02914 0.25644
 C220 C 0.12734 -0.04988 0.26231
 C221 C 0.12406 -0.06571 0.31512
 C222 C 0.12399 -0.08354 0.33287
 C223 C 0.12470 0.01653 0.23322
 C224 C 0.12492 0.03434 0.21545
 H225 H 0.11886 0.02174 0.29555
 H226 H 0.08019 -0.02310 0.29963
 H227 H 0.16273 -0.01654 0.30674
 H228 H 0.16848 -0.02608 0.24873
 H229 H 0.08594 -0.03264 0.24161
 H230 H 0.12981 -0.07092 0.25280
 C231 C 0.65030 0.51218 -0.27414
 C232 C 0.63032 0.51291 -0.29938
 C233 C 0.62527 0.54424 -0.29404
 C234 C 0.64525 0.54384 -0.26914
 C235 C 0.62550 0.50547 -0.25516
 C236 C 0.62045 0.53681 -0.24983
 C237 C 0.60553 0.50587 -0.28006
 C238 C 0.60047 0.53754 -0.27506
 C239 C 0.62515 0.56584 -0.31569
 C240 C 0.62506 0.58363 -0.33348
 C241 C 0.62565 0.48390 -0.23349
 C242 C 0.62579 0.46617 -0.21564
 H243 H 0.67079 0.50151 -0.27352
 H244 H 0.63438 0.50333 -0.31999
 H245 H 0.66158 0.55970 -0.26490
 H246 H 0.61639 0.54639 -0.22921
 H247 H 0.58919 0.49001 -0.28430
 H248 H 0.57998 0.54821 -0.27569
 C249 C 0.37261 0.99909 0.78578
 C250 C 0.39641 1.02033 0.79087
 C251 C 0.37475 1.04386 0.79328
 C252 C 0.35095 1.02295 0.78853
 C253 C 0.37456 1.00509 0.75446
 C254 C 0.35290 1.02862 0.75688
 C255 C 0.39836 1.02600 0.75922
 C256 C 0.37670 1.04986 0.76197
 C257 C 0.37483 1.06546 0.81489
 C258 C 0.37488 1.08323 0.83267
 C259 C 0.37443 0.98351 0.73283
 C260 C 0.37429 0.96577 0.71503
 H261 H 0.37093 0.97797 0.79532
 H262 H 0.41431 1.01717 0.80508
 H263 H 0.33145 1.02194 0.80082
 H264 H 0.33500 1.03178 0.74267
 H265 H 0.41786 1.02701 0.74693
 H266 H 0.37838 1.07098 0.75243
 C267 C 0.88222 0.50021 0.21469
 C268 C 0.90088 0.47375 0.21463
 C269 C 0.87551 0.45603 0.20650
 C270 C 0.85685 0.48216 0.20622
 C271 C 0.87534 0.49472 0.24539
 C272 C 0.84996 0.47699 0.23726
 C273 C 0.89400 0.46859 0.24566
 C274 C 0.86862 0.45053 0.23720
 C275 C 0.87559 0.43446 0.18486
 C276 C 0.87566 0.41669 0.16708
 C277 C 0.87523 0.51623 0.26709
 C278 C 0.87512 0.53390 0.28497
 H279 H 0.88782 0.52088 0.20568
 H280 H 0.92182 0.47217 0.20508
 H281 H 0.84157 0.48749 0.18977
 H282 H 0.82902 0.47857 0.24681
 H283 H 0.90928 0.46325 0.26212
 H284 H 0.86303 0.42987 0.24621
 C285 C 0.25181 0.13795 -0.03501
 C286 C 0.28084 0.15168 -0.03218
 C287 C 0.29400 0.12513 -0.04454
 C288 C 0.26530 0.11139 -0.04770
 C289 C 0.25533 0.12515 -0.00592
 C290 C 0.26848 0.09859 -0.01827
 C291 C 0.28402 0.13888 -0.00276
 C292 C 0.29752 0.11233 -0.01544
 C293 C 0.31554 0.12511 -0.06604
 C294 C 0.33325 0.12512 -0.08374
 C295 C 0.23379 0.12516 0.01560
 C296 C 0.21609 0.12517 0.03331
 H297 H 0.23278 0.14848 -0.04282
 H298 H 0.28617 0.17351 -0.03815
 H299 H 0.25785 0.10009 -0.06642
 H300 H 0.26316 0.07677 -0.01231
 H301 H 0.29148 0.15019 0.01596
 H302 H 0.31655 0.10180 -0.00764
 C303 C 0.74982 0.63043 0.53697
 C304 C 0.72411 0.64997 0.53752
 C305 C 0.70579 0.62461 0.54470
 C306 C 0.73117 0.60507 0.54448
 C307 C 0.74441 0.62471 0.50602
 C308 C 0.72609 0.59935 0.51321
 C309 C 0.71903 0.64425 0.50624
 C310 C 0.70037 0.61888 0.51376
 C311 C 0.68428 0.62454 0.56624
 C312 C 0.66659 0.62450 0.58396
 C313 C 0.76592 0.62476 0.48449
 C314 C 0.78362 0.62480 0.46678
 H315 H 0.77040 0.63518 0.54627
 H316 H 0.72305 0.67078 0.54776
 H317 H 0.73592 0.58896 0.56045
 H318 H 0.72714 0.57854 0.50297
 H319 H 0.71427 0.66036 0.49028
 H320 H 0.67980 0.61414 0.50446
 C321 C 0.78241 0.39334 0.00499
 C322 C 0.77762 0.40065 0.03598
 C323 C 0.79486 0.37485 0.04426
 C324 C 0.79998 0.36754 0.01360
 C325 C 0.75622 0.37493 0.00561
 C326 C 0.77346 0.34914 0.01389
 C327 C 0.75110 0.38224 0.03627
 C328 C 0.76867 0.35645 0.04489
 C329 C 0.81637 0.37480 0.06579
 C330 C 0.83408 0.37478 0.08349
 C331 C 0.73470 0.37497 -0.01592
 C332 C 0.71699 0.37501 -0.03361
 H333 H 0.78781 0.40850 -0.01166
 H334 H 0.77957 0.42183 0.04531
 H335 H 0.82032 0.36149 0.00452
 H336 H 0.77150 0.32796 0.00457
 H337 H 0.73076 0.38829 0.04535
 H338 H 0.76326 0.34128 0.06153
 C339 C 0.24912 0.87947 0.46308
 C340 C 0.22995 0.85436 0.45611
 C341 C 0.20496 0.87440 0.45556
 C342 C 0.22380 0.89951 0.46220
 C343 C 0.24367 0.87442 0.49414
 C344 C 0.21868 0.89446 0.49359
 C345 C 0.22483 0.84931 0.48750
 C346 C 0.19951 0.86935 0.48662
 C347 C 0.18341 0.87438 0.43407
 C348 C 0.16568 0.87439 0.41639
 C349 C 0.26522 0.87443 0.51564
 C350 C 0.28295 0.87446 0.53332
 H351 H 0.26976 0.88362 0.45364
 H352 H 0.23434 0.83787 0.44045
 H353 H 0.22314 0.92014 0.45156
 H354 H 0.21429 0.91095 0.50925
 H355 H 0.22549 0.82867 0.49814
 H356 H 0.17886 0.86519 0.49605
   
