data_POSCAR
  _audit_creation_date              2014-09-24
  _audit_creation_method            'ToBaCCo'
  _symmetry_space_group_name_H-M    'P1'
  _symmetry_Int_Tables_number       1
  _symmetry_cell_setting            triclinic
  loop_
  _symmetry_equiv_pos_as_xyz
 x,y,z
_cell_length_a 36.2722
_cell_length_b 33.3996
_cell_length_c 33.1080
_cell_angle_alpha 89.934400
_cell_angle_beta 89.823300
_cell_angle_gamma 89.856500
loop_
  _atom_site_label
  _atom_site_type_symbol
  _atom_site_fract_x
  _atom_site_fract_y
  _atom_site_fract_z
C1 C 0.24843 0.25182 0.25095
 C2 C 0.75294 0.74735 0.24853
 C3 C 0.74673 0.24725 0.75263
 C4 C 0.25165 0.75195 0.74744
 C5 C 0.05542 0.05785 0.01512
 H6 H 0.05890 0.05759 -0.01735
 C7 C 0.07752 0.08254 0.03883
 H8 H 0.09851 0.10036 0.02413
 C9 C 0.02449 0.03357 0.07322
 H10 H 0.00344 0.01482 0.08646
 C11 C 0.04536 0.05853 0.09802
 H12 H 0.03972 0.05872 0.13012
 N13 N 0.03024 0.03321 0.03263
 C14 C 0.01707 -0.06072 -0.05834
 H15 H -0.01266 -0.06202 -0.06053
 C16 C 0.03888 -0.08546 -0.08272
 H17 H 0.02570 -0.10532 -0.10406
 C18 C 0.07024 -0.03295 -0.02807
 H19 H 0.08249 -0.01326 -0.00611
 C20 C 0.09305 -0.05710 -0.05180
 H21 H 0.12263 -0.05540 -0.04789
 Zn22 Zn 0.00191 -0.00037 -0.00129
 N23 N 0.03298 -0.03436 -0.03244
 C24 C -0.02704 0.02970 -0.07576
 N25 N -0.02682 0.03343 -0.03485
 C26 C -0.04742 0.06192 -0.01601
 C27 C -0.07044 0.08712 -0.03827
 C28 C -0.04992 0.05406 -0.09919
 C29 C -0.01328 -0.06083 0.05506
 C30 C -0.03504 -0.08616 0.07876
 C31 C -0.08933 -0.05502 0.05046
 C32 C -0.06655 -0.03042 0.02723
 N33 N -0.02927 -0.03344 0.03020
 H34 H -0.00991 0.00754 -0.09036
 H35 H -0.04627 0.06470 0.01651
 H36 H -0.08652 0.10960 -0.02256
 H37 H -0.05062 0.04960 -0.13155
 H38 H 0.01646 -0.06296 0.05642
 H39 H -0.02177 -0.10803 0.09804
 H40 H -0.11893 -0.05151 0.04820
 H41 H -0.07879 -0.00897 0.00684
 C42 C 0.07747 -0.08338 -0.08002
 C43 C 0.07282 0.08310 0.08104
 C44 C -0.07365 -0.08339 0.07671
 C45 C -0.07236 0.08301 -0.08045
 C46 C 0.03350 0.57222 0.52958
 H47 H 0.01803 0.58513 0.50500
 C48 C 0.05686 0.59671 0.55209
 H49 H 0.05873 0.62820 0.54458
 C50 C 0.05203 0.51538 0.56715
 H51 H 0.05092 0.48362 0.57247
 C52 C 0.07556 0.53879 0.59056
 H53 H 0.09134 0.52463 0.61434
 N54 N 0.03098 0.53235 0.53777
 C55 C 0.02436 0.42596 0.47197
 H56 H 0.00258 0.41217 0.48934
 C57 C 0.04721 0.40209 0.44793
 H58 H 0.04299 0.37001 0.44720
 C59 C 0.05589 0.48443 0.45070
 H60 H 0.05909 0.51660 0.45215
 C61 C 0.07895 0.46177 0.42575
 H62 H 0.10013 0.47659 0.40815
 Zn63 Zn -0.00069 0.49953 0.50596
 N64 N 0.02927 0.46632 0.47317
 C65 C -0.03128 0.52614 0.43173
 N66 N -0.03040 0.53255 0.47229
 C67 C -0.05112 0.56192 0.48963
 C68 C -0.07367 0.58635 0.46599
 C69 C -0.05357 0.54980 0.40696
 C70 C -0.01716 0.43897 0.56400
 C71 C -0.03978 0.41462 0.58775
 C72 C -0.09285 0.44866 0.56034
 C73 C -0.06923 0.47233 0.53712
 N74 N -0.03202 0.46744 0.53943
 H75 H -0.01511 0.50226 0.41855
 H76 H -0.05009 0.56630 0.52198
 H77 H -0.08951 0.60987 0.48041
 H78 H -0.05440 0.54368 0.37487
 H79 H 0.01221 0.43390 0.56415
 H80 H -0.02736 0.39164 0.60640
 H81 H -0.12232 0.45344 0.55827
 H82 H -0.08092 0.49427 0.51693
 C83 C 0.07484 0.42004 0.42440
 C84 C 0.07817 0.58011 0.58326
 C85 C -0.07820 0.41928 0.58606
 C86 C -0.07522 0.58039 0.42404
 C87 C 0.56914 0.03444 0.52166
 H88 H 0.58109 0.01956 0.49589
 C89 C 0.59167 0.05776 0.54626
 H90 H 0.62069 0.06045 0.53901
 C91 C 0.51745 0.04818 0.56332
 H92 H 0.48856 0.04386 0.57012
 C93 C 0.53908 0.07155 0.58894
 H94 H 0.52645 0.08579 0.61490
 N95 N 0.53256 0.03060 0.53007
 C96 C 0.52964 -0.07445 0.46699
 H97 H 0.51208 -0.08775 0.48968
 C98 C 0.55180 -0.09912 0.44300
 H99 H 0.55100 -0.13123 0.44747
 C100 C 0.55173 -0.01681 0.43300
 H101 H 0.55157 0.01538 0.42932
 C102 C 0.57406 -0.04038 0.40811
 H103 H 0.59138 -0.02607 0.38567
 Zn104 Zn 0.50145 -0.00037 0.49619
 N105 N 0.53039 -0.03400 0.46210
 C106 C 0.46776 0.02672 0.42383
 N107 N 0.47175 0.03408 0.46401
 C108 C 0.45357 0.06493 0.48210
 C109 C 0.43048 0.08991 0.45964
 C110 C 0.44513 0.05114 0.40018
 C111 C 0.48553 -0.05460 0.55923
 C112 C 0.46318 -0.07856 0.58373
 C113 C 0.41000 -0.05448 0.54718
 C114 C 0.43337 -0.03129 0.52320
 N115 N 0.47040 -0.03191 0.52942
 H116 H 0.48144 0.00139 0.41012
 H117 H 0.45662 0.06999 0.51409
 H118 H 0.41637 0.11439 0.47457
 H119 H 0.44187 0.04445 0.36840
 H120 H 0.51508 -0.05442 0.56361
 H121 H 0.47590 -0.09717 0.60659
 H122 H 0.38058 -0.05307 0.54196
 H123 H 0.42185 -0.01296 0.49945
 C124 C 0.57456 -0.08208 0.41328
 C125 C 0.57665 0.07689 0.58026
 C126 C 0.42481 -0.07885 0.57777
 C127 C 0.42601 0.08311 0.41812
 C128 C 0.53416 0.57381 0.02480
 H129 H 0.52173 0.58675 -0.00180
 C130 C 0.55725 0.59725 0.04871
 H131 H 0.56215 0.62813 0.04032
 C132 C 0.54466 0.51745 0.06675
 H133 H 0.54002 0.48628 0.07352
 C134 C 0.56809 0.53975 0.09136
 H135 H 0.58081 0.52553 0.11723
 N136 N 0.52812 0.53469 0.03424
 C137 C 0.51259 0.44002 -0.05429
 H138 H 0.48293 0.43673 -0.05437
 C139 C 0.53449 0.41497 -0.07822
 H140 H 0.52132 0.39282 -0.09711
 C141 C 0.56552 0.47382 -0.03029
 H142 H 0.57752 0.49687 -0.01166
 C143 C 0.58845 0.44922 -0.05340
 H144 H 0.61799 0.45331 -0.05165
 Zn145 Zn 0.49790 0.50306 0.00003
 N146 N 0.52834 0.46904 -0.03136
 C147 C 0.47043 0.53205 -0.07495
 N148 N 0.46985 0.53727 -0.03419
 C149 C 0.44937 0.56694 -0.01699
 C150 C 0.42782 0.59222 -0.04089
 C151 C 0.44894 0.55636 -0.09993
 C152 C 0.48055 0.43790 0.05037
 C153 C 0.45825 0.41287 0.07376
 C154 C 0.40598 0.45455 0.05707
 C155 C 0.42927 0.47876 0.03401
 N156 N 0.46595 0.47047 0.03151
 H157 H 0.48733 0.50890 -0.08825
 H158 H 0.44963 0.57077 0.01545
 H159 H 0.41121 0.61522 -0.02662
 H160 H 0.44951 0.55162 -0.13228
 H161 H 0.50950 0.43097 0.04678
 H162 H 0.47037 0.38692 0.08822
 H163 H 0.37702 0.46220 0.05929
 H164 H 0.41784 0.50415 0.01825
 C165 C 0.57302 0.41952 -0.07815
 C166 C 0.57466 0.58020 0.08242
 C167 C 0.42042 0.42116 0.07746
 C168 C 0.42714 0.58676 -0.08289
 C169 C 0.17304 -0.17901 -0.18250
 C170 C 0.18964 -0.16230 -0.21688
 C171 C 0.21478 -0.18436 -0.23990
 C172 C 0.22557 -0.22362 -0.22839
 C173 C 0.20602 -0.24111 -0.19564
 C174 C 0.18087 -0.21896 -0.17267
 C175 C 0.14798 -0.15458 -0.15683
 C176 C 0.11566 -0.17107 -0.14024
 C177 C 0.09261 -0.14799 -0.11550
 C178 C 0.10148 -0.10799 -0.10669
 C179 C 0.13367 -0.09151 -0.12350
 C180 C 0.15663 -0.11450 -0.14825
 H181 H 0.22541 -0.17036 -0.26699
 H182 H 0.21089 -0.27199 -0.18717
 H183 H 0.06814 -0.16163 -0.10277
 H184 H 0.14102 -0.06063 -0.11775
 H185 H 0.16808 -0.23299 -0.14669
 H186 H 0.10807 -0.20174 -0.14661
 H187 H 0.18280 -0.13215 -0.22636
 H188 H 0.18151 -0.10105 -0.16020
 C189 C 0.17222 0.32444 0.32411
 C190 C 0.19474 0.34287 0.29497
 C191 C 0.21891 0.32028 0.27121
 C192 C 0.22253 0.27852 0.27690
 C193 C 0.19873 0.26013 0.30517
 C194 C 0.17419 0.28267 0.32850
 C195 C 0.14671 0.34867 0.34966
 C196 C 0.14003 0.33802 0.39017
 C197 C 0.11637 0.36094 0.41427
 C198 C 0.09931 0.39535 0.39862
 C199 C 0.10592 0.40615 0.35828
 C200 C 0.12911 0.38291 0.33396
 H201 H 0.23414 0.33604 0.24811
 H202 H 0.19937 0.22796 0.30930
 H203 H 0.11199 0.35227 0.44545
 H204 H 0.09268 0.43230 0.34541
 H205 H 0.15642 0.26719 0.34966
 H206 H 0.15358 0.31235 0.40356
 H207 H 0.19394 0.37497 0.29055
 H208 H 0.13290 0.39159 0.30273
 C209 C 0.67377 -0.17959 0.31704
 C210 C 0.67820 -0.22061 0.32493
 C211 C 0.70354 -0.24339 0.30293
 C212 C 0.72601 -0.22580 0.27290
 C213 C 0.71968 -0.18509 0.26349
 C214 C 0.69449 -0.16224 0.28572
 C215 C 0.64766 -0.15505 0.34143
 C216 C 0.62670 -0.12441 0.32341
 C217 C 0.60286 -0.10082 0.34666
 C218 C 0.59923 -0.10756 0.38837
 C219 C 0.61983 -0.13842 0.40634
 C220 C 0.64387 -0.16179 0.38318
 H221 H 0.70592 -0.27503 0.30963
 H222 H 0.73363 -0.17056 0.23863
 H223 H 0.58695 -0.07755 0.33195
 H224 H 0.61797 -0.14389 0.43853
 H225 H 0.69150 -0.13078 0.27849
 H226 H 0.62842 -0.11887 0.29124
 H227 H 0.66175 -0.23531 0.34788
 H228 H 0.66006 -0.18463 0.39818
 C229 C 0.66829 0.32003 -0.17767
 C230 C 0.68587 0.33605 -0.21188
 C231 C 0.71083 0.31313 -0.23425
 C232 C 0.71978 0.27361 -0.22258
 C233 C 0.69966 0.25674 -0.19023
 C234 C 0.67498 0.27981 -0.16755
 C235 C 0.64340 0.34540 -0.15259
 C236 C 0.61150 0.32939 -0.13458
 C237 C 0.58865 0.35333 -0.11046
 C238 C 0.59704 0.39391 -0.10398
 C239 C 0.62874 0.40994 -0.12233
 C240 C 0.65171 0.38597 -0.14610
 H241 H 0.72264 0.32655 -0.26104
 H242 H 0.70375 0.22570 -0.18188
 H243 H 0.56468 0.33987 -0.09648
 H244 H 0.63577 0.44119 -0.11859
 H245 H 0.66167 0.26626 -0.14164
 H246 H 0.60398 0.29841 -0.13932
 H247 H 0.68001 0.36631 -0.22175
 H248 H 0.67629 0.39920 -0.15898
 C249 C -0.17428 0.17847 -0.17499
 C250 C -0.19374 0.21041 -0.15749
 C251 C -0.21900 0.23259 -0.18016
 C252 C -0.22675 0.22238 -0.22067
 C253 C -0.20561 0.19145 -0.23842
 C254 C -0.18009 0.16956 -0.21584
 C255 C -0.14787 0.15465 -0.15069
 C256 C -0.11307 0.14441 -0.16632
 C257 C -0.08840 0.12158 -0.14344
 C258 C -0.09813 0.10818 -0.10455
 C259 C -0.13303 0.11852 -0.08901
 C260 C -0.15752 0.14165 -0.11174
 H261 H -0.23175 0.25820 -0.16585
 H262 H -0.20909 0.18403 -0.27000
 H263 H -0.06155 0.11479 -0.15609
 H264 H -0.14179 0.10808 -0.05955
 H265 H -0.16518 0.14532 -0.23025
 H266 H -0.10476 0.15450 -0.19608
 H267 H -0.18877 0.21881 -0.12639
 H268 H -0.18437 0.14868 -0.09919
 C269 C -0.17111 0.67771 0.32405
 C270 C -0.19123 0.70952 0.34089
 C271 C -0.21535 0.73213 0.31719
 C272 C -0.22109 0.72269 0.27609
 C273 C -0.19908 0.69211 0.25901
 C274 C -0.17484 0.66964 0.28269
 C275 C -0.14634 0.65306 0.34962
 C276 C -0.11134 0.64138 0.33558
 C277 C -0.08821 0.61795 0.35973
 C278 C -0.09963 0.60555 0.39839
 C279 C -0.13469 0.61723 0.41234
 C280 C -0.15773 0.64078 0.38828
 H281 H -0.22889 0.75736 0.33132
 H282 H -0.20118 0.68516 0.22716
 H283 H -0.06116 0.61001 0.34833
 H284 H -0.14463 0.60759 0.44164
 H285 H -0.15945 0.64550 0.26874
 H286 H -0.10164 0.65085 0.30613
 H287 H -0.18783 0.71739 0.37238
 H288 H -0.18478 0.64880 0.39964
 C289 C 0.32683 0.18143 0.32309
 C290 C 0.32380 0.17591 0.28121
 C291 C 0.29891 0.19869 0.25867
 C292 C 0.27522 0.22679 0.27737
 C293 C 0.28002 0.23364 0.31916
 C294 C 0.30507 0.21101 0.34162
 C295 C 0.35253 0.15652 0.34747
 C296 C 0.34231 0.14338 0.38627
 C297 C 0.36625 0.11982 0.40924
 C298 C 0.40090 0.10863 0.39387
 C299 C 0.41117 0.12166 0.35508
 C300 C 0.38731 0.14545 0.33217
 H301 H 0.29750 0.19381 0.22637
 H302 H 0.26520 0.25698 0.33490
 H303 H 0.35735 0.10967 0.43877
 H304 H 0.43791 0.11389 0.34268
 H305 H 0.30785 0.21720 0.37357
 H306 H 0.31548 0.15071 0.39867
 H307 H 0.34027 0.15351 0.26585
 H308 H 0.39630 0.15559 0.30268
 C309 C 0.33047 0.68458 -0.18139
 C310 C 0.32418 0.67538 -0.22211
 C311 C 0.29879 0.69732 -0.24477
 C312 C 0.27772 0.72873 -0.22732
 C313 C 0.28681 0.73977 -0.18719
 C314 C 0.31194 0.71748 -0.16444
 C315 C 0.35609 0.65979 -0.15672
 C316 C 0.37845 0.67733 -0.12695
 C317 C 0.40159 0.65367 -0.10304
 C318 C 0.40322 0.61205 -0.10868
 C319 C 0.38133 0.59452 -0.13871
 C320 C 0.35789 0.61807 -0.16230
 H321 H 0.29519 0.68927 -0.27617
 H322 H 0.27473 0.76580 -0.17292
 H323 H 0.41854 0.66796 -0.08039
 H324 H 0.38169 0.56242 -0.14329
 H325 H 0.31651 0.72592 -0.13331
 H326 H 0.37833 0.70940 -0.12231
 H327 H 0.33916 0.65132 -0.23673
 H328 H 0.34059 0.60342 -0.18435
 C329 C -0.16887 -0.18366 0.17489
 C330 C -0.17425 -0.17502 0.21598
 C331 C -0.19894 -0.19747 0.23917
 C332 C -0.22018 -0.22826 0.22171
 C333 C -0.21266 -0.23844 0.18109
 C334 C -0.18782 -0.21615 0.15798
 C335 C -0.14389 -0.15876 0.14960
 C336 C -0.15344 -0.14927 0.10959
 C337 C -0.13050 -0.12522 0.08590
 C338 C -0.09751 -0.10985 0.10168
 C339 C -0.08779 -0.11956 0.14159
 C340 C -0.11070 -0.14377 0.16526
 H341 H -0.20217 -0.19017 0.27084
 H342 H -0.22537 -0.26403 0.16692
 H343 H -0.13857 -0.11882 0.05511
 H344 H -0.06276 -0.10790 0.15481
 H345 H -0.18306 -0.22474 0.12687
 H346 H -0.17900 -0.15992 0.09671
 H347 H -0.15989 -0.15040 0.23014
 H348 H -0.10230 -0.15089 0.19579
 C349 C -0.17545 0.31852 0.68095
 C350 C -0.19309 0.28542 0.66357
 C351 C -0.21783 0.26236 0.68607
 C352 C -0.22666 0.27253 0.72637
 C353 C -0.20693 0.30428 0.74424
 C354 C -0.18221 0.32731 0.72174
 C355 C -0.15016 0.34382 0.65656
 C356 C -0.11721 0.35846 0.67314
 C357 C -0.09381 0.38282 0.65026
 C358 C -0.10288 0.39316 0.61034
 C359 C -0.13574 0.37835 0.59372
 C360 C -0.15909 0.35396 0.61656
 H361 H -0.22948 0.23624 0.67177
 H362 H -0.21121 0.31172 0.77573
 H363 H -0.06883 0.39401 0.66402
 H364 H -0.14327 0.38534 0.56288
 H365 H -0.16882 0.35242 0.73617
 H366 H -0.10937 0.35082 0.70373
 H367 H -0.18729 0.27692 0.63264
 H368 H -0.18445 0.34348 0.60307
 C369 C 0.32784 -0.17775 0.67564
 C370 C 0.31155 -0.21222 0.65945
 C371 C 0.28681 -0.23497 0.68221
 C372 C 0.27642 -0.22347 0.72191
 C373 C 0.29537 -0.19037 0.73877
 C374 C 0.31985 -0.16745 0.71580
 C375 C 0.35310 -0.15279 0.65065
 C376 C 0.38426 -0.13452 0.66775
 C377 C 0.40754 -0.11060 0.64420
 C378 C 0.40034 -0.10454 0.60292
 C379 C 0.36937 -0.12314 0.58579
 C380 C 0.34598 -0.14677 0.60937
 H381 H 0.27642 -0.26206 0.66853
 H382 H 0.29071 -0.18175 0.76989
 H383 H 0.43090 -0.09643 0.65850
 H384 H 0.36327 -0.11970 0.55399
 H385 H 0.33217 -0.14131 0.72949
 H386 H 0.39088 -0.13893 0.69930
 H387 H 0.31846 -0.22214 0.62923
 H388 H 0.32201 -0.15993 0.59528
 C389 C 0.32432 0.32199 0.17546
 C390 C 0.30164 0.29299 0.15772
 C391 C 0.27738 0.27035 0.18126
 C392 C 0.27430 0.27675 0.22334
 C393 C 0.29871 0.30451 0.24106
 C394 C 0.32293 0.32714 0.21749
 C395 C 0.34927 0.34680 0.15013
 C396 C 0.38507 0.35605 0.16325
 C397 C 0.40824 0.37993 0.13957
 C398 C 0.39610 0.39515 0.10229
 C399 C 0.36039 0.38566 0.08908
 C400 C 0.33726 0.36178 0.11272
 H401 H 0.26177 0.24740 0.16606
 H402 H 0.29846 0.30919 0.27343
 H403 H 0.43548 0.38700 0.15075
 H404 H 0.35038 0.39650 0.06029
 H405 H 0.34016 0.34915 0.23217
 H406 H 0.39528 0.34461 0.19172
 H407 H 0.30309 0.28728 0.12556
 H408 H 0.30971 0.35551 0.10196
 C409 C 0.17002 0.17982 0.18075
 C410 C 0.17128 0.22172 0.17723
 C411 C 0.19655 0.24403 0.19954
 C412 C 0.22161 0.22536 0.22620
 C413 C 0.21858 0.18350 0.23138
 C414 C 0.19391 0.16111 0.20833
 C415 C 0.14408 0.15573 0.15574
 C416 C 0.12901 0.11980 0.17055
 C417 C 0.10604 0.09638 0.14644
 C418 C 0.09668 0.10862 0.10709
 C419 C 0.11096 0.14510 0.09268
 C420 C 0.13462 0.16806 0.11645
 H421 H 0.19675 0.27625 0.19586
 H422 H 0.23476 0.16745 0.25341
 H423 H 0.09618 0.06828 0.15860
 H424 H 0.10391 0.15613 0.06294
 H425 H 0.19391 0.12893 0.21210
 H426 H 0.13487 0.10958 0.20089
 H427 H 0.15250 0.23754 0.15749
 H428 H 0.14597 0.19518 0.10359
 C429 C 0.17610 0.67897 0.67853
 C430 C 0.19424 0.66283 0.71215
 C431 C 0.21850 0.68612 0.73477
 C432 C 0.22693 0.72608 0.72344
 C433 C 0.20640 0.74254 0.69095
 C434 C 0.18192 0.71925 0.66860
 C435 C 0.15096 0.65381 0.65415
 C436 C 0.11667 0.66867 0.64135
 C437 C 0.09303 0.64478 0.61847
 C438 C 0.10328 0.60557 0.60763
 C439 C 0.13773 0.59087 0.62031
 C440 C 0.16122 0.61466 0.64342
 H441 H 0.23018 0.67254 0.76151
 H442 H 0.20973 0.77363 0.68243
 H443 H 0.06647 0.65683 0.60980
 H444 H 0.14684 0.56114 0.61186
 H445 H 0.16787 0.73269 0.64313
 H446 H 0.10787 0.69857 0.64964
 H447 H 0.18905 0.63227 0.72148
 H448 H 0.18773 0.60265 0.65238
 C449 C 0.67043 0.17468 0.68110
 C450 C 0.68808 0.15796 0.71481
 C451 C 0.71249 0.18075 0.73785
 C452 C 0.72072 0.22074 0.72719
 C453 C 0.70080 0.23793 0.69493
 C454 C 0.67664 0.21507 0.67176
 C455 C 0.64584 0.15005 0.65550
 C456 C 0.64811 0.15261 0.61321
 C457 C 0.62560 0.12893 0.58889
 C458 C 0.60014 0.10233 0.60630
 C459 C 0.59755 0.10004 0.64860
 C460 C 0.62031 0.12354 0.67297
 H461 H 0.72452 0.16686 0.76422
 H462 H 0.70441 0.26920 0.68724
 H463 H 0.62792 0.13162 0.55638
 H464 H 0.57835 0.07960 0.66283
 H465 H 0.66248 0.22914 0.64672
 H466 H 0.66775 0.17252 0.59893
 H467 H 0.68336 0.12702 0.72312
 H468 H 0.61777 0.12121 0.70548
 C469 C 0.67528 0.67474 0.17864
 C470 C 0.68086 0.71538 0.16975
 C471 C 0.70573 0.73806 0.19219
 C472 C 0.72683 0.72060 0.22340
 C473 C 0.71963 0.68021 0.23338
 C474 C 0.69464 0.65758 0.21099
 C475 C 0.64918 0.65039 0.15446
 C476 C 0.65778 0.61057 0.14435
 C477 C 0.63349 0.58775 0.12124
 C478 C 0.60010 0.60425 0.10758
 C479 C 0.59142 0.64401 0.11776
 C480 C 0.61565 0.66680 0.14101
 H481 H 0.70892 0.76946 0.18485
 H482 H 0.73248 0.66596 0.25906
 H483 H 0.64119 0.55740 0.11334
 H484 H 0.56565 0.65733 0.10814
 H485 H 0.68988 0.62673 0.21961
 H486 H 0.68364 0.59726 0.15367
 H487 H 0.66628 0.72964 0.14512
 H488 H 0.60790 0.69714 0.14887
   
