data_POSCAR
  _audit_creation_date              2014-09-24
  _audit_creation_method            'ToBaCCo'
  _symmetry_space_group_name_H-M    'P1'
  _symmetry_Int_Tables_number       1
  _symmetry_cell_setting            triclinic
  loop_
  _symmetry_equiv_pos_as_xyz
 x,y,z
_cell_length_a 58.4630
_cell_length_b 57.5323
_cell_length_c 53.2676
_cell_angle_alpha 90.010300
_cell_angle_beta 90.101500
_cell_angle_gamma 88.515900
loop_
  _atom_site_label
  _atom_site_type_symbol
  _atom_site_fract_x
  _atom_site_fract_y
  _atom_site_fract_z
C1 C -0.05937 0.25853 -0.01081
 C2 C -0.05976 0.25953 0.01491
 C3 C -0.03924 0.26910 0.02245
 N4 N -0.02664 0.27421 0.00199
 C5 C -0.03883 0.26773 -0.01827
 C6 C -0.03365 0.27611 0.04725
 C7 C -0.01185 0.28510 0.05321
 C8 C -0.00594 0.29607 0.07551
 C9 C 0.01739 0.29844 0.07530
 C10 C 0.02527 0.28864 0.05312
 N11 N 0.00742 0.28081 0.03969
 C12 C 0.04852 0.28451 0.04710
 C13 C 0.05584 0.27885 0.02256
 C14 C 0.07705 0.26916 0.01655
 C15 C 0.07761 0.26712 -0.00905
 C16 C 0.05679 0.27594 -0.01797
 N17 N 0.04341 0.28290 0.00148
 C18 C 0.05039 0.27803 -0.04360
 C19 C 0.02700 0.28079 -0.05050
 C20 C 0.01896 0.29034 -0.07288
 C21 C -0.00441 0.28853 -0.07277
 C22 C -0.01012 0.27818 -0.05023
 N23 N 0.00908 0.27370 -0.03663
 C24 C -0.03252 0.27211 -0.04334
 H25 H -0.07295 0.25225 -0.02264
 H26 H -0.07406 0.25460 0.02637
 H27 H 0.01012 0.26416 -0.02002
 H28 H -0.01684 0.30113 0.09102
 H29 H 0.02748 0.30576 0.09026
 H30 H 0.09054 0.26359 0.02930
 H31 H 0.09158 0.25934 -0.01966
 H32 H -0.01591 0.29439 -0.08754
 H33 H 0.00889 0.26997 0.02411
 H34 H 0.02878 0.29819 -0.08769
 C35 C 0.42072 0.76838 0.48465
 C36 C 0.42050 0.76877 0.51039
 C37 C 0.44154 0.77691 0.51794
 N38 N 0.45459 0.78149 0.49770
 C39 C 0.44189 0.77627 0.47732
 C40 C 0.44804 0.78108 0.54306
 C41 C 0.47087 0.78533 0.55013
 C42 C 0.47746 0.79464 0.57296
 C43 C 0.50099 0.79426 0.57324
 C44 C 0.50813 0.78473 0.55056
 N45 N 0.48967 0.77942 0.53654
 C46 C 0.53117 0.77981 0.54401
 C47 C 0.53818 0.77543 0.51905
 C48 C 0.55956 0.76677 0.51201
 C49 C 0.55977 0.76630 0.48627
 C50 C 0.53850 0.77472 0.47842
 N51 N 0.52533 0.78030 0.49849
 C52 C 0.53189 0.77823 0.45316
 C53 C 0.50898 0.78304 0.44595
 C54 C 0.50221 0.79191 0.42281
 C55 C 0.47869 0.79231 0.42254
 C56 C 0.47173 0.78368 0.44552
 N57 N 0.49029 0.77817 0.45973
 C58 C 0.44879 0.77967 0.45223
 H59 H 0.40692 0.76271 0.47275
 H60 H 0.40650 0.76345 0.52214
 H61 H 0.49024 0.76902 0.47657
 H62 H 0.46649 0.80097 0.58795
 H63 H 0.51160 0.80023 0.58848
 H64 H 0.57354 0.76118 0.52411
 H65 H 0.57392 0.76028 0.47472
 H66 H 0.46795 0.79819 0.40711
 H67 H 0.48990 0.76978 0.52002
 H68 H 0.51307 0.79744 0.40763
 C69 C 1.06014 0.70446 -0.01323
 C70 C 1.05975 0.70368 0.01242
 C71 C 1.03958 0.71478 0.01984
 N72 N 1.02755 0.72235 -0.00045
 C73 C 1.04036 0.71642 -0.02076
 C74 C 1.03293 0.71831 0.04510
 C75 C 1.00961 0.72151 0.05188
 C76 C 1.00176 0.73017 0.07471
 C77 C 0.97833 0.72943 0.07413
 C78 C 0.97232 0.72094 0.05071
 N79 N 0.99152 0.71603 0.03731
 C80 C 0.94964 0.71680 0.04284
 C81 C 0.94355 0.71346 0.01746
 C82 C 0.92182 0.70829 0.00903
 C83 C 0.92235 0.70967 -0.01666
 C84 C 0.94438 0.71571 -0.02313
 N85 N 0.95726 0.71810 -0.00224
 C86 C 0.95146 0.72192 -0.04751
 C87 C 0.97425 0.72774 -0.05312
 C88 C 0.98096 0.74008 -0.07408
 C89 C 1.00439 0.74081 -0.07338
 C90 C 1.01158 0.72818 -0.05246
 N91 N 0.99302 0.72063 -0.03997
 C92 C 1.03469 0.72274 -0.04584
 H93 H 1.07330 0.69648 -0.02485
 H94 H 1.07257 0.69530 0.02427
 H95 H 0.99330 0.70906 -0.02492
 H96 H 1.01169 0.73666 0.09022
 H97 H 0.96717 0.73469 0.08936
 H98 H 0.90684 0.70477 0.02013
 H99 H 0.90782 0.70748 -0.02894
 H100 H 1.01472 0.74993 -0.08679
 H101 H 0.99240 0.70741 0.02014
 H102 H 0.97028 0.74799 -0.08846
 C103 C 0.57827 0.23317 0.48851
 C104 C 0.57804 0.23338 0.51425
 C105 C 0.55698 0.22516 0.52151
 N106 N 0.54434 0.21993 0.50108
 C107 C 0.55733 0.22484 0.48088
 C108 C 0.55013 0.22145 0.54658
 C109 C 0.52730 0.21692 0.55326
 C110 C 0.52054 0.20798 0.57618
 C111 C 0.49702 0.20787 0.57593
 C112 C 0.49006 0.21674 0.55286
 N113 N 0.50862 0.22212 0.53911
 C114 C 0.46706 0.22108 0.54568
 C115 C 0.46041 0.22471 0.52045
 C116 C 0.43905 0.23289 0.51268
 C117 C 0.43926 0.23266 0.48694
 C118 C 0.46075 0.22435 0.47982
 N119 N 0.47366 0.21949 0.50034
 C120 C 0.46781 0.22027 0.45482
 C121 C 0.49093 0.21590 0.44820
 C122 C 0.49825 0.20672 0.42543
 C123 C 0.52177 0.20689 0.42567
 C124 C 0.52817 0.21615 0.44859
 N125 N 0.50927 0.22153 0.46225
 C126 C 0.55091 0.22075 0.45572
 H127 H 0.59222 0.23870 0.47680
 H128 H 0.59178 0.23910 0.52620
 H129 H 0.50884 0.23102 0.47887
 H130 H 0.53139 0.20223 0.59157
 H131 H 0.48629 0.20200 0.59108
 H132 H 0.42482 0.23864 0.52428
 H133 H 0.42522 0.23818 0.47490
 H134 H 0.53286 0.20093 0.41062
 H135 H 0.50847 0.23137 0.52234
 H136 H 0.48776 0.20061 0.41015
 C137 C 0.67949 -0.06316 -0.01365
 C138 C 0.67901 -0.06374 0.01207
 C139 C 0.69347 -0.04660 0.02037
 N140 N 0.70241 -0.03530 0.00054
 C141 C 0.69424 -0.04570 -0.02028
 C142 C 0.69948 -0.04214 0.04568
 C143 C 0.70715 -0.01973 0.05243
 C144 C 0.71967 -0.01415 0.07370
 C145 C 0.72132 0.00963 0.07410
 C146 C 0.71046 0.01797 0.05266
 N147 N 0.70203 -0.00001 0.03949
 C148 C 0.70649 0.04164 0.04667
 C149 C 0.70095 0.04879 0.02206
 C150 C 0.69231 0.07051 0.01524
 C151 C 0.69214 0.07103 -0.01050
 C152 C 0.70149 0.04988 -0.01862
 N153 N 0.70643 0.03620 0.00140
 C154 C 0.70750 0.04375 -0.04363
 C155 C 0.71197 0.02000 -0.04965
 C156 C 0.72630 0.01180 -0.06861
 C157 C 0.72476 -0.01199 -0.06890
 C158 C 0.70951 -0.01779 -0.05011
 N159 N 0.70229 0.00177 -0.03803
 C160 C 0.70160 -0.04039 -0.04489
 H161 H 0.66968 -0.07407 -0.02596
 H162 H 0.66874 -0.07516 0.02327
 H163 H 0.68973 0.00276 -0.02413
 H164 H 0.72716 -0.02576 0.08758
 H165 H 0.72957 0.01943 0.08869
 H166 H 0.68673 0.08461 0.02735
 H167 H 0.68572 0.08547 -0.02167
 H168 H 0.73436 -0.02359 -0.08116
 H169 H 0.69119 0.00135 0.02395
 H170 H 0.73734 0.02173 -0.08058
 C171 C 0.22176 0.43131 0.51462
 C172 C 0.22262 0.43173 0.48891
 C173 C 0.21327 0.45303 0.48147
 N174 N 0.20667 0.46560 0.50176
 C175 C 0.21188 0.45236 0.52205
 C176 C 0.21012 0.46015 0.45630
 C177 C 0.20463 0.48339 0.44936
 C178 C 0.19747 0.49031 0.42566
 C179 C 0.19610 0.51418 0.42583
 C180 C 0.20210 0.52132 0.44982
 N181 N 0.20734 0.50237 0.46399
 C182 C 0.20470 0.54475 0.45742
 C183 C 0.20644 0.55152 0.48293
 C184 C 0.21091 0.57381 0.49128
 C185 C 0.21013 0.57324 0.51696
 C186 C 0.20470 0.55077 0.52361
 N187 N 0.20233 0.53757 0.50279
 C188 C 0.20105 0.54306 0.54846
 C189 C 0.19799 0.51948 0.55469
 C190 C 0.18910 0.51179 0.57724
 C191 C 0.19071 0.48792 0.57685
 C192 C 0.20059 0.48169 0.55409
 N193 N 0.20486 0.50103 0.54063
 C194 C 0.20698 0.45874 0.54711
 H195 H 0.22796 0.41720 0.52643
 H196 H 0.22961 0.41799 0.47711
 H197 H 0.21458 0.50169 0.52433
 H198 H 0.19397 0.47937 0.40965
 H199 H 0.19156 0.52479 0.40978
 H200 H 0.21417 0.58914 0.48029
 H201 H 0.21316 0.58784 0.52921
 H202 H 0.18539 0.47649 0.59175
 H203 H 0.21514 0.50245 0.48152
 H204 H 0.18231 0.52229 0.59249
 C205 C 0.27066 0.93333 0.01130
 C206 C 0.27130 0.93344 -0.01443
 C207 C 0.28239 0.95349 -0.02153
 N208 N 0.28876 0.96532 -0.00083
 C209 C 0.28162 0.95309 0.01918
 C210 C 0.28974 0.95906 -0.04612
 C211 C 0.30036 0.98051 -0.05117
 C212 C 0.31326 0.98571 -0.07225
 C213 C 0.31686 1.00921 -0.07172
 C214 C 0.30565 1.01797 -0.05072
 N215 N 0.29614 1.00033 -0.03801
 C216 C 0.30229 1.04185 -0.04485
 C217 C 0.29709 1.04885 -0.01992
 C218 C 0.28638 1.06969 -0.01304
 C219 C 0.28508 1.06970 0.01260
 C220 C 0.29497 1.04885 0.02070
 N221 N 0.30201 1.03594 0.00075
 C222 C 0.29764 1.04191 0.04609
 C223 C 0.29972 1.01799 0.05233
 C224 C 0.30902 1.00893 0.07436
 C225 C 0.30573 0.98536 0.07385
 C226 C 0.29476 0.98061 0.05142
 N227 N 0.29143 1.00053 0.03825
 C228 C 0.28684 0.95859 0.04430
 H229 H 0.26341 0.91991 0.02284
 H230 H 0.26512 0.91964 -0.02619
 H231 H 0.28173 1.00252 0.02191
 H232 H 0.31924 0.97423 -0.08699
 H233 H 0.32629 1.01875 -0.08561
 H234 H 0.27927 1.08315 -0.02512
 H235 H 0.27683 1.08315 0.02381
 H236 H 0.31089 0.97313 0.08835
 H237 H 0.28457 1.00237 -0.02326
 H238 H 0.31745 1.01820 0.08927
 C239 C 0.81952 0.43051 0.48990
 C240 C 0.81856 0.43118 0.51563
 C241 C 0.80642 0.45136 0.52193
 N242 N 0.80013 0.46312 0.50097
 C243 C 0.80795 0.45031 0.48137
 C244 C 0.79922 0.45766 0.54634
 C245 C 0.79192 0.48071 0.55203
 C246 C 0.77909 0.48745 0.57279
 C247 C 0.77712 0.51133 0.57213
 C248 C 0.78871 0.51854 0.55093
 N249 N 0.79754 0.49975 0.53869
 C250 C 0.79189 0.54195 0.54391
 C251 C 0.79709 0.54816 0.51889
 C252 C 0.80360 0.56996 0.51093
 C253 C 0.80391 0.56937 0.48519
 C254 C 0.79813 0.54706 0.47823
 N255 N 0.79393 0.53416 0.49886
 C256 C 0.79415 0.53954 0.45341
 C257 C 0.79174 0.51581 0.44725
 C258 C 0.78306 0.50747 0.42482
 C259 C 0.78527 0.48363 0.42567
 C260 C 0.79572 0.47802 0.44835
 N261 N 0.79948 0.49773 0.46142
 C262 C 0.80280 0.45538 0.45601
 H263 H 0.82776 0.41696 0.47881
 H264 H 0.82592 0.41824 0.52820
 H265 H 0.80911 0.49893 0.47782
 H266 H 0.77166 0.47642 0.58687
 H267 H 0.76791 0.52208 0.58559
 H268 H 0.80750 0.58490 0.52234
 H269 H 0.80769 0.58389 0.47314
 H270 H 0.77979 0.47193 0.41109
 H271 H 0.80877 0.50008 0.52352
 H272 H 0.77600 0.51734 0.40925
 O273 O 0.24416 0.27002 0.21886
 O274 O 0.29371 0.25618 0.25944
 O275 O 0.27686 0.23855 0.21841
 O276 O 0.26090 0.28748 0.25997
 O277 O 0.23953 0.26419 0.28244
 O278 O 0.25587 0.21518 0.24121
 O279 O 0.27245 0.23301 0.28218
 O280 O 0.22297 0.24658 0.24134
 Cu281 Cu 0.27104 0.26539 0.23688
 Cu282 Cu 0.24556 0.23739 0.26405
 C283 C 0.22517 0.26057 0.22312
 C284 C 0.29145 0.24241 0.27784
 C285 C 0.26902 0.21856 0.22270
 C286 C 0.24759 0.28412 0.27835
 O287 O 0.74015 0.78236 0.23748
 O288 O 0.75950 0.73368 0.27791
 O289 O 0.77416 0.75248 0.23646
 O290 O 0.72555 0.76382 0.27883
 O291 O 0.70428 0.74056 0.25611
 O292 O 0.75371 0.72748 0.21506
 O293 O 0.73762 0.70997 0.25650
 O294 O 0.72020 0.75810 0.21453
 Cu295 Cu 0.75196 0.76047 0.25990
 Cu296 Cu 0.72685 0.73161 0.23331
 C297 C 0.72717 0.77843 0.21890
 C298 C 0.75150 0.71363 0.27434
 C299 C 0.77222 0.73810 0.21855
 C300 C 0.70663 0.75416 0.27468
 O301 O 0.79614 0.23841 0.24333
 O302 O 0.74681 0.22790 0.28434
 O303 O 0.76276 0.20992 0.24271
 O304 O 0.78035 0.25658 0.28525
 O305 O 0.75999 0.28217 0.26309
 O306 O 0.74156 0.23522 0.22109
 O307 O 0.72607 0.25362 0.26277
 O308 O 0.77537 0.26400 0.22162
 Cu309 Cu 0.77361 0.23069 0.26614
 Cu310 Cu 0.74862 0.26129 0.23995
 C311 C 0.79408 0.25284 0.22537
 C312 C 0.72809 0.23907 0.28062
 C313 C 0.74928 0.21463 0.22460
 C314 C 0.77315 0.27730 0.28144
 O315 O 0.25709 0.76245 0.21697
 O316 O 0.24053 0.71586 0.26028
 O317 O 0.22380 0.73311 0.21913
 O318 O 0.27406 0.74480 0.25855
 O319 O 0.25356 0.77040 0.28047
 O320 O 0.20355 0.75929 0.24055
 O321 O 0.22047 0.74155 0.28258
 O322 O 0.23688 0.78799 0.23929
 Cu323 Cu 0.25097 0.73653 0.23649
 Cu324 Cu 0.22646 0.76731 0.26293
 C325 C 0.24972 0.78313 0.22073
 C326 C 0.22789 0.72089 0.27896
 C327 C 0.20522 0.74441 0.22299
 C328 C 0.27229 0.75943 0.27635
 O329 O 0.76027 0.21304 0.76146
 O330 O 0.77701 0.26052 0.71940
 O331 O 0.79369 0.24214 0.76080
 O332 O 0.74412 0.23123 0.72017
 O333 O 0.72320 0.25635 0.74226
 O334 O 0.77273 0.26700 0.78318
 O335 O 0.75656 0.28559 0.74205
 O336 O 0.73951 0.23810 0.78380
 Cu337 Cu 0.77092 0.23425 0.73824
 Cu338 Cu 0.74586 0.26427 0.76503
 C339 C 0.74712 0.21755 0.77988
 C340 C 0.76951 0.28109 0.72348
 C341 C 0.79158 0.25624 0.77905
 C342 C 0.72528 0.24203 0.72418
 O343 O 0.27624 0.74848 0.73876
 O344 O 0.22913 0.73718 0.78239
 O345 O 0.24457 0.71769 0.74117
 O346 O 0.26081 0.76795 0.77954
 O347 O 0.23660 0.79038 0.75800
 O348 O 0.22204 0.74063 0.71818
 O349 O 0.20565 0.75890 0.75915
 O350 O 0.25341 0.77190 0.71670
 Cu351 Cu 0.25499 0.74051 0.76272
 Cu352 Cu 0.22716 0.76778 0.73571
 C353 C 0.27288 0.76215 0.72035
 C354 C 0.20938 0.74606 0.77819
 C355 C 0.23073 0.72068 0.72297
 C356 C 0.25116 0.78763 0.77554
 O357 O 0.22307 0.24348 0.76084
 O358 O 0.27202 0.23176 0.71880
 O359 O 0.25704 0.21321 0.76008
 O360 O 0.23822 0.26193 0.71953
 O361 O 0.25915 0.28580 0.74188
 O362 O 0.27787 0.23714 0.78247
 O363 O 0.29297 0.25561 0.74115
 O364 O 0.24408 0.26726 0.78320
 Cu365 Cu 0.24547 0.23518 0.73759
 Cu366 Cu 0.27062 0.26386 0.76441
 C367 C 0.22530 0.25726 0.77926
 C368 C 0.29078 0.24181 0.72274
 C369 C 0.27056 0.21692 0.77825
 C370 C 0.24564 0.28212 0.72370
 O371 O 0.74075 0.71607 0.73828
 O372 O 0.72312 0.76395 0.78053
 O373 O 0.70648 0.74599 0.73931
 O374 O 0.75716 0.73409 0.77901
 O375 O 0.77676 0.75900 0.75659
 O376 O 0.72629 0.77053 0.71665
 O377 O 0.74249 0.78859 0.75752
 O378 O 0.76020 0.74070 0.71535
 Cu379 Cu 0.72984 0.73758 0.76154
 Cu380 Cu 0.75347 0.76713 0.73425
 C381 C 0.75333 0.72030 0.71951
 C382 C 0.72995 0.78437 0.77634
 C383 C 0.70784 0.76014 0.72109
 C384 C 0.77550 0.74474 0.77470
 C385 C 0.29612 0.09223 0.10171
 N386 N 0.29015 0.07012 0.10689
 N387 N 0.29100 0.05384 0.08910
 C388 C 0.29770 0.05897 0.06533
 N389 N 0.30391 0.08113 0.06040
 N390 N 0.30315 0.09740 0.07817
 C391 C 0.29408 0.11050 0.12087
 N392 N 0.30090 0.13239 0.11585
 N393 N 0.29810 0.14927 0.13277
 C394 C 0.28830 0.14491 0.15530
 N395 N 0.28159 0.12299 0.16040
 N396 N 0.28446 0.10608 0.14350
 C397 C 0.28419 0.16380 0.17341
 N398 N 0.27213 0.16007 0.19473
 N399 N 0.26754 0.17746 0.21061
 C400 C 0.27489 0.19920 0.20577
 N401 N 0.28710 0.20289 0.18456
 N402 N 0.29163 0.18551 0.16865
 C403 C 0.78229 0.59481 0.59778
 N404 N 0.79241 0.57415 0.60422
 N405 N 0.79550 0.55742 0.58715
 C406 C 0.78838 0.56061 0.56305
 N407 N 0.77796 0.58119 0.55680
 N408 N 0.77512 0.59801 0.57376
 C409 C 0.77916 0.61346 0.61635
 N410 N 0.77539 0.63575 0.60875
 N411 N 0.77240 0.65275 0.62550
 C412 C 0.77282 0.64804 0.65047
 N413 N 0.77651 0.62573 0.65809
 N414 N 0.77978 0.60876 0.64133
 C415 C 0.76875 0.66674 0.66881
 N416 N 0.76197 0.66181 0.69254
 N417 N 0.75729 0.67888 0.70881
 C418 C 0.75951 0.70146 0.70203
 N419 N 0.76656 0.70636 0.67840
 N420 N 0.77098 0.68931 0.66204
 C421 C 0.69871 0.90500 0.09859
 N422 N 0.69842 0.92759 0.10586
 N423 N 0.69818 0.94456 0.08886
 C424 C 0.69849 0.93978 0.06385
 N425 N 0.69846 0.91705 0.05675
 N426 N 0.69854 0.90004 0.07371
 C427 C 0.70040 0.88628 0.11729
 N428 N 0.69814 0.86375 0.11034
 N429 N 0.70085 0.84669 0.12709
 C430 C 0.70610 0.85153 0.15134
 N431 N 0.70825 0.87407 0.15831
 N432 N 0.70538 0.89113 0.14161
 C433 C 0.71044 0.83266 0.16944
 N434 N 0.72023 0.83711 0.19201
 N435 N 0.72529 0.81986 0.20792
 C436 C 0.72059 0.79755 0.20192
 N437 N 0.71058 0.79313 0.17946
 N438 N 0.70567 0.81036 0.16347
 C439 C 0.21314 0.40761 0.60306
 N440 N 0.22304 0.42852 0.60597
 N441 N 0.22090 0.44479 0.58829
 C442 C 0.20880 0.44076 0.56702
 N443 N 0.19875 0.41989 0.56419
 N444 N 0.20091 0.40361 0.58188
 C445 C 0.21626 0.38940 0.62216
 N446 N 0.20706 0.36818 0.61894
 N447 N 0.21063 0.35140 0.63585
 C448 C 0.22351 0.35526 0.65660
 N449 N 0.23258 0.37653 0.65989
 N450 N 0.22902 0.39329 0.64299
 C451 C 0.22834 0.33650 0.67468
 N452 N 0.24196 0.34019 0.69488
 N453 N 0.24718 0.32293 0.71072
 C454 C 0.23895 0.30136 0.70695
 N455 N 0.22519 0.29771 0.68685
 N456 N 0.21997 0.31497 0.67100
 C457 C 0.91751 0.27030 0.10258
 N458 N 0.92390 0.25164 0.08844
 N459 N 0.93961 0.25358 0.07054
 C460 C 0.94979 0.27418 0.06629
 N461 N 0.94345 0.29280 0.08061
 N462 N 0.92751 0.29095 0.09830
 C463 C 0.89988 0.26818 0.12196
 N464 N 0.88801 0.28723 0.13033
 N465 N 0.87157 0.28516 0.14744
 C466 C 0.86665 0.26401 0.15703
 N467 N 0.87867 0.24500 0.14882
 N468 N 0.89489 0.24703 0.13149
 C469 C 0.84825 0.26158 0.17548
 N470 N 0.84742 0.24235 0.19019
 N471 N 0.83039 0.23981 0.20646
 C472 C 0.81342 0.25627 0.20839
 N473 N 0.81422 0.27548 0.19365
 N474 N 0.83142 0.27816 0.17761
 C475 C 0.39713 0.78003 0.59851
 N476 N 0.41722 0.76802 0.60170
 N477 N 0.43344 0.76854 0.58420
 C478 C 0.43019 0.78108 0.56284
 N479 N 0.41016 0.79325 0.55975
 N480 N 0.39392 0.79271 0.57724
 C481 C 0.37897 0.77878 0.61744
 N482 N 0.35855 0.79014 0.61396
 N483 N 0.34185 0.78839 0.63080
 C484 C 0.34498 0.77522 0.65174
 N485 N 0.36543 0.76396 0.65527
 N486 N 0.38211 0.76571 0.63843
 C487 C 0.32639 0.77258 0.66996
 N488 N 0.32951 0.75883 0.69045
 N489 N 0.31251 0.75576 0.70662
 C490 C 0.29175 0.76633 0.70292
 N491 N 0.28864 0.78019 0.68249
 N492 N 0.30566 0.78325 0.66630
 C493 C 0.08309 0.72297 0.09949
 N494 N 0.06305 0.71267 0.10479
 N495 N 0.04685 0.71107 0.08728
 C496 C 0.05020 0.71934 0.06368
 N497 N 0.07054 0.72918 0.05838
 N498 N 0.08655 0.73119 0.07599
 C499 C 0.10051 0.72588 0.11894
 N500 N 0.11280 0.74556 0.11972
 N501 N 0.12862 0.74841 0.13739
 C502 C 0.13301 0.73151 0.15462
 N503 N 0.12086 0.71172 0.15373
 N504 N 0.10470 0.70906 0.13635
 C505 C 0.15096 0.73451 0.17346
 N506 N 0.16477 0.71630 0.18043
 N507 N 0.18197 0.71939 0.19645
 C508 C 0.18564 0.74068 0.20644
 N509 N 0.17161 0.75881 0.19976
 N510 N 0.15470 0.75581 0.18337
 C511 C 0.60022 0.22388 0.60299
 N512 N 0.58020 0.23618 0.60534
 N513 N 0.56422 0.23524 0.58753
 C514 C 0.56768 0.22201 0.56669
 N515 N 0.58765 0.20960 0.56443
 N516 N 0.60362 0.21053 0.58224
 C517 C 0.61817 0.22545 0.62218
 N518 N 0.63822 0.21328 0.61959
 N519 N 0.65482 0.21521 0.63657
 C520 C 0.65200 0.22939 0.65675
 N521 N 0.63190 0.24149 0.65942
 N522 N 0.61528 0.23955 0.64244
 C523 C 0.67067 0.23210 0.67491
 N524 N 0.66834 0.24692 0.69464
 N525 N 0.68563 0.24990 0.71057
 C526 C 0.70586 0.23816 0.70733
 N527 N 0.70813 0.22326 0.68768
 N528 N 0.69086 0.22028 0.67177
 C529 C 0.71628 0.09462 0.90225
 N530 N 0.71611 0.10015 0.92697
 N531 N 0.71334 0.08379 0.94429
 C532 C 0.71039 0.06121 0.93777
 N533 N 0.71052 0.05584 0.91287
 N534 N 0.71349 0.07214 0.89548
 C535 C 0.71965 0.11273 0.88328
 N536 N 0.72464 0.10705 0.85912
 N537 N 0.72825 0.12359 0.84216
 C538 C 0.72679 0.14640 0.84872
 N539 N 0.72162 0.15205 0.87282
 N540 N 0.71820 0.13552 0.88981
 C541 C 0.73128 0.16472 0.83032
 N542 N 0.72626 0.18731 0.83583
 N543 N 0.73096 0.20409 0.81955
 C544 C 0.74102 0.19890 0.79722
 N545 N 0.74602 0.17630 0.79167
 N546 N 0.74115 0.15950 0.80789
 C547 C 0.20825 0.59723 0.40289
 N548 N 0.22551 0.59369 0.41962
 N549 N 0.22449 0.57679 0.43661
 C550 C 0.20599 0.56305 0.43783
 N551 N 0.18865 0.56669 0.42115
 N552 N 0.18986 0.58334 0.40383
 C553 C 0.20946 0.61595 0.38436
 N554 N 0.20020 0.61358 0.36114
 N555 N 0.20196 0.63045 0.34414
 C556 C 0.21263 0.65043 0.34998
 N557 N 0.22163 0.65289 0.37329
 N558 N 0.22024 0.63587 0.39012
 C559 C 0.21516 0.66882 0.33125
 N560 N 0.21613 0.69139 0.33850
 N561 N 0.21951 0.70806 0.32167
 C562 C 0.22243 0.70271 0.29705
 N563 N 0.22150 0.68013 0.28979
 N564 N 0.21772 0.66349 0.30657
 C565 C 0.27971 0.91163 0.89707
 N566 N 0.30076 0.92027 0.90118
 N567 N 0.30399 0.93580 0.91933
 C568 C 0.28640 0.94304 0.93429
 N569 N 0.26538 0.93424 0.93014
 N570 N 0.26206 0.91896 0.91180
 C571 C 0.27610 0.89428 0.87738
 N572 N 0.25478 0.89074 0.86826
 N573 N 0.25136 0.87458 0.85084
 C574 C 0.26908 0.86118 0.84216
 N575 N 0.29040 0.86468 0.85131
 N576 N 0.29388 0.88106 0.86850
 C577 C 0.26503 0.84265 0.82390
 N578 N 0.28008 0.82440 0.82164
 N579 N 0.27579 0.80695 0.80601
 C580 C 0.25646 0.80730 0.79184
 N581 N 0.24157 0.82570 0.79385
 N582 N 0.24571 0.84299 0.80972
 C583 C 0.80208 0.40108 0.40315
 N584 N 0.80929 0.42244 0.39647
 N585 N 0.81002 0.43954 0.41331
 C586 C 0.80326 0.43604 0.43739
 N587 N 0.79614 0.41459 0.44400
 N588 N 0.79567 0.39742 0.42726
 C589 C 0.80024 0.38246 0.38447
 N590 N 0.79825 0.36004 0.39191
 N591 N 0.79550 0.34322 0.37506
 C592 C 0.79435 0.34825 0.35019
 N593 N 0.79637 0.37067 0.34274
 N594 N 0.79939 0.38746 0.35958
 C595 C 0.78998 0.32986 0.33184
 N596 N 0.78191 0.33524 0.30858
 N597 N 0.77675 0.31849 0.29240
 C598 C 0.77972 0.29577 0.29881
 N599 N 0.78805 0.29039 0.32195
 N600 N 0.79296 0.30714 0.33822
 C601 C 0.10051 0.27609 0.90148
 N602 N 0.07898 0.26930 0.89623
 N603 N 0.06281 0.27013 0.91384
 C604 C 0.06749 0.27764 0.93749
 N605 N 0.08909 0.28456 0.94252
 N606 N 0.10524 0.28383 0.92492
 C607 C 0.11858 0.27457 0.88238
 N608 N 0.13965 0.28289 0.88723
 N609 N 0.15628 0.28096 0.87024
 C610 C 0.15249 0.27055 0.84779
 N611 N 0.13139 0.26228 0.84289
 N612 N 0.11473 0.26429 0.85986
 C613 C 0.17111 0.26775 0.82947
 N614 N 0.16822 0.25511 0.80822
 N615 N 0.18541 0.25195 0.79206
 C616 C 0.20608 0.26140 0.79653
 N617 N 0.20890 0.27416 0.81769
 N618 N 0.19175 0.27725 0.83388
 C619 C 0.58245 0.77438 0.39734
 N620 N 0.56275 0.76263 0.39479
 N621 N 0.54666 0.76396 0.41245
 C622 C 0.54970 0.77706 0.43335
 N623 N 0.56937 0.78891 0.43583
 N624 N 0.58546 0.78757 0.41817
 C625 C 0.60041 0.77248 0.37816
 N626 N 0.62030 0.78387 0.38097
 N627 N 0.63683 0.78170 0.36387
 C628 C 0.63407 0.76806 0.34334
 N629 N 0.61414 0.75674 0.34047
 N630 N 0.59761 0.75892 0.35757
 C631 C 0.65259 0.76510 0.32494
 N632 N 0.65012 0.75101 0.30470
 N633 N 0.66723 0.74775 0.28847
 C634 C 0.68742 0.75846 0.29190
 N635 N 0.68984 0.77264 0.31205
 N636 N 0.67274 0.77590 0.32827
 C637 C 0.90118 0.72705 0.89632
 N638 N 0.91237 0.74619 0.90398
 N639 N 0.92835 0.74458 0.92179
 C640 C 0.93393 0.72373 0.93240
 N641 N 0.92274 0.70459 0.92472
 N642 N 0.90661 0.70623 0.90706
 C643 C 0.88325 0.72894 0.87703
 N644 N 0.86872 0.71126 0.87316
 N645 N 0.85208 0.71322 0.85609
 C646 C 0.84953 0.73285 0.84210
 N647 N 0.86419 0.75045 0.84583
 N648 N 0.88069 0.74856 0.86305
 C649 C 0.83080 0.73531 0.82381
 N650 N 0.83041 0.75302 0.80695
 N651 N 0.81301 0.75573 0.79093
 C652 C 0.79530 0.74093 0.79131
 N653 N 0.79572 0.72319 0.80813
 N654 N 0.81321 0.72037 0.82401
 C655 C 0.41751 0.22184 0.39848
 N656 N 0.43703 0.23386 0.39574
 N657 N 0.45309 0.23316 0.41351
 C658 C 0.45023 0.22044 0.43469
 N659 N 0.43077 0.20827 0.43732
 N660 N 0.41471 0.20897 0.41956
 C661 C 0.39940 0.22334 0.37936
 N662 N 0.37955 0.21196 0.38253
 N663 N 0.36278 0.21401 0.36564
 C664 C 0.36524 0.22751 0.34497
 N665 N 0.38514 0.23878 0.34173
 N666 N 0.40191 0.23674 0.35862
 C667 C 0.34639 0.23056 0.32691
 N668 N 0.34861 0.24464 0.30665
 N669 N 0.33121 0.24814 0.29081
 C670 C 0.31095 0.23768 0.29463
 N671 N 0.30878 0.22349 0.31480
 N672 N 0.32618 0.21999 0.33065
 C673 C 0.70373 0.90853 0.90014
 N674 N 0.70478 0.93131 0.89382
 N675 N 0.70381 0.94774 0.91146
 C676 C 0.70194 0.94215 0.93619
 N677 N 0.70082 0.91924 0.94228
 N678 N 0.70164 0.90280 0.92469
 C679 C 0.70558 0.89031 0.88087
 N680 N 0.70217 0.86774 0.88692
 N681 N 0.70466 0.85107 0.86970
 C682 C 0.71076 0.85635 0.84584
 N683 N 0.71408 0.87893 0.83976
 N684 N 0.71147 0.89562 0.85695
 C685 C 0.71464 0.83783 0.82723
 N686 N 0.72444 0.84254 0.80477
 N687 N 0.72900 0.82555 0.78839
 C688 C 0.72380 0.80324 0.79380
 N689 N 0.71379 0.79855 0.81615
 N690 N 0.70935 0.81553 0.83259
 C691 C 0.21767 0.40941 0.40010
 N692 N 0.22886 0.42973 0.39845
 N693 N 0.22634 0.44592 0.41620
 C694 C 0.21254 0.44237 0.43624
 N695 N 0.20127 0.42207 0.43781
 N696 N 0.20380 0.40589 0.42008
 C697 C 0.22094 0.39128 0.38094
 N698 N 0.21052 0.37057 0.38322
 N699 N 0.21398 0.35386 0.36623
 C700 C 0.22797 0.35725 0.34633
 N701 N 0.23830 0.37800 0.34397
 N702 N 0.23486 0.39471 0.36097
 C703 C 0.23239 0.33852 0.32810
 N704 N 0.24649 0.34181 0.30826
 N705 N 0.25109 0.32457 0.29220
 C706 C 0.24177 0.30341 0.29541
 N707 N 0.22758 0.30015 0.31517
 N708 N 0.22296 0.31740 0.33121
 C709 C 0.30234 0.09162 0.89904
 N710 N 0.30801 0.09724 0.92294
 N711 N 0.30841 0.08114 0.94090
 C712 C 0.30319 0.05872 0.93578
 N713 N 0.29797 0.05314 0.91165
 N714 N 0.29747 0.06924 0.89368
 C715 C 0.30019 0.10972 0.87970
 N716 N 0.29115 0.10485 0.85686
 N717 N 0.28781 0.12161 0.83989
 C718 C 0.29347 0.14383 0.84511
 N719 N 0.30275 0.14865 0.86784
 N720 N 0.30599 0.13191 0.88485
 C721 C 0.28857 0.16256 0.82702
 N722 N 0.29518 0.18457 0.83182
 N723 N 0.28977 0.20182 0.81604
 C724 C 0.27747 0.19770 0.79493
 N725 N 0.27097 0.17567 0.79005
 N726 N 0.27645 0.15840 0.80579
 C727 C 0.78419 0.59008 0.39742
 N728 N 0.80479 0.58749 0.40906
 N729 N 0.80805 0.57131 0.42670
 C730 C 0.79079 0.55727 0.43348
 N731 N 0.77018 0.55998 0.42194
 N732 N 0.76698 0.57600 0.40415
 C733 C 0.78040 0.60794 0.37807
 N734 N 0.76140 0.60766 0.36341
 N735 N 0.75763 0.62403 0.34611
 C736 C 0.77263 0.64140 0.34296
 N737 N 0.79165 0.64171 0.35763
 N738 N 0.79551 0.62521 0.37481
 C739 C 0.76793 0.65983 0.32445
 N740 N 0.77989 0.67976 0.32471
 N741 N 0.77487 0.69684 0.30854
 C742 C 0.75784 0.69451 0.29142
 N743 N 0.74606 0.67449 0.29101
 N744 N 0.75096 0.65750 0.30728
 C745 C 0.08605 0.72676 0.90079
 N746 N 0.06400 0.72402 0.89368
 N747 N 0.04753 0.72258 0.91083
 C748 C 0.05229 0.72404 0.93579
 N749 N 0.07446 0.72689 0.94267
 N750 N 0.09099 0.72812 0.92560
 C751 C 0.10428 0.72848 0.88202
 N752 N 0.12658 0.72667 0.88906
 N753 N 0.14319 0.72856 0.87216
 C754 C 0.13812 0.73252 0.84764
 N755 N 0.11581 0.73435 0.84058
 N756 N 0.09919 0.73226 0.85746
 C757 C 0.15649 0.73530 0.82922
 N758 N 0.15192 0.74434 0.80616
 N759 N 0.16875 0.74762 0.78980
 C760 C 0.19073 0.74177 0.79584
 N761 N 0.19527 0.73254 0.81881
 N762 N 0.17847 0.72945 0.83525
 C763 C 0.60195 0.22244 0.40046
 N764 N 0.60503 0.20940 0.42149
 N765 N 0.58876 0.20870 0.43893
 C766 C 0.56880 0.22103 0.43600
 N767 N 0.56567 0.23394 0.41487
 N768 N 0.58195 0.23465 0.39743
 C769 C 0.62021 0.22379 0.38163
 N770 N 0.61758 0.23765 0.36114
 N771 N 0.63441 0.23938 0.34445
 C772 C 0.65447 0.22731 0.34763
 N773 N 0.65705 0.21336 0.36805
 N774 N 0.64023 0.21165 0.38475
 C775 C 0.67332 0.22978 0.32968
 N776 N 0.69342 0.21783 0.33304
 N777 N 0.71077 0.22059 0.31723
 C778 C 0.70866 0.23540 0.29747
 N779 N 0.68852 0.24727 0.29404
 N780 N 0.67116 0.24450 0.30985
 C781 C 0.91674 0.27040 0.90089
 N782 N 0.91322 0.28270 0.92234
 N783 N 0.92934 0.28327 0.94000
 C784 C 0.94959 0.27153 0.93689
 N785 N 0.95317 0.25934 0.91535
 N786 N 0.93702 0.25875 0.89769
 C787 C 0.89870 0.26940 0.88172
 N788 N 0.90166 0.25626 0.86074
 N789 N 0.88502 0.25494 0.84370
 C790 C 0.86483 0.26674 0.84701
 N791 N 0.86192 0.27996 0.86793
 N792 N 0.87854 0.28126 0.88497
 C793 C 0.84617 0.26473 0.82871
 N794 N 0.82598 0.27644 0.83227
 N795 N 0.80872 0.27400 0.81620
 C796 C 0.81101 0.25978 0.79599
 N797 N 0.83125 0.24816 0.79233
 N798 N 0.84853 0.25061 0.80840
 C799 C 0.39858 0.77772 0.39591
 N800 N 0.39542 0.79124 0.41657
 N801 N 0.41144 0.79202 0.43433
 C802 C 0.43122 0.77930 0.43212
 N803 N 0.43446 0.76591 0.41136
 N804 N 0.41842 0.76511 0.39359
 C805 C 0.38053 0.77625 0.37681
 N806 N 0.38313 0.76192 0.35670
 N807 N 0.36638 0.76002 0.33987
 C808 C 0.34644 0.77240 0.34255
 N809 N 0.34391 0.78683 0.36257
 N810 N 0.36064 0.78872 0.37940
 C811 C 0.32757 0.76967 0.32463
 N812 N 0.30752 0.78173 0.32783
 N813 N 0.29005 0.77867 0.31220
 C814 C 0.29196 0.76345 0.29280
 N815 N 0.31206 0.75148 0.28950
 N816 N 0.32955 0.75454 0.30514
 C817 C 0.28002 0.90691 0.09920
 N818 N 0.27129 0.92872 0.10303
 N819 N 0.27359 0.94516 0.08568
 C820 C 0.28467 0.94039 0.06382
 N821 N 0.29355 0.91861 0.06008
 N822 N 0.29124 0.90217 0.07744
 C823 C 0.27686 0.88863 0.11801
 N824 N 0.28520 0.86669 0.11404
 N825 N 0.28176 0.84996 0.13082
 C826 C 0.26984 0.85458 0.15217
 N827 N 0.26159 0.87654 0.15618
 N828 N 0.26504 0.89326 0.13942
 C829 C 0.26534 0.83606 0.17034
 N830 N 0.25266 0.84069 0.19114
 N831 N 0.24792 0.82384 0.20729
 C832 C 0.25571 0.80172 0.20327
 N833 N 0.26851 0.79708 0.18253
 N834 N 0.27324 0.81396 0.16634
 C835 C 0.79488 0.40528 0.60115
 N836 N 0.80087 0.42710 0.60773
 N837 N 0.80245 0.44370 0.59039
 C838 C 0.79785 0.43918 0.56586
 N839 N 0.79173 0.41735 0.55943
 N840 N 0.79040 0.40071 0.57668
 C841 C 0.79292 0.38689 0.62006
 N842 N 0.79230 0.36427 0.61289
 N843 N 0.78993 0.34751 0.62985
 C844 C 0.78786 0.35275 0.65459
 N845 N 0.78847 0.37538 0.66180
 N846 N 0.79108 0.39214 0.64484
 C847 C 0.78420 0.33425 0.67303
 N848 N 0.77593 0.33936 0.69624
 N849 N 0.77150 0.32243 0.71246
 C850 C 0.77542 0.29981 0.70615
 N851 N 0.78395 0.29473 0.68306
 N852 N 0.78816 0.31164 0.66675
 C853 C 0.71677 0.09263 0.10155
 N854 N 0.69584 0.09026 0.09091
 N855 N 0.69248 0.07395 0.07361
 C856 C 0.70997 0.05955 0.06619
 N857 N 0.73091 0.06208 0.07672
 N858 N 0.73422 0.07822 0.09417
 C859 C 0.72065 0.11051 0.12065
 N860 N 0.73996 0.10965 0.13483
 N861 N 0.74375 0.12594 0.15199
 C862 C 0.72849 0.14382 0.15545
 N863 N 0.70917 0.14473 0.14124
 N864 N 0.70527 0.12830 0.12422
 C865 C 0.73315 0.16201 0.17396
 N866 N 0.72114 0.18254 0.17379
 N867 N 0.72610 0.19930 0.19007
 C868 C 0.74309 0.19602 0.20722
 N869 N 0.75493 0.17542 0.20752
 N870 N 0.75011 0.15876 0.19113
 C871 C 0.20281 0.59282 0.60595
 N872 N 0.21565 0.57288 0.60749
 N873 N 0.21472 0.55693 0.58943
 C874 C 0.20094 0.56032 0.56915
 N875 N 0.18780 0.58010 0.56781
 N876 N 0.18876 0.59609 0.58586
 C877 C 0.20503 0.61106 0.62501
 N878 N 0.19358 0.63176 0.62250
 N879 N 0.19663 0.64878 0.63904
 C880 C 0.21122 0.64572 0.65869
 N881 N 0.22251 0.62495 0.66132
 N882 N 0.21949 0.60793 0.64477
 C883 C 0.21549 0.66489 0.67613
 N884 N 0.23033 0.66195 0.69558
 N885 N 0.23496 0.67965 0.71075
 C886 C 0.22496 0.70092 0.70697
 N887 N 0.21003 0.70381 0.68760
 N888 N 0.20538 0.68612 0.67246
 C889 C 0.89713 0.72090 0.09633
 N890 N 0.90206 0.70052 0.08439
 N891 N 0.91880 0.69915 0.06745
 C892 C 0.93111 0.71814 0.06176
 N893 N 0.92600 0.73855 0.07351
 N894 N 0.90941 0.73987 0.09057
 C895 C 0.87888 0.72256 0.11519
 N896 N 0.87688 0.74161 0.13014
 N897 N 0.86030 0.74336 0.14718
 C898 C 0.84499 0.72620 0.14980
 N899 N 0.84693 0.70715 0.13482
 N900 N 0.86365 0.70531 0.11789
 C901 C 0.82643 0.72858 0.16823
 N902 N 0.80844 0.71411 0.16777
 N903 N 0.79124 0.71694 0.18398
 C904 C 0.79152 0.73421 0.20135
 N905 N 0.80960 0.74852 0.20194
 N906 N 0.82670 0.74580 0.18563
 C907 C 0.41614 0.22347 0.60117
 N908 N 0.41352 0.21038 0.58021
 N909 N 0.42974 0.20947 0.56268
 C910 C 0.44919 0.22165 0.56544
 N911 N 0.45186 0.23463 0.58649
 N912 N 0.43563 0.23553 0.60402
 C913 C 0.39797 0.22500 0.62016
 N914 N 0.40039 0.23851 0.64085
 N915 N 0.38366 0.24041 0.65773
 C916 C 0.36390 0.22887 0.65455
 N917 N 0.36152 0.21528 0.63392
 N918 N 0.37825 0.21338 0.61703
 C919 C 0.34517 0.23158 0.67275
 N920 N 0.32517 0.22052 0.66926
 N921 N 0.30793 0.22356 0.68536
 C922 C 0.31006 0.23776 0.70554
 N923 N 0.33009 0.24873 0.70910
 N924 N 0.34733 0.24569 0.69300
 C925 C 0.09846 0.28389 0.10381
 N926 N 0.07855 0.27264 0.10702
 N927 N 0.06252 0.27322 0.08921
 C928 C 0.06581 0.28507 0.06751
 N929 N 0.08565 0.29650 0.06441
 N930 N 0.10167 0.29593 0.08223
 C931 C 0.11663 0.28218 0.12285
 N932 N 0.13680 0.29288 0.11933
 N933 N 0.15367 0.29045 0.13604
 C934 C 0.15100 0.27720 0.15688
 N935 N 0.13078 0.26662 0.16048
 N936 N 0.11390 0.26907 0.14377
 C937 C 0.16998 0.27364 0.17469
 N938 N 0.16770 0.25946 0.19486
 N939 N 0.18521 0.25551 0.21047
 C940 C 0.20562 0.26560 0.20648
 N941 N 0.20785 0.27989 0.18640
 N942 N 0.19035 0.28383 0.17079
 C943 C 0.58136 0.77813 0.60048
 N944 N 0.58423 0.79096 0.57938
 N945 N 0.56822 0.79165 0.56155
 C946 C 0.54874 0.77953 0.56415
 N947 N 0.54580 0.76685 0.58535
 N948 N 0.56182 0.76614 0.60317
 C949 C 0.59942 0.77674 0.61968
 N950 N 0.59714 0.76304 0.64024
 N951 N 0.61389 0.76121 0.65719
 C952 C 0.63351 0.77302 0.65421
 N953 N 0.63571 0.78681 0.63372
 N954 N 0.61899 0.78863 0.61677
 C955 C 0.65239 0.77037 0.67231
 N956 N 0.67211 0.78186 0.66881
 N957 N 0.68962 0.77884 0.68460
 C958 C 0.68806 0.76423 0.70449
 N959 N 0.66828 0.75283 0.70811
 N960 N 0.65075 0.75586 0.69230
   
