data_POSCAR
  _audit_creation_date              2014-09-24
  _audit_creation_method            'ToBaCCo'
  _symmetry_space_group_name_H-M    'P1'
  _symmetry_Int_Tables_number       1
  _symmetry_cell_setting            triclinic
  loop_
  _symmetry_equiv_pos_as_xyz
 x,y,z
_cell_length_a 36.1366
_cell_length_b 36.1368
_cell_length_c 12.2743
_cell_angle_alpha 90.138200
_cell_angle_beta 89.897900
_cell_angle_gamma 120.083900
loop_
  _atom_site_label
  _atom_site_type_symbol
  _atom_site_fract_x
  _atom_site_fract_y
  _atom_site_fract_z
C1 C 0.24058 0.48023 0.55271
 C2 C 0.24075 0.48236 0.44163
 C3 C 0.20625 0.48408 0.37938
 C4 C 0.27433 0.48008 0.37785
 C5 C 0.27601 0.48007 0.61366
 C6 C 0.20411 0.47594 0.61809
 C7 C 0.18660 0.45641 0.29075
 C8 C 0.15189 0.45530 0.23742
 C9 C 0.13543 0.48130 0.27310
 C10 C 0.15656 0.51045 0.35876
 C11 C 0.19208 0.51244 0.40937
 C12 C 0.27276 0.44077 0.36413
 C13 C 0.30563 0.43888 0.30901
 C14 C 0.34103 0.47647 0.27049
 C15 C 0.34253 0.51575 0.28359
 C16 C 0.30879 0.51740 0.33476
 C17 C 0.31850 0.51319 0.60061
 C18 C 0.35182 0.51127 0.65275
 C19 C 0.34306 0.47699 0.72207
 C20 C 0.30042 0.44502 0.73971
 C21 C 0.26718 0.44644 0.68544
 C22 C 0.21052 0.50789 0.69345
 C23 C 0.17572 0.50594 0.74867
 C24 C 0.13440 0.47156 0.73079
 C25 C 0.12809 0.43874 0.65887
 C26 C 0.16279 0.44089 0.60274
 H27 H 0.19721 0.43461 0.26463
 H28 H 0.13707 0.43281 0.17100
 H29 H 0.14579 0.53189 0.38726
 H30 H 0.20786 0.53551 0.47402
 H31 H 0.24625 0.41173 0.39689
 H32 H 0.30415 0.40836 0.29957
 H33 H 0.31029 0.54791 0.34468
 H34 H 0.32590 0.54041 0.54959
 H35 H 0.38440 0.53674 0.63948
 H36 H 0.29288 0.41837 0.79323
 H37 H 0.23460 0.42084 0.69775
 H38 H 0.24222 0.53504 0.70640
 H39 H 0.18090 0.53148 0.80405
 H40 H 0.09625 0.41205 0.64441
 H41 H 0.15740 0.41577 0.54565
 H42 H 0.36968 0.54500 0.25386
 C43 C 0.51668 -0.24215 0.55637
 C44 C 0.51780 -0.24082 0.44528
 C45 C 0.52173 -0.27328 0.38060
 C46 C 0.51811 -0.20530 0.38380
 C47 C 0.51938 -0.20601 0.61997
 C48 C 0.51644 -0.27763 0.61875
 C49 C 0.55949 -0.27530 0.38416
 C50 C 0.56203 -0.30775 0.32857
 C51 C 0.52657 -0.33889 0.27090
 C52 C 0.48907 -0.33655 0.26586
 C53 C 0.48694 -0.30337 0.31877
 C54 C 0.55163 -0.18080 0.31115
 C55 C 0.55334 -0.14600 0.25691
 C56 C 0.52175 -0.13493 0.27536
 C57 C 0.48753 -0.16023 0.34543
 C58 C 0.48536 -0.19554 0.39772
 C59 C 0.48233 -0.20877 0.66459
 C60 C 0.48440 -0.17340 0.71707
 C61 C 0.52386 -0.13570 0.72998
 C62 C 0.56118 -0.13356 0.68959
 C63 C 0.55885 -0.16831 0.63317
 C64 C 0.48783 -0.32067 0.59279
 C65 C 0.49087 -0.35347 0.64441
 C66 C 0.52126 -0.34404 0.72708
 C67 C 0.54777 -0.30113 0.75843
 C68 C 0.54568 -0.26832 0.70409
 H69 H 0.58663 -0.25213 0.43124
 H70 H 0.59114 -0.30934 0.33317
 H71 H 0.46147 -0.36048 0.22149
 H72 H 0.45764 -0.30211 0.31533
 H73 H 0.57699 -0.18803 0.29828
 H74 H 0.57995 -0.12707 0.20288
 H75 H 0.45828 -0.21506 0.44971
 H76 H 0.45168 -0.23774 0.65515
 H77 H 0.45533 -0.17542 0.74785
 H78 H 0.59182 -0.10454 0.69848
 H79 H 0.58770 -0.16583 0.59921
 H80 H 0.46349 -0.32895 0.53134
 H81 H 0.46918 -0.38620 0.61985
 H82 H 0.57130 -0.29262 0.82244
 H83 H 0.56778 -0.23554 0.72707
 H84 H 0.46236 -0.15280 0.35948
 C85 C 1.24050 0.75939 0.55411
 C86 C 1.23954 0.76053 0.44278
 C87 C 1.27433 0.79558 0.37854
 C88 C 1.20264 0.72768 0.38004
 C89 C 1.20613 0.72328 0.61794
 C90 C 1.27476 0.79554 0.61661
 C91 C 1.26529 0.82055 0.30781
 C92 C 1.29832 0.85467 0.25057
 C93 C 1.34108 0.86539 0.26712
 C94 C 1.34963 0.83906 0.33416
 C95 C 1.31638 0.80349 0.38513
 C96 C 1.16157 0.72197 0.39544
 C97 C 1.12647 0.68892 0.34163
 C98 C 1.13212 0.66129 0.27234
 C99 C 1.17318 0.66755 0.25469
 C100 C 1.20838 0.70094 0.30736
 C101 C 1.19243 0.68050 0.59051
 C102 C 1.15725 0.64693 0.64293
 C103 C 1.13609 0.65535 0.72735
 C104 C 1.15176 0.69797 0.75994
 C105 C 1.18606 0.73145 0.70538
 C106 C 1.31367 0.79711 0.63743
 C107 C 1.34742 0.83325 0.68620
 C108 C 1.34097 0.86591 0.72725
 C109 C 1.30070 0.86246 0.71504
 C110 C 1.26864 0.82867 0.65518
 H111 H 1.23279 0.81410 0.29850
 H112 H 1.29057 0.87394 0.19829
 H113 H 1.38200 0.84527 0.34522
 H114 H 1.32363 0.78229 0.43014
 H115 H 1.15672 0.74260 0.45061
 H116 H 1.09484 0.68432 0.35573
 H117 H 1.23989 0.70505 0.29452
 H118 H 1.20838 0.67304 0.52669
 H119 H 1.14669 0.61445 0.61709
 H120 H 1.13663 0.70575 0.82533
 H121 H 1.19577 0.76372 0.73025
 H122 H 1.31837 0.77098 0.61271
 H123 H 1.37789 0.83467 0.69657
 H124 H 1.29495 0.88734 0.74523
 H125 H 1.23897 0.82827 0.63937
 H126 H 1.17784 0.64636 0.20117
 C127 C 0.75978 0.51804 0.55592
 C128 C 0.76017 0.51982 0.44480
 C129 C 0.79649 0.52366 0.38003
 C130 C 0.72568 0.52114 0.38299
 C131 C 0.72545 0.51988 0.61830
 C132 C 0.79435 0.51622 0.61873
 C133 C 0.83747 0.55959 0.39158
 C134 C 0.87218 0.56161 0.33581
 C135 C 0.86623 0.52762 0.26881
 C136 C 0.82522 0.49218 0.25518
 C137 C 0.79036 0.49048 0.30937
 C138 C 0.73359 0.55912 0.33195
 C139 C 0.70076 0.56100 0.27664
 C140 C 0.65945 0.52514 0.27367
 C141 C 0.65188 0.48684 0.32215
 C142 C 0.68507 0.48458 0.37397
 C143 C 0.68500 0.48324 0.62920
 C144 C 0.65150 0.48590 0.67848
 C145 C 0.65909 0.52426 0.72761
 C146 C 0.70031 0.56028 0.72243
 C147 C 0.73250 0.55864 0.66323
 C148 C 0.80834 0.48750 0.58954
 C149 C 0.84374 0.48919 0.64087
 C150 C 0.86480 0.51843 0.72597
 C151 C 0.84880 0.54485 0.76038
 C152 C 0.81435 0.54397 0.70708
 H153 H 0.84259 0.58556 0.44529
 H154 H 0.90379 0.58909 0.34707
 H155 H 0.82033 0.46571 0.20366
 H156 H 0.75889 0.46261 0.29959
 H157 H 0.76500 0.58742 0.33646
 H158 H 0.70727 0.59079 0.23924
 H159 H 0.67896 0.45445 0.40800
 H160 H 0.67909 0.45283 0.59714
 H161 H 0.62016 0.45746 0.68227
 H162 H 0.70690 0.59049 0.75778
 H163 H 0.76287 0.58774 0.65211
 H164 H 0.79239 0.46424 0.52543
 H165 H 0.85451 0.46760 0.61376
 H166 H 0.86376 0.56745 0.82651
 H167 H 0.80457 0.56616 0.73410
 H168 H 0.62041 0.45857 0.31889
 C169 C 0.48120 0.24081 0.55590
 C170 C 0.48025 0.24076 0.44472
 C171 C 0.47921 0.27534 0.38258
 C172 C 0.47673 0.20452 0.38032
 C173 C 0.48222 0.20589 0.61898
 C174 C 0.47960 0.27530 0.61803
 C175 C 0.44134 0.26763 0.33118
 C176 C 0.43967 0.30059 0.27596
 C177 C 0.47563 0.34185 0.27345
 C178 C 0.51381 0.34922 0.32231
 C179 C 0.51586 0.31590 0.37405
 C180 C 0.43945 0.16428 0.38531
 C181 C 0.43743 0.12942 0.33030
 C182 C 0.47293 0.13435 0.27164
 C183 C 0.50991 0.17465 0.26503
 C184 C 0.51152 0.20980 0.31752
 C185 C 0.51119 0.19200 0.59199
 C186 C 0.50899 0.15643 0.64343
 C187 C 0.47912 0.13521 0.72713
 C188 C 0.45245 0.15113 0.75976
 C189 C 0.45370 0.18565 0.70580
 C190 C 0.51648 0.31552 0.62947
 C191 C 0.51418 0.34920 0.67882
 C192 C 0.47589 0.34198 0.72748
 C193 C 0.43958 0.30098 0.72169
 C194 C 0.44090 0.26863 0.66237
 H195 H 0.41295 0.23629 0.33539
 H196 H 0.40996 0.29422 0.23831
 H197 H 0.54215 0.38064 0.31947
 H198 H 0.54591 0.32189 0.40852
 H199 H 0.41231 0.15986 0.43314
 H200 H 0.40870 0.09839 0.33592
 H201 H 0.54045 0.24071 0.31299
 H202 H 0.53520 0.20827 0.52978
 H203 H 0.53084 0.14577 0.61790
 H204 H 0.42935 0.13600 0.82472
 H205 H 0.43127 0.19534 0.73117
 H206 H 0.54683 0.32112 0.59784
 H207 H 0.54282 0.38039 0.68307
 H208 H 0.40941 0.29470 0.75660
 H209 H 0.41161 0.23850 0.65061
 H210 H 0.53749 0.17881 0.21971
 C211 C 0.76001 0.24024 0.55901
 C212 C 0.76029 0.24011 0.44787
 C213 C 0.72520 0.20535 0.38402
 C214 C 0.79671 0.27351 0.38526
 C215 C 0.79477 0.27528 0.62388
 C216 C 0.72586 0.20377 0.61994
 C217 C 0.73404 0.18060 0.31172
 C218 C 0.70083 0.14628 0.25583
 C219 C 0.65828 0.13602 0.27233
 C220 C 0.64964 0.16172 0.34171
 C221 C 0.68290 0.19652 0.39563
 C222 C 0.83639 0.27527 0.38532
 C223 C 0.87126 0.30824 0.33058
 C224 C 0.86701 0.34027 0.27786
 C225 C 0.82730 0.33832 0.27686
 C226 C 0.79205 0.30456 0.32837
 C227 C 0.80836 0.31830 0.60142
 C228 C 0.84388 0.35101 0.65443
 C229 C 0.86535 0.34150 0.73544
 C230 C 0.84959 0.29849 0.76419
 C231 C 0.81496 0.26572 0.70804
 C232 C 0.69106 0.20627 0.66201
 C233 C 0.65713 0.17064 0.71187
 C234 C 0.65868 0.13291 0.72466
 C235 C 0.69426 0.13096 0.68659
 C236 C 0.72736 0.16598 0.63272
 H237 H 0.76654 0.18721 0.30063
 H238 H 0.70828 0.12701 0.20237
 H239 H 0.61714 0.15491 0.35427
 H240 H 0.67558 0.21630 0.44736
 H241 H 0.84032 0.25137 0.42854
 H242 H 0.90183 0.30945 0.33192
 H243 H 0.76156 0.30349 0.32760
 H244 H 0.79192 0.32669 0.54147
 H245 H 0.85431 0.38378 0.63208
 H246 H 0.86502 0.28998 0.82695
 H247 H 0.80474 0.23285 0.72848
 H248 H 0.68960 0.23532 0.65286
 H249 H 0.62986 0.17258 0.74126
 H250 H 0.69578 0.10195 0.69580
 H251 H 0.75407 0.16368 0.60061
 H252 H 0.82363 0.36284 0.23610
 N253 N 0.95459 0.54309 0.11307
 N254 N 0.92316 0.55124 0.12777
 N255 N 1.04411 0.56323 0.19212
 N256 N 1.07568 0.58483 0.26141
 N257 N 1.04432 0.58849 0.11510
 N258 N 1.07581 0.62807 0.13017
 N259 N 0.95402 0.51732 0.18913
 N260 N 0.92203 0.50693 0.25729
 C261 C 0.90310 0.52822 0.21756
 C262 C 1.09505 0.62510 0.22144
 N263 N 1.04584 0.45799 0.12461
 N264 N 1.07902 0.45267 0.14098
 N265 N 0.95477 0.43803 0.19408
 N266 N 0.92233 0.41712 0.26155
 N267 N 0.95610 0.41181 0.12196
 N268 N 0.92505 0.37222 0.13936
 N269 N 1.04502 0.48435 0.19692
 N270 N 1.08006 0.49883 0.26617
 Mn271 Mn 0.99942 0.50068 0.19437
 C272 C 1.09984 0.47793 0.22805
 C273 C 0.90420 0.37620 0.22620
 N274 N 1.04522 0.58678 -0.11968
 N275 N 1.07956 0.62784 -0.13643
 N276 N 0.95544 0.51484 -0.19408
 N277 N 0.92226 0.50165 -0.26005
 N278 N 0.95570 0.54154 -0.12117
 N279 N 0.92110 0.54767 -0.13798
 N280 N 1.04599 0.56062 -0.19266
 N281 N 1.07924 0.58096 -0.25820
 Mn282 Mn 1.00000 0.56540 -0.00326
 C283 C 1.09953 0.62218 -0.22314
 C284 C 0.90150 0.52209 -0.22493
 N285 N 0.95696 0.41035 -0.11349
 N286 N 0.92224 0.36921 -0.12833
 N287 N 1.04645 0.48137 -0.18784
 N288 N 1.07809 0.49155 -0.25709
 N289 N 1.04669 0.45631 -0.11085
 N290 N 1.07830 0.44846 -0.12599
 N291 N 0.95630 0.43586 -0.18835
 N292 N 0.92289 0.41520 -0.25282
 Mn293 Mn 1.00143 0.43365 0.00564
 Mn294 Mn 1.00103 0.49815 -0.19214
 Cl295 Cl 1.00047 0.49946 0.00120
 C296 C 0.90229 0.37439 -0.21573
 C297 C 1.09765 0.47092 -0.21705
 N298 N 0.45632 0.41250 0.11800
 N299 N 0.44886 0.37322 0.13423
 N300 N 0.43819 0.48440 0.19005
 N301 N 0.41746 0.49637 0.25690
 N302 N 0.41215 0.45780 0.11614
 N303 N 0.37282 0.45022 0.13190
 N304 N 0.48287 0.43876 0.19174
 N305 N 0.49474 0.41821 0.25903
 C306 C 0.47320 0.37738 0.22230
 C307 C 0.37681 0.47475 0.21946
 N308 N 0.54436 0.58956 0.11578
 N309 N 0.55220 0.62901 0.13152
 N310 N 0.56284 0.51841 0.19167
 N311 N 0.58325 0.50642 0.25909
 N312 N 0.58917 0.54485 0.11798
 N313 N 0.62837 0.55211 0.13432
 N314 N 0.51794 0.56372 0.19016
 N315 N 0.50651 0.58471 0.25764
 Mn316 Mn 0.50047 0.50130 0.19231
 C317 C 0.52814 0.62528 0.21984
 C318 C 0.62407 0.52776 0.22242
 N319 N 0.41279 0.45741 -0.11908
 N320 N 0.37382 0.45070 -0.13580
 N321 N 0.48455 0.43764 -0.18828
 N322 N 0.49719 0.41680 -0.25267
 N323 N 0.45609 0.41167 -0.11789
 N324 N 0.44663 0.36987 -0.13829
 N325 N 0.43925 0.48287 -0.19392
 N326 N 0.41912 0.49468 -0.26278
 Mn327 Mn 0.43389 0.43443 -0.00058
 C328 C 0.37833 0.47433 -0.22560
 C329 C 0.47363 0.37534 -0.22155
 N330 N 0.58992 0.54487 -0.11784
 N331 N 0.63160 0.55395 -0.13814
 N332 N 0.51883 0.56234 -0.19362
 N333 N 0.50566 0.58224 -0.25951
 N334 N 0.54480 0.58868 -0.11941
 N335 N 0.55074 0.62942 -0.13594
 N336 N 0.56380 0.51657 -0.18839
 N337 N 0.58441 0.50364 -0.25275
 Mn338 Mn 0.56747 0.56743 -0.00075
 Mn339 Mn 0.50166 0.49983 -0.19247
 Cl340 Cl 0.50086 0.50075 -0.00031
 C341 C 0.62590 0.52688 -0.22150
 C342 C 0.52555 0.62336 -0.22370
 N343 N 0.41054 -0.04404 0.11817
 N344 N 0.37134 -0.07630 0.13460
 N345 N 0.48218 0.04606 0.18986
 N346 N 0.49335 0.07830 0.25788
 N347 N 0.45588 0.04554 0.11544
 N348 N 0.44792 0.07702 0.13147
 N349 N 0.43709 -0.04431 0.19051
 N350 N 0.41559 -0.07957 0.25838
 C351 C 0.37499 -0.09793 0.22058
 C352 C 0.47175 0.09723 0.22011
 N353 N 0.58762 0.04536 0.11699
 N354 N 0.62685 0.07752 0.13257
 N355 N 0.51631 -0.04431 0.19287
 N356 N 0.50406 -0.07668 0.26061
 N357 N 0.54253 -0.04452 0.11909
 N358 N 0.54916 -0.07686 0.13521
 N359 N 0.56150 0.04580 0.19080
 N360 N 0.58205 0.07844 0.25779
 Mn361 Mn 0.49925 0.00082 0.19229
 C362 C 0.62277 0.09794 0.22057
 C363 C 0.52483 -0.09669 0.22375
 N364 N 0.45599 0.04449 -0.11930
 N365 N 0.45001 0.07921 -0.13590
 N366 N 0.43657 -0.04669 -0.18896
 N367 N 0.41583 -0.08035 -0.25305
 N368 N 0.41044 -0.04442 -0.11855
 N369 N 0.36867 -0.07681 -0.13919
 N370 N 0.48211 0.04429 -0.19334
 N371 N 0.49525 0.07740 -0.25935
 Mn372 Mn 0.43278 0.00038 -0.00100
 C373 C 0.47525 0.09848 -0.22358
 C374 C 0.37430 -0.09835 -0.22208
 N375 N 0.54266 -0.04561 -0.11591
 N376 N 0.55035 -0.07731 -0.13156
 N377 N 0.56146 0.04397 -0.19275
 N378 N 0.58221 0.07614 -0.26095
 N379 N 0.58757 0.04394 -0.11847
 N380 N 0.62695 0.07554 -0.13526
 N381 N 0.51598 -0.04645 -0.18966
 N382 N 0.50410 -0.07919 -0.25632
 Mn383 Mn 0.56557 -0.00018 0.00049
 Mn384 Mn 0.49898 -0.00125 -0.19266
 Cl385 Cl 0.49919 -0.00003 -0.00028
 C386 C 0.52581 -0.09804 -0.21900
 C387 C 0.62295 0.09539 -0.22401
   
