data_POSCAR
  _audit_creation_date              2014-09-24
  _audit_creation_method            'ToBaCCo'
  _symmetry_space_group_name_H-M    'P1'
  _symmetry_Int_Tables_number       1
  _symmetry_cell_setting            triclinic
  loop_
  _symmetry_equiv_pos_as_xyz
 x,y,z
_cell_length_a 60.9382
_cell_length_b 60.1805
_cell_length_c 60.9305
_cell_angle_alpha 89.955200
_cell_angle_beta 90.000300
_cell_angle_gamma 90.038500
loop_
  _atom_site_label
  _atom_site_type_symbol
  _atom_site_fract_x
  _atom_site_fract_y
  _atom_site_fract_z
N1 N 0.60039 0.66088 0.61525
 N2 N 0.59212 0.65210 0.63318
 C3 C 0.57429 0.66383 0.63919
 C4 C 0.57121 0.68093 0.62424
 C5 C 0.58816 0.67848 0.60927
 H6 H 0.56440 0.66026 0.65348
 H7 H 0.59133 0.68859 0.59495
 Cu8 Cu 0.60542 0.62621 0.64694
 Cu9 Cu 0.62635 0.64883 0.60094
 Cu10 Cu 0.64977 0.60202 0.62438
 N11 N 0.61848 0.59959 0.65955
 N12 N 0.63578 0.59023 0.65066
 C13 C 0.64139 0.57224 0.66250
 C14 C 0.62679 0.57004 0.67990
 C15 C 0.61245 0.58783 0.67737
 H16 H 0.65512 0.56162 0.65858
 H17 H 0.59862 0.59200 0.68764
 N18 N 0.66154 0.61639 0.59779
 N19 N 0.65265 0.63423 0.58890
 C20 C 0.66441 0.64008 0.57109
 C21 C 0.68157 0.62521 0.56859
 C22 C 0.67917 0.61042 0.58587
 H23 H 0.66064 0.65406 0.56063
 H24 H 0.68963 0.59644 0.58963
 H25 H 0.62175 0.61656 0.61169
 H26 H 0.64005 0.63463 0.62862
 N27 N 0.89971 0.33909 0.11515
 N28 N 0.90796 0.34781 0.13309
 C29 C 0.92574 0.33604 0.13915
 C30 C 0.92889 0.31889 0.12420
 C31 C 0.91191 0.32148 0.10918
 H32 H 0.93560 0.33979 0.15340
 H33 H 0.90853 0.31142 0.09490
 Cu34 Cu 0.89471 0.37374 0.14679
 Cu35 Cu 0.87378 0.35119 0.10082
 Cu36 Cu 0.85034 0.39797 0.12424
 N37 N 0.88170 0.40039 0.15934
 N38 N 0.86436 0.40974 0.15048
 C39 C 0.85877 0.42773 0.16232
 C40 C 0.87341 0.42988 0.17960
 C41 C 0.88776 0.41218 0.17712
 H42 H 0.84514 0.43853 0.15846
 H43 H 0.90150 0.40807 0.18757
 N44 N 0.83855 0.38361 0.09768
 N45 N 0.84750 0.36583 0.08874
 C46 C 0.83577 0.36004 0.07090
 C47 C 0.81855 0.37487 0.06845
 C48 C 0.82089 0.38958 0.08578
 H49 H 0.83938 0.34593 0.06059
 H50 H 0.81059 0.40371 0.08938
 H51 H 0.87836 0.38346 0.11156
 H52 H 0.86007 0.36535 0.12849
 N53 N 0.40048 0.15999 -0.11439
 N54 N 0.40934 0.15060 -0.13170
 C55 C 0.42714 0.16236 -0.13778
 C56 C 0.42963 0.18010 -0.12347
 C57 C 0.41234 0.17799 -0.10884
 H58 H 0.43759 0.15822 -0.15150
 H59 H 0.40849 0.18882 -0.09524
 Cu60 Cu 0.39676 0.12392 -0.14466
 Cu61 Cu 0.37421 0.14825 -0.10036
 Cu62 Cu 0.35077 0.10138 -0.12366
 N63 N 0.38305 0.09795 -0.15784
 N64 N 0.36512 0.08921 -0.14954
 C65 C 0.35916 0.07155 -0.16169
 C66 C 0.37415 0.06902 -0.17862
 C67 C 0.38908 0.08614 -0.17561
 H68 H 0.34484 0.06145 -0.15850
 H69 H 0.40337 0.08968 -0.18551
 N70 N 0.33869 0.11610 -0.09744
 N71 N 0.34763 0.13392 -0.08855
 C72 C 0.33572 0.13993 -0.07092
 C73 C 0.31838 0.12521 -0.06854
 C74 C 0.32084 0.11033 -0.08570
 H75 H 0.33932 0.15410 -0.06066
 H76 H 0.31053 0.09619 -0.08928
 H77 H 0.37845 0.11561 -0.10999
 H78 H 0.36153 0.13364 -0.12834
 N79 N 0.09994 0.83901 0.38456
 N80 N 0.09170 0.84774 0.36662
 C81 C 0.07392 0.83595 0.36055
 C82 C 0.07077 0.81877 0.37550
 C83 C 0.08775 0.82137 0.39053
 H84 H 0.06407 0.83972 0.34630
 H85 H 0.09112 0.81128 0.40480
 Cu86 Cu 0.10494 0.87373 0.35294
 Cu87 Cu 0.12586 0.85113 0.39892
 Cu88 Cu 0.14929 0.89799 0.37552
 N89 N 0.11794 0.90042 0.34040
 N90 N 0.13528 0.90979 0.34928
 C91 C 0.14087 0.92781 0.33745
 C92 C 0.12623 0.92996 0.32016
 C93 C 0.11189 0.91223 0.32262
 H94 H 0.15449 0.93862 0.34131
 H95 H 0.09816 0.90812 0.31217
 N96 N 0.16107 0.88361 0.40208
 N97 N 0.15213 0.86580 0.41101
 C98 C 0.16386 0.85999 0.42885
 C99 C 0.18106 0.87484 0.43131
 C100 C 0.17872 0.88958 0.41399
 H101 H 0.16024 0.84584 0.43915
 H102 H 0.18902 0.90374 0.41039
 H103 H 0.12127 0.88341 0.38818
 H104 H 0.13957 0.86537 0.37125
 C105 C 0.10766 0.14192 0.12507
 C106 C 0.10794 0.12544 0.14141
 C107 C 0.12428 0.10899 0.14164
 C108 C 0.14049 0.10916 0.12525
 C109 C 0.14050 0.12550 0.10877
 C110 C 0.12402 0.14181 0.10882
 H111 H 0.09538 0.12542 0.15400
 H112 H 0.15315 0.09653 0.12532
 H113 H 0.12391 0.15446 0.09617
 C114 C 0.39134 0.85829 0.62531
 C115 C 0.39111 0.87472 0.64167
 C116 C 0.37480 0.89121 0.64193
 C117 C 0.35859 0.89112 0.62555
 C118 C 0.35854 0.87484 0.60904
 C119 C 0.37499 0.85849 0.60906
 H120 H 0.40400 0.87503 0.65390
 H121 H 0.34562 0.90342 0.62597
 H122 H 0.37506 0.84588 0.59639
 C123 C 0.89190 0.64166 0.37459
 C124 C 0.89165 0.62519 0.35827
 C125 C 0.87534 0.60868 0.35806
 C126 C 0.85914 0.60879 0.37447
 C127 C 0.85910 0.62512 0.39093
 C128 C 0.87555 0.64149 0.39085
 H129 H 0.90453 0.62487 0.34602
 H130 H 0.84618 0.59647 0.37409
 H131 H 0.87564 0.65414 0.40348
 C132 C 0.60842 0.35881 -0.12574
 C133 C 0.60862 0.37535 -0.14203
 C134 C 0.62493 0.39185 -0.14224
 C135 C 0.64118 0.39168 -0.12589
 C136 C 0.64126 0.37529 -0.10946
 C137 C 0.62481 0.35893 -0.10953
 H138 H 0.59604 0.37537 -0.15459
 H139 H 0.65414 0.40400 -0.12628
 H140 H 0.62442 0.34659 -0.09659
 C141 C -0.03708 0.26996 0.10784
 C142 C -0.02121 0.26983 0.12439
 C143 C -0.02184 0.28596 0.14086
 C144 C -0.03827 0.30216 0.14084
 C145 C -0.05446 0.30255 0.12425
 C146 C -0.05355 0.28612 0.10773
 C147 C -0.00430 0.25315 0.12448
 C148 C 0.00984 0.23916 0.12455
 C149 C 0.02640 0.22277 0.12464
 C150 C 0.04052 0.20875 0.12471
 C151 C 0.05738 0.19201 0.12480
 C152 C 0.06725 0.18564 0.14456
 C153 C 0.08360 0.16936 0.14467
 C154 C 0.09031 0.15923 0.12498
 C155 C 0.08029 0.16577 0.10519
 C156 C 0.06393 0.18204 0.10512
 H157 H -0.03675 0.25753 0.09498
 H158 H -0.00961 0.28601 0.15378
 H159 H -0.03808 0.31427 0.15392
 H160 H -0.06545 0.28554 0.09460
 H161 H 0.06234 0.19330 0.15988
 H162 H 0.09119 0.16489 0.16012
 H163 H 0.08490 0.15808 0.08981
 H164 H 0.05636 0.18681 0.08973
 C165 C 0.53845 0.73275 0.61028
 C166 C 0.52046 0.73063 0.62438
 C167 C 0.51901 0.71229 0.63842
 C168 C 0.53548 0.69613 0.63839
 C169 C 0.55368 0.69807 0.62427
 C170 C 0.55494 0.71661 0.61020
 C171 C 0.50352 0.74728 0.62447
 C172 C 0.48934 0.76124 0.62455
 C173 C 0.47276 0.77760 0.62465
 C174 C 0.45860 0.79158 0.62475
 C175 C 0.44171 0.80829 0.62488
 C176 C 0.43195 0.81468 0.64468
 C177 C 0.41558 0.83093 0.64483
 C178 C 0.40873 0.84101 0.62514
 C179 C 0.41864 0.83446 0.60532
 C180 C 0.43503 0.81821 0.60521
 H181 H 0.53976 0.74691 0.59936
 H182 H 0.50513 0.71047 0.64939
 H183 H 0.53378 0.68208 0.64933
 H184 H 0.56871 0.71883 0.59922
 H185 H 0.43697 0.80706 0.66000
 H186 H 0.40807 0.83543 0.66031
 H187 H 0.41394 0.84212 0.58994
 H188 H 0.44252 0.81344 0.58979
 C189 C 1.02152 0.78579 0.35880
 C190 C 1.02089 0.76964 0.37528
 C191 C 1.03675 0.76975 0.39183
 C192 C 1.05321 0.78594 0.39195
 C193 C 1.05413 0.80240 0.37543
 C194 C 1.03794 0.80202 0.35884
 C195 C 1.00398 0.75293 0.37518
 C196 C 0.98982 0.73893 0.37510
 C197 C 0.97326 0.72252 0.37502
 C198 C 0.95912 0.70850 0.37494
 C199 C 0.94225 0.69175 0.37486
 C200 C 0.93559 0.68186 0.39456
 C201 C 0.91921 0.66558 0.39449
 C202 C 0.90928 0.65897 0.37469
 C203 C 0.91611 0.66901 0.35497
 C204 C 0.93248 0.68530 0.35508
 H205 H 1.00930 0.78585 0.34588
 H206 H 1.03641 0.75730 0.40469
 H207 H 1.06512 0.78535 0.40508
 H208 H 1.03776 0.81415 0.34576
 H209 H 0.94309 0.68669 0.40996
 H210 H 0.91452 0.65795 0.40990
 H211 H 0.90860 0.66447 0.33951
 H212 H 0.93748 0.69289 0.33974
 C213 C 0.47751 0.21595 -0.14207
 C214 C 0.47985 0.23041 -0.12427
 C215 C 0.46581 0.22847 -0.10621
 C216 C 0.44948 0.21214 -0.10593
 C217 C 0.44696 0.19748 -0.12376
 C218 C 0.46120 0.19960 -0.14184
 C219 C 0.49667 0.24722 -0.12451
 C220 C 0.51075 0.26129 -0.12470
 C221 C 0.52724 0.27776 -0.12491
 C222 C 0.54133 0.29183 -0.12508
 C223 C 0.55815 0.30863 -0.12526
 C224 C 0.57995 0.30290 -0.12079
 C225 C 0.59631 0.31921 -0.12094
 C226 C 0.59105 0.34149 -0.12559
 C227 C 0.56908 0.34707 -0.13007
 C228 C 0.55275 0.33074 -0.12989
 H229 H 0.48827 0.21733 -0.15616
 H230 H 0.46750 0.23956 -0.09231
 H231 H 0.43901 0.21098 -0.09165
 H232 H 0.45972 0.18879 -0.15594
 H233 H 0.58432 0.28582 -0.11724
 H234 H 0.61310 0.31435 -0.11770
 H235 H 0.56448 0.36412 -0.13341
 H236 H 0.53592 0.33537 -0.13331
 C237 C 0.14360 -0.02163 0.28403
 C238 C 0.12552 -0.01963 0.27002
 C239 C 0.10767 -0.03406 0.27237
 C240 C 0.10788 -0.05044 0.28865
 C241 C 0.12598 -0.05263 0.30286
 C242 C 0.14384 -0.03799 0.30034
 C243 C 0.12531 -0.00279 0.25324
 C244 C 0.12515 0.01131 0.23918
 C245 C 0.12497 0.02782 0.22271
 C246 C 0.12484 0.04192 0.20865
 C247 C 0.12470 0.05875 0.19185
 C248 C 0.10490 0.06512 0.18205
 C249 C 0.10475 0.08146 0.16573
 C250 C 0.12442 0.09164 0.15899
 C251 C 0.14424 0.08512 0.16895
 C252 C 0.14435 0.06878 0.18527
 H253 H 0.15753 -0.01057 0.28234
 H254 H 0.09357 -0.03264 0.26163
 H255 H 0.09375 -0.06123 0.29013
 H256 H 0.15813 -0.03921 0.31079
 H257 H 0.08960 0.05741 0.18698
 H258 H 0.08928 0.08593 0.15818
 H259 H 0.15960 0.09285 0.16431
 H260 H 0.15976 0.06401 0.19280
 C261 C 0.64219 0.52008 -0.28702
 C262 C 0.62616 0.52047 -0.27063
 C263 C 0.61033 0.53725 -0.27062
 C264 C 0.61049 0.55362 -0.28691
 C265 C 0.62657 0.55351 -0.30362
 C266 C 0.64244 0.53641 -0.30336
 C267 C 0.62596 0.50365 -0.25383
 C268 C 0.62580 0.48955 -0.23976
 C269 C 0.62563 0.47306 -0.22329
 C270 C 0.62550 0.45896 -0.20922
 C271 C 0.62535 0.44213 -0.19243
 C272 C 0.62988 0.44781 -0.17063
 C273 C 0.62976 0.43147 -0.15430
 C274 C 0.62507 0.40921 -0.15958
 C275 C 0.62053 0.40367 -0.18156
 C276 C 0.62068 0.42004 -0.19785
 H277 H 0.65455 0.50714 -0.28719
 H278 H 0.59782 0.53771 -0.25799
 H279 H 0.59793 0.56626 -0.28622
 H280 H 0.65515 0.53542 -0.31568
 H281 H 0.63347 0.46488 -0.16624
 H282 H 0.63306 0.43629 -0.13750
 H283 H 0.61715 0.38664 -0.18618
 H284 H 0.61721 0.41545 -0.21469
 C285 C 0.36020 1.01707 0.78882
 C286 C 0.37428 1.01914 0.77080
 C287 C 0.38831 1.03747 0.76928
 C288 C 0.38829 1.05369 0.78569
 C289 C 0.37419 1.05181 0.80391
 C290 C 0.36013 1.03327 0.80526
 C291 C 0.37434 1.00244 0.75391
 C292 C 0.37439 0.98844 0.73977
 C293 C 0.37444 0.97204 0.72322
 C294 C 0.37449 0.95802 0.70910
 C295 C 0.37456 0.94127 0.69226
 C296 C 0.36987 0.94703 0.67050
 C297 C 0.36993 0.93077 0.65413
 C298 C 0.37470 0.90850 0.65932
 C299 C 0.37940 0.90288 0.68124
 C300 C 0.37931 0.91917 0.69759
 H301 H 0.34929 1.00291 0.79019
 H302 H 0.39926 1.03925 0.75537
 H303 H 0.39922 1.06774 0.78394
 H304 H 0.34917 1.03109 0.81905
 H305 H 0.36622 0.96410 0.66618
 H306 H 0.36653 0.93566 0.63736
 H307 H 0.38286 0.88584 0.68580
 H308 H 0.38290 0.91451 0.71439
 C309 C 0.85605 0.47819 0.21574
 C310 C 0.87413 0.48020 0.22974
 C311 C 0.89198 0.46581 0.22737
 C312 C 0.89178 0.44945 0.21109
 C313 C 0.87367 0.44726 0.19690
 C314 C 0.85580 0.46185 0.19943
 C315 C 0.87435 0.49701 0.24652
 C316 C 0.87451 0.51109 0.26058
 C317 C 0.87469 0.52758 0.27704
 C318 C 0.87483 0.54165 0.29110
 C319 C 0.87498 0.55846 0.30790
 C320 C 0.87975 0.58054 0.30249
 C321 C 0.87988 0.59689 0.31879
 C322 C 0.87522 0.59133 0.34074
 C323 C 0.87045 0.56908 0.34601
 C324 C 0.87034 0.55276 0.32968
 H325 H 0.84211 0.48922 0.21744
 H326 H 0.90609 0.46724 0.23811
 H327 H 0.90591 0.43870 0.20960
 H328 H 0.84150 0.46063 0.18899
 H329 H 0.88331 0.58515 0.28566
 H330 H 0.88335 0.61391 0.31417
 H331 H 0.86707 0.56424 0.36279
 H332 H 0.86668 0.53570 0.33406
 C333 C 0.26607 0.11185 -0.03726
 C334 C 0.26824 0.12548 -0.01881
 C335 C 0.28675 0.13904 -0.01658
 C336 C 0.30305 0.13899 -0.03273
 C337 C 0.30106 0.12532 -0.05138
 C338 C 0.28234 0.11175 -0.05343
 C339 C 0.25149 0.12553 -0.00215
 C340 C 0.23747 0.12556 0.01181
 C341 C 0.22107 0.12558 0.02816
 C342 C 0.20707 0.12558 0.04214
 C343 C 0.19036 0.12557 0.05883
 C344 C 0.18373 0.14556 0.06849
 C345 C 0.16751 0.14556 0.08471
 C346 C 0.15771 0.12553 0.09151
 C347 C 0.16449 0.10551 0.08170
 C348 C 0.18070 0.10556 0.06546
 H349 H 0.25178 0.10130 -0.03917
 H350 H 0.28862 0.14964 -0.00233
 H351 H 0.31723 0.14953 -0.03043
 H352 H 0.28009 0.10114 -0.06758
 H353 H 0.19115 0.16114 0.06352
 H354 H 0.16284 0.16119 0.09216
 H355 H 0.15705 0.08987 0.08638
 H356 H 0.18566 0.08999 0.05806
 C357 C 0.71763 0.64354 0.52103
 C358 C 0.73137 0.62510 0.51851
 C359 C 0.72885 0.60670 0.53232
 C360 C 0.71268 0.60670 0.54859
 C361 C 0.69875 0.62516 0.55129
 C362 C 0.70144 0.64359 0.53728
 C363 C 0.74806 0.62509 0.50179
 C364 C 0.76204 0.62508 0.48780
 C365 C 0.77841 0.62508 0.47142
 C366 C 0.79241 0.62508 0.45744
 C367 C 0.80912 0.62509 0.44075
 C368 C 0.81871 0.60509 0.43407
 C369 C 0.83495 0.60508 0.41786
 C370 C 0.84184 0.62513 0.40813
 C371 C 0.83209 0.64515 0.41496
 C372 C 0.81584 0.64511 0.43116
 H373 H 0.71946 0.65790 0.51045
 H374 H 0.73938 0.59232 0.53049
 H375 H 0.71105 0.59215 0.55888
 H376 H 0.69121 0.65817 0.53891
 H377 H 0.81368 0.58950 0.44142
 H378 H 0.84234 0.58944 0.41314
 H379 H 0.83682 0.66081 0.40758
 H380 H 0.80848 0.66069 0.43617
 C381 C 0.78732 0.36151 0.01612
 C382 C 0.76881 0.37505 0.01832
 C383 C 0.76653 0.38855 0.03685
 C384 C 0.78268 0.38851 0.05315
 C385 C 0.80139 0.37494 0.05114
 C386 C 0.80350 0.36143 0.03239
 C387 C 0.75215 0.37509 0.00156
 C388 C 0.73820 0.37512 -0.01246
 C389 C 0.72185 0.37515 -0.02886
 C390 C 0.70788 0.37518 -0.04286
 C391 C 0.69118 0.37521 -0.05958
 C392 C 0.68169 0.39524 -0.06634
 C393 C 0.66547 0.39529 -0.08257
 C394 C 0.65851 0.37526 -0.09224
 C395 C 0.66816 0.35521 -0.08531
 C396 C 0.68439 0.35520 -0.06910
 H397 H 0.78927 0.35102 0.00181
 H398 H 0.75223 0.39907 0.03874
 H399 H 0.78033 0.39900 0.06736
 H400 H 0.81769 0.35090 0.03012
 H401 H 0.68679 0.41082 -0.05903
 H402 H 0.65816 0.41096 -0.08734
 H403 H 0.66335 0.33955 -0.09264
 H404 H 0.69167 0.33960 -0.06402
 C405 C 0.21232 0.86139 0.48362
 C406 C 0.23082 0.87497 0.48144
 C407 C 0.23309 0.88853 0.46292
 C408 C 0.21693 0.88852 0.44663
 C409 C 0.19823 0.87490 0.44863
 C410 C 0.19613 0.86133 0.46735
 C411 C 0.24749 0.87498 0.49817
 C412 C 0.26146 0.87498 0.51218
 C413 C 0.27783 0.87497 0.52857
 C414 C 0.29181 0.87495 0.54255
 C415 C 0.30853 0.87492 0.55925
 C416 C 0.31812 0.89492 0.56598
 C417 C 0.33436 0.89491 0.58217
 C418 C 0.34125 0.87486 0.59185
 C419 C 0.33150 0.85483 0.58497
 C420 C 0.31525 0.85489 0.56878
 H421 H 0.21038 0.85084 0.49791
 H422 H 0.24737 0.89909 0.46104
 H423 H 0.21926 0.89906 0.43244
 H424 H 0.18195 0.85077 0.46961
 H425 H 0.31307 0.91052 0.55866
 H426 H 0.34175 0.91056 0.58693
 H427 H 0.33625 0.83916 0.59231
 H428 H 0.30789 0.83931 0.56374
   
