data_POSCAR
  _audit_creation_date              2014-09-24
  _audit_creation_method            'ToBaCCo'
  _symmetry_space_group_name_H-M    'P1'
  _symmetry_Int_Tables_number       1
  _symmetry_cell_setting            triclinic
  loop_
  _symmetry_equiv_pos_as_xyz
 x,y,z
_cell_length_a 26.4312
_cell_length_b 26.4271
_cell_length_c 24.6565
_cell_angle_alpha 89.879700
_cell_angle_beta 89.999100
_cell_angle_gamma 89.486900
loop_
  _atom_site_label
  _atom_site_type_symbol
  _atom_site_fract_x
  _atom_site_fract_y
  _atom_site_fract_z
C1 C -0.13695 0.31532 -0.01063
 C2 C -0.11473 0.32392 0.03983
 C3 C -0.06224 0.33012 0.04373
 C4 C -0.03069 0.32396 -0.00229
 C5 C -0.05416 0.31394 -0.05274
 C6 C -0.10689 0.31079 -0.05695
 C7 C 0.02612 0.32411 0.00292
 C8 C 0.05759 0.33023 -0.04312
 C9 C 0.11018 0.32440 -0.03903
 C10 C 0.13252 0.31612 0.01146
 C11 C 0.10255 0.31155 0.05771
 C12 C 0.04981 0.31439 0.05347
 H13 H -0.17757 0.30995 -0.01351
 H14 H -0.04654 0.33824 0.08320
 H15 H -0.03206 0.30648 -0.08875
 H16 H 0.04189 0.33798 -0.08276
 H17 H 0.17320 0.31090 0.01441
 H18 H 0.02800 0.30684 0.08959
 C19 C 0.36429 0.81658 0.48841
 C20 C 0.38645 0.82525 0.53882
 C21 C 0.43892 0.83134 0.54281
 C22 C 0.47050 0.82516 0.49682
 C23 C 0.44703 0.81512 0.44637
 C24 C 0.39435 0.81196 0.44218
 C25 C 0.52730 0.82530 0.50203
 C26 C 0.55874 0.83144 0.45597
 C27 C 0.61134 0.82560 0.46002
 C28 C 0.63369 0.81724 0.51050
 C29 C 0.60374 0.81266 0.55678
 C30 C 0.55099 0.81557 0.55257
 H31 H 0.32373 0.81116 0.48552
 H32 H 0.45447 0.83934 0.58235
 H33 H 0.46902 0.80760 0.41031
 H34 H 0.54301 0.83923 0.41636
 H35 H 0.67438 0.81201 0.51343
 H36 H 0.52917 0.80808 0.58869
 C37 C 1.13694 0.68475 -0.01125
 C38 C 1.11471 0.67611 0.03924
 C39 C 1.06221 0.66991 0.04314
 C40 C 1.03069 0.67610 -0.00292
 C41 C 1.05417 0.68615 -0.05339
 C42 C 1.10689 0.68933 -0.05760
 C43 C 0.97388 0.67592 0.00228
 C44 C 0.94244 0.66965 -0.04374
 C45 C 0.88984 0.67546 -0.03972
 C46 C 0.86748 0.68388 0.01070
 C47 C 0.89743 0.68862 0.05693
 C48 C 0.95018 0.68578 0.05274
 H49 H 1.17756 0.69013 -0.01413
 H50 H 1.04648 0.66177 0.08263
 H51 H 1.03206 0.69364 -0.08943
 H52 H 0.95818 0.66181 -0.08330
 H53 H 0.82680 0.68908 0.01360
 H54 H 0.97197 0.69345 0.08880
 C55 C 0.63572 0.18343 0.48969
 C56 C 0.61355 0.17479 0.54013
 C57 C 0.56109 0.16867 0.54414
 C58 C 0.52951 0.17480 0.49811
 C59 C 0.55299 0.18481 0.44761
 C60 C 0.60567 0.18800 0.44342
 C61 C 0.47270 0.17462 0.50330
 C62 C 0.44127 0.16856 0.45725
 C63 C 0.38867 0.17437 0.46127
 C64 C 0.36629 0.18261 0.51173
 C65 C 0.39623 0.18709 0.55801
 C66 C 0.44898 0.18422 0.55382
 H67 H 0.67628 0.18887 0.48678
 H68 H 0.54554 0.16068 0.58373
 H69 H 0.53102 0.19230 0.41150
 H70 H 0.45700 0.16087 0.41766
 H71 H 0.32561 0.18781 0.51464
 H72 H 0.47077 0.19165 0.58994
 C73 C 0.68435 -0.13398 0.01170
 C74 C 0.68912 -0.10397 0.05791
 C75 C 0.68617 -0.05116 0.05346
 C76 C 0.67615 -0.02758 0.00287
 C77 C 0.66982 -0.05908 -0.04299
 C78 C 0.67574 -0.11165 -0.03879
 C79 C 0.67611 0.02921 -0.00265
 C80 C 0.68619 0.05263 -0.05322
 C81 C 0.68906 0.10540 -0.05766
 C82 C 0.68412 0.13548 -0.01147
 C83 C 0.67546 0.11330 0.03899
 C84 C 0.66962 0.06082 0.04318
 H85 H 0.68957 -0.17470 0.01457
 H86 H 0.69378 -0.02911 0.08936
 H87 H 0.66183 -0.04339 -0.08259
 H88 H 0.69393 0.03046 -0.08910
 H89 H 0.68929 0.17612 -0.01432
 H90 H 0.66160 0.04527 0.08278
 C91 C 0.18296 0.36576 0.51137
 C92 C 0.18732 0.39565 0.55763
 C93 C 0.18425 0.44839 0.55345
 C94 C 0.17455 0.47218 0.50293
 C95 C 0.16864 0.44078 0.45685
 C96 C 0.17466 0.38818 0.46090
 C97 C 0.17457 0.52903 0.49778
 C98 C 0.18417 0.55264 0.44723
 C99 C 0.18728 0.60532 0.44302
 C100 C 0.18306 0.63531 0.48930
 C101 C 0.17482 0.61304 0.53981
 C102 C 0.16876 0.56054 0.54386
 H103 H 0.18833 0.32508 0.51432
 H104 H 0.19159 0.47011 0.58961
 H105 H 0.16089 0.45652 0.41723
 H106 H 0.19142 0.53078 0.41107
 H107 H 0.18844 0.67588 0.48634
 H108 H 0.16105 0.54494 0.58349
 C109 C 0.31542 1.13388 0.01042
 C110 C 0.31105 1.10356 0.05651
 C111 C 0.31406 1.05085 0.05195
 C112 C 0.32380 1.02754 0.00127
 C113 C 0.32976 1.05931 -0.04459
 C114 C 0.32371 1.11190 -0.04026
 C115 C 0.32397 0.97076 -0.00426
 C116 C 0.31385 0.94748 -0.05480
 C117 C 0.31103 0.89472 -0.05917
 C118 C 0.31605 0.86450 -0.01296
 C119 C 0.32476 0.88654 0.03746
 C120 C 0.33058 0.93900 0.04158
 H121 H 0.31011 1.17455 0.01376
 H122 H 0.30669 1.02875 0.08794
 H123 H 0.33761 1.04373 -0.08423
 H124 H 0.30603 0.96975 -0.09069
 H125 H 0.31089 0.82387 -0.01576
 H126 H 0.33866 0.95442 0.08115
 C127 C 0.81723 0.63435 0.51056
 C128 C 0.81291 0.60443 0.55693
 C129 C 0.81594 0.55169 0.55294
 C130 C 0.82555 0.52792 0.50250
 C131 C 0.83142 0.55935 0.45629
 C132 C 0.82544 0.61195 0.46015
 C133 C 0.82549 0.47107 0.49757
 C134 C 0.81584 0.44748 0.44714
 C135 C 0.81268 0.39479 0.44316
 C136 C 0.81690 0.36481 0.48958
 C137 C 0.82520 0.38706 0.53998
 C138 C 0.83132 0.43955 0.54379
 H139 H 0.81189 0.67502 0.51336
 H140 H 0.80861 0.52996 0.58919
 H141 H 0.83909 0.54363 0.41671
 H142 H 0.80860 0.46935 0.41088
 H143 H 0.81148 0.32424 0.48680
 H144 H 0.83909 0.45513 0.58335
 O145 O 0.22358 0.29245 0.19967
 O146 O 0.31181 0.24155 0.30169
 O147 O 0.29274 0.22348 0.19943
 O148 O 0.24214 0.31135 0.30170
 O149 O 0.18538 0.25474 0.32616
 O150 O 0.23610 0.16649 0.22329
 O151 O 0.25532 0.18465 0.32612
 O152 O 0.16670 0.23570 0.22359
 Cu153 Cu 0.27331 0.27292 0.24840
 Cu154 Cu 0.20519 0.20465 0.27745
 C155 C 0.18080 0.27191 0.19345
 C156 C 0.29832 0.20500 0.33162
 C157 C 0.27214 0.18076 0.19305
 C158 C 0.20565 0.29780 0.33161
 O159 O 0.81460 0.74555 0.32501
 O160 O 0.76383 0.83395 0.22191
 O161 O 0.74465 0.81562 0.32481
 O162 O 0.83321 0.76469 0.22238
 O163 O 0.77632 0.70797 0.19867
 O164 O 0.68815 0.75875 0.30058
 O165 O 0.70718 0.77698 0.19826
 O166 O 0.75783 0.68897 0.30076
 Cu167 Cu 0.79476 0.79569 0.27616
 Cu168 Cu 0.72662 0.72746 0.24737
 C169 C 0.79434 0.70248 0.33060
 C170 C 0.72777 0.81971 0.19174
 C171 C 0.70165 0.79525 0.33041
 C172 C 0.81910 0.72849 0.19238
 O173 O 0.73680 0.33294 0.27733
 O174 O 0.68544 0.24596 0.17458
 O175 O 0.66790 0.26445 0.27759
 O176 O 0.75492 0.31514 0.17413
 O177 O 0.81208 0.25749 0.19746
 O178 O 0.72545 0.20694 0.30036
 O179 O 0.74288 0.18858 0.19792
 O180 O 0.79410 0.27518 0.30008
 Cu181 Cu 0.70551 0.29545 0.22340
 Cu182 Cu 0.77444 0.22626 0.25107
 C183 C 0.77328 0.31809 0.30699
 C184 C 0.70600 0.20275 0.16855
 C185 C 0.68261 0.22790 0.30729
 C186 C 0.79797 0.29431 0.16788
 O187 O 0.31463 0.75380 0.17362
 O188 O 0.26313 0.66700 0.27685
 O189 O 0.24503 0.68474 0.17355
 O190 O 0.33209 0.73542 0.27674
 O191 O 0.27461 0.79302 0.29918
 O192 O 0.18794 0.74248 0.19655
 O193 O 0.20590 0.72485 0.29928
 O194 O 0.25726 0.81127 0.19663
 Cu195 Cu 0.29447 0.70440 0.22271
 Cu196 Cu 0.22562 0.77370 0.24999
 C197 C 0.29413 0.79702 0.16734
 C198 C 0.22667 0.68193 0.30643
 C199 C 0.20200 0.70563 0.16718
 C200 C 0.31743 0.77202 0.30624
 O201 O 0.81537 0.25438 0.67620
 O202 O 0.76465 0.16670 0.77913
 O203 O 0.74617 0.18482 0.67610
 O204 O 0.83298 0.23574 0.77942
 O205 O 0.77514 0.29288 0.80211
 O206 O 0.68871 0.24208 0.69942
 O207 O 0.70706 0.22408 0.80189
 O208 O 0.75762 0.31136 0.69947
 Cu209 Cu 0.79561 0.20467 0.72518
 Cu210 Cu 0.72633 0.27338 0.75282
 C211 C 0.79454 0.29747 0.67004
 C212 C 0.72808 0.18122 0.80879
 C213 C 0.70294 0.20535 0.66996
 C214 C 0.81805 0.27207 0.80915
 O215 O 0.31132 0.75811 0.69848
 O216 O 0.22492 0.70735 0.80145
 O217 O 0.24242 0.68882 0.69891
 O218 O 0.29298 0.77618 0.80086
 O219 O 0.23538 0.83354 0.77783
 O220 O 0.18466 0.74578 0.67536
 O221 O 0.16705 0.76446 0.77849
 O222 O 0.25384 0.81535 0.67488
 Cu223 Cu 0.27372 0.72684 0.75205
 Cu224 Cu 0.20441 0.79552 0.72408
 C225 C 0.29707 0.79482 0.66883
 C226 C 0.18200 0.72814 0.80838
 C227 C 0.20549 0.70269 0.66942
 C228 C 0.27195 0.81903 0.80755
 O229 O 0.27548 0.20578 0.70034
 O230 O 0.18734 0.25671 0.80218
 O231 O 0.20641 0.27483 0.70005
 O232 O 0.25712 0.18705 0.80263
 O233 O 0.31389 0.24368 0.82678
 O234 O 0.26305 0.33184 0.72363
 O235 O 0.24384 0.31362 0.82632
 O236 O 0.33237 0.26255 0.72391
 Cu237 Cu 0.22588 0.22533 0.74911
 Cu238 Cu 0.29402 0.29363 0.77778
 C239 C 0.31821 0.22637 0.69391
 C240 C 0.20080 0.29333 0.83186
 C241 C 0.22692 0.31760 0.69358
 C242 C 0.29356 0.20067 0.83251
 O243 O 0.73714 0.66774 0.72277
 O244 O 0.68595 0.75547 0.82573
 O245 O 0.66765 0.73687 0.72286
 O246 O 0.75626 0.68581 0.82543
 O247 O 0.81259 0.74295 0.80123
 O248 O 0.72437 0.79388 0.69926
 O249 O 0.74256 0.81234 0.80157
 O250 O 0.79361 0.72501 0.69912
 Cu251 Cu 0.70603 0.70574 0.77681
 Cu252 Cu 0.77397 0.77433 0.74810
 C253 C 0.77323 0.68218 0.69271
 C254 C 0.70614 0.79852 0.83144
 C255 C 0.68171 0.77318 0.69282
 C256 C 0.79923 0.70623 0.83097
 C257 C 0.29896 0.12723 0.10749
 C258 C 0.28755 0.15000 0.14806
 C259 C 0.80065 0.62847 0.60760
 C260 C 0.78900 0.65141 0.64794
 C261 C 0.70081 0.87334 0.10604
 C262 C 0.71230 0.85054 0.14668
 C263 C 0.19961 0.37156 0.60838
 C264 C 0.21124 0.34853 0.64877
 C265 C 0.85646 0.31874 0.08536
 C266 C 0.83009 0.30990 0.12411
 C267 C 0.35588 0.81984 0.58681
 C268 C 0.32932 0.81071 0.62531
 C269 C 0.14350 0.68125 0.08476
 C270 C 0.16987 0.69005 0.12348
 C271 C 0.64411 0.18025 0.58809
 C272 C 0.67068 0.18943 0.62653
 C273 C 0.70088 0.12792 0.89427
 C274 C 0.71249 0.15058 0.85372
 C275 C 0.19942 0.62909 0.39216
 C276 C 0.21097 0.65165 0.35156
 C277 C 0.29917 0.87231 0.89280
 C278 C 0.28754 0.84969 0.85234
 C279 C 0.80051 0.37102 0.39242
 C280 C 0.78895 0.34843 0.35194
 C281 C 0.14095 0.31876 0.91311
 C282 C 0.16790 0.30941 0.87490
 C283 C 0.64205 0.82018 0.41208
 C284 C 0.66888 0.81106 0.37370
 C285 C 0.85910 0.68095 0.91237
 C286 C 0.83214 0.69021 0.87410
 C287 C 0.35797 0.17991 0.41331
 C288 C 0.33112 0.18911 0.37492
 C289 C 0.68111 0.85768 0.91331
 C290 C 0.69024 0.83100 0.87487
 C291 C 0.18035 0.35750 0.41301
 C292 C 0.18967 0.33062 0.37476
 C293 C 0.31833 0.14117 0.91448
 C294 C 0.30933 0.16800 0.87599
 C295 C 0.81971 0.64267 0.41216
 C296 C 0.81035 0.66960 0.37383
 C297 C 0.12933 0.70106 0.89429
 C298 C 0.15175 0.71260 0.85359
 C299 C 0.62942 0.20048 0.39267
 C300 C 0.65211 0.21220 0.35223
 C301 C 0.87069 0.29911 0.89496
 C302 C 0.84829 0.28760 0.85430
 C303 C 0.37061 0.79945 0.39149
 C304 C 0.34793 0.78772 0.35110
 C305 C 0.31942 0.85585 0.08541
 C306 C 0.31021 0.82926 0.12388
 C307 C 0.81957 0.35653 0.58807
 C308 C 0.81037 0.32992 0.62658
 C309 C 0.68080 0.14388 0.08688
 C310 C 0.68997 0.17047 0.12525
 C311 C 0.18046 0.64358 0.58776
 C312 C 0.18967 0.67020 0.62613
 C313 C 0.87333 0.70104 0.10756
 C314 C 0.85020 0.71275 0.14780
 C315 C 0.37217 0.19925 0.60875
 C316 C 0.34916 0.21078 0.64914
 C317 C 0.12662 0.29925 0.10845
 C318 C 0.14972 0.28762 0.14878
 C319 C 0.62777 0.80039 0.60757
 C320 C 0.65076 0.78880 0.64799
   
