data_POSCAR
  _audit_creation_date              2014-09-24
  _audit_creation_method            'ToBaCCo'
  _symmetry_space_group_name_H-M    'P1'
  _symmetry_Int_Tables_number       1
  _symmetry_cell_setting            triclinic
  loop_
  _symmetry_equiv_pos_as_xyz
 x,y,z
_cell_length_a 46.0799
_cell_length_b 48.3812
_cell_length_c 46.0799
_cell_angle_alpha 89.969200
_cell_angle_beta 90.001300
_cell_angle_gamma 90.024000
loop_
  _atom_site_label
  _atom_site_type_symbol
  _atom_site_fract_x
  _atom_site_fract_y
  _atom_site_fract_z
Si1 Si 0.24987 0.25003 0.25020
 Si2 Si 0.74997 0.74990 0.24988
 Si3 Si 0.74974 0.24988 0.75023
 Si4 Si 0.24985 0.75001 0.74986
 C5 C 0.04113 0.04137 0.00994
 H6 H 0.04165 0.04262 -0.01349
 C7 C 0.05823 0.05922 0.02653
 H8 H 0.07208 0.07422 0.01588
 C9 C 0.02222 0.02055 0.05255
 H10 H 0.00785 0.00577 0.06265
 C11 C 0.03896 0.03801 0.06994
 H12 H 0.03765 0.03642 0.09336
 N13 N 0.02386 0.02229 0.02311
 C14 C 0.01184 -0.04290 -0.04123
 H15 H -0.01160 -0.04407 -0.04175
 C16 C 0.02836 -0.06072 -0.05842
 H17 H 0.01766 -0.07561 -0.07233
 C18 C 0.05452 -0.02230 -0.02223
 H19 H 0.06467 -0.00762 -0.00780
 C20 C 0.07185 -0.03973 -0.03906
 H21 H 0.09527 -0.03822 -0.03775
 Zn22 Zn 0.00107 -0.00084 -0.00098
 N23 N 0.02507 -0.02395 -0.02387
 C24 C -0.02017 0.02095 -0.05433
 N25 N -0.02173 0.02246 -0.02487
 C26 C -0.03896 0.04144 -0.01152
 C27 C -0.05611 0.05940 -0.02792
 C28 C -0.03696 0.03854 -0.07155
 C29 C -0.00969 -0.04322 0.03895
 C30 C -0.02621 -0.06111 0.05608
 C31 C -0.06970 -0.04000 0.03691
 C32 C -0.05238 -0.02248 0.02014
 N33 N -0.02293 -0.02414 0.02173
 H34 H -0.00583 0.00625 -0.06457
 H35 H -0.03942 0.04250 0.01193
 H36 H -0.06993 0.07430 -0.01712
 H37 H -0.03572 0.03713 -0.09498
 H38 H 0.01375 -0.04439 0.03943
 H39 H -0.01550 -0.07608 0.06991
 H40 H -0.09313 -0.03845 0.03567
 H41 H -0.06253 -0.00771 0.00582
 C42 C 0.05864 -0.05903 -0.05738
 C43 C 0.05719 0.05744 0.05680
 C44 C -0.05648 -0.05939 0.05512
 C45 C -0.05516 0.05785 -0.05820
 C46 C 0.04086 0.54288 0.51179
 H47 H 0.04140 0.54405 0.48835
 C48 C 0.05802 0.56072 0.52832
 H49 H 0.07192 0.57565 0.51762
 C50 C 0.02187 0.52223 0.55446
 H51 H 0.00746 0.50752 0.56460
 C52 C 0.03867 0.53970 0.57180
 H53 H 0.03735 0.53818 0.59522
 N54 N 0.02353 0.52388 0.52501
 C55 C 0.01144 0.45850 0.46092
 H56 H -0.01200 0.45737 0.46040
 C57 C 0.02793 0.44061 0.44379
 H58 H 0.01720 0.42569 0.42993
 C59 C 0.05416 0.47908 0.47985
 H60 H 0.06433 0.49379 0.49423
 C61 C 0.07146 0.46156 0.46309
 H62 H 0.09488 0.46304 0.46439
 Zn63 Zn 0.00073 0.50072 0.50097
 N64 N 0.02471 0.47749 0.47821
 C65 C -0.02031 0.52236 0.44748
 N66 N -0.02198 0.52398 0.47693
 C67 C -0.03926 0.54300 0.49014
 C68 C -0.05637 0.56088 0.47360
 C69 C -0.03705 0.53986 0.43013
 C70 C -0.01022 0.45848 0.54101
 C71 C -0.02683 0.44057 0.55804
 C72 C -0.07022 0.46165 0.53862
 C73 C -0.05282 0.47918 0.52195
 N74 N -0.02337 0.47753 0.52370
 H75 H -0.00594 0.50762 0.43735
 H76 H -0.03980 0.54415 0.51358
 H77 H -0.07024 0.57581 0.48429
 H78 H -0.03574 0.53835 0.40671
 H79 H 0.01322 0.45730 0.54161
 H80 H -0.01619 0.42559 0.57191
 H81 H -0.09364 0.46317 0.53722
 H82 H -0.06290 0.49393 0.50755
 C83 C 0.05820 0.44224 0.44483
 C84 C 0.05697 0.55904 0.55859
 C85 C -0.05709 0.44225 0.55689
 C86 C -0.05532 0.55921 0.44333
 C87 C 0.53922 0.04131 0.51157
 H88 H 0.53971 0.04251 0.48813
 C89 C 0.55636 0.05918 0.52809
 H90 H 0.57020 0.07414 0.51739
 C91 C 0.52036 0.02057 0.55425
 H92 H 0.50600 0.00580 0.56439
 C93 C 0.53714 0.03806 0.57158
 H94 H 0.53587 0.03650 0.59500
 N95 N 0.52197 0.02225 0.52479
 C96 C 0.51010 -0.04304 0.46057
 H97 H 0.48666 -0.04424 0.46000
 C98 C 0.52668 -0.06081 0.44338
 H99 H 0.51603 -0.07570 0.42943
 C100 C 0.55273 -0.02238 0.47964
 H101 H 0.56283 -0.00770 0.49409
 C102 C 0.57011 -0.03977 0.46282
 H103 H 0.59352 -0.03821 0.46415
 Zn104 Zn 0.49922 -0.00093 0.50073
 N105 N 0.52328 -0.02407 0.47794
 C106 C 0.47820 0.02078 0.44727
 N107 N 0.47648 0.02233 0.47672
 C108 C 0.45919 0.04132 0.48997
 C109 C 0.44214 0.05927 0.47345
 C110 C 0.46151 0.03836 0.42995
 C111 C 0.48836 -0.04323 0.54074
 C112 C 0.47179 -0.06114 0.55781
 C113 C 0.42835 -0.04010 0.53844
 C114 C 0.44572 -0.02256 0.52174
 N115 N 0.47517 -0.02419 0.52345
 H116 H 0.49258 0.00607 0.43712
 H117 H 0.45862 0.04241 0.51341
 H118 H 0.42828 0.07420 0.48416
 H119 H 0.46288 0.03693 0.40653
 H120 H 0.51180 -0.04438 0.54131
 H121 H 0.48246 -0.07610 0.57168
 H122 H 0.40493 -0.03859 0.53708
 H123 H 0.43561 -0.00782 0.50735
 C124 C 0.55695 -0.05907 0.44445
 C125 C 0.55537 0.05745 0.55837
 C126 C 0.44152 -0.05948 0.55671
 C127 C 0.44326 0.05770 0.44318
 C128 C 0.53898 0.54305 0.00990
 H129 H 0.53950 0.54430 -0.01353
 C130 C 0.55618 0.56082 0.02649
 H131 H 0.57009 0.57576 0.01584
 C132 C 0.52003 0.52226 0.05252
 H133 H 0.50562 0.50751 0.06261
 C134 C 0.53686 0.53965 0.06990
 H135 H 0.53558 0.53803 0.09332
 N136 N 0.52166 0.52401 0.02307
 C137 C 0.50974 0.45870 -0.04114
 H138 H 0.48630 0.45755 -0.04174
 C139 C 0.52631 0.44081 -0.05819
 H140 H 0.51564 0.42588 -0.07209
 C141 C 0.55238 0.47931 -0.02204
 H142 H 0.56249 0.49401 -0.00762
 C143 C 0.56974 0.46180 -0.03873
 H144 H 0.59316 0.46328 -0.03733
 Zn145 Zn 0.49889 0.50086 -0.00102
 N146 N 0.52293 0.47769 -0.02380
 C147 C 0.47782 0.52257 -0.05447
 N148 N 0.47615 0.52413 -0.02501
 C149 C 0.45888 0.54313 -0.01176
 C150 C 0.44180 0.56108 -0.02826
 C151 C 0.46111 0.54014 -0.07178
 C152 C 0.48808 0.45853 0.03892
 C153 C 0.47157 0.44065 0.05606
 C154 C 0.42807 0.46178 0.03692
 C155 C 0.44540 0.47929 0.02013
 N156 N 0.47485 0.47761 0.02171
 H157 H 0.49219 0.50785 -0.06463
 H158 H 0.45834 0.54424 0.01168
 H159 H 0.42795 0.57601 -0.01754
 H160 H 0.46244 0.53869 -0.09520
 H161 H 0.51152 0.45734 0.03939
 H162 H 0.48227 0.42567 0.06988
 H163 H 0.40465 0.46334 0.03569
 H164 H 0.43525 0.49407 0.00581
 C165 C 0.55658 0.44245 -0.05703
 C166 C 0.55518 0.55900 0.05675
 C167 C 0.44130 0.44238 0.05511
 C168 C 0.44287 0.55948 -0.05854
 C169 C 0.22842 -0.22940 -0.22872
 C170 C 0.21347 -0.21480 -0.21373
 C171 C 0.19571 -0.19722 -0.19589
 C172 C 0.17813 -0.20868 -0.17424
 C173 C 0.16093 -0.19157 -0.15686
 C174 C 0.16113 -0.16273 -0.16092
 C175 C 0.17888 -0.15144 -0.18278
 C176 C 0.19603 -0.16859 -0.20013
 C177 C 0.14295 -0.14451 -0.14244
 C178 C 0.15388 -0.11914 -0.13224
 C179 C 0.13674 -0.10195 -0.11492
 C180 C 0.10846 -0.10985 -0.10757
 C181 C 0.09738 -0.13504 -0.11756
 C182 C 0.11450 -0.15228 -0.13487
 C183 C 0.09082 -0.09205 -0.08984
 C184 C 0.07611 -0.07705 -0.07502
 H185 H 0.17778 -0.23082 -0.17072
 H186 H 0.14779 -0.20086 -0.13999
 H187 H 0.17922 -0.12937 -0.18670
 H188 H 0.20951 -0.15951 -0.21689
 H189 H 0.17582 -0.11275 -0.13736
 H190 H 0.14555 -0.08253 -0.10723
 H191 H 0.07549 -0.14131 -0.11207
 H192 H 0.10534 -0.17150 -0.14268
 C193 C 0.22726 0.27176 0.27291
 C194 C 0.21237 0.28635 0.28797
 C195 C 0.19471 0.30393 0.30591
 C196 C 0.19887 0.33257 0.30547
 C197 C 0.18181 0.34970 0.32294
 C198 C 0.16031 0.33837 0.34110
 C199 C 0.15627 0.30954 0.34134
 C200 C 0.17338 0.29245 0.32387
 C201 C 0.14220 0.35657 0.35968
 C202 C 0.11231 0.35148 0.36299
 C203 C 0.09527 0.36873 0.38037
 C204 C 0.10786 0.39125 0.39467
 C205 C 0.13757 0.39645 0.39157
 C206 C 0.15464 0.37925 0.37420
 C207 C 0.09029 0.40911 0.41240
 C208 C 0.07563 0.42416 0.42721
 H209 H 0.21527 0.34168 0.29159
 H210 H 0.18518 0.37183 0.32197
 H211 H 0.14016 0.30017 0.35534
 H212 H 0.17004 0.27028 0.32443
 H213 H 0.10203 0.33441 0.35181
 H214 H 0.07227 0.36457 0.38255
 H215 H 0.14754 0.41379 0.40261
 H216 H 0.17765 0.38350 0.37240
 C217 C 0.72736 -0.22831 0.27253
 C218 C 0.71240 -0.21375 0.28755
 C219 C 0.69459 -0.19628 0.30545
 C220 C 0.67713 -0.20787 0.32713
 C221 C 0.65986 -0.19088 0.34457
 C222 C 0.65987 -0.16204 0.34055
 C223 C 0.67749 -0.15061 0.31867
 C224 C 0.69472 -0.16764 0.30125
 C225 C 0.64161 -0.14395 0.35909
 C226 C 0.65239 -0.11853 0.36930
 C227 C 0.63517 -0.10147 0.38669
 C228 C 0.60697 -0.10956 0.39410
 C229 C 0.59604 -0.13480 0.38410
 C230 C 0.61323 -0.15191 0.36672
 C231 C 0.58925 -0.09189 0.41190
 C232 C 0.57448 -0.07699 0.42676
 H233 H 0.67693 -0.23001 0.33062
 H234 H 0.64682 -0.20027 0.36146
 H235 H 0.67768 -0.12854 0.31477
 H236 H 0.70809 -0.15847 0.28447
 H237 H 0.67427 -0.11199 0.36414
 H238 H 0.64387 -0.08200 0.39439
 H239 H 0.57420 -0.14122 0.38964
 H240 H 0.60418 -0.17117 0.35890
 C241 C 0.72710 0.27163 -0.22711
 C242 C 0.71215 0.28625 -0.21214
 C243 C 0.69437 0.30385 -0.19435
 C244 C 0.67262 0.29244 -0.17686
 C245 C 0.65534 0.30956 -0.15958
 C246 C 0.65964 0.33837 -0.15956
 C247 C 0.68158 0.34962 -0.17724
 C248 C 0.69880 0.33246 -0.19451
 C249 C 0.64133 0.35661 -0.14122
 C250 C 0.65369 0.37910 -0.12632
 C251 C 0.63643 0.39635 -0.10917
 C252 C 0.60662 0.39137 -0.10669
 C253 C 0.59411 0.36903 -0.12137
 C254 C 0.61134 0.35174 -0.13852
 C255 C 0.58888 0.40925 -0.08916
 C256 C 0.57410 0.42434 -0.07450
 H257 H 0.66906 0.27030 -0.17652
 H258 H 0.63889 0.30025 -0.14595
 H259 H 0.68516 0.37173 -0.17801
 H260 H 0.71553 0.34152 -0.20804
 H261 H 0.67676 0.38317 -0.12765
 H262 H 0.64634 0.41354 -0.09783
 H263 H 0.57104 0.36504 -0.11966
 H264 H 0.60112 0.33481 -0.15001
 C265 C -0.22741 0.22833 -0.22709
 C266 C -0.21227 0.21390 -0.21210
 C267 C -0.19423 0.19655 -0.19427
 C268 C -0.20688 0.17811 -0.17458
 C269 C -0.18939 0.16109 -0.15740
 C270 C -0.15896 0.16228 -0.15972
 C271 C -0.14645 0.18094 -0.17956
 C272 C -0.16399 0.19795 -0.19670
 C273 C -0.14037 0.14405 -0.14163
 C274 C -0.11562 0.13135 -0.15354
 C275 C -0.09826 0.11403 -0.13656
 C276 C -0.10536 0.10918 -0.10748
 C277 C -0.12989 0.12176 -0.09540
 C278 C -0.14729 0.13908 -0.11234
 C279 C -0.08760 0.09118 -0.09008
 C280 C -0.07278 0.07602 -0.07554
 H281 H -0.23027 0.17680 -0.17260
 H282 H -0.19968 0.14670 -0.14263
 H283 H -0.12311 0.18259 -0.18158
 H284 H -0.15397 0.21221 -0.21183
 H285 H -0.10993 0.13447 -0.17611
 H286 H -0.07937 0.10432 -0.14615
 H287 H -0.13555 0.11820 -0.07288
 H288 H -0.16598 0.14883 -0.10245
 C289 C -0.22729 0.72831 0.27265
 C290 C -0.21221 0.71391 0.28773
 C291 C -0.19422 0.69666 0.30571
 C292 C -0.20689 0.67691 0.32393
 C293 C -0.18944 0.66004 0.34131
 C294 C -0.15903 0.66269 0.34066
 C295 C -0.14651 0.68264 0.32227
 C296 C -0.16401 0.69950 0.30493
 C297 C -0.14046 0.64465 0.35898
 C298 C -0.11449 0.63356 0.34792
 C299 C -0.09715 0.61641 0.36512
 C300 C -0.10548 0.61015 0.39357
 C301 C -0.13122 0.62113 0.40481
 C302 C -0.14862 0.63826 0.38765
 C303 C -0.08774 0.59230 0.41116
 C304 C -0.07292 0.57726 0.42585
 H305 H -0.23026 0.67448 0.32463
 H306 H -0.19971 0.64464 0.35493
 H307 H -0.12320 0.68542 0.32156
 H308 H -0.15398 0.71478 0.29094
 H309 H -0.10782 0.63779 0.32583
 H310 H -0.07731 0.60794 0.35617
 H311 H -0.13784 0.61646 0.42683
 H312 H -0.16828 0.64676 0.39691
 C313 C 0.27264 0.22842 0.27291
 C314 C 0.28767 0.21394 0.28796
 C315 C 0.30553 0.19653 0.30590
 C316 C 0.33577 0.19898 0.30494
 C317 C 0.35313 0.18193 0.32223
 C318 C 0.34043 0.16221 0.34076
 C319 C 0.30999 0.15996 0.34160
 C320 C 0.29268 0.17701 0.32427
 C321 C 0.35884 0.14397 0.35903
 C322 C 0.35075 0.13776 0.38776
 C323 C 0.36799 0.12044 0.40487
 C324 C 0.39349 0.10908 0.39351
 C325 C 0.40176 0.11516 0.36499
 C326 C 0.38457 0.13250 0.34785
 C327 C 0.41109 0.09106 0.41106
 C328 C 0.42578 0.07589 0.42572
 H329 H 0.34593 0.21408 0.29084
 H330 H 0.37647 0.18441 0.32137
 H331 H 0.29958 0.14474 0.35533
 H332 H 0.26929 0.17488 0.32511
 H333 H 0.33128 0.14656 0.39711
 H334 H 0.36143 0.11591 0.42694
 H335 H 0.42142 0.10640 0.35596
 H336 H 0.39118 0.13658 0.32571
 C337 C 0.27143 0.72964 -0.22863
 C338 C 0.28653 0.71523 -0.21357
 C339 C 0.30451 0.69793 -0.19563
 C340 C 0.33473 0.69880 -0.19847
 C341 C 0.35219 0.68183 -0.18120
 C342 C 0.33962 0.66375 -0.16082
 C343 C 0.30921 0.66308 -0.15810
 C344 C 0.29179 0.68006 -0.17541
 C345 C 0.35813 0.64557 -0.14259
 C346 C 0.35149 0.64125 -0.11312
 C347 C 0.36881 0.62397 -0.09604
 C348 C 0.39294 0.61076 -0.10816
 C349 C 0.39976 0.61496 -0.13743
 C350 C 0.38250 0.63225 -0.15454
 C351 C 0.41060 0.59278 -0.09063
 C352 C 0.42534 0.57764 -0.07598
 H353 H 0.34479 0.71261 -0.21402
 H354 H 0.37554 0.68307 -0.18355
 H355 H 0.29886 0.64914 -0.14290
 H356 H 0.26841 0.67915 -0.17310
 H357 H 0.33311 0.65148 -0.10319
 H358 H 0.36337 0.62091 -0.07339
 H359 H 0.41835 0.60476 -0.14705
 H360 H 0.38795 0.63486 -0.17723
 C361 C -0.22733 -0.22857 0.22702
 C362 C -0.21225 -0.21419 0.21188
 C363 C -0.19427 -0.19696 0.19387
 C364 C -0.16659 -0.18917 0.20332
 C365 C -0.14917 -0.17226 0.18592
 C366 C -0.15923 -0.16293 0.15879
 C367 C -0.18707 -0.17095 0.14946
 C368 C -0.20446 -0.18784 0.16690
 C369 C -0.14083 -0.14481 0.14038
 C370 C -0.13967 -0.14866 0.11013
 C371 C -0.12244 -0.13149 0.09282
 C372 C -0.10618 -0.11025 0.10549
 C373 C -0.10715 -0.10627 0.13555
 C374 C -0.12434 -0.12342 0.15290
 C375 C -0.08861 -0.09245 0.08765
 C376 C -0.07394 -0.07744 0.07278
 H377 H -0.15847 -0.19617 0.22413
 H378 H -0.12771 -0.16675 0.19355
 H379 H -0.19557 -0.16382 0.12887
 H380 H -0.22589 -0.19369 0.15942
 H381 H -0.15181 -0.16516 0.09990
 H382 H -0.12180 -0.13479 0.06958
 H383 H -0.09472 -0.08982 0.14556
 H384 H -0.12507 -0.11969 0.17605
 C385 C -0.22771 0.27157 0.72737
 C386 C -0.21279 0.28614 0.71228
 C387 C -0.19505 0.30367 0.69434
 C388 C -0.17019 0.29307 0.68093
 C389 C -0.15291 0.31015 0.66359
 C390 C -0.16031 0.33810 0.65940
 C391 C -0.18537 0.34853 0.67297
 C392 C -0.20260 0.33142 0.69032
 C393 C -0.14195 0.35630 0.64104
 C394 C -0.15474 0.37562 0.62211
 C395 C -0.13746 0.39287 0.60497
 C396 C -0.10719 0.39108 0.60650
 C397 C -0.09424 0.37190 0.62519
 C398 C -0.11149 0.35461 0.64235
 C399 C -0.08944 0.40900 0.58899
 C400 C -0.07465 0.42411 0.57434
 H401 H -0.16419 0.27160 0.68385
 H402 H -0.13396 0.30142 0.65315
 H403 H -0.19143 0.37003 0.67050
 H404 H -0.22176 0.33985 0.70068
 H405 H -0.17811 0.37717 0.62032
 H406 H -0.14770 0.40760 0.59051
 H407 H -0.07083 0.37040 0.62661
 H408 H -0.10100 0.34021 0.65696
 C409 C 0.27121 -0.22951 0.72821
 C410 C 0.28613 -0.21500 0.71307
 C411 C 0.30386 -0.19753 0.69505
 C412 C 0.32906 -0.20803 0.68219
 C413 C 0.34632 -0.19102 0.66473
 C414 C 0.33856 -0.16327 0.65989
 C415 C 0.31316 -0.15293 0.67292
 C416 C 0.29596 -0.16997 0.69039
 C417 C 0.35687 -0.14515 0.64139
 C418 C 0.34404 -0.12636 0.62191
 C419 C 0.36129 -0.10919 0.60464
 C420 C 0.39156 -0.11053 0.60659
 C421 C 0.40454 -0.12917 0.62584
 C422 C 0.38734 -0.14639 0.64312
 C423 C 0.40925 -0.09266 0.58897
 C424 C 0.42400 -0.07758 0.57424
 H425 H 0.33534 -0.22936 0.68561
 H426 H 0.36553 -0.19968 0.65472
 H427 H 0.30682 -0.13158 0.66994
 H428 H 0.27654 -0.16161 0.70032
 H429 H 0.32067 -0.12517 0.61979
 H430 H 0.35101 -0.09487 0.58975
 H431 H 0.42796 -0.13032 0.62759
 H432 H 0.39786 -0.16037 0.65816
 C433 C 0.27245 0.27172 0.22739
 C434 C 0.28737 0.28630 0.21231
 C435 C 0.30509 0.30385 0.19438
 C436 C 0.31491 0.32927 0.20504
 C437 C 0.33197 0.34645 0.18760
 C438 C 0.33946 0.33842 0.15922
 C439 C 0.32953 0.31279 0.14873
 C440 C 0.31245 0.29564 0.16621
 C441 C 0.35748 0.35673 0.14064
 C442 C 0.37940 0.34563 0.12285
 C443 C 0.39638 0.36293 0.10544
 C444 C 0.39167 0.39150 0.10553
 C445 C 0.36991 0.40274 0.12309
 C446 C 0.35292 0.38550 0.14054
 C447 C 0.40920 0.40931 0.08767
 C448 C 0.42385 0.42434 0.07278
 H449 H 0.30940 0.33579 0.22684
 H450 H 0.33960 0.36587 0.19643
 H451 H 0.33461 0.30618 0.12687
 H452 H 0.30488 0.27604 0.15771
 H453 H 0.38368 0.32363 0.12272
 H454 H 0.41323 0.35402 0.09198
 H455 H 0.36603 0.42482 0.12326
 H456 H 0.33597 0.39463 0.15368
 C457 C 0.22716 0.22824 0.22764
 C458 C 0.21217 0.21360 0.21270
 C459 C 0.19438 0.19599 0.19491
 C460 C 0.19090 0.16810 0.20217
 C461 C 0.17375 0.15091 0.18486
 C462 C 0.15981 0.16141 0.16001
 C463 C 0.16340 0.18951 0.15293
 C464 C 0.18060 0.20666 0.17028
 C465 C 0.14165 0.14312 0.14157
 C466 C 0.11524 0.15267 0.12996
 C467 C 0.09812 0.13539 0.11268
 C468 C 0.10717 0.10836 0.10676
 C469 C 0.13341 0.09868 0.11815
 C470 C 0.15055 0.11592 0.13544
 C471 C 0.08950 0.09053 0.08908
 C472 C 0.07475 0.07549 0.07433
 H473 H 0.20142 0.15965 0.22124
 H474 H 0.17109 0.12948 0.19110
 H475 H 0.15327 0.19812 0.13376
 H476 H 0.18322 0.22821 0.16441
 H477 H 0.10761 0.17338 0.13458
 H478 H 0.07779 0.14306 0.10404
 H479 H 0.14066 0.07782 0.11363
 H480 H 0.17094 0.10808 0.14372
 C481 C 0.22835 0.72936 0.72855
 C482 C 0.21332 0.71475 0.71363
 C483 C 0.19546 0.69720 0.69584
 C484 C 0.17070 0.70787 0.68231
 C485 C 0.15333 0.69080 0.66505
 C486 C 0.16056 0.66279 0.66109
 C487 C 0.18552 0.65227 0.67479
 C488 C 0.20283 0.66938 0.69206
 C489 C 0.14215 0.64461 0.64276
 C490 C 0.15487 0.62515 0.62399
 C491 C 0.13753 0.60795 0.60685
 C492 C 0.10727 0.60995 0.60824
 C493 C 0.09439 0.62926 0.62681
 C494 C 0.11169 0.64650 0.64395
 C495 C 0.08947 0.59210 0.59072
 C496 C 0.07461 0.57707 0.57606
 H497 H 0.16484 0.72940 0.68504
 H498 H 0.13448 0.69959 0.65450
 H499 H 0.19144 0.63073 0.67249
 H500 H 0.22191 0.66089 0.70251
 H501 H 0.17824 0.62344 0.62229
 H502 H 0.14773 0.59312 0.59249
 H503 H 0.07098 0.63092 0.62812
 H504 H 0.10124 0.66101 0.65846
 C505 C 0.72701 0.22806 0.72772
 C506 C 0.71197 0.21343 0.71284
 C507 C 0.69409 0.19584 0.69511
 C508 C 0.66898 0.20635 0.68208
 C509 C 0.65158 0.18924 0.66489
 C510 C 0.65911 0.16136 0.66050
 C511 C 0.68442 0.15101 0.67371
 C512 C 0.70177 0.16816 0.69089
 C513 C 0.64066 0.14314 0.64227
 C514 C 0.65335 0.12402 0.62308
 C515 C 0.63597 0.10679 0.60602
 C516 C 0.60571 0.10841 0.60790
 C517 C 0.59287 0.12737 0.62689
 C518 C 0.61021 0.14464 0.64396
 C519 C 0.58788 0.09054 0.59044
 C520 C 0.57301 0.07549 0.57581
 H521 H 0.66288 0.22777 0.68514
 H522 H 0.63245 0.19790 0.65474
 H523 H 0.69059 0.12957 0.67107
 H524 H 0.72112 0.15979 0.70096
 H525 H 0.67671 0.12262 0.62100
 H526 H 0.64614 0.09224 0.59134
 H527 H 0.56946 0.12873 0.62858
 H528 H 0.59979 0.15888 0.65878
 C529 C 0.72718 0.72815 0.22735
 C530 C 0.71209 0.71361 0.21242
 C531 C 0.69412 0.69616 0.19464
 C532 C 0.68992 0.66843 0.20221
 C533 C 0.67254 0.65141 0.18493
 C534 C 0.65910 0.66192 0.15981
 C535 C 0.66343 0.68985 0.15242
 C536 C 0.68084 0.70684 0.16973
 C537 C 0.64068 0.64382 0.14141
 C538 C 0.61462 0.65381 0.12942
 C539 C 0.59727 0.63671 0.11219
 C540 C 0.60573 0.60943 0.10668
 C541 C 0.63162 0.59932 0.11845
 C542 C 0.64900 0.61637 0.13571
 C543 C 0.58784 0.59179 0.08902
 C544 C 0.57291 0.57690 0.07428
 H545 H 0.70004 0.65998 0.22149
 H546 H 0.66932 0.63011 0.19141
 H547 H 0.65369 0.69847 0.13304
 H548 H 0.68402 0.72826 0.16364
 H549 H 0.60745 0.67473 0.13371
 H550 H 0.57722 0.64472 0.10324
 H551 H 0.63841 0.57826 0.11426
 H552 H 0.66911 0.60819 0.14429
   
