data_POSCAR
  _audit_creation_date              2014-09-24
  _audit_creation_method            'ToBaCCo'
  _symmetry_space_group_name_H-M    'P1'
  _symmetry_Int_Tables_number       1
  _symmetry_cell_setting            triclinic
  loop_
  _symmetry_equiv_pos_as_xyz
 x,y,z
_cell_length_a 20.7352
_cell_length_b 20.7369
_cell_length_c 16.4503
_cell_angle_alpha 89.946000
_cell_angle_beta 89.948200
_cell_angle_gamma 89.994700
loop_
  _atom_site_label
  _atom_site_type_symbol
  _atom_site_fract_x
  _atom_site_fract_y
  _atom_site_fract_z
C1 C -0.13623 0.31001 0.07540
 C2 C -0.16845 0.31861 0.00097
 C3 C -0.13647 0.30943 -0.07355
 C4 C -0.06820 0.30527 -0.07417
 C5 C -0.03380 0.30562 0.00037
 C6 C -0.06781 0.30647 0.07539
 C7 C -0.03235 0.30808 0.14831
 C8 C 0.03474 0.30737 0.14780
 C9 C 0.06927 0.30532 0.07439
 C10 C 0.03484 0.30463 -0.00012
 C11 C -0.03328 0.30532 -0.14758
 C12 C 0.03370 0.30365 -0.14803
 C13 C 0.06891 0.30242 -0.07509
 C14 C 0.13732 0.30368 -0.07511
 C15 C 0.16993 0.31027 -0.00092
 C16 C 0.13745 0.30604 0.07343
 H17 H -0.05600 0.31286 0.20664
 H18 H 0.05933 0.31086 0.20563
 H19 H -0.05723 0.30958 -0.20572
 H20 H 0.05757 0.30636 -0.20643
 H21 H -0.22078 0.32038 0.00106
 H22 H 0.22228 0.30895 -0.00047
 C23 C 0.36153 0.80745 0.57368
 C24 C 0.32888 0.80898 0.49938
 C25 C 0.36176 0.80720 0.42522
 C26 C 0.42986 0.80998 0.42473
 C27 C 0.46388 0.81152 0.49964
 C28 C 0.42963 0.81017 0.57443
 C29 C 0.46428 0.81220 0.64775
 C30 C 0.53140 0.81256 0.64788
 C31 C 0.56636 0.81088 0.57469
 C32 C 0.53234 0.81186 0.49975
 C33 C 0.46473 0.81189 0.35152
 C34 C 0.53183 0.81234 0.35161
 C35 C 0.56657 0.81070 0.42491
 C36 C 0.63469 0.80854 0.42555
 C37 C 0.66734 0.81059 0.49993
 C38 C 0.63451 0.80887 0.57426
 H39 H 0.43978 0.81440 0.70579
 H40 H 0.55562 0.81505 0.70603
 H41 H 0.44041 0.81396 0.29340
 H42 H 0.55621 0.81485 0.29351
 H43 H 0.27677 0.80427 0.49928
 H44 H 0.71948 0.80649 0.50002
 C45 C 1.13519 0.68937 0.07186
 C46 C 1.16781 0.68493 -0.00241
 C47 C 1.13544 0.69247 -0.07670
 C48 C 1.06707 0.69469 -0.07703
 C49 C 1.03285 0.69253 -0.00226
 C50 C 1.06701 0.69080 0.07248
 C51 C 1.03217 0.68919 0.14578
 C52 C 0.96506 0.69008 0.14589
 C53 C 0.93026 0.69239 0.07271
 C54 C 0.96431 0.69334 -0.00215
 C55 C 1.03196 0.69501 -0.15018
 C56 C 0.96493 0.69588 -0.15007
 C57 C 0.92997 0.69628 -0.07680
 C58 C 0.86156 0.69527 -0.07617
 C59 C 0.82927 0.68842 -0.00172
 C60 C 0.86216 0.69217 0.07231
 H61 H 1.05648 0.68532 0.20377
 H62 H 0.94062 0.68701 0.20394
 H63 H 1.05584 0.69208 -0.20855
 H64 H 0.94086 0.69366 -0.20831
 H65 H 1.22016 0.68573 -0.00175
 H66 H 0.77693 0.69014 -0.00070
 C67 C 0.36569 0.19109 0.42674
 C68 C 0.33278 0.18912 0.50091
 C69 C 0.36530 0.19147 0.57529
 C70 C 0.43350 0.18970 0.57606
 C71 C 0.46784 0.18849 0.50127
 C72 C 0.43385 0.18932 0.42633
 C73 C 0.46883 0.18778 0.35315
 C74 C 0.53595 0.18827 0.35326
 C75 C 0.57064 0.19028 0.42656
 C76 C 0.53635 0.18896 0.50139
 C77 C 0.46820 0.18842 0.64937
 C78 C 0.53535 0.18884 0.64949
 C79 C 0.57034 0.19063 0.57630
 C80 C 0.63849 0.19338 0.57579
 C81 C 0.67140 0.19151 0.50151
 C82 C 0.63878 0.19301 0.42718
 H83 H 0.44459 0.18529 0.29500
 H84 H 0.56045 0.18615 0.29520
 H85 H 0.44374 0.18613 0.70744
 H86 H 0.55958 0.18682 0.70766
 H87 H 0.28061 0.19304 0.50069
 H88 H 0.72350 0.19612 0.50148
 C89 C 0.69040 -0.13655 0.07456
 C90 C 0.68145 -0.16850 0.00006
 C91 C 0.69059 -0.13633 -0.07434
 C92 C 0.69501 -0.06808 -0.07468
 C93 C 0.69493 -0.03392 0.00002
 C94 C 0.69419 -0.06816 0.07486
 C95 C 0.69300 -0.03294 0.14800
 C96 C 0.69397 0.03414 0.14782
 C97 C 0.69568 0.06884 0.07455
 C98 C 0.69609 0.03468 -0.00014
 C99 C 0.69498 -0.03293 -0.14793
 C100 C 0.69682 0.03405 -0.14806
 C101 C 0.69817 0.06900 -0.07494
 C102 C 0.69691 0.13742 -0.07456
 C103 C 0.69045 0.16973 -0.00017
 C104 C 0.69482 0.13695 0.07393
 H105 H 0.68838 -0.05673 0.20625
 H106 H 0.69095 0.05860 0.20580
 H107 H 0.69061 -0.05670 -0.20617
 H108 H 0.69412 0.05814 -0.20632
 H109 H 0.67951 -0.22083 -0.00005
 H110 H 0.69178 0.22208 0.00062
 C111 C 0.19271 0.36203 0.57470
 C112 C 0.19130 0.32920 0.50049
 C113 C 0.19308 0.36186 0.42616
 C114 C 0.19014 0.42999 0.42541
 C115 C 0.18843 0.46420 0.50020
 C116 C 0.18988 0.43015 0.57515
 C117 C 0.18782 0.46503 0.64831
 C118 C 0.18728 0.53216 0.64814
 C119 C 0.18873 0.56693 0.57480
 C120 C 0.18779 0.53269 0.50003
 C121 C 0.18824 0.46471 0.35207
 C122 C 0.18753 0.53183 0.35191
 C123 C 0.18880 0.56675 0.42508
 C124 C 0.19057 0.63490 0.42545
 C125 C 0.18837 0.66775 0.49960
 C126 C 0.19053 0.63512 0.57400
 H127 H 0.18573 0.44070 0.70648
 H128 H 0.18478 0.55655 0.70618
 H129 H 0.18637 0.44026 0.29403
 H130 H 0.18511 0.55611 0.29373
 H131 H 0.19605 0.27711 0.50059
 H132 H 0.19238 0.71990 0.49937
 C133 C 0.30864 0.86162 0.07175
 C134 C 0.31226 0.82904 -0.00252
 C135 C 0.30524 0.86162 -0.07676
 C136 C 0.30421 0.93003 -0.07699
 C137 C 0.30727 0.96410 -0.00217
 C138 C 0.30853 0.92977 0.07250
 C139 C 0.31116 0.96438 0.14583
 C140 C 0.31177 1.03150 0.14606
 C141 C 0.30972 1.06659 0.07297
 C142 C 0.30789 1.03266 -0.00193
 C143 C 0.30447 0.96524 -0.15007
 C144 C 0.30516 1.03226 -0.14984
 C145 C 0.30546 1.06712 -0.07652
 C146 C 0.30743 1.13550 -0.07588
 C147 C 0.31500 1.16764 -0.00146
 C148 C 0.31091 1.13478 0.07270
 H149 H 0.31470 0.93981 0.20373
 H150 H 0.31580 1.05565 0.20413
 H151 H 0.30669 0.94139 -0.20846
 H152 H 0.30798 1.05632 -0.20810
 H153 H 0.31057 0.77671 -0.00185
 H154 H 0.31405 1.21998 -0.00055
 C155 C 0.80668 0.63895 0.57478
 C156 C 0.80867 0.67169 0.50041
 C157 C 0.80716 0.63887 0.42625
 C158 C 0.80971 0.57075 0.42588
 C159 C 0.81086 0.53666 0.50081
 C160 C 0.80932 0.57083 0.57557
 C161 C 0.81107 0.53607 0.64892
 C162 C 0.81131 0.46895 0.64909
 C163 C 0.80979 0.43407 0.57593
 C164 C 0.81102 0.46818 0.50096
 C165 C 0.81170 0.53593 0.35270
 C166 C 0.81190 0.46883 0.35282
 C167 C 0.81002 0.43404 0.42613
 C168 C 0.80788 0.36593 0.42681
 C169 C 0.80972 0.33321 0.50121
 C170 C 0.80783 0.36592 0.57551
 H171 H 0.81321 0.56046 0.70697
 H172 H 0.81359 0.44466 0.70726
 H173 H 0.81401 0.56029 0.29456
 H174 H 0.81445 0.44450 0.29475
 H175 H 0.80412 0.72379 0.50018
 H176 H 0.80572 0.28106 0.50129
 O177 O 0.23187 0.31619 0.15435
 O178 O 0.34434 0.25325 0.30824
 O179 O 0.32036 0.22906 0.15422
 O180 O 0.25587 0.34097 0.30797
 O181 O 0.18417 0.26778 0.34477
 O182 O 0.24848 0.15610 0.19102
 O183 O 0.27208 0.18057 0.34489
 O184 O 0.15969 0.24355 0.19129
 Cu185 Cu 0.29536 0.29215 0.22758
 Cu186 Cu 0.20891 0.20467 0.27151
 C187 C 0.17725 0.28944 0.14513
 C188 C 0.32655 0.20747 0.35447
 C189 C 0.29415 0.17420 0.14480
 C190 C 0.21026 0.32269 0.35416
 O191 O 0.81697 0.73209 0.34307
 O192 O 0.74988 0.84447 0.19154
 O193 O 0.72894 0.81841 0.34468
 O194 O 0.83963 0.75634 0.18849
 O195 O 0.76908 0.68110 0.15510
 O196 O 0.65578 0.74754 0.30574
 O197 O 0.68289 0.76897 0.14993
 O198 O 0.74398 0.65955 0.30864
 Cu199 Cu 0.79125 0.79511 0.27003
 Cu200 Cu 0.70543 0.70715 0.22646
 C201 C 0.79014 0.67769 0.35389
 C202 C 0.70668 0.82518 0.14247
 C203 C 0.67400 0.79230 0.35323
 C204 C 0.82286 0.70904 0.14421
 O205 O 0.73254 0.18366 0.34463
 O206 O 0.84521 0.25097 0.19310
 O207 O 0.81879 0.27184 0.34621
 O208 O 0.75824 0.16025 0.19050
 O209 O 0.68261 0.23013 0.15616
 O210 O 0.74746 0.34440 0.30662
 O211 O 0.76934 0.31738 0.15087
 O212 O 0.65961 0.25599 0.30921
 Cu213 Cu 0.79599 0.20936 0.27184
 Cu214 Cu 0.70758 0.29441 0.22724
 C215 C 0.67786 0.21011 0.35491
 C216 C 0.82569 0.29386 0.14361
 C217 C 0.79222 0.32656 0.35442
 C218 C 0.71106 0.17655 0.14575
 O219 O 0.31775 0.76735 0.15325
 O220 O 0.25335 0.65584 0.30738
 O221 O 0.22954 0.67987 0.15332
 O222 O 0.34109 0.74418 0.30741
 O223 O 0.26817 0.81646 0.34319
 O224 O 0.15690 0.75227 0.18936
 O225 O 0.18100 0.72863 0.34328
 O226 O 0.24542 0.84012 0.18923
 Cu227 Cu 0.29270 0.70450 0.22681
 Cu228 Cu 0.20555 0.79164 0.26963
 C229 C 0.29145 0.82213 0.14355
 C230 C 0.20752 0.67398 0.35325
 C231 C 0.17480 0.70632 0.14362
 C232 C 0.32285 0.79004 0.35313
 O233 O 0.81925 0.27204 0.65685
 O234 O 0.75644 0.15773 0.80893
 O235 O 0.73269 0.18429 0.65664
 O236 O 0.84373 0.24900 0.81059
 O237 O 0.76995 0.31874 0.85036
 O238 O 0.65906 0.25482 0.69534
 O239 O 0.68610 0.23067 0.84967
 O240 O 0.74679 0.34389 0.69519
 Cu241 Cu 0.79550 0.20865 0.73003
 Cu242 Cu 0.70798 0.29426 0.77590
 C243 C 0.79214 0.32648 0.64801
 C244 C 0.71212 0.17552 0.85738
 C245 C 0.67757 0.21003 0.64806
 C246 C 0.82531 0.29337 0.85867
 O247 O 0.34030 0.74555 0.69257
 O248 O 0.22866 0.68280 0.84721
 O249 O 0.25227 0.65670 0.69286
 O250 O 0.31467 0.76856 0.84710
 O251 O 0.24463 0.84218 0.80746
 O252 O 0.18063 0.72943 0.65468
 O253 O 0.15520 0.75298 0.80755
 O254 O 0.26744 0.81714 0.65454
 Cu255 Cu 0.29137 0.70601 0.77312
 Cu256 Cu 0.20462 0.79272 0.72781
 C257 C 0.32227 0.79086 0.64576
 C258 C 0.17342 0.70845 0.85546
 C259 C 0.20699 0.67459 0.64599
 C260 C 0.28913 0.82385 0.85534
 O261 O 0.25406 0.34095 0.69410
 O262 O 0.31681 0.22902 0.84846
 O263 O 0.34312 0.25301 0.69428
 O264 O 0.23031 0.31426 0.84857
 O265 O 0.15707 0.24412 0.80830
 O266 O 0.27081 0.18113 0.65574
 O267 O 0.24696 0.15544 0.80844
 O268 O 0.18294 0.26788 0.65556
 Cu269 Cu 0.29336 0.29179 0.77459
 Cu270 Cu 0.20719 0.20482 0.72867
 C271 C 0.20905 0.32282 0.64697
 C272 C 0.29135 0.17367 0.85646
 C273 C 0.32558 0.20770 0.64726
 C274 C 0.17515 0.28836 0.85663
 O275 O 0.72825 0.81976 0.65582
 O276 O 0.84157 0.75586 0.80811
 O277 O 0.81579 0.73307 0.65564
 O278 O 0.75103 0.84399 0.80971
 O279 O 0.68091 0.77041 0.84916
 O280 O 0.74472 0.65973 0.69385
 O281 O 0.76820 0.68570 0.84825
 O282 O 0.65591 0.74764 0.69383
 Cu283 Cu 0.79131 0.79567 0.72919
 Cu284 Cu 0.70510 0.70846 0.77449
 C285 C 0.67371 0.79293 0.64677
 C286 C 0.82350 0.71130 0.85612
 C287 C 0.78984 0.67810 0.64687
 C288 C 0.70652 0.82562 0.85770
   
