data_POSCAR
  _audit_creation_date              2014-09-24
  _audit_creation_method            'ToBaCCo'
  _symmetry_space_group_name_H-M    'P1'
  _symmetry_Int_Tables_number       1
  _symmetry_cell_setting            triclinic
  loop_
  _symmetry_equiv_pos_as_xyz
 x,y,z
_cell_length_a 51.0444
_cell_length_b 50.9355
_cell_length_c 23.1730
_cell_angle_alpha 89.888100
_cell_angle_beta 90.072500
_cell_angle_gamma 120.033000
loop_
  _atom_site_label
  _atom_site_type_symbol
  _atom_site_fract_x
  _atom_site_fract_y
  _atom_site_fract_z
C1 C 0.50034 0.99921 0.47184
 C2 C 0.50021 0.99919 0.53062
 C3 C 0.48512 0.97057 0.56448
 C4 C 0.51516 1.02778 0.56440
 C5 C 0.51410 1.02781 0.43790
 C6 C 0.48679 0.97064 0.43801
 C7 C 0.45431 0.94927 0.55655
 C8 C 0.44049 0.92257 0.58925
 C9 C 0.45729 0.91706 0.63053
 C10 C 0.48793 0.93840 0.63893
 C11 C 0.50172 0.96501 0.60622
 C12 C 0.49838 1.03334 0.60560
 C13 C 0.51205 1.05995 0.63817
 C14 C 0.54269 1.08122 0.63019
 C15 C 0.55968 1.07574 0.58957
 C16 C 0.54602 1.04906 0.55696
 C17 C 0.53634 1.03318 0.39659
 C18 C 0.54920 1.05965 0.36348
 C19 C 0.53985 1.08098 0.37103
 C20 C 0.51752 1.07572 0.41186
 C21 C 0.50459 1.04917 0.44502
 C22 C 0.49637 0.94934 0.44569
 C23 C 0.48371 0.92287 0.41250
 C24 C 0.46159 0.91760 0.37112
 C25 C 0.45215 0.93884 0.36307
 C26 C 0.46474 0.96524 0.39619
 H27 H 0.44098 0.95342 0.52534
 H28 H 0.41670 0.90642 0.58249
 H29 H 0.50123 0.93460 0.67088
 H30 H 0.52543 0.98125 0.61320
 H31 H 0.47462 1.01713 0.61222
 H32 H 0.49875 1.06389 0.66972
 H33 H 0.55949 1.04492 0.52619
 H34 H 0.54383 1.01690 0.39020
 H35 H 0.56633 1.06342 0.33178
 H36 H 0.50997 1.09198 0.41772
 H37 H 0.48704 1.04517 0.47587
 H38 H 0.51378 0.95337 0.47695
 H39 H 0.49134 0.90668 0.41874
 H40 H 0.43518 0.93506 0.33095
 H41 H 0.45721 0.98148 0.38939
 H42 H 0.58348 1.09196 0.58339
 C43 C -0.00022 0.49975 0.46910
 C44 C -0.00021 0.50009 0.52788
 C45 C 0.02828 0.51366 0.56187
 C46 C -0.02876 0.48675 0.56158
 C47 C -0.02884 0.48464 0.43551
 C48 C 0.02829 0.51447 0.43518
 C49 C 0.04939 0.50385 0.55487
 C50 C 0.07581 0.51656 0.58815
 C51 C 0.08119 0.53895 0.62898
 C52 C 0.06013 0.54861 0.63639
 C53 C 0.03378 0.53598 0.60317
 C54 C -0.03465 0.46427 0.60290
 C55 C -0.06132 0.45149 0.63513
 C56 C -0.08230 0.46119 0.62674
 C57 C -0.07647 0.48385 0.58607
 C58 C -0.04974 0.49669 0.55375
 C59 C -0.03466 0.50135 0.39437
 C60 C -0.06158 0.48765 0.36280
 C61 C -0.08290 0.45700 0.37168
 C62 C -0.07706 0.44005 0.41206
 C63 C -0.05008 0.45377 0.44367
 C64 C 0.04980 0.54532 0.44256
 C65 C 0.07645 0.55874 0.40998
 C66 C 0.08169 0.54152 0.36943
 C67 C 0.06017 0.51091 0.36146
 C68 C 0.03359 0.49748 0.39401
 H69 H 0.04527 0.48623 0.52404
 H70 H 0.09187 0.50877 0.58240
 H71 H 0.06400 0.56580 0.66809
 H72 H 0.01769 0.54369 0.60946
 H73 H -0.01867 0.45645 0.60977
 H74 H -0.06557 0.43405 0.66666
 H75 H -0.04534 0.51440 0.52282
 H76 H -0.01848 0.52511 0.38726
 H77 H -0.06574 0.50100 0.33154
 H78 H -0.09327 0.41627 0.41910
 H79 H -0.04574 0.44038 0.47448
 H80 H 0.04587 0.55897 0.47329
 H81 H 0.09286 0.58252 0.41615
 H82 H 0.06392 0.49744 0.32996
 H83 H 0.01721 0.47373 0.38743
 H84 H -0.09248 0.49165 0.57954
 C85 C 0.50046 0.50024 0.47270
 C86 C 0.50031 0.50013 0.53149
 C87 C 0.48462 0.51308 0.56488
 C88 C 0.51588 0.48721 0.56555
 C89 C 0.51361 0.48485 0.43893
 C90 C 0.48737 0.51575 0.43893
 C91 C 0.50072 0.53557 0.60634
 C92 C 0.48633 0.54805 0.63796
 C93 C 0.45562 0.53801 0.62880
 C94 C 0.43930 0.51529 0.58801
 C95 C 0.45370 0.50279 0.55635
 C96 C 0.54674 0.49719 0.55710
 C97 C 0.56113 0.48508 0.59015
 C98 C 0.54487 0.46309 0.63229
 C99 C 0.51419 0.45329 0.64120
 C100 C 0.49981 0.46535 0.60815
 C101 C 0.50390 0.45398 0.44751
 C102 C 0.51612 0.43974 0.41447
 C103 C 0.53792 0.45615 0.37228
 C104 C 0.54748 0.48683 0.36329
 C105 C 0.53534 0.50108 0.39630
 C106 C 0.46508 0.49948 0.39724
 C107 C 0.45265 0.51376 0.36497
 C108 C 0.46252 0.54451 0.37371
 C109 C 0.48498 0.56099 0.41476
 C110 C 0.49745 0.54672 0.44710
 H111 H 0.52452 0.54367 0.61373
 H112 H 0.49921 0.56553 0.66953
 H113 H 0.41547 0.50716 0.58076
 H114 H 0.44077 0.48507 0.52531
 H115 H 0.55968 0.51448 0.52526
 H116 H 0.58493 0.49305 0.58309
 H117 H 0.47607 0.45751 0.61557
 H118 H 0.48672 0.44090 0.47936
 H119 H 0.50839 0.41592 0.42145
 H120 H 0.56421 0.49969 0.33054
 H121 H 0.54296 0.52483 0.38876
 H122 H 0.45716 0.47565 0.39009
 H123 H 0.43537 0.50085 0.33315
 H124 H 0.49292 0.58485 0.42156
 H125 H 0.51503 0.55979 0.47830
 H126 H 0.50137 0.43641 0.67385
 O127 O 0.37889 0.65879 -0.05238
 O128 O 0.37726 0.70857 -0.07114
 C129 C 0.36317 0.72275 -0.08002
 O130 O 0.34030 0.71843 -0.05095
 O131 O 0.29020 0.66682 -0.06637
 C132 C 0.27607 0.63848 -0.07501
 O133 O 0.28086 0.61991 -0.04672
 O134 O 0.33166 0.62081 -0.06640
 C135 C 0.35957 0.63500 -0.07847
 O136 O 0.37954 0.66846 0.06209
 O137 O 0.38026 0.71936 0.04324
 C138 C 0.36181 0.72393 0.07218
 O139 O 0.33349 0.70974 0.06387
 O140 O 0.28198 0.65956 0.04844
 C141 C 0.27780 0.63650 0.07701
 O142 O 0.29197 0.62248 0.06752
 O143 O 0.34168 0.62112 0.04798
 C144 C 0.36545 0.64047 0.07406
 Cr145 Cr 0.37729 0.68793 -0.00445
 Cr146 Cr 0.31235 0.68779 -0.00127
 Cr147 Cr 0.31241 0.62279 0.00050
 O148 O 0.33402 0.66615 -0.00176
 O149 O 0.62257 0.34161 -0.04944
 O150 O 0.62424 0.29186 -0.06851
 C151 C 0.63830 0.27768 -0.07749
 O152 O 0.66124 0.28196 -0.04859
 O153 O 0.71120 0.33358 -0.06429
 C154 C 0.72514 0.36188 -0.07344
 O155 O 0.72063 0.38049 -0.04478
 O156 O 0.66976 0.37955 -0.06408
 C157 C 0.64177 0.36554 -0.07547
 O158 O 0.62217 0.33175 0.06485
 O159 O 0.62146 0.28086 0.04582
 C160 C 0.63998 0.27624 0.07456
 O161 O 0.66829 0.29054 0.06620
 O162 O 0.71971 0.34076 0.05067
 C163 C 0.72367 0.36362 0.07951
 O164 O 0.70964 0.37776 0.06965
 O165 O 0.65990 0.37912 0.05017
 C166 C 0.63607 0.35981 0.07618
 Cr167 Cr 0.62431 0.31238 -0.00175
 Cr168 Cr 0.68928 0.31257 0.00097
 Cr169 Cr 0.68916 0.37753 0.00269
 O170 O 0.66757 0.33417 0.00064
 C171 C 0.39621 0.79280 -0.19556
 C172 C 0.39592 0.78874 -0.25602
 C173 C 0.40792 0.81435 -0.29336
 C174 C 0.42015 0.84386 -0.26998
 C175 C 0.42023 0.84790 -0.20951
 C176 C 0.40822 0.82231 -0.17221
 C177 C 0.40856 0.82695 -0.11188
 C178 C 0.42040 0.85600 -0.08912
 C179 C 0.43217 0.88102 -0.12561
 C180 C 0.43216 0.87716 -0.18512
 C181 C 0.40742 0.80974 -0.35364
 C182 C 0.39539 0.78065 -0.37641
 C183 C 0.38367 0.75561 -0.33990
 C184 C 0.38388 0.75948 -0.28034
 C185 C 0.43314 0.87016 -0.30776
 C186 C 0.44446 0.89247 -0.33793
 C187 C 0.38419 0.76683 -0.15703
 C188 C 0.37446 0.74611 -0.12306
 H189 H 0.39969 0.80823 -0.08166
 H190 H 0.42040 0.85911 -0.04293
 H191 H 0.44135 0.90356 -0.10772
 H192 H 0.44155 0.89734 -0.21169
 H193 H 0.41625 0.82851 -0.38375
 H194 H 0.39516 0.77751 -0.42264
 H195 H 0.37436 0.73307 -0.35781
 H196 H 0.37451 0.73933 -0.25365
 C197 C 0.20606 0.60222 -0.19028
 C198 C 0.17634 0.58927 -0.16779
 C199 C 0.15109 0.57597 -0.20574
 C200 C 0.15568 0.57571 -0.26595
 C201 C 0.18538 0.58860 -0.28842
 C202 C 0.21066 0.60191 -0.25045
 C203 C 0.24013 0.61468 -0.27387
 C204 C 0.24453 0.61432 -0.33315
 C205 C 0.21982 0.60132 -0.37028
 C206 C 0.19053 0.58856 -0.34840
 C207 C 0.12160 0.56319 -0.18224
 C208 C 0.11720 0.56356 -0.12297
 C209 C 0.14189 0.57659 -0.08587
 C210 C 0.17117 0.58930 -0.10776
 C211 C 0.12980 0.56250 -0.30457
 C212 C 0.10788 0.55166 -0.33554
 C213 C 0.23174 0.61566 -0.15121
 C214 C 0.25241 0.62640 -0.11729
 H215 H 0.26005 0.62506 -0.24669
 H216 H 0.26723 0.62420 -0.35036
 H217 H 0.22336 0.60110 -0.41628
 H218 H 0.17202 0.57869 -0.37896
 H219 H 0.10165 0.55279 -0.20930
 H220 H 0.09450 0.55370 -0.10576
 H221 H 0.13836 0.57688 -0.03989
 H222 H 0.18962 0.59914 -0.07709
 C223 C 0.39120 0.60005 -0.20083
 C224 C 0.37460 0.56874 -0.21415
 C225 C 0.38711 0.55595 -0.25195
 C226 C 0.41615 0.57454 -0.27620
 C227 C 0.43232 0.60603 -0.26437
 C228 C 0.41981 0.61883 -0.22657
 C229 C 0.43650 0.65032 -0.21504
 C230 C 0.46473 0.66866 -0.24019
 C231 C 0.47697 0.65615 -0.27714
 C232 C 0.46107 0.62521 -0.28922
 C233 C 0.37020 0.52455 -0.26429
 C234 C 0.34171 0.50632 -0.24000
 C235 C 0.32947 0.51883 -0.20303
 C236 C 0.34563 0.54967 -0.19007
 C237 C 0.42986 0.56115 -0.31155
 C238 C 0.44172 0.55017 -0.33997
 C239 C 0.37949 0.61267 -0.15877
 C240 C 0.37018 0.62299 -0.12270
 H241 H 0.42789 0.66111 -0.18667
 H242 H 0.47717 0.69271 -0.23095
 H243 H 0.49891 0.67050 -0.29658
 H244 H 0.47151 0.61654 -0.31832
 H245 H 0.37875 0.51380 -0.29289
 H246 H 0.32907 0.48235 -0.24994
 H247 H 0.30733 0.50457 -0.18429
 H248 H 0.33514 0.55837 -0.16119
 C249 C 0.60436 0.20769 -0.19283
 C250 C 0.58677 0.17810 -0.16976
 C251 C 0.57471 0.15254 -0.20699
 C252 C 0.58029 0.15670 -0.26711
 C253 C 0.59785 0.18628 -0.29019
 C254 C 0.60992 0.21186 -0.25292
 C255 C 0.62738 0.24120 -0.27694
 C256 C 0.63277 0.24517 -0.33614
 C257 C 0.62097 0.22016 -0.37258
 C258 C 0.60369 0.19100 -0.35010
 C259 C 0.55720 0.12320 -0.18289
 C260 C 0.55172 0.11922 -0.12373
 C261 C 0.56348 0.14421 -0.08732
 C262 C 0.58084 0.17335 -0.10980
 C263 C 0.56766 0.13049 -0.30497
 C264 C 0.55662 0.10827 -0.33521
 C265 C 0.61683 0.23364 -0.15434
 C266 C 0.62684 0.25433 -0.12043
 H267 H 0.63702 0.26132 -0.25029
 H268 H 0.64617 0.26777 -0.35382
 H269 H 0.62522 0.22337 -0.41853
 H270 H 0.59500 0.17224 -0.38014
 H271 H 0.54754 0.10303 -0.20940
 H272 H 0.53826 0.09663 -0.10606
 H273 H 0.55911 0.14102 -0.04141
 H274 H 0.58948 0.19204 -0.07964
 C275 C 0.79166 0.39659 -0.19603
 C276 C 0.80198 0.42603 -0.21853
 C277 C 0.82690 0.43910 -0.25731
 C278 C 0.84133 0.42264 -0.27332
 C279 C 0.83047 0.39286 -0.25209
 C280 C 0.80555 0.37980 -0.21334
 C281 C 0.79522 0.35007 -0.19241
 C282 C 0.80909 0.33371 -0.20931
 C283 C 0.83346 0.34649 -0.24719
 C284 C 0.84413 0.37571 -0.26845
 C285 C 0.83694 0.46863 -0.27895
 C286 C 0.82275 0.48480 -0.26279
 C287 C 0.79839 0.47203 -0.22487
 C288 C 0.78803 0.44299 -0.20283
 C289 C 0.86796 0.43662 -0.30998
 C290 C 0.89045 0.44801 -0.33939
 C291 C 0.76752 0.38400 -0.15357
 C292 C 0.74792 0.37375 -0.11741
 H293 H 0.77629 0.33914 -0.16295
 H294 H 0.80087 0.31099 -0.19293
 H295 H 0.84416 0.33368 -0.26019
 H296 H 0.86312 0.38465 -0.29789
 H297 H 0.85577 0.47948 -0.30864
 H298 H 0.83069 0.50735 -0.27979
 H299 H 0.78744 0.48468 -0.21246
 H300 H 0.76897 0.43400 -0.17356
 C301 C 0.60940 0.40310 -0.19112
 C302 C 0.60712 0.39676 -0.25096
 C303 C 0.59465 0.40974 -0.28862
 C304 C 0.58451 0.42895 -0.26618
 C305 C 0.58716 0.43561 -0.20643
 C306 C 0.59965 0.42266 -0.16880
 C307 C 0.60201 0.42961 -0.10919
 C308 C 0.59235 0.44883 -0.08744
 C309 C 0.58010 0.46145 -0.12422
 C310 C 0.57747 0.45500 -0.18305
 C311 C 0.59252 0.40302 -0.34825
 C312 C 0.60246 0.38403 -0.37008
 C313 C 0.61464 0.37133 -0.33325
 C314 C 0.61700 0.37754 -0.27432
 C315 C 0.57074 0.44139 -0.30410
 C316 C 0.55884 0.45164 -0.33452
 C317 C 0.62134 0.38928 -0.15214
 C318 C 0.63088 0.37816 -0.11812
 H319 H 0.61138 0.42036 -0.07878
 H320 H 0.59442 0.45398 -0.04180
 H321 H 0.57261 0.47636 -0.10711
 H322 H 0.56783 0.46542 -0.20991
 H323 H 0.58324 0.41239 -0.37859
 H324 H 0.60069 0.37914 -0.41582
 H325 H 0.62232 0.35658 -0.35042
 H326 H 0.62665 0.36716 -0.24736
 C327 C 0.79019 0.39617 0.20220
 C328 C 0.80657 0.42769 0.21368
 C329 C 0.83201 0.43974 0.25121
 C330 C 0.84089 0.42019 0.27709
 C331 C 0.82393 0.38856 0.26708
 C332 C 0.79850 0.37651 0.22952
 C333 C 0.78202 0.34483 0.21982
 C334 C 0.79041 0.32561 0.24653
 C335 C 0.81528 0.33740 0.28324
 C336 C 0.83195 0.36850 0.29353
 C337 C 0.84819 0.47136 0.26163
 C338 C 0.83946 0.49052 0.23578
 C339 C 0.81459 0.47874 0.19910
 C340 C 0.79826 0.44770 0.18799
 C341 C 0.86803 0.43281 0.31238
 C342 C 0.89093 0.44386 0.34067
 C343 C 0.76577 0.38424 0.16026
 C344 C 0.74615 0.37466 0.12410
 H345 H 0.76246 0.33460 0.19172
 H346 H 0.77753 0.30143 0.23869
 H347 H 0.82170 0.32236 0.30389
 H348 H 0.85109 0.37661 0.32251
 H349 H 0.86767 0.48161 0.28992
 H350 H 0.85207 0.51465 0.24427
 H351 H 0.80789 0.49371 0.17913
 H352 H 0.77903 0.43960 0.15925
 C353 C 0.60399 0.20622 0.19031
 C354 C 0.60041 0.21055 0.24948
 C355 C 0.58706 0.18523 0.28751
 C356 C 0.57738 0.15575 0.26611
 C357 C 0.58102 0.15143 0.20692
 C358 C 0.59436 0.17673 0.16892
 C359 C 0.59776 0.17184 0.10992
 C360 C 0.58829 0.14279 0.08912
 C361 C 0.57523 0.11805 0.12627
 C362 C 0.57157 0.12217 0.18452
 C363 C 0.58372 0.19010 0.34649
 C364 C 0.59329 0.21918 0.36731
 C365 C 0.60633 0.24393 0.33012
 C366 C 0.60990 0.23980 0.27183
 C367 C 0.56389 0.12981 0.30476
 C368 C 0.55281 0.10780 0.33569
 C369 C 0.61727 0.23191 0.15107
 C370 C 0.62792 0.25259 0.11701
 H371 H 0.60778 0.19035 0.07926
 H372 H 0.59115 0.13948 0.04394
 H373 H 0.56790 0.09552 0.10990
 H374 H 0.56129 0.10220 0.21167
 H375 H 0.57369 0.17154 0.37705
 H376 H 0.59057 0.22251 0.41255
 H377 H 0.61372 0.26647 0.34651
 H378 H 0.62018 0.25975 0.24456
 C379 C 0.59869 0.39202 0.19204
 C380 C 0.58228 0.40535 0.16936
 C381 C 0.56933 0.41763 0.20731
 C382 C 0.57284 0.41649 0.26774
 C383 C 0.58893 0.40283 0.29045
 C384 C 0.60190 0.39056 0.25247
 C385 C 0.61795 0.37708 0.27613
 C386 C 0.62107 0.37574 0.33565
 C387 C 0.60838 0.38774 0.37279
 C388 C 0.59248 0.40116 0.35069
 C389 C 0.55311 0.43093 0.18359
 C390 C 0.54972 0.43200 0.12410
 C391 C 0.56234 0.41996 0.08699
 C392 C 0.57849 0.40680 0.10909
 C393 C 0.56033 0.42989 0.30622
 C394 C 0.55004 0.44155 0.33702
 C395 C 0.61239 0.38010 0.15292
 C396 C 0.62346 0.37061 0.11883
 H397 H 0.62819 0.36743 0.24894
 H398 H 0.63340 0.36533 0.35304
 H399 H 0.61087 0.38663 0.41899
 H400 H 0.58298 0.41015 0.38127
 H401 H 0.54282 0.44057 0.21066
 H402 H 0.53721 0.44221 0.10672
 H403 H 0.55958 0.42077 0.04082
 H404 H 0.58788 0.39775 0.07840
 C405 C 0.20813 0.60213 0.19288
 C406 C 0.21194 0.61050 0.25182
 C407 C 0.18638 0.59853 0.28906
 C408 C 0.15719 0.57827 0.26709
 C409 C 0.15341 0.56980 0.20816
 C410 C 0.17895 0.58175 0.17096
 C411 C 0.17457 0.57296 0.11218
 C412 C 0.14583 0.55292 0.09083
 C413 C 0.12086 0.54125 0.12720
 C414 C 0.12446 0.54950 0.18520
 C415 C 0.19073 0.60724 0.34781
 C416 C 0.21951 0.62722 0.36917
 C417 C 0.24448 0.63894 0.33276
 C418 C 0.24088 0.63076 0.27470
 C419 C 0.13098 0.56596 0.30483
 C420 C 0.10875 0.55518 0.33497
 C421 C 0.23398 0.61474 0.15423
 C422 C 0.25458 0.62488 0.12016
 H423 H 0.19327 0.58140 0.08212
 H424 H 0.14292 0.54639 0.04583
 H425 H 0.09856 0.52569 0.11040
 H426 H 0.10433 0.53978 0.21174
 H427 H 0.17198 0.59872 0.37777
 H428 H 0.22243 0.63365 0.41424
 H429 H 0.26679 0.65446 0.34957
 H430 H 0.26097 0.64043 0.24803
 C431 C 0.39879 0.79320 0.18906
 C432 C 0.39148 0.78875 0.24851
 C433 C 0.40484 0.81381 0.28703
 C434 C 0.42540 0.84315 0.26581
 C435 C 0.43293 0.84754 0.20642
 C436 C 0.41959 0.82250 0.16793
 C437 C 0.42744 0.82748 0.10871
 C438 C 0.44789 0.85635 0.08814
 C439 C 0.46091 0.88083 0.12576
 C440 C 0.45360 0.87662 0.18424
 C441 C 0.39716 0.80883 0.34626
 C442 C 0.37684 0.77991 0.36688
 C443 C 0.36376 0.75542 0.32921
 C444 C 0.37091 0.75966 0.27065
 C445 C 0.43834 0.86898 0.30459
 C446 C 0.44901 0.89090 0.33562
 C447 C 0.38497 0.76781 0.14934
 C448 C 0.37401 0.74736 0.11494
 H449 H 0.41792 0.80917 0.07768
 H450 H 0.45369 0.85972 0.04277
 H451 H 0.47679 0.90322 0.10958
 H452 H 0.46437 0.89639 0.21179
 H453 H 0.40677 0.82717 0.37721
 H454 H 0.37123 0.77649 0.41233
 H455 H 0.34798 0.73301 0.34544
 H456 H 0.36018 0.73992 0.24301
 C457 C 0.40040 0.60897 0.19711
 C458 C 0.43177 0.62531 0.20950
 C459 C 0.44446 0.61297 0.24815
 C460 C 0.42570 0.58436 0.27415
 C461 C 0.39419 0.56845 0.26310
 C462 C 0.38150 0.58079 0.22447
 C463 C 0.34996 0.56437 0.21378
 C464 C 0.33149 0.53655 0.24055
 C465 C 0.34389 0.52448 0.27831
 C466 C 0.37487 0.54013 0.28960
 C467 C 0.47591 0.62962 0.25957
 C468 C 0.49431 0.65767 0.23356
 C469 C 0.48190 0.66974 0.19576
 C470 C 0.45101 0.65384 0.18368
 C471 C 0.43893 0.57080 0.31055
 C472 C 0.44980 0.55908 0.33983
 C473 C 0.38780 0.62055 0.15459
 C474 C 0.37748 0.62981 0.11832
 H475 H 0.33925 0.57286 0.18482
 H476 H 0.30741 0.52431 0.23193
 H477 H 0.32944 0.50287 0.29901
 H478 H 0.38345 0.52984 0.31938
 H479 H 0.48659 0.62119 0.28876
 H480 H 0.51832 0.67012 0.24282
 H481 H 0.49629 0.69155 0.17568
 H482 H 0.44240 0.66418 0.15408
   
