data_POSCAR
  _audit_creation_date              2014-09-24
  _audit_creation_method            'ToBaCCo'
  _symmetry_space_group_name_H-M    'P1'
  _symmetry_Int_Tables_number       1
  _symmetry_cell_setting            triclinic
  loop_
  _symmetry_equiv_pos_as_xyz
 x,y,z
_cell_length_a 37.9641
_cell_length_b 36.5460
_cell_length_c 36.9332
_cell_angle_alpha 90.459200
_cell_angle_beta 90.281300
_cell_angle_gamma 90.659600
loop_
  _atom_site_label
  _atom_site_type_symbol
  _atom_site_fract_x
  _atom_site_fract_y
  _atom_site_fract_z
C1 C 0.36909 0.32645 0.32531
 C2 C 0.35522 0.35771 0.30855
 C3 C 0.32508 0.37493 0.32203
 C4 C 0.30884 0.36077 0.35322
 C5 C 0.32186 0.32938 0.37010
 C6 C 0.35181 0.31224 0.35561
 H7 H 0.36674 0.36829 0.28405
 H8 H 0.28600 0.37379 0.36468
 H9 H 0.36154 0.28716 0.36705
 C10 C 0.36753 0.81638 -0.17229
 C11 C 0.35103 0.80335 -0.14090
 C12 C 0.32248 0.82180 -0.12518
 C13 C 0.30990 0.85355 -0.14189
 C14 C 0.32528 0.86722 -0.17401
 C15 C 0.35437 0.84859 -0.18840
 H16 H 0.36032 0.77815 -0.12938
 H17 H 0.28792 0.86696 -0.12929
 H18 H 0.36576 0.85938 -0.21282
 C19 C 0.87694 0.32949 -0.17772
 C20 C 0.86174 0.31528 -0.14606
 C21 C 0.83382 0.33324 -0.12859
 C22 C 0.82134 0.36594 -0.14321
 C23 C 0.83552 0.38081 -0.17528
 C24 C 0.86346 0.36225 -0.19207
 H25 H 0.87160 0.28977 -0.13577
 H26 H 0.79984 0.37880 -0.12929
 H27 H 0.87393 0.37339 -0.21682
 C28 C 0.86985 0.84399 0.32757
 C29 C 0.85496 0.87596 0.31389
 C30 C 0.82552 0.89198 0.32988
 C31 C 0.81169 0.87612 0.36152
 C32 C 0.82563 0.84396 0.37600
 C33 C 0.85501 0.82779 0.35876
 H34 H 0.86597 0.88802 0.28961
 H35 H 0.78965 0.88815 0.37533
 H36 H 0.86583 0.80268 0.36885
 C37 C 0.62431 0.67959 0.33526
 C38 C 0.63616 0.64701 0.31884
 C39 C 0.66487 0.62791 0.33287
 C40 C 0.68185 0.64135 0.36412
 C41 C 0.67191 0.67444 0.38021
 C42 C 0.64286 0.69343 0.36565
 H43 H 0.62427 0.63666 0.29415
 H44 H 0.70336 0.62649 0.37608
 H45 H 0.63465 0.71917 0.37722
 C46 C 0.63729 0.15450 -0.16347
 C47 C 0.65200 0.12494 -0.18290
 C48 C 0.68455 0.10978 -0.17248
 C49 C 0.70217 0.12501 -0.14204
 C50 C 0.68811 0.15438 -0.12258
 C51 C 0.65535 0.16840 -0.13305
 H52 H 0.63832 0.11339 -0.20611
 H53 H 0.72745 0.11518 -0.13330
 H54 H 0.64362 0.19042 -0.11775
 C55 C 0.14575 0.65047 -0.17373
 C56 C 0.16182 0.62102 -0.19143
 C57 C 0.19288 0.60531 -0.17762
 C58 C 0.20724 0.61963 -0.14532
 C59 C 0.19187 0.64921 -0.12717
 C60 C 0.16109 0.66462 -0.14168
 H61 H 0.14994 0.61138 -0.21638
 H62 H 0.23117 0.60800 -0.13437
 H63 H 0.14972 0.68817 -0.12885
 C64 C 0.12031 0.17409 0.32195
 C65 C 0.13757 0.14573 0.30387
 C66 C 0.17000 0.13310 0.31595
 C67 C 0.18587 0.14948 0.34666
 C68 C 0.16875 0.17748 0.36596
 C69 C 0.13593 0.18972 0.35324
 H70 H 0.12582 0.13348 0.27976
 H71 H 0.21204 0.14136 0.35441
 H72 H 0.12308 0.21158 0.36774
 C73 C 0.62746 0.32558 0.68457
 C74 C 0.64471 0.31472 0.65296
 C75 C 0.67358 0.33468 0.63953
 C76 C 0.68571 0.36560 0.65870
 C77 C 0.66861 0.37751 0.69049
 C78 C 0.63928 0.35738 0.70296
 H79 H 0.63625 0.28958 0.63973
 H80 H 0.70870 0.37968 0.64850
 H81 H 0.62591 0.36671 0.72705
 C82 C 0.62455 0.82977 1.17320
 C83 C 0.64425 0.81931 1.14287
 C84 C 0.67312 0.84038 1.13098
 C85 C 0.68317 0.87167 1.15055
 C86 C 0.66439 0.88286 1.18161
 C87 C 0.63492 0.86186 1.19231
 H88 H 0.63746 0.79395 1.12903
 H89 H 0.70596 0.88649 1.14098
 H90 H 0.62097 0.87061 1.21617
 C91 C 0.11216 0.32454 1.16654
 C92 C 0.12793 0.30832 1.13638
 C93 C 0.15835 0.32304 1.12069
 C94 C 0.17348 0.35534 1.13563
 C95 C 0.15793 0.37242 1.16601
 C96 C 0.12720 0.35696 1.18086
 H97 H 0.11659 0.28328 1.12511
 H98 H 0.19703 0.36690 1.12395
 H99 H 0.11594 0.37018 1.20426
 C100 C 0.12639 0.81703 0.67516
 C101 C 0.13835 0.85126 0.68785
 C102 C 0.16569 0.87011 0.67059
 C103 C 0.18091 0.85499 0.63903
 C104 C 0.16844 0.82101 0.62519
 C105 C 0.14123 0.80270 0.64351
 H106 H 0.12695 0.86379 0.71155
 H107 H 0.20177 0.86966 0.62544
 H108 H 0.13197 0.77636 0.63331
 C109 C 0.37183 0.67296 0.65447
 C110 C 0.35243 0.68662 0.62539
 C111 C 0.32328 0.66708 0.61134
 C112 C 0.31342 0.63376 0.62694
 C113 C 0.33225 0.61958 0.65640
 C114 C 0.36134 0.63945 0.67001
 H115 H 0.35959 0.71316 0.61482
 H116 H 0.29022 0.61989 0.61647
 H117 H 0.37463 0.62915 0.69370
 C118 C 0.37468 0.18152 1.16213
 C119 C 0.35814 0.19480 1.13093
 C120 C 0.32823 0.17781 1.11625
 C121 C 0.31494 0.14606 1.13280
 C122 C 0.33042 0.13210 1.16442
 C123 C 0.36054 0.14987 1.17900
 H124 H 0.36833 0.21929 1.11802
 H125 H 0.29227 0.13191 1.12147
 H126 H 0.37248 0.13903 1.20310
 C127 C 0.86330 0.68691 1.17207
 C128 C 0.84278 0.70032 1.14317
 C129 C 0.81307 0.68075 1.12973
 C130 C 0.80348 0.64780 1.14625
 C131 C 0.82256 0.63428 1.17595
 C132 C 0.85268 0.65361 1.18815
 H133 H 0.84989 0.72649 1.13172
 H134 H 0.78100 0.63294 1.13541
 H135 H 0.86680 0.64264 1.21096
 C136 C 0.87163 0.16841 0.66708
 C137 C 0.85390 0.18607 0.63865
 C138 C 0.82215 0.17221 0.62432
 C139 C 0.80804 0.13947 0.63820
 C140 C 0.82518 0.12080 0.66641
 C141 C 0.85682 0.13597 0.68078
 H142 H 0.86358 0.21167 0.62805
 H143 H 0.78383 0.12817 0.62707
 H144 H 0.87020 0.12336 0.70321
 C145 C 0.34798 0.35435 0.67120
 C146 C 0.33138 0.33574 0.64202
 C147 C 0.34665 0.30460 0.62616
 C148 C 0.37802 0.29136 0.64095
 C149 C 0.39409 0.30833 0.67108
 C150 C 0.37924 0.34024 0.68566
 H151 H 0.30601 0.34457 0.63267
 H152 H 0.38959 0.26692 0.62943
 H153 H 0.39186 0.35435 0.70818
 C154 C 0.32930 0.87756 0.16974
 C155 C 0.31636 0.86019 0.13849
 C156 C 0.33094 0.82764 0.12550
 C157 C 0.36009 0.81273 0.14377
 C158 C 0.37409 0.83012 0.17506
 C159 C 0.35824 0.86215 0.18797
 H160 H 0.29381 0.87164 0.12465
 H161 H 0.37130 0.78749 0.13423
 H162 H 0.36867 0.87436 0.21253
 C163 C 0.83132 0.38657 0.17124
 C164 C 0.86031 0.37064 0.18793
 C165 C 0.87414 0.33771 0.17524
 C166 C 0.85909 0.32093 0.14426
 C167 C 0.83039 0.33716 0.12626
 C168 C 0.81670 0.37002 0.14012
 H169 H 0.87149 0.38344 0.21204
 H170 H 0.86909 0.29518 0.13483
 H171 H 0.79461 0.38258 0.12659
 C172 C 0.85085 0.85554 0.68116
 C173 C 0.83476 0.83935 0.65041
 C174 C 0.84922 0.80788 0.63394
 C175 C 0.87917 0.79209 0.64937
 C176 C 0.89541 0.80739 0.68023
 C177 C 0.88126 0.83949 0.69546
 H178 H 0.81048 0.85026 0.64010
 H179 H 0.88976 0.76741 0.63734
 H180 H 0.89326 0.85233 0.71892
 C181 C 0.68392 0.64255 0.68204
 C182 C 0.69578 0.66247 0.65200
 C183 C 0.67629 0.69208 0.63830
 C184 C 0.64498 0.70192 0.65578
 C185 C 0.63266 0.68224 0.68603
 C186 C 0.65266 0.65333 0.69927
 H187 H 0.72066 0.65513 0.63993
 H188 H 0.63070 0.72536 0.64601
 H189 H 0.64375 0.63977 0.72354
 C190 C 0.67740 0.14402 0.17473
 C191 C 0.69087 0.16150 0.14416
 C192 C 0.67332 0.19129 0.12847
 C193 C 0.64235 0.20410 0.14481
 C194 C 0.62872 0.18705 0.17604
 C195 C 0.64665 0.15744 0.19083
 H196 H 0.71564 0.15213 0.13338
 H197 H 0.62964 0.22786 0.13361
 H198 H 0.63682 0.14561 0.21562
 C199 C 0.15865 0.62750 0.17429
 C200 C 0.12823 0.64291 0.18902
 C201 C 0.11426 0.67559 0.17577
 C202 C 0.13089 0.69276 0.14627
 C203 C 0.16111 0.67750 0.13036
 C204 C 0.17500 0.64507 0.14498
 H205 H 0.11572 0.62973 0.21190
 H206 H 0.12108 0.71834 0.13597
 H207 H 0.19901 0.63415 0.13429
 C208 C 0.17708 0.12786 0.67230
 C209 C 0.14553 0.14077 0.68791
 C210 C 0.12745 0.17061 0.67288
 C211 C 0.14174 0.18770 0.64205
 C212 C 0.17268 0.17505 0.62593
 C213 C 0.19040 0.14549 0.64166
 H214 H 0.13534 0.12853 0.71234
 H215 H 0.12966 0.21166 0.63069
 H216 H 0.21526 0.13643 0.63082
 C217 C 0.32739 0.62534 0.32053
 C218 C 0.36005 0.63899 0.30836
 C219 C 0.37519 0.67078 0.32362
 C220 C 0.35777 0.68836 0.35204
 C221 C 0.32533 0.67553 0.36499
 C222 C 0.31007 0.64383 0.34906
 H223 H 0.37339 0.62474 0.28674
 H224 H 0.36941 0.71297 0.36387
 H225 H 0.28480 0.63420 0.35837
 C226 C 0.32963 0.12083 0.82954
 C227 C 0.31152 0.13972 0.85698
 C228 C 0.32730 0.16981 0.87494
 C229 C 0.36118 0.18126 0.86455
 C230 C 0.37944 0.16355 0.83662
 C231 C 0.36356 0.13297 0.81958
 H232 H 0.28491 0.13187 0.86349
 H233 H 0.37321 0.20485 0.87788
 H234 H 0.37730 0.11843 0.79842
 C235 C 0.83564 0.63562 0.83955
 C236 C 0.81683 0.65732 0.86431
 C237 C 0.83332 0.68733 0.88199
 C238 C 0.86815 0.69628 0.87363
 C239 C 0.88703 0.67576 0.84839
 C240 C 0.87081 0.64498 0.83197
 H241 H 0.78920 0.65184 0.86875
 H242 H 0.88049 0.71997 0.88650
 H243 H 0.88512 0.62822 0.81294
 C244 C 0.82565 0.13430 0.34034
 C245 C 0.85477 0.15218 0.32487
 C246 C 0.87031 0.18301 0.34181
 C247 C 0.85590 0.19619 0.37413
 C248 C 0.82668 0.17900 0.38979
 C249 C 0.81244 0.14719 0.37345
 H250 H 0.86425 0.14260 0.29896
 H251 H 0.86696 0.22068 0.38674
 H252 H 0.79133 0.13246 0.38652
 C253 C 0.66308 0.38072 0.33245
 C254 C 0.63150 0.36685 0.31758
 C255 C 0.61560 0.33517 0.33127
 C256 C 0.63089 0.31809 0.36109
 C257 C 0.66206 0.33149 0.37707
 C258 C 0.67844 0.36297 0.36243
 H259 H 0.61969 0.38083 0.29496
 H260 H 0.61851 0.29357 0.37177
 H261 H 0.70263 0.37355 0.37409
 C262 C 0.66990 0.86963 0.81693
 C263 C 0.68136 0.85136 0.84831
 C264 C 0.66167 0.82177 0.86255
 C265 C 0.63082 0.81036 0.84446
 C266 C 0.61893 0.82881 0.81338
 C267 C 0.63858 0.85818 0.80011
 H268 H 0.70593 0.85923 0.86099
 H269 H 0.61674 0.78657 0.85432
 H270 H 0.62966 0.87184 0.77581
 C271 C 0.17423 0.36316 0.80741
 C272 C 0.18980 0.35119 0.83981
 C273 C 0.17416 0.32318 0.86013
 C274 C 0.14238 0.30694 0.84765
 C275 C 0.12617 0.31898 0.81578
 C276 C 0.14266 0.34675 0.79569
 H277 H 0.21443 0.36282 0.84938
 H278 H 0.13044 0.28426 0.86184
 H279 H 0.13178 0.35502 0.76995
 C280 C 0.16633 0.88776 0.32824
 C281 C 0.13712 0.87037 0.31093
 C282 C 0.12243 0.83786 0.32572
 C283 C 0.13792 0.82299 0.35692
 C284 C 0.16682 0.84016 0.37397
 C285 C 0.18004 0.87273 0.35985
 H286 H 0.12634 0.88178 0.28640
 H287 H 0.12749 0.79756 0.36736
 H288 H 0.20263 0.88583 0.37287
 O289 O 0.25276 1.03636 0.30563
 O290 O 0.30475 0.96885 0.25967
 O291 O 0.30305 1.04051 0.25839
 O292 O 0.24069 0.96750 0.28905
 O293 O 0.20941 0.97395 0.23904
 O294 O 0.27083 1.04416 0.20876
 O295 O 0.27210 0.97249 0.21023
 O296 O 0.21985 1.04389 0.25682
 Cu297 Cu 0.27810 1.00225 0.28261
 Cu298 Cu 0.24004 1.00939 0.22428
 C299 C 0.22793 1.05215 0.28959
 C300 C 0.29776 0.95863 0.22774
 C301 C 0.29689 1.05500 0.22763
 C302 C 0.21415 0.95859 0.26911
 O303 O 0.25388 0.51645 0.67760
 O304 O 0.21788 0.44557 0.73762
 O305 O 0.20808 0.51498 0.72922
 O306 O 0.25880 0.44561 0.68120
 O307 O 0.30294 0.45270 0.71992
 O308 O 0.25228 0.52411 0.76749
 O309 O 0.26209 0.45475 0.77585
 O310 O 0.29846 0.52450 0.71558
 Cu311 Cu 0.23033 0.47966 0.70252
 Cu312 Cu 0.28358 0.49000 0.74833
 C313 C 0.28218 0.53297 0.68682
 C314 C 0.23372 0.43836 0.76713
 C315 C 0.22134 0.53143 0.75642
 C316 C 0.28905 0.43679 0.69248
 O317 O 0.73272 -0.02398 0.30930
 O318 O 0.68622 0.04344 0.25598
 O319 O 0.69640 -0.02676 0.24948
 O320 O 0.73155 0.04706 0.30945
 O321 O 0.77830 0.05126 0.27434
 O322 O 0.74204 -0.01834 0.21351
 O323 O 0.73296 0.05196 0.22152
 O324 O 0.77878 -0.01964 0.27319
 Cu325 Cu 0.70709 0.00941 0.28447
 Cu326 Cu 0.76254 0.01688 0.24206
 C327 C 0.76331 -0.03375 0.30037
 C328 C 0.70145 0.05965 0.23023
 C329 C 0.71366 -0.03495 0.22109
 C330 C 0.76143 0.06132 0.30209
 O331 O 0.78950 0.54785 0.77669
 O332 O 0.74946 0.47807 0.71701
 O333 O 0.74373 0.54918 0.72397
 O334 O 0.79204 0.47606 0.77243
 O335 O 0.74821 0.47240 0.81137
 O336 O 0.69884 0.54048 0.76085
 O337 O 0.70612 0.46991 0.75589
 O338 O 0.74438 0.54348 0.81392
 Cu339 Cu 0.77316 0.51343 0.74375
 Cu340 Cu 0.72000 0.50604 0.78928
 C341 C 0.77364 0.55810 0.80512
 C342 C 0.72144 0.46159 0.72643
 C343 C 0.71272 0.55688 0.73433
 C344 C 0.77796 0.46185 0.80032
 O345 O 0.24914 0.46317 0.19698
 O346 O 0.28517 0.53502 0.25788
 O347 O 0.28437 0.46350 0.25771
 O348 O 0.24764 0.53518 0.19893
 O349 O 0.19882 0.53431 0.23112
 O350 O 0.23515 0.46267 0.28930
 O351 O 0.23628 0.53426 0.28997
 O352 O 0.20002 0.46265 0.22867
 Cu353 Cu 0.27146 0.49927 0.22467
 Cu354 Cu 0.21265 0.49831 0.26284
 C355 C 0.21849 0.45034 0.20269
 C356 C 0.26691 0.54717 0.28402
 C357 C 0.26584 0.45073 0.28341
 C358 C 0.21713 0.54745 0.20554
 O359 O 0.81130 0.94820 0.74150
 O360 O 0.77263 1.02015 0.79915
 O361 O 0.77149 0.94916 0.79821
 O362 O 0.81918 1.01954 0.74758
 O363 O 0.77408 1.02611 0.71032
 O364 O 0.72657 0.95398 0.76043
 O365 O 0.72771 1.02491 0.76135
 O366 O 0.76714 0.95407 0.70302
 Cu367 Cu 0.79817 0.98391 0.77513
 Cu368 Cu 0.74457 0.98997 0.72969
 C369 C 0.79537 0.93846 0.71253
 C370 C 0.74355 1.03465 0.79023
 C371 C 0.74081 0.93965 0.78814
 C372 C 0.80470 1.03565 0.72127
 O373 O 0.78805 0.47039 0.23649
 O374 O 0.75283 0.53910 0.29904
 O375 O 0.75611 0.46749 0.29890
 O376 O 0.78832 0.54142 0.23955
 O377 O 0.73806 0.53960 0.20916
 O378 O 0.70564 0.46700 0.26900
 O379 O 0.70259 0.53797 0.26860
 O380 O 0.73751 0.46813 0.20669
 Cu381 Cu 0.77639 0.50456 0.27156
 Cu382 Cu 0.71589 0.50289 0.23535
 C383 C 0.76890 0.45749 0.21098
 C384 C 0.72185 0.55078 0.29399
 C385 C 0.72519 0.45474 0.29409
 C386 C 0.76854 0.55332 0.21453
 O387 O 0.25078 -0.03569 0.70409
 O388 O 0.28557 0.03304 0.76654
 O389 O 0.28383 -0.03924 0.76689
 O390 O 0.23652 0.03450 0.71651
 O391 O 0.19073 0.02542 0.75207
 O392 O 0.23725 -0.04392 0.80214
 O393 O 0.23937 0.02757 0.80217
 O394 O 0.20447 -0.04367 0.73915
 Cu395 Cu 0.26841 -0.00124 0.73521
 Cu396 Cu 0.21369 -0.00951 0.77699
 C397 C 0.22202 -0.05186 0.71080
 C398 C 0.26889 0.04261 0.79455
 C399 C 0.26784 -0.05398 0.79363
 C400 C 0.20519 0.04245 0.72645
 O401 O 0.22953 0.28370 0.95573
 O402 O 0.27723 0.23458 1.02801
 O403 O 0.27859 0.23522 0.95664
 O404 O 0.24196 0.29656 1.02456
 O405 O 0.19768 0.25786 1.03268
 O406 O 0.23388 0.19654 0.96220
 O407 O 0.23193 0.19655 1.03281
 O408 O 0.18436 0.24611 0.96378
 Cu409 Cu 0.26105 0.26577 0.99100
 Cu410 Cu 0.20759 0.22083 0.99840
 C411 C 0.19847 0.27268 0.94747
 C412 C 0.26234 0.20693 1.04264
 C413 C 0.26298 0.20574 0.94750
 C414 C 0.21394 0.28766 1.04078
 O415 O 0.23180 0.79237 0.45381
 O416 O 0.29499 0.75214 0.51648
 O417 O 0.28022 0.74284 0.44846
 O418 O 0.24744 0.80226 0.52209
 O419 O 0.20755 0.75990 0.53460
 O420 O 0.24085 0.70015 0.46164
 O421 O 0.25518 0.70990 0.52994
 O422 O 0.19218 0.74965 0.46616
 Cu423 Cu 0.26748 0.77674 0.48368
 Cu424 Cu 0.21990 0.72568 0.49949
 C425 C 0.20152 0.77797 0.44896
 C426 C 0.28563 0.72413 0.53414
 C427 C 0.26650 0.71139 0.44264
 C428 C 0.22192 0.79090 0.54120
 O429 O 0.30359 0.73317 -0.03062
 O430 O 0.24876 0.68569 0.03627
 O431 O 0.24879 0.69047 -0.03399
 O432 O 0.30391 0.72880 0.03979
 O433 O 0.26995 0.77740 0.04095
 O434 O 0.21258 0.73714 -0.02954
 O435 O 0.21465 0.73399 0.04127
 O436 O 0.26733 0.78000 -0.02988
 Cu437 Cu 0.27972 0.70474 0.00265
 Cu438 Cu 0.23765 0.76199 0.00621
 C439 C 0.29440 0.76416 -0.04241
 C440 C 0.22269 0.70166 0.05049
 C441 C 0.22146 0.70727 -0.04444
 C442 C 0.29643 0.76003 0.05267
 O443 O 0.30735 0.24202 0.46542
 O444 O 0.25660 0.18923 0.53086
 O445 O 0.25788 0.19216 0.46055
 O446 O 0.30057 0.24423 0.53539
 O447 O 0.25917 0.28596 0.53122
 O448 O 0.21489 0.23230 0.45944
 O449 O 0.21498 0.23098 0.53084
 O450 O 0.26449 0.28211 0.46087
 Cu451 Cu 0.28474 0.21286 0.49827
 Cu452 Cu 0.23406 0.26184 0.49533
 C453 C 0.29468 0.27058 0.45156
 C454 C 0.22773 0.20127 0.54273
 C455 C 0.22907 0.20350 0.44721
 C456 C 0.28708 0.27425 0.54582
 O457 O 0.74186 0.70865 0.96808
 O458 O 0.69137 0.76128 1.03168
 O459 O 0.69983 0.76452 0.96104
 O460 O 0.74864 0.72081 1.03776
 O461 O 0.78902 0.76447 1.03322
 O462 O 0.73844 0.81005 0.96427
 O463 O 0.73252 0.80444 1.03476
 O464 O 0.78116 0.75349 0.96369
 Cu465 Cu 0.71673 0.73494 0.99993
 Cu466 Cu 0.76389 0.78723 0.99866
 C467 C 0.76960 0.72170 0.95443
 C468 C 0.70299 0.79095 1.04490
 C469 C 0.71143 0.79550 0.94997
 C470 C 0.77799 0.73548 1.04779
 O471 O 0.68257 0.25675 0.53593
 O472 O 0.72892 0.20377 0.46816
 O473 O 0.72908 0.20496 0.53812
 O474 O 0.69738 0.26710 0.46668
 O475 O 0.74286 0.30408 0.47634
 O476 O 0.77528 0.24158 0.54542
 O477 O 0.77549 0.24016 0.47422
 O478 O 0.72899 0.29278 0.54484
 Cu479 Cu 0.70501 0.23044 0.50130
 Cu480 Cu 0.75999 0.27267 0.51046
 C481 C 0.69752 0.28311 0.55248
 C482 C 0.75991 0.21276 0.45935
 C483 C 0.75830 0.21277 0.55370
 C484 C 0.71493 0.29603 0.45906
 O485 O 0.81134 0.24161 -0.03674
 O486 O 0.75633 0.19739 0.03164
 O487 O 0.75408 0.20157 -0.03824
 O488 O 0.80971 0.24255 0.03411
 O489 O 0.77530 0.29082 0.03479
 O490 O 0.71930 0.24955 -0.03581
 O491 O 0.72192 0.24564 0.03487
 O492 O 0.77643 0.28951 -0.03635
 Cu493 Cu 0.78637 0.21608 -0.00250
 Cu494 Cu 0.74490 0.27377 -0.00048
 C495 C 0.80308 0.27271 -0.04880
 C496 C 0.73015 0.21366 0.04517
 C497 C 0.72706 0.21867 -0.04917
 C498 C 0.80159 0.27367 0.04705
 O499 O 0.70545 0.76296 0.47269
 O500 O 0.76479 0.80510 0.53801
 O501 O 0.76658 0.79772 0.46717
 O502 O 0.71691 0.75280 0.54267
 O503 O 0.75129 0.70500 0.53560
 O504 O 0.80215 0.75044 0.46604
 O505 O 0.79926 0.75685 0.53755
 O506 O 0.74075 0.71582 0.46640
 Cu507 Cu 0.73527 0.78392 0.50539
 Cu508 Cu 0.77659 0.72778 0.50091
 C509 C 0.71265 0.73279 0.45782
 C510 C 0.79136 0.78853 0.54987
 C511 C 0.79327 0.78121 0.45396
 C512 C 0.72623 0.72053 0.55168
 O513 O 1.02061 0.30589 0.25392
 O514 O 0.95431 0.24632 0.29586
 O515 O 1.02220 0.25715 0.30413
 O516 O 0.95416 0.29272 0.24287
 O517 O 0.96459 0.24889 0.20298
 O518 O 1.03224 0.21357 0.26389
 O519 O 0.96480 0.20255 0.25591
 O520 O 1.03102 0.26234 0.21370
 Cu521 Cu 0.98648 0.27982 0.27831
 Cu522 Cu 0.99930 0.22736 0.23018
 C523 C 1.03729 0.29411 0.22668
 C524 C 0.94801 0.21456 0.28305
 C525 C 1.03933 0.22935 0.29385
 C526 C 0.94788 0.27710 0.21255
 O527 O 0.47844 0.24760 0.71556
 O528 O 0.54534 0.18615 0.75102
 O529 O 0.47560 0.18805 0.75242
 O530 O 0.54627 0.25105 0.72143
 O531 O 0.54484 0.28009 0.77404
 O532 O 0.47550 0.21716 0.80497
 O533 O 0.54520 0.21565 0.80339
 O534 O 0.47632 0.27726 0.76779
 Cu535 Cu 0.51177 0.21506 0.73012
 Cu536 Cu 0.51035 0.25019 0.79287
 C537 C 0.46568 0.27263 0.73531
 C538 C 0.55744 0.19077 0.78273
 C539 C 0.46271 0.19287 0.78383
 C540 C 0.55726 0.27659 0.74247
 O541 O -0.03583 0.30888 0.72834
 O542 O 0.03225 0.25609 0.68142
 O543 O -0.03628 0.25812 0.67911
 O544 O 0.03208 0.30763 0.73034
 O545 O 0.03088 0.26563 0.77302
 O546 O -0.03870 0.21586 0.72144
 O547 O 0.03122 0.21418 0.72414
 O548 O -0.03830 0.26722 0.77126
 Cu549 Cu -0.00167 0.28670 0.70050
 Cu550 Cu -0.00406 0.23635 0.75170
 C551 C -0.04876 0.29718 0.75772
 C552 C 0.04386 0.22668 0.69483
 C553 C -0.04964 0.22898 0.69168
 C554 C 0.04332 0.29518 0.76010
 O555 O 0.45925 0.30977 0.23719
 O556 O 0.52506 0.26045 0.18595
 O557 O 0.45861 0.24845 0.20038
 O558 O 0.52800 0.31079 0.23643
 O559 O 0.53225 0.27418 0.28345
 O560 O 0.46805 0.21041 0.24542
 O561 O 0.53521 0.22478 0.23275
 O562 O 0.46343 0.27137 0.28285
 Cu563 Cu 0.49195 0.28587 0.21058
 Cu564 Cu 0.50037 0.24157 0.26544
 C565 C 0.44957 0.29927 0.26811
 C566 C 0.54239 0.23527 0.20063
 C567 C 0.45159 0.21870 0.21696
 C568 C 0.54186 0.30267 0.26677
 O569 O 1.04962 0.78762 0.77400
 O570 O 0.98123 0.72850 0.81352
 O571 O 1.04947 0.73548 0.82213
 O572 O 0.98154 0.78697 0.77488
 O573 O 0.98351 0.74905 0.72803
 O574 O 1.05405 0.69845 0.77496
 O575 O 0.98378 0.69167 0.76588
 O576 O 1.05009 0.75134 0.72586
 Cu577 Cu 1.01535 0.76319 0.80101
 Cu578 Cu 1.01919 0.71830 0.74499
 C579 C 1.06097 0.77972 0.74260
 C580 C 0.97017 0.70055 0.79584
 C581 C 1.06382 0.70861 0.80656
 C582 C 0.97058 0.77692 0.74387
 O583 O 0.52886 0.79557 0.25024
 O584 O 0.46241 0.73178 0.28397
 O585 O 0.53110 0.73697 0.29003
 O586 O 0.46148 0.78460 0.23726
 O587 O 0.47286 0.74922 0.19012
 O588 O 0.53701 0.69889 0.24379
 O589 O 0.46864 0.69596 0.23611
 O590 O 0.53995 0.75820 0.20454
 Cu591 Cu 0.49511 0.76587 0.26992
 Cu592 Cu 0.50567 0.72196 0.21406
 C593 C 0.54626 0.78772 0.22218
 C594 C 0.45338 0.70362 0.26579
 C595 C 0.54548 0.70917 0.27550
 C596 C 0.45540 0.77469 0.20457
 O597 O -0.04650 0.80172 0.26140
 O598 O 0.01880 0.76214 0.19833
 O599 O -0.04955 0.75367 0.20897
 O600 O 0.02032 0.81541 0.24591
 O601 O 0.03368 0.77389 0.28658
 O602 O -0.03669 0.71263 0.25034
 O603 O 0.03116 0.72087 0.23961
 O604 O -0.03293 0.76083 0.30263
 Cu605 Cu -0.01556 0.78735 0.22467
 Cu606 Cu 0.00009 0.73806 0.27380
 C607 C -0.05125 0.78769 0.29253
 C608 C 0.03648 0.73474 0.20867
 C609 C -0.05538 0.72287 0.22365
 C610 C 0.03944 0.80490 0.27206
 O611 O 0.46309 0.69520 0.74051
 O612 O 0.52108 0.75028 0.79620
 O613 O 0.45400 0.75389 0.78238
 O614 O 0.53153 0.70967 0.73859
 O615 O 0.52744 0.75000 0.69458
 O616 O 0.45783 0.79681 0.74082
 O617 O 0.52595 0.79127 0.75279
 O618 O 0.45964 0.73835 0.69920
 Cu619 Cu 0.49216 0.72322 0.76799
 Cu620 Cu 0.49264 0.77301 0.71812
 C621 C 0.45071 0.70688 0.71115
 C622 C 0.53454 0.77929 0.78406
 C623 C 0.44346 0.78399 0.76874
 C624 C 0.54243 0.72295 0.70858
 C625 C 0.40007 0.30647 0.31076
 C626 C 0.42182 0.32041 0.28591
 H627 H 0.40462 0.27892 0.32027
 H628 H 0.41839 0.34788 0.27608
 C629 C 0.39600 0.79603 0.81349
 C630 C 0.41432 0.80532 0.78398
 H631 H 0.40357 0.77120 0.82727
 H632 H 0.40857 0.82989 0.76927
 C633 C -0.09416 0.30831 0.80470
 C634 C -0.07627 0.31927 0.77537
 H635 H -0.08753 0.28216 0.81642
 H636 H -0.08174 0.34516 0.76286
 C637 C -0.10076 0.82818 0.30616
 C638 C -0.07883 0.80195 0.31700
 H639 H -0.09682 0.83941 0.27937
 H640 H -0.08129 0.79016 0.34364
 C641 C 0.59429 0.70091 0.31999
 C642 C 0.57214 0.68747 0.29457
 H643 H 0.59099 0.72889 0.32918
 H644 H 0.57440 0.65963 0.28504
 C645 C 0.60395 0.17293 0.82591
 C646 C 0.58701 0.16766 0.79436
 H647 H 0.59415 0.19381 0.84416
 H648 H 0.59627 0.14785 0.77487
 C649 C 1.11439 0.66705 0.80884
 C650 C 1.09249 0.68999 0.82567
 H651 H 1.10944 0.66038 0.78060
 H652 H 1.09605 0.69678 0.85398
 C653 C 1.08698 0.18681 0.30559
 C654 C 1.06872 0.21612 0.31617
 H655 H 1.07798 0.17196 0.28167
 H656 H 1.07627 0.23196 0.33983
 C657 C 0.59767 0.30225 0.69710
 C658 C 0.58505 0.30240 0.73086
 H659 H 0.58678 0.28257 0.67784
 H660 H 0.59571 0.32104 0.75109
 C661 C 0.59601 0.80693 0.18346
 C662 C 0.57427 0.81348 0.21123
 H663 H 0.59143 0.78202 0.16787
 H664 H 0.57675 0.83794 0.22760
 C665 C 1.08292 0.30632 0.18166
 C666 C 1.06487 0.31741 0.21079
 H667 H 1.07490 0.28057 0.16913
 H668 H 1.07049 0.34308 0.22436
 C669 C 1.10054 0.79609 0.69296
 C670 C 1.08706 0.80391 0.72567
 H671 H 1.09170 0.77106 0.67960
 H672 H 1.09540 0.82749 0.74136
 C673 C 0.40094 0.69597 0.66955
 C674 C 0.42540 0.68312 0.69199
 H675 H 0.40160 0.72478 0.66274
 H676 H 0.42580 0.65448 0.69899
 C677 C 0.40398 0.20174 0.17505
 C678 C 0.42341 0.19378 0.20413
 H679 H 0.41112 0.22635 0.16041
 H680 H 0.41844 0.16954 0.21992
 C681 C -0.10714 0.70803 0.18417
 C682 C -0.08448 0.69857 0.21069
 H683 H -0.10249 0.73410 0.17110
 H684 H -0.08703 0.67277 0.22446
 C685 C -0.09737 0.18278 0.68357
 C686 C -0.07895 0.21174 0.67138
 H687 H -0.08800 0.16979 0.70805
 H688 H -0.08559 0.22480 0.64621
 C689 C 0.31140 0.40700 0.30193
 C690 C 0.27925 0.42110 0.30639
 H691 H 0.32818 0.41844 0.28112
 H692 H 0.26129 0.41000 0.32616
 C693 C 0.31239 -0.10199 0.80685
 C694 C 0.28331 -0.08339 0.81569
 H695 H 0.32608 -0.09365 0.78251
 H696 H 0.26800 -0.09081 0.83906
 C697 C 0.82198 0.41252 0.80787
 C698 C 0.79488 0.43218 0.82052
 H699 H 0.83339 0.42082 0.78231
 H700 H 0.78223 0.42563 0.84573
 C701 C 0.81048 -0.07770 0.31247
 C702 C 0.77994 -0.06237 0.32189
 H703 H 0.82360 -0.06722 0.28860
 H704 H 0.76483 -0.07190 0.34465
 C705 C 0.32101 0.58586 0.67561
 C706 C 0.29526 0.56303 0.66420
 H707 H 0.33385 0.58034 0.70125
 H708 H 0.28188 0.56699 0.63872
 C709 C 0.31324 1.09927 0.18072
 C710 C 0.31942 1.08528 0.21378
 H711 H 0.29244 1.08669 0.16452
 H712 H 0.33964 1.09672 0.23134
 C713 C 0.81158 0.60065 0.19572
 C714 C 0.78001 0.58411 0.19181
 H715 H 0.82969 0.59020 0.21581
 H716 H 0.76074 0.59409 0.17285
 C717 C 0.80932 1.08842 0.67983
 C718 C 0.82375 1.06660 0.70488
 H719 H 0.78345 1.08085 0.66944
 H720 H 0.84981 1.07175 0.71564
 C721 C 0.67699 0.59483 0.31318
 C722 C 0.70909 0.58045 0.31732
 H723 H 0.65953 0.58331 0.29264
 H724 H 0.72780 0.59188 0.33652
 C725 C 0.69861 1.08078 0.80656
 C726 C 0.72894 1.06337 0.81391
 H727 H 0.68397 1.07214 0.78263
 H728 H 0.74448 1.06981 0.83765
 C729 C 0.21103 0.57677 0.80486
 C730 C 0.20022 0.55959 0.77448
 H731 H 0.23576 0.56820 0.81676
 H732 H 0.17535 0.56560 0.76176
 C733 C 0.18712 1.10371 0.29488
 C734 C 0.20936 1.08040 0.31005
 H735 H 0.18047 1.10061 0.26644
 H736 H 0.21516 1.08235 0.33874
 C737 C 0.68115 0.40964 0.71237
 C738 C 0.70759 0.43215 0.70268
 H739 H 0.66847 0.41440 0.73818
 H740 H 0.72087 0.42873 0.67715
 C741 C 0.67439 -0.08655 0.20317
 C742 C 0.70195 -0.06438 0.19637
 H743 H 0.65924 -0.08106 0.22740
 H744 H 0.71805 -0.06785 0.17268
 C745 C 0.17256 0.40579 0.18438
 C746 C 0.20490 0.42001 0.17954
 H747 H 0.15610 0.41824 0.20486
 H748 H 0.22260 0.40837 0.15985
 C749 C 0.17745 -0.09516 0.68806
 C750 C 0.21003 -0.08141 0.68611
 H751 H 0.15932 -0.08245 0.70684
 H752 H 0.22912 -0.09335 0.66797
 C753 C 0.30210 0.31393 0.40121
 C754 C 0.31568 0.28943 0.42395
 H755 H 0.27506 0.32238 0.40487
 H756 H 0.34282 0.28119 0.42164
 C757 C 0.30360 0.80769 -0.09263
 C758 C 0.31553 0.78075 -0.07150
 H759 H 0.27819 0.81938 -0.08645
 H760 H 0.34086 0.76860 -0.07633
 C761 C 0.81520 0.31833 -0.09626
 C762 C 0.82462 0.28832 -0.07818
 H763 H 0.79168 0.33238 -0.08753
 H764 H 0.84789 0.27339 -0.08562
 C765 C 0.80707 0.82847 0.40824
 C766 C 0.81432 0.79653 0.42384
 H767 H 0.78521 0.84389 0.41905
 H768 H 0.83569 0.78002 0.41393
 C769 C 0.69299 0.32211 0.60704
 C770 C 0.67775 0.30127 0.58133
 H771 H 0.72068 0.32929 0.60486
 H772 H 0.64986 0.29500 0.58246
 C773 C 0.69462 0.82903 1.09947
 C774 C 0.68129 0.80842 1.07264
 H775 H 0.72222 0.83695 1.09894
 H776 H 0.65359 0.80095 1.07252
 C777 C 0.17312 0.30204 1.08978
 C778 C 0.20078 0.31193 1.06974
 H779 H 0.16027 0.27612 1.08334
 H780 H 0.21470 0.33743 1.07483
 C781 C 0.18265 0.80213 0.59258
 C782 C 0.20926 0.81375 0.57172
 H783 H 0.17041 0.77603 0.58567
 H784 H 0.22253 0.83954 0.57719
 C785 C 0.30061 0.68175 0.58241
 C786 C 0.31038 0.70869 0.56022
 H787 H 0.27440 0.66992 0.57960
 H788 H 0.33662 0.72044 0.56135
 C789 C 0.31163 0.19515 1.08426
 C790 C 0.27938 0.18671 1.07197
 H791 H 0.32593 0.21737 1.07147
 H792 H 0.26381 0.16535 1.08435
 C793 C 0.79030 0.69422 1.09959
 C794 C 0.80059 0.72006 1.07638
 H795 H 0.76419 0.68231 1.09637
 H796 H 0.82682 0.73172 1.07845
 C797 C 0.80514 0.19366 0.59510
 C798 C 0.77256 0.18819 0.58165
 H799 H 0.82050 0.21635 0.58455
 H800 H 0.75596 0.16603 0.59099
 C801 C 0.69430 0.68832 0.41071
 C802 C 0.68800 0.71858 0.42999
 H803 H 0.71793 0.67317 0.41697
 H804 H 0.66468 0.73445 0.42503
 C805 C 0.70898 0.16977 -0.09181
 C806 C 0.70438 0.20336 -0.07802
 H807 H 0.73025 0.15334 -0.08127
 H808 H 0.68419 0.22101 -0.08853
 C809 C 0.21007 0.66359 -0.09415
 C810 C 0.20006 0.69283 -0.07478
 H811 H 0.23394 0.64980 -0.08601
 H812 H 0.17672 0.70788 -0.08171
 C813 C 0.18497 0.19598 0.39817
 C814 C 0.21257 0.18301 0.41686
 H815 H 0.17360 0.22169 0.40674
 H816 H 0.22415 0.15709 0.40976
 C817 C 0.33244 0.38723 0.68866
 C818 C 0.30723 0.40727 0.67323
 H819 H 0.34166 0.39474 0.71557
 H820 H 0.29776 0.40098 0.64625
 C821 C 0.31015 0.91025 0.18308
 C822 C 0.31979 0.92987 0.21219
 H823 H 0.28602 0.91750 0.16916
 H824 H 0.34346 0.92368 0.22709
 C825 C 0.81678 0.41965 0.18854
 C826 C 0.78284 0.42896 0.18687
 H827 H 0.83421 0.43480 0.20670
 H828 H 0.76446 0.41400 0.16966
 C829 C 0.83648 0.88801 0.70073
 C830 C 0.80908 0.90821 0.68992
 H831 H 0.84917 0.89539 0.72615
 H832 H 0.79549 0.90225 0.66475
 C833 C 0.70541 0.61175 0.69589
 C834 C 0.69172 0.58515 0.71648
 H835 H 0.73319 0.61122 0.68929
 H836 H 0.66385 0.58459 0.72234
 C837 C 0.69709 0.11310 0.19039
 C838 C 0.68173 0.08796 0.21132
 H839 H 0.72498 0.11112 0.18463
 H840 H 0.65371 0.08871 0.21637
 C841 C 0.17271 0.59398 0.19173
 C842 C 0.20356 0.57812 0.18394
 H843 H 0.15715 0.58257 0.21352
 H844 H 0.22042 0.58852 0.16285
 C845 C 0.19805 0.09731 0.68778
 C846 C 0.18440 0.07166 0.70935
 H847 H 0.22564 0.09562 0.68061
 H848 H 0.15674 0.07240 0.71615
 C849 C 0.31247 0.59262 0.30126
 C850 C 0.28074 0.57728 0.30721
 H851 H 0.32839 0.58122 0.27975
 H852 H 0.26371 0.58747 0.32824
 C853 C 0.31360 0.08965 0.80904
 C854 C 0.28365 0.07187 0.81797
 H855 H 0.32739 0.08104 0.78485
 H856 H 0.26930 0.07875 0.84220
 C857 C 0.81927 0.60455 0.81909
 C858 C 0.78894 0.58766 0.82795
 H859 H 0.83326 0.59503 0.79536
 H860 H 0.77472 0.59548 0.85203
 C861 C 0.80948 0.10296 0.32040
 C862 C 0.77654 0.09023 0.32562
 H863 H 0.82503 0.09110 0.29884
 H864 H 0.75981 0.10170 0.34629
 C865 C 0.67840 0.41353 0.31481
 C866 C 0.71203 0.42482 0.31728
 H867 H 0.66110 0.42791 0.29647
 H868 H 0.73049 0.41125 0.33491
 C869 C 0.68973 0.89988 0.79943
 C870 C 0.72206 0.91138 0.80891
 H871 H 0.67726 0.91258 0.77630
 H872 H 0.73579 0.89976 0.83168
 C873 C 0.19006 0.39170 0.78400
 C874 C 0.21944 0.41075 0.79187
 H875 H 0.17663 0.39728 0.75869
 H876 H 0.23374 0.40661 0.81679
 C877 C 0.18519 0.92083 0.31496
 C878 C 0.18891 0.92967 0.28024
 H879 H 0.20039 0.93646 0.33480
 H880 H 0.17419 0.91496 0.25946
 C881 C 0.42591 0.29109 0.68645
 C882 C 0.43733 0.29561 0.72069
 H883 H 0.43893 0.27126 0.66929
 H884 H 0.42447 0.31434 0.73902
 C885 C 0.40381 0.81474 0.19639
 C886 C 0.42749 0.79168 0.18262
 H887 H 0.40639 0.82309 0.22451
 H888 H 0.42614 0.78382 0.15435
 C889 C 0.90289 0.32159 0.19695
 C890 C 0.92076 0.29152 0.18815
 H891 H 0.90953 0.33545 0.22219
 H892 H 0.91582 0.27695 0.16305
 C893 C 0.92629 0.78823 0.69603
 C894 C 0.94213 0.79803 0.72721
 H895 H 0.93554 0.76405 0.68197
 H896 H 0.93360 0.82152 0.74252
 C897 C 0.58366 0.31800 0.31511
 C898 C 0.57028 0.32561 0.28232
 H899 H 0.57176 0.29594 0.33044
 H900 H 0.58126 0.34703 0.26568
 C901 C 0.58773 0.81665 0.79221
 C902 C 0.56143 0.79736 0.80655
 H903 H 0.58700 0.82290 0.76356
 H904 H 0.56146 0.79110 0.83513
 C905 C 0.09364 0.30020 0.80245
 C906 C 0.07170 0.31555 0.77861
 H907 H 0.08839 0.27253 0.81148
 H908 H 0.07583 0.34349 0.77008
 C909 C 0.09225 0.81667 0.30962
 C910 C 0.06892 0.82878 0.28522
 H911 H 0.08847 0.78910 0.31966
 H912 H 0.07135 0.85615 0.27451
 C913 C 0.59984 0.69200 0.70549
 C914 C 0.57299 0.70845 0.68914
 H915 H 0.59781 0.68546 0.73399
 H916 H 0.57449 0.71458 0.66056
 C917 C 0.59718 0.20032 0.19555
 C918 C 0.57172 0.21963 0.17994
 H919 H 0.59478 0.19359 0.22398
 H920 H 0.57315 0.22610 0.15144
 C921 C 0.08393 0.69137 0.19572
 C922 C 0.06420 0.71959 0.18494
 H923 H 0.07778 0.67891 0.22150
 H924 H 0.06869 0.73247 0.15911
 C925 C 0.09518 0.18480 0.69123
 C926 C 0.07265 0.20808 0.67553
 H927 H 0.09050 0.17669 0.71897
 H928 H 0.07623 0.21608 0.64770
 C929 C 0.40844 0.68773 0.31054
 C930 C 0.42391 0.68052 0.27867
 H931 H 0.41948 0.70951 0.32734
 H932 H 0.41378 0.65941 0.26068
 C933 C 0.41437 0.17895 0.82598
 C934 C 0.43139 0.17133 0.79500
 H935 H 0.42543 0.19997 0.84367
 H936 H 0.42082 0.15148 0.77588
 C937 C 0.92264 0.68923 0.83877
 C938 C 0.93972 0.67944 0.80871
 H939 H 0.93362 0.71125 0.85532
 H940 H 0.92946 0.65827 0.79088
 C941 C 0.89975 0.20403 0.32560
 C942 C 0.92055 0.19136 0.29926
 H943 H 0.90442 0.23148 0.33604
 H944 H 0.91741 0.16383 0.28877
 C945 C 0.33016 0.28390 0.59542
 C946 C 0.30335 0.29614 0.57527
 H947 H 0.34085 0.25726 0.58901
 H948 H 0.29235 0.32284 0.58017
 C949 C 0.31355 0.81030 0.09352
 C950 C 0.31834 0.77585 0.08206
 H951 H 0.29399 0.82655 0.07969
 H952 H 0.33737 0.75836 0.09487
 C953 C 0.81269 0.32044 0.09402
 C954 C 0.82250 0.28949 0.07718
 H955 H 0.78953 0.33430 0.08404
 H956 H 0.84532 0.27450 0.08585
 C957 C 0.83261 0.78945 0.60197
 C958 C 0.81186 0.80700 0.57869
 H959 H 0.83741 0.76055 0.59772
 H960 H 0.80748 0.83602 0.58208
 C961 C 0.30845 0.69762 0.39405
 C962 C 0.28047 0.68742 0.41371
 H963 H 0.32059 0.72398 0.40010
 H964 H 0.26793 0.66102 0.40946
 C965 C 0.30920 0.19138 0.90347
 C966 C 0.27872 0.18201 0.91954
 H967 H 0.32218 0.21663 0.91193
 H968 H 0.26503 0.15679 0.91277
 C969 C 0.81489 0.71094 0.90836
 C970 C 0.78773 0.69895 0.92780
 H971 H 0.82497 0.73847 0.91301
 H972 H 0.77820 0.67110 0.92458
 C973 C 0.81080 0.19630 0.42206
 C974 C 0.77692 0.19162 0.43066
 H975 H 0.82667 0.21590 0.43735
 H976 H 0.76011 0.17319 0.41516
 C977 C 0.67609 0.31029 0.40806
 C978 C 0.70319 0.32011 0.42947
 H979 H 0.66277 0.28456 0.41367
 H980 H 0.71747 0.34545 0.42520
 C981 C 0.67377 0.80090 0.89482
 C982 C 0.69481 0.81584 0.92023
 H983 H 0.66543 0.77259 0.89747
 H984 H 0.70231 0.84442 0.91835
 C985 C 0.19322 0.31012 0.89269
 C986 C 0.17820 0.28959 0.91823
 H987 H 0.22098 0.31704 0.89525
 H988 H 0.15044 0.28279 0.91691
 C989 C 0.18635 0.82425 0.40469
 C990 C 0.17733 0.79374 0.42231
 H991 H 0.21076 0.83804 0.41231
 H992 H 0.15291 0.77930 0.41669
 C993 C 0.68879 0.71403 0.60682
 C994 C 0.70931 0.69972 0.58109
 H995 H 0.68101 0.74239 0.60491
 H996 H 0.71593 0.67102 0.58228
 C997 C 0.68824 0.21069 0.09660
 C998 C 0.71028 0.19437 0.07344
 H999 H 0.68168 0.23919 0.09277
 H1000 H 0.71589 0.16558 0.07615
 C1001 C 0.17885 0.69731 0.10015
 C1002 C 0.20241 0.68162 0.07808
 H1003 H 0.17260 0.72588 0.09631
 H1004 H 0.20826 0.65289 0.08043
 C1005 C 0.18690 0.19489 0.59409
 C1006 C 0.21005 0.18016 0.57115
 H1007 H 0.17843 0.22275 0.58977
 H1008 H 0.21836 0.15217 0.57432
   
