data_POSCAR
  _audit_creation_date              2014-09-24
  _audit_creation_method            'ToBaCCo'
  _symmetry_space_group_name_H-M    'P1'
  _symmetry_Int_Tables_number       1
  _symmetry_cell_setting            triclinic
  loop_
  _symmetry_equiv_pos_as_xyz
 x,y,z
_cell_length_a 50.8993
_cell_length_b 51.1863
_cell_length_c 35.1026
_cell_angle_alpha 90.289500
_cell_angle_beta 89.632900
_cell_angle_gamma 120.974800
loop_
  _atom_site_label
  _atom_site_type_symbol
  _atom_site_fract_x
  _atom_site_fract_y
  _atom_site_fract_z
C1 C -0.06318 0.48254 -0.08173
 C2 C -0.06163 0.45672 -0.08013
 C3 C -0.04798 0.45759 -0.04569
 N4 N -0.04056 0.48346 -0.02642
 C5 C -0.05023 0.49854 -0.04837
 C6 C -0.04465 0.43359 -0.03148
 C7 C -0.02273 0.43884 -0.00323
 C8 C -0.02254 0.41654 0.01887
 C9 C 0.00240 0.43119 0.04257
 C10 C 0.01663 0.46203 0.03446
 N11 N 0.00129 0.46649 0.00638
 C12 C 0.04357 0.48505 0.05219
 C13 C 0.05343 0.51637 0.04988
 C14 C 0.08159 0.53979 0.06244
 C15 C 0.08074 0.56603 0.06011
 C16 C 0.05222 0.55795 0.04567
 N17 N 0.03552 0.52752 0.03949
 C18 C 0.04079 0.57788 0.04273
 C19 C 0.01284 0.56972 0.02471
 C20 C -0.00252 0.58549 0.02820
 C21 C -0.02813 0.57068 0.00561
 C22 C -0.02740 0.54662 -0.01169
 N23 N -0.00227 0.54632 -0.00000
 C24 C -0.04933 0.52573 -0.03781
 H25 H -0.07273 0.48891 -0.10485
 H26 H -0.06978 0.43916 -0.10179
 H27 H 0.00550 0.53252 -0.01082
 H28 H -0.03893 0.39229 0.01851
 H29 H 0.00901 0.42036 0.06372
 H30 H 0.10052 0.53806 0.07317
 H31 H 0.09888 0.58834 0.06905
 H32 H -0.04536 0.57688 0.00257
 H33 H 0.00818 0.48691 -0.00764
 H34 H 0.00385 0.60546 0.04540
 C35 C 0.53200 0.48192 -0.10742
 C36 C 0.50454 0.45500 -0.10815
 C37 C 0.48877 0.45452 -0.07564
 N38 N 0.50571 0.48015 -0.05482
 C39 C 0.53240 0.49681 -0.07405
 C40 C 0.46041 0.42940 -0.06403
 C41 C 0.44129 0.43185 -0.03681
 C42 C 0.41575 0.40751 -0.02005
 C43 C 0.40278 0.41968 0.00310
 C44 C 0.42096 0.45115 0.00006
 N45 N 0.44409 0.45829 -0.02479
 C46 C 0.41517 0.47235 0.01846
 C47 C 0.43702 0.50394 0.02027
 C48 C 0.43143 0.52582 0.03501
 C49 C 0.45898 0.55267 0.03571
 C50 C 0.48071 0.54635 0.02195
 N51 N 0.46724 0.51658 0.01239
 C52 C 0.51271 0.56701 0.02308
 C53 C 0.53420 0.56145 0.00492
 C54 C 0.56534 0.57721 0.01243
 C55 C 0.57818 0.56515 -0.01106
 C56 C 0.55458 0.54256 -0.03267
 N57 N 0.52783 0.54054 -0.02278
 C58 C 0.55795 0.52433 -0.06060
 H59 H 0.54980 0.48956 -0.12889
 H60 H 0.49702 0.43767 -0.13005
 H61 H 0.50682 0.52731 -0.03625
 H62 H 0.40716 0.38349 -0.02429
 H63 H 0.38218 0.40672 0.01996
 H64 H 0.40999 0.52285 0.04528
 H65 H 0.46274 0.57421 0.04636
 H66 H 0.60213 0.57191 -0.01153
 H67 H 0.45918 0.47977 -0.03585
 H68 H 0.57750 0.59517 0.03316
 C69 C 0.43455 0.91777 0.05257
 C70 C 0.46097 0.91716 0.05645
 C71 C 0.48481 0.94549 0.04515
 N72 N 0.47376 0.96331 0.03418
 C73 C 0.44299 0.94636 0.03861
 C74 C 0.51626 0.95530 0.04851
 C75 C 0.53985 0.98248 0.03190
 C76 C 0.57084 0.99579 0.03976
 C77 C 0.58607 1.02108 0.01679
 C78 C 0.56392 1.02256 -0.00422
 N79 N 0.53590 0.99884 0.00484
 C80 C 0.56985 1.04458 -0.03225
 C81 C 0.54687 1.04928 -0.04707
 C82 C 0.55042 1.06639 -0.07923
 C83 C 0.52441 1.06782 -0.08214
 C84 C 0.50582 1.05171 -0.05148
 N85 N 0.51952 1.04017 -0.03014
 C86 C 0.47738 1.04927 -0.04276
 C87 C 0.45548 1.02638 -0.01819
 C88 C 0.43026 1.02612 -0.00240
 C89 C 0.41486 1.00013 0.01925
 C90 C 0.43133 0.98547 0.01669
 N91 N 0.45583 1.00139 -0.00652
 C92 C 0.42282 0.95742 0.03427
 H93 H 0.41182 0.89941 0.06003
 H94 H 0.46249 0.89818 0.06714
 H95 H 0.47040 0.99422 -0.01645
 H96 H 0.58142 0.98810 0.05990
 H97 H 0.61061 1.03663 0.01573
 H98 H 0.56982 1.07687 -0.09854
 H99 H 0.51971 1.07942 -0.10436
 H100 H 0.39404 0.99305 0.03532
 H101 H 0.51564 0.99260 -0.00940
 H102 H 0.42371 1.04301 -0.00576
 C103 C 1.06560 0.54586 0.42111
 C104 C 1.06605 0.51943 0.42183
 C105 C 1.05337 0.50555 0.45643
 N106 N 1.04481 0.52250 0.47682
 C107 C 1.05272 0.54744 0.45534
 C108 C 1.05119 0.47825 0.46918
 C109 C 1.02910 0.45936 0.49675
 C110 C 1.02888 0.43569 0.51615
 C111 C 1.00293 0.42227 0.53849
 C112 C 0.98835 0.43856 0.53297
 N113 N 1.00435 0.46099 0.50729
 C114 C 0.96018 0.43153 0.54996
 C115 C 0.94955 0.45220 0.55130
 C116 C 0.92156 0.44563 0.56641
 C117 C 0.92117 0.47216 0.56568
 C118 C 0.94897 0.49422 0.55027
 N119 N 0.96639 0.48202 0.54176
 C120 C 0.95883 0.52552 0.54774
 C121 C 0.98683 0.54744 0.53082
 C122 C 1.00069 0.57867 0.53581
 C123 C 1.02655 0.59196 0.51331
 C124 C 1.02741 0.56851 0.49442
 N125 N 1.00319 0.54144 0.50550
 C126 C 1.04949 0.57226 0.46672
 H127 H 1.07354 0.56197 0.39781
 H128 H 1.07448 0.51115 0.39924
 H129 H 0.99646 0.52032 0.49338
 H130 H 1.04561 0.42869 0.51445
 H131 H 0.99581 0.40279 0.55679
 H132 H 0.90353 0.42422 0.57787
 H133 H 0.90280 0.47499 0.57642
 H134 H 1.04280 0.61617 0.51114
 H135 H 0.99725 0.47468 0.49476
 H136 H 0.99308 0.59071 0.55387
 C137 C 0.44836 0.52100 0.42807
 C138 C 0.47578 0.54801 0.42679
 C139 C 0.49766 0.54232 0.44119
 N140 N 0.48440 0.51274 0.45146
 C141 C 0.45419 0.49966 0.44369
 C142 C 0.52954 0.56372 0.44174
 C143 C 0.55073 0.55902 0.46187
 C144 C 0.58234 0.57667 0.45801
 C145 C 0.59461 0.56565 0.48368
 C146 C 0.57015 0.54147 0.50230
 N147 N 0.54353 0.53775 0.48911
 C148 C 0.57284 0.52432 0.53175
 C149 C 0.54822 0.49583 0.54395
 C150 C 0.54879 0.48017 0.57574
 C151 C 0.52184 0.45263 0.57575
 C152 C 0.50562 0.45238 0.54403
 N153 N 0.52180 0.47880 0.52459
 C154 C 0.47733 0.42719 0.53222
 C155 C 0.45862 0.42919 0.50422
 C156 C 0.43317 0.40447 0.48788
 C157 C 0.42026 0.41605 0.46410
 C158 C 0.43839 0.44755 0.46620
 N159 N 0.46149 0.45533 0.49103
 C160 C 0.43231 0.46821 0.44738
 H161 H 0.42676 0.51754 0.41798
 H162 H 0.47924 0.56932 0.41597
 H163 H 0.47627 0.47707 0.50157
 H164 H 0.59527 0.59558 0.43877
 H165 H 0.61877 0.57439 0.48803
 H166 H 0.56686 0.48767 0.59659
 H167 H 0.51503 0.43478 0.59666
 H168 H 0.39972 0.40270 0.44743
 H169 H 0.52191 0.52359 0.50079
 H170 H 0.42454 0.38054 0.49290
 C171 C 0.46849 -0.05720 0.40715
 C172 C 0.49459 -0.05859 0.40789
 C173 C 0.50831 -0.04689 0.44281
 N174 N 0.49164 -0.03800 0.46338
 C175 C 0.46694 -0.04483 0.44173
 C176 C 0.53469 -0.04659 0.45617
 C177 C 0.55378 -0.02546 0.48425
 C178 C 0.57533 -0.02758 0.50594
 C179 C 0.58878 -0.00242 0.52945
 C180 C 0.57485 0.01414 0.52170
 N181 N 0.55378 0.00012 0.49395
 C182 C 0.58199 0.04177 0.53953
 C183 C 0.56288 0.05413 0.53707
 C184 C 0.57115 0.08332 0.54855
 C185 C 0.54499 0.08471 0.54784
 C186 C 0.52159 0.05625 0.53620
 N187 N 0.53261 0.03765 0.52932
 C188 C 0.49011 0.04646 0.53744
 C189 C 0.46767 0.01931 0.51967
 C190 C 0.43646 0.00465 0.52688
 C191 C 0.42275 -0.02047 0.50335
 C192 C 0.44599 -0.02025 0.48214
 N193 N 0.47327 0.00406 0.49232
 C194 C 0.44199 -0.04180 0.45379
 H195 H 0.45240 -0.06453 0.38382
 H196 H 0.50262 -0.06727 0.38530
 H197 H 0.49426 0.01118 0.47903
 H198 H 0.58050 -0.04561 0.50544
 H199 H 0.60646 0.00284 0.55022
 H200 H 0.59352 0.10135 0.55774
 H201 H 0.54316 0.10408 0.55630
 H202 H 0.39850 -0.03719 0.50245
 H203 H 0.54160 0.00863 0.48034
 H204 H 0.42480 0.01112 0.54733
 O205 O 0.18031 0.42326 0.21753
 O206 O 0.23234 0.41599 0.28423
 O207 O 0.18331 0.42042 0.29135
 O208 O 0.22878 0.41778 0.21067
 O209 O 0.25749 0.46798 0.21191
 O210 O 0.21368 0.47039 0.29399
 O211 O 0.26171 0.46614 0.28584
 O212 O 0.20958 0.47331 0.22136
 Cu213 Cu 0.20320 0.41429 0.25066
 Cu214 Cu 0.23868 0.47443 0.25330
 C215 C 0.18581 0.44974 0.20891
 C216 C 0.25596 0.44001 0.29632
 C217 C 0.19074 0.44595 0.30637
 C218 C 0.25098 0.44248 0.19767
 O219 O 0.57846 0.81058 0.28090
 O220 O 0.57248 0.76052 0.20057
 O221 O 0.57197 0.81170 0.20732
 O222 O 0.57905 0.75977 0.27399
 O223 O 0.52859 0.73236 0.27852
 O224 O 0.52193 0.78589 0.21656
 O225 O 0.52217 0.73531 0.20698
 O226 O 0.52838 0.78241 0.28900
 Cu227 Cu 0.58060 0.78841 0.23986
 Cu228 Cu 0.52028 0.75650 0.24834
 C229 C 0.55422 0.80479 0.29874
 C230 C 0.54613 0.73884 0.19076
 C231 C 0.54565 0.80804 0.20151
 C232 C 0.55478 0.73665 0.28665
 O233 O 0.18375 0.77103 0.29517
 O234 O 0.23219 0.82357 0.21861
 O235 O 0.17937 0.77200 0.22146
 O236 O 0.23655 0.82271 0.29249
 O237 O 0.26039 0.79716 0.28581
 O238 O 0.20387 0.74699 0.21520
 O239 O 0.25543 0.79735 0.21218
 O240 O 0.20805 0.74591 0.28875
 Cu241 Cu 0.20557 0.79993 0.25761
 Cu242 Cu 0.23436 0.76934 0.25010
 C243 C 0.18752 0.74926 0.30474
 C244 C 0.25193 0.81915 0.20219
 C245 C 0.18201 0.75088 0.20619
 C246 C 0.25845 0.81868 0.30101
 O247 O 0.76265 0.58002 0.78577
 O248 O 0.81681 0.58038 0.71483
 O249 O 0.76605 0.58218 0.71161
 O250 O 0.81279 0.57728 0.78886
 O251 O 0.78513 0.52718 0.78468
 O252 O 0.73886 0.53196 0.70900
 O253 O 0.78850 0.53023 0.71098
 O254 O 0.73552 0.52984 0.78256
 Cu255 Cu 0.79237 0.58506 0.75059
 Cu256 Cu 0.75930 0.52483 0.74663
 C257 C 0.73964 0.55474 0.79605
 C258 C 0.81178 0.55528 0.70081
 C259 C 0.74432 0.55769 0.69730
 C260 C 0.80696 0.55112 0.79961
 O261 O 0.42294 0.23088 0.70168
 O262 O 0.42598 0.18431 0.78011
 O263 O 0.42006 0.23230 0.77552
 O264 O 0.42799 0.18225 0.70582
 O265 O 0.47828 0.21165 0.70923
 O266 O 0.47039 0.26200 0.77679
 O267 O 0.47616 0.21488 0.78216
 O268 O 0.47335 0.25968 0.70322
 Cu269 Cu 0.41913 0.20439 0.74050
 Cu270 Cu 0.47952 0.24005 0.74291
 C271 C 0.44780 0.25349 0.68938
 C272 C 0.45183 0.19175 0.79441
 C273 C 0.44401 0.25590 0.78778
 C274 C 0.45465 0.18812 0.69638
 O275 O 0.77080 0.18166 0.72469
 O276 O 0.82181 0.23484 0.79954
 O277 O 0.76996 0.18261 0.79902
 O278 O 0.82325 0.23457 0.72530
 O279 O 0.79639 0.25730 0.72223
 O280 O 0.74583 0.20817 0.79862
 O281 O 0.79653 0.25917 0.79647
 O282 O 0.74474 0.20526 0.72546
 Cu283 Cu 0.79909 0.20599 0.76202
 Cu284 Cu 0.76848 0.23500 0.76022
 C285 C 0.74835 0.18392 0.71337
 C286 C 0.81751 0.25600 0.81088
 C287 C 0.74900 0.18688 0.81172
 C288 C 0.81887 0.25486 0.71132
 C289 C 0.09917 0.46442 0.12165
 C290 C 0.08453 0.47873 0.13787
 C291 C 0.06546 0.48432 0.11553
 C292 C 0.06123 0.47604 0.07696
 C293 C 0.07514 0.46053 0.06217
 N294 N 0.09365 0.45523 0.08458
 C295 C 0.12167 0.46083 0.14376
 N296 N 0.12240 0.43464 0.14119
 C297 C 0.14266 0.43042 0.16152
 C298 C 0.16406 0.45364 0.18546
 C299 C 0.16400 0.48097 0.18770
 C300 C 0.14280 0.48457 0.16715
 H301 H 0.05466 0.49588 0.12800
 H302 H 0.07202 0.45353 0.03259
 H303 H 0.14214 0.40908 0.15886
 H304 H 0.18004 0.49945 0.20585
 H305 H 0.08808 0.48581 0.16744
 H306 H 0.14317 0.50587 0.16920
 C307 C 0.53588 0.64399 0.09319
 C308 C 0.52297 0.61503 0.10967
 C309 C 0.51720 0.59025 0.08710
 C310 C 0.52392 0.59421 0.04806
 C311 C 0.53853 0.62380 0.03300
 N312 N 0.54391 0.64777 0.05564
 C313 C 0.53801 0.66940 0.11560
 N314 N 0.56475 0.69675 0.11740
 C315 C 0.56778 0.71989 0.14000
 C316 C 0.54291 0.71603 0.16218
 C317 C 0.51492 0.68837 0.15927
 C318 C 0.51246 0.66506 0.13627
 H319 H 0.50618 0.56773 0.09963
 H320 H 0.54425 0.62757 0.00300
 H321 H 0.58970 0.74095 0.14129
 H322 H 0.49512 0.68426 0.17582
 H323 H 0.51660 0.61152 0.13953
 H324 H 0.49085 0.64363 0.13495
 C325 C 0.33885 0.90108 0.09294
 C326 C 0.34217 0.89376 0.05526
 C327 C 0.36889 0.91321 0.03500
 C328 C 0.39215 0.93971 0.05232
 C329 C 0.38727 0.94712 0.08912
 N330 N 0.36114 0.92778 0.10840
 C331 C 0.31344 0.87916 0.11753
 N332 N 0.30249 0.88961 0.14553
 C333 C 0.28148 0.87066 0.17165
 C334 C 0.27145 0.83950 0.17141
 C335 C 0.28219 0.82825 0.14260
 C336 C 0.30291 0.84791 0.11543
 H337 H 0.37211 0.90692 0.00660
 H338 H 0.40486 0.96753 0.10313
 H339 H 0.27381 0.88015 0.19364
 H340 H 0.27498 0.80432 0.14155
 H341 H 0.32471 0.87286 0.04202
 H342 H 0.31179 0.83894 0.09429
 C343 C 0.89777 0.54766 0.60235
 C344 C 0.89166 0.53610 0.56502
 C345 C 0.91241 0.53025 0.54646
 C346 C 0.93903 0.53578 0.56511
 C347 C 0.94497 0.54846 0.60177
 N348 N 0.92441 0.55399 0.61933
 C349 C 0.87497 0.55099 0.62461
 N350 N 0.88459 0.57398 0.65055
 C351 C 0.86469 0.57670 0.67394
 C352 C 0.83329 0.55478 0.67291
 C353 C 0.82293 0.53102 0.64630
 C354 C 0.84362 0.52920 0.62189
 H355 H 0.90726 0.52042 0.51813
 H356 H 0.96539 0.55298 0.61682
 H357 H 0.87354 0.59521 0.69434
 H358 H 0.79887 0.51363 0.64474
 H359 H 0.87085 0.53118 0.55059
 H360 H 0.83529 0.51018 0.60231
 C361 C 0.45347 0.34359 0.58757
 C362 C 0.43408 0.35548 0.59162
 C363 C 0.44123 0.38227 0.57255
 C364 C 0.46747 0.39705 0.54950
 C365 C 0.48556 0.38389 0.54507
 N366 N 0.47845 0.35812 0.56433
 C367 C 0.44975 0.31786 0.61085
 N368 N 0.47513 0.31628 0.61802
 C369 C 0.47464 0.29506 0.64152
 C370 C 0.44736 0.27375 0.65985
 C371 C 0.42053 0.27398 0.65164
 C372 C 0.42161 0.29602 0.62717
 H373 H 0.42695 0.39205 0.57675
 H374 H 0.50592 0.39471 0.52736
 H375 H 0.49579 0.29546 0.64663
 H376 H 0.39898 0.25784 0.66508
 H377 H 0.41452 0.34522 0.61063
 H378 H 0.40075 0.29601 0.62153
 C379 C 0.65551 0.09334 0.61607
 C380 C 0.62554 0.07555 0.63016
 C381 C 0.60189 0.05723 0.60533
 C382 C 0.60801 0.05657 0.56652
 C383 C 0.63852 0.07299 0.55384
 N384 N 0.66134 0.09110 0.57861
 C385 C 0.67968 0.11675 0.64058
 N386 N 0.70832 0.12078 0.64118
 C387 C 0.73086 0.14209 0.66401
 C388 C 0.72513 0.16110 0.68724
 C389 C 0.69595 0.15758 0.68614
 C390 C 0.67325 0.13545 0.66313
 H391 H 0.57856 0.04466 0.61598
 H392 H 0.64393 0.07273 0.52403
 H393 H 0.75316 0.14425 0.66392
 H394 H 0.69044 0.17165 0.70360
 H395 H 0.62032 0.07670 0.65986
 H396 H 0.65087 0.13315 0.66267
 C397 C 0.46380 0.11452 0.90286
 C398 C 0.48976 0.12402 0.92572
 C399 C 0.49374 0.10243 0.94444
 C400 C 0.47157 0.07129 0.94170
 C401 C 0.44464 0.06291 0.92132
 N402 N 0.44176 0.08436 0.90209
 C403 C 0.46074 0.13607 0.87773
 N404 N 0.43293 0.12763 0.86233
 C405 C 0.42909 0.14536 0.83678
 C406 C 0.45435 0.17318 0.82478
 C407 C 0.48305 0.18242 0.84067
 C408 C 0.48638 0.16403 0.86681
 H409 H 0.51434 0.11006 0.96101
 H410 H 0.42684 0.03919 0.91858
 H411 H 0.40655 0.13731 0.82515
 H412 H 0.50325 0.20357 0.83213
 H413 H 0.50722 0.14775 0.92894
 H414 H 0.50918 0.17142 0.87683
 C415 C 0.64319 0.54652 0.89116
 C416 C 0.63606 0.56953 0.89561
 C417 C 0.60838 0.56263 0.91296
 C418 C 0.58756 0.53282 0.92548
 C419 C 0.59643 0.51103 0.92207
 N420 N 0.62328 0.51824 0.90499
 C421 C 0.67006 0.55065 0.86918
 N422 N 0.67006 0.52512 0.85813
 C423 C 0.69244 0.52603 0.83598
 C424 C 0.71683 0.55400 0.82308
 C425 C 0.71798 0.58081 0.83499
 C426 C 0.69471 0.57927 0.85809
 H427 H 0.60251 0.58016 0.91455
 H428 H 0.58176 0.48804 0.93251
 H429 H 0.69072 0.50477 0.82787
 H430 H 0.73652 0.60290 0.82588
 H431 H 0.65077 0.59221 0.88451
 H432 H 0.69616 0.60026 0.86673
 C433 C 0.89538 0.34863 0.91774
 C434 C 0.92618 0.35735 0.92297
 C435 C 0.94601 0.38478 0.94175
 C436 C 0.93525 0.40369 0.95473
 C437 C 0.90381 0.39293 0.95102
 N438 N 0.88519 0.36641 0.93265
 C439 C 0.87427 0.32221 0.89366
 N440 N 0.88444 0.30596 0.87414
 C441 C 0.86642 0.28367 0.84875
 C442 C 0.83668 0.27744 0.84108
 C443 C 0.82558 0.29327 0.86173
 C444 C 0.84410 0.31538 0.88809
 H445 H 0.97007 0.39210 0.94384
 H446 H 0.89415 0.40607 0.96183
 H447 H 0.87573 0.27179 0.83351
 H448 H 0.80262 0.28887 0.85710
 H449 H 0.93512 0.34378 0.91148
 H450 H 0.83506 0.32765 0.90303
 C451 C 0.55069 0.88795 0.40538
 C452 C 0.57552 0.91768 0.41098
 C453 C 0.57074 0.93926 0.42934
 C454 C 0.54115 0.93141 0.44151
 C455 C 0.51735 0.90098 0.43678
 N456 N 0.52262 0.88055 0.41900
 C457 C 0.55350 0.86518 0.38228
 N458 N 0.57877 0.87381 0.36013
 C459 C 0.58046 0.85439 0.33490
 C460 C 0.55534 0.82469 0.33016
 C461 C 0.52973 0.81504 0.35389
 C462 C 0.52878 0.83507 0.37998
 H463 H 0.58979 0.96245 0.43196
 H464 H 0.49437 0.89348 0.44681
 H465 H 0.60072 0.86267 0.31727
 H466 H 0.50996 0.79223 0.35151
 H467 H 0.59816 0.92441 0.40039
 H468 H 0.50836 0.82730 0.39719
 C469 C 0.34864 0.44167 0.38985
 C470 C 0.36888 0.43344 0.37434
 C471 C 0.39579 0.44113 0.39378
 C472 C 0.40211 0.45635 0.42885
 C473 C 0.38062 0.46283 0.44426
 N474 N 0.35508 0.45601 0.42428
 C475 C 0.32269 0.43866 0.36767
 N476 N 0.31637 0.46141 0.37003
 C477 C 0.29456 0.46172 0.34832
 C478 C 0.27745 0.43803 0.32243
 C479 C 0.28265 0.41368 0.32053
 C480 C 0.30549 0.41404 0.34290
 H481 H 0.41215 0.43615 0.38099
 H482 H 0.38497 0.47469 0.47122
 H483 H 0.29092 0.48071 0.35092
 H484 H 0.26986 0.39501 0.30085
 H485 H 0.36487 0.42279 0.34657
 H486 H 0.30978 0.39545 0.34067
 C487 C 0.10712 0.65520 0.40943
 C488 C 0.07620 0.64591 0.41568
 C489 C 0.05725 0.61906 0.43587
 C490 C 0.06884 0.60119 0.44967
 C491 C 0.10023 0.61213 0.44401
 N492 N 0.11806 0.63812 0.42412
 C493 C 0.12786 0.68130 0.38470
 N494 N 0.15347 0.68244 0.37087
 C495 C 0.17313 0.70433 0.34638
 C496 C 0.16749 0.72699 0.33396
 C497 C 0.14174 0.72695 0.34865
 C498 C 0.12189 0.70420 0.37405
 H499 H 0.03314 0.61139 0.43867
 H500 H 0.11055 0.59976 0.45498
 H501 H 0.19284 0.70359 0.33615
 H502 H 0.13663 0.74414 0.34001
 H503 H 0.06619 0.65823 0.40377
 H504 H 0.10225 0.70471 0.38494
 C505 C 0.88472 0.53814 0.90686
 C506 C 0.87557 0.51118 0.92715
 C507 C 0.89732 0.50761 0.94631
 C508 C 0.92824 0.53108 0.94662
 C509 C 0.93602 0.55875 0.92883
 N510 N 0.91448 0.56132 0.90907
 C511 C 0.86323 0.54111 0.88135
 N512 N 0.86976 0.56928 0.86999
 C513 C 0.85184 0.57329 0.84481
 C514 C 0.82584 0.54794 0.82905
 C515 C 0.81873 0.51881 0.84053
 C516 C 0.83728 0.51529 0.86631
 H517 H 0.89000 0.48627 0.96080
 H518 H 0.95953 0.57753 0.92835
 H519 H 0.85826 0.59618 0.83658
 H520 H 0.79911 0.49855 0.82894
 H521 H 0.85199 0.49268 0.92795
 H522 H 0.83171 0.49241 0.87301
 C523 C 0.44129 0.34621 0.88290
 C524 C 0.42085 0.35667 0.87755
 C525 C 0.42616 0.38319 0.89618
 C526 C 0.45162 0.39905 0.92002
 C527 C 0.47066 0.38717 0.92586
 N528 N 0.46534 0.36170 0.90705
 C529 C 0.43978 0.32098 0.86029
 N530 N 0.46613 0.32062 0.85538
 C531 C 0.46768 0.29960 0.83335
 C532 C 0.44157 0.27707 0.81437
 C533 C 0.41381 0.27624 0.81993
 C534 C 0.41280 0.29819 0.84282
 H535 H 0.41123 0.39201 0.89083
 H536 H 0.49048 0.39888 0.94417
 H537 H 0.48948 0.30089 0.83028
 H538 H 0.39309 0.25912 0.80592
 H539 H 0.40194 0.34557 0.85785
 H540 H 0.39123 0.29724 0.84661
 C541 C 0.65649 0.10508 0.91677
 C542 C 0.64375 0.07349 0.91247
 C543 C 0.61620 0.05338 0.93097
 C544 C 0.60170 0.06478 0.95389
 C545 C 0.61622 0.09630 0.95955
 N546 N 0.64259 0.11539 0.94068
 C547 C 0.68271 0.12721 0.89300
 N548 N 0.69891 0.11798 0.87151
 C549 C 0.72124 0.13699 0.84668
 C550 C 0.72760 0.16688 0.84155
 C551 C 0.71171 0.17700 0.86403
 C552 C 0.68954 0.15741 0.88994
 H553 H 0.60543 0.02911 0.92596
 H554 H 0.60566 0.10578 0.97726
 H555 H 0.73304 0.12835 0.82986
 H556 H 0.71610 0.19998 0.86116
 H557 H 0.65404 0.06446 0.89353
 H558 H 0.67710 0.16558 0.90632
 C559 C 0.11276 0.45789 0.41498
 C560 C 0.08216 0.43450 0.42027
 C561 C 0.06183 0.44067 0.43968
 C562 C 0.07186 0.47018 0.45361
 C563 C 0.10309 0.49237 0.44928
 N564 N 0.12225 0.48584 0.43019
 C565 C 0.13425 0.45367 0.39066
 N566 N 0.12438 0.42707 0.37130
 C567 C 0.14248 0.42344 0.34572
 C568 C 0.17215 0.44776 0.33766
 C569 C 0.18307 0.47495 0.35823
 C570 C 0.16434 0.47793 0.38477
 H571 H 0.03795 0.42287 0.44174
 H572 H 0.11219 0.51518 0.46049
 H573 H 0.13322 0.40203 0.33057
 H574 H 0.20588 0.49423 0.35317
 H575 H 0.07374 0.41200 0.40843
 H576 H 0.17309 0.49943 0.39958
 C577 C 0.55484 0.64303 0.37553
 C578 C 0.56292 0.64653 0.41420
 C579 C 0.55579 0.62077 0.43577
 C580 C 0.54115 0.59187 0.41862
 C581 C 0.53525 0.58971 0.37944
 N582 N 0.54151 0.61486 0.35937
 C583 C 0.55675 0.66815 0.35298
 N584 N 0.53376 0.66139 0.32805
 C585 C 0.53288 0.68301 0.30694
 C586 C 0.55639 0.71359 0.30979
 C587 C 0.58082 0.72118 0.33459
 C588 C 0.58090 0.69849 0.35669
 H589 H 0.56054 0.62318 0.46602
 H590 H 0.52422 0.56778 0.36527
 H591 H 0.51389 0.67621 0.28767
 H592 H 0.59943 0.74457 0.33733
 H593 H 0.57293 0.66853 0.42806
 H594 H 0.59967 0.70450 0.37602
 C595 C 0.35735 0.90051 0.39936
 C596 C 0.36630 0.93102 0.40676
 C597 C 0.39378 0.94996 0.42593
 C598 C 0.41265 0.93882 0.43748
 C599 C 0.40206 0.90782 0.43073
 N600 N 0.37542 0.88998 0.41195
 C601 C 0.33031 0.87967 0.37595
 N602 N 0.32873 0.85409 0.36183
 C603 C 0.30576 0.83414 0.33876
 C604 C 0.28235 0.83941 0.32821
 C605 C 0.28295 0.86523 0.34309
 C606 C 0.30682 0.88539 0.36701
 H607 H 0.40106 0.97376 0.42976
 H608 H 0.41509 0.89775 0.44016
 H609 H 0.30616 0.81442 0.32827
 H610 H 0.26522 0.87005 0.33588
 H611 H 0.35316 0.94072 0.39665
 H612 H 0.30662 0.90500 0.37815
 C613 C 0.53411 0.89718 0.11635
 C614 C 0.52053 0.91237 0.13307
 C615 C 0.51595 0.93230 0.11128
 C616 C 0.52460 0.93697 0.07281
 C617 C 0.53942 0.92250 0.05753
 N618 N 0.54369 0.90309 0.07939
 C619 C 0.53672 0.87391 0.13783
 N620 N 0.56213 0.87165 0.13395
 C621 C 0.56554 0.85070 0.15363
 C622 C 0.54229 0.83020 0.17838
 C623 C 0.51567 0.83177 0.18192
 C624 C 0.51288 0.85360 0.16192
 H625 H 0.50482 0.94344 0.12404
 H626 H 0.54662 0.92587 0.02799
 H627 H 0.58634 0.85008 0.14994
 H628 H 0.49716 0.81645 0.20069
 H629 H 0.51324 0.90861 0.16260
 H630 H 0.49210 0.85437 0.16496
 C631 C 0.33581 0.44662 0.08649
 C632 C 0.35699 0.43853 0.09819
 C633 C 0.38238 0.44603 0.07528
 C634 C 0.38624 0.46082 0.04042
 C635 C 0.36377 0.46713 0.02883
 N636 N 0.33977 0.46062 0.05226
 C637 C 0.31147 0.44333 0.11253
 N638 N 0.30639 0.46687 0.11610
 C639 C 0.28645 0.46666 0.14222
 C640 C 0.27017 0.44163 0.16658
 C641 C 0.27412 0.41659 0.16232
 C642 C 0.29497 0.41748 0.13556
 H643 H 0.39954 0.44119 0.08522
 H644 H 0.36619 0.47865 0.00211
 H645 H 0.28374 0.48625 0.14438
 H646 H 0.26200 0.39689 0.18066
 H647 H 0.35485 0.42808 0.12567
 H648 H 0.29846 0.39837 0.13318
 C649 C 0.09430 0.66032 0.10502
 C650 C 0.06573 0.63789 0.11956
 C651 C 0.04766 0.61139 0.09849
 C652 C 0.05771 0.60761 0.06278
 C653 C 0.08562 0.63119 0.04838
 N654 N 0.10333 0.65635 0.06994
 C655 C 0.11639 0.68598 0.12894
 N656 N 0.14647 0.69457 0.12682
 C657 C 0.16787 0.71595 0.15037
 C658 C 0.15938 0.73011 0.17808
 C659 C 0.12874 0.72261 0.17976
 C660 C 0.10707 0.70033 0.15540
 H661 H 0.02636 0.59338 0.11053
 H662 H 0.09404 0.62882 0.02096
 H663 H 0.19139 0.72147 0.14787
 H664 H 0.12138 0.73312 0.20077
 H665 H 0.05827 0.63992 0.14779
 H666 H 0.08334 0.69418 0.15751
 C667 C 0.46889 0.10214 0.60649
 C668 C 0.48322 0.08773 0.62276
 C669 C 0.48878 0.06849 0.60057
 C670 C 0.48047 0.06384 0.56206
 C671 C 0.46479 0.07742 0.54725
 N672 N 0.45953 0.09616 0.56953
 C673 C 0.46561 0.12492 0.62850
 N674 N 0.43894 0.12508 0.62757
 C675 C 0.43486 0.14523 0.64855
 C676 C 0.45865 0.16698 0.67159
 C677 C 0.48651 0.16760 0.67194
 C678 C 0.49000 0.14657 0.65070
 H679 H 0.50048 0.05796 0.61307
 H680 H 0.45777 0.07399 0.51772
 H681 H 0.41310 0.14418 0.64731
 H682 H 0.50545 0.18394 0.68932
 H683 H 0.49045 0.09169 0.65224
 H684 H 0.51164 0.14731 0.65147
 C685 C 0.65630 0.55176 0.59065
 C686 C 0.64280 0.56974 0.59375
 C687 C 0.61621 0.56162 0.57316
 C688 C 0.60322 0.53579 0.54965
 C689 C 0.61814 0.51934 0.54592
 N690 N 0.64364 0.52735 0.56661
 C691 C 0.68151 0.55598 0.61572
 N692 N 0.68472 0.53151 0.62151
 C693 C 0.70539 0.53209 0.64619
 C694 C 0.72445 0.55849 0.66735
 C695 C 0.72257 0.58452 0.66084
 C696 C 0.70110 0.58337 0.63506
 H697 H 0.60506 0.57467 0.57676
 H698 H 0.60873 0.49935 0.52784
 H699 H 0.70637 0.51163 0.64984
 H700 H 0.73701 0.60539 0.67645
 H701 H 0.65151 0.58882 0.61320
 H702 H 0.69982 0.60358 0.63073
 C703 C 0.90292 0.34861 0.60998
 C704 C 0.89404 0.35286 0.57389
 C705 C 0.91348 0.37927 0.55340
 C706 C 0.94137 0.40163 0.56919
 C707 C 0.94974 0.39628 0.60498
 N708 N 0.93058 0.37022 0.62426
 C709 C 0.88163 0.32241 0.63387
 N710 N 0.85097 0.31141 0.63179
 C711 C 0.83047 0.28919 0.65540
 C712 C 0.84051 0.27659 0.68300
 C713 C 0.87187 0.28684 0.68484
 C714 C 0.89257 0.31005 0.66063
 H715 H 0.90634 0.38286 0.52589
 H716 H 0.97107 0.41319 0.61799
 H717 H 0.80640 0.28170 0.65300
 H718 H 0.88047 0.27779 0.70599
 H719 H 0.87211 0.33614 0.56195
 H720 H 0.91685 0.31847 0.66303
   
