data_POSCAR
  _audit_creation_date              2014-09-24
  _audit_creation_method            'ToBaCCo'
  _symmetry_space_group_name_H-M    'P1'
  _symmetry_Int_Tables_number       1
  _symmetry_cell_setting            triclinic
  loop_
  _symmetry_equiv_pos_as_xyz
 x,y,z
_cell_length_a 44.7198
_cell_length_b 31.7623
_cell_length_c 6.9241
_cell_angle_alpha 89.763200
_cell_angle_beta 89.977000
_cell_angle_gamma 90.056500
loop_
  _atom_site_label
  _atom_site_type_symbol
  _atom_site_fract_x
  _atom_site_fract_y
  _atom_site_fract_z
C1 C 0.22353 0.22564 0.21276
 C2 C 0.22196 0.26841 0.27095
 C3 C 0.24845 0.29042 0.30964
 C4 C 0.27653 0.27125 0.29235
 C5 C 0.27838 0.22846 0.23428
 C6 C 0.25181 0.20704 0.18674
 H7 H 0.25293 0.17394 0.14948
 H8 H 0.24730 0.32363 0.34458
 C9 C 0.77821 0.27185 0.25238
 C10 C 0.77664 0.22841 0.20457
 C11 C 0.74870 0.20840 0.19581
 C12 C 0.72217 0.23023 0.23462
 C13 C 0.72358 0.27350 0.28126
 C14 C 0.75152 0.29338 0.29466
 H15 H 0.75219 0.32682 0.32558
 H16 H 0.74772 0.17491 0.16652
 C17 C 0.72251 0.73013 0.76226
 C18 C 0.72388 0.77345 0.71490
 C19 C 0.75181 0.79342 0.70106
 C20 C 0.77852 0.77192 0.74394
 C21 C 0.77698 0.72844 0.79245
 C22 C 0.74906 0.70833 0.80127
 H23 H 0.74813 0.67480 0.83102
 H24 H 0.75244 0.82689 0.66977
 C25 C 0.27607 0.77277 0.72291
 C26 C 0.27780 0.72953 0.77135
 C27 C 0.25138 0.70692 0.80589
 C28 C 0.22309 0.72565 0.78246
 C29 C 0.22146 0.76902 0.73231
 C30 C 0.24797 0.79180 0.70298
 H31 H 0.24677 0.82526 0.67206
 H32 H 0.25287 0.67352 0.83761
 O33 O 0.97066 -0.02605 -0.27824
 O34 O 1.03002 0.04954 -0.15159
 O35 O 1.02942 -0.02639 -0.27899
 O36 O 0.97074 0.04991 -0.15173
 O37 O 0.97068 0.02938 0.15298
 O38 O 1.02890 -0.04722 0.02490
 O39 O 1.02983 0.02912 0.15326
 O40 O 0.97119 -0.04697 0.02553
 Cu41 Cu 1.00023 0.01477 -0.24378
 Cu42 Cu 1.00015 -0.01125 0.11815
 C43 C 0.96074 -0.04970 -0.14408
 C44 C 1.04068 0.05146 0.01777
 C45 C 1.03924 -0.05012 -0.14501
 C46 C 0.96002 0.05185 0.01744
 O47 O 0.52946 0.45061 0.65712
 O48 O 0.47073 0.52679 0.78561
 O49 O 0.47017 0.45088 0.65789
 O50 O 0.52946 0.52664 0.78415
 O51 O 0.52884 0.54753 0.48035
 O52 O 0.47024 0.47142 0.35317
 O53 O 0.47116 0.54771 0.48185
 O54 O 0.52932 0.47119 0.35248
 Cu55 Cu 0.49996 0.48571 0.74985
 Cu56 Cu 0.49988 0.51180 0.38800
 C57 C 0.54005 0.44866 0.48755
 C58 C 0.46087 0.55054 0.65189
 C59 C 0.45947 0.44898 0.48861
 C60 C 0.53931 0.55033 0.64991
 O61 O -0.02928 0.54886 0.14880
 O62 O 0.02963 0.47294 0.27861
 O63 O 0.02994 0.54875 0.14739
 O64 O -0.02916 0.47281 0.27727
 O65 O -0.02856 0.45205 -0.02593
 O66 O 0.02977 0.52848 -0.15695
 O67 O 0.02915 0.45225 -0.02470
 O68 O -0.02934 0.52847 -0.15534
 Cu69 Cu 0.00028 0.51384 0.24152
 Cu70 Cu 0.00026 0.48796 -0.11965
 C71 C -0.04003 0.55085 -0.02032
 C72 C 0.03953 0.44936 0.14519
 C73 C 0.04056 0.55081 -0.02216
 C74 C -0.03901 0.44919 0.14377
 O75 O 0.47093 1.04733 0.51791
 O76 O 0.52942 0.97121 0.64874
 O77 O 0.52859 1.04761 0.51889
 O78 O 0.47034 0.97118 0.65071
 O79 O 0.47020 0.95071 0.34669
 O80 O 0.52907 1.02694 0.21556
 O81 O 0.52947 0.95084 0.34457
 O82 O 0.47030 1.02649 0.21483
 Cu83 Cu 0.49983 1.01168 0.61291
 Cu84 Cu 0.49977 0.98572 0.25187
 C85 C 0.46046 1.05012 0.34825
 C86 C 0.54016 0.94885 0.51385
 C87 C 0.53893 1.05059 0.34893
 C88 C 0.45958 0.94872 0.51630
 C89 C 1.14587 0.15207 0.13477
 C90 C 1.16868 0.15103 -0.00471
 C91 C 1.19479 0.17451 0.02502
 C92 C 1.19766 0.20066 0.18823
 C93 C 1.17432 0.20148 0.32605
 C94 C 1.14860 0.17680 0.30124
 C95 C 1.11863 0.12668 0.10599
 C96 C 1.09634 0.12613 0.24939
 C97 C 1.07078 0.10098 0.22282
 C98 C 1.06712 0.07810 0.05085
 C99 C 1.08944 0.07969 -0.09250
 C100 C 1.11549 0.10326 -0.06422
 C101 C 1.12562 0.17614 0.43991
 C102 C 1.10009 0.15086 0.41551
 C103 C 1.16480 0.12683 -0.17219
 C104 C 1.13855 0.10354 -0.20198
 H105 H 1.12754 0.19494 0.56957
 H106 H 1.08312 0.15082 0.52724
 H107 H 1.18207 0.12615 -0.28197
 H108 H 1.13635 0.08549 -0.33369
 H109 H 1.21229 0.17400 -0.08351
 H110 H 1.17660 0.22033 0.45548
 H111 H 1.05357 0.09980 0.33305
 H112 H 1.08682 0.06162 -0.22404
 C113 C 0.64121 0.65891 0.73631
 C114 C 0.64884 0.68601 0.58313
 C115 C 0.67546 0.70902 0.59267
 C116 C 0.69402 0.70611 0.75627
 C117 C 0.68594 0.67913 0.90981
 C118 C 0.65961 0.65512 0.89974
 C119 C 0.61390 0.63309 0.72247
 C120 C 0.60674 0.60473 0.87194
 C121 C 0.58142 0.57875 0.85312
 C122 C 0.56377 0.58076 0.68475
 C123 C 0.57092 0.61034 0.53945
 C124 C 0.59596 0.63639 0.55702
 C125 C 0.65150 0.62696 1.04797
 C126 C 0.62553 0.60215 1.03420
 C127 C 0.62992 0.68911 0.42202
 C128 C 0.60384 0.66479 0.40948
 H129 H 0.66544 0.62382 1.17517
 H130 H 0.62026 0.58056 1.15091
 H131 H 0.63553 0.71007 0.30348
 H132 H 0.59008 0.66760 0.28128
 H133 H 0.68197 0.72880 0.47175
 H134 H 0.70025 0.67668 1.03565
 H135 H 0.57614 0.55606 0.96550
 H136 H 0.55745 0.61239 0.40964
 C137 C -0.14153 0.34170 0.22858
 C138 C -0.16088 0.34711 0.38606
 C139 C -0.18763 0.32400 0.39323
 C140 C -0.19468 0.29472 0.24684
 C141 C -0.17476 0.28982 0.09041
 C142 C -0.14833 0.31328 0.08012
 C143 C -0.11405 0.36721 0.21565
 C144 C -0.09550 0.36306 0.05343
 C145 C -0.07031 0.38885 0.03634
 C146 C -0.06354 0.41889 0.17925
 C147 C -0.08179 0.42174 0.34458
 C148 C -0.10733 0.39615 0.36252
 C149 C -0.12889 0.30948 -0.07809
 C150 C -0.10293 0.33404 -0.09143
 C151 C -0.15319 0.37577 0.53215
 C152 C -0.12681 0.39977 0.52091
 H153 H -0.13400 0.28778 -0.19394
 H154 H -0.08877 0.33070 -0.21748
 H155 H -0.16777 0.37990 0.65563
 H156 H -0.12186 0.42176 0.63582
 H157 H -0.20255 0.32794 0.51534
 H158 H -0.18043 0.26914 -0.02821
 H159 H -0.05639 0.38622 -0.09132
 H160 H -0.07686 0.44493 0.45450
 C161 C 0.35478 0.84749 0.63932
 C162 C 0.35164 0.82406 0.81052
 C163 C 0.32566 0.80002 0.83882
 C164 C 0.30320 0.79906 0.69615
 C165 C 0.30671 0.82277 0.52568
 C166 C 0.33248 0.84705 0.49639
 C167 C 0.38192 0.87304 0.60908
 C168 C 0.38515 0.89597 0.43665
 C169 C 0.41109 0.91973 0.40705
 C170 C 0.43327 0.92188 0.55088
 C171 C 0.42956 0.89946 0.72491
 C172 C 0.40405 0.87424 0.75324
 C173 C 0.33640 0.87083 0.32692
 C174 C 0.36230 0.89492 0.29761
 C175 C 0.37451 0.82523 0.94958
 C176 C 0.40017 0.85014 0.92212
 H177 H 0.31938 0.87065 0.21555
 H178 H 0.36452 0.91273 0.16454
 H179 H 0.37241 0.80710 1.08181
 H180 H 0.41705 0.85063 1.03436
 H181 H 0.32284 0.78204 0.97104
 H182 H 0.28954 0.82179 0.41521
 H183 H 0.41375 0.93743 0.27375
 H184 H 0.44663 0.90113 0.83573
 C185 C -0.14457 0.65292 -0.13256
 C186 C -0.14783 0.67680 -0.30230
 C187 C -0.17367 0.70122 -0.32740
 C188 C -0.19590 0.70206 -0.18307
 C189 C -0.19232 0.67782 -0.01433
 C190 C -0.16666 0.65325 0.01198
 C191 C -0.11756 0.62700 -0.10560
 C192 C -0.11421 0.60367 0.06550
 C193 C -0.08837 0.57962 0.09217
 C194 C -0.06639 0.57764 -0.05312
 C195 C -0.07024 0.60044 -0.22593
 C196 C -0.09566 0.62591 -0.25141
 C197 C -0.16261 0.62905 0.18002
 C198 C -0.13681 0.60466 0.20632
 C199 C -0.12521 0.67566 -0.44322
 C200 C -0.09967 0.65043 -0.41884
 H201 H -0.17944 0.62915 0.29266
 H202 H -0.13448 0.58657 0.33849
 H203 H -0.12741 0.69408 -0.57453
 H204 H -0.08296 0.65005 -0.53219
 H205 H -0.17657 0.71955 -0.45849
 H206 H -0.20937 0.67863 0.09699
 H207 H -0.08560 0.56165 0.22453
 H208 H -0.05331 0.59893 -0.33776
 C209 C 0.35850 1.15835 0.25957
 C210 C 0.33942 1.15335 0.10046
 C211 C 0.31283 1.17676 0.09174
 C212 C 0.30556 1.20571 0.23907
 C213 C 0.32521 1.21008 0.39738
 C214 C 0.35155 1.18655 0.40846
 C215 C 0.38580 1.13256 0.27390
 C216 C 0.40409 1.13638 0.43746
 C217 C 0.42911 1.11037 0.45570
 C218 C 0.43597 1.08042 0.31261
 C219 C 0.41794 1.07782 0.14621
 C220 C 0.39259 1.10367 0.12703
 C221 C 0.37074 1.19004 0.56808
 C222 C 0.39658 1.16532 0.58242
 C223 C 0.34718 1.12470 -0.04549
 C224 C 0.37335 1.10037 -0.03271
 H225 H 0.36553 1.21160 0.68424
 H226 H 0.41054 1.16843 0.70946
 H227 H 0.33280 1.12083 -0.17005
 H228 H 0.37835 1.07841 -0.14758
 H229 H 0.29817 1.17316 -0.03183
 H230 H 0.31936 1.23034 0.51712
 H231 H 0.44285 1.11280 0.58416
 H232 H 0.42293 1.05471 0.03610
 C233 C 1.14043 -0.15946 -0.23779
 C234 C 1.14803 -0.18681 -0.08564
 C235 C 1.17450 -0.21004 -0.09698
 C236 C 1.19294 -0.20707 -0.26126
 C237 C 1.18490 -0.17983 -0.41372
 C238 C 1.15870 -0.15564 -0.40196
 C239 C 1.11331 -0.13338 -0.22190
 C240 C 1.10617 -0.10481 -0.37043
 C241 C 1.08103 -0.07865 -0.34992
 C242 C 1.06353 -0.08067 -0.18082
 C243 C 1.07068 -0.11037 -0.03618
 C244 C 1.09553 -0.13664 -0.05553
 C245 C 1.15063 -0.12721 -0.54906
 C246 C 1.12482 -0.10221 -0.53350
 C247 C 1.12929 -0.18987 0.07644
 C248 C 1.10340 -0.16528 0.09096
 H249 H 1.16449 -0.12402 -0.67670
 H250 H 1.11957 -0.08042 -0.64937
 H251 H 1.13490 -0.21100 0.19426
 H252 H 1.08977 -0.16807 0.21984
 H253 H 1.18100 -0.23005 0.02310
 H254 H 1.19917 -0.17728 -0.53982
 H255 H 1.07577 -0.05582 -0.46163
 H256 H 1.05733 -0.11238 0.09427
 C257 C 0.64460 0.34723 0.36690
 C258 C 0.66702 0.34688 0.50910
 C259 C 0.69283 0.32282 0.47956
 C260 C 0.69625 0.29918 0.30971
 C261 C 0.67364 0.29998 0.16798
 C262 C 0.64764 0.32383 0.19646
 C263 C 0.61749 0.37275 0.39678
 C264 C 0.59530 0.37397 0.25289
 C265 C 0.56987 0.39925 0.28055
 C266 C 0.56629 0.42173 0.45365
 C267 C 0.58851 0.41955 0.59721
 C268 C 0.61439 0.39572 0.56827
 C269 C 0.62469 0.32496 0.05793
 C270 C 0.59907 0.34986 0.08493
 C271 C 0.66319 0.37063 0.67788
 C272 C 0.63730 0.39467 0.70689
 H273 H 0.62671 0.30685 -0.07372
 H274 H 0.58212 0.35031 -0.02684
 H275 H 0.68027 0.37051 0.78885
 H276 H 0.63517 0.41248 0.83934
 H277 H 0.71015 0.32203 0.58911
 H278 H 0.67641 0.28214 0.03600
 H279 H 0.55275 0.40093 0.16993
 H280 H 0.58596 0.43732 0.72964
 C281 C 0.85854 -0.15774 -0.23027
 C282 C 0.85168 -0.18635 -0.08160
 C283 C 0.82538 -0.21007 -0.09284
 C284 C 0.80560 -0.20514 -0.25014
 C285 C 0.81271 -0.17567 -0.39674
 C286 C 0.83938 -0.15238 -0.38885
 C287 C 0.88589 -0.13198 -0.21649
 C288 C 0.89270 -0.10291 -0.36380
 C289 C 0.91813 -0.07716 -0.34538
 C290 C 0.93619 -0.07995 -0.17906
 C291 C 0.92930 -0.11007 -0.03552
 C292 C 0.90423 -0.13605 -0.05318
 C293 C 0.84715 -0.12357 -0.53526
 C294 C 0.87342 -0.09936 -0.52329
 C295 C 0.87092 -0.19008 0.07773
 C296 C 0.89673 -0.16524 0.09199
 H297 H 0.83273 -0.11949 -0.65963
 H298 H 0.87844 -0.07728 -0.63850
 H299 H 0.86576 -0.21194 0.19371
 H300 H 0.91072 -0.16852 0.21897
 H301 H 0.81964 -0.23093 0.02585
 H302 H 0.79790 -0.17169 -0.51943
 H303 H 0.92316 -0.05397 -0.45607
 H304 H 0.94309 -0.11268 0.09275
 C305 C 0.35484 0.34720 0.37120
 C306 C 0.33259 0.34652 0.51464
 C307 C 0.30696 0.32188 0.48710
 C308 C 0.30351 0.29807 0.31769
 C309 C 0.32585 0.29949 0.17405
 C310 C 0.35173 0.32376 0.20096
 C311 C 0.38190 0.37299 0.39988
 C312 C 0.40398 0.37433 0.25525
 C313 C 0.42942 0.39969 0.28218
 C314 C 0.43312 0.42215 0.45527
 C315 C 0.41097 0.41991 0.59946
 C316 C 0.38508 0.39597 0.57127
 C317 C 0.37455 0.32510 0.06141
 C318 C 0.40014 0.35019 0.08744
 C319 C 0.33647 0.37039 0.68300
 C320 C 0.36227 0.39476 0.71069
 H321 H 0.37248 0.30697 -0.07015
 H322 H 0.41700 0.35075 -0.02496
 H323 H 0.31951 0.37006 0.79479
 H324 H 0.36444 0.41265 0.84288
 H325 H 0.28989 0.32064 0.59828
 H326 H 0.32308 0.28157 0.04235
 H327 H 0.44649 0.40140 0.17122
 H328 H 0.41361 0.43763 0.73199
 C329 C 0.14565 0.65162 -0.14120
 C330 C 0.16847 0.65031 -0.00201
 C331 C 0.19456 0.67383 -0.03200
 C332 C 0.19731 0.70047 -0.19454
 C333 C 0.17395 0.70170 -0.33191
 C334 C 0.14832 0.67675 -0.30749
 C335 C 0.11844 0.62614 -0.11213
 C336 C 0.09615 0.62578 -0.25536
 C337 C 0.07059 0.60058 -0.22833
 C338 C 0.06696 0.57751 -0.05601
 C339 C 0.08927 0.57891 0.08712
 C340 C 0.11531 0.60251 0.05838
 C341 C 0.12535 0.67622 -0.44617
 C342 C 0.09987 0.65079 -0.42162
 C343 C 0.16463 0.62585 0.16561
 C344 C 0.13837 0.60260 0.19606
 H345 H 0.12725 0.69524 -0.57589
 H346 H 0.08289 0.65089 -0.53318
 H347 H 0.18194 0.62496 0.27501
 H348 H 0.13616 0.58442 0.32810
 H349 H 0.21209 0.67307 0.07617
 H350 H 0.17616 0.72107 -0.46049
 H351 H 0.05338 0.59953 -0.33842
 H352 H 0.08667 0.56068 0.21892
 C353 C 0.64077 1.15924 0.26056
 C354 C 0.64834 1.18619 0.41334
 C355 C 0.67502 1.20908 0.40398
 C356 C 0.69366 1.20626 0.24075
 C357 C 0.68561 1.17946 0.08752
 C358 C 0.65925 1.15551 0.09761
 C359 C 0.61342 1.13349 0.27449
 C360 C 0.60632 1.10521 0.12564
 C361 C 0.58100 1.07921 0.14485
 C362 C 0.56329 1.08116 0.31294
 C363 C 0.57036 1.11068 0.45747
 C364 C 0.59539 1.13672 0.43956
 C365 C 0.65120 1.12746 -0.05010
 C366 C 0.62520 1.10269 -0.03624
 C367 C 0.62934 1.18925 0.57398
 C368 C 0.60322 1.16501 0.58655
 H369 H 0.66524 1.12435 -0.17682
 H370 H 0.61999 1.08117 -0.15251
 H371 H 0.63492 1.21009 0.69223
 H372 H 0.58939 1.16775 0.71444
 H373 H 0.68151 1.22872 0.52467
 H374 H 0.69997 1.17712 -0.03818
 H375 H 0.57579 1.05652 0.03326
 H376 H 0.55684 1.11265 0.58716
 C377 C 0.14108 0.34052 0.23876
 C378 C 0.14874 0.31343 0.08684
 C379 C 0.17525 0.29029 0.09828
 C380 C 0.19357 0.29279 0.26320
 C381 C 0.18543 0.31976 0.41557
 C382 C 0.15931 0.34412 0.40297
 C383 C 0.11391 0.36652 0.22274
 C384 C 0.10674 0.39495 0.37074
 C385 C 0.08153 0.42102 0.35006
 C386 C 0.06396 0.41898 0.18143
 C387 C 0.07114 0.38941 0.03739
 C388 C 0.09608 0.36328 0.05682
 C389 C 0.15123 0.37243 0.54946
 C390 C 0.12542 0.39746 0.53354
 C391 C 0.12997 0.31042 -0.07491
 C392 C 0.10398 0.33482 -0.08927
 H393 H 0.16509 0.37552 0.67692
 H394 H 0.12016 0.41913 0.64912
 H395 H 0.13560 0.28944 -0.19251
 H396 H 0.09030 0.33205 -0.21778
 H397 H 0.18180 0.27058 -0.02195
 H398 H 0.19954 0.32195 0.54242
 H399 H 0.07625 0.44376 0.46124
 H400 H 0.05776 0.38741 -0.09278
 C401 C 0.64486 0.84734 0.63180
 C402 C 0.66714 0.84710 0.48856
 C403 C 0.69295 0.82295 0.51716
 C404 C 0.69651 0.79911 0.68712
 C405 C 0.67404 0.79977 0.82989
 C406 C 0.64804 0.82374 0.80241
 C407 C 0.61774 0.87296 0.60280
 C408 C 0.59571 0.87407 0.74767
 C409 C 0.57025 0.89940 0.72071
 C410 C 0.56651 0.92205 0.54740
 C411 C 0.58860 0.92000 0.40287
 C412 C 0.61449 0.89610 0.43103
 C413 C 0.62524 0.82480 0.94209
 C414 C 0.59962 0.84978 0.91583
 C415 C 0.66316 0.87103 0.31962
 C416 C 0.63726 0.89513 0.29135
 H417 H 0.62739 0.80659 1.07406
 H418 H 0.58278 0.85015 1.02836
 H419 H 0.68013 0.87098 0.20790
 H420 H 0.63502 0.91307 0.15866
 H421 H 0.71016 0.82225 0.40684
 H422 H 0.67693 0.78177 0.96199
 H423 H 0.55321 0.90095 0.83185
 H424 H 0.58592 0.93787 0.27014
 C425 C 0.85520 0.15318 0.12986
 C426 C 0.85194 0.17689 0.29922
 C427 C 0.82602 0.20109 0.32460
 C428 C 0.80374 0.20198 0.18065
 C429 C 0.80730 0.17784 0.01244
 C430 C 0.83303 0.15344 -0.01400
 C431 C 0.88231 0.12753 0.10261
 C432 C 0.88567 0.10436 -0.06809
 C433 C 0.91160 0.08054 -0.09490
 C434 C 0.93365 0.07860 0.04989
 C435 C 0.92979 0.10123 0.22236
 C436 C 0.90428 0.12649 0.24791
 C437 C 0.83708 0.12940 -0.18166
 C438 C 0.86297 0.10524 -0.20818
 C439 C 0.87464 0.17584 0.43948
 C440 C 0.90027 0.15082 0.41496
 H441 H 0.82019 0.12945 -0.29393
 H442 H 0.86529 0.08723 -0.33993
 H443 H 0.87244 0.19415 0.57040
 H444 H 0.91704 0.15049 0.52787
 H445 H 0.82311 0.21928 0.45549
 H446 H 0.79020 0.17864 -0.09857
 H447 H 0.91435 0.06264 -0.22681
 H448 H 0.94676 0.09972 0.33392
 C449 C 0.35941 0.65934 0.74472
 C450 C 0.34112 0.65539 0.90875
 C451 C 0.31475 0.67925 0.91984
 C452 C 0.30654 0.70619 0.76659
 C453 C 0.32504 0.70933 0.60272
 C454 C 0.35168 0.68650 0.59216
 C455 C 0.38665 0.63351 0.72916
 C456 C 0.40443 0.63686 0.56279
 C457 C 0.42935 0.61074 0.54350
 C458 C 0.43657 0.58106 0.68811
 C459 C 0.41909 0.57898 0.85730
 C460 C 0.39388 0.60501 0.87780
 C461 C 0.37044 0.68971 0.43023
 C462 C 0.39646 0.66539 0.41608
 C463 C 0.34932 0.62711 1.05617
 C464 C 0.37523 0.60232 1.04088
 H465 H 0.36474 0.71072 0.31215
 H466 H 0.41009 0.66825 0.28724
 H467 H 0.33546 0.62384 1.18376
 H468 H 0.38057 0.58062 1.15697
 H469 H 0.30046 0.67659 1.04585
 H470 H 0.31841 0.72905 0.48198
 H471 H 0.44268 0.61278 0.41291
 H472 H 0.42440 0.55616 0.96892
   
