data_POSCAR
  _audit_creation_date              2014-09-24
  _audit_creation_method            'ToBaCCo'
  _symmetry_space_group_name_H-M    'P1'
  _symmetry_Int_Tables_number       1
  _symmetry_cell_setting            triclinic
  loop_
  _symmetry_equiv_pos_as_xyz
 x,y,z
_cell_length_a 25.2217
_cell_length_b 25.1575
_cell_length_c 25.3311
_cell_angle_alpha 90.100000
_cell_angle_beta 90.031400
_cell_angle_gamma 89.903300
loop_
  _atom_site_label
  _atom_site_type_symbol
  _atom_site_fract_x
  _atom_site_fract_y
  _atom_site_fract_z
C1 C 0.31537 0.38298 1.38460
 N2 N 0.33945 0.33901 1.40471
 C3 C 0.38079 0.31599 1.37877
 N4 N 0.39834 0.33771 1.33298
 C5 C 0.37577 0.38257 1.31345
 N6 N 0.33398 0.40482 1.33908
 C7 C 1.18190 0.61688 0.88720
 N8 N 1.15797 0.66070 0.90774
 C9 C 1.11375 0.68132 0.88475
 N10 N 1.09353 0.65772 0.84088
 C11 C 1.11708 0.61380 0.82007
 N12 N 1.16132 0.59368 0.84321
 C13 C 0.68760 -0.12393 0.11619
 N14 N 0.66812 -0.10161 0.16103
 C15 C 0.62244 -0.11951 0.18282
 N16 N 0.59643 -0.16101 0.16025
 C17 C 0.61630 -0.18476 0.11617
 N18 N 0.66173 -0.16577 0.09409
 C19 C -0.18231 1.12165 -0.38105
 N20 N -0.15982 1.09565 -0.33972
 C21 C -0.11535 1.11533 -0.31648
 N22 N -0.09298 1.16067 -0.33542
 C23 C -0.11505 1.18655 -0.37704
 N24 N -0.16017 1.16720 -0.39908
 C25 C 0.68565 0.62529 0.61941
 N26 N 0.66209 0.66940 0.59970
 C27 C 0.61636 0.68823 0.62107
 N28 N 0.59466 0.66293 0.66329
 C29 C 0.61895 0.61932 0.68398
 N30 N 0.66430 0.60061 0.66185
 C31 C 0.81023 0.37574 0.12032
 N32 N 0.83043 0.39949 0.16416
 C33 C 0.87432 0.37946 0.18804
 N34 N 0.89802 0.33525 0.16811
 C35 C 0.87823 0.31121 0.12422
 N36 N 0.83429 0.33161 0.10054
 C37 C 0.31357 0.11827 0.88118
 N38 N 0.33586 0.16378 0.89972
 C39 C 0.37847 0.18520 0.87512
 N40 N 0.39828 0.16157 0.83131
 C41 C 0.37694 0.11571 0.81280
 N42 N 0.33464 0.09389 0.83793
 C43 C 0.18830 0.87980 0.38316
 N44 N 0.16954 0.90146 0.33773
 C45 C 0.12527 0.88196 0.31451
 N46 N 0.10039 0.83945 0.33586
 C47 C 0.11905 0.81707 0.38091
 N48 N 0.16280 0.83754 0.40487
 Zn49 Zn 0.01362 1.06309 -0.03062
 Zn50 Zn -0.04129 0.95699 -0.04127
 Zn51 Zn 0.06430 0.96659 0.01310
 Zn52 Zn -0.03131 1.01165 0.06426
 O53 O 0.00103 0.99939 0.00112
 O54 O -0.01539 1.06591 -0.09428
 O55 O -0.00955 0.89430 -0.05786
 O56 O 0.11957 1.00110 -0.01414
 O57 O -0.05755 0.98912 -0.10343
 O58 O 0.08273 1.07616 -0.04131
 O59 O 0.06679 0.90234 -0.01529
 O60 O 0.00484 0.98601 0.11930
 O61 O -0.10350 0.93978 -0.00943
 O62 O 0.07839 0.95671 0.08148
 O63 O -0.09442 0.98096 0.06750
 O64 O -0.04326 1.08067 0.07750
 O65 O -0.01335 1.11875 0.00467
 C66 C -0.04381 1.03438 -0.12116
 C67 C 0.03532 0.87581 -0.04398
 C68 C 0.12302 1.04658 -0.03514
 C69 C 0.05019 0.96448 0.12215
 C70 C -0.12100 0.95217 0.03610
 C71 C -0.03581 1.12159 0.04935
 Zn72 Zn 0.46970 0.01468 0.43423
 Zn73 Zn 0.45946 -0.04044 0.53928
 Zn74 Zn 0.56528 -0.03047 0.48540
 Zn75 Zn 0.51382 0.06555 0.53014
 O76 O 0.50188 0.00214 0.49744
 O77 O 0.40632 -0.01543 0.43101
 O78 O 0.49141 -0.10231 0.55691
 O79 O 0.57860 -0.04205 0.41676
 O80 O 0.39794 -0.05801 0.50710
 O81 O 0.50533 -0.01188 0.37904
 O82 O 0.56827 -0.09402 0.51539
 O83 O 0.58273 0.07870 0.54184
 O84 O 0.44147 -0.00865 0.60079
 O85 O 0.62059 0.00512 0.51195
 O86 O 0.48349 0.06824 0.59316
 O87 O 0.48722 0.12127 0.49510
 O88 O 0.45826 0.08392 0.42134
 C89 C 0.38006 -0.04474 0.46208
 C90 C 0.53678 -0.12029 0.54424
 C91 C 0.55020 -0.03447 0.37610
 C92 C 0.62353 0.05009 0.53440
 C93 C 0.45432 0.03664 0.61898
 C94 C 0.46527 0.12455 0.45021
 Zn95 Zn 0.93669 0.46847 0.48912
 Zn96 Zn 1.04289 0.45833 0.54291
 Zn97 Zn 1.03186 0.51301 0.43748
 Zn98 Zn 0.98826 0.56428 0.53337
 O99 O 1.00018 0.50073 0.50092
 O100 O 0.93370 0.40509 0.51926
 O101 O 1.10523 0.44182 0.51076
 O102 O 0.99600 0.48622 0.38235
 O103 O 1.01098 0.39598 0.56005
 O104 O 0.92286 0.45692 0.42065
 O105 O 1.09577 0.48379 0.43438
 O106 O 1.01491 0.61962 0.49852
 O107 O 1.05966 0.49023 0.60512
 O108 O 1.04253 0.58218 0.42433
 O109 O 1.01739 0.56706 0.59685
 O110 O 0.91963 0.57831 0.54399
 O111 O 0.88155 0.50456 0.51526
 C112 C 0.96532 0.37841 0.54771
 C113 C 1.12287 0.45537 0.46566
 C114 C 0.95086 0.46422 0.37976
 C115 C 1.03597 0.62284 0.45329
 C116 C 1.04605 0.53543 0.62329
 C117 C 0.87877 0.55000 0.53672
 Zn118 Zn 0.46654 0.48784 0.93561
 Zn119 Zn 0.45712 0.54237 1.04107
 Zn120 Zn 0.51133 0.43591 1.03050
 Zn121 Zn 0.56278 0.53161 0.98618
 O122 O 0.49924 0.49968 0.99864
 O123 O 0.40278 0.51703 0.93320
 O124 O 0.43993 0.51006 1.10290
 O125 O 0.48524 0.38066 0.99453
 O126 O 0.39463 0.55941 1.00954
 O127 O 0.45581 0.41908 0.92165
 O128 O 0.48082 0.43254 1.09337
 O129 O 0.61818 0.49593 1.01292
 O130 O 0.48941 0.60482 1.05764
 O131 O 0.58020 0.42237 1.04215
 O132 O 0.56579 0.59568 1.01519
 O133 O 0.57592 0.54231 0.91743
 O134 O 0.50134 0.51469 0.88049
 C135 C 0.37630 0.54579 0.96469
 C136 C 0.45219 0.46411 1.12005
 C137 C 0.46331 0.37804 0.94959
 C138 C 0.62100 0.45082 1.03496
 C139 C 0.53454 0.62267 1.04383
 C140 C 0.54674 0.53583 0.87714
 N141 N 1.24875 0.38123 0.45238
 C142 C 1.26952 0.40332 0.40795
 N143 N 1.24278 0.44366 0.38440
 N144 N 1.19672 0.46056 0.40374
 C145 C 1.17557 0.43812 0.44761
 N146 N 1.20266 0.39843 0.47199
 N147 N 0.25064 0.62034 0.95278
 C148 C 0.22890 0.59763 0.90902
 N149 N 0.25511 0.55700 0.88528
 N150 N 0.30154 0.54031 0.90389
 C151 C 0.32354 0.56321 0.94722
 N152 N 0.29708 0.60334 0.97167
 N153 N -0.23895 0.93524 0.11907
 C154 C -0.26548 0.89546 0.09438
 N155 N -0.24495 0.87498 0.04898
 N156 N -0.19942 0.89345 0.02937
 C157 C -0.17277 0.93295 0.05461
 N158 N -0.19348 0.95341 0.09971
 N159 N 0.75680 0.04998 0.59335
 C160 C 0.76799 0.10268 0.59562
 N161 N 0.73200 0.13796 0.57650
 N162 N 0.68606 0.12124 0.55656
 C163 C 0.67499 0.06856 0.55398
 N164 N 0.71124 0.03321 0.57252
 N165 N 0.43753 0.24072 0.36677
 C166 C 0.40362 0.26920 0.39756
 N167 N 0.39134 0.25032 0.44624
 N168 N 0.41226 0.20486 0.46345
 C169 C 0.44543 0.17613 0.43229
 N170 N 0.45757 0.19470 0.38356
 N171 N 0.95248 0.25401 0.62407
 C172 C 0.90694 0.23348 0.60366
 N173 N 0.88222 0.26011 0.56416
 N174 N 0.90164 0.30571 0.54620
 C175 C 0.94685 0.32644 0.56661
 N176 N 0.97216 0.29969 0.60581
 N177 N 0.11507 0.75419 -0.05512
 C178 C 0.09153 0.72818 -0.09578
 N179 N 0.04770 0.75011 -0.11841
 N180 N 0.02859 0.79658 -0.10135
 C181 C 0.05288 0.82287 -0.06123
 N182 N 0.09624 0.80065 -0.03836
 N183 N 0.54839 0.74836 1.11818
 C184 C 0.59277 0.76937 1.09590
 N185 N 0.61606 0.74288 1.05538
 N186 N 0.59653 0.69681 1.03847
 C187 C 0.55271 0.67543 1.06108
 N188 N 0.52859 0.70228 1.10097
 N189 N 0.43370 0.37919 1.23625
 C190 C 0.39583 0.40543 1.26393
 N191 N 0.37697 0.45228 1.24474
 N192 N 0.39526 0.47191 1.19931
 C193 C 0.43296 0.44525 1.17151
 N194 N 0.45174 0.39861 1.19091
 N195 N 0.63831 -0.07672 0.26824
 C196 C 0.60329 -0.09590 0.23224
 N197 N 0.55067 -0.09357 0.24319
 N198 N 0.53374 -0.07262 0.28854
 C199 C 0.56883 -0.05404 0.32482
 N200 N 0.62144 -0.05668 0.31397
 N201 N -0.05559 1.11606 -0.24053
 C202 C -0.09435 1.09103 -0.26801
 N203 N -0.11574 1.04583 -0.24776
 N204 N -0.09909 1.02664 -0.20150
 C205 C -0.06075 1.05230 -0.17375
 N206 N -0.03920 1.09711 -0.19433
 N207 N 1.11837 0.54580 0.74973
 C208 C 1.09703 0.59091 0.77052
 N209 N 1.05835 0.61641 0.74332
 N210 N 1.04196 0.59795 0.69689
 C211 C 1.06336 0.55313 0.67584
 N212 N 1.10171 0.52709 0.70324
 N213 N 0.77094 0.64004 0.57590
 C214 C 0.73497 0.60562 0.59619
 N215 N 0.74587 0.55280 0.59548
 N216 N 0.79120 0.53499 0.57506
 C217 C 0.82749 0.56946 0.55542
 N218 N 0.81670 0.62231 0.55637
 N219 N 0.73793 0.36689 1.05962
 C220 C 0.76411 0.39544 1.09705
 N221 N 0.74353 0.44287 1.11262
 N222 N 0.69864 0.46108 1.09158
 C223 C 0.67218 0.43215 1.05484
 N224 N 0.69244 0.38464 1.03933
 N225 N 0.24033 1.12898 -0.06008
 C226 C 0.26750 1.09889 -0.09560
 N227 N 0.24740 1.05094 -0.10989
 N228 N 0.20194 1.03376 -0.08938
 C229 C 0.17444 1.06434 -0.05470
 N230 N 0.19432 1.11228 -0.04040
 N231 N 0.26118 -0.06063 0.38047
 C232 C 0.23480 -0.10035 0.40524
 N233 N 0.25569 -0.12103 0.45030
 N234 N 0.30156 -0.10283 0.46944
 C235 C 0.32812 -0.06353 0.44401
 N236 N 0.30695 -0.04273 0.39937
 N237 N 0.61885 -0.23933 0.56116
 C238 C 0.59399 -0.26541 0.60087
 N239 N 0.54862 -0.24435 0.62112
 N240 N 0.52929 -0.19859 0.60255
 C241 C 0.55484 -0.17231 0.56327
 N242 N 0.59979 -0.19366 0.54289
 N243 N 1.07410 0.73249 0.36578
 C244 C 1.09490 0.76805 0.40041
 N245 N 1.09509 0.75619 0.45263
 N246 N 1.07489 0.71038 0.46958
 C247 C 1.05475 0.67453 0.43483
 N248 N 1.05481 0.68631 0.38262
 N249 N -0.11389 1.24446 0.05742
 C250 C -0.09838 1.26497 0.10461
 N251 N -0.06081 1.23865 0.13291
 N252 N -0.04035 1.19309 0.11518
 C253 C -0.05580 1.17291 0.06792
 N254 N -0.09267 1.19950 0.03923
 N255 N 0.42256 0.27041 0.86034
 C256 C 0.40197 0.23455 0.89461
 N257 N 0.40310 0.24538 0.94708
 N258 N 0.42417 0.29058 0.96468
 C259 C 0.44412 0.32676 0.93037
 N260 N 0.44273 0.31605 0.87787
 N261 N 0.54703 0.59533 0.74474
 C262 C 0.59946 0.59529 0.73283
 N263 N 0.63435 0.57447 0.76805
 N264 N 0.61756 0.55503 0.81394
 C265 C 0.56514 0.55480 0.82576
 N266 N 0.53013 0.57497 0.79025
 N267 N 0.37875 0.04644 0.74348
 C268 C 0.39807 0.09251 0.76393
 N269 N 0.43644 0.11879 0.73719
 N270 N 0.45455 0.10020 0.69151
 C271 C 0.43521 0.05446 0.67076
 N272 N 0.39711 0.02763 0.69766
 N273 N 0.14004 0.92545 0.22948
 C274 C 0.10567 0.90539 0.26548
 N275 N 0.05296 0.90634 0.25481
 N276 N 0.03521 0.92673 0.20965
 C277 C 0.06962 0.94610 0.17331
 N278 N 0.12235 0.94495 0.18388
 N279 N 0.94723 0.40392 0.24747
 C280 C 0.89451 0.40391 0.23665
 N281 N 0.86050 0.42518 0.27247
 N282 N 0.87847 0.44496 0.31791
 C283 C 0.93121 0.44520 0.32863
 N284 N 0.96530 0.42463 0.29247
   
