data_POSCAR
  _audit_creation_date              2014-09-24
  _audit_creation_method            'ToBaCCo'
  _symmetry_space_group_name_H-M    'P1'
  _symmetry_Int_Tables_number       1
  _symmetry_cell_setting            triclinic
  loop_
  _symmetry_equiv_pos_as_xyz
 x,y,z
_cell_length_a 52.4312
_cell_length_b 52.3382
_cell_length_c 52.4621
_cell_angle_alpha 89.970900
_cell_angle_beta 90.006900
_cell_angle_gamma 89.936000
loop_
  _atom_site_label
  _atom_site_type_symbol
  _atom_site_fract_x
  _atom_site_fract_y
  _atom_site_fract_z
C1 C 0.19279 0.16084 0.19100
 C2 C 0.18205 0.15018 0.21309
 C3 C 0.16005 0.16085 0.22456
 C4 C 0.14937 0.18297 0.21324
 C5 C 0.15998 0.19382 0.19121
 C6 C 0.18167 0.18265 0.17998
 C7 C 0.21442 0.14977 0.17971
 C8 C 0.22535 0.16006 0.15727
 C9 C 0.21379 0.18203 0.14655
 C10 C 0.19216 0.19322 0.15764
 C11 C 0.18080 0.21484 0.14658
 C12 C 0.15911 0.22619 0.15762
 C13 C 0.14893 0.21556 0.18006
 H14 H 0.19166 0.13402 0.22166
 H15 H 0.13199 0.19130 0.22060
 H16 H 0.22183 0.13236 0.18803
 H17 H 0.22199 0.19131 0.13006
 H18 H 0.18859 0.22252 0.12905
 H19 H 0.13249 0.22433 0.18902
 C20 C -0.18930 0.84141 0.19403
 C21 C -0.17806 0.85165 0.21607
 C22 C -0.15614 0.84039 0.22718
 C23 C -0.14619 0.81807 0.21564
 C24 C -0.15715 0.80779 0.19354
 C25 C -0.17873 0.81952 0.18264
 C26 C -0.21089 0.85297 0.18315
 C27 C -0.22229 0.84315 0.16073
 C28 C -0.21112 0.82123 0.14951
 C29 C -0.18964 0.80942 0.16029
 C30 C -0.17870 0.78781 0.14879
 C31 C -0.15717 0.77589 0.15956
 C32 C -0.14670 0.78592 0.18211
 H33 H -0.18589 0.86921 0.22361
 H34 H -0.13028 0.80797 0.22409
 H35 H -0.21923 0.86908 0.19301
 H36 H -0.21833 0.81366 0.13173
 H37 H -0.18674 0.78052 0.13121
 H38 H -0.13039 0.77668 0.19085
 C39 C -0.19521 0.15792 -0.19393
 C40 C -0.18468 0.14762 -0.21626
 C41 C -0.16248 0.15810 -0.22707
 C42 C -0.15135 0.17971 -0.21565
 C43 C -0.16190 0.19044 -0.19353
 C44 C -0.18377 0.17934 -0.18248
 C45 C -0.21692 0.14692 -0.18287
 C46 C -0.22746 0.15663 -0.15999
 C47 C -0.21564 0.17821 -0.14882
 C48 C -0.19408 0.18957 -0.15991
 C49 C -0.18245 0.21082 -0.14848
 C50 C -0.16082 0.22228 -0.15952
 C51 C -0.15073 0.21191 -0.18213
 H52 H -0.19377 0.13132 -0.22517
 H53 H -0.13407 0.18781 -0.22357
 H54 H -0.22589 0.13121 -0.19280
 H55 H -0.22231 0.18576 -0.13083
 H56 H -0.19009 0.21823 -0.13077
 H57 H -0.13430 0.22070 -0.19107
 C58 C 0.19409 0.84069 -0.19219
 C59 C 0.18328 0.85288 -0.21344
 C60 C 0.16078 0.84349 -0.22504
 C61 C 0.14932 0.82146 -0.21435
 C62 C 0.16005 0.80902 -0.19322
 C63 C 0.18259 0.81856 -0.18220
 C64 C 0.21622 0.85044 -0.18071
 C65 C 0.22716 0.83825 -0.15942
 C66 C 0.21583 0.81581 -0.14998
 C67 C 0.19353 0.80606 -0.16104
 C68 C 0.18186 0.78415 -0.15103
 C69 C 0.15901 0.77479 -0.16151
 C70 C 0.14829 0.78735 -0.18269
 H71 H 0.19329 0.86910 -0.22137
 H72 H 0.13143 0.81428 -0.22168
 H73 H 0.22455 0.86792 -0.18799
 H74 H 0.22432 0.80591 -0.13392
 H75 H 0.19061 0.77441 -0.13503
 H76 H 0.13051 0.78057 -0.19074
 C77 C 0.16145 1.19203 0.80772
 C78 C 0.15111 1.18073 0.78576
 C79 C 0.16185 1.15834 0.77506
 C80 C 0.18353 1.14771 0.78717
 C81 C 0.19398 1.15880 0.80914
 C82 C 0.18295 1.18106 0.81941
 C83 C 0.15035 1.21407 0.81821
 C84 C 0.16027 1.22554 0.84055
 C85 C 0.18206 1.21424 0.85183
 C86 C 0.19337 1.19229 0.84145
 C87 C 0.21481 1.18122 0.85306
 C88 C 0.22592 1.15889 0.84307
 C89 C 0.21533 1.14783 0.82103
 H90 H 0.13389 1.18898 0.77792
 H91 H 0.19315 1.13127 0.77917
 H92 H 0.13447 1.22261 0.80817
 H93 H 0.18980 1.22156 0.86948
 H94 H 0.22301 1.19019 0.86976
 H95 H 0.22339 1.13037 0.81339
 C96 C 0.84062 0.80931 0.80530
 C97 C 0.85226 0.82118 0.78431
 C98 C 0.84249 0.84416 0.77390
 C99 C 0.82059 0.85494 0.78544
 C100 C 0.80873 0.84319 0.80634
 C101 C 0.81873 0.82026 0.81624
 C102 C 0.85082 0.78672 0.81559
 C103 C 0.83948 0.77459 0.83689
 C104 C 0.81709 0.78567 0.84715
 C105 C 0.80690 0.80836 0.83720
 C106 C 0.78507 0.81940 0.84807
 C107 C 0.77518 0.84255 0.83866
 C108 C 0.78716 0.85428 0.81771
 H109 H 0.86838 0.81165 0.77561
 H110 H 0.81309 0.87310 0.77902
 H111 H 0.86843 0.77957 0.80755
 H112 H 0.80690 0.77649 0.86256
 H113 H 0.77577 0.80992 0.86391
 H114 H 0.77997 0.87231 0.81050
 C115 C 0.15720 0.80693 1.19118
 C116 C 0.14664 0.81864 1.21280
 C117 C 0.15829 0.84015 1.22390
 C118 C 0.18078 0.84989 1.21295
 C119 C 0.19147 0.83847 1.19125
 C120 C 0.17970 0.81683 1.18039
 C121 C 0.14549 0.78550 1.18020
 C122 C 0.15576 0.77354 1.15828
 C123 C 0.17845 0.78380 1.14784
 C124 C 0.19036 0.80519 1.15868
 C125 C 0.21265 0.81529 1.14787
 C126 C 0.22438 0.83709 1.15830
 C127 C 0.21364 0.84849 1.18011
 H128 H 0.12904 0.81125 1.22072
 H129 H 0.19016 0.86623 1.22148
 H130 H 0.12883 0.77775 1.18959
 H131 H 0.18649 0.77610 1.13048
 H132 H 0.22098 0.80603 1.13138
 H133 H 0.22220 0.86552 1.18813
 C134 C 0.84033 1.19291 1.19311
 C135 C 0.85105 1.18264 1.21540
 C136 C 0.84043 1.16085 1.22736
 C137 C 0.81812 1.15019 1.21654
 C138 C 0.80739 1.16015 1.19416
 C139 C 0.81862 1.18145 1.18227
 C140 C 0.85131 1.21430 1.18129
 C141 C 0.84114 1.22419 1.15848
 C142 C 0.81963 1.21235 1.14764
 C143 C 0.80822 1.19121 1.15945
 C144 C 0.78672 1.17950 1.14865
 C145 C 0.77522 1.15832 1.16051
 C146 C 0.78562 1.14893 1.18340
 H147 H 0.86853 1.19107 1.22238
 H148 H 0.80843 1.13443 1.22571
 H149 H 0.86765 1.22341 1.19006
 H150 H 0.81190 1.21937 1.12980
 H151 H 0.77918 1.18668 1.13079
 H152 H 0.77673 1.13286 1.19293
 O153 O 0.46466 0.95089 0.95848
 O154 O 0.43667 0.97542 0.98152
 C155 C 0.44172 0.95761 0.96510
 O156 O 0.53692 0.95395 1.04890
 O157 O 0.56443 0.97729 1.02416
 C158 C 0.55974 0.96081 1.04202
 O159 O 0.46505 0.95062 1.04655
 O160 O 0.43692 0.97536 1.02389
 C161 C 0.44207 0.95743 1.04016
 O162 O 0.53638 0.95373 0.95574
 O163 O 0.56417 0.97688 0.98033
 C164 C 0.55926 0.96052 0.96245
 Zr165 Zr 0.50048 0.96565 0.97014
 O166 O 0.50369 0.92533 0.96992
 O167 O 0.49739 0.96600 0.92991
 Zr168 Zr 0.50079 0.96546 1.03457
 O169 O 0.50418 0.92515 1.03434
 O170 O 0.49799 0.96527 1.07482
 O171 O 0.47793 0.96043 1.00245
 O172 O 0.52282 0.96109 1.00225
 O173 O 0.53567 1.04252 0.95563
 O174 O 0.56383 1.01956 0.98000
 C175 C 0.55867 1.03602 0.96227
 O176 O 0.46428 1.04444 1.04671
 O177 O 0.43651 1.01962 1.02381
 C178 C 0.44139 1.03752 1.04016
 O179 O 0.53610 1.04231 1.04906
 O180 O 0.56400 1.01965 1.02411
 C181 C 0.55902 1.03599 1.04199
 O182 O 0.46395 1.04463 0.95858
 O183 O 0.43636 1.01927 0.98115
 C184 C 0.44113 1.03741 0.96500
 Zr185 Zr 0.49996 1.03031 0.97025
 O186 O 0.50263 1.07068 0.97035
 O187 O 0.49679 1.03035 0.93002
 Zr188 Zr 0.50023 1.03007 1.03482
 O189 O 0.50286 1.07043 1.03524
 O190 O 0.49742 1.02951 1.07508
 Zr191 Zr 0.46251 0.99766 1.00261
 Zr192 Zr 0.53820 0.99823 1.00220
 O193 O 0.52216 1.03508 1.00243
 O194 O 0.47736 1.03508 1.00264
 O195 O 0.52291 0.99816 0.96505
 O196 O 0.47837 0.99761 1.03946
 O197 O 0.47809 0.99784 0.96564
 O198 O 0.52327 0.99794 1.03953
 H199 H 0.53451 0.94621 1.00225
 H200 H 0.46681 0.99750 1.05439
 H201 H 0.53363 1.05012 1.00238
 H202 H 0.46645 0.99775 0.95075
 H203 H 0.51197 0.97602 1.08150
 H204 H 0.51216 1.01972 1.08167
 H205 H 0.48898 1.07712 1.02434
 H206 H 0.48840 1.07729 0.98084
 H207 H 0.51097 1.01990 0.92324
 H208 H 0.51184 0.97612 0.92321
 H209 H 0.48977 0.91848 0.98065
 H210 H 0.48985 0.91833 1.02415
 O211 O -0.04834 0.46404 0.04155
 O212 O -0.02349 0.43613 0.01876
 C213 C -0.04129 0.44109 0.03519
 O214 O -0.04649 0.53531 -0.05024
 O215 O -0.02350 0.56353 -0.02597
 C216 C -0.03994 0.55836 -0.04370
 O217 O -0.04820 0.46336 -0.04758
 O218 O -0.02383 0.43576 -0.02386
 C219 C -0.04143 0.44050 -0.04059
 O220 O -0.04669 0.53596 0.04305
 O221 O -0.02430 0.56380 0.01780
 C222 C -0.04051 0.55889 0.03580
 Zr223 Zr -0.03453 0.49997 0.02887
 O224 O -0.07483 0.50252 0.02811
 O225 O -0.03504 0.49749 0.06915
 Zr226 Zr -0.03428 0.49949 -0.03562
 O227 O -0.07459 0.50203 -0.03561
 O228 O -0.03413 0.49645 -0.07585
 O229 O -0.03926 0.47690 -0.00321
 O230 O -0.03921 0.52187 -0.00357
 O231 O 0.04133 0.53646 0.04355
 O232 O 0.01842 0.56412 0.01851
 C233 C 0.03466 0.55934 0.03655
 O234 O 0.04481 0.46400 -0.04716
 O235 O 0.02048 0.43606 -0.02389
 C236 C 0.03821 0.44104 -0.04040
 O237 O 0.04220 0.53582 -0.04980
 O238 O 0.01857 0.56378 -0.02581
 C239 C 0.03524 0.55878 -0.04337
 O240 O 0.04433 0.46454 0.04165
 O241 O 0.02045 0.43630 0.01826
 C242 C 0.03794 0.44151 0.03495
 Zr243 Zr 0.03001 0.50036 0.02912
 O244 O 0.07027 0.50352 0.02867
 O245 O 0.03039 0.49776 0.06938
 Zr246 Zr 0.03027 0.49991 -0.03533
 O247 O 0.07053 0.50291 -0.03499
 O248 O 0.03044 0.49689 -0.07556
 Zr249 Zr -0.00189 0.46202 -0.00298
 Zr250 Zr -0.00238 0.53784 -0.00353
 O251 O 0.03466 0.52237 -0.00323
 O252 O 0.03528 0.47738 -0.00292
 O253 O -0.00245 0.52296 0.03383
 O254 O -0.00183 0.47752 -0.03999
 O255 O -0.00210 0.47807 0.03380
 O256 O -0.00215 0.52241 -0.04064
 H257 H -0.05423 0.53336 -0.00375
 H258 H -0.00170 0.46582 -0.05483
 H259 H 0.04945 0.53413 -0.00321
 H260 H -0.00200 0.46668 0.04889
 H261 H -0.02368 0.51066 -0.08255
 H262 H 0.01996 0.51107 -0.08234
 H263 H 0.07719 0.48867 -0.02451
 H264 H 0.07704 0.48862 0.01925
 H265 H 0.01908 0.51135 0.07599
 H266 H -0.02432 0.51152 0.07580
 H267 H -0.08127 0.48750 0.01866
 H268 H -0.08112 0.48772 -0.02517
 O269 O 0.95550 0.04544 0.53555
 O270 O 0.98063 0.02295 0.56346
 C271 C 0.96250 0.03906 0.55846
 O272 O 0.95924 -0.04555 0.46412
 O273 O 0.98184 -0.02066 0.43614
 C274 C 0.96568 -0.03870 0.44118
 O275 O 0.95685 -0.04292 0.53590
 O276 O 0.98104 -0.01927 0.56360
 C277 C 0.96347 -0.03599 0.55876
 O278 O 0.95774 0.04784 0.46390
 O279 O 0.98083 0.02326 0.43605
 C280 C 0.96427 0.04099 0.44100
 Zr281 Zr 0.97021 0.03383 0.49972
 O282 O 0.92994 0.03377 0.49692
 O283 O 0.97022 0.07418 0.50253
 Zr284 Zr 0.97091 -0.03079 0.49993
 O285 O 0.93063 -0.03093 0.49707
 O286 O 0.97119 -0.07112 0.50294
 O287 O 0.96563 0.00152 0.52253
 O288 O 0.96587 0.00140 0.47773
 O289 O 1.04662 0.04881 0.46366
 O290 O 1.02350 0.02416 0.43591
 C291 C 1.03990 0.04203 0.44079
 O292 O 1.05021 -0.04173 0.53570
 O293 O 1.02533 -0.01888 0.56349
 C294 C 1.04336 -0.03512 0.55859
 O295 O 1.04766 -0.04434 0.46389
 O296 O 1.02393 -0.02030 0.43602
 C297 C 1.04068 -0.03785 0.44099
 O298 O 1.04911 0.04668 0.53541
 O299 O 1.02437 0.02387 0.56333
 C300 C 1.04219 0.04027 0.55834
 Zr301 Zr 1.03474 0.03449 0.49959
 O302 O 1.07501 0.03495 0.49665
 O303 O 1.03409 0.07484 0.50233
 Zr304 Zr 1.03542 -0.03020 0.49980
 O305 O 1.07568 -0.03021 0.49687
 O306 O 1.03535 -0.07055 0.50282
 Zr307 Zr 1.00292 0.00193 0.53757
 Zr308 Zr 1.00277 0.00178 0.46194
 O309 O 1.03971 0.00214 0.47758
 O310 O 1.04014 0.00226 0.52239
 O311 O 1.00237 0.03914 0.47691
 O312 O 1.00327 -0.03511 0.52202
 O313 O 1.00245 0.03889 0.52175
 O314 O 1.00318 -0.03552 0.47717
 H315 H 0.95088 0.00114 0.46623
 H316 H 1.00348 -0.05000 0.53370
 H317 H 1.05461 0.00226 0.46596
 H318 H 1.00224 0.05387 0.53328
 H319 H 0.98216 -0.07775 0.48911
 H320 H 1.02582 -0.07733 0.48804
 H321 H 1.08232 -0.01902 0.51052
 H322 H 1.08185 0.02457 0.51086
 H323 H 1.02373 0.08135 0.48797
 H324 H 0.97994 0.08090 0.48783
 H325 H 0.92337 0.02251 0.51056
 H326 H 0.92386 -0.02111 0.51169
 C327 C 1.12539 0.12661 0.28994
 C328 C 1.12200 0.15269 0.28474
 C329 C 1.13354 0.16399 0.26353
 C330 C 1.14880 0.14953 0.24659
 C331 C 1.15222 0.12331 0.25220
 C332 C 1.14076 0.11212 0.27350
 C333 C 1.11272 0.11450 0.31225
 C334 C 1.10266 0.08968 0.31043
 C335 C 1.09071 0.07828 0.33134
 C336 C 1.08835 0.09146 0.35457
 C337 C 1.09836 0.11631 0.35638
 C338 C 1.11045 0.12766 0.33551
 C339 C 1.07559 0.07927 0.37678
 C340 C 1.08491 0.08299 0.40165
 C341 C 1.07316 0.07117 0.42246
 C342 C 1.05192 0.05520 0.41888
 C343 C 1.04251 0.05160 0.39405
 C344 C 1.05413 0.06357 0.37328
 H345 H 1.11017 0.16444 0.29694
 H346 H 1.13092 0.18434 0.26116
 H347 H 1.16282 0.11079 0.23971
 H348 H 1.14399 0.09200 0.27706
 H349 H 1.10375 0.07912 0.29273
 H350 H 1.08355 0.05899 0.32935
 H351 H 1.09662 0.12713 0.37388
 H352 H 1.11824 0.14669 0.33768
 H353 H 1.10162 0.09464 0.40501
 H354 H 1.08099 0.07423 0.44131
 H355 H 1.02610 0.03955 0.39061
 H356 H 1.04616 0.06066 0.35447
 C357 C 0.88002 -0.12583 0.29194
 C358 C 0.85399 -0.12176 0.28721
 C359 C 0.84205 -0.13297 0.26618
 C360 C 0.85578 -0.14863 0.24902
 C361 C 0.88197 -0.15271 0.25415
 C362 C 0.89380 -0.14156 0.27524
 C363 C 0.89284 -0.11351 0.31404
 C364 C 0.91777 -0.10390 0.31170
 C365 C 0.92982 -0.09220 0.33237
 C366 C 0.91720 -0.08968 0.35588
 C367 C 0.89229 -0.09931 0.35824
 C368 C 0.88027 -0.11112 0.33759
 C369 C 0.92990 -0.07685 0.37776
 C370 C 0.92659 -0.08597 0.40276
 C371 C 0.93825 -0.07368 0.42333
 C372 C 0.95361 -0.05204 0.41938
 C373 C 0.95710 -0.04304 0.39437
 C374 C 0.94533 -0.05525 0.37383
 H375 H 0.84280 -0.10963 0.29965
 H376 H 0.82178 -0.12980 0.26412
 H377 H 0.89398 -0.16361 0.24143
 H378 H 0.91386 -0.14529 0.27844
 H379 H 0.92790 -0.10511 0.29376
 H380 H 0.94912 -0.08528 0.32998
 H381 H 0.88190 -0.09742 0.37598
 H382 H 0.86119 -0.11857 0.34014
 H383 H 0.91517 -0.10280 0.40642
 H384 H 0.93528 -0.08121 0.44233
 H385 H 0.96869 -0.02633 0.39062
 H386 H 0.94798 -0.04747 0.35489
 C387 C 0.87327 0.12266 0.70771
 C388 C 0.87283 0.14942 0.71020
 C389 C 0.86098 0.16094 0.73113
 C390 C 0.84948 0.14599 0.75020
 C391 C 0.84988 0.11925 0.74765
 C392 C 0.86147 0.10775 0.72662
 C393 C 0.88619 0.11030 0.68566
 C394 C 0.89958 0.08722 0.68883
 C395 C 0.91165 0.07552 0.66817
 C396 C 0.91092 0.08673 0.64382
 C397 C 0.89762 0.10987 0.64065
 C398 C 0.88532 0.12145 0.66128
 C399 C 0.92406 0.07439 0.62189
 C400 C 0.91338 0.07524 0.59731
 C401 C 0.92586 0.06383 0.57670
 C402 C 0.94918 0.05107 0.58024
 C403 C 0.95978 0.05002 0.60482
 C404 C 0.94745 0.06167 0.62536
 H405 H 0.88198 0.16150 0.69619
 H406 H 0.86077 0.18159 0.73231
 H407 H 0.84157 0.10710 0.76214
 H408 H 0.86108 0.08713 0.72516
 H409 H 0.90101 0.07826 0.70738
 H410 H 0.92139 0.05754 0.67127
 H411 H 0.89693 0.11925 0.62226
 H412 H 0.87493 0.13903 0.65804
 H413 H 0.89518 0.08445 0.59400
 H414 H 0.91709 0.06479 0.55803
 H415 H 0.97782 0.04049 0.60817
 H416 H 0.95649 0.06103 0.64390
 C417 C 1.12836 -0.11961 0.70983
 C418 C 1.12379 -0.14559 0.71457
 C419 C 1.13442 -0.15769 0.73582
 C420 C 1.14998 -0.14418 0.75323
 C421 C 1.15443 -0.11800 0.74821
 C422 C 1.14383 -0.10600 0.72688
 C423 C 1.11683 -0.10674 0.68731
 C424 C 1.10743 -0.08165 0.68919
 C425 C 1.09620 -0.06970 0.66816
 C426 C 1.09398 -0.08259 0.64476
 C427 C 1.10355 -0.10761 0.64282
 C428 C 1.11488 -0.11953 0.66382
 C429 C 1.08132 -0.07014 0.62262
 C430 C 1.09056 -0.07376 0.59771
 C431 C 1.07832 -0.06237 0.57691
 C432 C 1.05663 -0.04701 0.58055
 C433 C 1.04750 -0.04325 0.60548
 C434 C 1.05965 -0.05473 0.62622
 H435 H 1.11180 -0.15664 0.70191
 H436 H 1.13098 -0.17795 0.73779
 H437 H 1.16528 -0.10616 0.76113
 H438 H 1.14788 -0.08596 0.72372
 H439 H 1.10836 -0.07134 0.70705
 H440 H 1.08934 -0.05030 0.67023
 H441 H 1.10190 -0.11820 0.62517
 H442 H 1.12223 -0.13874 0.66161
 H443 H 1.10743 -0.08521 0.59430
 H444 H 1.08594 -0.06554 0.55798
 H445 H 1.03074 -0.03166 0.60900
 H446 H 1.05175 -0.05188 0.64508
 C447 C 0.29042 1.12522 1.12253
 C448 C 0.27358 1.14024 1.10811
 C449 C 0.25231 1.15165 1.11943
 C450 C 0.24716 1.14857 1.14573
 C451 C 0.26441 1.13353 1.16007
 C452 C 0.28560 1.12205 1.14864
 C453 C 0.31281 1.11274 1.11032
 C454 C 0.33628 1.11104 1.12318
 C455 C 0.35721 1.09905 1.11178
 C456 C 0.35522 1.08856 1.08719
 C457 C 0.33179 1.09043 1.07427
 C458 C 0.31084 1.10229 1.08572
 C459 C 0.37737 1.07555 1.07513
 C460 C 0.37380 1.05352 1.06025
 C461 C 0.39454 1.04128 1.04884
 C462 C 0.41944 1.05066 1.05219
 C463 C 0.42307 1.07264 1.06715
 C464 C 0.40227 1.08498 1.07842
 H465 H 0.27682 1.14326 1.08795
 H466 H 0.23952 1.16200 1.10700
 H467 H 0.26235 1.13114 1.18043
 H468 H 0.29811 1.11046 1.16032
 H469 H 0.33857 1.11916 1.14202
 H470 H 0.37487 1.09769 1.12240
 H471 H 0.32967 1.08288 1.05518
 H472 H 0.29298 1.10297 1.07538
 H473 H 0.35496 1.04547 1.05767
 H474 H 0.39105 1.02432 1.03757
 H475 H 0.44197 1.08046 1.06998
 H476 H 0.40567 1.10212 1.08944
 C477 C 0.29259 0.87145 0.87809
 C478 C 0.29037 0.87215 0.85138
 C479 C 0.26939 0.86112 0.83918
 C480 C 0.24996 0.84931 0.85340
 C481 C 0.25223 0.84854 0.88010
 C482 C 0.27333 0.85931 0.89226
 C483 C 0.31467 0.88359 0.89117
 C484 C 0.31141 0.89606 0.91469
 C485 C 0.33206 0.90754 0.92697
 C486 C 0.35650 0.90716 0.91593
 C487 C 0.35977 0.89471 0.89240
 C488 C 0.33916 0.88298 0.88024
 C489 C 0.37837 0.91989 0.92880
 C490 C 0.40303 0.90932 0.92763
 C491 C 0.42360 0.92152 0.93941
 C492 C 0.41995 0.94443 0.95288
 C493 C 0.39528 0.95486 0.95431
 C494 C 0.37479 0.94284 0.94228
 H495 H 0.30465 0.88160 0.83985
 H496 H 0.26845 0.86179 0.81858
 H497 H 0.23748 0.83996 0.89172
 H498 H 0.27456 0.85802 0.91282
 H499 H 0.29280 0.89726 0.92353
 H500 H 0.32887 0.91660 0.94524
 H501 H 0.37822 0.89431 0.88315
 H502 H 0.34247 0.87327 0.86233
 H503 H 0.40643 0.89145 0.91782
 H504 H 0.44234 0.91289 0.93812
 H505 H 0.39184 0.97257 0.96440
 H506 H 0.35620 0.95180 0.94322
 C507 C 0.71205 0.87857 1.12765
 C508 C 0.72876 0.89262 1.14312
 C509 C 0.75023 0.88109 1.15395
 C510 C 0.75576 0.85496 1.14977
 C511 C 0.73866 0.84100 1.13426
 C512 C 0.71726 0.85263 1.12339
 C513 C 0.68939 0.89096 1.11583
 C514 C 0.66612 0.87779 1.11379
 C515 C 0.64498 0.88928 1.10224
 C516 C 0.64656 0.91427 1.09253
 C517 C 0.66976 0.92753 1.09479
 C518 C 0.69092 0.91601 1.10624
 C519 C 0.62424 0.92633 1.07977
 C520 C 0.62765 0.94177 1.05810
 C521 C 0.60675 0.95301 1.04597
 C522 C 0.58186 0.94899 1.05511
 C523 C 0.57841 0.93354 1.07676
 C524 C 0.59936 0.92239 1.08898
 H525 H 0.72522 0.91264 1.14695
 H526 H 0.76288 0.89325 1.16476
 H527 H 0.74101 0.82074 1.13102
 H528 H 0.70487 0.84125 1.11142
 H529 H 0.66417 0.85861 1.12127
 H530 H 0.62751 0.87841 1.10058
 H531 H 0.67156 0.94692 1.08783
 H532 H 0.70861 0.92660 1.10722
 H533 H 0.64648 0.94486 1.05023
 H534 H 0.61012 0.96467 1.02925
 H535 H 0.55952 0.93016 1.08439
 H536 H 0.59609 0.91091 1.10584
 C537 C 0.70808 1.12107 0.87494
 C538 C 0.72415 1.10720 0.85865
 C539 C 0.74520 1.11880 0.84720
 C540 C 0.75092 1.14486 0.85153
 C541 C 0.73445 1.15867 0.86786
 C542 C 0.71345 1.14695 0.87935
 C543 C 0.68595 1.10850 0.88743
 C544 C 0.66268 1.12154 0.89039
 C545 C 0.64196 1.10972 0.90228
 C546 C 0.64398 1.08454 0.91142
 C547 C 0.66720 1.07146 0.90833
 C548 C 0.68794 1.08332 0.89656
 C549 C 0.62205 1.07202 0.92431
 C550 C 0.62604 1.05611 0.94554
 C551 C 0.60549 1.04434 0.95772
 C552 C 0.58041 1.04830 0.94907
 C553 C 0.57639 1.06420 0.92784
 C554 C 0.59699 1.07588 0.91557
 H555 H 0.72045 1.08725 0.85467
 H556 H 0.75743 1.10672 0.83581
 H557 H 0.73699 1.17887 0.87129
 H558 H 0.70151 1.15818 0.89193
 H559 H 0.66040 1.14085 0.88331
 H560 H 0.62444 1.12044 0.90461
 H561 H 0.66932 1.05195 0.91486
 H562 H 0.70567 1.07282 0.89488
 H563 H 0.64504 1.05305 0.95303
 H564 H 0.60930 1.03232 0.97409
 H565 H 0.55734 1.06755 0.92059
 H566 H 0.59329 1.08770 0.89903
 C567 C 0.12359 0.29152 0.12177
 C568 C 0.10874 0.27269 0.13381
 C569 C 0.12023 0.25158 0.14539
 C570 C 0.14691 0.24886 0.14553
 C571 C 0.16180 0.26785 0.13378
 C572 C 0.15029 0.28882 0.12193
 C573 C 0.11128 0.31373 0.10893
 C574 C 0.12272 0.33802 0.10942
 C575 C 0.11123 0.35878 0.09717
 C576 C 0.08786 0.35586 0.08433
 C577 C 0.07636 0.33160 0.08398
 C578 C 0.08799 0.31079 0.09597
 C579 C 0.07547 0.37798 0.07143
 C580 C 0.06191 0.37457 0.04854
 C581 C 0.04975 0.39518 0.03675
 C582 C 0.05115 0.41979 0.04732
 C583 C 0.06499 0.42334 0.06997
 C584 C 0.07687 0.40265 0.08197
 H585 H 0.08816 0.27430 0.13444
 H586 H 0.10812 0.23719 0.15393
 H587 H 0.18241 0.26660 0.13382
 H588 H 0.16235 0.30274 0.11258
 H589 H 0.14047 0.34111 0.11948
 H590 H 0.12082 0.37707 0.09757
 H591 H 0.05819 0.32867 0.07464
 H592 H 0.07879 0.29232 0.09484
 H593 H 0.06084 0.35598 0.03957
 H594 H 0.03938 0.39183 0.01923
 H595 H 0.06625 0.44204 0.07871
 H596 H 0.08675 0.40595 0.09978
 C597 C -0.12565 0.28806 -0.12425
 C598 C -0.11072 0.26937 -0.13644
 C599 C -0.12207 0.24804 -0.14769
 C600 C -0.14871 0.24497 -0.14739
 C601 C -0.16367 0.26376 -0.13539
 C602 C -0.15229 0.28493 -0.12383
 C603 C -0.11349 0.31062 -0.11194
 C604 C -0.12551 0.33467 -0.11226
 C605 C -0.11415 0.35576 -0.10052
 C606 C -0.09032 0.35346 -0.08841
 C607 C -0.07822 0.32946 -0.08828
 C608 C -0.08973 0.30831 -0.09971
 C609 C -0.07812 0.37593 -0.07598
 C610 C -0.06361 0.37288 -0.05362
 C611 C -0.05169 0.39381 -0.04224
 C612 C -0.05431 0.41842 -0.05263
 C613 C -0.06906 0.42160 -0.07477
 C614 C -0.08068 0.40058 -0.08640
 H615 H -0.09019 0.27128 -0.13752
 H616 H -0.10988 0.23380 -0.15641
 H617 H -0.18426 0.26227 -0.13509
 H618 H -0.16441 0.29870 -0.11433
 H619 H -0.14362 0.33731 -0.12179
 H620 H -0.12423 0.37382 -0.10073
 H621 H -0.05969 0.32699 -0.07952
 H622 H -0.08005 0.29006 -0.09871
 H623 H -0.06161 0.35433 -0.04472
 H624 H -0.04050 0.39069 -0.02519
 H625 H -0.07127 0.44027 -0.08340
 H626 H -0.09130 0.40363 -0.10384
 C627 C 0.12123 0.70967 -0.12782
 C628 C 0.12129 0.71315 -0.15441
 C629 C 0.13368 0.73410 -0.16536
 C630 C 0.14613 0.75223 -0.14999
 C631 C 0.14600 0.74875 -0.12341
 C632 C 0.13386 0.72769 -0.11249
 C633 C 0.10801 0.68743 -0.11606
 C634 C 0.09533 0.69000 -0.09258
 C635 C 0.08332 0.66908 -0.08125
 C636 C 0.08337 0.64505 -0.09324
 C637 C 0.09581 0.64252 -0.11686
 C638 C 0.10807 0.66340 -0.12807
 C639 C 0.07069 0.62275 -0.08100
 C640 C 0.08128 0.59811 -0.08292
 C641 C 0.06960 0.57728 -0.07101
 C642 C 0.04724 0.58064 -0.05665
 C643 C 0.03660 0.60522 -0.05478
 C644 C 0.04807 0.62598 -0.06695
 H645 H 0.11150 0.69985 -0.16680
 H646 H 0.13366 0.73598 -0.18591
 H647 H 0.15503 0.76250 -0.11093
 H648 H 0.13458 0.72545 -0.09199
 H649 H 0.09452 0.70828 -0.08295
 H650 H 0.07428 0.67170 -0.06289
 H651 H 0.09595 0.62441 -0.12682
 H652 H 0.11789 0.66061 -0.14600
 H653 H 0.09890 0.59496 -0.09321
 H654 H 0.07839 0.55862 -0.07267
 H655 H 0.01930 0.60844 -0.04399
 H656 H 0.03907 0.64454 -0.06546
 C657 C -0.12282 0.71031 0.12314
 C658 C -0.10762 0.72901 0.13492
 C659 C -0.11875 0.75023 0.14663
 C660 C -0.14540 0.75321 0.14711
 C661 C -0.16063 0.73443 0.13549
 C662 C -0.14948 0.71330 0.12358
 C663 C -0.11088 0.68790 0.11035
 C664 C -0.12235 0.66365 0.11148
 C665 C -0.11113 0.64267 0.09938
 C666 C -0.08805 0.64536 0.08599
 C667 C -0.07652 0.66958 0.08498
 C668 C -0.08785 0.69059 0.09688
 C669 C -0.07605 0.62306 0.07307
 C670 C -0.06347 0.62612 0.04959
 C671 C -0.05189 0.60531 0.03759
 C672 C -0.05284 0.58085 0.04861
 C673 C -0.06560 0.57768 0.07195
 C674 C -0.07697 0.59857 0.08410
 H675 H -0.08705 0.72717 0.13529
 H676 H -0.10640 0.76448 0.15505
 H677 H -0.18122 0.73594 0.13577
 H678 H -0.16178 0.69946 0.11443
 H679 H -0.13991 0.66079 0.12195
 H680 H -0.12071 0.62438 0.10030
 H681 H -0.05857 0.67232 0.07517
 H682 H -0.07864 0.70903 0.09529
 H683 H -0.06281 0.64457 0.04028
 H684 H -0.04243 0.60837 0.01949
 H685 H -0.06651 0.55911 0.08102
 H686 H -0.08612 0.59557 0.10235
 C687 C 1.12874 0.12338 0.70930
 C688 C 1.14351 0.10902 0.72640
 C689 C 1.15441 0.12042 0.74786
 C690 C 1.15103 0.14675 0.75297
 C691 C 1.13633 0.16106 0.73541
 C692 C 1.12536 0.14955 0.71403
 C693 C 1.11662 0.11104 0.68682
 C694 C 1.11511 0.12388 0.66331
 C695 C 1.10331 0.11240 0.64235
 C696 C 1.09283 0.08777 0.64435
 C697 C 1.09457 0.07485 0.66779
 C698 C 1.10623 0.08637 0.68877
 C699 C 1.07989 0.07567 0.62220
 C700 C 1.05787 0.06080 0.62579
 C701 C 1.04573 0.04930 0.60508
 C702 C 1.05519 0.05253 0.58021
 C703 C 1.07712 0.06750 0.57656
 C704 C 1.08938 0.07888 0.59732
 H705 H 1.14669 0.08882 0.72323
 H706 H 1.16455 0.10801 0.76085
 H707 H 1.13378 0.18146 0.73741
 H708 H 1.11396 0.16119 0.70131
 H709 H 1.12319 0.14277 0.66105
 H710 H 1.10206 0.12301 0.62467
 H711 H 1.08703 0.05572 0.66991
 H712 H 1.10676 0.07605 0.70665
 H713 H 1.04977 0.05830 0.64461
 H714 H 1.02879 0.03802 0.60859
 H715 H 1.08499 0.07025 0.55767
 H716 H 1.10650 0.08990 0.59392
 C717 C 0.87794 -0.12015 0.70977
 C718 C 0.89198 -0.13623 0.72595
 C719 C 0.88044 -0.14789 0.74695
 C720 C 0.85433 -0.14393 0.75251
 C721 C 0.84041 -0.12771 0.73600
 C722 C 0.85204 -0.11603 0.71506
 C723 C 0.89030 -0.10768 0.68749
 C724 C 0.87720 -0.10516 0.66423
 C725 C 0.88881 -0.09338 0.64332
 C726 C 0.91382 -0.08390 0.64514
 C727 C 0.92693 -0.08648 0.66838
 C728 C 0.91529 -0.09817 0.68931
 C729 C 0.92623 -0.07142 0.62290
 C730 C 0.94203 -0.05001 0.62633
 C731 C 0.95402 -0.03850 0.60552
 C732 C 0.95041 -0.04803 0.58073
 C733 C 0.93442 -0.06928 0.57724
 C734 C 0.92252 -0.08088 0.59809
 H735 H 0.91197 -0.13996 0.72233
 H736 H 0.89257 -0.15921 0.75922
 H737 H 0.82018 -0.12456 0.73841
 H738 H 0.84069 -0.10361 0.70306
 H739 H 0.85804 -0.11254 0.66208
 H740 H 0.87807 -0.09145 0.62580
 H741 H 0.94633 -0.07969 0.67035
 H742 H 0.92581 -0.09951 0.70702
 H743 H 0.94493 -0.04195 0.64511
 H744 H 0.96604 -0.02202 0.60888
 H745 H 0.93132 -0.07718 0.55842
 H746 H 0.91077 -0.09755 0.59482
 C747 C 1.12424 -0.12383 0.28974
 C748 C 1.13595 -0.10907 0.27064
 C749 C 1.14697 -0.12072 0.24935
 C750 C 1.14681 -0.14746 0.24672
 C751 C 1.13537 -0.16223 0.26597
 C752 C 1.12413 -0.15057 0.28714
 C753 C 1.11202 -0.11137 0.31216
 C754 C 1.11323 -0.12270 0.33645
 C755 C 1.10151 -0.11111 0.35741
 C756 C 1.08845 -0.08779 0.35467
 C757 C 1.08739 -0.07639 0.33041
 C758 C 1.09891 -0.08808 0.30942
 C759 C 1.07600 -0.07537 0.37697
 C760 C 1.05277 -0.06221 0.37410
 C761 C 1.04133 -0.05009 0.39488
 C762 C 1.05268 -0.05106 0.41913
 C763 C 1.07569 -0.06450 0.42215
 C764 C 1.08729 -0.07639 0.40129
 H765 H 1.13674 -0.08846 0.27217
 H766 H 1.15532 -0.10871 0.23477
 H767 H 1.13520 -0.18288 0.26476
 H768 H 1.11502 -0.16254 0.30129
 H769 H 1.12344 -0.14045 0.33936
 H770 H 1.10246 -0.12061 0.37572
 H771 H 1.07784 -0.05825 0.32763
 H772 H 1.09726 -0.07897 0.29097
 H773 H 1.04324 -0.06147 0.35581
 H774 H 1.02344 -0.04013 0.39198
 H775 H 1.08499 -0.06544 0.44056
 H776 H 1.10536 -0.08599 0.40415
 C777 C 0.87670 0.12666 0.29190
 C778 C 0.86062 0.11229 0.27609
 C779 C 0.84862 0.12349 0.25511
 C780 C 0.85213 0.14964 0.24922
 C781 C 0.86808 0.16401 0.26556
 C782 C 0.88017 0.15268 0.28646
 C783 C 0.88996 0.11444 0.31382
 C784 C 0.89306 0.12759 0.33697
 C785 C 0.90546 0.11600 0.35755
 C786 C 0.91495 0.09094 0.35552
 C787 C 0.91185 0.07782 0.33235
 C788 C 0.89961 0.08945 0.31175
 C789 C 0.92784 0.07843 0.37749
 C790 C 0.94890 0.06223 0.37363
 C791 C 0.96069 0.05008 0.39421
 C792 C 0.95185 0.05400 0.41920
 C793 C 0.93094 0.07036 0.42311
 C794 C 0.91902 0.08235 0.40250
 H795 H 0.85728 0.09224 0.27987
 H796 H 0.83753 0.11101 0.24303
 H797 H 0.87085 0.18430 0.26294
 H798 H 0.89252 0.16432 0.29822
 H799 H 0.88563 0.14675 0.33933
 H800 H 0.90780 0.12678 0.37500
 H801 H 0.91862 0.05839 0.33021
 H802 H 0.89789 0.07890 0.29409
 H803 H 0.95647 0.05912 0.35468
 H804 H 0.97683 0.03770 0.39052
 H805 H 0.92353 0.07368 0.44210
 H806 H 0.90259 0.09436 0.40613
 C807 C 0.12476 0.29077 -0.12556
 C808 C 0.15068 0.28559 -0.12138
 C809 C 0.16240 0.26445 -0.13268
 C810 C 0.14853 0.24753 -0.14848
 C811 C 0.12246 0.25312 -0.15270
 C812 C 0.11087 0.27438 -0.14150
 C813 C 0.11221 0.31302 -0.11312
 C814 C 0.08706 0.31113 -0.10401
 C815 C 0.07528 0.33194 -0.09219
 C816 C 0.08841 0.35514 -0.08899
 C817 C 0.11357 0.35703 -0.09807
 C818 C 0.12529 0.33626 -0.11007
 C819 C 0.07587 0.37724 -0.07628
 C820 C 0.08016 0.40232 -0.08489
 C821 C 0.06817 0.42304 -0.07310
 C822 C 0.05143 0.41917 -0.05253
 C823 C 0.04716 0.39410 -0.04390
 C824 C 0.05933 0.37342 -0.05553
 H825 H 0.16198 0.29774 -0.10909
 H826 H 0.18262 0.26212 -0.12943
 H827 H 0.11035 0.24065 -0.16376
 H828 H 0.09089 0.27794 -0.14537
 H829 H 0.07653 0.29344 -0.10571
 H830 H 0.05577 0.32991 -0.08577
 H831 H 0.12435 0.37448 -0.09567
 H832 H 0.14455 0.33851 -0.11713
 H833 H 0.09245 0.40594 -0.10107
 H834 H 0.07177 0.44207 -0.08036
 H835 H 0.03441 0.39041 -0.02810
 H836 H 0.05591 0.35443 -0.04811
 C837 C -0.12426 0.28966 0.12202
 C838 C -0.15086 0.28626 0.12161
 C839 C -0.16206 0.26520 0.13356
 C840 C -0.14695 0.24677 0.14595
 C841 C -0.12034 0.25011 0.14625
 C842 C -0.10917 0.27134 0.13461
 C843 C -0.11228 0.31209 0.10927
 C844 C -0.08846 0.30977 0.09717
 C845 C -0.07714 0.33079 0.08532
 C846 C -0.08949 0.35466 0.08487
 C847 C -0.11338 0.35697 0.09686
 C848 C -0.12454 0.33601 0.10903
 C849 C -0.07749 0.37697 0.07195
 C850 C -0.08036 0.40184 0.08177
 C851 C -0.06891 0.42270 0.06968
 C852 C -0.05402 0.41917 0.04770
 C853 C -0.05109 0.39436 0.03792
 C854 C -0.06285 0.37357 0.04974
 H855 H -0.16310 0.29973 0.11181
 H856 H -0.18264 0.26350 0.13324
 H857 H -0.10803 0.23616 0.15526
 H858 H -0.08866 0.27347 0.13570
 H859 H -0.07859 0.29161 0.09660
 H860 H -0.05855 0.32833 0.07668
 H861 H -0.12364 0.37492 0.09663
 H862 H -0.14272 0.33867 0.11845
 H863 H -0.09109 0.40518 0.09907
 H864 H -0.07136 0.44155 0.07784
 H865 H -0.03977 0.39095 0.02101
 H866 H -0.06060 0.35484 0.04129
 C867 C -0.12623 0.70862 -0.12929
 C868 C -0.12196 0.71450 -0.15504
 C869 C -0.13342 0.73586 -0.16625
 C870 C -0.14949 0.75226 -0.15204
 C871 C -0.15384 0.74590 -0.12618
 C872 C -0.14250 0.72445 -0.11511
 C873 C -0.11347 0.68632 -0.11711
 C874 C -0.10457 0.68791 -0.09188
 C875 C -0.09261 0.66706 -0.08034
 C876 C -0.08899 0.64411 -0.09380
 C877 C -0.09782 0.64251 -0.11906
 C878 C -0.10997 0.66334 -0.13056
 C879 C -0.07609 0.62200 -0.08144
 C880 C -0.08436 0.59687 -0.08605
 C881 C -0.07248 0.57617 -0.07404
 C882 C -0.05217 0.58014 -0.05700
 C883 C -0.04385 0.60526 -0.05248
 C884 C -0.05556 0.62590 -0.06465
 H885 H -0.10944 0.70276 -0.16654
 H886 H -0.13004 0.73881 -0.18636
 H887 H -0.16508 0.75795 -0.11378
 H888 H -0.14646 0.72034 -0.09527
 H889 H -0.10659 0.70541 -0.08107
 H890 H -0.08640 0.66887 -0.06075
 H891 H -0.09511 0.62524 -0.13008
 H892 H -0.11684 0.66135 -0.14991
 H893 H -0.10035 0.59319 -0.09857
 H894 H -0.07947 0.55709 -0.07785
 H895 H -0.02825 0.60905 -0.03952
 H896 H -0.04838 0.64494 -0.06101
 C897 C 0.11911 0.70934 0.12382
 C898 C 0.14535 0.71342 0.12060
 C899 C 0.15740 0.73429 0.13199
 C900 C 0.14357 0.75201 0.14696
 C901 C 0.11714 0.74761 0.15011
 C902 C 0.10518 0.72664 0.13877
 C903 C 0.10630 0.68721 0.11149
 C904 C 0.08176 0.68977 0.10100
 C905 C 0.06982 0.66903 0.08922
 C906 C 0.08219 0.64524 0.08753
 C907 C 0.10672 0.64267 0.09807
 C908 C 0.11860 0.66337 0.10996
 C909 C 0.06966 0.62325 0.07468
 C910 C 0.07246 0.59833 0.08430
 C911 C 0.06108 0.57761 0.07197
 C912 C 0.04648 0.58133 0.04980
 C913 C 0.04346 0.60627 0.04030
 C914 C 0.05499 0.62697 0.05255
 H915 H 0.15666 0.70054 0.10906
 H916 H 0.17782 0.73575 0.12957
 H917 H 0.10510 0.76079 0.16045
 H918 H 0.08494 0.72397 0.14181
 H919 H 0.07186 0.70793 0.10157
 H920 H 0.05080 0.67160 0.08159
 H921 H 0.11693 0.62472 0.09684
 H922 H 0.13736 0.66063 0.11812
 H923 H 0.08327 0.59483 0.10154
 H924 H 0.06363 0.55867 0.07991
 H925 H 0.03247 0.60981 0.02318
 H926 H 0.05276 0.64585 0.04439
 C927 C 0.29083 1.12394 0.88003
 C928 C 0.27137 1.13547 0.89447
 C929 C 0.25035 1.14670 0.88251
 C930 C 0.24837 1.14698 0.85578
 C931 C 0.26793 1.13566 0.84133
 C932 C 0.28882 1.12417 0.85330
 C933 C 0.31301 1.11161 0.89280
 C934 C 0.33752 1.11289 0.88198
 C935 C 0.35827 1.10102 0.89381
 C936 C 0.35512 1.08778 0.91693
 C937 C 0.33066 1.08670 0.92787
 C938 C 0.30987 1.09833 0.91590
 C939 C 0.37719 1.07500 0.92947
 C940 C 0.37401 1.05160 0.94227
 C941 C 0.39470 1.03956 0.95399
 C942 C 0.41916 1.05044 0.95293
 C943 C 0.42241 1.07379 0.94013
 C944 C 0.40165 1.08600 0.92866
 H945 H 0.27243 1.13600 0.91507
 H946 H 0.23550 1.15491 0.89427
 H947 H 0.26723 1.13582 0.82071
 H948 H 0.30324 1.11519 0.84156
 H949 H 0.34075 1.12325 0.86441
 H950 H 0.37673 1.10198 0.88464
 H951 H 0.32756 1.07700 0.94584
 H952 H 0.29125 1.09662 0.92463
 H953 H 0.35558 1.04231 0.94290
 H954 H 0.39157 1.02151 0.96359
 H955 H 0.44098 1.08279 0.93917
 H956 H 0.40474 1.10423 0.91941
 C957 C 0.29103 0.87021 1.12285
 C958 C 0.27159 0.85924 1.10799
 C959 C 0.25008 0.84852 1.11947
 C960 C 0.24753 0.84819 1.14615
 C961 C 0.26713 0.85883 1.16105
 C962 C 0.28854 0.86980 1.14955
 C963 C 0.31354 0.88239 1.11053
 C964 C 0.33790 0.88075 1.12167
 C965 C 0.35889 0.89264 1.11029
 C966 C 0.35611 0.90629 1.08736
 C967 C 0.33181 0.90764 1.07607
 C968 C 0.31080 0.89600 1.08757
 C969 C 0.37831 0.91935 1.07537
 C970 C 0.37512 0.94298 1.06301
 C971 C 0.39579 0.95520 1.05151
 C972 C 0.42027 0.94426 1.05234
 C973 C 0.42360 0.92078 1.06490
 C974 C 0.40282 0.90839 1.07617
 H975 H 0.27300 0.85883 1.08741
 H976 H 0.23524 0.84084 1.10735
 H977 H 0.26601 0.85860 1.18165
 H978 H 0.30294 0.87834 1.16161
 H979 H 0.34082 0.87014 1.13915
 H980 H 0.37723 0.89143 1.11969
 H981 H 0.32899 0.91763 1.05821
 H982 H 0.29232 0.89800 1.07860
 H983 H 0.35668 0.95229 1.06248
 H984 H 0.39262 0.97341 1.04222
 H985 H 0.44220 0.91179 1.06572
 H986 H 0.40592 0.89003 1.08517
 C987 C 0.70974 1.12171 1.12651
 C988 C 0.72874 1.10719 1.13870
 C989 C 0.74994 1.11904 1.14961
 C990 C 0.75259 1.14576 1.14887
 C991 C 0.73351 1.16032 1.13684
 C992 C 0.71240 1.14844 1.12571
 C993 C 0.68739 1.10899 1.11450
 C994 C 0.66306 1.12030 1.11537
 C995 C 0.64216 1.10842 1.10385
 C996 C 0.64502 1.08484 1.09133
 C997 C 0.66931 1.07344 1.09066
 C998 C 0.69023 1.08541 1.10197
 C999 C 0.62288 1.07228 1.07879
 C1000 C 0.62606 1.05903 1.05570
 C1001 C 0.60537 1.04712 1.04392
 C1002 C 0.58090 1.04839 1.05478
 C1003 C 0.57762 1.06174 1.07778
 C1004 C 0.59839 1.07344 1.08972
 H1005 H 0.72716 1.08661 1.14001
 H1006 H 0.76442 1.10719 1.15839
 H1007 H 0.73477 1.18095 1.13618
 H1008 H 0.69832 1.16021 1.11620
 H1009 H 0.66009 1.13827 1.12514
 H1010 H 0.62381 1.11791 1.10447
 H1011 H 0.67217 1.05512 1.08152
 H1012 H 0.70872 1.07630 1.10061
 H1013 H 0.64450 1.05815 1.04647
 H1014 H 0.60852 1.03720 1.02608
 H1015 H 0.55903 1.06292 1.08672
 H1016 H 0.59532 1.08313 1.10769
 C1017 C 0.71008 0.87810 0.87463
 C1018 C 0.71303 0.87886 0.84799
 C1019 C 0.73399 0.86720 0.83631
 C1020 C 0.75263 0.85465 0.85098
 C1021 C 0.74969 0.85392 0.87761
 C1022 C 0.72864 0.86537 0.88926
 C1023 C 0.68784 0.89056 0.88714
 C1024 C 0.69063 0.90289 0.91078
 C1025 C 0.66973 0.91432 0.92272
 C1026 C 0.64550 0.91397 0.91122
 C1027 C 0.64274 0.90181 0.88748
 C1028 C 0.66361 0.89017 0.87564
 C1029 C 0.62325 0.92611 0.92403
 C1030 C 0.59888 0.91498 0.92257
 C1031 C 0.57804 0.92625 0.93483
 C1032 C 0.58116 0.94876 0.94907
 C1033 C 0.60547 0.95994 0.95051
 C1034 C 0.62623 0.94882 0.93802
 H1035 H 0.69930 0.88876 0.83614
 H1036 H 0.73548 0.86787 0.81574
 H1037 H 0.76385 0.84475 0.88955
 H1038 H 0.72682 0.86406 0.90978
 H1039 H 0.70906 0.90391 0.92003
 H1040 H 0.67253 0.92319 0.94115
 H1041 H 0.62445 0.90146 0.87790
 H1042 H 0.66067 0.88059 0.85760
 H1043 H 0.59594 0.89727 0.91233
 H1044 H 0.55958 0.91710 0.93350
 H1045 H 0.60844 0.97745 0.96109
 H1046 H 0.64458 0.95821 0.93914
   
