data_POSCAR
  _audit_creation_date              2014-09-24
  _audit_creation_method            'ToBaCCo'
  _symmetry_space_group_name_H-M    'P1'
  _symmetry_Int_Tables_number       1
  _symmetry_cell_setting            triclinic
  loop_
  _symmetry_equiv_pos_as_xyz
 x,y,z
_cell_length_a 24.9078
_cell_length_b 24.9451
_cell_length_c 25.0403
_cell_angle_alpha 89.183200
_cell_angle_beta 89.961600
_cell_angle_gamma 89.765700
loop_
  _atom_site_label
  _atom_site_type_symbol
  _atom_site_fract_x
  _atom_site_fract_y
  _atom_site_fract_z
N1 N 0.55655 0.10243 0.01983
 N2 N 0.59459 0.13541 0.03556
 N3 N 0.44352 0.09864 -0.03249
 N4 N 0.40573 0.12975 -0.05350
 N5 N 0.44335 0.10212 0.01991
 N6 N 0.40538 0.13578 0.03560
 N7 N 0.55655 0.09887 -0.03256
 N8 N 0.59451 0.12917 -0.05366
 C9 C 0.61815 0.15153 -0.01077
 C10 C 0.38183 0.15253 -0.01067
 N11 N 0.44600 -0.04147 -0.10346
 N12 N 0.40756 -0.06330 -0.13170
 N13 N 0.55830 0.01176 -0.10878
 N14 N 0.59561 0.02702 -0.14364
 N15 N 0.55821 -0.04062 -0.10353
 N16 N 0.59722 -0.06294 -0.13620
 N17 N 0.44468 0.01101 -0.10785
 N18 N 0.40485 0.02635 -0.13940
 Mn19 Mn 0.50077 0.05563 -0.07095
 C20 C 0.38201 -0.02064 -0.15372
 C21 C 0.61947 -0.01935 -0.16002
 N22 N 0.44410 0.02352 0.10717
 N23 N 0.40200 0.04137 0.13401
 N24 N 0.55766 -0.02809 0.11009
 N25 N 0.59487 -0.04687 0.14266
 N26 N 0.55811 0.02446 0.10791
 N27 N 0.59859 0.04313 0.14184
 N28 N 0.44570 -0.02906 0.10930
 N29 N 0.40531 -0.04845 0.13698
 Mn30 Mn 0.50053 0.06385 0.06434
 C31 C 0.37825 -0.00441 0.15218
 C32 C 0.62012 -0.00336 0.16198
 N33 N 0.55907 -0.11571 -0.01700
 N34 N 0.60333 -0.13909 -0.03375
 N35 N 0.44623 -0.11422 0.03505
 N36 N 0.40722 -0.14328 0.05602
 N37 N 0.44613 -0.11748 -0.01709
 N38 N 0.40700 -0.14893 -0.03320
 N39 N 0.55896 -0.11246 0.03515
 N40 N 0.60307 -0.13354 0.05554
 Mn41 Mn 0.50229 -0.07916 -0.06057
 Mn42 Mn 0.50212 -0.07115 0.07266
 Cl43 Cl 0.50139 -0.00733 0.00132
 C44 C 0.63020 -0.15011 0.01204
 C45 C 0.38288 -0.16457 0.01296
 N46 N 0.10065 0.44423 0.03092
 N47 N 0.13329 0.40841 0.05320
 N48 N 0.10244 0.55191 -0.03296
 N49 N 0.13437 0.58788 -0.05529
 N50 N 0.10231 0.55672 0.01930
 N51 N 0.13416 0.59609 0.03375
 N52 N 0.10088 0.43947 -0.02136
 N53 N 0.13368 0.40031 -0.03570
 C54 C 0.15342 0.38084 0.01127
 C55 C 0.15370 0.61536 -0.01323
 N56 N -0.03276 0.54702 -0.11438
 N57 N -0.05242 0.58409 -0.14693
 N58 N 0.01776 0.43392 -0.10278
 N59 N 0.03414 0.39198 -0.13023
 N60 N -0.03489 0.43562 -0.10147
 N61 N -0.05577 0.39539 -0.12747
 N62 N 0.01987 0.54713 -0.11485
 N63 N 0.03772 0.58725 -0.15030
 Mn64 Mn 0.06085 0.49306 -0.06858
 C65 C -0.00924 0.60877 -0.16890
 C66 C -0.01248 0.36819 -0.14494
 N67 N 0.01950 0.56679 0.10117
 N68 N 0.03677 0.60510 0.13312
 N69 N -0.03567 0.45628 0.11062
 N70 N -0.05692 0.41909 0.14159
 N71 N 0.01697 0.45374 0.11162
 N72 N 0.03299 0.41426 0.14366
 N73 N -0.03317 0.56768 0.09893
 N74 N -0.05293 0.60616 0.12862
 Mn75 Mn 0.06048 0.50539 0.06629
 C76 C -0.00919 0.62981 0.14941
 C77 C -0.01385 0.39316 0.16200
 N78 N -0.11600 0.44464 -0.02168
 N79 N -0.14655 0.40409 -0.03573
 N80 N -0.11284 0.56208 0.01761
 N81 N -0.13541 0.60770 0.03108
 N82 N -0.11303 0.55673 -0.03434
 N83 N -0.13580 0.59853 -0.05787
 N84 N -0.11620 0.44998 0.03027
 N85 N -0.14686 0.41325 0.05316
 Mn86 Mn -0.07444 0.49589 -0.06825
 Mn87 Mn -0.07475 0.50907 0.06459
 Cl88 Cl -0.00659 0.50083 -0.00144
 C89 C -0.16542 0.38472 0.01148
 C90 C -0.14959 0.62988 -0.01646
 N91 N 0.03188 0.11490 0.44797
 N92 N 0.05209 0.14458 0.40925
 N93 N -0.02061 0.11134 0.56023
 N94 N -0.03763 0.13839 0.60211
 N95 N 0.03193 0.11025 0.55914
 N96 N 0.05230 0.13609 0.59963
 N97 N -0.02066 0.11606 0.44717
 N98 N -0.03787 0.14709 0.40742
 C99 C 0.00835 0.16435 0.38411
 C100 C 0.00872 0.15338 0.62628
 N101 N -0.10411 -0.02205 0.55681
 N102 N -0.13777 -0.04006 0.59403
 N103 N -0.10279 0.03513 0.44553
 N104 N -0.13403 0.05673 0.40857
 N105 N -0.10394 -0.01754 0.44357
 N106 N -0.13650 -0.03288 0.40484
 N107 N -0.10280 0.03066 0.55726
 N108 N -0.13491 0.04964 0.59427
 Mn109 Mn -0.06220 0.07368 0.50254
 C110 C -0.15636 0.00545 0.61736
 C111 C -0.15471 0.01413 0.38311
 N112 N 0.11220 0.03040 0.55689
 N113 N 0.14000 0.04910 0.59699
 N114 N 0.11334 -0.01729 0.44330
 N115 N 0.14223 -0.03256 0.40183
 N116 N 0.11222 0.03510 0.44575
 N117 N 0.13996 0.05709 0.40665
 N118 N 0.11357 -0.02206 0.55640
 N119 N 0.14288 -0.04072 0.59669
 Mn120 Mn 0.07215 0.07276 0.50243
 C121 C 0.15885 0.00455 0.62167
 C122 C 0.15840 0.01464 0.37940
 N123 N -0.02008 -0.10109 0.44122
 N124 N -0.03665 -0.13279 0.40245
 N125 N 0.03279 -0.10422 0.55367
 N126 N 0.05323 -0.13717 0.58987
 N127 N -0.02002 -0.10563 0.55450
 N128 N -0.03660 -0.14019 0.59170
 N129 N 0.03272 -0.09966 0.44196
 N130 N 0.05316 -0.12983 0.40427
 Mn131 Mn -0.06280 -0.06234 0.49903
 Mn132 Mn 0.07349 -0.06129 0.49882
 Cl133 Cl 0.00480 0.00534 0.50070
 C134 C 0.00978 -0.15014 0.37949
 C135 C 0.00982 -0.15927 0.61370
 C136 C -0.31732 0.20597 -0.06500
 C137 C -0.33820 0.19134 -0.01473
 C138 C -0.31840 0.21630 0.03117
 C139 C -0.27919 0.25643 0.02675
 C140 C -0.25923 0.27150 -0.02415
 C141 C -0.27815 0.24563 -0.06968
 C142 C -0.22134 0.31277 -0.02879
 C143 C -0.20327 0.33949 0.01677
 C144 C -0.22259 0.32360 0.06728
 C145 C -0.26020 0.28240 0.07225
 H146 H -0.33415 0.20526 0.07015
 H147 H -0.26317 0.25654 -0.10898
 H148 H -0.20656 0.32457 -0.06795
 H149 H -0.27489 0.27129 0.11160
 H150 H -0.33177 0.18719 -0.10094
 H151 H -0.20908 0.34345 0.10300
 C152 C 0.31567 0.78355 0.06644
 C153 C 0.33726 0.79789 0.01640
 C154 C 0.31592 0.77508 -0.02995
 C155 C 0.27439 0.73732 -0.02625
 C156 C 0.25368 0.72245 0.02440
 C157 C 0.27422 0.74620 0.07042
 C158 C 0.21341 0.68343 0.02829
 C159 C 0.19374 0.65871 -0.01777
 C160 C 0.21386 0.67447 -0.06801
 C161 C 0.25380 0.71348 -0.07224
 H162 H 0.33217 0.78599 -0.06876
 H163 H 0.25869 0.73541 0.10953
 H164 H 0.19809 0.67170 0.06725
 H165 H 0.26906 0.72449 -0.11140
 H166 H 0.33126 0.80078 0.10270
 H167 H 0.19919 0.65611 -0.10409
 C168 C 0.31708 0.20817 -0.06508
 C169 C 0.33747 0.19292 -0.01469
 C170 C 0.31580 0.21728 0.03108
 C171 C 0.27500 0.25664 0.02639
 C172 C 0.25541 0.27186 -0.02462
 C173 C 0.27659 0.24710 -0.07001
 C174 C 0.21533 0.31186 -0.02943
 C175 C 0.19446 0.33717 0.01615
 C176 C 0.21396 0.32119 0.06668
 C177 C 0.25370 0.28144 0.07176
 H178 H 0.33095 0.20602 0.07024
 H179 H 0.26209 0.25807 -0.10948
 H180 H 0.20077 0.32358 -0.06870
 H181 H 0.26803 0.27035 0.11126
 H182 H 0.33273 0.19019 -0.10102
 H183 H 0.19873 0.33976 0.10249
 C184 C -0.29525 0.80832 0.06397
 C185 C -0.31895 0.82054 0.01443
 C186 C -0.29650 0.80049 -0.03259
 C187 C -0.25398 0.76403 -0.02982
 C188 C -0.23257 0.74903 0.02053
 C189 C -0.25195 0.77298 0.06698
 C190 C -0.19492 0.70767 0.02399
 C191 C -0.17994 0.67991 -0.02194
 C192 C -0.19842 0.69732 -0.07222
 C193 C -0.23507 0.73951 -0.07619
 H194 H -0.31431 0.81039 -0.07101
 H195 H -0.23554 0.76225 0.10578
 H196 H -0.18013 0.69479 0.06285
 H197 H -0.25070 0.75098 -0.11510
 H198 H -0.31162 0.82423 0.10060
 H199 H -0.18652 0.67677 -0.10819
 C200 C -0.06439 -0.30686 0.20334
 C201 C -0.01329 -0.32639 0.18897
 C202 C 0.03223 -0.30512 0.21403
 C203 C 0.02653 -0.26579 0.25363
 C204 C -0.02520 -0.24743 0.26843
 C205 C -0.07030 -0.26797 0.24257
 C206 C -0.03100 -0.20929 0.30914
 C207 C 0.01442 -0.18905 0.33520
 C208 C 0.06566 -0.20697 0.31935
 C209 C 0.07165 -0.24490 0.27919
 H210 H 0.07183 -0.31964 0.20335
 H211 H -0.11026 -0.25435 0.25303
 H212 H -0.07068 -0.19574 0.32072
 H213 H 0.11165 -0.25818 0.26843
 H214 H -0.10027 -0.32221 0.18466
 H215 H 0.10148 -0.19206 0.33849
 C216 C -0.06811 0.30419 0.80395
 C217 C -0.01699 0.32216 0.81928
 C218 C 0.02889 0.29846 0.79735
 C219 C 0.02374 0.25926 0.75819
 C220 C -0.02790 0.24319 0.74116
 C221 C -0.07354 0.26502 0.76522
 C222 C -0.03302 0.20698 0.69917
 C223 C 0.01291 0.18702 0.67386
 C224 C 0.06402 0.20145 0.69263
 C225 C 0.06941 0.23726 0.73441
 H226 H 0.06842 0.31187 0.80921
 H227 H -0.11339 0.25291 0.75307
 H228 H -0.07253 0.19571 0.68519
 H229 H 0.10925 0.24873 0.74719
 H230 H -0.10417 0.32157 0.82075
 H231 H 0.10014 0.18608 0.67410
 C232 C -0.06962 0.33244 0.21853
 C233 C -0.01858 0.34823 0.20027
 C234 C 0.02722 0.32168 0.21956
 C235 C 0.02223 0.28066 0.25796
 C236 C -0.02921 0.26590 0.27716
 C237 C -0.07490 0.29161 0.25668
 C238 C -0.03399 0.22656 0.31734
 C239 C 0.01208 0.20223 0.33881
 C240 C 0.06289 0.21602 0.31839
 C241 C 0.06794 0.25488 0.27827
 H242 H 0.06666 0.33345 0.20539
 H243 H -0.11462 0.28070 0.27070
 H244 H -0.07328 0.21596 0.33278
 H245 H 0.10760 0.26541 0.26383
 H246 H -0.10562 0.35219 0.20389
 H247 H 0.09905 0.19740 0.33409
 C248 C -0.06497 -0.33217 0.77853
 C249 C -0.01364 -0.35046 0.79496
 C250 C 0.03193 -0.32536 0.77257
 C251 C 0.02620 -0.28362 0.73438
 C252 C -0.02554 -0.26647 0.71801
 C253 C -0.07075 -0.29092 0.74062
 C254 C -0.03123 -0.22543 0.67908
 C255 C 0.01433 -0.20124 0.65622
 C256 C 0.06556 -0.21822 0.67343
 C257 C 0.07145 -0.25889 0.71197
 H258 H 0.07186 -0.33823 0.78447
 H259 H -0.11076 -0.27830 0.72883
 H260 H -0.07092 -0.21273 0.66632
 H261 H 0.11147 -0.27121 0.72399
 H262 H -0.10127 -0.34988 0.79470
 H263 H 0.10147 -0.20029 0.65673
 C264 C 0.32237 -0.07637 0.78987
 C265 C 0.33719 -0.02563 0.80855
 C266 C 0.31031 0.02015 0.78951
 C267 C 0.27027 0.01560 0.75071
 C268 C 0.25675 -0.03540 0.73068
 C269 C 0.28249 -0.08123 0.75117
 C270 C 0.21882 -0.03948 0.68957
 C271 C 0.19472 0.00691 0.66818
 C272 C 0.20703 0.05715 0.68979
 C273 C 0.24446 0.06146 0.73068
 H274 H 0.32124 0.05936 0.80406
 H275 H 0.27252 -0.12066 0.73660
 H276 H 0.20930 -0.07835 0.67328
 H277 H 0.25400 0.10077 0.74585
 H278 H 0.34246 -0.11233 0.80431
 H279 H 0.18852 0.09352 0.67431
 C280 C -0.32160 -0.05869 0.21548
 C281 C -0.33940 -0.00740 0.19804
 C282 C -0.31451 0.03809 0.21980
 C283 C -0.27390 0.03218 0.25883
 C284 C -0.25752 -0.01959 0.27620
 C285 C -0.28138 -0.06461 0.25387
 C286 C -0.21799 -0.02563 0.31607
 C287 C -0.19459 0.01956 0.33920
 C288 C -0.21059 0.07091 0.32107
 C289 C -0.24972 0.07717 0.28136
 H290 H -0.32701 0.07798 0.20714
 H291 H -0.26926 -0.10462 0.26643
 H292 H -0.20604 -0.06541 0.32954
 H293 H -0.26142 0.11724 0.26866
 H294 H -0.33898 -0.09498 0.19981
 H295 H -0.19314 0.10654 0.33800
 C296 C 0.30924 -0.05845 0.19954
 C297 C 0.33090 -0.00776 0.18711
 C298 C 0.30961 0.03794 0.21122
 C299 C 0.26915 0.03264 0.24988
 C300 C 0.24938 -0.01886 0.26389
 C301 C 0.26879 -0.06396 0.23754
 C302 C 0.21185 -0.02464 0.30522
 C303 C 0.19407 0.02041 0.33290
 C304 C 0.21221 0.07165 0.31733
 C305 C 0.24947 0.07773 0.27617
 H306 H 0.32598 0.07712 0.20166
 H307 H 0.25379 -0.10362 0.24736
 H308 H 0.19767 -0.06419 0.31671
 H309 H 0.26379 0.11750 0.26580
 H310 H 0.32461 -0.09430 0.18089
 H311 H 0.19860 0.10713 0.33786
 C312 C -0.32038 -0.07359 0.78848
 C313 C -0.34057 -0.02283 0.80336
 C314 C -0.31841 0.02320 0.77870
 C315 C -0.27778 0.01846 0.73979
 C316 C -0.25883 -0.03275 0.72482
 C317 C -0.28029 -0.07841 0.74973
 C318 C -0.21894 -0.03744 0.68507
 C319 C -0.19752 0.00863 0.66028
 C320 C -0.21624 0.05933 0.67621
 C321 C -0.25591 0.06420 0.71532
 H322 H -0.33275 0.06274 0.78939
 H323 H -0.26623 -0.11802 0.73911
 H324 H -0.20480 -0.07673 0.67340
 H325 H -0.26964 0.10384 0.72625
 H326 H -0.33581 -0.11020 0.80641
 H327 H -0.20052 0.09565 0.65802
   
