data_POSCAR
  _audit_creation_date              2014-09-24
  _audit_creation_method            'ToBaCCo'
  _symmetry_space_group_name_H-M    'P1'
  _symmetry_Int_Tables_number       1
  _symmetry_cell_setting            triclinic
  loop_
  _symmetry_equiv_pos_as_xyz
 x,y,z
_cell_length_a 28.1369
_cell_length_b 28.1881
_cell_length_c 25.2194
_cell_angle_alpha 90.937800
_cell_angle_beta 89.049700
_cell_angle_gamma 90.250700
loop_
  _atom_site_label
  _atom_site_type_symbol
  _atom_site_fract_x
  _atom_site_fract_y
  _atom_site_fract_z
C1 C 0.40154 0.06498 0.33646
 H2 H 0.37552 0.09270 0.33269
 C3 C 0.43605 0.06853 0.37630
 H4 H 0.43455 0.09760 0.40475
 C5 C 0.43242 -0.00912 0.30832
 H6 H 0.43186 -0.03998 0.28308
 C7 C 0.46946 -0.00458 0.34251
 H8 H 0.49485 -0.03325 0.34146
 N9 N 0.39908 0.02512 0.30504
 C10 C 0.36181 -0.02985 0.14846
 H11 H 0.32369 -0.03476 0.15070
 C12 C 0.38827 -0.05064 0.10645
 H13 H 0.37039 -0.07007 0.07540
 C14 C 0.43248 -0.00240 0.18783
 H15 H 0.45063 0.01865 0.21723
 C16 C 0.45932 -0.02826 0.15117
 H17 H 0.49765 -0.02624 0.15427
 Zn18 Zn 0.35220 0.01181 0.25279
 N19 N 0.38432 -0.00453 0.18732
 C20 C 0.32009 0.09350 0.20298
 N21 N 0.31371 0.06537 0.24582
 C22 C 0.28649 0.07943 0.28807
 C23 C 0.26761 0.12499 0.29020
 C24 C 0.30221 0.13966 0.20379
 C25 C 0.34630 -0.08128 0.25731
 C26 C 0.32927 -0.12651 0.25735
 C27 C 0.25565 -0.09837 0.29601
 C28 C 0.27390 -0.05164 0.29237
 N29 N 0.31872 -0.04425 0.27246
 H30 H 0.34199 0.08144 0.16984
 H31 H 0.28226 0.05651 0.32180
 H32 H 0.24672 0.13551 0.32477
 H33 H 0.30984 0.16236 0.17047
 H34 H 0.38056 -0.07613 0.23922
 H35 H 0.35159 -0.15185 0.23650
 H36 H 0.21950 -0.10357 0.31023
 H37 H 0.25174 -0.02180 0.30362
 C38 C 0.43770 -0.04404 0.10410
 C39 C 0.46884 0.03143 0.38168
 C40 C 0.28341 -0.13710 0.27710
 C41 C 0.27887 0.15717 0.24977
 C42 C 0.06257 0.03805 0.68962
 H43 H 0.04302 0.04506 0.72612
 C44 C 0.04168 0.04860 0.64066
 H45 H 0.00517 0.06055 0.64038
 C46 C 0.13269 0.01225 0.64595
 H47 H 0.16792 -0.00273 0.64767
 C48 C 0.11383 0.02274 0.59704
 H49 H 0.13520 0.01204 0.56330
 N50 N 0.10612 0.01688 0.69090
 C51 C 0.11813 -0.04433 0.85113
 H52 H 0.15641 -0.04322 0.85260
 C53 C 0.09146 -0.06069 0.89457
 H54 H 0.10979 -0.07385 0.92829
 C55 C 0.04851 -0.03398 0.80229
 H56 H 0.03165 -0.02627 0.76535
 C57 C 0.02054 -0.04803 0.84591
 H58 H -0.01777 -0.04702 0.84251
 Zn59 Zn 0.13829 -0.00648 0.75202
 N60 N 0.09630 -0.02835 0.80727
 C61 C 0.16626 0.07709 0.81201
 N62 N 0.17939 0.04442 0.77418
 C63 C 0.21741 0.05272 0.74163
 C64 C 0.23958 0.09712 0.74149
 C65 C 0.18793 0.12224 0.81314
 C66 C 0.15145 -0.09713 0.70630
 C67 C 0.17043 -0.14293 0.70352
 C68 C 0.23844 -0.11447 0.75149
 C69 C 0.21818 -0.06914 0.75343
 N70 N 0.17446 -0.06175 0.73287
 H71 H 0.13633 0.06986 0.83816
 H72 H 0.22784 0.02642 0.71207
 H73 H 0.26759 0.10313 0.71244
 H74 H 0.17523 0.14870 0.84149
 H75 H 0.11682 -0.09051 0.69001
 H76 H 0.15065 -0.17012 0.68299
 H77 H 0.27173 -0.11979 0.77139
 H78 H 0.23567 -0.04102 0.77536
 C79 C 0.04188 -0.05557 0.89547
 C80 C 0.06620 0.03816 0.59264
 C81 C 0.21258 -0.15315 0.73021
 C82 C 0.22032 0.13463 0.77242
 C83 C 0.56501 0.53662 0.19050
 H84 H 0.54594 0.54375 0.22729
 C85 C 0.54348 0.54697 0.14188
 H86 H 0.50698 0.55898 0.14214
 C87 C 0.63456 0.51057 0.14581
 H88 H 0.66982 0.49558 0.14704
 C89 C 0.61506 0.52087 0.09718
 H90 H 0.63597 0.51013 0.06307
 N91 N 0.60855 0.51540 0.19113
 C92 C 0.62108 0.45466 0.35131
 H93 H 0.65934 0.45611 0.35303
 C94 C 0.59430 0.43810 0.39458
 H95 H 0.61251 0.42515 0.42847
 C96 C 0.55165 0.46404 0.30187
 H97 H 0.53495 0.47135 0.26472
 C98 C 0.52356 0.44982 0.34530
 H99 H 0.48527 0.45039 0.34160
 Zn100 Zn 0.64112 0.49214 0.25186
 N101 N 0.59933 0.47028 0.30724
 C102 C 0.66939 0.57597 0.31083
 N103 N 0.68246 0.54291 0.27343
 C104 C 0.72040 0.55087 0.24060
 C105 C 0.74247 0.59530 0.23970
 C106 C 0.69091 0.62116 0.31112
 C107 C 0.65389 0.40162 0.20615
 C108 C 0.67263 0.35576 0.20367
 C109 C 0.74071 0.38410 0.25164
 C110 C 0.72068 0.42949 0.25331
 N111 N 0.67704 0.43696 0.23260
 H112 H 0.63953 0.56899 0.33718
 H113 H 0.73071 0.52429 0.21131
 H114 H 0.77029 0.60111 0.21036
 H115 H 0.67819 0.64793 0.33909
 H116 H 0.61930 0.40835 0.18980
 H117 H 0.65275 0.32858 0.18325
 H118 H 0.77394 0.37872 0.27164
 H119 H 0.73822 0.45760 0.27521
 C120 C 0.54468 0.44276 0.39506
 C121 C 0.56739 0.53634 0.09356
 C122 C 0.71464 0.34548 0.23057
 C123 C 0.72302 0.63312 0.26997
 C124 C 0.90437 0.56637 0.83943
 H125 H 0.87886 0.59458 0.83555
 C126 C 0.93835 0.56893 0.88001
 H127 H 0.93689 0.59817 0.90819
 C128 C 0.93437 0.49216 0.81081
 H129 H 0.93363 0.46160 0.78511
 C130 C 0.97082 0.49555 0.84585
 H131 H 0.99563 0.46634 0.84408
 N132 N 0.90161 0.52686 0.80752
 C133 C 0.86408 0.47130 0.65103
 H134 H 0.82589 0.46698 0.65355
 C135 C 0.88999 0.44964 0.60917
 H136 H 0.87164 0.43013 0.57854
 C137 C 0.93540 0.49773 0.68983
 H138 H 0.95402 0.51847 0.71914
 C139 C 0.96165 0.47133 0.65302
 H140 H 1.00003 0.47296 0.65560
 Zn141 Zn 0.85501 0.51379 0.75479
 N142 N 0.88718 0.49652 0.68954
 C143 C 0.82298 0.59516 0.70388
 N144 N 0.81681 0.56747 0.74712
 C145 C 0.78920 0.58164 0.78901
 C146 C 0.76936 0.62678 0.79019
 C147 C 0.80429 0.64100 0.70382
 C148 C 0.84767 0.42061 0.75953
 C149 C 0.82970 0.37572 0.75961
 C150 C 0.75655 0.40531 0.79784
 C151 C 0.77560 0.45171 0.79406
 N152 N 0.82072 0.45822 0.77450
 H153 H 0.84518 0.58300 0.67102
 H154 H 0.78515 0.55909 0.82307
 H155 H 0.74802 0.63732 0.82439
 H156 H 0.81185 0.66345 0.67028
 H157 H 0.88215 0.42502 0.74172
 H158 H 0.85119 0.34952 0.73911
 H159 H 0.72028 0.40028 0.81169
 H160 H 0.75386 0.48194 0.80492
 C161 C 0.93946 0.45565 0.60622
 C162 C 0.97018 0.53087 0.88626
 C163 C 0.78392 0.36638 0.77953
 C164 C 0.78022 0.65861 0.74932
 C165 C 0.20259 0.45302 0.94892
 H166 H 0.23128 0.46664 0.92469
 C167 C 0.15812 0.47594 0.94822
 H168 H 0.15338 0.50669 0.92374
 C169 C 0.17165 0.39565 1.00726
 H170 H 0.17414 0.36305 1.02809
 C171 C 0.12880 0.41821 1.01002
 H172 H 0.10179 0.40262 1.03534
 N173 N 0.20903 0.41433 0.98013
 C174 C 0.34944 0.40633 1.05039
 H175 H 0.34354 0.37294 1.06999
 C176 C 0.39308 0.42929 1.05548
 H177 H 0.41959 0.41451 1.08095
 C178 C 0.32234 0.46635 0.99400
 H179 H 0.29532 0.48068 0.96943
 C180 C 0.36624 0.48925 0.99639
 H181 H 0.37176 0.52067 0.97294
 Zn182 Zn 0.26664 0.38148 0.99734
 N183 N 0.31623 0.42352 1.01717
 C184 C 0.29018 0.36935 0.89513
 N185 N 0.28905 0.34413 0.94000
 C186 C 0.30065 0.29724 0.93949
 C187 C 0.30683 0.27277 0.89090
 C188 C 0.29511 0.34664 0.84655
 C189 C 0.24664 0.37523 1.09901
 C190 C 0.23121 0.35891 1.14721
 C191 C 0.21686 0.28199 1.10717
 C192 C 0.23394 0.29994 1.05890
 N193 N 0.25071 0.34535 1.05683
 H194 H 0.28254 0.40679 0.89690
 H195 H 0.30262 0.27821 0.97619
 H196 H 0.31125 0.23463 0.89106
 H197 H 0.28798 0.36851 0.81365
 H198 H 0.25655 0.41213 1.09535
 H199 H 0.23646 0.38327 1.17973
 H200 H 0.20703 0.24487 1.10925
 H201 H 0.23272 0.27807 1.02341
 C202 C 0.40405 0.46665 1.02155
 C203 C 0.12064 0.45885 0.98018
 C204 C 0.21802 0.31091 1.15331
 C205 C 0.30026 0.29691 0.84304
 C206 C 0.80229 0.02298 0.96745
 H207 H 0.77166 -0.00028 0.96742
 C208 C 0.84867 0.00352 0.96356
 H209 H 0.85246 -0.03462 0.95982
 C210 C 0.83435 0.10013 0.97459
 H211 H 0.82910 0.13781 0.97977
 C212 C 0.87965 0.08231 0.97739
 H213 H 0.90519 0.10772 0.99114
 N214 N 0.79648 0.07076 0.97462
 C215 C 0.65158 0.10496 1.01857
 H216 H 0.65748 0.14212 1.01100
 C217 C 0.60569 0.08763 1.01824
 H218 H 0.57954 0.11194 1.00468
 C219 C 0.68191 0.02837 1.03265
 H220 H 0.71204 0.00501 1.03585
 C221 C 0.63518 0.00991 1.03742
 H222 H 0.63011 -0.02768 1.04370
 Zn223 Zn 0.74505 0.10924 1.00057
 N224 N 0.68894 0.07522 1.02179
 C225 C 0.70586 0.13078 0.90094
 N226 N 0.72458 0.15140 0.94520
 C227 C 0.72341 0.19948 0.95120
 C228 C 0.71280 0.22815 0.90823
 C229 C 0.69191 0.15860 0.85825
 C230 C 0.77008 0.11535 1.10594
 C231 C 0.78304 0.13437 1.15494
 C232 C 0.80370 0.20754 1.11305
 C233 C 0.79137 0.18648 1.06412
 N234 N 0.77058 0.14252 1.06218
 H235 H 0.70216 0.09261 0.89861
 H236 H 0.73132 0.21607 0.98870
 H237 H 0.71715 0.26617 0.91283
 H238 H 0.67571 0.14177 0.82446
 H239 H 0.75692 0.07928 1.10337
 H240 H 0.77624 0.11203 1.18811
 H241 H 0.81458 0.24444 1.11401
 H242 H 0.79760 0.20610 1.02832
 C243 C 0.59586 0.03948 1.02801
 C244 C 0.88900 0.03323 0.97096
 C245 C 0.79524 0.18300 1.16054
 C246 C 0.70223 0.20730 0.85851
 C247 C 0.30019 0.52571 0.46452
 H248 H 0.26908 0.50314 0.46322
 C249 C 0.34612 0.50536 0.46039
 H250 H 0.34963 0.46730 0.45558
 C251 C 0.33392 0.60199 0.47475
 H252 H 0.32955 0.63966 0.48105
 C253 C 0.37881 0.58306 0.47684
 H254 H 0.40558 0.60714 0.49067
 N255 N 0.29538 0.57344 0.47325
 C256 C 0.15077 0.60723 0.51938
 H257 H 0.15643 0.64451 0.51218
 C258 C 0.10488 0.58973 0.52043
 H259 H 0.07831 0.61426 0.50853
 C260 C 0.18179 0.53049 0.53081
 H261 H 0.21210 0.50725 0.53283
 C262 C 0.13531 0.51167 0.53620
 H263 H 0.13064 0.47389 0.54151
 Zn264 Zn 0.24400 0.61185 0.49918
 N265 N 0.18830 0.57755 0.52077
 C266 C 0.20552 0.63283 0.39937
 N267 N 0.22334 0.65379 0.44388
 C268 C 0.22175 0.70188 0.44963
 C269 C 0.21157 0.73030 0.40630
 C270 C 0.19214 0.66032 0.35623
 C271 C 0.26943 0.61755 0.60416
 C272 C 0.28233 0.63637 0.65323
 C273 C 0.30200 0.71005 0.61182
 C274 C 0.28960 0.68924 0.56282
 N275 N 0.26936 0.64506 0.56067
 H276 H 0.20233 0.59462 0.39712
 H277 H 0.22916 0.71866 0.48718
 H278 H 0.21571 0.76837 0.41069
 H279 H 0.17666 0.64317 0.32227
 H280 H 0.25671 0.58133 0.60132
 H281 H 0.27596 0.61374 0.68624
 H282 H 0.31248 0.74706 0.61304
 H283 H 0.29541 0.70914 0.52714
 C284 C 0.09560 0.54121 0.52874
 C285 C 0.38667 0.53415 0.46863
 C286 C 0.29395 0.68509 0.65912
 C287 C 0.20182 0.70916 0.35652
 C288 C 0.70314 0.95056 0.44542
 H289 H 0.73166 0.96424 0.42101
 C290 C 0.65876 0.97365 0.44553
 H291 H 0.65392 1.00465 0.42147
 C292 C 0.67239 0.89249 0.50301
 H293 H 0.67500 0.85951 0.52311
 C294 C 0.62964 0.91525 0.50669
 H295 H 0.60270 0.89951 0.53200
 N296 N 0.70971 0.91158 0.47611
 C297 C 0.84967 0.90611 0.54745
 H298 H 0.84392 0.87290 0.56746
 C299 C 0.89288 0.92980 0.55316
 H300 H 0.91919 0.91566 0.57932
 C301 C 0.82270 0.96502 0.48961
 H302 H 0.79598 0.97867 0.46419
 C303 C 0.86618 0.98869 0.49268
 H304 H 0.87167 1.01989 0.46888
 Zn305 Zn 0.76763 0.87945 0.49360
 N306 N 0.81678 0.92236 0.51324
 C307 C 0.79256 0.86717 0.39149
 N308 N 0.79045 0.84180 0.43627
 C309 C 0.80179 0.79484 0.43567
 C310 C 0.80863 0.77054 0.38702
 C311 C 0.79867 0.84466 0.34284
 C312 C 0.74670 0.87457 0.59539
 C313 C 0.73088 0.85888 0.64380
 C314 C 0.71819 0.78113 0.60513
 C315 C 0.73556 0.79847 0.55669
 N316 N 0.75171 0.84405 0.55384
 H317 H 0.78502 0.90465 0.39328
 H318 H 0.80308 0.77560 0.47227
 H319 H 0.81267 0.73235 0.38709
 H320 H 0.79303 0.86678 0.30987
 H321 H 0.75607 0.91155 0.59106
 H322 H 0.73509 0.88392 0.67587
 H323 H 0.70886 0.74393 0.60782
 H324 H 0.73497 0.77598 0.52166
 C325 C 0.90387 0.96701 0.51899
 C326 C 0.62151 0.95640 0.47774
 C327 C 0.71849 0.81080 0.65074
 C328 C 0.80311 0.79489 0.33907
 C329 C 0.03046 0.31879 0.45805
 H330 H 0.06433 0.30126 0.45227
 C331 C 0.02874 0.36343 0.48295
 H332 H 0.06182 0.37986 0.49483
 C333 C -0.05248 0.31922 0.44694
 H334 H -0.08431 0.30196 0.43275
 C335 C -0.05611 0.36154 0.47673
 H336 H -0.09059 0.37403 0.48909
 N337 N -0.00900 0.30059 0.43472
 C338 C 0.04184 0.16136 0.40182
 H339 H 0.06252 0.16983 0.36701
 C340 C 0.04669 0.11676 0.42359
 H341 H 0.07047 0.09250 0.40279
 C342 C -0.01492 0.18254 0.46776
 H343 H -0.03958 0.20833 0.48438
 C344 C -0.01040 0.13813 0.49200
 H345 H -0.03228 0.13069 0.52663
 Zn346 Zn -0.00227 0.24954 0.38346
 N347 N 0.00975 0.19261 0.42221
 C348 C 0.06048 0.23099 0.29219
 N349 N 0.04828 0.26217 0.33215
 C350 C 0.07362 0.30272 0.33875
 C351 C 0.11741 0.30825 0.31369
 C352 C 0.10346 0.23659 0.26332
 C353 C -0.09509 0.21813 0.36847
 C354 C -0.13859 0.21333 0.34396
 C355 C -0.10831 0.25822 0.26996
 C356 C -0.06478 0.26221 0.29630
 N357 N -0.05933 0.24270 0.34499
 H358 H 0.03856 0.20000 0.28495
 H359 H 0.06180 0.32990 0.36613
 H360 H 0.13917 0.33693 0.32844
 H361 H 0.11433 0.20918 0.23516
 H362 H -0.09027 0.20291 0.40695
 H363 H -0.16608 0.19377 0.36479
 H364 H -0.11247 0.27505 0.23204
 H365 H -0.03575 0.28181 0.27836
 C366 C 0.01971 0.10321 0.46905
 C367 C -0.01492 0.38766 0.48811
 C368 C -0.14636 0.23387 0.29404
 C369 C 0.13428 0.27452 0.27591
 C370 C 0.04901 0.67593 0.04549
 H371 H 0.08194 0.69185 0.05861
 C372 C 0.04988 0.63766 0.00932
 H373 H 0.08416 0.62376 -0.00319
 C374 C -0.03481 0.67452 0.04700
 H375 H -0.06813 0.68938 0.06070
 C376 C -0.03539 0.63629 0.01093
 H377 H -0.06914 0.62301 -0.00226
 N378 N 0.00700 0.69158 0.06629
 C379 C -0.01500 0.83746 0.10526
 H380 H -0.02678 0.83337 0.14598
 C381 C -0.02072 0.88062 0.08094
 H382 H -0.03729 0.90847 0.10467
 C383 C 0.02021 0.80503 0.02707
 H384 H 0.03572 0.77494 0.00615
 C385 C 0.01681 0.84906 0.00133
 H386 H 0.03070 0.85278 -0.03868
 Zn387 Zn 0.00534 0.74222 0.11784
 N388 N 0.00474 0.80033 0.07846
 C389 C 0.07859 0.78630 0.17219
 N390 N 0.05669 0.74357 0.16736
 C391 C 0.06829 0.70748 0.20023
 C392 C 0.10656 0.71261 0.23553
 C393 C 0.11617 0.79273 0.20647
 C394 C -0.08879 0.75758 0.13236
 C395 C -0.13237 0.76323 0.15687
 C396 C -0.10246 0.72753 0.23593
 C397 C -0.05766 0.72471 0.20993
 N398 N -0.05215 0.73906 0.15863
 H399 H 0.06785 0.81570 0.14848
 H400 H 0.04878 0.67436 0.19827
 H401 H 0.11644 0.68310 0.25983
 H402 H 0.13271 0.82741 0.20697
 H403 H -0.08378 0.76934 0.09206
 H404 H -0.15864 0.78073 0.13330
 H405 H -0.10641 0.71450 0.27594
 H406 H -0.02770 0.71076 0.23076
 C407 C -0.00379 0.88797 0.02847
 C408 C 0.00717 0.61370 -0.00389
 C409 C -0.14142 0.74682 0.20937
 C410 C 0.13450 0.75407 0.23457
 C411 C 0.55050 0.17359 0.54723
 H412 H 0.58327 0.18917 0.56127
 C413 C 0.55175 0.13483 0.51185
 H414 H 0.58614 0.12043 0.50062
 C415 C 0.46667 0.17350 0.54588
 H416 H 0.43330 0.18916 0.55831
 C417 C 0.46644 0.13460 0.51061
 H418 H 0.43290 0.12147 0.49655
 N419 N 0.50822 0.19020 0.56617
 C420 C 0.48665 0.33636 0.60463
 H421 H 0.47469 0.33237 0.64530
 C422 C 0.48116 0.37952 0.58022
 H423 H 0.46458 0.40745 0.60381
 C424 C 0.52207 0.30373 0.52668
 H425 H 0.53754 0.27356 0.50587
 C426 C 0.51889 0.34774 0.50085
 H427 H 0.53292 0.35136 0.46088
 Zn428 Zn 0.50644 0.24095 0.61731
 N429 N 0.50637 0.29912 0.57800
 C430 C 0.57838 0.28463 0.67447
 N431 N 0.55747 0.24165 0.66729
 C432 C 0.56950 0.20459 0.69860
 C433 C 0.60733 0.20914 0.73454
 C434 C 0.61553 0.29048 0.70948
 C435 C 0.41195 0.25754 0.63289
 C436 C 0.36903 0.26389 0.65894
 C437 C 0.40009 0.22611 0.73612
 C438 C 0.44419 0.22274 0.70891
 N439 N 0.44890 0.23798 0.65787
 H440 H 0.56712 0.31471 0.65215
 H441 H 0.55060 0.17122 0.69497
 H442 H 0.61735 0.17902 0.75782
 H443 H 0.63128 0.32548 0.71200
 H444 H 0.41628 0.26971 0.59266
 H445 H 0.34205 0.28199 0.63705
 H446 H 0.39629 0.21243 0.77584
 H447 H 0.47427 0.20776 0.72861
 C448 C 0.49827 0.38674 0.52780
 C449 C 0.50909 0.11137 0.49751
 C450 C 0.36139 0.24699 0.71111
 C451 C 0.63454 0.25109 0.73577
 C452 C 0.52906 0.81878 0.95562
 H453 H 0.56284 0.80103 0.95016
 C454 C 0.52723 0.86284 0.98172
 H455 H 0.56023 0.87872 0.99473
 C456 C 0.44633 0.82011 0.94283
 H457 H 0.41461 0.80332 0.92772
 C458 C 0.44253 0.86188 0.97354
 H459 H 0.40798 0.87442 0.98552
 N460 N 0.48986 0.80140 0.93105
 C461 C 0.54131 0.66279 0.89964
 H462 H 0.56182 0.67052 0.86446
 C463 C 0.54651 0.61888 0.92293
 H464 H 0.57021 0.59385 0.90330
 C465 C 0.48428 0.68517 0.96501
 H466 H 0.45947 0.71118 0.98086
 C467 C 0.48893 0.64139 0.99038
 H468 H 0.46698 0.63392 1.02493
 Zn469 Zn 0.49704 0.75057 0.87986
 N470 N 0.50905 0.69431 0.91924
 C471 C 0.56051 0.73185 0.78915
 N472 N 0.54798 0.76301 0.82902
 C473 C 0.57357 0.80330 0.83634
 C474 C 0.61761 0.80871 0.81182
 C475 C 0.60378 0.73739 0.76078
 C476 C 0.40426 0.71924 0.86568
 C477 C 0.36044 0.71474 0.84188
 C478 C 0.39036 0.75879 0.76705
 C479 C 0.43422 0.76254 0.79273
 N480 N 0.43999 0.74334 0.84152
 H481 H 0.53857 0.70093 0.78161
 H482 H 0.56175 0.83027 0.86400
 H483 H 0.63943 0.83716 0.82707
 H484 H 0.61480 0.71007 0.73258
 H485 H 0.40930 0.70430 0.90423
 H486 H 0.33302 0.69558 0.86327
 H487 H 0.38593 0.77535 0.72903
 H488 H 0.46323 0.78181 0.77428
 C489 C 0.51959 0.60675 0.96860
 C490 C 0.48370 0.88738 0.98641
 C491 C 0.35234 0.73504 0.79194
 C492 C 0.63461 0.77520 0.77381
 C493 C -0.18411 0.65567 0.91536
 H494 H -0.15575 0.63052 0.92034
 C495 C -0.18082 0.68934 0.87465
 H496 H -0.15121 0.68804 0.84686
 C497 C -0.25974 0.68473 0.94094
 H498 H -0.29134 0.68331 0.96511
 C499 C -0.25546 0.72129 0.90619
 H500 H -0.28496 0.74570 0.90603
 N501 N -0.22448 0.65278 0.94605
 C502 C -0.27997 0.61611 1.10337
 H503 H -0.28332 0.57788 1.10135
 C504 C -0.30135 0.64184 1.14565
 H505 H -0.32028 0.62325 1.17656
 C506 C -0.25762 0.68761 1.06261
 H507 H -0.23838 0.70682 1.03261
 C508 C -0.28457 0.71311 1.09973
 H509 H -0.28491 0.75139 1.09601
 Zn510 Zn -0.23794 0.60684 0.99905
 N511 N -0.25613 0.63948 1.06401
 C512 C -0.15567 0.57462 1.04922
 N513 N -0.18413 0.56853 1.00658
 C514 C -0.17062 0.54091 0.96444
 C515 C -0.12552 0.52090 0.96234
 C516 C -0.10971 0.55593 1.04819
 C517 C -0.33121 0.59878 0.99372
 C518 C -0.37602 0.58055 0.99245
 C519 C -0.34529 0.50828 0.95340
 C520 C -0.29909 0.52759 0.95825
 N521 N -0.29317 0.57238 0.97877
 H522 H -0.16728 0.59684 1.08228
 H523 H -0.19356 0.53716 0.93067
 H524 H -0.11560 0.49947 0.92800
 H525 H -0.08662 0.56348 1.08120
 H526 H -0.32728 0.63311 1.01195
 H527 H -0.40277 0.60161 1.01266
 H528 H -0.34984 0.47222 0.93889
 H529 H -0.26859 0.50622 0.94744
 C530 C -0.29557 0.69140 1.14858
 C531 C -0.21865 0.72106 0.86779
 C532 C -0.38467 0.53502 0.97163
 C533 C -0.09281 0.53200 1.00222
 C534 C -0.21469 0.30914 0.56161
 H535 H -0.20752 0.28982 0.52499
 C536 C -0.20339 0.28964 0.60833
 H537 H -0.18882 0.25416 0.60864
 C538 C -0.23709 0.38198 0.60295
 H539 H -0.25101 0.41760 0.60144
 C540 C -0.22635 0.36190 0.65466
 H541 H -0.23867 0.38345 0.68755
 N542 N -0.23561 0.35582 0.56024
 C543 C -0.29523 0.36887 0.39940
 H544 H -0.29318 0.40704 0.39776
 C545 C -0.31124 0.34246 0.35565
 H546 H -0.32313 0.36097 0.32150
 C547 C -0.28732 0.29932 0.44881
 H548 H -0.28052 0.28248 0.48600
 C549 C -0.30117 0.27155 0.40498
 H550 H -0.30099 0.23331 0.40855
 Zn551 Zn -0.25875 0.38840 0.49927
 N552 N -0.28064 0.34689 0.44375
 C553 C -0.17436 0.41509 0.44001
 N554 N -0.20729 0.42888 0.47731
 C555 C -0.19894 0.46711 0.50945
 C556 C -0.15430 0.48887 0.50976
 C557 C -0.12900 0.43639 0.43898
 C558 C -0.34929 0.40352 0.54558
 C559 C -0.39495 0.42305 0.54774
 C560 C -0.36567 0.48928 0.49754
 C561 C -0.32051 0.46853 0.49635
 N562 N -0.31364 0.42530 0.51814
 H563 H -0.18163 0.38499 0.41420
 H564 H -0.22547 0.47810 0.53853
 H565 H -0.14828 0.51708 0.53849
 H566 H -0.10239 0.42322 0.41103
 H567 H -0.34301 0.36942 0.56319
 H568 H -0.42210 0.40437 0.56968
 H569 H -0.37019 0.52222 0.47677
 H570 H -0.29211 0.48517 0.47397
 C571 C -0.30731 0.29286 0.35514
 C572 C -0.21342 0.31574 0.65935
 C573 C -0.40500 0.46426 0.51911
 C574 C -0.11668 0.46911 0.47935
 C575 C 0.28471 -0.18970 0.05938
 H576 H 0.29168 -0.20896 0.02269
 C577 C 0.29614 -0.20937 0.10598
 H578 H 0.31053 -0.24493 0.10612
 C579 C 0.26298 -0.11677 0.10097
 H580 H 0.24917 -0.08111 0.09962
 C581 C 0.27417 -0.13692 0.15251
 H582 H 0.26250 -0.11515 0.18553
 N583 N 0.26395 -0.14292 0.05825
 C584 C 0.20296 -0.13009 -0.10178
 H585 H 0.20470 -0.09191 -0.10355
 C586 C 0.18671 -0.15673 -0.14524
 H587 H 0.17422 -0.13843 -0.17924
 C588 C 0.21171 -0.19944 -0.05225
 H589 H 0.21872 -0.21613 -0.01504
 C590 C 0.19781 -0.22743 -0.09586
 H591 H 0.19829 -0.26566 -0.09218
 Zn592 Zn 0.24026 -0.11015 -0.00234
 N593 N 0.21814 -0.15185 -0.05755
 C594 C 0.32452 -0.08342 -0.06219
 N595 N 0.29175 -0.06952 -0.02474
 C596 C 0.30045 -0.03132 0.00734
 C597 C 0.34530 -0.00985 0.00752
 C598 C 0.37004 -0.06236 -0.06340
 C599 C 0.14954 -0.09568 0.04441
 C600 C 0.10376 -0.07635 0.04702
 C601 C 0.13256 -0.00964 -0.00267
 C602 C 0.17785 -0.03020 -0.00430
 N603 N 0.18505 -0.07355 0.01707
 H604 H 0.31703 -0.11349 -0.08797
 H605 H 0.27409 -0.02019 0.03655
 H606 H 0.35160 0.01824 0.03632
 H607 H 0.39649 -0.07568 -0.09146
 H608 H 0.15603 -0.12991 0.06166
 H609 H 0.07678 -0.09533 0.06887
 H610 H 0.12785 0.02346 -0.02306
 H611 H 0.20611 -0.01325 -0.02661
 C612 C 0.19117 -0.20630 -0.14568
 C613 C 0.28670 -0.18324 0.15709
 C614 C 0.09339 -0.03487 0.01900
 C615 C 0.38276 -0.02981 -0.02303
 C616 C 0.31625 1.15282 0.41452
 H617 H 0.34398 1.12680 0.41828
 C618 C 0.31923 1.18648 0.37381
 H619 H 0.34787 1.18437 0.34478
 C620 C 0.24237 1.18416 0.44321
 H621 H 0.21160 1.18382 0.46870
 C622 C 0.24650 1.22054 0.40823
 H623 H 0.21778 1.24588 0.40920
 N624 N 0.27674 1.15098 0.44666
 C625 C 0.22019 1.11456 0.60282
 H626 H 0.21558 1.07646 0.60074
 C627 C 0.19818 1.14107 0.64402
 H628 H 0.17831 1.12327 0.67482
 C629 C 0.24771 1.18513 0.56355
 H630 H 0.26919 1.20331 0.53452
 C631 C 0.22041 1.21183 0.59912
 H632 H 0.22204 1.25009 0.59582
 Zn633 Zn 0.26353 1.10467 0.49933
 N634 N 0.24618 1.13702 0.56444
 C635 C 0.34598 1.07282 0.54882
 N636 N 0.31727 1.06630 0.50646
 C637 C 0.33067 1.03859 0.46437
 C638 C 0.37592 1.01894 0.46202
 C639 C 0.39203 1.05438 0.54762
 C640 C 0.17019 1.09804 0.49348
 C641 C 0.12505 1.08064 0.49166
 C642 C 0.15494 1.00767 0.45340
 C643 C 0.20141 1.02621 0.45867
 N644 N 0.20789 1.07093 0.47909
 H645 H 0.33447 1.09518 0.58181
 H646 H 0.30751 1.03452 0.43082
 H647 H 0.38578 0.99750 0.42766
 H648 H 0.41527 1.06217 0.58044
 H649 H 0.17460 1.13225 0.51182
 H650 H 0.09845 1.10225 0.51136
 H651 H 0.14992 0.97164 0.43901
 H652 H 0.23165 1.00433 0.44820
 C653 C 0.20452 1.19044 0.64627
 C654 C 0.28201 1.21915 0.36844
 C655 C 0.11583 1.03515 0.47102
 C656 C 0.40875 1.03025 0.50175
 C657 C 0.20317 0.45295 0.29895
 H658 H 0.21801 0.48172 0.32197
 C659 C 0.22507 0.40811 0.30045
 H660 H 0.25652 0.40339 0.32390
 C661 C 0.14355 0.42208 0.24333
 H662 H 0.11073 0.42519 0.22288
 C663 C 0.16461 0.37838 0.24214
 H664 H 0.14785 0.35106 0.21828
 N665 N 0.16389 0.45959 0.26863
 C666 C 0.15653 0.60088 0.19947
 H667 H 0.12333 0.59485 0.17944
 C668 C 0.17954 0.64451 0.19430
 H669 H 0.16490 0.67079 0.16848
 C670 C 0.21596 0.57439 0.25699
 H671 H 0.23006 0.54775 0.28216
 C672 C 0.23899 0.61821 0.25435
 H673 H 0.27021 0.62389 0.27815
 Zn674 Zn 0.13135 0.51750 0.25197
 N675 N 0.17344 0.56784 0.23309
 C676 C 0.11874 0.53797 0.35491
 N677 N 0.09369 0.53857 0.30989
 C678 C 0.04668 0.55005 0.31068
 C679 C 0.02203 0.55505 0.35940
 C680 C 0.09576 0.54126 0.40352
 C681 C 0.12510 0.49924 0.14974
 C682 C 0.10845 0.48659 0.10073
 C683 C 0.03156 0.47037 0.14030
 C684 C 0.04970 0.48574 0.18922
 N685 N 0.09526 0.50212 0.19202
 H686 H 0.15622 0.53013 0.35309
 H687 H 0.02770 0.55290 0.27401
 H688 H -0.01614 0.55981 0.35932
 H689 H 0.11724 0.53230 0.43621
 H690 H 0.16213 0.50877 0.15383
 H691 H 0.13312 0.49344 0.06878
 H692 H -0.00556 0.46019 0.13860
 H693 H 0.02780 0.48351 0.22467
 C694 C 0.21677 0.65577 0.22841
 C695 C 0.20611 0.37021 0.27065
 C696 C 0.06012 0.47369 0.09366
 C697 C 0.04606 0.54734 0.40711
 C698 C -0.22390 1.04865 0.28583
 H699 H -0.24646 1.01760 0.28733
 C700 C -0.24430 1.09442 0.29063
 H701 H -0.28240 1.09787 0.29589
 C702 C -0.14756 1.08243 0.27513
 H703 H -0.10987 1.07814 0.26841
 C704 C -0.16658 1.12720 0.27369
 H705 H -0.14252 1.15400 0.25987
 N706 N -0.17618 1.04398 0.27629
 C707 C -0.14192 0.90175 0.22282
 H708 H -0.10432 0.90803 0.22778
 C709 C -0.15863 0.85562 0.22128
 H710 H -0.13263 0.82956 0.23021
 C711 C -0.21999 0.93151 0.21877
 H712 H -0.24396 0.96132 0.21980
 C713 C -0.23834 0.88495 0.21326
 H714 H -0.27640 0.87981 0.21097
 Zn715 Zn -0.13782 0.99335 0.24881
 N716 N -0.17243 0.93858 0.22554
 C717 C -0.11781 0.95414 0.34809
 N718 N -0.09627 0.97127 0.30360
 C719 C -0.04812 0.96877 0.29808
 C720 C -0.02007 0.95850 0.34173
 C721 C -0.09075 0.94068 0.39155
 C722 C -0.13193 1.02267 0.14521
 C723 C -0.11302 1.03653 0.09650
 C724 C -0.03839 1.05240 0.13771
 C725 C -0.05927 1.03902 0.18641
 N726 N -0.10405 1.02001 0.18823
 H727 H -0.15612 0.95200 0.35020
 H728 H -0.03103 0.97581 0.26056
 H729 H 0.01814 0.96211 0.33761
 H730 H -0.10835 0.92588 0.42562
 H731 H -0.16867 1.01133 0.14806
 H732 H -0.13673 1.03263 0.06407
 H733 H -0.00106 1.06200 0.13686
 H734 H -0.03898 1.04312 0.22209
 C735 C -0.20766 0.84563 0.21710
 C736 C -0.21555 1.13492 0.28229
 C737 C -0.06363 1.04589 0.09009
 C738 C -0.04174 0.94977 0.39153
 C739 C 0.27433 0.54954 -0.21570
 H740 H 0.25167 0.51853 -0.21442
 C741 C 0.25402 0.59541 -0.21131
 H742 H 0.21590 0.59894 -0.20645
 C743 C 0.35080 0.58313 -0.22583
 H744 H 0.38853 0.57875 -0.23215
 C745 C 0.33190 0.62800 -0.22755
 H746 H 0.35610 0.65476 -0.24113
 N747 N 0.32214 0.54468 -0.22454
 C748 C 0.35850 0.39852 -0.27114
 H749 H 0.39598 0.40491 -0.26537
 C750 C 0.34214 0.35440 -0.27086
 H751 H 0.36746 0.32816 -0.26015
 C752 C 0.28150 0.43099 -0.28151
 H753 H 0.25765 0.46088 -0.28202
 C754 C 0.26189 0.38167 -0.28602
 H755 H 0.22382 0.37725 -0.28967
 Zn756 Zn 0.36071 0.49335 -0.25045
 N757 N 0.32662 0.43770 -0.27243
 C758 C 0.38072 0.45574 -0.15022
 N759 N 0.40226 0.47247 -0.19493
 C760 C 0.45040 0.46973 -0.20051
 C761 C 0.47850 0.45930 -0.15693
 C762 C 0.40779 0.44223 -0.10677
 C763 C 0.36728 0.51989 -0.35517
 C764 C 0.38656 0.53332 -0.40388
 C765 C 0.46032 0.55149 -0.36166
 C766 C 0.43909 0.53852 -0.31303
 N767 N 0.39458 0.51886 -0.31151
 H768 H 0.34239 0.45368 -0.14804
 H769 H 0.46747 0.47642 -0.23813
 H770 H 0.51673 0.46253 -0.16123
 H771 H 0.39012 0.42768 -0.07262
 H772 H 0.33083 0.50760 -0.35277
 H773 H 0.36397 0.52782 -0.43711
 H774 H 0.49751 0.56156 -0.36243
 H775 H 0.45891 0.54346 -0.27713
 C776 C 0.29052 0.34388 -0.27832
 C777 C 0.28292 0.63589 -0.21932
 C778 C 0.43551 0.54448 -0.40928
 C779 C 0.45695 0.45062 -0.10706
 C780 C 0.71123 -0.04732 -0.20299
 H781 H 0.72733 -0.01904 -0.18027
 C782 C 0.73088 -0.09087 -0.20204
 H783 H 0.76291 -0.09635 -0.17977
 C784 C 0.64617 -0.07531 -0.25359
 H785 H 0.61211 -0.07180 -0.27125
 C786 C 0.66766 -0.12168 -0.25692
 H787 H 0.64942 -0.14776 -0.28116
 N788 N 0.66802 -0.03945 -0.23199
 C789 C 0.66234 0.10164 -0.30162
 H790 H 0.63043 0.09491 -0.32387
 C791 C 0.68450 0.14590 -0.30506
 H792 H 0.67035 0.17159 -0.33201
 C793 C 0.71880 0.07650 -0.23997
 H794 H 0.73159 0.05043 -0.21329
 C795 C 0.74132 0.12056 -0.24145
 H796 H 0.77150 0.12596 -0.21593
 Zn797 Zn 0.63578 0.01883 -0.24815
 N798 N 0.67784 0.06913 -0.26660
 C799 C 0.62183 0.03390 -0.14442
 N800 N 0.59803 0.03909 -0.18983
 C801 C 0.55174 0.05326 -0.18928
 C802 C 0.52628 0.05702 -0.14088
 C803 C 0.59797 0.03586 -0.09630
 C804 C 0.62914 -0.00175 -0.35029
 C805 C 0.61207 -0.01732 -0.39825
 C806 C 0.53506 -0.02961 -0.35718
 C807 C 0.55361 -0.01191 -0.30949
 N808 N 0.59956 0.00351 -0.30793
 H809 H 0.65870 0.02347 -0.14592
 H810 H 0.53383 0.05925 -0.22613
 H811 H 0.48853 0.06423 -0.14136
 H812 H 0.61785 0.02321 -0.06380
 H813 H 0.66630 0.00760 -0.34700
 H814 H 0.63624 -0.01307 -0.43120
 H815 H 0.49768 -0.03873 -0.35868
 H816 H 0.53178 -0.01181 -0.27387
 C817 C 0.71960 0.15828 -0.26822
 C818 C 0.70829 -0.13087 -0.23164
 C819 C 0.56372 -0.02984 -0.40363
 C820 C 0.54878 0.04552 -0.09328
 C821 C 0.07073 0.28247 0.79778
 H822 H 0.05336 0.31635 0.80378
 C823 C 0.11496 0.28049 0.77182
 H824 H 0.13135 0.31343 0.75953
 C825 C 0.07083 0.19965 0.80866
 H826 H 0.05351 0.16793 0.82293
 C827 C 0.11266 0.19580 0.77791
 H828 H 0.12468 0.16133 0.76509
 N829 N 0.05262 0.24314 0.82137
 C830 C -0.08699 0.29356 0.85175
 H831 H -0.07967 0.31391 0.88713
 C832 C -0.13084 0.29854 0.82807
 H833 H -0.15624 0.32187 0.84767
 C834 C -0.06366 0.23715 0.78626
 H835 H -0.03732 0.21265 0.77049
 C836 C -0.10738 0.24157 0.76050
 H837 H -0.11444 0.21974 0.72579
 Zn838 Zn 0.00117 0.24984 0.87225
 N839 N -0.05502 0.26168 0.83229
 C840 C -0.01866 0.31320 0.96309
 N841 N 0.01294 0.30040 0.92368
 C842 C 0.05362 0.32549 0.91711
 C843 C 0.05888 0.36959 0.94121
 C844 C -0.01309 0.35643 0.99146
 C845 C -0.02951 0.15706 0.88547
 C846 C -0.03423 0.11325 0.90898
 C847 C 0.00849 0.14297 0.98490
 C848 C 0.01250 0.18688 0.95944
 N849 N -0.00598 0.19274 0.91028
 H850 H -0.04988 0.29155 0.97024
 H851 H 0.08099 0.31332 0.89011
 H852 H 0.08734 0.39109 0.92554
 H853 H -0.04073 0.36771 1.01919
 H854 H -0.04390 0.16219 0.84665
 H855 H -0.05313 0.08601 0.88708
 H856 H 0.02435 0.13848 1.02330
 H857 H 0.03130 0.21587 0.97845
 C858 C -0.14251 0.27178 0.78213
 C859 C 0.13884 0.23675 0.76593
 C860 C -0.01476 0.10503 0.95937
 C861 C 0.02504 0.38702 0.97870
 C862 C 0.42334 0.29838 0.20120
 H863 H 0.43906 0.33108 0.18725
 C864 C 0.38438 0.29969 0.23640
 H865 H 0.36999 0.33405 0.24760
 C866 C 0.42312 0.21469 0.20245
 H867 H 0.43896 0.18141 0.19002
 C868 C 0.38396 0.21452 0.23754
 H869 H 0.37072 0.18106 0.25157
 N870 N 0.44004 0.25617 0.18236
 C871 C 0.58731 0.23665 0.14428
 H872 H 0.58371 0.22604 0.10312
 C873 C 0.63064 0.23149 0.16860
 H874 H 0.65904 0.21634 0.14446
 C875 C 0.55339 0.26811 0.22363
 H876 H 0.52268 0.28191 0.24500
 C877 C 0.59752 0.26523 0.24947
 H878 H 0.60060 0.27765 0.29012
 Zn879 Zn 0.49129 0.25442 0.13171
 N880 N 0.54934 0.25421 0.17163
 C881 C 0.53498 0.32859 0.07814
 N882 N 0.49249 0.30604 0.08239
 C883 C 0.45630 0.31756 0.04952
 C884 C 0.46117 0.35598 0.01444
 C885 C 0.54114 0.36638 0.04419
 C886 C 0.51041 0.16062 0.11413
 C887 C 0.51724 0.11820 0.08728
 C888 C 0.47473 0.14825 0.01279
 C889 C 0.47123 0.19206 0.04046
 N890 N 0.48860 0.19706 0.09060
 H891 H 0.56437 0.31828 0.10214
 H892 H 0.42321 0.29794 0.05135
 H893 H 0.43157 0.36570 -0.00990
 H894 H 0.57568 0.38330 0.04416
 H895 H 0.52365 0.16484 0.15391
 H896 H 0.53685 0.09152 0.10799
 H897 H 0.45897 0.14409 -0.02589
 H898 H 0.45424 0.22160 0.02190
 C899 C 0.63726 0.24678 0.22178
 C900 C 0.36080 0.25716 0.25079
 C901 C 0.49808 0.11016 0.03619
 C902 C 0.50243 0.38428 0.01570
 C903 C -0.08008 0.80275 0.70078
 H904 H -0.06385 0.83524 0.68691
 C905 C -0.11665 0.80433 0.73542
 H906 H -0.12968 0.83864 0.74888
 C907 C -0.07615 0.71876 0.70486
 H908 H -0.06008 0.68533 0.69346
 C909 C -0.11769 0.71885 0.74189
 H910 H -0.13101 0.68513 0.75493
 N911 N -0.06163 0.75789 0.68271
 C912 C 0.08530 0.73738 0.64413
 H913 H 0.08151 0.72673 0.60301
 C914 C 0.12876 0.73237 0.66818
 H915 H 0.15709 0.71726 0.64390
 C916 C 0.05174 0.76903 0.72359
 H917 H 0.02112 0.78294 0.74506
 C918 C 0.09598 0.76623 0.74918
 H919 H 0.09924 0.77875 0.78977
 Zn920 Zn -0.01052 0.75560 0.63186
 N921 N 0.04748 0.75500 0.67168
 C922 C 0.03361 0.83042 0.57998
 N923 N -0.00865 0.80726 0.58260
 C924 C -0.04402 0.81838 0.54846
 C925 C -0.03852 0.85673 0.51339
 C926 C 0.04033 0.86822 0.54619
 C927 C 0.00759 0.66171 0.61542
 C928 C 0.01461 0.61905 0.58919
 C929 C -0.02612 0.64879 0.51330
 C930 C -0.02985 0.69285 0.54046
 N931 N -0.01347 0.69811 0.59101
 H932 H 0.06235 0.82061 0.60518
 H933 H -0.07694 0.79844 0.54921
 H934 H -0.06751 0.86607 0.48799
 H935 H 0.07461 0.88559 0.54754
 H936 H 0.02034 0.66623 0.65538
 H937 H 0.03385 0.59257 0.61060
 H938 H -0.04097 0.64446 0.47418
 H939 H -0.04612 0.72238 0.52112
 C940 C 0.13560 0.74779 0.72127
 C941 C -0.14140 0.75948 0.75184
 C942 C -0.00353 0.61075 0.53768
 C943 C 0.00239 0.88545 0.51597
 C944 C 0.57183 0.78006 0.29439
 H945 H 0.55415 0.81383 0.29989
 C946 C 0.61642 0.77829 0.26920
 H947 H 0.63270 0.81128 0.25690
 C948 C 0.57243 0.69733 0.30598
 H949 H 0.55518 0.66559 0.32034
 C950 C 0.61460 0.69362 0.27578
 H951 H 0.62690 0.65917 0.26329
 N952 N 0.55374 0.74075 0.31806
 C953 C 0.41450 0.79197 0.34838
 H954 H 0.42246 0.81258 0.38337
 C955 C 0.37052 0.79744 0.32518
 H956 H 0.34571 0.82135 0.34487
 C957 C 0.43626 0.73450 0.28340
 H958 H 0.46203 0.70938 0.26767
 C959 C 0.39240 0.73953 0.25800
 H960 H 0.38465 0.71755 0.22359
 Zn961 Zn 0.50215 0.74750 0.36878
 N962 N 0.44578 0.75939 0.32898
 C963 C 0.48252 0.81087 0.45957
 N964 N 0.51401 0.79828 0.41998
 C965 C 0.55442 0.82379 0.41304
 C966 C 0.55939 0.86800 0.43698
 C967 C 0.48788 0.85418 0.48783
 C968 C 0.47036 0.65497 0.38353
 C969 C 0.46556 0.61141 0.40772
 C970 C 0.51044 0.64122 0.48196
 C971 C 0.51448 0.68483 0.45590
 N972 N 0.49497 0.69054 0.40723
 H973 H 0.45150 0.78899 0.46694
 H974 H 0.58183 0.81180 0.38602
 H975 H 0.58767 0.88977 0.42133
 H976 H 0.46035 0.86522 0.51583
 H977 H 0.45516 0.65995 0.34508
 H978 H 0.44600 0.58411 0.38665
 H979 H 0.52728 0.63684 0.51985
 H980 H 0.53413 0.71371 0.47402
 C981 C 0.35800 0.77064 0.27957
 C982 C 0.64064 0.73470 0.26384
 C983 C 0.48607 0.60337 0.45760
 C984 C 0.52571 0.88504 0.47480
 B985 B -0.03682 0.02747 1.03989
 B986 B -0.06299 0.01456 0.98149
 B987 B -0.01559 0.05190 0.98230
 B988 B 0.02289 0.03327 1.02818
 B989 B 0.00001 -0.01706 1.05449
 B990 B -0.05376 -0.02866 1.02556
 B991 B 0.01548 -0.03448 0.94849
 B992 B 0.04211 -0.02047 1.00681
 B993 B -0.00482 -0.05863 1.00591
 B994 B -0.04406 -0.03995 0.96005
 B995 B -0.02101 0.01042 0.93383
 B996 B 0.03247 0.02196 0.96209
 B997 B 0.46469 0.52615 0.53810
 B998 B 0.43902 0.51284 0.47972
 B999 B 0.48604 0.55033 0.48065
 B1000 B 0.52434 0.53222 0.52702
 B1001 B 0.50151 0.48196 0.55343
 B1002 B 0.44809 0.46994 0.52402
 B1003 B 0.51784 0.46404 0.44768
 B1004 B 0.54394 0.47847 0.50618
 B1005 B 0.49722 0.44009 0.50503
 B1006 B 0.45823 0.45839 0.45871
 B1007 B 0.48131 0.50871 0.43240
 B1008 B 0.53449 0.52064 0.46108
 B1009 B 0.53949 0.97744 0.54008
 B1010 B 0.56961 0.97922 0.48187
 B1011 B 0.52314 0.94166 0.48805
 B1012 B 0.48137 0.96821 0.52740
 B1013 B 0.50222 1.02355 0.54359
 B1014 B 0.55742 1.02961 0.51542
 B1015 B 0.49383 1.01930 0.43628
 B1016 B 0.46347 1.01599 0.49445
 B1017 B 0.51000 1.05448 0.48757
 B1018 B 0.55227 1.02781 0.44855
 B1019 B 0.53149 0.97302 0.43255
 B1020 B 0.47620 0.96615 0.46026
 B1021 B 0.03828 0.48115 1.04208
 B1022 B 0.06859 0.48161 0.98381
 B1023 B 0.02228 0.44386 0.99104
 B1024 B -0.01982 0.47110 1.02933
 B1025 B 0.00069 0.52700 1.04403
 B1026 B 0.05590 0.53286 1.01577
 B1027 B -0.00738 0.51998 0.93661
 B1028 B -0.03796 0.51797 0.99494
 B1029 B 0.00838 0.55666 0.98705
 B1030 B 0.05097 0.52931 0.94892
 B1031 B 0.03070 0.47392 0.93470
 B1032 B -0.02479 0.46739 0.96227
 B1033 B 0.01737 0.52837 0.45841
 B1034 B 0.04304 0.51985 0.51718
 B1035 B -0.00383 0.55691 0.51409
 B1036 B -0.04197 0.53458 0.46851
 B1037 B -0.01898 0.48163 0.44531
 B1038 B 0.03410 0.47325 0.47544
 B1039 B -0.03577 0.47337 0.55196
 B1040 B -0.06196 0.48267 0.49262
 B1041 B -0.01518 0.44456 0.49774
 B1042 B 0.02380 0.46750 0.54157
 B1043 B 0.00076 0.51913 0.56390
 B1044 B -0.05238 0.52840 0.53477
 B1045 B 0.51831 0.02732 -0.04283
 B1046 B 0.54310 0.01854 0.01630
 B1047 B 0.49693 0.05635 0.01250
 B1048 B 0.45892 0.03460 -0.03360
 B1049 B 0.48124 -0.01876 -0.05637
 B1050 B 0.53379 -0.02799 -0.02540
 B1051 B 0.46320 -0.02661 0.05014
 B1052 B 0.43774 -0.01697 -0.00956
 B1053 B 0.48387 -0.05580 -0.00376
 B1054 B 0.52274 -0.03341 0.04059
 B1055 B 0.50029 0.01863 0.06247
 B1056 B 0.44765 0.02868 0.03260
 B1057 B 0.48354 0.46907 -0.05397
 B1058 B 0.45787 0.47940 0.00676
 B1059 B 0.50337 0.43997 -0.00054
 B1060 B 0.54286 0.46177 -0.04584
 B1061 B 0.52104 0.51446 -0.06608
 B1062 B 0.46827 0.52477 -0.03428
 B1063 B 0.53762 0.52249 0.04063
 B1064 B 0.56301 0.51380 -0.01978
 B1065 B 0.51735 0.55192 -0.01345
 B1066 B 0.47863 0.53057 0.03228
 B1067 B 0.50020 0.47743 0.05252
 B1068 B 0.55294 0.46784 0.01990
 B1069 B -0.01585 0.96922 0.44463
 B1070 B -0.04224 0.98019 0.50484
 B1071 B 0.00347 0.94090 0.49881
 B1072 B 0.04336 0.96225 0.45371
 B1073 B 0.02160 1.01456 0.43225
 B1074 B -0.03158 1.02514 0.46321
 B1075 B 0.03704 1.02409 0.53924
 B1076 B 0.06314 1.01467 0.47925
 B1077 B 0.01722 1.05281 0.48430
 B1078 B -0.02195 1.03171 0.52994
 B1079 B -0.00041 0.97898 0.55123
 B1080 B 0.05269 0.96921 0.51947
 B1081 B 0.77676 0.21248 0.21292
 B1082 B 0.76299 0.18706 0.27122
 B1083 B 0.80068 0.23387 0.27054
 B1084 B 0.78300 0.27201 0.22393
 B1085 B 0.73282 0.24937 0.19716
 B1086 B 0.72027 0.19618 0.22656
 B1087 B 0.71417 0.26586 0.30273
 B1088 B 0.72909 0.29174 0.24431
 B1089 B 0.69050 0.24535 0.24518
 B1090 B 0.70836 0.20638 0.29176
 B1091 B 0.75867 0.22932 0.31845
 B1092 B 0.77096 0.28234 0.28972
 B1093 B 0.72672 0.78807 0.70755
 B1094 B 0.72887 0.81944 0.76494
 B1095 B 0.69128 0.77280 0.76030
 B1096 B 0.71783 0.73034 0.72190
 B1097 B 0.77314 0.75099 0.70467
 B1098 B 0.77914 0.80670 0.73126
 B1099 B 0.76945 0.74494 0.81240
 B1100 B 0.76594 0.71335 0.75505
 B1101 B 0.80441 0.76010 0.76030
 B1102 B 0.77781 0.80295 0.79838
 B1103 B 0.72306 0.78251 0.81535
 B1104 B 0.71613 0.72671 0.78915
 B1105 B 0.28043 0.26848 0.79202
 B1106 B 0.27077 0.29409 0.73342
 B1107 B 0.30788 0.24718 0.73571
 B1108 B 0.28629 0.20919 0.78183
 B1109 B 0.23373 0.23226 0.80625
 B1110 B 0.22490 0.28527 0.77632
 B1111 B 0.22338 0.21543 0.69991
 B1112 B 0.23378 0.18932 0.75901
 B1113 B 0.19561 0.23612 0.75479
 B1114 B 0.21778 0.27488 0.71033
 B1115 B 0.26908 0.25187 0.68681
 B1116 B 0.27882 0.19879 0.71577
 B1117 B 0.22005 0.73558 0.30323
 B1118 B 0.22982 0.70974 0.24251
 B1119 B 0.19041 0.75522 0.25010
 B1120 B 0.21268 0.79473 0.29504
 B1121 B 0.26569 0.77302 0.31473
 B1122 B 0.27565 0.72022 0.28295
 B1123 B 0.27269 0.78935 0.20772
 B1124 B 0.26466 0.81488 0.26837
 B1125 B 0.30286 0.76906 0.26167
 B1126 B 0.28087 0.73039 0.21628
 B1127 B 0.22740 0.75193 0.19659
 B1128 B 0.21810 0.80474 0.22917
 B1129 B 0.27518 0.71403 0.71161
 B1130 B 0.26161 0.68823 0.76979
 B1131 B 0.29918 0.73516 0.76916
 B1132 B 0.28125 0.77353 0.72290
 B1133 B 0.23105 0.75085 0.69618
 B1134 B 0.21878 0.69747 0.72532
 B1135 B 0.21270 0.76684 0.80188
 B1136 B 0.22734 0.79303 0.74357
 B1137 B 0.18892 0.74649 0.74434
 B1138 B 0.20701 0.70739 0.79063
 B1139 B 0.25736 0.73033 0.81726
 B1140 B 0.26942 0.78352 0.78877
 B1141 B 0.22614 0.28728 0.20964
 B1142 B 0.22863 0.31818 0.26724
 B1143 B 0.19086 0.27185 0.26236
 B1144 B 0.21689 0.22951 0.22347
 B1145 B 0.27220 0.24989 0.20608
 B1146 B 0.27878 0.30533 0.23318
 B1147 B 0.26913 0.24316 0.31361
 B1148 B 0.26505 0.21197 0.25612
 B1149 B 0.30386 0.25835 0.26151
 B1150 B 0.27768 0.30122 0.30014
 B1151 B 0.22287 0.28091 0.31731
 B1152 B 0.21554 0.22537 0.29074
 B1153 B 0.78287 0.76684 0.28780
 B1154 B 0.77211 0.79278 0.22959
 B1155 B 0.80936 0.74585 0.23064
 B1156 B 0.78867 0.70761 0.27706
 B1157 B 0.73642 0.73046 0.30268
 B1158 B 0.72693 0.78355 0.27333
 B1159 B 0.72427 0.71404 0.19650
 B1160 B 0.73582 0.68768 0.25536
 B1161 B 0.69736 0.73439 0.25205
 B1162 B 0.71872 0.77355 0.20754
 B1163 B 0.76959 0.75067 0.18268
 B1164 B 0.78012 0.69737 0.21101
 B1165 B 0.72018 0.23376 0.80505
 B1166 B 0.73095 0.20783 0.74445
 B1167 B 0.69049 0.25266 0.75155
 B1168 B 0.71176 0.29276 0.79649
 B1169 B 0.76500 0.27215 0.81668
 B1170 B 0.77632 0.21959 0.78532
 B1171 B 0.77247 0.28822 0.70980
 B1172 B 0.76348 0.31377 0.77023
 B1173 B 0.80256 0.26885 0.76397
 B1174 B 0.78174 0.22948 0.71858
 B1175 B 0.72797 0.24993 0.69831
 B1176 B 0.71747 0.30261 0.73061
   
