data_POSCAR
  _audit_creation_date              2014-09-24
  _audit_creation_method            'ToBaCCo'
  _symmetry_space_group_name_H-M    'P1'
  _symmetry_Int_Tables_number       1
  _symmetry_cell_setting            triclinic
  loop_
  _symmetry_equiv_pos_as_xyz
 x,y,z
_cell_length_a 33.1484
_cell_length_b 42.6413
_cell_length_c 30.2683
_cell_angle_alpha 90.101600
_cell_angle_beta 90.004900
_cell_angle_gamma 90.097800
loop_
  _atom_site_label
  _atom_site_type_symbol
  _atom_site_fract_x
  _atom_site_fract_y
  _atom_site_fract_z
O1 O 0.24323 0.27979 0.19754
 O2 O 0.29869 0.21908 0.25882
 O3 O 0.24339 0.21859 0.19776
 O4 O 0.29848 0.28001 0.25867
 O5 O 0.25111 0.28001 0.31012
 O6 O 0.19600 0.21856 0.24916
 O7 O 0.25132 0.21905 0.31028
 O8 O 0.19582 0.27981 0.24894
 Cu9 Cu 0.27567 0.24937 0.22295
 Cu10 Cu 0.21872 0.24936 0.28475
 C11 C 0.21024 0.29014 0.21297
 C12 C 0.28444 0.20889 0.29495
 C13 C 0.21047 0.20811 0.21325
 C14 C 0.28417 0.29030 0.29474
 O15 O 0.79862 0.28004 0.24084
 O16 O 0.74347 0.21892 0.30196
 O17 O 0.79883 0.21910 0.24094
 O18 O 0.74330 0.28011 0.30187
 O19 O 0.69594 0.27987 0.25041
 O20 O 0.75151 0.21883 0.18943
 O21 O 0.69612 0.21864 0.25050
 O22 O 0.75129 0.27980 0.18933
 Cu23 Cu 0.77578 0.24956 0.27665
 Cu24 Cu 0.71888 0.24925 0.21477
 C25 C 0.78432 0.29017 0.20472
 C26 C 0.71055 0.20839 0.28650
 C27 C 0.78462 0.20874 0.20484
 C28 C 0.71033 0.29037 0.28636
 O29 O 0.74439 0.78110 0.69917
 O30 O 0.79933 0.72014 0.76057
 O31 O 0.74412 0.71991 0.69937
 O32 O 0.79961 0.78107 0.76034
 O33 O 0.75218 0.78132 0.81172
 O34 O 0.69665 0.72012 0.75070
 O35 O 0.75189 0.72036 0.81194
 O36 O 0.69693 0.78134 0.75051
 Cu37 Cu 0.77660 0.75053 0.72463
 Cu38 Cu 0.71957 0.75080 0.78634
 C39 C 0.71146 0.79159 0.71454
 C40 C 0.78495 0.71004 0.79669
 C41 C 0.71108 0.70962 0.71479
 C42 C 0.78533 0.79146 0.79638
 O43 O 0.24289 0.71997 0.80127
 O44 O 0.29834 0.78115 0.74060
 O45 O 0.24296 0.78117 0.80161
 O46 O 0.29825 0.72022 0.74031
 O47 O 0.25096 0.72024 0.68876
 O48 O 0.19563 0.78123 0.75012
 O49 O 0.25104 0.78121 0.68906
 O50 O 0.19556 0.71999 0.74978
 Cu51 Cu 0.27532 0.75063 0.77620
 Cu52 Cu 0.21846 0.75068 0.71429
 C53 C 0.20996 0.70955 0.78569
 C54 C 0.28413 0.79142 0.70452
 C55 C 0.21003 0.79157 0.78616
 C56 C 0.28401 0.71001 0.70414
 C57 C 0.98202 -0.00044 0.00006
 C58 C 1.02317 -0.00049 0.00016
 C59 C 1.04670 0.02253 0.02661
 C60 C 1.04659 -0.02361 -0.02612
 C61 C 0.95839 -0.02529 -0.02273
 C62 C 0.95850 0.02442 0.02280
 C63 C 1.07577 0.04137 0.00590
 C64 C 1.09703 0.06394 0.03004
 C65 C 1.08979 0.06795 0.07548
 C66 C 1.06134 0.04848 0.09638
 C67 C 1.04017 0.02586 0.07222
 C68 C 1.04035 -0.02688 -0.07179
 C69 C 1.06139 -0.04961 -0.09579
 C70 C 1.08933 -0.06931 -0.07463
 C71 C 1.09629 -0.06536 -0.02912
 C72 C 1.07523 -0.04264 -0.00517
 C73 C 0.96425 -0.05710 -0.01278
 C74 C 0.94222 -0.08024 -0.03498
 C75 C 0.91367 -0.07195 -0.06728
 C76 C 0.90733 -0.04003 -0.07648
 C77 C 0.92938 -0.01694 -0.05429
 C78 C 0.92929 0.01609 0.05418
 C79 C 0.90737 0.03919 0.07636
 C80 C 0.91402 0.07112 0.06733
 C81 C 0.94277 0.07939 0.03520
 C82 C 0.96468 0.05624 0.01300
 H83 H 1.08132 0.03908 -0.02922
 H84 H 1.11846 0.07875 0.01292
 H85 H 1.05566 0.05060 0.13148
 H86 H 1.01848 0.01106 0.08901
 H87 H 1.01884 -0.01206 -0.08871
 H88 H 1.05519 -0.05219 -0.13073
 H89 H 1.08073 -0.04027 0.02996
 H90 H 0.98602 -0.06400 0.01204
 H91 H 0.94795 -0.10462 -0.02736
 H92 H 0.88506 -0.03289 -0.10061
 H93 H 0.92415 0.00750 -0.06211
 H94 H 0.92382 -0.00835 0.06188
 H95 H 0.88495 0.03206 0.10036
 H96 H 0.94874 0.10378 0.02771
 H97 H 0.98661 0.06313 -0.01168
 H98 H 1.11814 -0.07978 -0.01206
 C99 C 0.48084 0.50028 0.49983
 C100 C 0.52198 0.50026 0.49996
 C101 C 0.54547 0.52342 0.52621
 C102 C 0.54544 0.47705 0.47387
 C103 C 0.45725 0.47537 0.47712
 C104 C 0.45728 0.52520 0.52240
 C105 C 0.57436 0.54230 0.50527
 C106 C 0.59554 0.56502 0.52919
 C107 C 0.58845 0.56913 0.57464
 C108 C 0.56024 0.54958 0.59578
 C109 C 0.53909 0.52684 0.57182
 C110 C 0.53927 0.47363 0.42822
 C111 C 0.56035 0.45083 0.40441
 C112 C 0.58825 0.43119 0.42575
 C113 C 0.59514 0.43530 0.47124
 C114 C 0.57405 0.45810 0.49501
 C115 C 0.46312 0.44358 0.48723
 C116 C 0.44120 0.42039 0.46503
 C117 C 0.41275 0.42858 0.43258
 C118 C 0.40638 0.46048 0.42325
 C119 C 0.42831 0.48363 0.44544
 C120 C 0.42809 0.51694 0.55385
 C121 C 0.40616 0.54010 0.57591
 C122 C 0.41279 0.57200 0.56669
 C123 C 0.44149 0.58019 0.53447
 C124 C 0.46341 0.55699 0.51239
 H125 H 0.57998 0.53980 0.47019
 H126 H 0.61759 0.57933 0.51215
 H127 H 0.55394 0.55228 0.63068
 H128 H 0.51738 0.51213 0.58873
 H129 H 0.51779 0.48840 0.41116
 H130 H 0.55420 0.44813 0.36947
 H131 H 0.57950 0.46059 0.53013
 H132 H 0.48484 0.43675 0.51214
 H133 H 0.44696 0.39602 0.47276
 H134 H 0.38418 0.46755 0.39901
 H135 H 0.42308 0.50805 0.43750
 H136 H 0.42266 0.49252 0.56171
 H137 H 0.38377 0.53303 0.59997
 H138 H 0.44744 0.60456 0.52683
 H139 H 0.48532 0.56382 0.48766
 H140 H 0.61697 0.42093 0.48844
 C141 C 0.02202 0.49969 -0.00043
 C142 C -0.01913 0.49989 0.00004
 C143 C -0.04271 0.47502 0.02272
 C144 C -0.04268 0.52498 -0.02206
 C145 C 0.04548 0.52270 -0.02687
 C146 C 0.04549 0.47648 0.02553
 C147 C -0.03703 0.44323 0.01234
 C148 C -0.05895 0.42006 0.03448
 C149 C -0.08721 0.42828 0.06714
 C150 C -0.09340 0.46019 0.07675
 C151 C -0.07146 0.48331 0.05462
 C152 C -0.07238 0.51695 -0.05309
 C153 C -0.09435 0.54027 -0.07464
 C154 C -0.08720 0.57212 -0.06536
 C155 C -0.05789 0.58009 -0.03366
 C156 C -0.03600 0.55673 -0.01201
 C157 C 0.07489 0.54133 -0.00627
 C158 C 0.09604 0.56392 -0.03036
 C159 C 0.08835 0.56817 -0.07565
 C160 C 0.05956 0.54890 -0.09646
 C161 C 0.03851 0.52625 -0.07235
 C162 C 0.03951 0.47322 0.07122
 C163 C 0.06059 0.45043 0.09495
 C164 C 0.08833 0.43067 0.07349
 C165 C 0.09502 0.43460 0.02795
 C166 C 0.07391 0.45738 0.00426
 H167 H -0.01546 0.43637 -0.01275
 H168 H -0.05333 0.39569 0.02653
 H169 H -0.11545 0.46728 0.10117
 H170 H -0.07655 0.50773 0.06278
 H171 H -0.07806 0.49258 -0.06117
 H172 H -0.11642 0.53340 -0.09921
 H173 H -0.01382 0.56338 0.01257
 H174 H 0.08080 0.53887 0.02875
 H175 H 0.11775 0.57858 -0.01331
 H176 H 0.05351 0.55121 -0.13145
 H177 H 0.01654 0.51161 -0.08907
 H178 H 0.01817 0.48809 0.08838
 H179 H 0.05460 0.44787 0.12991
 H180 H 0.11670 0.42012 0.01066
 H181 H 0.07921 0.45974 -0.03089
 H182 H -0.05221 0.60439 -0.02524
 C183 C 0.52319 1.00050 0.49998
 C184 C 0.48204 1.00047 0.50002
 C185 C 0.45846 0.97563 0.52277
 C186 C 0.45846 1.02525 0.47729
 C187 C 0.54666 1.02362 0.47375
 C188 C 0.54668 0.97743 0.52615
 C189 C 0.46439 0.94380 0.51280
 C190 C 0.44238 0.92070 0.53497
 C191 C 0.41379 0.92902 0.56724
 C192 C 0.40740 0.96095 0.57646
 C193 C 0.42942 0.98402 0.55431
 C194 C 0.42937 1.01679 0.44578
 C195 C 0.40738 1.03981 0.42361
 C196 C 0.41385 1.07176 0.43278
 C197 C 0.44246 1.08015 0.46504
 C198 C 0.46444 1.05709 0.48722
 C199 C 0.57542 1.04264 0.49474
 C200 C 0.59656 1.06534 0.47084
 C201 C 0.58956 1.06928 0.42536
 C202 C 0.56149 1.04958 0.40417
 C203 C 0.54036 1.02687 0.42811
 C204 C 0.54045 0.97415 0.57179
 C205 C 0.56159 0.95147 0.59568
 C206 C 0.58961 0.93183 0.57443
 C207 C 0.59654 0.93580 0.52894
 C208 C 0.57539 0.95847 0.50510
 H209 H 0.48619 0.93688 0.48800
 H210 H 0.44816 0.89630 0.52733
 H211 H 0.38510 0.96812 0.60057
 H212 H 0.42414 1.00847 0.56214
 H213 H 0.42405 0.99233 0.43798
 H214 H 0.38506 1.03259 0.39952
 H215 H 0.48628 1.06407 0.51199
 H216 H 0.58097 1.04028 0.52984
 H217 H 0.61851 1.07976 0.48793
 H218 H 0.55525 1.05215 0.36925
 H219 H 0.51876 1.01205 0.41116
 H220 H 0.51889 0.98892 0.58879
 H221 H 0.55541 0.94888 0.63061
 H222 H 0.61844 0.92143 0.51181
 H223 H 0.58088 0.96085 0.46998
 H224 H 0.44829 1.10456 0.47263
 C225 C 1.15216 0.14021 0.14766
 C226 C 1.17286 0.12207 0.11649
 C227 C 1.15269 0.09845 0.09319
 C228 C 1.19049 0.18516 0.19107
 C229 C 1.09097 0.11090 0.13238
 C230 C 1.11121 0.13453 0.15561
 C231 C 1.17293 0.16469 0.17133
 C232 C 1.11147 0.09263 0.10081
 H233 H 1.20460 0.12620 0.11018
 H234 H 1.16941 0.08454 0.06951
 H235 H 1.05913 0.10727 0.13855
 H236 H 1.09486 0.14848 0.17959
 C237 C 0.65087 0.64121 0.64715
 C238 C 0.64480 0.61169 0.66619
 C239 C 0.62451 0.58821 0.64268
 C240 C 0.68971 0.68558 0.69119
 C241 C 0.61631 0.62375 0.58093
 C242 C 0.63657 0.64718 0.60450
 C243 C 0.67194 0.66534 0.67122
 C244 C 0.61008 0.59397 0.59973
 H245 H 0.65586 0.60678 0.69914
 H246 H 0.62059 0.56543 0.65785
 H247 H 0.60505 0.62906 0.54821
 H248 H 0.64101 0.66998 0.58949
 C249 C -0.15347 0.35733 0.13724
 C250 C -0.13838 0.38350 0.15980
 C251 C -0.11683 0.40656 0.13702
 C252 C -0.19398 0.31379 0.18080
 C253 C -0.12529 0.37729 0.06890
 C254 C -0.14687 0.35426 0.09176
 C255 C -0.17558 0.33362 0.16083
 C256 C -0.11006 0.40373 0.09128
 H257 H -0.14318 0.38605 0.19503
 H258 H -0.10500 0.42640 0.15528
 H259 H -0.12098 0.37463 0.03363
 H260 H -0.15849 0.33411 0.07397
 C261 C 0.34694 0.85835 0.63724
 C262 C 0.36177 0.88464 0.65973
 C263 C 0.38355 0.90760 0.63698
 C264 C 0.30601 0.81498 0.68070
 C265 C 0.37583 0.87798 0.56906
 C266 C 0.35402 0.85505 0.59189
 C267 C 0.32460 0.83474 0.66079
 C268 C 0.39079 0.90454 0.59137
 H269 H 0.35660 0.88736 0.69487
 H270 H 0.39516 0.92754 0.65519
 H271 H 0.38050 0.87515 0.53388
 H272 H 0.34261 0.83480 0.57415
 C273 C -0.15316 0.64330 -0.13496
 C274 C -0.11193 0.64724 -0.12665
 C275 C -0.09050 0.62420 -0.10375
 C276 C -0.19341 0.68655 -0.17920
 C277 C -0.15159 0.59322 -0.09725
 C278 C -0.17296 0.61629 -0.12013
 C279 C -0.17509 0.66684 -0.15898
 C280 C -0.11008 0.59688 -0.08891
 H281 H -0.09629 0.66802 -0.13811
 H282 H -0.05848 0.62750 -0.09834
 H283 H -0.16760 0.57264 -0.08576
 H284 H -0.20489 0.61305 -0.12628
 C285 C 0.34717 1.14226 0.36259
 C286 C 0.36195 1.11596 0.34017
 C287 C 0.38367 1.09306 0.36298
 C288 C 0.30630 1.18546 0.31895
 C289 C 0.37600 1.12275 0.43083
 C290 C 0.35425 1.14563 0.40794
 C291 C 0.32486 1.16579 0.33896
 C292 C 0.39090 1.09618 0.40859
 H293 H 0.35678 1.11319 0.30503
 H294 H 0.39524 1.07311 0.34482
 H295 H 0.38067 1.12563 0.46601
 H296 H 0.34288 1.16588 0.42562
 C297 C 1.15130 -0.14138 -0.14727
 C298 C 1.14559 -0.11179 -0.16617
 C299 C 1.12545 -0.08831 -0.14261
 C300 C 1.18992 -0.18572 -0.19142
 C301 C 1.11668 -0.12400 -0.08110
 C302 C 1.13679 -0.14744 -0.10473
 C303 C 1.17224 -0.16551 -0.17139
 C304 C 1.11081 -0.09414 -0.09976
 H305 H 1.15682 -0.10682 -0.19904
 H306 H 1.12180 -0.06547 -0.15766
 H307 H 1.10526 -0.12937 -0.04846
 H308 H 1.14096 -0.17029 -0.08983
 C309 C 0.65032 0.35888 0.35369
 C310 C 0.64465 0.38842 0.33460
 C311 C 0.62447 0.41197 0.35796
 C312 C 0.68901 0.31441 0.30989
 C313 C 0.61560 0.37648 0.41968
 C314 C 0.63574 0.35297 0.39625
 C315 C 0.67129 0.33468 0.32977
 C316 C 0.60977 0.40628 0.40082
 H317 H 0.65593 0.39328 0.30171
 H318 H 0.62086 0.43476 0.34275
 H319 H 0.60413 0.37123 0.45234
 H320 H 0.63988 0.33017 0.41131
 C321 C 0.84686 -0.14275 -0.13743
 C322 C 0.85388 -0.14595 -0.09207
 C323 C 0.87565 -0.12297 -0.06919
 C324 C 0.80602 -0.18622 -0.18101
 C325 C 0.88347 -0.09350 -0.13708
 C326 C 0.86173 -0.11651 -0.15988
 C327 C 0.82457 -0.16641 -0.16104
 C328 C 0.89065 -0.09646 -0.09145
 H329 H 0.84244 -0.16616 -0.07437
 H330 H 0.88027 -0.12573 -0.03400
 H331 H 0.89511 -0.07360 -0.15525
 H332 H 0.85661 -0.11387 -0.19503
 C333 C 0.34644 0.35757 0.36228
 C334 C 0.35327 0.35444 0.40769
 C335 C 0.37488 0.37749 0.43062
 C336 C 0.30588 0.31398 0.31864
 C337 C 0.38289 0.40688 0.36269
 C338 C 0.36132 0.38381 0.33985
 C339 C 0.32430 0.33384 0.33863
 C340 C 0.38989 0.40400 0.40836
 H341 H 0.34182 0.33424 0.42539
 H342 H 0.37937 0.37479 0.46584
 H343 H 0.39455 0.42679 0.34452
 H344 H 0.35633 0.38640 0.30466
 C345 C 0.15045 0.64046 -0.14765
 C346 C 0.17136 0.62208 -0.11703
 C347 C 0.15127 0.59845 -0.09378
 C348 C 0.18874 0.68537 -0.19096
 C349 C 0.08919 0.61140 -0.13191
 C350 C 0.10935 0.63504 -0.15510
 C351 C 0.17117 0.66493 -0.17128
 C352 C 0.10992 0.59287 -0.10090
 H353 H 0.20321 0.62601 -0.11111
 H354 H 0.16815 0.58434 -0.07054
 H355 H 0.05725 0.60796 -0.13768
 H356 H 0.09285 0.64918 -0.17865
 C357 C 0.65178 1.14131 0.35292
 C358 C 0.64590 1.11170 0.33391
 C359 C 0.62567 1.08824 0.35740
 C360 C 0.69045 1.18565 0.30888
 C361 C 0.61718 1.12395 0.41908
 C362 C 0.63737 1.14737 0.39552
 C363 C 0.67276 1.16543 0.32886
 C364 C 0.61113 1.09409 0.40030
 H365 H 0.65704 1.10672 0.30099
 H366 H 0.62189 1.06540 0.34225
 H367 H 0.60583 1.12933 0.45176
 H368 H 0.64166 1.17023 0.41051
 C369 C 0.15039 0.35848 0.14546
 C370 C 0.13564 0.35244 0.10297
 C371 C 0.11552 0.37592 0.07955
 C372 C 0.18897 0.31410 0.18933
 C373 C 0.12476 0.41162 0.14114
 C374 C 0.14491 0.38811 0.16449
 C375 C 0.17130 0.33432 0.16940
 C376 C 0.10987 0.40580 0.09836
 H377 H 0.13962 0.32957 0.08797
 H378 H 0.10390 0.37056 0.04696
 H379 H 0.12130 0.43448 0.15630
 H380 H 0.15633 0.39306 0.19732
 C381 C 0.65180 0.85989 0.64675
 C382 C 0.64600 0.88948 0.66578
 C383 C 0.62580 0.91292 0.64232
 C384 C 0.69033 0.81558 0.69082
 C385 C 0.61716 0.87721 0.58063
 C386 C 0.63733 0.85381 0.60416
 C387 C 0.67271 0.83579 0.67080
 C388 C 0.61118 0.90705 0.59943
 H389 H 0.65718 0.89447 0.69869
 H390 H 0.62207 0.93575 0.65748
 H391 H 0.60576 0.87182 0.54796
 H392 H 0.64156 0.83096 0.58916
 C393 C 0.84741 0.14186 0.13743
 C394 C 0.86203 0.11556 0.15985
 C395 C 0.88373 0.09259 0.13707
 C396 C 0.80651 0.18521 0.18095
 C397 C 0.87639 0.12221 0.06927
 C398 C 0.85465 0.14516 0.09212
 C399 C 0.82509 0.16547 0.16101
 C400 C 0.89112 0.09563 0.09149
 H401 H 0.85673 0.11285 0.19496
 H402 H 0.89517 0.07263 0.15522
 H403 H 0.88118 0.12503 0.03411
 H404 H 0.84341 0.16541 0.07444
 C405 C 0.34642 0.64297 0.63664
 C406 C 0.36104 0.61670 0.65913
 C407 C 0.38264 0.59365 0.63640
 C408 C 0.30577 0.68645 0.68017
 C409 C 0.37520 0.62312 0.56848
 C410 C 0.35356 0.64615 0.59130
 C411 C 0.32423 0.66666 0.66020
 C412 C 0.38994 0.59658 0.59079
 H413 H 0.35582 0.61407 0.69427
 H414 H 0.39409 0.57372 0.65461
 H415 H 0.37992 0.62586 0.53330
 H416 H 0.34232 0.66638 0.57356
   
