data_POSCAR
  _audit_creation_date              2014-09-24
  _audit_creation_method            'ToBaCCo'
  _symmetry_space_group_name_H-M    'P1'
  _symmetry_Int_Tables_number       1
  _symmetry_cell_setting            triclinic
  loop_
  _symmetry_equiv_pos_as_xyz
 x,y,z
_cell_length_a 47.3761
_cell_length_b 46.9787
_cell_length_c 46.6357
_cell_angle_alpha 90.901600
_cell_angle_beta 88.762800
_cell_angle_gamma 90.664700
loop_
  _atom_site_label
  _atom_site_type_symbol
  _atom_site_fract_x
  _atom_site_fract_y
  _atom_site_fract_z
C1 C 0.71655 0.66189 0.97099
 H2 H 0.73763 0.66280 0.96179
 C3 C 0.69463 0.67562 0.95740
 H4 H 0.69918 0.68737 0.93802
 C5 C 0.68453 0.64398 1.00618
 H6 H 0.68014 0.63048 1.02424
 C7 C 0.66215 0.65792 0.99369
 H8 H 0.64104 0.65534 1.00273
 N9 N 0.71119 0.64620 0.99483
 C10 C 0.77961 0.64923 1.04850
 H11 H 0.76743 0.63801 1.06452
 C12 C 0.80355 0.66422 1.05701
 H13 H 0.80877 0.66449 1.07950
 C14 C 0.78877 0.66090 0.99998
 H15 H 0.78340 0.65880 0.97765
 C16 C 0.81338 0.67585 1.00757
 H17 H 0.82641 0.68562 0.99101
 Zn18 Zn 0.74093 0.62434 1.00998
 N19 N 0.77240 0.64790 1.02043
 C20 C 0.78040 0.58896 0.98177
 N21 N 0.75346 0.59850 0.98104
 C22 C 0.73686 0.59285 0.95815
 C23 C 0.74775 0.57832 0.93406
 C24 C 0.79218 0.57447 0.95812
 C25 C 0.71598 0.62092 1.06464
 C26 C 0.70702 0.60861 1.09023
 C27 C 0.72174 0.56284 1.07123
 C28 C 0.73037 0.57619 1.04580
 N29 N 0.72753 0.60478 1.04308
 H30 H 0.79319 0.59386 1.00017
 H31 H 0.71547 0.60061 0.95806
 H32 H 0.73451 0.57504 0.91564
 H33 H 0.81402 0.56804 0.95875
 H34 H 0.71421 0.64368 1.06206
 H35 H 0.69815 0.62242 1.10683
 H36 H 0.72448 0.54006 1.07280
 H37 H 0.73973 0.56378 1.02841
 C38 C 0.82101 0.67756 1.03649
 C39 C 0.66700 0.67354 0.96869
 C40 C 0.70991 0.57908 1.09414
 C41 C 0.77606 0.56972 0.93348
 C42 C 0.72404 0.31714 0.52072
 H43 H 0.74274 0.30423 0.51871
 C44 C 0.69795 0.30447 0.52787
 H45 H 0.69682 0.28176 0.53140
 C46 C 0.70273 0.36246 0.51889
 H47 H 0.70482 0.38508 0.51524
 C48 C 0.67645 0.35080 0.52614
 H49 H 0.65844 0.36472 0.52805
 N50 N 0.72587 0.34570 0.51651
 C51 C 0.78765 0.31890 0.47852
 H52 H 0.76753 0.31438 0.46900
 C53 C 0.81117 0.30312 0.46959
 H54 H 0.80874 0.28698 0.45297
 C55 C 0.81526 0.34526 0.51147
 H56 H 0.81699 0.36172 0.52773
 C57 C 0.83934 0.33009 0.50310
 H58 H 0.85922 0.33531 0.51303
 Zn59 Zn 0.75944 0.36549 0.50614
 N60 N 0.79021 0.34022 0.49844
 C61 C 0.78971 0.41101 0.53343
 N62 N 0.76881 0.39114 0.53677
 C63 C 0.75525 0.38783 0.56256
 C64 C 0.76275 0.40454 0.58627
 C65 C 0.79778 0.42834 0.55658
 C66 C 0.74014 0.36852 0.45070
 C67 C 0.73132 0.38045 0.42534
 C68 C 0.74421 0.42686 0.44412
 C69 C 0.75293 0.41392 0.46927
 N70 N 0.75090 0.38514 0.47204
 H71 H 0.80072 0.41286 0.51297
 H72 H 0.73909 0.37160 0.56509
 H73 H 0.75194 0.40112 0.60663
 H74 H 0.81482 0.44362 0.55354
 H75 H 0.73726 0.34598 0.45377
 H76 H 0.72248 0.36658 0.40901
 H77 H 0.74559 0.44979 0.44248
 H78 H 0.76053 0.42704 0.48672
 C79 C 0.83767 0.30926 0.48127
 C80 C 0.67375 0.32145 0.53082
 C81 C 0.73303 0.41003 0.42181
 C82 C 0.78446 0.42496 0.58357
 C83 C 0.22060 -0.18400 -0.00569
 H84 H 0.23992 -0.19551 -0.00966
 C85 C 0.19569 -0.19889 0.00160
 H86 H 0.19614 -0.22183 0.00346
 C87 C 0.19623 -0.14024 -0.00306
 H88 H 0.19668 -0.11729 -0.00456
 C89 C 0.17095 -0.15420 0.00362
 H90 H 0.15213 -0.14171 0.00736
 N91 N 0.22045 -0.15509 -0.00734
 C92 C 0.29889 -0.13942 -0.05171
 H93 H 0.29068 -0.12114 -0.06234
 C94 C 0.32444 -0.15070 -0.06137
 H95 H 0.33496 -0.14135 -0.07985
 C96 C 0.29605 -0.17239 -0.01384
 H97 H 0.28534 -0.18004 0.00529
 C98 C 0.32161 -0.18465 -0.02306
 H99 H 0.33014 -0.20207 -0.01118
 Zn100 Zn 0.25189 -0.13109 -0.01573
 N101 N 0.28497 -0.15049 -0.02856
 C102 C 0.28249 -0.09017 0.01571
 N103 N 0.26125 -0.10981 0.01750
 C104 C 0.24847 -0.11603 0.04306
 C105 C 0.25733 -0.10263 0.06828
 C106 C 0.29196 -0.07616 0.04042
 C107 C 0.23428 -0.12104 -0.07047
 C108 C 0.22435 -0.10610 -0.09364
 C109 C 0.22480 -0.06322 -0.06423
 C110 C 0.23546 -0.07902 -0.04177
 N111 N 0.23991 -0.10739 -0.04534
 H112 H 0.29255 -0.08593 -0.00486
 H113 H 0.23199 -0.13209 0.04413
 H114 H 0.24722 -0.10837 0.08845
 H115 H 0.30929 -0.06103 0.03859
 H116 H 0.23762 -0.14374 -0.07247
 H117 H 0.22026 -0.11786 -0.11330
 H118 H 0.22112 -0.04072 -0.06064
 H119 H 0.23955 -0.06875 -0.02135
 C120 C 0.33619 -0.17363 -0.04708
 C121 C 0.17046 -0.18387 0.00642
 C122 C 0.21900 -0.07670 -0.09080
 C123 C 0.27964 -0.08270 0.06724
 C124 C 0.22605 0.15655 0.45889
 H125 H 0.24588 0.15588 0.44697
 C126 C 0.20403 0.17317 0.44914
 H127 H 0.20734 0.18552 0.42992
 C128 C 0.19716 0.13992 0.49731
 H129 H 0.19409 0.12630 0.51556
 C130 C 0.17470 0.15632 0.48844
 H131 H 0.15483 0.15523 0.50031
 N132 N 0.22215 0.13997 0.48236
 C133 C 0.30438 0.11603 0.51455
 H134 H 0.29905 0.09440 0.52015
 C135 C 0.33035 0.12743 0.52251
 H136 H 0.34485 0.11401 0.53359
 C137 C 0.29097 0.16007 0.49530
 H138 H 0.27538 0.17291 0.48523
 C139 C 0.31683 0.17246 0.50304
 H140 H 0.32084 0.19470 0.49859
 Zn141 Zn 0.25035 0.11370 0.49303
 N142 N 0.28534 0.13220 0.50095
 C143 C 0.27556 0.06562 0.46590
 N144 N 0.25588 0.08618 0.46299
 C145 C 0.24153 0.08848 0.43816
 C146 C 0.24842 0.07133 0.41436
 C147 C 0.28300 0.04790 0.44271
 C148 C 0.23774 0.11368 0.55086
 C149 C 0.22803 0.10363 0.57722
 C150 C 0.22085 0.05723 0.55524
 C151 C 0.23060 0.06829 0.52909
 N152 N 0.23841 0.09619 0.52740
 H153 H 0.28614 0.06337 0.48595
 H154 H 0.22528 0.10420 0.43633
 H155 H 0.23752 0.07437 0.39449
 H156 H 0.29954 0.03250 0.44527
 H157 H 0.24425 0.13572 0.54885
 H158 H 0.22724 0.11819 0.59545
 H159 H 0.21409 0.03517 0.55618
 H160 H 0.23138 0.05481 0.51009
 C161 C 0.33690 0.15604 0.51693
 C162 C 0.17773 0.17279 0.46370
 C163 C 0.21906 0.07517 0.57963
 C164 C 0.27006 0.05132 0.41619
 C165 C 0.15862 0.47067 0.23105
 H166 H 0.15612 0.45959 0.25112
 C167 C 0.17179 0.45724 0.20752
 H168 H 0.17968 0.43588 0.20984
 C169 C 0.15005 0.51146 0.20341
 H170 H 0.14099 0.53238 0.20179
 C171 C 0.16330 0.49893 0.17940
 H172 H 0.16434 0.51045 0.15947
 N173 N 0.14749 0.49700 0.22840
 C174 C 0.13151 0.53773 0.31184
 H175 H 0.10876 0.53914 0.31102
 C176 C 0.14541 0.54726 0.33620
 H177 H 0.13318 0.55618 0.35398
 C178 C 0.17484 0.52420 0.28953
 H179 H 0.18609 0.51490 0.27133
 C180 C 0.18976 0.53411 0.31341
 H181 H 0.21253 0.53238 0.31349
 Zn182 Zn 0.12427 0.51127 0.25864
 N183 N 0.14617 0.52583 0.28939
 C184 C 0.10147 0.47387 0.30049
 N185 N 0.10131 0.48029 0.27215
 C186 C 0.08739 0.46319 0.25313
 C187 C 0.07296 0.43869 0.26247
 C188 C 0.08706 0.45003 0.31074
 C189 C 0.10826 0.56849 0.25264
 C190 C 0.09421 0.59131 0.24088
 C191 C 0.06772 0.55793 0.21186
 C192 C 0.08213 0.53567 0.22441
 N193 N 0.10208 0.54125 0.24434
 H194 H 0.11349 0.48655 0.31536
 H195 H 0.08841 0.46786 0.23051
 H196 H 0.06249 0.42506 0.24696
 H197 H 0.08799 0.44541 0.33337
 H198 H 0.12484 0.57278 0.26766
 H199 H 0.09994 0.61276 0.24751
 H200 H 0.05228 0.55303 0.19567
 H201 H 0.07791 0.51401 0.21759
 C202 C 0.17486 0.54530 0.33733
 C203 C 0.17369 0.47114 0.18105
 C204 C 0.07390 0.58624 0.21990
 C205 C 0.07281 0.43183 0.29168
 C206 C -0.16093 0.03111 0.21082
 H207 H -0.16423 0.03974 0.23226
 C208 C -0.17823 0.03954 0.18868
 H209 H -0.19477 0.05470 0.19353
 C210 C -0.13493 0.00128 0.17882
 H211 H -0.11814 -0.01370 0.17498
 C212 C -0.15151 0.00928 0.15599
 H213 H -0.14692 0.00027 0.13491
 N214 N -0.13933 0.01285 0.20542
 C215 C -0.13085 0.00874 0.29468
 H216 H -0.11399 0.02430 0.29615
 C217 C -0.14565 0.00086 0.31957
 H218 H -0.13983 0.01045 0.33988
 C219 C -0.15865 -0.02282 0.26664
 H220 H -0.16334 -0.03215 0.24591
 C221 C -0.17412 -0.03121 0.29099
 H222 H -0.19072 -0.04708 0.28874
 Zn223 Zn -0.11476 0.00467 0.23578
 N224 N -0.13703 -0.00368 0.26899
 C225 C -0.06906 0.03354 0.26108
 N226 N -0.09124 0.03673 0.24343
 C227 C -0.09760 0.06263 0.23279
 C228 C -0.08256 0.08692 0.24137
 C229 C -0.05334 0.05725 0.27009
 C230 C -0.09608 -0.05214 0.23963
 C231 C -0.08118 -0.07638 0.23108
 C232 C -0.05647 -0.04845 0.19527
 C233 C -0.07189 -0.02469 0.20455
 N234 N -0.09185 -0.02712 0.22581
 H235 H -0.06430 0.01267 0.26907
 H236 H -0.11498 0.06476 0.21842
 H237 H -0.08867 0.10745 0.23344
 H238 H -0.03646 0.05434 0.28502
 H239 H -0.11148 -0.05362 0.25694
 H240 H -0.08555 -0.09621 0.24193
 H241 H -0.04136 -0.04625 0.17768
 H242 H -0.06855 -0.00443 0.19421
 C243 C -0.16726 -0.01977 0.31803
 C244 C -0.17320 0.02920 0.16053
 C245 C -0.06148 -0.07492 0.20820
 C246 C -0.06055 0.08452 0.26084
 C247 C 0.32379 0.52453 0.72632
 H248 H 0.32255 0.53397 0.74761
 C249 C 0.30931 0.53681 0.70384
 H250 H 0.29673 0.55555 0.70815
 C251 C 0.34316 0.48979 0.69449
 H252 H 0.35711 0.47211 0.69052
 C253 C 0.32919 0.50135 0.67151
 H254 H 0.33228 0.49192 0.65036
 N255 N 0.34050 0.50156 0.72124
 C256 C 0.36030 0.46019 0.80114
 H257 H 0.38231 0.45669 0.79567
 C258 C 0.34921 0.45033 0.82700
 H259 H 0.36295 0.43902 0.84105
 C260 C 0.31622 0.47963 0.78923
 H261 H 0.30355 0.49115 0.77441
 C262 C 0.30414 0.47007 0.81514
 H263 H 0.28212 0.47428 0.82000
 Zn264 Zn 0.36420 0.48817 0.75029
 N265 N 0.34399 0.47488 0.78304
 C266 C 0.38783 0.52666 0.78988
 N267 N 0.38819 0.51878 0.76171
 C268 C 0.40340 0.53392 0.74193
 C269 C 0.41879 0.55823 0.75032
 C270 C 0.40307 0.55039 0.79918
 C271 C 0.36884 0.43305 0.73002
 C272 C 0.38137 0.40830 0.71939
 C273 C 0.42689 0.43187 0.72196
 C274 C 0.41335 0.45643 0.73239
 N275 N 0.38477 0.45658 0.73586
 H276 H 0.37515 0.51503 0.80529
 H277 H 0.40298 0.52751 0.71955
 H278 H 0.43045 0.57030 0.73431
 H279 H 0.40200 0.55621 0.82173
 H280 H 0.34619 0.43369 0.73344
 H281 H 0.36811 0.38997 0.71465
 H282 H 0.44961 0.43212 0.71900
 H283 H 0.42562 0.47527 0.73765
 C284 C 0.32086 0.45542 0.83454
 C285 C 0.31241 0.52551 0.67586
 C286 C 0.41076 0.40747 0.71507
 C287 C 0.41859 0.56679 0.77935
 C288 C 0.67063 0.97316 0.71566
 H289 H 0.67390 0.96325 0.73609
 C290 C 0.68737 0.96548 0.69178
 H291 H 0.70351 0.94961 0.69411
 C292 C 0.64480 1.00503 0.68768
 H293 H 0.62769 1.01985 0.68592
 C294 C 0.66092 0.99792 0.66330
 H295 H 0.65615 1.00772 0.64313
 N296 N 0.64981 0.99258 0.71319
 C297 C 0.63057 1.01321 0.80264
 H298 H 0.60823 1.00812 0.80260
 C299 C 0.64327 1.02163 0.82809
 H300 H 0.63028 1.02293 0.84745
 C301 C 0.67402 1.01781 0.77695
 H302 H 0.68576 1.01653 0.75684
 C303 C 0.68754 1.02704 0.80187
 H304 H 0.70979 1.03255 0.80057
 Zn305 Zn 0.62550 1.00005 0.74509
 N306 N 0.64602 1.01114 0.77785
 C307 C 0.61771 0.94946 0.77347
 N308 N 0.60559 0.96567 0.75333
 C309 C 0.58287 0.95583 0.73855
 C310 C 0.57076 0.92917 0.74491
 C311 C 0.60668 0.92279 0.78010
 C312 C 0.61852 1.05554 0.73268
 C313 C 0.60599 1.08080 0.72494
 C314 C 0.56050 1.05709 0.72740
 C315 C 0.57405 1.03205 0.73524
 N316 N 0.60269 1.03164 0.73695
 H317 H 0.63654 0.95689 0.78402
 H318 H 0.57443 0.96833 0.72154
 H319 H 0.55263 0.92160 0.73313
 H320 H 0.61684 0.91053 0.79634
 H321 H 0.64121 1.05472 0.73461
 H322 H 0.61936 1.09924 0.72102
 H323 H 0.53778 1.05697 0.72532
 H324 H 0.56169 1.01310 0.73960
 C325 C 0.67215 1.02905 0.82803
 C326 C 0.68233 0.97764 0.66504
 C327 C 0.57666 1.08176 0.72162
 C328 C 0.58288 0.91226 0.76586
 C329 C 0.02413 0.23777 -0.15586
 H330 H 0.03568 0.25777 -0.15527
 C331 C 0.03563 0.21427 -0.17028
 H332 H 0.05600 0.21648 -0.18105
 C333 C -0.01583 0.21040 -0.14117
 H334 H -0.03546 0.20878 -0.12906
 C335 C -0.00523 0.18640 -0.15560
 H336 H -0.01699 0.16653 -0.15456
 N337 N -0.00088 0.23530 -0.14126
 C338 C -0.02888 0.32195 -0.12497
 H339 H -0.02934 0.32195 -0.10177
 C340 C -0.03580 0.34650 -0.13950
 H341 H -0.04178 0.36535 -0.12726
 C342 C -0.02075 0.29707 -0.16895
 H343 H -0.01494 0.27767 -0.18025
 C344 C -0.02815 0.32107 -0.18440
 H345 H -0.02785 0.32003 -0.20762
 Zn346 Zn -0.01166 0.26631 -0.11757
 N347 N -0.02108 0.29806 -0.13977
 C348 C 0.03417 0.30031 -0.10063
 N349 N 0.02015 0.27555 -0.09491
 C350 C 0.03095 0.25623 -0.07673
 C351 C 0.05668 0.26173 -0.06330
 C352 C 0.06004 0.30634 -0.08822
 C353 C -0.06854 0.25530 -0.11082
 C354 C -0.09372 0.24582 -0.09808
 C355 C -0.06872 0.23855 -0.05420
 C356 C -0.04407 0.24877 -0.06775
 N357 N -0.04430 0.25614 -0.09581
 H358 H 0.02612 0.31491 -0.11600
 H359 H 0.02020 0.23606 -0.07353
 H360 H 0.06532 0.24599 -0.04932
 H361 H 0.07105 0.32593 -0.09363
 H362 H -0.06815 0.26136 -0.13311
 H363 H -0.11240 0.24498 -0.11106
 H364 H -0.06766 0.23205 -0.03206
 H365 H -0.02471 0.25005 -0.05599
 C366 C -0.03552 0.34626 -0.16960
 C367 C 0.02118 0.18800 -0.16977
 C368 C -0.09408 0.23637 -0.06952
 C369 C 0.07176 0.28682 -0.06957
 C370 C 0.46301 0.21242 0.17823
 H371 H 0.45238 0.23242 0.18208
 C372 C 0.45370 0.18790 0.19247
 H373 H 0.43595 0.18931 0.20741
 C374 C 0.49810 0.18602 0.15293
 H375 H 0.51490 0.18504 0.13696
 C376 C 0.48952 0.16112 0.16658
 H377 H 0.50020 0.14147 0.16109
 N378 N 0.48469 0.21098 0.15867
 C379 C 0.51892 0.29540 0.14124
 H380 H 0.51921 0.29284 0.11814
 C381 C 0.52927 0.32039 0.15358
 H382 H 0.53762 0.33681 0.13965
 C383 C 0.50736 0.27672 0.18699
 H384 H 0.49879 0.25955 0.19978
 C385 C 0.51760 0.30162 0.20038
 H386 H 0.51689 0.30339 0.22355
 Zn387 Zn 0.49455 0.24289 0.13600
 N388 N 0.50802 0.27431 0.15787
 C389 C 0.45193 0.28083 0.12373
 N390 N 0.46201 0.25470 0.11630
 C391 C 0.44819 0.23763 0.09719
 C392 C 0.42355 0.24713 0.08427
 C393 C 0.42774 0.29109 0.11141
 C394 C 0.54998 0.23101 0.12493
 C395 C 0.57462 0.22391 0.10991
 C396 C 0.54786 0.22063 0.06643
 C397 C 0.52360 0.22834 0.08234
 N398 N 0.52511 0.23296 0.11115
 H399 H 0.46223 0.29379 0.13974
 H400 H 0.45611 0.21660 0.09216
 H401 H 0.41283 0.23341 0.06904
 H402 H 0.42043 0.31200 0.11796
 H403 H 0.55056 0.23483 0.14784
 H404 H 0.59402 0.22221 0.12159
 H405 H 0.54637 0.21655 0.04359
 H406 H 0.50367 0.23030 0.07176
 C407 C 0.52866 0.32390 0.18352
 C408 C 0.46672 0.16167 0.18628
 C409 C 0.57379 0.21832 0.08032
 C410 C 0.41314 0.27432 0.09134
 C411 C 0.96590 0.73743 0.66809
 H412 H 0.95497 0.75752 0.66939
 C413 C 0.95576 0.71434 0.68392
 H414 H 0.93715 0.71702 0.69753
 C415 C 1.00257 0.70932 0.64768
 H416 H 1.02041 0.70720 0.63300
 C417 C 0.99329 0.68574 0.66329
 H418 H 1.00427 0.66578 0.66048
 N419 N 0.98848 0.73438 0.64983
 C420 C 1.01419 0.82194 0.63005
 H421 H 1.01616 0.82043 0.60703
 C422 C 1.02087 0.84761 0.64378
 H423 H 1.02749 0.86559 0.63092
 C424 C 1.00516 0.79990 0.67466
 H425 H 0.99968 0.78112 0.68670
 C426 C 1.01205 0.82516 0.68935
 H427 H 1.01142 0.82556 0.71257
 Zn428 Zn 0.99889 0.76440 0.62461
 N429 N 1.00621 0.79876 0.64546
 C430 C 0.97347 0.78859 0.57613
 N431 N 0.96925 0.77028 0.59819
 C432 C 0.94372 0.75722 0.60241
 C433 C 0.92074 0.76422 0.58577
 C434 C 0.95109 0.79611 0.55885
 C435 C 1.05678 0.75658 0.62004
 C436 C 1.08253 0.74864 0.60748
 C437 C 1.05816 0.73663 0.56384
 C438 C 1.03284 0.74495 0.57723
 N439 N 1.03263 0.75451 0.60490
 H440 H 0.99413 0.79772 0.57202
 H441 H 0.94072 0.74191 0.61918
 H442 H 0.90042 0.75433 0.59033
 H443 H 0.95479 0.81150 0.54211
 H444 H 1.05592 0.76409 0.64209
 H445 H 1.10141 0.75009 0.62013
 H446 H 1.05785 0.72865 0.54195
 H447 H 1.01330 0.74319 0.56575
 C448 C 1.02004 0.84945 0.67383
 C449 C 0.96913 0.68786 0.68114
 C450 C 1.08344 0.73819 0.57910
 C451 C 0.92405 0.78456 0.56421
 C452 C 0.52918 0.69776 0.38345
 H453 H 0.53444 0.70479 0.40487
 C454 C 0.53771 0.67096 0.37375
 H455 H 0.54897 0.65752 0.38817
 C456 C 0.50965 0.70756 0.33841
 H457 H 0.49916 0.72202 0.32452
 C458 C 0.51783 0.68080 0.32777
 H459 H 0.51334 0.67500 0.30576
 N460 N 0.51517 0.71539 0.36597
 C461 C 0.50937 0.80318 0.35212
 H462 H 0.52740 0.80731 0.36541
 C463 C 0.49979 0.82468 0.33455
 H464 H 0.51097 0.84491 0.33450
 C465 C 0.47235 0.77238 0.33739
 H466 H 0.46116 0.75228 0.33935
 C467 C 0.46193 0.79331 0.31962
 H468 H 0.44303 0.78862 0.30771
 Zn469 Zn 0.50554 0.75144 0.38222
 N470 N 0.49527 0.77784 0.35374
 C471 C 0.56257 0.76409 0.38558
 N472 N 0.53792 0.76528 0.40097
 C473 C 0.53698 0.77557 0.42837
 C474 C 0.56167 0.78566 0.44120
 C475 C 0.58768 0.77365 0.39760
 C476 C 0.45054 0.76136 0.40544
 C477 C 0.42623 0.75460 0.42148
 C478 C 0.45269 0.71918 0.44606
 C479 C 0.47644 0.72650 0.42940
 N480 N 0.47473 0.74652 0.40875
 H481 H 0.56264 0.75571 0.36384
 H482 H 0.51709 0.77621 0.44016
 H483 H 0.56055 0.79405 0.46295
 H484 H 0.60699 0.77267 0.38480
 H485 H 0.44967 0.77792 0.38973
 H486 H 0.40692 0.76589 0.41759
 H487 H 0.45428 0.70230 0.46147
 H488 H 0.49592 0.71540 0.43235
 C489 C 0.47517 0.82030 0.31862
 C490 C 0.53210 0.66211 0.34556
 C491 C 0.42688 0.73260 0.44147
 C492 C 0.58746 0.78480 0.42571
 C493 C 0.37286 -0.01762 0.24451
 C494 C 0.11807 1.01522 0.75674
 C495 C 0.62624 0.49246 0.26483
 C496 C 0.87409 0.51342 0.75203
 C497 C 0.24569 0.36484 0.01013
 C498 C 0.74352 0.12589 0.99913
 C499 C 0.25273 0.63657 0.50999
 C500 C 0.75952 0.88403 0.49110
 C501 C 0.00818 0.24907 0.37356
 C502 C 1.00251 0.74864 0.11141
 C503 C 0.49865 0.24200 0.61642
 C504 C 0.50536 0.74256 0.85949
 C505 C 0.43721 -0.11269 0.27885
 N506 N 0.42534 -0.13911 0.27827
 N507 N 0.43802 -0.16089 0.29035
 C508 C 0.46308 -0.15720 0.30367
 N509 N 0.47516 -0.13076 0.30372
 N510 N 0.46251 -0.10896 0.29157
 C511 C 0.42180 -0.08834 0.26782
 N512 N 0.43332 -0.06172 0.26808
 N513 N 0.41838 -0.03949 0.25988
 C514 C 0.39135 -0.04300 0.25105
 N515 N 0.37997 -0.06970 0.25094
 N516 N 0.39490 -0.09190 0.25899
 C517 C 0.93770 0.41914 0.78852
 N518 N 0.94923 0.42116 0.81486
 N519 N 0.95830 0.39805 0.82782
 C520 C 0.95633 0.37201 0.81492
 N521 N 0.94532 0.37006 0.78828
 N522 N 0.93601 0.39318 0.77539
 C523 C 0.92459 0.44414 0.77611
 N524 N 0.90673 0.44119 0.75388
 N525 N 0.89178 0.46323 0.74533
 C526 C 0.89405 0.48913 0.75864
 N527 N 0.91285 0.49218 0.78014
 N528 N 0.92768 0.47014 0.78879
 C529 C 0.06026 1.11411 0.79822
 N530 N 0.03203 1.11418 0.80384
 N531 N 0.01944 1.13775 0.81362
 C532 C 0.03457 1.16218 0.81787
 N533 N 0.06275 1.16205 0.81194
 N534 N 0.07534 1.13849 0.80236
 C535 C 0.07463 1.08822 0.78819
 N536 N 0.10322 1.08757 0.78716
 N537 N 0.11662 1.06444 0.77771
 C538 C 0.10203 1.04100 0.76868
 N539 N 0.07331 1.04159 0.77003
 N540 N 0.05986 1.06474 0.77967
 C541 C 0.56312 0.58391 0.31438
 N542 N 0.54753 0.60059 0.29740
 N543 N 0.53721 0.62519 0.30739
 C544 C 0.54215 0.63408 0.33471
 N545 N 0.55748 0.61715 0.35171
 N546 N 0.56782 0.59261 0.34174
 C547 C 0.57676 0.55818 0.30272
 N548 N 0.59509 0.54364 0.31880
 N549 N 0.60988 0.52219 0.30738
 C550 C 0.60701 0.51445 0.27937
 N551 N 0.58784 0.52842 0.26363
 N552 N 0.57310 0.54993 0.27503
 C553 C 0.56247 0.39918 0.21918
 N554 N 0.55069 0.37908 0.23649
 N555 N 0.53963 0.35522 0.22532
 C556 C 0.54000 0.35059 0.19646
 N557 N 0.55159 0.37091 0.17932
 N558 N 0.56264 0.39465 0.19042
 C559 C 0.57664 0.42458 0.23100
 N560 N 0.59151 0.44206 0.21324
 N561 N 0.60647 0.46382 0.22372
 C562 C 0.60725 0.46904 0.25243
 N563 N 0.59147 0.45208 0.27013
 N564 N 0.57659 0.43017 0.25964
 C565 C 0.05003 0.92393 0.71415
 N566 N 0.04652 0.89958 0.72918
 N567 N 0.03613 0.87612 0.71667
 C568 C 0.02907 0.87606 0.68858
 N569 N 0.03220 0.90060 0.67375
 N570 N 0.04246 0.92407 0.68627
 C571 C 0.06446 0.94877 0.72681
 N572 N 0.06820 0.97294 0.71155
 N573 N 0.08416 0.99426 0.72153
 C574 C 0.09728 0.99214 0.74704
 N575 N 0.09269 0.96826 0.76269
 N576 N 0.07665 0.94699 0.75276
 C577 C 0.93215 0.61451 0.71677
 N578 N 0.95859 0.61365 0.70501
 N579 N 0.97064 0.63708 0.69429
 C580 C 0.95679 0.66229 0.69505
 N581 N 0.93049 0.66311 0.70720
 N582 N 0.91840 0.63969 0.71780
 C583 C 0.91791 0.58849 0.72689
 N584 N 0.89015 0.58907 0.73458
 N585 N 0.87668 0.56544 0.74270
 C586 C 0.89043 0.54026 0.74372
 N587 N 0.91827 0.53968 0.73595
 N588 N 0.93174 0.56335 0.72767
 C589 C 0.43306 0.08503 0.21811
 N590 N 0.42327 0.11043 0.22816
 N591 N 0.43432 0.13481 0.21859
 C592 C 0.45566 0.13474 0.19864
 N593 N 0.46566 0.10926 0.18896
 N594 N 0.45456 0.08490 0.19844
 C595 C 0.41932 0.05821 0.22681
 N596 N 0.42651 0.03317 0.21383
 N597 N 0.41248 0.00921 0.22005
 C598 C 0.39073 0.00930 0.23958
 N599 N 0.38397 0.03439 0.25286
 N600 N 0.39792 0.05834 0.24659
 C601 C 0.28923 0.42546 -0.08651
 N602 N 0.31657 0.42158 -0.09462
 N603 N 0.32644 0.43135 -0.11952
 C604 C 0.30941 0.44531 -0.13751
 N605 N 0.28200 0.44940 -0.12930
 N606 N 0.27207 0.43960 -0.10428
 C607 C 0.27843 0.41261 -0.05987
 N608 N 0.25117 0.41573 -0.05090
 N609 N 0.24122 0.40182 -0.02802
 C610 C 0.25810 0.38416 -0.01328
 N611 N 0.28550 0.38164 -0.02212
 N612 N 0.29545 0.39562 -0.04482
 C613 C 0.79535 0.94712 0.39301
 N614 N 0.81704 0.96616 0.39456
 N615 N 0.82841 0.97724 0.37079
 C616 C 0.81862 0.96965 0.34453
 N617 N 0.79669 0.95084 0.34309
 N618 N 0.78527 0.93981 0.36685
 C619 C 0.78434 0.93298 0.41888
 N620 N 0.76304 0.91357 0.41696
 N621 N 0.75462 0.89884 0.43980
 C622 C 0.76724 0.90275 0.46552
 N623 N 0.78817 0.92271 0.46751
 N624 N 0.79657 0.93750 0.44464
 C625 C 0.78468 0.06220 1.09223
 N626 N 0.77742 0.06984 1.11956
 N627 N 0.79057 0.05872 1.14165
 C628 C 0.81150 0.03944 1.13735
 N629 N 0.81830 0.03146 1.10991
 N630 N 0.80525 0.04268 1.08781
 C631 C 0.77209 0.07649 1.06788
 N632 N 0.78288 0.07270 1.04091
 N633 N 0.77322 0.08765 1.01923
 C634 C 0.75232 0.10695 1.02361
 N635 N 0.74116 0.11019 1.05057
 N636 N 0.75090 0.09534 1.07227
 C637 C 0.28065 0.56788 0.60502
 N638 N 0.27257 0.57570 0.63211
 N639 N 0.28214 0.56193 0.65465
 C640 C 0.30007 0.53974 0.65096
 N641 N 0.30780 0.53178 0.62380
 N642 N 0.29835 0.54559 0.60129
 C643 C 0.27184 0.58427 0.58026
 N644 N 0.28351 0.57922 0.55385
 N645 N 0.27700 0.59531 0.53172
 C646 C 0.25848 0.61708 0.53507
 N647 N 0.24648 0.62171 0.56148
 N648 N 0.25309 0.60572 0.58363
 C649 C 0.21434 0.57503 0.41178
 N650 N 0.18758 0.56451 0.41287
 N651 N 0.17535 0.55468 0.38924
 C652 C 0.18941 0.55482 0.36356
 N653 N 0.21642 0.56488 0.36251
 N654 N 0.22860 0.57499 0.38618
 C655 C 0.22646 0.58827 0.43753
 N656 N 0.24984 0.60515 0.43566
 N657 N 0.25881 0.61966 0.45858
 C658 C 0.24475 0.61786 0.48427
 N659 N 0.22190 0.60017 0.48622
 N660 N 0.21286 0.58581 0.46329
 C661 C 0.70793 0.06094 0.90193
 N662 N 0.68138 0.04987 0.90248
 N663 N 0.67007 0.03921 0.87869
 C664 C 0.68482 0.03903 0.85335
 N665 N 0.71166 0.04967 0.85301
 N666 N 0.72292 0.06058 0.87679
 C667 C 0.71913 0.07516 0.92758
 N668 N 0.74209 0.09259 0.92559
 N669 N 0.75033 0.10796 0.94822
 C670 C 0.73595 0.10655 0.97374
 N671 N 0.71363 0.08819 0.97591
 N672 N 0.70525 0.07299 0.95323
 C673 C 0.72349 0.94693 0.59040
 N674 N 0.70244 0.96613 0.58875
 N675 N 0.68996 0.97648 0.61250
 C676 C 0.69791 0.96797 0.63882
 N677 N 0.71926 0.94904 0.64040
 N678 N 0.73181 0.93873 0.61666
 C679 C 0.73523 0.93325 0.56431
 N680 N 0.75547 0.91323 0.56617
 N681 N 0.76400 0.89856 0.54298
 C682 C 0.75258 0.90320 0.51697
 N683 N 0.73277 0.92377 0.51508
 N684 N 0.72427 0.93850 0.53829
 C685 C 0.20275 0.42769 0.10697
 N686 N 0.19728 0.41357 0.13167
 N687 N 0.18852 0.42748 0.15524
 C688 C 0.18484 0.45609 0.15510
 N689 N 0.19036 0.47024 0.13034
 N690 N 0.19927 0.45633 0.10675
 C691 C 0.21242 0.41196 0.08117
 N692 N 0.22153 0.42571 0.05724
 N693 N 0.23132 0.41109 0.03443
 C694 C 0.23210 0.38214 0.03458
 N695 N 0.22266 0.36855 0.05853
 N696 N 0.21302 0.38313 0.08130
 C697 C -0.08880 0.27464 0.44361
 N698 N -0.08712 0.29451 0.46497
 N699 N -0.11044 0.30476 0.47760
 C700 C -0.13641 0.29563 0.46934
 N701 N -0.13800 0.27540 0.44826
 N702 N -0.11468 0.26510 0.43566
 C703 C -0.06327 0.26560 0.42761
 N704 N -0.06511 0.24661 0.40549
 N705 N -0.04250 0.24057 0.38913
 C706 C -0.01710 0.25334 0.39409
 N707 N -0.01526 0.27190 0.41669
 N708 N -0.03786 0.27791 0.43309
 C709 C 0.41280 0.79301 0.92127
 N710 N 0.39676 0.77813 0.94049
 N711 N 0.37264 0.78883 0.95106
 C712 C 0.36359 0.81469 0.94262
 N713 N 0.37987 0.82954 0.92362
 N714 N 0.40395 0.81895 0.91318
 C715 C 0.43829 0.78076 0.90771
 N716 N 0.45354 0.79606 0.88829
 N717 N 0.47515 0.78443 0.87387
 C718 C 0.48240 0.75692 0.87808
 N719 N 0.46749 0.74189 0.89817
 N720 N 0.44585 0.75353 0.91265
 C721 C 1.09586 0.77839 0.03848
 N722 N 1.09522 0.80353 0.02463
 N723 N 1.11881 0.81493 0.01356
 C724 C 1.14399 0.80166 0.01580
 N725 N 1.14450 0.77613 0.02905
 N726 N 1.12090 0.76477 0.04028
 C727 C 1.07064 0.76797 0.05414
 N728 N 1.07279 0.74669 0.07323
 N729 N 1.05099 0.73978 0.09032
 C730 C 1.02607 0.75380 0.08905
 N731 N 1.02372 0.77452 0.06922
 N732 N 1.04560 0.78154 0.05221
 C733 C 0.59539 0.28731 0.55758
 N734 N 0.59970 0.31587 0.55662
 N735 N 0.62442 0.32656 0.54767
 C736 C 0.64596 0.30917 0.53953
 N737 N 0.64158 0.28054 0.54033
 N738 N 0.61675 0.26981 0.54918
 C739 C 0.56888 0.27582 0.56979
 N740 N 0.56332 0.24741 0.56938
 N741 N 0.54054 0.23698 0.58302
 C742 C 0.52265 0.25448 0.59797
 N743 N 0.52780 0.28300 0.59740
 N744 N 0.55043 0.29344 0.58360
 C745 C 0.41182 0.19168 0.54895
 N746 N 0.40611 0.16347 0.55135
 N747 N 0.38267 0.15218 0.54055
 C748 C 0.36388 0.16862 0.52699
 N749 N 0.36981 0.19685 0.52423
 N750 N 0.39332 0.20818 0.53504
 C751 C 0.43626 0.20426 0.56357
 N752 N 0.44211 0.23257 0.56221
 N753 N 0.46247 0.24419 0.57804
 C754 C 0.47752 0.22804 0.59612
 N755 N 0.47222 0.19955 0.59654
 N756 N 0.45200 0.18792 0.58066
 C757 C 0.89707 0.71416 0.06431
 N758 N 0.87564 0.70829 0.08308
 N759 N 0.85139 0.69735 0.07399
 C760 C 0.84743 0.69184 0.04571
 N761 N 0.86875 0.69813 0.02674
 N762 N 0.89317 0.70907 0.03588
 C763 C 0.92421 0.72441 0.07541
 N764 N 0.94693 0.72962 0.05789
 N765 N 0.97163 0.73769 0.06886
 C766 C 0.97449 0.74084 0.09775
 N767 N 0.95166 0.73554 0.11503
 N768 N 0.92709 0.72757 0.10412
 C769 C 0.59806 0.70469 0.92453
 N770 N 0.62244 0.69789 0.91035
 N771 N 0.64456 0.68870 0.92452
 C772 C 0.64310 0.68571 0.95341
 N773 N 0.61870 0.69260 0.96762
 N774 N 0.59663 0.70210 0.95347
 C775 C 0.57361 0.71396 0.90847
 N776 N 0.55170 0.72763 0.92171
 N777 N 0.52995 0.73649 0.90663
 C778 C 0.52915 0.73169 0.87780
 N779 N 0.55092 0.71753 0.86483
 N780 N 0.57274 0.70899 0.87981
 C781 C 0.10686 0.21154 0.42925
 N782 N 0.10515 0.19921 0.45535
 N783 N 0.12782 0.18754 0.46658
 C784 C 0.15311 0.18777 0.45221
 N785 N 0.15481 0.20046 0.42625
 N786 N 0.13215 0.21209 0.41499
 C787 C 0.08155 0.22267 0.41586
 N788 N 0.08308 0.23248 0.38868
 N789 N 0.06001 0.24123 0.37581
 C790 C 0.03444 0.24071 0.38962
 N791 N 0.03293 0.23086 0.41689
 N792 N 0.05605 0.22203 0.42976
 C793 C 0.54154 0.15486 0.68678
 N794 N 0.56979 0.15272 0.68994
 N795 N 0.58066 0.12983 0.70172
 C796 C 0.56381 0.10799 0.71069
 N797 N 0.53542 0.11027 0.70782
 N798 N 0.52448 0.13331 0.69610
 C799 C 0.53026 0.17895 0.67112
 N800 N 0.50204 0.18295 0.66920
 N801 N 0.49218 0.20339 0.65273
 C802 C 0.51011 0.22025 0.63712
 N803 N 0.53834 0.21673 0.63996
 N804 N 0.54819 0.19651 0.65657
 C805 C 1.03884 0.65503 0.17730
 N806 N 1.05399 0.65945 0.20135
 N807 N 1.06466 0.63755 0.21515
 C808 C 1.06054 0.61039 0.20552
 N809 N 1.04508 0.60603 0.18162
 N810 N 1.03447 0.62792 0.16776
 C811 C 1.02840 0.67919 0.16114
 N812 N 1.01601 0.67476 0.13549
 N813 N 1.00752 0.69664 0.12021
 C814 C 1.01078 0.72386 0.13008
 N815 N 1.02341 0.72825 0.15571
 N816 N 1.03200 0.70633 0.17097
 C817 C 0.97436 0.85030 0.17374
 N818 N 0.98222 0.87614 0.16341
 N819 N 0.97143 0.89995 0.17480
 C820 C 0.95236 0.89887 0.19697
 N821 N 0.94488 0.87299 0.20751
 N822 N 0.95561 0.84919 0.19611
 C823 C 0.98407 0.82392 0.15952
 N824 N 0.97316 0.79836 0.16755
 N825 N 0.97981 0.77468 0.15299
 C826 C 0.99769 0.77550 0.12979
 N827 N 1.00907 0.80111 0.12224
 N828 N 1.00236 0.82483 0.13675
 C829 C 0.44785 0.33403 0.67915
 N830 N 0.41949 0.33753 0.67897
 N831 N 0.40783 0.36069 0.69068
 C832 C 0.42404 0.38143 0.70287
 N833 N 0.45247 0.37789 0.70310
 N834 N 0.46415 0.35460 0.69149
 C835 C 0.46060 0.30912 0.66479
 N836 N 0.48860 0.30394 0.66676
 N837 N 0.50030 0.28233 0.65215
 C838 C 0.48455 0.26528 0.63468
 N839 N 0.45637 0.27012 0.63345
 N840 N 0.44465 0.29158 0.64819
 C841 C 0.45802 0.64172 0.80932
 N842 N 0.44786 0.62184 0.82770
 N843 N 0.43584 0.59801 0.81797
 C844 C 0.43348 0.59291 0.78941
 N845 N 0.44392 0.61271 0.77087
 N846 N 0.45598 0.63672 0.78064
 C847 C 0.47039 0.66812 0.82113
 N848 N 0.48044 0.68943 0.80419
 N849 N 0.49130 0.71319 0.81589
 C850 C 0.49232 0.71652 0.84492
 N851 N 0.48230 0.69505 0.86158
 N852 N 0.47154 0.67146 0.84997
 C853 C -0.02453 0.15708 0.29966
 N854 N -0.01358 0.13092 0.30374
 N855 N -0.02446 0.10800 0.29073
 C856 C -0.04669 0.11031 0.27305
 N857 N -0.05731 0.13661 0.26860
 N858 N -0.04648 0.15955 0.28168
 C859 C -0.01429 0.18172 0.31637
 N860 N -0.02716 0.20734 0.31510
 N861 N -0.01946 0.22884 0.33234
 C862 C 0.00146 0.22559 0.35154
 N863 N 0.01448 0.19996 0.35240
 N864 N 0.00680 0.17852 0.33520
 C865 C 0.03867 0.35551 0.32358
 N866 N 0.04604 0.37720 0.34151
 N867 N 0.05620 0.40155 0.33121
 C868 C 0.05939 0.40534 0.30252
 N869 N 0.05161 0.38374 0.28447
 N870 N 0.04145 0.35924 0.29481
 C871 C 0.02931 0.32822 0.33570
 N872 N 0.02293 0.30535 0.31875
 N873 N 0.01579 0.28043 0.33039
 C874 C 0.01472 0.27747 0.35941
 N875 N 0.02118 0.30046 0.37614
 N876 N 0.02825 0.32527 0.36456
 C877 C 0.55057 0.83304 0.79192
 N878 N 0.53396 0.85108 0.77744
 N879 N 0.54430 0.87596 0.76818
 C880 C 0.57152 0.88374 0.77328
 N881 N 0.58808 0.86534 0.78720
 N882 N 0.57785 0.84058 0.79633
 C883 C 0.53917 0.80733 0.80576
 N884 N 0.55586 0.79308 0.82372
 N885 N 0.54546 0.77198 0.83948
 C886 C 0.51790 0.76388 0.83792
 N887 N 0.50132 0.77760 0.81913
 N888 N 0.51172 0.79902 0.80345
 C889 C 0.68312 0.54314 0.16912
 N890 N 0.69507 0.52685 0.14794
 N891 N 0.70407 0.53855 0.12346
 C892 C 0.70143 0.56700 0.11913
 N893 N 0.68968 0.58313 0.14063
 N894 N 0.68065 0.57148 0.16500
 C895 C 0.67107 0.53040 0.19526
 N896 N 0.65546 0.54657 0.21383
 N897 N 0.64216 0.53488 0.23620
 C898 C 0.64385 0.50649 0.24099
 N899 N 0.66045 0.49051 0.22296
 N900 N 0.67366 0.50220 0.20042
 C901 C 0.18171 1.04772 0.65690
 N902 N 0.18971 1.02839 0.63641
 N903 N 0.20192 1.03694 0.61192
 C904 C 0.20669 1.06509 0.60712
 N905 N 0.19890 1.08424 0.62782
 N906 N 0.18659 1.07575 0.65215
 C907 C 0.16661 1.03905 0.68319
 N908 N 0.15379 1.05903 0.70000
 N909 N 0.13892 1.05161 0.72324
 C910 C 0.13639 1.02389 0.73090
 N911 N 0.14958 1.00387 0.71414
 N912 N 0.16432 1.01129 0.69067
 C913 C 0.18360 0.96570 0.84370
 N914 N 0.18813 0.97909 0.86922
 N915 N 0.20023 0.96545 0.89049
 C916 C 0.20796 0.93774 0.88727
 N917 N 0.20354 0.92460 0.86151
 N918 N 0.19171 0.93828 0.84017
 C919 C 0.16861 0.97986 0.82084
 N920 N 0.16788 0.96809 0.79411
 N921 N 0.15263 0.97975 0.77382
 C922 C 0.13722 1.00349 0.77952
 N923 N 0.13825 1.01535 0.80629
 N924 N 0.15370 1.00383 0.82652
 C925 C 0.69665 0.44593 0.34966
 N926 N 0.70925 0.46290 0.36959
 N927 N 0.72145 0.45159 0.39222
 C928 C 0.72149 0.42291 0.39575
 N929 N 0.70923 0.40607 0.37550
 N930 N 0.69703 0.41732 0.35298
 C931 C 0.68070 0.45799 0.32617
 N932 N 0.66448 0.44066 0.30965
 N933 N 0.64787 0.45139 0.29000
 C934 C 0.64666 0.47996 0.28605
 N935 N 0.66376 0.49722 0.30193
 N936 N 0.68029 0.48647 0.32177
 C937 C 0.81429 0.46938 0.65594
 N938 N 0.79521 0.44780 0.65889
 N939 N 0.78527 0.43417 0.63588
 C940 C 0.79410 0.44144 0.60901
 N941 N 0.81299 0.46325 0.60613
 N942 N 0.82286 0.47695 0.62912
 C943 C 0.82712 0.48288 0.68125
 N944 N 0.84615 0.50443 0.67802
 N945 N 0.85987 0.51495 0.70051
 C946 C 0.85512 0.50446 0.72724
 N947 N 0.83574 0.48307 0.73044
 N948 N 0.82195 0.47258 0.70792
 C949 C 0.31415 -0.04979 0.14318
 N950 N 0.29333 -0.06985 0.14414
 N951 N 0.28195 -0.07980 0.12006
 C952 C 0.29097 -0.07016 0.09406
 N953 N 0.31165 -0.04988 0.09320
 N954 N 0.32299 -0.03987 0.11729
 C955 C 0.32798 -0.04016 0.16955
 N956 N 0.34864 -0.01994 0.16858
 N957 N 0.36235 -0.01238 0.19219
 C958 C 0.35605 -0.02477 0.21775
 N959 N 0.33510 -0.04481 0.21866
 N960 N 0.32134 -0.05233 0.19506
 C961 C 0.30478 0.01236 0.34222
 N962 N 0.28386 0.03167 0.34019
 N963 N 0.27204 0.04321 0.36374
 C964 C 0.28070 0.03597 0.39022
 N965 N 0.30128 0.01624 0.39216
 N966 N 0.31307 0.00466 0.36864
 C967 C 0.32015 0.00210 0.31649
 N968 N 0.34226 -0.01570 0.31901
 N969 N 0.35816 -0.02279 0.29618
 C970 C 0.35259 -0.01243 0.26985
 N971 N 0.33018 0.00514 0.26734
 N972 N 0.31426 0.01224 0.29021
 C973 C 0.81490 0.54121 0.85667
 N974 N 0.78643 0.54411 0.85845
 N975 N 0.77393 0.55248 0.88303
 C976 C 0.78939 0.55808 0.90677
 N977 N 0.81779 0.55477 0.90493
 N978 N 0.83028 0.54653 0.88040
 C979 C 0.82938 0.53361 0.82947
 N980 N 0.85793 0.53495 0.82776
 N981 N 0.87158 0.52861 0.80335
 C982 C 0.85737 0.52038 0.77955
 N983 N 0.82864 0.51929 0.78118
 N984 N 0.81490 0.52582 0.80568
 C985 C 0.15862 0.70464 0.54426
 N986 N 0.13421 0.70252 0.52963
 N987 N 0.11051 0.71384 0.54032
 C988 C 0.11025 0.72763 0.56615
 N989 N 0.13482 0.73007 0.58056
 N990 N 0.15855 0.71879 0.56984
 C991 C 0.18389 0.68961 0.53378
 N992 N 0.20829 0.69097 0.54851
 N993 N 0.23024 0.67499 0.54047
 C994 C 0.22852 0.65675 0.51760
 N995 N 0.20431 0.65621 0.50243
 N996 N 0.18245 0.67224 0.51037
 C997 C 0.64733 0.18811 1.03911
 N998 N 0.64864 0.20237 1.06455
 N999 N 0.62534 0.21261 1.07713
 C1000 C 0.59978 0.20909 1.06480
 N1001 N 0.59856 0.19529 1.03902
 N1002 N 0.62190 0.18492 1.02645
 C1003 C 0.67262 0.17429 1.02695
 N1004 N 0.67077 0.15650 1.00388
 N1005 N 0.69314 0.14179 0.99466
 C1006 C 0.71824 0.14410 1.00822
 N1007 N 0.72020 0.16264 1.03079
 N1008 N 0.69782 0.17730 1.04006
 C1009 C 0.83559 0.19756 0.96411
 N1010 N 0.85957 0.19958 0.97944
 N1011 N 0.88236 0.21293 0.96880
 C1012 C 0.88224 0.22457 0.94225
 N1013 N 0.85794 0.22281 0.92724
 N1014 N 0.83511 0.20966 0.93793
 C1015 C 0.81124 0.18083 0.97460
 N1016 N 0.81363 0.16364 0.99750
 N1017 N 0.79228 0.14666 1.00553
 C1018 C 0.76769 0.14613 0.99096
 N1019 N 0.76514 0.16397 0.96851
 N1020 N 0.78656 0.18082 0.96037
 C1021 C 0.35205 0.69902 0.47762
 N1022 N 0.35116 0.71926 0.45723
 N1023 N 0.37493 0.73065 0.44649
 C1024 C 0.40051 0.72221 0.45565
 N1025 N 0.40130 0.70223 0.47636
 N1026 N 0.37755 0.69090 0.48717
 C1027 C 0.32609 0.68456 0.48757
 N1028 N 0.32709 0.66439 0.50800
 N1029 N 0.30397 0.64972 0.51555
 C1030 C 0.27891 0.65447 0.50285
 N1031 N 0.27792 0.67498 0.48265
 N1032 N 0.30104 0.68972 0.47515
 C1033 C 0.66203 0.81959 0.45921
 N1034 N 0.63688 0.82349 0.47315
 N1035 N 0.61326 0.81195 0.46289
 C1036 C 0.61385 0.79618 0.43821
 N1037 N 0.63912 0.79207 0.42451
 N1038 N 0.66274 0.80353 0.43479
 C1039 C 0.68765 0.83421 0.46912
 N1040 N 0.71267 0.83067 0.45486
 N1041 N 0.73540 0.84577 0.46233
 C1042 C 0.73396 0.86522 0.48421
 N1043 N 0.70899 0.86816 0.49886
 N1044 N 0.68630 0.85301 0.49146
 C1045 C 0.15173 0.30617 -0.03740
 N1046 N 0.13300 0.29046 -0.02160
 N1047 N 0.10773 0.28353 -0.03198
 C1048 C 0.10021 0.29246 -0.05831
 N1049 N 0.11912 0.30785 -0.07409
 N1050 N 0.14436 0.31450 -0.06388
 C1051 C 0.17835 0.31684 -0.02550
 N1052 N 0.19659 0.33161 -0.04257
 N1053 N 0.21862 0.34533 -0.03155
 C1054 C 0.22333 0.34511 -0.00291
 N1055 N 0.20573 0.32915 0.01401
 N1056 N 0.18360 0.31535 0.00295
 C1057 C 0.34010 0.30831 0.05625
 N1058 N 0.34698 0.28074 0.05056
 N1059 N 0.37022 0.26968 0.06150
 C1060 C 0.38733 0.28582 0.07850
 N1061 N 0.38026 0.31330 0.08398
 N1062 N 0.35722 0.32429 0.07309
 C1063 C 0.31503 0.32162 0.04447
 N1064 N 0.31083 0.34972 0.04969
 N1065 N 0.28875 0.36278 0.03914
 C1066 C 0.26966 0.34832 0.02304
 N1067 N 0.27376 0.32004 0.01776
 N1068 N 0.29606 0.30690 0.02834
 C1069 C 0.85339 0.81846 0.52480
 N1070 N 0.87988 0.82571 0.51571
 N1071 N 0.90234 0.81426 0.52757
 C1072 C 0.89920 0.79508 0.54895
 N1073 N 0.87263 0.78750 0.55763
 N1074 N 0.85018 0.79898 0.54583
 C1075 C 0.82879 0.83330 0.51395
 N1076 N 0.80271 0.82871 0.52572
 N1077 N 0.78083 0.84411 0.51784
 C1078 C 0.78414 0.86475 0.49789
 N1079 N 0.81020 0.86884 0.48572
 N1080 N 0.83208 0.85348 0.49363
   
