data_POSCAR
  _audit_creation_date              2014-09-24
  _audit_creation_method            'ToBaCCo'
  _symmetry_space_group_name_H-M    'P1'
  _symmetry_Int_Tables_number       1
  _symmetry_cell_setting            triclinic
  loop_
  _symmetry_equiv_pos_as_xyz
 x,y,z
_cell_length_a 49.2693
_cell_length_b 49.2820
_cell_length_c 49.2254
_cell_angle_alpha 89.899500
_cell_angle_beta 89.892400
_cell_angle_gamma 90.035900
loop_
  _atom_site_label
  _atom_site_type_symbol
  _atom_site_fract_x
  _atom_site_fract_y
  _atom_site_fract_z
C1 C 0.16886 0.16792 0.20259
 C2 C 0.19225 0.15652 0.19068
 C3 C 0.20422 0.16802 0.16730
 C4 C 0.19228 0.19135 0.15585
 C5 C 0.16897 0.20310 0.16733
 C6 C 0.15744 0.19124 0.19062
 H7 H 0.20123 0.13859 0.19969
 H8 H 0.20116 0.20052 0.13790
 H9 H 0.13948 0.20032 0.19946
 C10 C -0.16843 0.83166 0.20400
 C11 C -0.19175 0.84311 0.19204
 C12 C -0.20355 0.83164 0.16875
 C13 C -0.19174 0.80836 0.15731
 C14 C -0.16850 0.79651 0.16879
 C15 C -0.15702 0.80830 0.19208
 H16 H -0.20086 0.86104 0.20087
 H17 H -0.20072 0.79939 0.13938
 H18 H -0.13911 0.79917 0.20094
 C19 C -0.16846 0.16859 -0.20520
 C20 C -0.19182 0.15711 -0.19322
 C21 C -0.20376 0.16854 -0.16984
 C22 C -0.19184 0.19187 -0.15846
 C23 C -0.16855 0.20370 -0.16999
 C24 C -0.15705 0.19192 -0.19329
 H25 H -0.20080 0.13918 -0.20218
 H26 H -0.20070 0.20097 -0.14051
 H27 H -0.13911 0.20106 -0.20218
 C28 C 0.16949 0.83254 -0.20397
 C29 C 0.19280 0.84402 -0.19221
 C30 C 0.20473 0.83255 -0.16885
 C31 C 0.19276 0.80920 -0.15736
 C32 C 0.16946 0.79742 -0.16881
 C33 C 0.15801 0.80927 -0.19209
 H34 H 0.20166 0.86195 -0.20139
 H35 H 0.20160 0.80005 -0.13943
 H36 H 0.14007 0.80030 -0.20104
 C37 C 0.16847 1.16864 0.79549
 C38 C 0.19176 1.15717 0.80730
 C39 C 0.20358 1.16865 0.83057
 C40 C 0.19175 1.19191 0.84206
 C41 C 0.16846 1.20372 0.83060
 C42 C 0.15699 1.19190 0.80732
 H43 H 0.20076 1.13927 0.79830
 H44 H 0.20073 1.20089 0.85997
 H45 H 0.13906 1.20088 0.79835
 C46 C 0.83258 0.83157 0.79579
 C47 C 0.80926 0.84299 0.80777
 C48 C 0.79743 0.83149 0.83108
 C49 C 0.80919 0.80820 0.84258
 C50 C 0.83252 0.79626 0.83112
 C51 C 0.84400 0.80820 0.80772
 H52 H 0.80016 0.86093 0.79892
 H53 H 0.80004 0.79934 0.86054
 H54 H 0.86193 0.79922 0.79870
 C55 C 0.16744 0.83214 1.20304
 C56 C 0.19080 0.84359 1.19106
 C57 C 0.20265 0.83210 1.16777
 C58 C 0.19085 0.80882 1.15634
 C59 C 0.16756 0.79699 1.16785
 C60 C 0.15602 0.80879 1.19114
 H61 H 0.19991 0.86152 1.19988
 H62 H 0.19987 0.79984 1.13841
 H63 H 0.13808 0.79965 1.20003
 C64 C 0.83212 1.16850 1.20306
 C65 C 0.84359 1.19187 1.19111
 C66 C 0.83216 1.20382 1.16774
 C67 C 0.80885 1.19188 1.15633
 C68 C 0.79703 1.16858 1.16784
 C69 C 0.80881 1.15708 1.19113
 H70 H 0.86151 1.20086 1.20009
 H71 H 0.79974 1.20074 1.13839
 H72 H 0.79967 1.13913 1.19999
 N73 N 0.47176 0.95234 0.96996
 N74 N 0.45105 0.93567 0.96663
 N75 N 0.52898 0.97113 0.95114
 N76 N 0.54973 0.96779 0.93448
 N77 N 0.52889 0.95229 0.97004
 N78 N 0.54958 0.93560 0.96677
 N79 N 0.47185 0.97118 0.95106
 N80 N 0.45119 0.96786 0.93435
 C81 C 0.43846 0.94562 0.94433
 C82 C 0.56234 0.94553 0.94450
 N83 N 0.52904 1.04843 0.96987
 N84 N 0.54975 1.06511 0.96650
 N85 N 0.47194 1.02962 0.95097
 N86 N 0.45127 1.03294 0.93427
 N87 N 0.47191 1.04846 0.96980
 N88 N 0.45122 1.06513 0.96644
 N89 N 0.52907 1.02958 0.95104
 N90 N 0.54980 1.03292 0.93433
 Mn91 Mn 0.50046 1.00038 0.95072
 C92 C 0.56247 1.05517 0.94425
 C93 C 0.43859 1.05518 0.94419
 N94 N 0.52872 0.95230 1.02855
 N95 N 0.54939 0.93560 1.03195
 N96 N 0.47156 0.97118 1.04730
 N97 N 0.45079 0.96787 1.06396
 N98 N 0.47160 0.95234 1.02847
 N99 N 0.45086 0.93568 1.03179
 N100 N 0.52868 0.97114 1.04738
 N101 N 0.54932 0.96779 1.06411
 Mn102 Mn 0.50024 0.95199 0.99925
 C103 C 0.56200 0.94554 1.05422
 C104 C 0.43812 0.94564 1.05402
 N105 N 0.47170 1.04847 1.02832
 N106 N 0.45101 1.06516 1.03161
 N107 N 0.52875 1.02958 1.04728
 N108 N 0.54941 1.03288 1.06399
 N109 N 0.52884 1.04842 1.02838
 N110 N 0.54956 1.06508 1.03171
 N111 N 0.47162 1.02962 1.04721
 N112 N 0.45088 1.03296 1.06388
 Mn113 Mn 0.50037 1.04878 0.99909
 Mn114 Mn 0.50015 1.00038 1.04762
 Cl115 Cl 0.50031 1.00038 0.99917
 C116 C 0.43826 1.05521 1.05388
 C117 C 0.56215 1.05511 1.05401
 N118 N -0.04834 0.47140 0.02850
 N119 N -0.06501 0.45067 0.03181
 N120 N -0.02953 0.52845 0.04749
 N121 N -0.03287 0.54908 0.06424
 N122 N -0.04836 0.52853 0.02864
 N123 N -0.06503 0.54921 0.03204
 N124 N -0.02951 0.47135 0.04734
 N125 N -0.03284 0.45059 0.06400
 C126 C -0.05507 0.43793 0.05404
 C127 C -0.05510 0.56179 0.05434
 N128 N 0.04779 0.52860 0.02858
 N129 N 0.06443 0.54932 0.03193
 N130 N 0.02895 0.47138 0.04731
 N131 N 0.03230 0.45063 0.06396
 N132 N 0.04782 0.47150 0.02843
 N133 N 0.06453 0.45083 0.03170
 N134 N 0.02892 0.52850 0.04746
 N135 N 0.03220 0.54915 0.06418
 Mn136 Mn -0.00029 0.49992 0.04773
 C137 C 0.05444 0.56190 0.05422
 C138 C 0.05458 0.43804 0.05395
 N139 N -0.04828 0.52878 -0.02989
 N140 N -0.06495 0.54948 -0.03318
 N141 N -0.02939 0.47175 -0.04890
 N142 N -0.03269 0.45113 -0.06565
 N143 N -0.04827 0.47165 -0.03003
 N144 N -0.06494 0.45096 -0.03342
 N145 N -0.02940 0.52886 -0.04875
 N146 N -0.03270 0.54962 -0.06540
 Mn147 Mn -0.04864 0.50009 -0.00069
 C148 C -0.05496 0.56224 -0.05542
 C149 C -0.05495 0.43839 -0.05572
 N150 N 0.04789 0.47176 -0.03006
 N151 N 0.06456 0.45108 -0.03343
 N152 N 0.02906 0.52894 -0.04877
 N153 N 0.03244 0.54970 -0.06543
 N154 N 0.04787 0.52886 -0.02991
 N155 N 0.06458 0.54956 -0.03320
 N156 N 0.02907 0.47182 -0.04892
 N157 N 0.03242 0.45117 -0.06564
 Mn158 Mn 0.04817 0.50018 -0.00074
 Mn159 Mn -0.00016 0.50034 -0.04917
 Cl160 Cl -0.00024 0.50013 -0.00072
 C161 C 0.05465 0.43848 -0.05571
 C162 C 0.05469 0.56232 -0.05544
 N163 N 0.95165 -0.02906 0.47069
 N164 N 0.93494 -0.03245 0.45004
 N165 N 0.97061 -0.04779 0.52787
 N166 N 0.96733 -0.06445 0.54864
 N167 N 0.95175 -0.02897 0.52788
 N168 N 0.93511 -0.03231 0.54868
 N169 N 0.97050 -0.04789 0.47070
 N170 N 0.96714 -0.06461 0.45005
 C171 C 0.94487 -0.05471 0.43740
 C172 C 0.94510 -0.05453 0.56138
 N173 N 1.04790 -0.02888 0.52753
 N174 N 1.06464 -0.03215 0.54819
 N175 N 1.02896 -0.04784 0.47050
 N176 N 1.03224 -0.06455 0.44982
 N177 N 1.04780 -0.02899 0.47036
 N178 N 1.06444 -0.03233 0.44959
 N179 N 1.02907 -0.04774 0.52768
 N180 N 1.03246 -0.06437 0.54845
 Mn181 Mn 0.99978 -0.04814 0.49919
 C182 C 1.05474 -0.05438 0.56100
 C183 C 1.05446 -0.05460 0.43702
 N184 N 0.95174 0.02949 0.52768
 N185 N 0.93507 0.03286 0.54843
 N186 N 0.97050 0.04825 0.47038
 N187 N 0.96715 0.06490 0.44962
 N188 N 0.95165 0.02940 0.47049
 N189 N 0.93494 0.03270 0.44981
 N190 N 0.97058 0.04835 0.52755
 N191 N 0.96727 0.06507 0.54821
 Mn192 Mn 0.95136 0.00021 0.49919
 C193 C 0.94503 0.05514 0.56100
 C194 C 0.94489 0.05493 0.43703
 N195 N 1.04780 0.02944 0.47015
 N196 N 1.06449 0.03276 0.44940
 N197 N 1.02905 0.04838 0.52733
 N198 N 1.03240 0.06507 0.54800
 N199 N 1.04789 0.02955 0.52732
 N200 N 1.06459 0.03290 0.54798
 N201 N 1.02896 0.04828 0.47014
 N202 N 1.03231 0.06495 0.44937
 Mn203 Mn 1.04817 0.00028 0.49884
 Mn204 Mn 0.99977 0.04865 0.49885
 Cl205 Cl 0.99977 0.00025 0.49902
 C206 C 1.05456 0.05499 0.43667
 C207 C 1.05466 0.05514 0.56064
 C208 C 1.13462 0.13402 0.27146
 N209 N 1.12358 0.15642 0.25986
 N210 N 1.13461 0.16731 0.23765
 C211 C 1.15714 0.15629 0.22607
 N212 N 1.16809 0.13381 0.23780
 N213 N 1.15707 0.12290 0.26001
 C214 C 1.12253 0.12208 0.29602
 N215 N 1.13361 0.09971 0.30769
 N216 N 1.12270 0.08896 0.33004
 C217 C 1.10030 0.10019 0.34154
 N218 N 1.08921 0.12255 0.32986
 N219 N 1.10012 0.13330 0.30751
 C220 C 1.08835 0.08840 0.36624
 N221 N 1.06600 0.09967 0.37781
 N222 N 1.05521 0.08902 0.40027
 C223 C 1.06639 0.06672 0.41196
 N224 N 1.08871 0.05543 0.40041
 N225 N 1.09950 0.06608 0.37795
 C226 C 0.86547 -0.13438 0.27274
 N227 N 0.84308 -0.12328 0.26122
 N228 N 0.83218 -0.13422 0.23904
 C229 C 0.84318 -0.15672 0.22744
 N230 N 0.86565 -0.16773 0.23909
 N231 N 0.87657 -0.15680 0.26127
 C232 C 0.87744 -0.12238 0.29725
 N233 N 0.89981 -0.13353 0.30883
 N234 N 0.91061 -0.12269 0.33112
 C235 C 0.89943 -0.10031 0.34264
 N236 N 0.87706 -0.08916 0.33106
 N237 N 0.86627 -0.09999 0.30877
 C238 C 0.91128 -0.08842 0.36726
 N239 N 0.90005 -0.06608 0.37883
 N240 N 0.91076 -0.05533 0.40120
 C241 C 0.93308 -0.06654 0.41280
 N242 N 0.94433 -0.08885 0.40125
 N243 N 0.93361 -0.09960 0.37888
 C244 C 0.86559 0.13470 0.72597
 N245 N 0.87667 0.15713 0.73744
 N246 N 0.86571 0.16802 0.75964
 C247 C 0.84320 0.15699 0.77133
 N248 N 0.83222 0.13449 0.75972
 N249 N 0.84317 0.12358 0.73752
 C250 C 0.87759 0.12273 0.70142
 N251 N 0.86643 0.10033 0.68992
 N252 N 0.87725 0.08951 0.66760
 C253 C 0.89962 0.10070 0.65596
 N254 N 0.91079 0.12309 0.66746
 N255 N 0.89997 0.13391 0.68978
 C256 C 0.91148 0.08882 0.63129
 N257 N 0.93381 0.10004 0.61958
 N258 N 0.94451 0.08930 0.59717
 C259 C 0.93326 0.06696 0.58566
 N260 N 0.91096 0.05572 0.59736
 N261 N 0.90025 0.06646 0.61977
 C262 C 1.13480 -0.13309 0.72601
 N263 N 1.12372 -0.15549 0.73766
 N264 N 1.13471 -0.16634 0.75987
 C265 C 1.15721 -0.15525 0.77133
 N266 N 1.16822 -0.13280 0.75960
 N267 N 1.15724 -0.12193 0.73739
 C268 C 1.12273 -0.12120 0.70146
 N269 N 1.13384 -0.09884 0.68972
 N270 N 1.12294 -0.08813 0.66739
 C271 C 1.10054 -0.09939 0.65598
 N272 N 1.08943 -0.12174 0.66773
 N273 N 1.10033 -0.13245 0.69006
 C274 C 1.08859 -0.08765 0.63131
 N275 N 1.06623 -0.09896 0.61986
 N276 N 1.05543 -0.08835 0.59744
 C277 C 1.06661 -0.06606 0.58566
 N278 N 1.08894 -0.05473 0.59710
 N279 N 1.09974 -0.06534 0.61952
 C280 C 0.27312 1.13430 1.13330
 N281 N 0.26160 1.15670 1.12219
 N282 N 0.23938 1.16755 1.13314
 C283 C 0.22771 1.15647 1.15565
 N284 N 0.23937 1.13399 1.16667
 N285 N 0.26160 1.12313 1.15573
 C286 C 0.29770 1.12239 1.12131
 N287 N 0.30926 1.10001 1.13249
 N288 N 0.33161 1.08927 1.12167
 C289 C 0.34321 1.10050 1.09928
 N290 N 0.33164 1.12287 1.08809
 N291 N 0.30930 1.13362 1.09890
 C292 C 0.36790 1.08870 1.08743
 N293 N 0.37957 1.09996 1.06507
 N294 N 0.40201 1.08928 1.05437
 C295 C 0.41358 1.06697 1.06565
 N296 N 0.40193 1.05569 1.08798
 N297 N 0.37950 1.06637 1.09868
 C298 C 0.27355 0.86642 0.86499
 N299 N 0.26201 0.84401 0.87614
 N300 N 0.23981 0.83312 0.86524
 C301 C 0.22819 0.84415 0.84273
 N302 N 0.23986 0.86664 0.83167
 N303 N 0.26207 0.87755 0.84256
 C304 C 0.29809 0.87837 0.87694
 N305 N 0.30970 0.90074 0.86572
 N306 N 0.33202 0.91152 0.87651
 C307 C 0.34355 0.90032 0.89891
 N308 N 0.33193 0.87795 0.91013
 N309 N 0.30961 0.86718 0.89934
 C310 C 0.36820 0.91214 0.91075
 N311 N 0.37976 0.90090 0.93312
 N312 N 0.40216 0.91158 0.94383
 C313 C 0.41382 0.93387 0.93254
 N314 N 0.40228 0.94514 0.91019
 N315 N 0.37988 0.93446 0.89948
 C316 C 0.72658 0.86615 1.13408
 N317 N 0.73810 0.84373 1.12301
 N318 N 0.76026 0.83282 1.13399
 C319 C 0.77180 0.84387 1.15646
 N320 N 0.76020 0.86634 1.16747
 N321 N 0.73804 0.87726 1.15650
 C322 C 0.70208 0.87811 1.12204
 N323 N 0.69051 0.90050 1.13316
 N324 N 0.66823 0.91129 1.12229
 C325 C 0.65672 0.90011 1.09991
 N326 N 0.66831 0.87774 1.08878
 N327 N 0.69058 0.86694 1.09965
 C328 C 0.63211 0.91196 1.08799
 N329 N 0.62057 0.90073 1.06565
 N330 N 0.59820 0.91144 1.05487
 C331 C 0.58659 0.93375 1.06607
 N332 N 0.59812 0.94500 1.08839
 N333 N 0.62049 0.93429 1.09916
 C334 C 0.72743 1.13459 0.86435
 N335 N 0.73893 1.12349 0.84191
 N336 N 0.76112 1.13442 0.83092
 C337 C 0.77278 1.15691 0.84186
 N338 N 0.76115 1.16792 0.86438
 N339 N 0.73895 1.15700 0.87539
 C340 C 0.70289 1.12261 0.87641
 N341 N 0.69133 1.13379 0.89881
 N342 N 0.66902 1.12298 0.90969
 C343 C 0.65744 1.10060 0.89857
 N344 N 0.66901 1.08942 0.87618
 N345 N 0.69133 1.10023 0.86530
 C346 C 0.63277 1.08875 0.91050
 N347 N 0.62116 1.06641 0.89933
 N348 N 0.59875 1.05570 0.91010
 C349 C 0.58713 1.06695 0.93241
 N350 N 0.59873 1.08927 0.94361
 N351 N 0.62115 1.09998 0.93284
 C352 C 0.13435 0.27308 0.13286
 N353 N 0.12323 0.26147 0.15528
 N354 N 0.13419 0.23927 0.16617
 C355 C 0.15670 0.22779 0.15509
 N356 N 0.16776 0.23947 0.13261
 N357 N 0.15681 0.26167 0.12171
 C358 C 0.12232 0.29762 0.12094
 N359 N 0.13348 0.30931 0.09855
 N360 N 0.12262 0.33163 0.08781
 C361 C 0.10021 0.34307 0.09907
 N362 N 0.08904 0.33137 0.12144
 N363 N 0.09990 0.30905 0.13218
 C364 C 0.08829 0.36774 0.08729
 N365 N 0.06593 0.37922 0.09860
 N366 N 0.05517 0.40164 0.08797
 C367 C 0.06640 0.41338 0.06566
 N368 N 0.08874 0.40191 0.05433
 N369 N 0.09950 0.37949 0.06496
 C370 C -0.13409 0.27366 -0.13546
 N371 N -0.15651 0.26210 -0.12432
 N372 N -0.16740 0.23992 -0.13525
 C373 C -0.15633 0.22839 -0.15776
 N374 N -0.13386 0.24003 -0.16883
 N375 N -0.12296 0.26222 -0.15791
 C376 C -0.12215 0.29819 -0.12346
 N377 N -0.09977 0.30982 -0.13464
 N378 N -0.08900 0.33211 -0.12380
 C379 C -0.10023 0.34359 -0.10138
 N380 N -0.12260 0.33195 -0.09020
 N381 N -0.13337 0.30966 -0.10104
 C382 C -0.08841 0.36822 -0.08948
 N383 N -0.09969 0.37973 -0.06710
 N384 N -0.08902 0.40211 -0.05633
 C385 C -0.06670 0.41378 -0.06757
 N386 N -0.05541 0.40229 -0.08993
 N387 N -0.06607 0.37991 -0.10069
 C388 C 0.13470 0.72741 -0.13435
 N389 N 0.15714 0.73883 -0.12321
 N390 N 0.16813 0.76104 -0.13411
 C391 C 0.15715 0.77272 -0.15658
 N392 N 0.13467 0.76122 -0.16765
 N393 N 0.12366 0.73902 -0.15676
 C394 C 0.12263 0.70285 -0.12243
 N395 N 0.10025 0.69140 -0.13366
 N396 N 0.08935 0.66906 -0.12293
 C397 C 0.10044 0.65737 -0.10056
 N398 N 0.12282 0.66883 -0.08932
 N399 N 0.13372 0.69117 -0.10006
 C400 C 0.08849 0.63268 -0.08879
 N401 N 0.09963 0.62095 -0.06647
 N402 N 0.08884 0.59851 -0.05584
 C403 C 0.06654 0.58701 -0.06715
 N404 N 0.05537 0.59873 -0.08945
 N405 N 0.06616 0.62117 -0.10009
 C406 C -0.13415 0.72654 0.13418
 N407 N -0.12302 0.73797 0.15661
 N408 N -0.13389 0.76017 0.16755
 C409 C -0.15631 0.77182 0.15653
 N410 N -0.16738 0.76031 0.13405
 N411 N -0.15653 0.73812 0.12309
 C412 C -0.12224 0.70201 0.12215
 N413 N -0.13343 0.69054 0.09976
 N414 N -0.12269 0.66824 0.08890
 C415 C -0.10035 0.65659 0.10004
 N416 N -0.08915 0.66807 0.12243
 N417 N -0.09989 0.69037 0.13329
 C418 C -0.08856 0.63196 0.08812
 N419 N -0.06626 0.62027 0.09930
 N420 N -0.05559 0.59790 0.08853
 C421 C -0.06686 0.58640 0.06619
 N422 N -0.08914 0.59806 0.05499
 N423 N -0.09980 0.62044 0.06576
 C424 C 1.13399 0.13423 0.72553
 N425 N 1.15640 0.12311 0.73701
 N426 N 1.16730 0.13400 0.75921
 C427 C 1.15625 0.15643 0.77082
 N428 N 1.13379 0.16749 0.75926
 N429 N 1.12287 0.15661 0.73706
 C430 C 1.12203 0.12230 0.70099
 N431 N 1.09966 0.13349 0.68946
 N432 N 1.08887 0.12274 0.66713
 C433 C 1.10005 0.10040 0.65553
 N434 N 1.12241 0.08920 0.66708
 N435 N 1.13320 0.09996 0.68940
 C436 C 1.08821 0.08860 0.63088
 N437 N 1.09944 0.06630 0.61925
 N438 N 1.08874 0.05563 0.59684
 C439 C 1.06644 0.06689 0.58527
 N440 N 1.05519 0.08918 0.59688
 N441 N 1.06589 0.09985 0.61929
 C442 C 0.86639 -0.13430 0.72684
 N443 N 0.84399 -0.12325 0.73845
 N444 N 0.83314 -0.13425 0.76070
 C445 C 0.84418 -0.15675 0.77229
 N446 N 0.86666 -0.16770 0.76055
 N447 N 0.87753 -0.15672 0.73830
 C448 C 0.87828 -0.12225 0.70224
 N449 N 0.90064 -0.13335 0.69055
 N450 N 0.91134 -0.12248 0.66816
 C451 C 0.90008 -0.10012 0.65665
 N452 N 0.87773 -0.08901 0.66835
 N453 N 0.86703 -0.09988 0.69073
 C454 C 0.91182 -0.08820 0.63191
 N455 N 0.90051 -0.06589 0.62033
 N456 N 0.91112 -0.05514 0.59783
 C457 C 0.93341 -0.06633 0.58612
 N458 N 0.94474 -0.08861 0.59769
 N459 N 0.93413 -0.09936 0.62018
 C460 C 1.13350 -0.13395 0.27187
 N461 N 1.15591 -0.12284 0.26029
 N462 N 1.16682 -0.13376 0.23808
 C463 C 1.15581 -0.15625 0.22649
 N464 N 1.13331 -0.16727 0.23820
 N465 N 1.12238 -0.15637 0.26041
 C466 C 1.12155 -0.12199 0.29643
 N467 N 1.09919 -0.13317 0.30810
 N468 N 1.08842 -0.12238 0.33045
 C469 C 1.09963 -0.10001 0.34194
 N470 N 1.12198 -0.08881 0.33027
 N471 N 1.13275 -0.09961 0.30792
 C472 C 1.08784 -0.08816 0.36664
 N473 N 1.09910 -0.06583 0.37816
 N474 N 1.08845 -0.05513 0.40061
 C475 C 1.06618 -0.06638 0.41234
 N476 N 1.05489 -0.08870 0.40083
 N477 N 1.06554 -0.09940 0.37838
 C478 C 0.86587 0.13442 0.27191
 N479 N 0.84348 0.12335 0.26039
 N480 N 0.83263 0.13432 0.23817
 C481 C 0.84369 0.15683 0.22653
 N482 N 0.86617 0.16780 0.23819
 N483 N 0.87703 0.15684 0.26041
 C484 C 0.87777 0.12241 0.29648
 N485 N 0.90014 0.13355 0.30804
 N486 N 0.91088 0.12271 0.33039
 C487 C 0.89964 0.10035 0.34198
 N488 N 0.87728 0.08920 0.33041
 N489 N 0.86654 0.10003 0.30806
 C490 C 0.91143 0.08848 0.36667
 N491 N 0.90015 0.06616 0.37834
 N492 N 0.91082 0.05545 0.40079
 C493 C 0.93313 0.06669 0.41236
 N494 N 0.94442 0.08898 0.40070
 N495 N 0.93376 0.09969 0.37826
 C496 C 0.13395 0.27365 -0.13494
 N497 N 0.12286 0.26215 -0.15735
 N498 N 0.13378 0.23996 -0.16825
 C499 C 0.15623 0.22838 -0.15718
 N500 N 0.16726 0.23996 -0.13472
 N501 N 0.15635 0.26214 -0.12382
 C502 C 0.12199 0.29818 -0.12300
 N503 N 0.13314 0.30973 -0.10063
 N504 N 0.12235 0.33204 -0.08986
 C505 C 0.10001 0.34362 -0.10107
 N506 N 0.08885 0.33206 -0.12343
 N507 N 0.09964 0.30975 -0.13421
 C508 C 0.08818 0.36827 -0.08925
 N509 N 0.06588 0.37989 -0.10050
 N510 N 0.05519 0.40230 -0.08980
 C511 C 0.06641 0.41386 -0.06749
 N512 N 0.08869 0.40225 -0.05622
 N513 N 0.09938 0.37985 -0.06691
 C514 C -0.13403 0.27269 0.13364
 N515 N -0.15641 0.26114 0.12258
 N516 N -0.16728 0.23892 0.13356
 C517 C -0.15625 0.22729 0.15606
 N518 N -0.13377 0.23898 0.16703
 N519 N -0.12289 0.26120 0.15606
 C520 C -0.12212 0.29727 0.12161
 N521 N -0.09976 0.30888 0.13273
 N522 N -0.08903 0.33124 0.12189
 C523 C -0.10026 0.34280 0.09952
 N524 N -0.12260 0.33118 0.08838
 N525 N -0.13334 0.30882 0.09923
 C526 C -0.08848 0.36751 0.08764
 N527 N -0.09974 0.37914 0.06532
 N528 N -0.08909 0.40160 0.05460
 C529 C -0.06681 0.41323 0.06582
 N530 N -0.05552 0.40161 0.08811
 N531 N -0.06617 0.37916 0.09883
 C532 C -0.13378 0.72740 -0.13485
 N533 N -0.15618 0.73894 -0.12374
 N534 N -0.16701 0.76115 -0.13470
 C535 C -0.15593 0.77279 -0.15723
 N536 N -0.13345 0.76112 -0.16824
 N537 N -0.12260 0.73890 -0.15729
 C538 C -0.12190 0.70283 -0.12284
 N539 N -0.09952 0.69125 -0.13401
 N540 N -0.08881 0.66890 -0.12319
 C541 C -0.10008 0.65732 -0.10081
 N542 N -0.12244 0.66891 -0.08963
 N543 N -0.13316 0.69126 -0.10045
 C544 C -0.08832 0.63262 -0.08895
 N545 N -0.09963 0.62097 -0.06662
 N546 N -0.08899 0.59852 -0.05592
 C547 C -0.06668 0.58692 -0.06718
 N548 N -0.05535 0.59857 -0.08948
 N549 N -0.06599 0.62101 -0.10019
 C550 C 0.13323 0.72695 0.13343
 N551 N 0.15564 0.73853 0.12227
 N552 N 0.16649 0.76074 0.13317
 C553 C 0.15538 0.77229 0.15564
 N554 N 0.13292 0.76064 0.16673
 N555 N 0.12206 0.73842 0.15585
 C556 C 0.12135 0.70239 0.12149
 N557 N 0.09899 0.69075 0.13271
 N558 N 0.08827 0.66841 0.12194
 C559 C 0.09952 0.65689 0.09956
 N560 N 0.12186 0.66854 0.08834
 N561 N 0.13258 0.69088 0.09911
 C562 C 0.08776 0.63221 0.08775
 N563 N 0.09905 0.62066 0.06540
 N564 N 0.08842 0.59823 0.05471
 C565 C 0.06614 0.58655 0.06600
 N566 N 0.05483 0.59808 0.08832
 N567 N 0.06545 0.62051 0.09901
 C568 C 0.27360 1.13424 0.86499
 N569 N 0.26209 1.12312 0.84259
 N570 N 0.23988 1.13401 0.83171
 C571 C 0.22827 1.15644 0.84278
 N572 N 0.23986 1.16750 0.86522
 N573 N 0.26207 1.15662 0.87612
 C574 C 0.29815 1.12231 0.87692
 N575 N 0.30971 1.13350 0.89928
 N576 N 0.33204 1.12275 0.91004
 C577 C 0.34364 1.10041 0.89885
 N578 N 0.33208 1.08922 0.87650
 N579 N 0.30974 1.09997 0.86573
 C580 C 0.36831 1.08862 0.91067
 N581 N 0.37995 1.06632 0.89943
 N582 N 0.40237 1.05566 0.91012
 C583 C 0.41395 1.06692 0.93241
 N584 N 0.40233 1.08920 0.94366
 N585 N 0.37991 1.09986 0.93298
 C586 C 0.27275 0.86654 1.13319
 N587 N 0.26119 0.87767 1.15559
 N588 N 0.23895 0.86678 1.16652
 C589 C 0.22737 0.84432 1.15550
 N590 N 0.23900 0.83325 1.13304
 N591 N 0.26124 0.84414 1.12210
 C592 C 0.29734 0.87848 1.12123
 N593 N 0.30897 0.86729 1.09888
 N594 N 0.33135 0.87805 1.08810
 C595 C 0.34292 0.90040 1.09928
 N596 N 0.33128 0.91160 1.12162
 N597 N 0.30890 0.90084 1.13240
 C598 C 0.36764 0.91220 1.08747
 N599 N 0.37925 0.93451 1.09870
 N600 N 0.40173 0.94517 1.08804
 C601 C 0.41341 0.93391 1.06576
 N602 N 0.40181 0.91163 1.05450
 N603 N 0.37933 0.90096 1.06517
 C604 C 0.72707 1.13414 1.13334
 N605 N 0.73852 1.12300 1.15579
 N606 N 0.76072 1.13390 1.16669
 C607 C 0.77235 1.15636 1.15560
 N608 N 0.76081 1.16743 1.13311
 N609 N 0.73862 1.15655 1.12219
 C610 C 0.70253 1.12221 1.12138
 N611 N 0.69103 1.13341 1.09897
 N612 N 0.66871 1.12266 1.08818
 C613 C 0.65707 1.10031 1.09940
 N614 N 0.66858 1.08909 1.12180
 N615 N 0.69090 1.09985 1.13259
 C616 C 0.63242 1.08852 1.08756
 N617 N 0.62073 1.06621 1.09883
 N618 N 0.59831 1.05556 1.08813
 C619 C 0.58679 1.06684 1.06579
 N620 N 0.59846 1.08912 1.05450
 N621 N 0.62088 1.09978 1.06520
 C622 C 0.72742 0.86603 0.86557
 N623 N 0.73886 0.84360 0.87673
 N624 N 0.76107 0.83268 0.86582
 C625 C 0.77273 0.84373 0.84333
 N626 N 0.76121 0.86621 0.83224
 N627 N 0.73900 0.87715 0.84314
 C628 C 0.70287 0.87802 0.87750
 N629 N 0.69139 0.90040 0.86625
 N630 N 0.66905 0.91122 0.87700
 C631 C 0.65737 0.90005 0.89938
 N632 N 0.66886 0.87768 0.91064
 N633 N 0.69120 0.86686 0.89990
 C634 C 0.63269 0.91192 0.91116
 N635 N 0.62097 0.90071 0.93350
 N636 N 0.59853 0.91143 0.94414
 C637 C 0.58701 0.93374 0.93280
 N638 N 0.59872 0.94497 0.91048
 N639 N 0.62116 0.93425 0.89984
   
