data_POSCAR
  _audit_creation_date              2014-09-24
  _audit_creation_method            'ToBaCCo'
  _symmetry_space_group_name_H-M    'P1'
  _symmetry_Int_Tables_number       1
  _symmetry_cell_setting            triclinic
  loop_
  _symmetry_equiv_pos_as_xyz
 x,y,z
_cell_length_a 14.6053
_cell_length_b 14.6518
_cell_length_c 36.0723
_cell_angle_alpha 90.185000
_cell_angle_beta 90.157400
_cell_angle_gamma 120.098500
loop_
  _atom_site_label
  _atom_site_type_symbol
  _atom_site_fract_x
  _atom_site_fract_y
  _atom_site_fract_z
C1 C -0.04369 0.06267 0.52475
 C2 C -0.13327 -0.01777 0.49935
 C3 C -0.10426 -0.07840 0.47874
 C4 C 0.01054 -0.05214 0.48527
 C5 C -0.01062 -0.00293 0.54773
 C6 C 0.01520 -0.06530 0.52753
 C7 C 0.04869 0.12627 0.49910
 C8 C 0.07738 0.06793 0.47812
 H9 H -0.21236 -0.02848 0.49895
 H10 H 0.03520 -0.09996 0.46861
 H11 H -0.02456 -0.01297 0.57741
 H12 H 0.08564 0.21139 0.49643
 C13 C 0.93807 -0.10602 0.19292
 C14 C 1.02035 -0.11405 0.16841
 C15 C 1.08154 -0.02407 0.14813
 C16 C 1.05405 0.06357 0.15439
 C17 C 0.99800 -0.01227 0.21515
 C18 C 1.06431 0.08093 0.19453
 C19 C 0.87472 -0.07915 0.16620
 C20 C 0.93379 0.00861 0.14571
 H21 H 1.03057 -0.18245 0.16787
 H22 H 1.10200 0.13605 0.13790
 H23 H 1.00753 -0.01613 0.24493
 H24 H 0.78937 -0.12767 0.16305
 C25 C 0.10897 1.04684 0.85854
 C26 C 0.11688 1.13573 0.83358
 C27 C 0.02681 1.10576 0.81283
 C28 C -0.06097 0.99078 0.81885
 C29 C 0.00964 1.01232 0.88137
 C30 C -0.07906 0.98554 0.86109
 C31 C 0.08151 0.95526 0.83246
 C32 C -0.00606 0.92555 0.81140
 H33 H 0.18491 1.21490 0.83343
 H34 H -0.13378 0.96540 0.80210
 H35 H 0.01327 1.02601 0.91112
 H36 H 0.13029 0.91885 0.82987
 O37 O 0.59316 -0.02396 0.03336
 O38 O 0.40458 -0.01398 -0.03185
 O39 O 0.55614 -0.05391 -0.03773
 O40 O 0.39836 -0.05191 0.03877
 O41 O 0.48183 0.12227 0.03938
 O42 O 0.65617 0.11983 -0.03535
 O43 O 0.50179 0.16017 -0.03229
 O44 O 0.67907 0.15004 0.03681
 Cu45 Cu 0.48015 -0.05138 0.00112
 Cu46 Cu 0.58798 0.15372 0.00282
 C47 C 0.66962 0.06244 0.04580
 C48 C 0.42293 0.07554 -0.04368
 C49 C 0.63356 0.03063 -0.04938
 C50 C 0.40818 0.03324 0.05110
 O51 O 0.02918 0.61915 0.69935
 O52 O 0.01980 0.42098 0.63420
 O53 O 0.05300 0.60875 0.62812
 O54 O 0.05200 0.44993 0.70482
 O55 O -0.12272 0.35813 0.70473
 O56 O -0.12121 0.53474 0.63030
 O57 O -0.15479 0.34429 0.63242
 O58 O -0.14540 0.53066 0.70192
 Cu59 Cu 0.05480 0.53304 0.66725
 Cu60 Cu -0.15270 0.43346 0.66821
 C61 C -0.05748 0.60893 0.71132
 C62 C -0.06977 0.35009 0.62171
 C63 C -0.03195 0.60138 0.61642
 C64 C -0.03344 0.37405 0.71673
 O65 O 0.57595 0.59564 0.29993
 O66 O 0.37845 0.40701 0.36489
 O67 O 0.54787 0.59972 0.37046
 O68 O 0.38731 0.44020 0.29360
 O69 O 0.46191 0.34110 0.29596
 O70 O 0.64029 0.51796 0.37056
 O71 O 0.46771 0.32223 0.36770
 O72 O 0.65319 0.49879 0.29842
 Cu73 Cu 0.46395 0.51853 0.33279
 Cu74 Cu 0.56417 0.41186 0.33401
 C75 C 0.64714 0.57756 0.28768
 C76 C 0.38932 0.33134 0.37700
 C77 C 0.62436 0.59106 0.38248
 C78 C 0.39470 0.36289 0.28196
 C79 C -0.00114 0.30159 0.56105
 C80 C 0.02860 0.21870 0.57271
 C81 C -0.06494 0.13484 0.54938
 C82 C -0.09470 0.21747 0.53761
 C83 C -0.13813 0.10426 0.58325
 C84 C -0.04448 0.18851 0.60660
 C85 C -0.07384 0.27117 0.59488
 C86 C -0.16819 0.18807 0.57192
 H87 H 0.05548 0.38344 0.55223
 H88 H 0.11013 0.23117 0.57309
 H89 H -0.11564 0.22813 0.50898
 H90 H -0.19457 0.02232 0.59201
 H91 H -0.02342 0.17767 0.63521
 H92 H -0.24921 0.17682 0.57201
 C93 C 0.80823 0.76523 0.27362
 C94 C 0.89430 0.75746 0.25120
 C95 C 0.86469 0.79964 0.21693
 C96 C 0.77888 0.80758 0.23935
 C97 C 0.78307 0.68694 0.20452
 C98 C 0.81152 0.64334 0.23923
 C99 C 0.72658 0.65292 0.26129
 C100 C 0.69703 0.69465 0.22706
 H101 H 0.81751 0.79677 0.30227
 H102 H 0.97620 0.78395 0.26077
 H103 H 0.76557 0.87585 0.23946
 H104 H 0.77400 0.65572 0.17585
 H105 H 0.82353 0.57431 0.23957
 H106 H 0.61518 0.66834 0.21746
 C107 C 0.30756 0.00759 -0.10491
 C108 C 0.19389 -0.02379 -0.09369
 C109 C 0.20279 0.06921 -0.11662
 C110 C 0.31625 0.10061 -0.12795
 C111 C 0.24380 0.14172 -0.08233
 C112 C 0.23514 0.04860 -0.05939
 C113 C 0.34823 0.07959 -0.07065
 C114 C 0.35875 0.17343 -0.09320
 H115 H 0.33420 -0.04787 -0.11388
 H116 H 0.12540 -0.10553 -0.09385
 H117 H 0.34862 0.12223 -0.15640
 H118 H 0.21689 0.19700 -0.07342
 H119 H 0.20245 0.02684 -0.03097
 H120 H 0.42799 0.25464 -0.09256
 C121 C 0.08325 0.76302 0.57177
 C122 C 0.02742 0.75185 0.53399
 C123 C 0.00406 0.83858 0.54633
 C124 C 0.05985 0.85032 0.58373
 C125 C -0.10258 0.75525 0.56295
 C126 C -0.07938 0.66706 0.55117
 C127 C -0.02335 0.68026 0.58861
 C128 C -0.04658 0.76719 0.60048
 H129 H 0.16006 0.76576 0.57554
 H130 H 0.05823 0.74677 0.50643
 H131 H 0.11780 0.92615 0.59705
 H132 H -0.17904 0.75316 0.55905
 H133 H -0.13714 0.59069 0.53815
 H134 H -0.07759 0.77300 0.62792
 C135 C 0.23052 0.31393 0.23717
 C136 C 0.23759 0.26507 0.19988
 C137 C 0.15653 0.16073 0.21311
 C138 C 0.14394 0.20273 0.24861
 C139 C 0.23562 0.13666 0.22845
 C140 C 0.32548 0.24695 0.21663
 C141 C 0.31496 0.29180 0.25415
 C142 C 0.22751 0.18147 0.26622
 H143 H 0.22567 0.38682 0.24018
 H144 H 0.23730 0.29580 0.17182
 H145 H 0.06623 0.18248 0.26078
 H146 H 0.23340 0.06056 0.22383
 H147 H 0.39997 0.26371 0.20272
 H148 H 0.22047 0.14344 0.29346
 C149 C 0.74561 0.07753 -0.11472
 C150 C 0.85787 0.10182 -0.10310
 C151 C 0.83518 -0.00438 -0.12000
 C152 C 0.72420 -0.02882 -0.13219
 C153 C 0.79200 -0.05970 -0.08269
 C154 C 0.81474 0.04630 -0.06565
 C155 C 0.70371 0.02199 -0.07736
 C156 C 0.68041 -0.08418 -0.09448
 H157 H 0.72602 0.13447 -0.12750
 H158 H 0.93198 0.17837 -0.10692
 H159 H 0.68784 -0.06008 -0.15977
 H160 H 0.81086 -0.11684 -0.06959
 H161 H 0.85205 0.07776 -0.03820
 H162 H 0.60657 -0.16103 -0.09078
 C163 C 0.30844 -0.02639 0.11653
 C164 C 0.28901 0.06083 0.13251
 C165 C 0.17053 -0.00828 0.12310
 C166 C 0.18903 -0.09531 0.10742
 C167 C 0.18893 0.04336 0.08467
 C168 C 0.30854 0.11249 0.09370
 C169 C 0.32687 0.02521 0.07814
 C170 C 0.20818 -0.04360 0.06878
 H171 H 0.35877 -0.05439 0.12958
 H172 H 0.32220 0.10331 0.15901
 H173 H 0.13964 -0.18108 0.11289
 H174 H 0.13850 0.07125 0.07160
 H175 H 0.35824 0.19810 0.08800
 H176 H 0.17532 -0.08617 0.04219
 C177 C 0.66697 0.69141 0.44820
 C178 C 0.77622 0.71428 0.46314
 C179 C 0.82198 0.83178 0.45389
 C180 C 0.71389 0.80988 0.43927
 C181 C 0.85347 0.81376 0.41502
 C182 C 0.80656 0.69512 0.42387
 C183 C 0.69837 0.67338 0.40935
 C184 C 0.74471 0.79113 0.40018
 H185 H 0.58982 0.63989 0.46180
 H186 H 0.78941 0.68316 0.48936
 H187 H 0.67571 0.85732 0.44541
 H188 H 0.93064 0.86540 0.40144
 H189 H 0.84420 0.64732 0.41748
 H190 H 0.73176 0.82238 0.37390
 C191 C 0.04658 0.25451 0.73445
 C192 C 0.09636 0.28604 0.77360
 C193 C 0.01006 0.17852 0.78806
 C194 C -0.03967 0.14634 0.74911
 C195 C -0.06203 0.22415 0.79727
 C196 C 0.02449 0.33283 0.78250
 C197 C -0.02515 0.30076 0.74358
 C198 C -0.11174 0.19314 0.75792
 H199 H 0.09089 0.26697 0.70822
 H200 H 0.18228 0.32435 0.77985
 H201 H -0.06521 0.06917 0.73544
 H202 H -0.10643 0.21138 0.82345
 H203 H 0.05014 0.40998 0.79618
 H204 H -0.19747 0.15539 0.75141
 C205 C 0.83125 0.02890 0.05925
 C206 C 0.91522 0.11684 0.08486
 C207 C 0.87821 0.03797 0.11709
 C208 C 0.79548 -0.04980 0.09166
 C209 C 0.79616 0.06918 0.12871
 C210 C 0.83184 0.14822 0.09615
 C211 C 0.74905 0.05945 0.07118
 C212 C 0.71327 -0.01879 0.10341
 H213 H 0.84456 0.01184 0.03039
 H214 H 0.99888 0.17237 0.07749
 H215 H 0.78089 -0.13168 0.08960
 H216 H 0.78242 0.08608 0.15754
 H217 H 0.84569 0.22986 0.09780
 H218 H 0.62990 -0.07482 0.11102
 C219 C 0.19488 0.16868 0.39110
 C220 C 0.20199 0.08687 0.41652
 C221 C 0.16057 0.12373 0.44908
 C222 C 0.15239 0.20430 0.42387
 C223 C 0.27423 0.20738 0.46020
 C224 C 0.31710 0.17182 0.42732
 C225 C 0.30806 0.25246 0.40256
 C226 C 0.26606 0.28813 0.43511
 H227 H 0.16288 0.15390 0.36240
 H228 H 0.17481 0.00349 0.40914
 H229 H 0.08378 0.21723 0.42228
 H230 H 0.30656 0.22263 0.48887
 H231 H 0.38613 0.15955 0.42853
 H232 H 0.29249 0.37123 0.44272
 C233 C -0.02393 0.80369 0.72492
 C234 C -0.11274 0.79878 0.74999
 C235 C -0.03428 0.84089 0.78270
 C236 C 0.05438 0.84686 0.75781
 C237 C -0.06556 0.72780 0.79416
 C238 C -0.14421 0.68421 0.76112
 C239 C -0.05461 0.69108 0.73670
 C240 C 0.02326 0.73377 0.76939
 H241 H -0.00631 0.83427 0.69616
 H242 H -0.16844 0.82637 0.74227
 H243 H 0.13648 0.91459 0.75627
 H244 H -0.08303 0.69695 0.82289
 H245 H -0.22608 0.61602 0.76228
 H246 H 0.07942 0.70693 0.77734
   
