data_POSCAR
  _audit_creation_date              2014-09-24
  _audit_creation_method            'ToBaCCo'
  _symmetry_space_group_name_H-M    'P1'
  _symmetry_Int_Tables_number       1
  _symmetry_cell_setting            triclinic
  loop_
  _symmetry_equiv_pos_as_xyz
 x,y,z
_cell_length_a 20.7032
_cell_length_b 20.5110
_cell_length_c 36.2465
_cell_angle_alpha 88.888000
_cell_angle_beta 89.189700
_cell_angle_gamma 84.439600
loop_
  _atom_site_label
  _atom_site_type_symbol
  _atom_site_fract_x
  _atom_site_fract_y
  _atom_site_fract_z
C1 C -0.06667 0.31429 0.98059
 C2 C -0.06935 0.31254 1.01835
 C3 C -0.03567 0.36344 1.03034
 N4 N -0.01444 0.39748 1.00101
 C5 C -0.03305 0.36713 0.97068
 C6 C -0.01990 0.37511 1.06745
 C7 C -0.00246 0.43758 1.07770
 C8 C 0.03399 0.44980 1.10823
 C9 C 0.03816 0.51613 1.10870
 C10 C 0.00463 0.54312 1.07833
 N11 N -0.01925 0.49479 1.05923
 C12 C -0.00332 0.61098 1.06909
 C13 C -0.01582 0.63342 1.03235
 C14 C -0.03798 0.69709 1.02189
 C15 C -0.03828 0.69930 0.98412
 C16 C -0.01794 0.63661 0.97255
 N17 N -0.00414 0.59637 1.00207
 C18 C -0.00701 0.61854 0.93540
 C19 C 0.00452 0.55263 0.92470
 C20 C 0.02815 0.53151 0.89050
 C21 C 0.02594 0.46466 0.89027
 C22 C 0.00004 0.44708 0.92409
 N23 N -0.01265 0.50088 0.94488
 C24 C -0.01617 0.38389 0.93417
 H25 H -0.08770 0.28099 0.96245
 H26 H -0.09381 0.27778 1.03492
 H27 H -0.03888 0.50326 0.96960
 H28 H 0.05749 0.41474 1.12760
 H29 H 0.06492 0.54120 1.12857
 H30 H -0.05288 0.73798 1.03947
 H31 H -0.05179 0.74246 0.96731
 H32 H 0.04047 0.43304 0.86747
 H33 H -0.04985 0.50118 1.03657
 H34 H 0.04428 0.56095 0.86774
 C35 C 0.68119 0.07428 0.47745
 C36 C 0.67993 0.07891 0.51508
 C37 C 0.63103 0.04228 0.52804
 N38 N 0.60122 0.01699 0.49939
 C39 C 0.63233 0.03608 0.46854
 C40 C 0.61748 0.02805 0.56567
 C41 C 0.55502 0.01058 0.57658
 C42 C 0.53956 -0.02050 0.60954
 C43 C 0.47378 -0.02531 0.60956
 C44 C 0.45084 0.00142 0.57636
 N45 N 0.50043 0.02304 0.55636
 C46 C 0.38507 0.00745 0.56589
 C47 C 0.36562 0.01494 0.52877
 C48 C 0.30235 0.03063 0.51727
 C49 C 0.30346 0.02714 0.47951
 C50 C 0.36738 0.00943 0.46921
 N51 N 0.40537 0.00210 0.49936
 C52 C 0.38920 -0.00391 0.43281
 C53 C 0.45559 -0.01259 0.42306
 C54 C 0.48069 -0.04220 0.39120
 C55 C 0.54663 -0.03788 0.39133
 C56 C 0.55967 -0.00499 0.42306
 N57 N 0.50394 0.00992 0.44229
 C58 C 0.62060 0.01458 0.43276
 H59 H 0.71398 0.09687 0.45873
 H60 H 0.71133 0.10655 0.53097
 H61 H 0.49830 0.03997 0.46518
 H62 H 0.57184 -0.03962 0.63117
 H63 H 0.44621 -0.04735 0.63125
 H64 H 0.25971 0.04299 0.53428
 H65 H 0.26189 0.03634 0.46174
 H66 H 0.58070 -0.05677 0.37034
 H67 H 0.49611 0.05013 0.53174
 H68 H 0.45429 -0.06480 0.37013
 C69 C 0.13119 0.02924 0.27491
 H70 H 0.12135 0.06876 0.25506
 C71 C 0.18493 0.02888 0.29785
 H72 H 0.21550 0.06875 0.29559
 C73 C 0.10342 -0.07041 0.30208
 H74 H 0.07101 -0.10873 0.30366
 C75 C 0.15606 -0.07233 0.32582
 H76 H 0.16397 -0.11260 0.34550
 N77 N 0.09059 -0.01892 0.27824
 C78 C -0.02900 -0.13837 0.22857
 H79 H -0.06662 -0.13038 0.24940
 C80 C -0.02823 -0.19250 0.20562
 H81 H -0.06584 -0.22546 0.20872
 C82 C 0.06527 -0.10498 0.19874
 H83 H 0.10134 -0.07030 0.19616
 C84 C 0.06694 -0.15738 0.17468
 H85 H 0.10464 -0.16297 0.15364
 Zn86 Zn 0.01273 -0.01662 0.25113
 N87 N 0.01626 -0.09491 0.22396
 C88 C -0.00292 0.04732 0.18158
 N89 N 0.00352 0.05700 0.21830
 C90 C 0.00146 0.11858 0.23191
 C91 C -0.00419 0.17325 0.20802
 C92 C -0.00833 0.10026 0.15681
 C93 C -0.05050 -0.00776 0.32089
 C94 C -0.10335 -0.00373 0.34523
 C95 C -0.17501 -0.00089 0.29309
 C96 C -0.12052 -0.00584 0.26966
 N97 N -0.05973 -0.01007 0.28388
 H98 H -0.00431 -0.00144 0.17123
 H99 H 0.00497 0.12515 0.26133
 H100 H -0.00456 0.22178 0.21928
 H101 H -0.01267 0.09092 0.12770
 H102 H -0.00222 -0.00870 0.33178
 H103 H -0.09465 -0.00245 0.37458
 H104 H -0.22300 0.00172 0.28134
 H105 H -0.12658 -0.00665 0.24008
 C106 C 0.01904 -0.20116 0.17755
 C107 C 0.19686 -0.02149 0.32441
 C108 C -0.16660 -0.00055 0.33146
 C109 C -0.00829 0.16427 0.16982
 C110 C -0.04538 0.13448 0.77334
 H111 H -0.07642 0.13804 0.74950
 C112 C -0.04702 0.18676 0.79765
 H113 H -0.07981 0.23022 0.79237
 C114 C 0.03494 0.07340 0.80920
 H115 H 0.06667 0.02888 0.81345
 C116 C 0.03456 0.12411 0.83428
 H117 H 0.06646 0.11809 0.85776
 N118 N -0.00491 0.07923 0.77962
 C119 C 0.08736 -0.04979 0.69610
 H120 H 0.05351 -0.08665 0.69469
 C121 C 0.14125 -0.05270 0.67241
 H122 H 0.14864 -0.09240 0.65308
 C123 C 0.11719 0.04777 0.72223
 H124 H 0.10697 0.08757 0.74119
 C125 C 0.17205 0.04646 0.69923
 H126 H 0.20360 0.08539 0.70090
 Zn127 Zn -0.00263 0.00642 0.74847
 N128 N 0.07570 0.00048 0.71999
 C129 C -0.06343 0.01966 0.67893
 N130 N -0.07510 0.01613 0.71593
 C131 C -0.13708 0.02006 0.72944
 C132 C -0.18980 0.02460 0.70547
 C133 C -0.11447 0.02384 0.65407
 C134 C 0.04512 -0.11766 0.77931
 C135 C 0.04507 -0.17129 0.80368
 C136 C -0.05813 -0.12532 0.82805
 C137 C -0.05572 -0.07224 0.80356
 N138 N -0.00512 -0.06959 0.77939
 H139 H -0.01450 0.01948 0.66836
 H140 H -0.14606 0.02012 0.75878
 H141 H -0.23858 0.02671 0.71684
 H142 H -0.10348 0.02570 0.62480
 H143 H 0.08626 -0.11395 0.76106
 H144 H 0.08573 -0.20870 0.80328
 H145 H -0.09870 -0.12593 0.84720
 H146 H -0.09337 -0.03218 0.80480
 C147 C 0.18402 -0.00365 0.67342
 C148 C -0.00700 0.18170 0.82879
 C149 C -0.00711 -0.17561 0.82846
 C150 C -0.17871 0.02551 0.66718
 N151 N 0.03013 -0.28583 0.08873
 C152 C 0.00413 -0.34282 0.09689
 N153 N -0.01491 -0.35393 0.13237
 N154 N -0.00968 -0.30940 0.15820
 C155 C 0.01595 -0.25239 0.14976
 N156 N 0.03613 -0.24173 0.11459
 N157 N -0.02360 0.33319 0.13060
 C158 C -0.01755 0.32249 0.09370
 N159 N -0.00829 0.25942 0.08247
 N160 N -0.00566 0.20966 0.10661
 C161 C -0.01186 0.22043 0.14333
 N162 N -0.02073 0.28331 0.15489
 N163 N 0.28882 -0.04017 0.59160
 C164 C 0.33448 0.00251 0.59490
 N165 N 0.33193 0.04176 0.62472
 N166 N 0.28477 0.03916 0.64997
 C167 C 0.23859 -0.00307 0.64652
 N168 N 0.24188 -0.04293 0.61691
 N169 N -0.34416 0.03662 0.62839
 C170 C -0.33180 0.02837 0.59172
 N171 N -0.26871 0.01957 0.58043
 N172 N -0.22055 0.01915 0.60432
 C173 C -0.23300 0.02731 0.64084
 N174 N -0.29590 0.03599 0.65244
 N175 N -0.06274 -0.29082 0.89899
 C176 C -0.00727 -0.32919 0.90666
 N177 N 0.04809 -0.31780 0.88816
 N178 N 0.04797 -0.26961 0.86296
 C179 C -0.00739 -0.23073 0.85545
 N180 N -0.06275 -0.24242 0.87395
 N181 N 0.01971 0.27289 0.91318
 C182 C -0.01334 0.33209 0.90610
 N183 N -0.04430 0.34212 0.87340
 N184 N -0.04223 0.29453 0.84874
 C185 C -0.00902 0.23522 0.85579
 N186 N 0.02193 0.22552 0.88851
 N187 N -0.26384 -0.01103 0.41697
 C188 C -0.32466 0.00995 0.40564
 N189 N -0.33365 0.02711 0.36954
 N190 N -0.28369 0.02337 0.34578
 C191 C -0.22276 0.00280 0.35728
 N192 N -0.21397 -0.01435 0.39334
 N193 N 0.29458 -0.05274 0.40852
 C194 C 0.34070 -0.01051 0.40383
 N195 N 0.34081 0.02666 0.37243
 N196 N 0.29577 0.02249 0.34691
 C197 C 0.24921 -0.01939 0.35166
 N198 N 0.24978 -0.05713 0.38291
   
