data_POSCAR
  _audit_creation_date              2014-09-24
  _audit_creation_method            'ToBaCCo'
  _symmetry_space_group_name_H-M    'P1'
  _symmetry_Int_Tables_number       1
  _symmetry_cell_setting            triclinic
  loop_
  _symmetry_equiv_pos_as_xyz
 x,y,z
_cell_length_a 29.6008
_cell_length_b 22.8822
_cell_length_c 13.2114
_cell_angle_alpha 88.979900
_cell_angle_beta 91.503500
_cell_angle_gamma 113.315500
loop_
  _atom_site_label
  _atom_site_type_symbol
  _atom_site_fract_x
  _atom_site_fract_y
  _atom_site_fract_z
C1 C 0.40226 0.86426 0.53438
 C2 C 0.44126 0.88829 0.60612
 C3 C 0.48339 0.94312 0.58016
 C4 C 0.48570 0.97408 0.48639
 C5 C 0.44502 0.95106 0.41971
 C6 C 0.40448 0.89536 0.44118
 C7 C 0.53094 1.02835 0.45355
 C8 C 0.54439 1.03277 0.35120
 C9 C 0.58198 1.08759 0.31320
 C10 C 0.60939 1.13565 0.38106
 C11 C 0.59643 1.13287 0.48258
 C12 C 0.55771 1.07856 0.51956
 H13 H 0.37077 0.82048 0.54938
 H14 H 0.51475 0.96193 0.63141
 H15 H 0.44583 0.97462 0.34745
 H16 H 0.52432 0.99401 0.30065
 H17 H 0.63884 1.17831 0.35354
 H18 H 0.54628 1.07749 0.59704
 C19 C 0.12802 0.57957 0.49418
 C20 C 0.10352 0.54459 0.57940
 C21 C 0.05160 0.51542 0.57635
 C22 C 0.02446 0.52197 0.49161
 C23 C 0.04945 0.55567 0.40690
 C24 C 0.10093 0.58329 0.40683
 C25 C -0.03006 0.49433 0.49195
 C26 C -0.05730 0.45863 0.40974
 C27 C -0.10919 0.43500 0.40639
 C28 C -0.13357 0.44671 0.48906
 C29 C -0.10643 0.47995 0.57417
 C30 C -0.05489 0.50443 0.57401
 H31 H 0.16788 0.60131 0.49384
 H32 H 0.03179 0.48900 0.64131
 H33 H 0.02879 0.56012 0.34033
 H34 H -0.03745 0.45146 0.34672
 H35 H -0.17342 0.42801 0.48916
 H36 H -0.03393 0.53080 0.63874
 C37 C 0.37786 0.49534 0.61666
 C38 C 0.41046 0.48752 0.68900
 C39 C 0.45299 0.48135 0.65553
 C40 C 0.46589 0.49025 0.55259
 C41 C 0.43310 0.50015 0.48174
 C42 C 0.38838 0.50078 0.51350
 C43 C 0.51423 0.49083 0.52151
 C44 C 0.51953 0.46520 0.42870
 C45 C 0.56434 0.46100 0.40444
 C46 C 0.60427 0.48382 0.47322
 C47 C 0.59892 0.50813 0.56662
 C48 C 0.55484 0.51322 0.58887
 H49 H 0.34459 0.49954 0.64090
 H50 H 0.47701 0.47149 0.70976
 H51 H 0.44215 0.50739 0.40236
 H52 H 0.48823 0.44618 0.37712
 H53 H 0.63782 0.47737 0.45818
 H54 H 0.55213 0.53315 0.66109
 O55 O 0.37889 0.61492 -0.01302
 O56 O 0.39064 0.73534 -0.02532
 C57 C 0.37329 0.74953 -0.10661
 O58 O 0.32749 0.72887 -0.12599
 O59 O 0.23478 0.64508 -0.12340
 C60 C 0.22140 0.58601 -0.14060
 O61 O 0.23608 0.55025 -0.08758
 O62 O 0.30762 0.52850 0.00123
 C63 C 0.35220 0.55634 -0.02704
 O64 O 0.35663 0.61014 0.18008
 O65 O 0.35879 0.72556 0.16541
 C66 C 0.33973 0.76552 0.14704
 O67 O 0.31769 0.76749 0.06347
 O68 O 0.22879 0.68175 0.06656
 C69 C 0.20268 0.62944 0.10856
 O70 O 0.20732 0.57726 0.09351
 O71 O 0.27644 0.55457 0.18083
 C72 C 0.31847 0.57067 0.22092
 Cr73 Cr 0.36872 0.67076 0.07472
 Cr74 Cr 0.27822 0.70340 -0.02834
 Cr75 Cr 0.25857 0.55591 0.04580
 O76 O 0.30159 0.64262 0.02900
 O77 O 0.62958 0.40562 -0.10626
 O78 O 0.63655 0.31227 -0.20094
 C79 C 0.65649 0.27670 -0.23169
 O80 O 0.68479 0.25997 -0.17578
 O81 O 0.76632 0.36206 -0.14998
 C82 C 0.78989 0.42058 -0.13017
 O83 O 0.78382 0.44625 -0.04920
 O84 O 0.70772 0.47178 -0.08191
 C85 C 0.66675 0.45575 -0.12805
 O86 O 0.60988 0.33464 0.06422
 O87 O 0.61314 0.23748 -0.03166
 C88 C 0.63861 0.21266 0.01879
 O89 O 0.68529 0.23676 0.02354
 O90 O 0.77123 0.33184 0.04654
 C91 C 0.77415 0.36407 0.12583
 O92 O 0.74877 0.39702 0.13592
 O93 O 0.67124 0.42702 0.10497
 C94 C 0.62823 0.38385 0.11853
 Cr95 Cr 0.62447 0.32328 -0.06728
 Cr96 Cr 0.72597 0.29936 -0.06265
 Cr97 Cr 0.72650 0.43279 0.02633
 O98 O 0.69196 0.35153 -0.03237
 C99 C 0.43807 0.85682 -0.29973
 C100 C 0.47646 0.86921 -0.22998
 C101 C 0.45729 0.82892 -0.15089
 C102 C 0.40852 0.79501 -0.17649
 O103 O 0.39666 0.81148 -0.26683
 H104 H 0.51422 0.90288 -0.23502
 H105 H 0.47642 0.82568 -0.08143
 C106 C 0.12973 0.53673 -0.33458
 C107 C 0.11279 0.48319 -0.27312
 C108 C 0.14726 0.49395 -0.19849
 C109 C 0.18245 0.55395 -0.21700
 O110 O 0.17236 0.58022 -0.30048
 H111 H 0.07953 0.44061 -0.28218
 H112 H 0.14568 0.46295 -0.13460
 C113 C 0.40186 0.49214 -0.20788
 C114 C 0.43162 0.48915 -0.12679
 C115 C 0.41389 0.50802 -0.04477
 C116 C 0.37430 0.51978 -0.08114
 O117 O 0.36692 0.51025 -0.17915
 H118 H 0.46420 0.47875 -0.12703
 H119 H 0.42984 0.51633 0.03098
 C120 C 0.61850 0.19127 -0.45670
 C121 C 0.62771 0.25133 -0.49561
 C122 C 0.64438 0.29139 -0.41595
 C123 C 0.64488 0.25307 -0.33488
 O124 O 0.62871 0.19210 -0.35855
 H125 H 0.62119 0.26405 -0.57228
 H126 H 0.65414 0.34226 -0.41617
 C127 C 0.86901 0.48606 -0.33321
 C128 C 0.88490 0.53979 -0.27373
 C129 C 0.85682 0.52276 -0.18951
 C130 C 0.82636 0.45969 -0.20325
 O131 O 0.83340 0.43736 -0.29060
 H132 H 0.91423 0.58548 -0.28909
 H133 H 0.85890 0.55230 -0.12504
 C134 C 0.63445 0.51540 -0.35039
 C135 C 0.68419 0.55185 -0.35317
 C136 C 0.70276 0.53873 -0.26393
 C137 C 0.66286 0.49458 -0.21466
 O138 O 0.62147 0.48054 -0.26709
 H139 H 0.70449 0.58231 -0.41421
 H140 H 0.74117 0.55560 -0.24102
 C141 C 0.86451 0.40055 0.32143
 C142 C 0.88206 0.36681 0.25874
 C143 C 0.84814 0.34480 0.18274
 C144 C 0.81243 0.36732 0.20227
 O145 O 0.82174 0.40049 0.28749
 H146 H 0.91568 0.35889 0.26694
 H147 H 0.85057 0.31835 0.11744
 C148 C 0.58880 0.09974 0.20887
 C149 C 0.55686 0.06632 0.13155
 C150 C 0.57228 0.10343 0.04679
 C151 C 0.61302 0.15529 0.07814
 O152 O 0.62317 0.15306 0.17520
 H153 H 0.52392 0.02318 0.13673
 H154 H 0.55483 0.09508 -0.02761
 C155 C 0.56749 0.42539 0.31428
 C156 C 0.52791 0.37475 0.27480
 C157 C 0.54622 0.35239 0.19859
 C158 C 0.59575 0.39091 0.19610
 O159 O 0.60903 0.43536 0.26676
 H160 H 0.49032 0.35521 0.30012
 H161 H 0.52571 0.31278 0.14969
 C162 C 0.12551 0.61376 0.31315
 C163 C 0.11689 0.66169 0.26261
 C164 C 0.14423 0.67335 0.17752
 C165 C 0.16638 0.63043 0.18129
 O166 O 0.15532 0.59435 0.26386
 H167 H 0.09362 0.68534 0.28559
 H168 H 0.14777 0.70891 0.11968
 C169 C 0.36958 0.86547 0.35791
 C170 C 0.34392 0.89495 0.30369
 C171 C 0.32739 0.85997 0.21769
 C172 C 0.34509 0.81262 0.22531
 O173 O 0.37054 0.81580 0.31019
 H174 H 0.34035 0.93883 0.32196
 H175 H 0.30690 0.86946 0.15507
 C176 C 0.35262 0.50901 0.44085
 C177 C 0.30233 0.48290 0.45413
 C178 C 0.28300 0.50336 0.37359
 C179 C 0.32284 0.54066 0.31733
 O180 O 0.36523 0.54399 0.35739
 H181 H 0.28208 0.45214 0.51493
 H182 H 0.24445 0.49223 0.35741
   
