data_POSCAR
  _audit_creation_date              2014-09-24
  _audit_creation_method            'ToBaCCo'
  _symmetry_space_group_name_H-M    'P1'
  _symmetry_Int_Tables_number       1
  _symmetry_cell_setting            triclinic
  loop_
  _symmetry_equiv_pos_as_xyz
 x,y,z
_cell_length_a 27.4562
_cell_length_b 27.5834
_cell_length_c 27.3924
_cell_angle_alpha 92.219500
_cell_angle_beta 89.048400
_cell_angle_gamma 88.047400
loop_
  _atom_site_label
  _atom_site_type_symbol
  _atom_site_fract_x
  _atom_site_fract_y
  _atom_site_fract_z
C1 C 0.01203 0.45162 0.22064
 C2 C 0.06196 0.45982 0.24324
 C3 C 0.06507 0.50214 0.27006
 C4 C 0.01683 0.53285 0.27272
 C5 C -0.02299 0.45578 0.26487
 C6 C -0.02138 0.49808 0.29152
 C7 C 0.00121 0.49735 0.19195
 C8 C 0.00387 0.54009 0.21867
 H9 H 0.09163 0.43290 0.24092
 H10 H 0.01910 0.56691 0.29532
 H11 H -0.04796 0.42806 0.27450
 H12 H -0.00813 0.49556 0.15370
 C13 C 0.02399 0.43875 0.77821
 C14 C -0.01912 0.43842 0.74798
 C15 C -0.02504 0.47982 0.71802
 C16 C 0.01538 0.51353 0.72346
 C17 C 0.06358 0.44226 0.74274
 C18 C 0.05977 0.48358 0.71319
 C19 C 0.02111 0.48520 0.80553
 C20 C 0.01577 0.52698 0.77589
 H21 H -0.04595 0.41079 0.75054
 H22 H 0.01257 0.54402 0.69857
 H23 H 0.09209 0.41482 0.73588
 H24 H 0.02468 0.48766 0.84485
 C25 C 0.22664 0.01982 0.43975
 C26 C 0.25981 0.06240 0.45028
 C27 C 0.28560 0.05945 0.49179
 C28 C 0.27560 0.01358 0.52043
 C29 C 0.25980 -0.02562 0.44162
 C30 C 0.28477 -0.02991 0.48370
 C31 C 0.19422 0.01891 0.48638
 C32 C 0.21982 0.01598 0.52884
 H33 H 0.25777 0.09590 0.43098
 H34 H 0.29735 0.01057 0.55402
 H35 H 0.25938 -0.05465 0.41382
 H36 H 0.15491 0.02323 0.48587
 C37 C 0.77337 -0.00114 0.45689
 C38 C 0.75409 -0.04765 0.46813
 C39 C 0.71996 -0.04606 0.50803
 C40 C 0.71202 0.00235 0.53016
 C41 C 0.72890 0.03286 0.45033
 C42 C 0.69676 0.03548 0.48888
 C43 C 0.79550 0.01738 0.50502
 C44 C 0.76316 0.01898 0.54338
 H45 H 0.76339 -0.08041 0.44643
 H46 H 0.68665 0.00387 0.56200
 H47 H 0.72782 0.05829 0.42119
 H48 H 0.83367 0.02375 0.51029
 C49 C 0.43314 0.22314 0.99714
 C50 C 0.42986 0.26151 1.03479
 C51 C 0.47224 0.29003 1.03941
 C52 C 0.51019 0.27551 1.00229
 C53 C 0.44462 0.24689 0.95234
 C54 C 0.48660 0.27625 0.95405
 C55 C 0.47784 0.19506 1.00755
 C56 C 0.52104 0.22361 1.00998
 H57 H 0.40156 0.26194 1.06291
 H58 H 0.54218 0.29872 1.00482
 H59 H 0.42133 0.24435 0.92089
 H60 H 0.48074 0.15596 1.00414
 C61 C 0.44557 0.77283 0.99146
 C62 C 0.45210 0.72507 0.96185
 C63 C 0.49177 0.69782 0.97359
 C64 C 0.52172 0.72079 1.01472
 C65 C 0.44555 0.75871 1.04484
 C66 C 0.48501 0.73131 1.05734
 C67 C 0.49126 0.79733 0.98484
 C68 C 0.53376 0.76896 0.99816
 H69 H 0.43039 0.71642 0.93016
 H70 H 0.55284 0.69644 1.02367
 H71 H 0.41600 0.76906 1.07023
 H72 H 0.49267 0.83569 0.97905
 B73 B 0.98768 1.03874 0.02799
 B74 B 0.98570 1.04460 -0.03413
 B75 B 1.03696 1.01798 -0.00874
 B76 B 1.01740 0.98438 0.03926
 B77 B 0.95477 0.98926 0.04275
 B78 B 0.93487 1.02640 -0.00291
 B79 B 0.98115 0.94357 -0.04709
 B80 B 0.98280 0.93777 0.01529
 B81 B 0.93190 0.96420 -0.01047
 B82 B 0.95130 0.99791 -0.05807
 B83 B 1.01372 0.99349 -0.06234
 B84 B 1.03338 0.95615 -0.01621
 B85 B 0.56839 0.50383 0.47688
 B86 B 0.56520 0.50414 0.53962
 B87 B 0.54624 0.55536 0.50881
 B88 B 0.51695 0.53480 0.45536
 B89 B 0.51846 0.47251 0.45488
 B90 B 0.54773 0.45378 0.50638
 B91 B 0.46367 0.50776 0.53729
 B92 B 0.46585 0.50568 0.47372
 B93 B 0.48441 0.45520 0.50401
 B94 B 0.51351 0.47476 0.55693
 B95 B 0.51362 0.53708 0.55868
 B96 B 0.48358 0.55702 0.50583
 C97 C 1.05006 1.38515 0.16317
 C98 C 1.04973 1.33871 0.14091
 C99 C 1.00838 1.31070 0.14419
 C100 C 0.96590 1.33103 0.16683
 C101 C 0.96597 1.37771 0.18863
 C102 C 1.00908 1.40426 0.18998
 N103 N 1.01099 1.26173 0.12477
 N104 N 0.97744 1.23166 0.13110
 C105 C 0.98220 1.18287 0.11102
 C106 C 0.94407 1.15112 0.11578
 C107 C 0.94725 1.10461 0.09308
 C108 C 0.98853 1.08806 0.06461
 C109 C 1.02719 1.12036 0.06313
 C110 C 1.02441 1.16645 0.08563
 H111 H 1.08296 1.40547 0.16049
 H112 H 1.08231 1.32392 0.12220
 H113 H 0.93289 1.31071 0.16815
 H114 H 0.93228 1.39233 0.20506
 H115 H 0.91120 1.16283 0.13591
 H116 H 0.91626 1.08277 0.09706
 H117 H 1.06002 1.11177 0.04401
 H118 H 1.05513 1.18972 0.08191
 C119 C 0.97680 0.62852 0.22553
 C120 C 0.96983 0.67410 0.20524
 C121 C 0.98242 0.68111 0.15629
 C122 C 1.00198 0.64151 0.12766
 C123 C 1.00874 0.59586 0.14781
 C124 C 0.99624 0.58867 0.19708
 N125 N 0.97592 0.72870 0.13704
 N126 N 0.98875 0.73813 0.09355
 C127 C 0.98349 0.78584 0.07437
 C128 C 1.00411 0.79445 0.02885
 C129 C 1.00333 0.84123 0.01077
 C130 C 0.98155 0.88193 0.03707
 C131 C 0.95902 0.87142 0.08235
 C132 C 0.96030 0.82469 0.10084
 H133 H 0.96635 0.62452 0.26336
 H134 H 0.95476 0.70420 0.22786
 H135 H 1.01232 0.64585 0.08981
 H136 H 1.02465 0.56642 0.12491
 H137 H 1.02262 0.76502 0.00789
 H138 H 1.02330 0.84503 -0.02274
 H139 H 0.94352 0.89920 0.10625
 H140 H 0.94417 0.81931 0.13647
 C141 C 1.07181 1.37053 -0.18383
 C142 C 1.07199 1.32673 -0.16016
 C143 C 1.02920 1.31039 -0.13950
 C144 C 0.98668 1.34007 -0.13921
 C145 C 0.98614 1.38357 -0.16358
 C146 C 1.02771 1.39772 -0.18995
 N147 N 1.02899 1.26231 -0.12212
 N148 N 0.99403 1.24781 -0.09617
 C149 C 0.99247 1.19861 -0.08231
 C150 C 0.96633 1.18785 -0.04065
 C151 C 0.96384 1.14008 -0.02664
 C152 C 0.98666 1.10062 -0.05397
 C153 C 1.01054 1.11277 -0.09779
 C154 C 1.01428 1.16082 -0.11127
 H155 H 1.10646 1.38192 -0.19761
 H156 H 1.10546 1.30492 -0.15877
 H157 H 0.95335 1.32866 -0.12215
 H158 H 0.95237 1.40505 -0.16381
 H159 H 0.94793 1.21665 -0.01869
 H160 H 0.94174 1.13499 0.00511
 H161 H 1.02544 1.08592 -0.12305
 H162 H 1.03311 1.16831 -0.14506
 C163 C 0.98963 0.58296 -0.15579
 C164 C 0.98028 0.62994 -0.13623
 C165 C 0.98992 0.67022 -0.16364
 C166 C 1.00814 0.66308 -0.21160
 C167 C 1.01632 0.61608 -0.23186
 C168 C 1.00773 0.57493 -0.20416
 N169 N 0.98138 0.71780 -0.14172
 N170 N 1.00144 0.75494 -0.15807
 C171 C 0.99305 0.80221 -0.13545
 C172 C 1.02868 0.83648 -0.13933
 C173 C 1.02367 0.88103 -0.11350
 C174 C 0.98203 0.89440 -0.08418
 C175 C 0.94529 0.85976 -0.08356
 C176 C 0.95076 0.81436 -0.10799
 H177 H 0.98055 0.55323 -0.13314
 H178 H 0.96589 0.63499 -0.09926
 H179 H 1.01581 0.69384 -0.23353
 H180 H 1.03101 0.61283 -0.26865
 H181 H 1.06162 0.82784 -0.16066
 H182 H 1.05354 0.90424 -0.11684
 H183 H 0.91229 0.86604 -0.06372
 H184 H 0.92206 0.78861 -0.10504
 C185 C 1.21944 1.04769 0.35199
 C186 C 1.19784 1.04635 0.30630
 C187 C 1.15819 1.01731 0.29724
 C188 C 1.13938 0.99004 0.33512
 C189 C 1.16032 0.99223 0.38156
 C190 C 1.20042 1.02159 0.39096
 N191 N 1.13880 1.01574 0.24898
 N192 N 1.11062 0.98296 0.23379
 C193 C 1.09172 0.98243 0.18525
 C194 C 1.06678 0.94240 0.16818
 C195 C 1.04669 0.94149 0.12164
 C196 C 1.04968 0.98065 0.09007
 C197 C 1.07662 1.02018 0.10809
 C198 C 1.09742 1.02116 0.15439
 H199 H 1.25209 1.06816 0.35564
 H200 H 1.21319 1.06684 0.27718
 H201 H 1.10880 0.96700 0.32879
 H202 H 1.14588 0.97013 0.40985
 H203 H 1.06254 0.91170 0.19118
 H204 H 1.02884 0.90953 0.11192
 H205 H 1.08199 1.05118 0.08710
 H206 H 1.11708 1.05273 0.16631
 C207 C 1.22086 1.03991 -0.38174
 C208 C 1.20050 1.04072 -0.33454
 C209 C 1.15569 1.01976 -0.32568
 C210 C 1.13100 0.99829 -0.36517
 C211 C 1.15136 0.99751 -0.41258
 C212 C 1.19680 1.01798 -0.42137
 N213 N 1.13674 1.02021 -0.27637
 N214 N 1.09628 1.00177 -0.26540
 C215 C 1.07749 1.00132 -0.21610
 C216 C 1.03333 0.97966 -0.20749
 C217 C 1.01452 0.97691 -0.16003
 C218 C 1.03852 0.99614 -0.11844
 C219 C 1.08365 1.01772 -0.12848
 C220 C 1.10275 1.02035 -0.17613
 H221 H 1.25533 1.05699 -0.38708
 H222 H 1.21986 1.05762 -0.30463
 H223 H 1.09630 0.98175 -0.35937
 H224 H 1.13201 0.97999 -0.44211
 H225 H 1.01366 0.96380 -0.23776
 H226 H 0.98195 0.95688 -0.15681
 H227 H 1.10598 1.03103 -0.09996
 H228 H 1.13763 1.03670 -0.18150
 C229 C 0.85318 1.01225 0.40919
 C230 C 0.87938 1.01013 0.36498
 C231 C 0.85812 0.99175 0.32249
 C232 C 0.81059 0.97485 0.32437
 C233 C 0.78443 0.97716 0.36804
 C234 C 0.80516 0.99577 0.41115
 N235 N 0.88397 0.99285 0.27710
 N236 N 0.86463 0.97694 0.23815
 C237 C 0.88750 0.97942 0.19153
 C238 C 0.86303 0.96209 0.15091
 C239 C 0.88296 0.96629 0.10440
 C240 C 0.92853 0.98745 0.09677
 C241 C 0.95162 1.00607 0.13896
 C242 C 0.93185 1.00178 0.18552
 H243 H 0.87062 1.02772 0.44082
 H244 H 0.91594 1.02364 0.36362
 H245 H 0.79315 0.96075 0.29190
 H246 H 0.74737 0.96483 0.36818
 H247 H 0.82774 0.94622 0.15522
 H248 H 0.86042 0.95518 0.07529
 H249 H 0.98423 1.02617 0.13692
 H250 H 0.95077 1.01694 0.21662
 C251 C 0.81040 1.06587 -0.39525
 C252 C 0.82871 1.07122 -0.34828
 C253 C 0.81520 1.03945 -0.31235
 C254 C 0.78073 1.00420 -0.32264
 C255 C 0.76204 0.99916 -0.36932
 C256 C 0.77787 1.02901 -0.40622
 N257 N 0.84017 1.04058 -0.26726
 N258 N 0.83722 1.00602 -0.23816
 C259 C 0.86397 1.00545 -0.19417
 C260 C 0.86273 0.96475 -0.16597
 C261 C 0.89024 0.96251 -0.12387
 C262 C 0.91838 1.00162 -0.10724
 C263 C 0.92057 1.04117 -0.13809
 C264 C 0.89345 1.04362 -0.18032
 H265 H 0.82254 1.08957 -0.42328
 H266 H 0.85522 1.09854 -0.34050
 H267 H 0.76963 0.97944 -0.29516
 H268 H 0.73731 0.97022 -0.37712
 H269 H 0.84102 0.93430 -0.17705
 H270 H 0.88838 0.92982 -0.10459
 H271 H 0.94275 1.07095 -0.13060
 H272 H 0.89608 1.07521 -0.20237
 C273 C 1.34516 1.22505 -0.02030
 C274 C 1.30003 1.20389 -0.02392
 C275 C 1.29471 1.15561 -0.01252
 C276 C 1.33540 1.12834 0.00289
 C277 C 1.38113 1.14937 0.00629
 C278 C 1.38718 1.19821 -0.00611
 N279 N 1.24722 1.13602 -0.01599
 N280 N 1.23771 1.09342 -0.00342
 C281 C 1.18941 1.07554 -0.00668
 C282 C 1.17952 1.03110 0.01279
 C283 C 1.13226 1.01404 0.01261
 C284 C 1.09265 1.04002 -0.00803
 C285 C 1.10407 1.08513 -0.02753
 C286 C 1.15126 1.10261 -0.02692
 H287 H 1.34733 1.26301 -0.02868
 H288 H 1.26880 1.22546 -0.03522
 H289 H 1.33182 1.09094 0.01259
 H290 H 1.41078 1.12711 0.01949
 H291 H 1.20833 1.01007 0.02950
 H292 H 1.12739 0.98106 0.03122
 H293 H 1.07675 1.10903 -0.04085
 H294 H 1.15760 1.13778 -0.04157
 C295 C 0.61068 1.22430 -0.00307
 C296 C 0.65688 1.20105 -0.00066
 C297 C 0.66236 1.15580 0.02086
 C298 C 0.62117 1.13454 0.04017
 C299 C 0.57492 1.15693 0.03670
 C300 C 0.56855 1.20220 0.01478
 N301 N 0.70885 1.13039 0.02328
 N302 N 0.74543 1.14039 -0.00331
 C303 C 0.79166 1.11446 -0.00086
 C304 C 0.82563 1.11765 -0.03875
 C305 C 0.87007 1.09127 -0.03838
 C306 C 0.88383 1.06157 0.00053
 C307 C 0.84885 1.06019 0.03897
 C308 C 0.80372 1.08560 0.03832
 H309 H 0.60824 1.25832 -0.02131
 H310 H 0.68824 1.21835 -0.01576
 H311 H 0.62481 1.09991 0.05733
 H312 H 0.54436 1.13895 0.05252
 H313 H 0.81731 1.13995 -0.06942
 H314 H 0.89360 1.09559 -0.06895
 H315 H 0.85508 1.04007 0.07037
 H316 H 0.77837 1.08275 0.06869
 C317 C 1.39404 0.84378 -0.04243
 C318 C 1.34808 0.86516 -0.05051
 C319 C 1.30592 0.84147 -0.03719
 C320 C 1.30966 0.79515 -0.01827
 C321 C 1.35500 0.77370 -0.01069
 C322 C 1.39789 0.79818 -0.02102
 N323 N 1.25945 0.86535 -0.04098
 N324 N 1.22333 0.85116 -0.01639
 C325 C 1.17617 0.87353 -0.01912
 C326 C 1.14238 0.86706 0.01813
 C327 C 1.09724 0.89158 0.01809
 C328 C 1.08339 0.92183 -0.02014
 C329 C 1.11829 0.92624 -0.05787
 C330 C 1.16380 0.90278 -0.05758
 H331 H 1.42576 0.86330 -0.05278
 H332 H 1.34531 0.90075 -0.06580
 H333 H 1.27747 0.77572 -0.00872
 H334 H 1.35669 0.73797 0.00444
 H335 H 1.15173 0.84449 0.04831
 H336 H 1.07421 0.88691 0.04899
 H337 H 1.11214 0.94839 -0.08765
 H338 H 1.18951 0.90807 -0.08714
 C339 C 0.61833 0.76628 0.02751
 C340 C 0.66473 0.78532 0.02897
 C341 C 0.67528 0.82629 0.00307
 C342 C 0.63899 0.84802 -0.02506
 C343 C 0.59261 0.82890 -0.02699
 C344 C 0.58118 0.78767 -0.00059
 N345 N 0.72311 0.84498 0.00580
 N346 N 0.73358 0.88491 -0.01280
 C347 C 0.78157 0.90327 -0.01093
 C348 C 0.78984 0.94840 -0.02960
 C349 C 0.83651 0.96668 -0.02980
 C350 C 0.87722 0.94061 -0.01147
 C351 C 0.86742 0.89469 0.00722
 C352 C 0.82066 0.87638 0.00760
 H353 H 0.61194 0.73607 0.05037
 H354 H 0.69243 0.76851 0.05108
 H355 H 0.64656 0.87952 -0.04594
 H356 H 0.56644 0.84607 -0.05043
 H357 H 0.76007 0.96932 -0.04485
 H358 H 0.84005 1.00047 -0.04727
 H359 H 0.89541 0.87096 0.01965
 H360 H 0.81538 0.84073 0.02162
 C361 C 0.93662 0.47778 0.36886
 C362 C 0.89320 0.47752 0.39634
 C363 C 0.85359 0.50807 0.38496
 C364 C 0.85952 0.54211 0.34845
 C365 C 0.90319 0.54276 0.32134
 C366 C 0.94134 0.50931 0.33009
 N367 N 0.80695 0.50105 0.40771
 N368 N 0.76831 0.52182 0.39244
 C369 C 0.72063 0.51490 0.41267
 C370 C 0.68183 0.54262 0.39561
 C371 C 0.63513 0.53884 0.41548
 C372 C 0.62391 0.50536 0.45150
 C373 C 0.66448 0.47826 0.46892
 C374 C 0.71184 0.48253 0.44973
 H375 H 0.96530 0.45105 0.37555
 H376 H 0.88931 0.45123 0.42437
 H377 H 0.82960 0.56639 0.33911
 H378 H 0.90552 0.56642 0.29081
 H379 H 0.68833 0.56970 0.36888
 H380 H 0.61012 0.56826 0.40808
 H381 H 0.66052 0.45354 0.49790
 H382 H 0.74149 0.46096 0.46428
 C383 C 0.10964 0.53211 0.34429
 C384 C 0.15318 0.53655 0.37004
 C385 C 0.19833 0.52395 0.34736
 C386 C 0.19950 0.50852 0.29788
 C387 C 0.15615 0.50372 0.27233
 C388 C 0.11069 0.51438 0.29553
 N389 N 0.24190 0.52448 0.37578
 N390 N 0.28409 0.51470 0.35698
 C391 C 0.32747 0.51293 0.38564
 C392 C 0.32539 0.51469 0.43664
 C393 C 0.36812 0.51149 0.46359
 C394 C 0.41502 0.50710 0.44131
 C395 C 0.41573 0.50512 0.38952
 C396 C 0.37299 0.50772 0.36232
 H397 H 0.07517 0.54022 0.36314
 H398 H 0.15165 0.54852 0.40817
 H399 H 0.23375 0.49874 0.27933
 H400 H 0.15809 0.49050 0.23458
 H401 H 0.29062 0.51806 0.45593
 H402 H 0.36261 0.51272 0.50202
 H403 H 0.44936 0.50168 0.36885
 H404 H 0.37552 0.50589 0.32279
 C405 C 0.91556 0.53473 0.67879
 C406 C 0.86976 0.54210 0.65780
 C407 C 0.83971 0.50294 0.64825
 C408 C 0.85702 0.45590 0.65730
 C409 C 0.90256 0.44837 0.67786
 C410 C 0.93206 0.48772 0.69085
 N411 N 0.79153 0.51163 0.63039
 N412 N 0.76057 0.47825 0.62802
 C413 C 0.71235 0.48635 0.61008
 C414 C 0.67953 0.44896 0.61000
 C415 C 0.63287 0.45577 0.59102
 C416 C 0.61699 0.49985 0.57058
 C417 C 0.65068 0.53738 0.57376
 C418 C 0.69716 0.53105 0.59271
 H419 H 0.93606 0.56642 0.68819
 H420 H 0.85694 0.57864 0.65056
 H421 H 0.83514 0.42484 0.64889
 H422 H 0.91439 0.41118 0.68306
 H423 H 0.69013 0.41425 0.62449
 H424 H 0.60953 0.42604 0.59349
 H425 H 0.64273 0.57266 0.56280
 H426 H 0.72133 0.56128 0.59333
 C427 C 0.12039 0.45351 0.65326
 C428 C 0.16559 0.45837 0.63087
 C429 C 0.18937 0.50209 0.63519
 C430 C 0.16495 0.54304 0.65749
 C431 C 0.11833 0.53865 0.67869
 C432 C 0.09723 0.49285 0.67963
 N433 N 0.23958 0.50136 0.62049
 N434 N 0.26857 0.53568 0.62848
 C435 C 0.31895 0.52847 0.61440
 C436 C 0.34895 0.56785 0.60986
 C437 C 0.39620 0.56054 0.59010
 C438 C 0.41369 0.51431 0.57165
 C439 C 0.38642 0.47505 0.58625
 C440 C 0.33925 0.48167 0.60540
 H441 H 0.10436 0.41813 0.65165
 H442 H 0.18377 0.42686 0.61301
 H443 H 0.18272 0.57742 0.66065
 H444 H 0.10170 0.56958 0.69883
 H445 H 0.33549 0.60422 0.62019
 H446 H 0.41892 0.59163 0.58886
 H447 H 0.39974 0.43875 0.58207
 H448 H 0.31844 0.44998 0.61257
 C449 C 0.47207 0.74264 0.14755
 C450 C 0.47125 0.72416 0.19413
 C451 C 0.48928 0.67719 0.20135
 C452 C 0.50948 0.64903 0.16155
 C453 C 0.50992 0.66734 0.11477
 C454 C 0.49031 0.71394 0.10724
 N455 N 0.48675 0.65871 0.24926
 N456 N 0.50790 0.61855 0.25834
 C457 C 0.50693 0.59859 0.30545
 C458 C 0.54063 0.56207 0.31470
 C459 C 0.54266 0.54291 0.36063
 C460 C 0.51293 0.55991 0.40060
 C461 C 0.47418 0.59220 0.38740
 C462 C 0.47249 0.61314 0.34163
 H463 H 0.45776 0.77921 0.14299
 H464 H 0.45624 0.74634 0.22461
 H465 H 0.52384 0.61253 0.16637
 H466 H 0.52373 0.64435 0.08436
 H467 H 0.56617 0.54873 0.28629
 H468 H 0.56971 0.51568 0.36367
 H469 H 0.44240 0.59902 0.41021
 H470 H 0.44316 0.63879 0.33391
 C471 C 0.47783 0.62024 0.92882
 C472 C 0.48230 0.59436 0.88411
 C473 C 0.51728 0.60688 0.84958
 C474 C 0.55198 0.64122 0.86259
 C475 C 0.54801 0.66662 0.90769
 C476 C 0.50900 0.65831 0.93960
 N477 N 0.51214 0.58979 0.80007
 N478 N 0.53593 0.60741 0.76509
 C479 C 0.52783 0.59299 0.71528
 C480 C 0.56095 0.60540 0.67952
 C481 C 0.55517 0.58973 0.63102
 C482 C 0.51487 0.56307 0.61496
 C483 C 0.48198 0.55098 0.65297
 C484 C 0.48781 0.56610 0.70168
 H485 H 0.44714 0.61389 0.95284
 H486 H 0.45553 0.56782 0.87453
 H487 H 0.57970 0.65108 0.83658
 H488 H 0.57191 0.69637 0.91515
 H489 H 0.59264 0.62567 0.68952
 H490 H 0.58431 0.59771 0.60738
 H491 H 0.45507 0.52424 0.64806
 H492 H 0.46214 0.55464 0.72900
 C493 C 0.43717 0.33863 0.10898
 C494 C 0.44037 0.35745 0.15678
 C495 C 0.48488 0.35738 0.18055
 C496 C 0.52729 0.34098 0.15429
 C497 C 0.52424 0.32213 0.10582
 C498 C 0.47855 0.31837 0.08326
 N499 N 0.48504 0.37338 0.23123
 N500 N 0.52355 0.37588 0.25637
 C501 C 0.52238 0.39262 0.30687
 C502 C 0.56495 0.40902 0.32755
 C503 C 0.56415 0.43147 0.37417
 C504 C 0.52089 0.43859 0.40277
 C505 C 0.47935 0.41607 0.38330
 C506 C 0.47955 0.39488 0.33570
 H507 H 0.40159 0.33918 0.09250
 H508 H 0.40757 0.37110 0.17592
 H509 H 0.56241 0.34122 0.17167
 H510 H 0.55713 0.30719 0.08787
 H511 H 0.59859 0.40719 0.30623
 H512 H 0.59757 0.44737 0.38456
 H513 H 0.44529 0.41688 0.40343
 H514 H 0.44609 0.38097 0.32129
 C515 C 0.52837 0.34406 0.91490
 C516 C 0.53642 0.37096 0.87281
 C517 C 0.51885 0.35518 0.82712
 C518 C 0.49571 0.31077 0.82370
 C519 C 0.48773 0.28419 0.86507
 C520 C 0.50180 0.30112 0.91204
 N521 N 0.52385 0.38425 0.78473
 N522 N 0.50166 0.37332 0.74538
 C523 C 0.50465 0.39947 0.70105
 C524 C 0.47655 0.38479 0.66145
 C525 C 0.47925 0.40804 0.61698
 C526 C 0.51004 0.44735 0.61002
 C527 C 0.53880 0.46086 0.65071
 C528 C 0.53593 0.43783 0.69538
 H529 H 0.54033 0.35867 0.94972
 H530 H 0.55505 0.40486 0.87614
 H531 H 0.48327 0.29653 0.78887
 H532 H 0.47079 0.24966 0.85944
 H533 H 0.45327 0.35410 0.66459
 H534 H 0.46066 0.39146 0.58693
 H535 H 0.56352 0.49018 0.64914
 H536 H 0.55848 0.44983 0.72525
 C537 C 0.65086 0.91474 0.54678
 C538 C 0.62691 0.87218 0.55680
 C539 C 0.64942 0.82699 0.54495
 C540 C 0.69740 0.82458 0.52633
 C541 C 0.72096 0.86656 0.51579
 C542 C 0.69750 0.91229 0.52406
 N543 N 0.62228 0.78389 0.54734
 N544 N 0.63974 0.74540 0.52584
 C545 C 0.61642 0.70031 0.52380
 C546 C 0.64009 0.66207 0.49805
 C547 C 0.61947 0.61699 0.49470
 C548 C 0.57339 0.60814 0.51516
 C549 C 0.55144 0.64758 0.54377
 C550 C 0.57213 0.69308 0.54750
 H551 H 0.63100 0.94896 0.55342
 H552 H 0.58995 0.87443 0.57131
 H553 H 0.71631 0.79004 0.51825
 H554 H 0.75786 0.86276 0.50132
 H555 H 0.67607 0.66663 0.48238
 H556 H 0.64463 0.58854 0.48419
 H557 H 0.51711 0.64390 0.56286
 H558 H 0.55357 0.72227 0.56872
 C559 C 0.65139 0.09698 0.54333
 C560 C 0.62891 0.14278 0.54957
 C561 C 0.61765 0.16957 0.50893
 C562 C 0.62295 0.14815 0.46188
 C563 C 0.64375 0.10155 0.45554
 C564 C 0.66138 0.07689 0.49604
 N565 N 0.60612 0.21989 0.51623
 N566 N 0.61791 0.25028 0.48479
 C567 C 0.60728 0.30080 0.49356
 C568 C 0.62178 0.33389 0.45972
 C569 C 0.60810 0.38296 0.46650
 C570 C 0.57813 0.40064 0.50621
 C571 C 0.56864 0.36632 0.54186
 C572 C 0.58263 0.31773 0.53593
 H573 H 0.66435 0.07979 0.57563
 H574 H 0.62442 0.15920 0.58600
 H575 H 0.61303 0.16826 0.43014
 H576 H 0.64899 0.08632 0.41874
 H577 H 0.64288 0.32162 0.42755
 H578 H 0.62113 0.40578 0.43963
 H579 H 0.54975 0.37504 0.57468
 H580 H 0.57252 0.29320 0.56402
 C581 C 0.29714 0.89848 0.53690
 C582 C 0.31366 0.85020 0.54255
 C583 C 0.34362 0.82602 0.50666
 C584 C 0.35765 0.85142 0.46540
 C585 C 0.34050 0.89917 0.45936
 C586 C 0.30962 0.92308 0.49471
 N587 N 0.35925 0.77608 0.51238
 N588 N 0.39325 0.75637 0.48538
 C589 C 0.41153 0.70717 0.48880
 C590 C 0.45878 0.69618 0.47240
 C591 C 0.47908 0.64954 0.47598
 C592 C 0.45440 0.61132 0.49828
 C593 C 0.40363 0.62142 0.50538
 C594 C 0.38304 0.66903 0.50386
 H595 H 0.27270 0.91574 0.56428
 H596 H 0.30260 0.83141 0.57467
 H597 H 0.38077 0.83393 0.43707
 H598 H 0.35034 0.91714 0.42633
 H599 H 0.48030 0.72402 0.45663
 H600 H 0.51449 0.64358 0.45891
 H601 H 0.37883 0.59319 0.51146
 H602 H 0.34469 0.67554 0.51242
 C603 C 0.28508 0.13884 0.53859
 C604 C 0.30182 0.18638 0.54255
 C605 C 0.34449 0.19881 0.51781
 C606 C 0.37176 0.16202 0.49139
 C607 C 0.35489 0.11470 0.48725
 C608 C 0.31092 0.10290 0.50993
 N609 N 0.35842 0.24879 0.51803
 N610 N 0.39699 0.26073 0.49566
 C611 C 0.41411 0.30928 0.49370
 C612 C 0.46173 0.31479 0.47779
 C613 C 0.48147 0.36053 0.47744
 C614 C 0.45588 0.40298 0.49570
 C615 C 0.40506 0.39759 0.50181
 C616 C 0.38471 0.35127 0.50372
 H617 H 0.25017 0.13102 0.55495
 H618 H 0.28034 0.21405 0.56310
 H619 H 0.40494 0.17027 0.47199
 H620 H 0.37458 0.08801 0.46373
 H621 H 0.48389 0.28331 0.46537
 H622 H 0.51623 0.36173 0.45969
 H623 H 0.38057 0.42863 0.50557
 H624 H 0.34623 0.34842 0.51190
   
