data_POSCAR
  _audit_creation_date              2014-09-24
  _audit_creation_method            'ToBaCCo'
  _symmetry_space_group_name_H-M    'P1'
  _symmetry_Int_Tables_number       1
  _symmetry_cell_setting            triclinic
  loop_
  _symmetry_equiv_pos_as_xyz
 x,y,z
_cell_length_a 37.4661
_cell_length_b 35.7017
_cell_length_c 36.3023
_cell_angle_alpha 87.573100
_cell_angle_beta 90.621800
_cell_angle_gamma 90.600500
loop_
  _atom_site_label
  _atom_site_type_symbol
  _atom_site_fract_x
  _atom_site_fract_y
  _atom_site_fract_z
C1 C 0.16699 0.21090 0.24693
 C2 C 0.19323 0.18410 0.25566
 C3 C 0.22432 0.18221 0.23463
 C4 C 0.22921 0.20800 0.20469
 C5 C 0.20264 0.23413 0.19475
 C6 C 0.17178 0.23551 0.21606
 H7 H 0.18944 0.16460 0.27904
 H8 H 0.25404 0.20860 0.18982
 H9 H 0.15123 0.25530 0.20775
 C10 C 0.68434 0.69946 0.74246
 C11 C 0.71191 0.67438 0.75118
 C12 C 0.74023 0.66985 0.72687
 C13 C 0.74124 0.69164 0.69355
 C14 C 0.71353 0.71682 0.68433
 C15 C 0.68495 0.71987 0.70856
 H16 H 0.71120 0.65805 0.77705
 H17 H 0.76322 0.68889 0.67486
 H18 H 0.66313 0.73831 0.70075
 C19 C 0.32748 0.80123 0.73692
 C20 C 0.30126 0.82814 0.74172
 C21 C 0.26982 0.82926 0.72016
 C22 C 0.26513 0.80240 0.69285
 C23 C 0.29154 0.77529 0.68731
 C24 C 0.32260 0.77521 0.70934
 H25 H 0.30546 0.84841 0.76283
 H26 H 0.24196 0.80317 0.67504
 H27 H 0.34328 0.75514 0.70432
 C28 C 0.79810 0.28861 0.23213
 C29 C 0.77292 0.31747 0.23455
 C30 C 0.74379 0.32059 0.20991
 C31 C 0.74001 0.29469 0.18229
 C32 C 0.76450 0.26571 0.17894
 C33 C 0.79340 0.26253 0.20404
 H34 H 0.77667 0.33825 0.25517
 H35 H 0.71775 0.29723 0.16302
 H36 H 0.81121 0.23926 0.20190
 C37 C 0.81910 0.71304 0.26462
 C38 C 0.79409 0.68354 0.26283
 C39 C 0.76666 0.67935 0.28886
 C40 C 0.76455 0.70486 0.31693
 C41 C 0.78837 0.73541 0.31847
 C42 C 0.81574 0.73916 0.29243
 H43 H 0.79687 0.66323 0.24177
 H44 H 0.74425 0.70053 0.33771
 H45 H 0.83375 0.76293 0.29375
 C46 C 0.32177 0.20651 -0.23239
 C47 C 0.31907 0.23110 -0.20307
 C48 C 0.29113 0.22752 -0.17771
 C49 C 0.26588 0.19848 -0.18111
 C50 C 0.26767 0.17392 -0.21010
 C51 C 0.29571 0.17806 -0.23546
 H52 H 0.33805 0.25362 -0.19949
 H53 H 0.24496 0.19446 -0.16093
 H54 H 0.29809 0.15832 -0.25711
 C55 C 0.69045 0.27695 -0.24998
 C56 C 0.69533 0.25258 -0.21872
 C57 C 0.72521 0.25603 -0.19538
 C58 C 0.75078 0.28427 -0.20341
 C59 C 0.74633 0.30895 -0.23431
 C60 C 0.71661 0.30462 -0.25755
 H61 H 0.67642 0.23042 -0.21198
 H62 H 0.77467 0.28623 -0.18665
 H63 H 0.71353 0.32370 -0.28142
 C64 C 0.18258 0.79287 0.26554
 C65 C 0.20879 0.82093 0.26008
 C66 C 0.23753 0.82445 0.28527
 C67 C 0.23928 0.79920 0.31607
 C68 C 0.21310 0.77122 0.32213
 C69 C 0.18466 0.76864 0.29701
 H70 H 0.20636 0.83933 0.23583
 H71 H 0.26054 0.80248 0.33611
 H72 H 0.16386 0.74796 0.30256
 C73 C 0.46007 0.43736 0.48989
 C74 C 0.43595 0.46613 0.49585
 C75 C 0.43250 0.49687 0.47051
 C76 C 0.45478 0.49911 0.43955
 C77 C 0.47942 0.47057 0.43325
 C78 C 0.48136 0.43955 0.45824
 H79 H 0.42035 0.46436 0.52074
 H80 H 0.45184 0.52249 0.41982
 H81 H 0.49926 0.41695 0.45258
 C82 C -0.03082 -0.07102 0.98315
 C83 C -0.00873 -0.06928 0.95210
 C84 C -0.01390 -0.04196 0.92373
 C85 C -0.04202 -0.01633 0.92635
 C86 C -0.06454 -0.01729 0.95729
 C87 C -0.05811 -0.04475 0.98573
 H88 H 0.01325 -0.08846 0.95009
 H89 H -0.04696 0.00398 0.90392
 H90 H -0.07408 -0.04668 1.01026
 C91 C 1.04801 0.56908 0.98844
 C92 C 1.02301 0.56747 0.95930
 C93 C 1.02666 0.54147 0.93175
 C94 C 1.05627 0.51754 0.93295
 C95 C 1.08138 0.51858 0.96179
 C96 C 1.07728 0.54483 0.98923
 H97 H 1.00094 0.58681 0.95745
 H98 H 1.06032 0.49827 0.91117
 H99 H 1.09706 0.54708 1.01099
 C100 C 0.53343 0.06357 0.49111
 C101 C 0.50899 0.06322 0.46155
 C102 C 0.50961 0.03477 0.43622
 C103 C 0.53574 0.00680 0.44007
 C104 C 0.56108 0.00680 0.46903
 C105 C 0.55946 0.03563 0.49450
 H106 H 0.48974 0.08547 0.45760
 H107 H 0.53729 -0.01439 0.41969
 H108 H 0.57810 0.03719 0.51725
 C109 C -0.05328 0.06887 0.51427
 C110 C -0.08143 0.04292 0.51076
 C111 C -0.08159 0.00843 0.53128
 C112 C -0.05298 0.00075 0.55563
 C113 C -0.02543 0.02686 0.56072
 C114 C -0.02552 0.06091 0.53979
 H115 H -0.10245 0.04994 0.49120
 H116 H -0.05254 -0.02554 0.57177
 H117 H -0.00411 0.08096 0.54337
 C118 C 0.46189 0.56888 0.00700
 C119 C 0.43203 0.54585 0.00096
 C120 C 0.42470 0.51443 0.02416
 C121 C 0.44754 0.50637 0.05438
 C122 C 0.47756 0.52900 0.06110
 C123 C 0.48493 0.56001 0.03696
 H124 H 0.41429 0.55240 -0.02218
 H125 H 0.44177 0.48311 0.07351
 H126 H 0.50903 0.57628 0.04080
 C127 C 0.53230 -0.05882 0.01619
 C128 C 0.50719 -0.05140 0.04332
 C129 C 0.51271 -0.02309 0.06828
 C130 C 0.54401 -0.00118 0.06583
 C131 C 0.56961 -0.00753 0.03885
 C132 C 0.56374 -0.03657 0.01416
 H133 H 0.48292 -0.06819 0.04541
 H134 H 0.54849 0.02137 0.08437
 H135 H 0.58426 -0.04244 -0.00527
 C136 C 1.03947 0.43255 0.50836
 C137 C 1.01682 0.43141 0.53903
 C138 C 1.02226 0.45573 0.56780
 C139 C 1.05165 0.48047 0.56657
 C140 C 1.07494 0.48231 0.53640
 C141 C 1.06850 0.45791 0.50726
 H142 H 0.99509 0.41123 0.54106
 H143 H 1.05686 0.49812 0.58961
 H144 H 1.08583 0.45776 0.48371
 C145 C 0.43551 0.03260 0.20679
 H146 H 0.43576 0.05536 0.22555
 C147 C 0.46169 0.03101 0.17983
 H148 H 0.48200 0.05279 0.17772
 C149 C 0.40932 -0.02412 0.18754
 H150 H 0.38960 -0.04616 0.19136
 C151 C 0.43490 -0.02675 0.16014
 H152 H 0.43444 -0.05112 0.14342
 N153 N 0.40982 0.00548 0.20989
 C154 C 0.32244 0.05679 0.26708
 H155 H 0.31982 0.03730 0.29056
 C156 C 0.29807 0.08589 0.26172
 H157 H 0.27683 0.08809 0.28137
 C158 C 0.35208 0.07506 0.21177
 H159 H 0.37246 0.07009 0.19180
 C160 C 0.32834 0.10453 0.20534
 H161 H 0.33108 0.12236 0.18061
 Zn162 Zn 0.37697 0.00863 0.24877
 N163 N 0.34868 0.05188 0.24223
 C164 C 0.40291 0.03818 0.31597
 N165 N 0.40428 0.00941 0.29268
 C166 C 0.42673 -0.01985 0.29917
 C167 C 0.44887 -0.02114 0.33028
 C168 C 0.42472 0.03809 0.34745
 C169 C 0.32341 -0.03859 0.22106
 C170 C 0.29788 -0.06741 0.22242
 C171 C 0.31644 -0.08289 0.28510
 C172 C 0.34183 -0.05409 0.28237
 N173 N 0.34505 -0.03281 0.25063
 H174 H 0.38511 0.06134 0.31007
 H175 H 0.42744 -0.04218 0.27996
 H176 H 0.46665 -0.04464 0.33494
 H177 H 0.42259 0.06096 0.36586
 H178 H 0.32578 -0.02050 0.19652
 H179 H 0.28091 -0.07161 0.19858
 H180 H 0.31392 -0.09808 0.31130
 H181 H 0.35817 -0.04805 0.30612
 C182 C 0.30077 0.11020 0.23030
 C183 C 0.46135 0.00133 0.15579
 C184 C 0.29417 -0.09020 0.25464
 C185 C 0.44844 0.00824 0.35466
 C186 C 0.06497 -0.01094 0.68835
 H187 H 0.06162 -0.03669 0.70482
 C188 C 0.04166 -0.00266 0.65900
 H189 H 0.02011 -0.02214 0.65369
 C190 C 0.09587 0.04665 0.67750
 H191 H 0.11650 0.06619 0.68531
 C192 C 0.07308 0.05611 0.64791
 H193 H 0.07664 0.08274 0.63291
 N194 N 0.09164 0.01340 0.69678
 C195 C 0.16907 -0.05654 0.75747
 H196 H 0.17065 -0.04225 0.78313
 C197 C 0.19069 -0.08747 0.75220
 H198 H 0.20786 -0.09718 0.77467
 C199 C 0.14403 -0.06108 0.69764
 H200 H 0.12637 -0.05028 0.67611
 C201 C 0.16535 -0.09198 0.69110
 H202 H 0.16358 -0.10487 0.66466
 Zn203 Zn 0.12057 0.00053 0.73830
 N204 N 0.14632 -0.04396 0.73039
 C205 C 0.08842 -0.03751 0.80077
 N206 N 0.08973 -0.00535 0.77936
 C207 C 0.06807 0.02389 0.78594
 C208 C 0.04453 0.02185 0.81552
 C209 C 0.06527 -0.04076 0.83074
 C210 C 0.17925 0.04585 0.71940
 C211 C 0.20456 0.07446 0.72288
 C212 C 0.17910 0.08821 0.78159
 C213 C 0.15425 0.05929 0.77696
 N214 N 0.15446 0.03915 0.74599
 H215 H 0.10532 -0.06074 0.79474
 H216 H 0.06927 0.04898 0.76818
 H217 H 0.02775 0.04563 0.82039
 H218 H 0.06568 -0.06646 0.84749
 H219 H 0.17902 0.02916 0.69520
 H220 H 0.22385 0.07965 0.70119
 H221 H 0.17743 0.10438 0.80598
 H222 H 0.13469 0.05322 0.79805
 C223 C 0.18962 -0.10514 0.71823
 C224 C 0.04581 0.03118 0.63806
 C225 C 0.20480 0.09609 0.75425
 C226 C 0.04280 -0.01070 0.83850
 C227 C 0.55988 0.49362 0.19713
 H228 H 0.55535 0.46886 0.21476
 C229 C 0.53797 0.50067 0.16623
 H230 H 0.51647 0.48118 0.16088
 C231 C 0.59222 0.54998 0.18460
 H232 H 0.61280 0.56965 0.19221
 C233 C 0.57099 0.55814 0.15354
 H234 H 0.57586 0.58382 0.13732
 N235 N 0.58664 0.51794 0.20547
 C236 C 0.66483 0.45584 0.27332
 H237 H 0.66709 0.47448 0.29598
 C238 C 0.68699 0.42475 0.27227
 H239 H 0.70617 0.41951 0.29439
 C240 C 0.63769 0.44080 0.21652
 H241 H 0.61878 0.44745 0.19461
 C242 C 0.65937 0.40933 0.21435
 H243 H 0.65585 0.39174 0.19106
 Zn244 Zn 0.61470 0.50820 0.24857
 N245 N 0.64078 0.46327 0.24573
 C246 C 0.58308 0.47436 0.31267
 N247 N 0.58376 0.50547 0.28972
 C248 C 0.56190 0.53485 0.29517
 C249 C 0.53864 0.53393 0.32507
 C250 C 0.56032 0.47228 0.34292
 C251 C 0.67469 0.54957 0.22698
 C252 C 0.70120 0.57720 0.22838
 C253 C 0.67502 0.59828 0.28432
 C254 C 0.64895 0.57024 0.28180
 N255 N 0.64907 0.54684 0.25322
 H256 H 0.60026 0.45106 0.30770
 H257 H 0.56266 0.55912 0.27629
 H258 H 0.52159 0.55769 0.32910
 H259 H 0.56143 0.44761 0.36116
 H260 H 0.67431 0.53031 0.20475
 H261 H 0.72122 0.57917 0.20706
 H262 H 0.67356 0.61721 0.30670
 H263 H 0.62861 0.56733 0.30260
 C264 C 0.68489 0.40130 0.24230
 C265 C 0.54365 0.53328 0.14373
 C266 C 0.70179 0.60185 0.25740
 C267 C 0.53743 0.50229 0.34935
 C268 C 0.94481 0.51554 0.70385
 H269 H 0.94595 0.53918 0.72153
 C270 C 0.96785 0.51411 0.67412
 H271 H 0.98680 0.53683 0.66907
 C272 C 0.91848 0.45735 0.68911
 H273 H 0.89922 0.43529 0.69515
 C274 C 0.94113 0.45473 0.65898
 H275 H 0.93826 0.43077 0.64197
 N276 N 0.92042 0.48772 0.71046
 C277 C 0.83536 0.54429 0.76596
 H278 H 0.83396 0.52819 0.79185
 C279 C 0.81138 0.57342 0.75842
 H280 H 0.79146 0.57891 0.77876
 C281 C 0.86159 0.55429 0.70726
 H282 H 0.88050 0.54621 0.68692
 C283 C 0.83817 0.58356 0.69857
 H284 H 0.83969 0.59799 0.67177
 Zn285 Zn 0.89011 0.49392 0.75089
 N286 N 0.85999 0.53548 0.74061
 C287 C 0.91789 0.53193 0.81318
 N288 N 0.92005 0.50138 0.79220
 C289 C 0.94493 0.47456 0.79937
 C290 C 0.96845 0.47737 0.82911
 C291 C 0.94106 0.53594 0.84328
 C292 C 0.83640 0.44193 0.73361
 C293 C 0.81345 0.41120 0.73944
 C294 C 0.84063 0.40010 0.79948
 C295 C 0.86299 0.43104 0.79251
 N296 N 0.86079 0.45101 0.75982
 H297 H 0.89823 0.55319 0.80669
 H298 H 0.94628 0.45077 0.78195
 H299 H 0.98793 0.45554 0.83444
 H300 H 0.93817 0.56009 0.85991
 H301 H 0.83456 0.45888 0.70825
 H302 H 0.79385 0.40542 0.71834
 H303 H 0.84274 0.38460 0.82571
 H304 H 0.88173 0.43928 0.81353
 C305 C 0.81275 0.59365 0.72428
 C306 C 0.96624 0.48354 0.65114
 C307 C 0.81562 0.38957 0.77275
 C308 C 0.96689 0.50834 0.85148
 C309 C 0.20975 0.42474 0.02398
 H310 H 0.22793 0.42323 0.04734
 C311 C 0.18258 0.45120 0.02252
 H312 H 0.17994 0.47005 0.04492
 C313 C 0.19110 0.40178 -0.03348
 H314 H 0.19453 0.38247 -0.05524
 C315 C 0.16354 0.42785 -0.03610
 H316 H 0.14568 0.42734 -0.05966
 N317 N 0.21321 0.40039 -0.00352
 C318 C 0.26426 0.30232 0.04809
 H319 H 0.28688 0.29950 0.03016
 C320 C 0.25922 0.27685 0.07784
 H321 H 0.27817 0.25444 0.08281
 C322 C 0.21194 0.33483 0.06313
 H323 H 0.19315 0.35698 0.05688
 C324 C 0.20583 0.30998 0.09315
 H325 H 0.18207 0.31341 0.10923
 Zn326 Zn 0.25028 0.36493 0.00151
 N327 N 0.24118 0.33107 0.04179
 C328 C 0.31352 0.38453 0.04040
 N329 N 0.29324 0.39178 0.00966
 C330 C 0.30233 0.41956 -0.01536
 C331 C 0.33313 0.44115 -0.01015
 C332 C 0.34460 0.40529 0.04660
 C333 C 0.22594 0.31271 -0.04848
 C334 C 0.22771 0.28921 -0.07817
 C335 C 0.28631 0.31460 -0.09193
 C336 C 0.28342 0.33758 -0.06193
 N337 N 0.25354 0.33629 -0.04097
 H338 H 0.30553 0.36295 0.06042
 H339 H 0.28557 0.42491 -0.03942
 H340 H 0.34014 0.46248 -0.03092
 H341 H 0.36045 0.39918 0.07122
 H342 H 0.20268 0.31188 -0.03106
 H343 H 0.20555 0.27044 -0.08359
 H344 H 0.31014 0.31691 -0.10838
 H345 H 0.30529 0.35611 -0.05525
 C346 C 0.23011 0.28090 0.10124
 C347 C 0.15905 0.45311 -0.00779
 C348 C 0.25834 0.28953 -0.10007
 C349 C 0.35452 0.43428 0.02145
 C350 C 0.70994 0.06704 -0.02302
 H351 H 0.72792 0.06543 -0.04600
 C352 C 0.67926 0.04445 -0.02143
 H353 H 0.67383 0.02550 -0.04338
 C354 C 0.69535 0.09371 0.03341
 H355 H 0.70174 0.11283 0.05484
 C356 C 0.66433 0.07167 0.03610
 H357 H 0.64716 0.07518 0.05937
 N358 N 0.71722 0.09136 0.00396
 C359 C 0.78234 0.18059 -0.04839
 H360 H 0.80551 0.18034 -0.03034
 C361 C 0.78034 0.20653 -0.07826
 H362 H 0.80219 0.22614 -0.08322
 C363 C 0.72541 0.15575 -0.06344
 H364 H 0.70365 0.13656 -0.05712
 C365 C 0.72231 0.18115 -0.09357
 H366 H 0.69785 0.18118 -0.10966
 Zn367 Zn 0.75937 0.12133 -0.00069
 N368 N 0.75533 0.15549 -0.04191
 C369 C 0.81961 0.09165 -0.03672
 N370 N 0.79812 0.08855 -0.00675
 C371 C 0.80292 0.06090 0.01963
 C372 C 0.83072 0.03553 0.01694
 C373 C 0.84784 0.06683 -0.04055
 C374 C 0.74263 0.17713 0.04795
 C375 C 0.74710 0.20027 0.07776
 C376 C 0.80171 0.16788 0.09381
 C377 C 0.79620 0.14535 0.06363
 N378 N 0.76680 0.15006 0.04164
 H379 H 0.81488 0.11327 -0.05786
 H380 H 0.78512 0.05869 0.04290
 H381 H 0.83412 0.01388 0.03848
 H382 H 0.86433 0.07042 -0.06465
 H383 H 0.72001 0.18100 0.02945
 H384 H 0.72786 0.22213 0.08127
 H385 H 0.82529 0.16379 0.11099
 H386 H 0.81570 0.12447 0.05763
 C387 C 0.75033 0.20664 -0.10168
 C388 C 0.65592 0.04642 0.00839
 C389 C 0.77686 0.19554 0.10148
 C390 C 0.85382 0.03822 -0.01331
 C391 C 0.21165 0.56985 0.48736
 H392 H 0.23268 0.56942 0.46719
 C393 C 0.18385 0.54358 0.48638
 H394 H 0.18372 0.52295 0.46534
 C395 C 0.18661 0.59732 0.53925
 H396 H 0.18783 0.61827 0.55984
 C397 C 0.15809 0.57172 0.53913
 H398 H 0.13755 0.57443 0.55943
 N399 N 0.21248 0.59614 0.51339
 C400 C 0.27257 0.69043 0.46495
 H401 H 0.29392 0.69302 0.48502
 C402 C 0.27126 0.71479 0.43390
 H403 H 0.29172 0.73623 0.43016
 C404 C 0.22003 0.65916 0.44541
 H405 H 0.20010 0.63744 0.44998
 C406 C 0.21761 0.68298 0.41402
 H407 H 0.19617 0.67846 0.39449
 Zn408 Zn 0.25165 0.63025 0.51189
 N409 N 0.24746 0.66297 0.46985
 C410 C 0.31512 0.60516 0.47872
 N411 N 0.29342 0.60111 0.50850
 C412 C 0.29885 0.57344 0.53477
 C413 C 0.32684 0.54833 0.53155
 C414 C 0.34354 0.58073 0.47447
 C415 C 0.22667 0.68521 0.55825
 C416 C 0.22793 0.70987 0.58719
 C417 C 0.28409 0.68280 0.60695
 C418 C 0.28173 0.65864 0.57766
 N419 N 0.25335 0.66026 0.55398
 H420 H 0.30973 0.62645 0.45745
 H421 H 0.28073 0.57027 0.55772
 H422 H 0.33032 0.52602 0.55240
 H423 H 0.35941 0.58382 0.44982
 H424 H 0.20463 0.68636 0.53875
 H425 H 0.20657 0.72974 0.58994
 H426 H 0.30670 0.68031 0.62561
 H427 H 0.30290 0.63897 0.57363
 C428 C 0.24349 0.71135 0.40801
 C429 C 0.15656 0.54403 0.51252
 C430 C 0.25718 0.70939 0.61165
 C431 C 0.34954 0.55163 0.50106
 C432 C 0.69386 0.91880 0.52669
 H433 H 0.71240 0.91763 0.54976
 C434 C 0.66549 0.94376 0.52636
 H435 H 0.66224 0.96148 0.54956
 C436 C 0.67673 0.89803 0.46793
 H437 H 0.68186 0.88093 0.44475
 C438 C 0.64805 0.92285 0.46630
 H439 H 0.63175 0.92402 0.44159
 N440 N 0.69888 0.89645 0.49786
 C441 C 0.76843 0.80914 0.54589
 H442 H 0.79062 0.81119 0.52706
 C443 C 0.76918 0.78302 0.57569
 H444 H 0.79213 0.76505 0.57976
 C445 C 0.71156 0.83011 0.56343
 H446 H 0.68901 0.84829 0.55848
 C447 C 0.71120 0.80447 0.59352
 H448 H 0.68866 0.80448 0.61185
 Zn449 Zn 0.74068 0.86713 0.49967
 N450 N 0.74007 0.83231 0.54057
 C451 C 0.80141 0.90050 0.53331
 N452 N 0.77903 0.90135 0.50359
 C453 C 0.78190 0.92852 0.47637
 C454 C 0.80885 0.95565 0.47779
 C455 C 0.82865 0.92727 0.53599
 C456 C 0.71950 0.81403 0.44911
 C457 C 0.72245 0.79180 0.41862
 C458 C 0.77876 0.82235 0.40434
 C459 C 0.77468 0.84407 0.43508
 N460 N 0.74533 0.83966 0.45665
 H461 H 0.79779 0.87956 0.55534
 H462 H 0.76313 0.92903 0.45350
 H463 H 0.81087 0.97693 0.45572
 H464 H 0.84531 0.92646 0.56049
 H465 H 0.69670 0.81072 0.46704
 H466 H 0.70168 0.77139 0.41312
 H467 H 0.80211 0.82696 0.38747
 H468 H 0.79530 0.86402 0.44190
 C469 C 0.74024 0.78022 0.59986
 C470 C 0.64214 0.94631 0.49588
 C471 C 0.75255 0.79544 0.39603
 C472 C 0.83294 0.95507 0.50762
 C473 C 0.00298 0.21305 0.42935
 H474 H 0.02502 0.23287 0.42946
 C475 C 0.00226 0.18284 0.45504
 H476 H 0.02390 0.17951 0.47491
 C477 C -0.05172 0.19313 0.40293
 H478 H -0.07271 0.19720 0.38258
 C479 C -0.05357 0.16255 0.42819
 H480 H -0.07569 0.14306 0.42602
 N481 N -0.02339 0.21723 0.40350
 C482 C 0.02884 0.27723 0.31181
 H483 H 0.01115 0.30081 0.30746
 C484 C 0.05903 0.27428 0.28998
 H485 H 0.06443 0.29577 0.26875
 C486 C 0.04324 0.22070 0.34490
 H487 H 0.03693 0.19971 0.36615
 C488 C 0.07373 0.21664 0.32373
 H489 H 0.09066 0.19287 0.33000
 Zn490 Zn -0.01874 0.25790 0.36851
 N491 N 0.02187 0.25099 0.33906
 C492 C 0.01798 0.32240 0.39335
 N493 N -0.01285 0.30195 0.39555
 C494 C -0.03877 0.31040 0.41965
 C495 C -0.03406 0.34018 0.44303
 C496 C 0.02382 0.35242 0.41623
 C497 C -0.06510 0.23160 0.31421
 C498 C -0.09361 0.23230 0.28907
 C499 C -0.10871 0.29377 0.30894
 C500 C -0.07999 0.29177 0.33391
 N501 N -0.05907 0.26084 0.33633
 H502 H 0.03863 0.31492 0.37459
 H503 H -0.06279 0.29334 0.42131
 H504 H -0.05478 0.34603 0.46249
 H505 H 0.04856 0.36806 0.41360
 H506 H -0.04760 0.20766 0.31607
 H507 H -0.09796 0.20859 0.27185
 H508 H -0.12408 0.31921 0.30723
 H509 H -0.07410 0.31525 0.35087
 C510 C 0.08203 0.24379 0.29580
 C511 C -0.02618 0.15703 0.45469
 C512 C -0.11613 0.26348 0.28624
 C513 C -0.00217 0.36120 0.44211
 C514 C -0.02050 0.69303 0.07861
 H515 H -0.04316 0.71159 0.07704
 C516 C -0.01828 0.66377 0.05448
 H517 H -0.03953 0.65974 0.03452
 C518 C 0.03536 0.67675 0.10563
 H519 H 0.05653 0.68233 0.12513
 C520 C 0.03872 0.64717 0.08196
 H521 H 0.06209 0.62972 0.08460
 N522 N 0.00615 0.69907 0.10343
 C523 C -0.04080 0.76781 0.18667
 H524 H -0.02210 0.79112 0.18606
 C525 C -0.06875 0.76662 0.21185
 H526 H -0.07156 0.78928 0.23050
 C527 C -0.05918 0.70945 0.16376
 H528 H -0.05483 0.68675 0.14565
 C529 C -0.08760 0.70719 0.18841
 H530 H -0.10447 0.68242 0.18894
 Zn531 Zn 0.00310 0.74249 0.13126
 N532 N -0.03669 0.73961 0.16309
 C533 C -0.02902 0.80724 0.09700
 N534 N -0.00108 0.78328 0.09669
 C535 C 0.02386 0.78602 0.06974
 C536 C 0.02146 0.81394 0.04179
 C537 C -0.03236 0.83574 0.06965
 C538 C 0.05059 0.72191 0.18830
 C539 C 0.08016 0.72515 0.21169
 C540 C 0.09646 0.78283 0.17860
 C541 C 0.06657 0.77844 0.15579
 N542 N 0.04448 0.74823 0.16088
 H543 H -0.04916 0.80387 0.11798
 H544 H 0.04541 0.76608 0.06977
 H545 H 0.04141 0.81556 0.02039
 H546 H -0.05539 0.85374 0.06995
 H547 H 0.03235 0.69839 0.19199
 H548 H 0.08460 0.70389 0.23339
 H549 H 0.11387 0.80673 0.17331
 H550 H 0.06102 0.79932 0.13416
 C551 C -0.09281 0.73625 0.21275
 C552 C 0.01193 0.64088 0.05538
 C553 C 0.10340 0.75605 0.20728
 C554 C -0.00673 0.83942 0.04163
 C555 C 0.47442 0.19763 0.57563
 H556 H 0.45204 0.21657 0.57486
 C557 C 0.47505 0.16786 0.55195
 H558 H 0.45293 0.16396 0.53298
 C559 C 0.53069 0.18022 0.60091
 H560 H 0.55258 0.18539 0.61964
 C561 C 0.53240 0.15006 0.57778
 H562 H 0.55535 0.13201 0.58018
 N563 N 0.50189 0.20312 0.59962
 C564 C 0.45639 0.26802 0.68636
 H565 H 0.47459 0.29177 0.68583
 C566 C 0.42886 0.26577 0.71194
 H567 H 0.42588 0.28814 0.73089
 C568 C 0.43891 0.20971 0.66277
 H569 H 0.44348 0.18748 0.64416
 C570 C 0.41115 0.20614 0.68811
 H571 H 0.39512 0.18083 0.68834
 Zn572 Zn 0.49969 0.24504 0.62963
 N573 N 0.46060 0.24049 0.66210
 C574 C 0.46741 0.31183 0.60028
 N575 N 0.49538 0.28816 0.59782
 C576 C 0.52081 0.29404 0.57172
 C577 C 0.51902 0.32512 0.54714
 C578 C 0.46462 0.34335 0.57634
 C579 C 0.54757 0.21988 0.68437
 C580 C 0.57746 0.22097 0.70755
 C581 C 0.59310 0.28147 0.67965
 C582 C 0.56302 0.27907 0.65681
 N583 N 0.54125 0.24838 0.65923
 H584 H 0.44712 0.30639 0.62075
 H585 H 0.54257 0.27452 0.57011
 H586 H 0.53960 0.32937 0.52661
 H587 H 0.44249 0.36193 0.57985
 H588 H 0.52932 0.19621 0.68631
 H589 H 0.58218 0.19783 0.72722
 H590 H 0.60921 0.30672 0.67759
 H591 H 0.55681 0.30207 0.63760
 C592 C 0.40557 0.23470 0.71301
 C593 C 0.50441 0.14377 0.55253
 C594 C 0.60095 0.25182 0.70519
 C595 C 0.49062 0.35024 0.54905
 C596 C 0.52868 0.71450 0.93477
 H597 H 0.55304 0.73104 0.93469
 C598 C 0.52422 0.68480 0.96072
 H599 H 0.54532 0.67847 0.98058
 C600 C 0.47141 0.70285 0.90919
 H601 H 0.45051 0.71042 0.88966
 C602 C 0.46586 0.67296 0.93455
 H603 H 0.44046 0.65829 0.93422
 N604 N 0.50274 0.72241 0.90917
 C605 C 0.55718 0.77737 0.81611
 H606 H 0.54108 0.80226 0.81249
 C607 C 0.58555 0.77174 0.79253
 H608 H 0.59118 0.79254 0.77071
 C609 C 0.56902 0.71997 0.84888
 H610 H 0.56224 0.69969 0.87066
 C611 C 0.59770 0.71319 0.82592
 H612 H 0.61281 0.68792 0.83124
 Zn613 Zn 0.51060 0.76223 0.87386
 N614 N 0.54971 0.75184 0.84383
 C615 C 0.55270 0.82354 0.89747
 N616 N 0.52019 0.80628 0.89975
 C617 C 0.49452 0.81884 0.92213
 C618 C 0.50077 0.85031 0.94290
 C619 C 0.56028 0.85484 0.91814
 C620 C 0.46260 0.73868 0.82023
 C621 C 0.43317 0.74013 0.79632
 C622 C 0.42056 0.80206 0.81674
 C623 C 0.45032 0.79941 0.84025
 N624 N 0.47029 0.76779 0.84202
 H625 H 0.57314 0.81267 0.88024
 H626 H 0.46905 0.80433 0.92381
 H627 H 0.47913 0.85991 0.95935
 H628 H 0.58646 0.86791 0.91625
 H629 H 0.47922 0.71405 0.82177
 H630 H 0.42729 0.71639 0.77956
 H631 H 0.40485 0.82722 0.81694
 H632 H 0.45725 0.82263 0.85714
 C633 C 0.60625 0.73934 0.79714
 C634 C 0.49284 0.66306 0.96029
 C635 C 0.41156 0.77201 0.79431
 C636 C 0.53439 0.86849 0.94163
 C637 C 0.13449 0.21153 0.26986
 C638 C 0.11456 0.24227 0.27297
 H639 H 0.12752 0.18581 0.28496
 H640 H 0.12223 0.26799 0.25819
 C641 C 0.65478 0.70286 0.76880
 C642 C 0.63631 0.73460 0.77155
 H643 H 0.64908 0.67866 0.78669
 H644 H 0.64344 0.75880 0.75408
 C645 C 0.36004 0.80225 0.76055
 C646 C 0.37975 0.77192 0.76938
 H647 H 0.36684 0.82892 0.77185
 H648 H 0.37210 0.74529 0.75833
 C649 C -0.17332 0.28754 0.25804
 C650 C -0.14586 0.26344 0.25856
 H651 H -0.17393 0.30799 0.27913
 H652 H -0.14454 0.24216 0.23840
 C653 C -0.15219 0.71552 0.23663
 C654 C -0.12165 0.73507 0.24049
 H655 H -0.15640 0.69981 0.21208
 H656 H -0.11719 0.75117 0.26470
 C657 C 0.34924 0.20876 0.74116
 C658 C 0.37701 0.23303 0.74121
 H659 H 0.34737 0.18935 0.71917
 H660 H 0.37955 0.25328 0.76231
 C661 C 0.66063 0.27524 0.72595
 C662 C 0.63214 0.25232 0.73077
 H663 H 0.66101 0.29412 0.70188
 H664 H 0.63090 0.23252 0.75399
 C665 C 0.15258 0.79063 0.23866
 C666 C 0.13438 0.75877 0.23286
 H667 H 0.14575 0.81619 0.22328
 H668 H 0.14188 0.73327 0.24803
 C669 C 0.25132 0.15346 0.24515
 C670 C 0.27449 0.14007 0.22112
 H671 H 0.25102 0.14247 0.27335
 H672 H 0.27410 0.15087 0.19283
 C673 C 0.76809 0.64226 0.73775
 C674 C 0.78707 0.62366 0.71347
 H675 H 0.77155 0.63593 0.76695
 H676 H 0.78346 0.63004 0.68427
 C677 C 0.77231 0.33932 0.75620
 C678 C 0.79145 0.35726 0.78156
 H679 H 0.77411 0.34808 0.72741
 H680 H 0.78914 0.34836 0.81033
 C681 C 0.26457 -0.14779 0.28176
 C682 C 0.26581 -0.11971 0.25584
 H683 H 0.28592 -0.14950 0.30199
 H684 H 0.24566 -0.11750 0.23442
 C685 C 0.24514 -0.14221 0.72701
 C686 C 0.21338 -0.13685 0.70999
 H687 H 0.25305 -0.12252 0.74750
 H688 H 0.20466 -0.15465 0.68827
 C689 C 0.71780 0.35161 0.21078
 C690 C 0.70978 0.36923 0.24150
 H691 H 0.70488 0.35971 0.18494
 H692 H 0.72261 0.36061 0.26729
 C693 C 0.74019 0.64827 0.28852
 C694 C 0.72978 0.63147 0.25783
 H695 H 0.72799 0.64014 0.31456
 H696 H 0.74202 0.63953 0.23178
 C697 C 0.24070 0.14328 0.78801
 C698 C 0.23154 0.12690 0.75661
 H699 H 0.22787 0.13460 0.81353
 H700 H 0.24419 0.13614 0.73112
 C701 C 0.20663 0.26112 0.16294
 C702 C 0.22575 0.25395 0.13307
 H703 H 0.19266 0.28737 0.16430
 H704 H 0.23946 0.22749 0.13187
 C705 C 0.71267 0.74018 0.64962
 C706 C 0.74189 0.75319 0.63209
 H707 H 0.68658 0.74861 0.63952
 H708 H 0.76804 0.74453 0.64189
 C709 C 0.78611 0.76284 0.34789
 C710 C 0.75536 0.77057 0.36454
 H711 H 0.81069 0.77654 0.35591
 H712 H 0.73089 0.75715 0.35566
 C713 C 0.29006 0.25379 -0.14719
 C714 C 0.25974 0.26360 -0.13094
 H715 H 0.31530 0.26566 -0.13858
 H716 H 0.23461 0.25177 -0.14010
 C717 C 0.72884 0.22859 -0.16369
 C718 C 0.74856 0.23431 -0.13332
 H719 H 0.71375 0.20271 -0.16546
 H720 H 0.76423 0.25976 -0.13131
 C721 C 0.21357 0.74529 0.35518
 C722 C 0.24320 0.73695 0.37483
 H723 H 0.18836 0.73255 0.36322
 H724 H 0.26850 0.74950 0.36692
 C725 C 0.28907 0.74777 0.65767
 C726 C 0.25851 0.73671 0.64153
 H727 H 0.31400 0.73604 0.64911
 H728 H 0.23344 0.74848 0.64961
 C729 C 0.75802 0.23905 0.14923
 C730 C 0.78375 0.21989 0.13309
 H731 H 0.73076 0.23652 0.13948
 H732 H 0.81103 0.22217 0.14292
 C733 C 0.46087 0.40472 0.51653
 C734 C 0.48960 0.38308 0.52250
 H735 H 0.43675 0.39916 0.53192
 H736 H 0.51372 0.38941 0.50722
 C737 C -0.02619 0.90069 0.01397
 C738 C -0.00952 0.86793 0.01091
 H739 H -0.03799 0.90697 0.04006
 H740 H 0.00272 0.86131 -0.01481
 C741 C 0.04546 0.59693 0.01743
 C742 C 0.01447 0.61140 0.02797
 H743 H 0.07022 0.60552 0.03030
 H744 H -0.01022 0.60246 0.01514
 C745 C 0.53376 0.09380 0.51788
 C746 C 0.50446 0.11269 0.52664
 H747 H 0.55914 0.10007 0.53074
 H748 H 0.47915 0.10565 0.51390
 C749 C -0.05432 0.10391 0.49074
 C750 C -0.02521 0.12390 0.48080
 H751 H -0.08018 0.11241 0.48002
 H752 H 0.00071 0.11565 0.49154
 C753 C 0.46811 0.60106 0.98053
 C754 C 0.48864 0.63106 0.98737
 H755 H 0.45427 0.60005 0.95426
 H756 H 0.50328 0.63238 1.01312
 C757 C 0.52458 0.91112 0.99321
 C758 C 0.54374 0.90125 0.96412
 H759 H 0.50110 0.89464 1.00018
 H760 H 0.56761 0.91673 0.95639
 C761 C 0.03474 0.40597 0.47822
 C762 C 0.00294 0.39094 0.46918
 H763 H 0.05853 0.39844 0.46381
 H764 H -0.02067 0.39956 0.48337
 C765 C 0.40598 0.52698 0.47541
 C766 C 0.37705 0.52260 0.49684
 H767 H 0.41027 0.55323 0.46005
 H768 H 0.37249 0.49633 0.51202
 C769 C 0.90752 0.00912 -0.04172
 C770 C 0.88320 0.01053 -0.01466
 H771 H 0.90579 0.02927 -0.06467
 H772 H 0.88388 -0.00956 0.00830
 C773 C 0.60273 0.01583 0.03865
 C774 C 0.62308 0.02250 0.00879
 H775 H 0.60980 0.02845 0.06428
 H776 H 0.61557 0.01004 -0.01685
 C777 C 0.10353 0.50846 0.53738
 C778 C 0.12709 0.51579 0.51023
 H779 H 0.10637 0.52375 0.56230
 H780 H 0.12558 0.50068 0.48513
 C781 C 0.11189 0.49245 -0.03845
 C782 C 0.12961 0.48060 -0.00790
 H783 H 0.11898 0.48188 -0.06484
 H784 H 0.12237 0.49115 0.01847
 C785 C 0.58724 0.97842 0.47049
 C786 C 0.61370 0.97513 0.49581
 H787 H 0.58561 0.95805 0.44935
 H788 H 0.61552 0.99425 0.51795
 C789 C 0.89109 0.98109 0.52894
 C790 C 0.86101 0.98463 0.50861
 H791 H 0.89498 0.95515 0.54491
 H792 H 0.85632 1.00939 0.49124
 C793 C 0.39228 0.49175 0.01643
 C794 C 0.38740 0.45618 0.02890
 H795 H 0.37175 0.50518 -0.00049
 H796 H 0.40759 0.44249 0.04600
 C797 C 0.50251 0.47094 0.40024
 C798 C 0.51297 0.50225 0.38137
 H799 H 0.51187 0.44402 0.39208
 H800 H 0.50349 0.52917 0.38951
 C801 C 0.01007 -0.04208 0.89139
 C802 C 0.01786 -0.01140 0.87023
 H803 H 0.02243 -0.06847 0.88610
 H804 H 0.00581 0.01497 0.87654
 C805 C 0.00272 0.01695 0.58825
 C806 C 0.02100 0.04214 0.60748
 H807 H 0.00683 -0.01264 0.59431
 H808 H 0.01738 0.07180 0.60138
 C809 C 0.50086 0.51856 0.09314
 C810 C 0.52108 0.54332 0.11098
 H811 H 0.50026 0.48947 0.10272
 H812 H 0.52138 0.57243 0.10137
 C813 C 0.48463 -0.01773 0.09601
 C814 C 0.48971 -0.00056 0.12780
 H815 H 0.45865 -0.02983 0.09024
 H816 H 0.51514 0.01249 0.13393
 C817 C 0.99745 0.45389 0.59937
 C818 C 0.99056 0.48380 0.61919
 H819 H 0.98416 0.42738 0.60548
 H820 H 1.00343 0.51032 0.61184
 C821 C 0.99993 0.54096 0.90133
 C822 C 0.99236 0.50998 0.88296
 H823 H 0.98611 0.56680 0.89454
 H824 H 1.00586 0.48418 0.89087
 C825 C 0.48390 0.03657 0.40489
 C826 C 0.47290 0.00637 0.38703
 H827 H 0.47380 0.06396 0.39662
 H828 H 0.48290 -0.02100 0.39557
   
