data_POSCAR
  _audit_creation_date              2014-09-24
  _audit_creation_method            'ToBaCCo'
  _symmetry_space_group_name_H-M    'P1'
  _symmetry_Int_Tables_number       1
  _symmetry_cell_setting            triclinic
  loop_
  _symmetry_equiv_pos_as_xyz
 x,y,z
_cell_length_a 27.2141
_cell_length_b 27.2516
_cell_length_c 71.6590
_cell_angle_alpha 85.304800
_cell_angle_beta 92.374900
_cell_angle_gamma 120.088400
loop_
  _atom_site_label
  _atom_site_type_symbol
  _atom_site_fract_x
  _atom_site_fract_y
  _atom_site_fract_z
C1 C 0.00386 0.11025 0.52361
 H2 H 0.04530 0.11392 0.52339
 C3 C -0.00595 0.14325 0.53514
 H4 H 0.02801 0.17242 0.54386
 C5 C -0.09133 0.06702 0.51273
 H6 H -0.12438 0.03729 0.50395
 C7 C -0.10300 0.09928 0.52412
 H8 H -0.14516 0.09407 0.52420
 N9 N -0.03881 0.07235 0.51296
 C10 C 0.00074 -0.06239 0.50761
 H11 H 0.00358 -0.06190 0.49258
 C12 C 0.00569 -0.10351 0.51924
 H13 H 0.01264 -0.13467 0.51319
 C14 C -0.01410 -0.02398 0.53394
 H15 H -0.02320 0.00604 0.53964
 C16 C -0.00935 -0.06419 0.54602
 H17 H -0.01427 -0.06452 0.56096
 Zn18 Zn -0.02059 0.02798 0.49881
 N19 N -0.00886 -0.02361 0.51511
 C20 C 0.09280 0.07303 0.48547
 N21 N 0.04585 0.07878 0.48497
 C22 C 0.04438 0.12178 0.47437
 C23 C 0.09054 0.15990 0.46313
 C24 C 0.14000 0.11032 0.47438
 C25 C -0.13053 -0.05796 0.48949
 C26 C -0.17356 -0.09414 0.47766
 C27 C -0.11232 -0.04212 0.45115
 C28 C -0.07057 -0.00715 0.46345
 N29 N -0.08022 -0.01556 0.48224
 H30 H 0.09350 0.03920 0.49423
 H31 H 0.00672 0.12565 0.47440
 H32 H 0.08845 0.19323 0.45441
 H33 H 0.17679 0.10486 0.47451
 H34 H -0.13667 -0.06448 0.50450
 H35 H -0.21304 -0.12840 0.48362
 H36 H -0.10353 -0.03544 0.43625
 H37 H -0.02995 0.02564 0.45794
 C38 C 0.00034 -0.10446 0.53862
 C39 C -0.05997 0.13733 0.53554
 C40 C -0.16414 -0.08633 0.45830
 C41 C 0.13853 0.15379 0.46299
 C42 C 1.14532 0.05623 0.14223
 H43 H 1.14929 0.09783 0.14192
 C44 C 1.18055 0.04738 0.13107
 H45 H 1.21174 0.08223 0.12209
 C46 C 1.09906 -0.04032 0.15407
 H47 H 1.06727 -0.07430 0.16306
 C48 C 1.13349 -0.05104 0.14308
 H49 H 1.12787 -0.09339 0.14351
 N50 N 1.10485 0.01244 0.15316
 C51 C 0.96872 0.05146 0.15700
 H52 H 0.96575 0.05212 0.17198
 C53 C 0.92971 0.05735 0.14506
 H54 H 0.89674 0.06285 0.15082
 C55 C 1.01348 0.04076 0.13117
 H56 H 1.04505 0.03276 0.12578
 C57 C 0.97550 0.04655 0.11878
 H58 H 0.97843 0.04351 0.10393
 Zn59 Zn 1.05730 0.02899 0.16670
 N60 N 1.00953 0.04331 0.14990
 C61 C 1.09914 0.14014 0.17934
 N62 N 1.10494 0.09319 0.18023
 C63 C 1.14546 0.08992 0.19114
 C64 C 1.18075 0.13405 0.20230
 C65 C 1.13363 0.18535 0.19033
 C66 C 0.96874 -0.08214 0.17643
 C67 C 0.92979 -0.12704 0.18838
 C68 C 0.97574 -0.07031 0.21464
 C69 C 1.01365 -0.02654 0.20224
 N70 N 1.00960 -0.03309 0.18351
 H71 H 1.06731 0.14229 0.17036
 H72 H 1.14943 0.05230 0.19144
 H73 H 1.21197 0.13044 0.21128
 H74 H 1.12800 0.22205 0.18992
 H75 H 0.96569 -0.08582 0.16145
 H76 H 0.89679 -0.16557 0.18263
 H77 H 0.97874 -0.06428 0.22949
 H78 H 1.04526 0.01310 0.20762
 C79 C 0.93302 0.05450 0.12578
 C80 C 1.17419 -0.00685 0.13134
 C81 C 0.93321 -0.12082 0.20765
 C82 C 1.17438 0.18190 0.20206
 C83 C 0.04403 0.92199 0.85886
 H84 H 0.00638 0.88040 0.85881
 C85 C 0.09015 0.93009 0.87014
 H86 H 0.08804 0.89467 0.87886
 C87 C 0.09246 1.01922 0.84778
 H88 H 0.09318 1.05374 0.83901
 C89 C 0.13962 1.02919 0.85891
 H90 H 0.17640 1.07150 0.85880
 N91 N 0.04552 0.96645 0.84825
 C92 C -0.13087 0.92654 0.84360
 H93 H -0.13696 0.92693 0.82859
 C94 C -0.17393 0.91962 0.85540
 H95 H -0.21342 0.91436 0.84945
 C96 C -0.07099 0.93577 0.86969
 H97 H -0.03039 0.94366 0.87523
 C98 C -0.11281 0.92891 0.88195
 H99 H -0.10419 0.93102 0.89686
 Zn100 Zn -0.02087 0.95072 0.83436
 N101 N -0.08057 0.93453 0.85089
 C102 C -0.09154 0.84087 0.82040
 N103 N -0.03902 0.88813 0.82021
 C104 C 0.00369 0.89296 0.80959
 C105 C -0.00607 0.85015 0.79806
 C106 C -0.10317 0.79694 0.80901
 C107 C 0.00043 1.06243 0.82556
 C108 C 0.00540 1.10851 0.81393
 C109 C -0.00950 1.05417 0.78715
 C110 C -0.01427 1.00920 0.79924
 N111 N -0.00910 1.01406 0.81807
 H112 H -0.12463 0.83750 0.82915
 H113 H 0.04513 0.93078 0.80984
 H114 H 0.02792 0.85500 0.78936
 H115 H -0.14532 0.75995 0.80889
 H116 H 0.00321 1.06477 0.84060
 H117 H 0.01230 1.14662 0.81999
 H118 H -0.01435 1.04960 0.77220
 H119 H -0.02332 0.97008 0.79353
 C120 C -0.16457 0.92123 0.87476
 C121 C 0.13813 0.98426 0.87031
 C122 C 0.00014 1.10413 0.79455
 C123 C -0.06009 0.80199 0.79761
 C124 C 0.38687 -0.01364 0.00062
 C125 C 0.41456 -0.00521 -0.01632
 C126 C 0.46635 -0.00450 -0.01646
 C127 C 0.49025 -0.01393 0.00037
 C128 C 0.46116 -0.02322 0.01732
 C129 C 0.41024 -0.02221 0.01743
 C130 C 0.54514 -0.01399 0.00024
 C131 C 0.58255 0.00381 0.01567
 C132 C 0.63356 0.00295 0.01563
 C133 C 0.64866 -0.01400 -0.00001
 C134 C 0.61262 -0.03093 -0.01552
 C135 C 0.56077 -0.03179 -0.01532
 H136 H 0.34708 -0.01350 0.00072
 H137 H 0.48788 0.00387 -0.02969
 H138 H 0.47755 -0.03166 0.03047
 H139 H 0.57262 0.01880 0.02771
 H140 H 0.68852 -0.01398 -0.00011
 H141 H 0.53277 -0.04674 -0.02728
 C142 C -0.05212 0.60440 0.66682
 C143 C -0.06521 0.56867 0.68319
 C144 C -0.06672 0.51658 0.68305
 C145 C -0.05334 0.50044 0.66661
 C146 C -0.03940 0.53754 0.65027
 C147 C -0.03961 0.58880 0.65035
 C148 C -0.05336 0.44558 0.66654
 C149 C -0.06674 0.41606 0.65009
 C150 C -0.06526 0.36546 0.64995
 C151 C -0.05220 0.34282 0.66632
 C152 C -0.03968 0.37094 0.68280
 C153 C -0.03945 0.42242 0.68288
 H154 H -0.05136 0.64457 0.66693
 H155 H -0.07848 0.48890 0.69577
 H156 H -0.02768 0.52728 0.63751
 H157 H -0.07848 0.43198 0.63737
 H158 H -0.05146 0.30340 0.66622
 H159 H -0.02772 0.44441 0.69565
 C160 C 0.64956 0.66332 0.33355
 C161 C 0.63433 0.63128 0.31791
 C162 C 0.58324 0.57942 0.31785
 C163 C 0.54589 0.55981 0.33329
 C164 C 0.56165 0.59324 0.34886
 C165 C 0.61358 0.64423 0.34907
 C166 C 0.49091 0.50488 0.33314
 C167 C 0.46701 0.47150 0.34996
 C168 C 0.41515 0.42043 0.34980
 C169 C 0.38739 0.40122 0.33286
 C170 C 0.41075 0.43321 0.31606
 C171 C 0.46175 0.48514 0.31619
 H172 H 0.68948 0.70316 0.33366
 H173 H 0.57320 0.55449 0.30580
 H174 H 0.53370 0.58020 0.36082
 H175 H 0.48859 0.48462 0.36320
 H176 H 0.34755 0.36130 0.33275
 H177 H 0.47814 0.51000 0.30305
 C178 C -0.08342 0.22612 0.57389
 N179 N -0.04965 0.28341 0.57357
 N180 N -0.05023 0.31178 0.58778
 C181 C -0.08458 0.28373 0.60273
 N182 N -0.11856 0.22648 0.60301
 N183 N -0.11798 0.19811 0.58880
 C184 C -0.07797 0.19498 0.55968
 C185 C -0.07103 0.16870 0.54833
 C186 C -0.08042 0.31330 0.61892
 C187 C -0.07469 0.33749 0.63289
 C188 C 0.81603 0.76359 0.24526
 N189 N 0.83326 0.74645 0.26126
 N190 N 0.79629 0.71585 0.27494
 C191 C 0.74095 0.70144 0.27305
 N192 N 0.72366 0.71835 0.25701
 N193 N 0.76064 0.74896 0.24333
 C194 C 0.85685 0.80154 0.23141
 C195 C 0.89152 0.83573 0.22029
 C196 C 0.70250 0.67368 0.28850
 C197 C 0.67098 0.65294 0.30177
 C198 C 0.26235 0.00463 -0.09209
 N199 N 0.27947 0.04417 -0.07931
 N200 N 0.31376 0.04541 -0.06530
 C201 C 0.33198 0.00717 -0.06364
 N202 N 0.31507 -0.03221 -0.07647
 N203 N 0.28078 -0.03346 -0.09048
 C204 C 0.22099 -0.00036 -0.10602
 C205 C 0.18423 -0.00638 -0.11714
 C206 C 0.36402 0.00483 -0.04753
 C207 C 0.38844 0.00115 -0.03353
 C208 C -0.00039 0.77382 0.57583
 N209 N -0.04454 0.71969 0.57612
 N210 N -0.04958 0.68171 0.58998
 C211 C -0.01062 0.69670 0.60396
 N212 N 0.03366 0.75076 0.60362
 N213 N 0.03870 0.78873 0.58977
 C214 C 0.00179 0.81607 0.56202
 C215 C 0.00202 0.85209 0.55101
 C216 C -0.01915 0.65754 0.61982
 C217 C -0.02773 0.62563 0.63354
 C218 C 0.26837 0.29861 0.23968
 N219 N 0.24230 0.31212 0.25239
 N220 N 0.27167 0.34329 0.26651
 C221 C 0.32801 0.36190 0.26834
 N222 N 0.35413 0.34861 0.25557
 N223 N 0.32476 0.31744 0.24146
 C224 C 0.23567 0.26015 0.22569
 C225 C 0.20786 0.22562 0.21456
 C226 C 0.35820 0.39019 0.28459
 C227 C 0.38268 0.41128 0.29871
 C228 C 0.72844 -0.07911 -0.08858
 N229 N 0.71368 -0.03823 -0.09035
 N230 N 0.68589 -0.03226 -0.07663
 C231 C 0.67202 -0.06697 -0.06071
 N232 N 0.68653 -0.10803 -0.05898
 N233 N 0.71432 -0.11400 -0.07270
 C234 C 0.76390 -0.08131 -0.10237
 C235 C 0.79629 -0.08111 -0.11340
 C236 C 0.64779 -0.05652 -0.04516
 C237 C 0.63024 -0.04585 -0.03179
 C238 C 0.26808 -0.02961 0.09375
 N239 N 0.32445 0.00804 0.09195
 N240 N 0.35379 0.00619 0.07785
 C241 C 0.32764 -0.03338 0.06512
 N242 N 0.27133 -0.07120 0.06697
 N243 N 0.24199 -0.06935 0.08107
 C244 C 0.23542 -0.02382 0.10773
 C245 C 0.20763 -0.01709 0.11885
 C246 C 0.35779 -0.03155 0.04888
 C247 C 0.38223 -0.02824 0.03478
 C248 C 0.73012 0.80834 0.42213
 N249 N 0.71581 0.82908 0.40628
 N250 N 0.68787 0.79529 0.39257
 C251 C 0.67340 0.73971 0.39428
 N252 N 0.68746 0.71890 0.41016
 N253 N 0.71540 0.75270 0.42387
 C254 C 0.76576 0.84606 0.43590
 C255 C 0.79830 0.87831 0.44692
 C256 C 0.64901 0.70500 0.37872
 C257 C 0.63134 0.67677 0.36535
 C258 C -0.00056 0.22513 0.75734
 N259 N 0.03854 0.24934 0.74341
 N260 N 0.03352 0.28229 0.72956
 C261 C -0.01076 0.29202 0.72920
 N262 N -0.04972 0.26800 0.74317
 N263 N -0.04470 0.23506 0.75702
 C264 C 0.00161 0.18505 0.77115
 C265 C 0.00182 0.14926 0.78216
 C266 C -0.01926 0.32265 0.71334
 C267 C -0.02783 0.34598 0.69962
 C268 C 0.81563 0.05270 0.08823
 N269 N 0.83277 0.08708 0.07223
 N270 N 0.79572 0.08064 0.05856
 C271 C 0.74040 0.03961 0.06046
 N272 N 0.72321 0.00540 0.07649
 N273 N 0.76026 0.01184 0.09016
 C274 C 0.85653 0.05565 0.10205
 C275 C 0.89126 0.05619 0.11317
 C276 C 0.70187 0.02885 0.04502
 C277 C 0.67028 0.01800 0.03175
 C278 C 0.26287 0.25797 0.42549
 N279 N 0.28124 0.31449 0.42389
 N280 N 0.31556 0.34763 0.40990
 C281 C 0.33256 0.32526 0.39708
 N282 N 0.31440 0.26878 0.39873
 N283 N 0.28008 0.23564 0.41271
 C284 C 0.22147 0.22148 0.43939
 C285 C 0.18468 0.19064 0.45048
 C286 C 0.36462 0.35973 0.38099
 C287 C 0.38905 0.38789 0.36700
 C288 C -0.08343 0.68979 0.75925
 N289 N -0.04963 0.66635 0.75958
 N290 N -0.05018 0.63742 0.74537
 C291 C -0.08455 0.63105 0.73040
 N292 N -0.11856 0.65424 0.73012
 N293 N -0.11801 0.68317 0.74433
 C294 C -0.07801 0.72637 0.77346
 C295 C -0.07110 0.75957 0.78481
 C296 C -0.08038 0.60565 0.71422
 C297 C -0.07465 0.58720 0.70025
   
