data_POSCAR
  _audit_creation_date              2014-09-24
  _audit_creation_method            'ToBaCCo'
  _symmetry_space_group_name_H-M    'P1'
  _symmetry_Int_Tables_number       1
  _symmetry_cell_setting            triclinic
  loop_
  _symmetry_equiv_pos_as_xyz
 x,y,z
_cell_length_a 26.0295
_cell_length_b 10.1977
_cell_length_c 9.1223
_cell_angle_alpha 89.921600
_cell_angle_beta 89.699000
_cell_angle_gamma 82.833200
loop_
  _atom_site_label
  _atom_site_type_symbol
  _atom_site_fract_x
  _atom_site_fract_y
  _atom_site_fract_z
C1 C 0.61728 0.15802 0.50659
 C2 C 0.63917 0.18461 0.64289
 C3 C 0.69145 0.20708 0.64399
 C4 C 0.71941 0.21998 0.51145
 C5 C 0.69137 0.22223 0.37813
 C6 C 0.63993 0.19496 0.37466
 C7 C 0.77515 0.24820 0.51143
 C8 C 0.80389 0.24663 0.37824
 C9 C 0.85495 0.27813 0.37625
 C10 C 0.87451 0.32608 0.50608
 C11 C 0.85365 0.29389 0.64095
 C12 C 0.80260 0.26268 0.64378
 H13 H 0.57779 0.13522 0.50378
 H14 H 0.70816 0.22389 0.74890
 H15 H 0.70747 0.25586 0.27771
 H16 H 0.78895 0.20923 0.27860
 H17 H 0.91253 0.35889 0.50493
 H18 H 0.78686 0.24068 0.74902
 C19 C 0.12337 0.67206 0.49096
 C20 C 0.14401 0.71634 0.62214
 C21 C 0.19520 0.74670 0.61901
 C22 C 0.22415 0.74268 0.48634
 C23 C 0.19756 0.72305 0.35365
 C24 C 0.14616 0.69464 0.35471
 C25 C 0.27966 0.77269 0.48705
 C26 C 0.30715 0.78979 0.35481
 C27 C 0.35893 0.81462 0.35684
 C28 C 0.38078 0.84074 0.49195
 C29 C 0.35986 0.79559 0.62231
 C30 C 0.30816 0.76829 0.62009
 H31 H 0.08448 0.64498 0.49182
 H32 H 0.21056 0.78374 0.71829
 H33 H 0.21450 0.73732 0.24795
 H34 H 0.29081 0.77440 0.24914
 H35 H 0.41974 0.86767 0.49240
 H36 H 0.29236 0.73146 0.71944
 C37 C 0.35076 0.46591 -0.49146
 C38 C 0.33347 0.42626 -0.62641
 C39 C 0.29208 0.35029 -0.63059
 C40 C 0.27016 0.30698 -0.49791
 C41 C 0.29524 0.33166 -0.36436
 C42 C 0.33521 0.41066 -0.36189
 C43 C 0.22548 0.22543 -0.49711
 C44 C 0.20093 0.19769 -0.36216
 C45 C 0.16143 0.11659 -0.35794
 C46 C 0.14615 0.06367 -0.48996
 C47 C 0.16327 0.10501 -0.62581
 C48 C 0.20379 0.18328 -0.62967
 H49 H 0.38396 0.52077 -0.48898
 H50 H 0.28040 0.31930 -0.73687
 H51 H 0.28708 0.28308 -0.26327
 H52 H 0.20941 0.24514 -0.26099
 H53 H 0.11513 0.00248 -0.48885
 H54 H 0.21546 0.21558 -0.73586
 C55 C -0.14450 0.94624 -0.50908
 C56 C -0.15968 0.89393 -0.64025
 C57 C -0.20062 0.81756 -0.63927
 C58 C -0.22584 0.79016 -0.50551
 C59 C -0.20396 0.83018 -0.37200
 C60 C -0.16247 0.90566 -0.37483
 C61 C -0.27072 0.70921 -0.50707
 C62 C -0.29274 0.66466 -0.37527
 C63 C -0.33360 0.58727 -0.38039
 C64 C -0.35044 0.54802 -0.51695
 C65 C -0.33447 0.60322 -0.64733
 C66 C -0.29516 0.68440 -0.64192
 H67 H -0.11235 1.00446 -0.51046
 H68 H -0.20917 0.77182 -0.74140
 H69 H -0.21610 0.79795 -0.26625
 H70 H -0.28131 0.69523 -0.26857
 H71 H -0.38281 0.49098 -0.51944
 H72 H -0.28667 0.73354 -0.74234
 O73 O -0.07802 0.83109 0.27509
 O74 O -0.13416 0.96676 0.13227
 C75 C -0.12395 0.89050 0.24525
 O76 O 0.08110 1.16675 0.28056
 O77 O 0.13502 1.01721 0.14432
 C78 C 0.12580 1.10014 0.25308
 O79 O -0.06114 1.24021 0.29232
 O80 O -0.12477 1.16984 0.15143
 C81 C -0.10939 1.23137 0.26501
 O82 O 0.06208 0.71895 0.24994
 O83 O 0.12601 0.80845 0.12543
 C84 C 0.11041 0.73461 0.22929
 Zr85 Zr -0.00695 0.81891 0.15932
 O86 O -0.01061 0.72046 0.36264
 O87 O -0.01799 0.63036 0.07877
 Zr88 Zr 0.00726 1.14609 0.19751
 O89 O -0.00191 1.12181 0.42478
 O90 O 0.02092 1.34445 0.22875
 O91 O -0.04396 1.00696 0.21002
 O92 O 0.04362 0.95494 0.20732
 O93 O 0.06113 0.74764 -0.28394
 O94 O 0.12539 0.82632 -0.15197
 C95 C 0.10946 0.76007 -0.26191
 O96 O -0.06007 1.25141 -0.27153
 O97 O -0.12456 1.18786 -0.12688
 C98 C -0.10885 1.24894 -0.24062
 O99 O 0.08115 1.18303 -0.26443
 O100 O 0.13579 1.03329 -0.13325
 C101 C 0.12642 1.11777 -0.24007
 O102 O -0.08011 0.84132 -0.28503
 O103 O -0.13390 0.98582 -0.14343
 C104 C -0.12467 0.90747 -0.25541
 Zr105 Zr -0.00665 0.85246 -0.19525
 O106 O -0.00075 0.87063 -0.42386
 O107 O -0.02232 0.65477 -0.21827
 Zr108 Zr 0.00848 1.18090 -0.15721
 O109 O 0.00652 1.32544 -0.32614
 O110 O 0.01894 1.36529 -0.06487
 Zr111 Zr -0.07773 1.04709 0.00223
 Zr112 Zr 0.07922 0.95211 -0.00186
 O113 O 0.04374 0.99230 -0.20854
 O114 O -0.04310 1.04547 -0.20778
 O115 O 0.04051 0.78212 -0.02206
 O116 O -0.03850 1.21451 0.02291
 O117 O -0.05521 0.84245 -0.01789
 O118 O 0.05714 1.15808 0.02120
 H119 H 0.06307 0.93982 0.29971
 H120 H -0.06040 1.30125 0.02854
 H121 H 0.06219 0.98044 -0.30296
 H122 H -0.08384 0.78698 -0.02321
 H123 H -0.01136 1.40201 0.20518
 H124 H 0.05427 1.38300 -0.09301
 H125 H 0.02010 1.28613 -0.41939
 H126 H -0.02919 0.93738 -0.45532
 H127 H 0.00864 0.59644 -0.18517
 H128 H -0.05199 0.61131 0.11708
 H129 H -0.01591 0.62722 0.34489
 H130 H 0.03140 1.08325 0.46676
 O131 O 0.41609 0.35608 0.28667
 O132 O 0.36465 0.50314 0.14274
 C133 C 0.37236 0.42538 0.25571
 O134 O 0.58560 0.68069 0.25047
 O135 O 0.63634 0.51605 0.12672
 C136 C 0.62902 0.60588 0.22868
 O137 O 0.44432 0.76781 0.26231
 O138 O 0.37830 0.70304 0.12645
 C139 C 0.39537 0.76613 0.23620
 O140 O 0.55594 0.23673 0.27369
 O141 O 0.62215 0.31201 0.14438
 C142 C 0.60467 0.24512 0.25202
 Zr143 Zr 0.48986 0.35506 0.19293
 O144 O 0.48656 0.38278 0.42180
 O145 O 0.47400 0.15779 0.21366
 Zr146 Zr 0.51184 0.67785 0.15478
 O147 O 0.51804 0.77053 0.36022
 O148 O 0.52507 0.86473 0.07436
 O149 O 0.45708 0.55090 0.20505
 O150 O 0.54371 0.48613 0.20350
 O151 O 0.55630 0.21813 -0.25898
 O152 O 0.62219 0.29439 -0.13212
 C153 C 0.60525 0.22622 -0.23860
 O154 O 0.44317 0.75373 -0.29021
 O155 O 0.37775 0.68521 -0.15281
 C156 C 0.39450 0.74686 -0.26520
 O157 O 0.58416 0.65515 -0.28827
 O158 O 0.63562 0.50171 -0.15113
 C159 C 0.62798 0.58483 -0.26026
 O160 O 0.41723 0.33805 -0.27174
 O161 O 0.36431 0.48673 -0.13303
 C162 C 0.37278 0.40575 -0.24252
 Zr163 Zr 0.48895 0.32227 -0.16181
 O164 O 0.48339 0.22187 -0.36286
 O165 O 0.47424 0.13723 -0.07820
 Zr166 Zr 0.50976 0.64586 -0.20075
 O167 O 0.51110 0.61319 -0.42874
 O168 O 0.51845 0.84785 -0.23078
 Zr169 Zr 0.42243 0.55732 -0.00384
 Zr170 Zr 0.57819 0.44343 -0.00372
 O171 O 0.54215 0.45157 -0.21120
 O172 O 0.45530 0.51412 -0.21267
 O173 O 0.53590 0.28004 0.01814
 O174 O 0.46529 0.71829 -0.02414
 O175 O 0.44089 0.35122 0.01683
 O176 O 0.56032 0.65100 -0.02565
 H177 H 0.56310 0.47408 0.29574
 H178 H 0.44510 0.80726 -0.02999
 H179 H 0.56140 0.43550 -0.30442
 H180 H 0.41127 0.29888 0.02286
 H181 H 0.49591 0.92743 0.11157
 H182 H 0.55192 0.86370 -0.18743
 H183 H 0.47623 0.59535 -0.45920
 H184 H 0.47356 0.13270 -0.34237
 H185 H 0.50625 0.07645 -0.09671
 H186 H 0.47304 0.13866 0.32015
 H187 H 0.52203 0.37621 0.46163
 H188 H 0.52337 0.86413 0.34399
   
