data_POSCAR
  _audit_creation_date              2014-09-24
  _audit_creation_method            'ToBaCCo'
  _symmetry_space_group_name_H-M    'P1'
  _symmetry_Int_Tables_number       1
  _symmetry_cell_setting            triclinic
  loop_
  _symmetry_equiv_pos_as_xyz
 x,y,z
_cell_length_a 40.5298
_cell_length_b 44.6408
_cell_length_c 42.5341
_cell_angle_alpha 84.563800
_cell_angle_beta 94.756900
_cell_angle_gamma 95.036800
loop_
  _atom_site_label
  _atom_site_type_symbol
  _atom_site_fract_x
  _atom_site_fract_y
  _atom_site_fract_z
C1 C 0.22216 0.27977 0.28783
 C2 C 0.24753 0.29669 0.26622
 C3 C 0.26403 0.27850 0.25010
 C4 C 0.25334 0.24477 0.25673
 C5 C 0.19930 0.26087 0.26516
 C6 C 0.21549 0.24234 0.24907
 C7 C 0.24172 0.25674 0.30895
 C8 C 0.25805 0.23840 0.29287
 H9 H 0.25012 0.32103 0.26184
 H10 H 0.26671 0.22993 0.24358
 H11 H 0.17269 0.26211 0.26205
 H12 H 0.24282 0.25549 0.33457
 C13 C 0.70803 0.77609 0.27056
 C14 C 0.73121 0.79601 0.24912
 C15 C 0.74949 0.78046 0.23172
 C16 C 0.74279 0.74600 0.23728
 C17 C 0.68704 0.75541 0.24822
 C18 C 0.70506 0.74002 0.23038
 C19 C 0.73074 0.75465 0.29055
 C20 C 0.74889 0.73906 0.27324
 H21 H 0.73233 0.82043 0.24747
 H22 H 0.75816 0.73332 0.22366
 H23 H 0.66041 0.75115 0.24831
 H24 H 0.73165 0.75136 0.31616
 C25 C 0.72554 0.27485 0.78126
 C26 C 0.74200 0.29320 0.75629
 C27 C 0.75962 0.27679 0.73660
 C28 C 0.75691 0.24429 0.74576
 C29 C 0.70313 0.25066 0.76438
 C30 C 0.71945 0.23493 0.74546
 C31 C 0.75278 0.25676 0.79956
 C32 C 0.76917 0.24073 0.78100
 H33 H 0.74324 0.31761 0.75487
 H34 H 0.76962 0.23036 0.73110
 H35 H 0.67686 0.24608 0.76733
 H36 H 0.75653 0.25441 0.82514
 C37 C 0.21440 0.77602 0.78099
 C38 C 0.23932 0.79385 0.75955
 C39 C 0.25682 0.77641 0.74343
 C40 C 0.24707 0.74233 0.74967
 C41 C 0.19232 0.75674 0.75824
 C42 C 0.20912 0.73865 0.74220
 C43 C 0.23477 0.75349 0.80197
 C44 C 0.25184 0.73584 0.78580
 H45 H 0.24135 0.81821 0.75568
 H46 H 0.26100 0.72771 0.73681
 H47 H 0.16568 0.75779 0.75473
 H48 H 0.23574 0.75199 0.82759
 C49 C 0.06667 0.04191 0.01579
 H50 H 0.06980 0.04427 -0.00936
 C51 C 0.08641 0.06037 0.03584
 H52 H 0.10470 0.07697 0.02593
 C53 C 0.03781 0.01841 0.05895
 H54 H 0.01835 0.00258 0.06782
 C55 C 0.05687 0.03650 0.07981
 H56 H 0.05234 0.03383 0.10469
 N57 N 0.04307 0.02131 0.02759
 C58 C 0.02335 -0.04151 -0.04580
 H59 H -0.00336 -0.04120 -0.04947
 C60 C 0.04016 -0.05901 -0.06373
 H61 H 0.02618 -0.07184 -0.08147
 C62 C 0.07391 -0.02456 -0.01857
 H63 H 0.08692 -0.01145 -0.00063
 C64 C 0.09173 -0.04174 -0.03597
 H65 H 0.11840 -0.04166 -0.03120
 Zn66 Zn 0.01536 -0.00098 -0.00154
 N67 N 0.04038 -0.02441 -0.02409
 C68 C -0.00174 0.03095 -0.06118
 N69 N -0.00655 0.02761 -0.02970
 C70 C -0.02647 0.04548 -0.01696
 C71 C -0.04394 0.06665 -0.03631
 C72 C -0.01825 0.05232 -0.08133
 C73 C -0.00446 -0.04911 0.04211
 C74 C -0.02644 -0.06784 0.06031
 C75 C -0.07205 -0.04343 0.03147
 C76 C -0.04923 -0.02523 0.01382
 N77 N -0.01606 -0.02767 0.02007
 H78 H 0.01496 0.01718 -0.07072
 H79 H -0.02917 0.04289 0.00827
 H80 H -0.06016 0.08037 -0.02590
 H81 H -0.01456 0.05457 -0.10640
 H82 H 0.02202 -0.05095 0.04623
 H83 H -0.01664 -0.08388 0.07866
 H84 H -0.09832 -0.04080 0.02648
 H85 H -0.05816 -0.00899 -0.00464
 C86 C 0.07486 -0.05912 -0.05908
 C87 C 0.08144 0.05794 0.06830
 C88 C -0.06070 -0.06465 0.05553
 C89 C -0.04001 0.07011 -0.06892
 C90 C 0.05376 0.54486 0.50253
 H91 H 0.05561 0.54688 0.47718
 C92 C 0.07386 0.56414 0.52146
 H93 H 0.09108 0.58106 0.51044
 C94 C 0.02766 0.52139 0.54736
 H95 H 0.00908 0.50527 0.55734
 C96 C 0.04722 0.54019 0.56714
 H97 H 0.04399 0.53772 0.59229
 N98 N 0.03125 0.52398 0.51568
 C99 C 0.00848 0.45895 0.44489
 H100 H -0.01821 0.45968 0.44169
 C101 C 0.02424 0.43960 0.42820
 H102 H 0.00949 0.42587 0.41173
 C103 C 0.05996 0.47622 0.47029
 H104 H 0.07367 0.49007 0.48722
 C105 C 0.07674 0.45711 0.45414
 H106 H 0.10335 0.45650 0.45885
 Zn107 Zn 0.00247 0.50089 0.48811
 N108 N 0.02644 0.47688 0.46529
 C109 C -0.01831 0.53117 0.42849
 N110 N -0.02102 0.52867 0.46033
 C111 C -0.04002 0.54683 0.47379
 C112 C -0.05860 0.56752 0.45495
 C113 C -0.03605 0.55201 0.40877
 C114 C -0.01454 0.45312 0.53301
 C115 C -0.03527 0.43393 0.55205
 C116 C -0.08250 0.45750 0.52524
 C117 C -0.06087 0.47621 0.50674
 N118 N -0.02749 0.47431 0.51151
 H119 H -0.00236 0.51712 0.41833
 H120 H -0.04109 0.54487 0.49924
 H121 H -0.07399 0.58153 0.46600
 H122 H -0.03403 0.55359 0.38343
 H123 H 0.01207 0.45171 0.53592
 H124 H -0.02437 0.41802 0.56988
 H125 H -0.10897 0.45957 0.52132
 H126 H -0.07089 0.49230 0.48870
 C127 C 0.05884 0.43839 0.43281
 C128 C 0.07050 0.56213 0.55422
 C129 C -0.06972 0.43637 0.54865
 C130 C -0.05685 0.57015 0.42202
 C131 C 0.56213 0.03678 0.51191
 H132 H 0.56380 0.03896 0.48653
 C133 C 0.58225 0.05603 0.53083
 H134 H 0.59934 0.07309 0.51984
 C135 C 0.53671 0.01270 0.55687
 H136 H 0.51849 -0.00375 0.56690
 C137 C 0.55615 0.03162 0.57662
 H138 H 0.55315 0.02905 0.60182
 N139 N 0.54013 0.01547 0.52515
 C140 C 0.52102 -0.04975 0.45399
 H141 H 0.49419 -0.05083 0.45084
 C142 C 0.53861 -0.06684 0.43629
 H143 H 0.52507 -0.08069 0.41919
 C144 C 0.57111 -0.02998 0.47987
 H145 H 0.58369 -0.01603 0.49728
 C146 C 0.58967 -0.04677 0.46279
 H147 H 0.61641 -0.04550 0.46733
 Zn148 Zn 0.51210 -0.00839 0.49770
 N149 N 0.53744 -0.03135 0.47485
 C150 C 0.48708 0.01951 0.43798
 N151 N 0.48747 0.01872 0.47007
 C152 C 0.47055 0.03813 0.48410
 C153 C 0.45135 0.05869 0.46580
 C154 C 0.46811 0.03974 0.41871
 C155 C 0.49617 -0.05659 0.54283
 C156 C 0.47579 -0.07542 0.56257
 C157 C 0.42827 -0.05166 0.53666
 C158 C 0.44952 -0.03332 0.51745
 N159 N 0.48290 -0.03547 0.52144
 H160 H 0.50130 0.00443 0.42722
 H161 H 0.47182 0.03742 0.50967
 H162 H 0.43816 0.07397 0.47752
 H163 H 0.46746 0.03957 0.39323
 H164 H 0.52278 -0.05808 0.54524
 H165 H 0.48696 -0.09120 0.58036
 H166 H 0.40181 -0.04929 0.53344
 H167 H 0.43928 -0.01709 0.49969
 C168 C 0.57346 -0.06534 0.44042
 C169 C 0.57923 0.05367 0.56363
 C170 C 0.44140 -0.07262 0.56005
 C171 C 0.44965 0.05949 0.43262
 C172 C 0.55692 0.53334 0.00198
 H173 H 0.55743 0.53576 -0.02353
 C174 C 0.57747 0.55279 0.02037
 H175 H 0.59369 0.57024 0.00880
 C176 C 0.53374 0.50868 0.04783
 H177 H 0.51617 0.49199 0.05848
 C178 C 0.55381 0.52761 0.06708
 H179 H 0.55192 0.52471 0.09245
 N180 N 0.53561 0.51183 0.01590
 C181 C 0.51086 0.44560 -0.05340
 H182 H 0.48405 0.44526 -0.05527
 C183 C 0.52656 0.42693 -0.07097
 H184 H 0.51158 0.41265 -0.08676
 C185 C 0.56278 0.46500 -0.03067
 H186 H 0.57677 0.47947 -0.01452
 C187 C 0.57950 0.44659 -0.04768
 H188 H 0.60632 0.44712 -0.04435
 Zn189 Zn 0.50586 0.48845 -0.01059
 N190 N 0.52908 0.46440 -0.03406
 C191 C 0.47986 0.51615 -0.06984
 N192 N 0.48127 0.51591 -0.03775
 C193 C 0.46562 0.53613 -0.02357
 C194 C 0.44672 0.55703 -0.04171
 C195 C 0.46117 0.53671 -0.08895
 C196 C 0.49050 0.44034 0.03450
 C197 C 0.47072 0.42175 0.05497
 C198 C 0.42312 0.44736 0.03218
 C199 C 0.44379 0.46543 0.01216
 N200 N 0.47698 0.46220 0.01427
 H201 H 0.49309 0.50040 -0.08074
 H202 H 0.46772 0.53584 0.00198
 H203 H 0.43454 0.57296 -0.02990
 H204 H 0.45971 0.53612 -0.11441
 H205 H 0.51692 0.43800 0.03539
 H206 H 0.48219 0.40534 0.07183
 H207 H 0.39684 0.45057 0.03049
 H208 H 0.43329 0.48228 -0.00470
 C209 C 0.56138 0.42728 -0.06827
 C210 C 0.57578 0.55026 0.05337
 C211 C 0.43665 0.42558 0.05439
 C212 C 0.44403 0.55733 -0.07487
 C213 C 0.16561 -0.21769 -0.18695
 C214 C 0.14881 -0.20152 -0.16762
 C215 C 0.16169 -0.17284 -0.15956
 C216 C 0.19244 -0.16105 -0.17046
 C217 C 0.20926 -0.17723 -0.18980
 C218 C 0.19560 -0.20541 -0.19921
 C219 C 0.14306 -0.15672 -0.13869
 C220 C 0.14677 -0.12671 -0.13702
 C221 C 0.12803 -0.11044 -0.11637
 C222 C 0.14080 -0.08157 -0.10870
 C223 C 0.12377 -0.06507 -0.08986
 C224 C 0.09335 -0.07699 -0.07845
 C225 C 0.08041 -0.10583 -0.08625
 C226 C 0.09745 -0.12235 -0.10507
 H227 H 0.15521 -0.24005 -0.19198
 H228 H 0.12563 -0.21154 -0.15887
 H229 H 0.20422 -0.13980 -0.16342
 H230 H 0.23338 -0.16780 -0.19658
 H231 H 0.12534 -0.17034 -0.12463
 H232 H 0.16447 -0.11312 -0.15115
 H233 H 0.16409 -0.07170 -0.11733
 H234 H 0.13413 -0.04271 -0.08474
 H235 H 0.05709 -0.11569 -0.07771
 H236 H 0.08613 -0.14409 -0.11112
 C237 C 0.22110 0.32659 0.31767
 C238 C 0.20524 0.34483 0.33562
 C239 C 0.17281 0.33659 0.34421
 C240 C 0.15707 0.30887 0.33559
 C241 C 0.17294 0.29062 0.31758
 C242 C 0.20469 0.29977 0.30724
 C243 C 0.15696 0.35714 0.36280
 C244 C 0.12406 0.35652 0.36504
 C245 C 0.10846 0.37778 0.38291
 C246 C 0.07723 0.36897 0.39426
 C247 C 0.06127 0.38849 0.41063
 C248 C 0.07603 0.41750 0.41571
 C249 C 0.10719 0.42645 0.40409
 C250 C 0.12321 0.40687 0.38780
 H251 H 0.24638 0.33355 0.31223
 H252 H 0.21838 0.36559 0.34274
 H253 H 0.13283 0.30073 0.34314
 H254 H 0.16036 0.26914 0.31214
 H255 H 0.17327 0.37385 0.37451
 H256 H 0.10754 0.33977 0.35366
 H257 H 0.06524 0.34677 0.39065
 H258 H 0.03749 0.38073 0.41960
 H259 H 0.11889 0.44887 0.40700
 H260 H 0.14668 0.41497 0.37842
 C261 C 0.65551 -0.19974 0.28207
 C262 C 0.63864 -0.18300 0.30075
 C263 C 0.65491 -0.17046 0.32739
 C264 C 0.68867 -0.17489 0.33495
 C265 C 0.70555 -0.19176 0.31633
 C266 C 0.68902 -0.20524 0.29013
 C267 C 0.63552 -0.15381 0.34705
 C268 C 0.64915 -0.13272 0.36570
 C269 C 0.62926 -0.11603 0.38485
 C270 C 0.64132 -0.08698 0.39244
 C271 C 0.62323 -0.07051 0.41038
 C272 C 0.59281 -0.08293 0.42150
 C273 C 0.58104 -0.11228 0.41440
 C274 C 0.59907 -0.12869 0.39634
 H275 H 0.64206 -0.20785 0.26117
 H276 H 0.61275 -0.17958 0.29416
 H277 H 0.70204 -0.16595 0.35554
 H278 H 0.73160 -0.19454 0.32264
 H279 H 0.60877 -0.15820 0.34475
 H280 H 0.67548 -0.12608 0.36571
 H281 H 0.66460 -0.07680 0.38406
 H282 H 0.63285 -0.04786 0.41513
 H283 H 0.55813 -0.12279 0.42324
 H284 H 0.58957 -0.15145 0.39196
 C285 C 0.72500 0.30779 -0.17299
 C286 C 0.70919 0.32639 -0.15537
 C287 C 0.67586 0.33194 -0.16306
 C288 C 0.65892 0.31939 -0.18952
 C289 C 0.67476 0.30094 -0.20726
 C290 C 0.70772 0.29397 -0.19865
 C291 C 0.66007 0.35207 -0.14407
 C292 C 0.62727 0.35017 -0.14102
 C293 C 0.61135 0.37018 -0.12200
 C294 C 0.58114 0.35980 -0.10935
 C295 C 0.56505 0.37818 -0.09172
 C296 C 0.57865 0.40757 -0.08672
 C297 C 0.60875 0.41809 -0.09972
 C298 C 0.62493 0.39964 -0.11720
 H299 H 0.75096 0.30464 -0.16672
 H300 H 0.72309 0.33651 -0.13565
 H301 H 0.63374 0.32446 -0.19718
 H302 H 0.66124 0.29273 -0.22813
 H303 H 0.67630 0.36786 -0.13097
 H304 H 0.61148 0.33234 -0.15152
 H305 H 0.57008 0.33726 -0.11287
 H306 H 0.54212 0.36923 -0.08173
 H307 H 0.61950 0.44085 -0.09693
 H308 H 0.64759 0.40880 -0.12752
 C309 C -0.20892 0.18990 -0.21573
 C310 C -0.18804 0.16852 -0.20118
 C311 C -0.16406 0.17619 -0.17693
 C312 C -0.16127 0.20570 -0.16744
 C313 C -0.18258 0.22690 -0.18157
 C314 C -0.20671 0.21910 -0.20567
 C315 C -0.14433 0.15243 -0.16013
 C316 C -0.11331 0.15807 -0.14742
 C317 C -0.09501 0.13456 -0.12835
 C318 C -0.06048 0.13492 -0.12946
 C319 C -0.04258 0.11353 -0.11067
 C320 C -0.05888 0.09200 -0.08980
 C321 C -0.09338 0.09183 -0.08846
 C322 C -0.11134 0.11278 -0.10768
 H323 H -0.22767 0.18325 -0.23396
 H324 H -0.19086 0.14582 -0.20861
 H325 H -0.14357 0.21209 -0.14827
 H326 H -0.18050 0.24931 -0.17344
 H327 H -0.15564 0.12948 -0.15863
 H328 H -0.10061 0.18030 -0.15162
 H329 H -0.04738 0.15172 -0.14497
 H330 H -0.01593 0.11420 -0.11185
 H331 H -0.10643 0.07541 -0.07252
 H332 H -0.13783 0.11243 -0.10574
 C333 C -0.23281 0.68687 0.28098
 C334 C -0.21225 0.66560 0.29634
 C335 C -0.18635 0.67433 0.31841
 C336 C -0.18158 0.70473 0.32516
 C337 C -0.20255 0.72586 0.31022
 C338 C -0.22824 0.71705 0.28802
 C339 C -0.16632 0.65101 0.33565
 C340 C -0.13430 0.65652 0.34554
 C341 C -0.11507 0.63345 0.36431
 C342 C -0.08102 0.63316 0.36062
 C343 C -0.06214 0.61214 0.37887
 C344 C -0.07689 0.59162 0.40171
 C345 C -0.11089 0.59210 0.40561
 C346 C -0.12986 0.61270 0.38699
 H347 H -0.25297 0.67955 0.26449
 H348 H -0.21667 0.64224 0.29112
 H349 H -0.16239 0.71200 0.34270
 H350 H -0.19887 0.74907 0.31608
 H351 H -0.17815 0.62837 0.33946
 H352 H -0.12142 0.67822 0.33892
 H353 H -0.06906 0.64916 0.34351
 H354 H -0.03588 0.61235 0.37569
 H355 H -0.12277 0.57646 0.42308
 H356 H -0.15589 0.61287 0.39093
 C357 C 0.26780 0.19771 0.33653
 C358 C 0.28678 0.17526 0.35183
 C359 C 0.31664 0.16920 0.34013
 C360 C 0.32669 0.18556 0.31210
 C361 C 0.30754 0.20793 0.29665
 C362 C 0.27807 0.21440 0.30888
 C363 C 0.33604 0.14546 0.35770
 C364 C 0.36893 0.14446 0.35656
 C365 C 0.38854 0.12181 0.37594
 C366 C 0.41971 0.11638 0.36652
 C367 C 0.43945 0.09596 0.38464
 C368 C 0.42854 0.08070 0.41282
 C369 C 0.39738 0.08619 0.42229
 C370 C 0.37768 0.10658 0.40422
 H371 H 0.24487 0.20177 0.34618
 H372 H 0.27827 0.16279 0.37315
 H373 H 0.34902 0.18099 0.30177
 H374 H 0.31610 0.22049 0.27542
 H375 H 0.32251 0.12887 0.37299
 H376 H 0.38243 0.16096 0.34113
 H377 H 0.42888 0.12805 0.34507
 H378 H 0.46354 0.09258 0.37693
 H379 H 0.38812 0.07464 0.44374
 H380 H 0.35441 0.11072 0.41305
 C381 C 0.26194 0.69492 -0.17092
 C382 C 0.28124 0.67270 -0.15567
 C383 C 0.31148 0.66734 -0.16711
 C384 C 0.32163 0.68423 -0.19483
 C385 C 0.30216 0.70640 -0.21022
 C386 C 0.27228 0.71212 -0.19825
 C387 C 0.33111 0.64375 -0.14957
 C388 C 0.36401 0.64289 -0.15073
 C389 C 0.38357 0.62028 -0.13130
 C390 C 0.41425 0.61403 -0.14120
 C391 C 0.43380 0.59344 -0.12311
 C392 C 0.42321 0.57887 -0.09450
 C393 C 0.39261 0.58528 -0.08449
 C394 C 0.37309 0.60582 -0.10253
 H395 H 0.23870 0.69840 -0.16149
 H396 H 0.27265 0.65982 -0.13459
 H397 H 0.34427 0.68024 -0.20496
 H398 H 0.31076 0.71937 -0.23122
 H399 H 0.31772 0.62705 -0.13426
 H400 H 0.37748 0.65934 -0.16623
 H401 H 0.42312 0.62513 -0.16303
 H402 H 0.45748 0.58934 -0.13123
 H403 H 0.38364 0.57430 -0.06266
 H404 H 0.35024 0.61069 -0.09337
 C405 C -0.22149 -0.21728 0.18158
 C406 C -0.19909 -0.20290 0.16059
 C407 C -0.18158 -0.17533 0.16695
 C408 C -0.18613 -0.16286 0.19530
 C409 C -0.20842 -0.17725 0.21630
 C410 C -0.22654 -0.20450 0.20957
 C411 C -0.15834 -0.16047 0.14401
 C412 C -0.15138 -0.13046 0.14062
 C413 C -0.12853 -0.11484 0.11776
 C414 C -0.13183 -0.08424 0.10821
 C415 C -0.11016 -0.06819 0.08764
 C416 C -0.08439 -0.08230 0.07637
 C417 C -0.08092 -0.11294 0.08599
 C418 C -0.10277 -0.12909 0.10648
 H419 H -0.23529 -0.23808 0.17554
 H420 H -0.19583 -0.21308 0.13904
 H421 H -0.17212 -0.14226 0.20164
 H422 H -0.21105 -0.16724 0.23807
 H423 H -0.14830 -0.17459 0.12842
 H424 H -0.16415 -0.11631 0.15414
 H425 H -0.15121 -0.07263 0.11681
 H426 H -0.11311 -0.04447 0.08115
 H427 H -0.06131 -0.12442 0.07766
 H428 H -0.09885 -0.15243 0.11395
 C429 C -0.19567 0.27705 0.70035
 C430 C -0.17639 0.29208 0.67699
 C431 C -0.18218 0.32152 0.66460
 C432 C -0.20866 0.33524 0.67511
 C433 C -0.22783 0.32039 0.69851
 C434 C -0.22151 0.29113 0.71197
 C435 C -0.16044 0.33707 0.64065
 C436 C -0.15559 0.36725 0.63608
 C437 C -0.13380 0.38363 0.61268
 C438 C -0.13847 0.41409 0.60350
 C439 C -0.11800 0.43098 0.58242
 C440 C -0.09211 0.41786 0.57014
 C441 C -0.08730 0.38738 0.57931
 C442 C -0.10790 0.37039 0.60038
 H443 H -0.18883 0.25504 0.71009
 H444 H -0.15628 0.28089 0.66915
 H445 H -0.21514 0.35730 0.66503
 H446 H -0.24830 0.33183 0.70512
 H447 H -0.14763 0.32301 0.62714
 H448 H -0.16818 0.38108 0.65005
 H449 H -0.15799 0.42495 0.61282
 H450 H -0.12197 0.45456 0.57628
 H451 H -0.06759 0.37664 0.57018
 H452 H -0.10283 0.34725 0.60742
 C453 C 0.28813 -0.22440 0.69483
 C454 C 0.31098 -0.21092 0.67377
 C455 C 0.32843 -0.18311 0.67921
 C456 C 0.32386 -0.16978 0.70703
 C457 C 0.30109 -0.18325 0.72804
 C458 C 0.28241 -0.21041 0.72188
 C459 C 0.35115 -0.16860 0.65561
 C460 C 0.35718 -0.13852 0.65107
 C461 C 0.37860 -0.12291 0.62694
 C462 C 0.37442 -0.09246 0.61731
 C463 C 0.39448 -0.07639 0.59534
 C464 C 0.41950 -0.09032 0.58260
 C465 C 0.42391 -0.12079 0.59233
 C466 C 0.40368 -0.13697 0.61428
 H467 H 0.27440 -0.24529 0.68932
 H468 H 0.31438 -0.22186 0.65273
 H469 H 0.33796 -0.14905 0.71280
 H470 H 0.29827 -0.17237 0.74924
 H471 H 0.36112 -0.18300 0.64028
 H472 H 0.34442 -0.12430 0.66451
 H473 H 0.35555 -0.08099 0.62691
 H474 H 0.39088 -0.05279 0.58883
 H475 H 0.44297 -0.13213 0.58290
 H476 H 0.40828 -0.16017 0.62169
 C477 C 0.28974 0.27675 0.19867
 C478 C 0.31082 0.28957 0.17570
 C479 C 0.33025 0.31665 0.18017
 C480 C 0.32953 0.32985 0.20882
 C481 C 0.30855 0.31706 0.23174
 C482 C 0.28797 0.29069 0.22668
 C483 C 0.35089 0.33069 0.15468
 C484 C 0.35754 0.36069 0.15003
 C485 C 0.37722 0.37597 0.12442
 C486 C 0.37353 0.40665 0.11559
 C487 C 0.39239 0.42250 0.09251
 C488 C 0.41565 0.40809 0.07783
 C489 C 0.41942 0.37734 0.08661
 C490 C 0.40042 0.36140 0.10968
 H491 H 0.27404 0.25653 0.19397
 H492 H 0.31121 0.27880 0.15397
 H493 H 0.34522 0.35003 0.21369
 H494 H 0.30840 0.32785 0.25348
 H495 H 0.35871 0.31610 0.13827
 H496 H 0.34671 0.37513 0.16476
 H497 H 0.35610 0.41850 0.12677
 H498 H 0.38933 0.44629 0.08673
 H499 H 0.43712 0.36563 0.07565
 H500 H 0.40459 0.33798 0.11636
 C501 C 0.16941 0.22982 0.20805
 C502 C 0.15261 0.20997 0.18756
 C503 C 0.16431 0.18175 0.18477
 C504 C 0.19317 0.17365 0.20318
 C505 C 0.20993 0.19349 0.22378
 C506 C 0.19817 0.22173 0.22654
 C507 C 0.14483 0.16098 0.16370
 C508 C 0.15774 0.13864 0.15101
 C509 C 0.13770 0.11805 0.13012
 C510 C 0.15343 0.10464 0.10748
 C511 C 0.13523 0.08515 0.08736
 C512 C 0.10098 0.07831 0.08983
 C513 C 0.08537 0.09128 0.11292
 C514 C 0.10350 0.11088 0.13289
 H515 H 0.15993 0.25157 0.20925
 H516 H 0.13037 0.21672 0.17376
 H517 H 0.20238 0.15172 0.20249
 H518 H 0.23155 0.18628 0.23823
 H519 H 0.11911 0.16523 0.15742
 H520 H 0.18414 0.13615 0.15462
 H521 H 0.17982 0.10950 0.10515
 H522 H 0.14801 0.07517 0.07009
 H523 H 0.05898 0.08656 0.11530
 H524 H 0.09070 0.12000 0.15071
 C525 C 0.16050 0.70240 0.72789
 C526 C 0.14432 0.68125 0.70853
 C527 C 0.15901 0.67344 0.68204
 C528 C 0.19078 0.68694 0.67570
 C529 C 0.20700 0.70811 0.69515
 C530 C 0.19197 0.71630 0.72132
 C531 C 0.14043 0.65086 0.66236
 C532 C 0.14716 0.64649 0.63283
 C533 C 0.12717 0.62452 0.61340
 C534 C 0.14194 0.61266 0.58908
 C535 C 0.12372 0.59226 0.56998
 C536 C 0.09019 0.58347 0.57465
 C537 C 0.07528 0.59570 0.59870
 C538 C 0.09347 0.61605 0.61777
 H539 H 0.14847 0.70745 0.74833
 H540 H 0.12008 0.67100 0.71427
 H541 H 0.20355 0.68108 0.65611
 H542 H 0.23116 0.71819 0.68938
 H543 H 0.11980 0.63762 0.67281
 H544 H 0.16803 0.65907 0.62220
 H545 H 0.16775 0.61903 0.58502
 H546 H 0.13596 0.58314 0.55175
 H547 H 0.04927 0.59004 0.60233
 H548 H 0.08071 0.62560 0.63532
 C549 C 0.67697 0.19134 0.73834
 C550 C 0.66054 0.16959 0.71984
 C551 C 0.66928 0.16720 0.68895
 C552 C 0.69516 0.18713 0.67703
 C553 C 0.71177 0.20874 0.69568
 C554 C 0.70265 0.21121 0.72638
 C555 C 0.64973 0.14456 0.66993
 C556 C 0.65788 0.13701 0.64190
 C557 C 0.63721 0.11519 0.62275
 C558 C 0.65185 0.10224 0.59905
 C559 C 0.63314 0.08219 0.57992
 C560 C 0.59931 0.07466 0.58408
 C561 C 0.58454 0.08775 0.60760
 C562 C 0.60316 0.10794 0.62658
 H563 H 0.66968 0.19250 0.76209
 H564 H 0.64071 0.15466 0.72968
 H565 H 0.70235 0.18684 0.65319
 H566 H 0.73111 0.22414 0.68570
 H567 H 0.62787 0.13331 0.68009
 H568 H 0.68099 0.14631 0.63265
 H569 H 0.67791 0.10760 0.59536
 H570 H 0.64521 0.07234 0.56205
 H571 H 0.55832 0.08290 0.61082
 H572 H 0.59042 0.11823 0.64359
 C573 C 0.65777 0.72409 0.19200
 C574 C 0.64211 0.70392 0.17130
 C575 C 0.65760 0.67855 0.16480
 C576 C 0.68947 0.67395 0.17929
 C577 C 0.70520 0.69420 0.20003
 C578 C 0.68930 0.71923 0.20711
 C579 C 0.63877 0.65681 0.14437
 C580 C 0.65257 0.63606 0.12999
 C581 C 0.63257 0.61408 0.11066
 C582 C 0.64708 0.60219 0.08621
 C583 C 0.62875 0.58146 0.06755
 C584 C 0.59564 0.57191 0.07329
 C585 C 0.58135 0.58342 0.09815
 C586 C 0.59960 0.60413 0.11671
 H587 H 0.64507 0.74354 0.19608
 H588 H 0.61761 0.70809 0.16043
 H589 H 0.70202 0.65434 0.17554
 H590 H 0.72939 0.68961 0.21110
 H591 H 0.61227 0.65870 0.14043
 H592 H 0.67931 0.63576 0.13116
 H593 H 0.67256 0.60917 0.08135
 H594 H 0.64057 0.57266 0.04884
 H595 H 0.55584 0.57668 0.10306
 H596 H 0.58788 0.61195 0.13602
   
