data_POSCAR
  _audit_creation_date              2014-09-24
  _audit_creation_method            'ToBaCCo'
  _symmetry_space_group_name_H-M    'P1'
  _symmetry_Int_Tables_number       1
  _symmetry_cell_setting            triclinic
  loop_
  _symmetry_equiv_pos_as_xyz
 x,y,z
_cell_length_a 19.3374
_cell_length_b 20.0062
_cell_length_c 24.9528
_cell_angle_alpha 86.053200
_cell_angle_beta 90.305900
_cell_angle_gamma 95.637400
loop_
  _atom_site_label
  _atom_site_type_symbol
  _atom_site_fract_x
  _atom_site_fract_y
  _atom_site_fract_z
C1 C 0.00175 0.56234 1.03302
 C2 C 0.00990 0.56833 0.97607
 C3 C 0.00859 0.50915 0.94851
 C4 C 0.00418 0.44537 0.97581
 C5 C 0.00560 0.43993 1.03262
 C6 C 0.00266 0.49841 1.06026
 H7 H 0.00113 0.49406 1.10386
 H8 H 0.00946 0.51254 0.90492
 C9 C 0.46239 0.02061 0.53779
 C10 C 0.42708 -0.00101 0.49079
 C11 C 0.46581 -0.03229 0.45387
 C12 C 0.53563 -0.04326 0.46307
 C13 C 0.57305 -0.01334 0.50623
 C14 C 0.53365 0.01519 0.54462
 H15 H 0.55868 0.03497 0.57996
 H16 H 0.44049 -0.05099 0.41828
 C17 C 0.11381 0.00006 0.29346
 H18 H 0.12561 0.00965 0.25113
 C19 C 0.16717 0.00382 0.33120
 H20 H 0.22042 0.01631 0.31794
 C21 C 0.02996 -0.02756 0.36256
 H22 H -0.02370 -0.03936 0.37453
 C23 C 0.08196 -0.02414 0.40180
 H24 H 0.06843 -0.03353 0.44388
 N25 N 0.04687 -0.01614 0.30954
 C26 C -0.06006 -0.10690 0.17446
 H27 H -0.10181 -0.07493 0.16838
 C28 C -0.05794 -0.16304 0.14451
 H29 H -0.09790 -0.17421 0.11497
 C30 C 0.04177 -0.13287 0.22165
 H31 H 0.07963 -0.12190 0.25257
 C32 C 0.04585 -0.18956 0.19255
 H33 H 0.08709 -0.22168 0.20089
 Zn34 Zn -0.02152 -0.02006 0.25502
 N35 N -0.01072 -0.09294 0.21222
 C36 C -0.00377 0.06492 0.15880
 N37 N -0.01181 0.06288 0.21307
 C38 C -0.01205 0.12036 0.23917
 C39 C -0.00625 0.18300 0.21041
 C40 C 0.00258 0.12656 0.12850
 C41 C -0.12980 -0.09771 0.30932
 C42 C -0.19390 -0.11197 0.33505
 C43 C -0.21861 0.00260 0.31212
 C44 C -0.15456 0.01433 0.28588
 N45 N -0.11087 -0.03506 0.28629
 H46 H -0.00227 0.01888 0.13885
 H47 H -0.01751 0.11735 0.28243
 H48 H -0.00774 0.22838 0.23150
 H49 H 0.00860 0.12769 0.08530
 H50 H -0.09453 -0.13635 0.30825
 H51 H -0.20815 -0.16186 0.35376
 H52 H -0.25196 0.04293 0.31323
 H53 H -0.13950 0.06326 0.26620
 C54 C -0.00510 -0.20552 0.15418
 C55 C 0.15131 -0.00841 0.38590
 C56 C -0.23793 -0.06069 0.33821
 C57 C 0.00157 0.18640 0.15445
 C58 C -0.00301 0.16019 0.76669
 H59 H -0.01065 0.16415 0.72368
 C60 C -0.00555 0.21698 0.79584
 H61 H -0.01372 0.26490 0.77508
 C62 C 0.01473 0.09285 0.84654
 H63 H 0.02189 0.04439 0.86637
 C64 C 0.01230 0.14835 0.87727
 H65 H 0.01789 0.14233 0.92051
 N66 N 0.00789 0.09976 0.79215
 C67 C 0.12737 -0.02189 0.70157
 H68 H 0.10541 -0.07026 0.71893
 C69 C 0.18968 -0.01751 0.67298
 H70 H 0.21562 -0.06251 0.66906
 C71 C 0.12024 0.09520 0.68484
 H72 H 0.09343 0.13917 0.68959
 C73 C 0.18259 0.10186 0.65597
 H74 H 0.20362 0.15112 0.63949
 Zn75 Zn 0.01143 0.02478 0.74977
 N76 N 0.09446 0.03418 0.70783
 C77 C -0.05971 -0.01159 0.65713
 N78 N -0.06605 0.01892 0.70359
 C79 C -0.12732 0.04078 0.71807
 C80 C -0.18556 0.03243 0.68481
 C81 C -0.11641 -0.02099 0.62290
 C82 C 0.06362 -0.06715 0.82701
 C83 C 0.06500 -0.12823 0.85742
 C84 C -0.04642 -0.16599 0.81999
 C85 C -0.04592 -0.10405 0.79051
 N86 N 0.00889 -0.05636 0.79411
 H87 H -0.01065 -0.02908 0.64685
 H88 H -0.13115 0.06404 0.75566
 H89 H -0.23409 0.05018 0.69639
 H90 H -0.11033 -0.04445 0.58558
 H91 H 0.10679 -0.02865 0.82882
 H92 H 0.10900 -0.13654 0.88322
 H93 H -0.08972 -0.20402 0.81616
 H94 H -0.08888 -0.09463 0.76412
 C95 C 0.21834 0.04509 0.65022
 C96 C 0.00171 0.21112 0.85182
 C97 C 0.01012 -0.17888 0.85310
 C98 C -0.18046 0.00035 0.63698
 C99 C 0.04930 -0.27183 0.08885
 C100 C 0.05055 -0.32776 0.05874
 C101 C -0.00220 -0.38146 0.06398
 C102 C -0.05737 -0.37799 0.10108
 C103 C -0.05761 -0.32147 0.13244
 C104 C -0.00448 -0.26762 0.12535
 C105 C -0.11149 -0.32057 0.17003
 N106 N -0.16355 -0.37119 0.17373
 N107 N -0.16545 -0.42252 0.14238
 C108 C -0.11470 -0.42742 0.10600
 H109 H 0.09042 -0.23109 0.08330
 H110 H 0.09384 -0.32951 0.03164
 H111 H -0.11280 -0.28018 0.19652
 H112 H -0.12042 -0.46945 0.08086
 C113 C -0.04459 0.26372 0.08470
 C114 C -0.04390 0.32525 0.05503
 C115 C 0.00858 0.37755 0.06232
 C116 C 0.06258 0.36617 0.09996
 C117 C 0.06163 0.30328 0.13022
 C118 C 0.00689 0.25220 0.12292
 C119 C 0.11713 0.29271 0.16554
 N120 N 0.16984 0.34185 0.17013
 N121 N 0.17133 0.40049 0.14136
 C122 C 0.12006 0.41413 0.10621
 H123 H -0.08669 0.22510 0.07861
 H124 H -0.08634 0.33277 0.02748
 H125 H 0.11995 0.24549 0.18883
 H126 H 0.12573 0.46178 0.08277
 C127 C 0.34309 0.02294 0.65099
 C128 C 0.40805 0.02117 0.62667
 C129 C 0.42509 0.05494 0.57673
 C130 C 0.38305 0.10017 0.55318
 C131 C 0.30053 0.08604 0.57407
 C132 C 0.28774 0.05177 0.62438
 C133 C 0.23786 0.10890 0.53119
 N134 N 0.28218 0.15560 0.45528
 N135 N 0.35922 0.16282 0.44800
 C136 C 0.40978 0.13887 0.49254
 H137 H 0.33415 -0.00403 0.68986
 H138 H 0.44336 -0.01249 0.64498
 H139 H 0.18376 0.09903 0.54446
 H140 H 0.46465 0.14333 0.48301
 C141 C -0.26622 0.05089 0.57605
 C142 C -0.31825 0.05009 0.53634
 C143 C -0.34724 -0.00829 0.51258
 C144 C -0.30468 -0.06423 0.51603
 C145 C -0.25944 -0.06886 0.57883
 C146 C -0.23972 -0.00712 0.59956
 C147 C -0.22816 -0.14666 0.60563
 N148 N -0.23336 -0.21929 0.57719
 N149 N -0.26373 -0.24389 0.52383
 C150 C -0.30299 -0.20045 0.47685
 H151 H -0.24821 0.09919 0.59090
 H152 H -0.34214 0.09648 0.52799
 H153 H -0.20124 -0.14479 0.64366
 H154 H -0.32806 -0.22399 0.44267
 C155 C -0.03996 -0.26578 0.92104
 C156 C -0.03968 -0.32668 0.95152
 C157 C 0.01308 -0.36920 0.94536
 C158 C 0.06660 -0.34901 0.90682
 C159 C 0.06495 -0.28775 0.87475
 C160 C 0.01195 -0.24534 0.88289
 C161 C 0.11660 -0.27103 0.83521
 N162 N 0.16874 -0.31085 0.83059
 N163 N 0.17272 -0.36621 0.86276
 C164 C 0.12397 -0.38635 0.90085
 H165 H -0.08110 -0.23410 0.92740
 H166 H -0.08207 -0.34129 0.97944
 H167 H 0.11608 -0.22684 0.80780
 H168 H 0.13121 -0.43087 0.92648
 C169 C 0.05797 0.29241 0.91285
 C170 C 0.05904 0.34919 0.94229
 C171 C 0.00092 0.38562 0.94347
 C172 C -0.05982 0.36399 0.91491
 C173 C -0.06109 0.30596 0.88521
 C174 C -0.00116 0.27057 0.88366
 C175 C -0.12324 0.28427 0.85923
 N176 N -0.17953 0.31927 0.86220
 N177 N -0.17812 0.37409 0.88971
 C178 C -0.12038 0.39751 0.91629
 H179 H 0.10401 0.26566 0.91230
 H180 H 0.10558 0.36503 0.96428
 H181 H -0.12807 0.23941 0.83719
 H182 H -0.12270 0.44162 0.93869
 C183 C -0.36615 -0.06026 0.34501
 C184 C -0.42810 -0.06258 0.37410
 C185 C -0.43151 -0.08246 0.42925
 C186 C -0.38023 -0.11775 0.45286
 C187 C -0.30267 -0.09619 0.42408
 C188 C -0.30296 -0.07258 0.36981
 C189 C -0.22838 -0.10383 0.45616
 N190 N -0.23351 -0.13533 0.51551
 N191 N -0.32018 -0.16179 0.54960
 C192 C -0.39084 -0.15273 0.51712
 H193 H -0.36640 -0.04241 0.30302
 H194 H -0.47080 -0.03951 0.35454
 H195 H -0.17823 -0.08828 0.43807
 H196 H -0.44112 -0.16284 0.53639
 C197 C 0.25052 -0.05730 0.43113
 C198 C 0.31457 -0.05388 0.45791
 C199 C 0.34944 0.00422 0.47897
 C200 C 0.30881 0.06189 0.48279
 C201 C 0.22573 0.05348 0.45120
 C202 C 0.20830 -0.00469 0.42524
 C203 C 0.16921 0.11872 0.45164
 N204 N 0.18395 0.19038 0.47970
 N205 N 0.24488 0.22306 0.51126
 C206 C 0.31736 0.19185 0.52657
 H207 H 0.23413 -0.10351 0.41235
 H208 H 0.34045 -0.09960 0.45912
 H209 H 0.11997 0.11000 0.43134
 H210 H 0.35771 0.21922 0.54954
   
