data_POSCAR
  _audit_creation_date              2014-09-24
  _audit_creation_method            'ToBaCCo'
  _symmetry_space_group_name_H-M    'P1'
  _symmetry_Int_Tables_number       1
  _symmetry_cell_setting            triclinic
  loop_
  _symmetry_equiv_pos_as_xyz
 x,y,z
_cell_length_a 45.3357
_cell_length_b 18.3663
_cell_length_c 18.3494
_cell_angle_alpha 90.007100
_cell_angle_beta 89.838800
_cell_angle_gamma 89.826100
loop_
  _atom_site_label
  _atom_site_type_symbol
  _atom_site_fract_x
  _atom_site_fract_y
  _atom_site_fract_z
C1 C 0.67220 0.29225 0.49739
 C2 C 0.68769 0.28990 0.56294
 C3 C 0.71786 0.27310 0.56288
 C4 C 0.73270 0.25421 0.49734
 C5 C 0.71616 0.25518 0.43190
 C6 C 0.68643 0.27597 0.43193
 C7 C 0.76497 0.23370 0.49724
 C8 C 0.78178 0.23386 0.43185
 C9 C 0.81155 0.21301 0.43193
 C10 C 0.82540 0.19541 0.49729
 C11 C 0.80965 0.19664 0.56251
 C12 C 0.77954 0.21365 0.56257
 H13 H 0.64897 0.30681 0.49716
 H14 H 0.72933 0.27553 0.61430
 H15 H 0.72580 0.23965 0.38034
 H16 H 0.77230 0.25043 0.38054
 H17 H 0.84864 0.18080 0.49758
 H18 H 0.76800 0.21055 0.61397
 C19 C 0.17231 0.79442 0.50212
 C20 C 0.18628 0.77866 0.56792
 C21 C 0.21595 0.75709 0.56830
 C22 C 0.23266 0.75479 0.50289
 C23 C 0.21803 0.77314 0.43711
 C24 C 0.18795 0.79066 0.43675
 C25 C 0.26487 0.73336 0.50320
 C26 C 0.27960 0.71368 0.43777
 C27 C 0.30965 0.69619 0.43777
 C28 C 0.32519 0.69377 0.50299
 C29 C 0.31120 0.71076 0.56852
 C30 C 0.28149 0.73230 0.56872
 H31 H 0.14914 0.80961 0.50163
 H32 H 0.22545 0.74193 0.62002
 H33 H 0.22947 0.77459 0.38552
 H34 H 0.26828 0.71128 0.38621
 H35 H 0.34839 0.67879 0.50256
 H36 H 0.27195 0.74848 0.62021
 C37 C 0.32483 0.30400 -0.49883
 C38 C 0.30929 0.30207 -0.56408
 C39 C 0.27922 0.28506 -0.56403
 C40 C 0.26445 0.26585 -0.49846
 C41 C 0.28111 0.26655 -0.43308
 C42 C 0.31081 0.28720 -0.43342
 C43 C 0.23222 0.24516 -0.49836
 C44 C 0.21558 0.24304 -0.43275
 C45 C 0.18589 0.22188 -0.43290
 C46 C 0.17186 0.20645 -0.49865
 C47 C 0.18745 0.21002 -0.56409
 C48 C 0.21750 0.22711 -0.56398
 H49 H 0.34802 0.31851 -0.49895
 H50 H 0.26789 0.28753 -0.61559
 H51 H 0.27163 0.25084 -0.38145
 H52 H 0.22514 0.25799 -0.38109
 H53 H 0.14869 0.19162 -0.49905
 H54 H 0.22888 0.22554 -0.61567
 C55 C -0.17436 0.80661 -0.50238
 C56 C -0.18807 0.78927 -0.56793
 C57 C -0.21774 0.76811 -0.56843
 C58 C -0.23464 0.76767 -0.50323
 C59 C -0.22022 0.78755 -0.43762
 C60 C -0.19018 0.80483 -0.43730
 C61 C -0.26679 0.74650 -0.50357
 C62 C -0.28164 0.72786 -0.43810
 C63 C -0.31165 0.71034 -0.43821
 C64 C -0.32704 0.70704 -0.50374
 C65 C -0.31286 0.72307 -0.56925
 C66 C -0.28323 0.74449 -0.56924
 H67 H -0.15118 0.82141 -0.50182
 H68 H -0.22705 0.75176 -0.61995
 H69 H -0.23181 0.79027 -0.38626
 H70 H -0.27037 0.72615 -0.38641
 H71 H -0.35017 0.69194 -0.50374
 H72 H -0.27361 0.75970 -0.62086
 O73 O -0.03967 0.87657 0.13734
 O74 O -0.07288 0.94020 0.06791
 C75 C -0.06641 0.89508 0.11993
 O76 O 0.04216 1.13191 0.12750
 O77 O 0.07462 1.06345 0.05991
 C78 C 0.06870 1.11174 0.10954
 O79 O -0.04013 1.12694 0.13558
 O80 O -0.07305 1.06125 0.06776
 C81 C -0.06677 1.10745 0.11890
 O82 O 0.04252 0.87007 0.12807
 O83 O 0.07481 0.93787 0.05988
 C84 C 0.06902 0.88995 0.10989
 Zr85 Zr 0.00106 0.90804 0.09098
 O86 O 0.00260 0.89580 0.20545
 O87 O 0.00014 0.79386 0.07737
 Zr88 Zr 0.00083 1.09293 0.09143
 O89 O 0.00351 1.09877 0.20644
 O90 O -0.00037 1.20748 0.08118
 O91 O -0.02505 1.00050 0.10696
 O92 O 0.02639 1.00052 0.10429
 O93 O 0.04137 0.86906 -0.12912
 O94 O 0.07429 0.93784 -0.06425
 C95 C 0.06803 0.88876 -0.11270
 O96 O -0.04140 1.12331 -0.13454
 O97 O -0.07374 1.05986 -0.06258
 C98 C -0.06789 1.10372 -0.11602
 O99 O 0.04106 1.13250 -0.12899
 O100 O 0.07412 1.06307 -0.06479
 C101 C 0.06777 1.11242 -0.11296
 O102 O -0.04112 0.87833 -0.13503
 O103 O -0.07360 0.94154 -0.06277
 C104 C -0.06767 0.89787 -0.11640
 Zr105 Zr 0.00022 0.90833 -0.09096
 O106 O 0.00297 0.90107 -0.20583
 O107 O -0.00303 0.79349 -0.08459
 Zr108 Zr 0.00003 1.09298 -0.09084
 O109 O 0.00285 1.10007 -0.20572
 O110 O -0.00344 1.20782 -0.08445
 Zr111 Zr -0.04372 1.00062 0.00187
 Zr112 Zr 0.04470 1.00067 -0.00118
 O113 O 0.02548 1.00065 -0.10557
 O114 O -0.02594 1.00070 -0.10461
 O115 O 0.02740 0.89419 -0.00079
 O116 O -0.02574 1.10605 0.00114
 O117 O -0.02558 0.89507 0.00094
 O118 O 0.02711 1.10701 -0.00050
 H119 H 0.03941 1.00071 0.14755
 H120 H -0.03948 1.14812 0.00115
 H121 H 0.03815 1.00064 -0.14966
 H122 H -0.03933 0.85321 0.00111
 H123 H -0.00006 1.22697 0.13153
 H124 H 0.01388 1.22560 -0.05709
 H125 H -0.01014 1.06200 -0.22593
 H126 H -0.00946 0.94048 -0.22591
 H127 H 0.01481 0.77538 -0.05936
 H128 H -0.00009 0.77305 0.12716
 H129 H 0.00413 0.94528 0.22610
 H130 H -0.01054 1.06274 0.22640
 O131 O 0.45892 0.37621 0.13279
 O132 O 0.42650 0.44069 0.06195
 C133 C 0.43239 0.39623 0.11487
 O134 O 0.54123 0.63087 0.12722
 O135 O 0.57429 0.56168 0.06222
 C136 C 0.56794 0.61095 0.11060
 O137 O 0.45897 0.62125 0.13473
 O138 O 0.42653 0.55920 0.06221
 C139 C 0.43244 0.60245 0.11607
 O140 O 0.54142 0.36729 0.12625
 O141 O 0.57440 0.43689 0.06190
 C142 C 0.56810 0.38722 0.10981
 Zr143 Zr 0.50035 0.40742 0.08924
 O144 O 0.50260 0.40078 0.20426
 O145 O 0.49888 0.29292 0.07907
 Zr146 Zr 0.50021 0.59217 0.08883
 O147 O 0.50123 0.60510 0.20326
 O148 O 0.49865 0.70633 0.07523
 O149 O 0.47427 0.49985 0.10313
 O150 O 0.52566 0.49967 0.10347
 O151 O 0.54253 0.36853 -0.13025
 O152 O 0.57482 0.43732 -0.06355
 C153 C 0.56902 0.38900 -0.11307
 O154 O 0.46006 0.62476 -0.13780
 O155 O 0.42709 0.56019 -0.06860
 C156 C 0.43339 0.60565 -0.12044
 O157 O 0.54247 0.63040 -0.12967
 O158 O 0.57485 0.56193 -0.06237
 C159 C 0.56899 0.61019 -0.11195
 O160 O 0.46025 0.37402 -0.13703
 O161 O 0.42719 0.43928 -0.06830
 C162 C 0.43357 0.39339 -0.11978
 Zr163 Zr 0.50111 0.40717 -0.09297
 O164 O 0.50435 0.40139 -0.20790
 O165 O 0.49848 0.29221 -0.08656
 Zr166 Zr 0.50097 0.59216 -0.09302
 O167 O 0.50433 0.59864 -0.20785
 O168 O 0.49794 0.70709 -0.08649
 Zr169 Zr 0.45640 0.49980 -0.00296
 Zr170 Zr 0.54481 0.49945 -0.00105
 O171 O 0.52642 0.49959 -0.10636
 O172 O 0.47502 0.49970 -0.10840
 O173 O 0.52746 0.39318 -0.00131
 O174 O 0.47432 0.60531 -0.00241
 O175 O 0.47459 0.39430 -0.00224
 O176 O 0.52734 0.60601 -0.00150
 H177 H 0.53837 0.49940 0.14729
 H178 H 0.46048 0.64719 -0.00225
 H179 H 0.53933 0.49965 -0.14999
 H180 H 0.46094 0.35225 -0.00214
 H181 H 0.49770 0.72709 0.12501
 H182 H 0.51572 0.72473 -0.06083
 H183 H 0.49145 0.56037 -0.22814
 H184 H 0.49056 0.43798 -0.22801
 H185 H 0.51587 0.27486 -0.05898
 H186 H 0.49826 0.27363 0.12947
 H187 H 0.48888 0.43783 0.22413
 H188 H 0.50231 0.55567 0.22425
 C189 C 0.36244 0.33577 0.26029
 C190 C 0.39063 0.30586 0.26870
 C191 C 0.41302 0.32254 0.21919
 C192 C 0.32524 0.31521 0.36929
 C193 C 0.37870 0.39650 0.15004
 C194 C 0.35632 0.38008 0.20013
 C195 C 0.34103 0.32500 0.31726
 C196 C 0.40756 0.36965 0.16029
 H197 H 0.39562 0.27158 0.31516
 H198 H 0.43486 0.30056 0.22869
 H199 H 0.37365 0.43228 0.10489
 H200 H 0.33457 0.40364 0.19314
 C201 C -0.13547 0.81777 0.25981
 C202 C -0.10713 0.78790 0.26453
 C203 C -0.08496 0.81087 0.21696
 C204 C -0.17215 0.79510 0.36932
 C205 C -0.11978 0.89136 0.15714
 C206 C -0.14192 0.86855 0.20521
 C207 C -0.15635 0.80366 0.31714
 C208 C -0.09082 0.86429 0.16390
 H209 H -0.10183 0.74908 0.30703
 H210 H -0.06300 0.78851 0.22345
 H211 H -0.12507 0.93225 0.11673
 H212 H -0.16371 0.89263 0.20159
 C213 C 0.63583 0.69047 0.25177
 C214 C 0.60811 0.72408 0.25099
 C215 C 0.58653 0.70090 0.20211
 C216 C 0.67092 0.71525 0.36381
 C217 C 0.62082 0.61274 0.15157
 C218 C 0.64238 0.63587 0.20087
 C219 C 0.65578 0.70548 0.31079
 C220 C 0.59232 0.64346 0.15325
 H221 H 0.60271 0.76596 0.29047
 H222 H 0.56491 0.72603 0.20476
 H223 H 0.62603 0.56845 0.11476
 H224 H 0.66368 0.60899 0.20141
 C225 C 0.13703 1.17780 0.25543
 C226 C 0.10971 1.21335 0.25654
 C227 C 0.08805 1.19531 0.20580
 C228 C 0.17189 1.19790 0.36872
 C229 C 0.12167 1.10924 0.14925
 C230 C 0.14327 1.12696 0.20064
 C231 C 0.15702 1.18864 0.31519
 C232 C 0.09344 1.14131 0.15298
 H233 H 0.10463 1.25272 0.29880
 H234 H 0.06664 1.22127 0.21021
 H235 H 0.12659 1.06774 0.10912
 H236 H 0.16431 1.09888 0.19939
 C237 C 0.63756 0.32343 -0.26041
 C238 C 0.64372 0.37379 -0.20528
 C239 C 0.62203 0.39154 -0.15365
 C240 C 0.67276 0.30219 -0.37359
 C241 C 0.58849 0.30642 -0.21064
 C242 C 0.61020 0.28847 -0.26170
 C243 C 0.65776 0.31211 -0.32007
 C244 C 0.59380 0.35984 -0.15733
 H245 H 0.66480 0.40137 -0.20385
 H246 H 0.62691 0.43264 -0.11322
 H247 H 0.56710 0.28075 -0.21509
 H248 H 0.60518 0.24952 -0.30423
 C249 C 0.13589 0.81003 -0.25560
 C250 C 0.14245 0.86401 -0.20426
 C251 C 0.12092 0.88680 -0.15430
 C252 C 0.17077 0.78617 -0.36877
 C253 C 0.08669 0.79939 -0.20505
 C254 C 0.10824 0.77657 -0.25458
 C255 C 0.15572 0.79559 -0.31529
 C256 C 0.09246 0.85630 -0.15575
 H257 H 0.16373 0.89071 -0.20495
 H258 H 0.12609 0.93075 -0.11719
 H259 H 0.06509 0.77454 -0.20762
 H260 H 0.10284 0.73515 -0.29440
 C261 C 0.36392 0.68153 -0.25990
 C262 C 0.35768 0.63125 -0.20466
 C263 C 0.37994 0.60893 -0.15680
 C264 C 0.32698 0.70449 -0.36866
 C265 C 0.41449 0.68881 -0.21810
 C266 C 0.39220 0.71123 -0.26551
 C267 C 0.34284 0.69565 -0.31674
 C268 C 0.40883 0.63603 -0.16429
 H269 H 0.33594 0.60725 -0.20031
 H270 H 0.37479 0.56843 -0.11589
 H271 H 0.43639 0.71111 -0.22528
 H272 H 0.39738 0.74958 -0.30853
 C273 C -0.13761 1.16244 -0.26201
 C274 C -0.14379 1.11877 -0.20140
 C275 C -0.12150 1.10299 -0.15106
 C276 C -0.17458 1.18299 -0.37093
 C277 C -0.08720 1.17621 -0.22100
 C278 C -0.10947 1.19223 -0.27076
 C279 C -0.15893 1.17304 -0.31892
 C280 C -0.09270 1.12983 -0.16156
 H281 H -0.16549 1.09524 -0.19421
 H282 H -0.12656 1.06768 -0.10553
 H283 H -0.06539 1.19809 -0.23073
 H284 H -0.10444 1.22591 -0.31764
 C285 C 0.63751 0.67665 -0.25806
 C286 C 0.61018 0.71215 -0.25892
 C287 C 0.58847 0.69394 -0.20812
 C288 C 0.67263 0.69760 -0.37118
 C289 C 0.62202 0.60772 -0.15205
 C290 C 0.64369 0.62565 -0.20348
 C291 C 0.65762 0.68790 -0.31776
 C292 C 0.59378 0.63976 -0.15554
 H293 H 0.60516 0.75167 -0.30099
 H294 H 0.56707 0.71996 -0.21225
 H295 H 0.62691 0.56617 -0.11204
 H296 H 0.66476 0.59768 -0.20241
 C297 C 0.13551 1.19054 -0.25630
 C298 C 0.14210 1.13632 -0.20515
 C299 C 0.12061 1.11372 -0.15510
 C300 C 0.17040 1.21439 -0.36949
 C301 C 0.08634 1.20182 -0.20529
 C302 C 0.10785 1.22444 -0.25494
 C303 C 0.15534 1.20496 -0.31602
 C304 C 0.09215 1.14466 -0.15621
 H305 H 0.16338 1.10932 -0.20602
 H306 H 0.12583 1.06961 -0.11814
 H307 H 0.06475 1.22709 -0.20754
 H308 H 0.10242 1.26612 -0.29452
 C309 C 0.36435 0.31664 -0.25860
 C310 C 0.39268 0.28675 -0.26397
 C311 C 0.41489 0.30945 -0.21669
 C312 C 0.32746 0.29348 -0.36712
 C313 C 0.38018 0.38997 -0.15606
 C314 C 0.35798 0.36737 -0.20378
 C315 C 0.34335 0.30236 -0.31538
 C316 C 0.40910 0.36269 -0.16330
 H317 H 0.39794 0.24810 -0.30673
 H318 H 0.43684 0.28707 -0.22371
 H319 H 0.37495 0.43087 -0.11552
 H320 H 0.33621 0.39156 -0.19973
 C321 C -0.13747 0.83873 -0.26181
 C322 C -0.10922 0.80928 -0.27096
 C323 C -0.08688 0.82561 -0.22154
 C324 C -0.17451 0.81819 -0.37055
 C325 C -0.12133 0.89853 -0.15115
 C326 C -0.14367 0.88243 -0.20116
 C327 C -0.15885 0.82805 -0.31854
 C328 C -0.09245 0.87188 -0.16196
 H329 H -0.10416 0.77563 -0.31791
 H330 H -0.06500 0.80402 -0.23162
 H331 H -0.12642 0.93390 -0.10563
 H332 H -0.16545 0.90575 -0.19367
 C333 C 0.36256 0.66301 0.26176
 C334 C 0.39064 0.69321 0.26982
 C335 C 0.41302 0.67629 0.22032
 C336 C 0.32554 0.68326 0.37108
 C337 C 0.37888 0.60164 0.15186
 C338 C 0.35651 0.61821 0.20199
 C339 C 0.34124 0.67367 0.31890
 C340 C 0.40763 0.62882 0.16174
 H341 H 0.39554 0.72783 0.31604
 H342 H 0.43481 0.69842 0.22955
 H343 H 0.37392 0.56542 0.10706
 H344 H 0.33486 0.59436 0.19538
 C345 C -0.13604 1.18499 0.25888
 C346 C -0.10797 1.21616 0.26225
 C347 C -0.08576 1.19317 0.21454
 C348 C -0.17260 1.20749 0.36896
 C349 C -0.12005 1.11014 0.15715
 C350 C -0.14221 1.13293 0.20535
 C351 C -0.15684 1.19909 0.31658
 C352 C -0.09132 1.13849 0.16263
 H353 H -0.10286 1.25601 0.30387
 H354 H -0.06397 1.21651 0.22010
 H355 H -0.12512 1.06820 0.11772
 H356 H -0.16378 1.10782 0.20278
 C357 C 0.63569 0.30717 0.25165
 C358 C 0.64221 0.36239 0.20155
 C359 C 0.62081 0.38552 0.15173
 C360 C 0.67024 0.28316 0.36490
 C361 C 0.58681 0.29594 0.19999
 C362 C 0.60824 0.27274 0.24937
 C363 C 0.65529 0.29249 0.31146
 C364 C 0.59250 0.35421 0.15218
 H365 H 0.66332 0.38984 0.20320
 H366 H 0.62594 0.43036 0.11563
 H367 H 0.56534 0.27026 0.20154
 H368 H 0.60289 0.23027 0.28816
 C369 C 0.13748 0.82359 0.25608
 C370 C 0.14355 0.87496 0.20175
 C371 C 0.12193 0.89293 0.15034
 C372 C 0.17240 0.80298 0.36945
 C373 C 0.08864 0.80593 0.20576
 C374 C 0.11030 0.78772 0.25659
 C375 C 0.15749 0.81244 0.31590
 C376 C 0.09383 0.86048 0.15347
 H377 H 0.16449 0.90323 0.20089
 H378 H 0.12672 0.93484 0.11065
 H379 H 0.06736 0.77954 0.20961
 H380 H 0.10534 0.74790 0.29841
   
