data_POSCAR
  _audit_creation_date              2014-09-24
  _audit_creation_method            'ToBaCCo'
  _symmetry_space_group_name_H-M    'P1'
  _symmetry_Int_Tables_number       1
  _symmetry_cell_setting            triclinic
  loop_
  _symmetry_equiv_pos_as_xyz
 x,y,z
_cell_length_a 32.1712
_cell_length_b 31.0001
_cell_length_c 29.3624
_cell_angle_alpha 90.258600
_cell_angle_beta 89.819700
_cell_angle_gamma 81.690100
loop_
  _atom_site_label
  _atom_site_type_symbol
  _atom_site_fract_x
  _atom_site_fract_y
  _atom_site_fract_z
C1 C -0.08341 0.29057 -0.03906
 C2 C -0.10341 0.28594 0.00264
 C3 C -0.08394 0.28930 0.04485
 C4 C -0.04075 0.29467 0.04533
 C5 C -0.01911 0.29837 0.00334
 C6 C -0.04074 0.29748 -0.03889
 C7 C -0.01814 0.30027 -0.07955
 C8 C 0.02418 0.30446 -0.07912
 C9 C 0.04707 0.30210 -0.03832
 C10 C 0.02491 0.30063 0.00348
 C11 C -0.01761 0.29283 0.08606
 C12 C 0.02476 0.29711 0.08617
 C13 C 0.04688 0.30009 0.04535
 C14 C 0.09057 0.30198 0.04528
 C15 C 0.11157 0.30460 0.00385
 C16 C 0.09128 0.30253 -0.03814
 H17 H -0.03231 0.29824 -0.11257
 H18 H 0.03881 0.30912 -0.11157
 H19 H -0.03135 0.28661 0.11850
 H20 H 0.04015 0.29715 0.11886
 H21 H -0.13660 0.28298 0.00206
 H22 H 0.14540 0.30306 0.00464
 C23 C 0.37820 0.81005 0.54601
 C24 C 0.35846 0.81298 0.50358
 C25 C 0.38086 0.81755 0.46338
 C26 C 0.42456 0.81960 0.46572
 C27 C 0.44507 0.81618 0.50855
 C28 C 0.42160 0.81255 0.54894
 C29 C 0.44202 0.81201 0.59117
 C30 C 0.48521 0.81204 0.59360
 C31 C 0.50965 0.81270 0.55384
 C32 C 0.48924 0.81600 0.51098
 C33 C 0.44814 0.82598 0.42660
 C34 C 0.49135 0.82570 0.42896
 C35 C 0.51287 0.81891 0.47053
 C36 C 0.55725 0.81576 0.47289
 C37 C 0.57692 0.81157 0.51544
 C38 C 0.55385 0.81066 0.55585
 H39 H 0.42467 0.81163 0.62278
 H40 H 0.49923 0.81148 0.62707
 H41 H 0.43342 0.83165 0.39369
 H42 H 0.50756 0.83131 0.39772
 H43 H 0.32532 0.80998 0.50172
 H44 H 0.61090 0.80726 0.51692
 C45 C 0.89803 0.71033 -0.03396
 C46 C 0.87535 0.71603 0.00682
 C47 C 0.89551 0.71425 0.04912
 C48 C 0.93996 0.70676 0.05070
 C49 C 0.96350 0.70375 0.00960
 C50 C 0.94247 0.70446 -0.03281
 C51 C 0.96645 0.69800 -0.07291
 C52 C 1.01000 0.69403 -0.07162
 C53 C 1.03153 0.69735 -0.03033
 C54 C 1.00819 0.69955 0.01093
 C55 C 0.96150 0.70046 0.09212
 C56 C 1.00513 0.69474 0.09337
 C57 C 1.02924 0.69702 0.05347
 C58 C 1.07387 0.69368 0.05470
 C59 C 1.09619 0.69140 0.01324
 C60 C 1.07595 0.69551 -0.02917
 H61 H 0.95182 0.69558 -0.10577
 H62 H 1.02669 0.68747 -0.10350
 H63 H 0.94487 0.69876 0.12399
 H64 H 1.01957 0.68768 0.12616
 H65 H 0.84141 0.72324 0.00564
 H66 H 1.12967 0.69228 0.01429
 C67 C 0.43377 0.19228 0.45624
 C68 C 0.41029 0.19562 0.49650
 C69 C 0.42947 0.19452 0.53929
 C70 C 0.47383 0.18992 0.54204
 C71 C 0.49802 0.18842 0.50145
 C72 C 0.47802 0.18881 0.45845
 C73 C 0.50278 0.18572 0.41874
 C74 C 0.54597 0.18531 0.42108
 C75 C 0.56616 0.18771 0.46322
 C76 C 0.54226 0.18745 0.50383
 C77 C 0.49470 0.18639 0.58413
 C78 C 0.53812 0.18481 0.58644
 C79 C 0.56233 0.18710 0.54677
 C80 C 0.60611 0.18859 0.54873
 C81 C 0.62889 0.19068 0.50828
 C82 C 0.60963 0.19042 0.46570
 H83 H 0.48897 0.18391 0.38536
 H84 H 0.56339 0.18310 0.38937
 H85 H 0.47767 0.18464 0.61573
 H86 H 0.55240 0.18191 0.61977
 H87 H 0.37634 0.20157 0.49455
 H88 H 0.66166 0.19487 0.51023
 C89 C 0.70039 0.10107 0.04527
 C90 C 0.70803 0.11863 0.00296
 C91 C 0.70714 0.09466 -0.03781
 C92 C 0.70049 0.05001 -0.03516
 C93 C 0.69062 0.03253 0.00763
 C94 C 0.68918 0.05881 0.04741
 C95 C 0.67533 0.04277 0.08844
 C96 C 0.66625 0.00059 0.09135
 C97 C 0.67242 -0.02817 0.05394
 C98 C 0.68160 -0.01121 0.01082
 C99 C 0.70164 0.02256 -0.07358
 C100 C 0.69543 -0.02074 -0.06992
 C101 C 0.68248 -0.03787 -0.02879
 C102 C 0.67265 -0.08136 -0.02530
 C103 C 0.66613 -0.09771 0.01852
 C104 C 0.66771 -0.07282 0.05837
 H105 H 0.67071 0.06299 0.11871
 H106 H 0.65396 -0.00907 0.12345
 H107 H 0.70764 0.03333 -0.10738
 H108 H 0.70182 -0.04047 -0.10013
 H109 H 0.71698 0.15095 0.00186
 H110 H 0.66080 -0.13121 0.02174
 C111 C 0.17087 0.41732 0.54948
 C112 C 0.17518 0.39404 0.50827
 C113 C 0.17300 0.41530 0.46614
 C114 C 0.16628 0.46154 0.46513
 C115 C 0.16364 0.48553 0.50648
 C116 C 0.16442 0.46352 0.54872
 C117 C 0.15875 0.48840 0.58905
 C118 C 0.15751 0.53342 0.58826
 C119 C 0.16123 0.55536 0.54704
 C120 C 0.16175 0.53163 0.50564
 C121 C 0.16256 0.48451 0.42375
 C122 C 0.16068 0.52963 0.42292
 C123 C 0.16213 0.55363 0.46345
 C124 C 0.16424 0.59894 0.46291
 C125 C 0.16576 0.62140 0.50414
 C126 C 0.16455 0.60036 0.54612
 H127 H 0.15558 0.47337 0.62179
 H128 H 0.15381 0.55087 0.62035
 H129 H 0.16150 0.46775 0.39146
 H130 H 0.15857 0.54549 0.39008
 H131 H 0.18316 0.35896 0.50930
 H132 H 0.17101 0.65511 0.50366
 C133 C 0.33026 1.08027 -0.04305
 C134 C 0.32957 1.10452 -0.00250
 C135 C 0.32099 1.08736 0.04045
 C136 C 0.31176 1.04357 0.04224
 C137 C 0.31587 1.01742 0.00210
 C138 C 0.32688 1.03524 -0.03994
 C139 C 0.33559 1.00715 -0.07765
 C140 C 0.32723 0.96457 -0.07641
 C141 C 0.31141 0.94776 -0.03679
 C142 C 0.30747 0.97354 0.00343
 C143 C 0.29578 1.02580 0.08172
 C144 C 0.28898 0.98246 0.08341
 C145 C 0.29435 0.95576 0.04458
 C146 C 0.28616 0.91204 0.04516
 C147 C 0.28775 0.88829 0.00439
 C148 C 0.29969 0.90562 -0.03651
 H149 H 0.34893 1.01784 -0.10875
 H150 H 0.33338 0.94484 -0.10688
 H151 H 0.28675 1.04528 0.11160
 H152 H 0.27821 0.97059 0.11527
 H153 H 0.33440 1.13824 -0.00457
 H154 H 0.27787 0.85635 0.00444
 C155 C 0.83272 0.40909 0.46220
 C156 C 0.82905 0.38637 0.50259
 C157 C 0.82805 0.40701 0.54516
 C158 C 0.83041 0.45225 0.54753
 C159 C 0.83250 0.47614 0.50675
 C160 C 0.83508 0.45425 0.46412
 C161 C 0.83960 0.47814 0.42437
 C162 C 0.83772 0.52316 0.42603
 C163 C 0.83067 0.54614 0.46742
 C164 C 0.83038 0.52226 0.50843
 C165 C 0.83085 0.47426 0.58939
 C166 C 0.82950 0.51937 0.59107
 C167 C 0.82680 0.54438 0.55096
 C168 C 0.82101 0.59072 0.55209
 C169 C 0.82001 0.61377 0.51099
 C170 C 0.82407 0.59228 0.46877
 H171 H 0.84432 0.46224 0.39149
 H172 H 0.84171 0.53972 0.39433
 H173 H 0.83222 0.45677 0.62129
 H174 H 0.83049 0.53432 0.62429
 H175 H 0.82366 0.35275 0.50085
 H176 H 0.81343 0.64907 0.51173
 O177 O 0.23434 0.29425 0.20089
 O178 O 0.32215 0.25933 0.27856
 O179 O 0.30151 0.23918 0.19580
 O180 O 0.25441 0.31530 0.28364
 O181 O 0.21845 0.26538 0.31025
 O182 O 0.26987 0.18677 0.22487
 O183 O 0.28767 0.20900 0.30701
 O184 O 0.20143 0.24151 0.22668
 Cu185 Cu 0.28152 0.28223 0.23724
 Cu186 Cu 0.24074 0.22077 0.27038
 C187 C 0.20380 0.27251 0.19907
 C188 C 0.31982 0.22838 0.30623
 C189 C 0.29334 0.20035 0.19487
 C190 C 0.22850 0.30355 0.31202
 O191 O 0.72740 0.83030 0.24396
 O192 O 0.77959 0.74760 0.32200
 O193 O 0.79316 0.77308 0.23847
 O194 O 0.71109 0.80437 0.32573
 O195 O 0.67386 0.75664 0.29651
 O196 O 0.75589 0.72463 0.21075
 O197 O 0.74177 0.69980 0.29401
 O198 O 0.69030 0.78241 0.21467
 Cu199 Cu 0.75661 0.79345 0.28575
 Cu200 Cu 0.71177 0.73585 0.25148
 C201 C 0.70108 0.82028 0.21505
 C202 C 0.76925 0.70963 0.32171
 C203 C 0.78763 0.74458 0.20865
 C204 C 0.67827 0.78589 0.32574
 O205 O 0.82458 0.24156 0.22654
 O206 O 0.75177 0.20953 0.31261
 O207 O 0.76902 0.18986 0.22705
 O208 O 0.80704 0.26442 0.31033
 O209 O 0.75778 0.31691 0.28779
 O210 O 0.71965 0.24258 0.20524
 O211 O 0.70323 0.26290 0.29046
 O212 O 0.77542 0.29439 0.20380
 Cu213 Cu 0.79289 0.22100 0.27188
 Cu214 Cu 0.73405 0.28457 0.24484
 C215 C 0.81186 0.27272 0.19992
 C216 C 0.71506 0.23072 0.31625
 C217 C 0.73844 0.20382 0.20116
 C218 C 0.78900 0.30363 0.31289
 O219 O 0.26633 0.77136 0.20290
 O220 O 0.23628 0.69555 0.28866
 O221 O 0.21605 0.71342 0.20451
 O222 O 0.28856 0.75218 0.28649
 O223 O 0.23800 0.80277 0.31093
 O224 O 0.16524 0.76410 0.22836
 O225 O 0.18500 0.74581 0.31221
 O226 O 0.21553 0.82218 0.22649
 Cu227 Cu 0.25700 0.72816 0.24339
 Cu228 Cu 0.19602 0.78894 0.27218
 C229 C 0.24562 0.80932 0.19933
 C230 C 0.20513 0.70751 0.31473
 C231 C 0.17834 0.73220 0.20219
 C232 C 0.27576 0.78388 0.31287
 O233 O 0.80500 0.25841 0.69557
 O234 O 0.77139 0.18352 0.78109
 O235 O 0.75047 0.20364 0.69760
 O236 O 0.82562 0.23713 0.77993
 O237 O 0.77771 0.29116 0.80340
 O238 O 0.70198 0.25609 0.72275
 O239 O 0.72395 0.23697 0.80624
 O240 O 0.75592 0.31076 0.71968
 Cu241 Cu 0.79317 0.21559 0.73575
 Cu242 Cu 0.73510 0.27916 0.76534
 C243 C 0.78576 0.29711 0.69258
 C244 C 0.74211 0.19784 0.80876
 C245 C 0.71323 0.22386 0.69642
 C246 C 0.81398 0.26908 0.80639
 O247 O 0.18500 0.74148 0.70633
 O248 O 0.22439 0.81445 0.78977
 O249 O 0.23923 0.79506 0.70483
 O250 O 0.16792 0.76231 0.79190
 O251 O 0.21715 0.70984 0.81451
 O252 O 0.28739 0.74005 0.72408
 O253 O 0.27437 0.76155 0.80964
 O254 O 0.23286 0.68761 0.72892
 Cu255 Cu 0.19901 0.78358 0.74637
 Cu256 Cu 0.25771 0.71935 0.77179
 C257 C 0.20316 0.70241 0.70238
 C258 C 0.25642 0.80064 0.81357
 C259 C 0.27501 0.77249 0.69875
 C260 C 0.18048 0.73115 0.81867
 O261 O 0.25204 0.31223 0.72619
 O262 O 0.30423 0.22899 0.80449
 O263 O 0.31956 0.25598 0.72216
 O264 O 0.23766 0.28687 0.80867
 O265 O 0.20057 0.23856 0.78030
 O266 O 0.28211 0.20832 0.69311
 O267 O 0.26718 0.18118 0.77509
 O268 O 0.21429 0.26443 0.69796
 Cu269 Cu 0.28221 0.27577 0.76826
 Cu270 Cu 0.23743 0.21820 0.73373
 C271 C 0.22454 0.30246 0.69847
 C272 C 0.29383 0.19098 0.80372
 C273 C 0.31432 0.22768 0.69214
 C274 C 0.20540 0.26763 0.80966
 O275 O 0.73495 0.69180 0.73051
 O276 O 0.68617 0.76635 0.81918
 O277 O 0.66562 0.74574 0.73546
 O278 O 0.75505 0.71332 0.81225
 O279 O 0.78570 0.76756 0.78623
 O280 O 0.69788 0.79792 0.70737
 O281 O 0.71572 0.82017 0.79007
 O282 O 0.76831 0.74368 0.70353
 Cu283 Cu 0.70694 0.72416 0.77695
 Cu284 Cu 0.74502 0.78758 0.74374
 C285 C 0.76030 0.70469 0.70218
 C286 C 0.69334 0.80553 0.82043
 C287 C 0.66683 0.77693 0.70776
 C288 C 0.78521 0.73564 0.81310
 C289 C 0.30887 0.16074 0.07480
 C290 C 0.32083 0.11543 0.07914
 C291 C 0.33427 0.10071 0.12316
 C292 C 0.32688 0.12843 0.16160
 C293 C 0.30879 0.17222 0.15634
 C294 C 0.30332 0.18831 0.11220
 C295 C 0.26633 0.21591 0.09164
 C296 C 0.27228 0.18573 0.05053
 H297 H 0.34905 0.06748 0.12837
 H298 H 0.33397 0.11536 0.19528
 H299 H 0.27276 0.24946 0.08424
 H300 H 0.23663 0.21412 0.11055
 H301 H 0.28197 0.20207 0.01943
 H302 H 0.24606 0.16641 0.04560
 C303 C 0.77976 0.60663 0.62449
 C304 C 0.81126 0.61623 0.59488
 C305 C 0.83026 0.65346 0.60508
 C306 C 0.81488 0.68190 0.64104
 C307 C 0.78025 0.67358 0.66756
 C308 C 0.76506 0.63408 0.66012
 C309 C 0.72103 0.62509 0.65372
 C310 C 0.73737 0.59488 0.61465
 H311 H 0.85544 0.66179 0.58379
 H312 H 0.82882 0.71123 0.64668
 H313 H 0.69936 0.65435 0.64257
 H314 H 0.70979 0.60756 0.68322
 H315 H 0.72528 0.60660 0.58079
 H316 H 0.73569 0.55998 0.62174
 C317 C 0.69462 0.91638 0.13647
 C318 C 0.66818 0.90599 0.10132
 C319 C 0.64577 0.87059 0.10963
 C320 C 0.65384 0.84428 0.14864
 C321 C 0.68461 0.85253 0.18033
 C322 C 0.70241 0.89071 0.17482
 C323 C 0.74738 0.89770 0.17648
 C324 C 0.73882 0.92590 0.13446
 H325 H 0.62306 0.86205 0.08530
 H326 H 0.63805 0.81592 0.15227
 H327 H 0.76957 0.86728 0.17004
 H328 H 0.75431 0.91646 0.20721
 H329 H 0.75596 0.91185 0.10364
 H330 H 0.74092 0.96085 0.14109
 C331 C 0.20871 0.40173 0.62351
 C332 C 0.17823 0.39240 0.59253
 C333 C 0.15764 0.35622 0.60189
 C334 C 0.17087 0.32800 0.63828
 C335 C 0.20504 0.33542 0.66591
 C336 C 0.22152 0.37430 0.65945
 C337 C 0.26609 0.38220 0.65476
 C338 C 0.25181 0.41242 0.61539
 H339 H 0.13312 0.34832 0.57947
 H340 H 0.15610 0.29908 0.64292
 H341 H 0.28761 0.35248 0.64412
 H342 H 0.27664 0.39961 0.68481
 H343 H 0.26497 0.40026 0.58190
 H344 H 0.25393 0.44722 0.62287
 C345 C 0.85868 0.26076 0.08393
 C346 C 0.89057 0.28734 0.08417
 C347 C 0.89119 0.31560 0.12228
 C348 C 0.86512 0.31189 0.16057
 C349 C 0.83758 0.28052 0.16082
 C350 C 0.83302 0.25753 0.12094
 C351 C 0.83183 0.21015 0.11323
 C352 C 0.86023 0.21355 0.07229
 H353 H 0.91151 0.34055 0.12263
 H354 H 0.86726 0.33251 0.19008
 H355 H 0.79990 0.20350 0.10379
 H356 H 0.84725 0.18944 0.14096
 H357 H 0.84451 0.20868 0.03945
 H358 H 0.89219 0.19480 0.07613
 C359 C 0.35285 0.75874 0.60149
 C360 C 0.35260 0.80131 0.58582
 C361 C 0.32200 0.83403 0.60399
 C362 C 0.29649 0.82487 0.64089
 C363 C 0.30128 0.78283 0.66026
 C364 C 0.32820 0.74993 0.63795
 C365 C 0.36047 0.71444 0.65514
 C366 C 0.38766 0.72385 0.61480
 H367 H 0.31853 0.86675 0.59036
 H368 H 0.27405 0.85091 0.65507
 H369 H 0.34977 0.68197 0.65303
 H370 H 0.37356 0.72252 0.68861
 H371 H 0.39237 0.69681 0.58948
 H372 H 0.41679 0.73641 0.62527
 C373 C 0.08220 0.72692 0.12993
 C374 C 0.09674 0.69675 0.09559
 C375 C 0.13738 0.67298 0.10172
 C376 C 0.16319 0.68265 0.13797
 C377 C 0.14948 0.71691 0.16869
 C378 C 0.10769 0.73665 0.16541
 C379 C 0.08948 0.78377 0.16519
 C380 C 0.06150 0.77311 0.12634
 H381 H 0.14990 0.64790 0.07755
 H382 H 0.19474 0.66506 0.14013
 H383 H 0.11269 0.80526 0.15490
 H384 H 0.07175 0.79370 0.19700
 H385 H 0.06847 0.78837 0.09351
 H386 H 0.02769 0.77695 0.13586
 C387 C 0.61701 0.22575 0.62286
 C388 C 0.62881 0.19148 0.59221
 C389 C 0.66598 0.16289 0.60148
 C390 C 0.69263 0.17191 0.63720
 C391 C 0.68270 0.20990 0.66410
 C392 C 0.64313 0.23463 0.65806
 C393 C 0.63106 0.28273 0.65275
 C394 C 0.60235 0.27283 0.61420
 H395 H 0.67579 0.13533 0.57921
 H396 H 0.72214 0.15072 0.64175
 H397 H 0.65770 0.29922 0.64120
 H398 H 0.61365 0.29783 0.68293
 H399 H 0.61233 0.28352 0.58028
 H400 H 0.56844 0.28204 0.62227
 C401 C 0.73802 0.10020 0.88510
 C402 C 0.71154 0.11725 0.92089
 C403 C 0.69043 0.16025 0.91509
 C404 C 0.69870 0.18557 0.87739
 C405 C 0.72894 0.16912 0.84448
 C406 C 0.74619 0.12511 0.84782
 C407 C 0.79061 0.10328 0.84440
 C408 C 0.78182 0.07643 0.88566
 H409 H 0.66816 0.17491 0.94046
 H410 H 0.68302 0.21886 0.87554
 H411 H 0.81387 0.12568 0.85105
 H412 H 0.79633 0.08347 0.81275
 H413 H 0.79942 0.08393 0.91655
 H414 H 0.78316 0.04117 0.87773
 C415 C 0.14255 0.65728 0.40444
 C416 C 0.17122 0.62231 0.42028
 C417 C 0.20869 0.61111 0.39512
 C418 C 0.21894 0.63767 0.35911
 C419 C 0.19213 0.67631 0.34789
 C420 C 0.15272 0.68339 0.36919
 C421 C 0.12745 0.72324 0.38897
 C422 C 0.11600 0.69453 0.42771
 H423 H 0.23125 0.58344 0.40518
 H424 H 0.24906 0.62946 0.34227
 H425 H 0.10021 0.73584 0.36722
 H426 H 0.14722 0.74796 0.40002
 H427 H 0.08222 0.69056 0.42801
 H428 H 0.12856 0.70365 0.46098
 C429 C 0.31808 0.84158 0.90996
 C430 C 0.29412 0.88171 0.92074
 C431 C 0.26283 0.89881 0.88959
 C432 C 0.25213 0.87341 0.85274
 C433 C 0.27256 0.83034 0.84636
 C434 C 0.30768 0.81672 0.87355
 C435 C 0.32180 0.77489 0.89759
 C436 C 0.33346 0.80216 0.93759
 H437 H 0.24467 0.93058 0.89557
 H438 H 0.22600 0.88645 0.83134
 H439 H 0.34951 0.75564 0.88077
 H440 H 0.29543 0.75645 0.90527
 H441 H 0.36788 0.79866 0.94355
 H442 H 0.31422 0.79842 0.96835
 C443 C 0.85373 0.35029 0.40302
 C444 C 0.82635 0.38664 0.41869
 C445 C 0.79004 0.40008 0.39267
 C446 C 0.77913 0.37435 0.35621
 C447 C 0.80404 0.33429 0.34537
 C448 C 0.84288 0.32498 0.36726
 C449 C 0.86603 0.28411 0.38674
 C450 C 0.87831 0.31193 0.42605
 H451 H 0.76856 0.42880 0.40257
 H452 H 0.74962 0.38425 0.33895
 H453 H 0.89317 0.27022 0.36515
 H454 H 0.84476 0.26063 0.39720
 H455 H 0.91248 0.31413 0.42677
 H456 H 0.86483 0.30330 0.45900
 C457 C 0.15126 0.31778 0.91518
 C458 C 0.11665 0.29599 0.92224
 C459 C 0.11163 0.26331 0.88928
 C460 C 0.13966 0.25472 0.85181
 C461 C 0.17396 0.27815 0.84615
 C462 C 0.17773 0.30984 0.87893
 C463 C 0.20423 0.34315 0.89280
 C464 C 0.17416 0.35261 0.93367
 H465 H 0.08735 0.24282 0.89341
 H466 H 0.13507 0.22893 0.82818
 H467 H 0.20240 0.37047 0.86818
 H468 H 0.23649 0.32828 0.90251
 H469 H 0.15483 0.38535 0.93249
 H470 H 0.18966 0.34392 0.96679
 C471 C 0.58077 0.78334 0.39700
 C472 C 0.58431 0.81373 0.43157
 C473 C 0.61649 0.83995 0.42714
 C474 C 0.64635 0.83239 0.39155
 C475 C 0.64472 0.79825 0.35987
 C476 C 0.60988 0.77600 0.36198
 C477 C 0.60745 0.72820 0.36139
 C478 C 0.57537 0.73649 0.39977
 H479 H 0.61981 0.86472 0.45246
 H480 H 0.67180 0.85171 0.39034
 H481 H 0.63735 0.70823 0.37195
 H482 H 0.59389 0.71768 0.32913
 H483 H 0.58665 0.72137 0.43258
 H484 H 0.54331 0.73100 0.38952
 C485 C 0.84992 0.68138 0.90978
 C486 C 0.87435 0.71321 0.92270
 C487 C 0.87533 0.74869 0.89304
 C488 C 0.84828 0.75454 0.85515
 C489 C 0.81948 0.72516 0.84642
 C490 C 0.82328 0.68720 0.87268
 C491 C 0.79133 0.66378 0.89498
 C492 C 0.82066 0.65723 0.93576
 H493 H 0.89505 0.77325 0.90077
 H494 H 0.84781 0.78370 0.83490
 H495 H 0.78785 0.63285 0.87708
 H496 H 0.76143 0.68546 0.90244
 H497 H 0.83407 0.62255 0.94115
 H498 H 0.80707 0.67472 0.96663
 C499 C 0.38632 0.16651 0.39705
 C500 C 0.41083 0.19733 0.41254
 C501 C 0.41135 0.23503 0.38594
 C502 C 0.38367 0.24383 0.34891
 C503 C 0.35452 0.21537 0.33829
 C504 C 0.35892 0.17535 0.36099
 C505 C 0.32778 0.14943 0.38096
 C506 C 0.35806 0.13936 0.42058
 H507 H 0.43100 0.25908 0.39572
 H508 H 0.38282 0.27450 0.33119
 H509 H 0.32424 0.12027 0.35997
 H510 H 0.29787 0.16996 0.39098
 H511 H 0.37206 0.10446 0.42208
 H512 H 0.34488 0.15341 0.45326
 C513 C 0.68230 0.84485 0.94100
 C514 C 0.67008 0.89014 0.93675
 C515 C 0.65386 0.90446 0.89360
 C516 C 0.65943 0.87663 0.85510
 C517 C 0.67825 0.83299 0.85967
 C518 C 0.68600 0.81709 0.90364
 C519 C 0.72392 0.78953 0.92240
 C520 C 0.72004 0.81996 0.96336
 H521 H 0.63862 0.93762 0.88893
 H522 H 0.65064 0.88962 0.82177
 H523 H 0.75270 0.79104 0.90173
 H524 H 0.71772 0.75611 0.93074
 H525 H 0.74649 0.83927 0.96639
 H526 H 0.71189 0.80384 0.99524
 C527 C 0.16073 0.35719 0.40850
 C528 C 0.18418 0.38902 0.42421
 C529 C 0.21911 0.39644 0.39775
 C530 C 0.23203 0.37007 0.35972
 C531 C 0.21097 0.33481 0.34767
 C532 C 0.17383 0.33087 0.37128
 C533 C 0.15736 0.29240 0.39084
 C534 C 0.14294 0.32110 0.43181
 H535 H 0.23755 0.42152 0.40767
 H536 H 0.26016 0.37563 0.34165
 H537 H 0.18272 0.26524 0.39902
 H538 H 0.13090 0.28302 0.37061
 H539 H 0.15978 0.30956 0.46338
 H540 H 0.10819 0.32805 0.43513
 C541 C 0.30484 0.09156 0.87832
 C542 C 0.32992 0.10244 0.91454
 C543 C 0.35036 0.13957 0.90805
 C544 C 0.34132 0.16696 0.86997
 C545 C 0.31145 0.15815 0.83746
 C546 C 0.29600 0.11841 0.84096
 C547 C 0.25199 0.10855 0.83787
 C548 C 0.26165 0.07910 0.87879
 H549 H 0.37212 0.14865 0.93317
 H550 H 0.35550 0.19651 0.86784
 H551 H 0.24666 0.09043 0.80617
 H552 H 0.22813 0.13748 0.84514
 H553 H 0.26173 0.04406 0.87054
 H554 H 0.24346 0.09094 0.90978
 C555 C 0.78605 0.60945 0.39525
 C556 C 0.81608 0.61875 0.42678
 C557 C 0.83588 0.65572 0.41861
 C558 C 0.82238 0.68444 0.38266
 C559 C 0.78873 0.67674 0.35435
 C560 C 0.77299 0.63733 0.35980
 C561 C 0.72870 0.62837 0.36379
 C562 C 0.74327 0.59760 0.40261
 H563 H 0.86010 0.66363 0.44141
 H564 H 0.83661 0.71380 0.37879
 H565 H 0.71870 0.61130 0.33322
 H566 H 0.70664 0.65750 0.37488
 H567 H 0.74192 0.56281 0.39431
 H568 H 0.72967 0.60886 0.43622
 C569 C 0.14106 0.68121 0.92462
 C570 C 0.10014 0.70261 0.93177
 C571 C 0.08599 0.73522 0.89908
 C572 C 0.11159 0.74395 0.86174
 C573 C 0.15246 0.72066 0.85569
 C574 C 0.16527 0.68918 0.88832
 C575 C 0.20099 0.65572 0.90154
 C576 C 0.17366 0.64618 0.94239
 H577 H 0.05585 0.75549 0.90321
 H578 H 0.09955 0.76955 0.83828
 H579 H 0.22922 0.67044 0.91131
 H580 H 0.20657 0.62849 0.87650
 H581 H 0.18693 0.65467 0.97558
 H582 H 0.16335 0.61350 0.94075
 C583 C 0.66820 0.16826 0.40918
 C584 C 0.63430 0.19825 0.42464
 C585 C 0.62328 0.23643 0.39885
 C586 C 0.64847 0.24609 0.36206
 C587 C 0.68560 0.21803 0.35062
 C588 C 0.69311 0.17793 0.37312
 C589 C 0.73198 0.15368 0.39349
 C590 C 0.70469 0.14295 0.43316
 H591 H 0.59626 0.25975 0.40850
 H592 H 0.64016 0.27674 0.34447
 H593 H 0.75517 0.17543 0.40318
 H594 H 0.74483 0.12460 0.37289
 H595 H 0.71293 0.15811 0.46559
 H596 H 0.70190 0.10769 0.43528
 C597 C 0.86526 0.25538 0.91975
 C598 C 0.89235 0.28695 0.92132
 C599 C 0.88862 0.31786 0.88553
 C600 C 0.86283 0.31288 0.84739
 C601 C 0.84057 0.27703 0.84472
 C602 C 0.84023 0.25059 0.88273
 C603 C 0.84589 0.20220 0.88677
 C604 C 0.87389 0.20733 0.92746
 H605 H 0.90515 0.34587 0.88708
 H606 H 0.86114 0.33614 0.81982
 H607 H 0.86303 0.18534 0.85728
 H608 H 0.81607 0.19030 0.89626
 H609 H 0.90740 0.19374 0.92157
 H610 H 0.86037 0.19770 0.96006
 C611 C 0.37165 0.78472 0.38651
 C612 C 0.35808 0.81626 0.41957
 C613 C 0.31929 0.84292 0.41215
 C614 C 0.29316 0.83424 0.37570
 C615 C 0.30523 0.79849 0.34619
 C616 C 0.34607 0.77617 0.35069
 C617 C 0.36158 0.72836 0.35238
 C618 C 0.38969 0.73794 0.39160
 H619 H 0.30796 0.86849 0.43628
 H620 H 0.26250 0.85363 0.37259
 H621 H 0.37945 0.71662 0.32117
 H622 H 0.33669 0.70886 0.36263
 H623 H 0.42370 0.73193 0.38291
 H624 H 0.38111 0.72406 0.42460
 C625 C 0.30034 0.84914 0.09744
 C626 C 0.27602 0.88886 0.08686
 C627 C 0.23836 0.90066 0.11148
 C628 C 0.22848 0.87544 0.14892
 C629 C 0.25572 0.83754 0.16171
 C630 C 0.29055 0.82422 0.13383
 C631 C 0.33566 0.81182 0.14616
 C632 C 0.34636 0.83916 0.10610
 H633 H 0.21686 0.92935 0.10200
 H634 H 0.19970 0.88560 0.16773
 H635 H 0.34639 0.77637 0.14130
 H636 H 0.34344 0.82523 0.17977
 H637 H 0.36313 0.81945 0.07814
 H638 H 0.36036 0.86848 0.11637
 C639 C 0.84078 0.33906 0.59159
 C640 C 0.81871 0.38088 0.58510
 C641 C 0.78238 0.39321 0.61173
 C642 C 0.77174 0.36622 0.64707
 C643 C 0.79684 0.32593 0.65603
 C644 C 0.83023 0.31234 0.62625
 C645 C 0.87518 0.29605 0.63639
 C646 C 0.88669 0.32532 0.59836
 H647 H 0.76234 0.42375 0.60535
 H648 H 0.74407 0.37708 0.66746
 H649 H 0.88350 0.26075 0.62850
 H650 H 0.88480 0.30614 0.67072
 H651 H 0.90157 0.30688 0.56855
 H652 H 0.90302 0.35244 0.61054
 C653 C 0.68226 0.16500 0.09898
 C654 C 0.70750 0.12587 0.08725
 C655 C 0.73881 0.10886 0.11852
 C656 C 0.74750 0.13309 0.15718
 C657 C 0.72505 0.17498 0.16548
 C658 C 0.69081 0.18880 0.13708
 C659 C 0.67735 0.23134 0.11415
 C660 C 0.66795 0.20533 0.07229
 H661 H 0.75782 0.07767 0.11189
 H662 H 0.77335 0.12005 0.17896
 H663 H 0.70376 0.25036 0.10897
 H664 H 0.64871 0.24971 0.13009
 H665 H 0.68875 0.21016 0.04309
 H666 H 0.63392 0.20881 0.06418
 C667 C 0.15156 0.66693 0.59578
 C668 C 0.17316 0.62515 0.58750
 C669 C 0.20763 0.61038 0.61569
 C670 C 0.21669 0.63483 0.65393
 C671 C 0.19188 0.67501 0.66445
 C672 C 0.16062 0.69122 0.63337
 C673 C 0.11533 0.70799 0.64150
 C674 C 0.10549 0.68145 0.60027
 H675 H 0.22730 0.57972 0.60840
 H676 H 0.24310 0.62222 0.67515
 H677 H 0.10818 0.74376 0.63609
 H678 H 0.10340 0.69622 0.67409
 H679 H 0.09281 0.70193 0.57109
 H680 H 0.08783 0.65425 0.60885
 C681 C 0.83429 0.70029 0.09673
 C682 C 0.86870 0.72246 0.09042
 C683 C 0.87390 0.75586 0.12181
 C684 C 0.84819 0.76273 0.16097
 C685 C 0.81647 0.73661 0.16925
 C686 C 0.80896 0.70707 0.13510
 C687 C 0.80461 0.65987 0.13825
 C688 C 0.83231 0.65255 0.09605
 H689 H 0.89832 0.77600 0.11653
 H690 H 0.85342 0.78813 0.18481
 H691 H 0.77180 0.65400 0.13216
 H692 H 0.81953 0.64428 0.16934
 H693 H 0.81542 0.64264 0.06564
 H694 H 0.86334 0.63268 0.10257
 C695 C 0.36743 0.17944 0.58483
 C696 C 0.40145 0.20244 0.57959
 C697 C 0.40396 0.23762 0.60957
 C698 C 0.37607 0.24560 0.64674
 C699 C 0.34462 0.21899 0.65423
 C700 C 0.33980 0.18742 0.62122
 C701 C 0.33664 0.14014 0.62660
 C702 C 0.36689 0.13148 0.58660
 H703 H 0.42781 0.25851 0.60462
 H704 H 0.37936 0.27233 0.66968
 H705 H 0.30460 0.13278 0.61883
 H706 H 0.35004 0.12672 0.65933
 H707 H 0.35223 0.11927 0.55578
 H708 H 0.39787 0.11300 0.59604
 C709 C 0.14660 0.32342 0.09601
 C710 C 0.11698 0.29570 0.08680
 C711 C 0.11875 0.25751 0.11307
 C712 C 0.14590 0.25060 0.15070
 C713 C 0.17265 0.28123 0.16223
 C714 C 0.17373 0.31639 0.13275
 C715 C 0.16993 0.36397 0.14319
 C716 C 0.14027 0.37160 0.10288
 H717 H 0.09894 0.23320 0.10469
 H718 H 0.14612 0.22116 0.17047
 H719 H 0.20006 0.37684 0.13775
 H720 H 0.15438 0.37265 0.17653
 H721 H 0.15337 0.38876 0.07421
 H722 H 0.10746 0.38472 0.11276
 C723 C 0.59876 0.83713 0.61703
 C724 C 0.57714 0.80478 0.59938
 C725 C 0.57888 0.76576 0.62432
 C726 C 0.60598 0.75773 0.66202
 C727 C 0.63228 0.78836 0.67504
 C728 C 0.62563 0.82906 0.65366
 C729 C 0.65501 0.85808 0.63570
 C730 C 0.62531 0.86721 0.59546
 H731 H 0.56132 0.74045 0.61293
 H732 H 0.60872 0.72626 0.67849
 H733 H 0.68616 0.83992 0.62594
 H734 H 0.65603 0.88708 0.65785
 H735 H 0.63993 0.85488 0.56276
 H736 H 0.60915 0.90140 0.59469
   
