data_POSCAR
  _audit_creation_date              2014-09-24
  _audit_creation_method            'ToBaCCo'
  _symmetry_space_group_name_H-M    'P1'
  _symmetry_Int_Tables_number       1
  _symmetry_cell_setting            triclinic
  loop_
  _symmetry_equiv_pos_as_xyz
 x,y,z
_cell_length_a 42.1035
_cell_length_b 43.0970
_cell_length_c 42.8385
_cell_angle_alpha 90.038100
_cell_angle_beta 89.677500
_cell_angle_gamma 89.959900
loop_
  _atom_site_label
  _atom_site_type_symbol
  _atom_site_fract_x
  _atom_site_fract_y
  _atom_site_fract_z
Si1 Si 0.25074 0.49798 0.99695
 Si2 Si 0.74769 0.49816 -0.00183
 Si3 Si 0.00084 0.25362 0.49863
 Si4 Si 1.00083 0.74936 0.49586
 Si5 Si 0.50466 0.00060 0.25075
 Si6 Si 0.49802 -0.00277 0.75330
 C7 C 0.30081 0.02299 0.46547
 H8 H 0.30244 0.03950 0.48443
 C9 C 0.32310 0.02365 0.44124
 H10 H 0.34199 0.04065 0.44194
 C11 C 0.27507 -0.02025 0.44268
 H12 H 0.25668 -0.03767 0.44356
 C13 C 0.29673 -0.02029 0.41786
 H14 H 0.29422 -0.03743 0.39956
 N15 N 0.27738 0.00130 0.46577
 C16 C 0.19972 0.03742 0.52281
 H17 H 0.19728 0.01875 0.53952
 C18 C 0.17815 0.06204 0.52315
 H19 H 0.15901 0.06193 0.54011
 C20 C 0.22677 0.05912 0.47938
 H21 H 0.24545 0.05766 0.46207
 C22 C 0.20584 0.08430 0.47900
 H23 H 0.20915 0.10229 0.46167
 Zn24 Zn 0.24980 0.00079 0.50084
 N25 N 0.22340 0.03637 0.50114
 C26 C 0.27358 0.02209 0.55920
 N27 N 0.27570 -0.00020 0.53678
 C28 C 0.29784 -0.02311 0.53839
 C29 C 0.31888 -0.02439 0.56340
 C30 C 0.29424 0.02173 0.58462
 C31 C 0.20110 -0.03593 0.47641
 C32 C 0.17989 -0.06076 0.47488
 C33 C 0.20344 -0.08178 0.52162
 C34 C 0.22426 -0.05657 0.52222
 N35 N 0.22289 -0.03440 0.49967
 H36 H 0.25618 0.04040 0.55722
 H37 H 0.29937 -0.04020 0.51993
 H38 H 0.33671 -0.04249 0.56391
 H39 H 0.29215 0.03958 0.60232
 H40 H 0.20009 -0.01764 0.45915
 H41 H 0.16245 -0.06131 0.45641
 H42 H 0.20507 -0.09933 0.53961
 H43 H 0.24125 -0.05465 0.54090
 C44 C 0.18094 0.08591 0.50095
 C45 C 0.32133 0.00174 0.41699
 C46 C 0.18085 -0.08409 0.49773
 C47 C 0.31735 -0.00169 0.58690
 C48 C 0.70966 0.02779 0.54858
 H49 H 0.71112 0.04772 0.53330
 C50 C 0.68856 0.02795 0.57380
 H51 H 0.67368 0.04811 0.57752
 C52 C 0.72599 -0.02342 0.56072
 H53 H 0.74014 -0.04361 0.55510
 C54 C 0.70540 -0.02415 0.58640
 H55 H 0.70451 -0.04480 0.60074
 N56 N 0.72742 0.00219 0.54224
 C57 C 0.79494 0.04582 0.53063
 H58 H 0.79389 0.03062 0.55059
 C59 C 0.81534 0.07131 0.53112
 H60 H 0.83061 0.07465 0.55108
 C61 C 0.77604 0.06013 0.48076
 H62 H 0.76036 0.05622 0.46138
 C63 C 0.79605 0.08599 0.48030
 H64 H 0.79552 0.10147 0.46041
 Zn65 Zn 0.75213 0.00275 0.50529
 N66 N 0.77660 0.04000 0.50524
 C67 C 0.73548 0.00403 0.44071
 N68 N 0.72416 0.00147 0.47044
 C69 C 0.69257 -0.00226 0.47609
 C70 C 0.67094 -0.00226 0.45160
 C71 C 0.71457 0.00450 0.41545
 C72 C 0.80101 -0.03589 0.52787
 C73 C 0.82294 -0.06012 0.52725
 C74 C 0.80038 -0.07747 0.47860
 C75 C 0.77887 -0.05276 0.48011
 N76 N 0.77990 -0.03219 0.50424
 H77 H 0.76076 0.00618 0.43664
 H78 H 0.68395 -0.00535 0.49966
 H79 H 0.64598 -0.00552 0.45681
 H80 H 0.72401 0.00767 0.39212
 H81 H 0.80079 -0.02019 0.54746
 H82 H 0.83954 -0.06255 0.54631
 H83 H 0.79973 -0.09314 0.45885
 H84 H 0.76161 -0.04995 0.46180
 C85 C 0.81657 0.09149 0.50544
 C86 C 0.68589 0.00157 0.59292
 C87 C 0.82312 -0.08106 0.50216
 C88 C 0.68172 0.00175 0.42078
 C89 C 0.47374 0.19860 1.03610
 H90 H 0.45586 0.19823 1.01805
 C91 C 0.47286 0.17668 1.06003
 H92 H 0.45382 0.15982 1.06055
 C93 C 0.52048 0.22094 1.05692
 H94 H 0.53946 0.23770 1.05515
 C95 C 0.52054 0.19939 1.08127
 H96 H 0.53965 0.19987 1.09806
 N97 N 0.49728 0.22014 1.03497
 C98 C 0.46011 0.29347 0.97543
 H99 H 0.47880 0.29460 0.95804
 C100 C 0.43463 0.31412 0.97407
 H101 H 0.43391 0.33121 0.95557
 C102 C 0.43926 0.27073 1.02154
 H103 H 0.44145 0.25417 1.04032
 C104 C 0.41347 0.29113 1.02122
 H105 H 0.39569 0.28972 1.03953
 Zn106 Zn 0.49833 0.24658 0.99978
 N107 N 0.46184 0.27216 0.99874
 C108 C 0.47868 0.22265 0.94079
 N109 N 0.50024 0.22055 0.96425
 C110 C 0.52255 0.19772 0.96455
 C111 C 0.52336 0.17540 0.94095
 C112 C 0.47903 0.20114 0.91639
 C113 C 0.53431 0.29447 1.02478
 C114 C 0.55836 0.31665 1.02615
 C115 C 0.58121 0.29475 0.97918
 C116 C 0.55670 0.27289 0.97875
 N117 N 0.53385 0.27325 1.00132
 H118 H 0.46065 0.24046 0.94130
 H119 H 0.53914 0.19637 0.98370
 H120 H 0.54086 0.15699 0.94179
 H121 H 0.46139 0.20270 0.89816
 H122 H 0.51562 0.29440 1.04222
 H123 H 0.55829 0.33328 1.04510
 H124 H 0.59871 0.29467 0.96057
 H125 H 0.55551 0.25617 0.95998
 C126 C 0.41097 0.31320 0.99727
 C127 C 0.49666 0.17668 1.08287
 C128 C 0.58204 0.31726 1.00292
 C129 C 0.50124 0.17688 0.91664
 C130 C 0.47525 0.79870 -0.03330
 H131 H 0.45785 0.80028 -0.01468
 C132 C 0.47441 0.81974 -0.05804
 H133 H 0.45639 0.83766 -0.05802
 C134 C 0.52091 0.77436 -0.05470
 H135 H 0.53938 0.75706 -0.05302
 C136 C 0.52079 0.79475 -0.08003
 H137 H 0.53885 0.79232 -0.09795
 N138 N 0.49830 0.77665 -0.03202
 C139 C 0.45918 0.70698 0.03083
 H140 H 0.47623 0.70832 0.04958
 C141 C 0.43438 0.68563 0.03245
 H142 H 0.43216 0.67129 0.05307
 C143 C 0.44183 0.72429 -0.01870
 H144 H 0.44536 0.73890 -0.03892
 C145 C 0.41705 0.70270 -0.01839
 H146 H 0.40189 0.70095 -0.03862
 Zn147 Zn 0.49899 0.75113 0.00386
 N148 N 0.46239 0.72584 0.00561
 C149 C 0.47683 0.77868 0.06029
 N150 N 0.50092 0.77778 0.03901
 C151 C 0.52608 0.79742 0.04108
 C152 C 0.52791 0.81880 0.06552
 C153 C 0.47771 0.79967 0.08510
 C154 C 0.53405 0.70236 -0.02085
 C155 C 0.55778 0.67985 -0.02263
 C156 C 0.58118 0.70138 0.02397
 C157 C 0.55694 0.72358 0.02483
 N158 N 0.53406 0.72370 0.00253
 H159 H 0.45653 0.76363 0.05780
 H160 H 0.54454 0.79673 0.02343
 H161 H 0.54785 0.83462 0.06641
 H162 H 0.45839 0.79987 0.10188
 H163 H 0.51529 0.70270 -0.03800
 H164 H 0.55740 0.66325 -0.04161
 H165 H 0.59880 0.70120 0.04227
 H166 H 0.55607 0.74019 0.04371
 C167 C 0.41324 0.68269 0.00731
 C168 C 0.49750 0.81807 -0.08182
 C169 C 0.58165 0.67896 0.00012
 C170 C 0.50341 0.82022 0.08788
 C171 C 1.03669 0.47618 0.20023
 H172 H 1.01753 0.45955 0.19860
 C173 C 1.06181 0.47507 0.17890
 H174 H 1.06161 0.45759 0.16075
 C175 C 1.05905 0.52015 0.22500
 H176 H 1.05759 0.53797 0.24270
 C177 C 1.08472 0.51985 0.20416
 H178 H 1.10314 0.53721 0.20643
 N179 N 1.03574 0.49845 0.22268
 C180 C 0.97396 0.46171 0.29568
 H181 H 0.95590 0.47957 0.29658
 C182 C 0.97304 0.43714 0.31689
 H183 H 0.95421 0.43636 0.33419
 C184 C 1.02136 0.44211 0.27301
 H185 H 1.04049 0.44443 0.25628
 C186 C 1.02139 0.41716 0.29380
 H187 H 1.04028 0.40016 0.29238
 Zn188 Zn 0.99916 0.49931 0.24844
 N189 N 0.99786 0.46375 0.27431
 C190 C 0.94106 0.47805 0.22198
 N191 N 0.96379 0.50046 0.22141
 C192 C 0.96336 0.52346 0.19973
 C193 C 0.93933 0.52466 0.17749
 C194 C 0.91655 0.47834 0.20010
 C195 C 1.02167 0.53510 0.29791
 C196 C 1.02223 0.55946 0.31940
 C197 C 0.97729 0.58230 0.29317
 C198 C 0.97742 0.55734 0.27234
 N199 N 0.99952 0.53447 0.27496
 H200 H 0.94226 0.45952 0.23889
 H201 H 0.98202 0.54070 0.19952
 H202 H 0.93936 0.54330 0.16056
 H203 H 0.89908 0.45992 0.20044
 H204 H 1.03861 0.51632 0.29979
 H205 H 1.03959 0.55900 0.33793
 H206 H 0.95974 0.60044 0.29039
 H207 H 0.95963 0.55620 0.25433
 C208 C 0.99713 0.41456 0.31629
 C209 C 1.08623 0.49719 0.18057
 C210 C 0.99978 0.58352 0.31727
 C211 C 0.91564 0.50173 0.17728
 C212 C -0.03707 0.47722 0.79360
 H213 H -0.01826 0.46010 0.79340
 C214 C -0.06149 0.47518 0.81562
 H215 H -0.06159 0.45603 0.83197
 C216 C -0.05935 0.52316 0.77262
 H217 H -0.05796 0.54220 0.75626
 C218 C -0.08426 0.52204 0.79433
 H219 H -0.10187 0.54035 0.79446
 N220 N -0.03637 0.50096 0.77275
 C221 C 0.02572 0.46800 0.69808
 H222 H 0.04339 0.48621 0.69809
 C223 C 0.02751 0.44420 0.67604
 H224 H 0.04700 0.44399 0.65945
 C225 C -0.02129 0.44647 0.71966
 H226 H -0.04069 0.44786 0.73620
 C227 C -0.02043 0.42223 0.69800
 H228 H -0.03927 0.40515 0.69816
 Zn229 Zn -0.00024 0.50329 0.74650
 N230 N 0.00166 0.46868 0.71936
 C231 C 0.05826 0.48185 0.77159
 N232 N 0.03553 0.50425 0.77300
 C233 C 0.03641 0.52693 0.79507
 C234 C 0.06099 0.52783 0.81676
 C235 C 0.08324 0.48182 0.79291
 C236 C -0.02438 0.53993 0.69861
 C237 C -0.02509 0.56413 0.67700
 C238 C 0.02070 0.58654 0.70217
 C239 C 0.02069 0.56174 0.72315
 N240 N -0.00164 0.53906 0.72099
 H241 H 0.05678 0.46361 0.75437
 H242 H 0.01763 0.54405 0.79608
 H243 H 0.06091 0.54571 0.83453
 H244 H 0.10114 0.46382 0.79144
 H245 H -0.04148 0.52127 0.69708
 H246 H -0.04277 0.56372 0.65877
 H247 H 0.03859 0.60441 0.70441
 H248 H 0.03894 0.56038 0.74069
 C249 C 0.00411 0.42099 0.67566
 C250 C -0.08532 0.49799 0.81646
 C251 C -0.00217 0.58778 0.67841
 C252 C 0.08471 0.50492 0.81600
 C253 C 0.08537 0.18309 0.49786
 C254 C 0.06166 0.18202 0.47486
 C255 C 0.03699 0.20373 0.47483
 C256 C 0.03549 0.22686 0.49776
 C257 C 0.05909 0.22820 0.52065
 C258 C 0.08392 0.20664 0.52059
 C259 C 0.11087 0.15916 0.49865
 C260 C 0.12166 0.14726 0.52726
 C261 C 0.14473 0.12394 0.52802
 C262 C 0.15748 0.11175 0.50019
 C263 C 0.14699 0.12393 0.47158
 C264 C 0.12406 0.14739 0.47083
 H265 H 0.01872 0.20210 0.45721
 H266 H 0.05826 0.24556 0.53886
 H267 H 0.15255 0.11543 0.55047
 H268 H 0.15598 0.11488 0.44967
 H269 H 0.10196 0.20840 0.53841
 H270 H 0.11178 0.15549 0.54914
 H271 H 0.06165 0.16391 0.45734
 H272 H 0.11663 0.15629 0.44840
 C273 C 0.67684 0.58169 -0.00286
 C274 C 0.67663 0.55926 -0.02672
 C275 C 0.69842 0.53481 -0.02657
 C276 C 0.72090 0.53242 -0.00273
 C277 C 0.72144 0.55483 0.02098
 C278 C 0.69968 0.57936 0.02086
 C279 C 0.65267 0.60679 -0.00220
 C280 C 0.66096 0.63727 0.00616
 C281 C 0.63798 0.66073 0.00693
 C282 C 0.60622 0.65421 -0.00061
 C283 C 0.59797 0.62368 -0.00881
 C284 C 0.62090 0.60028 -0.00962
 H285 H 0.69750 0.51755 -0.04493
 H286 H 0.73813 0.55316 0.03999
 H287 H 0.64516 0.68409 0.01299
 H288 H 0.57361 0.61772 -0.01411
 H289 H 0.70012 0.59599 0.03980
 H290 H 0.68531 0.64305 0.01168
 H291 H 0.65957 0.56060 -0.04549
 H292 H 0.61363 0.57692 -0.01553
 C293 C 0.91824 -0.17826 0.49880
 C294 C 0.91938 -0.20060 0.47483
 C295 C 0.94349 -0.22298 0.47416
 C296 C 0.96666 -0.22343 0.49751
 C297 C 0.96539 -0.20149 0.52159
 C298 C 0.94133 -0.17925 0.52237
 C299 C 0.89375 -0.15343 0.49890
 C300 C 0.90191 -0.12303 0.50763
 C301 C 0.87900 -0.09965 0.50849
 C302 C 0.84735 -0.10602 0.50051
 C303 C 0.83920 -0.13625 0.49122
 C304 C 0.86217 -0.15975 0.49047
 H305 H 0.94432 -0.23938 0.45505
 H306 H 0.98327 -0.20135 0.53967
 H307 H 0.88613 -0.07643 0.51510
 H308 H 0.81494 -0.14187 0.48519
 H309 H 0.94086 -0.16273 0.54142
 H310 H 0.92616 -0.11719 0.51352
 H311 H 0.90220 -0.20020 0.45612
 H312 H 0.85508 -0.18299 0.48392
 C313 C 0.31454 0.40890 0.99521
 C314 C 0.31517 0.43011 0.97030
 C315 C 0.29529 0.45604 0.97047
 C316 C 0.27446 0.46139 0.99555
 C317 C 0.27320 0.43996 1.02012
 C318 C 0.29297 0.41389 1.01992
 C319 C 0.33746 0.38268 0.99609
 C320 C 0.35218 0.37430 1.02425
 C321 C 0.37545 0.35118 1.02474
 C322 C 0.38465 0.33605 0.99708
 C323 C 0.36944 0.34387 0.96906
 C324 C 0.34603 0.36685 0.96859
 H325 H 0.29689 0.47251 0.95144
 H326 H 0.25751 0.44357 1.03986
 H327 H 0.38706 0.34591 1.04660
 H328 H 0.37576 0.33225 0.94748
 H329 H 0.29161 0.39779 1.03927
 H330 H 0.34655 0.38636 1.04575
 H331 H 0.33183 0.42732 0.95117
 H332 H 0.33475 0.37236 0.94662
 C333 C 0.91366 0.18663 0.50283
 C334 C 0.93612 0.18716 0.52699
 C335 C 0.96177 0.20768 0.52583
 C336 C 0.96521 0.22826 0.50074
 C337 C 0.94276 0.22801 0.47671
 C338 C 0.91717 0.20740 0.47776
 C339 C 0.88745 0.16363 0.50320
 C340 C 0.87948 0.14739 0.47590
 C341 C 0.85603 0.12448 0.47652
 C342 C 0.83992 0.11733 0.50444
 C343 C 0.84740 0.13412 0.53160
 C344 C 0.87096 0.15695 0.53099
 H345 H 0.97918 0.20723 0.54434
 H346 H 0.94517 0.24326 0.45682
 H347 H 0.85127 0.11165 0.45532
 H348 H 0.83506 0.12957 0.55336
 H349 H 0.90016 0.20763 0.45890
 H350 H 0.89210 0.15170 0.45424
 H351 H 0.93435 0.17109 0.54635
 H352 H 0.87629 0.16943 0.55228
 C353 C 0.32104 0.58248 0.00233
 C354 C 0.28798 0.58737 0.00242
 C355 C 0.26701 0.56225 0.00043
 C356 C 0.27859 0.53177 -0.00143
 C357 C 0.31151 0.52689 -0.00120
 C358 C 0.33244 0.55188 0.00018
 C359 C 0.34373 0.60887 0.00477
 C360 C 0.37257 0.60517 0.02073
 C361 C 0.39484 0.62906 0.02161
 C362 C 0.38870 0.65775 0.00721
 C363 C 0.35943 0.66184 -0.00799
 C364 C 0.33731 0.63764 -0.00936
 H365 H 0.24178 0.56673 0.00117
 H366 H 0.32147 0.50383 -0.00183
 H367 H 0.41723 0.62464 0.03307
 H368 H 0.35358 0.68372 -0.01894
 H369 H 0.35767 0.54709 -0.00056
 H370 H 0.37813 0.58366 0.03254
 H371 H 0.27826 0.61052 0.00466
 H372 H 0.31548 0.64132 -0.02206
 C373 C 0.08676 -0.18211 0.49459
 C374 C 0.06372 -0.18143 0.47096
 C375 C 0.03873 -0.20271 0.47103
 C376 C 0.03637 -0.22514 0.49457
 C377 C 0.05947 -0.22627 0.51795
 C378 C 0.08452 -0.20497 0.51793
 C379 C 0.11214 -0.15819 0.49553
 C380 C 0.12094 -0.14455 0.52401
 C381 C 0.14355 -0.12084 0.52476
 C382 C 0.15787 -0.11021 0.49705
 C383 C 0.14947 -0.12421 0.46863
 C384 C 0.12688 -0.14794 0.46788
 H385 H 0.02081 -0.20121 0.45305
 H386 H 0.05793 -0.24311 0.53659
 H387 H 0.14916 -0.11022 0.54697
 H388 H 0.16046 -0.11687 0.44695
 H389 H 0.10204 -0.20627 0.53628
 H390 H 0.10965 -0.15155 0.54565
 H391 H 0.06443 -0.16382 0.45296
 H392 H 0.12096 -0.15832 0.44564
 C393 C 0.67715 0.41453 1.00223
 C394 C 0.69941 0.41670 0.97773
 C395 C 0.72107 0.44128 0.97664
 C396 C 0.72100 0.46389 1.00016
 C397 C 0.69909 0.46166 1.02477
 C398 C 0.67742 0.43717 1.02588
 C399 C 0.65304 0.38939 1.00263
 C400 C 0.62144 0.39596 1.01100
 C401 C 0.59854 0.37256 1.01112
 C402 C 0.60667 0.34196 1.00294
 C403 C 0.63828 0.33536 0.99450
 C404 C 0.66123 0.35884 0.99432
 H405 H 0.73732 0.44282 0.95707
 H406 H 0.69854 0.47908 1.04301
 H407 H 0.57428 0.37858 1.01707
 H408 H 0.64537 0.31196 0.98842
 H409 H 0.66081 0.43597 1.04523
 H410 H 0.61425 0.41938 1.01689
 H411 H 0.69947 0.39989 0.95893
 H412 H 0.68547 0.35302 0.98808
 C413 C 0.49990 0.08133 1.17814
 C414 C 0.47612 0.05848 1.17948
 C415 C 0.47760 0.03476 1.20160
 C416 C 0.50267 0.03356 1.22291
 C417 C 0.52649 0.05623 1.22168
 C418 C 0.52503 0.08004 1.19958
 C419 C 0.49885 0.10593 1.15393
 C420 C 0.50676 0.13676 1.16123
 C421 C 0.50590 0.15979 1.13827
 C422 C 0.49716 0.15245 1.10751
 C423 C 0.48931 0.12159 1.10025
 C424 C 0.49012 0.09862 1.12319
 H425 H 0.45918 0.01723 1.20199
 H426 H 0.54653 0.05536 1.23732
 H427 H 0.51171 0.18341 1.14467
 H428 H 0.48312 0.11504 1.07665
 H429 H 0.54398 0.09700 1.19874
 H430 H 0.51321 0.14314 1.18481
 H431 H 0.45632 0.05900 1.16347
 H432 H 0.48447 0.07498 1.11672
 C433 C 0.00101 0.68120 0.58084
 C434 C 0.02431 0.67915 0.55724
 C435 C 0.02447 0.70007 0.53234
 C436 C 0.00133 0.72335 0.53047
 C437 C -0.02194 0.72555 0.55386
 C438 C -0.02198 0.70483 0.57894
 C439 C 0.00019 0.65827 0.60680
 C440 C -0.02893 0.64716 0.61849
 C441 C -0.02971 0.62482 0.64212
 C442 C -0.00140 0.61282 0.65449
 C443 C 0.02772 0.62422 0.64307
 C444 C 0.02850 0.64674 0.61962
 H445 H 0.04238 0.69778 0.51423
 H446 H -0.04035 0.74299 0.55277
 H447 H -0.05257 0.61690 0.65063
 H448 H 0.05002 0.61524 0.65172
 H449 H -0.04003 0.70734 0.59686
 H450 H -0.05121 0.65522 0.60894
 H451 H 0.04200 0.66092 0.55757
 H452 H 0.05134 0.65508 0.61150
 C453 C 0.49927 0.91302 -0.17789
 C454 C 0.52229 0.93662 -0.17617
 C455 C 0.52212 0.96120 -0.19737
 C456 C 0.49892 0.96282 -0.22059
 C457 C 0.47597 0.93940 -0.22258
 C458 C 0.47626 0.91459 -0.20155
 C459 C 0.49879 0.88749 -0.15451
 C460 C 0.46984 0.87586 -0.14293
 C461 C 0.46941 0.85291 -0.11989
 C462 C 0.49791 0.84119 -0.10762
 C463 C 0.52685 0.85248 -0.11957
 C464 C 0.52729 0.87522 -0.14280
 H465 H 0.53982 0.97931 -0.19527
 H466 H 0.45761 0.94028 -0.24010
 H467 H 0.44668 0.84445 -0.11160
 H468 H 0.54928 0.84431 -0.11046
 H469 H 0.45843 0.89666 -0.20383
 H470 H 0.44743 0.88499 -0.15113
 H471 H 0.53997 0.93655 -0.15792
 H472 H 0.55002 0.88327 -0.15149
 C473 C 0.99822 0.32032 0.41270
 C474 C 0.97447 0.32139 0.43588
 C475 C 0.97522 0.30092 0.46111
 C476 C 0.99954 0.27888 0.46355
 C477 C 1.02319 0.27751 0.44046
 C478 C 1.02252 0.29804 0.41519
 C479 C 0.99813 0.34314 0.38673
 C480 C 1.02654 0.35724 0.37684
 C481 C 1.02626 0.38002 0.35364
 C482 C 0.99757 0.38920 0.33976
 C483 C 0.96924 0.37465 0.34921
 C484 C 0.96952 0.35188 0.37243
 H485 H 0.95699 0.30255 0.47898
 H486 H 1.04242 0.26094 0.44206
 H487 H 1.04842 0.39111 0.34724
 H488 H 0.94683 0.38086 0.33861
 H489 H 1.04102 0.29651 0.39759
 H490 H 1.04889 0.35137 0.38774
 H491 H 0.95576 0.33861 0.43497
 H492 H 0.94732 0.34108 0.37920
 C493 C 0.50635 0.91510 0.18376
 C494 C 0.53119 0.93689 0.18353
 C495 C 0.53094 0.96185 0.20435
 C496 C 0.50604 0.96535 0.22588
 C497 C 0.48150 0.94343 0.22664
 C498 C 0.48167 0.91846 0.20578
 C499 C 0.50550 0.88984 0.16020
 C500 C 0.47687 0.88211 0.14541
 C501 C 0.47618 0.85934 0.12222
 C502 C 0.50410 0.84370 0.11328
 C503 C 0.53268 0.85117 0.12832
 C504 C 0.53338 0.87400 0.15152
 H505 H 0.54989 0.97881 0.20321
 H506 H 0.46182 0.94585 0.24278
 H507 H 0.45388 0.85455 0.11071
 H508 H 0.55450 0.83922 0.12228
 H509 H 0.46237 0.90190 0.20672
 H510 H 0.45511 0.89429 0.15116
 H511 H 0.55028 0.93522 0.16657
 H512 H 0.55572 0.87917 0.16278
 C513 C 0.00464 0.32533 0.58044
 C514 C -0.02016 0.30353 0.57910
 C515 C -0.02117 0.28156 0.55510
 C516 C 0.00274 0.28084 0.53223
 C517 C 0.02761 0.30236 0.53357
 C518 C 0.02865 0.32434 0.55751
 C519 C 0.00499 0.34960 0.60506
 C520 C 0.01342 0.38027 0.59761
 C521 C 0.01329 0.40331 0.62054
 C522 C 0.00474 0.39625 0.65149
 C523 C -0.00362 0.36556 0.65898
 C524 C -0.00351 0.34248 0.63601
 H525 H -0.04100 0.26567 0.55419
 H526 H 0.04612 0.30233 0.51591
 H527 H 0.01924 0.42683 0.61386
 H528 H -0.00991 0.35930 0.68270
 H529 H 0.04823 0.34060 0.55806
 H530 H 0.01950 0.38661 0.57386
 H531 H -0.03927 0.30404 0.59611
 H532 H -0.00974 0.31898 0.64253
 C533 C 0.49666 0.08045 0.82319
 C534 C 0.51909 0.07977 0.79884
 C535 C 0.51940 0.05523 0.77749
 C536 C 0.49681 0.03143 0.77976
 C537 C 0.47398 0.03242 0.80368
 C538 C 0.47403 0.05662 0.82539
 C539 C 0.49765 0.10529 0.84696
 C540 C 0.49807 0.09768 0.87881
 C541 C 0.49969 0.12099 0.90139
 C542 C 0.50034 0.15235 0.89254
 C543 C 0.49959 0.16001 0.86069
 C544 C 0.49861 0.13663 0.83805
 H545 H 0.53765 0.05478 0.75968
 H546 H 0.45650 0.01412 0.80593
 H547 H 0.49997 0.11457 0.92583
 H548 H 0.50013 0.18406 0.85338
 H549 H 0.45646 0.05674 0.84395
 H550 H 0.49758 0.07364 0.88617
 H551 H 0.53697 0.09774 0.79694
 H552 H 0.49823 0.14298 0.81360
 C553 C 0.99807 0.68027 0.41171
 C554 C 1.02183 0.70318 0.41324
 C555 C 1.02241 0.72440 0.43792
 C556 C 0.99900 0.72341 0.46127
 C557 C 0.97493 0.70109 0.45959
 C558 C 0.97447 0.67967 0.43510
 C559 C 0.99851 0.65646 0.38652
 C560 C 0.97004 0.64522 0.37379
 C561 C 0.97045 0.62182 0.35118
 C562 C 0.99937 0.60921 0.34052
 C563 C 1.02786 0.62089 0.35282
 C564 C 1.02744 0.64410 0.37561
 H565 H 1.04144 0.74118 0.43886
 H566 H 0.95686 0.69978 0.47765
 H567 H 0.94802 0.61317 0.34255
 H568 H 1.05059 0.61207 0.34485
 H569 H 0.95614 0.66206 0.43504
 H570 H 0.94734 0.65448 0.38132
 H571 H 1.04010 0.70464 0.39543
 H572 H 1.04982 0.65187 0.38514
 C573 C 1.18200 0.49670 0.08300
 C574 C 1.20746 0.51777 0.08207
 C575 C 1.22849 0.51803 0.05667
 C576 C 1.22419 0.49742 0.03174
 C577 C 1.19901 0.47621 0.03270
 C578 C 1.17813 0.47578 0.05812
 C579 C 1.15904 0.49690 0.10940
 C580 C 1.14795 0.46891 0.12220
 C581 C 1.12495 0.46903 0.14583
 C582 C 1.11237 0.49715 0.15709
 C583 C 1.12404 0.52518 0.14477
 C584 C 1.14717 0.52505 0.12123
 H585 H 1.24801 0.53432 0.05667
 H586 H 1.19535 0.46013 0.01362
 H587 H 1.11694 0.44706 0.15524
 H588 H 1.11454 0.54723 0.15257
 H589 H 1.15852 0.45954 0.05801
 H590 H 1.15707 0.44688 0.11389
 H591 H 1.21123 0.53389 0.10109
 H592 H 1.15501 0.54697 0.11155
 C593 C 0.58579 -0.00091 0.68609
 C594 C 0.58220 -0.02519 0.70770
 C595 C 0.55629 -0.02565 0.72823
 C596 C 0.53353 -0.00190 0.72738
 C597 C 0.53684 0.02213 0.70561
 C598 C 0.56291 0.02282 0.68533
 C599 C 0.61274 -0.00073 0.66372
 C600 C 0.62981 0.02667 0.65801
 C601 C 0.65418 0.02721 0.63573
 C602 C 0.66175 0.00044 0.61840
 C603 C 0.64497 -0.02712 0.62462
 C604 C 0.62084 -0.02772 0.64713
 H605 H 0.55398 -0.04474 0.74444
 H606 H 0.51915 0.04034 0.70423
 H607 H 0.66700 0.04867 0.63201
 H608 H 0.64971 -0.04802 0.61137
 H609 H 0.56482 0.04152 0.66855
 H610 H 0.62429 0.04769 0.67081
 H611 H 0.59952 -0.04375 0.70875
 H612 H 0.60778 -0.04905 0.65085
 C613 C -0.18179 0.49579 0.91358
 C614 C -0.20441 0.51971 0.91601
 C615 C -0.22620 0.52021 0.94078
 C616 C -0.22588 0.49667 0.96334
 C617 C -0.20369 0.47257 0.96078
 C618 C -0.18192 0.47204 0.93608
 C619 C -0.15735 0.49615 0.88845
 C620 C -0.12575 0.48824 0.89516
 C621 C -0.10252 0.48882 0.87180
 C622 C -0.11030 0.49728 0.84109
 C623 C -0.14190 0.50530 0.83434
 C624 C -0.16519 0.50476 0.85779
 H625 H -0.24269 0.53938 0.94259
 H626 H -0.20295 0.45434 0.97815
 H627 H -0.07829 0.48317 0.87794
 H628 H -0.14871 0.51161 0.81085
 H629 H -0.16506 0.45310 0.93467
 H630 H -0.11881 0.48216 0.91868
 H631 H -0.20461 0.53856 0.89931
 H632 H -0.18941 0.51068 0.85185
 C633 C 0.41927 0.00001 0.32107
 C634 C 0.44317 -0.02278 0.32236
 C635 C 0.46816 -0.02273 0.30078
 C636 C 0.46981 0.00007 0.27756
 C637 C 0.44612 0.02285 0.27608
 C638 C 0.42095 0.02272 0.29751
 C639 C 0.39324 0.00050 0.34470
 C640 C 0.38181 0.02878 0.35671
 C641 C 0.35817 0.02920 0.37975
 C642 C 0.34550 0.00136 0.39151
 C643 C 0.35667 -0.02691 0.37923
 C644 C 0.38015 -0.02733 0.35605
 H645 H 0.48651 -0.04027 0.30252
 H646 H 0.44708 0.04097 0.25868
 H647 H 0.34982 0.05140 0.38835
 H648 H 0.34776 -0.04882 0.38797
 H649 H 0.40279 0.04040 0.29562
 H650 H 0.39159 0.05064 0.34880
 H651 H 0.44302 -0.04024 0.34051
 H652 H 0.38807 -0.04951 0.34702
 C653 C 0.18055 0.50314 0.91256
 C654 C 0.18025 0.52606 0.93593
 C655 C 0.20172 0.52474 0.96066
 C656 C 0.22408 0.50070 0.96241
 C657 C 0.22439 0.47778 0.93916
 C658 C 0.20302 0.47910 0.91438
 C659 C 0.15674 0.50363 0.88710
 C660 C 0.14250 0.47593 0.87695
 C661 C 0.11948 0.47635 0.85361
 C662 C 0.11008 0.50448 0.83991
 C663 C 0.12447 0.53217 0.84985
 C664 C 0.14757 0.53175 0.87317
 H665 H 0.20005 0.54200 0.97891
 H666 H 0.24059 0.45840 0.94019
 H667 H 0.10843 0.45470 0.84685
 H668 H 0.11800 0.55415 0.83944
 H669 H 0.20400 0.46117 0.89668
 H670 H 0.14857 0.45395 0.88760
 H671 H 0.16275 0.54448 0.93564
 H672 H 0.15843 0.55342 0.88016
 C673 C 0.58908 0.00498 0.32092
 C674 C 0.58551 -0.02089 0.30118
 C675 C 0.56108 -0.02184 0.27922
 C676 C 0.53976 0.00300 0.27668
 C677 C 0.54339 0.02895 0.29598
 C678 C 0.56802 0.03014 0.31762
 C679 C 0.61350 0.00509 0.34591
 C680 C 0.60666 0.01841 0.37515
 C681 C 0.62897 0.01774 0.39908
 C682 C 0.65863 0.00334 0.39466
 C683 C 0.66568 -0.00974 0.36534
 C684 C 0.64341 -0.00880 0.34122
 H685 H 0.55830 -0.04244 0.26507
 H686 H 0.52689 0.04819 0.29458
 H687 H 0.62291 0.02859 0.42112
 H688 H 0.68817 -0.02124 0.36116
 H689 H 0.57033 0.05066 0.33201
 H690 H 0.58375 0.02888 0.37985
 H691 H 0.60085 -0.04092 0.30344
 H692 H 0.64964 -0.01896 0.31889
 C693 C 0.81954 0.50132 0.08087
 C694 C 0.81920 0.52472 0.05801
 C695 C 0.79715 0.52386 0.03381
 C696 C 0.77493 0.49976 0.03209
 C697 C 0.77495 0.47648 0.05492
 C698 C 0.79699 0.47732 0.07921
 C699 C 0.84395 0.50153 0.10575
 C700 C 0.83604 0.49364 0.13667
 C701 C 0.85922 0.49376 0.15994
 C702 C 0.89081 0.50173 0.15277
 C703 C 0.89868 0.50947 0.12181
 C704 C 0.87554 0.50940 0.09860
 H705 H 0.79762 0.54190 0.01622
 H706 H 0.75846 0.45731 0.05376
 H707 H 0.85234 0.48803 0.18363
 H708 H 0.92291 0.51508 0.11536
 H709 H 0.79698 0.45873 0.09620
 H710 H 0.81182 0.48780 0.14294
 H711 H 0.83601 0.54369 0.05884
 H712 H 0.88251 0.51498 0.07490
 C713 C 0.41272 -0.00352 0.68392
 C714 C 0.43619 -0.02674 0.68280
 C715 C 0.46120 -0.02667 0.70407
 C716 C 0.46314 -0.00354 0.72696
 C717 C 0.43973 0.01955 0.72840
 C718 C 0.41468 0.01953 0.70710
 C719 C 0.38697 -0.00288 0.66035
 C720 C 0.37728 0.02532 0.64694
 C721 C 0.35426 0.02577 0.62354
 C722 C 0.34044 -0.00198 0.61300
 C723 C 0.34965 -0.03011 0.62686
 C724 C 0.37264 -0.03056 0.65027
 H725 H 0.47932 -0.04445 0.70237
 H726 H 0.44091 0.03784 0.74565
 H727 H 0.34801 0.04776 0.61303
 H728 H 0.33905 -0.05181 0.61961
 H729 H 0.39683 0.03757 0.70874
 H730 H 0.38819 0.04698 0.65385
 H731 H 0.43570 -0.04451 0.66492
 H732 H 0.37920 -0.05259 0.66051
   
