data_POSCAR
  _audit_creation_date              2014-09-24
  _audit_creation_method            'ToBaCCo'
  _symmetry_space_group_name_H-M    'P1'
  _symmetry_Int_Tables_number       1
  _symmetry_cell_setting            triclinic
  loop_
  _symmetry_equiv_pos_as_xyz
 x,y,z
_cell_length_a 24.1429
_cell_length_b 23.7793
_cell_length_c 23.8909
_cell_angle_alpha 90.058600
_cell_angle_beta 90.115200
_cell_angle_gamma 90.165300
loop_
  _atom_site_label
  _atom_site_type_symbol
  _atom_site_fract_x
  _atom_site_fract_y
  _atom_site_fract_z
O1 O 0.43370 0.93668 -0.55751
 O2 O 0.54499 0.91612 -0.45225
 O3 O 0.43419 0.91792 -0.45539
 O4 O 0.53745 0.92087 -0.56666
 O5 O 0.54896 1.01242 -0.55600
 O6 O 0.44555 1.00909 -0.44094
 O7 O 0.55507 1.00795 -0.44544
 O8 O 0.44260 1.02858 -0.54663
 Cu9 Cu 0.48936 0.91384 -0.50758
 Cu10 Cu 0.49974 1.02348 -0.49587
 C11 C 0.41813 0.98668 -0.56835
 C12 C 0.56841 0.95879 -0.43019
 C13 C 0.42060 0.96288 -0.43061
 C14 C 0.55935 0.96679 -0.58197
 O15 O -0.56664 1.44569 0.03355
 O16 O -0.46749 1.56085 0.05773
 O17 O -0.57138 1.55511 0.03170
 O18 O -0.46241 1.45028 0.05804
 O19 O -0.44141 1.45087 -0.03190
 O20 O -0.55023 1.55560 -0.05816
 O21 O -0.44649 1.56049 -0.03221
 O22 O -0.54577 1.44504 -0.05636
 Cu23 Cu -0.51899 1.50298 0.05431
 Cu24 Cu -0.49392 1.50296 -0.05371
 C25 C -0.57262 1.42511 -0.01520
 C26 C -0.44078 1.58093 0.01663
 C27 C -0.57875 1.57397 -0.01753
 C28 C -0.43394 1.43210 0.01727
 O29 O -0.00166 0.44690 0.45048
 O30 O -0.00151 0.56990 0.54459
 O31 O 0.00440 0.55602 0.43740
 O32 O -0.01364 0.46340 0.55818
 O33 O 0.07720 0.45669 0.56735
 O34 O 0.09536 0.55057 0.44546
 O35 O 0.08954 0.56420 0.55194
 O36 O 0.08911 0.44049 0.45995
 Cu37 Cu -0.01223 0.50936 0.49638
 Cu38 Cu 0.09697 0.50186 0.50667
 C39 C 0.04388 0.42248 0.43967
 C40 C 0.04424 0.58809 0.56411
 C41 C 0.05254 0.57061 0.42185
 C42 C 0.02846 0.44505 0.58395
 O43 O -0.14530 1.00783 -0.08104
 O44 O 0.14062 0.99768 -0.07258
 O45 O 0.00305 1.07708 -0.14608
 O46 O -0.00148 0.92558 -0.14473
 O47 O -0.00746 0.85810 -0.07569
 O48 O 0.00321 1.14651 -0.07855
 O49 O 0.07531 0.99782 -0.14327
 O50 O -0.07518 1.00815 -0.14695
 Zr51 Zr -0.00134 1.00202 -0.09982
 O52 O 0.04567 0.94945 -0.05071
 O53 O -0.05160 1.05467 -0.05374
 C54 C -0.12689 1.00943 -0.13222
 C55 C 0.12604 0.99741 -0.12472
 C56 C 0.00482 1.12910 -0.13010
 C57 C -0.00438 0.87395 -0.12746
 H58 H 0.07454 1.07466 -0.07329
 O59 O 0.04910 1.05134 -0.05069
 H60 H -0.07886 0.93091 -0.07727
 O61 O -0.05505 0.95419 -0.05274
 O62 O 0.13723 0.99721 0.07697
 O63 O -0.14830 1.00694 0.07284
 O64 O 0.07488 1.14449 0.00472
 O65 O 0.06384 0.85570 0.00124
 O66 O -0.08395 0.86135 -0.00252
 O67 O -0.07345 1.14941 -0.00927
 O68 O -0.00136 1.08134 0.14200
 O69 O -0.01099 0.92811 0.14352
 O70 O -0.00159 1.14846 0.07226
 O71 O -0.01615 0.86006 0.07465
 O72 O 0.14091 1.07443 0.00522
 O73 O -0.14444 1.08419 -0.00691
 O74 O -0.15013 0.93114 -0.00210
 O75 O 0.13494 0.92079 -0.00043
 O76 O 0.06930 1.00213 0.14469
 O77 O -0.08088 1.00736 0.14175
 Zr78 Zr 0.09339 0.99930 0.00110
 Zr79 Zr -0.10241 1.00621 -0.00327
 Zr80 Zr -0.00080 1.10125 -0.00233
 Zr81 Zr -0.00828 0.90494 -0.00074
 Zr82 Zr -0.00558 1.00417 0.09766
 O83 O -0.05749 0.95461 0.04917
 O84 O 0.04714 1.05269 0.05032
 C85 C 0.12057 0.99834 0.12840
 C86 C -0.13194 1.00795 0.12486
 C87 C 0.12543 1.12671 0.00748
 C88 C 0.11570 0.86966 0.00062
 C89 C -0.13461 0.87885 -0.00272
 C90 C -0.12526 1.13519 -0.01020
 C91 C -0.00104 1.13300 0.12424
 C92 C -0.01576 0.87645 0.12633
 H93 H -0.07667 1.08101 0.07027
 O94 O -0.05339 1.05560 0.04762
 H95 H 0.06440 0.92584 0.07514
 O96 O 0.04267 0.95106 0.05073
 C97 C 0.37015 0.99714 0.39522
 C98 C 0.34428 0.95482 0.36451
 C99 C 0.29491 0.96624 0.33027
 N100 N 0.28327 0.93310 0.28558
 N101 N 0.23964 0.94391 0.25322
 C102 C 0.20549 0.98773 0.26479
 N103 N 0.21633 1.02015 0.31028
 N104 N 0.26047 1.00977 0.34228
 C105 C 0.15904 1.00100 0.22712
 C106 C 0.16463 0.99095 0.17010
 H107 H 0.36207 0.91306 0.36339
 H108 H 0.12218 1.02096 0.24343
 H109 H 0.35446 1.03972 0.39282
 H110 H 0.20428 0.97635 0.15462
 C111 C -0.40423 0.96598 0.36859
 C112 C -0.37031 1.01086 0.35322
 C113 C -0.33453 1.00801 0.30325
 N114 N -0.28966 1.04220 0.29910
 N115 N -0.25625 1.03907 0.25486
 C116 C -0.26675 1.00210 0.21267
 N117 N -0.31222 0.96861 0.21629
 N118 N -0.34532 0.97131 0.26086
 C119 C -0.22880 0.99734 0.16446
 C120 C -0.17333 1.01273 0.16979
 H121 H -0.36782 1.04768 0.37984
 H122 H -0.24351 0.97826 0.12600
 H123 H -0.40339 0.92777 0.34386
 H124 H -0.15843 1.02677 0.21031
 C125 C -0.39178 0.95138 -0.38814
 C126 C -0.36240 0.99681 -0.36532
 C127 C -0.32384 0.99173 -0.31767
 N128 N -0.28622 1.03316 -0.30813
 N129 N -0.25225 1.03085 -0.26419
 C130 C -0.25509 0.98736 -0.22750
 N131 N -0.29311 0.94609 -0.23667
 N132 N -0.32675 0.94809 -0.28106
 C133 C -0.21773 0.98499 -0.17853
 C134 C -0.16713 1.01343 -0.17838
 H135 H -0.36703 1.03824 -0.38356
 H136 H -0.22843 0.95790 -0.14374
 H137 H -0.38379 0.90931 -0.37279
 H138 H -0.15407 1.03526 -0.21591
 C139 C 0.37365 0.96047 -0.39167
 C140 C 0.35723 1.00559 -0.35862
 C141 C 0.30706 1.00195 -0.32390
 N142 N 0.30191 1.03483 -0.27784
 N143 N 0.25721 1.03079 -0.24548
 C144 C 0.21563 0.99430 -0.25837
 N145 N 0.22022 0.96227 -0.30511
 N146 N 0.26526 0.96581 -0.33712
 C147 C 0.16709 0.98858 -0.22159
 C148 C 0.17209 0.99986 -0.16469
 H149 H 0.38239 1.04333 -0.35676
 H150 H 0.12845 0.97270 -0.23854
 H151 H 0.35024 0.92156 -0.38992
 H152 H 0.21255 1.01059 -0.14798
 C153 C 0.39202 1.37944 -0.02374
 C154 C 0.36060 1.35663 0.01966
 C155 C 0.32529 1.30678 0.01247
 N156 N 0.28532 1.29590 0.05071
 N157 N 0.25258 1.25115 0.04515
 C158 C 0.25903 1.21512 0.00154
 N159 N 0.29972 1.22536 -0.03628
 N160 N 0.33219 1.27056 -0.03101
 C161 C 0.22100 1.16723 -0.00566
 C162 C 0.16738 1.17060 0.01519
 H163 H 0.36047 1.37679 0.06037
 H164 H 0.23343 1.13151 -0.03080
 H165 H 0.38942 1.36102 -0.06519
 H166 H 0.15392 1.20941 0.03466
 C167 C 0.38278 0.61642 -0.02730
 C168 C 0.34880 0.63736 0.01495
 C169 C 0.31257 0.68608 0.00642
 N170 N 0.26918 0.69440 0.04130
 N171 N 0.23641 0.73884 0.03494
 C172 C 0.24626 0.77711 -0.00604
 N173 N 0.29021 0.76931 -0.04048
 N174 N 0.32267 0.72442 -0.03452
 C175 C 0.20961 0.82586 -0.01312
 C176 C 0.15472 0.82270 0.00413
 H177 H 0.34796 0.61710 0.05555
 H178 H 0.22493 0.86319 -0.03399
 H179 H 0.38005 0.63427 -0.06895
 H180 H 0.13877 0.78301 0.01961
 C181 C -0.40406 0.62950 0.02579
 C182 C -0.37056 0.65034 -0.01679
 C183 C -0.33563 0.70048 -0.00976
 N184 N -0.29335 0.70953 -0.04584
 N185 N -0.26070 0.75432 -0.04009
 C186 C -0.26952 0.79221 0.00150
 N187 N -0.31255 0.78384 0.03703
 N188 N -0.34495 0.73860 0.03162
 C189 C -0.23145 0.84003 0.00902
 C190 C -0.17647 0.83439 -0.00717
 H191 H -0.36844 0.62817 -0.05637
 H192 H -0.24541 0.87781 0.02997
 H193 H -0.40395 0.64963 0.06649
 H194 H -0.16240 0.79393 -0.02243
 C195 C -0.39332 1.38722 0.02706
 C196 C -0.35681 1.37018 -0.01466
 C197 C -0.32070 1.32097 -0.00849
 N198 N -0.27746 1.31410 -0.04390
 N199 N -0.24491 1.26920 -0.03984
 C200 C -0.25482 1.22908 -0.00067
 N201 N -0.29853 1.23554 0.03436
 N202 N -0.33082 1.28080 0.03065
 C203 C -0.21843 1.17981 0.00423
 C204 C -0.16447 1.18178 -0.01603
 H205 H -0.35447 1.39373 -0.05339
 H206 H -0.23288 1.14314 0.02683
 H207 H -0.39330 1.36610 0.06721
 H208 H -0.14886 1.22070 -0.03363
 C209 C 0.04497 1.37230 0.40375
 C210 C 0.00090 1.35782 0.36892
 C211 C 0.00333 1.30871 0.33159
 N212 N -0.02964 1.30649 0.28564
 N213 N -0.02699 1.26295 0.25066
 C214 C 0.00827 1.21968 0.26066
 N215 N 0.04056 1.22136 0.30719
 N216 N 0.03837 1.26526 0.34187
 C217 C 0.01197 1.17208 0.22146
 C218 C -0.00252 1.17879 0.16546
 H219 H -0.03486 1.38512 0.36634
 H220 H 0.02868 1.13246 0.23600
 H221 H 0.08250 1.34743 0.40296
 H222 H -0.01425 1.22012 0.15055
 C223 C 0.01957 1.41057 -0.36604
 C224 C 0.05982 1.37465 -0.34499
 C225 C 0.04790 1.33793 -0.29716
 N226 N 0.07377 1.28765 -0.29255
 N227 N 0.06127 1.25280 -0.25083
 C228 C 0.02293 1.26725 -0.21187
 N229 N -0.00205 1.31809 -0.21573
 N230 N 0.00992 1.35266 -0.25790
 C231 C 0.00833 1.22824 -0.16662
 C232 C 0.01264 1.17052 -0.17480
 H233 H 0.09877 1.36981 -0.36689
 H234 H -0.00735 1.24480 -0.12751
 H235 H -0.02118 1.41108 -0.34712
 H236 H 0.02359 1.15479 -0.21591
 C237 C 0.04556 0.63469 -0.40076
 C238 C -0.00228 0.65937 -0.37961
 C239 C 0.00101 0.70675 -0.34050
 N240 N -0.03826 0.71308 -0.30055
 N241 N -0.03444 0.75462 -0.26333
 C242 C 0.00839 0.79171 -0.26527
 N243 N 0.04703 0.78615 -0.30598
 N244 N 0.04364 0.74410 -0.34273
 C245 C 0.01329 0.83679 -0.22370
 C246 C -0.00653 0.82928 -0.16962
 H247 H -0.04250 0.64077 -0.38788
 H248 H 0.03530 0.87495 -0.23474
 H249 H 0.08560 0.65083 -0.38767
 H250 H -0.02303 0.78870 -0.15732
 C251 C 0.05863 0.61335 0.37784
 C252 C 0.01251 0.63339 0.34901
 C253 C 0.01400 0.68371 0.31352
 N254 N -0.02987 0.69526 0.28001
 N255 N -0.03058 0.74172 0.24904
 C256 C 0.01223 0.77883 0.25097
 N257 N 0.05594 0.76763 0.28497
 N258 N 0.05685 0.72084 0.31569
 C259 C 0.01211 0.82936 0.21551
 C260 C -0.02108 0.83169 0.16792
 H261 H -0.02707 0.61240 0.35394
 H262 H 0.04182 0.86259 0.22379
 H263 H 0.09904 0.63189 0.37076
 H264 H -0.04618 0.79555 0.15665
   
