data_POSCAR
  _audit_creation_date              2014-09-24
  _audit_creation_method            'ToBaCCo'
  _symmetry_space_group_name_H-M    'P1'
  _symmetry_Int_Tables_number       1
  _symmetry_cell_setting            triclinic
  loop_
  _symmetry_equiv_pos_as_xyz
 x,y,z
_cell_length_a 48.9962
_cell_length_b 49.6089
_cell_length_c 49.1413
_cell_angle_alpha 90.114000
_cell_angle_beta 90.251200
_cell_angle_gamma 89.698800
loop_
  _atom_site_label
  _atom_site_type_symbol
  _atom_site_fract_x
  _atom_site_fract_y
  _atom_site_fract_z
Si1 Si 0.25017 0.50331 0.99991
 Si2 Si 0.74840 0.49614 -0.00145
 Si3 Si 0.00261 0.25022 0.49899
 Si4 Si 0.99956 0.75002 0.49963
 Si5 Si 0.49840 -0.00084 0.24929
 Si6 Si 0.50385 -0.00008 0.75171
 C7 C 0.29228 0.01779 0.47002
 H8 H 0.29309 0.03307 0.48573
 C9 C 0.31064 0.01856 0.44840
 H10 H 0.32546 0.03464 0.44766
 C11 C 0.27222 -0.02201 0.45247
 H12 H 0.25755 -0.03806 0.45438
 C13 C 0.29022 -0.02204 0.43050
 H14 H 0.28895 -0.03808 0.41558
 N15 N 0.27344 -0.00216 0.47157
 C16 C 0.20924 0.03121 0.52289
 H17 H 0.20831 0.01580 0.53841
 C18 C 0.19133 0.05315 0.52379
 H19 H 0.17671 0.05446 0.54020
 C20 C 0.22917 0.04766 0.48239
 H21 H 0.24359 0.04521 0.46601
 C22 C 0.21160 0.06994 0.48247
 H23 H 0.21297 0.08453 0.46618
 Zn24 Zn 0.25036 -0.00213 0.50235
 N25 N 0.22781 0.02896 0.50253
 C26 C 0.27251 0.01736 0.55229
 N27 N 0.27324 -0.00277 0.53347
 C28 C 0.29158 -0.02334 0.53547
 C29 C 0.30998 -0.02439 0.55721
 C30 C 0.29059 0.01714 0.57436
 C31 C 0.20849 -0.03398 0.48121
 C32 C 0.18993 -0.05521 0.48012
 C33 C 0.20957 -0.07272 0.52170
 C34 C 0.22778 -0.05115 0.52197
 N35 N 0.22704 -0.03242 0.50180
 H36 H 0.25827 0.03389 0.55002
 H37 H 0.29202 -0.03885 0.51996
 H38 H 0.32446 -0.04091 0.55826
 H39 H 0.28978 0.03347 0.58898
 H40 H 0.20806 -0.01855 0.46568
 H41 H 0.17533 -0.05596 0.46354
 H42 H 0.21045 -0.08733 0.53803
 H43 H 0.24220 -0.04923 0.53853
 C44 C 0.19231 0.07289 0.50335
 C45 C 0.30981 -0.00158 0.42827
 C46 C 0.19025 -0.07493 0.50060
 C47 C 0.30975 -0.00389 0.57698
 C48 C 0.71057 0.02416 0.53295
 H49 H 0.70944 0.03934 0.51720
 C50 C 0.69273 0.02533 0.55499
 H51 H 0.67799 0.04162 0.55603
 C52 C 0.73085 -0.01584 0.55011
 H53 H 0.74537 -0.03213 0.54787
 C54 C 0.71336 -0.01548 0.57249
 H55 H 0.71489 -0.03146 0.58739
 N56 N 0.72925 0.00390 0.53098
 C57 C 0.79221 0.03561 0.47763
 H58 H 0.79256 0.02005 0.46217
 C59 C 0.81043 0.05709 0.47622
 H60 H 0.82469 0.05790 0.45948
 C61 C 0.77355 0.05284 0.51856
 H62 H 0.75952 0.05085 0.53531
 C63 C 0.79144 0.07466 0.51798
 H64 H 0.79072 0.08937 0.53427
 Zn65 Zn 0.75145 0.00322 0.49957
 N66 N 0.77416 0.03394 0.49847
 C67 C 0.72816 0.02208 0.44983
 N68 N 0.72774 0.00243 0.46908
 C69 C 0.70927 -0.01790 0.46792
 C70 C 0.69048 -0.01927 0.44654
 C71 C 0.70970 0.02151 0.42808
 C72 C 0.79374 -0.02900 0.51986
 C73 C 0.81218 -0.05053 0.52065
 C74 C 0.79131 -0.06827 0.47979
 C75 C 0.77324 -0.04639 0.47980
 N76 N 0.77465 -0.02741 0.49977
 H77 H 0.74253 0.03843 0.45144
 H78 H 0.70910 -0.03301 0.48376
 H79 H 0.67597 -0.03565 0.44610
 H80 H 0.71033 0.03740 0.41304
 H81 H 0.79470 -0.01338 0.53523
 H82 H 0.82722 -0.05132 0.53684
 H83 H 0.78988 -0.08308 0.46365
 H84 H 0.75838 -0.04446 0.46362
 C85 C 0.81030 0.07695 0.49666
 C86 C 0.69391 0.00527 0.57512
 C87 C 0.81117 -0.07053 0.50039
 C88 C 0.69048 0.00065 0.42626
 C89 C 0.47562 0.20897 1.03400
 H90 H 0.46015 0.20854 1.01823
 C91 C 0.47458 0.19063 1.05547
 H92 H 0.45807 0.17623 1.05608
 C93 C 0.51634 0.22787 1.05167
 H94 H 0.53290 0.24201 1.04981
 C95 C 0.51612 0.20986 1.07349
 H96 H 0.53247 0.21063 1.08836
 N97 N 0.49622 0.22715 1.03252
 C98 C 0.46482 0.29075 0.97964
 H99 H 0.48070 0.29101 0.96442
 C100 C 0.44325 0.30918 0.97814
 H101 H 0.44271 0.32351 0.96155
 C102 C 0.44687 0.27209 1.02009
 H103 H 0.44864 0.25795 1.03670
 C104 C 0.42495 0.29021 1.01941
 H105 H 0.40991 0.28957 1.03548
 Zn106 Zn 0.49715 0.24967 1.00150
 N107 N 0.46619 0.27262 1.00030
 C108 C 0.47820 0.22761 0.95125
 N109 N 0.49803 0.22672 0.97070
 C110 C 0.51855 0.20822 0.96959
 C111 C 0.51993 0.18984 0.94811
 C112 C 0.47876 0.20954 0.92940
 C113 C 0.52997 0.29051 1.02284
 C114 C 0.55185 0.30838 1.02413
 C115 C 0.56982 0.28825 0.98309
 C116 C 0.54759 0.27074 0.98262
 N117 N 0.52831 0.27207 1.00242
 H118 H 0.46168 0.24202 0.95282
 H119 H 0.53379 0.20768 0.98558
 H120 H 0.53644 0.17525 0.94775
 H121 H 0.46270 0.21050 0.91423
 H122 H 0.51412 0.29141 1.03808
 H123 H 0.55267 0.32294 1.04055
 H124 H 0.58483 0.28693 0.96704
 H125 H 0.54559 0.25641 0.96617
 C126 C 0.42298 0.30918 0.99828
 C127 C 0.49512 0.19079 1.07551
 C128 C 0.57213 0.30747 1.00401
 C129 C 0.49980 0.19025 0.92767
 C130 C 0.48052 0.79083 -0.03402
 H131 H 0.46502 0.79170 -0.01843
 C132 C 0.47960 0.80889 -0.05576
 H133 H 0.46317 0.82354 -0.05673
 C134 C 0.52111 0.77102 -0.05106
 H135 H 0.53757 0.75662 -0.04889
 C136 C 0.52101 0.78873 -0.07314
 H137 H 0.53734 0.78747 -0.08786
 N138 N 0.50097 0.77230 -0.03214
 C139 C 0.46873 0.70929 0.02024
 H140 H 0.48459 0.70863 0.03562
 C141 C 0.44690 0.69138 0.02150
 H142 H 0.44613 0.67705 0.03806
 C143 C 0.45107 0.72850 -0.02032
 H144 H 0.45302 0.74264 -0.03686
 C145 C 0.42888 0.71093 -0.01987
 H146 H 0.41385 0.71200 -0.03606
 Zn147 Zn 0.50151 0.74984 -0.00105
 N148 N 0.47034 0.72748 -0.00033
 C149 C 0.48202 0.77223 0.04861
 N150 N 0.50228 0.77275 0.02978
 C151 C 0.52290 0.79091 0.03152
 C152 C 0.52384 0.80938 0.05297
 C153 C 0.48215 0.79035 0.07039
 C154 C 0.53370 0.70833 -0.02199
 C155 C 0.55523 0.68985 -0.02313
 C156 C 0.57363 0.70941 0.01806
 C157 C 0.55173 0.72757 0.01838
 N158 N 0.53240 0.72679 -0.00156
 H159 H 0.46543 0.75811 0.04654
 H160 H 0.53849 0.79118 0.01600
 H161 H 0.54039 0.82374 0.05382
 H162 H 0.46570 0.78970 0.08502
 H163 H 0.51781 0.70788 -0.03733
 H164 H 0.55573 0.67529 -0.03957
 H165 H 0.58870 0.71027 0.03422
 H166 H 0.55001 0.74198 0.03480
 C167 C 0.42662 0.69197 0.00121
 C168 C 0.50011 0.80808 -0.07565
 C169 C 0.57554 0.69014 -0.00286
 C170 C 0.50319 0.80937 0.07272
 C171 C 1.03256 0.47911 0.20869
 H172 H 1.01696 0.46378 0.20795
 C173 C 1.05426 0.47820 0.19039
 H174 H 1.05519 0.46194 0.17568
 C175 C 1.04970 0.51924 0.22845
 H176 H 1.04758 0.53549 0.24295
 C177 C 1.07174 0.51913 0.21050
 H178 H 1.08649 0.53526 0.21166
 N179 N 1.03075 0.49932 0.22732
 C180 C 0.97900 0.46734 0.29145
 H181 H 0.96344 0.48288 0.29211
 C182 C 0.97809 0.44584 0.30969
 H183 H 0.96162 0.44499 0.32426
 C184 C 1.01967 0.45016 0.27194
 H185 H 1.03613 0.45218 0.25755
 C186 C 1.01959 0.42831 0.28984
 H187 H 1.03595 0.41359 0.28877
 Zn188 Zn 0.99974 0.49975 0.25019
 N189 N 0.99946 0.46904 0.27296
 C190 C 0.94963 0.48039 0.22814
 N191 N 0.96859 0.50030 0.22726
 C192 C 0.96665 0.52064 0.20884
 C193 C 0.94481 0.52171 0.19054
 C194 C 0.92745 0.48065 0.21017
 C195 C 1.02067 0.53205 0.29184
 C196 C 1.02157 0.55347 0.31028
 C197 C 0.97992 0.57094 0.29041
 C198 C 0.97984 0.54917 0.27232
 N199 N 1.00012 0.53037 0.27325
 H200 H 0.95185 0.46404 0.24246
 H201 H 0.98226 0.53597 0.20829
 H202 H 0.94378 0.53807 0.17602
 H203 H 0.91269 0.46452 0.21113
 H204 H 1.03629 0.51656 0.29243
 H205 H 1.03811 0.55431 0.32494
 H206 H 0.96350 0.58559 0.28940
 H207 H 0.96331 0.54716 0.25786
 C208 C 0.99863 0.42597 0.30911
 C209 C 1.07419 0.49845 0.19106
 C210 C 1.00096 0.57326 0.30980
 C211 C 0.92486 0.50147 0.19097
 C212 C -0.03423 0.47902 0.78939
 H213 H -0.01821 0.46394 0.79003
 C214 C -0.05603 0.47754 0.80748
 H215 H -0.05660 0.46112 0.82195
 C216 C -0.05235 0.51902 0.77002
 H217 H -0.05058 0.53542 0.75572
 C218 C -0.07452 0.51836 0.78780
 H219 H -0.08974 0.53423 0.78675
 N220 N -0.03286 0.49941 0.77103
 C221 C 0.01999 0.46804 0.70711
 H222 H 0.03543 0.48356 0.70675
 C223 C 0.02125 0.44664 0.68867
 H224 H 0.03787 0.44583 0.67424
 C225 C -0.02075 0.45086 0.72602
 H226 H -0.03740 0.45285 0.74023
 C227 C -0.02031 0.42912 0.70793
 H228 H -0.03657 0.41445 0.70869
 Zn229 Zn -0.00170 0.50029 0.74845
 N230 N -0.00069 0.46970 0.72540
 C231 C 0.04859 0.48130 0.77092
 N232 N 0.02917 0.50097 0.77172
 C233 C 0.03037 0.52121 0.79037
 C234 C 0.05190 0.52244 0.80900
 C235 C 0.07050 0.48171 0.78922
 C236 C -0.02284 0.53277 0.70697
 C237 C -0.02381 0.55422 0.68865
 C238 C 0.01748 0.57165 0.70898
 C239 C 0.01764 0.54986 0.72694
 N240 N -0.00241 0.53104 0.72571
 H241 H 0.04696 0.46502 0.75640
 H242 H 0.01439 0.53635 0.79084
 H243 H 0.05234 0.53873 0.82368
 H244 H 0.08567 0.46579 0.78831
 H245 H -0.03827 0.51727 0.70614
 H246 H -0.04022 0.55508 0.67384
 H247 H 0.03375 0.58629 0.71021
 H248 H 0.03408 0.54781 0.74150
 C249 C 0.00085 0.42684 0.68884
 C250 C -0.07654 0.49744 0.80692
 C251 C -0.00339 0.57399 0.68940
 C252 C 0.07233 0.50246 0.80866
 N253 N 0.07298 0.21142 0.48037
 C254 C 0.07689 0.19484 0.50197
 N255 N 0.05896 0.19568 0.52288
 N256 N 0.03768 0.21248 0.52217
 C257 C 0.03364 0.22899 0.50054
 N258 N 0.05168 0.22825 0.47968
 C259 C 0.09869 0.17542 0.50210
 C260 C 0.11630 0.15836 0.50246
 C261 C 0.13645 0.13729 0.50316
 N262 N 0.13632 0.11891 0.52351
 N263 N 0.15424 0.09864 0.52369
 C264 C 0.17293 0.09594 0.50350
 N265 N 0.17302 0.11452 0.48319
 N266 N 0.15509 0.13481 0.48299
 N267 N 0.68187 0.54418 -0.00048
 C268 C 0.69222 0.56944 -0.00135
 N269 N 0.71969 0.57270 -0.00216
 N270 N 0.73627 0.55128 -0.00211
 C271 C 0.72587 0.52600 -0.00129
 N272 N 0.69842 0.52282 -0.00043
 C273 C 0.67410 0.59224 -0.00174
 C274 C 0.65800 0.61071 -0.00221
 C275 C 0.63792 0.63185 -0.00296
 N276 N 0.63648 0.65038 0.01730
 N277 N 0.61689 0.66913 0.01717
 C278 C 0.59799 0.66997 -0.00317
 N279 N 0.59966 0.65139 -0.02346
 N280 N 0.61923 0.63266 -0.02335
 N281 N 0.93053 -0.20947 0.51915
 C282 C 0.92744 -0.19186 0.49828
 N283 N 0.94563 -0.19235 0.47758
 N284 N 0.96636 -0.20983 0.47779
 C285 C 0.96956 -0.22739 0.49870
 N286 N 0.95128 -0.22697 0.51935
 C287 C 0.90602 -0.17203 0.49873
 C288 C 0.88851 -0.15487 0.49922
 C289 C 0.86823 -0.13392 0.49992
 N290 N 0.84893 -0.13215 0.48015
 N291 N 0.83066 -0.11215 0.48042
 C292 C 0.83105 -0.09318 0.50042
 N293 N 0.85043 -0.09514 0.52022
 N294 N 0.86869 -0.11512 0.51996
 N295 N 0.27896 0.42674 0.99884
 C296 C 0.30644 0.43004 0.99886
 N297 N 0.31678 0.45532 0.99921
 N298 N 0.30021 0.47666 0.99953
 C299 C 0.27275 0.47345 0.99949
 N300 N 0.26236 0.44814 0.99916
 C301 C 0.32457 0.40723 0.99841
 C302 C 0.34065 0.38875 0.99799
 C303 C 0.36068 0.36756 0.99742
 N304 N 0.37934 0.36655 0.97718
 N305 N 0.39888 0.34778 0.97729
 C306 C 0.40054 0.32936 0.99767
 N307 N 0.38167 0.33040 1.01786
 N308 N 0.36211 0.34918 1.01776
 N309 N 0.92591 0.22061 0.49794
 C310 C 0.92996 0.19353 0.49787
 N311 N 0.95581 0.18370 0.49823
 N312 N 0.97699 0.20040 0.49864
 C313 C 0.97302 0.22746 0.49871
 N314 N 0.94713 0.23734 0.49834
 C315 C 0.90734 0.17529 0.49730
 C316 C 0.88903 0.15916 0.49677
 C317 C 0.86803 0.13912 0.49610
 N318 N 0.86723 0.12078 0.47565
 N319 N 0.84867 0.10127 0.47566
 C320 C 0.83025 0.09932 0.49615
 N321 N 0.83107 0.11787 0.51655
 N322 N 0.84965 0.13740 0.51655
 N323 N 0.30560 0.55895 -0.02157
 C324 C 0.30601 0.57621 -0.00015
 N325 N 0.28898 0.57190 0.02107
 N326 N 0.27212 0.55089 0.02090
 C327 C 0.27183 0.53354 -0.00047
 N328 N 0.28877 0.53796 -0.02173
 C329 C 0.32531 0.59786 0.00061
 C330 C 0.34217 0.61547 0.00116
 C331 C 0.36292 0.63576 0.00175
 N332 N 0.38183 0.63594 0.02195
 N333 N 0.40186 0.65399 0.02192
 C334 C 0.40377 0.67249 0.00166
 N335 N 0.38466 0.67227 -0.01849
 N336 N 0.36462 0.65421 -0.01847
 N337 N 0.06918 -0.21116 0.48036
 C338 C 0.07253 -0.19367 0.50135
 N339 N 0.05431 -0.19373 0.52203
 N340 N 0.03332 -0.21069 0.52169
 C341 C 0.02988 -0.22813 0.50068
 N342 N 0.04818 -0.22813 0.48004
 C343 C 0.09425 -0.17438 0.50105
 C344 C 0.11200 -0.15765 0.50073
 C345 C 0.13257 -0.13718 0.50028
 N346 N 0.15136 -0.13548 0.52052
 N347 N 0.16984 -0.11587 0.52051
 C348 C 0.17018 -0.09721 0.50028
 N349 N 0.15132 -0.09910 0.48000
 N350 N 0.13284 -0.11870 0.48001
 N351 N 0.71063 0.42771 1.02152
 C352 C 0.69263 0.42324 1.00096
 N353 N 0.69207 0.44032 0.97947
 N354 N 0.70887 0.46131 0.97861
 C355 C 0.72677 0.46590 0.99920
 N356 N 0.72746 0.44872 1.02065
 C357 C 0.67343 0.40155 1.00243
 C358 C 0.65663 0.38392 1.00340
 C359 C 0.63593 0.36359 1.00426
 N360 N 0.61700 0.36386 1.02428
 N361 N 0.59695 0.34583 1.02437
 C362 C 0.59503 0.32691 1.00441
 N363 N 0.61417 0.32668 0.98446
 N364 N 0.63423 0.34471 0.98435
 N365 N 0.47766 0.06852 1.21116
 C366 C 0.49837 0.07216 1.19335
 N367 N 0.51929 0.05417 1.19291
 N368 N 0.51945 0.03313 1.20971
 C369 C 0.49872 0.02940 1.22749
 N370 N 0.47784 0.04747 1.22797
 C371 C 0.49757 0.09403 1.17429
 C372 C 0.49682 0.11195 1.15777
 C373 C 0.49588 0.13273 1.13751
 N374 N 0.51592 0.15140 1.13611
 N375 N 0.51551 0.17005 1.11662
 C376 C 0.49509 0.17067 1.09780
 N377 N 0.47501 0.15195 1.09942
 N378 N 0.47540 0.13331 1.11890
 N379 N -0.02128 0.71088 0.56851
 C380 C -0.00046 0.69310 0.57210
 N381 N 0.02056 0.69302 0.55425
 N382 N 0.02072 0.71012 0.53339
 C383 C -0.00013 0.72785 0.52971
 N384 N -0.02111 0.72799 0.54763
 C385 C -0.00124 0.67374 0.59373
 C386 C -0.00194 0.65697 0.61143
 C387 C -0.00280 0.63646 0.63195
 N388 N 0.01713 0.63470 0.65109
 N389 N 0.01679 0.61503 0.66952
 C390 C -0.00345 0.59639 0.66946
 N391 N -0.02342 0.59835 0.65026
 N392 N -0.02309 0.61801 0.63183
 N393 N 0.52484 0.94339 -0.19316
 C394 C 0.50413 0.92542 -0.19455
 N395 N 0.48371 0.92943 -0.21285
 N396 N 0.48393 0.95087 -0.22916
 C397 C 0.50457 0.96895 -0.22765
 N398 N 0.52505 0.96481 -0.20946
 C399 C 0.50305 0.90341 -0.17570
 C400 C 0.50212 0.88554 -0.15915
 C401 C 0.50100 0.86498 -0.13870
 N402 N 0.48052 0.86498 -0.12027
 N403 N 0.48007 0.84671 -0.10046
 C404 C 0.50012 0.82778 -0.09831
 N405 N 0.52055 0.82781 -0.11695
 N406 N 0.52100 0.84610 -0.13677
 N407 N 0.97888 0.30530 0.44349
 C408 C 1.00009 0.30635 0.42591
 N409 N 1.02193 0.28989 0.42994
 N410 N 1.02255 0.27297 0.45099
 C411 C 1.00137 0.27200 0.46864
 N412 N 0.97951 0.28840 0.46451
 C413 C 0.99991 0.32562 0.40418
 C414 C 0.99955 0.34241 0.38649
 C415 C 0.99889 0.36306 0.36608
 N416 N 1.01909 0.36489 0.34742
 N417 N 1.01888 0.38471 0.32915
 C418 C 0.99851 0.40344 0.32890
 N419 N 0.97829 0.40140 0.34763
 N420 N 0.97849 0.38160 0.36589
 N421 N 0.52017 0.93110 0.20964
 C422 C 0.49952 0.92748 0.19154
 N423 N 0.47833 0.94517 0.19131
 N424 N 0.47784 0.96591 0.20858
 C425 C 0.49851 0.96959 0.22662
 N426 N 0.51967 0.95184 0.22691
 C427 C 0.50055 0.90585 0.17215
 C428 C 0.50139 0.88807 0.15541
 C429 C 0.50234 0.86739 0.13498
 N430 N 0.48231 0.84871 0.13328
 N431 N 0.48274 0.83011 0.11368
 C432 C 0.50317 0.82951 0.09506
 N433 N 0.52324 0.84825 0.09696
 N434 N 0.52283 0.86686 0.11654
 N435 N -0.02056 0.30663 0.55344
 C436 C 0.00048 0.30729 0.57145
 N437 N 0.02188 0.29019 0.56799
 N438 N 0.02227 0.27302 0.54710
 C439 C 0.00128 0.27244 0.52902
 N440 N -0.02016 0.28947 0.53256
 C441 C 0.00069 0.32677 0.59306
 C442 C 0.00096 0.34364 0.61075
 C443 C 0.00137 0.36425 0.63127
 N444 N 0.02159 0.38278 0.63167
 N445 N 0.02155 0.40249 0.65011
 C446 C 0.00128 0.40443 0.66882
 N447 N -0.01889 0.38571 0.66837
 N448 N -0.01887 0.36599 0.64991
 N449 N 0.50131 0.07551 0.78240
 C450 C 0.50072 0.07142 0.80968
 N451 N 0.50086 0.04585 0.81933
 N452 N 0.50160 0.02499 0.80226
 C453 C 0.50225 0.02901 0.77499
 N454 N 0.50204 0.05461 0.76530
 C455 C 0.50046 0.09372 0.82833
 C456 C 0.50049 0.11180 0.84474
 C457 C 0.50080 0.13257 0.86510
 N458 N 0.52095 0.13310 0.88406
 N459 N 0.52076 0.15161 0.90373
 C460 C 0.50039 0.17025 0.90521
 N461 N 0.48028 0.16968 0.88605
 N462 N 0.48046 0.15115 0.86637
 N463 N 0.97775 0.69343 0.44488
 C464 C 0.99879 0.69295 0.42705
 N465 N 1.01986 0.71023 0.43068
 N466 N 1.01991 0.72740 0.45158
 C467 C 0.99892 0.72783 0.46948
 N468 N 0.97782 0.71060 0.46576
 C469 C 0.99934 0.67346 0.40544
 C470 C 0.99988 0.65659 0.38776
 C471 C 1.00058 0.63595 0.36726
 N472 N 1.02100 0.61743 0.36714
 N473 N 1.02124 0.59768 0.34873
 C474 C 1.00105 0.59570 0.32978
 N475 N 0.98067 0.61441 0.32996
 N476 N 0.98042 0.63417 0.34838
 N477 N 1.19328 0.52297 0.05556
 C478 C 1.19403 0.50210 0.07332
 N479 N 1.21229 0.48183 0.06935
 N480 N 1.22920 0.48239 0.04817
 C481 C 1.22834 0.50322 0.03033
 N482 N 1.21017 0.52352 0.03441
 C483 C 1.17479 0.50092 0.09522
 C484 C 1.15802 0.50002 0.11307
 C485 C 1.13741 0.49906 0.13370
 N486 N 1.11883 0.47892 0.13371
 N487 N 1.09895 0.47859 0.15211
 C488 C 1.09687 0.49839 0.17116
 N489 N 1.11566 0.51848 0.17111
 N490 N 1.13554 0.51882 0.15270
 N491 N 0.55979 0.02472 0.69756
 C492 C 0.57802 0.00409 0.69667
 N493 N 0.57438 -0.01752 0.71311
 N494 N 0.55305 -0.01850 0.72983
 C495 C 0.53472 0.00208 0.73059
 N496 N 0.53848 0.02373 0.71425
 C497 C 0.59987 0.00449 0.67734
 C498 C 0.61756 0.00492 0.66038
 C499 C 0.63785 0.00555 0.63943
 N500 N 0.65671 -0.01441 0.63733
 N501 N 0.67474 -0.01435 0.61709
 C502 C 0.67450 0.00563 0.59818
 N503 N 0.65558 0.02563 0.60050
 N504 N 0.63757 0.02558 0.62072
 N505 N -0.21450 0.51599 0.92819
 C506 C -0.19687 0.49521 0.92410
 N507 N -0.19641 0.47447 0.94201
 N508 N -0.21296 0.47454 0.96343
 C509 C -0.23048 0.49537 0.96765
 N510 N -0.23108 0.51606 0.94963
 C511 C -0.17779 0.49576 0.90204
 C512 C -0.16101 0.49596 0.88418
 C513 C -0.14023 0.49589 0.86370
 N514 N -0.12118 0.47600 0.86326
 N515 N -0.10115 0.47638 0.84504
 C516 C -0.09938 0.49668 0.82660
 N517 N -0.11863 0.51652 0.82708
 N518 N -0.13868 0.51616 0.84532
 N519 N 0.44392 -0.02376 0.30581
 C520 C 0.42586 -0.00298 0.30671
 N521 N 0.42922 0.01823 0.28970
 N522 N 0.45008 0.01867 0.27239
 C523 C 0.46824 -0.00205 0.27157
 N524 N 0.46476 -0.02330 0.28851
 C525 C 0.40439 -0.00277 0.32647
 C526 C 0.38688 -0.00244 0.34362
 C527 C 0.36664 -0.00185 0.36463
 N528 N 0.34770 -0.02158 0.36637
 N529 N 0.32949 -0.02139 0.38645
 C530 C 0.32960 -0.00150 0.40553
 N531 N 0.34862 0.01825 0.40358
 N532 N 0.36681 0.01807 0.38352
 N533 N 0.21058 0.48310 0.93061
 C534 C 0.19260 0.50370 0.92712
 N535 N 0.19244 0.52433 0.94526
 N536 N 0.20967 0.52433 0.96630
 C537 C 0.22759 0.50371 0.96988
 N538 N 0.22783 0.48311 0.95167
 C539 C 0.17315 0.50327 0.90521
 C540 C 0.15623 0.50316 0.88733
 C541 C 0.13544 0.50334 0.86666
 N542 N 0.11633 0.52317 0.86625
 N543 N 0.09646 0.52299 0.84768
 C544 C 0.09492 0.50296 0.82884
 N545 N 0.11422 0.48315 0.82930
 N546 N 0.13411 0.48332 0.84789
 N547 N 0.56771 0.01939 0.28897
 C548 C 0.57169 -0.00149 0.30634
 N549 N 0.55395 -0.02236 0.30600
 N550 N 0.53280 -0.02232 0.28887
 C551 C 0.52873 -0.00142 0.27155
 N552 N 0.54654 0.01942 0.27182
 C553 C 0.59364 -0.00104 0.32576
 C554 C 0.61156 -0.00085 0.34264
 C555 C 0.63228 -0.00084 0.36337
 N556 N 0.63292 -0.02056 0.38239
 N557 N 0.65155 -0.02019 0.40221
 C558 C 0.67021 -0.00006 0.40377
 N559 N 0.66951 0.01963 0.38456
 N560 N 0.65087 0.01926 0.36473
 N561 N 0.77858 0.49844 0.07524
 C562 C 0.80598 0.49867 0.07137
 N563 N 0.81585 0.49812 0.04566
 N564 N 0.79888 0.49735 0.02445
 C565 C 0.77149 0.49708 0.02824
 N566 N 0.76157 0.49766 0.05398
 C567 C 0.82454 0.49955 0.09402
 C568 C 0.84098 0.50032 0.11233
 C569 C 0.86143 0.50125 0.13330
 N570 N 0.87986 0.52151 0.13380
 N571 N 0.89978 0.52174 0.15233
 C572 C 0.90205 0.50168 0.17102
 N573 N 0.88341 0.48148 0.17050
 N574 N 0.86348 0.48124 0.15195
 N575 N 0.45625 0.00019 0.68466
 C576 C 0.43053 -0.00087 0.69462
 N577 N 0.42681 -0.00150 0.72196
 N578 N 0.44823 -0.00111 0.73881
 C579 C 0.47398 -0.00008 0.72880
 N580 N 0.47762 0.00058 0.70148
 C581 C 0.40773 -0.00163 0.67624
 C582 C 0.38925 -0.00238 0.65998
 C583 C 0.36807 -0.00337 0.63976
 N584 N 0.34943 0.01681 0.63771
 N585 N 0.33066 0.01648 0.61800
 C586 C 0.32990 -0.00401 0.59958
 N587 N 0.34859 -0.02423 0.60186
 N588 N 0.36734 -0.02391 0.62155
   
