data_POSCAR
  _audit_creation_date              2014-09-24
  _audit_creation_method            'ToBaCCo'
  _symmetry_space_group_name_H-M    'P1'
  _symmetry_Int_Tables_number       1
  _symmetry_cell_setting            triclinic
  loop_
  _symmetry_equiv_pos_as_xyz
 x,y,z
_cell_length_a 51.2603
_cell_length_b 50.8000
_cell_length_c 55.0868
_cell_angle_alpha 90.058400
_cell_angle_beta 89.934300
_cell_angle_gamma 121.471600
loop_
  _atom_site_label
  _atom_site_type_symbol
  _atom_site_fract_x
  _atom_site_fract_y
  _atom_site_fract_z
C1 C -0.02812 0.49349 1.20061
 C2 C -0.00018 0.50686 1.18804
 C3 C 0.02721 0.51514 1.19976
 C4 C 0.02736 0.51089 1.22510
 C5 C -0.00013 0.49919 1.23855
 C6 C -0.02786 0.49079 1.22636
 C7 C -0.05392 0.48254 1.24045
 C8 C -0.05362 0.47980 1.26552
 C9 C -0.02721 0.48523 1.27784
 C10 C 0.00027 0.49663 1.26433
 C11 C 0.05441 0.51862 1.23739
 C12 C 0.05471 0.51563 1.26244
 C13 C 0.02829 0.50613 1.27650
 C14 C 0.02883 0.50452 1.30227
 C15 C 0.00114 0.49189 1.31506
 C16 C -0.02688 0.48207 1.30349
 H17 H -0.07468 0.47911 1.23236
 H18 H -0.07422 0.47437 1.27514
 H19 H 0.07578 0.52718 1.22780
 H20 H 0.07604 0.52073 1.27057
 H21 H 0.00020 0.50917 1.16845
 H22 H 0.00146 0.49014 1.33467
 C23 C 0.49501 0.52240 1.30144
 C24 C 0.51132 0.51141 1.31359
 C25 C 0.52518 0.49764 1.30120
 C26 C 0.52380 0.49642 1.27534
 C27 C 0.50721 0.50755 1.26280
 C28 C 0.49254 0.52028 1.27592
 C29 C 0.47553 0.53031 1.26321
 C30 C 0.47373 0.52883 1.23802
 C31 C 0.48899 0.51740 1.22453
 C32 C 0.50554 0.50627 1.23701
 C33 C 0.54023 0.48644 1.26155
 C34 C 0.53837 0.48495 1.23635
 C35 C 0.52067 0.49416 1.22373
 C36 C 0.51853 0.49256 1.19809
 C37 C 0.50230 0.50381 1.18609
 C38 C 0.48784 0.51646 1.19886
 H39 H 0.46335 0.53938 1.27263
 H40 H 0.46014 0.53670 1.22925
 H41 H 0.55538 0.48035 1.27000
 H42 H 0.55147 0.47701 1.22682
 H43 H 0.51185 0.51232 1.33328
 H44 H 0.50108 0.50290 1.16642
 C45 C 0.47441 0.96972 1.29998
 C46 C 0.48560 0.99730 1.31276
 C47 C 0.49781 1.02583 1.30088
 C48 C 0.49723 1.02622 1.27502
 C49 C 0.48637 0.99835 1.26181
 C50 C 0.47511 0.97005 1.27436
 C51 C 0.46496 0.94282 1.26100
 C52 C 0.46471 0.94309 1.23578
 C53 C 0.47467 0.97063 1.22293
 C54 C 0.48619 0.99864 1.23597
 C55 C 0.50470 1.05311 1.26202
 C56 C 0.50459 1.05340 1.23680
 C57 C 0.49695 1.02682 1.22327
 C58 C 0.49730 1.02703 1.19739
 C59 C 0.48474 0.99875 1.18504
 C60 C 0.47353 0.97086 1.19734
 H61 H 0.45703 0.92093 1.26991
 H62 H 0.45658 0.92141 1.22646
 H63 H 0.50980 1.07410 1.27118
 H64 H 0.50961 1.07460 1.22807
 H65 H 0.48587 0.99646 1.33243
 H66 H 0.48478 0.99833 1.16535
 C67 C 1.02677 0.49872 0.80025
 C68 C 0.99883 0.48661 0.81264
 C69 C 0.97123 0.47570 0.80039
 C70 C 0.97091 0.47655 0.77480
 C71 C 0.99860 0.48775 0.76172
 C72 C 1.02651 0.49837 0.77438
 C73 C 1.05276 0.50579 0.76081
 C74 C 1.05240 0.50581 0.73558
 C75 C 1.02577 0.49839 0.72262
 C76 C 0.99822 0.48772 0.73587
 C77 C 0.94362 0.46658 0.76198
 C78 C 0.94325 0.46649 0.73676
 C79 C 0.97016 0.47640 0.72337
 C80 C 0.96972 0.47538 0.69776
 C81 C 0.99700 0.48647 0.68493
 C82 C 1.02531 0.49881 0.69676
 H83 H 1.07373 0.51070 0.76950
 H84 H 1.07312 0.51074 0.72640
 H85 H 0.92220 0.45866 0.77134
 H86 H 0.92156 0.45850 0.72787
 H87 H 0.99849 0.48675 0.83234
 H88 H 0.99609 0.48656 0.66526
 C89 C 0.52079 0.49331 0.69836
 C90 C 0.50731 0.50744 0.68631
 C91 C 0.49285 0.52012 0.69907
 C92 C 0.49225 0.51924 0.72476
 C93 C 0.50610 0.50523 0.73725
 C94 C 0.52040 0.49218 0.72401
 C95 C 0.53461 0.47907 0.73676
 C96 C 0.53472 0.47867 0.76201
 C97 C 0.52059 0.49133 0.77551
 C98 C 0.50615 0.50475 0.76304
 C99 C 0.47898 0.53277 0.73828
 C100 C 0.47897 0.53225 0.76355
 C101 C 0.49227 0.51821 0.77631
 C102 C 0.49288 0.51806 0.80200
 C103 C 0.50757 0.50512 0.81400
 C104 C 0.52120 0.49164 0.80118
 H105 H 0.54618 0.46934 0.72733
 H106 H 0.54636 0.46864 0.77084
 H107 H 0.46882 0.54431 0.72948
 H108 H 0.46883 0.54344 0.77297
 H109 H 0.50768 0.50814 0.66662
 H110 H 0.50806 0.50516 0.83369
 C111 C 0.49382 -0.02824 0.80178
 C112 C 0.51114 0.00029 0.81369
 C113 C 0.52199 0.02828 0.80159
 C114 C 0.51740 0.02834 0.77630
 C115 C 0.50122 -0.00005 0.76351
 C116 C 0.48914 -0.02843 0.77623
 C117 C 0.47416 -0.05605 0.76280
 C118 C 0.46952 -0.05603 0.73796
 C119 C 0.48168 -0.02830 0.72483
 C120 C 0.49727 0.00000 0.73789
 C121 C 0.52912 0.05614 0.76342
 C122 C 0.52460 0.05617 0.73856
 C123 C 0.50886 0.02842 0.72543
 C124 C 0.50406 0.02841 0.70019
 C125 C 0.48774 0.00044 0.68772
 C126 C 0.47737 -0.02803 0.69926
 H127 H 0.46600 -0.07823 0.77118
 H128 H 0.45589 -0.07826 0.72932
 H129 H 0.54209 0.07828 0.77240
 H130 H 0.53356 0.07829 0.72975
 H131 H 0.51428 0.00083 0.83320
 H132 H 0.48525 0.00118 0.66822
 O133 O 0.37899 0.65518 0.98088
 O134 O 0.37845 0.70535 0.97175
 C135 C 0.36440 0.71892 0.96621
 O136 O 0.34028 0.71376 0.97711
 O137 O 0.29030 0.66075 0.96906
 C138 C 0.27594 0.63189 0.96537
 O139 O 0.27984 0.61358 0.97838
 O140 O 0.33186 0.61643 0.97221
 C141 C 0.36052 0.63142 0.96857
 O142 O 0.37571 0.66427 1.02880
 O143 O 0.37744 0.71554 1.01961
 C144 C 0.35801 0.71964 1.03059
 O145 O 0.32978 0.70476 1.02530
 O146 O 0.27855 0.65290 1.01722
 C147 C 0.27390 0.63004 1.03009
 O148 O 0.28824 0.61617 1.02675
 O149 O 0.33875 0.61601 1.02064
 C150 C 0.36152 0.63557 1.03316
 Cr151 Cr 0.37596 0.68418 1.00021
 Cr152 Cr 0.31056 0.68223 0.99723
 Cr153 Cr 0.31051 0.61725 0.99947
 O154 O 0.33237 0.66126 0.99895
 O155 O 0.62361 0.34465 0.97782
 O156 O 0.62390 0.29372 0.97224
 C157 C 0.63759 0.27910 0.96954
 O158 O 0.65966 0.28359 0.98306
 O159 O 0.71138 0.33531 0.97600
 C160 C 0.72622 0.36378 0.97069
 O161 O 0.72200 0.38345 0.98143
 O162 O 0.67176 0.38231 0.97118
 C163 C 0.64356 0.36800 0.96595
 O164 O 0.62200 0.33718 1.02635
 O165 O 0.61929 0.28470 1.02061
 C166 C 0.63682 0.28051 1.03420
 O167 O 0.66556 0.29497 1.03128
 O168 O 0.71853 0.34530 1.02434
 C169 C 0.72342 0.36960 1.03514
 O170 O 0.71036 0.38399 1.02910
 O171 O 0.66108 0.38482 1.01886
 C172 C 0.63692 0.36600 1.03047
 Cr173 Cr 0.62389 0.31592 0.99933
 Cr174 Cr 0.68800 0.31566 1.00357
 Cr175 Cr 0.69040 0.38192 1.00018
 O176 O 0.66747 0.33787 1.00104
 O177 O 0.66873 0.38112 0.52732
 O178 O 0.71846 0.38030 0.51924
 C179 C 0.72153 0.36050 0.53089
 O180 O 0.70598 0.33188 0.52614
 O181 O 0.65360 0.28104 0.51879
 C182 C 0.63088 0.27747 0.53101
 O183 O 0.61804 0.29260 0.52676
 O184 O 0.62042 0.34460 0.51956
 C185 C 0.64033 0.36766 0.53174
 O186 O 0.66053 0.38331 0.47923
 O187 O 0.70905 0.38011 0.47119
 C188 C 0.72147 0.36472 0.46628
 O189 O 0.71529 0.34040 0.47774
 O190 O 0.66191 0.29086 0.47040
 C191 C 0.63345 0.27743 0.46632
 O192 O 0.61577 0.28287 0.47860
 O193 O 0.62095 0.33621 0.47121
 C194 C 0.63672 0.36498 0.46708
 Cr195 Cr 0.68824 0.37948 0.49922
 Cr196 Cr 0.68344 0.31195 0.49829
 Cr197 Cr 0.62050 0.31489 0.49901
 O198 O 0.66409 0.33544 0.49884
 O199 O 0.33391 0.61972 0.52915
 O200 O 0.28142 0.61480 0.52050
 C201 C 0.27601 0.63298 0.53228
 O202 O 0.28964 0.66167 0.52789
 O203 O 0.33914 0.71533 0.52008
 C204 C 0.36260 0.72139 0.53241
 O205 O 0.37759 0.70831 0.52854
 O206 O 0.38088 0.65925 0.52135
 C207 C 0.36236 0.63544 0.53356
 O208 O 0.34338 0.61851 0.48110
 O209 O 0.29205 0.61614 0.47256
 C210 C 0.27722 0.62912 0.46771
 O211 O 0.28059 0.65221 0.47955
 O212 O 0.33128 0.70452 0.47191
 C213 C 0.35978 0.72031 0.46774
 O214 O 0.37911 0.71760 0.48022
 O215 O 0.37975 0.66711 0.47302
 C216 C 0.36641 0.63837 0.46892
 Cr217 Cr 0.31349 0.61899 0.50082
 Cr218 Cr 0.31104 0.68267 0.49990
 Cr219 Cr 0.37765 0.68713 0.50078
 O220 O 0.33405 0.66293 0.50050
 C221 C 0.45278 0.55854 0.34693
 C222 C 0.44163 0.52669 0.34630
 C223 C 0.45517 0.51502 0.33125
 C224 C 0.47990 0.53488 0.31636
 C225 C 0.49097 0.56661 0.31664
 C226 C 0.47751 0.57838 0.33181
 C227 C 0.43907 0.57088 0.36372
 N228 N 0.45144 0.60177 0.36639
 N229 N 0.43955 0.61269 0.38208
 C230 C 0.41478 0.59317 0.39575
 N231 N 0.40234 0.56231 0.39294
 N232 N 0.41423 0.55141 0.37730
 C233 C 0.40194 0.60509 0.41379
 C234 C 0.37587 0.58449 0.42732
 C235 C 0.36425 0.59538 0.44495
 C236 C 0.37839 0.62717 0.44958
 C237 C 0.40422 0.64787 0.43583
 C238 C 0.41586 0.63694 0.41812
 H239 H 0.42270 0.51074 0.35771
 H240 H 0.44651 0.49048 0.33130
 H241 H 0.51023 0.58224 0.30535
 H242 H 0.48666 0.60300 0.33182
 H243 H 0.36448 0.55982 0.42445
 H244 H 0.34426 0.57875 0.45512
 H245 H 0.41563 0.67251 0.43888
 H246 H 0.43596 0.65346 0.40802
 C247 C 0.43957 0.88857 0.34423
 C248 C 0.47110 0.91073 0.34357
 C249 C 0.48241 0.93679 0.32882
 C250 C 0.46251 0.94105 0.31428
 C251 C 0.43113 0.91887 0.31455
 C252 C 0.41973 0.89281 0.32938
 C253 C 0.42747 0.86185 0.36095
 N254 N 0.39687 0.84200 0.36355
 N255 N 0.38606 0.81875 0.37933
 C256 C 0.40540 0.81434 0.39315
 N257 N 0.43599 0.83404 0.39038
 N258 N 0.44678 0.85729 0.37464
 C259 C 0.39350 0.78929 0.41144
 C260 C 0.41376 0.78473 0.42538
 C261 C 0.40277 0.76209 0.44339
 C262 C 0.37121 0.74345 0.44795
 C263 C 0.35088 0.74761 0.43373
 C264 C 0.36190 0.77026 0.41567
 H265 H 0.48704 0.90827 0.35478
 H266 H 0.50669 0.95385 0.32890
 H267 H 0.41546 0.92203 0.30356
 H268 H 0.39535 0.87622 0.32943
 H269 H 0.43824 0.79887 0.42258
 H270 H 0.41909 0.75946 0.45392
 H271 H 0.32642 0.73358 0.43670
 H272 H 0.34563 0.77311 0.40525
 C273 C 0.10870 0.54087 0.34584
 C274 C 0.08379 0.51081 0.34969
 C275 C 0.05767 0.49879 0.33518
 C276 C 0.05609 0.51616 0.31594
 C277 C 0.08123 0.54624 0.31204
 C278 C 0.10716 0.55844 0.32684
 C279 C 0.13561 0.55412 0.36215
 N280 N 0.15501 0.58516 0.36377
 N281 N 0.17841 0.59712 0.37925
 C282 C 0.18352 0.57856 0.39363
 N283 N 0.16433 0.54752 0.39181
 N284 N 0.14082 0.53556 0.37644
 C285 C 0.20869 0.59189 0.41163
 C286 C 0.21898 0.57369 0.42210
 C287 C 0.24181 0.58597 0.43989
 C288 C 0.25443 0.61655 0.44786
 C289 C 0.24441 0.63485 0.43717
 C290 C 0.22197 0.62274 0.41913
 H291 H 0.08415 0.49675 0.36428
 H292 H 0.03882 0.47558 0.33879
 H293 H 0.08038 0.56083 0.29812
 H294 H 0.12591 0.58178 0.32352
 H295 H 0.20930 0.54988 0.41662
 H296 H 0.24904 0.57130 0.44782
 H297 H 0.25386 0.65857 0.44283
 H298 H 0.21451 0.63735 0.41147
 C299 C 0.56301 0.45783 0.34600
 C300 C 0.54434 0.44128 0.32618
 C301 C 0.53243 0.45457 0.31101
 C302 C 0.53889 0.48477 0.31530
 C303 C 0.55739 0.50107 0.33533
 C304 C 0.56955 0.48795 0.35027
 C305 C 0.57507 0.44372 0.36260
 N306 N 0.59677 0.46133 0.37927
 N307 N 0.60708 0.44873 0.39474
 C308 C 0.59608 0.41795 0.39430
 N309 N 0.57444 0.40029 0.37755
 N310 N 0.56419 0.41294 0.36199
 C311 C 0.60704 0.40405 0.41215
 C312 C 0.59229 0.37184 0.41482
 C313 C 0.60200 0.35903 0.43250
 C314 C 0.62679 0.37816 0.44777
 C315 C 0.64185 0.41032 0.44473
 C316 C 0.63206 0.42308 0.42721
 H317 H 0.53865 0.41792 0.32251
 H318 H 0.51715 0.44071 0.29649
 H319 H 0.56298 0.52436 0.33925
 H320 H 0.58373 0.50133 0.36543
 H321 H 0.57292 0.35652 0.40351
 H322 H 0.58996 0.33417 0.43430
 H323 H 0.66106 0.42578 0.45612
 H324 H 0.64406 0.44797 0.42560
 C325 C 0.53835 0.10527 0.34610
 C326 C 0.50941 0.07961 0.35158
 C327 C 0.49606 0.05365 0.33660
 C328 C 0.51092 0.05285 0.31534
 C329 C 0.53998 0.07864 0.30990
 C330 C 0.55352 0.10451 0.32510
 C331 C 0.55268 0.13230 0.36256
 N332 N 0.58295 0.15407 0.36090
 N333 N 0.59586 0.17782 0.37628
 C334 C 0.57898 0.18083 0.39388
 N335 N 0.54870 0.15918 0.39538
 N336 N 0.53585 0.13541 0.38009
 C337 C 0.59323 0.20662 0.41152
 C338 C 0.57478 0.21210 0.42702
 C339 C 0.58791 0.23542 0.44444
 C340 C 0.61986 0.25376 0.44695
 C341 C 0.63839 0.24865 0.43121
 C342 C 0.62521 0.22539 0.41360
 H343 H 0.49714 0.07935 0.36768
 H344 H 0.47365 0.03438 0.34142
 H345 H 0.55278 0.07841 0.29432
 H346 H 0.57597 0.12383 0.32048
 H347 H 0.55008 0.19821 0.42583
 H348 H 0.57293 0.23872 0.45623
 H349 H 0.66308 0.26245 0.43260
 H350 H 0.64007 0.22175 0.40194
 C351 C 0.89433 0.44569 0.34847
 C352 C 0.92111 0.47367 0.35429
 C353 C 0.94701 0.48540 0.33957
 C354 C 0.94658 0.46997 0.31817
 C355 C 0.91975 0.44173 0.31250
 C356 C 0.89398 0.42968 0.32754
 C357 C 0.86713 0.43334 0.36440
 N358 N 0.84536 0.40279 0.36444
 N359 N 0.82140 0.39171 0.37936
 C360 C 0.81811 0.41077 0.39468
 N361 N 0.83974 0.44134 0.39445
 N362 N 0.86378 0.45237 0.37969
 C363 C 0.79210 0.39850 0.41187
 C364 C 0.78380 0.41827 0.42249
 C365 C 0.76027 0.40710 0.43964
 C366 C 0.74486 0.37601 0.44686
 C367 C 0.75284 0.35612 0.43599
 C368 C 0.77604 0.36719 0.41852
 H369 H 0.92220 0.48641 0.37042
 H370 H 0.96716 0.50718 0.34457
 H371 H 0.91895 0.42858 0.29672
 H372 H 0.87372 0.40792 0.32270
 H373 H 0.79563 0.44248 0.41763
 H374 H 0.75469 0.42300 0.44772
 H375 H 0.74125 0.33200 0.44109
 H376 H 0.78194 0.35140 0.41071
 C377 C 0.55796 0.45403 1.15197
 C378 C 0.53476 0.43521 1.16862
 C379 C 0.52238 0.44784 1.18402
 C380 C 0.53297 0.47945 1.18305
 C381 C 0.55620 0.49833 1.16663
 C382 C 0.56871 0.48580 1.15133
 C383 C 0.57039 0.44064 1.13494
 N384 N 0.59425 0.45918 1.12015
 N385 N 0.60499 0.44726 1.10437
 C386 C 0.59230 0.41624 1.10262
 N387 N 0.56849 0.39765 1.11747
 N388 N 0.55778 0.40960 1.13331
 C389 C 0.60394 0.40311 1.08458
 C390 C 0.58916 0.37104 1.08099
 C391 C 0.59985 0.35890 1.06350
 C392 C 0.62561 0.37857 1.04927
 C393 C 0.64053 0.41060 1.05307
 C394 C 0.62981 0.42270 1.07046
 H395 H 0.52596 0.41068 1.16961
 H396 H 0.50421 0.43291 1.19645
 H397 H 0.56448 0.52275 1.16556
 H398 H 0.58647 0.50097 1.13872
 H399 H 0.56917 0.35528 1.09154
 H400 H 0.58787 0.33411 1.06109
 H401 H 0.66046 0.42646 1.04249
 H402 H 0.64182 0.44750 1.07276
 C403 C 0.89208 0.45755 1.15691
 C404 C 0.89326 0.44018 1.17623
 C405 C 0.91917 0.45229 1.19104
 C406 C 0.94469 0.48207 1.18684
 C407 C 0.94343 0.49926 1.16729
 C408 C 0.91733 0.48733 1.15276
 C409 C 0.86515 0.44436 1.14061
 N410 N 0.86050 0.46289 1.12580
 N411 N 0.83692 0.45095 1.11050
 C412 C 0.81711 0.41996 1.10925
 N413 N 0.82168 0.40143 1.12414
 N414 N 0.84515 0.41339 1.13956
 C415 C 0.79182 0.40663 1.09135
 C416 C 0.77747 0.37540 1.08466
 C417 C 0.75498 0.36328 1.06664
 C418 C 0.74601 0.38202 1.05515
 C419 C 0.75969 0.41301 1.06236
 C420 C 0.78252 0.42525 1.08014
 H421 H 0.87425 0.41706 1.17979
 H422 H 0.91968 0.43777 1.20518
 H423 H 0.96248 0.52228 1.16347
 H424 H 0.91723 0.50126 1.13794
 H425 H 0.78414 0.36045 1.09292
 H426 H 0.74474 0.33926 1.06157
 H427 H 0.75332 0.42805 1.05382
 H428 H 0.79301 0.44936 1.08498
 C429 C 0.53868 0.10756 1.15341
 C430 C 0.50961 0.08224 1.14771
 C431 C 0.49596 0.05595 1.16231
 C432 C 0.51065 0.05443 1.18339
 C433 C 0.53982 0.07990 1.18906
 C434 C 0.55365 0.10612 1.17425
 C435 C 0.55340 0.13490 1.13728
 N436 N 0.58367 0.15654 1.13930
 N437 N 0.59696 0.18051 1.12416
 C438 C 0.58048 0.18389 1.10645
 N439 N 0.55020 0.16238 1.10461
 N440 N 0.53696 0.13839 1.11966
 C441 C 0.59519 0.20984 1.08899
 C442 C 0.57715 0.21517 1.07293
 C443 C 0.59073 0.23849 1.05555
 C444 C 0.62274 0.25702 1.05366
 C445 C 0.64086 0.25215 1.07002
 C446 C 0.62721 0.22886 1.08756
 H447 H 0.49747 0.08250 1.13173
 H448 H 0.47347 0.03696 1.15733
 H449 H 0.55251 0.07914 1.20448
 H450 H 0.57619 0.12514 1.17903
 H451 H 0.55243 0.20111 1.07361
 H452 H 0.57605 0.24161 1.04331
 H453 H 0.66558 0.26609 1.06910
 H454 H 0.64177 0.22536 1.09966
 C455 C 0.44473 0.55305 1.15502
 C456 C 0.43312 0.52110 1.15568
 C457 C 0.44688 0.50921 1.17023
 C458 C 0.47226 0.52896 1.18458
 C459 C 0.48378 0.56078 1.18422
 C460 C 0.47012 0.57274 1.16960
 C461 C 0.43099 0.56572 1.13867
 N462 N 0.44391 0.59668 1.13597
 N463 N 0.43214 0.60797 1.12056
 C464 C 0.40692 0.58877 1.10723
 N465 N 0.39388 0.55784 1.11010
 N466 N 0.40566 0.54656 1.12546
 C467 C 0.39446 0.60114 1.08930
 C468 C 0.36804 0.58097 1.07597
 C469 C 0.35710 0.59226 1.05813
 C470 C 0.37230 0.62404 1.05312
 C471 C 0.39832 0.64435 1.06682
 C472 C 0.40928 0.63302 1.08473
 H473 H 0.41369 0.50525 1.14466
 H474 H 0.43787 0.48460 1.17019
 H475 H 0.50360 0.57636 1.19502
 H476 H 0.47966 0.59744 1.16953
 H477 H 0.35595 0.55630 1.07906
 H478 H 0.33692 0.57594 1.04802
 H479 H 0.41054 0.66896 1.06347
 H480 H 0.42965 0.64923 1.09469
 C481 C 0.10614 0.55186 1.15328
 C482 C 0.09195 0.56874 1.15801
 C483 C 0.06667 0.55695 1.17345
 C484 C 0.05517 0.52819 1.18463
 C485 C 0.06925 0.51127 1.18013
 C486 C 0.09460 0.52305 1.16467
 C487 C 0.13225 0.56399 1.13610
 N488 N 0.14608 0.54790 1.13120
 N489 N 0.16900 0.55855 1.11527
 C490 C 0.17905 0.58573 1.10355
 N491 N 0.16530 0.60185 1.10856
 N492 N 0.14243 0.59123 1.12448
 C493 C 0.20398 0.59735 1.08529
 C494 C 0.21278 0.62455 1.07230
 C495 C 0.23557 0.63518 1.05458
 C496 C 0.25026 0.61894 1.04939
 C497 C 0.24180 0.59194 1.06260
 C498 C 0.21887 0.58124 1.08032
 H499 H 0.10014 0.59095 1.14957
 H500 H 0.05587 0.57015 1.17658
 H501 H 0.06037 0.48882 1.18839
 H502 H 0.10488 0.50939 1.16140
 H503 H 0.20188 0.63761 1.07563
 H504 H 0.24157 0.65613 1.04486
 H505 H 0.25266 0.57889 1.05908
 H506 H 0.21272 0.56023 1.09001
 C507 C 0.43775 0.89021 1.15231
 C508 C 0.46935 0.91211 1.15294
 C509 C 0.48095 0.93808 1.16786
 C510 C 0.46126 0.94248 1.18260
 C511 C 0.42980 0.92061 1.18231
 C512 C 0.41811 0.89466 1.16728
 C513 C 0.42543 0.86341 1.13564
 N514 N 0.39480 0.84417 1.13262
 N515 N 0.38387 0.82072 1.11699
 C516 C 0.40312 0.81550 1.10377
 N517 N 0.43372 0.83462 1.10694
 N518 N 0.44464 0.85807 1.12251
 C519 C 0.39118 0.79008 1.08578
 C520 C 0.41138 0.78414 1.07310
 C521 C 0.40051 0.76106 1.05546
 C522 C 0.36914 0.74333 1.04998
 C523 C 0.34882 0.74892 1.06289
 C524 C 0.35973 0.77202 1.08062
 H525 H 0.48514 0.90949 1.14163
 H526 H 0.50529 0.95490 1.16781
 H527 H 0.41431 0.92388 1.19348
 H528 H 0.39369 0.87826 1.16726
 H529 H 0.43573 0.79750 1.07664
 H530 H 0.41682 0.75736 1.04594
 H531 H 0.32451 0.73562 1.05917
 H532 H 0.34353 0.77596 1.09005
 C533 C 0.56065 0.45430 0.65335
 C534 C 0.53352 0.43507 0.66635
 C535 C 0.52081 0.44777 0.68128
 C536 C 0.53494 0.47986 0.68342
 C537 C 0.56198 0.49916 0.67059
 C538 C 0.57486 0.48651 0.65579
 C539 C 0.57355 0.44088 0.63685
 N540 N 0.60165 0.45888 0.62672
 N541 N 0.61283 0.44696 0.61132
 C542 C 0.59633 0.41656 0.60532
 N543 N 0.56830 0.39854 0.61554
 N544 N 0.55718 0.41043 0.63101
 C545 C 0.60814 0.40353 0.58738
 C546 C 0.58872 0.37397 0.57759
 C547 C 0.59931 0.36224 0.55976
 C548 C 0.62967 0.37965 0.55144
 C549 C 0.64934 0.40890 0.56165
 C550 C 0.63865 0.42077 0.57934
 H551 H 0.52201 0.41020 0.66492
 H552 H 0.49979 0.43261 0.69100
 H553 H 0.57303 0.52400 0.67199
 H554 H 0.59566 0.50198 0.64597
 H555 H 0.56510 0.36006 0.58335
 H556 H 0.58361 0.33955 0.55238
 H557 H 0.67285 0.42290 0.55563
 H558 H 0.65425 0.44356 0.58659
 C559 C 0.54335 0.10931 0.65508
 C560 C 0.56212 0.10095 0.66719
 C561 C 0.54934 0.07511 0.68233
 C562 C 0.51759 0.05716 0.68570
 C563 C 0.49875 0.06547 0.67386
 C564 C 0.51151 0.09145 0.65880
 C565 C 0.55684 0.13581 0.63804
 N566 N 0.53953 0.14621 0.62827
 N567 N 0.55150 0.16937 0.61235
 C568 C 0.58126 0.18304 0.60545
 N569 N 0.59858 0.17273 0.61531
 N570 N 0.58665 0.14966 0.63128
 C571 C 0.59435 0.20803 0.58706
 C572 C 0.62315 0.21804 0.57672
 C573 C 0.63505 0.24070 0.55869
 C574 C 0.61857 0.25413 0.55068
 C575 C 0.59003 0.24457 0.56133
 C576 C 0.57799 0.22168 0.57924
 H577 H 0.58670 0.11417 0.66477
 H578 H 0.56417 0.06875 0.69112
 H579 H 0.47415 0.05164 0.67609
 H580 H 0.49638 0.09714 0.64969
 H581 H 0.63637 0.20804 0.58229
 H582 H 0.65717 0.24764 0.55097
 H583 H 0.57674 0.25443 0.55557
 H584 H 0.55580 0.21460 0.58688
 C585 C 0.88921 0.43996 0.65359
 C586 C 0.91108 0.47180 0.65426
 C587 C 0.93693 0.48330 0.66899
 C588 C 0.94126 0.46328 0.68351
 C589 C 0.91936 0.43159 0.68325
 C590 C 0.89352 0.42000 0.66842
 C591 C 0.86269 0.42771 0.63691
 N592 N 0.84337 0.39682 0.63395
 N593 N 0.82027 0.38594 0.61822
 C594 C 0.81550 0.40550 0.60482
 N595 N 0.83469 0.43635 0.60795
 N596 N 0.85778 0.44721 0.62363
 C597 C 0.79055 0.39362 0.58664
 C598 C 0.78545 0.41419 0.57346
 C599 C 0.76284 0.40334 0.55563
 C600 C 0.74475 0.37163 0.55045
 C601 C 0.74949 0.35095 0.56387
 C602 C 0.77213 0.36183 0.58179
 H603 H 0.90856 0.48784 0.64306
 H604 H 0.95378 0.50781 0.66889
 H605 H 0.92258 0.41583 0.69424
 H606 H 0.87714 0.39538 0.66837
 H607 H 0.79910 0.43880 0.57675
 H608 H 0.75978 0.41994 0.54573
 H609 H 0.73590 0.32637 0.56040
 H610 H 0.77543 0.34534 0.59161
 C611 C 0.45213 0.55905 0.65503
 C612 C 0.43368 0.53275 0.66934
 C613 C 0.44692 0.52041 0.68406
 C614 C 0.47878 0.53417 0.68476
 C615 C 0.49727 0.56046 0.67068
 C616 C 0.48411 0.57289 0.65605
 C617 C 0.43823 0.57150 0.63859
 N618 N 0.45617 0.59763 0.62563
 N619 N 0.44389 0.60834 0.61023
 C620 C 0.41312 0.59339 0.60708
 N621 N 0.39512 0.56735 0.62016
 N622 N 0.40742 0.55664 0.63560
 C623 C 0.39969 0.60480 0.58917
 C624 C 0.36808 0.58826 0.58445
 C625 C 0.35581 0.59840 0.56668
 C626 C 0.37488 0.62532 0.55325
 C627 C 0.40639 0.64216 0.55836
 C628 C 0.41862 0.63204 0.57606
 H629 H 0.40900 0.52150 0.66900
 H630 H 0.43233 0.49988 0.69465
 H631 H 0.52191 0.57121 0.67090
 H632 H 0.49903 0.59309 0.64525
 H633 H 0.35282 0.56721 0.59423
 H634 H 0.33143 0.58490 0.56326
 H635 H 0.42177 0.66307 0.54845
 H636 H 0.44305 0.64546 0.57925
 C637 C 0.44062 0.89364 0.65281
 C638 C 0.43096 0.91486 0.65101
 C639 C 0.44291 0.94042 0.66641
 C640 C 0.46437 0.94518 0.68449
 C641 C 0.47429 0.92406 0.68605
 C642 C 0.46248 0.89858 0.67049
 C643 C 0.42829 0.86692 0.63601
 N644 N 0.44021 0.84849 0.63533
 N645 N 0.42941 0.82490 0.61984
 C646 C 0.40619 0.81867 0.60443
 N647 N 0.39420 0.83701 0.60522
 N648 N 0.40503 0.86061 0.62065
 C649 C 0.39449 0.79290 0.58674
 C650 C 0.36887 0.78527 0.57233
 C651 C 0.35833 0.76179 0.55503
 C652 C 0.37319 0.74535 0.55159
 C653 C 0.39856 0.75263 0.56624
 C654 C 0.40905 0.77610 0.58365
 H655 H 0.41431 0.91194 0.63751
 H656 H 0.43478 0.95618 0.66451
 H657 H 0.49198 0.92777 0.69880
 H658 H 0.47073 0.88291 0.67218
 H659 H 0.35698 0.79759 0.57426
 H660 H 0.33869 0.75680 0.54413
 H661 H 0.41050 0.74038 0.56412
 H662 H 0.42884 0.78135 0.59445
 C663 C 0.10399 0.53923 0.65145
 C664 C 0.07845 0.51008 0.64602
 C665 C 0.05273 0.49677 0.66102
 C666 C 0.05205 0.51189 0.68225
 C667 C 0.07771 0.54118 0.68762
 C668 C 0.10333 0.55468 0.67239
 C669 C 0.13081 0.55345 0.63502
 N670 N 0.15255 0.58395 0.63661
 N671 N 0.17619 0.59673 0.62130
 C672 C 0.17912 0.57948 0.60388
 N673 N 0.15748 0.54897 0.60244
 N674 N 0.13382 0.53625 0.61764
 C675 C 0.20487 0.59352 0.58640
 C676 C 0.21031 0.57459 0.57128
 C677 C 0.23371 0.58749 0.55407
 C678 C 0.25216 0.61968 0.55139
 C679 C 0.24705 0.63870 0.56672
 C680 C 0.22372 0.62575 0.58412
 H681 H 0.07810 0.49760 0.62996
 H682 H 0.03356 0.47419 0.65625
 H683 H 0.07758 0.55419 0.70316
 H684 H 0.12256 0.57729 0.67698
 H685 H 0.19637 0.54969 0.57263
 H686 H 0.23699 0.57213 0.54261
 H687 H 0.26094 0.66359 0.56516
 H688 H 0.22010 0.64097 0.59548
 C689 C 0.45169 0.55498 0.84790
 C690 C 0.43338 0.52932 0.83295
 C691 C 0.44677 0.51759 0.81769
 C692 C 0.47865 0.53136 0.81708
 C693 C 0.49698 0.55697 0.83187
 C694 C 0.48367 0.56878 0.84705
 C695 C 0.43765 0.56696 0.86471
 N696 N 0.45549 0.59246 0.87837
 N697 N 0.44307 0.60290 0.89393
 C698 C 0.41224 0.58829 0.89654
 N699 N 0.39433 0.56285 0.88281
 N700 N 0.40678 0.55241 0.86721
 C701 C 0.39864 0.59963 0.91439
 C702 C 0.36685 0.58372 0.91831
 C703 C 0.35435 0.59410 0.93573
 C704 C 0.37336 0.62062 0.94960
 C705 C 0.40508 0.63671 0.94542
 C706 C 0.41754 0.62634 0.92807
 H707 H 0.40871 0.51812 0.83316
 H708 H 0.43230 0.49756 0.80656
 H709 H 0.52162 0.56771 0.83172
 H710 H 0.49848 0.58850 0.85833
 H711 H 0.35161 0.56307 0.90808
 H712 H 0.32981 0.58119 0.93845
 H713 H 0.42044 0.65728 0.95569
 H714 H 0.44210 0.63926 0.92553
 C715 C 0.10631 0.53834 0.84444
 C716 C 0.10539 0.55402 0.82377
 C717 C 0.07951 0.54075 0.80884
 C718 C 0.05386 0.51148 0.81426
 C719 C 0.05487 0.49608 0.83516
 C720 C 0.08083 0.50915 0.84984
 C721 C 0.13324 0.55246 0.86073
 N722 N 0.13627 0.53516 0.87797
 N723 N 0.15983 0.54783 0.89323
 C724 C 0.18136 0.57838 0.89200
 N725 N 0.17846 0.59572 0.87468
 N726 N 0.15491 0.58299 0.85932
 C727 C 0.20680 0.59242 0.90975
 C728 C 0.22572 0.62464 0.91199
 C729 C 0.24850 0.63761 0.92981
 C730 C 0.25294 0.61859 0.94565
 C731 C 0.23451 0.58639 0.94294
 C732 C 0.21170 0.57349 0.92528
 H733 H 0.12458 0.57667 0.81921
 H734 H 0.07915 0.55395 0.79356
 H735 H 0.03572 0.47348 0.83994
 H736 H 0.08068 0.49648 0.86569
 H737 H 0.22254 0.63987 0.90030
 H738 H 0.26239 0.66250 0.93136
 H739 H 0.23732 0.57102 0.95476
 H740 H 0.19770 0.54859 0.92398
 C741 C 0.45449 0.89220 0.84686
 C742 C 0.48571 0.91489 0.84860
 C743 C 0.49859 0.94097 0.83372
 C744 C 0.48080 0.94468 0.81615
 C745 C 0.44942 0.92205 0.81465
 C746 C 0.43646 0.89615 0.82978
 C747 C 0.44074 0.86499 0.86316
 N748 N 0.40991 0.84697 0.86580
 N749 N 0.39763 0.82302 0.88096
 C750 C 0.41564 0.81595 0.89402
 N751 N 0.44645 0.83381 0.89121
 N752 N 0.45874 0.85785 0.87615
 C753 C 0.40206 0.78996 0.91151
 C754 C 0.41977 0.77887 0.92145
 C755 C 0.40733 0.75526 0.93875
 C756 C 0.37700 0.74247 0.94672
 C757 C 0.35915 0.75322 0.93650
 C758 C 0.37148 0.77656 0.91899
 H759 H 0.50020 0.91273 0.86173
 H760 H 0.52275 0.95798 0.83558
 H761 H 0.43463 0.92485 0.80227
 H762 H 0.41224 0.87928 0.82816
 H763 H 0.44336 0.78858 0.91598
 H764 H 0.42170 0.74753 0.94629
 H765 H 0.33565 0.74373 0.94215
 H766 H 0.35720 0.78456 0.91172
 C767 C 0.56270 0.45280 0.84427
 C768 C 0.53545 0.43351 0.83145
 C769 C 0.52222 0.44615 0.81709
 C770 C 0.53595 0.47823 0.81535
 C771 C 0.56315 0.49758 0.82795
 C772 C 0.57654 0.48500 0.84218
 C773 C 0.57606 0.43947 0.86034
 N774 N 0.60407 0.45769 0.87053
 N775 N 0.61556 0.44589 0.88571
 C776 C 0.59949 0.41539 0.89140
 N777 N 0.57158 0.39715 0.88107
 N778 N 0.56014 0.40892 0.86584
 C779 C 0.61153 0.40257 0.90929
 C780 C 0.59248 0.37273 0.91872
 C781 C 0.60309 0.36134 0.93677
 C782 C 0.63310 0.37939 0.94568
 C783 C 0.65249 0.40885 0.93572
 C784 C 0.64177 0.42037 0.91780
 H785 H 0.52421 0.40865 0.83263
 H786 H 0.50108 0.43094 0.80755
 H787 H 0.57390 0.52241 0.82685
 H788 H 0.59743 0.50052 0.85187
 H789 H 0.56908 0.35837 0.91258
 H790 H 0.58763 0.33847 0.94395
 H791 H 0.67573 0.42334 0.94219
 H792 H 0.65710 0.44338 0.91083
 C793 C 0.89231 0.44141 0.84636
 C794 C 0.91426 0.47320 0.84526
 C795 C 0.93958 0.48433 0.82994
 C796 C 0.94326 0.46398 0.81525
 C797 C 0.92127 0.43233 0.81593
 C798 C 0.89596 0.42111 0.83136
 C799 C 0.86637 0.42954 0.86363
 N800 N 0.84703 0.39872 0.86692
 N801 N 0.82440 0.38817 0.88309
 C802 C 0.82014 0.40800 0.89663
 N803 N 0.83936 0.43879 0.89320
 N804 N 0.86199 0.44933 0.87708
 C805 C 0.79555 0.39643 0.91513
 C806 C 0.79050 0.41716 0.92818
 C807 C 0.76791 0.40651 0.94606
 C808 C 0.74984 0.37485 0.95142
 C809 C 0.75469 0.35405 0.93824
 C810 C 0.77726 0.36472 0.92027
 H811 H 0.91223 0.48949 0.85658
 H812 H 0.95652 0.50882 0.82970
 H813 H 0.92400 0.41632 0.80483
 H814 H 0.87950 0.39653 0.83173
 H815 H 0.80409 0.44173 0.92468
 H816 H 0.76478 0.42319 0.95581
 H817 H 0.74110 0.32950 0.94184
 H818 H 0.78054 0.34811 0.91058
 C819 C 0.56097 0.10874 0.84743
 C820 C 0.53433 0.09977 0.83389
 C821 C 0.52204 0.07399 0.81866
 C822 C 0.53625 0.05682 0.81648
 C823 C 0.56288 0.06573 0.82982
 C824 C 0.57521 0.09151 0.84507
 C825 C 0.57332 0.13533 0.86438
 N826 N 0.59868 0.14364 0.87783
 N827 N 0.60929 0.16694 0.89355
 C828 C 0.59502 0.18297 0.89654
 N829 N 0.56975 0.17478 0.88301
 N830 N 0.55913 0.15146 0.86727
 C831 C 0.60641 0.20833 0.91461
 C832 C 0.59142 0.22466 0.91810
 C833 C 0.60168 0.24786 0.93571
 C834 C 0.62714 0.25525 0.95027
 C835 C 0.64234 0.23919 0.94653
 C836 C 0.63212 0.21606 0.92894
 H837 H 0.52269 0.11239 0.83530
 H838 H 0.50116 0.06712 0.80879
 H839 H 0.57396 0.05254 0.82855
 H840 H 0.59569 0.09768 0.85525
 H841 H 0.57158 0.21936 0.90736
 H842 H 0.58946 0.25980 0.93807
 H843 H 0.66209 0.24432 0.95734
 H844 H 0.64429 0.20405 0.92675
   
