data_POSCAR
  _audit_creation_date              2014-09-24
  _audit_creation_method            'ToBaCCo'
  _symmetry_space_group_name_H-M    'P1'
  _symmetry_Int_Tables_number       1
  _symmetry_cell_setting            triclinic
  loop_
  _symmetry_equiv_pos_as_xyz
 x,y,z
_cell_length_a 42.3957
_cell_length_b 42.2287
_cell_length_c 42.2307
_cell_angle_alpha 90.142800
_cell_angle_beta 89.941000
_cell_angle_gamma 89.986900
loop_
  _atom_site_label
  _atom_site_type_symbol
  _atom_site_fract_x
  _atom_site_fract_y
  _atom_site_fract_z
C1 C 0.20133 0.52063 1.03898
 H2 H 0.20100 0.53987 1.02212
 C3 C 0.17944 0.51998 1.06365
 H4 H 0.16280 0.53934 1.06576
 C5 C 0.22395 0.47258 1.05652
 H6 H 0.24122 0.45401 1.05355
 C7 C 0.20250 0.47093 1.08160
 H8 H 0.20512 0.45156 1.09801
 N9 N 0.22290 0.49708 1.03577
 C10 C 0.29684 0.53854 0.97727
 H11 H 0.29731 0.52152 0.95808
 C12 C 0.31790 0.56388 0.97737
 H13 H 0.33449 0.56628 0.95800
 C14 C 0.27507 0.55545 1.02610
 H15 H 0.25872 0.55170 1.04537
 C16 C 0.29587 0.58112 1.02726
 H17 H 0.29454 0.59658 1.04754
 Zn18 Zn 0.24972 0.49863 0.99997
 N19 N 0.27584 0.53490 1.00129
 C20 C 0.22339 0.52448 0.94368
 N21 N 0.22328 0.49950 0.96392
 C22 C 0.20267 0.47516 0.96019
 C23 C 0.18140 0.47508 0.93502
 C24 C 0.20239 0.52545 0.91821
 C25 C 0.29778 0.45987 1.02285
 C26 C 0.31935 0.43494 1.02284
 C27 C 0.29793 0.41722 0.97291
 C28 C 0.27663 0.44248 0.97397
 N29 N 0.27680 0.46303 0.99879
 H30 H 0.23928 0.54408 0.94759
 H31 H 0.20262 0.45589 0.97702
 H32 H 0.16507 0.45551 0.93260
 H33 H 0.20303 0.54600 0.90316
 H34 H 0.29784 0.47692 1.04201
 H35 H 0.33589 0.43288 1.04226
 H36 H 0.29705 0.40176 0.95261
 H37 H 0.26038 0.44589 0.95460
 C38 C 0.31787 0.58566 1.00264
 C39 C 0.17879 0.49427 1.08502
 C40 C 0.31983 0.41308 0.99764
 C41 C 0.18089 0.50043 0.91347
 C42 C 0.79705 0.52593 -0.03846
 H43 H 0.79727 0.54521 -0.02155
 C44 C 0.81822 0.52588 -0.06376
 H45 H 0.83464 0.54536 -0.06621
 C46 C 0.77601 0.47671 -0.05505
 H47 H 0.76004 0.45719 -0.05112
 C48 C 0.79689 0.47561 -0.08065
 H49 H 0.79608 0.45505 -0.09578
 N50 N 0.77633 0.50170 -0.03471
 C51 C 0.70287 0.54225 0.02532
 H52 H 0.70297 0.52534 0.04452
 C53 C 0.68145 0.56731 0.02558
 H54 H 0.66513 0.56956 0.04521
 C55 C 0.72336 0.55904 -0.02401
 H56 H 0.73921 0.55527 -0.04369
 C57 C 0.70220 0.58441 -0.02481
 H58 H 0.70265 0.59950 -0.04532
 Zn59 Zn 0.75002 0.50273 0.00150
 N60 N 0.72343 0.53870 0.00089
 C61 C 0.77691 0.52833 0.05783
 N62 N 0.77694 0.50359 0.03718
 C63 C 0.79768 0.47929 0.04031
 C64 C 0.81918 0.47899 0.06526
 C65 C 0.79815 0.52908 0.08312
 C66 C 0.70253 0.46326 -0.02152
 C67 C 0.68138 0.43798 -0.02165
 C68 C 0.70303 0.42066 0.02824
 C69 C 0.72389 0.44626 0.02733
 N70 N 0.72342 0.46679 0.00259
 H71 H 0.76080 0.54784 0.05448
 H72 H 0.79758 0.46017 0.02321
 H73 H 0.83550 0.45937 0.06730
 H74 H 0.79733 0.54927 0.09873
 H75 H 0.70225 0.48027 -0.04063
 H76 H 0.66491 0.43563 -0.04111
 H77 H 0.70413 0.40524 0.04849
 H78 H 0.74007 0.44996 0.04672
 C79 C 0.68073 0.58896 0.00031
 C80 C 0.81850 0.50050 -0.08543
 C81 C 0.68124 0.41613 0.00346
 C82 C 0.81988 0.50415 0.08716
 C83 C -0.02470 0.29736 0.46030
 H84 H -0.04354 0.29798 0.47759
 C85 C -0.02498 0.31835 0.43485
 H86 H -0.04408 0.33529 0.43324
 C87 C 0.02400 0.27588 0.44329
 H88 H 0.04359 0.26003 0.44728
 C89 C 0.02475 0.29647 0.41747
 H90 H 0.04546 0.29612 0.40251
 N91 N -0.00073 0.27634 0.46377
 C92 C -0.04059 0.20140 0.52220
 H93 H -0.02375 0.20123 0.54144
 C94 C -0.06547 0.17981 0.52198
 H95 H -0.06770 0.16314 0.54130
 C96 C -0.05755 0.22294 0.47342
 H97 H -0.05402 0.23940 0.45421
 C98 C -0.08275 0.20164 0.47215
 H99 H -0.09806 0.20273 0.45185
 Zn100 Zn -0.00178 0.24975 0.49975
 N101 N -0.03723 0.22258 0.49829
 C102 C -0.02826 0.27520 0.55633
 N103 N -0.00358 0.27639 0.53579
 C104 C 0.01982 0.29808 0.53935
 C105 C 0.01940 0.31916 0.56483
 C106 C -0.02963 0.29586 0.58218
 C107 C 0.03835 0.20244 0.47716
 C108 C 0.06371 0.18141 0.47743
 C109 C 0.08022 0.20364 0.52746
 C110 C 0.05457 0.22438 0.52613
 N111 N 0.03437 0.22353 0.50116
 H112 H -0.04730 0.25868 0.55240
 H113 H 0.03873 0.29911 0.52216
 H114 H 0.03808 0.33652 0.56695
 H115 H -0.05011 0.29483 0.59734
 H116 H 0.02161 0.20187 0.45785
 H117 H 0.06640 0.16476 0.45807
 H118 H 0.09538 0.20505 0.54786
 H119 H 0.05055 0.24076 0.54540
 C120 C -0.08707 0.17951 0.49670
 C121 C -0.00051 0.31766 0.41211
 C122 C 0.08515 0.18157 0.50285
 C123 C -0.00523 0.31796 0.58715
 C124 C 0.98012 0.70112 0.53939
 H125 H 0.96140 0.70006 0.52203
 C126 C 0.98022 0.68014 0.56485
 H127 H 0.96150 0.66282 0.56678
 C128 C 1.02806 0.72396 0.55680
 H129 H 1.04719 0.74043 0.55305
 C130 C 1.02912 0.70341 0.58264
 H131 H 1.04945 0.70444 0.59797
 N132 N 1.00360 0.72275 0.53605
 C133 C 0.96274 0.79676 0.47721
 H134 H 0.97982 0.79730 0.45817
 C135 C 0.93743 0.81785 0.47719
 H136 H 0.93511 0.83450 0.45786
 C137 C 0.94559 0.77482 0.52578
 H138 H 0.94921 0.75839 0.54501
 C139 C 0.91996 0.79561 0.52681
 H140 H 0.90440 0.79419 0.54693
 Zn141 Zn 1.00228 0.74926 0.50003
 N142 N 0.96623 0.77563 0.50115
 C143 C 0.97698 0.72328 0.44325
 N144 N 1.00147 0.72257 0.46399
 C145 C 1.02529 0.70129 0.46066
 C146 C 1.02553 0.68017 0.43521
 C147 C 0.97628 0.70259 0.41741
 C148 C 1.04091 0.79761 0.52286
 C149 C 1.06579 0.81919 0.52286
 C150 C 1.08369 0.79703 0.47324
 C151 C 1.05848 0.77574 0.47429
 N152 N 1.03783 0.77629 0.49893
 H153 H 0.95757 0.73942 0.44702
 H154 H 1.04399 0.70058 0.47806
 H155 H 1.04445 0.66304 0.43340
 H156 H 0.95592 0.70310 0.40207
 H157 H 1.02382 0.79791 0.54190
 H158 H 1.06778 0.83599 0.54218
 H159 H 1.09927 0.79580 0.45312
 H160 H 1.05518 0.75914 0.45508
 C161 C 0.91552 0.81770 0.50225
 C162 C 1.00461 0.68140 0.58739
 C163 C 1.08768 0.81934 0.49779
 C164 C 1.00118 0.68101 0.41262
 C165 C 0.46038 -0.02150 0.29807
 H166 H 0.47711 -0.04085 0.29822
 C167 C 0.43535 -0.02124 0.31951
 H168 H 0.43290 -0.04065 0.33605
 C169 C 0.44382 0.02752 0.27672
 H170 H 0.44756 0.04679 0.26037
 C171 C 0.41849 0.02884 0.29788
 H172 H 0.40328 0.04924 0.29683
 N173 N 0.46400 0.00250 0.27704
 C174 C 0.52018 -0.03791 0.20048
 H175 H 0.53976 -0.02149 0.20020
 C176 C 0.51847 -0.06199 0.17787
 H177 H 0.53734 -0.06415 0.16068
 C178 C 0.47218 -0.05476 0.22355
 H179 H 0.45400 -0.05170 0.24121
 C180 C 0.46952 -0.07926 0.20144
 H181 H 0.44976 -0.09521 0.20386
 Zn182 Zn 0.49954 0.00086 0.24996
 N183 N 0.49711 -0.03457 0.22255
 C184 C 0.55577 -0.02646 0.27487
 N185 N 0.53554 -0.00152 0.27622
 C186 C 0.53939 0.02203 0.29782
 C187 C 0.56462 0.02131 0.31893
 C188 C 0.58132 -0.02824 0.29571
 C189 C 0.47767 0.04128 0.20266
 C190 C 0.47824 0.06676 0.18172
 C191 C 0.52786 0.08318 0.20441
 C192 C 0.52635 0.05733 0.22493
 N193 N 0.50132 0.03723 0.22395
 H194 H 0.55192 -0.04528 0.25794
 H195 H 0.52266 0.04137 0.29870
 H196 H 0.56726 0.04039 0.33592
 H197 H 0.59669 -0.04847 0.29376
 H198 H 0.45850 0.02439 0.20175
 H199 H 0.45941 0.06917 0.16458
 H200 H 0.54864 0.09794 0.20516
 H201 H 0.54558 0.05299 0.24109
 C202 C 0.49223 -0.08261 0.17711
 C203 C 0.41387 0.00417 0.31982
 C204 C 0.50327 0.08861 0.18268
 C205 C 0.58603 -0.00415 0.31839
 C206 C 0.53973 -0.02330 0.70166
 H207 H 0.52256 -0.04224 0.70131
 C208 C 0.56472 -0.02347 0.68018
 H209 H 0.56670 -0.04281 0.66340
 C210 C 0.55743 0.02518 0.72357
 H211 H 0.55415 0.04441 0.74016
 C212 C 0.58275 0.02605 0.70238
 H213 H 0.59843 0.04607 0.70366
 N214 N 0.53666 0.00066 0.72296
 C215 C 0.47850 -0.03962 0.79792
 H216 H 0.45979 -0.02222 0.79893
 C217 C 0.47847 -0.06510 0.81889
 H218 H 0.45966 -0.06699 0.83615
 C219 C 0.52654 -0.05714 0.77525
 H220 H 0.54575 -0.05342 0.75887
 C221 C 0.52745 -0.08300 0.79579
 H222 H 0.54778 -0.09837 0.79484
 Zn223 Zn 0.50099 -0.00028 0.74988
 N224 N 0.50209 -0.03633 0.77639
 C225 C 0.44431 -0.02576 0.72412
 N226 N 0.46506 -0.00124 0.72338
 C227 C 0.46176 0.02272 0.70224
 C228 C 0.43654 0.02289 0.68108
 C229 C 0.41876 -0.02664 0.70325
 C230 C 0.52387 0.03914 0.79787
 C231 C 0.52401 0.06463 0.81896
 C232 C 0.47479 0.08238 0.79646
 C233 C 0.47559 0.05652 0.77580
 N234 N 0.50010 0.03578 0.77656
 H235 H 0.44778 -0.04501 0.74055
 H236 H 0.47892 0.04167 0.70176
 H237 H 0.43439 0.04222 0.66441
 H238 H 0.40314 -0.04670 0.70459
 H239 H 0.54261 0.02177 0.79862
 H240 H 0.54292 0.06652 0.83607
 H241 H 0.45440 0.09770 0.79586
 H242 H 0.45623 0.05273 0.75964
 C243 C 0.50284 -0.08770 0.81771
 C244 C 0.58675 0.00146 0.68010
 C245 C 0.49961 0.08720 0.81808
 C246 C 0.41451 -0.00204 0.68116
 C247 C 0.29735 0.02471 0.46132
 H248 H 0.29742 0.04401 0.47822
 C249 C 0.31862 0.02473 0.43613
 H250 H 0.33498 0.04428 0.43373
 C251 C 0.27649 -0.02455 0.44462
 H252 H 0.26051 -0.04408 0.44845
 C253 C 0.29749 -0.02559 0.41911
 H254 H 0.29673 -0.04609 0.40391
 N255 N 0.27666 0.00045 0.46496
 C256 C 0.20276 0.04129 0.52419
 H257 H 0.20277 0.02456 0.54355
 C258 C 0.18136 0.06637 0.52412
 H259 H 0.16499 0.06885 0.54368
 C260 C 0.22352 0.05764 0.47482
 H261 H 0.23950 0.05371 0.45527
 C262 C 0.20239 0.08302 0.47370
 H263 H 0.20306 0.09802 0.45312
 Zn264 Zn 0.25010 0.00160 0.50097
 N265 N 0.22345 0.03752 0.49990
 C266 C 0.27662 0.02763 0.55730
 N267 N 0.27679 0.00275 0.53681
 C268 C 0.29755 -0.02149 0.54020
 C269 C 0.31894 -0.02159 0.56525
 C270 C 0.29775 0.02859 0.58267
 C271 C 0.20285 -0.03817 0.47791
 C272 C 0.18173 -0.06347 0.47787
 C273 C 0.20305 -0.08030 0.52807
 C274 C 0.22390 -0.05469 0.52705
 N275 N 0.22357 -0.03439 0.50212
 H276 H 0.26051 0.04710 0.55372
 H277 H 0.29758 -0.04072 0.52322
 H278 H 0.33531 -0.04115 0.56747
 H279 H 0.29689 0.04892 0.59810
 H280 H 0.20268 -0.02132 0.45864
 H281 H 0.16539 -0.06601 0.45832
 H282 H 0.20402 -0.09553 0.54846
 H283 H 0.23993 -0.05079 0.54653
 C284 C 0.18078 0.08777 0.49864
 C285 C 0.31907 -0.00064 0.41446
 C286 C 0.18144 -0.08509 0.50318
 C287 C 0.31948 0.00371 0.58699
 C288 C 0.70269 0.02047 0.53801
 H289 H 0.70258 0.03964 0.52106
 C290 C 0.68138 0.02061 0.56318
 H291 H 0.66498 0.04015 0.56552
 C292 C 0.72380 -0.02852 0.55495
 H293 H 0.73995 -0.04797 0.55128
 C294 C 0.70277 -0.02943 0.58045
 H295 H 0.70374 -0.04970 0.59584
 N296 N 0.72353 -0.00372 0.53451
 C297 C 0.79762 0.03719 0.47582
 H298 H 0.79791 0.02030 0.45652
 C299 C 0.81876 0.06248 0.47593
 H300 H 0.83522 0.06496 0.45646
 C301 C 0.77632 0.05382 0.52495
 H302 H 0.76020 0.04995 0.54437
 C303 C 0.79718 0.07942 0.52611
 H304 H 0.79613 0.09467 0.54657
 Zn305 Zn 0.75034 -0.00260 0.49868
 N306 N 0.77677 0.03347 0.49996
 C307 C 0.72411 0.02333 0.44239
 N308 N 0.72396 -0.00167 0.46259
 C309 C 0.70335 -0.02601 0.45878
 C310 C 0.68214 -0.02605 0.43357
 C311 C 0.70316 0.02434 0.41688
 C312 C 0.79773 -0.04186 0.52206
 C313 C 0.81920 -0.06687 0.52218
 C314 C 0.79841 -0.08415 0.47182
 C315 C 0.77720 -0.05881 0.47276
 N316 N 0.77712 -0.03842 0.49771
 H317 H 0.73998 0.04294 0.44637
 H318 H 0.70327 -0.04530 0.47559
 H319 H 0.66578 -0.04560 0.43111
 H320 H 0.70378 0.04494 0.40191
 H321 H 0.79759 -0.02493 0.54133
 H322 H 0.83547 -0.06911 0.54180
 H323 H 0.79779 -0.09943 0.45138
 H324 H 0.76125 -0.05517 0.45318
 C325 C 0.81893 0.08415 0.50131
 C326 C 0.68101 -0.00457 0.58494
 C327 C 0.81996 -0.08854 0.49682
 C328 C 0.68168 -0.00067 0.41205
 C329 C 0.47987 0.20257 1.03969
 H330 H 0.46105 0.20153 1.02243
 C331 C 0.48004 0.18164 1.06519
 H332 H 0.46127 0.16438 1.06726
 C333 C 0.52796 0.22532 1.05683
 H334 H 0.54710 0.24172 1.05296
 C335 C 0.52908 0.20481 1.08271
 H336 H 0.54949 0.20582 1.09793
 N337 N 0.50339 0.22413 1.03620
 C338 C 0.46242 0.29821 0.97754
 H339 H 0.47942 0.29870 0.95842
 C340 C 0.43715 0.31935 0.97762
 H341 H 0.43479 0.33600 0.95830
 C342 C 0.44542 0.27631 1.02619
 H343 H 0.44908 0.25988 1.04540
 C344 C 0.41984 0.29716 1.02732
 H345 H 0.40435 0.29577 1.04750
 Zn346 Zn 0.50196 0.25063 1.00018
 N347 N 0.46596 0.27708 1.00146
 C348 C 0.47621 0.22464 0.94363
 N349 N 0.50090 0.22395 0.96413
 C350 C 0.52469 0.20268 0.96058
 C351 C 0.52467 0.18152 0.93514
 C352 C 0.47524 0.20392 0.91782
 C353 C 0.54063 0.29892 1.02291
 C354 C 0.56551 0.32049 1.02292
 C355 C 0.58337 0.29838 0.97327
 C356 C 0.55815 0.27708 0.97431
 N357 N 0.53752 0.27763 0.99897
 H358 H 0.45683 0.24078 0.94758
 H359 H 0.54357 0.20198 0.97778
 H360 H 0.54360 0.16442 0.93313
 H361 H 0.45472 0.20444 0.90271
 H362 H 0.52357 0.29920 1.04198
 H363 H 0.56753 0.33726 1.04226
 H364 H 0.59897 0.29713 0.95316
 H365 H 0.55485 0.26048 0.95510
 C366 C 0.41535 0.31926 1.00277
 C367 C 0.50455 0.18287 1.08761
 C368 C 0.58737 0.32068 0.99782
 C369 C 0.50007 0.18231 0.91281
 C370 C 0.47581 0.79767 -0.04029
 H371 H 0.45669 0.79868 -0.02333
 C372 C 0.47631 0.81853 -0.06585
 H373 H 0.45749 0.83570 -0.06822
 C374 C 0.52443 0.77528 -0.05647
 H375 H 0.54368 0.75912 -0.05214
 C376 C 0.52589 0.79571 -0.08239
 H377 H 0.54662 0.79490 -0.09722
 N378 N 0.49947 0.77636 -0.03626
 C379 C 0.45851 0.70281 0.02320
 H380 H 0.47526 0.70279 0.04251
 C381 C 0.43347 0.68141 0.02318
 H382 H 0.43105 0.66501 0.04271
 C383 C 0.44197 0.72372 -0.02600
 H384 H 0.44575 0.73985 -0.04545
 C385 C 0.41662 0.70259 -0.02708
 H386 H 0.40150 0.70339 -0.04754
 Zn387 Zn 0.49781 0.75051 0.00023
 N388 N 0.46216 0.72359 -0.00102
 C389 C 0.47073 0.77757 0.05572
 N390 N 0.49572 0.77808 0.03555
 C391 C 0.51913 0.79980 0.03882
 C392 C 0.51779 0.82240 0.06294
 C393 C 0.46841 0.79976 0.08019
 C394 C 0.53752 0.70247 -0.02111
 C395 C 0.56282 0.68140 -0.02057
 C396 C 0.57972 0.70463 0.02886
 C397 C 0.55410 0.72542 0.02727
 N398 N 0.53375 0.72408 0.00245
 H399 H 0.45221 0.76029 0.05263
 H400 H 0.53869 0.79978 0.02235
 H401 H 0.53678 0.83941 0.06513
 H402 H 0.44853 0.79806 0.09610
 H403 H 0.52070 0.70160 -0.04035
 H404 H 0.56541 0.66444 -0.03968
 H405 H 0.59521 0.70661 0.04898
 H406 H 0.55032 0.74234 0.04612
 C407 C 0.41198 0.68091 -0.00219
 C408 C 0.50128 0.81745 -0.08779
 C409 C 0.58438 0.68199 0.00473
 C410 C 0.49168 0.82340 0.08358
 C411 C 1.03914 0.47410 0.20189
 H412 H 1.02120 0.45589 0.20137
 C413 C 1.06399 0.47318 0.18028
 H414 H 1.06480 0.45418 0.16303
 C415 C 1.05851 0.52186 0.22392
 H416 H 1.05572 0.54131 0.24034
 C417 C 1.08381 0.52192 0.20267
 H418 H 1.09963 0.54193 0.20320
 N419 N 1.03700 0.49800 0.22335
 C420 C 0.97796 0.45985 0.29867
 H421 H 0.95978 0.47782 0.29964
 C422 C 0.97728 0.43455 0.31983
 H423 H 0.95854 0.43345 0.33723
 C424 C 1.02537 0.44079 0.27592
 H425 H 1.04459 0.44384 0.25941
 C426 C 1.02563 0.41507 0.29665
 H427 H 1.04552 0.39909 0.29578
 Zn428 Zn 1.00125 0.49810 0.25017
 N429 N 1.00152 0.46229 0.27700
 C430 C 0.94409 0.47355 0.22462
 N431 N 0.96537 0.49761 0.22358
 C432 C 0.96262 0.52135 0.20214
 C433 C 0.93745 0.52179 0.18092
 C434 C 0.91857 0.47296 0.20371
 C435 C 1.02469 0.53755 0.29790
 C436 C 1.02507 0.56313 0.31888
 C437 C 0.97620 0.58145 0.29605
 C438 C 0.97677 0.55550 0.27550
 N439 N 1.00097 0.53441 0.27651
 H440 H 0.94709 0.45447 0.24133
 H441 H 0.98018 0.53993 0.20146
 H442 H 0.93572 0.54096 0.16402
 H443 H 0.90246 0.45331 0.20535
 H444 H 1.04316 0.51990 0.29886
 H445 H 1.04388 0.56479 0.33612
 H446 H 0.95602 0.59703 0.29531
 H447 H 0.95742 0.55189 0.25928
 C448 C 1.00091 0.41111 0.31865
 C449 C 1.08727 0.49700 0.18060
 C450 C 1.00096 0.58600 0.31780
 C451 C 0.91491 0.49733 0.18126
 C452 C -0.04020 0.47812 0.79851
 H453 H -0.02358 0.45868 0.79884
 C454 C -0.06528 0.47868 0.81988
 H455 H -0.06790 0.45939 0.83654
 C456 C -0.05644 0.52707 0.77674
 H457 H -0.05256 0.54618 0.76024
 C458 C -0.08182 0.52869 0.79783
 H459 H -0.09697 0.54912 0.79653
 N460 N -0.03637 0.50197 0.77734
 C461 C 0.02096 0.46003 0.70244
 H462 H 0.04012 0.47693 0.70158
 C463 C 0.02036 0.43460 0.68130
 H464 H 0.03915 0.43224 0.66407
 C465 C -0.02759 0.44381 0.72486
 H466 H -0.04675 0.44804 0.74120
 C467 C -0.02915 0.41802 0.70415
 H468 H -0.04988 0.40320 0.70494
 Zn469 Zn -0.00063 0.49998 0.75056
 N470 N -0.00260 0.46395 0.72392
 C471 C 0.05527 0.47304 0.77644
 N472 N 0.03517 0.49811 0.77718
 C473 C 0.03903 0.52204 0.79836
 C474 C 0.06419 0.52161 0.81958
 C475 C 0.08075 0.47156 0.79737
 C476 C -0.02230 0.53979 0.70257
 C477 C -0.02171 0.56515 0.68147
 C478 C 0.02786 0.58175 0.70416
 C479 C 0.02632 0.55603 0.72484
 N480 N 0.00129 0.53592 0.72397
 H481 H 0.05137 0.45386 0.75994
 H482 H 0.02237 0.54145 0.79882
 H483 H 0.06684 0.54097 0.83625
 H484 H 0.09592 0.45114 0.79596
 H485 H -0.04147 0.52291 0.70176
 H486 H -0.04050 0.56745 0.66429
 H487 H 0.04862 0.59653 0.70486
 H488 H 0.04551 0.55182 0.74108
 C489 C -0.00461 0.41268 0.68227
 C490 C -0.08657 0.50425 0.82000
 C491 C 0.00328 0.58706 0.68240
 C492 C 0.08555 0.49610 0.81953
 C493 C 0.11196 0.15745 0.50277
 C494 C 0.09954 0.12327 0.50168
 C495 C 0.12242 0.10086 0.49945
 C496 C 0.15617 0.11416 0.49884
 C497 C 0.15611 0.13800 0.47114
 C498 C 0.13313 0.16043 0.47333
 C499 C 0.13543 0.15768 0.53075
 C500 C 0.15836 0.13520 0.52854
 H501 H 0.07468 0.11717 0.50264
 H502 H 0.11697 0.07576 0.49825
 H503 H 0.17289 0.13855 0.45186
 H504 H 0.13075 0.17923 0.45600
 H505 H 0.13518 0.17412 0.55041
 H506 H 0.17688 0.13298 0.54614
 C507 C 0.65595 0.61517 0.00073
 C508 C 0.62232 0.60158 0.00054
 C509 C 0.59921 0.62374 0.00284
 C510 C 0.61132 0.65801 0.00475
 C511 C 0.63428 0.65786 0.03315
 C512 C 0.65747 0.63564 0.03087
 C513 C 0.65615 0.63956 -0.02648
 C514 C 0.63294 0.66172 -0.02426
 H515 H 0.61711 0.57646 -0.00115
 H516 H 0.57439 0.61740 0.00338
 H517 H 0.63317 0.67352 0.05342
 H518 H 0.67553 0.63304 0.04889
 H519 H 0.67342 0.64079 -0.04530
 H520 H 0.63075 0.68090 -0.04120
 C521 C 0.88872 -0.15817 0.50181
 C522 C 0.86481 -0.15829 0.52946
 C523 C 0.84192 -0.13582 0.52695
 C524 C 0.84458 -0.11490 0.49730
 C525 C 0.87832 -0.10160 0.49840
 C526 C 0.90116 -0.12399 0.50095
 C527 C 0.86804 -0.16126 0.47207
 C528 C 0.84510 -0.13884 0.46957
 H529 H 0.86479 -0.17460 0.54915
 H530 H 0.82315 -0.13350 0.54431
 H531 H 0.88379 -0.07651 0.49728
 H532 H 0.92600 -0.11789 0.50226
 H533 H 0.87077 -0.18006 0.45470
 H534 H 0.82875 -0.13935 0.44994
 C535 C 0.34446 0.38673 0.99804
 C536 C 0.34197 0.36592 1.02777
 C537 C 0.36485 0.34344 1.03022
 C538 C 0.38859 0.34343 1.00243
 C539 C 0.36772 0.34026 0.97282
 C540 C 0.34480 0.36270 0.97038
 C541 C 0.37822 0.40001 0.99887
 C542 C 0.40106 0.37760 1.00136
 H543 H 0.32333 0.36834 1.04527
 H544 H 0.36497 0.32724 1.05001
 H545 H 0.37038 0.32143 0.95546
 H546 H 0.32841 0.36220 0.95079
 H547 H 0.38371 0.42509 0.99762
 H548 H 0.42591 0.38368 1.00250
 C549 C 0.88656 0.15492 0.49690
 C550 C 0.86294 0.15462 0.46905
 C551 C 0.84042 0.13177 0.47136
 C552 C 0.84312 0.11090 0.50104
 C553 C 0.87709 0.09817 0.50025
 C554 C 0.89958 0.12095 0.49790
 C555 C 0.86550 0.15766 0.52646
 C556 C 0.84293 0.13485 0.52876
 H557 H 0.86284 0.17093 0.44936
 H558 H 0.82188 0.12913 0.45384
 H559 H 0.88298 0.07317 0.50142
 H560 H 0.92453 0.11527 0.49682
 H561 H 0.86772 0.17651 0.54385
 H562 H 0.82637 0.13510 0.54824
 C563 C 0.34208 0.61240 0.00238
 C564 C 0.33923 0.63337 -0.02719
 C565 C 0.36174 0.65623 -0.02955
 C566 C 0.38553 0.65639 -0.00185
 C567 C 0.36464 0.65905 0.02784
 C568 C 0.34208 0.63624 0.03021
 C569 C 0.37604 0.59965 0.00138
 C570 C 0.39853 0.62242 -0.00103
 H571 H 0.32050 0.63091 -0.04454
 H572 H 0.36137 0.67280 -0.04902
 H573 H 0.36703 0.67779 0.04534
 H574 H 0.32575 0.63628 0.04989
 H575 H 0.38193 0.57465 0.00249
 H576 H 0.42348 0.61673 -0.00221
 C577 C 0.11400 -0.15601 0.49821
 C578 C 0.13789 -0.15580 0.47055
 C579 C 0.16034 -0.13288 0.47305
 C580 C 0.15730 -0.11189 0.50271
 C581 C 0.12332 -0.09923 0.50165
 C582 C 0.10090 -0.12207 0.49911
 C583 C 0.13476 -0.15857 0.52794
 C584 C 0.15726 -0.13570 0.53043
 H585 H 0.13819 -0.17217 0.45083
 H586 H 0.17904 -0.13027 0.45566
 H587 H 0.11736 -0.07424 0.50279
 H588 H 0.07595 -0.11645 0.49782
 H589 H 0.13238 -0.17733 0.54532
 H590 H 0.17358 -0.13579 0.55008
 C591 C 0.65707 0.38936 1.00290
 C592 C 0.62309 0.40206 1.00215
 C593 C 0.60065 0.37926 0.99953
 C594 C 0.61371 0.34531 0.99828
 C595 C 0.63742 0.34575 0.97047
 C596 C 0.65992 0.36861 0.97304
 C597 C 0.65716 0.36530 1.03041
 C598 C 0.63463 0.34248 1.02786
 H599 H 0.61717 0.42704 1.00353
 H600 H 0.57569 0.38492 0.99842
 H601 H 0.63751 0.32962 0.95054
 H602 H 0.67847 0.37140 0.95553
 H603 H 0.67359 0.36505 1.04998
 H604 H 0.63232 0.32359 1.04510
 C605 C 0.50436 0.11536 1.15857
 C606 C 0.47258 0.13248 1.15416
 C607 C 0.47291 0.15514 1.13129
 C608 C 0.50500 0.15897 1.11458
 C609 C 0.52808 0.16533 1.14214
 C610 C 0.52774 0.14264 1.16502
 C611 C 0.51311 0.10305 1.12548
 C612 C 0.51345 0.12566 1.10268
 H613 H 0.45191 0.12811 1.16870
 H614 H 0.45252 0.16992 1.12648
 H615 H 0.54091 0.18724 1.14567
 H616 H 0.54029 0.14615 1.18709
 H617 H 0.51882 0.07848 1.12044
 H618 H 0.51945 0.12033 1.07824
 C619 C 0.00501 0.65746 0.61433
 C620 C 0.02785 0.66394 0.64205
 C621 C 0.02749 0.64124 0.66491
 C622 C 0.00434 0.61381 0.65827
 C623 C -0.02753 0.63073 0.65366
 C624 C -0.02718 0.65342 0.63081
 C625 C 0.01374 0.62421 0.60246
 C626 C 0.01339 0.60158 0.62524
 H627 H 0.04050 0.68594 0.64570
 H628 H 0.03985 0.64481 0.68708
 H629 H -0.04826 0.62624 0.66806
 H630 H -0.04762 0.66808 0.62589
 H631 H 0.01993 0.61894 0.57806
 H632 H 0.01927 0.57705 0.62023
 C633 C 0.50315 0.88538 -0.15833
 C634 C 0.52591 0.85756 -0.16480
 C635 C 0.52551 0.83474 -0.14205
 C636 C 0.50238 0.84151 -0.11461
 C637 C 0.51151 0.87453 -0.10245
 C638 C 0.51192 0.89727 -0.12511
 C639 C 0.47092 0.86903 -0.15421
 C640 C 0.47052 0.84622 -0.13149
 H641 H 0.53856 0.85385 -0.18681
 H642 H 0.53781 0.81252 -0.14560
 H643 H 0.51741 0.87956 -0.07794
 H644 H 0.51816 0.92167 -0.11989
 H645 H 0.45049 0.87400 -0.16886
 H646 H 0.44975 0.83189 -0.12695
 C647 C 0.99998 0.34065 0.38653
 C648 C 0.96900 0.34662 0.37225
 C649 C 0.96944 0.37060 0.34834
 C650 C 1.00074 0.38422 0.34289
 C651 C 1.01148 0.39527 0.37380
 C652 C 1.01109 0.37145 0.39768
 C653 C 1.02010 0.33275 0.35927
 C654 C 1.02055 0.35675 0.33533
 H655 H 0.94824 0.33213 0.37639
 H656 H 0.94903 0.37540 0.33359
 H657 H 1.01950 0.41926 0.37849
 H658 H 1.01880 0.37617 0.42177
 H659 H 1.02851 0.30905 0.35392
 H660 H 1.02938 0.35139 0.31181
 C661 C 0.49025 0.89304 0.15273
 C662 C 0.45950 0.87744 0.14880
 C663 C 0.45941 0.85330 0.12489
 C664 C 0.48998 0.84917 0.10913
 C665 C 0.49747 0.88075 0.09703
 C666 C 0.49757 0.90484 0.12091
 C667 C 0.51268 0.86741 0.15844
 C668 C 0.51253 0.84342 0.13455
 H669 H 0.43726 0.88733 0.15680
 H670 H 0.43717 0.84503 0.11529
 H671 H 0.49989 0.88632 0.07206
 H672 H 0.49995 0.92975 0.11499
 H673 H 0.52787 0.86603 0.17910
 H674 H 0.52757 0.82263 0.13581
 C675 C -0.00591 0.34199 0.61412
 C676 C -0.01427 0.37525 0.60218
 C677 C -0.01409 0.39797 0.62499
 C678 C -0.00558 0.38582 0.65812
 C679 C -0.02901 0.35857 0.66444
 C680 C -0.02919 0.33577 0.64155
 C681 C 0.02606 0.34590 0.63100
 C682 C 0.02623 0.36868 0.65387
 H683 H -0.02009 0.38046 0.57771
 H684 H -0.01977 0.42251 0.61993
 H685 H -0.04172 0.35515 0.68643
 H686 H -0.04205 0.31389 0.64502
 H687 H 0.04649 0.33111 0.62628
 H688 H 0.04680 0.37313 0.66850
 C689 C 0.49925 0.11413 0.84216
 C690 C 0.47716 0.14231 0.83514
 C691 C 0.47729 0.16519 0.85793
 C692 C 0.49949 0.15812 0.88598
 C693 C 0.48948 0.12530 0.89782
 C694 C 0.48936 0.10249 0.87510
 C695 C 0.53162 0.12997 0.84717
 C696 C 0.53174 0.15285 0.86995
 H697 H 0.46525 0.14613 0.81278
 H698 H 0.46547 0.18762 0.85412
 H699 H 0.48284 0.12043 0.92217
 H700 H 0.48262 0.07821 0.88010
 H701 H 0.55235 0.12472 0.83299
 H702 H 0.55257 0.16691 0.87500
 C703 C 1.00079 0.65685 0.38577
 C704 C 0.97926 0.66432 0.35730
 C705 C 0.97920 0.64147 0.33448
 C706 C 1.00067 0.61291 0.34190
 C707 C 1.03319 0.62819 0.34754
 C708 C 1.03326 0.65105 0.37035
 C709 C 0.99001 0.62419 0.39737
 C710 C 0.98995 0.60141 0.37463
 H711 H 0.96788 0.68695 0.35333
 H712 H 0.96777 0.64548 0.31189
 H713 H 1.05409 0.62265 0.33372
 H714 H 1.05421 0.66480 0.37576
 H715 H 0.98284 0.61941 0.42158
 H716 H 0.98272 0.57723 0.37947
 C717 C 1.15535 0.49371 0.11024
 C718 C 1.12350 0.50152 0.09928
 C719 C 1.10065 0.50324 0.12410
 C720 C 1.11337 0.49631 0.15547
 C721 C 1.12850 0.46530 0.15233
 C722 C 1.15122 0.46363 0.12725
 C723 C 1.16255 0.51703 0.13486
 C724 C 1.13968 0.51840 0.15977
 H725 H 1.11692 0.50407 0.07456
 H726 H 1.07591 0.50805 0.11948
 H727 H 1.12205 0.44464 0.16617
 H728 H 1.16040 0.44087 0.11973
 H729 H 1.18472 0.52988 0.13624
 H730 H 1.14482 0.53115 0.18144
 C731 C 0.61320 0.00085 0.65556
 C732 C 0.60028 0.00000 0.62156
 C733 C 0.62280 -0.00271 0.59882
 C734 C 0.65671 -0.00396 0.61162
 C735 C 0.65978 0.02570 0.63260
 C736 C 0.63722 0.02836 0.65542
 C737 C 0.63379 -0.02901 0.65823
 C738 C 0.65639 -0.03167 0.63545
 H739 H 0.57536 0.00143 0.61584
 H740 H 0.61697 -0.00385 0.57381
 H741 H 0.67857 0.04298 0.63004
 H742 H 0.63752 0.04810 0.67177
 H743 H 0.63118 -0.04640 0.67694
 H744 H 0.67253 -0.05150 0.63553
 C745 C -0.15711 0.50067 0.88798
 C746 C -0.15765 0.47327 0.86367
 C747 C -0.13480 0.47534 0.84110
 C748 C -0.11317 0.50438 0.84438
 C749 C -0.13619 0.53276 0.84483
 C750 C -0.15901 0.53065 0.86745
 C751 C -0.12326 0.50058 0.90100
 C752 C -0.10051 0.50271 0.87844
 H753 H -0.17484 0.45437 0.86283
 H754 H -0.13287 0.45824 0.82195
 H755 H -0.13560 0.55275 0.82889
 H756 H -0.17716 0.54860 0.87020
 H757 H -0.11765 0.49904 0.92603
 H758 H -0.07560 0.50324 0.88435
 C759 C 0.38729 0.00394 0.34421
 C760 C 0.36378 0.03191 0.34452
 C761 C 0.34105 0.02956 0.36718
 C762 C 0.34346 -0.00028 0.38787
 C763 C 0.34336 -0.02783 0.36372
 C764 C 0.36614 -0.02549 0.34110
 C765 C 0.40001 0.00265 0.37826
 C766 C 0.37732 0.00026 0.40086
 H767 H 0.36389 0.05171 0.32833
 H768 H 0.32253 0.04715 0.36978
 H769 H 0.32661 -0.04712 0.36312
 H770 H 0.36839 -0.04270 0.32209
 H771 H 0.42492 0.00357 0.38413
 H772 H 0.38299 -0.00110 0.42588
 C773 C 0.15638 0.50011 0.88703
 C774 C 0.15833 0.47011 0.86639
 C775 C 0.13543 0.46787 0.84391
 C776 C 0.11226 0.49613 0.84372
 C777 C 0.09976 0.49779 0.87787
 C778 C 0.12260 0.50006 0.90028
 C779 C 0.15669 0.52748 0.86282
 C780 C 0.13374 0.52528 0.84040
 H781 H 0.17660 0.45227 0.86893
 H782 H 0.13488 0.44788 0.82787
 H783 H 0.07487 0.49716 0.88394
 H784 H 0.11710 0.50161 0.92536
 H785 H 0.17379 0.54645 0.86193
 H786 H 0.13165 0.54233 0.82132
 C787 C 0.61280 -0.00443 0.34251
 C788 C 0.63562 -0.03298 0.34270
 C789 C 0.65865 -0.03093 0.36508
 C790 C 0.65711 -0.00085 0.38566
 C791 C 0.65763 0.02645 0.36138
 C792 C 0.63458 0.02446 0.33906
 C793 C 0.60043 -0.00259 0.37671
 C794 C 0.62337 -0.00051 0.39903
 H795 H 0.63457 -0.05315 0.32691
 H796 H 0.67662 -0.04905 0.36771
 H797 H 0.67502 0.04515 0.36032
 H798 H 0.63264 0.04147 0.31992
 H799 H 0.57556 -0.00300 0.38288
 H800 H 0.61798 0.00110 0.42412
 C801 C 0.84443 0.50338 0.11355
 C802 C 0.87821 0.50149 0.10037
 C803 C 0.90089 0.49857 0.12287
 C804 C 0.88826 0.49819 0.15701
 C805 C 0.86818 0.52840 0.15982
 C806 C 0.84543 0.53126 0.13729
 C807 C 0.84109 0.47392 0.13463
 C808 C 0.86381 0.47106 0.15720
 H809 H 0.88383 0.50238 0.07530
 H810 H 0.92573 0.49670 0.11687
 H811 H 0.87134 0.54595 0.17839
 H812 H 0.82976 0.55147 0.13736
 H813 H 0.82204 0.45689 0.13228
 H814 H 0.86339 0.45139 0.17353
 C815 C 0.38784 -0.00147 0.65693
 C816 C 0.40048 -0.00087 0.62280
 C817 C 0.37779 0.00177 0.60029
 C818 C 0.34398 0.00320 0.61344
 C819 C 0.34099 -0.02631 0.63449
 C820 C 0.36373 -0.02890 0.65708
 C821 C 0.36736 0.02847 0.65977
 C822 C 0.34459 0.03106 0.63722
 H823 H 0.42535 -0.00240 0.61682
 H824 H 0.38342 0.00275 0.57522
 H825 H 0.32210 -0.04352 0.63219
 H826 H 0.36343 -0.04848 0.67353
 H827 H 0.37019 0.04597 0.67843
 H828 H 0.32852 0.05095 0.63742
   
