data_POSCAR
  _audit_creation_date              2014-09-24
  _audit_creation_method            'ToBaCCo'
  _symmetry_space_group_name_H-M    'P1'
  _symmetry_Int_Tables_number       1
  _symmetry_cell_setting            triclinic
  loop_
  _symmetry_equiv_pos_as_xyz
 x,y,z
_cell_length_a 32.9931
_cell_length_b 17.5827
_cell_length_c 12.4637
_cell_angle_alpha 91.618400
_cell_angle_beta 87.365200
_cell_angle_gamma 89.040400
loop_
  _atom_site_label
  _atom_site_type_symbol
  _atom_site_fract_x
  _atom_site_fract_y
  _atom_site_fract_z
O1 O 0.74498 0.35396 0.62794
 O2 O 0.78955 0.32095 0.35567
 O3 O 0.71737 0.35409 0.43375
 O4 O 0.81690 0.31240 0.54623
 O5 O 0.79925 0.19306 0.56915
 O6 O 0.70441 0.23128 0.43768
 O7 O 0.77973 0.19774 0.37108
 O8 O 0.72560 0.23437 0.63383
 Cu9 Cu 0.76862 0.34769 0.49075
 Cu10 Cu 0.75067 0.20190 0.50339
 C11 C 0.72665 0.30092 0.67572
 C12 C 0.79391 0.25328 0.31881
 C13 C 0.69412 0.29870 0.41594
 C14 C 0.82487 0.24559 0.57681
 O15 O 0.22230 0.80085 0.62506
 O16 O 0.27574 0.75746 0.36203
 O17 O 0.20295 0.80509 0.42465
 O18 O 0.29735 0.75867 0.55636
 O19 O 0.28143 0.63723 0.56211
 O20 O 0.18294 0.68750 0.44963
 O21 O 0.25366 0.63969 0.37019
 O22 O 0.21008 0.67871 0.64203
 Cu23 Cu 0.25131 0.79289 0.49214
 Cu24 Cu 0.23009 0.64942 0.50704
 C25 C 0.20705 0.74668 0.67829
 C26 C 0.27342 0.69060 0.32166
 C27 C 0.17645 0.75412 0.41656
 C28 C 0.30644 0.69030 0.57684
 O29 O 0.31106 0.18126 -0.44219
 O30 O 0.21660 0.16012 -0.58701
 O31 O 0.29005 0.20409 -0.63663
 O32 O 0.23448 0.14681 -0.38703
 O33 O 0.22603 0.26828 -0.34113
 O34 O 0.26942 0.32293 -0.60203
 O35 O 0.19881 0.27741 -0.53450
 O36 O 0.29704 0.30364 -0.41395
 Cu37 Cu 0.26476 0.16056 -0.51639
 Cu38 Cu 0.24608 0.30440 -0.46883
 C39 C 0.32074 0.24668 -0.40715
 C40 C 0.19126 0.21532 -0.58382
 C41 C 0.28837 0.27358 -0.66194
 C42 C 0.22127 0.19886 -0.32064
 O43 O -0.19974 0.73524 -0.46407
 O44 O -0.29229 0.70922 -0.61183
 O45 O -0.21979 0.76877 -0.65089
 O46 O -0.27219 0.68530 -0.41523
 O47 O -0.28912 0.80098 -0.35300
 O48 O -0.24877 0.87980 -0.60525
 O49 O -0.31681 0.81868 -0.54355
 O50 O -0.21886 0.85327 -0.41846
 Cu51 Cu -0.24421 0.71289 -0.54143
 Cu52 Cu -0.27063 0.84959 -0.47443
 C53 C -0.19260 0.79932 -0.42046
 C54 C -0.32091 0.75825 -0.60020
 C55 C -0.22551 0.83898 -0.66796
 C56 C -0.28879 0.72952 -0.34299
 O57 O -0.08331 0.89570 0.14779
 O58 O -0.10932 0.96664 0.01405
 C59 C -0.11333 0.92256 0.09520
 O60 O 0.03949 1.14941 0.20294
 O61 O 0.08971 1.06148 0.15487
 C62 C 0.07612 1.12251 0.20695
 O63 O -0.06900 1.15769 0.13328
 O64 O -0.10281 1.08938 0.00666
 C65 C -0.10105 1.14198 0.08097
 O66 O 0.02548 0.86279 0.21714
 O67 O 0.08292 0.92467 0.15989
 C68 C 0.06419 0.87469 0.21761
 Zr69 Zr -0.01996 0.91697 0.13059
 O70 O -0.03501 0.93028 0.29717
 O71 O -0.03186 0.79935 0.13801
 Zr72 Zr -0.01036 1.10650 0.12328
 O73 O -0.02646 1.10601 0.28984
 O74 O -0.00998 1.22664 0.13263
 O75 O -0.05193 1.01930 0.11981
 O76 O 0.01635 1.00707 0.17251
 O77 O 0.07091 0.84616 -0.13407
 O78 O 0.10570 0.91755 -0.01247
 C79 C 0.10320 0.86234 -0.08286
 O80 O -0.02206 1.13735 -0.23508
 O81 O -0.07979 1.07966 -0.17074
 C82 C -0.06083 1.12607 -0.23381
 O83 O 0.08432 1.12058 -0.14740
 O84 O 0.11156 1.04803 -0.01723
 C85 C 0.11431 1.09733 -0.09239
 O86 O -0.03512 0.86799 -0.22573
 O87 O -0.08641 0.95037 -0.16529
 C88 C -0.07211 0.89406 -0.22595
 Zr89 Zr 0.01309 0.90061 -0.12970
 O90 O 0.03755 0.89135 -0.28974
 O91 O 0.00356 0.78182 -0.12916
 Zr92 Zr 0.02252 1.09058 -0.13817
 O93 O 0.04610 1.07486 -0.29839
 O94 O 0.02613 1.21022 -0.14964
 Zr95 Zr -0.05568 1.01402 -0.04889
 Zr96 Zr 0.05878 0.99405 0.04179
 O97 O 0.05358 0.98867 -0.12615
 O98 O -0.01406 1.00032 -0.18162
 O99 O 0.02997 0.88805 0.02769
 O100 O -0.02616 1.11868 -0.03372
 O101 O -0.03740 0.90071 -0.02500
 O102 O 0.04074 1.10786 0.01840
 H103 H 0.02693 1.00770 0.24568
 H104 H -0.04071 1.16682 -0.04804
 H105 H 0.07841 0.98190 -0.17353
 H106 H -0.05701 0.85937 -0.03538
 H107 H 0.00386 1.24323 0.06557
 H108 H 0.04195 1.22915 -0.08919
 H109 H 0.02422 1.05413 -0.34173
 H110 H 0.02011 0.92243 -0.33460
 H111 H 0.01929 0.76062 -0.07093
 H112 H -0.00948 0.77218 0.09682
 H113 H -0.05966 0.96313 0.30553
 H114 H -0.05587 1.09613 0.29792
 O115 O 0.42759 0.36931 0.15710
 O116 O 0.39528 0.42566 0.01983
 C117 C 0.39570 0.38290 0.10273
 O118 O 0.52752 0.65803 0.19635
 O119 O 0.58371 0.58431 0.14691
 C120 C 0.56597 0.64173 0.19849
 O121 O 0.41845 0.63022 0.13110
 O122 O 0.39101 0.54973 0.00651
 C123 C 0.38796 0.60264 0.08107
 O124 O 0.53703 0.37254 0.22351
 O125 O 0.58838 0.44826 0.16092
 C126 C 0.57418 0.39528 0.22190
 Zr127 Zr 0.48756 0.41060 0.13752
 O128 O 0.47230 0.42967 0.30321
 O129 O 0.48565 0.29203 0.16017
 Zr130 Zr 0.48128 0.60059 0.11629
 O131 O 0.46622 0.60928 0.28327
 O132 O 0.47185 0.71926 0.10378
 O133 O 0.44758 0.50162 0.12104
 O134 O 0.51597 0.51182 0.17114
 O135 O 0.58209 0.35695 -0.13104
 O136 O 0.61000 0.44109 -0.01235
 C137 C 0.61266 0.38497 -0.08200
 O138 O 0.46588 0.61022 -0.24468
 O139 O 0.41353 0.54117 -0.17223
 C140 C 0.42840 0.58894 -0.24039
 O141 O 0.57324 0.62593 -0.16292
 O142 O 0.60603 0.57052 -0.02530
 C143 C 0.60508 0.61369 -0.10789
 O144 O 0.47476 0.34073 -0.21361
 O145 O 0.41825 0.41164 -0.15760
 C146 C 0.43629 0.35693 -0.21426
 Zr147 Zr 0.52011 0.39248 -0.12336
 O148 O 0.54342 0.38336 -0.28451
 O149 O 0.52112 0.27256 -0.11120
 Zr150 Zr 0.51372 0.58328 -0.14457
 O151 O 0.53677 0.57437 -0.30586
 O152 O 0.50648 0.70265 -0.15623
 Zr153 Zr 0.44348 0.48809 -0.04695
 Zr154 Zr 0.55819 0.50547 0.03940
 O155 O 0.55246 0.49166 -0.12779
 O156 O 0.48501 0.48133 -0.18046
 O157 O 0.53857 0.39180 0.03402
 O158 O 0.46368 0.60093 -0.04037
 O159 O 0.47104 0.38257 -0.01600
 O160 O 0.53136 0.61208 0.00948
 H161 H 0.52659 0.51816 0.24389
 H162 H 0.44478 0.64294 -0.05690
 H163 H 0.57688 0.48988 -0.17717
 H164 H 0.45543 0.33516 -0.02268
 H165 H 0.49521 0.73858 0.06083
 H166 H 0.52585 0.72710 -0.10834
 H167 H 0.52041 0.53634 -0.34364
 H168 H 0.52303 0.40617 -0.33034
 H169 H 0.54023 0.25943 -0.05539
 H170 H 0.50456 0.26807 0.10495
 H171 H 0.44364 0.44729 0.31019
 H172 H 0.44172 0.57878 0.29720
 N173 N 0.32081 0.36868 0.10221
 N174 N 0.29211 0.33898 0.16456
 C175 C 0.30975 0.29874 0.24057
 C176 C 0.35145 0.30366 0.22717
 C177 C 0.35722 0.34918 0.13906
 H178 H 0.37406 0.28396 0.28074
 H179 H 0.31535 0.40550 0.03996
 H180 H 0.26107 0.34962 0.15854
 N181 N -0.18474 0.96125 0.13455
 N182 N -0.21575 0.94005 0.20664
 C183 C -0.20485 0.87278 0.24662
 C184 C -0.16695 0.84994 0.20253
 C185 C -0.15493 0.90800 0.13540
 H186 H -0.14845 0.80245 0.22647
 H187 H -0.18321 1.01393 0.09807
 H188 H -0.24142 0.97341 0.22901
 N189 N 0.57713 0.75768 0.31236
 N190 N 0.60701 0.78894 0.36410
 C191 C 0.64039 0.74405 0.34928
 C192 C 0.63142 0.68146 0.28488
 C193 C 0.59090 0.69231 0.26345
 H194 H 0.65131 0.63424 0.25888
 H195 H 0.54780 0.78086 0.31116
 H196 H 0.60428 0.83961 0.40984
 N197 N 0.09337 1.23735 0.31314
 N198 N 0.12568 1.26365 0.37077
 C199 C 0.15461 1.20861 0.36593
 C200 C 0.14180 1.14655 0.30489
 C201 C 0.10332 1.16707 0.27353
 H202 H 0.15818 1.09366 0.28599
 H203 H 0.06659 1.26820 0.30260
 H204 H 0.12642 1.31667 0.41056
 N205 N 0.68777 0.38796 -0.07980
 N206 N 0.71851 0.36594 -0.14560
 C207 C 0.70468 0.31865 -0.22184
 C208 C 0.66335 0.30988 -0.20378
 C209 C 0.65361 0.35610 -0.11407
 H210 H 0.64256 0.28356 -0.25775
 H211 H 0.68972 0.42945 -0.01867
 H212 H 0.74775 0.38759 -0.14292
 N213 N 0.14016 0.73984 -0.09191
 N214 N 0.16897 0.70603 -0.16417
 C215 C 0.18465 0.76123 -0.22553
 C216 C 0.16751 0.83105 -0.19165
 C217 C 0.13917 0.81491 -0.10986
 H218 H 0.17012 0.88422 -0.23301
 H219 H 0.11896 0.71003 -0.04547
 H220 H 0.17345 0.64735 -0.17566
 N221 N 0.41195 0.68753 -0.37031
 N222 N 0.37968 0.71583 -0.41464
 C223 C 0.34742 0.67341 -0.38764
 C224 C 0.35968 0.61495 -0.32294
 C225 C 0.40099 0.62667 -0.31315
 H226 H 0.34099 0.57262 -0.28454
 H227 H 0.44070 0.71149 -0.37623
 H228 H 0.37985 0.76386 -0.46211
 N229 N -0.07150 1.23633 -0.35085
 N230 N -0.10203 1.26972 -0.39722
 C231 C -0.13544 1.22793 -0.38080
 C232 C -0.12588 1.16523 -0.32140
 C233 C -0.08503 1.17291 -0.30368
 H234 H -0.14600 1.12135 -0.29299
 H235 H -0.04222 1.25791 -0.34936
 H236 H -0.09984 1.32007 -0.43945
 N237 N 0.67092 0.67892 -0.08382
 N238 N 0.69916 0.70999 -0.14660
 C239 C 0.68988 0.69766 -0.24972
 C240 C 0.65395 0.65895 -0.25316
 C241 C 0.64285 0.64839 -0.14644
 H242 H 0.63742 0.64323 -0.32327
 H243 H 0.67016 0.68133 0.00009
 H244 H 0.72380 0.74022 -0.11908
 N245 N 0.16198 1.20155 -0.07631
 N246 N 0.19101 1.23285 -0.14574
 C247 C 0.19984 1.18138 -0.22594
 C248 C 0.17748 1.11624 -0.20883
 C249 C 0.15346 1.13201 -0.11597
 H250 H 0.17409 1.06921 -0.26552
 H251 H 0.14525 1.23221 -0.01587
 H252 H 0.20067 1.28906 -0.14054
 N253 N 0.42251 0.23831 -0.31980
 N254 N 0.39150 0.20792 -0.36791
 C255 C 0.36006 0.25789 -0.35963
 C256 C 0.37134 0.32262 -0.30376
 C257 C 0.41112 0.30787 -0.27988
 H258 H 0.35310 0.37311 -0.28292
 H259 H 0.45064 0.21116 -0.31303
 H260 H 0.39211 0.15426 -0.40615
 N261 N -0.08924 0.78728 -0.34830
 N262 N -0.12117 0.76136 -0.39652
 C263 C -0.15254 0.81042 -0.37640
 C264 C -0.14008 0.87069 -0.31223
 C265 C -0.09961 0.85333 -0.29603
 H266 H -0.15795 0.91908 -0.28042
 H267 H -0.06110 0.75908 -0.34970
 H268 H -0.12127 0.71078 -0.44255
 N269 N 0.31279 0.59712 0.08197
 N270 N 0.28197 0.62056 0.14659
 C271 C 0.29571 0.66968 0.22072
 C272 C 0.33709 0.67790 0.20278
 C273 C 0.34688 0.62982 0.11508
 H274 H 0.35780 0.70608 0.25513
 H275 H 0.31086 0.55480 0.02198
 H276 H 0.25268 0.59909 0.14433
 N277 N -0.13907 1.26334 0.09014
 N278 N -0.16836 1.29609 0.16201
 C279 C -0.18338 1.24019 0.22313
 C280 C -0.16534 1.17116 0.18989
 C281 C -0.13724 1.18835 0.10843
 H282 H -0.16726 1.11807 0.23166
 H283 H -0.11825 1.29390 0.04353
 H284 H -0.17360 1.35458 0.17338
 N285 N 0.59167 0.28897 0.33786
 N286 N 0.62339 0.26274 0.38668
 C287 C 0.65407 0.31147 0.37289
 C288 C 0.64147 0.37170 0.31204
 C289 C 0.60160 0.35466 0.29103
 H290 H 0.65903 0.41942 0.28450
 H291 H 0.56404 0.26101 0.33466
 H292 H 0.62389 0.21206 0.42843
 N293 N 0.07435 0.76251 0.33132
 N294 N 0.10411 0.72982 0.38160
 C295 C 0.13747 0.77242 0.37001
 C296 C 0.12868 0.83499 0.30922
 C297 C 0.08828 0.82630 0.28606
 H298 H 0.14890 0.87966 0.28417
 H299 H 0.04524 0.74056 0.32679
 H300 H 0.10142 0.67931 0.42330
   
