data_POSCAR
  _audit_creation_date              2014-09-24
  _audit_creation_method            'ToBaCCo'
  _symmetry_space_group_name_H-M    'P1'
  _symmetry_Int_Tables_number       1
  _symmetry_cell_setting            triclinic
  loop_
  _symmetry_equiv_pos_as_xyz
 x,y,z
_cell_length_a 42.4175
_cell_length_b 43.6358
_cell_length_c 42.5556
_cell_angle_alpha 89.681400
_cell_angle_beta 90.146900
_cell_angle_gamma 90.150000
loop_
  _atom_site_label
  _atom_site_type_symbol
  _atom_site_fract_x
  _atom_site_fract_y
  _atom_site_fract_z
N1 N 0.27329 0.22057 0.19255
 N2 N 0.26151 0.24604 0.18085
 C3 C 0.27839 0.25443 0.15546
 C4 C 0.30175 0.23291 0.15083
 C5 C 0.29777 0.21168 0.17476
 H6 H 0.27413 0.27471 0.14137
 H7 H 0.31221 0.19179 0.17944
 Cu8 Cu 0.22557 0.26622 0.19989
 Cu9 Cu 0.25751 0.20205 0.23110
 Cu10 Cu 0.19681 0.23992 0.26862
 N11 N 0.19158 0.28698 0.22167
 N12 N 0.18100 0.27703 0.24885
 C13 C 0.15881 0.29637 0.25937
 C14 C 0.15502 0.31969 0.23751
 C15 C 0.17630 0.31295 0.21388
 H16 H 0.14671 0.29379 0.28153
 H17 H 0.18105 0.32641 0.19303
 N18 N 0.21566 0.20195 0.28495
 N19 N 0.23842 0.18713 0.27047
 C20 C 0.24572 0.16183 0.28726
 C21 C 0.22668 0.16080 0.31360
 C22 C 0.20793 0.18656 0.31129
 H23 H 0.26371 0.14551 0.28091
 H24 H 0.18965 0.19331 0.32745
 H25 H 0.21223 0.21901 0.22794
 H26 H 0.24173 0.24292 0.24953
 N27 N 0.71172 -0.22615 0.20529
 N28 N 0.72121 -0.25347 0.19670
 C29 C 0.70153 -0.26437 0.17451
 C30 C 0.67846 -0.24254 0.16872
 C31 C 0.68587 -0.21856 0.18871
 H32 H 0.70396 -0.28651 0.16352
 H33 H 0.67277 -0.19761 0.19188
 Cu34 Cu 0.75805 -0.27240 0.21559
 Cu35 Cu 0.73209 -0.20343 0.23886
 Cu36 Cu 0.80290 -0.23209 0.26643
 N37 N 0.80056 -0.28487 0.22652
 N38 N 0.81789 -0.26944 0.24660
 C39 C 0.84578 -0.28368 0.25024
 C40 C 0.84604 -0.30948 0.23128
 C41 C 0.81686 -0.30931 0.21647
 H42 H 0.86455 -0.27560 0.26529
 H43 H 0.80776 -0.32588 0.19998
 N44 N 0.78340 -0.19463 0.28324
 N45 N 0.75623 -0.18391 0.27283
 C46 C 0.74854 -0.15886 0.28940
 C47 C 0.77205 -0.15340 0.31121
 C48 C 0.79385 -0.17648 0.30660
 H49 H 0.72738 -0.14550 0.28592
 H50 H 0.81538 -0.18015 0.31972
 H51 H 0.77599 -0.22091 0.22757
 H52 H 0.75496 -0.23931 0.26147
 N53 N 0.71582 0.22441 0.79969
 N54 N 0.72572 0.25140 0.80912
 C55 C 0.70768 0.26081 0.83316
 C56 C 0.68532 0.23843 0.83921
 C57 C 0.69126 0.21561 0.81757
 H58 H 0.71040 0.28247 0.84509
 H59 H 0.67783 0.19484 0.81407
 Cu60 Cu 0.76044 0.27238 0.78861
 Cu61 Cu 0.73311 0.20444 0.76274
 Cu62 Cu 0.80007 0.23725 0.73064
 N63 N 0.80180 0.28625 0.77524
 N64 N 0.81714 0.27274 0.75245
 C65 C 0.84466 0.28746 0.74772
 C66 C 0.84676 0.31161 0.76876
 C67 C 0.81903 0.30992 0.78595
 H68 H 0.86192 0.28081 0.73044
 H69 H 0.81153 0.32495 0.80457
 N70 N 0.77903 0.20119 0.71237
 N71 N 0.75401 0.18811 0.72509
 C72 C 0.74455 0.16480 0.70667
 C73 C 0.76438 0.16336 0.68098
 C74 C 0.78601 0.18673 0.68543
 H75 H 0.72385 0.15084 0.71075
 H76 H 0.80503 0.19313 0.66985
 H77 H 0.77752 0.22234 0.77101
 H78 H 0.75256 0.24251 0.74099
 N79 N 0.27954 -0.22325 0.80176
 N80 N 0.26681 -0.24825 0.81362
 C81 C 0.28326 -0.25684 0.83927
 C82 C 0.30733 -0.23593 0.84387
 C83 C 0.30425 -0.21487 0.81967
 H84 H 0.27806 -0.27664 0.85376
 H85 H 0.31924 -0.19529 0.81508
 Cu86 Cu 0.22977 -0.26683 0.79460
 Cu87 Cu 0.26404 -0.20416 0.76330
 Cu88 Cu 0.19785 -0.23692 0.72907
 N89 N 0.19273 -0.28498 0.77511
 N90 N 0.18030 -0.27310 0.74952
 C91 C 0.15608 -0.29076 0.74004
 C92 C 0.15306 -0.31520 0.76084
 C93 C 0.17673 -0.31059 0.78289
 H94 H 0.14226 -0.28637 0.71914
 H95 H 0.18272 -0.32544 0.80238
 N96 N 0.21907 -0.20037 0.71184
 N97 N 0.24472 -0.18830 0.72436
 C98 C 0.25492 -0.16525 0.70574
 C99 C 0.23457 -0.16262 0.68044
 C100 C 0.21210 -0.18514 0.68516
 H101 H 0.27587 -0.15172 0.70997
 H102 H 0.19289 -0.19082 0.66949
 H103 H 0.21794 -0.21815 0.76891
 H104 H 0.24374 -0.24314 0.74454
 N105 N 0.71950 -0.22002 0.80553
 N106 N 0.73077 -0.24573 0.81713
 C107 C 0.71413 -0.25358 0.84286
 C108 C 0.69103 -0.23173 0.84762
 C109 C 0.69522 -0.21072 0.82341
 H110 H 0.71857 -0.27364 0.85715
 H111 H 0.68161 -0.19024 0.81898
 Cu112 Cu 0.76573 -0.26663 0.79707
 Cu113 Cu 0.73750 -0.20038 0.76834
 Cu114 Cu 0.80254 -0.23562 0.73478
 N115 N 0.80100 -0.28712 0.77711
 N116 N 0.81618 -0.27429 0.75357
 C117 C 0.83897 -0.29342 0.74379
 C118 C 0.83775 -0.31997 0.76187
 C119 C 0.81333 -0.31499 0.78287
 H120 H 0.85410 -0.28902 0.72386
 H121 H 0.80484 -0.33057 0.80076
 N122 N 0.78476 -0.19669 0.71896
 N123 N 0.75925 -0.18401 0.73086
 C124 C 0.75104 -0.15978 0.71288
 C125 C 0.77253 -0.15685 0.68860
 C126 C 0.79358 -0.18066 0.69330
 H127 H 0.73044 -0.14584 0.71671
 H128 H 0.81284 -0.18691 0.67808
 H129 H 0.75577 -0.23944 0.74786
 H130 H 0.78228 -0.21763 0.77477
 N131 N 0.27651 0.21923 0.80402
 N132 N 0.26982 0.24800 0.80990
 C133 C 0.28700 0.25740 0.83470
 C134 C 0.30553 0.23316 0.84501
 C135 C 0.29803 0.20928 0.82496
 H136 H 0.28597 0.28019 0.84443
 H137 H 0.30754 0.18635 0.82541
 Cu138 Cu 0.23930 0.27068 0.78479
 Cu139 Cu 0.25786 0.19738 0.76883
 Cu140 Cu 0.19492 0.23254 0.73186
 N141 N 0.20081 0.28799 0.76733
 N142 N 0.18300 0.27274 0.74748
 C143 C 0.15859 0.29051 0.73863
 C144 C 0.16136 0.31849 0.75358
 C145 C 0.18843 0.31601 0.77169
 H146 H 0.14090 0.28410 0.72153
 H147 H 0.19862 0.33341 0.78661
 N148 N 0.21109 0.19211 0.71924
 N149 N 0.23577 0.17919 0.73273
 C150 C 0.24392 0.15418 0.71626
 C151 C 0.22323 0.15102 0.69126
 C152 C 0.20268 0.17547 0.69401
 H153 H 0.26434 0.14023 0.72124
 H154 H 0.18450 0.18200 0.67745
 H155 H 0.24264 0.23431 0.74173
 H156 H 0.21594 0.22104 0.77419
 N157 N 0.27925 -0.21910 0.19793
 N158 N 0.27243 -0.24810 0.19330
 C159 C 0.28907 -0.25836 0.16862
 C160 C 0.30737 -0.23444 0.15707
 C161 C 0.30033 -0.20985 0.17627
 H162 H 0.28771 -0.28147 0.15973
 H163 H 0.30968 -0.18686 0.17462
 Cu164 Cu 0.24206 -0.26978 0.21943
 Cu165 Cu 0.26075 -0.19574 0.23200
 Cu166 Cu 0.19783 -0.22949 0.27033
 N167 N 0.20358 -0.28643 0.23749
 N168 N 0.18585 -0.27039 0.25658
 C169 C 0.16116 -0.28769 0.26576
 C170 C 0.16368 -0.31616 0.25183
 C171 C 0.19088 -0.31449 0.23397
 H172 H 0.14331 -0.28051 0.28223
 H173 H 0.20082 -0.33237 0.21962
 N174 N 0.21398 -0.18845 0.28101
 N175 N 0.23867 -0.17603 0.26708
 C176 C 0.24566 -0.14935 0.28125
 C177 C 0.22429 -0.14463 0.30531
 C178 C 0.20438 -0.16984 0.30419
 H179 H 0.26510 -0.13464 0.27468
 H180 H 0.18489 -0.17482 0.31964
 H181 H 0.24557 -0.23151 0.26070
 H182 H 0.21883 -0.21978 0.22759
 N183 N 0.72030 0.22027 0.19713
 N184 N 0.73074 0.24666 0.18634
 C185 C 0.71319 0.25505 0.16131
 C186 C 0.69045 0.23275 0.15615
 C187 C 0.69576 0.21101 0.17941
 H188 H 0.71681 0.27573 0.14769
 H189 H 0.68274 0.19002 0.18329
 Cu190 Cu 0.76609 0.26745 0.20639
 Cu191 Cu 0.73963 0.19958 0.23300
 Cu192 Cu 0.80427 0.23507 0.26745
 N193 N 0.80148 0.28784 0.22676
 N194 N 0.81680 0.27476 0.25013
 C195 C 0.83943 0.29399 0.26039
 C196 C 0.83809 0.32067 0.24269
 C197 C 0.81374 0.31591 0.22154
 H198 H 0.85488 0.28945 0.28012
 H199 H 0.80527 0.33190 0.20398
 N200 N 0.78771 0.19504 0.28172
 N201 N 0.76244 0.18213 0.26932
 C202 C 0.75600 0.15609 0.28518
 C203 C 0.77828 0.15224 0.30873
 C204 C 0.79814 0.17734 0.30561
 H205 H 0.73655 0.14096 0.27984
 H206 H 0.81844 0.18264 0.31993
 H207 H 0.75745 0.23840 0.25472
 H208 H 0.78411 0.21820 0.22687
 C209 C 0.23952 0.01696 0.49987
 C210 C 0.23945 -0.01401 0.49679
 C211 C 0.23971 -0.03532 0.52421
 C212 C 0.23676 -0.02819 0.46532
 C213 C 0.23754 0.03739 0.47203
 C214 C 0.23870 0.03227 0.53078
 C215 C 0.26157 -0.03228 0.54888
 C216 C 0.26146 -0.05303 0.57409
 C217 C 0.23999 -0.07771 0.57476
 C218 C 0.21852 -0.08081 0.54973
 C219 C 0.21829 -0.05986 0.52494
 C220 C 0.26203 -0.04490 0.45310
 C221 C 0.25912 -0.05948 0.42407
 C222 C 0.23064 -0.05804 0.40718
 C223 C 0.20537 -0.04123 0.41952
 C224 C 0.20847 -0.02625 0.44828
 C225 C 0.21092 0.05589 0.46791
 C226 C 0.20804 0.07453 0.44137
 C227 C 0.23193 0.07534 0.41849
 C228 C 0.25890 0.05708 0.42299
 C229 C 0.26164 0.03820 0.44954
 C230 C 0.21192 0.03026 0.54995
 C231 C 0.20976 0.04811 0.57707
 C232 C 0.23454 0.06790 0.58554
 C233 C 0.26185 0.06880 0.56693
 C234 C 0.26372 0.05144 0.53956
 H235 H 0.27892 -0.01405 0.54854
 H236 H 0.27813 -0.04957 0.59302
 H237 H 0.20202 -0.09976 0.54899
 H238 H 0.20130 -0.06293 0.50618
 H239 H 0.28390 -0.04677 0.46615
 H240 H 0.27878 -0.07268 0.41530
 H241 H 0.18865 -0.01366 0.45762
 H242 H 0.19203 0.05543 0.48500
 H243 H 0.18680 0.08798 0.43854
 H244 H 0.27806 0.05757 0.40626
 H245 H 0.28252 0.02426 0.45259
 H246 H 0.19228 0.01575 0.54328
 H247 H 0.18858 0.04682 0.59116
 H248 H 0.28121 0.08399 0.57281
 H249 H 0.28444 0.05339 0.52484
 H250 H 0.18319 -0.03984 0.40693
 C251 C 0.76984 0.01600 0.49927
 C252 C 0.76804 -0.01508 0.50023
 C253 C 0.76845 -0.03377 0.47113
 C254 C 0.76704 -0.03221 0.53038
 C255 C 0.76886 0.03493 0.52802
 C256 C 0.77264 0.03297 0.46915
 C257 C 0.74644 -0.02886 0.44695
 C258 C 0.74781 -0.04602 0.41936
 C259 C 0.77083 -0.06888 0.41560
 C260 C 0.79213 -0.07441 0.44039
 C261 C 0.79096 -0.05700 0.46780
 C262 C 0.74088 -0.05070 0.53732
 C263 C 0.74099 -0.06963 0.56389
 C264 C 0.76761 -0.07093 0.58358
 C265 C 0.79353 -0.05180 0.57699
 C266 C 0.79317 -0.03245 0.55066
 C267 C 0.79368 0.05527 0.53425
 C268 C 0.79177 0.07573 0.55924
 C269 C 0.76471 0.07664 0.57825
 C270 C 0.74027 0.05545 0.57257
 C271 C 0.74232 0.03479 0.54762
 C272 C 0.80018 0.03123 0.45107
 C273 C 0.80265 0.04784 0.42295
 C274 C 0.77739 0.06595 0.41230
 C275 C 0.74986 0.06756 0.43048
 C276 C 0.74767 0.05149 0.45886
 H277 H 0.72828 -0.01165 0.44936
 H278 H 0.73101 -0.04112 0.40082
 H279 H 0.80959 -0.09235 0.43884
 H280 H 0.80789 -0.06147 0.48634
 H281 H 0.72062 -0.05090 0.52177
 H282 H 0.72078 -0.08423 0.56831
 H283 H 0.81367 -0.01849 0.54544
 H284 H 0.81439 0.05560 0.51941
 H285 H 0.81142 0.09105 0.56340
 H286 H 0.71906 0.05562 0.58666
 H287 H 0.72275 0.01950 0.54290
 H288 H 0.81976 0.01721 0.45887
 H289 H 0.82412 0.04633 0.40934
 H290 H 0.73026 0.08170 0.42297
 H291 H 0.72635 0.05319 0.47268
 H292 H 0.81422 -0.05215 0.59194
 C293 C 0.49742 0.24109 0.01705
 C294 C 0.49630 0.24078 -0.01499
 C295 C 0.46580 0.23913 -0.03213
 C296 C 0.52510 0.24100 -0.03482
 C297 C 0.52766 0.23986 0.03482
 C298 C 0.46806 0.24122 0.03610
 C299 C 0.44614 0.21335 -0.02921
 C300 C 0.41784 0.21178 -0.04606
 C301 C 0.40861 0.23608 -0.06584
 C302 C 0.42840 0.26182 -0.06870
 C303 C 0.45690 0.26317 -0.05224
 C304 C 0.52792 0.21946 -0.05899
 C305 C 0.55425 0.21951 -0.07850
 C306 C 0.57860 0.24097 -0.07421
 C307 C 0.57570 0.26274 -0.05010
 C308 C 0.54906 0.26293 -0.03077
 C309 C 0.53363 0.26148 0.05840
 C310 C 0.56133 0.26011 0.07618
 C311 C 0.58366 0.23707 0.07072
 C312 C 0.57747 0.21512 0.04743
 C313 C 0.54968 0.21642 0.02970
 C314 C 0.44456 0.26336 0.03119
 C315 C 0.41618 0.26174 0.04771
 C316 C 0.41097 0.23834 0.07002
 C317 C 0.43528 0.21719 0.07601
 C318 C 0.46345 0.21858 0.05916
 H319 H 0.45287 0.19443 -0.01407
 H320 H 0.40304 0.19166 -0.04350
 H321 H 0.42213 0.28063 -0.08418
 H322 H 0.47198 0.28308 -0.05498
 H323 H 0.50961 0.20253 -0.06285
 H324 H 0.55510 0.20311 -0.09740
 H325 H 0.54710 0.28023 -0.01275
 H326 H 0.51666 0.27936 0.06317
 H327 H 0.56467 0.27653 0.09475
 H328 H 0.59419 0.19694 0.04299
 H329 H 0.54521 0.19900 0.01222
 H330 H 0.44796 0.28156 0.01413
 H331 H 0.39809 0.27849 0.04254
 H332 H 0.43267 0.19949 0.09371
 H333 H 0.48147 0.20158 0.06371
 H334 H 0.59405 0.27954 -0.04605
 C335 C 0.49621 0.75499 0.01677
 C336 C 0.49853 0.75513 -0.01518
 C337 C 0.46991 0.75511 -0.03546
 C338 C 0.52933 0.75705 -0.03168
 C339 C 0.52415 0.75495 0.03795
 C340 C 0.46509 0.75631 0.03263
 C341 C 0.44620 0.73289 -0.03175
 C342 C 0.41847 0.73462 -0.04943
 C343 C 0.41419 0.75817 -0.07177
 C344 C 0.43879 0.77938 -0.07656
 C345 C 0.46625 0.77793 -0.05849
 C346 C 0.53615 0.73604 -0.05555
 C347 C 0.56407 0.73847 -0.07269
 C348 C 0.58579 0.76192 -0.06622
 C349 C 0.57885 0.78320 -0.04259
 C350 C 0.55080 0.78085 -0.02550
 C351 C 0.52517 0.77569 0.06299
 C352 C 0.55001 0.77521 0.08439
 C353 C 0.57487 0.75419 0.08122
 C354 C 0.57406 0.73357 0.05585
 C355 C 0.54874 0.73371 0.03466
 C356 C 0.44562 0.78207 0.02922
 C357 C 0.41727 0.78386 0.04577
 C358 C 0.40786 0.75985 0.06586
 C359 C 0.42733 0.73400 0.06900
 C360 C 0.45582 0.73238 0.05272
 H361 H 0.44891 0.71454 -0.01473
 H362 H 0.40013 0.71784 -0.04512
 H363 H 0.43695 0.79720 -0.09423
 H364 H 0.48446 0.79503 -0.06210
 H365 H 0.51959 0.71792 -0.06116
 H366 H 0.56808 0.72261 -0.09165
 H367 H 0.54562 0.79785 -0.00782
 H368 H 0.50644 0.79220 0.06620
 H369 H 0.54934 0.79108 0.10383
 H370 H 0.59290 0.71732 0.05224
 H371 H 0.54822 0.71705 0.01590
 H372 H 0.45267 0.80095 0.01415
 H373 H 0.40272 0.80405 0.04298
 H374 H 0.42097 0.71541 0.08473
 H375 H 0.47078 0.71251 0.05588
 H376 H 0.59509 0.80173 -0.03752
 C377 C -0.01851 0.50609 0.24520
 C378 C 0.01336 0.50445 0.24775
 C379 C 0.03010 0.47474 0.24816
 C380 C 0.03367 0.53218 0.24920
 C381 C -0.03489 0.53587 0.24145
 C382 C -0.03865 0.47819 0.24575
 C383 C 0.04895 0.46696 0.27408
 C384 C 0.06810 0.44105 0.27321
 C385 C 0.06926 0.42287 0.24609
 C386 C 0.04964 0.43021 0.22046
 C387 C 0.03007 0.45591 0.22156
 C388 C 0.02996 0.55400 0.27301
 C389 C 0.05102 0.57863 0.27544
 C390 C 0.07628 0.58171 0.25425
 C391 C 0.07930 0.56021 0.22996
 C392 C 0.05834 0.53565 0.22760
 C393 C -0.02769 0.55565 0.21629
 C394 C -0.04403 0.58320 0.21250
 C395 C -0.06768 0.59128 0.23382
 C396 C -0.07506 0.57148 0.25880
 C397 C -0.05881 0.54392 0.26255
 C398 C -0.05984 0.47279 0.22105
 C399 C -0.08016 0.44757 0.22198
 C400 C -0.08006 0.42741 0.24791
 C401 C -0.05846 0.43271 0.27247
 C402 C -0.03801 0.45789 0.27143
 H403 H 0.04938 0.48144 0.29468
 H404 H 0.08308 0.43599 0.29321
 H405 H 0.04985 0.41638 0.19942
 H406 H 0.01586 0.46183 0.20124
 H407 H 0.01130 0.55150 0.29016
 H408 H 0.04812 0.59473 0.29448
 H409 H 0.06150 0.51915 0.20895
 H410 H -0.00975 0.54953 0.19940
 H411 H -0.03844 0.59811 0.19284
 H412 H -0.09378 0.57708 0.27501
 H413 H -0.06491 0.52879 0.28188
 H414 H -0.06065 0.48819 0.20101
 H415 H -0.09590 0.44389 0.20229
 H416 H -0.05793 0.41784 0.29292
 H417 H -0.02219 0.46195 0.29099
 H418 H 0.09794 0.56227 0.21276
 C419 C 0.01361 0.49967 0.75547
 C420 C -0.01827 0.49751 0.75777
 C421 C -0.03456 0.46752 0.76082
 C422 C -0.03861 0.52510 0.75757
 C423 C 0.02994 0.52974 0.75491
 C424 C 0.03416 0.47220 0.75408
 C425 C -0.05863 0.45986 0.73959
 C426 C -0.07480 0.43210 0.74259
 C427 C -0.06713 0.41162 0.76692
 C428 C -0.04339 0.41938 0.78846
 C429 C -0.02718 0.44717 0.78545
 C430 C -0.03999 0.54449 0.73122
 C431 C -0.06072 0.56938 0.73068
 C432 C -0.08033 0.57544 0.75657
 C433 C -0.07815 0.55627 0.78322
 C434 C -0.05778 0.53119 0.78353
 C435 C 0.02764 0.54995 0.78035
 C436 C 0.04569 0.57680 0.78092
 C437 C 0.06632 0.58374 0.75611
 C438 C 0.06786 0.56390 0.73030
 C439 C 0.04998 0.53703 0.72981
 C440 C 0.05863 0.46883 0.77603
 C441 C 0.07934 0.44412 0.77421
 C442 C 0.07632 0.42238 0.75009
 C443 C 0.05142 0.42556 0.72837
 C444 C 0.03059 0.45030 0.73029
 H445 H -0.06495 0.47545 0.72071
 H446 H -0.09374 0.42695 0.72637
 H447 H -0.03760 0.40400 0.80768
 H448 H -0.00918 0.45300 0.80251
 H449 H -0.02555 0.53992 0.71083
 H450 H -0.06193 0.58341 0.70966
 H451 H -0.05690 0.51649 0.80411
 H452 H 0.01255 0.54449 0.80011
 H453 H 0.04362 0.59191 0.80082
 H454 H 0.08378 0.56867 0.71101
 H455 H 0.05218 0.52159 0.71009
 H456 H 0.06170 0.48544 0.79462
 H457 H 0.09768 0.44208 0.79181
 H458 H 0.04854 0.40937 0.70939
 H459 H 0.01211 0.45273 0.71285
 H460 H -0.09211 0.56055 0.80396
 C461 C 0.33524 0.26045 0.11138
 C462 C 0.32625 0.23317 0.12629
 C463 C 0.34199 0.20615 0.11753
 C464 C 0.36851 0.20745 0.09772
 C465 C 0.38025 0.23589 0.08669
 C466 C 0.36163 0.26179 0.09220
 C467 C 0.37077 0.29273 0.10401
 C468 C 0.34187 0.29127 0.12500
 H469 H 0.33473 0.18418 0.12702
 H470 H 0.38048 0.18627 0.09227
 H471 H 0.36903 0.31065 0.08542
 H472 H 0.39340 0.29246 0.11727
 H473 H 0.32355 0.30832 0.11844
 H474 H 0.34769 0.29019 0.15048
 C475 C 0.63250 0.78076 0.14384
 C476 C 0.65227 0.75547 0.14854
 C477 C 0.64393 0.72798 0.13309
 C478 C 0.61839 0.72707 0.11181
 C479 C 0.60082 0.75375 0.10491
 C480 C 0.60772 0.77991 0.12257
 C481 C 0.61343 0.81203 0.11178
 C482 C 0.64061 0.81306 0.13500
 H483 H 0.65720 0.70716 0.13695
 H484 H 0.61293 0.70556 0.10050
 H485 H 0.59379 0.82761 0.11814
 H486 H 0.62107 0.81337 0.08683
 H487 H 0.63649 0.82929 0.15459
 H488 H 0.66408 0.81506 0.12357
 C489 C 0.64339 0.21345 -0.12803
 C490 C 0.65910 0.23972 -0.13810
 C491 C 0.64776 0.26778 -0.12592
 C492 C 0.62174 0.26840 -0.10495
 C493 C 0.60638 0.24097 -0.09537
 C494 C 0.61859 0.21399 -0.10787
 C495 C 0.61602 0.17990 -0.10670
 C496 C 0.64405 0.17939 -0.12955
 H497 H 0.65846 0.28927 -0.13296
 H498 H 0.61339 0.29040 -0.09687
 H499 H 0.59388 0.17114 -0.11743
 H500 H 0.62173 0.17049 -0.08304
 H501 H 0.63771 0.17063 -0.15322
 H502 H 0.66590 0.16969 -0.11906
 C503 C 0.33947 0.73643 -0.11567
 C504 C 0.33128 0.76372 -0.13097
 C505 C 0.34715 0.79065 -0.12187
 C506 C 0.37306 0.78924 -0.10118
 C507 C 0.38409 0.76076 -0.08963
 C508 C 0.36530 0.73496 -0.09566
 C509 C 0.37436 0.70392 -0.10711
 C510 C 0.34604 0.70553 -0.12899
 H511 H 0.34043 0.81263 -0.13169
 H512 H 0.38509 0.81036 -0.09539
 H513 H 0.37189 0.68606 -0.08855
 H514 H 0.39732 0.70399 -0.11966
 H515 H 0.32731 0.68864 -0.12295
 H516 H 0.35253 0.70649 -0.15429
 C517 C 0.11909 0.35415 0.26806
 C518 C 0.13457 0.34705 0.23997
 C519 C 0.13104 0.36778 0.21460
 C520 C 0.11009 0.39267 0.21659
 C521 C 0.09236 0.39761 0.24407
 C522 C 0.09878 0.37894 0.27010
 C523 C 0.07644 0.36212 0.29099
 C524 C 0.09849 0.33486 0.28871
 H525 H 0.14337 0.36425 0.19272
 H526 H 0.10731 0.40764 0.19640
 H527 H 0.05310 0.35815 0.27973
 H528 H 0.07555 0.37215 0.31492
 H529 H 0.08796 0.31505 0.27608
 H530 H 0.11008 0.32913 0.31144
 C531 C 0.13169 0.63696 0.78234
 C532 C 0.13227 0.65971 0.75890
 C533 C 0.11196 0.65549 0.73281
 C534 C 0.09037 0.63092 0.73200
 C535 C 0.08786 0.61036 0.75751
 C536 C 0.10995 0.61315 0.78179
 C537 C 0.10581 0.61378 0.81662
 C538 C 0.12980 0.63966 0.81727
 H539 H 0.11220 0.67122 0.71310
 H540 H 0.07497 0.62851 0.71181
 H541 H 0.11440 0.59243 0.82811
 H542 H 0.08200 0.62140 0.82398
 H543 H 0.15221 0.63304 0.82904
 H544 H 0.11974 0.66192 0.82487
 C545 C -0.10277 0.66938 0.24733
 C546 C -0.12972 0.66883 0.22805
 C547 C -0.13157 0.64501 0.20562
 C548 C -0.10981 0.62068 0.20603
 C549 C -0.08594 0.61949 0.22896
 C550 C -0.08161 0.64519 0.24791
 C551 C -0.07586 0.64792 0.28234
 C552 C -0.09917 0.67432 0.28194
 H553 H -0.15062 0.64404 0.18872
 H554 H -0.11309 0.60172 0.19001
 H555 H -0.05132 0.65525 0.28766
 H556 H -0.08439 0.62780 0.29601
 H557 H -0.08796 0.69674 0.28734
 H558 H -0.12120 0.66931 0.29515
 C559 C -0.10341 0.33425 0.75051
 C560 C -0.12874 0.33322 0.77172
 C561 C -0.12871 0.35544 0.79589
 C562 C -0.10704 0.37998 0.79554
 C563 C -0.08517 0.38304 0.77096
 C564 C -0.08240 0.35865 0.75001
 C565 C -0.07904 0.35788 0.71517
 C566 C -0.10224 0.33125 0.71552
 H567 H -0.14630 0.35508 0.81422
 H568 H -0.10898 0.39775 0.81311
 H569 H -0.05491 0.35110 0.70788
 H570 H -0.08856 0.37853 0.70315
 H571 H -0.09139 0.30929 0.70810
 H572 H -0.12514 0.33675 0.70406
 C573 C 0.20933 0.14265 0.36660
 C574 C 0.22572 0.13725 0.33870
 C575 C 0.24058 0.10855 0.33548
 C576 C 0.24179 0.08772 0.36093
 C577 C 0.22834 0.09524 0.39023
 C578 C 0.21067 0.12226 0.39162
 C579 C 0.21161 0.14738 0.41526
 C580 C 0.21016 0.16978 0.38785
 H581 H 0.25216 0.10251 0.31375
 H582 H 0.25404 0.06623 0.35782
 H583 H 0.23429 0.14823 0.42839
 H584 H 0.19010 0.14775 0.43011
 H585 H 0.23199 0.18369 0.38507
 H586 H 0.18782 0.18301 0.38704
 C587 C 0.74382 0.11588 0.65488
 C588 C 0.76131 0.14310 0.65342
 C589 C 0.77543 0.15071 0.62445
 C590 C 0.77532 0.12973 0.59945
 C591 C 0.76143 0.10044 0.60291
 C592 C 0.74395 0.09507 0.63030
 C593 C 0.74415 0.06821 0.65216
 C594 C 0.74401 0.09098 0.67908
 H595 H 0.78751 0.17238 0.62133
 H596 H 0.78710 0.13617 0.57786
 H597 H 0.76629 0.05470 0.65068
 H598 H 0.72206 0.05455 0.65055
 H599 H 0.76605 0.09070 0.69328
 H600 H 0.72182 0.09040 0.69292
 C601 C 0.21137 -0.13778 0.63291
 C602 C 0.23725 -0.14226 0.65275
 C603 C 0.26591 -0.12799 0.64434
 C604 C 0.26732 -0.10756 0.61856
 C605 C 0.23997 -0.10063 0.60084
 C606 C 0.21266 -0.11745 0.60784
 C607 C 0.17978 -0.10659 0.61333
 C608 C 0.17837 -0.12890 0.64081
 H609 H 0.28710 -0.13210 0.65793
 H610 H 0.28969 -0.09690 0.61303
 H611 H 0.16360 -0.11289 0.59381
 H612 H 0.17886 -0.08215 0.62053
 H613 H 0.16143 -0.14801 0.63702
 H614 H 0.17658 -0.11745 0.66402
 C615 C 0.74575 -0.11262 0.34284
 C616 C 0.77309 -0.12853 0.33462
 C617 C 0.80138 -0.12009 0.34977
 C618 C 0.80112 -0.09934 0.37503
 C619 C 0.77247 -0.08687 0.38603
 C620 C 0.74544 -0.09243 0.36792
 C621 C 0.71324 -0.10234 0.37784
 C622 C 0.71356 -0.12445 0.35039
 H623 H 0.82351 -0.13042 0.34306
 H624 H 0.82320 -0.09416 0.38666
 H625 H 0.69558 -0.08375 0.37502
 H626 H 0.71320 -0.11398 0.40116
 H627 H 0.69610 -0.11851 0.33183
 H628 H 0.71367 -0.14895 0.35773
 C629 C 0.66331 0.74412 -0.10620
 C630 C 0.66710 0.76884 -0.12702
 C631 C 0.64677 0.79413 -0.12295
 C632 C 0.62111 0.79241 -0.10194
 C633 C 0.61494 0.76524 -0.08491
 C634 C 0.63780 0.74220 -0.08603
 C635 C 0.63589 0.70814 -0.08884
 C636 C 0.66390 0.71026 -0.11103
 H637 H 0.64955 0.81466 -0.13703
 H638 H 0.60493 0.81152 -0.10062
 H639 H 0.61433 0.69984 -0.10091
 H640 H 0.64157 0.69632 -0.06633
 H641 H 0.65808 0.70373 -0.13560
 H642 H 0.68557 0.69957 -0.10120
 C643 C 0.34544 0.20635 -0.12068
 C644 C 0.32841 0.23284 -0.12853
 C645 C 0.33430 0.25928 -0.11038
 C646 C 0.35933 0.25999 -0.08853
 C647 C 0.37884 0.23420 -0.08406
 C648 C 0.36983 0.20700 -0.09886
 C649 C 0.38927 0.18491 -0.11702
 C650 C 0.36272 0.18422 -0.14102
 H651 H 0.32096 0.28005 -0.11422
 H652 H 0.36437 0.28118 -0.07636
 H653 H 0.39232 0.16279 -0.10431
 H654 H 0.41138 0.19534 -0.12620
 H655 H 0.35068 0.16159 -0.14220
 H656 H 0.36942 0.19428 -0.16414
 C657 C 0.34634 0.79131 0.12096
 C658 C 0.32941 0.76508 0.13004
 C659 C 0.33456 0.73812 0.11256
 C660 C 0.35891 0.73672 0.09013
 C661 C 0.37847 0.76234 0.08442
 C662 C 0.37007 0.78997 0.09860
 C663 C 0.39018 0.81259 0.11556
 C664 C 0.36435 0.81404 0.14015
 H665 H 0.32120 0.71749 0.11736
 H666 H 0.36346 0.71517 0.07853
 H667 H 0.39299 0.83431 0.10207
 H668 H 0.41249 0.80241 0.12451
 H669 H 0.35250 0.83672 0.14088
 H670 H 0.37169 0.80469 0.16340
 C671 C 0.66043 0.25769 0.11181
 C672 C 0.66597 0.23221 0.13119
 C673 C 0.64687 0.20610 0.12608
 C674 C 0.62079 0.20739 0.10546
 C675 C 0.61282 0.23493 0.08986
 C676 C 0.63441 0.25921 0.09210
 C677 C 0.63073 0.29289 0.09710
 C678 C 0.65938 0.29117 0.11862
 H679 H 0.65104 0.18507 0.13898
 H680 H 0.60576 0.18742 0.10323
 H681 H 0.60911 0.29919 0.11014
 H682 H 0.63513 0.30634 0.07528
 H683 H 0.65390 0.29600 0.14365
 H684 H 0.68021 0.30355 0.10904
 C685 C -0.11820 0.65244 0.73794
 C686 C -0.14414 0.65330 0.75831
 C687 C -0.15167 0.62582 0.77443
 C688 C -0.13186 0.60005 0.77272
 C689 C -0.10351 0.60107 0.75541
 C690 C -0.09841 0.62712 0.73668
 C691 C -0.06960 0.64648 0.73316
 C692 C -0.09112 0.67421 0.73456
 H693 H -0.17246 0.62412 0.78899
 H694 H -0.13847 0.57972 0.78582
 H695 H -0.05829 0.64355 0.70984
 H696 H -0.05339 0.64454 0.75366
 H697 H -0.09204 0.68720 0.71203
 H698 H -0.08738 0.68844 0.75585
 C699 C -0.11494 0.34866 0.26441
 C700 C -0.14304 0.34893 0.24709
 C701 C -0.15288 0.37730 0.23447
 C702 C -0.13312 0.40327 0.23591
 C703 C -0.10285 0.40145 0.24974
 C704 C -0.09537 0.37420 0.26564
 C705 C -0.06623 0.35517 0.26431
 C706 C -0.08763 0.32720 0.26297
 H707 H -0.17533 0.37933 0.22252
 H708 H -0.14122 0.42439 0.22521
 H709 H -0.05228 0.35650 0.28641
 H710 H -0.05254 0.35903 0.24239
 H711 H -0.08594 0.31247 0.28430
 H712 H -0.08636 0.31477 0.24026
 C713 C 0.11119 0.34361 0.73562
 C714 C 0.14125 0.34584 0.74912
 C715 C 0.15179 0.37530 0.75775
 C716 C 0.13124 0.40058 0.75663
 C717 C 0.09949 0.39700 0.74715
 C718 C 0.09086 0.36850 0.73473
 C719 C 0.06272 0.34894 0.74138
 C720 C 0.08496 0.32167 0.74237
 H721 H 0.17551 0.37875 0.76647
 H722 H 0.14001 0.42262 0.76432
 H723 H 0.04607 0.34831 0.72119
 H724 H 0.05180 0.35407 0.76449
 H725 H 0.08105 0.30539 0.72273
 H726 H 0.08696 0.31092 0.76604
 C727 C 0.11253 0.65998 0.26891
 C728 C 0.14293 0.65693 0.25656
 C729 C 0.15307 0.62712 0.24902
 C730 C 0.13188 0.60225 0.24985
 C731 C 0.09994 0.60662 0.25796
 C732 C 0.09158 0.63546 0.26955
 C733 C 0.06415 0.65536 0.26146
 C734 C 0.08707 0.68221 0.26072
 H735 H 0.17697 0.62310 0.24126
 H736 H 0.14030 0.57991 0.24288
 H737 H 0.04689 0.65670 0.28101
 H738 H 0.05383 0.64995 0.23808
 H739 H 0.08293 0.69898 0.27982
 H740 H 0.09007 0.69242 0.23690
 C741 C 0.74342 -0.12013 0.65322
 C742 C 0.77125 -0.13559 0.66131
 C743 C 0.79732 -0.13186 0.64105
 C744 C 0.79618 -0.11103 0.61564
 C745 C 0.76885 -0.09360 0.60964
 C746 C 0.74221 -0.09994 0.62789
 C747 C 0.72097 -0.07837 0.64463
 C748 C 0.72238 -0.10028 0.67247
 H749 H 0.81906 -0.14409 0.64539
 H750 H 0.81687 -0.10823 0.60105
 H751 H 0.69725 -0.07717 0.63355
 H752 H 0.73231 -0.05583 0.64928
 H753 H 0.69936 -0.11149 0.67750
 H754 H 0.73459 -0.09045 0.69328
 C755 C 0.19827 -0.11437 0.34837
 C756 C 0.22376 -0.11889 0.32797
 C757 C 0.24925 -0.09807 0.33026
 C758 C 0.25084 -0.07674 0.35498
 C759 C 0.22670 -0.07535 0.37762
 C760 C 0.19959 -0.09287 0.37227
 C761 C 0.18148 -0.11268 0.39447
 C762 C 0.18022 -0.13642 0.36853
 H763 H 0.26911 -0.09953 0.31447
 H764 H 0.27171 -0.06259 0.35737
 H765 H 0.15804 -0.10283 0.40009
 H766 H 0.19570 -0.12002 0.41516
 H767 H 0.15596 -0.14046 0.35951
 H768 H 0.19385 -0.15747 0.37429
 C769 C 0.80644 0.12292 0.35174
 C770 C 0.78007 0.12691 0.33214
 C771 C 0.75502 0.10575 0.33576
 C772 C 0.75481 0.08456 0.36086
 C773 C 0.77989 0.08360 0.38262
 C774 C 0.80645 0.10154 0.37608
 C775 C 0.82495 0.12187 0.39730
 C776 C 0.82480 0.14543 0.37087
 H777 H 0.73452 0.10675 0.32065
 H778 H 0.73429 0.07010 0.36422
 H779 H 0.84878 0.11250 0.40239
 H780 H 0.81133 0.12912 0.41827
 H781 H 0.84864 0.14980 0.36100
 H782 H 0.81101 0.16630 0.37660
 C783 C 0.25430 0.11522 0.65734
 C784 C 0.22577 0.12977 0.66436
 C785 C 0.20055 0.12577 0.64304
 C786 C 0.20325 0.10562 0.61744
 C787 C 0.23135 0.08920 0.61232
 C788 C 0.25706 0.09572 0.63183
 C789 C 0.27808 0.07420 0.64928
 C790 C 0.27497 0.09537 0.67731
 H791 H 0.17836 0.13741 0.64660
 H792 H 0.18327 0.10268 0.60185
 H793 H 0.30227 0.07379 0.63933
 H794 H 0.26710 0.05130 0.65309
 H795 H 0.29747 0.10696 0.68358
 H796 H 0.26212 0.08477 0.69739
   
