data_POSCAR
  _audit_creation_date              2014-09-24
  _audit_creation_method            'ToBaCCo'
  _symmetry_space_group_name_H-M    'P1'
  _symmetry_Int_Tables_number       1
  _symmetry_cell_setting            triclinic
  loop_
  _symmetry_equiv_pos_as_xyz
 x,y,z
_cell_length_a 49.2480
_cell_length_b 45.4985
_cell_length_c 48.7516
_cell_angle_alpha 90.748300
_cell_angle_beta 90.189400
_cell_angle_gamma 87.361800
loop_
  _atom_site_label
  _atom_site_type_symbol
  _atom_site_fract_x
  _atom_site_fract_y
  _atom_site_fract_z
C1 C 0.24944 0.49806 0.99379
 C2 C 0.76351 0.50315 0.00024
 C3 C -0.01381 0.24611 0.49604
 C4 C 1.00008 0.75472 0.50007
 C5 C 0.48854 0.00942 0.25572
 C6 C 0.49670 -0.00749 0.74726
 C7 C 0.29161 0.01639 0.47349
 H8 H 0.29220 0.03278 0.48972
 C9 C 0.31073 0.01619 0.45240
 H10 H 0.32605 0.03251 0.45263
 C11 C 0.27185 -0.02584 0.45452
 H12 H 0.25721 -0.04270 0.45577
 C13 C 0.29054 -0.02683 0.43304
 H14 H 0.28953 -0.04404 0.41757
 N15 N 0.27261 -0.00435 0.47413
 C16 C 0.20859 0.03311 0.52721
 H17 H 0.20770 0.01565 0.54199
 C18 C 0.18958 0.05680 0.52826
 H19 H 0.17413 0.05762 0.54404
 C20 C 0.22910 0.05261 0.48790
 H21 H 0.24398 0.05044 0.47169
 C22 C 0.21069 0.07694 0.48842
 H23 H 0.21157 0.09335 0.47259
 Zn24 Zn 0.24951 -0.00397 0.50511
 N25 N 0.22758 0.03122 0.50702
 C26 C 0.27519 0.01456 0.55465
 N27 N 0.27269 -0.00755 0.53590
 C28 C 0.28877 -0.03257 0.53695
 C29 C 0.30831 -0.03621 0.55747
 C30 C 0.29497 0.01209 0.57529
 C31 C 0.20902 -0.03775 0.48136
 C32 C 0.19145 -0.06091 0.47903
 C33 C 0.20779 -0.07870 0.52283
 C34 C 0.22528 -0.05543 0.52416
 N35 N 0.22590 -0.03577 0.50339
 H36 H 0.26258 0.03455 0.55300
 H37 H 0.28659 -0.04960 0.52151
 H38 H 0.32057 -0.05656 0.55797
 H39 H 0.29743 0.03044 0.58928
 H40 H 0.20938 -0.02140 0.46547
 H41 H 0.17819 -0.06221 0.46134
 H42 H 0.20769 -0.09426 0.53945
 H43 H 0.23811 -0.05297 0.54196
 C44 C 0.19027 0.07886 0.50845
 C45 C 0.31046 -0.00575 0.43189
 C46 C 0.19075 -0.08175 0.49995
 C47 C 0.31215 -0.01344 0.57666
 C48 C 0.69480 0.02887 0.53041
 H49 H 0.69609 0.04654 0.51589
 C50 C 0.67502 0.03055 0.55079
 H51 H 0.66144 0.04991 0.55209
 C52 C 0.71099 -0.01788 0.54597
 H53 H 0.72470 -0.03697 0.54356
 C54 C 0.69130 -0.01722 0.56661
 H55 H 0.68999 -0.03598 0.57990
 N56 N 0.71223 0.00494 0.52833
 C57 C 0.77775 0.03896 0.47981
 H58 H 0.77791 0.02406 0.46233
 C59 C 0.79651 0.06105 0.48141
 H60 H 0.81115 0.06302 0.46509
 C61 C 0.75933 0.05357 0.52299
 H62 H 0.74525 0.05021 0.53946
 C63 C 0.77791 0.07570 0.52556
 H64 H 0.77761 0.08954 0.54382
 Zn65 Zn 0.73604 0.00396 0.49805
 N66 N 0.75952 0.03577 0.50034
 C67 C 0.71502 0.02929 0.44868
 N68 N 0.71377 0.00657 0.46643
 C69 C 0.69463 -0.01386 0.46361
 C70 C 0.67568 -0.01192 0.44230
 C71 C 0.69648 0.03204 0.42701
 C72 C 0.77675 -0.03390 0.51822
 C73 C 0.79580 -0.05752 0.51822
 C74 C 0.77571 -0.07567 0.47637
 C75 C 0.75716 -0.05144 0.47699
 N76 N 0.75816 -0.03108 0.49765
 H77 H 0.72989 0.04575 0.45164
 H78 H 0.69369 -0.03129 0.47841
 H79 H 0.66015 -0.02795 0.44094
 H80 H 0.69777 0.05028 0.41310
 H81 H 0.77720 -0.01725 0.53424
 H82 H 0.81084 -0.05910 0.53445
 H83 H 0.77525 -0.09129 0.45943
 H84 H 0.74255 -0.04852 0.46057
 C85 C 0.79688 0.07955 0.50465
 C86 C 0.67274 0.00709 0.56896
 C87 C 0.79566 -0.07852 0.49689
 C88 C 0.67629 0.01142 0.42377
 C89 C 0.50038 0.20827 1.03232
 H90 H 0.48532 0.20649 1.01625
 C91 C 0.49988 0.18982 1.05489
 H92 H 0.48442 0.17371 1.05597
 C93 C 0.53947 0.23074 1.04971
 H94 H 0.55507 0.24643 1.04740
 C95 C 0.53978 0.21261 1.07265
 H96 H 0.55543 0.21490 1.08809
 N97 N 0.51977 0.22843 1.03027
 C98 C 0.48485 0.29603 0.97695
 H99 H 0.50068 0.29639 0.96164
 C100 C 0.46303 0.31665 0.97614
 H101 H 0.46204 0.33284 0.96004
 C102 C 0.46742 0.27513 1.01717
 H103 H 0.46958 0.25948 1.03357
 C104 C 0.44503 0.29514 1.01694
 H105 H 0.43010 0.29473 1.03318
 Zn106 Zn 0.51882 0.25153 0.99830
 N107 N 0.48680 0.27602 0.99739
 C108 C 0.49920 0.22454 0.94951
 N109 N 0.51985 0.22514 0.96808
 C110 C 0.54142 0.20548 0.96667
 C111 C 0.54294 0.18416 0.94588
 C112 C 0.49976 0.20334 0.92848
 C113 C 0.55079 0.29734 1.01704
 C114 C 0.57149 0.31730 1.01605
 C115 C 0.58732 0.29392 0.97393
 C116 C 0.56639 0.27439 0.97575
 N117 N 0.54869 0.27633 0.99713
 H118 H 0.48195 0.23998 0.95137
 H119 H 0.55740 0.20628 0.98191
 H120 H 0.56046 0.16891 0.94504
 H121 H 0.48274 0.20261 0.91441
 H122 H 0.53608 0.29884 1.03349
 H123 H 0.57254 0.33420 1.03181
 H124 H 0.60122 0.29195 0.95677
 H125 H 0.56403 0.25812 0.95972
 C126 C 0.44298 0.31654 0.99652
 C127 C 0.51973 0.19188 1.07548
 C128 C 0.58997 0.31587 0.99414
 C129 C 0.52174 0.18259 0.92662
 C130 C 0.46828 0.78937 -0.02887
 H131 H 0.45256 0.78932 -0.01342
 C132 C 0.46601 0.80912 -0.05038
 H133 H 0.44809 0.82374 -0.05156
 C134 C 0.51053 0.76997 -0.04581
 H135 H 0.52808 0.75504 -0.04354
 C136 C 0.50934 0.78986 -0.06751
 H137 H 0.52617 0.79008 -0.08171
 N138 N 0.49014 0.77019 -0.02703
 C139 C 0.45595 0.70630 0.02762
 H140 H 0.47048 0.70586 0.04431
 C141 C 0.43298 0.68942 0.02893
 H142 H 0.43004 0.67580 0.04663
 C143 C 0.44260 0.72377 -0.01619
 H144 H 0.44659 0.73667 -0.03403
 C145 C 0.41951 0.70720 -0.01579
 H146 H 0.40570 0.70809 -0.03312
 Zn147 Zn 0.49114 0.74659 0.00459
 N148 N 0.46007 0.72345 0.00549
 C149 C 0.47281 0.77400 0.05507
 N150 N 0.49165 0.77321 0.03470
 C151 C 0.51183 0.79260 0.03434
 C152 C 0.51407 0.81343 0.05534
 C153 C 0.47437 0.79444 0.07662
 C154 C 0.52708 0.70102 -0.01511
 C155 C 0.54974 0.68133 -0.01431
 C156 C 0.56267 0.70325 0.02892
 C157 C 0.53987 0.72248 0.02727
 N158 N 0.52267 0.72116 0.00545
 H159 H 0.45653 0.75890 0.05469
 H160 H 0.52624 0.79182 0.01762
 H161 H 0.53014 0.82884 0.05442
 H162 H 0.45952 0.79437 0.09294
 H163 H 0.51285 0.70012 -0.03202
 H164 H 0.55274 0.66516 -0.03064
 H165 H 0.57618 0.70485 0.04638
 H166 H 0.53578 0.73816 0.04372
 C167 C 0.41440 0.68978 0.00700
 C168 C 0.48694 0.81002 -0.06984
 C169 C 0.56780 0.68221 0.00804
 C170 C 0.49529 0.81445 0.07697
 C171 C 1.04117 0.47005 0.20350
 H172 H 1.02534 0.45441 0.20475
 C173 C 1.06096 0.46673 0.18318
 H174 H 1.06047 0.44811 0.16914
 C175 C 1.06034 0.51381 0.21981
 H176 H 1.05951 0.53257 0.23367
 C177 C 1.08054 0.51139 0.19967
 H178 H 1.09509 0.52842 0.19819
 N179 N 1.04100 0.49346 0.22109
 C180 C 0.99013 0.47069 0.28959
 H181 H 0.97623 0.48981 0.28939
 C182 C 0.98899 0.45059 0.31082
 H183 H 0.97398 0.45418 0.32684
 C184 C 1.02724 0.44340 0.26941
 H185 H 1.04260 0.44116 0.25366
 C186 C 1.02657 0.42244 0.29016
 H187 H 1.04139 0.40411 0.29021
 Zn188 Zn 1.01065 0.49842 0.24459
 N189 N 1.00922 0.46701 0.26961
 C190 C 0.96070 0.47857 0.22413
 N191 N 0.97926 0.49965 0.22197
 C192 C 0.97723 0.52015 0.20191
 C193 C 0.95608 0.51969 0.18274
 C194 C 0.93931 0.47725 0.20536
 C195 C 1.03249 0.53221 0.28589
 C196 C 1.03261 0.55366 0.30656
 C197 C 0.99300 0.57762 0.28578
 C198 C 0.99340 0.55539 0.26561
 N199 N 1.01269 0.53298 0.26640
 H200 H 0.96292 0.46214 0.23986
 H201 H 0.99257 0.53631 0.20032
 H202 H 0.95528 0.53562 0.16641
 H203 H 0.92491 0.46011 0.20725
 H204 H 1.04731 0.51390 0.28625
 H205 H 1.04777 0.55196 0.32267
 H206 H 0.97684 0.59458 0.28577
 H207 H 0.97751 0.55526 0.25029
 C208 C 1.00758 0.42632 0.31146
 C209 C 1.08062 0.48794 0.18062
 C210 C 1.01226 0.57625 0.30705
 C211 C 0.93702 0.49771 0.18405
 C212 C -0.03007 0.48028 0.79257
 H213 H -0.01488 0.46237 0.79337
 C214 C -0.05085 0.48224 0.81199
 H215 H -0.05144 0.46572 0.82773
 C216 C -0.04659 0.52453 0.77202
 H217 H -0.04446 0.54135 0.75685
 C218 C -0.06771 0.52737 0.79109
 H219 H -0.08204 0.54609 0.78996
 N220 N -0.02827 0.50126 0.77315
 C221 C 0.02411 0.45879 0.71060
 H222 H 0.04024 0.47410 0.70977
 C223 C 0.02465 0.43429 0.69303
 H224 H 0.04135 0.43070 0.67880
 C225 C -0.01806 0.44570 0.72907
 H226 H -0.03493 0.45052 0.74276
 C227 C -0.01859 0.42125 0.71147
 H228 H -0.03572 0.40717 0.71198
 Zn229 Zn 0.00280 0.49858 0.75026
 N230 N 0.00314 0.46384 0.72839
 C231 C 0.05559 0.48050 0.77147
 N232 N 0.03340 0.49928 0.77387
 C233 C 0.03173 0.52011 0.79407
 C234 C 0.05286 0.52279 0.81286
 C235 C 0.07761 0.48292 0.78945
 C236 C -0.01713 0.53454 0.70748
 C237 C -0.01625 0.55668 0.68793
 C238 C 0.02684 0.57039 0.70688
 C239 C 0.02496 0.54829 0.72628
 N240 N 0.00329 0.53079 0.72613
 H241 H 0.05648 0.46380 0.75555
 H242 H 0.01374 0.53458 0.79570
 H243 H 0.05046 0.53902 0.82919
 H244 H 0.09538 0.46836 0.78653
 H245 H -0.03387 0.51996 0.70749
 H246 H -0.03240 0.55908 0.67289
 H247 H 0.04440 0.58387 0.70701
 H248 H 0.04121 0.54464 0.74096
 C249 C 0.00299 0.41534 0.69321
 C250 C -0.06988 0.50619 0.81160
 C251 C 0.00616 0.57462 0.68727
 C252 C 0.07647 0.50432 0.81059
 C253 C 0.02739 0.17136 0.49251
 C254 C 0.05420 0.17946 0.49783
 C255 C 0.05905 0.20985 0.49936
 C256 C 0.03721 0.23095 0.49840
 C257 C 0.01006 0.22248 0.49616
 C258 C 0.00601 0.19234 0.49129
 C259 C 0.08563 0.21895 0.50194
 C260 C 0.10752 0.19847 0.50296
 C261 C 0.10356 0.16790 0.50243
 C262 C 0.07633 0.15836 0.50091
 C263 C 0.07191 0.12808 0.50346
 C264 C 0.09338 0.10760 0.50629
 C265 C 0.12012 0.11629 0.50624
 C266 C 0.12577 0.14647 0.50394
 C267 C 0.15345 0.15371 0.50287
 C268 C 0.17437 0.13187 0.50435
 C269 C 0.16843 0.10230 0.50736
 C270 C 0.14126 0.09474 0.50833
 H271 H 0.02234 0.14894 0.48829
 H272 H 0.04123 0.25414 0.50005
 H273 H -0.01367 0.18437 0.48604
 H274 H 0.08959 0.24218 0.50303
 H275 H 0.12735 0.20732 0.50507
 H276 H 0.05189 0.11954 0.50430
 H277 H 0.08897 0.08460 0.50836
 H278 H 0.15959 0.17592 0.50026
 H279 H 0.19529 0.13813 0.50330
 H280 H 0.13655 0.07177 0.51001
 C281 C 0.71278 0.56158 -0.03025
 C282 C 0.69829 0.57218 -0.00684
 C283 C 0.70618 0.56040 0.01887
 C284 C 0.72782 0.53937 0.02085
 C285 C 0.74262 0.52946 -0.00239
 C286 C 0.73412 0.54043 -0.02806
 C287 C 0.69210 0.56913 0.04256
 C288 C 0.66988 0.58892 0.04135
 C289 C 0.66085 0.60109 0.01623
 C290 C 0.67577 0.59323 -0.00817
 C291 C 0.66771 0.60675 -0.03300
 C292 C 0.64544 0.62656 -0.03421
 C293 C 0.63012 0.63363 -0.01086
 C294 C 0.63749 0.62098 0.01471
 C295 C 0.62090 0.62858 0.03764
 C296 C 0.59845 0.64821 0.03527
 C297 C 0.59154 0.66097 0.01006
 C298 C 0.60744 0.65342 -0.01298
 H299 H 0.70753 0.56830 -0.05076
 H300 H 0.73281 0.53001 0.04067
 H301 H 0.74321 0.53195 -0.04687
 H302 H 0.69816 0.56030 0.06232
 H303 H 0.66036 0.59443 0.06069
 H304 H 0.67844 0.60280 -0.05199
 H305 H 0.64006 0.63635 -0.05376
 H306 H 0.62439 0.61951 0.05769
 H307 H 0.58617 0.65312 0.05329
 H308 H 0.60237 0.66329 -0.03257
 C309 C 0.95958 -0.17086 0.49146
 C310 C 0.93235 -0.17893 0.49294
 C311 C 0.92739 -0.20933 0.49302
 C312 C 0.94919 -0.23043 0.49452
 C313 C 0.97631 -0.22188 0.49666
 C314 C 0.98094 -0.19181 0.49300
 C315 C 0.90070 -0.21839 0.49194
 C316 C 0.87882 -0.19789 0.49115
 C317 C 0.88276 -0.16732 0.49228
 C318 C 0.91001 -0.15779 0.49392
 C319 C 0.91414 -0.12750 0.49764
 C320 C 0.89251 -0.10704 0.49906
 C321 C 0.86589 -0.11575 0.49650
 C322 C 0.86047 -0.14589 0.49261
 C323 C 0.83293 -0.15309 0.48916
 C324 C 0.81191 -0.13131 0.49026
 C325 C 0.81760 -0.10183 0.49512
 C326 C 0.84465 -0.09426 0.49801
 H327 H 0.96515 -0.14850 0.48849
 H328 H 0.94508 -0.25362 0.49502
 H329 H 1.00116 -0.18386 0.49100
 H330 H 0.89667 -0.24162 0.49178
 H331 H 0.85891 -0.20675 0.49058
 H332 H 0.93396 -0.11888 0.50059
 H333 H 0.89670 -0.08405 0.50226
 H334 H 0.82699 -0.17526 0.48525
 H335 H 0.79108 -0.13756 0.48770
 H336 H 0.84919 -0.07134 0.50111
 C337 C 0.28268 0.41962 1.00129
 C338 C 0.31085 0.42466 1.00255
 C339 C 0.31845 0.45426 1.00309
 C340 C 0.29888 0.47740 1.00149
 C341 C 0.27108 0.47235 0.99742
 C342 C 0.26330 0.44304 0.99916
 C343 C 0.34571 0.46096 1.00499
 C344 C 0.36595 0.43890 1.00474
 C345 C 0.35971 0.40901 1.00278
 C346 C 0.33175 0.40163 1.00311
 C347 C 0.32578 0.37159 1.00392
 C348 C 0.34636 0.34955 1.00388
 C349 C 0.37361 0.35645 1.00202
 C350 C 0.38063 0.38628 1.00086
 C351 C 0.40835 0.39216 0.99712
 C352 C 0.42820 0.36945 0.99550
 C353 C 0.42130 0.34012 0.99762
 C354 C 0.39395 0.33369 1.00096
 H355 H 0.27494 0.39786 1.00137
 H356 H 0.30592 0.49947 1.00341
 H357 H 0.24199 0.43818 0.99799
 H358 H 0.35155 0.48364 1.00612
 H359 H 0.38641 0.44608 1.00656
 H360 H 0.30530 0.36434 1.00496
 H361 H 0.34082 0.32680 1.00475
 H362 H 0.41540 0.41403 0.99465
 H363 H 0.44922 0.37489 0.99287
 H364 H 0.38849 0.31092 1.00216
 C365 C 0.91566 0.21925 0.47277
 C366 C 0.91016 0.19862 0.49328
 C367 C 0.92798 0.19693 0.51608
 C368 C 0.95149 0.21311 0.51680
 C369 C 0.95842 0.23121 0.49489
 C370 C 0.93912 0.23544 0.47376
 C371 C 0.92269 0.17856 0.53787
 C372 C 0.90033 0.16113 0.53734
 C373 C 0.88257 0.16085 0.51455
 C374 C 0.88776 0.17963 0.49197
 C375 C 0.87116 0.17785 0.46840
 C376 C 0.85038 0.15826 0.46675
 C377 C 0.84488 0.14007 0.48864
 C378 C 0.86037 0.14163 0.51316
 C379 C 0.85310 0.12359 0.53519
 C380 C 0.83226 0.10401 0.53242
 C381 C 0.81789 0.10167 0.50775
 C382 C 0.82411 0.12002 0.48602
 H383 H 0.90206 0.22366 0.45581
 H384 H 0.96533 0.21065 0.53406
 H385 H 0.94176 0.25123 0.45778
 H386 H 0.93620 0.17738 0.55547
 H387 H 0.89817 0.14727 0.55484
 H388 H 0.87435 0.19061 0.45033
 H389 H 0.83856 0.15723 0.44798
 H390 H 0.86298 0.12406 0.55491
 H391 H 0.82777 0.09012 0.54955
 H392 H 0.81268 0.11870 0.46702
 C393 C 0.29672 0.55374 -0.03659
 C394 C 0.29902 0.57522 -0.01568
 C395 C 0.28204 0.57337 0.00760
 C396 C 0.26384 0.55051 0.00977
 C397 C 0.26396 0.52743 -0.00980
 C398 C 0.27976 0.53045 -0.03358
 C399 C 0.28421 0.59359 0.02919
 C400 C 0.30429 0.61412 0.02917
 C401 C 0.32252 0.61584 0.00701
 C402 C 0.31855 0.59748 -0.01656
 C403 C 0.33454 0.60163 -0.04005
 C404 C 0.35514 0.62137 -0.03986
 C405 C 0.36090 0.63748 -0.01624
 C406 C 0.34470 0.63515 0.00756
 C407 C 0.35210 0.65141 0.03120
 C408 C 0.37460 0.66909 0.03101
 C409 C 0.39031 0.67136 0.00730
 C410 C 0.38316 0.65560 -0.01629
 H411 H 0.30897 0.55312 -0.05485
 H412 H 0.25066 0.55045 0.02739
 H413 H 0.28022 0.51348 -0.04939
 H414 H 0.27100 0.59272 0.04688
 H415 H 0.30494 0.62855 0.04684
 H416 H 0.33151 0.59011 -0.05917
 H417 H 0.36711 0.62354 -0.05829
 H418 H 0.34140 0.65035 0.05038
 H419 H 0.37967 0.68115 0.04949
 H420 H 0.39549 0.65675 -0.03459
 C421 C 0.05225 -0.19538 0.53306
 C422 C 0.07335 -0.19486 0.51358
 C423 C 0.07153 -0.21329 0.49004
 C424 C 0.04935 -0.23142 0.48640
 C425 C 0.02724 -0.22978 0.50475
 C426 C 0.02982 -0.21234 0.52864
 C427 C 0.09141 -0.21279 0.46974
 C428 C 0.11200 -0.19293 0.47133
 C429 C 0.11404 -0.17334 0.49388
 C430 C 0.09553 -0.17579 0.51617
 C431 C 0.09966 -0.15891 0.54021
 C432 C 0.12000 -0.13885 0.54176
 C433 C 0.13664 -0.13431 0.51930
 C434 C 0.13395 -0.15138 0.49496
 C435 C 0.15061 -0.14490 0.47239
 C436 C 0.16903 -0.12247 0.47410
 C437 C 0.17173 -0.10603 0.49835
 C438 C 0.15566 -0.11232 0.52096
 H439 H 0.05163 -0.18177 0.55130
 H440 H 0.04931 -0.24597 0.46874
 H441 H 0.01354 -0.21079 0.54355
 H442 H 0.09048 -0.22715 0.45187
 H443 H 0.12632 -0.19368 0.45464
 H444 H 0.08771 -0.16098 0.55848
 H445 H 0.12227 -0.12622 0.56058
 H446 H 0.14931 -0.15611 0.45286
 H447 H 0.18127 -0.11796 0.45635
 H448 H 0.15731 -0.09931 0.53965
 C449 C 0.71948 0.44364 1.03140
 C450 C 0.70582 0.43253 1.00815
 C451 C 0.71175 0.44471 0.98238
 C452 C 0.73074 0.46659 0.98021
 C453 C 0.74504 0.47674 1.00324
 C454 C 0.73832 0.46548 1.02898
 C455 C 0.69842 0.43537 0.95881
 C456 C 0.67902 0.41432 0.96013
 C457 C 0.67211 0.40153 0.98526
 C458 C 0.68604 0.41044 1.00963
 C459 C 0.67975 0.39694 1.03460
 C460 C 0.66014 0.37605 1.03595
 C461 C 0.64595 0.36765 1.01257
 C462 C 0.65172 0.38013 0.98684
 C463 C 0.63662 0.37075 0.96380
 C464 C 0.61686 0.34997 0.96632
 C465 C 0.61129 0.33773 0.99178
 C466 C 0.62595 0.34673 1.01485
 H467 H 0.71557 0.43659 1.05195
 H468 H 0.73422 0.47616 0.96035
 H469 H 0.74698 0.47412 1.04767
 H470 H 0.70294 0.44459 0.93903
 H471 H 0.66986 0.40852 0.94086
 H472 H 0.68978 0.40188 1.05365
 H473 H 0.65597 0.36641 1.05563
 H474 H 0.63927 0.37916 0.94350
 H475 H 0.60551 0.34381 0.94823
 H476 H 0.62197 0.33719 1.03462
 C477 C 0.46575 0.07140 1.20646
 C478 C 0.49058 0.08119 1.19623
 C479 C 0.51492 0.06726 1.20613
 C480 C 0.51419 0.04503 1.22578
 C481 C 0.48944 0.03632 1.23676
 C482 C 0.46529 0.04921 1.22590
 C483 C 0.53996 0.07509 1.19599
 C484 C 0.54150 0.09612 1.17577
 C485 C 0.51789 0.11049 1.16492
 C486 C 0.49204 0.10346 1.17586
 C487 C 0.46853 0.11889 1.16604
 C488 C 0.46995 0.13945 1.14540
 C489 C 0.49479 0.14558 1.13369
 C490 C 0.51920 0.13150 1.14337
 C491 C 0.54382 0.13876 1.13066
 C492 C 0.54396 0.15866 1.10910
 C493 C 0.51969 0.17203 1.09939
 C494 C 0.49522 0.16562 1.11207
 H495 H 0.44621 0.07968 1.19927
 H496 H 0.53310 0.03393 1.23199
 H497 H 0.44573 0.04169 1.23209
 H498 H 0.55867 0.06457 1.20356
 H499 H 0.56169 0.10065 1.16915
 H500 H 0.44852 0.11577 1.17401
 H501 H 0.45129 0.15048 1.13834
 H502 H 0.56333 0.12912 1.13645
 H503 H 0.56313 0.16300 1.09948
 H504 H 0.47635 0.17623 1.10499
 C505 C -0.02545 0.72112 0.56794
 C506 C -0.00578 0.69803 0.57248
 C507 C 0.01669 0.69565 0.55447
 C508 C 0.01807 0.71414 0.53180
 C509 C -0.00268 0.73558 0.52605
 C510 C -0.02369 0.73971 0.54546
 C511 C 0.03768 0.67466 0.55895
 C512 C 0.03693 0.65581 0.58103
 C513 C 0.01468 0.65670 0.59927
 C514 C -0.00742 0.67756 0.59442
 C515 C -0.03078 0.67658 0.61105
 C516 C -0.03244 0.65618 0.63187
 C517 C -0.01071 0.63642 0.63747
 C518 C 0.01344 0.63684 0.62171
 C519 C 0.03540 0.61735 0.62920
 C520 C 0.03299 0.59765 0.65065
 C521 C 0.00872 0.59654 0.66533
 C522 C -0.01304 0.61610 0.65873
 H523 H -0.04211 0.72591 0.58181
 H524 H 0.03522 0.71147 0.51794
 H525 H -0.03881 0.75753 0.54395
 H526 H 0.05494 0.67276 0.54519
 H527 H 0.05382 0.64004 0.58267
 H528 H -0.04863 0.69073 0.60786
 H529 H -0.05097 0.65595 0.64380
 H530 H 0.05487 0.61698 0.61919
 H531 H 0.05012 0.58280 0.65548
 H532 H -0.03174 0.61569 0.67039
 C533 C 0.50681 0.91338 -0.22424
 C534 C 0.49241 0.91578 -0.19912
 C535 C 0.47765 0.94263 -0.19353
 C536 C 0.47820 0.96600 -0.21178
 C537 C 0.49498 0.96465 -0.23507
 C538 C 0.50780 0.93730 -0.24197
 C539 C 0.46280 0.94647 -0.16940
 C540 C 0.46358 0.92489 -0.14965
 C541 C 0.47911 0.89833 -0.15343
 C542 C 0.49242 0.89290 -0.17917
 C543 C 0.50529 0.86491 -0.18392
 C544 C 0.50569 0.84328 -0.16396
 C545 C 0.49429 0.84900 -0.13815
 C546 C 0.48139 0.87686 -0.13235
 C547 C 0.47202 0.88251 -0.10533
 C548 C 0.47425 0.86096 -0.08538
 C549 C 0.48565 0.83285 -0.09146
 C550 C 0.49591 0.82713 -0.11795
 H551 H 0.51803 0.89356 -0.23053
 H552 H 0.46650 0.98619 -0.20704
 H553 H 0.51887 0.93427 -0.26099
 H554 H 0.45094 0.96673 -0.16540
 H555 H 0.45132 0.92953 -0.13171
 H556 H 0.51493 0.85885 -0.20310
 H557 H 0.51558 0.82203 -0.16860
 H558 H 0.46366 0.90369 -0.09864
 H559 H 0.46733 0.86664 -0.06485
 H560 H 0.50502 0.80560 -0.12297
 C561 C 0.99592 0.26991 0.42091
 C562 C 1.00044 0.30036 0.42328
 C563 C 1.00182 0.31254 0.45009
 C564 C 0.99809 0.29517 0.47317
 C565 C 0.99135 0.26546 0.47069
 C566 C 0.99181 0.25290 0.44413
 C567 C 1.00678 0.34220 0.45396
 C568 C 1.00908 0.36061 0.43179
 C569 C 1.00666 0.35002 0.40460
 C570 C 1.00347 0.31918 0.40019
 C571 C 1.00334 0.30835 0.37290
 C572 C 1.00552 0.32702 0.35071
 C573 C 1.00717 0.35731 0.35469
 C574 C 1.00746 0.36931 0.38170
 C575 C 1.00775 0.40030 0.38465
 C576 C 1.00797 0.41838 0.36183
 C577 C 1.00808 0.40642 0.33527
 C578 C 1.00800 0.37580 0.33178
 H579 H 0.99500 0.25857 0.40142
 H580 H 1.00064 0.30534 0.49311
 H581 H 0.98829 0.22973 0.44132
 H582 H 1.00845 0.35149 0.47447
 H583 H 1.01310 0.38312 0.43677
 H584 H 1.00176 0.28536 0.36793
 H585 H 1.00535 0.31767 0.33015
 H586 H 1.00706 0.41147 0.40425
 H587 H 1.00807 0.44200 0.36498
 H588 H 1.00773 0.36646 0.31121
 C589 C 0.45772 0.95354 0.20560
 C590 C 0.48088 0.93934 0.19337
 C591 C 0.50671 0.94849 0.20196
 C592 C 0.50896 0.97074 0.22193
 C593 C 0.48588 0.98358 0.23510
 C594 C 0.46024 0.97539 0.22566
 C595 C 0.53029 0.93562 0.19044
 C596 C 0.52896 0.91346 0.17076
 C597 C 0.50380 0.90330 0.16154
 C598 C 0.47933 0.91678 0.17270
 C599 C 0.45416 0.90744 0.16264
 C600 C 0.45285 0.88594 0.14230
 C601 C 0.47645 0.87238 0.13146
 C602 C 0.50228 0.88045 0.14117
 C603 C 0.52550 0.86517 0.13005
 C604 C 0.52307 0.84367 0.10965
 C605 C 0.49753 0.83650 0.09953
 C606 C 0.47427 0.85081 0.11078
 H607 H 0.43724 0.94856 0.20010
 H608 H 0.52893 0.97815 0.22723
 H609 H 0.44180 0.98616 0.23360
 H610 H 0.55010 0.94271 0.19679
 H611 H 0.54821 0.90505 0.16287
 H612 H 0.43488 0.91654 0.16983
 H613 H 0.43305 0.87978 0.13504
 H614 H 0.54589 0.86900 0.13678
 H615 H 0.54138 0.83241 0.10189
 H616 H 0.45437 0.84560 0.10306
 C617 C -0.03919 0.30560 0.54782
 C618 C -0.02018 0.30367 0.56954
 C619 C 0.00097 0.28156 0.56766
 C620 C 0.00249 0.26193 0.54510
 C621 C -0.01555 0.26521 0.52272
 C622 C -0.03685 0.28685 0.52508
 C623 C 0.02089 0.27948 0.58806
 C624 C 0.02120 0.29993 0.60948
 C625 C 0.00094 0.32279 0.61188
 C626 C -0.02102 0.32349 0.59258
 C627 C -0.04309 0.34389 0.59701
 C628 C -0.04302 0.36408 0.61859
 C629 C -0.02072 0.36533 0.63615
 C630 C 0.00173 0.34489 0.63300
 C631 C 0.02445 0.34819 0.65050
 C632 C 0.02470 0.37083 0.67014
 C633 C 0.00224 0.39053 0.67335
 C634 C -0.02054 0.38740 0.65653
 H635 H -0.05551 0.32217 0.54714
 H636 H 0.01809 0.24449 0.54525
 H637 H -0.05148 0.28980 0.50859
 H638 H 0.03694 0.26238 0.58702
 H639 H 0.03739 0.29692 0.62424
 H640 H -0.06110 0.34448 0.58440
 H641 H -0.06039 0.37939 0.62112
 H642 H 0.04273 0.33433 0.64887
 H643 H 0.04259 0.37304 0.68287
 H644 H -0.03777 0.40300 0.65860
 C645 C 0.49472 0.07289 0.77477
 C646 C 0.50725 0.06993 0.80088
 C647 C 0.51807 0.04168 0.80796
 C648 C 0.51523 0.01756 0.79030
 C649 C 0.50017 0.01999 0.76578
 C650 C 0.49170 0.04844 0.75746
 C651 C 0.53155 0.03733 0.83282
 C652 C 0.53343 0.06014 0.85167
 C653 C 0.52177 0.08843 0.84642
 C654 C 0.50940 0.09377 0.82020
 C655 C 0.49939 0.12261 0.81440
 C656 C 0.50092 0.14530 0.83365
 C657 C 0.51182 0.14011 0.85968
 C658 C 0.52218 0.11155 0.86655
 C659 C 0.53188 0.10714 0.89362
 C660 C 0.53172 0.13016 0.91272
 C661 C 0.52204 0.15850 0.90571
 C662 C 0.51208 0.16329 0.87906
 H663 H 0.48684 0.09369 0.76714
 H664 H 0.52446 -0.00353 0.79610
 H665 H 0.48233 0.05184 0.73757
 H666 H 0.54041 0.01585 0.83800
 H667 H 0.54440 0.05479 0.87020
 H668 H 0.49023 0.12847 0.79503
 H669 H 0.49298 0.16709 0.82824
 H670 H 0.53907 0.08602 0.90108
 H671 H 0.53872 0.12550 0.93336
 H672 H 0.50454 0.18512 0.87333
 C673 C 1.00292 0.73156 0.42335
 C674 C 0.99969 0.70081 0.42381
 C675 C 0.99525 0.68803 0.44964
 C676 C 0.99435 0.70527 0.47367
 C677 C 0.99975 0.73545 0.47346
 C678 C 1.00268 0.74841 0.44760
 C679 C 0.99181 0.65791 0.45160
 C680 C 0.99405 0.63974 0.42865
 C681 C 0.99942 0.65107 0.40253
 C682 C 1.00089 0.68224 0.39977
 C683 C 1.00331 0.69366 0.37312
 C684 C 1.00481 0.67526 0.35007
 C685 C 1.00497 0.64473 0.35264
 C686 C 1.00289 0.63219 0.37900
 C687 C 1.00505 0.60115 0.38082
 C688 C 1.00829 0.58346 0.35743
 C689 C 1.00935 0.59589 0.33141
 C690 C 1.00754 0.62658 0.32905
 H691 H 1.00625 0.74323 0.40467
 H692 H 0.98931 0.69457 0.49250
 H693 H 1.00545 0.77182 0.44624
 H694 H 0.98785 0.64811 0.47126
 H695 H 0.99086 0.61681 0.43204
 H696 H 1.00361 0.71691 0.36931
 H697 H 1.00638 0.68505 0.33001
 H698 H 1.00505 0.58977 0.40005
 H699 H 1.00975 0.55978 0.35969
 H700 H 1.00875 0.63628 0.30891
 C701 C 1.22578 0.49935 0.06961
 C702 C 1.19764 0.49440 0.06767
 C703 C 1.18696 0.48916 0.04119
 C704 C 1.20338 0.49027 0.01788
 C705 C 1.23094 0.49737 0.01960
 C706 C 1.24203 0.50030 0.04612
 C707 C 1.15978 0.48268 0.03782
 C708 C 1.14266 0.48152 0.06017
 C709 C 1.15195 0.48710 0.08707
 C710 C 1.17984 0.49396 0.09092
 C711 C 1.18878 0.50062 0.11775
 C712 C 1.17121 0.50053 0.14004
 C713 C 1.14409 0.49358 0.13666
 C714 C 1.13412 0.48644 0.11018
 C715 C 1.10658 0.47902 0.10794
 C716 C 1.08970 0.47934 0.13080
 C717 C 1.09946 0.48682 0.15684
 C718 C 1.12678 0.49389 0.15963
 H719 H 1.23600 0.50215 0.08897
 H720 H 1.19423 0.48482 -0.00159
 H721 H 1.26353 0.50367 0.04866
 H722 H 1.15154 0.47853 0.01755
 H723 H 1.12200 0.47661 0.05540
 H724 H 1.20926 0.50658 0.12218
 H725 H 1.17898 0.50604 0.16020
 H726 H 1.09722 0.47285 0.08888
 H727 H 1.06862 0.47420 0.12790
 H728 H 1.13463 0.49944 0.17975
 C729 C 0.56996 -0.01700 0.71879
 C730 C 0.56753 -0.00424 0.69248
 C731 C 0.54186 0.00867 0.68516
 C732 C 0.51972 0.00783 0.70298
 C733 C 0.52159 -0.00727 0.72798
 C734 C 0.54754 -0.01799 0.73627
 C735 C 0.53820 0.02246 0.66002
 C736 C 0.55922 0.02291 0.64130
 C737 C 0.58500 0.00947 0.64698
 C738 C 0.58951 -0.00360 0.67329
 C739 C 0.61575 -0.01561 0.67940
 C740 C 0.63680 -0.01510 0.66050
 C741 C 0.63249 -0.00324 0.63452
 C742 C 0.60646 0.00891 0.62725
 C743 C 0.60289 0.01955 0.60026
 C744 C 0.62434 0.01880 0.58171
 C745 C 0.65021 0.00753 0.58918
 C746 C 0.65409 -0.00364 0.61566
 H747 H 0.58886 -0.02641 0.72657
 H748 H 0.50071 0.01896 0.69709
 H749 H 0.55058 -0.02737 0.75639
 H750 H 0.51869 0.03283 0.65457
 H751 H 0.55455 0.03434 0.62257
 H752 H 0.62082 -0.02557 0.69878
 H753 H 0.65662 -0.02448 0.66619
 H754 H 0.58366 0.02805 0.59247
 H755 H 0.62046 0.02669 0.56114
 H756 H 0.67400 -0.01247 0.62171
 C757 C -0.19069 0.46890 0.94273
 C758 C -0.17916 0.49377 0.93110
 C759 C -0.18598 0.52161 0.94317
 C760 C -0.20434 0.52424 0.96515
 C761 C -0.21720 0.49964 0.97530
 C762 C -0.20898 0.47182 0.96450
 C763 C -0.17437 0.54677 0.93339
 C764 C -0.15604 0.54505 0.91180
 C765 C -0.14863 0.51791 0.89884
 C766 C -0.16070 0.49189 0.90841
 C767 C -0.15409 0.46491 0.89484
 C768 C -0.13576 0.46312 0.87327
 C769 C -0.12327 0.48805 0.86420
 C770 C -0.12957 0.51588 0.87665
 C771 C -0.11625 0.54042 0.86643
 C772 C -0.09739 0.53725 0.84515
 C773 C -0.09106 0.50963 0.83321
 C774 C -0.10432 0.48517 0.84274
 H775 H -0.18562 0.44672 0.93595
 H776 H -0.20885 0.54571 0.97438
 H777 H -0.21629 0.45189 0.97313
 H778 H -0.17948 0.56813 0.94258
 H779 H -0.14815 0.56562 0.90566
 H780 H -0.16295 0.44458 0.90019
 H781 H -0.13124 0.44185 0.86363
 H782 H -0.11956 0.56237 0.87462
 H783 H -0.08718 0.55648 0.83849
 H784 H -0.09987 0.46373 0.83340
 C785 C 0.43499 0.04073 0.30740
 C786 C 0.42364 0.01508 0.31771
 C787 C 0.43459 -0.01243 0.30801
 C788 C 0.45507 -0.01389 0.28807
 C789 C 0.46487 0.01171 0.27648
 C790 C 0.45540 0.03897 0.28756
 C791 C 0.42521 -0.03849 0.31832
 C792 C 0.40513 -0.03802 0.33820
 C793 C 0.39331 -0.01126 0.34850
 C794 C 0.40234 0.01574 0.33770
 C795 C 0.38954 0.04245 0.34695
 C796 C 0.36914 0.04292 0.36654
 C797 C 0.36068 0.01691 0.37785
 C798 C 0.37261 -0.01058 0.36910
 C799 C 0.36340 -0.03624 0.38158
 C800 C 0.34323 -0.03452 0.40163
 C801 C 0.33146 -0.00731 0.41005
 C802 C 0.34029 0.01833 0.39798
 H803 H 0.42906 0.06253 0.31468
 H804 H 0.46350 -0.03524 0.28152
 H805 H 0.46399 0.05922 0.28111
 H806 H 0.43355 -0.05960 0.31095
 H807 H 0.39911 -0.05923 0.34479
 H808 H 0.39454 0.06354 0.33913
 H809 H 0.35994 0.06398 0.37299
 H810 H 0.37156 -0.05802 0.37672
 H811 H 0.33723 -0.05467 0.41101
 H812 H 0.33116 0.03952 0.40416
 C813 C 0.21716 0.46978 0.92582
 C814 C 0.19655 0.49179 0.92098
 C815 C 0.19580 0.51699 0.93829
 C816 C 0.21302 0.51836 0.96112
 C817 C 0.23210 0.49530 0.96723
 C818 C 0.23489 0.47181 0.94817
 C819 C 0.17759 0.54061 0.93303
 C820 C 0.15994 0.53980 0.91083
 C821 C 0.15907 0.51467 0.89362
 C822 C 0.17687 0.48981 0.89947
 C823 C 0.17348 0.46339 0.88460
 C824 C 0.15326 0.46130 0.86478
 C825 C 0.13650 0.48575 0.85809
 C826 C 0.13999 0.51309 0.87158
 C827 C 0.12422 0.53778 0.86240
 C828 C 0.10448 0.53493 0.84211
 C829 C 0.09936 0.50737 0.83043
 C830 C 0.11598 0.48292 0.83823
 H831 H 0.22055 0.45112 0.91220
 H832 H 0.21124 0.53735 0.97479
 H833 H 0.25076 0.45482 0.95001
 H834 H 0.17698 0.56000 0.94621
 H835 H 0.14619 0.55872 0.90852
 H836 H 0.18532 0.44344 0.88886
 H837 H 0.15081 0.44032 0.85450
 H838 H 0.12708 0.55976 0.87007
 H839 H 0.09321 0.55460 0.83557
 H840 H 0.11263 0.46142 0.82940
 C841 C 0.54563 -0.02514 0.30111
 C842 C 0.55818 -0.00029 0.31225
 C843 C 0.54699 0.02784 0.30520
 C844 C 0.52501 0.03067 0.28687
 C845 C 0.51388 0.00587 0.27439
 C846 C 0.52376 -0.02203 0.28297
 C847 C 0.55756 0.05311 0.31664
 C848 C 0.57893 0.05120 0.33525
 C849 C 0.59091 0.02373 0.34300
 C850 C 0.58084 -0.00240 0.33073
 C851 C 0.59391 -0.02974 0.33711
 C852 C 0.61535 -0.03171 0.35563
 C853 C 0.62461 -0.00664 0.36867
 C854 C 0.61267 0.02149 0.36255
 C855 C 0.62280 0.04613 0.37667
 C856 C 0.64362 0.04279 0.39603
 C857 C 0.65519 0.01492 0.40205
 C858 C 0.64571 -0.00967 0.38803
 H859 H 0.55167 -0.04736 0.30656
 H860 H 0.51639 0.05243 0.28239
 H861 H 0.51434 -0.04178 0.27590
 H862 H 0.54910 0.07471 0.31128
 H863 H 0.58579 0.07186 0.34295
 H864 H 0.58831 -0.05019 0.32781
 H865 H 0.62463 -0.05323 0.35997
 H866 H 0.61476 0.06827 0.37376
 H867 H 0.65018 0.06214 0.40689
 H868 H 0.65472 -0.03134 0.39226
 C869 C 0.80850 0.53728 0.05647
 C870 C 0.82294 0.51240 0.06730
 C871 C 0.81767 0.48457 0.05558
 C872 C 0.79855 0.48202 0.03436
 C873 C 0.78321 0.50665 0.02475
 C874 C 0.78937 0.53442 0.03549
 C875 C 0.83161 0.45930 0.06491
 C876 C 0.85066 0.46083 0.08584
 C877 C 0.85668 0.48792 0.09842
 C878 C 0.84265 0.51418 0.08893
 C879 C 0.84884 0.54129 0.10136
 C880 C 0.86821 0.54286 0.12203
 C881 C 0.88207 0.51756 0.13146
 C882 C 0.87638 0.48966 0.12004
 C883 C 0.89076 0.46468 0.13081
 C884 C 0.91003 0.46746 0.15161
 C885 C 0.91580 0.49510 0.16252
 C886 C 0.90164 0.52009 0.15234
 H887 H 0.81168 0.55940 0.06342
 H888 H 0.79545 0.46057 0.02525
 H889 H 0.77981 0.55436 0.02737
 H890 H 0.82773 0.43796 0.05593
 H891 H 0.86042 0.44017 0.09156
 H892 H 0.83908 0.56194 0.09559
 H893 H 0.87235 0.56423 0.13079
 H894 H 0.88773 0.44258 0.12368
 H895 H 0.92089 0.44780 0.15883
 H896 H 0.90571 0.54157 0.16088
 C897 C 0.42251 0.00838 0.72240
 C898 C 0.42175 -0.00842 0.69775
 C899 C 0.44519 -0.02617 0.69092
 C900 C 0.46828 -0.02639 0.70770
 C901 C 0.46990 -0.00743 0.73060
 C902 C 0.44604 0.00857 0.73860
 C903 C 0.44579 -0.04340 0.66711
 C904 C 0.42417 -0.04223 0.64890
 C905 C 0.40077 -0.02393 0.65400
 C906 C 0.39885 -0.00803 0.67950
 C907 C 0.37417 0.00764 0.68575
 C908 C 0.35240 0.00836 0.66745
 C909 C 0.35466 -0.00552 0.64180
 C910 C 0.37908 -0.02136 0.63452
 C911 C 0.38115 -0.03325 0.60763
 C912 C 0.35957 -0.03041 0.58921
 C913 C 0.33494 -0.01591 0.59680
 C914 C 0.33272 -0.00337 0.62323
 H915 H 0.40547 0.02205 0.72953
 H916 H 0.48573 -0.04064 0.70224
 H917 H 0.44538 0.02140 0.75744
 H918 H 0.46349 -0.05752 0.66214
 H919 H 0.42623 -0.05644 0.63111
 H920 H 0.37084 0.01928 0.70491
 H921 H 0.33379 0.02048 0.67322
 H922 H 0.39951 -0.04401 0.59978
 H923 H 0.36252 -0.03918 0.56863
 H924 H 0.31391 0.00807 0.62944
   
