data_POSCAR
  _audit_creation_date              2014-09-24
  _audit_creation_method            'ToBaCCo'
  _symmetry_space_group_name_H-M    'P1'
  _symmetry_Int_Tables_number       1
  _symmetry_cell_setting            triclinic
  loop_
  _symmetry_equiv_pos_as_xyz
 x,y,z
_cell_length_a 32.3327
_cell_length_b 32.2796
_cell_length_c 32.2518
_cell_angle_alpha 89.940400
_cell_angle_beta 90.264500
_cell_angle_gamma 89.925400
loop_
  _atom_site_label
  _atom_site_type_symbol
  _atom_site_fract_x
  _atom_site_fract_y
  _atom_site_fract_z
C1 C 0.14520 0.17500 0.20768
 C2 C 0.14169 0.20259 0.17432
 C3 C 0.16965 0.20060 0.14214
 C4 C 0.20210 0.17193 0.14351
 C5 C 0.20689 0.14610 0.17740
 C6 C 0.17774 0.14723 0.20956
 C7 C 0.12131 0.16876 0.24212
 N8 N 0.13824 0.13767 0.26523
 C9 C 0.17325 0.12477 0.24561
 C10 C 0.24300 0.12413 0.17156
 N11 N 0.25971 0.13559 0.13455
 C12 C 0.23443 0.16459 0.11720
 C13 C 0.15997 0.23184 0.11481
 N14 N 0.12725 0.25315 0.13008
 C15 C 0.11565 0.23546 0.16639
 H16 H 0.09372 0.18606 0.24981
 H17 H 0.19329 0.09979 0.25559
 H18 H 0.25576 0.10131 0.19265
 H19 H 0.24016 0.18084 0.08841
 H20 H 0.17667 0.23976 0.08689
 H21 H 0.09073 0.24626 0.18591
 C22 C -0.15195 0.81999 0.21285
 C23 C -0.15155 0.79028 0.18119
 C24 C -0.18277 0.78980 0.15184
 C25 C -0.21495 0.81884 0.15393
 C26 C -0.21625 0.84722 0.18591
 C27 C -0.18453 0.84764 0.21591
 C28 C -0.12464 0.82873 0.24438
 N29 N -0.14015 0.86036 0.26748
 C30 C -0.17703 0.87191 0.25031
 C31 C -0.25069 0.87169 0.17935
 N32 N -0.27000 0.85934 0.14371
 C33 C -0.24812 0.82666 0.12840
 C34 C -0.17442 0.75788 0.12483
 N35 N -0.13915 0.73865 0.13749
 C36 C -0.12490 0.75838 0.17190
 H37 H -0.09601 0.81239 0.25066
 H38 H -0.19646 0.89700 0.26105
 H39 H -0.25976 0.89744 0.19861
 H40 H -0.25537 0.80920 0.10074
 H41 H -0.19308 0.74889 0.09839
 H42 H -0.09705 0.75023 0.18881
 C43 C -0.15368 0.17909 -0.21412
 C44 C -0.15408 0.21085 -0.18453
 C45 C -0.18673 0.21396 -0.15716
 C46 C -0.21849 0.18456 -0.15812
 C47 C -0.21837 0.15353 -0.18751
 C48 C -0.18637 0.15156 -0.21670
 C49 C -0.12593 0.16852 -0.24440
 N50 N -0.14178 0.13644 -0.26665
 C51 C -0.17888 0.12591 -0.24998
 C52 C -0.25082 0.12753 -0.17848
 N53 N -0.27052 0.14178 -0.14397
 C54 C -0.25101 0.17727 -0.13202
 C55 C -0.17970 0.24807 -0.13260
 N56 N -0.14363 0.26555 -0.14459
 C57 C -0.12740 0.24295 -0.17597
 H58 H -0.09712 0.18426 -0.25098
 H59 H -0.19849 0.10086 -0.26060
 H60 H -0.25812 0.09951 -0.19519
 H61 H -0.25772 0.19547 -0.10478
 H62 H -0.19920 0.25937 -0.10784
 H63 H -0.09867 0.24980 -0.19166
 C64 C 0.15024 0.81994 -0.20832
 C65 C 0.15432 0.78593 -0.18147
 C66 C 0.18333 0.78690 -0.14978
 C67 C 0.20915 0.82138 -0.14507
 C68 C 0.20324 0.85593 -0.16975
 C69 C 0.17350 0.85524 -0.20156
 C70 C 0.12725 0.82646 -0.24380
 N71 N 0.13554 0.86515 -0.25842
 C72 C 0.16331 0.88314 -0.23220
 C73 C 0.23292 0.88439 -0.15872
 N74 N 0.25804 0.86708 -0.12947
 C75 C 0.24349 0.82855 -0.12076
 C76 C 0.17795 0.75180 -0.12628
 N77 N 0.14642 0.72966 -0.14297
 C78 C 0.13222 0.74977 -0.17716
 H79 H 0.10615 0.80451 -0.25784
 H80 H 0.17716 0.91335 -0.23655
 H81 H 0.23786 0.91420 -0.17331
 H82 H 0.25715 0.80706 -0.09881
 H83 H 0.19414 0.74403 -0.09784
 H84 H 0.10573 0.74034 -0.19551
 C85 C 0.19372 1.16609 0.77644
 C86 C 0.22668 1.16888 0.80473
 C87 C 0.22663 1.19937 0.83475
 C88 C 0.19346 1.22728 0.83718
 C89 C 0.16065 1.22400 0.80993
 C90 C 0.16090 1.19328 0.77915
 C91 C 0.18477 1.13861 0.74510
 N92 N 0.14718 1.14832 0.72832
 C93 C 0.13249 1.18184 0.74947
 C94 C 0.13135 1.25241 0.82207
 N95 N 0.14560 1.27348 0.85592
 C96 C 0.18386 1.25793 0.86508
 C97 C 0.25993 1.19208 0.86041
 N98 N 0.28019 1.15769 0.84698
 C99 C 0.25997 1.14349 0.81273
 H100 H 0.20434 1.11312 0.73603
 H101 H 0.10320 1.19720 0.74437
 H102 H 0.10131 1.25604 0.80778
 H103 H 0.20321 1.26657 0.89105
 H104 H 0.26683 1.20887 0.88862
 H105 H 0.26736 1.11554 0.79592
 C106 C 0.81576 0.85042 0.78676
 C107 C 0.78923 0.85339 0.82088
 C108 C 0.79234 0.82499 0.85299
 C109 C 0.82144 0.79273 0.85079
 C110 C 0.84525 0.78800 0.81556
 C111 C 0.84292 0.81753 0.78372
 C112 C 0.82309 0.87624 0.75365
 N113 N 0.85424 0.85995 0.73046
 C114 C 0.86586 0.82349 0.74846
 C115 C 0.86903 0.75295 0.82092
 N116 N 0.86154 0.73734 0.85931
 C117 C 0.83274 0.76173 0.87793
 C118 C 0.76174 0.83440 0.88105
 N119 N 0.74000 0.86724 0.86623
 C120 C 0.75669 0.87941 0.82975
 H121 H 0.80723 0.90512 0.74764
 H122 H 0.89129 0.80404 0.73874
 H123 H 0.89145 0.74079 0.79924
 H124 H 0.82014 0.75661 0.90857
 H125 H 0.75445 0.81746 0.90907
 H126 H 0.74495 0.90427 0.81043
 C127 C 0.17430 0.85286 1.20581
 C128 C 0.20296 0.85386 1.17328
 C129 C 0.20526 0.82103 1.14576
 C130 C 0.17812 0.78742 1.14967
 C131 C 0.14996 0.78654 1.18178
 C132 C 0.14857 0.81910 1.21049
 C133 C 0.16589 0.87974 1.23775
 N134 N 0.13609 0.86287 1.26232
 C135 C 0.12554 0.82557 1.24568
 C136 C 0.12701 0.75101 1.17738
 N137 N 0.14031 0.73035 1.14321
 C138 C 0.17189 0.75229 1.12628
 C139 C 0.23745 0.82903 1.11919
 N140 N 0.25442 0.86599 1.12975
 C141 C 0.23340 0.88163 1.16253
 H142 H 0.18171 0.90874 1.24326
 H143 H 0.10226 0.80477 1.25750
 H144 H 0.10210 0.74116 1.19739
 H145 H 0.18820 0.74415 1.09821
 H146 H 0.24830 0.80915 1.09449
 H147 H 0.24091 0.91019 1.17843
 C148 C 0.82959 1.14324 1.20428
 C149 C 0.79807 1.14266 1.17443
 C150 C 0.79282 1.17588 1.14773
 C151 C 0.82024 1.20954 1.14966
 C152 C 0.85155 1.20988 1.17913
 C153 C 0.85553 1.17703 1.20738
 C154 C 0.83925 1.11680 1.23625
 N155 N 0.86956 1.13426 1.25981
 C156 C 0.87986 1.17116 1.24210
 C157 C 0.87398 1.24550 1.17326
 N158 N 0.85717 1.26679 1.14097
 C159 C 0.82392 1.24536 1.12665
 C160 C 0.75745 1.16837 1.12493
 N161 N 0.74156 1.13141 1.13720
 C162 C 0.76635 1.11536 1.16717
 H163 H 0.82322 1.08826 1.24343
 H164 H 0.90294 1.19251 1.25368
 H165 H 0.90107 1.25494 1.19069
 H166 H 0.80490 1.25434 1.10042
 H167 H 0.74369 1.18869 1.10196
 H168 H 0.76050 1.08686 1.18388
 O169 O 0.43893 0.92788 0.92992
 O170 O 0.39470 0.97220 0.96337
 C171 C 0.40209 0.94155 0.93870
 O172 O 0.55252 0.92903 1.07888
 O173 O 0.59988 0.96407 1.03930
 C174 C 0.59012 0.93792 1.06804
 O175 O 0.43588 0.92848 1.07006
 O176 O 0.39305 0.97125 1.03244
 C177 C 0.39950 0.94142 1.05857
 O178 O 0.55663 0.92892 0.92720
 O179 O 0.60155 0.96542 0.96843
 C180 C 0.59375 0.93889 0.93946
 Zr181 Zr 0.49805 0.95033 0.94879
 O182 O 0.50102 0.88486 0.94735
 O183 O 0.49426 0.95155 0.88325
 Zr184 Zr 0.49550 0.95062 1.05377
 O185 O 0.49823 0.88511 1.05512
 O186 O 0.48877 0.95177 1.11903
 O187 O 0.45976 0.94388 1.00023
 O188 O 0.53227 0.94153 1.00232
 O189 O 0.56082 1.07333 0.92777
 O190 O 0.60396 1.03419 0.96889
 C191 C 0.59710 1.06130 0.94003
 O192 O 0.44128 1.07897 1.07342
 O193 O 0.39567 1.04212 1.03306
 C194 C 0.40418 1.06951 1.06109
 O195 O 0.55764 1.07319 1.07802
 O196 O 0.60220 1.03247 1.04065
 C197 C 0.59447 1.06012 1.06861
 O198 O 0.44593 1.08230 0.92817
 O199 O 0.39805 1.04303 0.96283
 C200 C 0.40828 1.07204 0.93698
 Zr201 Zr 0.50179 1.05510 0.94876
 O202 O 0.50883 1.12022 0.94707
 O203 O 0.49854 1.05295 0.88319
 Zr204 Zr 0.49920 1.05541 1.05358
 O205 O 0.50524 1.12073 1.05211
 O206 O 0.49416 1.05654 1.11897
 Zr207 Zr 0.43728 1.00534 0.99938
 Zr208 Zr 0.55987 1.00056 1.00305
 O209 O 0.53658 1.06146 1.00225
 O210 O 0.46391 1.06486 1.00013
 O211 O 0.53697 1.00138 0.94175
 O212 O 0.46136 1.00424 1.06015
 O213 O 0.46418 1.00407 0.94010
 O214 O 0.53395 1.00164 1.06289
 H215 H 0.55009 0.91654 1.00277
 H216 H 0.44213 1.00444 1.08398
 H217 H 0.55607 1.08512 1.00290
 H218 H 0.44584 1.00472 0.91540
 H219 H 0.51295 0.96658 1.13064
 H220 H 0.51546 1.03755 1.13024
 H221 H 0.48022 1.13215 1.03849
 H222 H 0.48989 1.13189 0.96802
 H223 H 0.52320 1.03780 0.87326
 H224 H 0.51900 0.96628 0.87301
 H225 H 0.47925 0.87438 0.96604
 H226 H 0.47653 0.87471 1.03612
 O227 O 0.07358 0.43976 -0.07057
 O228 O 0.02991 0.39551 -0.03626
 C229 C 0.06044 0.40302 -0.06098
 O230 O 0.07045 0.55370 0.07645
 O231 O 0.03455 0.60135 0.03739
 C232 C 0.06106 0.59135 0.06606
 O233 O 0.06811 0.43751 0.07201
 O234 O 0.02873 0.39453 0.03119
 C235 C 0.05679 0.40108 0.05906
 O236 O 0.07170 0.55605 -0.07546
 O237 O 0.03648 0.60261 -0.03496
 C238 C 0.06271 0.59346 -0.06388
 Zr239 Zr 0.05053 0.49853 -0.05240
 O240 O 0.11591 0.50173 -0.05085
 O241 O 0.05187 0.49344 -0.11783
 Zr242 Zr 0.04770 0.49721 0.05253
 O243 O 0.11311 0.49871 0.05528
 O244 O 0.04437 0.49234 0.11792
 O245 O 0.05598 0.46088 -0.00011
 O246 O 0.05796 0.53353 0.00066
 O247 O -0.06947 0.56170 -0.07977
 O248 O -0.03277 0.60537 -0.03720
 C249 C -0.05844 0.59842 -0.06738
 O250 O -0.08270 0.44400 0.06756
 O251 O -0.04284 0.39752 0.03156
 C252 C -0.07169 0.40659 0.05782
 O253 O -0.07551 0.55991 0.07233
 O254 O -0.03581 0.60437 0.03361
 C255 C -0.06378 0.59672 0.06127
 O256 O -0.07854 0.44492 -0.07676
 O257 O -0.04143 0.39824 -0.03794
 C258 C -0.06882 0.40733 -0.06585
 Zr259 Zr -0.05380 0.50230 -0.05579
 O260 O -0.11886 0.50968 -0.05747
 O261 O -0.05260 0.49796 -0.12126
 Zr262 Zr -0.05672 0.50138 0.04915
 O263 O -0.12182 0.50818 0.04727
 O264 O -0.05785 0.49623 0.11461
 Zr265 Zr -0.00519 0.43848 -0.00229
 Zr266 Zr -0.00086 0.56155 -0.00086
 O267 O -0.06155 0.53799 -0.00326
 O268 O -0.06470 0.46522 -0.00392
 O269 O -0.00012 0.53747 -0.06169
 O270 O -0.00596 0.46327 0.05800
 O271 O -0.00263 0.46451 -0.06207
 O272 O -0.00337 0.53631 0.05938
 H273 H 0.08296 0.55124 0.00136
 H274 H -0.00703 0.44419 0.08206
 H275 H -0.08522 0.55751 -0.00410
 H276 H -0.00245 0.44590 -0.08648
 H277 H 0.02984 0.51725 0.12822
 H278 H -0.04132 0.51934 0.12606
 H279 H -0.13284 0.48620 0.02898
 H280 H -0.13103 0.48624 -0.04199
 H281 H -0.03403 0.51998 -0.13153
 H282 H 0.03613 0.51712 -0.12936
 H283 H 0.12580 0.47942 -0.03225
 H284 H 0.12353 0.47560 0.03813
 O285 O 1.07506 -0.07357 0.56064
 O286 O 1.03734 -0.03335 0.60547
 C287 C 1.06490 -0.06138 0.59767
 O288 O 1.07607 0.07345 0.44302
 O289 O 1.03677 0.03547 0.39747
 C290 C 1.06460 0.06309 0.40595
 O291 O 1.07877 0.07145 0.55822
 O292 O 1.03817 0.03568 0.60429
 C293 C 1.06725 0.06192 0.59543
 O294 O 1.07258 -0.07731 0.44339
 O295 O 1.03673 -0.03597 0.39757
 C296 C 1.06298 -0.06507 0.40613
 Zr297 Zr 1.05326 -0.05330 0.50165
 O298 O 1.11862 -0.05349 0.49784
 O299 O 1.05279 -0.11871 0.50636
 Zr300 Zr 1.05447 0.05154 0.50069
 O301 O 1.11981 0.05166 0.49712
 O302 O 1.05317 0.11704 0.50436
 O303 O 1.06203 -0.00068 0.53820
 O304 O 1.06142 -0.00124 0.46530
 O305 O 0.92775 -0.07387 0.44277
 O306 O 0.96728 -0.03674 0.39683
 C307 C 0.93920 -0.06404 0.40550
 O308 O 0.92509 0.07085 0.55840
 O309 O 0.96646 0.03551 0.60447
 C310 C 0.93680 0.06110 0.59579
 O311 O 0.93084 0.07631 0.44170
 O312 O 0.96666 0.03459 0.39672
 C313 C 0.94055 0.06394 0.40470
 O314 O 0.92591 -0.07204 0.55860
 O315 O 0.96453 -0.03346 0.60433
 C316 C 0.93631 -0.06070 0.59571
 Zr317 Zr 0.94901 -0.05178 0.50094
 O318 O 0.88363 -0.05129 0.49693
 O319 O 0.94957 -0.11726 0.50509
 Zr320 Zr 0.95012 0.05306 0.50026
 O321 O 0.88497 0.05630 0.49479
 O322 O 0.95270 0.11841 0.50524
 Zr323 Zr 1.00170 0.00054 0.56270
 Zr324 Zr 1.00165 -0.00058 0.43907
 O325 O 0.94189 0.00050 0.46469
 O326 O 0.94140 0.00094 0.53746
 O327 O 1.00104 -0.06092 0.46418
 O328 O 1.00232 0.06026 0.53656
 O329 O 1.00101 -0.05963 0.53752
 O330 O 1.00239 0.06010 0.46322
 H331 H 1.08594 -0.00165 0.44698
 H332 H 1.00233 0.08454 0.55533
 H333 H 0.91740 0.00074 0.44611
 H334 H 1.00071 -0.08388 0.55638
 H335 H 1.03888 0.12755 0.47927
 H336 H 0.96793 0.12891 0.48088
 H337 H 0.87343 0.03523 0.51372
 H338 H 0.87314 -0.03461 0.52035
 H339 H 0.96393 -0.12805 0.48032
 H340 H 1.03493 -0.12934 0.48379
 H341 H 1.12946 -0.03898 0.52260
 H342 H 1.13022 0.03183 0.51812
 C343 C 1.08139 0.13144 0.31314
 C344 C 1.12220 0.12227 0.30130
 C345 C 1.14562 0.09680 0.32851
 C346 C 1.12718 0.07845 0.36354
 C347 C 1.08485 0.08418 0.37144
 C348 C 1.06322 0.11263 0.34714
 C349 C 1.02234 0.10867 0.32614
 C350 C 1.04204 0.12892 0.28862
 H351 H 1.17789 0.09038 0.32276
 H352 H 1.14544 0.05818 0.38319
 H353 H 0.99869 0.12856 0.34097
 H354 H 1.01304 0.07594 0.32083
 H355 H 1.02884 0.15998 0.28165
 H356 H 1.04455 0.10785 0.26148
 C357 C 0.92092 -0.12763 0.30902
 C358 C 0.87816 -0.12337 0.30212
 C359 C 0.85504 -0.10266 0.33298
 C360 C 0.87484 -0.08477 0.36762
 C361 C 0.91825 -0.08520 0.37108
 C362 C 0.94050 -0.10828 0.34219
 C363 C 0.97689 -0.09619 0.31673
 C364 C 0.95579 -0.11751 0.28046
 H365 H 0.82174 -0.10032 0.33064
 H366 H 0.85643 -0.06866 0.39049
 H367 H 1.00558 -0.11215 0.32684
 H368 H 0.97969 -0.06208 0.31273
 H369 H 0.97245 -0.14573 0.26996
 H370 H 0.94649 -0.09582 0.25526
 C371 C 0.91958 0.11733 0.69663
 C372 C 0.87640 0.11922 0.69948
 C373 C 0.85288 0.10386 0.66582
 C374 C 0.87254 0.08638 0.63107
 C375 C 0.91578 0.08125 0.63063
 C376 C 0.93874 0.09754 0.66361
 C377 C 0.96890 0.07606 0.69157
 C378 C 0.94865 0.09838 0.72741
 H379 H 0.81948 0.10605 0.66596
 H380 H 0.85388 0.07503 0.60554
 H381 H 1.00121 0.08597 0.68659
 H382 H 0.96443 0.04193 0.69248
 H383 H 0.96903 0.12193 0.74212
 H384 H 0.93292 0.07716 0.74947
 C385 C 1.11938 -0.07446 0.70071
 C386 C 1.12105 -0.11763 0.70563
 C387 C 1.10829 -0.14223 0.67158
 C388 C 1.09203 -0.12379 0.63536
 C389 C 1.08604 -0.08066 0.63324
 C390 C 1.10112 -0.05655 0.66596
 C391 C 1.07985 -0.02413 0.69105
 C392 C 1.10031 -0.04319 0.72896
 H393 H 1.11094 -0.17562 0.67272
 H394 H 1.08193 -0.14343 0.61006
 H395 H 1.04562 -0.02756 0.69090
 H396 H 1.09112 0.00755 0.68427
 H397 H 1.07795 -0.05718 0.75101
 H398 H 1.12390 -0.02267 0.74340
 C399 C 0.30407 1.12717 1.07543
 C400 C 0.29620 1.12237 1.11794
 C401 C 0.32808 1.10483 1.14259
 C402 C 0.36469 1.08992 1.12426
 C403 C 0.36940 1.09060 1.08092
 C404 C 0.33936 1.11099 1.05733
 C405 C 0.31657 1.09731 1.01945
 C406 C 0.27781 1.11485 1.03920
 H407 H 0.32489 1.10235 1.17586
 H408 H 0.38804 1.07548 1.14367
 H409 H 0.31578 1.06309 1.01580
 H410 H 0.32616 1.11475 0.99148
 H411 H 0.25463 1.09075 1.04726
 H412 H 0.26518 1.14213 1.02229
 C413 C 0.29692 0.92749 0.88927
 C414 C 0.29356 0.88443 0.88532
 C415 C 0.32856 0.86015 0.89581
 C416 C 0.36490 0.87883 0.91122
 C417 C 0.36609 0.92172 0.91894
 C418 C 0.33171 0.94541 0.90718
 C419 C 0.30634 0.97463 0.93246
 C420 C 0.26844 0.95579 0.91216
 H421 H 0.32812 0.82690 0.89160
 H422 H 0.39117 0.85948 0.91916
 H423 H 0.31105 1.00749 0.92384
 H424 H 0.30840 0.96812 0.96629
 H425 H 0.25209 0.97755 0.89094
 H426 H 0.24813 0.93909 0.93433
 C427 C 0.67122 0.90668 1.14590
 C428 C 0.69562 0.87694 1.12577
 C429 C 0.68241 0.86670 1.08475
 C430 C 0.64766 0.88624 1.06614
 C431 C 0.62414 0.91565 1.08811
 C432 C 0.63695 0.92416 1.12829
 C433 C 0.62877 0.95224 1.16370
 C434 C 0.66718 0.93255 1.18410
 H435 H 0.69933 0.84492 1.06594
 H436 H 0.63948 0.87865 1.03443
 H437 H 0.59932 0.94467 1.17963
 H438 H 0.63303 0.98536 1.15535
 H439 H 0.65996 0.91366 1.21198
 H440 H 0.69316 0.95479 1.18780
 C441 C 0.68359 1.08298 0.86634
 C442 C 0.69791 1.12264 0.87681
 C443 C 0.67772 1.14142 0.91130
 C444 C 0.64538 1.12100 0.93260
 C445 C 0.63254 1.08108 0.92067
 C446 C 0.65304 1.06330 0.88755
 C447 C 0.65306 1.02608 0.86063
 C448 C 0.68790 1.04772 0.83659
 H449 H 0.68570 1.17214 0.92175
 H450 H 0.63013 1.13663 0.95803
 H451 H 0.62383 1.02297 0.84262
 H452 H 0.66334 0.99784 0.87745
 H453 H 0.67875 1.05645 0.80448
 H454 H 0.71829 1.03182 0.83957
 C455 C 0.10001 0.32447 0.13549
 C456 C 0.10999 0.28979 0.11190
 C457 C 0.10347 0.29313 0.06864
 C458 C 0.08645 0.32973 0.05119
 C459 C 0.07697 0.36432 0.07644
 C460 C 0.08527 0.36013 0.11853
 C461 C 0.08030 0.38086 0.15937
 C462 C 0.09766 0.34065 0.17863
 H463 H 0.11061 0.26726 0.04856
 H464 H 0.08069 0.33092 0.01810
 H465 H 0.04728 0.38656 0.16696
 H466 H 0.10116 0.40797 0.16293
 H467 H 0.07471 0.32363 0.19769
 H468 H 0.12876 0.34440 0.19297
 C469 C -0.09018 0.29888 -0.10222
 C470 C -0.12543 0.30158 -0.12662
 C471 C -0.14282 0.34150 -0.13187
 C472 C -0.12443 0.37667 -0.11262
 C473 C -0.08891 0.37224 -0.08700
 C474 C -0.07330 0.33214 -0.08297
 C475 C -0.04159 0.30661 -0.06098
 C476 C -0.06097 0.26888 -0.08289
 H477 H -0.17035 0.34542 -0.15070
 H478 H -0.13833 0.40686 -0.11725
 H479 H -0.04617 0.30653 -0.02685
 H480 H -0.00968 0.31364 -0.07135
 H481 H -0.07676 0.24723 -0.06134
 H482 H -0.04029 0.25419 -0.10607
 C483 C 0.11402 0.69602 -0.08283
 C484 C 0.12685 0.69484 -0.12391
 C485 C 0.11797 0.65818 -0.14616
 C486 C 0.09743 0.62457 -0.12660
 C487 C 0.08413 0.62758 -0.08485
 C488 C 0.09310 0.66451 -0.06461
 C489 C 0.08831 0.68698 -0.02464
 C490 C 0.11165 0.72298 -0.04549
 H491 H 0.12713 0.65546 -0.17829
 H492 H 0.09138 0.59671 -0.14428
 H493 H 0.10594 0.67203 0.00098
 H494 H 0.05543 0.69419 -0.01772
 H495 H 0.14259 0.72902 -0.03165
 H496 H 0.09210 0.75083 -0.05090
 C497 C -0.09506 0.67620 0.14064
 C498 C -0.11963 0.70382 0.11777
 C499 C -0.12351 0.69684 0.07472
 C500 C -0.10575 0.66148 0.05639
 C501 C -0.08393 0.63245 0.08059
 C502 C -0.07813 0.64112 0.12254
 C503 C -0.08623 0.61505 0.15978
 C504 C -0.10471 0.65348 0.17975
 H505 H -0.14080 0.71817 0.05538
 H506 H -0.11048 0.65589 0.02364
 H507 H -0.05711 0.60454 0.17497
 H508 H -0.10932 0.59026 0.15373
 H509 H -0.08622 0.66508 0.20646
 H510 H -0.13852 0.65101 0.18543
 C511 C 1.14583 0.09470 0.67514
 C512 C 1.12760 0.12790 0.69647
 C513 C 1.08724 0.13914 0.68226
 C514 C 1.06766 0.11765 0.64924
 C515 C 1.08724 0.08401 0.62960
 C516 C 1.12682 0.07446 0.64325
 C517 C 1.16220 0.04634 0.63517
 C518 C 1.18398 0.06875 0.67121
 H519 H 1.07026 0.16435 0.69607
 H520 H 1.03732 0.12760 0.63885
 H521 H 1.17655 0.05228 0.60449
 H522 H 1.15488 0.01342 0.64189
 H523 H 1.21122 0.08718 0.66125
 H524 H 1.18913 0.04853 0.69868
 C525 C 0.86864 -0.07950 0.68817
 C526 C 0.87268 -0.12185 0.69697
 C527 C 0.89860 -0.14446 0.66945
 C528 C 0.91903 -0.12458 0.63609
 C529 C 0.91543 -0.08142 0.63003
 C530 C 0.88982 -0.06036 0.65719
 C531 C 0.87498 -0.01826 0.66811
 C532 C 0.85135 -0.03943 0.70360
 H533 H 0.90269 -0.17753 0.67285
 H534 H 0.93813 -0.14284 0.61549
 H535 H 0.85454 -0.00490 0.64372
 H536 H 0.90041 0.00213 0.67904
 H537 H 0.81721 -0.03753 0.69986
 H538 H 0.86339 -0.03121 0.73486
 C539 C 1.09872 -0.14282 0.32736
 C540 C 1.11996 -0.11971 0.29741
 C541 C 1.12344 -0.07657 0.30587
 C542 C 1.10511 -0.05882 0.34156
 C543 C 1.08445 -0.08373 0.37093
 C544 C 1.08339 -0.12590 0.36283
 C545 C 1.06562 -0.16541 0.37812
 C546 C 1.08325 -0.18500 0.33844
 H547 H 1.13845 -0.05592 0.28427
 H548 H 1.10692 -0.02560 0.34606
 H549 H 1.03125 -0.16475 0.37887
 H550 H 1.08098 -0.17633 0.40703
 H551 H 1.05872 -0.19608 0.31690
 H552 H 1.10888 -0.20724 0.34441
 C553 C 0.88037 0.07608 0.30534
 C554 C 0.88421 0.11844 0.29634
 C555 C 0.90193 0.14392 0.32744
 C556 C 0.91810 0.12649 0.36424
 C557 C 0.91916 0.08324 0.36949
 C558 C 0.89823 0.05890 0.34048
 C559 C 0.91136 0.02067 0.31821
 C560 C 0.89182 0.03936 0.27956
 H561 H 0.90344 0.17716 0.32356
 H562 H 0.93234 0.14653 0.38711
 H563 H 0.89481 -0.00723 0.32947
 H564 H 0.94554 0.01747 0.31607
 H565 H 0.86419 0.02198 0.26862
 H566 H 0.91464 0.04704 0.25503
 C567 C 0.08283 0.31292 -0.13112
 C568 C 0.12434 0.30288 -0.12189
 C569 C 0.14236 0.32364 -0.08739
 C570 C 0.12118 0.35568 -0.06677
 C571 C 0.08129 0.36738 -0.07944
 C572 C 0.06185 0.34392 -0.11000
 C573 C 0.03902 0.35804 -0.14761
 C574 C 0.06210 0.32457 -0.17114
 H575 H 0.17346 0.31705 -0.07707
 H576 H 0.13652 0.37221 -0.04187
 H577 H 0.04753 0.39002 -0.15719
 H578 H 0.00525 0.35209 -0.14521
 H579 H 0.08413 0.33711 -0.19436
 H580 H 0.04123 0.29980 -0.18282
 C581 C -0.08337 0.31053 0.12270
 C582 C -0.12610 0.30408 0.12344
 C583 C -0.15171 0.33526 0.10637
 C584 C -0.13423 0.36962 0.08570
 C585 C -0.09104 0.37233 0.08050
 C586 C -0.06630 0.34354 0.10144
 C587 C -0.03047 0.31832 0.08696
 C588 C -0.04929 0.28198 0.11022
 H589 H -0.18502 0.33248 0.10803
 H590 H -0.15439 0.39272 0.07197
 H591 H -0.00086 0.32902 0.10080
 H592 H -0.03015 0.31400 0.05276
 H593 H -0.03032 0.27181 0.13721
 H594 H -0.06014 0.25665 0.08953
 C595 C -0.10981 0.70276 -0.08124
 C596 C -0.12023 0.70333 -0.12347
 C597 C -0.11069 0.66799 -0.14739
 C598 C -0.09118 0.63338 -0.12918
 C599 C -0.07801 0.63455 -0.08751
 C600 C -0.08774 0.66971 -0.06411
 C601 C -0.05867 0.69811 -0.04184
 C602 C -0.08367 0.73389 -0.05911
 H603 H -0.11916 0.66675 -0.17988
 H604 H -0.08512 0.60632 -0.14803
 H605 H -0.02670 0.69666 -0.05439
 H606 H -0.06038 0.69566 -0.00764
 H607 H -0.06581 0.75399 -0.08058
 H608 H -0.10142 0.75081 -0.03501
 C609 C 0.08210 0.68128 0.13717
 C610 C 0.12259 0.69268 0.12716
 C611 C 0.14493 0.66587 0.10080
 C612 C 0.12517 0.63183 0.08170
 C613 C 0.08273 0.62459 0.08805
 C614 C 0.06274 0.64805 0.11818
 C615 C 0.02197 0.66945 0.11729
 C616 C 0.04324 0.70628 0.13749
 H617 H 0.17705 0.67188 0.09380
 H618 H 0.14241 0.61263 0.06033
 H619 H -0.00011 0.65402 0.13840
 H620 H 0.01048 0.67573 0.08534
 H621 H 0.03214 0.71246 0.16947
 H622 H 0.04496 0.73393 0.11698
 C623 C 0.31841 1.09365 0.86572
 C624 C 0.31291 1.13667 0.86924
 C625 C 0.33786 1.15785 0.89843
 C626 C 0.36889 1.13688 0.92094
 C627 C 0.37494 1.09413 0.91553
 C628 C 0.34869 1.07297 0.88852
 C629 C 0.36027 1.04589 0.85300
 C630 C 0.32733 1.06824 0.82800
 H631 H 0.33446 1.19087 0.90294
 H632 H 0.38841 1.15406 0.94218
 H633 H 0.35287 1.01282 0.85858
 H634 H 0.39221 1.05178 0.84182
 H635 H 0.30092 1.04791 0.81943
 H636 H 0.34020 1.08690 0.80208
 C637 C 0.29251 0.92546 1.10078
 C638 C 0.29063 0.88381 1.11160
 C639 C 0.32677 0.86008 1.10440
 C640 C 0.36281 0.87873 1.08759
 C641 C 0.36302 0.92122 1.07652
 C642 C 0.32649 0.94293 1.08346
 C643 C 0.30690 0.98458 1.08000
 C644 C 0.26826 0.96468 1.09949
 H645 H 0.32737 0.82752 1.11243
 H646 H 0.39010 0.85988 1.08282
 H647 H 0.30232 0.99416 1.04720
 H648 H 0.32212 1.00786 1.10031
 H649 H 0.24146 0.96279 1.07788
 H650 H 0.26120 0.97658 1.13100
 C651 C 0.69982 1.07070 1.11804
 C652 C 0.70324 1.11346 1.12383
 C653 C 0.66747 1.13784 1.11801
 C654 C 0.63084 1.12000 1.10226
 C655 C 0.62994 1.07782 1.09097
 C656 C 0.66437 1.05345 1.10116
 C657 C 0.68843 1.02291 1.07617
 C658 C 0.72733 1.04172 1.09494
 H659 H 0.66826 1.17074 1.12440
 H660 H 0.60435 1.13971 1.09627
 H661 H 0.68568 1.02828 1.04220
 H662 H 0.68301 0.99049 1.08631
 H663 H 0.74707 1.05787 1.07187
 H664 H 0.74404 1.02015 1.11606
 C665 C 0.70434 0.90986 0.91792
 C666 C 0.70305 0.88361 0.88403
 C667 C 0.66336 0.87410 0.86794
 C668 C 0.62708 0.89142 0.88596
 C669 C 0.62996 0.91891 0.92014
 C670 C 0.66987 0.92670 0.93482
 C671 C 0.69397 0.95249 0.96468
 C672 C 0.73304 0.93331 0.94529
 H673 H 0.66048 0.85354 0.84161
 H674 H 0.59719 0.88369 0.87288
 H675 H 0.68880 0.94307 0.99740
 H676 H 0.69060 0.98619 0.95834
 H677 H 0.75053 0.91271 0.96673
 H678 H 0.75197 0.95597 0.92770
   
