data_POSCAR
  _audit_creation_date              2014-09-24
  _audit_creation_method            'ToBaCCo'
  _symmetry_space_group_name_H-M    'P1'
  _symmetry_Int_Tables_number       1
  _symmetry_cell_setting            triclinic
  loop_
  _symmetry_equiv_pos_as_xyz
 x,y,z
_cell_length_a 29.7267
_cell_length_b 25.9472
_cell_length_c 32.0126
_cell_angle_alpha 91.126200
_cell_angle_beta 93.229800
_cell_angle_gamma 90.129400
loop_
  _atom_site_label
  _atom_site_type_symbol
  _atom_site_fract_x
  _atom_site_fract_y
  _atom_site_fract_z
N1 N 0.64033 0.78156 0.61753
 N2 N 0.62813 0.78745 0.65617
 C3 C 0.60485 0.83150 0.65962
 C4 C 0.60156 0.85398 0.62090
 C5 C 0.62411 0.82125 0.59468
 H6 H 0.58901 0.84458 0.68750
 H7 H 0.62815 0.82582 0.56159
 Cu8 Cu 0.63733 0.73362 0.69664
 Cu9 Cu 0.67743 0.72332 0.60105
 Cu10 Cu 0.69449 0.62678 0.67436
 N11 N 0.62991 0.67095 0.72754
 N12 N 0.65417 0.62979 0.72035
 C13 C 0.64464 0.59332 0.74794
 C14 C 0.61160 0.61238 0.77288
 C15 C 0.60292 0.66167 0.75891
 H16 H 0.65962 0.55537 0.74888
 H17 H 0.57952 0.68922 0.77112
 N18 N 0.71964 0.62418 0.61863
 N19 N 0.71450 0.66155 0.59132
 C20 C 0.73777 0.64954 0.55755
 C21 C 0.75736 0.60191 0.56359
 C22 C 0.74502 0.58668 0.60237
 H23 H 0.73987 0.67322 0.53030
 H24 H 0.75460 0.55140 0.61789
 H25 H 0.64949 0.67145 0.64091
 H26 H 0.70295 0.70425 0.65950
 N27 N 0.87934 0.26036 0.09836
 N28 N 0.89828 0.25298 0.13585
 C29 C 0.93355 0.22093 0.13268
 C30 C 0.93730 0.20849 0.09074
 C31 C 0.90232 0.23415 0.06987
 H32 H 0.95591 0.20951 0.15867
 H33 H 0.89392 0.23370 0.03655
 Cu34 Cu 0.87793 0.29063 0.18428
 Cu35 Cu 0.82534 0.30180 0.08965
 Cu36 Cu 0.80416 0.38756 0.17059
 N37 N 0.87210 0.34449 0.22665
 N38 N 0.84266 0.38194 0.22159
 C39 C 0.84663 0.41441 0.25494
 C40 C 0.88103 0.39683 0.28178
 C41 C 0.89659 0.35254 0.26285
 H42 H 0.82766 0.44963 0.25832
 H43 H 0.92440 0.32874 0.27400
 N44 N 0.77514 0.39271 0.11382
 N45 N 0.78120 0.35795 0.08397
 C46 C 0.75563 0.37022 0.04961
 C47 C 0.73328 0.41541 0.05795
 C48 C 0.74648 0.42896 0.09874
 H49 H 0.75462 0.34903 0.02015
 H50 H 0.73562 0.46238 0.11616
 H51 H 0.85124 0.35368 0.13397
 H52 H 0.80422 0.31212 0.14972
 N53 N 0.36634 0.23917 -0.11488
 N54 N 0.38896 0.23544 -0.14896
 C55 C 0.42385 0.26882 -0.14573
 C56 C 0.42315 0.29412 -0.10735
 C57 C 0.38626 0.27449 -0.08863
 H58 H 0.44917 0.27249 -0.16848
 H59 H 0.37534 0.28414 -0.05778
 Cu60 Cu 0.37261 0.18414 -0.19244
 Cu61 Cu 0.31369 0.19657 -0.10644
 Cu62 Cu 0.31062 0.08350 -0.16533
 N63 N 0.35321 0.13071 -0.23317
 N64 N 0.32683 0.09285 -0.22273
 C65 C 0.31816 0.06145 -0.25613
 C66 C 0.34087 0.08025 -0.28902
 C67 C 0.36312 0.12397 -0.27347
 H68 H 0.29858 0.02627 -0.25593
 H69 H 0.38500 0.14866 -0.29016
 N70 N 0.27960 0.09176 -0.11306
 N71 N 0.27775 0.13620 -0.09248
 C72 C 0.25220 0.13047 -0.05946
 C73 C 0.23808 0.07974 -0.05902
 C74 C 0.25606 0.05620 -0.09330
 H75 H 0.24608 0.16031 -0.03641
 H76 H 0.25192 0.01635 -0.10333
 H77 H 0.34983 0.13858 -0.13103
 H78 H 0.30054 0.15996 -0.16500
 N79 N 0.11758 0.76480 0.40028
 N80 N 0.09938 0.74830 0.36408
 C81 C 0.06603 0.71487 0.37055
 C82 C 0.06233 0.71115 0.41329
 C83 C 0.09548 0.74351 0.43129
 H84 H 0.04464 0.69684 0.34598
 H85 H 0.10311 0.75102 0.46429
 Cu86 Cu 0.11662 0.77758 0.31228
 Cu87 Cu 0.16812 0.81329 0.40355
 Cu88 Cu 0.21574 0.83757 0.30924
 N89 N 0.12790 0.82590 0.26859
 N90 N 0.16733 0.84840 0.26617
 C91 C 0.16454 0.88258 0.23493
 C92 C 0.12074 0.88194 0.21771
 C93 C 0.09853 0.84543 0.23968
 H94 H 0.19119 0.90883 0.22766
 H95 H 0.06311 0.83560 0.23638
 N96 N 0.24882 0.84768 0.36370
 N97 N 0.22950 0.84196 0.39951
 C98 C 0.25933 0.85492 0.43115
 C99 C 0.29933 0.86884 0.41443
 C100 C 0.29166 0.86367 0.37159
 H101 H 0.25284 0.85316 0.46400
 H102 H 0.31501 0.87214 0.34790
 H103 H 0.16319 0.84622 0.34543
 H104 H 0.19019 0.78164 0.34976
 C105 C 0.06276 0.08684 0.07131
 N106 N 0.06030 0.05304 0.10290
 C107 C 0.09182 0.01563 0.10836
 N108 N 0.12592 0.01200 0.08196
 C109 C 0.12860 0.04584 0.05034
 N110 N 0.09684 0.08302 0.04497
 C111 C 0.47038 0.95722 0.57260
 N112 N 0.44337 0.98557 0.59695
 C113 C 0.39899 0.99111 0.58589
 N114 N 0.38155 0.96816 0.55018
 C115 C 0.40842 0.94084 0.52499
 N116 N 0.45284 0.93486 0.53646
 C117 C 0.93912 0.59034 0.44041
 N118 N 0.94180 0.55317 0.41026
 C119 C 0.90945 0.51632 0.40508
 N120 N 0.87429 0.51642 0.43039
 C121 C 0.87150 0.55345 0.46076
 N122 N 0.90399 0.59035 0.46573
 C123 C 0.54915 0.42165 -0.08083
 N124 N 0.58428 0.42355 -0.05190
 C125 C 0.61681 0.46001 -0.05385
 N126 N 0.61404 0.49500 -0.08483
 C127 C 0.57914 0.49305 -0.11409
 N128 N 0.54648 0.45663 -0.11190
 N129 N 0.01301 0.14205 0.02627
 N130 N -0.02347 0.17475 0.03169
 C131 C -0.02981 0.17810 0.07303
 C132 C 0.00148 0.14741 0.09461
 C133 C 0.02732 0.12543 0.06427
 H134 H 0.00467 0.14110 0.12796
 H135 H 0.02525 0.13117 -0.00254
 H136 H -0.04145 0.19353 0.00754
 N137 N 0.53570 0.96794 0.62366
 N138 N 0.57064 0.94012 0.63674
 C139 C 0.57471 0.89972 0.61023
 C140 C 0.54108 0.90211 0.57852
 C141 C 0.51646 0.94553 0.58874
 H142 H 0.53188 0.87252 0.55527
 H143 H 0.52330 0.99934 0.64034
 H144 H 0.58933 0.94677 0.66496
 N145 N 0.98730 0.65366 0.48210
 N146 N 1.02312 0.68649 0.47454
 C147 C 1.03043 0.68259 0.43341
 C148 C 1.00058 0.64710 0.41423
 C149 C 0.97443 0.62991 0.44560
 H150 H 0.99810 0.63509 0.38161
 H151 H 0.97415 0.64806 0.51124
 H152 H 1.03983 0.71037 0.49704
 N153 N 0.50104 0.36589 -0.03962
 N154 N 0.46710 0.33336 -0.04649
 C155 C 0.45733 0.32941 -0.08802
 C156 C 0.48587 0.36137 -0.10859
 C157 C 0.51299 0.38385 -0.07660
 H158 H 0.48706 0.36698 -0.14192
 H159 H 0.51543 0.37581 -0.01002
 H160 H 0.45167 0.31346 -0.02309
 N161 N 0.04821 -0.03367 0.15816
 N162 N 0.05561 -0.06986 0.18611
 C163 C 0.09979 -0.08164 0.18796
 C164 C 0.12150 -0.05205 0.15962
 C165 C 0.08743 -0.02221 0.14136
 H166 H 0.15694 -0.05186 0.15350
 H167 H 0.01672 -0.01748 0.15064
 H168 H 0.03085 -0.08528 0.20414
 N169 N 0.54404 0.57048 -0.14569
 N170 N 0.55440 0.60532 -0.17637
 C171 C 0.59108 0.58748 -0.19488
 C172 C 0.60514 0.54180 -0.17639
 C173 C 0.57501 0.53281 -0.14582
 H174 H 0.63442 0.51903 -0.18313
 H175 H 0.51840 0.57510 -0.12494
 H176 H 0.53630 0.63884 -0.18318
 N177 N 0.32457 1.00834 0.61499
 N178 N 0.30928 1.03111 0.64862
 C179 C 0.34375 1.05570 0.66962
 C180 C 0.38278 1.04806 0.64881
 C181 C 0.36920 1.01731 0.61451
 H182 H 0.41668 1.05989 0.65887
 H183 H 0.30514 0.98485 0.59411
 H184 H 0.27611 1.02853 0.65755
 N185 N 0.95228 0.45247 0.36449
 N186 N 0.94456 0.42004 0.33256
 C187 C 0.90079 0.42317 0.31952
 C188 C 0.87943 0.45843 0.34469
 C189 C 0.91338 0.47601 0.37280
 H190 H 0.84471 0.47098 0.34192
 H191 H 0.98375 0.45859 0.38001
 H192 H 0.96929 0.39770 0.31907
 N193 N 0.18588 -0.00333 0.01215
 N194 N 0.21393 0.00532 -0.01755
 C195 C 0.21130 0.05541 -0.02766
 C196 C 0.17998 0.07968 -0.00377
 C197 C 0.16452 0.04097 0.02093
 H198 H 0.16949 0.11959 -0.00465
 H199 H 0.18090 -0.03919 0.02544
 H200 H 0.23466 -0.02259 -0.03034
 N201 N 0.81451 0.50919 0.50162
 N202 N 0.78525 0.52184 0.52966
 C203 C 0.78556 0.57346 0.53490
 C204 C 0.81670 0.59467 0.50962
 C205 C 0.83446 0.55250 0.48919
 H206 H 0.82578 0.63487 0.50710
 H207 H 0.82144 0.47143 0.49211
 H208 H 0.76539 0.49552 0.54472
 N209 N 0.67141 0.50679 -0.00470
 N210 N 0.70102 0.49506 0.02602
 C211 C 0.70289 0.44339 0.02880
 C212 C 0.67293 0.42118 -0.00091
 C213 C 0.65355 0.46273 -0.02137
 H214 H 0.66591 0.38060 -0.00655
 H215 H 0.66292 0.54430 -0.01332
 H216 H 0.71989 0.52201 0.04429
 N217 N 0.41154 0.90209 0.45303
 N218 N 0.38249 0.88406 0.42341
 C219 C 0.34078 0.88616 0.43779
 C220 C 0.34322 0.90677 0.47797
 C221 C 0.38860 0.91652 0.48641
 H222 H 0.31579 0.91413 0.49810
 H223 H 0.44624 0.90515 0.45003
 H224 H 0.39127 0.87028 0.39411
   
