data_POSCAR
  _audit_creation_date              2014-09-24
  _audit_creation_method            'ToBaCCo'
  _symmetry_space_group_name_H-M    'P1'
  _symmetry_Int_Tables_number       1
  _symmetry_cell_setting            triclinic
  loop_
  _symmetry_equiv_pos_as_xyz
 x,y,z
_cell_length_a 19.2660
_cell_length_b 18.0420
_cell_length_c 22.1480
_cell_angle_alpha 89.999900
_cell_angle_beta 90.003300
_cell_angle_gamma 90.000000
loop_
  _atom_site_label
  _atom_site_type_symbol
  _atom_site_fract_x
  _atom_site_fract_y
  _atom_site_fract_z
B1 B 0.29242 0.23086 0.31293
 B2 B 0.21479 0.19890 0.29487
 B3 B 0.22466 0.28731 0.31453
 B4 B 0.30088 0.31849 0.28828
 B5 B 0.33821 0.24613 0.24975
 B6 B 0.28388 0.17084 0.25463
 B7 B 0.21502 0.28065 0.19430
 B8 B 0.29355 0.31204 0.21329
 B9 B 0.28404 0.22400 0.19251
 B10 B 0.20720 0.19220 0.21910
 B11 B 0.16976 0.26477 0.25766
 B12 B 0.22423 0.34022 0.25284
 B13 B 0.71593 0.77615 0.19201
 B14 B 0.70666 0.68804 0.21264
 B15 B 0.78509 0.71972 0.19364
 B16 B 0.79272 0.80810 0.21861
 B17 B 0.71603 0.82915 0.25420
 B18 B 0.66187 0.75372 0.24923
 B19 B 0.77554 0.71269 0.31389
 B20 B 0.78521 0.80118 0.29439
 B21 B 0.70764 0.76896 0.31238
 B22 B 0.69941 0.68137 0.28760
 B23 B 0.77611 0.65994 0.25209
 B24 B 0.83038 0.73553 0.25703
 B25 B 0.71603 0.22401 -0.19244
 B26 B 0.70653 0.31204 -0.21322
 B27 B 0.78506 0.28065 -0.19422
 B28 B 0.79287 0.19220 -0.21902
 B29 B 0.71620 0.17084 -0.25455
 B30 B 0.66187 0.24613 -0.24968
 B31 B 0.77542 0.28731 -0.31446
 B32 B 0.78529 0.19890 -0.29480
 B33 B 0.70766 0.23086 -0.31285
 B34 B 0.69920 0.31849 -0.28821
 B35 B 0.77585 0.34022 -0.25277
 B36 B 0.83032 0.26477 -0.25758
 B37 B 0.28414 0.77616 -0.19195
 B38 B 0.29340 0.68805 -0.21257
 B39 B 0.21498 0.71972 -0.19357
 B40 B 0.20734 0.80811 -0.21854
 B41 B 0.28403 0.82916 -0.25413
 B42 B 0.33819 0.75373 -0.24916
 B43 B 0.22452 0.71270 -0.31382
 B44 B 0.21485 0.80119 -0.29432
 B45 B 0.29242 0.76897 -0.31231
 B46 B 0.30065 0.68138 -0.28754
 B47 B 0.22396 0.65995 -0.25202
 B48 B 0.16969 0.73554 -0.25696
 B49 B 1.21593 1.27615 0.69201
 B50 B 1.20666 1.18804 0.71264
 B51 B 1.28509 1.21971 0.69364
 B52 B 1.29272 1.30810 0.71861
 B53 B 1.21603 1.32915 0.75420
 B54 B 1.16187 1.25372 0.74923
 B55 B 1.27554 1.21269 0.81389
 B56 B 1.28521 1.30117 0.79439
 B57 B 1.20764 1.26895 0.81238
 B58 B 1.19941 1.18137 0.78760
 B59 B 1.27611 1.15994 0.75209
 B60 B 1.33038 1.23553 0.75703
 B61 B 0.79242 0.73086 0.81293
 B62 B 0.71479 0.69890 0.79487
 B63 B 0.72466 0.78731 0.81453
 B64 B 0.80088 0.81849 0.78828
 B65 B 0.83821 0.74613 0.74975
 B66 B 0.78388 0.67084 0.75463
 B67 B 0.71502 0.78065 0.69430
 B68 B 0.79355 0.81204 0.71329
 B69 B 0.78404 0.72400 0.69251
 B70 B 0.70720 0.69220 0.71910
 B71 B 0.66976 0.76477 0.75766
 B72 B 0.72423 0.84022 0.75284
 B73 B 1.21603 0.72401 0.30756
 B74 B 1.20653 0.81204 0.28678
 B75 B 1.28505 0.78065 0.30578
 B76 B 1.29287 0.69220 0.28098
 B77 B 1.21620 0.67084 0.24545
 B78 B 1.16187 0.74613 0.25032
 B79 B 1.27542 0.78731 0.18554
 B80 B 1.28529 0.69890 0.20520
 B81 B 1.20766 0.73086 0.18715
 B82 B 1.19920 0.81849 0.21179
 B83 B 1.27585 0.84022 0.24723
 B84 B 1.33032 0.76477 0.24242
 B85 B 0.79242 1.26897 0.18769
 B86 B 0.71485 1.30119 0.20568
 B87 B 0.72452 1.21270 0.18618
 B88 B 0.80065 1.18138 0.21246
 B89 B 0.83819 1.25373 0.25084
 B90 B 0.78403 1.32916 0.24587
 B91 B 0.71498 1.21972 0.30643
 B92 B 0.79340 1.18805 0.28743
 B93 B 0.78414 1.27616 0.30805
 B94 B 0.70734 1.30811 0.28146
 B95 B 0.66969 1.23554 0.24304
 B96 B 0.72396 1.15995 0.24798
 O97 O 0.41976 1.14105 0.04545
 O98 O 0.58025 0.85979 0.04549
 O99 O 0.36655 0.91198 0.03895
 O100 O 0.63343 1.08888 0.03909
 O101 O 0.46269 0.87433 0.07385
 O102 O 0.53726 1.12649 0.07391
 O103 O 0.61871 0.96450 0.07562
 O104 O 0.38130 1.03633 0.07552
 C105 C 0.38685 1.10351 0.08392
 C106 C 0.61324 0.89729 0.08392
 C107 C 0.39962 0.87867 0.07912
 C108 C 0.60030 1.12205 0.07930
 O109 O 0.58030 1.14106 -0.04538
 O110 O 0.41983 0.85978 -0.04542
 O111 O 0.36663 1.08887 -0.03902
 O112 O 0.63353 0.91199 -0.03889
 O113 O 0.53739 0.87434 -0.07379
 O114 O 0.46280 1.12649 -0.07384
 O115 O 0.61877 1.03634 -0.07545
 O116 O 0.38136 0.96449 -0.07555
 Co117 Co 0.50003 1.12098 0.00004
 Co118 Co 0.50004 0.87987 0.00003
 Co119 Co 0.38649 1.00043 -0.00002
 Co120 Co 0.61358 1.00043 0.00009
 O121 O 0.50003 1.00043 0.00004
 C122 C 0.61321 1.10353 -0.08385
 C123 C 0.38684 0.89728 -0.08385
 C124 C 0.39976 1.12204 -0.07922
 C125 C 0.60046 0.87868 -0.07905
 O126 O 0.91976 0.64105 0.54545
 O127 O 1.08025 0.35979 0.54549
 O128 O 0.86655 0.41198 0.53895
 O129 O 1.13343 0.58888 0.53909
 O130 O 0.96269 0.37433 0.57386
 O131 O 1.03726 0.62649 0.57391
 O132 O 1.11871 0.46450 0.57562
 O133 O 0.88130 0.53633 0.57552
 C134 C 0.88685 0.60351 0.58392
 C135 C 1.11324 0.39729 0.58392
 C136 C 0.89962 0.37867 0.57912
 C137 C 1.10030 0.62205 0.57930
 O138 O 1.08030 0.64106 0.45462
 O139 O 0.91983 0.35978 0.45458
 O140 O 0.86663 0.58887 0.46098
 O141 O 1.13353 0.41199 0.46111
 O142 O 1.03739 0.37434 0.42621
 O143 O 0.96280 0.62649 0.42616
 O144 O 1.11877 0.53634 0.42455
 O145 O 0.88136 0.46449 0.42445
 Co146 Co 1.00003 0.62098 0.50004
 Co147 Co 1.00004 0.37987 0.50003
 Co148 Co 0.88649 0.50043 0.49998
 Co149 Co 1.11358 0.50043 0.50009
 O150 O 1.00003 0.50043 0.50004
 C151 C 1.11321 0.60353 0.41615
 C152 C 0.88684 0.39728 0.41615
 C153 C 0.89976 0.62204 0.42078
 C154 C 1.10046 0.37868 0.42095
 O155 O 1.08974 0.47340 0.10375
 O156 O 1.09112 0.52737 -0.10197
 O157 O 1.08132 0.37091 -0.04337
 O158 O 1.08138 0.62698 0.04318
 O159 O 1.02710 0.40881 -0.11811
 O160 O 1.02571 0.59287 0.11810
 O161 O 1.06765 0.63392 -0.06108
 O162 O 1.06705 0.36633 0.06214
 C163 C 1.10552 0.40675 0.09578
 C164 C 1.10685 0.59372 -0.09393
 C165 C 1.07721 0.37554 -0.09852
 C166 C 1.07643 0.62481 0.09839
 O167 O 0.90896 0.52737 0.10204
 O168 O 0.91033 0.47341 -0.10367
 O169 O 0.91876 0.37091 0.04344
 O170 O 0.91870 0.62698 -0.04311
 O171 O 0.97436 0.59287 -0.11802
 O172 O 0.97297 0.40881 0.11818
 O173 O 0.93243 0.63392 0.06116
 O174 O 0.93303 0.36633 -0.06207
 Co175 Co 0.99941 0.50080 0.09873
 Co176 Co 1.00066 0.50081 -0.09865
 Co177 Co 1.00004 0.38013 0.00004
 Co178 Co 1.00004 0.61942 0.00004
 O179 O 1.00004 0.50045 0.00004
 C180 C 0.89323 0.59372 0.09400
 C181 C 0.89456 0.40675 -0.09571
 C182 C 0.92286 0.37554 0.09859
 C183 C 0.92365 0.62481 -0.09831
 O184 O 0.58974 0.97340 0.60375
 O185 O 0.59112 1.02737 0.39803
 O186 O 0.58132 0.87091 0.45663
 O187 O 0.58138 1.12698 0.54318
 O188 O 0.52710 0.90882 0.38189
 O189 O 0.52571 1.09287 0.61810
 O190 O 0.56765 1.13392 0.43892
 O191 O 0.56705 0.86633 0.56214
 C192 C 0.60552 0.90675 0.59578
 C193 C 0.60685 1.09372 0.40607
 C194 C 0.57721 0.87554 0.40148
 C195 C 0.57643 1.12481 0.59839
 O196 O 0.40896 1.02737 0.60204
 O197 O 0.41033 0.97341 0.39633
 O198 O 0.41876 0.87091 0.54344
 O199 O 0.41870 1.12699 0.45689
 O200 O 0.47436 1.09287 0.38198
 O201 O 0.47297 0.90881 0.61818
 O202 O 0.43243 1.13392 0.56116
 O203 O 0.43303 0.86634 0.43793
 Co204 Co 0.49941 1.00080 0.59873
 Co205 Co 0.50066 1.00081 0.40135
 Co206 Co 0.50004 0.88013 0.50004
 Co207 Co 0.50004 1.11942 0.50004
 O208 O 0.50004 1.00045 0.50004
 C209 C 0.39323 1.09372 0.59400
 C210 C 0.39456 0.90675 0.40429
 C211 C 0.42286 0.87554 0.59859
 C212 C 0.42365 1.12481 0.40169
 O213 O 1.12908 1.05830 0.43187
 O214 O 0.87098 1.05830 0.56819
 O215 O 0.91660 1.04341 0.38480
 O216 O 1.08346 1.04341 0.61527
 O217 O 0.88228 1.09006 0.46676
 O218 O 1.11778 1.09007 0.53330
 O219 O 0.96945 1.09344 0.60266
 O220 O 1.03061 1.09344 0.39740
 C221 C 1.09344 1.10376 0.40182
 C222 C 0.90662 1.10377 0.59824
 C223 C 0.88487 1.09319 0.41188
 C224 C 1.11519 1.09319 0.58819
 O225 O 1.12948 0.94116 0.56769
 O226 O 0.87058 0.94116 0.43237
 O227 O 1.08283 0.95609 0.38441
 O228 O 0.91724 0.95609 0.61565
 O229 O 0.88250 0.90940 0.53382
 O230 O 1.11756 0.90940 0.46625
 O231 O 1.03118 0.90606 0.60253
 O232 O 0.96888 0.90605 0.39754
 Co233 Co 1.11208 0.99973 0.49981
 Co234 Co 0.88798 0.99973 0.50026
 Co235 Co 0.99976 0.99975 0.40188
 Co236 Co 1.00030 0.99975 0.59819
 O237 O 1.00003 0.99974 0.50003
 C238 C 1.09399 0.89573 0.59791
 C239 C 0.90607 0.89573 0.40216
 C240 C 1.11479 0.90637 0.41136
 C241 C 0.88527 0.90637 0.58870
 O242 O 0.62908 0.55830 -0.06813
 O243 O 0.37098 0.55830 0.06819
 O244 O 0.41660 0.54341 -0.11521
 O245 O 0.58346 0.54341 0.11527
 O246 O 0.38228 0.59006 -0.03324
 O247 O 0.61778 0.59007 0.03330
 O248 O 0.46945 0.59344 0.10266
 O249 O 0.53061 0.59344 -0.10260
 C250 C 0.59344 0.60376 -0.09818
 C251 C 0.40662 0.60377 0.09824
 C252 C 0.38487 0.59319 -0.08812
 C253 C 0.61519 0.59319 0.08819
 O254 O 0.62948 0.44116 0.06769
 O255 O 0.37058 0.44116 -0.06763
 O256 O 0.58283 0.45609 -0.11559
 O257 O 0.41724 0.45609 0.11565
 O258 O 0.38250 0.40940 0.03382
 O259 O 0.61756 0.40940 -0.03375
 O260 O 0.53118 0.40606 0.10253
 O261 O 0.46888 0.40605 -0.10246
 Co262 Co 0.61208 0.49973 -0.00019
 Co263 Co 0.38798 0.49973 0.00026
 Co264 Co 0.49976 0.49974 -0.09812
 Co265 Co 0.50030 0.49975 0.09819
 O266 O 0.50003 0.49974 0.00003
 C267 C 0.59399 0.39573 0.09791
 C268 C 0.40607 0.39573 -0.09784
 C269 C 0.61479 0.40637 -0.08864
 C270 C 0.38527 0.40637 0.08870
 N271 N 0.31679 1.19499 0.13389
 N272 N 0.35302 1.13581 0.13529
 N273 N 0.81679 0.69499 0.63389
 N274 N 0.85302 0.63581 0.63529
 N275 N 0.68299 0.80530 0.13354
 N276 N 0.64736 0.86488 0.13508
 N277 N 1.18299 0.30530 0.63354
 N278 N 1.14736 0.36488 0.63508
 N279 N 0.68329 1.19499 -0.13382
 N280 N 0.64704 1.13583 -0.13522
 N281 N 1.18329 0.69499 0.36618
 N282 N 1.14704 0.63583 0.36478
 N283 N 0.31708 0.80530 -0.13347
 N284 N 0.35272 0.86487 -0.13501
 N285 N 0.81708 0.30530 0.36653
 N286 N 0.85272 0.36487 0.36499
 N287 N 1.17373 0.30729 0.13885
 N288 N 1.15689 0.37561 0.13552
 N289 N 0.67373 0.80729 0.63885
 N290 N 0.65689 0.87561 0.63552
 N291 N 1.17374 0.69345 -0.13800
 N292 N 1.15835 0.62484 -0.13354
 N293 N 0.67374 1.19345 0.36200
 N294 N 0.65835 1.12484 0.36646
 N295 N 0.82633 0.69344 0.13807
 N296 N 0.84172 0.62484 0.13361
 N297 N 0.32633 1.19344 0.63807
 N298 N 0.34172 1.12484 0.63361
 N299 N 0.82634 0.30730 -0.13878
 N300 N 0.84318 0.37562 -0.13545
 N301 N 0.32634 0.80730 0.36122
 N302 N 0.34318 0.87562 0.36455
 N303 N 1.18103 1.14359 0.33691
 N304 N 1.12479 1.15808 0.36424
 N305 N 0.68103 0.64359 -0.16309
 N306 N 0.62479 0.65808 -0.13576
 N307 N 0.81905 1.14359 0.66317
 N308 N 0.87527 1.15808 0.63582
 N309 N 0.31905 0.64359 0.16317
 N310 N 0.37527 0.65808 0.13582
 N311 N 1.18111 0.85649 0.66358
 N312 N 1.12549 0.84149 0.63548
 N313 N 0.68111 0.35649 0.16358
 N314 N 0.62549 0.34149 0.13548
 N315 N 0.81895 0.85648 0.33649
 N316 N 0.87457 0.84148 0.36459
 N317 N 0.31895 0.35648 -0.16351
 N318 N 0.37457 0.34148 -0.13541
 N319 N 1.17049 0.29523 -0.13085
 N320 N 1.12265 0.34195 -0.14071
 N321 N 0.67049 0.79523 0.36915
 N322 N 0.62266 0.84195 0.35929
 N323 N 0.82944 0.70431 -0.13028
 N324 N 0.87805 0.65858 -0.14031
 N325 N 0.32944 1.20431 0.36972
 N326 N 0.37805 1.15858 0.35969
 N327 N 1.17064 0.70430 0.13036
 N328 N 1.12203 0.65857 0.14039
 N329 N 0.67064 1.20430 0.63036
 N330 N 0.62203 1.15857 0.64039
 N331 N 0.82957 0.29524 0.13092
 N332 N 0.87742 0.34195 0.14078
 N333 N 0.32957 0.79524 0.63092
 N334 N 0.37742 0.84194 0.64078
 N335 N 0.30447 1.17994 -0.12825
 N336 N 0.36710 1.15791 -0.12870
 N337 N 0.80447 0.67994 0.37175
 N338 N 0.86710 0.65791 0.37130
 N339 N 0.69559 1.17995 0.12832
 N340 N 0.63296 1.15792 0.12877
 N341 N 1.19559 0.67995 0.62832
 N342 N 1.13296 0.65792 0.62877
 N343 N 0.69569 0.82009 -0.12764
 N344 N 0.63321 0.84259 -0.12835
 N345 N 1.19569 0.32009 0.37236
 N346 N 1.13321 0.34259 0.37165
 N347 N 0.30438 0.82009 0.12771
 N348 N 0.36687 0.84258 0.12842
 N349 N 0.80438 0.32008 0.62771
 N350 N 0.86687 0.34258 0.62843
 N351 N 1.16761 1.13350 0.67512
 N352 N 1.15521 1.14552 0.61992
 N353 N 0.66761 0.63350 0.17512
 N354 N 0.65521 0.64552 0.11992
 N355 N 1.16737 0.86650 0.32432
 N356 N 1.15490 0.85427 0.37948
 N357 N 0.66737 0.36649 -0.17568
 N358 N 0.65490 0.35427 -0.12052
 N359 N 0.83245 1.13351 0.32494
 N360 N 0.84486 1.14552 0.38014
 N361 N 0.33245 0.63351 -0.17506
 N362 N 0.34486 0.64552 -0.11986
 N363 N 0.83270 0.86649 0.67575
 N364 N 0.84516 0.85427 0.62059
 N365 N 0.33270 0.36649 0.17575
 N366 N 0.34516 0.35427 0.12059
   
