data_POSCAR
  _audit_creation_date              2014-09-24
  _audit_creation_method            'ToBaCCo'
  _symmetry_space_group_name_H-M    'P1'
  _symmetry_Int_Tables_number       1
  _symmetry_cell_setting            triclinic
  loop_
  _symmetry_equiv_pos_as_xyz
 x,y,z
_cell_length_a 45.7752
_cell_length_b 50.2163
_cell_length_c 49.6844
_cell_angle_alpha 89.808700
_cell_angle_beta 89.829800
_cell_angle_gamma 90.003900
loop_
  _atom_site_label
  _atom_site_type_symbol
  _atom_site_fract_x
  _atom_site_fract_y
  _atom_site_fract_z
N1 N 0.18352 1.25046 0.17482
 N2 N 0.16424 1.25006 0.19445
 C3 C 0.14486 1.26988 0.19056
 C4 C 0.15228 1.28351 0.16711
 C5 C 0.17717 1.27053 0.15785
 H6 H 0.12633 1.27355 0.20353
 H7 H 0.18933 1.27463 0.13964
 Cu8 Cu 0.16536 1.22256 0.22214
 Cu9 Cu 0.21394 1.22357 0.17125
 Cu10 Cu 0.21645 1.17452 0.22043
 N11 N 0.16696 1.19484 0.24961
 N12 N 0.18726 1.17638 0.24896
 C13 C 0.18267 1.15899 0.26917
 C14 C 0.15787 1.16671 0.28335
 C15 C 0.14863 1.18974 0.27027
 H16 H 0.19586 1.14146 0.27244
 H17 H 0.12954 1.20154 0.27484
 N18 N 0.24403 1.17600 0.18991
 N19 N 0.24303 1.19462 0.17115
 C20 C 0.26313 1.18911 0.15212
 C21 C 0.27750 1.16581 0.15914
 C22 C 0.26480 1.15817 0.18331
 H23 H 0.26644 1.20079 0.13408
 H24 H 0.26938 1.14027 0.19464
 H25 H 0.19177 1.19347 0.19124
 H26 H 0.21671 1.21469 0.21169
 N27 N 0.81528 0.75224 0.17584
 N28 N 0.83455 0.75156 0.19535
 C29 C 0.85293 0.73102 0.19119
 C30 C 0.84477 0.71807 0.16776
 C31 C 0.82068 0.73218 0.15865
 H32 H 0.87129 0.72631 0.20394
 H33 H 0.80848 0.72874 0.14041
 Cu34 Cu 0.83496 0.77840 0.22353
 Cu35 Cu 0.78595 0.78011 0.17303
 Cu36 Cu 0.78692 0.82929 0.22163
 N37 N 0.83586 0.80702 0.24985
 N38 N 0.81685 0.82658 0.24922
 C39 C 0.82301 0.84394 0.26896
 C40 C 0.84749 0.83498 0.28280
 C41 C 0.85490 0.81133 0.26999
 H42 H 0.81100 0.86214 0.27227
 H43 H 0.87314 0.79843 0.27448
 N44 N 0.75834 0.82865 0.19208
 N45 N 0.75802 0.80992 0.17354
 C46 C 0.73736 0.81584 0.15524
 C47 C 0.72401 0.83953 0.16248
 C48 C 0.73788 0.84697 0.18605
 H49 H 0.73294 0.80409 0.13755
 H50 H 0.73421 0.86498 0.19740
 H51 H 0.81039 0.80883 0.19259
 H52 H 0.78410 0.78910 0.21347
 N53 N 0.81734 1.24832 -0.17700
 N54 N 0.83687 1.24904 -0.19640
 C55 C 0.85560 1.26919 -0.19176
 C56 C 0.84737 1.28186 -0.16815
 C57 C 0.82290 1.26799 -0.15943
 H58 H 0.87420 1.27387 -0.20433
 H59 H 0.81058 1.27126 -0.14116
 Cu60 Cu 0.83711 1.22272 -0.22510
 Cu61 Cu 0.78754 1.22081 -0.17477
 Cu62 Cu 0.78819 1.17250 -0.22424
 N63 N 0.83777 1.19457 -0.25196
 N64 N 0.81839 1.17529 -0.25173
 C65 C 0.82445 1.15817 -0.27174
 C66 C 0.84924 1.16696 -0.28534
 C67 C 0.85695 1.19028 -0.27210
 H68 H 0.81218 1.14018 -0.27536
 H69 H 0.87549 1.20295 -0.27629
 N70 N 0.75936 1.17298 -0.19473
 N71 N 0.75915 1.19138 -0.17586
 C72 C 0.73829 1.18536 -0.15767
 C73 C 0.72470 1.16193 -0.16532
 C74 C 0.73863 1.15476 -0.18902
 H75 H 0.73392 1.19683 -0.13975
 H76 H 0.73483 1.13698 -0.20067
 H77 H 0.81174 1.19207 -0.19481
 H78 H 0.78600 1.21252 -0.21542
 N79 N 0.18094 0.75078 -0.17207
 N80 N 0.16112 0.75087 -0.19112
 C81 C 0.14244 0.73055 -0.18687
 C82 C 0.15097 0.71692 -0.16386
 C83 C 0.17561 0.73040 -0.15510
 H84 H 0.12362 0.72649 -0.19923
 H85 H 0.18833 0.72627 -0.13730
 Cu86 Cu 0.16091 0.77861 -0.21855
 Cu87 Cu 0.21104 0.77813 -0.16943
 Cu88 Cu 0.21091 0.82738 -0.21861
 N89 N 0.16069 0.80635 -0.24597
 N90 N 0.18063 0.82514 -0.24600
 C91 C 0.17512 0.84235 -0.26615
 C92 C 0.15010 0.83413 -0.27955
 C93 C 0.14168 0.81103 -0.26608
 H94 H 0.18798 0.85999 -0.27002
 H95 H 0.12281 0.79881 -0.27007
 N96 N 0.23963 0.82619 -0.18911
 N97 N 0.23961 0.80756 -0.17033
 C98 C 0.26043 0.81326 -0.15213
 C99 C 0.27425 0.83670 -0.15971
 C100 C 0.26046 0.84421 -0.18335
 H101 H 0.26443 0.80174 -0.13413
 H102 H 0.26468 0.86191 -0.19513
 H103 H 0.18793 0.80793 -0.18858
 H104 H 0.21250 0.78716 -0.20991
 C105 C 0.46865 0.98206 -0.01743
 C106 C 0.48399 1.00028 -0.00153
 C107 C 0.46873 1.01850 0.01450
 C108 C 0.43804 1.01870 0.01475
 C109 C 0.42287 1.00029 -0.00125
 C110 C 0.43796 0.98188 -0.01740
 C111 C 0.51610 1.00028 -0.00166
 C112 C 0.53138 1.01677 -0.01961
 C113 C 0.56206 1.01686 -0.01995
 C114 C 0.57722 1.00033 -0.00185
 C115 C 0.56211 0.98377 0.01634
 C116 C 0.53142 0.98382 0.01621
 H117 H 0.48068 0.96787 -0.02955
 H118 H 0.48083 1.03270 0.02650
 H119 H 0.51930 1.02923 -0.03353
 H120 H 0.51938 0.97141 0.03025
 H121 H 0.39921 1.00030 -0.00115
 H122 H 0.60088 1.00039 -0.00190
 C123 C -0.01703 0.46980 0.98107
 C124 C -0.00395 0.48392 1.00216
 C125 C 0.00936 0.47001 1.02336
 C126 C 0.00993 0.44205 1.02351
 C127 C -0.00350 0.42817 1.00239
 C128 C -0.01711 0.44184 0.98113
 C129 C -0.00396 0.51328 1.00197
 C130 C -0.01760 0.52738 1.02286
 C131 C -0.01767 0.55535 1.02281
 C132 C -0.00357 0.56902 1.00177
 C133 C 0.01036 0.55518 0.98084
 C134 C 0.00988 0.52722 0.98099
 H135 H -0.02716 0.48064 0.96467
 H136 H 0.01943 0.48100 1.03962
 H137 H -0.02819 0.51655 1.03907
 H138 H 0.02037 0.51626 0.96489
 H139 H -0.00331 0.40660 1.00246
 H140 H -0.00343 0.59060 1.00170
 C141 C 0.98884 -0.02170 0.47058
 C142 C 1.00306 -0.00111 0.48436
 C143 C 1.01844 0.01842 0.46987
 C144 C 1.02014 0.01724 0.44167
 C145 C 1.00544 -0.00326 0.42812
 C146 C 0.98968 -0.02277 0.44235
 C147 C 1.00250 -0.00041 0.51400
 C148 C 1.01529 -0.02114 0.52883
 C149 C 1.01528 -0.02054 0.55708
 C150 C 1.00188 0.00093 0.57032
 C151 C 0.98875 0.02172 0.55573
 C152 C 0.98935 0.02099 0.52747
 H153 H 0.97714 -0.03682 0.48188
 H154 H 1.02989 0.03395 0.48065
 H155 H 1.02534 -0.03767 0.51832
 H156 H 0.97951 0.03698 0.51592
 H157 H 1.00569 -0.00365 0.40632
 H158 H 1.00164 0.00144 0.59211
 C159 C 0.10503 0.34481 1.12778
 C160 C 0.13139 0.33568 1.11699
 C161 C 0.14729 0.31586 1.13021
 C162 C 0.13705 0.30462 1.15457
 C163 C 0.11077 0.31462 1.16558
 C164 C 0.09490 0.33446 1.15223
 C165 C 0.08780 0.36375 1.11293
 C166 C 0.07344 0.37896 1.09960
 C167 C 0.05642 0.39625 1.08263
 C168 C 0.06852 0.41988 1.07255
 C169 C 0.05298 0.43531 1.05398
 C170 C 0.02521 0.42717 1.04516
 C171 C 0.01287 0.40384 1.05607
 C172 C 0.02840 0.38849 1.07466
 H173 H 0.13946 0.34360 1.09806
 H174 H 0.16738 0.30929 1.12091
 H175 H 0.10192 0.30696 1.18425
 H176 H 0.07448 0.34140 1.16078
 H177 H 0.09025 0.42600 1.07849
 H178 H 0.06314 0.45304 1.04575
 H179 H -0.00864 0.39730 1.04995
 H180 H 0.01882 0.37025 1.08235
 C181 C -0.11040 0.65445 1.12701
 C182 C -0.09906 0.66480 1.15089
 C183 C -0.11389 0.68510 1.16448
 C184 C -0.14027 0.69542 1.15428
 C185 C -0.15178 0.68436 1.13055
 C186 C -0.13691 0.66409 1.11702
 C187 C -0.09413 0.63508 1.11186
 C188 C -0.08035 0.61957 1.09840
 C189 C -0.06373 0.60201 1.08142
 C190 C -0.03536 0.60909 1.07368
 C191 C -0.02001 0.59343 1.05526
 C192 C -0.03288 0.57049 1.04427
 C193 C -0.06104 0.56302 1.05283
 C194 C -0.07641 0.57877 1.07125
 H195 H -0.07848 0.65754 1.15874
 H196 H -0.10426 0.69293 1.18265
 H197 H -0.17205 0.69148 1.12209
 H198 H -0.14586 0.65626 1.09849
 H199 H -0.02533 0.62703 1.08143
 H200 H 0.00181 0.59945 1.04932
 H201 H -0.07159 0.54560 1.04452
 H202 H -0.09842 0.57318 1.07702
 C203 C -0.10750 0.34408 0.87421
 C204 C -0.09528 0.33324 0.85085
 C205 C -0.11015 0.31339 0.83671
 C206 C -0.13747 0.30402 0.84583
 C207 C -0.14981 0.31557 0.86902
 C208 C -0.13491 0.33538 0.88309
 C209 C -0.09136 0.36302 0.88994
 C210 C -0.07783 0.37823 0.90388
 C211 C -0.06165 0.39553 0.92142
 C212 C -0.03362 0.38822 0.92981
 C213 C -0.01876 0.40371 0.94865
 C214 C -0.03180 0.42672 0.95941
 C215 C -0.05961 0.43439 0.95021
 C216 C -0.07447 0.41883 0.93138
 H217 H -0.07400 0.33978 0.84384
 H218 H -0.09984 0.30510 0.81901
 H219 H -0.17083 0.30918 0.87662
 H220 H -0.14456 0.34358 0.90120
 H221 H -0.02347 0.37026 0.92219
 H222 H 0.00282 0.39755 0.95502
 H223 H -0.07028 0.45188 0.95830
 H224 H -0.09620 0.42462 0.92507
 C225 C 0.10537 0.65347 0.87687
 C226 C 0.13162 0.66322 0.88724
 C227 C 0.14677 0.68342 0.87373
 C228 C 0.13581 0.69429 0.84962
 C229 C 0.10971 0.68384 0.83904
 C230 C 0.09460 0.66362 0.85261
 C231 C 0.08872 0.63422 0.89199
 C232 C 0.07461 0.61881 0.90539
 C233 C 0.05758 0.60137 0.92229
 C234 C 0.06980 0.57793 0.93262
 C235 C 0.05405 0.56232 0.95099
 C236 C 0.02594 0.57013 0.95936
 C237 C 0.01352 0.59327 0.94820
 C238 C 0.02926 0.60878 0.92982
 H239 H 0.14010 0.65558 0.90609
 H240 H 0.16679 0.69069 0.88254
 H241 H 0.10054 0.69148 0.82053
 H242 H 0.07421 0.65630 0.84445
 H243 H 0.09177 0.57207 0.92701
 H244 H 0.06425 0.54473 0.95942
 H245 H -0.00824 0.59954 0.95398
 H246 H 0.01956 0.62686 0.92193
 C247 C 1.11472 0.12386 0.34539
 C248 C 1.14148 0.11489 0.33535
 C249 C 1.15610 0.12934 0.31536
 C250 C 1.14409 0.15309 0.30485
 C251 C 1.11747 0.16232 0.31586
 C252 C 1.10290 0.14773 0.33584
 C253 C 1.09866 0.10753 0.36413
 C254 C 1.08532 0.09284 0.37895
 C255 C 1.06961 0.07412 0.39552
 C256 C 1.07098 0.04700 0.38934
 C257 C 1.05515 0.02855 0.40456
 C258 C 1.03761 0.03697 0.42621
 C259 C 1.03669 0.06424 0.43260
 C260 C 1.05256 0.08273 0.41726
 H261 H 1.15080 0.09637 0.34257
 H262 H 1.17655 0.12141 0.30804
 H263 H 1.10731 0.18044 0.30878
 H264 H 1.08209 0.15481 0.34343
 H265 H 1.08419 0.04011 0.37262
 H266 H 1.05673 0.00765 0.39946
 H267 H 1.02324 0.07131 0.44906
 H268 H 1.05132 0.10370 0.42219
 C269 C 1.10531 -0.12511 0.65821
 C270 C 1.09408 -0.14895 0.66851
 C271 C 1.10911 -0.16276 0.68867
 C272 C 1.13564 -0.15281 0.69907
 C273 C 1.14695 -0.12902 0.68795
 C274 C 1.13187 -0.11534 0.66779
 C275 C 1.08902 -0.10985 0.63881
 C276 C 1.07546 -0.09627 0.62317
 C277 C 1.05938 -0.07912 0.60530
 C278 C 1.03146 -0.07035 0.61261
 C279 C 1.01674 -0.05187 0.59653
 C280 C 1.02981 -0.04185 0.57291
 C281 C 1.05754 -0.05135 0.56531
 C282 C 1.07226 -0.06982 0.58147
 H283 H 1.07343 -0.15665 0.66129
 H284 H 1.09945 -0.18095 0.69625
 H285 H 1.16729 -0.12056 0.69482
 H286 H 1.14074 -0.09684 0.65999
 H287 H 1.02132 -0.07739 0.63104
 H288 H 0.99526 -0.04519 0.60270
 H289 H 1.06827 -0.04378 0.54740
 H290 H 1.09395 -0.07635 0.57571
 C291 C 0.89343 -0.12518 0.34468
 C292 C 0.90366 -0.14954 0.33496
 C293 C 0.88823 -0.16303 0.31492
 C294 C 0.86230 -0.15223 0.30406
 C295 C 0.85194 -0.12791 0.31464
 C296 C 0.86740 -0.11456 0.33470
 C297 C 0.91033 -0.11027 0.36380
 C298 C 0.92458 -0.09702 0.37911
 C299 C 0.94168 -0.08030 0.39647
 C300 C 0.97053 -0.07409 0.38948
 C301 C 0.98645 -0.05600 0.40490
 C302 C 0.97368 -0.04379 0.42750
 C303 C 0.94498 -0.05077 0.43487
 C304 C 0.92905 -0.06886 0.41937
 H305 H 0.92387 -0.15791 0.34251
 H306 H 0.89719 -0.18161 0.30774
 H307 H 0.83210 -0.11876 0.30738
 H308 H 0.85929 -0.09566 0.34208
 H309 H 0.98052 -0.08280 0.37177
 H310 H 1.00864 -0.05128 0.39896
 H311 H 0.93449 -0.04150 0.45200
 H312 H 0.90667 -0.07340 0.42485
 C313 C 0.89524 0.12718 0.65250
 C314 C 0.90584 0.15122 0.66265
 C315 C 0.89040 0.16471 0.68276
 C316 C 0.86407 0.15423 0.69328
 C317 C 0.85334 0.13027 0.68226
 C318 C 0.86883 0.11691 0.66213
 C319 C 0.91212 0.11216 0.63335
 C320 C 0.92624 0.09869 0.61806
 C321 C 0.94306 0.08154 0.60079
 C322 C 0.97107 0.07356 0.60860
 C323 C 0.98638 0.05478 0.59341
 C324 C 0.97381 0.04365 0.57022
 C325 C 0.94606 0.05248 0.56199
 C326 C 0.93074 0.07125 0.57726
 H327 H 0.92636 0.15931 0.65538
 H328 H 0.89964 0.18303 0.69027
 H329 H 0.83317 0.12140 0.68921
 H330 H 0.86043 0.09826 0.65443
 H331 H 0.98080 0.08135 0.62681
 H332 H 1.00787 0.04862 0.60003
 H333 H 0.93573 0.04407 0.54437
 H334 H 0.90899 0.07717 0.57114
 C335 C 0.33882 1.12076 0.11183
 C336 C 0.33395 1.11412 0.13883
 C337 C 0.31448 1.12909 0.15438
 C338 C 0.29950 1.15091 0.14310
 C339 C 0.30504 1.15772 0.11604
 C340 C 0.32451 1.14271 0.10054
 C341 C 0.35747 1.10439 0.09538
 C342 C 0.37248 1.09035 0.08137
 C343 C 0.38969 1.07321 0.06440
 C344 C 0.41481 1.06083 0.07444
 C345 C 0.43080 1.04336 0.05820
 C346 C 0.42176 1.03799 0.03172
 C347 C 0.39666 1.05078 0.02173
 C348 C 0.38076 1.06826 0.03798
 H349 H 0.34488 1.09715 0.14778
 H350 H 0.31110 1.12337 0.17516
 H351 H 0.29392 1.17422 0.10653
 H352 H 0.32803 1.14797 0.07961
 H353 H 0.42184 1.06441 0.09492
 H354 H 0.44982 1.03358 0.06654
 H355 H 0.38938 1.04734 0.00132
 H356 H 0.36135 1.07774 0.03000
 C357 C 0.66210 1.11567 -0.12035
 C358 C 0.67491 1.13817 -0.10882
 C359 C 0.69476 1.15355 -0.12360
 C360 C 0.70222 1.14658 -0.15018
 C361 C 0.68868 1.12421 -0.16178
 C362 C 0.66881 1.10886 -0.14694
 C363 C 0.64314 1.09895 -0.10446
 C364 C 0.62792 1.08472 -0.09074
 C365 C 0.61056 1.06747 -0.07391
 C366 C 0.58547 1.07714 -0.06106
 C367 C 0.56944 1.06060 -0.04378
 C368 C 0.57838 1.03418 -0.03906
 C369 C 0.60340 1.02456 -0.05238
 C370 C 0.61936 1.04111 -0.06965
 H371 H 0.66994 1.14358 -0.08821
 H372 H 0.70467 1.17049 -0.11386
 H373 H 0.69353 1.11833 -0.18223
 H374 H 0.65904 1.09146 -0.15608
 H375 H 0.57853 1.09754 -0.06413
 H376 H 0.55045 1.06864 -0.03361
 H377 H 0.61058 1.00421 -0.04948
 H378 H 0.63872 1.03340 -0.07952
 C379 C 0.33725 0.88134 -0.11416
 C380 C 0.33005 0.85533 -0.10645
 C381 C 0.31004 0.84059 -0.12154
 C382 C 0.29684 0.85171 -0.14456
 C383 C 0.30475 0.87771 -0.15240
 C384 C 0.32475 0.89239 -0.13728
 C385 C 0.35634 0.89717 -0.09771
 C386 C 0.37167 0.91087 -0.08373
 C387 C 0.38918 0.92770 -0.06680
 C388 C 0.38043 0.93253 -0.04025
 C389 C 0.39650 0.94986 -0.02408
 C390 C 0.42158 0.96265 -0.03426
 C391 C 0.43047 0.95735 -0.06085
 C392 C 0.41432 0.94001 -0.07702
 H393 H 0.33955 0.84659 -0.08854
 H394 H 0.30479 0.82062 -0.11492
 H395 H 0.29511 0.88709 -0.16986
 H396 H 0.33008 0.91255 -0.14339
 H397 H 0.36102 0.92308 -0.03212
 H398 H 0.38935 0.95323 -0.00358
 H399 H 0.44950 0.96710 -0.06933
 H400 H 0.42123 0.93650 -0.09758
 C401 C 0.66196 0.88553 0.11695
 C402 C 0.66867 0.89270 0.14340
 C403 C 0.68835 0.87744 0.15842
 C404 C 0.70174 0.85481 0.14713
 C405 C 0.69432 0.84749 0.12067
 C406 C 0.67463 0.86279 0.10571
 C407 C 0.64312 0.90212 0.10091
 C408 C 0.62798 0.91625 0.08710
 C409 C 0.61068 0.93339 0.07020
 C410 C 0.61946 0.95974 0.06578
 C411 C 0.60348 0.97620 0.04851
 C412 C 0.57847 0.96650 0.03538
 C413 C 0.56956 0.94009 0.04024
 C414 C 0.58562 0.92364 0.05751
 H415 H 0.65902 0.91031 0.15230
 H416 H 0.69321 0.88361 0.17875
 H417 H 0.70414 0.83034 0.11116
 H418 H 0.66970 0.85712 0.08520
 H419 H 0.63879 0.96752 0.07552
 H420 H 0.61063 0.99655 0.04550
 H421 H 0.55058 0.93199 0.03022
 H422 H 0.57869 0.90324 0.06071
   
