data_POSCAR
  _audit_creation_date              2014-09-24
  _audit_creation_method            'ToBaCCo'
  _symmetry_space_group_name_H-M    'P1'
  _symmetry_Int_Tables_number       1
  _symmetry_cell_setting            triclinic
  loop_
  _symmetry_equiv_pos_as_xyz
 x,y,z
_cell_length_a 41.3682
_cell_length_b 42.0837
_cell_length_c 41.2720
_cell_angle_alpha 89.416300
_cell_angle_beta 88.733100
_cell_angle_gamma 88.979300
loop_
  _atom_site_label
  _atom_site_type_symbol
  _atom_site_fract_x
  _atom_site_fract_y
  _atom_site_fract_z
C1 C 0.31141 0.35078 1.34855
 C2 C 0.33665 0.35109 1.32542
 C3 C 0.36135 0.32875 1.32705
 C4 C 0.36100 0.30562 1.35152
 C5 C 0.33578 0.30471 1.37408
 C6 C 0.31081 0.32776 1.37275
 C7 C 0.28538 0.37081 1.35375
 N8 N 0.26891 0.36081 1.38061
 C9 C 0.28416 0.33429 1.39239
 C10 C 0.34216 0.27956 1.39480
 N11 N 0.37078 0.26570 1.38527
 C12 C 0.38244 0.28165 1.35899
 C13 C 0.38273 0.33484 1.30195
 N14 N 0.37138 0.36018 1.28491
 C15 C 0.34326 0.37051 1.29922
 H16 H 0.27927 0.39170 1.33943
 H17 H 0.27730 0.32121 1.41409
 H18 H 0.32744 0.27258 1.41558
 H19 H 0.40492 0.27609 1.34614
 H20 H 0.40477 0.32161 1.29620
 H21 H 0.32869 0.39067 1.29150
 C22 C 1.18017 0.64489 0.81985
 C23 C 1.15978 0.64409 0.79331
 C24 C 1.13370 0.66492 0.79138
 C25 C 1.12786 0.68713 0.81614
 C26 C 1.14810 0.68798 0.84245
 C27 C 1.17454 0.66655 0.84438
 C28 C 1.20724 0.62735 0.82744
 N29 N 1.21846 0.63756 0.85606
 C30 C 1.19861 0.66167 0.86675
 C31 C 1.13682 0.71215 0.86225
 N32 N 1.11027 0.72601 0.84858
 C33 C 1.10473 0.71072 0.82044
 C34 C 1.11831 0.65848 0.76288
 N35 N 1.13458 0.63422 0.74775
 C36 C 1.16001 0.62548 0.76617
 H37 H 1.21813 0.60845 0.81302
 H38 H 1.20139 0.67494 0.88879
 H39 H 1.14767 0.71901 0.88465
 H40 H 1.08536 0.71655 0.80404
 H41 H 1.09710 0.67077 0.75388
 H42 H 1.17734 0.60672 0.76026
 C43 C 0.68909 -0.12878 0.15009
 C44 C 0.66379 -0.12568 0.17356
 C45 C 0.64044 -0.14894 0.17599
 C46 C 0.64202 -0.17550 0.15584
 C47 C 0.66697 -0.17871 0.13344
 C48 C 0.69047 -0.15536 0.13052
 C49 C 0.71479 -0.10991 0.14031
 N50 N 0.73132 -0.12479 0.11556
 C51 C 0.71654 -0.15256 0.10978
 C52 C 0.66237 -0.20639 0.11695
 N53 N 0.63505 -0.22012 0.12870
 C54 C 0.62239 -0.20137 0.15269
 C55 C 0.61848 -0.13998 0.19965
 N56 N 0.62777 -0.11214 0.21230
 C57 C 0.65546 -0.10297 0.19657
 H58 H 0.72057 -0.08713 0.15038
 H59 H 0.72394 -0.16939 0.09123
 H60 H 0.67766 -0.21573 0.09750
 H61 H 0.60064 -0.20585 0.16689
 H62 H 0.59717 -0.15290 0.20729
 H63 H 0.66827 -0.08132 0.20113
 C64 C -0.18018 1.12159 -0.35290
 C65 C -0.15634 1.12247 -0.32945
 C66 C -0.13396 1.14655 -0.32991
 C67 C -0.13538 1.17036 -0.35415
 C68 C -0.15903 1.16926 -0.37736
 C69 C -0.18160 1.14481 -0.37668
 C70 C -0.20472 1.10083 -0.35814
 N71 N -0.22120 1.11089 -0.38449
 C72 C -0.20718 1.13789 -0.39608
 C73 C -0.15469 1.19472 -0.39795
 N74 N -0.12914 1.21156 -0.38798
 C75 C -0.11708 1.19685 -0.36110
 C76 C -0.11390 1.14093 -0.30404
 N77 N -0.12385 1.11414 -0.28818
 C78 C -0.14977 1.10288 -0.30359
 H79 H -0.21024 1.07986 -0.34375
 H80 H -0.21454 1.15150 -0.41711
 H81 H -0.16916 1.20059 -0.41881
 H82 H -0.09643 1.20435 -0.34769
 H83 H -0.09396 1.15554 -0.29725
 H84 H -0.16295 1.08185 -0.29639
 C85 C 0.67951 0.63586 0.67441
 C86 C 0.66249 0.64345 0.70300
 C87 C 0.64496 0.67171 0.70525
 C88 C 0.64466 0.69297 0.67880
 C89 C 0.66169 0.68538 0.65064
 C90 C 0.67915 0.65673 0.64843
 C91 C 0.69975 0.61089 0.66612
 N92 N 0.71195 0.61639 0.63588
 C93 C 0.69929 0.64432 0.62473
 C94 C 0.65838 0.71047 0.62949
 N95 N 0.63974 0.73328 0.64395
 C96 C 0.63116 0.72281 0.67424
 C97 C 0.63147 0.67282 0.73605
 N98 N 0.64063 0.64595 0.75223
 C99 C 0.65975 0.62805 0.73233
 H100 H 0.70629 0.59086 0.68145
 H101 H 0.70471 0.65531 0.60149
 H102 H 0.66908 0.71218 0.60535
 H103 H 0.61665 0.73575 0.69196
 H104 H 0.61661 0.69192 0.74602
 H105 H 0.67069 0.60535 0.73874
 C106 C 0.79620 0.35139 0.15706
 C107 C 0.81927 0.35193 0.18172
 C108 C 0.84431 0.32977 0.18135
 C109 C 0.84690 0.30707 0.15711
 C110 C 0.82451 0.30624 0.13289
 C111 C 0.79880 0.32860 0.13294
 C112 C 0.76875 0.36944 0.15102
 N113 N 0.75464 0.35810 0.12399
 C114 C 0.77286 0.33310 0.11300
 C115 C 0.83325 0.28083 0.11327
 N116 N 0.86026 0.26656 0.12557
 C117 C 0.86856 0.28255 0.15232
 C118 C 0.86275 0.33461 0.20784
 N119 N 0.84983 0.35921 0.22479
 C120 C 0.82310 0.37019 0.20915
 H121 H 0.75972 0.38893 0.16572
 H122 H 0.76758 0.31910 0.09195
 H123 H 0.82044 0.27312 0.09226
 H124 H 0.88886 0.27653 0.16751
 H125 H 0.88399 0.32089 0.21462
 H126 H 0.80742 0.38954 0.21717
 C127 C 0.34025 0.14588 0.85572
 C128 C 0.36281 0.14656 0.82982
 C129 C 0.38710 0.16871 0.82932
 C130 C 0.38912 0.19060 0.85457
 C131 C 0.36674 0.19013 0.87999
 C132 C 0.34231 0.16735 0.88073
 C133 C 0.31422 0.12683 0.86266
 N134 N 0.30054 0.13605 0.89147
 C135 C 0.31768 0.16075 0.90266
 C136 C 0.37414 0.21458 0.90040
 N137 N 0.40050 0.22965 0.88793
 C138 C 0.40997 0.21499 0.86011
 C139 C 0.40513 0.16415 0.80129
 N140 N 0.39249 0.13976 0.78476
 C141 C 0.36651 0.12883 0.80204
 H142 H 0.30654 0.10738 0.84791
 H143 H 0.31254 0.17312 0.92513
 H144 H 0.36142 0.22078 0.92271
 H145 H 0.43027 0.22193 0.84478
 H146 H 0.42587 0.17775 0.79333
 H147 H 0.35106 0.10976 0.79496
 C148 C 0.19764 0.84574 0.32766
 C149 C 0.17254 0.84496 0.30553
 C150 C 0.15141 0.81983 0.30590
 C151 C 0.15495 0.79525 0.32897
 C152 C 0.17980 0.79613 0.35088
 C153 C 0.20138 0.82150 0.35014
 C154 C 0.22202 0.86688 0.33208
 N155 N 0.24066 0.85614 0.35666
 C156 C 0.22817 0.82828 0.36795
 C157 C 0.17751 0.76944 0.37023
 N158 N 0.15183 0.75242 0.36088
 C159 C 0.13792 0.76796 0.33551
 C160 C 0.13047 0.82497 0.28072
 N161 N 0.13833 0.85265 0.26550
 C162 C 0.16408 0.86497 0.28052
 H163 H 0.22611 0.88846 0.31815
 H164 H 0.23765 0.81370 0.38737
 H165 H 0.19323 0.76296 0.38995
 H166 H 0.11702 0.76026 0.32263
 H167 H 0.11126 0.80952 0.27365
 H168 H 0.17658 0.88632 0.27315
 Zn169 Zn 0.05367 0.99008 -0.00171
 Zn170 Zn 0.01557 1.04366 -0.02956
 Zn171 Zn -0.01329 0.97850 -0.02686
 Zn172 Zn -0.00398 1.01628 0.03388
 O173 O 0.01294 1.00686 -0.00607
 O174 O 0.08494 1.01432 -0.01981
 O175 O -0.00520 1.04149 -0.06640
 O176 O 0.00852 0.94204 -0.03764
 O177 O 0.05598 1.05385 -0.04076
 O178 O 0.05760 0.95214 -0.02016
 O179 O -0.02844 0.99453 -0.06479
 O180 O -0.03950 0.99479 0.04244
 O181 O -0.00222 1.07742 -0.00954
 O182 O -0.04845 0.96731 -0.00191
 O183 O -0.01651 1.05695 0.03804
 O184 O 0.02190 1.00625 0.06677
 O185 O 0.06449 0.98316 0.03961
 C186 C 0.08299 1.04027 -0.03571
 C187 C -0.02289 1.02091 -0.07899
 C188 C 0.03808 0.93405 -0.03396
 C189 C -0.05635 0.97564 0.02685
 C190 C -0.01551 1.08018 0.01825
 C191 C 0.05015 0.99027 0.06812
 Zn192 Zn 0.48284 -0.00781 0.46174
 Zn193 Zn 0.49734 0.03238 0.51906
 Zn194 Zn 0.47360 -0.03303 0.52927
 Zn195 Zn 0.54030 -0.02260 0.50201
 O196 O 0.49854 -0.00781 0.50294
 O197 O 0.46672 0.03042 0.44998
 O198 O 0.47496 0.03575 0.55651
 O199 O 0.44192 -0.05165 0.50822
 O200 O 0.47813 0.05968 0.49243
 O201 O 0.44991 -0.03459 0.45778
 O202 O 0.45518 -0.01238 0.56297
 O203 O 0.54601 -0.05685 0.52758
 O204 O 0.53648 0.04769 0.52653
 O205 O 0.49641 -0.06454 0.54712
 O206 O 0.56821 0.00620 0.51535
 O207 O 0.55448 -0.03288 0.46200
 O208 O 0.51294 -0.01936 0.43150
 C209 C 0.46567 0.05668 0.46486
 C210 C 0.45800 0.01597 0.57248
 C211 C 0.43450 -0.05123 0.47858
 C212 C 0.52614 -0.07217 0.54537
 C213 C 0.56432 0.03472 0.52454
 C214 C 0.54178 -0.02984 0.43440
 Zn215 Zn 0.98682 0.45297 0.47409
 Zn216 Zn 1.02925 0.50717 0.49306
 Zn217 Zn 0.96555 0.52022 0.46300
 Zn218 Zn 0.96848 0.49339 0.53014
 O219 O 0.98764 0.49340 0.49002
 O220 O 1.02668 0.43799 0.46517
 O221 O 1.03766 0.54089 0.46721
 O222 O 0.94924 0.50039 0.42936
 O223 O 1.05803 0.47672 0.48162
 O224 O 0.96362 0.45010 0.43770
 O225 O 0.98987 0.55116 0.44607
 O226 O 0.93240 0.51684 0.53132
 O227 O 1.03879 0.52007 0.53331
 O228 O 0.93134 0.53887 0.48241
 O229 O 0.99324 0.50982 0.56023
 O230 O 0.95768 0.45470 0.54467
 O231 O 0.97012 0.42463 0.50245
 C232 C 1.05445 0.44918 0.46994
 C233 C 1.01949 0.55750 0.44900
 C234 C 0.94906 0.47146 0.42127
 C235 C 0.91925 0.53508 0.51062
 C236 C 1.02162 0.52063 0.55922
 C237 C 0.95927 0.42774 0.53128
 Zn238 Zn 0.48909 0.47845 1.02949
 Zn239 Zn 0.45685 0.54240 1.04088
 Zn240 Zn 0.52286 0.53771 1.01068
 Zn241 Zn 0.46538 0.51756 0.97388
 O242 O 0.48352 0.51899 1.01377
 O243 O 0.46612 0.47243 1.06608
 O244 O 0.47641 0.57575 1.05809
 O245 O 0.55542 0.51244 1.02378
 O246 O 0.44222 0.51934 1.07432
 O247 O 0.53055 0.46840 1.03882
 O248 O 0.52512 0.57226 1.03514
 O249 O 0.49045 0.53484 0.94290
 O250 O 0.42164 0.55841 1.02137
 O251 O 0.53260 0.55059 0.97038
 O252 O 0.42797 0.53947 0.97185
 O253 O 0.45677 0.47793 0.96154
 O254 O 0.47544 0.44874 1.00221
 C255 C 0.44739 0.49063 1.08251
 C256 C 0.50485 0.58598 1.05405
 C257 C 0.55614 0.48450 1.03558
 C258 C 0.51744 0.54853 0.94411
 C259 C 0.41205 0.55583 0.99257
 C260 C 0.46182 0.45111 0.97499
 C261 C 1.24273 0.37670 0.39321
 C262 C 1.22509 0.36630 0.42041
 C263 C 1.19747 0.38523 0.43346
 C264 C 1.17031 0.36973 0.44636
 C265 C 1.14316 0.38729 0.45697
 C266 C 1.14299 0.42071 0.45519
 C267 C 1.17083 0.43618 0.44395
 C268 C 1.19779 0.41864 0.43301
 C269 C 1.11432 0.44005 0.46483
 C270 C 1.08290 0.42928 0.46174
 H271 H 1.22988 0.34313 0.43098
 H272 H 1.16981 0.34402 0.44748
 H273 H 1.12246 0.37467 0.46663
 H274 H 1.17146 0.46190 0.44295
 H275 H 1.21887 0.43126 0.42424
 H276 H 1.11798 0.46434 0.47222
 H277 H 1.23490 0.39846 0.38122
 H278 H 1.07882 0.40587 0.45216
 C279 C 0.24545 0.62495 0.86986
 C280 C 0.25712 0.63423 0.89983
 C281 C 0.28708 0.61982 0.91313
 C282 C 0.29038 0.61663 0.94679
 C283 C 0.31790 0.60174 0.95970
 C284 C 0.34289 0.59015 0.93904
 C285 C 0.33985 0.59418 0.90545
 C286 C 0.31246 0.60899 0.89263
 C287 C 0.37208 0.57308 0.95095
 C288 C 0.38199 0.57249 0.98310
 H289 H 0.24330 0.65078 0.91474
 H290 H 0.27125 0.62496 0.96310
 H291 H 0.31901 0.59885 0.98570
 H292 H 0.35880 0.58579 0.88896
 H293 H 0.31140 0.61207 0.86662
 H294 H 0.38725 0.56103 0.93301
 H295 H 0.25829 0.60606 0.85705
 H296 H 0.36847 0.58539 1.00158
 C297 C -0.24224 0.88479 0.09801
 C298 C -0.22722 0.91397 0.10186
 C299 C -0.19836 0.92357 0.08211
 C300 C -0.17870 0.94753 0.09373
 C301 C -0.15080 0.95660 0.07650
 C302 C -0.14167 0.94169 0.04716
 C303 C -0.16208 0.91874 0.03478
 C304 C -0.19011 0.90977 0.05194
 C305 C -0.11154 0.95003 0.02880
 C306 C -0.08539 0.96368 0.04382
 H307 H -0.23583 0.92985 0.12073
 H308 H -0.18478 0.95915 0.11642
 H309 H -0.13678 0.97556 0.08623
 H310 H -0.15615 0.90745 0.01188
 H311 H -0.20525 0.89230 0.04116
 H312 H -0.10972 0.94488 0.00315
 H313 H -0.23229 0.86856 0.08008
 H314 H -0.08651 0.96738 0.06971
 C315 C 0.75304 0.09542 0.60372
 C316 C 0.73488 0.10684 0.57777
 C317 C 0.70686 0.08948 0.56575
 C318 C 0.68101 0.10664 0.55224
 C319 C 0.65377 0.09090 0.54162
 C320 C 0.65210 0.05760 0.54409
 C321 C 0.67854 0.04039 0.55636
 C322 C 0.70564 0.05613 0.56718
 C323 C 0.62356 0.04001 0.53375
 C324 C 0.59246 0.05335 0.53332
 H325 H 0.73960 0.13001 0.56735
 H326 H 0.68169 0.13231 0.55035
 H327 H 0.63433 0.10487 0.53122
 H328 H 0.67806 0.01469 0.55795
 H329 H 0.72568 0.04208 0.57633
 H330 H 0.62683 0.01501 0.52830
 H331 H 0.74572 0.07359 0.61571
 H332 H 0.58823 0.07768 0.54074
 C333 C 0.38665 0.24066 0.39895
 C334 C 0.37278 0.22080 0.42238
 C335 C 0.39167 0.19363 0.43486
 C336 C 0.37865 0.16313 0.43493
 C337 C 0.39764 0.13685 0.44399
 C338 C 0.42962 0.14098 0.45380
 C339 C 0.44207 0.17166 0.45504
 C340 C 0.42339 0.19778 0.44524
 C341 C 0.44988 0.11395 0.46443
 C342 C 0.44859 0.08401 0.45048
 H343 H 0.34732 0.22282 0.42875
 H344 H 0.35417 0.15959 0.42710
 H345 H 0.38722 0.11344 0.44374
 H346 H 0.46648 0.17533 0.46303
 H347 H 0.43370 0.22126 0.44569
 H348 H 0.46693 0.11804 0.48344
 H349 H 0.41089 0.23478 0.39004
 H350 H 0.43393 0.08033 0.42946
 C351 C 0.88153 0.23813 0.59630
 C352 C 0.90656 0.25689 0.60726
 C353 C 0.91749 0.28548 0.58908
 C354 C 0.92980 0.31120 0.60600
 C355 C 0.93971 0.33867 0.58943
 C356 C 0.93780 0.34080 0.55546
 C357 C 0.92653 0.31464 0.53849
 C358 C 0.91636 0.28733 0.55506
 C359 C 0.94824 0.36933 0.53690
 C360 C 0.94843 0.39976 0.55005
 H361 H 0.91709 0.25195 0.63057
 H362 H 0.93142 0.31015 0.63215
 H363 H 0.94932 0.35790 0.60327
 H364 H 0.92537 0.31543 0.51229
 H365 H 0.90808 0.26754 0.54110
 H366 H 0.95465 0.36646 0.51148
 H367 H 0.86930 0.24562 0.57448
 H368 H 0.94001 0.40352 0.57475
 C369 C 0.09194 0.75115 -0.14043
 C370 C 0.09790 0.76686 -0.11141
 C371 C 0.07965 0.79543 -0.09941
 C372 C 0.08811 0.80795 -0.06941
 C373 C 0.07304 0.83553 -0.05744
 C374 C 0.04911 0.85156 -0.07532
 C375 C 0.03970 0.83856 -0.10474
 C376 C 0.05488 0.81093 -0.11684
 C377 C 0.03406 0.88189 -0.06391
 C378 C 0.05105 0.90318 -0.04527
 H379 H 0.11731 0.75819 -0.09644
 H380 H 0.10674 0.79647 -0.05516
 H381 H 0.08015 0.84412 -0.03408
 H382 H 0.02110 0.85026 -0.11884
 H383 H 0.04727 0.80238 -0.13997
 H384 H 0.01019 0.88859 -0.07215
 H385 H 0.07203 0.75917 -0.15510
 H386 H 0.07597 0.89770 -0.03956
 C387 C 0.62348 0.75220 1.11723
 C388 C 0.59437 0.73893 1.12805
 C389 C 0.58213 0.70922 1.11434
 C390 C 0.54866 0.70456 1.11349
 C391 C 0.53638 0.67732 1.09941
 C392 C 0.55752 0.65396 1.08630
 C393 C 0.59098 0.65832 1.08798
 C394 C 0.60320 0.68551 1.10198
 C395 C 0.54603 0.62539 1.06968
 C396 C 0.51440 0.61439 1.07171
 H397 H 0.57888 0.75151 1.14521
 H398 H 0.53196 0.72244 1.12301
 H399 H 0.51045 0.67521 1.09822
 H400 H 0.60780 0.64060 1.07832
 H401 H 0.62916 0.68772 1.10325
 H402 H 0.56374 0.61192 1.05548
 H403 H 0.63712 0.74045 1.09796
 H404 H 0.49634 0.62610 1.08693
 C405 C 0.38726 0.37286 1.25657
 C406 C 0.37182 0.39409 1.23562
 C407 C 0.38753 0.40687 1.20593
 C408 C 0.37552 0.43537 1.19265
 C409 C 0.38996 0.44853 1.16488
 C410 C 0.41680 0.43330 1.14986
 C411 C 0.42806 0.40422 1.16247
 C412 C 0.41360 0.39105 1.19021
 C413 C 0.43318 0.44653 1.12074
 C414 C 0.43099 0.47847 1.11174
 H415 H 0.34756 0.40248 1.24148
 H416 H 0.35502 0.44763 1.20393
 H417 H 0.37967 0.47031 1.15519
 H418 H 0.44826 0.39172 1.15092
 H419 H 0.42269 0.36833 1.19884
 H420 H 0.44853 0.43064 1.10643
 H421 H 0.41185 0.36504 1.25139
 H422 H 0.41710 0.49524 1.12631
 C423 C 0.60949 -0.09607 0.23741
 C424 C 0.62320 -0.07524 0.25912
 C425 C 0.60470 -0.06307 0.28785
 C426 C 0.62103 -0.05664 0.31643
 C427 C 0.60389 -0.04725 0.34452
 C428 C 0.56994 -0.04389 0.34452
 C429 C 0.55384 -0.04886 0.31547
 C430 C 0.57093 -0.05837 0.28748
 C431 C 0.55054 -0.03482 0.37390
 C432 C 0.56151 -0.03868 0.40552
 H433 H 0.64884 -0.07069 0.25708
 H434 H 0.64707 -0.05956 0.31724
 H435 H 0.61744 -0.04251 0.36599
 H436 H 0.52781 -0.04583 0.31453
 H437 H 0.55759 -0.06195 0.26560
 H438 H 0.52605 -0.02606 0.37053
 H439 H 0.58480 -0.10338 0.24178
 H440 H 0.58529 -0.04881 0.40964
 C441 C -0.11097 1.09935 -0.25958
 C442 C -0.08201 1.10840 -0.24597
 C443 C -0.06896 1.09367 -0.21602
 C444 C -0.04611 1.11041 -0.19873
 C445 C -0.03363 1.09789 -0.17007
 C446 C -0.04349 1.06819 -0.15798
 C447 C -0.06586 1.05095 -0.17562
 C448 C -0.07836 1.06350 -0.20442
 C449 C -0.02986 1.05681 -0.12691
 C450 C -0.03726 1.02831 -0.11070
 H451 H -0.06890 1.12796 -0.25682
 H452 H -0.03817 1.13350 -0.20719
 H453 H -0.01629 1.11168 -0.15715
 H454 H -0.07385 1.02785 -0.16749
 H455 H -0.09503 1.04923 -0.21753
 H456 H -0.01297 1.07249 -0.11570
 H457 H -0.12478 1.08052 -0.24828
 H458 H -0.05358 1.01148 -0.12080
 C459 C 1.12742 0.61939 0.71760
 C460 C 1.09774 0.62342 0.70254
 C461 C 1.08918 0.60572 0.67315
 C462 C 1.05649 0.60015 0.66745
 C463 C 1.04742 0.58279 0.64054
 C464 C 1.07095 0.57070 0.61856
 C465 C 1.10358 0.57727 0.62357
 C466 C 1.11268 0.59450 0.65065
 C467 C 1.06197 0.55237 0.58970
 C468 C 1.03371 0.53481 0.58893
 H469 H 1.07906 0.63790 0.71415
 H470 H 1.03788 0.60900 0.68407
 H471 H 1.02192 0.57941 0.63681
 H472 H 1.12209 0.56883 0.60663
 H473 H 1.13804 0.59928 0.65358
 H474 H 1.07804 0.55264 0.56862
 H475 H 1.14505 0.60264 0.70764
 H476 H 1.01861 0.53278 0.61057
 C477 C 0.73638 0.59686 0.62057
 C478 C 0.75607 0.60837 0.59538
 C479 C 0.78544 0.59155 0.58323
 C480 C 0.79959 0.60160 0.55377
 C481 C 0.82840 0.58764 0.54227
 C482 C 0.84365 0.56323 0.56017
 C483 C 0.82954 0.55331 0.58967
 C484 C 0.80084 0.56732 0.60120
 C485 C 0.87447 0.54793 0.54972
 C486 C 0.88915 0.55209 0.51928
 H487 H 0.75064 0.63138 0.58475
 H488 H 0.78847 0.62058 0.53974
 H489 H 0.83866 0.59658 0.51977
 H490 H 0.84097 0.53482 0.60411
 H491 H 0.79156 0.55958 0.62458
 H492 H 0.88591 0.53184 0.56683
 H493 H 0.74081 0.57344 0.63069
 H494 H 0.87831 0.56712 0.50098
 C495 C 0.72696 0.36858 1.10963
 C496 C 0.70965 0.39590 1.11933
 C497 C 0.67961 0.40706 1.10339
 C498 C 0.67172 0.43963 1.10333
 C499 C 0.64343 0.45100 1.08888
 C500 C 0.62212 0.42991 1.07446
 C501 C 0.62960 0.39724 1.07521
 C502 C 0.65813 0.38590 1.08931
 C503 C 0.59135 0.44119 1.06003
 C504 C 0.58747 0.47158 1.04657
 H505 H 0.71926 0.41092 1.13776
 H506 H 0.68757 0.45638 1.11446
 H507 H 0.63798 0.47622 1.08978
 H508 H 0.61333 0.38044 1.06479
 H509 H 0.66289 0.36054 1.08980
 H510 H 0.57136 0.42492 1.05953
 H511 H 0.71854 0.35567 1.08896
 H512 H 0.60807 0.48704 1.04462
 C513 C 0.27459 1.12326 -0.09254
 C514 C 0.25504 1.10040 -0.10622
 C515 C 0.22663 1.08697 -0.08892
 C516 C 0.19954 1.07894 -0.10674
 C517 C 0.17235 1.06603 -0.09125
 C518 C 0.17199 1.06028 -0.05764
 C519 C 0.19945 1.06737 -0.03990
 C520 C 0.22645 1.08096 -0.05532
 C521 C 0.14344 1.04632 -0.04106
 C522 C 0.11213 1.05486 -0.04992
 H523 H 0.25877 1.09386 -0.13130
 H524 H 0.19931 1.08296 -0.13271
 H525 H 0.15183 1.06003 -0.10569
 H526 H 0.19983 1.06276 -0.01404
 H527 H 0.24735 1.08616 -0.04109
 H528 H 0.14707 1.03034 -0.02067
 H529 H 0.26805 1.13207 -0.06864
 H530 H 0.10868 1.07344 -0.06794
 C531 C 0.26721 -0.12845 0.36681
 C532 C 0.28673 -0.13972 0.39186
 C533 C 0.31563 -0.12275 0.40266
 C534 C 0.32719 -0.12899 0.43383
 C535 C 0.35404 -0.11311 0.44516
 C536 C 0.36997 -0.09053 0.42542
 C537 C 0.35904 -0.08509 0.39388
 C538 C 0.33227 -0.10103 0.38253
 C539 C 0.39811 -0.07245 0.43638
 C540 C 0.40715 -0.07044 0.46866
 H541 H 0.28010 -0.16096 0.40517
 H542 H 0.31523 -0.14606 0.44961
 H543 H 0.36216 -0.11894 0.46922
 H544 H 0.37118 -0.06830 0.37793
 H545 H 0.32511 -0.09647 0.35787
 H546 H 0.41166 -0.05908 0.41824
 H547 H 0.27310 -0.10612 0.35506
 H548 H 0.39367 -0.08258 0.48762
 C549 C 0.63209 -0.23862 0.62927
 C550 C 0.61251 -0.21517 0.64375
 C551 C 0.60298 -0.18591 0.62606
 C552 C 0.57307 -0.17136 0.63355
 C553 C 0.56223 -0.14512 0.61562
 C554 C 0.58126 -0.13292 0.58984
 C555 C 0.61201 -0.14630 0.58366
 C556 C 0.62283 -0.17256 0.60156
 C557 C 0.56993 -0.10629 0.56917
 C558 C 0.53726 -0.09923 0.56502
 H559 H 0.60153 -0.21928 0.66740
 H560 H 0.55770 -0.18078 0.65282
 H561 H 0.53902 -0.13452 0.62214
 H562 H 0.62744 -0.13680 0.56448
 H563 H 0.64668 -0.18229 0.59610
 H564 H 0.58784 -0.09266 0.55576
 H565 H 0.64094 -0.23476 0.60467
 H566 H 0.51896 -0.11349 0.57695
 C567 C 1.14202 0.72329 0.37645
 C568 C 1.11333 0.70803 0.36918
 C569 C 1.10177 0.67879 0.38598
 C570 C 1.07655 0.66196 0.37226
 C571 C 1.06418 0.63482 0.38756
 C572 C 1.07662 0.62401 0.41723
 C573 C 1.10211 0.64053 0.43077
 C574 C 1.11441 0.66775 0.41555
 C575 C 1.06385 0.59565 0.43451
 C576 C 1.03244 0.58488 0.43077
 H577 H 1.09852 0.71770 0.35009
 H578 H 1.06638 0.66979 0.34951
 H579 H 1.04518 0.62225 0.37582
 H580 H 1.11216 0.63268 0.45358
 H581 H 1.13329 0.68019 0.42754
 H582 H 1.07906 0.58399 0.45225
 H583 H 1.15763 0.71331 0.39472
 H584 H 1.01608 0.59759 0.41493
 C585 C -0.12317 1.24028 0.11519
 C586 C -0.12969 1.22407 0.08682
 C587 C -0.11067 1.19518 0.07814
 C588 C -0.10164 1.18957 0.04574
 C589 C -0.08197 1.16328 0.03761
 C590 C -0.07135 1.14198 0.06185
 C591 C -0.08157 1.14697 0.09403
 C592 C -0.10092 1.17331 0.10214
 C593 C -0.05111 1.11352 0.05448
 C594 C -0.03133 1.11061 0.02681
 H595 H -0.14690 1.23366 0.06979
 H596 H -0.10928 1.20588 0.02681
 H597 H -0.07559 1.15955 0.01237
 H598 H -0.07433 1.13055 0.11303
 H599 H -0.10837 1.17645 0.12724
 H600 H -0.05182 1.09396 0.07175
 H601 H -0.10309 1.23174 0.12955
 H602 H -0.02894 1.13032 0.00994
 C603 C 0.41643 0.25638 0.90132
 C604 C 0.39968 0.27900 0.91995
 C605 C 0.41523 0.30779 0.93213
 C606 C 0.39707 0.33616 0.93457
 C607 C 0.41105 0.36374 0.94610
 C608 C 0.44335 0.36327 0.95602
 C609 C 0.46128 0.33470 0.95436
 C610 C 0.44750 0.30725 0.94217
 C611 C 0.45814 0.39182 0.96967
 C612 C 0.45034 0.42249 0.95893
 H613 H 0.37377 0.27695 0.92332
 H614 H 0.37205 0.33702 0.92733
 H615 H 0.39631 0.38518 0.94798
 H616 H 0.48605 0.33368 0.96234
 H617 H 0.46186 0.28551 0.94129
 H618 H 0.47614 0.38854 0.98814
 H619 H 0.44143 0.26042 0.89436
 H620 H 0.43479 0.42573 0.93834
 C621 C 0.63212 0.63678 0.78473
 C622 C 0.60382 0.64765 0.80010
 C623 C 0.59221 0.63307 0.83071
 C624 C 0.55897 0.62869 0.83567
 C625 C 0.54757 0.61217 0.86298
 C626 C 0.56932 0.60005 0.88594
 C627 C 0.60238 0.60604 0.88189
 C628 C 0.61381 0.62227 0.85441
 C629 C 0.55812 0.58185 0.91462
 C630 C 0.53049 0.56339 0.91446
 H631 H 0.58772 0.66371 0.78729
 H632 H 0.54190 0.63723 0.81791
 H633 H 0.52178 0.60905 0.86609
 H634 H 0.61946 0.59753 0.89966
 H635 H 0.63952 0.62619 0.85165
 H636 H 0.57249 0.58243 0.93624
 H637 H 0.64620 0.61790 0.79598
 H638 H 0.51714 0.56090 0.89239
 C639 C 0.40496 0.12892 0.75393
 C640 C 0.39326 0.10216 0.73850
 C641 C 0.40610 0.09079 0.70674
 C642 C 0.40222 0.05883 0.69850
 C643 C 0.41434 0.04712 0.66894
 C644 C 0.43035 0.06736 0.64669
 C645 C 0.43362 0.09947 0.65474
 C646 C 0.42157 0.11113 0.68429
 C647 C 0.44465 0.05626 0.61535
 C648 C 0.44143 0.02574 0.60286
 H649 H 0.37513 0.08794 0.75073
 H650 H 0.39017 0.04271 0.71525
 H651 H 0.41133 0.02220 0.66409
 H652 H 0.44558 0.11571 0.63805
 H653 H 0.42410 0.13615 0.68915
 H654 H 0.45884 0.07316 0.60138
 H655 H 0.42494 0.14166 0.74295
 H656 H 0.42697 0.00822 0.61545
 C657 C 0.12351 0.86510 0.23680
 C658 C 0.12634 0.89701 0.22768
 C659 C 0.11460 0.91013 0.19663
 C660 C 0.10618 0.94254 0.19453
 C661 C 0.09604 0.95593 0.16522
 C662 C 0.09477 0.93720 0.13728
 C663 C 0.10382 0.90495 0.13926
 C664 C 0.11347 0.89145 0.16866
 C665 C 0.08377 0.95037 0.10600
 C666 C 0.06607 0.97863 0.10385
 H667 H 0.13681 0.91337 0.24441
 H668 H 0.10727 0.95749 0.21567
 H669 H 0.08946 0.98094 0.16439
 H670 H 0.10322 0.89009 0.11801
 H671 H 0.12073 0.86661 0.16922
 H672 H 0.08706 0.93605 0.08444
 H673 H 0.10945 0.84935 0.22231
 H674 H 0.05830 0.98432 0.08635
 C675 C 0.86350 0.36944 0.25449
 C676 C 0.85174 0.39504 0.27267
 C677 C 0.86791 0.40436 0.30278
 C678 C 0.86796 0.43637 0.31179
 C679 C 0.88519 0.44591 0.33875
 C680 C 0.90269 0.42345 0.35733
 C681 C 0.90120 0.39127 0.34918
 C682 C 0.88395 0.38177 0.32236
 C683 C 0.92233 0.43224 0.38549
 C684 C 0.93103 0.46328 0.39229
 H685 H 0.83217 0.40977 0.26361
 H686 H 0.85527 0.45414 0.29750
 H687 H 0.88450 0.47083 0.34475
 H688 H 0.91377 0.37336 0.36341
 H689 H 0.88328 0.35667 0.31706
 H690 H 0.93074 0.41329 0.40135
 H691 H 0.88495 0.35683 0.26257
 H692 H 0.92354 0.48276 0.37678
   
