data_POSCAR
  _audit_creation_date              2014-09-24
  _audit_creation_method            'ToBaCCo'
  _symmetry_space_group_name_H-M    'P1'
  _symmetry_Int_Tables_number       1
  _symmetry_cell_setting            triclinic
  loop_
  _symmetry_equiv_pos_as_xyz
 x,y,z
_cell_length_a 28.5355
_cell_length_b 24.1093
_cell_length_c 37.7969
_cell_angle_alpha 88.902700
_cell_angle_beta 91.299400
_cell_angle_gamma 114.417100
loop_
  _atom_site_label
  _atom_site_type_symbol
  _atom_site_fract_x
  _atom_site_fract_y
  _atom_site_fract_z
C1 C -0.02325 0.48092 1.24223
 C2 C 0.02839 0.50332 1.24987
 C3 C 0.04972 0.52567 1.28593
 C4 C 0.06502 0.51013 1.22105
 C5 C -0.04221 0.47928 1.20481
 C6 C -0.06233 0.46440 1.27066
 C7 C 0.03493 0.56665 1.30318
 C8 C 0.05346 0.58709 1.33715
 C9 C 0.08846 0.56816 1.35512
 C10 C 0.10385 0.52748 1.33734
 C11 C 0.08495 0.50689 1.30312
 C12 C 0.10132 0.56792 1.21063
 C13 C 0.12932 0.57487 1.17956
 C14 C 0.12211 0.52392 1.15897
 C15 C 0.08723 0.46598 1.17043
 C16 C 0.05906 0.45919 1.20109
 C17 C -0.08079 0.42610 1.19069
 C18 C -0.10085 0.42648 1.15644
 C19 C -0.08314 0.48035 1.13583
 C20 C -0.04396 0.53314 1.14994
 C21 C -0.02412 0.53273 1.18403
 C22 C -0.06013 0.42976 1.30059
 C23 C -0.09431 0.41980 1.32852
 C24 C -0.13162 0.44374 1.32677
 C25 C -0.13587 0.47464 1.29577
 C26 C -0.10161 0.48502 1.26817
 H27 H 0.00865 0.58294 1.29028
 H28 H 0.03962 0.61787 1.34876
 H29 H 0.13067 0.51148 1.34953
 H30 H 0.09731 0.47559 1.29025
 H31 H 0.10610 0.60786 1.22556
 H32 H 0.15629 0.61997 1.17157
 H33 H 0.03101 0.41432 1.20859
 H34 H -0.09582 0.38455 1.20637
 H35 H -0.13134 0.38512 1.14664
 H36 H -0.02886 0.57529 1.13487
 H37 H 0.00465 0.57475 1.19457
 H38 H -0.03104 0.41190 1.30275
 H39 H -0.09025 0.39548 1.35192
 H40 H -0.16516 0.49204 1.29293
 H41 H -0.10480 0.51108 1.24531
 H42 H 0.08015 0.42580 1.15508
 C43 C 0.50439 0.48578 1.25301
 C44 C 0.46775 0.50794 1.24882
 C45 C 0.44008 0.51765 1.27923
 C46 C 0.45110 0.51847 1.21292
 C47 C 0.53553 0.48278 1.22263
 C48 C 0.51300 0.46022 1.28724
 C49 C 0.38618 0.48895 1.27997
 C50 C 0.35975 0.49520 1.30918
 C51 C 0.38664 0.53123 1.33794
 C52 C 0.44053 0.56177 1.33667
 C53 C 0.46708 0.55472 1.30762
 C54 C 0.43064 0.46995 1.18926
 C55 C 0.41856 0.47999 1.15453
 C56 C 0.42667 0.53888 1.14271
 C57 C 0.44561 0.58716 1.16691
 C58 C 0.45749 0.57692 1.20186
 C59 C 0.56308 0.53508 1.20239
 C60 C 0.59027 0.53175 1.17289
 C61 C 0.59121 0.47613 1.16320
 C62 C 0.56455 0.42401 1.18408
 C63 C 0.53712 0.42739 1.21358
 C64 C 0.56313 0.47790 1.30080
 C65 C 0.57206 0.45076 1.33162
 C66 C 0.53095 0.40512 1.34944
 C67 C 0.48066 0.38789 1.33587
 C68 C 0.47185 0.41480 1.30491
 H69 H 0.36462 0.46039 1.25827
 H70 H 0.31818 0.47186 1.30918
 H71 H 0.46221 0.58968 1.35853
 H72 H 0.50869 0.57775 1.30735
 H73 H 0.42471 0.42433 1.19766
 H74 H 0.40265 0.44123 1.13721
 H75 H 0.47314 0.61478 1.21994
 H76 H 0.56299 0.57846 1.20922
 H77 H 0.60960 0.57286 1.15747
 H78 H 0.56478 0.38057 1.17770
 H79 H 0.51629 0.38650 1.22899
 H80 H 0.59546 0.51233 1.28727
 H81 H 0.61136 0.46489 1.34095
 H82 H 0.44792 0.35349 1.34890
 H83 H 0.43296 0.39931 1.29438
 H84 H 0.45222 0.63303 1.15877
 C85 C 0.55982 1.02649 1.25783
 C86 C 0.51169 0.98250 1.25161
 C87 C 0.47621 0.95147 1.28082
 C88 C 0.48961 0.96338 1.21606
 C89 C 0.59546 1.06412 1.22943
 C90 C 0.57726 1.04304 1.29486
 C91 C 0.48818 0.91587 1.30604
 C92 C 0.45398 0.88675 1.33320
 C93 C 0.40650 0.89178 1.33539
 C94 C 0.39487 0.92738 1.30958
 C95 C 0.42931 0.95679 1.28274
 C96 C 0.48267 0.90569 1.20432
 C97 C 0.45576 0.88285 1.17289
 C98 C 0.43388 0.91658 1.15347
 C99 C 0.44161 0.97487 1.16491
 C100 C 0.46984 0.99848 1.19594
 C101 C 0.62853 1.12529 1.23645
 C102 C 0.66065 1.16275 1.21045
 C103 C 0.65851 1.14126 1.17595
 C104 C 0.62686 1.07984 1.16899
 C105 C 0.59770 1.04115 1.19583
 C106 C 0.55454 1.07255 1.31547
 C107 C 0.57279 1.09083 1.34973
 C108 C 0.61454 1.08031 1.36412
 C109 C 0.63602 1.04890 1.34331
 C110 C 0.61785 1.03110 1.30896
 H111 H 0.52392 0.91044 1.30459
 H112 H 0.46488 0.85957 1.35190
 H113 H 0.35971 0.93398 1.30996
 H114 H 0.41948 0.98432 1.26352
 H115 H 0.49720 0.87790 1.21997
 H116 H 0.44970 0.83749 1.16482
 H117 H 0.47439 1.04275 1.20509
 H118 H 0.62896 1.14515 1.26195
 H119 H 0.68418 1.20979 1.21696
 H120 H 0.62594 1.06100 1.14307
 H121 H 0.57727 0.99348 1.18988
 H122 H 0.52312 1.08218 1.30476
 H123 H 0.55404 1.11356 1.36452
 H124 H 0.66797 1.03932 1.35258
 H125 H 0.63571 1.00833 1.29319
 H126 H 0.42500 1.00153 1.15021
 C127 C 1.01739 0.47428 0.75168
 C128 C 0.96715 0.44952 0.74045
 C129 C 0.95405 0.45905 0.70335
 C130 C 0.92302 0.42692 0.76565
 C131 C 1.03135 0.48759 0.78958
 C132 C 1.06028 0.50485 0.72634
 C133 C 0.96535 0.51845 0.69091
 C134 C 0.94474 0.52779 0.65874
 C135 C 0.91249 0.47792 0.63855
 C136 C 0.90328 0.41856 0.65025
 C137 C 0.92355 0.40922 0.68262
 C138 C 0.88221 0.44465 0.76019
 C139 C 0.84556 0.43431 0.78602
 C140 C 0.84898 0.40702 0.81850
 C141 C 0.88653 0.38367 0.82287
 C142 C 0.92279 0.39271 0.79638
 C143 C 1.06967 0.47298 0.80543
 C144 C 1.09051 0.49657 0.83851
 C145 C 1.07381 0.53606 0.85623
 C146 C 1.03292 0.54714 0.84087
 C147 C 1.01278 0.52422 0.80778
 C148 C 1.06490 0.47678 0.69517
 C149 C 1.10143 0.50986 0.66982
 C150 C 1.13469 0.57166 0.67531
 C151 C 1.13178 0.59776 0.70780
 C152 C 1.09510 0.56514 0.73261
 H153 H 0.98789 0.55743 0.70705
 H154 H 0.95270 0.57392 0.65025
 H155 H 0.87798 0.37910 0.63551
 H156 H 0.91377 0.36320 0.69220
 H157 H 0.87985 0.46981 0.73671
 H158 H 0.81576 0.45028 0.78088
 H159 H 0.95242 0.37617 0.80083
 H160 H 1.08501 0.44548 0.79147
 H161 H 1.12110 0.48554 0.84916
 H162 H 1.01726 0.57565 0.85314
 H163 H 0.98427 0.53765 0.79560
 H164 H 1.03913 0.42988 0.68994
 H165 H 1.10247 0.48695 0.64574
 H166 H 1.15650 0.64413 0.71445
 H167 H 1.09281 0.58836 0.75632
 H168 H 0.88965 0.36136 0.84736
 C169 C 0.44311 0.46028 0.74997
 C170 C 0.47110 0.42612 0.75127
 C171 C 0.49877 0.42229 0.71939
 C172 C 0.48425 0.40408 0.78563
 C173 C 0.43496 0.48914 0.78209
 C174 C 0.43203 0.48439 0.71588
 C175 C 0.48549 0.36736 0.70140
 C176 C 0.51037 0.36650 0.66993
 C177 C 0.54851 0.42066 0.65632
 C178 C 0.56308 0.47470 0.67548
 C179 C 0.53864 0.47543 0.70672
 C180 C 0.44614 0.37496 0.81080
 C181 C 0.45939 0.36102 0.84460
 C182 C 0.51109 0.37522 0.85393
 C183 C 0.54895 0.40217 0.82821
 C184 C 0.53567 0.41625 0.79444
 C185 C 0.47769 0.52704 0.80227
 C186 C 0.47168 0.56106 0.82969
 C187 C 0.42288 0.55839 0.83730
 C188 C 0.37980 0.51933 0.81770
 C189 C 0.38593 0.48538 0.78997
 C190 C 0.45832 0.54665 0.70804
 C191 C 0.45069 0.57002 0.67552
 C192 C 0.41556 0.53196 0.65058
 C193 C 0.38774 0.46996 0.65874
 C194 C 0.39647 0.44608 0.69113
 H195 H 0.45510 0.32585 0.71116
 H196 H 0.49863 0.32422 0.65567
 H197 H 0.59335 0.51677 0.66627
 H198 H 0.55018 0.51785 0.72084
 H199 H 0.40616 0.36458 0.80459
 H200 H 0.42901 0.34062 0.86353
 H201 H 0.56598 0.43876 0.77565
 H202 H 0.51605 0.53187 0.79599
 H203 H 0.50548 0.58990 0.84469
 H204 H 0.34181 0.51672 0.82297
 H205 H 0.35272 0.45721 0.77418
 H206 H 0.48595 0.57688 0.72678
 H207 H 0.47245 0.61799 0.66975
 H208 H 0.36077 0.43986 0.63965
 H209 H 0.37583 0.39792 0.69686
 H210 H 0.58903 0.41298 0.83413
 C211 C 0.50027 -0.02657 0.75043
 C212 C 0.54414 0.02427 0.75759
 C213 C 0.57893 0.05976 0.72902
 C214 C 0.55714 0.04974 0.79391
 C215 C 0.46502 -0.06083 0.77940
 C216 C 0.48293 -0.04543 0.71334
 C217 C 0.60952 0.03666 0.71119
 C218 C 0.64150 0.07054 0.68382
 C219 C 0.64209 0.12707 0.67339
 C220 C 0.61158 0.15006 0.69142
 C221 C 0.58097 0.11716 0.71942
 C222 C 0.60511 0.06037 0.80975
 C223 C 0.61606 0.08100 0.84471
 C224 C 0.57889 0.09050 0.86432
 C225 C 0.53189 0.08233 0.84791
 C226 C 0.52154 0.06334 0.81288
 C227 C 0.41530 -0.06277 0.78043
 C228 C 0.38514 -0.08463 0.81056
 C229 C 0.40366 -0.10605 0.84041
 C230 C 0.45266 -0.10721 0.83814
 C231 C 0.48283 -0.08488 0.80809
 C232 C 0.47328 -0.00557 0.68991
 C233 C 0.45625 -0.02295 0.65527
 C234 C 0.44728 -0.08156 0.64293
 C235 C 0.45699 -0.12158 0.66683
 C236 C 0.47425 -0.10378 0.70163
 H237 H 0.60850 -0.00750 0.71845
 H238 H 0.66452 0.05185 0.67011
 H239 H 0.61164 0.19368 0.68393
 H240 H 0.55768 0.13565 0.73301
 H241 H 0.63351 0.05124 0.79537
 H242 H 0.65275 0.08759 0.85677
 H243 H 0.48523 0.05809 0.80075
 H244 H 0.40079 -0.04435 0.75857
 H245 H 0.34763 -0.08368 0.81013
 H246 H 0.46911 -0.12325 0.85989
 H247 H 0.52110 -0.08394 0.80781
 H248 H 0.47838 0.03914 0.69859
 H249 H 0.45008 0.01040 0.63871
 H250 H 0.45085 -0.16703 0.65909
 H251 H 0.48102 -0.13555 0.71943
 H252 H 0.50313 0.09101 0.86214
 O253 O 0.39180 0.67902 0.96332
 O254 O 0.37288 0.77565 0.96361
 C255 C 0.33812 0.79457 0.95653
 O256 O 0.29655 0.77927 0.97413
 O257 O 0.21762 0.67642 0.96754
 C258 C 0.20264 0.62515 0.95346
 O259 O 0.22344 0.58875 0.95962
 O260 O 0.31747 0.60852 0.94360
 C261 C 0.36504 0.64113 0.94023
 O262 O 0.38667 0.67332 1.03447
 O263 O 0.37728 0.77647 1.03432
 C264 C 0.34299 0.78334 1.05171
 O265 O 0.29587 0.75500 1.04507
 O266 O 0.22070 0.64883 1.03726
 C267 C 0.22024 0.59654 1.04487
 O268 O 0.24369 0.57151 1.02737
 O269 O 0.33606 0.58361 1.01092
 C270 C 0.37012 0.61582 1.03309
 Cr271 Cr 0.37923 0.72423 0.99891
 Cr272 Cr 0.25968 0.71343 1.00566
 Cr273 Cr 0.28117 0.59160 0.98585
 O274 O 0.30623 0.67661 0.99688
 O275 O 0.59483 0.32854 0.99220
 O276 O 0.61541 0.23323 0.98884
 C277 C 0.64374 0.21189 0.97405
 O278 O 0.69258 0.23350 0.97801
 O279 O 0.75609 0.33461 0.94972
 C280 C 0.76123 0.38482 0.93592
 O281 O 0.75053 0.42352 0.95182
 O282 O 0.65427 0.40067 0.95960
 C283 C 0.60816 0.36336 0.96513
 O284 O 0.63722 0.34951 1.05834
 O285 O 0.65354 0.25120 1.05501
 C286 C 0.69755 0.25311 1.06272
 O287 O 0.73595 0.27676 1.04295
 O288 O 0.79818 0.37715 1.01515
 C289 C 0.80123 0.42731 1.02776
 O290 O 0.76885 0.44987 1.02080
 O291 O 0.67408 0.43593 1.02774
 C292 C 0.65253 0.40663 1.05525
 Cr293 Cr 0.62798 0.29261 1.02278
 Cr294 Cr 0.74368 0.30674 0.99667
 Cr295 Cr 0.71131 0.42421 0.99050
 O296 O 0.69442 0.34090 1.00324
 O297 O 0.65543 0.41531 0.52448
 O298 O 0.75438 0.44613 0.52973
 C299 C 0.79245 0.43296 0.53592
 O300 O 0.79850 0.38969 0.52093
 O301 O 0.74029 0.28244 0.54735
 C302 C 0.69770 0.24733 0.56085
 O303 O 0.65415 0.23751 0.54675
 O304 O 0.62112 0.32319 0.54946
 C305 C 0.62899 0.37888 0.54826
 O306 O 0.65806 0.39357 0.45572
 O307 O 0.75774 0.43122 0.45999
 C308 C 0.77313 0.39737 0.44298
 O309 O 0.76912 0.34590 0.45466
 O310 O 0.71435 0.23798 0.48205
 C311 C 0.66906 0.21128 0.46955
 O312 O 0.63291 0.22683 0.47637
 O313 O 0.59696 0.30998 0.47947
 C314 C 0.61284 0.35164 0.45588
 Cr315 Cr 0.70609 0.41848 0.49285
 Cr316 Cr 0.75347 0.31495 0.50126
 Cr317 Cr 0.62882 0.27650 0.51263
 O318 O 0.69603 0.33645 0.50241
 O319 O 0.30630 0.58584 0.54251
 O320 O 0.22026 0.60137 0.54304
 C321 C 0.22743 0.64821 0.56149
 O322 O 0.25007 0.70222 0.54979
 O323 O 0.32605 0.79230 0.52019
 C324 C 0.36720 0.79500 0.53507
 O325 O 0.38615 0.75721 0.52859
 O326 O 0.38113 0.64809 0.51870
 C327 C 0.35523 0.60877 0.54166
 O328 O 0.29653 0.56794 0.47182
 O329 O 0.21410 0.58819 0.47000
 C330 C 0.19148 0.62354 0.46667
 O331 O 0.20200 0.66831 0.48714
 O332 O 0.28245 0.75306 0.45687
 C333 C 0.32699 0.77334 0.44370
 O334 O 0.36471 0.76546 0.45814
 O335 O 0.35670 0.65428 0.45008
 C336 C 0.32889 0.59750 0.44831
 Cr337 Cr 0.26027 0.58852 0.50670
 Cr338 Cr 0.26611 0.72708 0.50336
 Cr339 Cr 0.36987 0.70532 0.48923
 O340 O 0.29908 0.67342 0.49979
 N341 N 0.29984 0.50654 0.40986
 N342 N 0.31449 0.48940 0.38069
 C343 C 0.35836 0.53486 0.36952
 C344 C 0.37211 0.58335 0.39267
 C345 C 0.33380 0.56341 0.41781
 H346 H 0.40499 0.62691 0.39135
 H347 H 0.26689 0.47963 0.42389
 H348 H 0.29503 0.44675 0.36915
 N349 N 0.30074 0.82511 0.39475
 N350 N 0.32316 0.85865 0.36449
 C351 C 0.37157 0.86196 0.36259
 C352 C 0.38060 0.83093 0.39158
 C353 C 0.33578 0.80898 0.41080
 H354 H 0.41522 0.82498 0.39848
 H355 H 0.26333 0.81489 0.40297
 H356 H 0.30373 0.87560 0.34669
 N357 N 0.12598 0.64772 0.43775
 N358 N 0.09716 0.63275 0.40642
 C359 C 0.10798 0.59061 0.38944
 C360 C 0.14320 0.57703 0.41056
 C361 C 0.15383 0.61437 0.44019
 H362 H 0.16130 0.54690 0.40448
 H363 H 0.12676 0.68123 0.45517
 H364 H 0.07363 0.65411 0.39809
 N365 N 0.52840 0.30846 0.42390
 N366 N 0.50667 0.32250 0.39596
 C367 C 0.54070 0.37507 0.38158
 C368 C 0.58610 0.39504 0.40138
 C369 C 0.57661 0.35161 0.42781
 H370 H 0.62119 0.43552 0.39750
 H371 H 0.51047 0.26969 0.43975
 H372 H 0.46947 0.29550 0.38689
 N373 N 0.69008 0.13109 0.44357
 N374 N 0.67518 0.09463 0.41367
 C375 C 0.63581 0.10327 0.39763
 C376 C 0.62409 0.14373 0.41776
 C377 C 0.65933 0.16064 0.44555
 H378 H 0.59708 0.16353 0.41154
 H379 H 0.72185 0.13691 0.45980
 H380 H 0.69379 0.06798 0.40553
 N381 N 0.79284 0.47083 0.39329
 N382 N 0.81694 0.48277 0.36292
 C383 C 0.83639 0.44132 0.35767
 C384 C 0.82385 0.40080 0.38644
 C385 C 0.79610 0.42147 0.40838
 H386 H 0.83388 0.36256 0.39095
 H387 H 0.77474 0.49673 0.40353
 H388 H 0.82110 0.52014 0.34684
 N389 N 0.66903 0.50319 1.08570
 N390 N 0.65355 0.52171 1.11397
 C391 C 0.61921 0.47272 1.13121
 C392 C 0.61328 0.42041 1.11302
 C393 C 0.64532 0.44204 1.08423
 H394 H 0.58800 0.37358 1.11896
 H395 H 0.69546 0.53229 1.06769
 H396 H 0.66685 0.56739 1.12100
 N397 N 0.86175 0.52086 1.05819
 N398 N 0.89169 0.53466 1.08678
 C399 C 0.89270 0.48322 1.10083
 C400 C 0.86244 0.43453 1.07949
 C401 C 0.84346 0.46050 1.05284
 H402 H 0.85235 0.38655 1.08410
 H403 H 0.85220 0.55205 1.04358
 H404 H 0.90842 0.57830 1.09744
 N405 N 0.74094 0.26292 1.12090
 N406 N 0.72844 0.23303 1.15355
 C407 C 0.68582 0.18102 1.14874
 C408 C 0.67020 0.17696 1.11341
 C409 C 0.70493 0.22936 1.09724
 H410 H 0.63518 0.14352 1.10169
 H411 H 0.76960 0.30669 1.11696
 H412 H 0.74902 0.24949 1.17707
 N413 N 0.39138 0.52943 1.05043
 N414 N 0.40604 0.50879 1.07923
 C415 C 0.41470 0.54926 1.10547
 C416 C 0.40627 0.59865 1.09230
 C417 C 0.39109 0.58374 1.05749
 H418 H 0.40707 0.63757 1.10652
 H419 H 0.38065 0.50587 1.02659
 H420 H 0.40916 0.46718 1.08055
 N421 N 0.18543 0.50361 1.08244
 N422 N 0.16063 0.48474 1.11235
 C423 C 0.15040 0.52994 1.12565
 C424 C 0.16980 0.58027 1.10284
 C425 C 0.19158 0.56127 1.07566
 H426 H 0.16843 0.62415 1.10563
 H427 H 0.19836 0.47725 1.06715
 H428 H 0.15200 0.44180 1.12359
 N429 N 0.32952 0.85627 1.09117
 N430 N 0.35450 0.89346 1.11704
 C431 C 0.39929 0.88852 1.12330
 C432 C 0.40336 0.84695 1.10012
 C433 C 0.35824 0.82755 1.08035
 H434 H 0.43395 0.83163 1.09858
 H435 H 0.29338 0.85067 1.08126
 H436 H 0.34001 0.91977 1.13100
 N437 N 0.61050 0.46188 0.57257
 N438 N 0.58957 0.47302 0.60072
 C439 C 0.57201 0.42288 0.62161
 C440 C 0.58172 0.37719 0.60569
 C441 C 0.60673 0.40438 0.57474
 H442 H 0.57366 0.33189 0.61576
 H443 H 0.62747 0.49365 0.55238
 H444 H 0.58737 0.51447 0.60522
 N445 N 0.73608 0.20090 0.60644
 N446 N 0.72082 0.16774 0.63572
 C447 C 0.67275 0.16123 0.64296
 C448 C 0.65656 0.19094 0.61704
 C449 C 0.69766 0.21522 0.59432
 H450 H 0.61956 0.19333 0.61459
 H451 H 0.77162 0.21209 0.59462
 H452 H 0.74309 0.15017 0.65045
 N453 N 0.83479 0.51956 0.57726
 N454 N 0.86749 0.53177 0.60436
 C455 C 0.88457 0.48731 0.60733
 C456 C 0.86274 0.44602 0.58047
 C457 C 0.83106 0.46761 0.56239
 H458 H 0.86563 0.40321 0.57650
 H459 H 0.81355 0.54466 0.57040
 H460 H 0.87479 0.56746 0.62190
 N461 N 0.43693 0.61519 0.56894
 N462 N 0.45282 0.59536 0.59749
 C463 C 0.41151 0.55734 0.61546
 C464 C 0.36694 0.55248 0.59744
 C465 C 0.38505 0.59067 0.56815
 H466 H 0.32748 0.52794 0.60559
 H467 H 0.46150 0.64661 0.55094
 H468 H 0.49145 0.60874 0.60482
 N469 N 0.39228 0.90054 0.55505
 N470 N 0.41401 0.93488 0.58507
 C471 C 0.42783 0.90030 0.60806
 C472 C 0.41615 0.84372 0.59228
 C473 C 0.39375 0.84590 0.55946
 H474 H 0.42014 0.80441 0.60371
 H475 H 0.37564 0.91462 0.53380
 H476 H 0.41582 0.97850 0.58852
 N477 N 0.22426 0.68856 0.62029
 N478 N 0.19937 0.66757 0.65215
 C479 C 0.16866 0.60752 0.64884
 C480 C 0.17434 0.58936 0.61477
 C481 C 0.20896 0.64148 0.59795
 H482 H 0.15506 0.54485 0.60307
 H483 H 0.25007 0.73349 0.61522
 H484 H 0.20423 0.69600 0.67362
 N485 N 0.44058 0.67301 0.90152
 N486 N 0.45613 0.65120 0.87467
 C487 C 0.41788 0.59794 0.86490
 C488 C 0.37567 0.58577 0.88620
 C489 C 0.39211 0.63428 0.90931
 H490 H 0.33954 0.54576 0.88632
 H491 H 0.46336 0.71322 0.91465
 H492 H 0.49254 0.67266 0.86357
 N493 N 0.12534 0.63529 0.92994
 N494 N 0.08849 0.60963 0.90343
 C495 C 0.09941 0.56704 0.88707
 C496 C 0.14270 0.56406 0.90360
 C497 C 0.15776 0.60781 0.92970
 H498 H 0.16259 0.53615 0.89686
 H499 H 0.12714 0.67039 0.94646
 H500 H 0.05974 0.62455 0.89747
 N501 N 0.31141 0.85253 0.91069
 N502 N 0.32904 0.87825 0.87748
 C503 C 0.37442 0.87469 0.87176
 C504 C 0.38640 0.84752 0.90146
 C505 C 0.34619 0.83395 0.92484
 H506 H 0.41851 0.83508 0.90514
 H507 H 0.27576 0.84550 0.92107
 H508 H 0.30899 0.89595 0.86070
 N509 N 0.51741 0.32262 0.94316
 N510 N 0.49195 0.32481 0.91394
 C511 C 0.52540 0.36253 0.89034
 C512 C 0.57451 0.38557 0.90566
 C513 C 0.56763 0.35900 0.93908
 H514 H 0.61045 0.41615 0.89407
 H515 H 0.50060 0.29538 0.96519
 H516 H 0.45251 0.29921 0.91025
 N517 N 0.77437 0.44546 0.88081
 N518 N 0.79647 0.45080 0.84997
 C519 C 0.81667 0.40924 0.84820
 C520 C 0.80657 0.37561 0.87970
 C521 C 0.77975 0.40045 0.89957
 H522 H 0.81841 0.33987 0.88754
 H523 H 0.75666 0.47318 0.88898
 H524 H 0.79932 0.48450 0.83133
 N525 N 0.56774 0.12053 0.95529
 N526 N 0.55013 0.08918 0.92604
 C527 C 0.58779 0.10787 0.90198
 C528 C 0.63196 0.15248 0.91695
 C529 C 0.61715 0.15970 0.95071
 H530 H 0.66729 0.18074 0.90375
 H531 H 0.54520 0.11759 0.97725
 H532 H 0.51214 0.05756 0.92222
   
