data_POSCAR
  _audit_creation_date              2014-09-24
  _audit_creation_method            'ToBaCCo'
  _symmetry_space_group_name_H-M    'P1'
  _symmetry_Int_Tables_number       1
  _symmetry_cell_setting            triclinic
  loop_
  _symmetry_equiv_pos_as_xyz
 x,y,z
_cell_length_a 36.5965
_cell_length_b 36.6463
_cell_length_c 70.4538
_cell_angle_alpha 86.530600
_cell_angle_beta 91.479200
_cell_angle_gamma 120.730700
loop_
  _atom_site_label
  _atom_site_type_symbol
  _atom_site_fract_x
  _atom_site_fract_y
  _atom_site_fract_z
C1 C 0.01078 0.07090 0.52793
 H2 H 0.03970 0.06979 0.52727
 C3 C 0.00896 0.09978 0.53929
 H4 H 0.03671 0.12061 0.54742
 C5 C -0.05989 0.04564 0.51758
 H6 H -0.08630 0.02503 0.50879
 C7 C -0.06309 0.07419 0.52875
 H8 H -0.09230 0.07491 0.52857
 N9 N -0.02330 0.04456 0.51741
 C10 C -0.00002 -0.05745 0.50625
 H11 H 0.00080 -0.05515 0.49087
 C12 C 0.00264 -0.09021 0.51613
 H13 H 0.00593 -0.11274 0.50817
 C14 C -0.00728 -0.03178 0.53514
 H15 H -0.01241 -0.00974 0.54249
 C16 C -0.00475 -0.06403 0.54559
 H17 H -0.00736 -0.06592 0.56093
 Zn18 Zn -0.01509 0.00992 0.50131
 N19 N -0.00508 -0.02920 0.51583
 C20 C 0.06826 0.04564 0.48544
 N21 N 0.03192 0.04719 0.48556
 C22 C 0.02864 0.07793 0.47525
 C23 C 0.06266 0.10871 0.46414
 C24 C 0.10324 0.07596 0.47453
 C25 C -0.09985 -0.05246 0.49574
 C26 C -0.13516 -0.08141 0.48559
 C27 C -0.09575 -0.04817 0.45641
 C28 C -0.06125 -0.01994 0.46717
 N29 N -0.06375 -0.02281 0.48646
 H30 H 0.07052 0.02148 0.49407
 H31 H -0.00042 0.07878 0.47587
 H32 H 0.05927 0.13300 0.45618
 H33 H 0.13204 0.07448 0.47475
 H34 H -0.10071 -0.05446 0.51112
 H35 H -0.16305 -0.10511 0.49352
 H36 H -0.09220 -0.04542 0.44109
 H37 H -0.03197 0.00321 0.46006
 C38 C -0.00033 -0.09418 0.53607
 C39 C -0.02821 0.10198 0.53971
 C40 C -0.13333 -0.08035 0.46556
 C41 C 0.10077 0.10823 0.46378
 C42 C 1.09458 0.04341 0.13816
 H43 H 1.09376 0.07247 0.13840
 C44 C 1.12482 0.04211 0.12704
 H45 H 1.14701 0.07040 0.11868
 C46 C 1.06709 -0.02825 0.14930
 H47 H 1.04505 -0.05528 0.15829
 C48 C 1.09692 -0.03096 0.13839
 H49 H 1.09717 -0.06042 0.13899
 N50 N 1.06647 0.00858 0.14895
 C51 C 0.96303 0.03138 0.15893
 H52 H 0.96318 0.03087 0.17431
 C53 C 0.93149 0.03470 0.14878
 H54 H 0.90773 0.03718 0.15651
 C55 C 0.99282 0.02666 0.13038
 H56 H 1.01597 0.02221 0.12329
 C57 C 0.96187 0.02989 0.11966
 H58 H 0.96207 0.02851 0.10436
 Zn59 Zn 1.02967 0.01568 0.16462
 N60 N 0.99269 0.02719 0.14966
 C61 C 1.06327 0.09747 0.17978
 N62 N 1.06483 0.06114 0.18006
 C63 C 1.09404 0.05675 0.19065
 C64 C 1.12313 0.08954 0.20166
 C65 C 1.09193 0.13123 0.19059
 C66 C 0.96608 -0.06942 0.17076
 C67 C 0.93571 -0.10567 0.18114
 C68 C 0.96499 -0.06915 0.21005
 C69 C 0.99478 -0.03360 0.19911
 N70 N 0.99460 -0.03426 0.17982
 H71 H 1.04037 0.10064 0.17094
 H72 H 1.09495 0.02775 0.19035
 H73 H 1.14621 0.08526 0.20988
 H74 H 1.09045 0.16003 0.19008
 H75 H 0.96614 -0.06879 0.15539
 H76 H 0.91275 -0.13295 0.17359
 H77 H 0.96513 -0.06754 0.22534
 H78 H 1.01696 -0.00503 0.20604
 C79 C 0.93022 0.03330 0.12887
 C80 C 1.12651 0.00466 0.12715
 C81 C 0.93443 -0.10559 0.20106
 C82 C 1.12255 0.12757 0.20166
 C83 C 0.03111 0.94920 0.86015
 H84 H 0.00118 0.91956 0.85939
 C85 C 0.06385 0.95093 0.87135
 H86 H 0.05861 0.92237 0.87925
 C87 C 0.07418 1.02191 0.85019
 H88 H 0.07826 1.04921 0.84161
 C89 C 0.10795 1.02507 0.86121
 H90 H 0.13769 1.05512 0.86112
 N91 N 0.03672 0.98432 0.84989
 C92 C -0.09260 0.95607 0.83905
 H93 H -0.09284 0.95718 0.82367
 C94 C -0.12742 0.95127 0.84902
 H95 H -0.15445 0.94818 0.84103
 C96 C -0.05576 0.96105 0.86781
 H97 H -0.02725 0.96629 0.87506
 C98 C -0.08983 0.95633 0.87836
 H99 H -0.08700 0.95730 0.89369
 Zn100 Zn -0.00876 0.97627 0.83390
 N101 N -0.05755 0.96131 0.84851
 C102 C -0.05561 0.89536 0.81739
 N103 N -0.01819 0.93298 0.81777
 C104 C 0.01599 0.94035 0.80743
 C105 C 0.01345 0.90931 0.79607
 C106 C -0.05954 0.86323 0.80622
 C107 C 0.01023 1.06040 0.82901
 C108 C 0.01409 1.09643 0.81915
 C109 C 0.00600 1.06262 0.78968
 C110 C 0.00228 1.02723 0.80011
 N111 N 0.00410 1.02662 0.81943
 H112 H -0.08211 0.88986 0.82603
 H113 H 0.04554 0.97035 0.80825
 H114 H 0.04129 0.91593 0.78812
 H115 H -0.08941 0.83331 0.80625
 H116 H 0.01070 1.05871 0.84439
 H117 H 0.01799 1.12254 0.82712
 H118 H 0.00345 1.06198 0.77435
 H119 H -0.00374 0.99968 0.79276
 C120 C -0.12607 0.95234 0.86899
 C121 C 0.10309 0.98914 0.87188
 C122 C 0.01122 1.09757 0.79922
 C123 C -0.02457 0.86993 0.79547
 C124 C 0.51329 -0.00257 0.00796
 C125 C 0.50960 -0.00743 -0.01116
 C126 C 0.47316 -0.00982 -0.02199
 C127 C 0.54179 -0.01041 -0.02229
 C128 C 0.54955 -0.00030 0.01890
 C129 C 0.48104 0.00051 0.01899
 C130 C 0.43111 -0.04117 -0.01732
 C131 C 0.39719 -0.04150 -0.02707
 C132 C 0.40474 -0.01074 -0.04182
 C133 C 0.44699 0.01978 -0.04681
 C134 C 0.48082 0.02011 -0.03703
 C135 C 0.52904 -0.04612 -0.03289
 C136 C 0.55888 -0.05020 -0.04307
 C137 C 0.60214 -0.01844 -0.04296
 C138 C 0.61469 0.01783 -0.03263
 C139 C 0.58475 0.02189 -0.02247
 C140 C 0.57507 0.03525 0.02949
 C141 C 0.60988 0.03857 0.03958
 C142 C 0.61975 0.00619 0.03939
 C143 C 0.59355 -0.02987 0.02905
 C144 C 0.55864 -0.03317 0.01897
 C145 C 0.47123 0.03237 0.01448
 C146 C 0.43931 0.03343 0.02448
 C147 C 0.41693 0.00290 0.03932
 C148 C 0.42781 -0.02816 0.04413
 C149 C 0.45963 -0.02922 0.03410
 H150 H 0.42460 -0.06502 -0.00596
 H151 H 0.36509 -0.06566 -0.02295
 H152 H 0.45403 0.04379 -0.05814
 H153 H 0.51308 0.04438 -0.04091
 H154 H 0.49598 -0.07124 -0.03302
 H155 H 0.54801 -0.07844 -0.05092
 H156 H 0.59508 0.05009 -0.01466
 H157 H 0.56837 0.06080 0.02970
 H158 H 0.62918 0.06668 0.04744
 H159 H 0.60002 -0.05553 0.02869
 H160 H 0.53881 -0.06125 0.01116
 H161 H 0.48797 0.05608 0.00307
 H162 H 0.43200 0.05798 0.02049
 H163 H 0.41146 -0.05202 0.05552
 H164 H 0.46697 -0.05387 0.03786
 H165 H 0.64767 0.04304 -0.03233
 C166 C -0.02378 0.48623 0.67773
 C167 C -0.02451 0.48693 0.65836
 C168 C -0.02412 0.45329 0.64779
 C169 C -0.02496 0.52179 0.64666
 C170 C -0.02328 0.52034 0.68828
 C171 C -0.02273 0.45168 0.68942
 C172 C 0.00890 0.44453 0.65009
 C173 C 0.00806 0.41195 0.64038
 C174 C -0.02562 0.38782 0.62803
 C175 C -0.05810 0.39743 0.62547
 C176 C -0.05724 0.42994 0.63520
 C177 C 0.00749 0.54575 0.63326
 C178 C 0.00887 0.57990 0.62269
 C179 C -0.02239 0.59068 0.62523
 C180 C -0.05560 0.56584 0.63832
 C181 C -0.05699 0.53156 0.64887
 C182 C -0.05565 0.50983 0.70148
 C183 C -0.05651 0.54155 0.71115
 C184 C -0.02477 0.58447 0.70789
 C185 C 0.00821 0.59479 0.69494
 C186 C 0.00906 0.56299 0.68530
 C187 C -0.05439 0.40890 0.68786
 C188 C -0.05161 0.37677 0.69835
 C189 C -0.01732 0.38690 0.71075
 C190 C 0.01360 0.42991 0.71266
 C191 C 0.01082 0.46192 0.70215
 H192 H 0.03516 0.46278 0.65949
 H193 H 0.03375 0.40564 0.64260
 H194 H -0.08440 0.37970 0.61602
 H195 H -0.08284 0.43647 0.63315
 H196 H 0.03235 0.53853 0.63128
 H197 H 0.03478 0.59814 0.61269
 H198 H -0.08275 0.51294 0.65890
 H199 H -0.08070 0.47705 0.70406
 H200 H -0.08225 0.53238 0.72108
 H201 H 0.03333 0.62745 0.69218
 H202 H 0.03476 0.57162 0.67541
 H203 H -0.08096 0.40040 0.67835
 H204 H -0.07615 0.34402 0.69663
 H205 H 0.04031 0.43893 0.72213
 H206 H 0.03542 0.49478 0.70363
 H207 H -0.08038 0.57303 0.64054
 C208 C 0.50676 0.51703 0.34330
 C209 C 0.50987 0.51709 0.32405
 C210 C 0.54862 0.54963 0.31342
 C211 C 0.47470 0.48436 0.31276
 C212 C 0.47239 0.47990 0.35434
 C213 C 0.53742 0.55406 0.35417
 C214 C 0.54499 0.57183 0.29725
 C215 C 0.58119 0.60200 0.28703
 C216 C 0.62180 0.61037 0.29269
 C217 C 0.62527 0.58772 0.30879
 C218 C 0.58904 0.55753 0.31899
 C219 C 0.43309 0.47646 0.31445
 C220 C 0.40010 0.44541 0.30394
 C221 C 0.40814 0.42189 0.29137
 C222 C 0.45004 0.43049 0.28945
 C223 C 0.48298 0.46151 0.29999
 C224 C 0.46528 0.43883 0.35248
 C225 C 0.43272 0.40400 0.36275
 C226 C 0.40684 0.40958 0.37527
 C227 C 0.41461 0.45090 0.37737
 C228 C 0.44716 0.48570 0.36705
 C229 C 0.55720 0.54800 0.37037
 C230 C 0.58573 0.58257 0.38076
 C231 C 0.59487 0.62395 0.37523
 C232 C 0.57458 0.62984 0.35911
 C233 C 0.54600 0.59522 0.34874
 H234 H 0.51409 0.56601 0.29264
 H235 H 0.57728 0.61874 0.27468
 H236 H 0.65597 0.59315 0.31351
 H237 H 0.59249 0.54010 0.33119
 H238 H 0.42616 0.49436 0.32394
 H239 H 0.36832 0.43985 0.30570
 H240 H 0.51490 0.46731 0.29838
 H241 H 0.48498 0.43376 0.34304
 H242 H 0.42784 0.37272 0.36087
 H243 H 0.39543 0.45642 0.38691
 H244 H 0.45231 0.51715 0.36880
 H245 H 0.55081 0.51648 0.37487
 H246 H 0.60067 0.57681 0.39312
 H247 H 0.58064 0.66118 0.35449
 H248 H 0.53040 0.60051 0.33652
 H249 H 0.45744 0.41312 0.27987
 N250 N -0.06564 0.16746 0.56067
 C251 C -0.03144 0.19421 0.57097
 N252 N 0.00347 0.19037 0.57123
 N253 N 0.00424 0.16079 0.56146
 C254 C -0.02984 0.13393 0.55104
 N255 N -0.06485 0.13784 0.55089
 C256 C -0.03163 0.22691 0.58111
 C257 C -0.03108 0.25484 0.58954
 C258 C -0.02988 0.28847 0.59948
 N259 N 0.00270 0.31153 0.61133
 N260 N 0.00408 0.34308 0.62040
 C261 C -0.02703 0.35278 0.61792
 N262 N -0.05960 0.32949 0.60601
 N263 N -0.06099 0.29795 0.59694
 N264 N 0.83677 0.79188 0.21338
 C265 C 0.83432 0.79326 0.23246
 N266 N 0.86525 0.82717 0.24134
 N267 N 0.89752 0.85887 0.23141
 C268 C 0.90003 0.85786 0.21225
 N269 N 0.86905 0.82359 0.20346
 C270 C 0.79831 0.76033 0.24298
 C271 C 0.76756 0.73320 0.25174
 C272 C 0.73047 0.70145 0.26206
 N273 N 0.69135 0.69316 0.25651
 N274 N 0.65687 0.66419 0.26622
 C275 C 0.66023 0.64245 0.28184
 N276 N 0.69959 0.65091 0.28731
 N277 N 0.73409 0.67990 0.27761
 N278 N 0.16606 -0.04340 -0.09736
 C279 C 0.20470 -0.00736 -0.09758
 N280 N 0.21003 0.02784 -0.10757
 N281 N 0.17768 0.02695 -0.11712
 C282 C 0.13885 -0.00919 -0.11702
 N283 N 0.13375 -0.04428 -0.10690
 C284 C 0.23968 -0.00697 -0.08770
 C285 C 0.26884 -0.00728 -0.07950
 C286 C 0.30344 -0.00809 -0.06984
 N287 N 0.34416 0.02084 -0.07482
 N288 N 0.37628 0.01988 -0.06596
 C289 C 0.36889 -0.01007 -0.05181
 N290 N 0.32794 -0.03901 -0.04690
 N291 N 0.29580 -0.03806 -0.05576
 N292 N -0.00025 0.80586 0.54710
 C293 C -0.00499 0.80123 0.56626
 N294 N -0.00738 0.83121 0.57559
 N295 N -0.00534 0.86471 0.56603
 C296 C -0.00078 0.86949 0.54679
 N297 N 0.00180 0.83937 0.53754
 C298 C -0.00815 0.76466 0.57650
 C299 C -0.01095 0.73383 0.58507
 C300 C -0.01417 0.69713 0.59520
 N301 N -0.04654 0.67328 0.60764
 N302 N -0.04933 0.63934 0.61711
 C303 C -0.01986 0.62798 0.61447
 N304 N 0.01247 0.65203 0.60195
 N305 N 0.01526 0.68595 0.59249
 N306 N 0.21324 0.19149 0.23294
 C307 C 0.21437 0.22907 0.23230
 N308 N 0.18510 0.23338 0.22180
 N309 N 0.15564 0.20106 0.21219
 C310 C 0.15444 0.16330 0.21273
 N311 N 0.18383 0.15923 0.22334
 C312 C 0.24686 0.26395 0.24233
 C313 C 0.27483 0.29270 0.25076
 C314 C 0.30879 0.32628 0.26082
 N315 N 0.30079 0.34883 0.27289
 N316 N 0.33236 0.37936 0.28251
 C317 C 0.37305 0.38840 0.28044
 N318 N 0.38081 0.36568 0.26829
 N319 N 0.34927 0.33517 0.25867
 N320 N 0.77687 -0.04861 -0.12036
 C321 C 0.77968 -0.04520 -0.10127
 N322 N 0.81324 -0.04381 -0.09201
 N323 N 0.84328 -0.04540 -0.10158
 C324 C 0.84097 -0.04840 -0.12078
 N325 N 0.80692 -0.05021 -0.12993
 C326 C 0.74839 -0.04148 -0.09109
 C327 C 0.72246 -0.03771 -0.08256
 C328 C 0.69182 -0.03280 -0.07246
 N329 N 0.70426 0.00233 -0.06262
 N330 N 0.67580 0.00696 -0.05328
 C331 C 0.63386 -0.02335 -0.05346
 N332 N 0.62163 -0.05848 -0.06337
 N333 N 0.65007 -0.06312 -0.07270
 N334 N 0.21887 0.03751 0.09574
 C335 C 0.22173 0.00204 0.09638
 N336 N 0.19311 -0.03284 0.10690
 N337 N 0.16260 -0.03219 0.11655
 C338 C 0.15964 0.00335 0.11602
 N339 N 0.18839 0.03814 0.10539
 C340 C 0.25519 0.00179 0.08632
 C341 C 0.28359 0.00195 0.07795
 C342 C 0.31760 0.00229 0.06810
 N343 N 0.32872 -0.02708 0.07291
 N344 N 0.36035 -0.02675 0.06382
 C345 C 0.38210 0.00299 0.04959
 N346 N 0.37080 0.03240 0.04484
 N347 N 0.33914 0.03207 0.05394
 N348 N 0.76769 0.82702 0.45460
 C349 C 0.77089 0.82725 0.43548
 N350 N 0.80581 0.85924 0.42643
 N351 N 0.83676 0.88989 0.43623
 C352 C 0.83416 0.88975 0.45549
 N353 N 0.79865 0.85768 0.46440
 C354 C 0.73886 0.79283 0.42507
 C355 C 0.71256 0.76341 0.41637
 C356 C 0.68191 0.72789 0.40607
 N357 N 0.67267 0.68798 0.41156
 N358 N 0.64492 0.65499 0.40180
 C359 C 0.62542 0.66068 0.38619
 N360 N 0.63480 0.70082 0.38077
 N361 N 0.66257 0.73383 0.39053
 N362 N 0.00422 0.16525 0.75987
 C363 C 0.00676 0.19768 0.76924
 N364 N 0.01182 0.19791 0.78836
 N365 N 0.01399 0.16650 0.79784
 C366 C 0.01121 0.13372 0.78855
 N367 N 0.00640 0.13384 0.76935
 C368 C 0.00291 0.23071 0.75911
 C369 C -0.00071 0.25826 0.75062
 C370 C -0.00515 0.29098 0.74055
 N371 N 0.02403 0.33249 0.74266
 N372 N 0.02000 0.36289 0.73327
 C373 C -0.01336 0.35294 0.72143
 N374 N -0.04256 0.31123 0.71939
 N375 N -0.03854 0.28080 0.72879
 N376 N 0.86002 0.02780 0.08903
 C377 C 0.82850 0.02901 0.09811
 N378 N 0.83073 0.03258 0.11719
 N379 N 0.86337 0.03462 0.12692
 C380 C 0.89500 0.03319 0.11792
 N381 N 0.89266 0.02983 0.09876
 C382 C 0.79266 0.02547 0.08773
 C383 C 0.76233 0.02214 0.07910
 C384 C 0.72606 0.01806 0.06892
 N385 N 0.71623 0.04901 0.06917
 N386 N 0.68245 0.04516 0.05981
 C387 C 0.65721 0.01023 0.04987
 N388 N 0.66726 -0.02070 0.04968
 N389 N 0.70106 -0.01687 0.05905
 N390 N 0.20918 0.17441 0.44343
 C391 C 0.20601 0.20527 0.43325
 N392 N 0.16836 0.20401 0.43286
 N393 N 0.13492 0.17294 0.44241
 C394 C 0.13783 0.14195 0.45271
 N395 N 0.17567 0.14329 0.45298
 C396 C 0.24217 0.23955 0.42334
 C397 C 0.27201 0.26904 0.41503
 C398 C 0.30693 0.30480 0.40515
 N399 N 0.31492 0.34467 0.40746
 N400 N 0.34676 0.37792 0.39804
 C401 C 0.37179 0.37256 0.38595
 N402 N 0.36363 0.33246 0.38373
 N403 N 0.33177 0.29918 0.39315
 N404 N -0.06406 0.76598 0.77456
 C405 C -0.02977 0.77323 0.76441
 N406 N 0.00584 0.81219 0.76421
 N407 N 0.00722 0.84293 0.77391
 C408 C -0.02694 0.83592 0.78419
 N409 N -0.06267 0.79679 0.78427
 C410 C -0.03054 0.73992 0.75438
 C411 C -0.03026 0.71232 0.74602
 C412 C -0.02915 0.67977 0.73615
 N413 N 0.00273 0.68999 0.72371
 N414 N 0.00414 0.65975 0.71473
 C415 C -0.02624 0.61817 0.71790
 N416 N -0.05812 0.60817 0.73041
 N417 N -0.05955 0.63840 0.73938
   
