data_POSCAR
  _audit_creation_date              2014-09-24
  _audit_creation_method            'ToBaCCo'
  _symmetry_space_group_name_H-M    'P1'
  _symmetry_Int_Tables_number       1
  _symmetry_cell_setting            triclinic
  loop_
  _symmetry_equiv_pos_as_xyz
 x,y,z
_cell_length_a 41.1783
_cell_length_b 40.7953
_cell_length_c 40.0641
_cell_angle_alpha 90.286700
_cell_angle_beta 90.823500
_cell_angle_gamma 89.703100
loop_
  _atom_site_label
  _atom_site_type_symbol
  _atom_site_fract_x
  _atom_site_fract_y
  _atom_site_fract_z
C1 C 0.75652 0.62465 1.00967
 C2 C 0.73893 0.36421 0.50617
 C3 C 0.25503 -0.13067 -0.00915
 C4 C 0.24537 0.12331 0.48375
 C5 C 0.11284 0.49395 0.25693
 C6 C -0.13173 -0.00875 0.24829
 C7 C 0.37547 0.49606 0.75751
 C8 C 0.62480 0.99796 0.75050
 C9 C 0.00025 0.26105 -0.12572
 C10 C 0.50748 0.25376 0.12436
 C11 C 1.00555 0.75585 0.62466
 C12 C 0.49566 0.75208 0.37827
 C13 C 0.40951 -0.04447 0.28333
 H14 H 0.39671 -0.02911 0.30081
 C15 C 0.42506 -0.07260 0.29485
 H16 H 0.42388 -0.07807 0.32122
 C17 C 0.42512 -0.05637 0.22792
 H18 H 0.42456 -0.04995 0.20175
 C19 C 0.44119 -0.08497 0.23844
 H20 H 0.45340 -0.09984 0.22005
 N21 N 0.40964 -0.03689 0.25038
 C22 C 0.39694 0.06226 0.21330
 H23 H 0.37140 0.06523 0.21859
 C24 C 0.41459 0.08865 0.20146
 H25 H 0.40229 0.11183 0.19732
 C26 C 0.44380 0.02828 0.21264
 H27 H 0.45511 0.00482 0.21763
 C28 C 0.46242 0.05407 0.20044
 H29 H 0.48805 0.05018 0.19622
 Zn30 Zn 0.38497 -0.00008 0.23640
 N31 N 0.41161 0.03279 0.21849
 C32 C 0.38350 0.03747 0.29404
 N33 N 0.36429 0.01863 0.27391
 C34 C 0.33241 0.01379 0.28085
 C35 C 0.31874 0.02834 0.30912
 C36 C 0.37074 0.05288 0.32205
 C37 C 0.35269 0.00045 0.17344
 C38 C 0.33215 -0.01185 0.14842
 C39 C 0.31527 -0.05411 0.18635
 C40 C 0.33602 -0.04087 0.21070
 N41 N 0.35434 -0.01420 0.20384
 H42 H 0.40884 0.04065 0.28813
 H43 H 0.31755 -0.00126 0.26454
 H44 H 0.29329 0.02462 0.31431
 H45 H 0.38638 0.06797 0.33765
 H46 H 0.36790 0.02120 0.16815
 H47 H 0.33165 -0.00010 0.12424
 H48 H 0.30222 -0.07623 0.19216
 H49 H 0.33841 -0.05255 0.23480
 C50 C 0.44773 0.08476 0.19467
 C51 C 0.44094 -0.09369 0.27242
 C52 C 0.31327 -0.03970 0.15451
 C53 C 0.33794 0.04856 0.32973
 C54 C 0.08246 1.03747 0.79098
 H55 H 0.08155 1.01252 0.79994
 C56 C 0.06632 1.06245 0.80827
 H57 H 0.05222 1.05612 0.82985
 C58 C 0.10283 1.07586 0.75252
 H59 H 0.11802 1.08133 0.73155
 C60 C 0.08706 1.10151 0.76895
 H61 H 0.09008 1.12629 0.75999
 N62 N 0.10061 1.04459 0.76390
 C63 C 0.12346 0.95711 0.70591
 H64 H 0.14877 0.96305 0.70255
 C65 C 0.11024 0.93016 0.68939
 H66 H 0.12555 0.91545 0.67337
 C67 C 0.07309 0.96890 0.73140
 H68 H 0.05878 0.98424 0.74769
 C69 C 0.05895 0.94149 0.71575
 H70 H 0.03367 0.93585 0.71996
 Zn71 Zn 0.12794 1.01160 0.74570
 N72 N 0.10490 0.97604 0.72622
 C73 C 0.15301 0.96313 0.78874
 N74 N 0.15444 0.99551 0.78110
 C75 C 0.17204 1.01672 0.80032
 C76 C 0.18866 1.00562 0.82887
 C77 C 0.16917 0.95103 0.81690
 C78 C 0.13607 1.03809 0.68286
 C79 C 0.15228 1.04963 0.65501
 C80 C 0.20309 1.04299 0.68519
 C81 C 0.18583 1.03146 0.71255
 N82 N 0.15290 1.02948 0.71094
 H83 H 0.13850 0.94667 0.77359
 H84 H 0.17253 1.04244 0.79387
 H85 H 0.20254 1.02300 0.84361
 H86 H 0.16694 0.92525 0.82272
 H87 H 0.10992 1.03569 0.68209
 H88 H 0.13829 1.05653 0.63303
 H89 H 0.22931 1.04378 0.68682
 H90 H 0.19878 1.02364 0.73480
 C91 C 0.07760 0.92211 0.69409
 C92 C 0.06916 1.09519 0.79775
 C93 C 0.18623 1.05243 0.65591
 C94 C 0.18685 0.97236 0.83787
 C95 C 0.57491 0.53125 0.30002
 H96 H 0.57502 0.50753 0.31198
 C97 C 0.55494 0.55627 0.31202
 H98 H 0.54060 0.55143 0.33380
 C99 C 0.59509 0.56618 0.25817
 H100 H 0.61101 0.57006 0.23737
 C101 C 0.57532 0.59183 0.26919
 H102 H 0.57629 0.61521 0.25658
 N103 N 0.59475 0.53666 0.27380
 C104 C 0.61293 0.43705 0.23842
 H105 H 0.63904 0.43583 0.23915
 C106 C 0.59556 0.41017 0.22636
 H107 H 0.60870 0.38855 0.21828
 C108 C 0.56427 0.46728 0.24556
 H109 H 0.55213 0.48989 0.25205
 C110 C 0.54592 0.44103 0.23324
 H111 H 0.51978 0.44354 0.23131
 Zn112 Zn 0.62254 0.50245 0.25896
 N113 N 0.59725 0.46501 0.24762
 C114 C 0.67793 0.46992 0.28566
 N115 N 0.65369 0.49138 0.29306
 C116 C 0.64995 0.50258 0.32485
 C117 C 0.66902 0.48993 0.35096
 C118 C 0.69738 0.45642 0.31099
 C119 C 0.62375 0.51470 0.19134
 C120 C 0.63523 0.52599 0.16098
 C121 C 0.68598 0.53975 0.18848
 C122 C 0.67353 0.52790 0.21844
 N123 N 0.64274 0.51607 0.21932
 H124 H 0.68165 0.46242 0.26011
 H125 H 0.63141 0.52045 0.33041
 H126 H 0.66458 0.49833 0.37617
 H127 H 0.71484 0.43787 0.30406
 H128 H 0.59935 0.50519 0.19270
 H129 H 0.61958 0.52416 0.13915
 H130 H 0.71023 0.54988 0.18833
 H131 H 0.68810 0.52893 0.24110
 C132 C 0.56168 0.41222 0.22288
 C133 C 0.55495 0.58721 0.29660
 C134 C 0.66647 0.53951 0.15934
 C135 C 0.69246 0.46563 0.34450
 C136 C 0.93330 0.47592 0.76111
 H137 H 0.94454 0.49638 0.74879
 C138 C 0.95256 0.45032 0.77373
 H139 H 0.97864 0.45114 0.77087
 C140 C 0.88558 0.44974 0.77960
 H141 H 0.85944 0.44986 0.78189
 C142 C 0.90376 0.42350 0.79200
 H143 H 0.89142 0.40350 0.80407
 N144 N 0.90045 0.47501 0.76412
 C145 C 0.89934 0.54540 0.69581
 H146 H 0.88906 0.52628 0.68029
 C147 C 0.91290 0.57273 0.68084
 H148 H 0.91276 0.57444 0.65387
 C149 C 0.91195 0.56658 0.74960
 H150 H 0.91099 0.56438 0.77640
 C151 C 0.92621 0.59429 0.73556
 H152 H 0.93602 0.61332 0.75166
 Zn153 Zn 0.87309 0.50862 0.74744
 N154 N 0.89800 0.54331 0.72963
 C155 C 0.86437 0.53005 0.81292
 N156 N 0.84808 0.52437 0.78370
 C157 C 0.81539 0.52906 0.78124
 C158 C 0.79811 0.54131 0.80844
 C159 C 0.84804 0.54199 0.84076
 C160 C 0.85006 0.45987 0.70256
 C161 C 0.83277 0.44750 0.67516
 C162 C 0.80727 0.50046 0.66809
 C163 C 0.82503 0.51183 0.69583
 N164 N 0.84601 0.49154 0.71244
 H165 H 0.89019 0.52522 0.81462
 H166 H 0.80258 0.52346 0.75827
 H167 H 0.77213 0.54492 0.80592
 H168 H 0.86163 0.54684 0.86358
 H169 H 0.86744 0.44425 0.71522
 H170 H 0.83694 0.42234 0.66756
 H171 H 0.79068 0.51706 0.65547
 H172 H 0.82274 0.53716 0.70359
 C173 C 0.92564 0.59803 0.70080
 C174 C 0.93767 0.42359 0.78923
 C175 C 0.81134 0.46792 0.65715
 C176 C 0.81456 0.54835 0.83859
 C177 C 0.29040 0.42508 -0.01809
 H178 H 0.30081 0.42587 0.00685
 C179 C 0.30352 0.44436 -0.04316
 H180 H 0.32428 0.45939 -0.03692
 C181 C 0.25237 0.40219 -0.05634
 H182 H 0.23292 0.38519 -0.06162
 C183 C 0.26455 0.42124 -0.08212
 H184 H 0.25397 0.41878 -0.10690
 N185 N 0.26564 0.40410 -0.02512
 C186 C 0.22370 0.38370 0.07249
 H187 H 0.22264 0.35733 0.07231
 C188 C 0.21081 0.40090 0.09949
 H189 H 0.20060 0.38744 0.12005
 C190 C 0.23551 0.43335 0.04498
 H191 H 0.24437 0.44607 0.02344
 C192 C 0.22233 0.45152 0.07123
 H193 H 0.22187 0.47801 0.06978
 Zn194 Zn 0.25152 0.37523 0.00880
 N195 N 0.23610 0.39997 0.04602
 C196 C 0.28312 0.32500 0.04643
 N197 N 0.28711 0.34737 0.02178
 C198 C 0.31637 0.35056 0.00670
 C199 C 0.34330 0.33236 0.01760
 C200 C 0.30940 0.30636 0.05816
 C201 C 0.18781 0.36614 -0.01333
 C202 C 0.16131 0.34990 -0.02768
 C203 C 0.19384 0.30055 -0.03045
 C204 C 0.21980 0.31779 -0.01598
 N205 N 0.21643 0.35009 -0.00818
 H206 H 0.25962 0.32162 0.05731
 H207 H 0.31914 0.36737 -0.01372
 H208 H 0.36643 0.33587 0.00563
 H209 H 0.30555 0.29001 0.07887
 H210 H 0.18583 0.39185 -0.00688
 H211 H 0.13900 0.36345 -0.03218
 H212 H 0.19710 0.27484 -0.03630
 H213 H 0.24279 0.30552 -0.01159
 C214 C 0.20961 0.43523 0.09885
 C215 C 0.29083 0.44239 -0.07592
 C216 C 0.16420 0.31679 -0.03706
 C217 C 0.34021 0.31015 0.04398
 C218 C 0.79437 0.10272 1.04555
 H219 H 0.81355 0.11350 1.03130
 C220 C 0.80243 0.08522 1.07417
 H221 H 0.82781 0.08268 1.08119
 C222 C 0.73830 0.09433 1.05456
 H223 H 0.71333 0.09854 1.04690
 C224 C 0.74532 0.07680 1.08384
 H225 H 0.72559 0.06694 1.09817
 N226 N 0.76279 0.10708 1.03628
 C227 C 0.73513 0.13053 0.93426
 H228 H 0.74473 0.15516 0.93437
 C229 C 0.72116 0.11779 0.90528
 H230 H 0.72060 0.13269 0.88299
 C231 C 0.72471 0.08135 0.96346
 H232 H 0.72608 0.06749 0.98637
 C233 C 0.71035 0.06754 0.93477
 H234 H 0.70044 0.04303 0.93574
 Zn235 Zn 0.75380 0.13522 0.99983
 N236 N 0.73607 0.11260 0.96273
 C237 C 0.81205 0.13286 0.96707
 N238 N 0.79332 0.15359 0.98531
 C239 C 0.80306 0.18472 0.99224
 C240 C 0.83319 0.19576 0.98111
 C241 C 0.84203 0.14286 0.95534
 C242 C 0.69418 0.16935 0.99762
 C243 C 0.66904 0.18835 1.01050
 C244 C 0.70423 0.20348 1.05670
 C245 C 0.72885 0.18420 1.04281
 N246 N 0.72326 0.16719 1.01404
 H247 H 0.80360 0.10832 0.96166
 H248 H 0.78768 0.20087 1.00660
 H249 H 0.84074 0.22053 0.98700
 H250 H 0.85577 0.12596 0.94012
 H251 H 0.68971 0.15516 0.97526
 H252 H 0.64585 0.18885 0.99740
 H253 H 0.70880 0.21525 1.08054
 H254 H 0.75186 0.18142 1.05588
 C255 C 0.70775 0.08625 0.90548
 C256 C 0.77785 0.07240 1.09410
 C257 C 0.67353 0.20522 1.04079
 C258 C 0.85332 0.17456 0.96271
 C259 C 0.29480 0.57587 0.53275
 H260 H 0.30763 0.57878 0.50964
 C261 C 0.30826 0.55623 0.55786
 H262 H 0.33125 0.54415 0.55341
 C263 C 0.25143 0.59127 0.56777
 H264 H 0.22990 0.60568 0.57215
 C265 C 0.26403 0.57194 0.59355
 H266 H 0.25163 0.57144 0.61720
 N267 N 0.26683 0.59289 0.53799
 C268 C 0.20706 0.60725 0.45270
 H269 H 0.19286 0.62673 0.46360
 C270 C 0.19506 0.59111 0.42439
 H271 H 0.17150 0.59807 0.41429
 C272 C 0.25541 0.57565 0.45137
 H273 H 0.27907 0.56988 0.46167
 C274 C 0.24449 0.55914 0.42268
 H275 H 0.25967 0.54034 0.41172
 Zn276 Zn 0.25230 0.62242 0.50433
 N277 N 0.23660 0.59909 0.46597
 C278 C 0.29484 0.65175 0.45914
 N279 N 0.28845 0.64789 0.49205
 C280 C 0.30901 0.65961 0.51612
 C281 C 0.33792 0.67507 0.50736
 C282 C 0.32328 0.66710 0.44930
 C283 C 0.19016 0.63463 0.52945
 C284 C 0.16449 0.65286 0.54237
 C285 C 0.19739 0.70152 0.53865
 C286 C 0.22246 0.68229 0.52552
 N287 N 0.21851 0.64942 0.52144
 H288 H 0.27815 0.64234 0.44040
 H289 H 0.30334 0.65616 0.54214
 H290 H 0.35389 0.68413 0.52695
 H291 H 0.32809 0.66922 0.42290
 H292 H 0.18755 0.60847 0.52584
 H293 H 0.14230 0.64042 0.54884
 H294 H 0.20095 0.72765 0.54142
 H295 H 0.24507 0.69363 0.51869
 C296 C 0.21387 0.56681 0.40891
 C297 C 0.29292 0.55423 0.58890
 C298 C 0.16796 0.68673 0.54750
 C299 C 0.34567 0.67846 0.47348
 C300 C 0.78585 0.91854 0.47406
 H301 H 0.79552 0.91933 0.49927
 C302 C 0.79910 0.93869 0.44984
 H303 H 0.81770 0.95576 0.45763
 C304 C 0.75046 0.89446 0.43397
 H305 H 0.73189 0.87675 0.42775
 C306 C 0.76348 0.91373 0.40877
 H307 H 0.75462 0.91044 0.38341
 N308 N 0.76221 0.89671 0.46580
 C309 C 0.70906 0.87015 0.55407
 H310 H 0.70443 0.84493 0.54722
 C311 C 0.69308 0.88386 0.58116
 H312 H 0.67631 0.86912 0.59519
 C313 C 0.73558 0.92044 0.54363
 H314 H 0.75143 0.93498 0.52862
 C315 C 0.72068 0.93492 0.57119
 H316 H 0.72530 0.96040 0.57724
 Zn317 Zn 0.74812 0.86662 0.49850
 N318 N 0.72968 0.88848 0.53570
 C319 C 0.77993 0.82217 0.54122
 N320 N 0.78408 0.84147 0.51408
 C321 C 0.81396 0.84542 0.50062
 C322 C 0.84147 0.83192 0.51620
 C323 C 0.80671 0.80817 0.55753
 C324 C 0.68554 0.85404 0.47631
 C325 C 0.65904 0.83588 0.46493
 C326 C 0.69423 0.78850 0.46019
 C327 C 0.72003 0.80746 0.47256
 N328 N 0.71520 0.83965 0.48013
 H329 H 0.75595 0.81869 0.55110
 H330 H 0.81678 0.86008 0.47849
 H331 H 0.86519 0.83666 0.50602
 H332 H 0.80276 0.79344 0.57947
 H333 H 0.68244 0.87968 0.48260
 H334 H 0.63561 0.84778 0.46201
 H335 H 0.69829 0.76297 0.45392
 H336 H 0.74383 0.79657 0.47601
 C337 C 0.69886 0.91658 0.58985
 C338 C 0.78885 0.93564 0.41628
 C339 C 0.66326 0.80279 0.45649
 C340 C 0.83815 0.81419 0.54586
 C341 C -0.04575 0.25925 0.43699
 H342 H -0.02412 0.25044 0.44965
 C343 C -0.07145 0.27178 0.45567
 H344 H -0.06923 0.27252 0.48262
 C345 C -0.07542 0.26810 0.38670
 H346 H -0.07662 0.26672 0.35973
 C347 C -0.10179 0.28040 0.40438
 H348 H -0.12322 0.28868 0.39081
 N349 N -0.04792 0.25836 0.40308
 C350 C 0.03584 0.19884 0.39446
 H351 H 0.02489 0.18337 0.37555
 C352 C 0.06454 0.18865 0.41009
 H353 H 0.07485 0.16503 0.40353
 C354 C 0.03726 0.24919 0.42416
 H355 H 0.02706 0.27329 0.42853
 C356 C 0.06588 0.23970 0.44085
 H357 H 0.07751 0.25654 0.45817
 Zn358 Zn -0.01353 0.24346 0.37600
 N359 N 0.02270 0.22863 0.40168
 C360 C 0.02673 0.27100 0.32870
 N361 N 0.00190 0.27812 0.34953
 C362 C -0.00883 0.30945 0.35373
 C363 C 0.00632 0.33525 0.33731
 C364 C 0.04241 0.29595 0.31168
 C365 C -0.03959 0.18127 0.36499
 C366 C -0.05112 0.15436 0.34683
 C367 C -0.04408 0.18508 0.29606
 C368 C -0.03208 0.21123 0.31518
 N369 N -0.02981 0.20875 0.34900
 H370 H 0.03494 0.24590 0.32604
 H371 H -0.02818 0.31469 0.37091
 H372 H -0.00176 0.36014 0.34193
 H373 H 0.06210 0.28951 0.29528
 H374 H -0.03796 0.18014 0.39193
 H375 H -0.05863 0.13261 0.35999
 H376 H -0.04557 0.18735 0.26917
 H377 H -0.02480 0.23353 0.30299
 C378 C 0.08001 0.20919 0.43348
 C379 C -0.09977 0.28296 0.43927
 C380 C -0.05363 0.15613 0.31194
 C381 C 0.03294 0.32876 0.31669
 C382 C 1.03679 0.79288 0.07614
 H383 H 1.01289 0.80400 0.07649
 C384 C 1.06106 0.80640 0.05658
 H385 H 1.05545 0.82823 0.04240
 C386 C 1.07323 0.75223 0.09637
 H387 H 1.07809 0.73155 0.11244
 C388 C 1.09818 0.76486 0.07712
 H389 H 1.12193 0.75339 0.07838
 N390 N 1.04323 0.76631 0.09551
 C391 C 0.95067 0.72023 0.11572
 H392 H 0.95249 0.71938 0.14267
 C393 C 0.92343 0.70746 0.09940
 H394 H 0.90442 0.69655 0.11401
 C395 C 0.97362 0.73529 0.06413
 H396 H 0.99330 0.74613 0.05054
 C397 C 0.94683 0.72251 0.04669
 H398 H 0.94600 0.72412 0.01975
 Zn399 Zn 1.00995 0.75125 0.12348
 N400 N 0.97483 0.73421 0.09805
 C401 C 0.96390 0.79721 0.14556
 N402 N 0.99532 0.78742 0.14931
 C403 C 1.01631 0.80427 0.16949
 C404 C 1.00567 0.83185 0.18735
 C405 C 0.95228 0.82435 0.16288
 C406 C 1.03230 0.68796 0.13478
 C407 C 1.04290 0.66070 0.15283
 C408 C 1.03856 0.69264 0.20354
 C409 C 1.02779 0.71929 0.18448
 N410 N 1.02533 0.71660 0.15069
 H411 H 0.94775 0.78443 0.12860
 H412 H 1.04137 0.79637 0.17160
 H413 H 1.02264 0.84457 0.20361
 H414 H 0.92718 0.83165 0.15907
 H415 H 1.02959 0.68637 0.10792
 H416 H 1.04870 0.63825 0.13961
 H417 H 1.04014 0.69520 0.23041
 H418 H 1.02123 0.74195 0.19674
 C419 C 0.92124 0.70842 0.06444
 C420 C 1.09237 0.79239 0.05690
 C421 C 1.04651 0.66291 0.18765
 C422 C 0.97316 0.84225 0.18405
 C423 C 0.51755 0.27311 0.57037
 H424 H 0.49341 0.27189 0.55946
 C425 C 0.54269 0.28753 0.55258
 H426 H 0.53786 0.29712 0.52784
 C427 C 0.55314 0.26317 0.61630
 H428 H 0.55681 0.25433 0.64149
 C429 C 0.57909 0.27656 0.59909
 H430 H 0.60277 0.27792 0.61113
 N431 N 0.52315 0.26142 0.60169
 C432 C 0.46084 0.20559 0.57774
 H433 H 0.48515 0.19547 0.57740
 C434 C 0.43614 0.19057 0.55926
 H435 H 0.44188 0.16919 0.54433
 C436 C 0.42403 0.24557 0.59803
 H437 H 0.41941 0.26690 0.61334
 C438 C 0.39847 0.23122 0.57990
 H439 H 0.37422 0.24140 0.58180
 Zn440 Zn 0.48834 0.24444 0.62684
 N441 N 0.45421 0.23179 0.59758
 C442 C 0.44688 0.27293 0.67536
 N443 N 0.47417 0.27742 0.65722
 C444 C 0.49068 0.30621 0.65885
 C445 C 0.47961 0.33199 0.67877
 C446 C 0.43490 0.29811 0.69555
 C447 C 0.52778 0.18892 0.63633
 C448 C 0.53841 0.15959 0.65048
 C449 C 0.49551 0.16385 0.69069
 C450 C 0.48584 0.19345 0.67590
 N451 N 0.50229 0.20565 0.64946
 H452 H 0.43340 0.25038 0.67293
 H453 H 0.51212 0.30964 0.64411
 H454 H 0.49288 0.35485 0.67919
 H455 H 0.41228 0.29429 0.70832
 H456 H 0.53967 0.19801 0.61441
 H457 H 0.55895 0.14692 0.63968
 H458 H 0.48259 0.15496 0.71214
 H459 H 0.46519 0.20650 0.68563
 C460 C 0.40419 0.20254 0.56135
 C461 C 0.57388 0.28935 0.56705
 C462 C 0.52230 0.14667 0.67805
 C463 C 0.45120 0.32831 0.69728
 C464 C 0.48116 0.78894 0.92463
 H465 H 0.50542 0.79889 0.92589
 C466 C 0.45628 0.80428 0.94231
 H467 H 0.46235 0.82492 0.95819
 C468 C 0.44392 0.75102 0.90110
 H469 H 0.43878 0.73098 0.88420
 C470 C 0.41834 0.76570 0.91812
 H471 H 0.39402 0.75635 0.91414
 N472 N 0.47454 0.76316 0.90403
 C473 C 0.55967 0.70535 0.88050
 H474 H 0.55167 0.69836 0.85567
 C475 C 0.58600 0.68911 0.89516
 H476 H 0.59808 0.66971 0.88149
 C477 C 0.55375 0.73901 0.92842
 H478 H 0.54090 0.75808 0.94155
 C479 C 0.58063 0.72383 0.94377
 H480 H 0.58827 0.73136 0.96861
 Zn481 Zn 0.50680 0.74720 0.87449
 N482 N 0.54371 0.72945 0.89732
 C483 C 0.54730 0.77789 0.82844
 N484 N 0.52013 0.78210 0.84683
 C485 C 0.50368 0.81115 0.84677
 C486 C 0.51506 0.83772 0.82848
 C487 C 0.55949 0.80375 0.80978
 C488 C 0.48250 0.68446 0.86490
 C489 C 0.46912 0.65775 0.84794
 C490 C 0.46909 0.68953 0.79719
 C491 C 0.48271 0.71569 0.81518
 N492 N 0.48878 0.71275 0.84848
 H493 H 0.56003 0.75466 0.82893
 H494 H 0.48182 0.81392 0.86110
 H495 H 0.50189 0.86075 0.82909
 H496 H 0.58192 0.80000 0.79654
 H497 H 0.48775 0.68279 0.89138
 H498 H 0.46389 0.63567 0.86170
 H499 H 0.46459 0.69230 0.77068
 H500 H 0.48822 0.73836 0.80263
 C501 C 0.59659 0.69814 0.92726
 C502 C 0.42406 0.79341 0.93824
 C503 C 0.46181 0.66014 0.81372
 C504 C 0.54340 0.83429 0.80974
 C505 C 0.47818 -0.18256 0.31326
 C506 C 0.46999 -0.15576 0.33340
 N507 N 0.47120 -0.15859 0.36697
 C508 C 0.48025 -0.18713 0.38157
 C509 C 0.48890 -0.21451 0.36179
 N510 N 0.48729 -0.21132 0.32781
 N511 N 0.47553 -0.17973 0.27954
 C512 C 0.46472 -0.15137 0.26515
 C513 C 0.45592 -0.12448 0.28552
 N514 N 0.45919 -0.12773 0.31918
 H515 H 0.47921 -0.18850 0.40833
 H516 H 0.46216 -0.15050 0.23832
 C517 C 0.98803 0.34397 0.83377
 C518 C 0.95890 0.33914 0.81594
 N519 N 0.94538 0.30892 0.81476
 C520 C 0.95919 0.28341 0.83145
 C521 C 0.98749 0.28838 0.85113
 N522 N 1.00150 0.31866 0.85108
 N523 N 1.00143 0.37432 0.83491
 C524 C 0.98666 0.40021 0.81952
 C525 C 0.95672 0.39569 0.80278
 N526 N 0.94382 0.36503 0.80124
 H527 H 0.94752 0.25970 0.83060
 H528 H 0.99749 0.42425 0.82159
 C529 C 0.03198 1.17643 0.85228
 C530 C 0.03646 1.17829 0.81781
 N531 N 0.02976 1.20676 0.80175
 C532 C 0.01827 1.23340 0.81849
 C533 C 0.01276 1.23165 0.85328
 N534 N 0.02070 1.20302 0.86908
 N535 N 0.03901 1.14807 0.86846
 C536 C 0.05030 1.12137 0.85167
 C537 C 0.05495 1.12302 0.81691
 N538 N 0.04795 1.15176 0.80100
 H539 H 0.01403 1.25565 0.80456
 H540 H 0.05639 1.09951 0.86561
 C541 C 0.50602 0.66807 0.34038
 C542 C 0.53121 0.67290 0.31790
 N543 N 0.54207 0.70370 0.31233
 C544 C 0.52943 0.72988 0.32893
 C545 C 0.50513 0.72512 0.35302
 N546 N 0.49399 0.69400 0.35756
 N547 N 0.49528 0.63730 0.34620
 C548 C 0.50931 0.61089 0.33131
 C549 C 0.53601 0.61532 0.31016
 N550 N 0.54574 0.64653 0.30356
 H551 H 0.53982 0.75383 0.32501
 H552 H 0.49979 0.58683 0.33640
 C553 C 0.51669 0.33537 0.16857
 C554 C 0.54238 0.32894 0.19093
 N555 N 0.55472 0.29814 0.19320
 C556 C 0.54309 0.27360 0.17341
 C557 C 0.51853 0.28026 0.14939
 N558 N 0.50550 0.31106 0.14836
 N559 N 0.50444 0.36623 0.16620
 C560 C 0.51719 0.39116 0.18474
 C561 C 0.54387 0.38511 0.20627
 N562 N 0.55555 0.35390 0.20894
 H563 H 0.55364 0.24933 0.17550
 H564 H 0.50759 0.41567 0.18135
 C565 C 0.04266 0.83788 0.64356
 C566 C 0.03550 0.84302 0.67728
 N567 N 0.01858 0.81991 0.69390
 C568 C 0.00888 0.79168 0.67847
 C569 C 0.01684 0.78592 0.64472
 N570 N 0.03294 0.80989 0.62820
 N571 N 0.05960 0.86072 0.62673
 C572 C 0.07024 0.88837 0.64226
 C573 C 0.06365 0.89355 0.67625
 N574 N 0.04605 0.87077 0.69293
 H575 H -0.00529 0.77437 0.69239
 H576 H 0.08394 0.90608 0.62826
 C577 C 0.95462 0.68574 0.65448
 C578 C 0.97413 0.67179 0.67965
 N579 N 1.00305 0.68592 0.68772
 C580 C 1.01331 0.71330 0.67164
 C581 C 0.99357 0.72763 0.64652
 N582 N 0.96479 0.71292 0.63868
 N583 N 0.92625 0.67139 0.64538
 C584 C 0.91648 0.64337 0.66015
 C585 C 0.93594 0.62895 0.68525
 N586 N 0.96430 0.64375 0.69471
 H587 H 1.03682 0.72353 0.67792
 H588 H 0.89362 0.63251 0.65245
 C589 C 0.49523 0.16661 0.15333
 C590 C 0.47034 0.17067 0.17649
 N591 N 0.45961 0.20121 0.18418
 C592 C 0.47214 0.22797 0.16912
 C593 C 0.49615 0.22414 0.14457
 N594 N 0.50745 0.19330 0.13790
 N595 N 0.50561 0.13594 0.14542
 C596 C 0.49183 0.10905 0.15925
 C597 C 0.46609 0.11300 0.18172
 N598 N 0.45629 0.14392 0.18988
 H599 H 0.46261 0.25200 0.17526
 H600 H 0.50003 0.08495 0.15167
 C601 C 0.33912 0.48663 -0.15693
 C602 C 0.31707 0.46107 -0.16226
 N603 N 0.31250 0.44883 -0.19351
 C604 C 0.32969 0.46047 -0.21960
 C605 C 0.35335 0.48493 -0.21416
 N606 N 0.35672 0.49783 -0.18281
 N607 N 0.34341 0.49910 -0.12575
 C608 C 0.32729 0.48653 -0.09937
 C609 C 0.30627 0.45965 -0.10421
 N610 N 0.30141 0.44810 -0.13589
 H611 H 0.32578 0.45002 -0.24420
 H612 H 0.33120 0.49744 -0.07504
 C613 C 0.83963 0.97756 0.33566
 C614 C 0.80815 0.96567 0.33100
 N615 N 0.79507 0.96462 0.29971
 C616 C 0.81231 0.97449 0.27279
 C617 C 0.84454 0.98584 0.27716
 N618 N 0.85686 0.98689 0.30892
 N619 N 0.85342 0.97757 0.36653
 C620 C 0.83731 0.96573 0.39315
 C621 C 0.80576 0.95282 0.38877
 N622 N 0.79201 0.95345 0.35751
 H623 H 0.80140 0.97161 0.24830
 H624 H 0.84996 0.96517 0.41690
 C625 C 0.80987 0.02858 1.18462
 C626 C 0.82865 0.02736 1.15575
 N627 N 0.85878 0.01408 1.15695
 C628 C 0.87114 0.00175 1.18579
 C629 C 0.85251 0.00239 1.21516
 N630 N 0.82233 0.01651 1.21376
 N631 N 0.77987 0.04263 1.18315
 C632 C 0.76802 0.05577 1.15416
 C633 C 0.78727 0.05523 1.12535
 N634 N 0.81706 0.04076 1.12715
 H635 H 0.89567 -0.00786 1.18592
 H636 H 0.74444 0.06757 1.15406
 C637 C 0.34029 0.50800 0.67074
 C638 C 0.31816 0.53367 0.67576
 N639 N 0.31333 0.54535 0.70707
 C640 C 0.33024 0.53297 0.73358
 C641 C 0.35366 0.50809 0.72861
 N642 N 0.35742 0.49591 0.69710
 N643 N 0.34524 0.49641 0.63942
 C644 C 0.32959 0.50988 0.61267
 C645 C 0.30821 0.53654 0.61737
 N646 N 0.30276 0.54735 0.64907
 H647 H 0.32625 0.54309 0.75822
 H648 H 0.33401 0.49991 0.58809
 C649 C 0.17500 0.52201 0.32146
 C650 C 0.15501 0.53135 0.34793
 N651 N 0.12249 0.52722 0.34523
 C652 C 0.10886 0.51437 0.31709
 C653 C 0.12857 0.50536 0.28993
 N654 N 0.16138 0.50957 0.29302
 N655 N 0.20761 0.52636 0.32434
 C656 C 0.22108 0.53984 0.35244
 C657 C 0.20095 0.54989 0.37877
 N658 N 0.16834 0.54520 0.37567
 H659 H 0.08274 0.51216 0.31554
 H660 H 0.24705 0.54359 0.35369
 C661 C 0.65799 0.05215 0.81913
 C662 C 0.67630 0.03029 0.83873
 N663 N 0.67812 -0.00176 0.82943
 C664 C 0.66250 -0.01282 0.80135
 C665 C 0.64432 0.00923 0.78137
 N666 N 0.64252 0.04114 0.79136
 N667 N 0.65566 0.08406 0.82819
 C668 C 0.67119 0.09539 0.85592
 C669 C 0.69010 0.07385 0.87561
 N670 N 0.69193 0.04156 0.86665
 H671 H 0.66411 -0.03850 0.79463
 H672 H 0.66843 0.12095 0.86268
 C673 C 0.64687 0.95806 0.66943
 C674 C 0.68088 0.95877 0.66972
 N675 N 0.69688 0.97208 0.69635
 C676 C 0.68042 0.98444 0.72288
 C677 C 0.64610 0.98348 0.72285
 N678 N 0.63054 0.97074 0.69551
 N679 N 0.63060 0.94428 0.64332
 C680 C 0.64691 0.93091 0.61738
 C681 C 0.68098 0.93170 0.61739
 N682 N 0.69728 0.94582 0.64354
 H683 H 0.69410 0.99540 0.74321
 H684 H 0.63344 0.91989 0.59684
 C685 C 0.15709 0.48244 0.17546
 C686 C 0.17861 0.45674 0.18293
 N687 N 0.18103 0.44565 0.21474
 C688 C 0.16207 0.45835 0.23922
 C689 C 0.13859 0.48270 0.23150
 N690 N 0.13762 0.49449 0.19964
 N691 N 0.15471 0.49376 0.14373
 C692 C 0.17252 0.48011 0.11891
 C693 C 0.19319 0.45336 0.12596
 N694 N 0.19584 0.44251 0.15804
 H695 H 0.16463 0.44875 0.26424
 H696 H 0.16940 0.48910 0.09370
 C697 C -0.17742 0.32969 0.48923
 C698 C -0.18333 0.30938 0.46152
 N699 N -0.21415 0.30577 0.44970
 C700 C -0.23936 0.32186 0.46414
 C701 C -0.23358 0.34306 0.49154
 N702 N -0.20246 0.34620 0.50328
 N703 N -0.14661 0.33335 0.50106
 C704 C -0.12129 0.31780 0.48624
 C705 C -0.12694 0.29796 0.45790
 N706 N -0.15803 0.29427 0.44634
 H707 H -0.26362 0.31893 0.45385
 H708 H -0.09694 0.32186 0.49581
 C709 C 0.34188 0.84614 0.97266
 C710 C 0.33974 0.81281 0.96477
 N711 N 0.31052 0.79768 0.96599
 C712 C 0.28327 0.81444 0.97482
 C713 C 0.28514 0.84819 0.98297
 N714 N 0.31474 0.86287 0.98122
 N715 N 0.37085 0.86157 0.97071
 C716 C 0.39794 0.84518 0.96094
 C717 C 0.39602 0.81161 0.95250
 N718 N 0.36669 0.79640 0.95478
 H719 H 0.26037 0.80161 0.97465
 H720 H 0.42022 0.85876 0.95864
 C721 C 1.17077 0.83716 0.00702
 C722 C 1.17628 0.81628 0.03417
 N723 N 1.20701 0.81142 0.04580
 C724 C 1.23254 0.82685 0.03171
 C725 C 1.22724 0.84852 0.00474
 N726 N 1.19616 0.85289 -0.00683
 N727 N 1.14000 0.84206 -0.00452
 C728 C 1.11434 0.82746 0.01026
 C729 C 1.11957 0.80724 0.03830
 N730 N 1.15069 0.80197 0.04917
 H731 H 1.25670 0.82302 0.04198
 H732 H 1.09026 0.83166 0.00003
 C733 C 0.65256 0.33890 0.52369
 C734 C 0.65682 0.30762 0.53735
 N735 N 0.68686 0.29387 0.53813
 C736 C 0.71303 0.31032 0.52662
 C737 C 0.70940 0.34267 0.51444
 N738 N 0.67880 0.35567 0.51310
 N739 N 0.62243 0.35255 0.52246
 C740 C 0.59638 0.33646 0.53478
 C741 C 0.60078 0.30564 0.54980
 N742 N 0.63103 0.29191 0.55052
 H743 H 0.73656 0.29847 0.52791
 H744 H 0.57275 0.34820 0.53412
 C745 C 0.32511 0.14804 0.52217
 C746 C 0.32400 0.18233 0.52209
 N747 N 0.29721 0.19778 0.50951
 C748 C 0.27143 0.18046 0.49711
 C749 C 0.27229 0.14581 0.49761
 N750 N 0.29951 0.13089 0.51014
 N751 N 0.35172 0.13226 0.53431
 C752 C 0.37754 0.14925 0.54644
 C753 C 0.37679 0.18377 0.54659
 N754 N 0.34974 0.19952 0.53453
 H755 H 0.25089 0.19378 0.48692
 H756 H 0.39805 0.13580 0.55667
 C757 C 0.83905 0.66411 0.01863
 C758 C 0.83666 0.68005 0.04954
 N759 N 0.80808 0.67983 0.06595
 C760 C 0.78188 0.66370 0.05317
 C761 C 0.78442 0.64631 0.02274
 N762 N 0.81307 0.64762 0.00607
 N763 N 0.86772 0.66413 0.00234
 C764 C 0.89433 0.67910 0.01580
 C765 C 0.89233 0.69442 0.04728
 N766 N 0.86328 0.69458 0.06320
 H767 H 0.75949 0.66361 0.06699
 H768 H 0.91702 0.67789 0.00256
 C769 C 0.67546 0.64614 0.97050
 C770 C 0.67501 0.68046 0.97096
 N771 N 0.70091 0.69684 0.98392
 C772 C 0.72724 0.68051 0.99657
 C773 C 0.72773 0.64578 0.99668
 N774 N 0.70147 0.62987 0.98331
 N775 N 0.65016 0.62951 0.95670
 C776 C 0.62439 0.64574 0.94304
 C777 C 0.62374 0.68021 0.94336
 N778 N 0.64910 0.69681 0.95758
 H779 H 0.74742 0.69478 1.00593
 H780 H 0.60455 0.63189 0.93208
 C781 C 0.16941 0.17502 0.47411
 C782 C 0.16111 0.17012 0.44045
 N783 N 0.18107 0.15263 0.42059
 C784 C 0.20882 0.13904 0.43286
 C785 C 0.21713 0.14256 0.46717
 N786 N 0.19696 0.16096 0.48674
 N787 N 0.14903 0.19255 0.49387
 C788 C 0.12053 0.20498 0.48146
 C789 C 0.11172 0.19902 0.44790
 N790 N 0.13256 0.18190 0.42830
 H791 H 0.22327 0.12478 0.41580
 H792 H 0.10447 0.21832 0.49787
 C793 C 0.56131 0.06006 0.72167
 C794 C 0.58110 0.08353 0.70667
 N795 N 0.61359 0.07904 0.70600
 C796 C 0.62745 0.05204 0.71964
 C797 C 0.60801 0.02785 0.73459
 N798 N 0.57511 0.03259 0.73521
 N799 N 0.52870 0.06539 0.72262
 C800 C 0.51513 0.09307 0.70924
 C801 C 0.53509 0.11640 0.69390
 N802 N 0.56761 0.11074 0.69314
 H803 H 0.65361 0.04953 0.71914
 H804 H 0.48908 0.09645 0.71002
 C805 C 1.08507 0.58065 0.23911
 C806 C 1.06517 0.57654 0.21079
 N807 N 1.05942 0.54590 0.19882
 C808 C 1.07303 0.51913 0.21370
 C809 C 1.09375 0.52305 0.24183
 N810 N 1.09901 0.55406 0.25365
 N811 N 1.09113 0.61125 0.25096
 C812 C 1.07833 0.63810 0.23559
 C813 C 1.05882 0.63424 0.20670
 N814 N 1.05273 0.60333 0.19512
 H815 H 1.06853 0.49506 0.20321
 H816 H 1.08434 0.66216 0.24523
 C817 C 0.93266 0.92783 0.22793
 C818 C 0.91347 0.90075 0.21935
 N819 N 0.88084 0.90258 0.22218
 C820 C 0.86626 0.93048 0.23289
 C821 C 0.88510 0.95825 0.24130
 N822 N 0.91811 0.95599 0.23846
 N823 N 0.96534 0.92602 0.22387
 C824 C 0.97958 0.89848 0.21117
 C825 C 0.96014 0.87154 0.20166
 N826 N 0.92754 0.87358 0.20644
 H827 H 0.84010 0.93124 0.23337
 H828 H 1.00551 0.89829 0.20734
 C829 C 0.40822 0.41016 0.74546
 C830 C 0.43025 0.41444 0.71957
 N831 N 0.43623 0.44508 0.70821
 C832 C 0.42044 0.47160 0.72098
 C833 C 0.39686 0.46733 0.74580
 N834 N 0.39214 0.43650 0.75783
 N835 N 0.40211 0.37956 0.75679
 C836 C 0.41644 0.35284 0.74278
 C837 C 0.43755 0.35678 0.71573
 N838 N 0.44427 0.38777 0.70527
 H839 H 0.42525 0.49567 0.71102
 H840 H 0.41112 0.32887 0.75263
 C841 C 0.41235 0.58020 0.76845
 C842 C 0.43443 0.57517 0.79484
 N843 N 0.43862 0.54457 0.80740
 C844 C 0.42115 0.51884 0.79520
 C845 C 0.39777 0.52393 0.76963
 N846 N 0.39463 0.55466 0.75659
 N847 N 0.40792 0.61081 0.75605
 C848 C 0.42432 0.63683 0.76915
 C849 C 0.44597 0.63214 0.79628
 N850 N 0.45051 0.60116 0.80824
 H851 H 0.42472 0.49478 0.80596
 H852 H 0.41939 0.66100 0.75929
 C853 C -0.09695 0.07572 0.26156
 C854 C -0.07443 0.07063 0.28754
 N855 N -0.06816 0.03966 0.29812
 C856 C -0.08400 0.01355 0.28444
 C857 C -0.10800 0.01852 0.25933
 N858 N -0.11338 0.04983 0.24855
 N859 N -0.10345 0.10668 0.25106
 C860 C -0.08877 0.13292 0.26577
 C861 C -0.06710 0.12807 0.29279
 N862 N -0.06034 0.09684 0.30283
 H863 H -0.07924 -0.01061 0.29443
 H864 H -0.09507 0.15734 0.25738
 C865 C 0.08740 0.40858 0.28021
 C866 C 0.05408 0.41194 0.28567
 N867 N 0.03959 0.44153 0.28072
 C868 C 0.05697 0.46792 0.27056
 C869 C 0.09073 0.46475 0.26499
 N870 N 0.10469 0.43486 0.27045
 N871 N 0.10225 0.37936 0.28572
 C872 C 0.08526 0.35315 0.29656
 C873 C 0.05169 0.35624 0.30240
 N874 N 0.03700 0.38585 0.29682
 H875 H 0.04464 0.49123 0.26799
 H876 H 0.09824 0.33059 0.30162
 C877 C 0.58685 0.91504 0.76193
 C878 C 0.56657 0.92013 0.78918
 N879 N 0.56294 0.95100 0.80168
 C880 C 0.57930 0.97683 0.78854
 C881 C 0.60093 0.97153 0.76201
 N882 N 0.60359 0.94049 0.74949
 N883 N 0.59083 0.88446 0.74926
 C884 C 0.57607 0.85833 0.76321
 C885 C 0.55690 0.86280 0.79171
 N886 N 0.55215 0.89392 0.80362
 H887 H 0.57669 1.00092 0.79962
 H888 H 0.57963 0.83435 0.75221
 C889 C 0.70064 0.58395 0.07098
 C890 C 0.72240 0.57020 0.09418
 N891 N 0.75478 0.57252 0.08901
 C892 C 0.76640 0.58825 0.06181
 C893 C 0.74466 0.60277 0.03842
 N894 N 0.71219 0.59984 0.04405
 N895 N 0.66828 0.58254 0.07646
 C896 C 0.65661 0.56800 0.10421
 C897 C 0.67832 0.55418 0.12788
 N898 N 0.71085 0.55578 0.12210
 H899 H 0.79237 0.59089 0.05963
 H900 H 0.63069 0.56829 0.10808
 C901 C 0.23254 1.09170 0.57115
 C902 C 0.20329 1.07465 0.56779
 N903 N 0.18885 1.07195 0.53722
 C904 C 0.20220 1.08590 0.50986
 C905 C 0.23144 1.10372 0.51305
 N906 N 0.24565 1.10586 0.54400
 N907 N 0.24680 1.09494 0.60171
 C908 C 0.23301 1.08198 0.62927
 C909 C 0.20333 1.06513 0.62626
 N910 N 0.18931 1.06193 0.59532
 H911 H 0.18978 1.08380 0.48596
 H912 H 0.24468 1.08583 0.65331
 C913 C 0.22694 0.93243 0.92736
 C914 C 0.22009 0.91264 0.89950
 N915 N 0.22484 0.87983 0.90134
 C916 C 0.23624 0.86578 0.92984
 C917 C 0.24343 0.88535 0.95814
 N918 N 0.23825 0.91841 0.95602
 N919 N 0.22157 0.96524 0.92546
 C920 C 0.20952 0.97915 0.89697
 C921 C 0.20231 0.95927 0.86893
 N922 N 0.20796 0.92641 0.87123
 H923 H 0.23912 0.83945 0.93053
 H924 H 0.20478 1.00522 0.89681
 C925 C 0.73364 0.41051 0.42446
 C926 C 0.70801 0.43237 0.42991
 N927 N 0.69461 0.43422 0.46064
 C928 C 0.70501 0.41432 0.48586
 C929 C 0.72928 0.39041 0.47994
 N930 N 0.74343 0.39012 0.44929
 N931 N 0.74752 0.40900 0.39401
 C932 C 0.73620 0.42765 0.36828
 C933 C 0.70899 0.44831 0.37287
 N934 N 0.69611 0.45048 0.40406
 H935 H 0.69380 0.41652 0.51003
 H936 H 0.74826 0.42577 0.34461
 C937 C 0.76685 0.42767 0.56986
 C938 C 0.77652 0.40786 0.59669
 N939 N 0.77330 0.37495 0.59437
 C940 C 0.76086 0.36076 0.56634
 C941 C 0.75111 0.38029 0.53886
 N942 N 0.75455 0.41353 0.54159
 N943 N 0.77073 0.46066 0.57225
 C944 C 0.78405 0.47465 0.60019
 C945 C 0.79425 0.45468 0.62706
 N946 N 0.79000 0.42169 0.62435
 H947 H 0.75968 0.33440 0.56532
 H948 H 0.78754 0.50088 0.60079
 C949 C 0.26505 -0.08888 0.07478
 C950 C 0.28933 -0.06595 0.06860
 N951 N 0.29957 -0.06153 0.03691
 C952 C 0.28744 -0.07993 0.01125
 C953 C 0.26458 -0.10483 0.01755
 N954 N 0.25351 -0.10771 0.04937
 N955 N 0.25481 -0.09344 0.10643
 C956 C 0.26855 -0.07682 0.13246
 C957 C 0.29437 -0.05508 0.12672
 N958 N 0.30353 -0.04978 0.09460
 H959 H 0.29668 -0.07617 -0.01357
 H960 H 0.25959 -0.08103 0.15729
 C961 C 0.29681 0.09990 0.41077
 C962 C 0.29000 0.06664 0.40580
 N963 N 0.27007 0.05115 0.42729
 C964 C 0.25625 0.06752 0.45328
 C965 C 0.26223 0.10135 0.45781
 N966 N 0.28265 0.11629 0.43613
 N967 N 0.31698 0.11559 0.38980
 C968 C 0.33073 0.09945 0.36386
 C969 C 0.32368 0.06616 0.35831
 N970 N 0.30332 0.05049 0.37950
 H971 H 0.24050 0.05415 0.46954
 H972 H 0.34651 0.11268 0.34733
 C973 C 0.76953 0.59303 0.92185
 C974 C 0.79490 0.57048 0.92628
 N975 N 0.80632 0.56417 0.95752
 C976 C 0.79376 0.57970 0.98460
 C977 C 0.76869 0.60321 0.98046
 N978 N 0.75738 0.60893 0.94876
 N979 N 0.75825 0.59965 0.89061
 C980 C 0.77145 0.58488 0.86345
 C981 C 0.79753 0.56273 0.86763
 N982 N 0.80849 0.55608 0.89919
 H983 H 0.80435 0.57457 1.00874
 H984 H 0.76241 0.59137 0.83887
 C985 C 0.08981 0.73785 0.59251
 C986 C 0.08424 0.71043 0.57208
 N987 N 0.05356 0.69909 0.56776
 C988 C 0.02812 0.71380 0.58319
 C989 C 0.03343 0.74122 0.60419
 N990 N 0.06448 0.75234 0.60825
 N991 N 0.12059 0.74893 0.59710
 C992 C 0.14615 0.73370 0.58229
 C993 C 0.14078 0.70577 0.56215
 N994 N 0.10972 0.69500 0.55762
 H995 H 0.00399 0.70389 0.57965
 H996 H 0.17040 0.74273 0.58718
 C997 C 0.59219 0.24647 1.08982
 C998 C 0.58820 0.22244 1.06510
 N999 N 0.55808 0.21056 1.05821
 C1000 C 0.53182 0.22109 1.07559
 C1001 C 0.53583 0.24413 1.10169
 N1002 N 0.56611 0.25667 1.10739
 N1003 N 0.62229 0.25824 1.09687
 C1004 C 0.64884 0.24648 1.08081
 C1005 C 0.64522 0.22137 1.05677
 N1006 N 0.61468 0.21042 1.04929
 H1007 H 0.50818 0.21083 1.06990
 H1008 H 0.67239 0.25657 1.08700
 C1009 C 0.94148 0.20725 0.92090
 C1010 C 0.91737 0.22962 0.93033
 N1011 N 0.92142 0.26193 0.92407
 C1012 C 0.94814 0.27283 0.90807
 C1013 C 0.97193 0.25026 0.89674
 N1014 N 0.96782 0.21799 0.90429
 N1015 N 0.93764 0.17494 0.92739
 C1016 C 0.91027 0.16383 0.94204
 C1017 C 0.88505 0.18598 0.94996
 N1018 N 0.88972 0.21855 0.94440
 H1019 H 0.94987 0.29873 0.90287
 H1020 H 0.90835 0.13795 0.94719
 C1021 C 0.43447 0.71747 0.43861
 C1022 C 0.40601 0.71819 0.41900
 N1023 N 0.40681 0.73011 0.38758
 C1024 C 0.43483 0.74151 0.37477
 C1025 C 0.46372 0.74130 0.39424
 N1026 N 0.46274 0.72873 0.42577
 N1027 N 0.43343 0.70487 0.46990
 C1028 C 0.40526 0.69287 0.48237
 C1029 C 0.37667 0.69327 0.46252
 N1030 N 0.37809 0.70607 0.43128
 H1031 H 0.43470 0.75022 0.34930
 H1032 H 0.40560 0.68230 0.50705
 C1033 C 0.58203 0.75898 0.40961
 C1034 C 0.57860 0.77596 0.43974
 N1035 N 0.54844 0.78102 0.45207
 C1036 C 0.52143 0.77102 0.43492
 C1037 C 0.52446 0.75623 0.40308
 N1038 N 0.55514 0.75016 0.39202
 N1039 N 0.61208 0.75373 0.39711
 C1040 C 0.63896 0.76556 0.41305
 C1041 C 0.63552 0.78439 0.44227
 N1042 N 0.60528 0.78879 0.45512
 H1043 H 0.49798 0.77604 0.44555
 H1044 H 0.66253 0.76193 0.40196
 C1045 C 0.08466 0.27326 -0.08918
 C1046 C 0.07989 0.29920 -0.06677
 N1047 N 0.04963 0.31170 -0.06277
 C1048 C 0.02384 0.29960 -0.08035
 C1049 C 0.02833 0.27378 -0.10351
 N1050 N 0.05900 0.26133 -0.10701
 N1051 N 0.11504 0.26104 -0.09348
 C1052 C 0.14097 0.27375 -0.07651
 C1053 C 0.13644 0.30023 -0.05424
 N1054 N 0.10574 0.31213 -0.05005
 H1055 H 0.00036 0.31077 -0.07686
 H1056 H 0.16488 0.26392 -0.08135
 C1057 C 0.42313 0.26413 0.08743
 C1058 C 0.42629 0.29240 0.06816
 N1059 N 0.45600 0.30631 0.06509
 C1060 C 0.48253 0.29370 0.08128
 C1061 C 0.47914 0.26639 0.10243
 N1062 N 0.44937 0.25197 0.10404
 N1063 N 0.39361 0.24996 0.09038
 C1064 C 0.36677 0.26332 0.07565
 C1065 C 0.36935 0.29273 0.05755
 N1066 N 0.39940 0.30614 0.05383
 H1067 H 0.50583 0.30551 0.07872
 H1068 H 0.34377 0.25106 0.07833
 C1069 C 0.92213 0.78601 0.60126
 C1070 C 0.92317 0.78863 0.56648
 N1071 N 0.95143 0.78218 0.55059
 C1072 C 0.97852 0.77244 0.56787
 C1073 C 0.97725 0.76849 0.60286
 N1074 N 0.94901 0.77638 0.61844
 N1075 N 0.89412 0.79252 0.61738
 C1076 C 0.86680 0.80128 0.60024
 C1077 C 0.86738 0.80361 0.56516
 N1078 N 0.89588 0.79752 0.54921
 H1079 H 1.00058 0.76787 0.55429
 H1080 H 0.84513 0.80702 0.61407
   
