data_POSCAR
  _audit_creation_date              2014-09-24
  _audit_creation_method            'ToBaCCo'
  _symmetry_space_group_name_H-M    'P1'
  _symmetry_Int_Tables_number       1
  _symmetry_cell_setting            triclinic
  loop_
  _symmetry_equiv_pos_as_xyz
 x,y,z
_cell_length_a 50.4144
_cell_length_b 28.7264
_cell_length_c 15.3104
_cell_angle_alpha 89.975900
_cell_angle_beta 90.001200
_cell_angle_gamma 89.993700
loop_
  _atom_site_label
  _atom_site_type_symbol
  _atom_site_fract_x
  _atom_site_fract_y
  _atom_site_fract_z
C1 C 0.72866 0.26867 0.54793
 C2 C 0.72865 0.26775 0.45582
 C3 C 0.75014 0.24829 0.41085
 C4 C 0.77174 0.22968 0.45672
 C5 C 0.77177 0.23058 0.54905
 C6 C 0.75022 0.25005 0.59398
 H7 H 0.75024 0.25074 0.66490
 H8 H 0.75002 0.24771 0.33996
 C9 C 0.22930 0.77012 0.54825
 C10 C 0.22914 0.76979 0.45625
 C11 C 0.25026 0.74955 0.41064
 C12 C 0.27154 0.72965 0.45608
 C13 C 0.27171 0.72993 0.54825
 C14 C 0.25055 0.75020 0.59385
 H15 H 0.25058 0.75053 0.66473
 H16 H 0.25014 0.74931 0.33979
 C17 C 0.27051 0.26937 -0.54685
 C18 C 0.27052 0.26970 -0.45486
 C19 C 0.24929 0.24999 -0.40883
 C20 C 0.22798 0.22988 -0.45389
 C21 C 0.22796 0.22958 -0.54624
 C22 C 0.24924 0.24934 -0.59209
 H23 H 0.24930 0.24916 -0.66297
 H24 H 0.24942 0.25034 -0.33795
 C25 C -0.22916 0.76837 -0.54679
 C26 C -0.22916 0.76880 -0.45481
 C27 C -0.25063 0.74981 -0.40901
 C28 C -0.27215 0.73043 -0.45419
 C29 C -0.27219 0.73012 -0.54654
 C30 C -0.25064 0.74911 -0.59215
 H31 H -0.25053 0.74893 -0.66304
 H32 H -0.25054 0.75016 -0.33812
 O33 O 0.03702 0.92062 -0.16037
 O34 O 0.06615 0.96214 -0.07533
 C35 C 0.06075 0.93256 -0.13653
 O36 O -0.03746 1.08668 -0.14957
 O37 O -0.06674 1.04142 -0.07184
 C38 C -0.06124 1.07405 -0.12730
 O39 O 0.03698 1.08293 -0.15770
 O40 O 0.06613 1.04053 -0.07425
 C41 C 0.06072 1.07067 -0.13456
 O42 O -0.03743 0.91674 -0.15285
 O43 O -0.06672 0.96104 -0.07332
 C44 C -0.06123 0.92907 -0.13013
 Zr45 Zr -0.00013 0.94265 -0.11036
 O46 O -0.00294 0.94315 -0.24832
 O47 O 0.00281 0.86911 -0.11030
 Zr48 Zr -0.00016 1.06019 -0.10856
 O49 O -0.00308 1.06030 -0.24655
 O50 O 0.00277 1.13371 -0.10754
 O51 O 0.02359 1.00152 -0.12632
 O52 O -0.02318 1.00149 -0.12579
 O53 O -0.03737 0.91485 0.15171
 O54 O -0.06646 0.95986 0.07310
 C55 C -0.06108 0.92736 0.12893
 O56 O 0.03671 1.08152 0.16228
 O57 O 0.06601 1.03986 0.07813
 C58 C 0.06049 1.06954 0.13904
 O59 O -0.03746 1.08562 0.15426
 O60 O -0.06651 1.04119 0.07445
 C61 C -0.06117 1.07325 0.13117
 O62 O 0.03678 0.91905 0.16014
 O63 O 0.06604 0.96140 0.07707
 C64 C 0.06056 0.93125 0.13726
 Zr65 Zr -0.00030 0.94159 0.11015
 O66 O -0.00339 0.94114 0.24806
 O67 O 0.00269 0.86807 0.10764
 Zr68 Zr -0.00035 1.05917 0.11209
 O69 O -0.00345 1.05766 0.25001
 O70 O 0.00257 1.13270 0.11314
 Zr71 Zr 0.03946 1.00095 0.00121
 Zr72 Zr -0.03980 1.00090 0.00029
 O73 O -0.02342 1.00029 0.12673
 O74 O 0.02339 1.00033 0.12845
 O75 O -0.02392 0.93298 -0.00051
 O76 O 0.02282 1.06820 0.00210
 O77 O 0.02290 0.93367 -0.00003
 O78 O -0.02394 1.06883 0.00165
 H79 H -0.03511 1.00176 -0.17722
 H80 H 0.03473 1.09564 0.00255
 H81 H -0.03542 1.00005 0.17798
 H82 H 0.03485 0.90630 -0.00035
 H83 H -0.01203 1.14576 -0.07170
 H84 H -0.01211 1.14503 0.07704
 H85 H 0.01178 1.03961 0.27264
 H86 H 0.01132 0.96023 0.27133
 H87 H -0.01230 0.85612 0.07254
 H88 H -0.01240 0.85682 -0.07668
 H89 H 0.01157 0.96303 -0.27068
 H90 H 0.01211 1.04234 -0.26966
 O91 O 0.46316 0.41766 0.15734
 O92 O 0.43396 0.46003 0.07402
 C93 C 0.43940 0.42988 0.13426
 O94 O 0.53741 0.58410 0.15177
 O95 O 0.56660 0.53976 0.07222
 C96 C 0.56117 0.57181 0.12891
 O97 O 0.46325 0.58006 0.15923
 O98 O 0.43400 0.53846 0.07481
 C99 C 0.43949 0.56813 0.13576
 O100 O 0.53736 0.41359 0.14975
 O101 O 0.56655 0.45850 0.07130
 C102 C 0.56110 0.42607 0.12719
 Zr103 Zr 0.50030 0.44026 0.10780
 O104 O 0.50325 0.44018 0.24576
 O105 O 0.49732 0.36673 0.10602
 Zr106 Zr 0.50032 0.55782 0.10900
 O107 O 0.50325 0.55733 0.24695
 O108 O 0.49738 0.63137 0.10827
 O109 O 0.47659 0.49901 0.12557
 O110 O 0.52339 0.49897 0.12432
 O111 O 0.53734 0.41456 -0.15527
 O112 O 0.56655 0.45900 -0.07604
 C113 C 0.56111 0.42690 -0.13257
 O114 O 0.46322 0.58121 -0.16106
 O115 O 0.43399 0.53897 -0.07758
 C116 C 0.43945 0.56909 -0.13788
 O117 O 0.53769 0.58474 -0.15266
 O118 O 0.56693 0.53973 -0.07419
 C119 C 0.56146 0.57215 -0.13013
 O120 O 0.46314 0.41871 -0.16251
 O121 O 0.43396 0.46052 -0.07819
 C122 C 0.43939 0.43075 -0.13902
 Zr123 Zr 0.50026 0.44106 -0.11275
 O124 O 0.50317 0.44219 -0.25072
 O125 O 0.49732 0.36753 -0.11324
 Zr126 Zr 0.50033 0.55858 -0.11139
 O127 O 0.50328 0.55903 -0.24933
 O128 O 0.49747 0.63212 -0.10961
 Zr129 Zr 0.46060 0.49947 -0.00177
 Zr130 Zr 0.53994 0.49940 -0.00190
 O131 O 0.52337 0.49984 -0.12809
 O132 O 0.47656 0.49991 -0.12916
 O133 O 0.52400 0.43151 -0.00262
 O134 O 0.47722 0.56671 -0.00109
 O135 O 0.47719 0.43220 -0.00253
 O136 O 0.52405 0.56732 -0.00110
 H137 H 0.53531 0.49880 0.17577
 H138 H 0.46529 0.59413 -0.00080
 H139 H 0.53530 0.49999 -0.17952
 H140 H 0.46526 0.40478 -0.00280
 H141 H 0.51256 0.64359 0.07437
 H142 H 0.51255 0.64408 -0.07494
 H143 H 0.48857 0.53987 -0.27240
 H144 H 0.48805 0.46056 -0.27325
 H145 H 0.51209 0.35525 -0.07752
 H146 H 0.51236 0.35466 0.07127
 H147 H 0.48826 0.45870 0.26879
 H148 H 0.48859 0.53790 0.26957
 C149 C 0.35192 0.34781 0.20269
 C150 C 0.35268 0.30404 0.26184
 C151 C 0.33397 0.32858 0.32622
 C152 C 0.33285 0.37201 0.26778
 C153 C 0.37561 0.36783 0.25346
 C154 C 0.35689 0.39235 0.31791
 C155 C 0.37673 0.32441 0.31196
 C156 C 0.35766 0.34860 0.37701
 C157 C 0.31092 0.30698 0.36807
 C158 C 0.29228 0.28959 0.40497
 C159 C 0.39868 0.38978 0.21227
 C160 C 0.41743 0.40799 0.17738
 H161 H 0.34981 0.34772 0.13051
 H162 H 0.35068 0.26750 0.23920
 H163 H 0.31455 0.39129 0.25000
 H164 H 0.35888 0.42888 0.34063
 H165 H 0.39503 0.30512 0.32982
 H166 H 0.35973 0.34859 0.44917
 C167 C -0.12356 0.81776 0.29815
 C168 C -0.14036 0.84073 0.37108
 C169 C -0.16569 0.82532 0.32330
 C170 C -0.14925 0.80199 0.25108
 C171 C -0.12445 0.86366 0.24674
 C172 C -0.14977 0.84826 0.19898
 C173 C -0.14090 0.88695 0.31903
 C174 C -0.16656 0.87122 0.27195
 C175 C -0.18858 0.80446 0.36700
 C176 C -0.20723 0.78777 0.40487
 C177 C -0.10162 0.88557 0.20430
 C178 C -0.08301 0.90426 0.16970
 H179 H -0.10561 0.79606 0.30848
 H180 H -0.13678 0.83734 0.44236
 H181 H -0.15296 0.76682 0.22367
 H182 H -0.15336 0.85159 0.12771
 H183 H -0.13720 0.92210 0.34656
 H184 H -0.18450 0.89294 0.26163
 C185 C 0.63997 0.61301 0.32431
 C186 C 0.66625 0.62642 0.27839
 C187 C 0.66564 0.67360 0.32553
 C188 C 0.63969 0.66050 0.37215
 C189 C 0.62448 0.63514 0.24846
 C190 C 0.62385 0.68232 0.29566
 C191 C 0.65043 0.64824 0.20188
 C192 C 0.65016 0.69577 0.24975
 C193 C 0.68850 0.69460 0.36950
 C194 C 0.70709 0.71145 0.40760
 C195 C 0.60168 0.61324 0.20559
 C196 C 0.58308 0.59467 0.17048
 H197 H 0.63553 0.57877 0.35461
 H198 H 0.68394 0.60368 0.27172
 H199 H 0.63555 0.66582 0.44266
 H200 H 0.60616 0.70504 0.30237
 H201 H 0.65458 0.64297 0.13138
 H202 H 0.65461 0.73003 0.21957
 C203 C 0.15008 1.14205 0.21056
 C204 C 0.15038 1.19105 0.25281
 C205 C 0.16572 1.17085 0.33073
 C206 C 0.16577 1.12220 0.28921
 C207 C 0.12407 1.13138 0.25889
 C208 C 0.13940 1.11120 0.33691
 C209 C 0.12402 1.18002 0.30052
 C210 C 0.13972 1.16018 0.37915
 C211 C 0.18877 1.19263 0.37185
 C212 C 0.20740 1.21019 0.40840
 C213 C 0.10106 1.10939 0.21780
 C214 C 0.08237 1.09124 0.18265
 H215 H 0.15407 1.13433 0.14075
 H216 H 0.15518 1.22410 0.21871
 H217 H 0.18321 1.09872 0.28495
 H218 H 0.13462 1.07818 0.37117
 H219 H 0.10657 1.20349 0.30488
 H220 H 0.13576 1.16799 0.44895
 C221 C 0.63967 0.32139 -0.21535
 C222 C 0.63997 0.30035 -0.30854
 C223 C 0.66623 0.32574 -0.32653
 C224 C 0.66629 0.34647 -0.23406
 C225 C 0.62472 0.36396 -0.25104
 C226 C 0.65098 0.38936 -0.26911
 C227 C 0.62467 0.34326 -0.34356
 C228 C 0.65127 0.36831 -0.36223
 C229 C 0.68922 0.30467 -0.36963
 C230 C 0.70788 0.28762 -0.40702
 C231 C 0.60174 0.38564 -0.20884
 C232 C 0.58304 0.40406 -0.17407
 H233 H 0.63463 0.30233 -0.15448
 H234 H 0.63571 0.26349 -0.32521
 H235 H 0.68365 0.34758 -0.18951
 H236 H 0.65524 0.42622 -0.25253
 H237 H 0.60734 0.34218 -0.38824
 H238 H 0.65632 0.38736 -0.42312
 C239 C 0.15138 0.89476 -0.26918
 C240 C 0.16552 0.85076 -0.23366
 C241 C 0.16612 0.83082 -0.32667
 C242 C 0.15234 0.87447 -0.36287
 C243 C 0.12451 0.87065 -0.25516
 C244 C 0.12511 0.85073 -0.34821
 C245 C 0.13829 0.82700 -0.21902
 C246 C 0.13925 0.80673 -0.31272
 C247 C 0.18910 0.80877 -0.36767
 C248 C 0.20767 0.79092 -0.40400
 C249 C 0.10147 0.89274 -0.21447
 C250 C 0.08271 0.91091 -0.17973
 H251 H 0.15608 0.93124 -0.25093
 H252 H 0.18238 0.85049 -0.18704
 H253 H 0.15840 0.89369 -0.42255
 H254 H 0.10827 0.85099 -0.39493
 H255 H 0.13223 0.80771 -0.15942
 H256 H 0.13456 0.77026 -0.33103
 C257 C 0.36218 0.67580 -0.22175
 C258 C 0.36104 0.69498 -0.31630
 C259 C 0.33401 0.67114 -0.32843
 C260 C 0.33479 0.65228 -0.23459
 C261 C 0.37567 0.63153 -0.25639
 C262 C 0.34864 0.60767 -0.26860
 C263 C 0.37488 0.65037 -0.35027
 C264 C 0.34750 0.62686 -0.36310
 C265 C 0.31097 0.69298 -0.36984
 C266 C 0.29233 0.71056 -0.40652
 C267 C 0.39874 0.60940 -0.21555
 C268 C 0.41749 0.59108 -0.18087
 H269 H 0.36849 0.69571 -0.16320
 H270 H 0.36586 0.73115 -0.33632
 H271 H 0.31807 0.65333 -0.18746
 H272 H 0.34381 0.57149 -0.24867
 H273 H 0.39158 0.64932 -0.39747
 H274 H 0.34119 0.60702 -0.42175
 C275 C -0.14315 1.17343 -0.20159
 C276 C -0.14217 1.20311 -0.28612
 C277 C -0.16600 1.17565 -0.32155
 C278 C -0.16735 1.14631 -0.23778
 C279 C -0.12465 1.13774 -0.24484
 C280 C -0.14848 1.11032 -0.28034
 C281 C -0.12330 1.16707 -0.32865
 C282 C -0.14747 1.13997 -0.36476
 C283 C -0.18890 1.19620 -0.36576
 C284 C -0.20750 1.21257 -0.40439
 C285 C -0.10176 1.11596 -0.20255
 C286 C -0.08313 1.09726 -0.16808
 H287 H -0.14108 1.18694 -0.13401
 H288 H -0.13988 1.24151 -0.28897
 H289 H -0.18571 1.13804 -0.20090
 H290 H -0.15079 1.07191 -0.27750
 H291 H -0.10495 1.17534 -0.36558
 H292 H -0.14952 1.12650 -0.43237
 C293 C 0.62425 0.65700 -0.34073
 C294 C 0.63984 0.69949 -0.30544
 C295 C 0.66592 0.67400 -0.32558
 C296 C 0.65067 0.63186 -0.36158
 C297 C 0.62475 0.63556 -0.24880
 C298 C 0.65083 0.61007 -0.26904
 C299 C 0.63999 0.67769 -0.21280
 C300 C 0.66643 0.65254 -0.23371
 C301 C 0.68871 0.69502 -0.36956
 C302 C 0.70722 0.71187 -0.40790
 C303 C 0.60195 0.61371 -0.20618
 C304 C 0.58334 0.59512 -0.17132
 H305 H 0.60668 0.65859 -0.38434
 H306 H 0.63562 0.73651 -0.32090
 H307 H 0.65535 0.61329 -0.42327
 H308 H 0.65506 0.57303 -0.25367
 H309 H 0.63531 0.69628 -0.15115
 H310 H 0.68403 0.65094 -0.19024
 C311 C 0.13878 1.17530 -0.21898
 C312 C 0.16571 1.15093 -0.23602
 C313 C 0.16592 1.17152 -0.32858
 C314 C 0.13934 1.19620 -0.31228
 C315 C 0.12439 1.13227 -0.25513
 C316 C 0.12460 1.15283 -0.34777
 C317 C 0.15097 1.10756 -0.27155
 C318 C 0.15153 1.12848 -0.36481
 C319 C 0.18889 1.19321 -0.37060
 C320 C 0.20746 1.21067 -0.40782
 C321 C 0.10140 1.11043 -0.21332
 C322 C 0.08269 1.09239 -0.17795
 H323 H 0.13326 1.19433 -0.15857
 H324 H 0.18285 1.15041 -0.19052
 H325 H 0.13483 1.23291 -0.32944
 H326 H 0.10750 1.15334 -0.39341
 H327 H 0.15548 1.07084 -0.25452
 H328 H 0.15704 1.10952 -0.42534
 C329 C 0.34798 0.39116 -0.26234
 C330 C 0.34594 0.37624 -0.35932
 C331 C 0.33400 0.32958 -0.32996
 C332 C 0.33567 0.34416 -0.23365
 C333 C 0.37566 0.36892 -0.25790
 C334 C 0.36372 0.32226 -0.22859
 C335 C 0.37398 0.35435 -0.35425
 C336 C 0.36168 0.30735 -0.32560
 C337 C 0.31095 0.30784 -0.37116
 C338 C 0.29229 0.29024 -0.40744
 C339 C 0.39871 0.39087 -0.21701
 C340 C 0.41746 0.40902 -0.18220
 H341 H 0.34264 0.42592 -0.23599
 H342 H 0.33834 0.39814 -0.41359
 H343 H 0.31967 0.33971 -0.18456
 H344 H 0.37132 0.30030 -0.17440
 H345 H 0.38998 0.35879 -0.40339
 H346 H 0.36702 0.27262 -0.35207
 C347 C -0.15094 0.89084 -0.26766
 C348 C -0.15104 0.87011 -0.36104
 C349 C -0.16578 0.82717 -0.32599
 C350 C -0.16603 0.84757 -0.23327
 C351 C -0.12455 0.86582 -0.24968
 C352 C -0.13928 0.82288 -0.21464
 C353 C -0.12431 0.84544 -0.34246
 C354 C -0.13940 0.80215 -0.30810
 C355 C -0.18866 0.80593 -0.36943
 C356 C -0.20726 0.78880 -0.40695
 C357 C -0.10172 0.88773 -0.20703
 C358 C -0.08312 0.90626 -0.17192
 H359 H -0.15542 0.92757 -0.25065
 H360 H -0.15615 0.88929 -0.42174
 H361 H -0.18343 0.84822 -0.18884
 H362 H -0.13418 0.80369 -0.15399
 H363 H -0.10694 0.84480 -0.38701
 H364 H -0.13492 0.76543 -0.32519
 C365 C 0.37656 0.67744 0.30229
 C366 C 0.35071 0.69122 0.25403
 C367 C 0.33454 0.66962 0.32875
 C368 C 0.36003 0.65620 0.37769
 C369 C 0.37599 0.63010 0.25573
 C370 C 0.35981 0.60852 0.33051
 C371 C 0.35049 0.64352 0.20682
 C372 C 0.33396 0.62227 0.28226
 C373 C 0.31164 0.69142 0.37067
 C374 C 0.29313 0.70905 0.40769
 C375 C 0.39893 0.60806 0.21435
 C376 C 0.41760 0.58986 0.17920
 H377 H 0.39435 0.69982 0.31018
 H378 H 0.34668 0.72544 0.22308
 H379 H 0.36364 0.66179 0.44842
 H380 H 0.36383 0.57431 0.36158
 H381 H 0.34685 0.63804 0.13606
 H382 H 0.31617 0.59990 0.27442
 C383 C -0.13617 1.18396 0.22831
 C384 C -0.16449 1.16294 0.23006
 C385 C -0.16609 1.17341 0.32829
 C386 C -0.13814 1.19475 0.32729
 C387 C -0.12479 1.13577 0.25054
 C388 C -0.12641 1.14624 0.34881
 C389 C -0.15274 1.11443 0.25160
 C390 C -0.15469 1.12523 0.35050
 C391 C -0.18895 1.19413 0.37272
 C392 C -0.20753 1.21092 0.41101
 C393 C -0.10187 1.11429 0.20756
 C394 C -0.08318 1.09596 0.17254
 H395 H -0.12831 1.20788 0.17759
 H396 H -0.18040 1.17002 0.18175
 H397 H -0.13241 1.22802 0.35896
 H398 H -0.11053 1.13917 0.39726
 H399 H -0.15848 1.08116 0.22000
 H400 H -0.16257 1.10130 0.40119
 C401 C 0.62339 0.31645 0.29709
 C402 C 0.64928 0.30104 0.25077
 C403 C 0.66541 0.32430 0.32380
 C404 C 0.63989 0.33935 0.37083
 C405 C 0.62431 0.36251 0.24617
 C406 C 0.64046 0.38573 0.31927
 C407 C 0.64983 0.34746 0.19916
 C408 C 0.66632 0.37036 0.27294
 C409 C 0.68821 0.30352 0.36820
 C410 C 0.70678 0.28695 0.40669
 C411 C 0.60156 0.38436 0.20325
 C412 C 0.58298 0.40301 0.16833
 H413 H 0.60547 0.29457 0.30657
 H414 H 0.65319 0.26599 0.22312
 H415 H 0.63608 0.33573 0.44194
 H416 H 0.63656 0.42077 0.34699
 H417 H 0.65364 0.35104 0.12805
 H418 H 0.68423 0.39227 0.26349
 C419 C 0.12370 0.82160 0.30338
 C420 C 0.14960 0.80809 0.25510
 C421 C 0.16573 0.82957 0.33002
 C422 C 0.14019 0.84274 0.37899
 C423 C 0.12418 0.86907 0.25713
 C424 C 0.14031 0.89054 0.33213
 C425 C 0.14972 0.85590 0.20822
 C426 C 0.16620 0.87705 0.28385
 C427 C 0.18873 0.80779 0.37176
 C428 C 0.20736 0.79024 0.40844
 C429 C 0.10118 0.89111 0.21573
 C430 C 0.08248 0.90936 0.18061
 H431 H 0.10596 0.79908 0.31111
 H432 H 0.15368 0.77397 0.22387
 H433 H 0.13657 0.83698 0.44968
 H434 H 0.13625 0.92464 0.36347
 H435 H 0.15338 0.86157 0.13751
 H436 H 0.18394 0.89957 0.27618
   
