data_POSCAR
  _audit_creation_date              2014-09-24
  _audit_creation_method            'ToBaCCo'
  _symmetry_space_group_name_H-M    'P1'
  _symmetry_Int_Tables_number       1
  _symmetry_cell_setting            triclinic
  loop_
  _symmetry_equiv_pos_as_xyz
 x,y,z
_cell_length_a 50.3039
_cell_length_b 50.2710
_cell_length_c 50.2995
_cell_angle_alpha 90.019600
_cell_angle_beta 90.015700
_cell_angle_gamma 90.022900
loop_
  _atom_site_label
  _atom_site_type_symbol
  _atom_site_fract_x
  _atom_site_fract_y
  _atom_site_fract_z
O1 O 0.35378 0.39098 0.02548
 O2 O 0.39043 0.35452 -0.02642
 O3 O 0.35358 0.39105 -0.02632
 O4 O 0.39048 0.35433 0.02539
 O5 O 0.35942 0.32318 0.02529
 O6 O 0.32263 0.35981 -0.02628
 O7 O 0.35938 0.32336 -0.02639
 O8 O 0.32281 0.35974 0.02540
 Cu9 Cu 0.37521 0.37587 -0.00047
 Cu10 Cu 0.33794 0.33838 -0.00050
 C11 C 0.33208 0.38150 0.03415
 C12 C 0.38108 0.33275 -0.03512
 C13 C 0.33183 0.38163 -0.03498
 C14 C 0.38116 0.33252 0.03403
 O15 O 0.64622 0.60899 0.02536
 O16 O 0.60959 0.64550 -0.02651
 O17 O 0.64637 0.60889 -0.02645
 O18 O 0.60958 0.64570 0.02529
 O19 O 0.64070 0.67679 0.02519
 O20 O 0.67738 0.64008 -0.02640
 O21 O 0.64070 0.67660 -0.02648
 O22 O 0.67725 0.64018 0.02528
 Cu23 Cu 0.62480 0.62412 -0.00058
 Cu24 Cu 0.66214 0.66154 -0.00061
 C25 C 0.66794 0.61843 0.03404
 C26 C 0.61896 0.66725 -0.03519
 C27 C 0.66813 0.61827 -0.03511
 C28 C 0.61895 0.66750 0.03393
 O29 O 0.64600 0.39133 0.97466
 O30 O 0.60932 0.35476 1.02646
 O31 O 0.64610 0.39138 1.02646
 O32 O 0.60930 0.35465 0.97466
 O33 O 0.64039 0.32355 0.97473
 O34 O 0.67708 0.36018 1.02640
 O35 O 0.64040 0.32365 1.02641
 O36 O 0.67699 0.36013 0.97473
 Cu37 Cu 0.62454 0.37618 1.00056
 Cu38 Cu 0.66184 0.33875 1.00057
 C39 C 0.66772 0.38189 0.96599
 C40 C 0.61867 0.33299 1.03513
 C41 C 0.66785 0.38197 1.03513
 C42 C 0.61865 0.33287 0.96599
 O43 O 0.39035 0.64565 1.02663
 O44 O 0.35361 0.60903 0.97484
 O45 O 0.39030 0.64573 0.97483
 O46 O 0.35355 0.60902 1.02665
 O47 O 0.32257 0.64021 1.02661
 O48 O 0.35922 0.67682 0.97492
 O49 O 0.32261 0.64022 0.97492
 O50 O 0.35927 0.67676 1.02659
 Cu51 Cu 0.37509 0.62421 1.00074
 Cu52 Cu 0.33779 0.66164 1.00077
 C53 C 0.38101 0.66743 1.03529
 C54 C 0.33188 0.61846 0.96619
 C55 C 0.38095 0.66751 0.96616
 C56 C 0.33181 0.61842 1.03533
 O57 O -0.02632 0.39040 0.35399
 O58 O 0.02551 0.35396 0.39072
 O59 O 0.02548 0.39060 0.35399
 O60 O -0.02628 0.35362 0.39057
 O61 O -0.02603 0.32258 0.35941
 O62 O 0.02559 0.35946 0.32293
 O63 O 0.02564 0.32290 0.35956
 O64 O -0.02609 0.35926 0.32291
 Cu65 Cu -0.00042 0.37530 0.37546
 Cu66 Cu -0.00020 0.33792 0.33807
 C67 C -0.03491 0.38098 0.33222
 C68 C 0.03427 0.33223 0.38134
 C69 C 0.03423 0.38126 0.33224
 C70 C -0.03484 0.33181 0.38116
 O71 O 0.02570 0.64573 0.60913
 O72 O -0.02622 0.60939 0.64586
 O73 O -0.02610 0.64610 0.60921
 O74 O 0.02557 0.60914 0.64593
 O75 O 0.02571 0.64035 0.67693
 O76 O -0.02582 0.67720 0.64031
 O77 O -0.02596 0.64059 0.67688
 O78 O 0.02585 0.67685 0.64023
 Cu79 Cu -0.00028 0.62444 0.62439
 Cu80 Cu -0.00003 0.66188 0.66171
 C81 C 0.03449 0.66746 0.61849
 C82 C -0.03481 0.61886 0.66761
 C83 C -0.03465 0.66793 0.61857
 C84 C 0.03431 0.61851 0.66768
 O85 O 1.02618 0.60925 0.35426
 O86 O 0.97441 0.64576 0.39102
 O87 O 0.97438 0.60912 0.35426
 O88 O 1.02620 0.64597 0.39090
 O89 O 1.02600 0.67704 0.35979
 O90 O 0.97432 0.64028 0.32324
 O91 O 0.97434 0.67684 0.35990
 O92 O 1.02599 0.64041 0.32323
 Cu93 Cu 1.00030 0.62437 0.37575
 Cu94 Cu 1.00015 0.66177 0.33841
 C95 C 1.03479 0.61868 0.33251
 C96 C 0.96569 0.66750 0.38166
 C97 C 0.96565 0.61849 0.33252
 C98 C 1.03481 0.66777 0.38152
 O99 O 0.97412 0.35392 0.60901
 O100 O 1.02593 0.39036 0.64589
 O101 O 1.02592 0.35366 0.60920
 O102 O 0.97413 0.39053 0.64582
 O103 O 0.97399 0.35933 0.67681
 O104 O 1.02564 0.32256 0.64028
 O105 O 1.02567 0.35916 0.67688
 O106 O 0.97397 0.32281 0.64009
 Cu107 Cu 1.00004 0.37527 0.62434
 Cu108 Cu 0.99979 0.33783 0.66164
 C109 C 0.96535 0.33217 0.61833
 C110 C 1.03450 0.38090 0.66764
 C111 C 1.03448 0.33184 0.61856
 C112 C 0.96537 0.38115 0.66755
 O113 O 0.39054 0.02623 0.35444
 O114 O 0.35397 -0.02582 0.39083
 O115 O 0.39070 -0.02560 0.35422
 O116 O 0.35377 0.02601 0.39103
 O117 O 0.32279 0.02595 0.35983
 O118 O 0.35963 -0.02554 0.32310
 O119 O 0.32299 -0.02576 0.35962
 O120 O 0.35946 0.02616 0.32333
 Cu121 Cu 0.37538 0.00021 0.37579
 Cu122 Cu 0.33809 0.00020 0.33834
 C123 C 0.38117 0.03492 0.33270
 C124 C 0.33227 -0.03453 0.38136
 C125 C 0.38140 -0.03424 0.33241
 C126 C 0.33201 0.03465 0.38164
 O127 O 0.60932 0.02607 0.64567
 O128 O 0.64593 -0.02597 0.60929
 O129 O 0.60922 -0.02577 0.64593
 O130 O 0.64604 0.02586 0.60903
 O131 O 0.67706 0.02591 0.64020
 O132 O 0.64031 -0.02560 0.67702
 O133 O 0.67694 -0.02579 0.64048
 O134 O 0.64043 0.02612 0.67675
 Cu135 Cu 0.62448 0.00004 0.62433
 Cu136 Cu 0.66181 0.00017 0.66175
 C137 C 0.61871 0.03483 0.66739
 C138 C 0.66765 -0.03461 0.61875
 C139 C 0.61856 -0.03436 0.66773
 C140 C 0.66781 0.03455 0.61839
 O141 O 0.39055 0.97393 0.64569
 O142 O 0.35392 1.02584 0.60918
 O143 O 0.39064 1.02576 0.64581
 O144 O 0.35384 0.97401 0.60904
 O145 O 0.32283 0.97403 0.64019
 O146 O 0.35955 1.02567 0.67689
 O147 O 0.32292 1.02574 0.64035
 O148 O 0.35945 0.97397 0.67676
 Cu149 Cu 0.37538 0.99989 0.62428
 Cu150 Cu 0.33806 0.99985 0.66168
 C151 C 0.38117 0.96524 0.66743
 C152 C 0.33220 1.03451 0.61862
 C153 C 0.38130 1.03442 0.66759
 C154 C 0.33209 0.96533 0.61841
 O155 O 0.64684 1.02629 0.39074
 O156 O 0.61014 0.97433 0.35427
 O157 O 0.64689 0.97445 0.39090
 O158 O 0.61007 1.02616 0.35414
 O159 O 0.64113 1.02606 0.32303
 O160 O 0.67787 0.97446 0.35972
 O161 O 0.64121 0.97435 0.32317
 O162 O 0.67781 1.02618 0.35955
 Cu163 Cu 0.62535 1.00031 0.37566
 Cu164 Cu 0.66263 1.00026 0.33823
 C165 C 0.66856 1.03496 0.38129
 C166 C 0.61949 0.96562 0.33252
 C167 C 0.66864 0.96578 0.38151
 C168 C 0.61938 1.03479 0.33234
 C169 C 0.82073 0.78586 0.48682
 C170 C 0.82072 0.78579 0.51483
 C171 C 0.80350 0.80273 0.52868
 C172 C 0.78654 0.81995 0.51482
 C173 C 0.78661 0.82007 0.48682
 C174 C 0.80361 0.80290 0.47297
 H175 H 0.80388 0.80318 0.45141
 H176 H 0.80367 0.80290 0.55024
 C177 C 0.17936 0.21426 0.48675
 C178 C 0.17933 0.21430 0.51475
 C179 C 0.19655 0.19735 0.52860
 C180 C 0.21355 0.18018 0.51475
 C181 C 0.21353 0.18010 0.48674
 C182 C 0.19654 0.19727 0.47290
 H183 H 0.19630 0.19702 0.45133
 H184 H 0.19634 0.19715 0.55017
 C185 C 0.17994 0.78522 0.51327
 C186 C 0.17984 0.78526 0.48527
 C187 C 0.19700 0.80227 0.47142
 C188 C 0.21401 0.81944 0.48528
 C189 C 0.21408 0.81944 0.51328
 C190 C 0.19715 0.80221 0.52713
 H191 H 0.19696 0.80241 0.54869
 H192 H 0.19672 0.80253 0.44986
 C193 C 0.82045 0.21384 0.51278
 C194 C 0.82052 0.21380 0.48477
 C195 C 0.80336 0.19678 0.47092
 C196 C 0.78635 0.17961 0.48478
 C197 C 0.78629 0.17963 0.51278
 C198 C 0.80325 0.19686 0.52662
 H199 H 0.80344 0.19668 0.54819
 H200 H 0.80361 0.19652 0.44936
 C201 C 0.48556 0.81983 0.78596
 C202 C 0.51356 0.81984 0.78588
 C203 C 0.52743 0.80262 0.80279
 C204 C 0.51360 0.78563 0.82000
 C205 C 0.48560 0.78567 0.82014
 C206 C 0.47173 0.80266 0.80299
 H207 H 0.45017 0.80291 0.80328
 H208 H 0.54899 0.80281 0.80295
 C209 C 0.48583 0.18032 0.21433
 C210 C 0.51383 0.18031 0.21436
 C211 C 0.52766 0.19751 0.19739
 C212 C 0.51381 0.21448 0.18020
 C213 C 0.48581 0.21446 0.18013
 C214 C 0.47197 0.19747 0.19732
 H215 H 0.45040 0.19723 0.19707
 H216 H 0.54923 0.19731 0.19719
 C217 C 0.51428 0.18059 0.78550
 C218 C 0.48628 0.18053 0.78546
 C219 C 0.47241 0.19772 0.80240
 C220 C 0.48623 0.21474 0.81959
 C221 C 0.51423 0.21477 0.81968
 C222 C 0.52811 0.19780 0.80251
 H223 H 0.54967 0.19759 0.80277
 H224 H 0.45084 0.19748 0.80259
 C225 C 0.51467 0.82029 0.21399
 C226 C 0.48667 0.82034 0.21405
 C227 C 0.47278 0.80313 0.19711
 C228 C 0.48658 0.78612 0.17990
 C229 C 0.51458 0.78611 0.17980
 C230 C 0.52848 0.80310 0.19696
 H231 H 0.55004 0.80331 0.19669
 H232 H 0.45122 0.80335 0.19694
 C233 C 0.78581 0.48622 0.82021
 C234 C 0.78579 0.51424 0.82028
 C235 C 0.80274 0.52811 0.80309
 C236 C 0.81989 0.51426 0.78607
 C237 C 0.81994 0.48624 0.78602
 C238 C 0.80277 0.47237 0.80300
 H239 H 0.80300 0.45080 0.80321
 H240 H 0.80296 0.54969 0.80333
 C241 C 0.21414 0.48615 0.17984
 C242 C 0.21424 0.51417 0.17984
 C243 C 0.19732 0.52804 0.19706
 C244 C 0.18012 0.51420 0.21404
 C245 C 0.18000 0.48618 0.21402
 C246 C 0.19713 0.47230 0.19701
 H247 H 0.19685 0.45073 0.19676
 H248 H 0.19715 0.54962 0.19686
 C249 C 0.78562 0.51387 0.17999
 C250 C 0.78553 0.48586 0.17991
 C251 C 0.80246 0.47195 0.19708
 C252 C 0.81967 0.48576 0.21410
 C253 C 0.81977 0.51378 0.21416
 C254 C 0.80262 0.52768 0.19720
 H255 H 0.80290 0.54926 0.19700
 H256 H 0.80264 0.45037 0.19682
 C257 C 0.21370 0.51361 0.82066
 C258 C 0.21380 0.48559 0.82068
 C259 C 0.19688 0.47168 0.80346
 C260 C 0.17968 0.48549 0.78645
 C261 C 0.17957 0.51351 0.78644
 C262 C 0.19670 0.52742 0.80345
 H263 H 0.19642 0.54899 0.80368
 H264 H 0.19672 0.45010 0.80368
 C265 C 0.28898 0.42138 0.09075
 C266 C 0.28754 0.40683 0.11754
 C267 C 0.27254 0.41970 0.13607
 C268 C 0.26047 0.44584 0.12597
 C269 C 0.24494 0.43822 0.10082
 C270 C 0.25993 0.42536 0.08231
 C271 C 0.29920 0.44938 0.09743
 C272 C 0.28420 0.46225 0.11597
 C273 C 0.30490 0.40742 0.07073
 C274 C 0.31755 0.39571 0.05411
 C275 C 0.24419 0.45970 0.14573
 C276 C 0.23058 0.47143 0.16154
 H277 H 0.29746 0.38809 0.12161
 H278 H 0.26959 0.41199 0.15601
 H279 H 0.22402 0.44257 0.09781
 H280 H 0.25185 0.41869 0.06343
 H281 H 0.31667 0.45830 0.08842
 H282 H 0.28882 0.48220 0.12286
 C283 C 0.71093 0.57860 0.09075
 C284 C 0.69705 0.57581 0.11779
 C285 C 0.71201 0.56296 0.13638
 C286 C 0.73936 0.55419 0.12607
 C287 C 0.75237 0.57964 0.11540
 C288 C 0.73743 0.59248 0.09684
 C289 C 0.71851 0.55013 0.08275
 C290 C 0.73346 0.53729 0.10133
 C291 C 0.69505 0.59254 0.07068
 C292 C 0.68244 0.60424 0.05403
 C293 C 0.75559 0.54035 0.14588
 C294 C 0.76918 0.52861 0.16171
 H295 H 0.67722 0.58324 0.12195
 H296 H 0.70501 0.55936 0.15647
 H297 H 0.77163 0.58696 0.12188
 H298 H 0.74388 0.61079 0.08740
 H299 H 0.71263 0.54085 0.06416
 H300 H 0.74043 0.51702 0.09864
 C301 C 0.71084 0.42169 0.90936
 C302 C 0.71906 0.44991 0.91765
 C303 C 0.73408 0.46271 0.89910
 C304 C 0.73939 0.44602 0.87409
 C305 C 0.71177 0.43791 0.86393
 C306 C 0.69674 0.42510 0.88250
 C307 C 0.73699 0.40740 0.90283
 C308 C 0.75200 0.42019 0.88429
 C309 C 0.69490 0.40779 0.92940
 C310 C 0.68224 0.39610 0.94603
 C311 C 0.75569 0.45982 0.85430
 C312 C 0.76933 0.47152 0.83848
 H313 H 0.71354 0.45905 0.93642
 H314 H 0.74146 0.48281 0.90198
 H315 H 0.70464 0.44190 0.84396
 H316 H 0.67673 0.41810 0.87843
 H317 H 0.74318 0.38884 0.91197
 H318 H 0.77104 0.41260 0.87753
 C319 C 0.28868 0.57847 0.90967
 C320 C 0.28630 0.59354 0.88323
 C321 C 0.27127 0.58065 0.86472
 C322 C 0.26010 0.55398 0.87449
 C323 C 0.24491 0.56063 0.90009
 C324 C 0.25993 0.57351 0.91858
 C325 C 0.29950 0.55092 0.90218
 C326 C 0.28447 0.53803 0.88366
 C327 C 0.30464 0.59246 0.92966
 C328 C 0.31732 0.60421 0.94626
 C329 C 0.24379 0.54010 0.85475
 C330 C 0.23016 0.52835 0.83894
 H331 H 0.29563 0.61263 0.87937
 H332 H 0.26770 0.58870 0.84501
 H333 H 0.22418 0.55563 0.90342
 H334 H 0.25207 0.57955 0.93775
 H335 H 0.31738 0.54230 0.91066
 H336 H 0.28946 0.51837 0.87626
 C337 C 0.09063 0.28921 0.42161
 C338 C 0.09793 0.30005 0.44920
 C339 C 0.11638 0.28504 0.46219
 C340 C 0.12568 0.26068 0.44630
 C341 C 0.13561 0.27187 0.41971
 C342 C 0.11717 0.28687 0.40672
 C343 C 0.08172 0.26042 0.42649
 C344 C 0.10014 0.24543 0.43948
 C345 C 0.07072 0.30513 0.40751
 C346 C 0.05417 0.31775 0.39568
 C347 C 0.14535 0.24439 0.46027
 C348 C 0.16111 0.23075 0.47205
 H349 H 0.08937 0.31792 0.45777
 H350 H 0.12364 0.29006 0.48190
 H351 H 0.15537 0.26834 0.41180
 H352 H 0.12114 0.29621 0.38767
 H353 H 0.06260 0.25251 0.42033
 H354 H 0.09680 0.22468 0.44444
 C355 C 0.09103 0.71035 0.57829
 C356 C 0.11771 0.69605 0.57437
 C357 C 0.13621 0.71102 0.56140
 C358 C 0.12620 0.73880 0.55367
 C359 C 0.11650 0.75132 0.57974
 C360 C 0.09801 0.73636 0.59269
 C361 C 0.08240 0.71886 0.55029
 C362 C 0.10089 0.73382 0.53734
 C363 C 0.07105 0.69448 0.59236
 C364 C 0.05444 0.68189 0.60417
 C365 C 0.14592 0.75506 0.53974
 C366 C 0.16170 0.76870 0.52797
 H367 H 0.12169 0.67593 0.58113
 H368 H 0.15606 0.70375 0.55705
 H369 H 0.12354 0.77026 0.58738
 H370 H 0.08921 0.74249 0.61142
 H371 H 0.06345 0.71356 0.54139
 H372 H 0.09778 0.74137 0.51735
 C373 C 0.90939 0.71067 0.42186
 C374 C 0.91888 0.73904 0.42794
 C375 C 0.90047 0.75410 0.44088
 C376 C 0.87437 0.73932 0.44646
 C377 C 0.88259 0.71423 0.46181
 C378 C 0.90102 0.69915 0.44886
 C379 C 0.88336 0.71417 0.40630
 C380 C 0.86494 0.72924 0.41924
 C381 C 0.92928 0.69469 0.40781
 C382 C 0.94582 0.68202 0.39600
 C383 C 0.85472 0.75567 0.46038
 C384 C 0.83898 0.76935 0.47213
 H385 H 0.93837 0.74663 0.42260
 H386 H 0.90420 0.77459 0.44663
 H387 H 0.87465 0.70880 0.48113
 H388 H 0.90889 0.68081 0.45709
 H389 H 0.87971 0.70554 0.38685
 H390 H 0.84551 0.73353 0.41089
 C391 C 0.90905 0.28906 0.57796
 C392 C 0.88245 0.28681 0.59276
 C393 C 0.86404 0.27175 0.57976
 C394 C 0.87405 0.26044 0.55325
 C395 C 0.89954 0.24520 0.56023
 C396 C 0.91793 0.26024 0.57322
 C397 C 0.90187 0.29978 0.55030
 C398 C 0.88344 0.28472 0.53730
 C399 C 0.92894 0.30503 0.59208
 C400 C 0.94548 0.31768 0.60394
 C401 C 0.85440 0.24409 0.53927
 C402 C 0.83867 0.23040 0.52749
 H403 H 0.87842 0.29623 0.61176
 H404 H 0.84424 0.26827 0.58761
 H405 H 0.90287 0.22443 0.55535
 H406 H 0.93702 0.25235 0.57948
 H407 H 0.91048 0.31761 0.54169
 H408 H 0.87626 0.28966 0.51755
 C409 C 0.42113 0.09147 0.28958
 C410 C 0.44916 0.09809 0.29969
 C411 C 0.46203 0.11658 0.28461
 C412 C 0.44558 0.12659 0.26092
 C413 C 0.41953 0.13680 0.27308
 C414 C 0.40667 0.11832 0.28816
 C415 C 0.42497 0.08298 0.26052
 C416 C 0.43783 0.10144 0.24546
 C417 C 0.40716 0.07150 0.30557
 C418 C 0.39542 0.05489 0.31822
 C419 C 0.45943 0.14630 0.24455
 C420 C 0.47115 0.16207 0.23087
 H421 H 0.45811 0.08907 0.31714
 H422 H 0.48200 0.12342 0.28915
 H423 H 0.41188 0.15677 0.27013
 H424 H 0.38799 0.12247 0.29813
 H425 H 0.41822 0.06410 0.25249
 H426 H 0.44210 0.09838 0.22453
 C427 C 0.57884 0.09150 0.71043
 C428 C 0.59363 0.11816 0.71224
 C429 C 0.58082 0.13670 0.72729
 C430 C 0.55448 0.12674 0.73903
 C431 C 0.56170 0.10138 0.75440
 C432 C 0.57451 0.08286 0.73937
 C433 C 0.55103 0.09854 0.70000
 C434 C 0.53821 0.11708 0.71505
 C435 C 0.59276 0.07147 0.69447
 C436 C 0.60447 0.05482 0.68184
 C437 C 0.54068 0.14650 0.75536
 C438 C 0.52898 0.16231 0.76901
 H439 H 0.61250 0.12214 0.70253
 H440 H 0.58869 0.15655 0.73048
 H441 H 0.55711 0.09824 0.77525
 H442 H 0.58090 0.06385 0.74735
 H443 H 0.54219 0.08974 0.68238
 H444 H 0.51839 0.12420 0.71031
 C445 C 0.42104 0.90872 0.71065
 C446 C 0.44878 0.90152 0.70018
 C447 C 0.46159 0.88302 0.71529
 C448 C 0.44538 0.87358 0.73937
 C449 C 0.41896 0.86364 0.72777
 C450 C 0.40616 0.88213 0.71266
 C451 C 0.42551 0.91752 0.73953
 C452 C 0.43831 0.89905 0.75462
 C453 C 0.40713 0.92870 0.69463
 C454 C 0.39542 0.94530 0.68194
 C455 C 0.45917 0.85386 0.75576
 C456 C 0.47086 0.83808 0.76945
 H457 H 0.45759 0.91018 0.68247
 H458 H 0.48137 0.87581 0.71053
 H459 H 0.41103 0.84383 0.73110
 H460 H 0.38724 0.87816 0.70304
 H461 H 0.41922 0.93661 0.74742
 H462 H 0.44299 0.90231 0.77544
 C463 C 0.57947 0.90912 0.28932
 C464 C 0.57520 0.91782 0.26038
 C465 C 0.56234 0.89937 0.24529
 C466 C 0.55500 0.87401 0.26060
 C467 C 0.53874 0.88367 0.28457
 C468 C 0.55162 0.90215 0.29968
 C469 C 0.59416 0.88241 0.28748
 C470 C 0.58128 0.86394 0.27237
 C471 C 0.59345 0.92908 0.30534
 C472 C 0.60520 0.94567 0.31802
 C473 C 0.54114 0.85431 0.24421
 C474 C 0.52940 0.83854 0.23051
 H475 H 0.58168 0.93683 0.25245
 H476 H 0.55779 0.90257 0.22444
 H477 H 0.51889 0.87661 0.28926
 H478 H 0.54279 0.91094 0.31730
 H479 H 0.61299 0.87836 0.29721
 H480 H 0.58908 0.84407 0.26915
 C481 C 0.42121 0.28972 0.90841
 C482 C 0.42540 0.26072 0.91696
 C483 C 0.43834 0.24573 0.89851
 C484 C 0.44581 0.26119 0.87329
 C485 C 0.46206 0.28510 0.88318
 C486 C 0.44911 0.30011 0.90166
 C487 C 0.40665 0.28805 0.88163
 C488 C 0.41960 0.27304 0.86315
 C489 C 0.40717 0.30565 0.92836
 C490 C 0.39538 0.31827 0.94495
 C491 C 0.45974 0.24489 0.85360
 C492 C 0.47151 0.23124 0.83783
 H493 H 0.41882 0.25268 0.93588
 H494 H 0.44284 0.22484 0.90161
 H495 H 0.48195 0.28982 0.87626
 H496 H 0.45792 0.31769 0.91059
 H497 H 0.38785 0.29782 0.87752
 H498 H 0.41189 0.26994 0.84323
 C499 C 0.57876 0.71041 0.90849
 C500 C 0.59293 0.73664 0.90194
 C501 C 0.57996 0.75169 0.88355
 C502 C 0.55409 0.73902 0.87350
 C503 C 0.53764 0.73358 0.89862
 C504 C 0.55061 0.71852 0.91702
 C505 C 0.57516 0.69638 0.88160
 C506 C 0.56217 0.71145 0.86319
 C507 C 0.59285 0.69444 0.92837
 C508 C 0.60466 0.68177 0.94491
 C509 C 0.54012 0.75537 0.85388
 C510 C 0.52833 0.76907 0.83817
 H511 H 0.61154 0.74286 0.91096
 H512 H 0.58745 0.77079 0.87680
 H513 H 0.51756 0.74089 0.90168
 H514 H 0.54165 0.71291 0.93584
 H515 H 0.58216 0.67639 0.87741
 H516 H 0.55803 0.70437 0.84322
 C517 C 0.42131 0.71074 0.09150
 C518 C 0.44898 0.70005 0.09868
 C519 C 0.46199 0.71516 0.11706
 C520 C 0.44603 0.73946 0.12642
 C521 C 0.41954 0.72814 0.13647
 C522 C 0.40654 0.71303 0.11810
 C523 C 0.42602 0.73954 0.08254
 C524 C 0.43902 0.75463 0.10090
 C525 C 0.40720 0.69471 0.07165
 C526 C 0.39536 0.68200 0.05515
 C527 C 0.46002 0.75585 0.14601
 C528 C 0.47183 0.76956 0.16171
 H529 H 0.45760 0.68221 0.09010
 H530 H 0.48175 0.71026 0.12424
 H531 H 0.41170 0.73166 0.15627
 H532 H 0.38755 0.70360 0.12217
 H533 H 0.41974 0.74738 0.06344
 H534 H 0.44388 0.77540 0.09752
 C535 C 0.57861 0.28978 0.09150
 C536 C 0.57438 0.26081 0.08282
 C537 C 0.56149 0.24574 0.10124
 C538 C 0.55410 0.26109 0.12655
 C539 C 0.53784 0.28504 0.11683
 C540 C 0.55074 0.30013 0.09838
 C541 C 0.59325 0.28800 0.11822
 C542 C 0.58035 0.27291 0.13666
 C543 C 0.59261 0.30578 0.07158
 C544 C 0.60438 0.31846 0.05502
 C545 C 0.54022 0.24472 0.14622
 C546 C 0.52849 0.23102 0.16197
 H547 H 0.58090 0.25284 0.06384
 H548 H 0.55696 0.22486 0.09805
 H549 H 0.51797 0.28973 0.12383
 H550 H 0.54192 0.31775 0.08955
 H551 H 0.61207 0.29776 0.12231
 H552 H 0.58812 0.26973 0.15655
 C553 C 0.28895 0.09115 0.57897
 C554 C 0.30294 0.11808 0.57559
 C555 C 0.28782 0.13663 0.56285
 C556 C 0.26022 0.12639 0.55478
 C557 C 0.24769 0.11609 0.58060
 C558 C 0.26279 0.09756 0.59332
 C559 C 0.28070 0.08288 0.55077
 C560 C 0.26559 0.10142 0.53805
 C561 C 0.30497 0.07112 0.59280
 C562 C 0.31767 0.05448 0.60444
 C563 C 0.24382 0.14616 0.54106
 C564 C 0.23011 0.16195 0.52941
 H565 H 0.32296 0.12221 0.58255
 H566 H 0.29488 0.15665 0.55888
 H567 H 0.22865 0.12277 0.58824
 H568 H 0.25667 0.08836 0.61186
 H569 H 0.28626 0.06414 0.54159
 H570 H 0.25818 0.09855 0.51797
 C571 C 0.71105 0.09052 0.42032
 C572 C 0.74000 0.08188 0.42454
 C573 C 0.75508 0.10039 0.43733
 C574 C 0.73975 0.12574 0.44464
 C575 C 0.71584 0.11607 0.46097
 C576 C 0.70074 0.09753 0.44818
 C577 C 0.71280 0.11719 0.40556
 C578 C 0.72790 0.13572 0.41835
 C579 C 0.69503 0.07050 0.40642
 C580 C 0.68234 0.05386 0.39473
 C581 C 0.75614 0.14550 0.45842
 C582 C 0.76983 0.16132 0.47010
 H583 H 0.74795 0.06287 0.41809
 H584 H 0.77596 0.09724 0.44184
 H585 H 0.71118 0.12317 0.48082
 H586 H 0.68315 0.08873 0.45706
 H587 H 0.70302 0.12118 0.38674
 H588 H 0.73107 0.15558 0.41050
 C589 C 0.71099 0.90880 0.57911
 C590 C 0.71506 0.91470 0.54945
 C591 C 0.73021 0.89621 0.53671
 C592 C 0.73979 0.87363 0.55490
 C593 C 0.71439 0.86211 0.56730
 C594 C 0.69924 0.88062 0.58006
 C595 C 0.73913 0.90605 0.59059
 C596 C 0.75427 0.88756 0.57786
 C597 C 0.69492 0.92879 0.59295
 C598 C 0.68220 0.94541 0.60459
 C599 C 0.75622 0.85391 0.54116
 C600 C 0.76996 0.83815 0.52950
 H601 H 0.70677 0.93189 0.53934
 H602 H 0.73493 0.89756 0.51569
 H603 H 0.70880 0.84128 0.56616
 H604 H 0.68066 0.87565 0.58984
 H605 H 0.74653 0.91761 0.60726
 H606 H 0.77462 0.88328 0.58362
 C607 C 0.28912 0.90871 0.42099
 C608 C 0.29918 0.90201 0.44902
 C609 C 0.28412 0.88343 0.46177
 C610 C 0.26049 0.87340 0.44522
 C611 C 0.27273 0.86333 0.41915
 C612 C 0.28779 0.88191 0.40641
 C613 C 0.26004 0.91710 0.42481
 C614 C 0.24499 0.89854 0.43756
 C615 C 0.30509 0.92877 0.40715
 C616 C 0.31776 0.94545 0.39551
 C617 C 0.24415 0.85360 0.45896
 C618 C 0.23049 0.83776 0.47062
 H619 H 0.31659 0.91105 0.45805
 H620 H 0.28863 0.87653 0.48172
 H621 H 0.26984 0.84338 0.41141
 H622 H 0.29782 0.87787 0.38773
 H623 H 0.25197 0.93598 0.41813
 H624 H 0.22404 0.90152 0.44179
 C625 C 0.09095 0.42074 0.71105
 C626 C 0.11880 0.40835 0.70944
 C627 C 0.13727 0.42120 0.72456
 C628 C 0.12605 0.44516 0.73979
 C629 C 0.10265 0.43406 0.75590
 C630 C 0.08420 0.42123 0.74080
 C631 C 0.09482 0.45003 0.70333
 C632 C 0.11329 0.46288 0.71845
 C633 C 0.07100 0.40680 0.69501
 C634 C 0.05442 0.39510 0.68227
 C635 C 0.14574 0.45900 0.75619
 C636 C 0.16149 0.47075 0.76990
 H637 H 0.12359 0.39104 0.69746
 H638 H 0.15789 0.41490 0.72555
 H639 H 0.10073 0.43612 0.77731
 H640 H 0.06647 0.41229 0.74927
 H641 H 0.08404 0.45981 0.68739
 H642 H 0.11837 0.48366 0.71544
 C643 C 0.09128 0.57885 0.28926
 C644 C 0.09799 0.55084 0.29941
 C645 C 0.11650 0.53801 0.28433
 C646 C 0.12643 0.55446 0.26061
 C647 C 0.13656 0.58059 0.27271
 C648 C 0.11807 0.59342 0.28779
 C649 C 0.08278 0.57490 0.26022
 C650 C 0.10125 0.56207 0.24516
 C651 C 0.07131 0.59277 0.30525
 C652 C 0.05471 0.60447 0.31794
 C653 C 0.14614 0.54063 0.24425
 C654 C 0.16191 0.52891 0.23057
 H655 H 0.08902 0.54189 0.31688
 H656 H 0.12340 0.51806 0.28890
 H657 H 0.15650 0.58831 0.26973
 H658 H 0.12216 0.61215 0.29773
 H659 H 0.06388 0.58157 0.25219
 H660 H 0.09819 0.55775 0.22423
 C661 C 0.90857 0.42088 0.28906
 C662 C 0.91749 0.42587 0.26032
 C663 C 0.89901 0.43875 0.24531
 C664 C 0.87340 0.44537 0.26051
 C665 C 0.88257 0.46131 0.28490
 C666 C 0.90108 0.44842 0.29992
 C667 C 0.88213 0.40580 0.28665
 C668 C 0.86363 0.41869 0.27163
 C669 C 0.92855 0.40690 0.30500
 C670 C 0.94515 0.39518 0.31767
 C671 C 0.85368 0.45925 0.24421
 C672 C 0.83790 0.47101 0.23058
 H673 H 0.93666 0.41985 0.25245
 H674 H 0.90234 0.44377 0.22459
 H675 H 0.87517 0.48097 0.28993
 H676 H 0.90956 0.45703 0.31782
 H677 H 0.87827 0.38669 0.29595
 H678 H 0.84392 0.41063 0.26805
 C679 C 0.90869 0.57902 0.71087
 C680 C 0.91722 0.57508 0.73990
 C681 C 0.89876 0.56222 0.75496
 C682 C 0.87358 0.55457 0.73952
 C683 C 0.88351 0.53815 0.71577
 C684 C 0.90199 0.55102 0.70069
 C685 C 0.88190 0.59356 0.71238
 C686 C 0.86342 0.58069 0.72745
 C687 C 0.92865 0.59298 0.69488
 C688 C 0.94525 0.60468 0.68218
 C689 C 0.85388 0.54071 0.75587
 C690 C 0.83812 0.52898 0.76955
 H691 H 0.93612 0.58176 0.74792
 H692 H 0.90185 0.55788 0.77588
 H693 H 0.87661 0.51819 0.71119
 H694 H 0.91095 0.54209 0.68321
 H695 H 0.87779 0.61229 0.70246
 H696 H 0.84349 0.58839 0.73046
 C697 C 0.71063 0.57893 0.90947
 C698 C 0.71271 0.59381 0.88289
 C699 C 0.72777 0.58095 0.86439
 C700 C 0.73927 0.55447 0.87427
 C701 C 0.71512 0.53834 0.88371
 C702 C 0.70006 0.55120 0.90223
 C703 C 0.73950 0.57434 0.91823
 C704 C 0.75454 0.56148 0.89975
 C705 C 0.69464 0.59293 0.92947
 C706 C 0.68194 0.60472 0.94606
 C707 C 0.75563 0.54061 0.85449
 C708 C 0.76929 0.52891 0.83865
 H709 H 0.70317 0.61278 0.87895
 H710 H 0.73112 0.58889 0.84460
 H711 H 0.71027 0.51857 0.87649
 H712 H 0.68233 0.54245 0.91087
 H713 H 0.74743 0.58060 0.93732
 H714 H 0.77534 0.55673 0.90300
 C715 C 0.28919 0.42093 0.90969
 C716 C 0.30301 0.42410 0.88266
 C717 C 0.28791 0.43697 0.86418
 C718 C 0.26047 0.44539 0.87455
 C719 C 0.26623 0.46213 0.89945
 C720 C 0.28132 0.44927 0.91792
 C721 C 0.26281 0.40686 0.90347
 C722 C 0.24773 0.41972 0.88501
 C723 C 0.30523 0.40693 0.92966
 C724 C 0.31796 0.39516 0.94622
 C725 C 0.24407 0.45925 0.85481
 C726 C 0.23037 0.47095 0.83900
 H727 H 0.32291 0.41691 0.87842
 H728 H 0.29488 0.44081 0.84412
 H729 H 0.25907 0.48230 0.90232
 H730 H 0.28712 0.45844 0.93658
 H731 H 0.25653 0.38841 0.91275
 H732 H 0.22854 0.41227 0.87849
 C733 C 0.28935 0.57904 0.09075
 C734 C 0.26346 0.59358 0.09780
 C735 C 0.24844 0.58067 0.11628
 C736 C 0.26077 0.55448 0.12593
 C737 C 0.28861 0.56203 0.13592
 C738 C 0.30364 0.57496 0.11742
 C739 C 0.28063 0.55109 0.08208
 C740 C 0.26561 0.53818 0.10057
 C741 C 0.30532 0.59309 0.07076
 C742 C 0.31800 0.60489 0.05417
 C743 C 0.24444 0.54057 0.14569
 C744 C 0.23077 0.52884 0.16151
 H745 H 0.25744 0.61238 0.08905
 H746 H 0.22958 0.58842 0.12336
 H747 H 0.29589 0.55759 0.15575
 H748 H 0.32379 0.58159 0.12140
 H749 H 0.28583 0.54219 0.06311
 H750 H 0.25792 0.51823 0.09742
 C751 C 0.71035 0.42125 0.09063
 C752 C 0.73906 0.42636 0.08167
 C753 C 0.75410 0.43921 0.10018
 C754 C 0.73898 0.44569 0.12587
 C755 C 0.72793 0.41893 0.13553
 C756 C 0.71287 0.40608 0.11700
 C757 C 0.69947 0.44873 0.09830
 C758 C 0.71452 0.46159 0.11684
 C759 C 0.69435 0.40726 0.07060
 C760 C 0.68167 0.39550 0.05399
 C761 C 0.75533 0.45954 0.14567
 C762 C 0.76900 0.47122 0.16153
 H763 H 0.74689 0.42045 0.06244
 H764 H 0.77480 0.44431 0.09680
 H765 H 0.73158 0.41080 0.15518
 H766 H 0.70363 0.38693 0.12080
 H767 H 0.68154 0.45734 0.08991
 H768 H 0.70948 0.48120 0.12434
 C769 C 0.90990 0.71052 0.57939
 C770 C 0.90468 0.73750 0.59272
 C771 C 0.88617 0.75255 0.57991
 C772 C 0.87466 0.73918 0.55501
 C773 C 0.86396 0.71225 0.56465
 C774 C 0.88249 0.69718 0.57748
 C775 C 0.91743 0.71726 0.55059
 C776 C 0.89891 0.73233 0.53778
 C777 C 0.92992 0.69451 0.59334
 C778 C 0.94652 0.68179 0.60508
 C779 C 0.85487 0.75555 0.54119
 C780 C 0.83903 0.76923 0.52950
 H781 H 0.91465 0.74419 0.61066
 H782 H 0.88029 0.77212 0.58688
 H783 H 0.84365 0.70560 0.56165
 H784 H 0.87805 0.67762 0.58546
 H785 H 0.93568 0.71076 0.54109
 H786 H 0.90132 0.73876 0.51731
 C787 C 0.90970 0.28914 0.42026
 C788 C 0.90355 0.26272 0.40622
 C789 C 0.88505 0.24764 0.41902
 C790 C 0.87448 0.26043 0.44462
 C791 C 0.86413 0.28787 0.43612
 C792 C 0.88266 0.30297 0.42330
 C793 C 0.91782 0.28132 0.44863
 C794 C 0.89931 0.26622 0.46143
 C795 C 0.92972 0.30519 0.40634
 C796 C 0.94632 0.31793 0.39462
 C797 C 0.85470 0.24403 0.45843
 C798 C 0.83886 0.23034 0.47011
 H799 H 0.91291 0.25642 0.38782
 H800 H 0.87856 0.22843 0.41158
 H801 H 0.84406 0.29483 0.43986
 H802 H 0.87844 0.32287 0.41607
 H803 H 0.93644 0.28714 0.45786
 H804 H 0.90210 0.25910 0.48162
 C805 C 0.09003 0.28936 0.57939
 C806 C 0.09616 0.26289 0.59332
 C807 C 0.11469 0.24788 0.58049
 C808 C 0.12531 0.26078 0.55497
 C809 C 0.13563 0.28820 0.56362
 C810 C 0.11708 0.30322 0.57647
 C811 C 0.08197 0.28164 0.55097
 C812 C 0.10051 0.26662 0.53813
 C813 C 0.06998 0.30533 0.59335
 C814 C 0.05335 0.31802 0.60508
 C815 C 0.14512 0.24446 0.54113
 C816 C 0.16098 0.23081 0.52943
 H817 H 0.08676 0.25650 0.61167
 H818 H 0.12117 0.22865 0.58785
 H819 H 0.15571 0.29520 0.55995
 H820 H 0.12127 0.32310 0.58381
 H821 H 0.06336 0.28748 0.54173
 H822 H 0.09777 0.25957 0.51791
 C823 C 0.09041 0.71024 0.42068
 C824 C 0.08195 0.73927 0.42484
 C825 C 0.10050 0.75428 0.43767
 C826 C 0.12573 0.73881 0.44508
 C827 C 0.13570 0.72685 0.41884
 C828 C 0.11713 0.71183 0.40601
 C829 C 0.09729 0.69994 0.44858
 C830 C 0.11587 0.71497 0.46142
 C831 C 0.07034 0.69427 0.40673
 C832 C 0.05369 0.68159 0.39500
 C833 C 0.14556 0.75514 0.45891
 C834 C 0.16145 0.76877 0.47060
 H835 H 0.06301 0.74733 0.41833
 H836 H 0.09745 0.77519 0.44213
 H837 H 0.15559 0.72989 0.41104
 H838 H 0.12112 0.70199 0.38722
 H839 H 0.08837 0.68240 0.45747
 H840 H 0.12287 0.71029 0.48129
 C841 C 0.57842 0.90911 0.71096
 C842 C 0.59254 0.90260 0.73722
 C843 C 0.57964 0.88408 0.75219
 C844 C 0.55386 0.87386 0.73946
 C845 C 0.56210 0.86366 0.71189
 C846 C 0.57503 0.88220 0.69690
 C847 C 0.55018 0.91744 0.71901
 C848 C 0.53727 0.89891 0.73399
 C849 C 0.59246 0.92914 0.69502
 C850 C 0.60424 0.94574 0.68234
 C851 C 0.53995 0.85405 0.75574
 C852 C 0.52823 0.83820 0.76937
 H853 H 0.61107 0.91173 0.74350
 H854 H 0.58711 0.87735 0.77129
 H855 H 0.55811 0.84367 0.70477
 H856 H 0.58211 0.87808 0.67694
 H857 H 0.54111 0.93621 0.71341
 H858 H 0.51716 0.90183 0.74125
 C859 C 0.42169 0.90938 0.28914
 C860 C 0.40755 0.90280 0.26290
 C861 C 0.42049 0.88434 0.24790
 C862 C 0.44634 0.87424 0.26057
 C863 C 0.43819 0.86401 0.28815
 C864 C 0.42522 0.88249 0.30317
 C865 C 0.44988 0.91784 0.28103
 C866 C 0.46283 0.89937 0.26601
 C867 C 0.40760 0.92935 0.30511
 C868 C 0.39577 0.94590 0.31780
 C869 C 0.46028 0.85450 0.24425
 C870 C 0.47202 0.83868 0.23059
 H871 H 0.38897 0.91184 0.25666
 H872 H 0.41300 0.87757 0.22881
 H873 H 0.44227 0.84404 0.29526
 H874 H 0.41820 0.87835 0.32315
 H875 H 0.45888 0.93666 0.28662
 H876 H 0.48292 0.90239 0.25872
 C877 C 0.57905 0.09123 0.28919
 C878 C 0.57522 0.11799 0.30342
 C879 C 0.56221 0.13648 0.28845
 C880 C 0.55432 0.12640 0.26074
 C881 C 0.53799 0.10110 0.26586
 C882 C 0.55099 0.08262 0.28082
 C883 C 0.59332 0.09813 0.26311
 C884 C 0.58032 0.11660 0.24816
 C885 C 0.59318 0.07125 0.30510
 C886 C 0.60503 0.05468 0.31776
 C887 C 0.54032 0.14615 0.24448
 C888 C 0.52853 0.16197 0.23086
 H889 H 0.58209 0.12204 0.32348
 H890 H 0.55792 0.15637 0.29570
 H891 H 0.51797 0.09799 0.25840
 H892 H 0.54209 0.06369 0.28619
 H893 H 0.61201 0.08928 0.25692
 H894 H 0.58788 0.12357 0.22918
 C895 C 0.42143 0.09106 0.71070
 C896 C 0.44964 0.08273 0.71884
 C897 C 0.46255 0.10130 0.73379
 C898 C 0.44599 0.12639 0.73913
 C899 C 0.42018 0.11626 0.75184
 C900 C 0.40727 0.09770 0.73691
 C901 C 0.42488 0.11791 0.69656
 C902 C 0.43780 0.13649 0.71152
 C903 C 0.40739 0.07099 0.69480
 C904 C 0.39561 0.05436 0.68216
 C905 C 0.45989 0.14624 0.75538
 C906 C 0.47162 0.16213 0.76898
 H907 H 0.45869 0.06392 0.71332
 H908 H 0.48265 0.09838 0.74110
 H909 H 0.41268 0.12307 0.77090
 H910 H 0.38872 0.08861 0.74318
 H911 H 0.41783 0.12196 0.67656
 H912 H 0.44183 0.15645 0.70433
 C913 C 0.57901 0.71084 0.09050
 C914 C 0.57601 0.69700 0.11754
 C915 C 0.56320 0.71207 0.13609
 C916 C 0.55466 0.73951 0.12577
 C917 C 0.53783 0.73371 0.10095
 C918 C 0.55063 0.71864 0.08242
 C919 C 0.59303 0.73727 0.09666
 C920 C 0.58024 0.75233 0.11518
 C921 C 0.59294 0.69482 0.07046
 C922 C 0.60466 0.68211 0.05385
 C923 C 0.54086 0.75588 0.14558
 C924 C 0.52920 0.76956 0.16144
 H925 H 0.58327 0.67710 0.12174
 H926 H 0.55948 0.70509 0.15617
 H927 H 0.51764 0.74081 0.09819
 H928 H 0.54139 0.71282 0.06380
 H929 H 0.61141 0.74360 0.08728
 H930 H 0.58766 0.77154 0.12167
 C931 C 0.42119 0.28936 0.09068
 C932 C 0.44937 0.28109 0.08237
 C933 C 0.46220 0.26610 0.10094
 C934 C 0.44560 0.26084 0.12601
 C935 C 0.41974 0.24822 0.11588
 C936 C 0.40691 0.26320 0.09732
 C937 C 0.42470 0.30352 0.11751
 C938 C 0.43754 0.28852 0.13609
 C939 C 0.40723 0.30530 0.07060
 C940 C 0.39548 0.31797 0.05397
 C941 C 0.45944 0.24455 0.14586
 C942 C 0.47113 0.23093 0.16174
 H943 H 0.45845 0.28656 0.06357
 H944 H 0.48227 0.25871 0.09803
 H945 H 0.41214 0.22919 0.12270
 H946 H 0.38833 0.25698 0.08824
 H947 H 0.41774 0.32356 0.12155
 H948 H 0.44159 0.29571 0.15604
 C949 C 0.57871 0.28973 0.90924
 C950 C 0.55059 0.28127 0.91759
 C951 C 0.53779 0.26628 0.89899
 C952 C 0.55435 0.26121 0.87385
 C953 C 0.58030 0.24869 0.88386
 C954 C 0.59310 0.26367 0.90245
 C955 C 0.57507 0.30396 0.88248
 C956 C 0.56224 0.28897 0.86387
 C957 C 0.59264 0.30566 0.92935
 C958 C 0.60437 0.31832 0.94601
 C959 C 0.54054 0.24491 0.85397
 C960 C 0.52887 0.23128 0.83807
 H961 H 0.54153 0.28662 0.93643
 H962 H 0.51776 0.25877 0.90191
 H963 H 0.58796 0.22972 0.87694
 H964 H 0.61173 0.25753 0.91146
 H965 H 0.58191 0.32406 0.87852
 H966 H 0.55811 0.29621 0.84396
 C967 C 0.42097 0.71070 0.90953
 C968 C 0.40604 0.71276 0.88298
 C969 C 0.41889 0.72777 0.86443
 C970 C 0.44541 0.73925 0.87425
 C971 C 0.46149 0.71507 0.88370
 C972 C 0.44863 0.70005 0.90226
 C973 C 0.42565 0.73959 0.91824
 C974 C 0.43850 0.75458 0.89971
 C975 C 0.40699 0.69474 0.92959
 C976 C 0.39524 0.68207 0.94621
 C977 C 0.45926 0.75556 0.85443
 C978 C 0.47095 0.76918 0.83854
 H979 H 0.38706 0.70324 0.87908
 H980 H 0.41092 0.73111 0.84465
 H981 H 0.48122 0.71017 0.87645
 H982 H 0.45736 0.68231 0.91092
 H983 H 0.41946 0.74756 0.93732
 H984 H 0.44331 0.77539 0.90292
 C985 C 0.71183 0.90930 0.42175
 C986 C 0.69841 0.89809 0.44677
 C987 C 0.71339 0.87958 0.45975
 C988 C 0.74030 0.87411 0.44641
 C989 C 0.75374 0.90144 0.44429
 C990 C 0.73879 0.91992 0.43132
 C991 C 0.71852 0.88484 0.40473
 C992 C 0.73349 0.86634 0.41770
 C993 C 0.69590 0.92930 0.40765
 C994 C 0.68323 0.94588 0.39584
 C995 C 0.75656 0.85433 0.46038
 C996 C 0.77016 0.83846 0.47213
 H997 H 0.67891 0.90419 0.45372
 H998 H 0.70672 0.86983 0.47782
 H999 H 0.77328 0.90590 0.45233
 H1000 H 0.74552 0.94021 0.42825
 H1001 H 0.71206 0.88226 0.38430
 H1002 H 0.73984 0.84793 0.40837
 C1003 C 0.28893 0.90874 0.57825
 C1004 C 0.28015 0.91743 0.55034
 C1005 C 0.26518 0.89889 0.53741
 C1006 C 0.26046 0.87347 0.55365
 C1007 C 0.24813 0.88302 0.57987
 C1008 C 0.26308 0.90155 0.59279
 C1009 C 0.30332 0.88213 0.57408
 C1010 C 0.28835 0.86358 0.56114
 C1011 C 0.30485 0.92878 0.59230
 C1012 C 0.31751 0.94540 0.60410
 C1013 C 0.24419 0.85366 0.53972
 C1014 C 0.23058 0.83780 0.52798
 H1015 H 0.28527 0.93645 0.54149
 H1016 H 0.25746 0.90204 0.51749
 H1017 H 0.22930 0.87584 0.58761
 H1018 H 0.25706 0.91025 0.61161
 H1019 H 0.32350 0.87822 0.58067
 H1020 H 0.29569 0.84378 0.55664
 C1021 C 0.28865 0.09105 0.42181
 C1022 C 0.28644 0.11763 0.40695
 C1023 C 0.27140 0.13610 0.41987
 C1024 C 0.26003 0.12619 0.44639
 C1025 C 0.28428 0.11680 0.46241
 C1026 C 0.29932 0.09832 0.44948
 C1027 C 0.25982 0.08220 0.42653
 C1028 C 0.24480 0.10066 0.43945
 C1029 C 0.30465 0.07108 0.40776
 C1030 C 0.31737 0.05452 0.39597
 C1031 C 0.24369 0.14593 0.46032
 C1032 C 0.23004 0.16176 0.47206
 H1033 H 0.29589 0.12160 0.38796
 H1034 H 0.26796 0.15589 0.41196
 H1035 H 0.28919 0.12405 0.48215
 H1036 H 0.31711 0.08971 0.45816
 H1037 H 0.25192 0.06309 0.42031
 H1038 H 0.22402 0.09735 0.44429
 C1039 C 0.71114 0.09082 0.57800
 C1040 C 0.71937 0.08221 0.54990
 C1041 C 0.73441 0.10063 0.53690
 C1042 C 0.73974 0.12587 0.55327
 C1043 C 0.75233 0.11594 0.57922
 C1044 C 0.73730 0.09753 0.59222
 C1045 C 0.69707 0.11766 0.57426
 C1046 C 0.71211 0.13609 0.56125
 C1047 C 0.69515 0.07090 0.59214
 C1048 C 0.68243 0.05438 0.60400
 C1049 C 0.75608 0.14556 0.53926
 C1050 C 0.76975 0.16134 0.52748
 H1051 H 0.71385 0.06333 0.54098
 H1052 H 0.74178 0.09751 0.51685
 H1053 H 0.77137 0.12279 0.58675
 H1054 H 0.74349 0.08861 0.61087
 H1055 H 0.67706 0.12182 0.58119
 H1056 H 0.70499 0.15603 0.55702
 C1057 C 0.90906 0.57840 0.28931
 C1058 C 0.90297 0.59232 0.26284
 C1059 C 0.88445 0.57947 0.24782
 C1060 C 0.87380 0.55395 0.26071
 C1061 C 0.86346 0.56261 0.28809
 C1062 C 0.88200 0.57548 0.30313
 C1063 C 0.91711 0.54996 0.28163
 C1064 C 0.89858 0.53711 0.26659
 C1065 C 0.92910 0.59239 0.30529
 C1066 C 0.94571 0.60416 0.31797
 C1067 C 0.85400 0.54010 0.24437
 C1068 C 0.83814 0.52841 0.23070
 H1069 H 0.91238 0.61068 0.25646
 H1070 H 0.87799 0.58683 0.22858
 H1071 H 0.84337 0.55894 0.29505
 H1072 H 0.87779 0.58284 0.32298
 H1073 H 0.93571 0.54072 0.28750
 H1074 H 0.90132 0.51687 0.25956
 C1075 C 0.90893 0.42137 0.71080
 C1076 C 0.90204 0.40692 0.73679
 C1077 C 0.88358 0.41982 0.75182
 C1078 C 0.87379 0.44593 0.73943
 C1079 C 0.86371 0.43822 0.71166
 C1080 C 0.88219 0.42529 0.69660
 C1081 C 0.91754 0.44939 0.71936
 C1082 C 0.89907 0.46230 0.73441
 C1083 C 0.92890 0.40732 0.69480
 C1084 C 0.94547 0.39551 0.68211
 C1085 C 0.85405 0.45984 0.75578
 C1086 C 0.83825 0.47157 0.76947
 H1087 H 0.91088 0.38818 0.74285
 H1088 H 0.87662 0.41214 0.77075
 H1089 H 0.84384 0.44256 0.70445
 H1090 H 0.87814 0.41856 0.67649
 H1091 H 0.93645 0.45833 0.71404
 H1092 H 0.90219 0.48229 0.74200
 C1093 C 0.09065 0.57828 0.71104
 C1094 C 0.11589 0.57070 0.69564
 C1095 C 0.13434 0.55779 0.71074
 C1096 C 0.12574 0.55374 0.73974
 C1097 C 0.09895 0.53917 0.73806
 C1098 C 0.08051 0.55207 0.72298
 C1099 C 0.10053 0.59457 0.73490
 C1100 C 0.11896 0.58168 0.74998
 C1101 C 0.07071 0.59232 0.69500
 C1102 C 0.05417 0.60414 0.68227
 C1103 C 0.14546 0.53985 0.75615
 C1104 C 0.16126 0.52815 0.76986
 H1105 H 0.11898 0.57504 0.67473
 H1106 H 0.15323 0.55106 0.70276
 H1107 H 0.09486 0.52034 0.74781
 H1108 H 0.06063 0.54428 0.71980
 H1109 H 0.09365 0.61451 0.73954
 H1110 H 0.12787 0.59057 0.76752
 C1111 C 0.09077 0.42144 0.28908
 C1112 C 0.09765 0.40698 0.26309
 C1113 C 0.11616 0.41985 0.24808
 C1114 C 0.12600 0.44594 0.26051
 C1115 C 0.13603 0.43821 0.28828
 C1116 C 0.11750 0.42532 0.30331
 C1117 C 0.08224 0.44948 0.28053
 C1118 C 0.10075 0.46236 0.26551
 C1119 C 0.07075 0.40743 0.30505
 C1120 C 0.05415 0.39563 0.31771
 C1121 C 0.14579 0.45981 0.24418
 C1122 C 0.16164 0.47152 0.23053
 H1123 H 0.08876 0.38826 0.25701
 H1124 H 0.12312 0.41215 0.22916
 H1125 H 0.15591 0.44252 0.29552
 H1126 H 0.12151 0.41858 0.32342
 H1127 H 0.06334 0.45845 0.28583
 H1128 H 0.09770 0.48235 0.25793
   
