data_POSCAR
  _audit_creation_date              2014-09-24
  _audit_creation_method            'ToBaCCo'
  _symmetry_space_group_name_H-M    'P1'
  _symmetry_Int_Tables_number       1
  _symmetry_cell_setting            triclinic
  loop_
  _symmetry_equiv_pos_as_xyz
 x,y,z
_cell_length_a 33.1546
_cell_length_b 31.6886
_cell_length_c 35.0222
_cell_angle_alpha 90.403400
_cell_angle_beta 89.986600
_cell_angle_gamma 89.579500
loop_
  _atom_site_label
  _atom_site_type_symbol
  _atom_site_fract_x
  _atom_site_fract_y
  _atom_site_fract_z
N1 N 0.30054 0.20120 0.17988
 N2 N 0.28249 0.23291 0.16282
 C3 C 0.29964 0.23879 0.12845
 C4 C 0.33025 0.20923 0.12381
 C5 C 0.32986 0.18582 0.15705
 H6 H 0.29095 0.26321 0.10863
 H7 H 0.35023 0.16048 0.16475
 Cu8 Cu 0.24020 0.26535 0.18804
 Cu9 Cu 0.28692 0.18476 0.23161
 Cu10 Cu 0.19609 0.22431 0.26599
 N11 N 0.18898 0.28657 0.20713
 N12 N 0.17169 0.27027 0.23734
 C13 C 0.13719 0.29144 0.24465
 C14 C 0.13254 0.32260 0.21748
 C15 C 0.16597 0.31848 0.19402
 H16 H 0.11708 0.28483 0.26813
 H17 H 0.17339 0.33766 0.16964
 N18 N 0.22606 0.17818 0.29092
 N19 N 0.26093 0.16359 0.27811
 C20 C 0.27508 0.13432 0.30244
 C21 C 0.24793 0.13044 0.33222
 C22 C 0.21719 0.15868 0.32387
 H23 H 0.30350 0.11780 0.29909
 H24 H 0.19114 0.16576 0.34139
 H25 H 0.22777 0.19888 0.21999
 H26 H 0.25443 0.23700 0.25181
 N27 N 0.68875 -0.20741 0.18776
 N28 N 0.70529 -0.24022 0.17060
 C29 C 0.68543 -0.24788 0.13779
 C30 C 0.65464 -0.21830 0.13404
 C31 C 0.65785 -0.19302 0.16643
 H32 H 0.69344 -0.27257 0.11771
 H33 H 0.63912 -0.16625 0.17418
 Cu34 Cu 0.75202 -0.26950 0.19155
 Cu35 Cu 0.70854 -0.18594 0.23643
 Cu36 Cu 0.79413 -0.23367 0.27307
 N37 N 0.80216 -0.29300 0.21143
 N38 N 0.81838 -0.27884 0.24316
 C39 C 0.85286 -0.30008 0.24995
 C40 C 0.85878 -0.32942 0.22091
 C41 C 0.82587 -0.32383 0.19685
 H42 H 0.87245 -0.29401 0.27396
 H43 H 0.81950 -0.34078 0.17070
 N44 N 0.76554 -0.18750 0.29940
 N45 N 0.73311 -0.16892 0.28538
 C46 C 0.72162 -0.13763 0.30934
 C47 C 0.74810 -0.13652 0.33992
 C48 C 0.77550 -0.16867 0.33260
 H49 H 0.69640 -0.11655 0.30450
 H50 H 0.80118 -0.17738 0.34986
 H51 H 0.76738 -0.20470 0.22630
 H52 H 0.73510 -0.24123 0.25463
 N53 N 0.71441 0.19264 0.83331
 N54 N 0.73128 0.22571 0.84933
 C55 C 0.71000 0.23676 0.88065
 C56 C 0.67832 0.20888 0.88461
 C57 C 0.68235 0.18107 0.85419
 H58 H 0.71676 0.26332 0.89904
 H59 H 0.66254 0.15550 0.84662
 Cu60 Cu 0.77842 0.25196 0.82681
 Cu61 Cu 0.73164 0.17037 0.78399
 Cu62 Cu 0.81272 0.21962 0.74119
 N63 N 0.82552 0.27742 0.80340
 N64 N 0.83741 0.26587 0.76911
 C65 C 0.86848 0.29004 0.75834
 C66 C 0.87705 0.31830 0.78763
 C67 C 0.84924 0.30893 0.81598
 H68 H 0.88379 0.28672 0.73126
 H69 H 0.84593 0.32417 0.84346
 N70 N 0.78404 0.17209 0.71756
 N71 N 0.75342 0.15296 0.73394
 C72 C 0.73894 0.12353 0.70972
 C73 C 0.76162 0.12418 0.67655
 C74 C 0.78999 0.15522 0.68266
 H75 H 0.71302 0.10405 0.71531
 H76 H 0.81219 0.16596 0.66240
 H77 H 0.79106 0.18865 0.78865
 H78 H 0.75563 0.22622 0.76477
 N79 N 0.28414 -0.18738 0.82448
 N80 N 0.26610 -0.21867 0.84181
 C81 C 0.28936 -0.23189 0.87098
 C82 C 0.32375 -0.20728 0.87209
 C83 C 0.31918 -0.17919 0.84227
 H84 H 0.28212 -0.25802 0.88938
 H85 H 0.34064 -0.15585 0.83299
 Cu86 Cu 0.21476 -0.24032 0.82356
 Cu87 Cu 0.26234 -0.16189 0.77841
 Cu88 Cu 0.19286 -0.22445 0.73105
 N89 N 0.17406 -0.27341 0.79735
 N90 N 0.16731 -0.26845 0.76071
 C91 C 0.13916 -0.29602 0.74921
 C92 C 0.12717 -0.31964 0.78039
 C93 C 0.15004 -0.30412 0.81059
 H94 H 0.12779 -0.29781 0.72036
 H95 H 0.14948 -0.31425 0.83996
 N96 N 0.22146 -0.17774 0.70644
 N97 N 0.24716 -0.15321 0.72467
 C98 C 0.26165 -0.12447 0.70016
 C99 C 0.24396 -0.13112 0.66482
 C100 C 0.21862 -0.16505 0.66996
 H101 H 0.28381 -0.10089 0.70744
 H102 H 0.20006 -0.17987 0.64842
 H103 H 0.20317 -0.18468 0.77594
 H104 H 0.24530 -0.22143 0.76314
 N105 N 0.70726 -0.19537 0.83003
 N106 N 0.72726 -0.22582 0.84715
 C107 C 0.70731 -0.23690 0.87899
 C108 C 0.67349 -0.21140 0.88237
 C109 C 0.67440 -0.18533 0.85090
 H110 H 0.71686 -0.26130 0.89853
 H111 H 0.65221 -0.16167 0.84328
 Cu112 Cu 0.77830 -0.24698 0.82728
 Cu113 Cu 0.72397 -0.17312 0.78081
 Cu114 Cu 0.80733 -0.22065 0.73865
 N115 N 0.82176 -0.27683 0.80121
 N116 N 0.83211 -0.26740 0.76612
 C117 C 0.86207 -0.29344 0.75473
 C118 C 0.87145 -0.32063 0.78447
 C119 C 0.84518 -0.30879 0.81361
 H120 H 0.87631 -0.29196 0.72703
 H121 H 0.84304 -0.32225 0.84175
 N122 N 0.77817 -0.17280 0.71548
 N123 N 0.74576 -0.15544 0.73105
 C124 C 0.73197 -0.12477 0.70792
 C125 C 0.75715 -0.12233 0.67651
 C126 C 0.78629 -0.15309 0.68244
 H127 H 0.70594 -0.10503 0.71379
 H128 H 0.81129 -0.16097 0.66394
 H129 H 0.75189 -0.22899 0.76469
 H130 H 0.78489 -0.18666 0.78474
 N131 N 0.30946 0.20791 0.81172
 N132 N 0.29457 0.24364 0.82495
 C133 C 0.31333 0.25364 0.85781
 C134 C 0.34138 0.22231 0.86575
 C135 C 0.33787 0.19362 0.83593
 H136 H 0.30673 0.28141 0.87488
 H137 H 0.35525 0.16509 0.83141
 Cu138 Cu 0.25164 0.27334 0.79842
 Cu139 Cu 0.29337 0.18501 0.76242
 Cu140 Cu 0.20730 0.22850 0.72221
 N141 N 0.19882 0.29160 0.78087
 N142 N 0.18175 0.27466 0.75064
 C143 C 0.14668 0.29490 0.74377
 C144 C 0.14125 0.32591 0.77150
 C145 C 0.17488 0.32256 0.79475
 H146 H 0.12656 0.28751 0.72041
 H147 H 0.18211 0.34164 0.81942
 N148 N 0.23344 0.17656 0.70219
 N149 N 0.26703 0.16100 0.71687
 C150 C 0.27908 0.12757 0.69580
 C151 C 0.25165 0.12140 0.66663
 C152 C 0.22286 0.15285 0.67174
 H153 H 0.30587 0.10890 0.70123
 H154 H 0.19694 0.15899 0.65394
 H155 H 0.26649 0.23688 0.73764
 H156 H 0.23477 0.20539 0.77060
 N157 N 0.28824 -0.19490 0.16722
 N158 N 0.27026 -0.22717 0.15091
 C159 C 0.28934 -0.23665 0.11794
 C160 C 0.32071 -0.20859 0.11322
 C161 C 0.31904 -0.18249 0.14502
 H162 H 0.28113 -0.26199 0.09869
 H163 H 0.33933 -0.15700 0.15195
 Cu164 Cu 0.22377 -0.25356 0.17461
 Cu165 Cu 0.27138 -0.17230 0.21666
 Cu166 Cu 0.18816 -0.21837 0.25899
 N167 N 0.17665 -0.27872 0.19827
 N168 N 0.16345 -0.26538 0.23167
 C169 C 0.13174 -0.28890 0.24219
 C170 C 0.12439 -0.31833 0.21372
 C171 C 0.15340 -0.31089 0.18620
 H172 H 0.11504 -0.28480 0.26850
 H173 H 0.15768 -0.32818 0.15978
 N174 N 0.21735 -0.17053 0.28215
 N175 N 0.24972 -0.15385 0.26658
 C176 C 0.26361 -0.12315 0.28980
 C177 C 0.23863 -0.12003 0.32140
 C178 C 0.20946 -0.15042 0.31537
 H179 H 0.28965 -0.10396 0.28388
 H180 H 0.18455 -0.15781 0.33392
 H181 H 0.24538 -0.22692 0.23680
 H182 H 0.21150 -0.18912 0.21140
 N183 N 0.69709 0.20429 0.18977
 N184 N 0.71446 0.23644 0.17322
 C185 C 0.69658 0.24339 0.13935
 C186 C 0.66632 0.21392 0.13436
 C187 C 0.66778 0.18939 0.16693
 H188 H 0.70486 0.26825 0.11993
 H189 H 0.64834 0.16353 0.17433
 Cu190 Cu 0.75758 0.26727 0.19810
 Cu191 Cu 0.71114 0.18718 0.24123
 Cu192 Cu 0.80299 0.22407 0.27472
 N193 N 0.80925 0.28714 0.21650
 N194 N 0.82650 0.27102 0.24691
 C195 C 0.86077 0.29213 0.25418
 C196 C 0.86548 0.32285 0.22658
 C197 C 0.83228 0.31846 0.20295
 H198 H 0.88092 0.28546 0.27768
 H199 H 0.82479 0.33699 0.17819
 N200 N 0.77366 0.17712 0.29873
 N201 N 0.73807 0.16430 0.28661
 C202 C 0.72507 0.13313 0.30928
 C203 C 0.75391 0.12572 0.33691
 C204 C 0.78439 0.15409 0.32936
 H205 H 0.69699 0.11646 0.30558
 H206 H 0.81200 0.15805 0.34536
 H207 H 0.74460 0.23816 0.26180
 H208 H 0.77035 0.20004 0.22895
 C209 C 0.26067 -0.03026 0.52883
 C210 C 0.26198 0.01399 0.53370
 C211 C 0.26198 0.04006 0.50161
 C212 C 0.25984 0.02296 0.46469
 C213 C 0.25754 -0.02114 0.45967
 C214 C 0.25846 -0.04730 0.49177
 H215 H 0.25719 -0.08123 0.48789
 H216 H 0.26267 0.07405 0.50544
 C217 C 0.74253 0.02467 0.53871
 C218 C 0.74248 -0.01977 0.54116
 C219 C 0.74242 -0.04413 0.50755
 C220 C 0.74266 -0.02484 0.47160
 C221 C 0.74284 0.01960 0.46933
 C222 C 0.74271 0.04386 0.50281
 H223 H 0.74357 0.07799 0.50089
 H224 H 0.74308 -0.07827 0.50938
 C225 C 0.46615 0.21767 -0.01989
 C226 C 0.46388 0.21157 0.01991
 C227 C 0.49954 0.20947 0.04134
 C228 C 0.53734 0.21166 0.02362
 C229 C 0.53948 0.21657 -0.01630
 C230 C 0.50391 0.22019 -0.03764
 H231 H 0.50563 0.22363 -0.06838
 H232 H 0.49771 0.20665 0.07209
 C233 C 0.46187 0.78014 -0.02704
 C234 C 0.45730 0.78373 0.01293
 C235 C 0.49171 0.78552 0.03620
 C236 C 0.53063 0.78390 0.02042
 C237 C 0.53505 0.78052 -0.01960
 C238 C 0.50072 0.77866 -0.04281
 H239 H 0.50429 0.77716 -0.07359
 H240 H 0.48812 0.78848 0.06688
 C241 C 0.01977 0.46181 0.21691
 C242 C -0.02271 0.46106 0.21901
 C243 C -0.04448 0.49906 0.21871
 C244 C -0.02467 0.53788 0.21676
 C245 C 0.01787 0.53873 0.21590
 C246 C 0.03969 0.50068 0.21549
 H247 H 0.07235 0.50131 0.21406
 H248 H -0.07716 0.49845 0.21983
 C249 C 0.02419 0.46144 0.78026
 C250 C -0.01827 0.46059 0.78322
 C251 C -0.04010 0.49867 0.78379
 C252 C -0.02029 0.53757 0.78316
 C253 C 0.02221 0.53831 0.78104
 C254 C 0.04399 0.50031 0.77907
 H255 H 0.07660 0.50100 0.77689
 H256 H -0.07273 0.49802 0.78417
 C257 C 0.36371 0.23842 0.06549
 C258 C 0.35909 0.20559 0.09171
 C259 C 0.38479 0.17013 0.08774
 C260 C 0.41752 0.17079 0.06216
 C261 C 0.42492 0.20670 0.03982
 C262 C 0.39591 0.23895 0.04011
 C263 C 0.40124 0.28544 0.04450
 C264 C 0.36608 0.28495 0.07225
 H265 H 0.38140 0.14305 0.10607
 H266 H 0.43860 0.14451 0.06173
 H267 H 0.39419 0.30278 0.01784
 H268 H 0.43043 0.29381 0.05814
 H269 H 0.33899 0.30189 0.06138
 H270 H 0.37481 0.29308 0.10206
 C271 C 0.62579 0.75504 0.07427
 C272 C 0.62706 0.78541 0.10365
 C273 C 0.59945 0.81958 0.10120
 C274 C 0.56927 0.82025 0.07287
 C275 C 0.56596 0.78700 0.04619
 C276 C 0.59598 0.75583 0.04636
 C277 C 0.59167 0.70903 0.04637
 C278 C 0.62413 0.70797 0.07683
 H279 H 0.59983 0.84506 0.12188
 H280 H 0.54735 0.84577 0.07292
 H281 H 0.60169 0.69430 0.01913
 H282 H 0.56163 0.69874 0.05677
 H283 H 0.65251 0.69264 0.06681
 H284 H 0.61301 0.69699 0.10500
 C285 C 0.62563 0.17376 -0.07503
 C286 C 0.64615 0.21021 -0.08612
 C287 C 0.63503 0.24858 -0.06804
 C288 C 0.60099 0.25074 -0.04395
 C289 C 0.57835 0.21433 -0.03656
 C290 C 0.59300 0.17574 -0.05033
 C291 C 0.57156 0.14075 -0.07018
 C292 C 0.60695 0.13885 -0.09774
 H293 H 0.65063 0.27750 -0.07465
 H294 H 0.59112 0.28109 -0.03289
 H295 H 0.54292 0.15115 -0.08381
 H296 H 0.56916 0.11226 -0.05201
 H297 H 0.59831 0.14855 -0.12708
 H298 H 0.62455 0.10895 -0.09589
 C299 C 0.38937 0.81892 -0.10216
 C300 C 0.35967 0.78775 -0.10323
 C301 C 0.36671 0.75077 -0.08185
 C302 C 0.40041 0.74764 -0.05743
 C303 C 0.42719 0.78165 -0.05345
 C304 C 0.42231 0.81588 -0.07792
 C305 C 0.42150 0.86190 -0.06883
 C306 C 0.38534 0.86535 -0.09532
 H307 H 0.34598 0.72461 -0.08339
 H308 H 0.40502 0.71918 -0.04110
 H309 H 0.44864 0.87824 -0.07979
 H310 H 0.41407 0.86852 -0.03838
 H311 H 0.39169 0.88385 -0.12147
 H312 H 0.35687 0.87402 -0.08030
 C313 C 0.07383 0.36181 0.24592
 C314 C 0.09954 0.35405 0.21487
 C315 C 0.09346 0.37818 0.18161
 C316 C 0.06591 0.41221 0.18162
 C317 C 0.04381 0.42252 0.21474
 C318 C 0.04664 0.39535 0.24589
 C319 C 0.05432 0.40546 0.28691
 C320 C 0.08399 0.36874 0.28704
 H321 H 0.11131 0.37226 0.15624
 H322 H 0.06339 0.43176 0.15648
 H323 H 0.02753 0.39989 0.30518
 H324 H 0.06888 0.43667 0.29103
 H325 H 0.07402 0.34214 0.30520
 H326 H 0.11580 0.37857 0.29137
 C327 C 0.08659 0.62863 0.81522
 C328 C 0.09765 0.64864 0.78113
 C329 C 0.07743 0.63554 0.74745
 C330 C 0.05163 0.60049 0.74761
 C331 C 0.04450 0.57834 0.78150
 C332 C 0.06050 0.59456 0.81536
 C333 C 0.08286 0.57285 0.84655
 C334 C 0.11167 0.60993 0.84642
 H335 H 0.08307 0.65037 0.72031
 H336 H 0.03907 0.58932 0.72089
 H337 H 0.09722 0.54274 0.83711
 H338 H 0.06469 0.57088 0.87314
 H339 H 0.14261 0.60125 0.83675
 H340 H 0.11022 0.62899 0.87315
 C341 C -0.07888 0.63837 0.24508
 C342 C -0.10880 0.64199 0.21682
 C343 C -0.10498 0.61531 0.18442
 C344 C -0.07568 0.58295 0.18328
 C345 C -0.04924 0.57678 0.21418
 C346 C -0.04983 0.60657 0.24372
 C347 C -0.05102 0.59993 0.28577
 C348 C -0.08287 0.63450 0.28750
 H349 H -0.12576 0.61760 0.16073
 H350 H -0.07526 0.56117 0.15930
 H351 H -0.02241 0.60912 0.29990
 H352 H -0.06262 0.56830 0.29360
 H353 H -0.07237 0.66323 0.30281
 H354 H -0.11304 0.62297 0.29635
 C355 C -0.08496 0.37407 0.82074
 C356 C -0.09291 0.34949 0.78809
 C357 C -0.06924 0.35793 0.75532
 C358 C -0.04372 0.39325 0.75413
 C359 C -0.04031 0.42039 0.78588
 C360 C -0.05924 0.40830 0.81968
 C361 C -0.08340 0.43268 0.84831
 C362 C -0.11187 0.39531 0.84937
 H363 H -0.07225 0.33944 0.72946
 H364 H -0.02887 0.40084 0.72758
 H365 H -0.09789 0.46139 0.83648
 H366 H -0.06670 0.43749 0.87549
 H367 H -0.14229 0.40270 0.83770
 H368 H -0.11168 0.37892 0.87733
 C369 C 0.22104 0.10252 0.39391
 C370 C 0.25249 0.10507 0.36729
 C371 C 0.28910 0.08428 0.37625
 C372 C 0.29199 0.05821 0.40855
 C373 C 0.25829 0.05218 0.43223
 C374 C 0.22397 0.07683 0.42570
 C375 C 0.18090 0.06396 0.42318
 C376 C 0.17759 0.09195 0.38823
 H377 H 0.31518 0.08704 0.35792
 H378 H 0.32003 0.04174 0.41431
 H379 H 0.16295 0.07582 0.44788
 H380 H 0.17730 0.02983 0.41658
 H381 H 0.15749 0.11975 0.39282
 H382 H 0.17218 0.07405 0.36131
 C383 C 0.78315 0.10184 0.61106
 C384 C 0.75475 0.10059 0.64063
 C385 C 0.71879 0.07812 0.63382
 C386 C 0.71398 0.05418 0.60009
 C387 C 0.74516 0.05199 0.57286
 C388 C 0.77839 0.07819 0.57797
 C389 C 0.82221 0.06766 0.57559
 C390 C 0.82756 0.09347 0.61194
 H391 H 0.69481 0.07808 0.65476
 H392 H 0.68652 0.03653 0.59583
 H393 H 0.83669 0.08207 0.55025
 H394 H 0.82845 0.03342 0.57940
 H395 H 0.84534 0.12262 0.60750
 H396 H 0.83691 0.07423 0.63690
 C397 C 0.22571 -0.11375 0.59737
 C398 C 0.25150 -0.10862 0.62870
 C399 C 0.28520 -0.08220 0.62398
 C400 C 0.28958 -0.05803 0.59062
 C401 C 0.26006 -0.05937 0.56168
 C402 C 0.22994 -0.08974 0.56470
 C403 C 0.18552 -0.08528 0.55939
 C404 C 0.18071 -0.11149 0.59527
 H405 H 0.30742 -0.07902 0.64642
 H406 H 0.31511 -0.03716 0.58815
 H407 H 0.17492 -0.10164 0.53312
 H408 H 0.17483 -0.05212 0.56283
 H409 H 0.16712 -0.14288 0.58960
 H410 H 0.16719 -0.09358 0.61957
 C411 C 0.71722 -0.07650 0.37703
 C412 C 0.74857 -0.10591 0.37205
 C413 C 0.78092 -0.10448 0.39829
 C414 C 0.77933 -0.07758 0.43043
 C415 C 0.74557 -0.05135 0.43686
 C416 C 0.71581 -0.04985 0.40865
 C417 C 0.67123 -0.05393 0.41251
 C418 C 0.67266 -0.08311 0.37794
 H419 H 0.80688 -0.12501 0.39495
 H420 H 0.80388 -0.07814 0.45083
 H421 H 0.65515 -0.02377 0.40682
 H422 H 0.66226 -0.07005 0.43928
 H423 H 0.65738 -0.06957 0.35252
 H424 H 0.66447 -0.11623 0.38457
 C425 C 0.63062 0.74923 -0.07151
 C426 C 0.64268 0.78755 -0.08736
 C427 C 0.62317 0.82474 -0.07462
 C428 C 0.58967 0.82263 -0.04998
 C429 C 0.57478 0.78330 -0.03827
 C430 C 0.59693 0.74710 -0.04802
 C431 C 0.58327 0.70671 -0.06577
 C432 C 0.62029 0.70880 -0.09125
 H433 H 0.63251 0.85517 -0.08520
 H434 H 0.57370 0.85140 -0.04231
 H435 H 0.55444 0.71021 -0.08169
 H436 H 0.58429 0.67987 -0.04557
 H437 H 0.61292 0.71318 -0.12195
 H438 H 0.64278 0.68350 -0.08531
 C439 C 0.38397 0.18263 -0.08673
 C440 C 0.36936 0.22087 -0.10139
 C441 C 0.38211 0.25844 -0.08327
 C442 C 0.41258 0.25746 -0.05526
 C443 C 0.42971 0.21885 -0.04385
 C444 C 0.41298 0.18169 -0.05818
 C445 C 0.43314 0.14340 -0.07438
 C446 C 0.40180 0.14460 -0.10603
 H447 H 0.37091 0.28879 -0.09270
 H448 H 0.42438 0.28688 -0.04423
 H449 H 0.43009 0.11566 -0.05538
 H450 H 0.46428 0.14961 -0.08456
 H451 H 0.38108 0.11720 -0.10560
 H452 H 0.41521 0.15178 -0.13433
 C453 C 0.35850 0.75619 0.05965
 C454 C 0.35042 0.79229 0.08175
 C455 C 0.37321 0.82872 0.07420
 C456 C 0.40640 0.82685 0.04912
 C457 C 0.41733 0.78859 0.03110
 C458 C 0.39143 0.75429 0.03511
 C459 C 0.40080 0.70963 0.04529
 C460 C 0.36474 0.71159 0.07202
 H461 H 0.36704 0.85794 0.08937
 H462 H 0.42522 0.85440 0.04595
 H463 H 0.43011 0.70621 0.06042
 H464 H 0.39637 0.68754 0.02091
 H465 H 0.37309 0.70911 0.10268
 H466 H 0.33961 0.69085 0.06280
 C467 C 0.61681 0.17409 0.09311
 C468 C 0.63751 0.21128 0.10215
 C469 C 0.62953 0.24683 0.07915
 C470 C 0.59795 0.24634 0.05226
 C471 C 0.57418 0.21009 0.04724
 C472 C 0.58629 0.17341 0.06613
 C473 C 0.56331 0.14041 0.08689
 C474 C 0.59647 0.14159 0.11693
 H475 H 0.64544 0.27610 0.08381
 H476 H 0.59037 0.27515 0.03738
 H477 H 0.56241 0.11012 0.07074
 H478 H 0.53376 0.15159 0.09807
 H479 H 0.61418 0.11173 0.11844
 H480 H 0.58561 0.15430 0.14478
 C481 C -0.09011 0.62447 0.81835
 C482 C -0.09853 0.64763 0.78516
 C483 C -0.07504 0.63765 0.75246
 C484 C -0.04866 0.60256 0.75213
 C485 C -0.04438 0.57701 0.78459
 C486 C -0.06370 0.59031 0.81805
 C487 C -0.08791 0.56663 0.84656
 C488 C -0.11701 0.60392 0.84689
 H489 H -0.07851 0.65503 0.72621
 H490 H -0.03348 0.59401 0.72581
 H491 H -0.07155 0.56256 0.87399
 H492 H -0.10167 0.53756 0.83469
 H493 H -0.11744 0.62107 0.87469
 H494 H -0.14718 0.59618 0.83497
 C495 C -0.09036 0.37188 0.18884
 C496 C -0.10154 0.35394 0.22376
 C497 C -0.07989 0.36677 0.25653
 C498 C -0.05248 0.40050 0.25477
 C499 C -0.04514 0.42107 0.22000
 C500 C -0.06244 0.40417 0.18697
 C501 C -0.08363 0.42514 0.15464
 C502 C -0.11469 0.39019 0.15696
 H503 H -0.08639 0.35315 0.28409
 H504 H -0.03919 0.41231 0.28091
 H505 H -0.06553 0.42399 0.12793
 H506 H -0.09609 0.45674 0.16227
 H507 H -0.11492 0.36936 0.13129
 H508 H -0.14474 0.40206 0.16640
 C509 C 0.09609 0.37488 0.80965
 C510 C 0.10735 0.35647 0.77464
 C511 C 0.08486 0.36823 0.74211
 C512 C 0.05627 0.40133 0.74414
 C513 C 0.04856 0.42231 0.77897
 C514 C 0.06702 0.40655 0.81179
 C515 C 0.08812 0.42889 0.84350
 C516 C 0.12037 0.39463 0.84091
 H517 H 0.09144 0.35424 0.71451
 H518 H 0.04213 0.41222 0.71811
 H519 H 0.07063 0.42808 0.87056
 H520 H 0.09925 0.46054 0.83527
 H521 H 0.12185 0.37451 0.86675
 H522 H 0.14980 0.40691 0.83082
 C523 C 0.07546 0.63508 0.24738
 C524 C 0.09272 0.64909 0.21329
 C525 C 0.07939 0.63033 0.17889
 C526 C 0.05313 0.59553 0.17948
 C527 C 0.04006 0.57882 0.21443
 C528 C 0.05003 0.60047 0.24794
 C529 C 0.06787 0.58414 0.28409
 C530 C 0.09557 0.62213 0.28368
 H531 H 0.09056 0.64126 0.15168
 H532 H 0.04490 0.58027 0.15286
 H533 H 0.08411 0.55361 0.28000
 H534 H 0.04608 0.58485 0.30817
 H535 H 0.12789 0.61363 0.27960
 H536 H 0.08942 0.64482 0.30735
 C537 C 0.78759 -0.07886 0.62404
 C538 C 0.75366 -0.09258 0.64424
 C539 C 0.71580 -0.07582 0.63332
 C540 C 0.71203 -0.05092 0.60026
 C541 C 0.74619 -0.04122 0.57824
 C542 C 0.78394 -0.05333 0.59221
 C543 C 0.81873 -0.07396 0.57242
 C544 C 0.82251 -0.10244 0.60702
 H545 H 0.68875 -0.08420 0.64872
 H546 H 0.68232 -0.04106 0.59092
 H547 H 0.84458 -0.05215 0.56915
 H548 H 0.80982 -0.09112 0.54598
 H549 H 0.85084 -0.09742 0.62335
 H550 H 0.81540 -0.13590 0.60029
 C551 C 0.20951 -0.07964 0.37746
 C552 C 0.24245 -0.09023 0.35406
 C553 C 0.27962 -0.07067 0.36260
 C554 C 0.28433 -0.04640 0.39623
 C555 C 0.25179 -0.04041 0.42155
 C556 C 0.21404 -0.05513 0.41008
 C557 C 0.18230 -0.07842 0.43128
 C558 C 0.17761 -0.10580 0.39573
 H559 H 0.30585 -0.07645 0.34489
 H560 H 0.31393 -0.03467 0.40358
 H561 H 0.15543 -0.05827 0.43731
 H562 H 0.19418 -0.09614 0.45617
 H563 H 0.14779 -0.10184 0.38166
 H564 H 0.18740 -0.13901 0.40034
 C565 C 0.71501 0.07787 0.37951
 C566 C 0.75210 0.09404 0.36756
 C567 C 0.78724 0.07923 0.38601
 C568 C 0.78438 0.05294 0.41817
 C569 C 0.74640 0.04137 0.43248
 C570 C 0.71221 0.05247 0.41149
 C571 C 0.67386 0.07292 0.42435
 C572 C 0.67672 0.10068 0.38927
 H573 H 0.81674 0.08934 0.37669
 H574 H 0.81160 0.04365 0.43310
 H575 H 0.67728 0.09065 0.45166
 H576 H 0.64793 0.05095 0.42334
 H577 H 0.68160 0.13457 0.39621
 H578 H 0.65254 0.09447 0.36803
 C579 C 0.22012 0.07036 0.62004
 C580 C 0.25441 0.08920 0.63596
 C581 C 0.29237 0.07562 0.62207
 C582 C 0.29517 0.04904 0.58974
 C583 C 0.26009 0.03410 0.57174
 C584 C 0.22299 0.04292 0.58907
 C585 C 0.18439 0.05826 0.57216
 C586 C 0.18139 0.08880 0.60575
 H587 H 0.31987 0.08812 0.63420
 H588 H 0.32453 0.04215 0.57755
 H589 H 0.16073 0.03359 0.57242
 H590 H 0.18867 0.07419 0.54427
 H591 H 0.15565 0.08207 0.62506
 H592 H 0.18423 0.12226 0.59690
   
