data_POSCAR
  _audit_creation_date              2014-09-24
  _audit_creation_method            'ToBaCCo'
  _symmetry_space_group_name_H-M    'P1'
  _symmetry_Int_Tables_number       1
  _symmetry_cell_setting            triclinic
  loop_
  _symmetry_equiv_pos_as_xyz
 x,y,z
_cell_length_a 17.4886
_cell_length_b 17.3125
_cell_length_c 17.5303
_cell_angle_alpha 83.979400
_cell_angle_beta 98.601100
_cell_angle_gamma 80.025400
loop_
  _atom_site_label
  _atom_site_type_symbol
  _atom_site_fract_x
  _atom_site_fract_y
  _atom_site_fract_z
O1 O 0.60489 0.49046 0.08065
 O2 O 0.39081 0.49747 0.04346
 O3 O 0.51835 0.38705 0.08127
 O4 O 0.48110 0.60456 0.04428
 O5 O 0.47420 0.59796 -0.08166
 O6 O 0.52785 0.38046 -0.04244
 O7 O 0.39920 0.47913 -0.07804
 O8 O 0.60825 0.49288 -0.04513
 Cu9 Cu 0.49771 0.49647 0.07489
 Cu10 Cu 0.50276 0.48859 -0.07480
 C11 C 0.64297 0.48912 0.02447
 C12 C 0.35947 0.48547 -0.02336
 C13 C 0.53109 0.34694 0.02625
 C14 C 0.46983 0.63818 -0.02538
 O15 O -0.08702 0.61617 0.47959
 O16 O -0.04243 0.39852 0.51208
 O17 O -0.05192 0.51069 0.60314
 O18 O -0.07741 0.50977 0.39202
 O19 O 0.04980 0.50729 0.39441
 O20 O 0.07294 0.51917 0.60408
 O21 O 0.08440 0.40116 0.52119
 O22 O 0.03935 0.61909 0.48271
 Cu23 Cu -0.07725 0.50722 0.49702
 Cu24 Cu 0.07491 0.51021 0.50075
 C25 C -0.03185 0.65466 0.47514
 C26 C 0.02882 0.36287 0.52275
 C27 C 0.01425 0.51916 0.63860
 C28 C -0.01909 0.51117 0.35719
 O29 O 0.50108 0.03892 0.61352
 O30 O 0.49297 0.08121 0.40034
 O31 O 0.39053 0.08069 0.49031
 O32 O 0.60685 0.04885 0.52187
 O33 O 0.61202 -0.07827 0.51306
 O34 O 0.39429 -0.04651 0.48283
 O35 O 0.49916 -0.04568 0.38992
 O36 O 0.50978 -0.08795 0.60194
 Cu37 Cu 0.49784 0.07497 0.50784
 Cu38 Cu 0.50421 -0.07716 0.49549
 C39 C 0.50800 -0.03257 0.64403
 C40 C 0.49311 0.02519 0.35886
 C41 C 0.35556 0.02334 0.48022
 C42 C 0.64625 -0.02030 0.52378
 C43 C 0.50515 -0.02794 -0.07546
 C44 C 0.48038 -0.07878 -0.01907
 C45 C 0.47717 -0.05766 0.05580
 C46 C 0.49582 0.01413 0.07547
 C47 C 0.52114 0.06454 0.01952
 C48 C 0.52454 0.04350 -0.05530
 H49 H 0.54531 0.08189 -0.09713
 H50 H 0.45660 -0.09593 0.09793
 C51 C -0.01206 0.49971 1.07628
 C52 C -0.07403 0.49288 1.01711
 C53 C -0.06206 0.49849 0.93972
 C54 C 0.01245 0.50407 0.92216
 C55 C 0.07792 0.49382 0.98303
 C56 C 0.06452 0.49513 1.05989
 H57 H 0.11283 0.49446 1.10652
 H58 H -0.11074 0.50028 0.89309
 C59 C 0.07260 0.02178 0.48499
 C60 C 0.02083 0.07869 0.51482
 C61 C -0.05206 0.06252 0.52905
 C62 C -0.07343 -0.00993 0.51588
 C63 C -0.02240 -0.06629 0.48456
 C64 C 0.05072 -0.05026 0.47076
 H65 H 0.08961 -0.09274 0.44604
 H66 H -0.09092 0.10511 0.55370
 N67 N -0.15374 0.43917 1.10417
 N68 N -0.22834 0.43876 1.10904
 C69 C -0.27129 0.47857 1.04193
 C70 C -0.22079 0.50304 0.99509
 N71 N -0.14776 0.47843 1.03693
 H72 H -0.23583 0.53731 0.93782
 N73 N 0.17518 0.45023 0.90289
 N74 N 0.25008 0.44895 0.89842
 C75 C 0.28127 0.47755 0.96194
 C76 C 0.22302 0.49626 1.00606
 N77 N 0.15694 0.47998 0.96592
 H78 H 0.22752 0.52240 1.05961
 N79 N -0.11923 -0.14589 0.44168
 N80 N -0.12409 -0.22119 0.44048
 C81 C -0.05028 -0.26327 0.46287
 C82 C 0.00031 -0.21142 0.47723
 N83 N -0.04548 -0.13874 0.46520
 H84 H 0.06277 -0.22557 0.50049
 N85 N 0.11455 0.15796 0.56653
 N86 N 0.11913 0.23328 0.56886
 C87 C 0.04755 0.27613 0.53657
 C88 C -0.00134 0.22480 0.51465
 N89 N 0.04308 0.15164 0.53334
 H90 H -0.06165 0.23932 0.48421
 N91 N 0.53589 -0.12425 -0.16447
 N92 N 0.53561 -0.12733 -0.23959
 C93 C 0.51504 -0.05226 -0.27566
 C94 C 0.50297 -0.00265 -0.21974
 N95 N 0.51497 -0.05030 -0.15111
 H96 H 0.48425 0.06107 -0.22849
 N97 N 0.45337 0.11115 0.15990
 N98 N 0.45307 0.11653 0.23465
 C99 C 0.48369 0.04387 0.27373
 C100 C 0.50235 -0.00670 0.22026
 N101 N 0.48374 0.03806 0.14988
 H102 H 0.52889 -0.06899 0.23155
 N103 N 0.40986 -0.15806 -0.10213
 N104 N 0.40655 -0.23343 -0.10634
 C105 C 0.45209 -0.27527 -0.04123
 C106 C 0.48327 -0.22346 0.00327
 N107 N 0.45662 -0.15104 -0.03744
 H108 H 0.52508 -0.23739 0.05725
 N109 N 0.58649 0.14424 0.10605
 N110 N 0.58949 0.21960 0.11038
 C111 C 0.54911 0.26065 0.04257
 C112 C 0.52136 0.20849 -0.00368
 N113 N 0.54487 0.13654 0.03859
 H114 H 0.48304 0.22206 -0.05982
 N115 N -0.14823 -0.09527 0.58062
 N116 N -0.22251 -0.10096 0.58232
 C117 C -0.26745 -0.03456 0.54046
 C118 C -0.21848 0.01262 0.51338
 N119 N -0.14455 -0.02812 0.53876
 H120 H -0.23491 0.06808 0.47480
 N121 N 0.15169 0.10727 0.42739
 N122 N 0.22663 0.10991 0.42597
 C123 C 0.26918 0.04017 0.46325
 C124 C 0.21791 -0.00586 0.48742
 N125 N 0.14519 0.03885 0.46484
 H126 H 0.23219 -0.06342 0.52244
 N127 N -0.09545 0.56709 1.15709
 N128 N -0.10016 0.57006 1.23119
 C129 C -0.03430 0.52338 1.27248
 C130 C 0.01181 0.49191 1.22163
 N131 N -0.02961 0.51959 1.14999
 H132 H 0.06751 0.45054 1.23519
 N133 N 0.06534 0.57792 0.82371
 N134 N 0.06841 0.58232 0.74856
 C135 C 0.02331 0.53302 0.71965
 C136 C -0.00825 0.49841 0.77897
 N137 N 0.02088 0.52698 0.84334
 H138 H -0.04490 0.45405 0.77652
   
