data_POSCAR
  _audit_creation_date              2014-09-24
  _audit_creation_method            'ToBaCCo'
  _symmetry_space_group_name_H-M    'P1'
  _symmetry_Int_Tables_number       1
  _symmetry_cell_setting            triclinic
  loop_
  _symmetry_equiv_pos_as_xyz
 x,y,z
_cell_length_a 16.6902
_cell_length_b 16.8086
_cell_length_c 17.1974
_cell_angle_alpha 95.105100
_cell_angle_beta 102.172500
_cell_angle_gamma 94.134000
loop_
  _atom_site_label
  _atom_site_type_symbol
  _atom_site_fract_x
  _atom_site_fract_y
  _atom_site_fract_z
C1 C 0.62304 0.62951 -0.04596
 C2 C 0.66104 0.56311 -0.01723
 C3 C 0.62035 0.51053 0.02442
 C4 C 0.53955 0.52163 0.03399
 C5 C 0.50307 0.58862 0.00375
 C6 C 0.54413 0.64196 -0.03530
 C7 C 0.48777 0.45887 0.06329
 C8 C 0.41642 0.47897 0.09054
 C9 C 0.35637 0.41896 0.09786
 C10 C 0.37154 0.33887 0.08708
 C11 C 0.44254 0.31711 0.06358
 C12 C 0.50062 0.37680 0.05137
 H13 H 0.65226 0.66791 -0.08141
 H14 H 0.65015 0.45873 0.04470
 H15 H 0.43956 0.59715 0.00417
 H16 H 0.40406 0.54080 0.10078
 H17 H 0.32414 0.29245 0.09033
 H18 H 0.55164 0.35845 0.02668
 C19 C -0.04198 0.64136 0.37650
 C20 C -0.03731 0.67267 0.45568
 C21 C -0.00222 0.62962 0.51913
 C22 C 0.03349 0.55742 0.50375
 C23 C 0.03647 0.53349 0.42390
 C24 C -0.00643 0.57077 0.36092
 C25 C 0.06018 0.50223 0.56707
 C26 C 0.06432 0.41932 0.54432
 C27 C 0.08851 0.36645 0.60153
 C28 C 0.10688 0.39508 0.68182
 C29 C 0.09443 0.47329 0.70664
 C30 C 0.07398 0.52816 0.65000
 H31 H -0.07626 0.66986 0.32745
 H32 H -0.00650 0.65132 0.57902
 H33 H 0.06662 0.48146 0.40843
 H34 H 0.04411 0.39355 0.48295
 H35 H 0.12034 0.35291 0.72598
 H36 H 0.06628 0.58895 0.67111
 C37 C 0.65344 0.03078 0.62558
 C38 C 0.57890 -0.00056 0.64005
 C39 C 0.51227 -0.02571 0.57509
 C40 C 0.51852 -0.01549 0.49558
 C41 C 0.59364 0.01931 0.48354
 C42 C 0.66054 0.04117 0.54771
 C43 C 0.44606 -0.03499 0.42617
 C44 C 0.45650 -0.04886 0.34656
 C45 C 0.38838 -0.05638 0.28129
 C46 C 0.30914 -0.05535 0.29564
 C47 C 0.29709 -0.04436 0.37362
 C48 C 0.36537 -0.03319 0.43834
 H49 H 0.70481 0.05021 0.67538
 H50 H 0.45633 -0.05320 0.58734
 H51 H 0.60027 0.03286 0.42477
 H52 H 0.51725 -0.05191 0.33455
 H53 H 0.25661 -0.06007 0.24563
 H54 H 0.35497 -0.01885 0.49767
 O55 O 0.42781 -0.00924 -0.15872
 O56 O 0.40940 -0.04330 0.04621
 O57 O 0.43141 0.08268 -0.02606
 O58 O 0.40706 -0.13309 -0.08713
 O59 O 0.54102 -0.13820 -0.04507
 O60 O 0.56666 0.08216 0.00514
 O61 O 0.54460 -0.04109 0.08360
 O62 O 0.56206 -0.01657 -0.12382
 Cu63 Cu 0.40546 -0.02507 -0.05966
 Cu64 Cu 0.56724 -0.02854 -0.01632
 C65 C 0.49767 -0.01008 -0.17677
 C66 C 0.47390 -0.04648 0.10013
 C67 C 0.50255 0.11941 -0.00009
 C68 C 0.46973 -0.17229 -0.07707
 O69 O -0.09589 0.58113 1.00130
 O70 O 0.12997 0.57661 1.07870
 O71 O 0.03660 0.60193 0.94295
 O72 O -0.00197 0.56906 1.14291
 O73 O -0.02593 0.43893 1.10503
 O74 O 0.03352 0.47046 0.91772
 O75 O 0.11241 0.44445 1.05647
 O76 O -0.10358 0.45170 0.96100
 Cu77 Cu 0.01844 0.59556 1.04579
 Cu78 Cu 0.00308 0.43835 1.00768
 C79 C -0.13708 0.51660 0.96531
 C80 C 0.15936 0.50876 1.07900
 C81 C 0.04368 0.54061 0.89707
 C82 C -0.02352 0.49843 1.15626
 O83 O -0.07940 -0.08782 0.42215
 O84 O 0.00475 0.12423 0.43369
 O85 O 0.06364 -0.00734 0.40625
 O86 O -0.13090 0.06090 0.43787
 O87 O -0.09201 0.05191 0.56775
 O88 O 0.10629 -0.01276 0.53617
 O89 O 0.04717 0.12254 0.56432
 O90 O -0.03303 -0.08857 0.55203
 Cu91 Cu -0.04069 0.01742 0.41182
 Cu92 Cu 0.01162 0.01660 0.56797
 C93 C -0.07148 -0.12366 0.48503
 C94 C 0.03708 0.16026 0.50258
 C95 C 0.11952 -0.01802 0.46592
 C96 C -0.14282 0.07201 0.50824
 N97 N -0.27544 0.54090 0.95575
 N98 N -0.22081 0.51627 0.92432
 N99 N 0.27303 0.43483 1.09724
 N100 N 0.24655 0.50403 1.09683
 N101 N -0.07360 -0.26266 0.46952
 N102 N -0.10995 -0.20297 0.48114
 N103 N 0.07994 0.28119 0.58240
 N104 N 0.05513 0.24543 0.51212
 N105 N 0.57197 -0.00394 -0.27859
 N106 N 0.50294 -0.00565 -0.25819
 N107 N 0.39779 -0.05705 0.20011
 N108 N 0.46761 -0.05245 0.18120
 N109 N 0.50289 -0.30355 -0.07085
 N110 N 0.45883 -0.25555 -0.10413
 N111 N 0.44662 0.23376 0.04134
 N112 N 0.50955 0.20337 0.02514
 N113 N -0.27249 0.07741 0.53490
 N114 N -0.21113 0.11318 0.52096
 N115 N 0.21554 -0.03677 0.38550
 N116 N 0.19969 -0.03214 0.45487
 N117 N -0.02687 0.52960 1.29060
 N118 N -0.04768 0.48388 1.22850
 N119 N 0.08618 0.48668 0.78745
 N120 N 0.06137 0.54819 0.82019
   
