data_POSCAR
  _audit_creation_date              2014-09-24
  _audit_creation_method            'ToBaCCo'
  _symmetry_space_group_name_H-M    'P1'
  _symmetry_Int_Tables_number       1
  _symmetry_cell_setting            triclinic
  loop_
  _symmetry_equiv_pos_as_xyz
 x,y,z
_cell_length_a 27.7658
_cell_length_b 27.7807
_cell_length_c 27.8651
_cell_angle_alpha 89.997700
_cell_angle_beta 90.148300
_cell_angle_gamma 89.853400
loop_
  _atom_site_label
  _atom_site_type_symbol
  _atom_site_fract_x
  _atom_site_fract_y
  _atom_site_fract_z
C1 C 0.31467 0.37321 1.37627
 N2 N 0.33181 0.39555 1.33651
 C3 C 0.37156 0.37813 1.31412
 N4 N 0.39389 0.33810 1.33125
 C5 C 0.37675 0.31577 1.37098
 N6 N 0.33702 0.33323 1.39335
 C7 C 1.18500 0.62923 0.87992
 N8 N 1.16275 0.66921 0.89710
 C9 C 1.12264 0.68648 0.87499
 N10 N 1.10506 0.66400 0.83543
 C11 C 1.12730 0.62402 0.81824
 N12 N 1.16738 0.60679 0.84036
 C13 C 0.68386 -0.12896 0.12027
 N14 N 0.66645 -0.10664 0.15994
 C15 C 0.62660 -0.12389 0.18206
 N16 N 0.60438 -0.16376 0.16476
 C17 C 0.62175 -0.18611 0.12509
 N18 N 0.66164 -0.16883 0.10297
 C19 C -0.18584 1.12711 -0.37707
 N20 N -0.16857 1.10491 -0.33716
 C21 C -0.12873 1.12221 -0.31480
 N22 N -0.10641 1.16197 -0.33212
 C23 C -0.12364 1.18419 -0.37202
 N24 N -0.16349 1.16687 -0.39436
 C25 C 0.68379 0.62911 0.62106
 N26 N 0.66166 0.66909 0.60365
 C27 C 0.62175 0.68667 0.62565
 N28 N 0.60427 0.66451 0.66534
 C29 C 0.62640 0.62453 0.68276
 N30 N 0.66628 0.60698 0.66075
 C31 C 0.81456 0.37284 0.12375
 N32 N 0.83191 0.39483 0.16369
 C33 C 0.87175 0.37723 0.18596
 N34 N 0.89400 0.33735 0.16852
 C35 C 0.87667 0.31534 0.12860
 N36 N 0.83682 0.33298 0.10635
 C37 C 0.31395 0.12607 0.87593
 N38 N 0.33625 0.16586 0.89327
 C39 C 0.37594 0.18331 0.87099
 N40 N 0.39308 0.16121 0.83110
 C41 C 0.37081 0.12140 0.81372
 N42 N 0.33111 0.10395 0.83601
 C43 C 0.18551 0.87156 0.37952
 N44 N 0.16333 0.83177 0.39697
 C45 C 0.12327 0.81449 0.37493
 N46 N 0.10569 0.83674 0.33521
 C47 C 0.12786 0.87652 0.31777
 N48 N 0.16787 0.89378 0.33979
 Zn49 Zn 0.05902 0.97205 0.01165
 Zn50 Zn 0.01022 1.05943 -0.02749
 Zn51 Zn -0.03717 0.96285 -0.03672
 Zn52 Zn -0.02884 1.01086 0.05944
 O53 O 0.00073 1.00123 0.00164
 O54 O 0.10866 1.00649 -0.01058
 O55 O -0.01963 1.06345 -0.08414
 O56 O -0.00748 0.90782 -0.05391
 O57 O 0.07234 1.07136 -0.03974
 O58 O 0.06332 0.91513 -0.01769
 O59 O -0.05467 0.99219 -0.09167
 O60 O -0.08560 0.98107 0.06304
 O61 O -0.01194 1.10922 0.00702
 O62 O -0.09224 0.94527 -0.00779
 O63 O -0.04117 1.07300 0.07150
 O64 O 0.00565 0.98871 0.10923
 O65 O 0.07106 0.96014 0.07369
 C66 C 0.11006 1.04685 -0.03171
 C67 C -0.04535 1.03397 -0.10748
 C68 C 0.03419 0.89183 -0.04384
 C69 C -0.10854 0.95496 0.03360
 C70 C -0.03299 1.11072 0.04730
 C71 C 0.04635 0.96804 0.11105
 Zn72 Zn 0.47072 0.01086 0.43973
 Zn73 Zn 0.46249 -0.03711 0.53582
 Zn74 Zn 0.55869 -0.02787 0.48791
 Zn75 Zn 0.50987 0.05945 0.52686
 O76 O 0.50037 0.00127 0.49765
 O77 O 0.41393 -0.01891 0.43588
 O78 O 0.49223 -0.09206 0.55319
 O79 O 0.57059 -0.03992 0.42594
 O80 O 0.40742 -0.05476 0.50666
 O81 O 0.50515 -0.01134 0.39012
 O82 O 0.56307 -0.08472 0.51741
 O83 O 0.57201 0.07149 0.53925
 O84 O 0.44500 -0.00780 0.59066
 O85 O 0.60836 0.00671 0.51015
 O86 O 0.48008 0.06345 0.58342
 O87 O 0.48767 0.10919 0.49225
 O88 O 0.45847 0.07301 0.42759
 C89 C 0.39105 -0.04507 0.46521
 C90 C 0.53392 -0.10801 0.54341
 C91 C 0.54582 -0.03205 0.38847
 C92 C 0.60977 0.04711 0.53122
 C93 C 0.45434 0.03394 0.60658
 C94 C 0.46667 0.11071 0.45184
 Zn95 Zn 1.01073 0.43971 0.47334
 Zn96 Zn 1.05914 0.52696 0.51264
 Zn97 Zn 0.96293 0.53630 0.46414
 Zn98 Zn 0.97141 0.48827 0.56032
 O99 O 1.00097 0.49788 0.50254
 O100 O 1.07292 0.42771 0.46115
 O101 O 1.06322 0.58386 0.48332
 O102 O 0.94557 0.50700 0.40914
 O103 O 1.10894 0.49250 0.49044
 O104 O 0.98097 0.43575 0.41664
 O105 O 0.99244 0.59129 0.44701
 O106 O 0.91454 0.51815 0.56389
 O107 O 1.07104 0.53892 0.57470
 O108 O 0.90778 0.55396 0.49306
 O109 O 1.00575 0.51039 0.61019
 O110 O 0.95923 0.42614 0.57226
 O111 O 0.98864 0.38995 0.50775
 C112 C 1.11053 0.45218 0.46923
 C113 C 1.03403 0.60721 0.45715
 C114 C 0.95511 0.46524 0.39330
 C115 C 0.89151 0.54430 0.53445
 C116 C 1.04633 0.53110 0.61205
 C117 C 0.96749 0.38845 0.54798
 Zn118 Zn 0.47077 0.49001 0.94053
 Zn119 Zn 0.46242 0.53795 1.03666
 Zn120 Zn 0.51019 0.44137 1.02764
 Zn121 Zn 0.55863 0.52855 0.98858
 O122 O 0.50042 0.49955 0.99843
 O123 O 0.41387 0.51987 0.93674
 O124 O 0.44510 0.50864 1.09158
 O125 O 0.48809 0.39168 0.99309
 O126 O 0.40722 0.55567 1.00754
 O127 O 0.45867 0.42790 0.92845
 O128 O 0.48048 0.43738 1.08422
 O129 O 0.60847 0.49394 1.01084
 O130 O 0.49199 0.59290 1.05393
 O131 O 0.57238 0.42923 1.03999
 O132 O 0.56279 0.58540 1.01800
 O133 O 0.57044 0.54058 0.92659
 O134 O 0.50505 0.51216 0.89084
 C135 C 0.39088 0.54602 0.96609
 C136 C 0.45463 0.46687 1.10744
 C137 C 0.46701 0.39020 0.95272
 C138 C 0.61004 0.45357 1.03195
 C139 C 0.53361 0.60877 1.04401
 C140 C 0.54566 0.53280 0.88914
 C141 C 1.27390 0.38956 0.39767
 C142 C 1.23723 0.40373 0.41598
 C143 C 1.19368 0.42022 0.43624
 C144 C 1.15597 0.43453 0.45221
 C145 C 0.22615 0.61289 0.90086
 C146 C 0.26318 0.59825 0.91829
 C147 C 0.30715 0.58072 0.93702
 C148 C 0.34516 0.56524 0.95135
 C149 C -0.27286 0.88829 0.09817
 C150 C -0.23594 0.90291 0.08089
 C151 C -0.19208 0.92039 0.06234
 C152 C -0.15415 0.93581 0.04817
 C153 C 0.77331 0.11080 0.60162
 C154 C 0.73656 0.09646 0.58354
 C155 C 0.69293 0.07965 0.56365
 C156 C 0.65520 0.06503 0.54799
 C157 C 0.39794 0.27475 0.38719
 C158 C 0.41571 0.23785 0.40164
 C159 C 0.43510 0.19406 0.41875
 C160 C 0.45032 0.15622 0.43365
 C161 C 0.89762 0.22498 0.61166
 C162 C 0.91561 0.26169 0.59730
 C163 C 0.93537 0.30528 0.58045
 C164 C 0.95089 0.34300 0.56584
 C165 C 0.10147 0.72749 -0.10881
 C166 C 0.08364 0.76439 -0.09450
 C167 C 0.06431 0.80823 -0.07752
 C168 C 0.04947 0.84617 -0.06253
 C169 C 0.60063 0.77296 1.10886
 C170 C 0.58284 0.73610 1.09456
 C171 C 0.56356 0.69231 1.07763
 C172 C 0.54878 0.65440 1.06269
 C173 C 0.38870 0.40056 1.27104
 C174 C 0.40317 0.41823 1.23430
 C175 C 0.42042 0.43730 1.19065
 C176 C 0.43566 0.45189 1.15290
 C177 C 0.60934 -0.10148 0.22511
 C178 C 0.59502 -0.08361 0.26182
 C179 C 0.57824 -0.06400 0.30541
 C180 C 0.56367 -0.04858 0.34311
 C181 C -0.11150 1.09993 -0.27155
 C182 C -0.09698 1.08238 -0.23468
 C183 C -0.07967 1.06344 -0.19089
 C184 C -0.06439 1.04892 -0.15303
 C185 C 1.10983 0.60141 0.77531
 C186 C 1.09542 0.58332 0.73869
 C187 C 1.07861 0.56341 0.69517
 C188 C 1.06407 0.54777 0.65749
 C189 C 0.72708 0.61155 0.59905
 C190 C 0.76402 0.59674 0.58179
 C191 C 0.80789 0.57909 0.56323
 C192 C 0.84585 0.56355 0.54904
 C193 C 0.77370 0.38945 1.10250
 C194 C 0.73694 0.40396 1.08442
 C195 C 0.69330 0.42092 1.06449
 C196 C 0.65554 0.43561 1.04877
 C197 C 0.27323 1.10970 -0.10278
 C198 C 0.23659 1.09547 -0.08459
 C199 C 0.19308 1.07891 -0.06449
 C200 C 0.15543 1.06453 -0.04865
 C201 C 0.22660 -0.11208 0.40036
 C202 C 0.26358 -0.09738 0.41767
 C203 C 0.30749 -0.07979 0.43625
 C204 C 0.34543 -0.06428 0.45049
 C205 C 0.60072 -0.27231 0.60923
 C206 C 0.58305 -0.23539 0.59469
 C207 C 0.56391 -0.19155 0.57745
 C208 C 0.54917 -0.15363 0.56227
 C209 C 1.10096 0.77132 0.39224
 C210 C 1.08323 0.73450 0.40661
 C211 C 1.06397 0.69073 0.42357
 C212 C 1.04919 0.65284 0.43851
 C213 C -0.10218 1.27444 0.11209
 C214 C -0.08435 1.23765 0.09748
 C215 C -0.06482 1.19398 0.08029
 C216 C -0.04947 1.15621 0.06540
 C217 C 0.39828 0.22647 0.88832
 C218 C 0.41601 0.26328 0.90280
 C219 C 0.43541 0.30696 0.91985
 C220 C 0.45066 0.34474 0.93465
 C221 C 0.60902 0.60225 0.72581
 C222 C 0.59467 0.58443 0.76250
 C223 C 0.57790 0.56481 0.80607
 C224 C 0.56339 0.54935 0.84376
 C225 C 0.38798 0.09925 0.77048
 C226 C 0.40253 0.08187 0.73361
 C227 C 0.41992 0.06315 0.68986
 C228 C 0.43527 0.04880 0.65204
 C229 C 0.11037 0.89884 0.27466
 C230 C 0.09589 0.91664 0.23791
 C231 C 0.07895 0.93620 0.19426
 C232 C 0.06428 0.95158 0.15651
 C233 C 0.88908 0.39934 0.22922
 C234 C 0.90362 0.41683 0.26610
 C235 C 0.92090 0.43576 0.30988
 C236 C 0.93614 0.45029 0.34774
   
