data_POSCAR
  _audit_creation_date              2014-09-24
  _audit_creation_method            'ToBaCCo'
  _symmetry_space_group_name_H-M    'P1'
  _symmetry_Int_Tables_number       1
  _symmetry_cell_setting            triclinic
  loop_
  _symmetry_equiv_pos_as_xyz
 x,y,z
_cell_length_a 18.8289
_cell_length_b 17.9930
_cell_length_c 18.3653
_cell_angle_alpha 92.237000
_cell_angle_beta 89.227900
_cell_angle_gamma 93.212200
loop_
  _atom_site_label
  _atom_site_type_symbol
  _atom_site_fract_x
  _atom_site_fract_y
  _atom_site_fract_z
C1 C 0.36035 0.96924 -0.57968
 C2 C 0.31952 0.98194 -0.51653
 C3 C 0.34975 1.00704 -0.45080
 C4 C 0.42438 1.01822 -0.44607
 C5 C 0.46819 0.99990 -0.50714
 C6 C 0.43640 0.97575 -0.57465
 C7 C 0.48156 0.95212 -0.63163
 C8 C 0.55566 0.95691 -0.62451
 C9 C 0.58867 0.98585 -0.56013
 C10 C 0.54386 1.00401 -0.49962
 C11 C 0.45631 1.04826 -0.38223
 C12 C 0.52934 1.05028 -0.37424
 C13 C 0.57397 1.02363 -0.43034
 C14 C 0.64780 1.01810 -0.41895
 C15 C 0.69138 1.00264 -0.48004
 C16 C 0.66439 0.99034 -0.55115
 H17 H 0.46013 0.92596 -0.68118
 H18 H 0.58620 0.93304 -0.66879
 H19 H 0.42524 1.07006 -0.33718
 H20 H 0.55024 1.07409 -0.32344
 H21 H 0.26185 0.97535 -0.51901
 H22 H 0.74787 0.99835 -0.47240
 C23 C -0.63073 1.45672 0.05554
 C24 C -0.66008 1.52558 0.04728
 C25 C -0.62101 1.58621 0.01680
 C26 C -0.55037 1.57575 -0.00802
 C27 C -0.51866 1.50754 0.00391
 C28 C -0.55807 1.44886 0.03803
 C29 C -0.52319 1.38482 0.05513
 C30 C -0.45406 1.37451 0.03125
 C31 C -0.41579 1.42949 -0.00772
 C32 C -0.44722 1.49780 -0.01875
 C33 C -0.51169 1.62987 -0.04829
 C34 C -0.44198 1.62006 -0.07034
 C35 C -0.40739 1.55634 -0.05243
 C36 C -0.33453 1.54851 -0.06917
 C37 C -0.30608 1.47886 -0.06327
 C38 C -0.34605 1.41884 -0.03376
 H39 H -0.54861 1.34208 0.08783
 H40 H -0.43047 1.32354 0.04518
 H41 H -0.53501 1.67975 -0.06536
 H42 H -0.41584 1.66262 -0.10284
 H43 H -0.71404 1.53153 0.06675
 H44 H -0.25155 1.47182 -0.08070
 C45 C -0.08096 0.44195 0.34236
 C46 C -0.09564 0.51242 0.31805
 C47 C -0.10177 0.57423 0.36641
 C48 C -0.09615 0.56477 0.44204
 C49 C -0.08376 0.49355 0.46811
 C50 C -0.08106 0.43125 0.41869
 C51 C -0.08335 0.36006 0.44751
 C52 C -0.07301 0.35075 0.52109
 C53 C -0.06467 0.41251 0.57039
 C54 C -0.07332 0.48466 0.54385
 C55 C -0.10301 0.62452 0.49255
 C56 C -0.09302 0.61566 0.56633
 C57 C -0.07138 0.54806 0.59244
 C58 C -0.05320 0.54022 0.66648
 C59 C -0.04402 0.46878 0.69122
 C60 C -0.04718 0.40473 0.64465
 H61 H -0.09376 0.31030 0.41359
 H62 H -0.07160 0.29403 0.53746
 H63 H -0.11645 0.67892 0.47601
 H64 H -0.10409 0.66246 0.60243
 H65 H -0.09845 0.52061 0.25995
 H66 H -0.03421 0.46325 0.74874
 O67 O -0.15098 1.03838 -0.11365
 O68 O 0.20632 0.98096 -0.08072
 O69 O 0.04873 1.12152 -0.16737
 O70 O 0.02402 0.92022 -0.19627
 O71 O -0.00176 0.82427 -0.11923
 O72 O 0.05739 1.20074 -0.06570
 O73 O 0.13170 1.00531 -0.17446
 O74 O -0.05302 1.03661 -0.19078
 Zr75 Zr 0.03156 1.01476 -0.12369
 O76 O 0.07611 0.93337 -0.06661
 O77 O -0.02757 1.08400 -0.05832
 C78 C -0.11990 1.04376 -0.17747
 C79 C 0.19300 0.99050 -0.14879
 C80 C 0.05597 1.18711 -0.13530
 C81 C 0.01092 0.85041 -0.18308
 H82 H 0.13665 1.09633 -0.07218
 O83 O 0.09873 1.06588 -0.04776
 H84 H -0.08181 0.92728 -0.11502
 O85 O -0.05066 0.95214 -0.07743
 O86 O 0.18688 0.97325 0.11453
 O87 O -0.17538 1.01778 0.08434
 O88 O 0.14194 1.17673 0.04031
 O89 O 0.07558 0.80127 -0.01814
 O90 O -0.10916 0.82793 -0.02917
 O91 O -0.04256 1.20460 0.01909
 O92 O 0.01034 1.08519 0.20284
 O93 O -0.02238 0.88335 0.17417
 O94 O 0.03643 1.18154 0.12589
 O95 O -0.02662 0.80527 0.07140
 O96 O 0.21339 1.07685 0.03009
 O97 O -0.14431 1.12999 -0.00313
 O98 O -0.18087 0.92779 -0.02296
 O99 O 0.17748 0.87561 0.00349
 O100 O 0.09250 0.97754 0.19616
 O101 O -0.10155 0.99461 0.17971
 Zr102 Zr 0.13960 0.98485 0.01288
 Zr103 Zr -0.10733 1.02050 -0.00878
 Zr104 Zr 0.03872 1.12997 0.02147
 Zr105 Zr -0.00582 0.87571 -0.01509
 Zr106 Zr 0.00131 0.99022 0.13070
 O107 O -0.06639 0.93975 0.05348
 O108 O 0.08368 1.05315 0.08356
 C109 C 0.15996 0.97344 0.17987
 C110 C -0.16348 1.00618 0.15255
 C111 C 0.20323 1.14735 0.03962
 C112 C 0.14331 0.81151 -0.00890
 C113 C -0.17048 0.85709 -0.02937
 C114 C -0.11004 1.19425 0.00786
 C115 C 0.02271 1.15516 0.18947
 C116 C -0.02980 0.81808 0.14099
 H117 H -0.07149 1.10335 0.10305
 O118 O -0.04314 1.07047 0.07126
 H119 H 0.08183 0.88412 0.09311
 O120 O 0.06053 0.92218 0.06421
 C121 C 0.31993 0.95153 0.35698
 C122 C 0.33430 0.97842 0.29100
 C123 C 0.28167 0.97365 0.23093
 C124 C 0.21027 0.96980 0.24093
 H125 H 0.38396 1.00968 0.28084
 H126 H 0.30338 0.98006 0.17650
 H127 H 0.26771 0.92458 0.36514
 H128 H 0.18755 0.96867 0.29529
 C129 C -0.28325 0.98064 0.39293
 C130 C -0.28753 0.99808 0.32253
 C131 C -0.22452 0.99171 0.27308
 C132 C -0.22626 1.00853 0.20257
 H133 H -0.33434 1.02233 0.30226
 H134 H -0.17551 0.97369 0.29519
 H135 H -0.23128 0.96530 0.41015
 H136 H -0.27574 1.02526 0.18041
 C137 C -0.32394 1.02188 -0.34711
 C138 C -0.25572 1.03981 -0.33085
 C139 C -0.22814 1.03666 -0.25566
 C140 C -0.16031 1.05860 -0.24315
 H141 H -0.21886 1.05824 -0.37303
 H142 H -0.26078 1.01175 -0.21305
 H143 H -0.35929 1.00974 -0.30162
 H144 H -0.12889 1.08105 -0.28803
 C145 C 0.29941 1.02250 -0.39010
 C146 C 0.30404 0.99399 -0.32432
 C147 C 0.24714 1.00474 -0.26994
 C148 C 0.25240 0.98369 -0.20129
 H149 H 0.34834 0.96098 -0.31155
 H150 H 0.19941 1.02998 -0.28699
 H151 H 0.25264 1.05189 -0.40282
 H152 H 0.30093 0.96067 -0.18346
 C153 C 0.32008 1.39492 0.08014
 C154 C 0.31940 1.32616 0.04953
 C155 C 0.26157 1.27064 0.06484
 C156 C 0.26649 1.19901 0.04407
 H157 H 0.35852 1.31201 0.00823
 H158 H 0.21234 1.28976 0.08827
 H159 H 0.27751 1.40874 0.11780
 H160 H 0.31670 1.17955 0.02356
 C161 C 0.34883 0.65633 0.01341
 C162 C 0.27897 0.66463 0.00875
 C163 C 0.24978 0.73861 0.00528
 C164 C 0.18134 0.74257 -0.01053
 H165 H 0.24217 0.61635 0.00342
 H166 H 0.28308 0.78865 0.01695
 H167 H 0.38339 0.70639 0.01207
 H168 H 0.14967 0.69131 -0.02224
 C169 C -0.28436 0.61167 -0.08796
 C170 C -0.28568 0.67841 -0.05321
 C171 C -0.22766 0.73526 -0.06205
 C172 C -0.23320 0.80498 -0.03535
 H173 H -0.32703 0.68964 -0.01334
 H174 H -0.17812 0.71858 -0.08686
 H175 H -0.23987 0.60023 -0.12402
 H176 H -0.28367 0.82271 -0.01383
 C177 C -0.31474 1.34519 -0.03157
 C178 C -0.24793 1.33858 -0.01098
 C179 C -0.21647 1.26569 -0.00990
 C180 C -0.14862 1.26282 0.00870
 H181 H -0.21570 1.38805 0.00563
 H182 H -0.24771 1.21537 -0.02581
 H183 H -0.34780 1.29556 -0.04556
 H184 H -0.11842 1.31429 0.02328
 C185 C -0.06374 1.38746 0.28825
 C186 C -0.02063 1.33162 0.29788
 C187 C -0.00700 1.27753 0.23810
 C188 C 0.01622 1.21009 0.25026
 H189 H 0.00648 1.32591 0.34873
 H190 H -0.02035 1.29161 0.18321
 H191 H -0.08172 1.39482 0.23320
 H192 H 0.02423 1.19333 0.30546
 C193 C -0.03227 1.33511 -0.32720
 C194 C 0.01239 1.32838 -0.27189
 C195 C 0.02226 1.25592 -0.24028
 C196 C 0.06031 1.25285 -0.17986
 H197 H 0.04232 1.37663 -0.24884
 H198 H -0.00722 1.20656 -0.26183
 H199 H -0.05552 1.28404 -0.35152
 H200 H 0.08583 1.30356 -0.15626
 C201 C -0.04308 0.59936 -0.28132
 C202 C -0.01620 0.66811 -0.29492
 C203 C -0.00976 0.72417 -0.23485
 C204 C 0.00875 0.79596 -0.24518
 H205 H 0.00277 0.68281 -0.34866
 H206 H -0.02296 0.70602 -0.18046
 H207 H -0.05153 0.58628 -0.22450
 H208 H 0.02066 0.81489 -0.29952
 C209 C -0.10664 0.64924 0.33603
 C210 C -0.06258 0.67099 0.28252
 C211 C -0.06388 0.74414 0.24937
 C212 C -0.03593 0.75025 0.18274
 H213 H -0.02424 0.63268 0.26110
 H214 H -0.08774 0.79072 0.27753
 H215 H -0.14456 0.68719 0.35862
 H216 H -0.01704 0.70065 0.15488
   
