data_POSCAR
  _audit_creation_date              2014-09-24
  _audit_creation_method            'ToBaCCo'
  _symmetry_space_group_name_H-M    'P1'
  _symmetry_Int_Tables_number       1
  _symmetry_cell_setting            triclinic
  loop_
  _symmetry_equiv_pos_as_xyz
 x,y,z
_cell_length_a 22.1132
_cell_length_b 22.0097
_cell_length_c 22.2091
_cell_angle_alpha 90.105300
_cell_angle_beta 89.829000
_cell_angle_gamma 89.867800
loop_
  _atom_site_label
  _atom_site_type_symbol
  _atom_site_fract_x
  _atom_site_fract_y
  _atom_site_fract_z
C1 C 0.53304 0.93393 -0.68254
 C2 C 0.47138 0.94060 -0.68397
 C3 C 0.45499 0.97251 -0.63232
 N4 N 0.50442 0.98408 -0.59875
 C5 C 0.55198 0.96088 -0.62962
 C6 C 0.39613 0.99459 -0.61880
 C7 C 0.37907 1.00801 -0.55790
 C8 C 0.32861 1.04134 -0.54001
 C9 C 0.32791 1.04202 -0.47785
 C10 C 0.37868 1.01052 -0.45901
 N11 N 0.40950 0.98983 -0.50789
 C12 C 0.39443 0.99981 -0.39793
 C13 C 0.45349 0.98287 -0.38023
 C14 C 0.46884 0.96025 -0.32405
 C15 C 0.53072 0.95533 -0.32305
 C16 C 0.55123 0.97579 -0.37842
 N17 N 0.50387 0.99216 -0.41349
 C18 C 0.61263 0.98075 -0.39615
 C19 C 0.62797 0.99197 -0.45680
 C20 C 0.68156 1.01832 -0.47632
 C21 C 0.68166 1.01483 -0.53793
 C22 C 0.62787 0.98715 -0.55404
 N23 N 0.59484 0.97428 -0.50455
 C24 C 0.61257 0.96919 -0.61263
 H25 H 0.56080 0.91223 -0.71659
 H26 H 0.44199 0.92438 -0.71938
 H27 H 0.55579 0.94782 -0.50326
 H28 H 0.29587 1.06370 -0.56853
 H29 H 0.29440 1.06419 -0.44974
 H30 H 0.43855 0.94855 -0.28751
 H31 H 0.55738 0.93843 -0.28587
 H32 H 0.71753 1.03014 -0.56745
 H33 H 0.44662 0.96064 -0.50678
 H34 H 0.71734 1.03715 -0.44891
 C35 C -0.68171 1.54826 0.05676
 C36 C -0.68671 1.48640 0.06092
 C37 C -0.63200 1.46206 0.04160
 N38 N -0.59473 1.50746 0.02372
 C39 C -0.62516 1.56023 0.03241
 C40 C -0.61893 1.39916 0.03448
 C41 C -0.55901 1.37740 0.02463
 C42 C -0.54314 1.31785 0.01015
 C43 C -0.48123 1.31437 0.01135
 C44 C -0.46049 1.37124 0.02787
 N45 N -0.50799 1.40931 0.03602
 C46 C -0.39925 1.38545 0.03895
 C47 C -0.37812 1.44539 0.04518
 C48 C -0.32079 1.46137 0.06459
 C49 C -0.31635 1.52313 0.05779
 C50 C -0.37104 1.54245 0.03419
 N51 N -0.40875 1.49496 0.02674
 C52 C -0.38397 1.60176 0.01443
 C53 C -0.44339 1.62027 0.00006
 C54 C -0.45778 1.67088 -0.03405
 C55 C -0.51972 1.67556 -0.03377
 C56 C -0.54152 1.62793 0.00098
 N57 N -0.49468 1.59392 0.02080
 C58 C -0.60322 1.61863 0.01595
 H59 H -0.71637 1.58049 0.06979
 H60 H -0.72670 1.46281 0.07608
 H61 H -0.49738 1.55908 0.05237
 H62 H -0.57237 1.27956 0.00170
 H63 H -0.45471 1.27387 0.00274
 H64 H -0.28558 1.43151 0.08102
 H65 H -0.27708 1.55045 0.06809
 H66 H -0.54579 1.71029 -0.05645
 H67 H -0.50593 1.45227 0.05540
 H68 H -0.42687 1.70138 -0.05667
 C69 C 0.03408 0.53477 0.31324
 C70 C 0.04448 0.47332 0.31436
 C71 C 0.02079 0.45242 0.36832
 N72 N -0.00236 0.49903 0.40070
 C73 C 0.00553 0.54929 0.36705
 C74 C 0.01729 0.39118 0.38670
 C75 C 0.00233 0.37727 0.44675
 C76 C -0.02721 0.32496 0.46513
 C77 C -0.02845 0.32646 0.52669
 C78 C 0.00062 0.37951 0.54401
 N79 N 0.01768 0.41131 0.49499
 C80 C 0.01525 0.39481 0.60388
 C81 C 0.01838 0.45669 0.62179
 C82 C 0.03834 0.47812 0.67689
 C83 C 0.02911 0.53986 0.67677
 C84 C 0.00590 0.55490 0.62058
 N85 N -0.00096 0.50367 0.58749
 C86 C -0.01480 0.61344 0.60247
 C87 C -0.03056 0.62660 0.54151
 C88 C -0.05849 0.67958 0.52151
 C89 C -0.05924 0.67741 0.45959
 C90 C -0.03076 0.62393 0.44283
 N91 N -0.01349 0.59328 0.49286
 C92 C -0.01660 0.60726 0.38268
 H93 H 0.04638 0.56533 0.27712
 H94 H 0.06666 0.44713 0.27938
 H95 H 0.01490 0.55557 0.49345
 H96 H -0.04554 0.28928 0.43703
 H97 H -0.04765 0.29193 0.55560
 H98 H 0.05698 0.45219 0.71380
 H99 H 0.03796 0.56950 0.71452
 H100 H -0.07692 0.71238 0.43027
 H101 H 0.04486 0.45001 0.49462
 H102 H -0.07488 0.71740 0.54804
 O103 O -0.15674 1.01062 -0.08532
 O104 O 0.15441 0.99538 -0.08939
 O105 O -0.00062 1.08615 -0.16167
 O106 O -0.00102 0.91959 -0.16022
 O107 O -0.00187 0.84657 -0.08547
 O108 O 0.00210 1.15907 -0.08711
 O109 O 0.07932 0.99542 -0.16172
 O110 O -0.08469 1.00596 -0.16046
 Zr111 Zr -0.00168 1.00274 -0.11245
 O112 O 0.05159 0.94708 -0.05949
 O113 O -0.05439 1.06011 -0.06143
 C114 C -0.14021 1.01000 -0.14116
 C115 C 0.13537 0.99266 -0.14491
 C116 C -0.00031 1.14230 -0.14274
 C117 C 0.00037 0.86383 -0.14134
 H118 H 0.08182 1.08049 -0.08757
 O119 O 0.05543 1.05568 -0.06138
 H120 H -0.08419 0.92400 -0.08475
 O121 O -0.05743 0.94967 -0.05980
 O122 O 0.15446 1.00213 0.07789
 O123 O -0.15682 1.00887 0.07416
 O124 O 0.08532 1.15696 -0.00505
 O125 O 0.07562 0.84518 -0.00739
 O126 O -0.08775 0.85022 -0.00082
 O127 O -0.07794 1.16192 -0.01139
 O128 O 0.00187 1.09000 0.14731
 O129 O -0.00362 0.92567 0.15036
 O130 O 0.00361 1.16138 0.07153
 O131 O -0.00676 0.84929 0.07903
 O132 O 0.15770 1.08117 -0.00680
 O133 O -0.15392 1.09041 -0.00714
 O134 O -0.15842 0.92740 0.00009
 O135 O 0.15236 0.91615 -0.00747
 O136 O 0.07859 1.00630 0.14935
 O137 O -0.08448 1.00527 0.14860
 Zr138 Zr 0.10625 1.00047 -0.00597
 Zr139 Zr -0.10669 1.00724 -0.00574
 Zr140 Zr 0.00241 1.10978 -0.00735
 Zr141 Zr -0.00439 0.89706 -0.00427
 Zr142 Zr -0.00164 1.00617 0.09991
 O143 O -0.05754 0.95143 0.04980
 O144 O 0.05592 1.05805 0.04813
 C145 C 0.13490 1.00398 0.13354
 C146 C -0.14012 1.00686 0.12982
 C147 C 0.14073 1.13762 -0.00561
 C148 C 0.13214 0.86076 -0.00901
 C149 C -0.14280 0.87068 0.00238
 C150 C -0.13434 1.14575 -0.01008
 C151 C 0.00290 1.14557 0.12750
 C152 C -0.00522 0.86908 0.13432
 H153 H -0.07954 1.08842 0.07308
 O154 O -0.05420 1.06145 0.04780
 H155 H 0.07704 0.92228 0.07464
 O156 O 0.05179 0.94865 0.04891
 C157 C 0.37615 1.02839 0.27686
 C158 C 0.35526 1.00434 0.33226
 C159 C 0.29389 0.98777 0.33627
 C160 C 0.25536 0.99319 0.28622
 C161 C 0.27787 1.01441 0.23039
 C162 C 0.33833 1.03261 0.22660
 C163 C 0.23946 1.01721 0.17961
 C164 C 0.17820 1.00083 0.18485
 C165 C 0.15643 0.98190 0.24159
 C166 C 0.19452 0.97720 0.29118
 H167 H 0.27649 0.96798 0.37746
 H168 H 0.35648 1.05020 0.18476
 H169 H 0.25686 1.03296 0.13673
 H170 H 0.17610 0.96150 0.33366
 H171 H 0.42233 1.04405 0.27221
 H172 H 0.10938 0.97035 0.24801
 C173 C -0.28767 0.92733 0.35290
 C174 C -0.33838 0.96429 0.34197
 C175 C -0.33947 1.00152 0.29096
 C176 C -0.28980 1.00313 0.25187
 C177 C -0.23796 0.96731 0.26401
 C178 C -0.23771 0.92894 0.31430
 C179 C -0.18759 0.97036 0.22546
 C180 C -0.18950 1.00741 0.17419
 C181 C -0.24156 1.04198 0.16224
 C182 C -0.29100 1.04048 0.20107
 H183 H -0.37829 1.03055 0.28283
 H184 H -0.19870 0.90082 0.32415
 H185 H -0.14795 0.94266 0.23414
 H186 H -0.33039 1.06798 0.19097
 H187 H -0.28622 0.89854 0.39239
 H188 H -0.24411 1.07010 0.12246
 C189 C -0.28735 0.94242 -0.36747
 C190 C -0.33987 0.97638 -0.35366
 C191 C -0.34165 1.00959 -0.29951
 C192 C -0.29124 1.01082 -0.26132
 C193 C -0.23842 0.97767 -0.27661
 C194 C -0.23732 0.94299 -0.32940
 C195 C -0.18777 0.97946 -0.23865
 C196 C -0.18984 1.01315 -0.18507
 C197 C -0.24239 1.04626 -0.17050
 C198 C -0.29249 1.04539 -0.20841
 H199 H -0.38090 1.03718 -0.28865
 H200 H -0.19757 0.91678 -0.34160
 H201 H -0.14769 0.95317 -0.24969
 H202 H -0.33239 1.07128 -0.19603
 H203 H -0.28494 0.91547 -0.40829
 H204 H -0.24483 1.07262 -0.12930
 C205 C 0.36013 1.05166 -0.30277
 C206 C 0.34862 1.00962 -0.34913
 C207 C 0.29662 0.97323 -0.34560
 C208 C 0.25762 0.97745 -0.29546
 C209 C 0.27066 1.01860 -0.24815
 C210 C 0.32171 1.05600 -0.25274
 C211 C 0.23221 1.02187 -0.19740
 C212 C 0.18002 0.98567 -0.19430
 C213 C 0.16738 0.94538 -0.24183
 C214 C 0.20601 0.94083 -0.29155
 H215 H 0.28761 0.94053 -0.38100
 H216 H 0.33231 1.08816 -0.21733
 H217 H 0.24172 1.05381 -0.16144
 H218 H 0.19516 0.90909 -0.32725
 H219 H 0.40001 1.08008 -0.30467
 H220 H 0.12722 0.91728 -0.24045
 C221 C 0.29895 1.34796 0.08872
 C222 C 0.33309 1.35680 0.03588
 C223 C 0.32047 1.32083 -0.01502
 C224 C 0.27631 1.27533 -0.01259
 C225 C 0.24169 1.26752 0.04047
 C226 C 0.25306 1.30440 0.09069
 C227 C 0.19689 1.22246 0.04251
 C228 C 0.18813 1.18389 -0.00702
 C229 C 0.22355 1.19086 -0.05895
 C230 C 0.26687 1.23681 -0.06206
 H231 H 0.34601 1.32762 -0.05625
 H232 H 0.22741 1.29863 0.13193
 H233 H 0.16949 1.21671 0.08267
 H234 H 0.29331 1.24190 -0.10289
 H235 H 0.30865 1.37400 0.12898
 H236 H 0.21678 1.16142 -0.09749
 C237 C 0.37314 0.72565 0.03780
 C238 C 0.35648 0.66895 0.01319
 C239 C 0.29926 0.66370 -0.01412
 C240 C 0.25884 0.71286 -0.01462
 C241 C 0.27601 0.76905 0.01097
 C242 C 0.33347 0.77509 0.03656
 C243 C 0.23510 0.81792 0.01137
 C244 C 0.17670 0.81082 -0.01234
 C245 C 0.16030 0.75486 -0.03812
 C246 C 0.20114 0.70647 -0.03967
 H247 H 0.28628 0.62140 -0.03555
 H248 H 0.34739 0.81776 0.05653
 H249 H 0.24807 0.86081 0.03161
 H250 H 0.18727 0.66378 -0.05965
 H251 H 0.41646 0.73133 0.05974
 H252 H 0.11576 0.74851 -0.05727
 C253 C -0.28333 0.62994 -0.03037
 C254 C -0.33326 0.64532 0.00595
 C255 C -0.33506 0.70239 0.03418
 C256 C -0.28760 0.74374 0.02628
 C257 C -0.23686 0.72741 -0.00926
 C258 C -0.23523 0.67039 -0.03744
 C259 C -0.18895 0.76859 -0.01637
 C260 C -0.19210 0.82646 0.01019
 C261 C -0.24311 0.84247 0.04469
 C262 C -0.29020 0.80130 0.05313
 H263 H -0.37356 0.71449 0.06213
 H264 H -0.19702 0.65725 -0.06525
 H265 H -0.14993 0.75619 -0.04345
 H266 H -0.32877 0.81459 0.08037
 H267 H -0.28158 0.58638 -0.05308
 H268 H -0.24615 0.88673 0.06595
 C269 C -0.35570 1.28974 0.08219
 C270 C -0.35402 1.33567 0.03851
 C271 C -0.30944 1.33432 -0.00653
 C272 C -0.26642 1.28767 -0.00788
 C273 C -0.26842 1.24126 0.03605
 C274 C -0.31322 1.24266 0.08090
 C275 C -0.22535 1.19451 0.03448
 C276 C -0.18000 1.19412 -0.00978
 C277 C -0.17837 1.24019 -0.05313
 C278 C -0.22139 1.28664 -0.05239
 H279 H -0.30843 1.36976 -0.04039
 H280 H -0.31529 1.20751 0.11494
 H281 H -0.22622 1.15916 0.06827
 H282 H -0.21944 1.32168 -0.08655
 H283 H -0.38998 1.29043 0.11713
 H284 H -0.14462 1.23951 -0.08827
 C285 C 0.05467 1.28924 0.36097
 C286 C 0.02377 1.34301 0.34485
 C287 C -0.00409 1.34596 0.28814
 C288 C -0.00215 1.29624 0.24894
 C289 C 0.02802 1.24224 0.26611
 C290 C 0.05678 1.23946 0.32203
 C291 C 0.02873 1.19204 0.22705
 C292 C 0.00049 1.19598 0.17079
 C293 C -0.02928 1.24994 0.15426
 C294 C -0.03084 1.29951 0.19307
 H295 H -0.03008 1.38577 0.27556
 H296 H 0.08053 1.19871 0.33585
 H297 H 0.05208 1.15064 0.23976
 H298 H -0.05434 1.34044 0.17931
 H299 H 0.07738 1.28578 0.40400
 H300 H -0.05182 1.25368 0.11116
 C301 C 0.05438 1.29314 -0.37191
 C302 C 0.02289 1.34644 -0.35456
 C303 C -0.00550 1.34759 -0.29791
 C304 C -0.00414 1.29640 -0.26052
 C305 C 0.02520 1.24243 -0.27968
 C306 C 0.05510 1.24170 -0.33521
 C307 C 0.02444 1.19049 -0.24272
 C308 C -0.00338 1.19309 -0.18595
 C309 C -0.03078 1.24773 -0.16706
 C310 C -0.03221 1.29837 -0.20423
 H311 H -0.03173 1.38692 -0.28414
 H312 H 0.07870 1.20129 -0.35048
 H313 H 0.04707 1.14915 -0.25706
 H314 H -0.05428 1.33945 -0.18841
 H315 H 0.07785 1.29097 -0.41476
 H316 H -0.05051 1.25171 -0.12270
 C317 C -0.07946 0.68296 -0.33949
 C318 C -0.02178 0.65938 -0.35323
 C319 C 0.02860 0.68176 -0.32152
 C320 C 0.02148 0.72639 -0.27668
 C321 C -0.03669 0.75016 -0.26392
 C322 C -0.08679 0.72814 -0.29567
 C323 C -0.04366 0.79537 -0.21951
 C324 C 0.00671 0.81612 -0.18725
 C325 C 0.06410 0.79188 -0.19960
 C326 C 0.07155 0.74759 -0.24422
 H327 H 0.07341 0.66455 -0.33206
 H328 H -0.13174 0.74548 -0.28626
 H329 H -0.08800 0.81419 -0.20982
 H330 H 0.11642 0.72982 -0.25323
 H331 H -0.11914 0.66580 -0.36237
 H332 H 0.10326 0.80775 -0.17499
 C333 C -0.06314 0.63844 0.28444
 C334 C -0.02498 0.65199 0.33319
 C335 C 0.00857 0.70587 0.33250
 C336 C 0.00485 0.74552 0.28329
 C337 C -0.03266 0.73114 0.23367
 C338 C -0.06688 0.67760 0.23503
 C339 C -0.03521 0.77060 0.18382
 C340 C -0.00172 0.82475 0.18401
 C341 C 0.03499 0.83835 0.23376
 C342 C 0.03857 0.79912 0.28271
 H343 H 0.03845 0.71616 0.36977
 H344 H -0.09609 0.66578 0.19774
 H345 H -0.06398 0.75999 0.14581
 H346 H 0.06762 0.81083 0.32017
 H347 H -0.08917 0.59681 0.28427
 H348 H 0.06158 0.87942 0.23448
   
