data_POSCAR
  _audit_creation_date              2014-09-24
  _audit_creation_method            'ToBaCCo'
  _symmetry_space_group_name_H-M    'P1'
  _symmetry_Int_Tables_number       1
  _symmetry_cell_setting            triclinic
  loop_
  _symmetry_equiv_pos_as_xyz
 x,y,z
_cell_length_a 50.3585
_cell_length_b 50.3747
_cell_length_c 50.4260
_cell_angle_alpha 89.942900
_cell_angle_beta 89.968000
_cell_angle_gamma 90.009000
loop_
  _atom_site_label
  _atom_site_type_symbol
  _atom_site_fract_x
  _atom_site_fract_y
  _atom_site_fract_z
C1 C 0.18684 0.22401 0.21627
 C2 C 0.20160 0.23142 0.19387
 C3 C 0.22365 0.21679 0.18648
 C4 C 0.23121 0.19452 0.20139
 C5 C 0.21663 0.18721 0.22349
 C6 C 0.19429 0.20204 0.23097
 C7 C 0.16455 0.23451 0.22805
 N8 N 0.15831 0.21941 0.24949
 C9 C 0.17637 0.19950 0.25143
 C10 C 0.22846 0.16496 0.23405
 N11 N 0.24979 0.15860 0.21886
 C12 C 0.25164 0.17655 0.19883
 C13 C 0.23405 0.22852 0.16409
 N14 N 0.21880 0.24984 0.15776
 C15 C 0.19891 0.25176 0.17584
 H16 H 0.15363 0.25183 0.22149
 H17 H 0.17647 0.18429 0.26662
 H18 H 0.22198 0.15416 0.25147
 H19 H 0.26674 0.17653 0.18354
 H20 H 0.25139 0.22201 0.15319
 H21 H 0.18362 0.26687 0.17589
 C22 C 0.68648 0.72350 0.71620
 C23 C 0.70129 0.73095 0.69383
 C24 C 0.72332 0.71630 0.68643
 C25 C 0.73082 0.69397 0.70128
 C26 C 0.71621 0.68662 0.72335
 C27 C 0.69389 0.70147 0.73084
 C28 C 0.66420 0.73400 0.72802
 N29 N 0.65794 0.71884 0.74942
 C30 C 0.67597 0.69889 0.75129
 C31 C 0.72799 0.66433 0.73386
 N32 N 0.74934 0.65799 0.71868
 C33 C 0.75123 0.67599 0.69870
 C34 C 0.73378 0.72806 0.66411
 N35 N 0.71860 0.74943 0.65780
 C36 C 0.69868 0.75135 0.67585
 H37 H 0.65331 0.75136 0.72153
 H38 H 0.67605 0.68364 0.76643
 H39 H 0.72149 0.65350 0.75125
 H40 H 0.76636 0.67600 0.68343
 H41 H 0.75113 0.72154 0.65322
 H42 H 0.68342 0.76650 0.67591
 C43 C 0.31229 0.77664 0.71691
 C44 C 0.29752 0.76923 0.69454
 C45 C 0.27556 0.78396 0.68707
 C46 C 0.26811 0.80633 0.70185
 C47 C 0.28268 0.81362 0.72393
 C48 C 0.30493 0.79869 0.73149
 C49 C 0.33452 0.76606 0.72875
 N50 N 0.34081 0.78121 0.75010
 C51 C 0.32284 0.80122 0.75194
 C52 C 0.27097 0.83597 0.73437
 N53 N 0.24966 0.84244 0.71913
 C54 C 0.24778 0.82440 0.69918
 C55 C 0.26512 0.77221 0.66475
 N56 N 0.28025 0.75078 0.65853
 C57 C 0.30011 0.74881 0.67663
 H58 H 0.34537 0.74868 0.72228
 H59 H 0.32281 0.81648 0.76704
 H60 H 0.27753 0.84673 0.75176
 H61 H 0.23275 0.82438 0.68383
 H62 H 0.24783 0.77879 0.65381
 H63 H 0.31532 0.73362 0.67675
 C64 C 0.81357 0.27605 0.21673
 C65 C 0.79884 0.26851 0.19438
 C66 C 0.77679 0.28309 0.18689
 C67 C 0.76920 0.30543 0.20164
 C68 C 0.78374 0.31286 0.22369
 C69 C 0.80609 0.29809 0.23127
 C70 C 0.83586 0.26562 0.22861
 N71 N 0.84210 0.28085 0.24996
 C72 C 0.82397 0.30078 0.25171
 C73 C 0.77187 0.33515 0.23410
 N74 N 0.75054 0.34140 0.21887
 C75 C 0.74874 0.32335 0.19896
 C76 C 0.76642 0.27127 0.16459
 N77 N 0.78168 0.24994 0.15837
 C78 C 0.80156 0.24809 0.17647
 H79 H 0.84674 0.24826 0.22212
 H80 H 0.82376 0.31612 0.26675
 H81 H 0.77830 0.34604 0.25144
 H82 H 0.73365 0.32326 0.18368
 H83 H 0.74910 0.27774 0.15364
 H84 H 0.81686 0.23300 0.17659
 C85 C 0.81361 0.72418 0.28218
 C86 C 0.79878 0.73172 0.30448
 C87 C 0.77675 0.71709 0.31194
 C88 C 0.76928 0.69469 0.29724
 C89 C 0.78390 0.68724 0.27524
 C90 C 0.80624 0.70207 0.26768
 C91 C 0.83592 0.73464 0.27032
 N92 N 0.84227 0.71938 0.24902
 C93 C 0.82420 0.69939 0.24727
 C94 C 0.77211 0.66488 0.26488
 N95 N 0.75075 0.65862 0.28011
 C96 C 0.74886 0.67673 0.29995
 C97 C 0.76625 0.72891 0.33419
 N98 N 0.78141 0.75030 0.34042
 C99 C 0.80136 0.75219 0.32237
 H100 H 0.84673 0.75205 0.27680
 H101 H 0.82409 0.68402 0.23227
 H102 H 0.77861 0.65395 0.24759
 H103 H 0.73373 0.67683 0.31521
 H104 H 0.74891 0.72238 0.34509
 H105 H 0.81662 0.76734 0.32228
 C106 C 0.31321 0.22395 -0.21737
 C107 C 0.29826 0.23155 -0.19517
 C108 C 0.27619 0.21692 -0.18780
 C109 C 0.26881 0.19449 -0.20249
 C110 C 0.28355 0.18700 -0.22440
 C111 C 0.30593 0.20182 -0.23187
 C112 C 0.33560 0.23439 -0.22909
 N113 N 0.34211 0.21909 -0.25031
 C114 C 0.32404 0.19910 -0.25215
 C115 C 0.27183 0.16462 -0.23478
 N116 N 0.25036 0.15832 -0.21965
 C117 C 0.24840 0.17651 -0.19984
 C118 C 0.26559 0.22881 -0.16562
 N119 N 0.28071 0.25022 -0.15939
 C120 C 0.30075 0.25206 -0.17733
 H121 H 0.34637 0.25181 -0.22256
 H122 H 0.32404 0.18369 -0.26711
 H123 H 0.27849 0.15371 -0.25204
 H124 H 0.23323 0.17670 -0.18460
 H125 H 0.24819 0.22232 -0.15479
 H126 H 0.31601 0.26720 -0.17740
 C127 C 0.68734 0.27557 -0.21708
 C128 C 0.70221 0.26804 -0.19480
 C129 C 0.72422 0.28271 -0.18741
 C130 C 0.73163 0.30513 -0.20216
 C131 C 0.71698 0.31256 -0.22415
 C132 C 0.69466 0.29769 -0.23164
 C133 C 0.66503 0.26508 -0.22884
 N134 N 0.65860 0.28034 -0.25015
 C135 C 0.67664 0.30035 -0.25199
 C136 C 0.72873 0.33495 -0.23457
 N137 N 0.75011 0.34129 -0.21938
 C138 C 0.75201 0.32314 -0.19950
 C139 C 0.73475 0.27090 -0.16516
 N140 N 0.71963 0.24947 -0.15888
 C141 C 0.69968 0.24756 -0.17688
 H142 H 0.65425 0.24766 -0.22229
 H143 H 0.67669 0.31574 -0.26701
 H144 H 0.72213 0.34582 -0.25189
 H145 H 0.76710 0.32299 -0.18420
 H146 H 0.75209 0.27744 -0.15429
 H147 H 0.68444 0.23239 -0.17694
 C148 C 0.18702 0.77645 0.28287
 C149 C 0.20171 0.76899 0.30528
 C150 C 0.22369 0.78365 0.31278
 C151 C 0.23124 0.80600 0.29799
 C152 C 0.21677 0.81336 0.27586
 C153 C 0.19448 0.79850 0.26826
 C154 C 0.16479 0.76594 0.27099
 N155 N 0.15858 0.78110 0.24959
 C156 C 0.17662 0.80107 0.24776
 C157 C 0.22861 0.83569 0.26544
 N158 N 0.24990 0.84207 0.28075
 C159 C 0.25163 0.82399 0.30072
 C160 C 0.23405 0.77188 0.33514
 N161 N 0.21885 0.75049 0.34137
 C162 C 0.19902 0.74856 0.32324
 H163 H 0.15388 0.74858 0.27747
 H164 H 0.17673 0.81634 0.23264
 H165 H 0.22215 0.84650 0.24803
 H166 H 0.26661 0.82389 0.31613
 H167 H 0.25133 0.77841 0.34610
 H168 H 0.18377 0.73341 0.32311
 C169 C 0.47395 0.43700 0.46733
 C170 C 0.48142 0.45179 0.44496
 C171 C 0.46676 0.47381 0.43753
 C172 C 0.44442 0.48130 0.45235
 C173 C 0.43705 0.46671 0.47443
 C174 C 0.45191 0.44440 0.48195
 C175 C 0.48445 0.41471 0.47916
 N176 N 0.46928 0.40843 0.50053
 C177 C 0.44933 0.42646 0.50240
 C178 C 0.41473 0.47851 0.48488
 N179 N 0.40839 0.49983 0.46964
 C180 C 0.42643 0.50170 0.44970
 C181 C 0.47853 0.48425 0.41520
 N182 N 0.49990 0.46907 0.40890
 C183 C 0.50182 0.44916 0.42698
 H184 H 0.50181 0.40383 0.47266
 H185 H 0.43406 0.42652 0.51753
 H186 H 0.40385 0.47202 0.50224
 H187 H 0.42646 0.51678 0.43439
 H188 H 0.47199 0.50158 0.40429
 H189 H 0.51696 0.43390 0.42704
 C190 C -0.02565 -0.06329 0.96713
 C191 C -0.01808 -0.04840 0.94486
 C192 C -0.03268 -0.02633 0.93748
 C193 C -0.05507 -0.01888 0.95225
 C194 C -0.06253 -0.03355 0.97423
 C195 C -0.04774 -0.05593 0.98170
 C196 C -0.01522 -0.08565 0.97888
 N197 N -0.03049 -0.09207 1.00019
 C198 C -0.05044 -0.07398 1.00204
 C199 C -0.08487 -0.02177 0.98467
 N200 N -0.09115 -0.00033 0.96951
 C201 C -0.07301 0.00156 0.94962
 C202 C -0.02083 -0.01579 0.91524
 N203 N 0.00055 -0.03096 0.90896
 C204 C 0.00240 -0.05096 0.92694
 H205 H 0.00217 -0.09647 0.97232
 H206 H -0.06582 -0.07391 1.01707
 H207 H -0.09575 -0.02837 1.00200
 H208 H -0.07282 0.01668 0.93434
 H209 H -0.02731 0.00159 0.90439
 H210 H 0.01752 -0.06623 0.92699
 C211 C 1.02569 0.56296 0.96745
 C212 C 1.01813 0.54812 0.94519
 C213 C 1.03280 0.52612 0.93776
 C214 C 1.05523 0.51869 0.95245
 C215 C 1.06269 0.53332 0.97443
 C216 C 1.04783 0.55564 0.98196
 C217 C 1.01522 0.58527 0.97923
 N218 N 1.03050 0.59169 1.00050
 C219 C 1.05051 0.57365 1.00230
 C220 C 1.08509 0.52156 0.98478
 N221 N 1.09140 0.50020 0.96956
 C222 C 1.07322 0.49833 0.94973
 C223 C 1.02096 0.51561 0.91553
 N224 N 0.99953 0.53073 0.90930
 C225 C 0.99764 0.55066 0.92731
 H226 H 0.99779 0.59605 0.97271
 H227 H 1.06591 0.57360 1.01728
 H228 H 1.09600 0.52814 1.00207
 H229 H 1.07304 0.48325 0.93443
 H230 H 1.02749 0.49828 0.90465
 H231 H 0.98247 0.56589 0.92740
 C232 C 0.52651 0.06254 0.46741
 C233 C 0.51896 0.04778 0.44508
 C234 C 0.53360 0.02579 0.43758
 C235 C 0.55601 0.01828 0.45228
 C236 C 0.56345 0.03282 0.47431
 C237 C 0.54861 0.05512 0.48192
 C238 C 0.51605 0.08480 0.47928
 N239 N 0.53131 0.09105 0.50057
 C240 C 0.55128 0.07302 0.50234
 C241 C 0.58582 0.02102 0.48466
 N242 N 0.59215 -0.00030 0.46939
 C243 C 0.57400 -0.00209 0.44952
 C244 C 0.52174 0.01536 0.41532
 N245 N 0.50032 0.03053 0.40914
 C246 C 0.49846 0.05041 0.42722
 H247 H 0.49866 0.09569 0.47286
 H248 H 0.56661 0.07295 0.51739
 H249 H 0.59670 0.02754 0.50200
 H250 H 0.57384 -0.01712 0.43417
 H251 H 0.52824 -0.00195 0.40439
 H252 H 0.48330 0.06565 0.42737
 C253 C -0.02620 0.06362 0.53367
 C254 C -0.01867 0.04880 0.55599
 C255 C -0.03323 0.02669 0.56338
 C256 C -0.05554 0.01913 0.54857
 C257 C -0.06296 0.03375 0.52654
 C258 C -0.04821 0.05615 0.51906
 C259 C -0.01579 0.08597 0.52187
 N260 N -0.03099 0.09221 0.50052
 C261 C -0.05087 0.07410 0.49865
 C262 C -0.08521 0.02190 0.51604
 N263 N -0.09146 0.00049 0.53119
 C264 C -0.07345 -0.00137 0.55113
 C265 C -0.02140 0.01624 0.58567
 N266 N -0.00008 0.03150 0.59195
 C267 C 0.00174 0.05147 0.57393
 H268 H 0.00153 0.09692 0.52835
 H269 H -0.06613 0.07398 0.48353
 H270 H -0.09608 0.02839 0.49869
 H271 H -0.07337 -0.01652 0.56638
 H272 H -0.02784 -0.00115 0.59654
 H273 H 0.01682 0.06679 0.57386
 C274 C 0.47374 0.56337 0.03288
 C275 C 0.48123 0.54851 0.05520
 C276 C 0.46657 0.52648 0.06260
 C277 C 0.44420 0.51903 0.04782
 C278 C 0.43682 0.53369 0.02581
 C279 C 0.45167 0.55602 0.01831
 C280 C 0.48424 0.58568 0.02108
 N281 N 0.46902 0.59206 -0.00026
 C282 C 0.44904 0.57400 -0.00208
 C283 C 0.41449 0.52194 0.01536
 N284 N 0.40816 0.50056 0.03052
 C285 C 0.42621 0.49862 0.05043
 C286 C 0.47835 0.51598 0.08489
 N287 N 0.49973 0.53115 0.09118
 C288 C 0.50165 0.55109 0.07314
 H289 H 0.50164 0.59648 0.02761
 H290 H 0.43370 0.57390 -0.01712
 H291 H 0.40362 0.52849 -0.00198
 H292 H 0.42624 0.48347 0.06567
 H293 H 0.47181 0.49864 0.09578
 H294 H 0.51679 0.56636 0.07308
 C295 C 0.52650 -0.06338 0.03394
 C296 C 0.51906 -0.04861 0.05630
 C297 C 0.53376 -0.02663 0.06373
 C298 C 0.55613 -0.01915 0.04891
 C299 C 0.56347 -0.03374 0.02685
 C300 C 0.54857 -0.05600 0.01933
 C301 C 0.51594 -0.08561 0.02211
 N302 N 0.53110 -0.09188 0.00074
 C303 C 0.55111 -0.07390 -0.00112
 C304 C 0.58581 -0.02198 0.01637
 N305 N 0.59219 -0.00068 0.03157
 C306 C 0.57417 0.00121 0.05152
 C307 C 0.52199 -0.01619 0.08604
 N308 N 0.50057 -0.03134 0.09231
 C309 C 0.49863 -0.05121 0.07424
 H310 H 0.49854 -0.09646 0.02860
 H311 H 0.56637 -0.07384 -0.01625
 H312 H 0.59665 -0.02847 -0.00100
 H313 H 0.57418 0.01630 0.06680
 H314 H 0.52854 0.00111 0.09695
 H315 H 0.48344 -0.06644 0.07415
 C316 C 1.02614 0.43771 0.53331
 C317 C 1.01876 0.45233 0.55579
 C318 C 1.03342 0.47430 0.56329
 C319 C 1.05570 0.48194 0.54842
 C320 C 1.06299 0.46752 0.52624
 C321 C 1.04812 0.44524 0.51865
 C322 C 1.01562 0.41550 0.52143
 N323 N 1.03072 0.40938 0.49997
 C324 C 1.05065 0.42745 0.49811
 C325 C 1.08525 0.47940 0.51574
 N326 N 1.09168 0.50065 0.53105
 C327 C 1.07369 0.50233 0.55111
 C328 C 1.02170 0.48457 0.58572
 N329 N 1.00036 0.46931 0.59197
 C330 C 0.99840 0.44954 0.57379
 H331 H 0.99830 0.40455 0.52795
 H332 H 1.06586 0.42762 0.48293
 H333 H 1.09599 0.47298 0.49827
 H334 H 1.07365 0.51728 0.56653
 H335 H 1.02824 0.50183 0.59670
 H336 H 0.98327 0.43427 0.57367
 C337 C 0.41629 0.01173 0.21576
 H338 H 0.41799 0.02924 0.22806
 C339 C 0.43368 0.00805 0.19450
 H340 H 0.44866 0.02295 0.19054
 C341 C 0.39478 -0.02902 0.20638
 H342 H 0.37985 -0.04361 0.21128
 C343 C 0.41169 -0.03347 0.18489
 H344 H 0.40938 -0.05146 0.17338
 N345 N 0.39716 -0.00655 0.22112
 C346 C 0.33359 0.03495 0.26262
 H347 H 0.33180 0.02270 0.28017
 C348 C 0.31634 0.05631 0.25883
 H349 H 0.30138 0.06041 0.27370
 C350 C 0.35514 0.04407 0.22184
 H351 H 0.37002 0.03902 0.20727
 C352 C 0.33837 0.06567 0.21729
 H353 H 0.34075 0.07710 0.19925
 Zn354 Zn 0.37480 -0.00033 0.25066
 N355 N 0.35267 0.02939 0.24436
 C356 C 0.39463 0.02829 0.29506
 N357 N 0.39696 0.00578 0.28037
 C358 C 0.41595 -0.01260 0.28586
 C359 C 0.43327 -0.00895 0.30716
 C360 C 0.41147 0.03270 0.31661
 C361 C 0.33339 -0.03526 0.23841
 C362 C 0.31599 -0.05656 0.24199
 C363 C 0.33782 -0.06635 0.28351
 C364 C 0.35473 -0.04480 0.27917
 N365 N 0.35243 -0.02995 0.25675
 H366 H 0.37983 0.04296 0.29007
 H367 H 0.41763 -0.03013 0.27359
 H368 H 0.44816 -0.02391 0.31120
 H369 H 0.40921 0.05073 0.32805
 H370 H 0.33175 -0.02289 0.22093
 H371 H 0.30107 -0.06048 0.22705
 H372 H 0.34008 -0.07793 0.30147
 H373 H 0.36958 -0.03994 0.29381
 C374 C 0.31865 0.07207 0.23593
 C375 C 0.43146 -0.01478 0.17867
 C376 C 0.31813 -0.07250 0.26477
 C377 C 0.43112 0.01393 0.32292
 C378 C 0.08430 -0.01153 0.71535
 H379 H 0.08260 -0.02903 0.72769
 C380 C 0.06689 -0.00785 0.69411
 H381 H 0.05191 -0.02275 0.69021
 C382 C 0.10579 0.02923 0.70586
 H383 H 0.12071 0.04382 0.71070
 C384 C 0.08886 0.03368 0.68439
 H385 H 0.09117 0.05166 0.67284
 N386 N 0.10342 0.00676 0.72065
 C387 C 0.16717 -0.03457 0.76206
 H388 H 0.16902 -0.02223 0.77952
 C389 C 0.18441 -0.05594 0.75832
 H390 H 0.19944 -0.05996 0.77314
 C391 C 0.14541 -0.04392 0.72149
 H392 H 0.13046 -0.03897 0.70697
 C393 C 0.16217 -0.06554 0.71700
 H394 H 0.15970 -0.07708 0.69906
 Zn395 Zn 0.12580 0.00055 0.75018
 N396 N 0.14799 -0.02913 0.74389
 C397 C 0.10610 -0.02818 0.79463
 N398 N 0.10366 -0.00567 0.77991
 C399 C 0.08460 0.01262 0.78542
 C400 C 0.06732 0.00888 0.80677
 C401 C 0.08930 -0.03268 0.81621
 C402 C 0.16718 0.03559 0.73791
 C403 C 0.18453 0.05691 0.74151
 C404 C 0.16255 0.06662 0.78298
 C405 C 0.14570 0.04505 0.77863
 N406 N 0.14809 0.03021 0.75624
 H407 H 0.12097 -0.04278 0.78962
 H408 H 0.08283 0.03016 0.77314
 H409 H 0.05237 0.02378 0.81082
 H410 H 0.09165 -0.05071 0.82768
 H411 H 0.16889 0.02323 0.72046
 H412 H 0.19949 0.06086 0.72659
 H413 H 0.16023 0.07819 0.80091
 H414 H 0.13082 0.04015 0.79326
 C415 C 0.18199 -0.07183 0.73557
 C416 C 0.06909 0.01498 0.67823
 C417 C 0.18229 0.07283 0.76426
 C418 C 0.06958 -0.01400 0.82256
 C419 C 0.58364 0.48790 0.21482
 H420 H 0.58194 0.47035 0.22709
 C421 C 0.56634 0.49160 0.19350
 H422 H 0.55142 0.47667 0.18947
 C423 C 0.60506 0.52876 0.20557
 H424 H 0.61990 0.54339 0.21054
 C425 C 0.58823 0.53322 0.18402
 H426 H 0.59054 0.55126 0.17255
 N427 N 0.60269 0.50623 0.22027
 C428 C 0.66622 0.46487 0.26197
 H429 H 0.66792 0.47715 0.27948
 C430 C 0.68356 0.44356 0.25829
 H431 H 0.69849 0.43953 0.27320
 C432 C 0.64481 0.45561 0.22119
 H433 H 0.62996 0.46059 0.20658
 C434 C 0.66167 0.43406 0.21674
 H435 H 0.65938 0.42259 0.19874
 Zn436 Zn 0.62497 0.50001 0.24987
 N437 N 0.64718 0.47033 0.24366
 C438 C 0.60510 0.47130 0.29426
 N439 N 0.60276 0.49384 0.27957
 C440 C 0.58379 0.51221 0.28510
 C441 C 0.56651 0.50855 0.30646
 C442 C 0.58830 0.46687 0.31586
 C443 C 0.66631 0.53502 0.23756
 C444 C 0.68370 0.55630 0.24114
 C445 C 0.66195 0.56591 0.28275
 C446 C 0.64503 0.54438 0.27841
 N447 N 0.64730 0.52962 0.25595
 H448 H 0.61989 0.45663 0.28923
 H449 H 0.58210 0.52977 0.27284
 H450 H 0.55164 0.52351 0.31055
 H451 H 0.59058 0.44882 0.32731
 H452 H 0.66793 0.52270 0.22007
 H453 H 0.69860 0.56028 0.22617
 H454 H 0.65973 0.57742 0.30074
 H455 H 0.63021 0.53946 0.29308
 C456 C 0.68137 0.42776 0.23544
 C457 C 0.56855 0.51449 0.17770
 C458 C 0.68160 0.57215 0.26396
 C459 C 0.56869 0.48564 0.32224
 C460 C 0.91608 0.51151 0.71573
 H461 H 0.91771 0.52899 0.72808
 C462 C 0.93350 0.50796 0.69448
 H463 H 0.94843 0.52292 0.69057
 C464 C 0.89472 0.47072 0.70621
 H465 H 0.87984 0.45607 0.71105
 C466 C 0.91167 0.46639 0.68471
 H467 H 0.90941 0.44844 0.67315
 N468 N 0.89701 0.49315 0.72102
 C469 C 0.83316 0.53434 0.76238
 H470 H 0.83137 0.52207 0.77991
 C471 C 0.81587 0.55566 0.75857
 H472 H 0.80086 0.55970 0.77341
 C473 C 0.85480 0.54358 0.72167
 H474 H 0.86973 0.53859 0.70713
 C475 C 0.83798 0.56513 0.71710
 H476 H 0.84038 0.57660 0.69909
 Zn477 Zn 0.87456 0.49925 0.75052
 N478 N 0.85231 0.52887 0.74417
 C479 C 0.89413 0.52797 0.79496
 N480 N 0.89661 0.50547 0.78027
 C481 C 0.91568 0.48718 0.78582
 C482 C 0.93291 0.49092 0.80718
 C483 C 0.91089 0.53247 0.81655
 C484 C 0.83329 0.46415 0.73819
 C485 C 0.81596 0.44280 0.74177
 C486 C 0.83781 0.43308 0.78330
 C487 C 0.85465 0.45468 0.77897
 N488 N 0.85231 0.46953 0.75655
 H489 H 0.87927 0.54257 0.78992
 H490 H 0.91747 0.46966 0.77356
 H491 H 0.94786 0.47603 0.81126
 H492 H 0.90850 0.55049 0.82799
 H493 H 0.83162 0.47652 0.72072
 H494 H 0.80106 0.43884 0.72683
 H495 H 0.84009 0.42150 0.80126
 H496 H 0.86947 0.45959 0.79362
 C497 C 0.81820 0.57146 0.73571
 C498 C 0.93137 0.48518 0.67856
 C499 C 0.81814 0.42686 0.76455
 C500 C 0.93060 0.51379 0.82293
 C501 C 0.21425 0.41684 0.01152
 H502 H 0.22667 0.41848 0.02895
 C503 C 0.19293 0.43421 0.00802
 H504 H 0.18903 0.44912 0.02297
 C505 C 0.20463 0.39551 -0.02921
 H506 H 0.20947 0.38067 -0.04387
 C507 C 0.18306 0.41239 -0.03346
 H508 H 0.17143 0.41013 -0.05137
 N509 N 0.21954 0.39782 -0.00685
 C510 C 0.26141 0.33400 0.03395
 H511 H 0.27890 0.33234 0.02159
 C512 C 0.25780 0.31660 0.05523
 H513 H 0.27274 0.30166 0.05914
 C514 C 0.22063 0.35541 0.04347
 H515 H 0.20599 0.37030 0.03862
 C516 C 0.21625 0.33849 0.06498
 H517 H 0.19828 0.34077 0.07655
 Zn518 Zn 0.24921 0.37550 -0.00088
 N519 N 0.24307 0.35308 0.02865
 C520 C 0.29363 0.39519 0.02784
 N521 N 0.27890 0.39769 0.00537
 C522 C 0.28438 0.41681 -0.01287
 C523 C 0.30574 0.43409 -0.00913
 C524 C 0.31522 0.41199 0.03234
 C525 C 0.23702 0.33441 -0.03615
 C526 C 0.24074 0.31714 -0.05747
 C527 C 0.28237 0.33904 -0.06689
 C528 C 0.27789 0.35583 -0.04533
 N529 N 0.25536 0.35342 -0.03064
 H530 H 0.28863 0.38028 0.04240
 H531 H 0.27209 0.41862 -0.03037
 H532 H 0.30978 0.44909 -0.02398
 H533 H 0.32670 0.40959 0.05033
 H534 H 0.21947 0.33266 -0.02388
 H535 H 0.22581 0.30222 -0.06152
 H536 H 0.30043 0.34136 -0.07833
 H537 H 0.29253 0.37065 -0.04032
 C538 C 0.23500 0.31877 0.07115
 C539 C 0.17693 0.43206 -0.01470
 C540 C 0.26365 0.31936 -0.07323
 C541 C 0.32155 0.43176 0.01371
 C542 C 0.71606 0.08303 -0.01193
 H543 H 0.72833 0.08126 -0.02946
 C544 C 0.69471 0.06575 -0.00816
 H545 H 0.69065 0.05079 -0.02301
 C546 C 0.70686 0.10456 0.02879
 H547 H 0.71187 0.11944 0.04334
 C548 C 0.68527 0.08776 0.03334
 H549 H 0.67380 0.09012 0.05135
 N550 N 0.72156 0.10212 0.00629
 C551 C 0.76328 0.16554 -0.03534
 H552 H 0.78083 0.16730 -0.02311
 C553 C 0.75952 0.18280 -0.05670
 H554 H 0.77443 0.19774 -0.06080
 C555 C 0.72244 0.14405 -0.04443
 H556 H 0.70782 0.12920 -0.03937
 C557 C 0.71792 0.16084 -0.06602
 H558 H 0.69987 0.15849 -0.07743
 Zn559 Zn 0.75122 0.12435 -0.00005
 N560 N 0.74497 0.14649 -0.02978
 C561 C 0.79573 0.10447 -0.02857
 N562 N 0.78090 0.10209 -0.00614
 C563 C 0.78627 0.08303 0.01219
 C564 C 0.80758 0.06567 0.00856
 C565 C 0.81730 0.08761 -0.03295
 C566 C 0.73905 0.16576 0.03482
 C567 C 0.74267 0.18312 0.05608
 C568 C 0.78425 0.16125 0.06576
 C569 C 0.77986 0.14436 0.04426
 N570 N 0.75740 0.14670 0.02948
 H571 H 0.79083 0.11934 -0.04320
 H572 H 0.77392 0.08133 0.02967
 H573 H 0.81154 0.05073 0.02349
 H574 H 0.82885 0.08992 -0.05091
 H575 H 0.72155 0.16743 0.02250
 H576 H 0.72772 0.19805 0.06002
 H577 H 0.80223 0.15896 0.07729
 H578 H 0.79449 0.12948 0.03938
 C579 C 0.73661 0.18054 -0.07243
 C580 C 0.67891 0.06803 0.01471
 C581 C 0.76549 0.18094 0.07195
 C582 C 0.82349 0.06788 -0.01423
 C583 C 0.21436 0.58383 0.48816
 H584 H 0.22671 0.58208 0.47069
 C585 C 0.19302 0.56651 0.49185
 H586 H 0.18905 0.55154 0.47699
 C587 C 0.20493 0.60537 0.52883
 H588 H 0.20984 0.62027 0.54340
 C589 C 0.18334 0.58854 0.53328
 H590 H 0.17178 0.59090 0.55123
 N591 N 0.21975 0.60293 0.50641
 C592 C 0.26168 0.66640 0.46507
 H593 H 0.27918 0.66810 0.47738
 C594 C 0.25805 0.68371 0.44374
 H595 H 0.27300 0.69863 0.43973
 C596 C 0.22085 0.64498 0.45575
 H597 H 0.20620 0.63013 0.46071
 C598 C 0.21646 0.66182 0.43418
 H599 H 0.19847 0.65951 0.42267
 Zn600 Zn 0.24944 0.62516 0.50021
 N601 N 0.24332 0.64736 0.47051
 C602 C 0.29388 0.60521 0.47164
 N603 N 0.27912 0.60289 0.49412
 C604 C 0.28458 0.58389 0.51250
 C605 C 0.30592 0.56658 0.50888
 C606 C 0.31546 0.58837 0.46725
 C607 C 0.23724 0.66652 0.53514
 C608 C 0.24089 0.68389 0.55639
 C609 C 0.28247 0.66202 0.56602
 C610 C 0.27806 0.64513 0.54453
 N611 N 0.25558 0.64746 0.52978
 H612 H 0.28891 0.62002 0.45697
 H613 H 0.27227 0.58223 0.53001
 H614 H 0.30995 0.55169 0.52385
 H615 H 0.32696 0.59064 0.44925
 H616 H 0.21973 0.66820 0.52283
 H617 H 0.22595 0.69883 0.56035
 H618 H 0.30048 0.65974 0.57753
 H619 H 0.29270 0.63027 0.53963
 C620 C 0.23521 0.68150 0.42789
 C621 C 0.17711 0.56879 0.51464
 C622 C 0.26373 0.68172 0.57223
 C623 C 0.32176 0.56874 0.48603
 C624 C 0.71495 0.91643 0.51156
 H625 H 0.72731 0.91808 0.52902
 C626 C 0.69363 0.93378 0.50799
 H627 H 0.68968 0.94869 0.52293
 C628 C 0.70546 0.89508 0.47081
 H629 H 0.71034 0.88024 0.45617
 C630 C 0.68388 0.91195 0.46649
 H631 H 0.67231 0.90968 0.44855
 N632 N 0.72030 0.89740 0.49322
 C633 C 0.76196 0.83361 0.53427
 H634 H 0.77952 0.83193 0.52201
 C635 C 0.75822 0.81623 0.55554
 H636 H 0.77313 0.80128 0.55955
 C637 C 0.72113 0.85504 0.54354
 H638 H 0.70652 0.86993 0.53859
 C639 C 0.71662 0.83814 0.56504
 H640 H 0.69858 0.84044 0.57651
 Zn641 Zn 0.74994 0.87509 0.49932
 N642 N 0.74366 0.85269 0.52884
 C643 C 0.79428 0.89480 0.52818
 N644 N 0.77961 0.89728 0.50568
 C645 C 0.78512 0.91641 0.48746
 C646 C 0.80644 0.93372 0.49126
 C647 C 0.81583 0.91163 0.53275
 C648 C 0.73788 0.83400 0.46401
 C649 C 0.74162 0.81679 0.44265
 C650 C 0.78326 0.83872 0.43332
 C651 C 0.77875 0.85546 0.45492
 N652 N 0.75620 0.85302 0.46959
 H653 H 0.78926 0.87987 0.54273
 H654 H 0.77287 0.91820 0.46992
 H655 H 0.81050 0.94872 0.47642
 H656 H 0.82727 0.90924 0.55077
 H657 H 0.72031 0.83224 0.47625
 H658 H 0.72669 0.80189 0.43854
 H659 H 0.80132 0.84108 0.42190
 H660 H 0.79338 0.87027 0.45999
 C661 C 0.73532 0.81842 0.57133
 C662 C 0.67769 0.93162 0.48524
 C663 C 0.76454 0.81907 0.42691
 C664 C 0.82219 0.93141 0.51414
 C665 C 0.01177 0.21587 0.41616
 H666 H 0.02926 0.22823 0.41781
 C667 C 0.00815 0.19459 0.43355
 H668 H 0.02309 0.19067 0.44848
 C669 C -0.02902 0.20637 0.39479
 H670 H -0.04365 0.21123 0.37992
 C671 C -0.03341 0.18485 0.41171
 H672 H -0.05139 0.17328 0.40944
 N673 N -0.00657 0.22119 0.39710
 C674 C 0.03468 0.26283 0.33345
 H675 H 0.02237 0.28034 0.33168
 C676 C 0.05601 0.25911 0.31615
 H677 H 0.06003 0.27399 0.30117
 C678 C 0.04399 0.22207 0.35501
 H679 H 0.03902 0.20748 0.36990
 C680 C 0.06555 0.21758 0.33819
 H681 H 0.07705 0.19958 0.34056
 Zn682 Zn -0.00044 0.25078 0.37475
 N683 N 0.02924 0.24455 0.35255
 C684 C 0.02819 0.29527 0.39441
 N685 N 0.00570 0.28052 0.39683
 C686 C -0.01264 0.28597 0.41586
 C687 C -0.00896 0.30731 0.43313
 C688 C 0.03263 0.31685 0.41120
 C689 C -0.03541 0.23844 0.33348
 C690 C -0.05671 0.24202 0.31612
 C691 C -0.06654 0.28354 0.33796
 C692 C -0.04499 0.27921 0.35483
 N693 N -0.03011 0.25680 0.35250
 H694 H 0.04283 0.29030 0.37958
 H695 H -0.03016 0.27366 0.41761
 H696 H -0.02389 0.31132 0.44805
 H697 H 0.05065 0.32834 0.40887
 H698 H -0.02302 0.22099 0.33182
 H699 H -0.06061 0.22707 0.30121
 H700 H -0.07814 0.30149 0.34023
 H701 H -0.04014 0.29386 0.36967
 C702 C 0.07184 0.23625 0.31844
 C703 C -0.01467 0.17868 0.43140
 C704 C -0.07267 0.26479 0.31828
 C705 C 0.01391 0.32313 0.43088
 C706 C -0.01221 0.71467 0.08306
 H707 H -0.02968 0.72703 0.08125
 C708 C -0.00855 0.69328 0.06584
 H709 H -0.02344 0.68929 0.05088
 C710 C 0.02849 0.70524 0.10464
 H711 H 0.04308 0.71017 0.11951
 C712 C 0.03290 0.68360 0.08791
 H713 H 0.05085 0.67203 0.09032
 N714 N 0.00607 0.72008 0.10213
 C715 C -0.03505 0.76198 0.16568
 H716 H -0.02263 0.77943 0.16740
 C717 C -0.05636 0.75835 0.18304
 H718 H -0.06025 0.77323 0.19802
 C719 C -0.04465 0.72132 0.14416
 H720 H -0.03982 0.70673 0.12925
 C721 C -0.06622 0.71693 0.16103
 H722 H -0.07784 0.69901 0.15869
 Zn723 Zn -0.00008 0.74981 0.12428
 N724 N -0.02975 0.74371 0.14657
 C725 C -0.02863 0.79436 0.10452
 N726 N -0.00624 0.77947 0.10201
 C727 C 0.01202 0.78483 0.08286
 C728 C 0.00837 0.80619 0.06558
 C729 C -0.03303 0.81598 0.08773
 C730 C 0.03503 0.73775 0.16557
 C731 C 0.05636 0.74147 0.18286
 C732 C 0.06598 0.78295 0.16078
 C733 C 0.04441 0.77847 0.14397
 N734 N 0.02962 0.75602 0.14645
 H735 H -0.04320 0.78948 0.11946
 H736 H 0.02947 0.77243 0.08106
 H737 H 0.02325 0.81014 0.05058
 H738 H -0.05095 0.82759 0.09015
 H739 H 0.02269 0.72026 0.16736
 H740 H 0.06033 0.72659 0.19785
 H741 H 0.07751 0.80094 0.15839
 H742 H 0.03949 0.79305 0.12906
 C743 C -0.07235 0.73560 0.18079
 C744 C 0.01422 0.67734 0.06819
 C745 C 0.07223 0.76430 0.18055
 C746 C -0.01437 0.82218 0.06794
 C747 C 0.48836 0.21466 0.58467
 H748 H 0.47086 0.22700 0.58296
 C749 C 0.49202 0.19335 0.56736
 H750 H 0.47709 0.18939 0.55244
 C751 C 0.52916 0.20525 0.60609
 H752 H 0.54378 0.21016 0.62094
 C753 C 0.53358 0.18371 0.58925
 H754 H 0.55157 0.17217 0.59155
 N755 N 0.50669 0.22004 0.60371
 C756 C 0.46538 0.26173 0.66726
 H757 H 0.47773 0.27922 0.66904
 C758 C 0.44397 0.25806 0.68449
 H759 H 0.43995 0.27295 0.69943
 C760 C 0.45600 0.22103 0.64571
 H761 H 0.46095 0.20645 0.63084
 C762 C 0.43434 0.21661 0.66246
 H763 H 0.42278 0.19865 0.66006
 Zn764 Zn 0.50051 0.24968 0.62595
 N765 N 0.47082 0.24347 0.64819
 C766 C 0.47182 0.29412 0.60614
 N767 N 0.49431 0.27937 0.60373
 C768 C 0.51261 0.28482 0.58465
 C769 C 0.50891 0.30615 0.56733
 C770 C 0.46735 0.31568 0.58929
 C771 C 0.53565 0.23756 0.66722
 C772 C 0.55703 0.24122 0.68446
 C773 C 0.56665 0.28272 0.66241
 C774 C 0.54503 0.27830 0.64566
 N775 N 0.53022 0.25586 0.64814
 H776 H 0.45721 0.28916 0.62101
 H777 H 0.53014 0.27252 0.58291
 H778 H 0.52381 0.31016 0.55238
 H779 H 0.44933 0.32718 0.59163
 H780 H 0.52331 0.22006 0.66900
 H781 H 0.56104 0.22632 0.69941
 H782 H 0.57820 0.30070 0.66002
 H783 H 0.54008 0.29291 0.63079
 C784 C 0.42804 0.23528 0.68216
 C785 C 0.51485 0.17748 0.56956
 C786 C 0.57293 0.26403 0.68213
 C787 C 0.48604 0.32198 0.56957
 C788 C 0.51178 0.71472 0.91651
 H789 H 0.52928 0.72707 0.91821
 C790 C 0.50815 0.69339 0.93384
 H791 H 0.52308 0.68941 0.94876
 C792 C 0.47099 0.70530 0.89511
 H793 H 0.45635 0.71022 0.88027
 C794 C 0.46660 0.68372 0.91195
 H795 H 0.44862 0.67217 0.90965
 N796 N 0.49344 0.72012 0.89748
 C797 C 0.53456 0.76202 0.83390
 H798 H 0.52227 0.77955 0.83225
 C799 C 0.55584 0.75836 0.81651
 H800 H 0.55981 0.77330 0.80159
 C801 C 0.54391 0.72116 0.85525
 H802 H 0.53898 0.70652 0.87011
 C803 C 0.56542 0.71673 0.83834
 H804 H 0.57691 0.69871 0.84059
 Zn805 Zn 0.49956 0.74981 0.87525
 N806 N 0.52917 0.74366 0.85294
 C807 C 0.52834 0.79413 0.89508
 N808 N 0.50581 0.77942 0.89747
 C809 C 0.48751 0.78485 0.91654
 C810 C 0.49125 0.80612 0.93387
 C811 C 0.53285 0.81564 0.91193
 C812 C 0.46437 0.73773 0.83410
 C813 C 0.44303 0.74144 0.81683
 C814 C 0.43356 0.78302 0.83872
 C815 C 0.45513 0.77853 0.85552
 N816 N 0.46985 0.75603 0.85312
 H817 H 0.54294 0.78917 0.88021
 H818 H 0.46996 0.77257 0.91826
 H819 H 0.47635 0.81012 0.94882
 H820 H 0.55089 0.82710 0.90962
 H821 H 0.47666 0.72020 0.83237
 H822 H 0.43899 0.72654 0.80191
 H823 H 0.42208 0.80104 0.84104
 H824 H 0.46013 0.79314 0.87035
 C825 C 0.57165 0.73548 0.81865
 C826 C 0.48533 0.67749 0.93164
 C827 C 0.42723 0.76432 0.81905
 C828 C 0.51415 0.82191 0.93165
 N829 N 0.12006 0.24497 0.26376
 C830 C 0.13632 0.22373 0.26706
 N831 N 0.13136 0.20662 0.28729
 N832 N 0.11090 0.21060 0.30357
 C833 C 0.09461 0.23185 0.30032
 N834 N 0.09964 0.24896 0.28007
 N835 N 0.61974 0.74438 0.76386
 C836 C 0.63598 0.72311 0.76704
 N837 N 0.63105 0.70592 0.78721
 N838 N 0.61064 0.70986 0.80355
 C839 C 0.59436 0.73114 0.80044
 N840 N 0.59936 0.74832 0.78025
 N841 N 0.37897 0.75557 0.76448
 C842 C 0.36278 0.77688 0.76769
 N843 N 0.36779 0.79403 0.78782
 N844 N 0.38823 0.79004 0.80410
 C845 C 0.40447 0.76873 0.80094
 N846 N 0.39938 0.75157 0.78079
 N847 N -0.12037 0.25600 0.26322
 C848 C -0.13708 0.27689 0.26668
 N849 N -0.13253 0.29376 0.28719
 N850 N -0.11211 0.28992 0.30353
 C851 C -0.09540 0.26903 0.30009
 N852 N -0.09998 0.25215 0.27960
 N853 N -0.13222 0.70649 0.21184
 C854 C -0.13686 0.72337 0.23233
 N855 N -0.12021 0.74431 0.23579
 N856 N -0.09978 0.74820 0.21943
 C857 C -0.09511 0.73131 0.19897
 N858 N -0.11176 0.71037 0.19553
 N859 N 0.37972 0.24401 0.73674
 C860 C 0.36311 0.22306 0.73316
 N861 N 0.36794 0.20615 0.71275
 N862 N 0.38853 0.21002 0.69661
 C863 C 0.40514 0.23097 0.70016
 N864 N 0.40028 0.24789 0.72056
 N865 N 0.63291 0.29322 0.71279
 C866 C 0.63767 0.27633 0.73327
 N867 N 0.62106 0.25536 0.73686
 N868 N 0.60057 0.25145 0.72063
 C869 C 0.59578 0.26835 0.70017
 N870 N 0.61238 0.28932 0.69661
 N871 N 0.12039 0.75553 0.23523
 C872 C 0.13663 0.77680 0.23198
 N873 N 0.13169 0.79394 0.21178
 N874 N 0.11127 0.78997 0.19548
 C875 C 0.09498 0.76869 0.19868
 N876 N 0.09999 0.75156 0.21890
 N877 N 0.28751 0.13150 0.20608
 C878 C 0.26735 0.13660 0.22322
 N879 N 0.26410 0.12047 0.24456
 N880 N 0.28039 0.10003 0.24860
 C881 C 0.30056 0.09486 0.23146
 N882 N 0.30376 0.11103 0.21011
 N883 N 0.76360 0.61979 0.74432
 C884 C 0.76689 0.63597 0.72302
 N885 N 0.78707 0.63092 0.70590
 N886 N 0.80333 0.61045 0.70993
 C887 C 0.80009 0.59423 0.73124
 N888 N 0.77988 0.59935 0.74835
 N889 N 0.78729 0.36683 0.79349
 C890 C 0.76674 0.36221 0.77666
 N891 N 0.76318 0.37894 0.75580
 N892 N 0.77949 0.39941 0.75194
 C893 C 0.80001 0.40406 0.76880
 N894 N 0.80355 0.38733 0.78965
 N895 N 0.28703 -0.13239 0.29376
 C896 C 0.26658 -0.13705 0.27682
 N897 N 0.26316 -0.12039 0.25588
 N898 N 0.27951 -0.09995 0.25205
 C899 C 0.29994 -0.09527 0.26900
 N900 N 0.30334 -0.11192 0.28994
 N901 N 0.23673 -0.12002 0.74408
 C902 C 0.23310 -0.13660 0.72315
 N903 N 0.21259 -0.13180 0.70633
 N904 N 0.19641 -0.11125 0.71026
 C905 C 0.20002 -0.09468 0.73119
 N906 N 0.22052 -0.09951 0.74802
 N907 N 0.71276 0.36834 0.20591
 C908 C 0.73291 0.36337 0.22310
 N909 N 0.73607 0.37958 0.24435
 N910 N 0.71971 0.39998 0.24827
 C911 C 0.69955 0.40502 0.23109
 N912 N 0.69643 0.38877 0.20983
 N913 N 0.73632 0.62031 0.25478
 C914 C 0.73315 0.63661 0.27598
 N915 N 0.71302 0.63168 0.29321
 N916 N 0.69669 0.61123 0.28940
 C917 C 0.69980 0.59490 0.26819
 N918 N 0.71996 0.59989 0.25096
 N919 N 0.23736 0.12067 0.75559
 C920 C 0.23372 0.13742 0.77639
 N921 N 0.21309 0.13284 0.79316
 N922 N 0.19682 0.11236 0.78932
 C923 C 0.20044 0.09561 0.76852
 N924 N 0.22104 0.10022 0.75173
 N925 N 0.24416 0.26415 0.11938
 C926 C 0.22294 0.26737 0.13569
 N927 N 0.20571 0.28749 0.13075
 N928 N 0.20953 0.30376 0.11026
 C929 C 0.23075 0.30061 0.09391
 N930 N 0.24799 0.28046 0.09892
 N931 N 0.74415 0.76375 0.61956
 C932 C 0.72287 0.76699 0.63578
 N933 N 0.70570 0.78716 0.63079
 N934 N 0.70965 0.80344 0.61033
 C935 C 0.73093 0.80026 0.59407
 N936 N 0.74810 0.78007 0.59913
 N937 N 0.79426 0.78802 0.36743
 C938 C 0.77710 0.76785 0.36240
 N939 N 0.75580 0.76457 0.37859
 N940 N 0.75180 0.78084 0.39901
 C941 C 0.76896 0.80102 0.40412
 N942 N 0.79027 0.80425 0.38788
 N943 N 0.29348 0.28805 -0.13251
 C944 C 0.27633 0.26786 -0.13749
 N945 N 0.25498 0.26466 -0.12134
 N946 N 0.25094 0.28101 -0.10100
 C947 C 0.26809 0.30121 -0.09594
 N948 N 0.28944 0.30437 -0.11213
 N949 N 0.70685 0.21168 -0.13186
 C950 C 0.72398 0.23189 -0.13690
 N951 N 0.74528 0.23517 -0.12074
 N952 N 0.74929 0.21886 -0.10032
 C953 C 0.73217 0.19864 -0.09520
 N954 N 0.71087 0.19541 -0.11141
 N955 N 0.20584 0.71274 0.36833
 C956 C 0.22303 0.73292 0.36339
 N957 N 0.24424 0.73616 0.37968
 N958 N 0.24811 0.71984 0.40012
 C959 C 0.23092 0.69964 0.40512
 N960 N 0.20971 0.69645 0.38879
 N961 N 0.29318 0.71301 0.63167
 C962 C 0.27602 0.73321 0.63656
 N963 N 0.25480 0.73646 0.62027
 N964 N 0.25090 0.72012 0.59989
 C965 C 0.26805 0.69990 0.59493
 N966 N 0.28928 0.69671 0.61126
 N967 N 0.75633 0.23556 0.12008
 C968 C 0.77755 0.23237 0.13638
 N969 N 0.79479 0.21224 0.13147
 N970 N 0.79097 0.19596 0.11103
 C971 C 0.76975 0.19910 0.09469
 N972 N 0.75251 0.21924 0.09967
 N973 N 0.45641 0.38145 0.53830
 C974 C 0.47357 0.38644 0.51813
 N975 N 0.49485 0.37021 0.51490
 N976 N 0.49882 0.34979 0.53123
 C977 C 0.48166 0.34474 0.55142
 N978 N 0.46037 0.36101 0.55460
 N979 N -0.00562 0.87030 0.01317
 C980 C -0.02653 0.88697 0.01676
 N981 N -0.04342 0.88224 0.03726
 N982 N -0.03956 0.86169 0.05345
 C983 C -0.01865 0.84503 0.04988
 N984 N -0.00176 0.84979 0.02941
 N985 N 0.00554 0.62921 0.01352
 C986 C 0.02650 0.61261 0.01708
 N987 N 0.04340 0.61737 0.03753
 N988 N 0.03950 0.63789 0.05371
 C989 C 0.01854 0.65450 0.05017
 N990 N 0.00163 0.64970 0.02974
 N991 N 0.50582 0.12929 0.51499
 C992 C 0.52710 0.11303 0.51815
 N993 N 0.54433 0.11799 0.53825
 N994 N 0.54044 0.13843 0.55453
 C995 C 0.51916 0.15473 0.55143
 N996 N 0.50193 0.14970 0.53131
 N997 N -0.04402 0.11912 0.46279
 C998 C -0.02682 0.11422 0.48293
 N999 N -0.00560 0.13055 0.48611
 N1000 N -0.00174 0.15098 0.46976
 C1001 C -0.01894 0.15594 0.44959
 N1002 N -0.04016 0.13957 0.44647
 N1003 N 0.49399 0.62957 0.98659
 C1004 C 0.47305 0.61293 0.98308
 N1005 N 0.45618 0.61761 0.96257
 N1006 N 0.46008 0.63807 0.94629
 C1007 C 0.48102 0.65471 0.94978
 N1008 N 0.49790 0.65001 0.97026
 N1009 N 0.50544 0.87000 0.98635
 C1010 C 0.52676 0.88619 0.98314
 N1011 N 0.54391 0.88122 0.96297
 N1012 N 0.53991 0.86083 0.94666
 C1013 C 0.51858 0.84460 0.94981
 N1014 N 0.50143 0.84964 0.97000
 N1015 N 0.00514 0.37121 0.48558
 C1016 C 0.02640 0.38747 0.48234
 N1017 N 0.04353 0.38257 0.46213
 N1018 N 0.03956 0.36217 0.44582
 C1019 C 0.01829 0.34587 0.44901
 N1020 N 0.00116 0.35084 0.46924
 N1021 N 0.37011 0.51419 0.49511
 C1022 C 0.38635 0.51738 0.47384
 N1023 N 0.38134 0.53748 0.45661
 N1024 N 0.36085 0.55375 0.46048
 C1025 C 0.34456 0.55061 0.48175
 N1026 N 0.34964 0.53049 0.49899
 N1027 N 0.88341 0.03695 -0.04329
 C1028 C 0.88799 0.01636 -0.02648
 N1029 N 0.87128 0.01278 -0.00561
 N1030 N 0.85086 0.02913 -0.00171
 C1031 C 0.84625 0.04971 -0.01853
 N1032 N 0.86296 0.05326 -0.03940
 N1033 N 0.63046 0.01355 0.00599
 C1034 C 0.61426 0.01682 0.02727
 N1035 N 0.61935 0.03695 0.04442
 N1036 N 0.63986 0.05317 0.04043
 C1037 C 0.65610 0.04996 0.01914
 N1038 N 0.65094 0.02981 0.00200
 N1039 N 0.11731 0.53777 0.54393
 C1040 C 0.11255 0.51733 0.52702
 N1041 N 0.12911 0.51389 0.50602
 N1042 N 0.14954 0.53022 0.50208
 C1043 C 0.15433 0.55065 0.51899
 N1044 N 0.13778 0.55406 0.54000
 N1045 N 0.12909 0.48707 -0.00575
 C1046 C 0.11232 0.48355 -0.02655
 N1047 N 0.11688 0.46302 -0.04342
 N1048 N 0.13737 0.44674 -0.03966
 C1049 C 0.15414 0.45023 -0.01886
 N1050 N 0.14955 0.47073 -0.00198
 N1051 N 0.61769 0.96257 0.45639
 C1052 C 0.61306 0.98305 0.47328
 N1053 N 0.62978 0.98655 0.49413
 N1054 N 0.65024 0.97023 0.49793
 C1055 C 0.65490 0.94977 0.48103
 N1056 N 0.63819 0.94630 0.46017
 N1057 N 0.87041 0.98614 0.50556
 C1058 C 0.88658 0.98287 0.52684
 N1059 N 0.88157 0.96265 0.54394
 N1060 N 0.86114 0.94634 0.53991
 C1061 C 0.84493 0.94956 0.51862
 N1062 N 0.85001 0.96980 0.50152
 N1063 N 0.36991 0.48635 0.00498
 C1064 C 0.38612 0.48303 0.02623
 N1065 N 0.38109 0.46283 0.04335
 N1066 N 0.36060 0.44659 0.03937
 C1067 C 0.34434 0.44985 0.01812
 N1068 N 0.34945 0.47007 0.00100
 N1069 N 0.51418 0.49458 0.37062
 C1070 C 0.51742 0.47331 0.38686
 N1071 N 0.53756 0.45611 0.38182
 N1072 N 0.55380 0.46003 0.36133
 C1073 C 0.55060 0.48130 0.34505
 N1074 N 0.53045 0.49850 0.35015
 N1075 N 0.01493 -0.00530 0.87081
 C1076 C 0.01816 -0.02662 0.88699
 N1077 N 0.03834 -0.04377 0.88197
 N1078 N 0.05463 -0.03976 0.86154
 C1079 C 0.05145 -0.01844 0.84532
 N1080 N 0.03126 -0.00129 0.85041
 N1081 N 0.03767 0.04450 0.61884
 C1082 C 0.01753 0.02728 0.61392
 N1083 N 0.01436 0.00601 0.63017
 N1084 N 0.03072 0.00210 0.65055
 C1085 C 0.05089 0.01932 0.65554
 N1086 N 0.05400 0.04060 0.63925
 N1087 N 0.51400 0.50561 0.12942
 C1088 C 0.51727 0.52688 0.11319
 N1089 N 0.53742 0.54406 0.11819
 N1090 N 0.55366 0.54013 0.13866
 C1091 C 0.55045 0.51885 0.15493
 N1092 N 0.53028 0.50167 0.14986
 N1093 N 0.48624 -0.00589 0.13056
 C1094 C 0.48298 -0.02711 0.11429
 N1095 N 0.46277 -0.04425 0.11922
 N1096 N 0.44645 -0.04034 0.13965
 C1097 C 0.44965 -0.01912 0.15595
 N1098 N 0.46989 -0.00197 0.15096
 N1099 N 0.96268 0.45611 0.61893
 C1100 C 0.98282 0.47335 0.61404
 N1101 N 0.98604 0.49449 0.63041
 N1102 N 0.96972 0.49825 0.65086
 C1103 C 0.94955 0.48100 0.65581
 N1104 N 0.94640 0.45985 0.63941
 N1105 N 0.98522 0.50512 0.87118
 C1106 C 0.98194 0.52639 0.88735
 N1107 N 0.96172 0.54351 0.88234
 N1108 N 0.94545 0.53950 0.86191
 C1109 C 0.94869 0.51822 0.84569
 N1110 N 0.96892 0.50111 0.85078
 N1111 N 0.46250 0.04346 0.38229
 C1112 C 0.48268 0.02628 0.38722
 N1113 N 0.48587 0.00503 0.37099
 N1114 N 0.46950 0.00110 0.35063
 C1115 C 0.44930 0.01827 0.34563
 N1116 N 0.44616 0.03954 0.36190
   
