data_POSCAR
  _audit_creation_date              2014-09-24
  _audit_creation_method            'ToBaCCo'
  _symmetry_space_group_name_H-M    'P1'
  _symmetry_Int_Tables_number       1
  _symmetry_cell_setting            triclinic
  loop_
  _symmetry_equiv_pos_as_xyz
 x,y,z
_cell_length_a 23.3771
_cell_length_b 22.8772
_cell_length_c 22.9492
_cell_angle_alpha 89.376800
_cell_angle_beta 90.016700
_cell_angle_gamma 120.910000
loop_
  _atom_site_label
  _atom_site_type_symbol
  _atom_site_fract_x
  _atom_site_fract_y
  _atom_site_fract_z
C1 C 0.54224 0.10708 0.06686
 H2 H 0.58961 0.13776 0.04499
 C3 C 0.52018 0.13780 0.10586
 H4 H 0.55161 0.19176 0.11363
 C5 C 0.44314 0.00034 0.08135
 H6 H 0.41310 -0.05311 0.07084
 C7 C 0.41902 0.02907 0.12056
 H8 H 0.37041 -0.00283 0.14041
 N9 N 0.50389 0.03942 0.05560
 C10 C 0.57311 -0.09596 0.00047
 H11 H 0.58529 -0.07979 -0.04458
 C12 C 0.58372 -0.14653 0.02295
 H13 H 0.60394 -0.16923 -0.00528
 C14 C 0.53164 -0.08589 0.09165
 H15 H 0.51186 -0.06174 0.11840
 C16 C 0.54133 -0.13642 0.11592
 H17 H 0.52847 -0.15061 0.16122
 Zn18 Zn 0.53166 -0.00124 -0.00051
 N19 N 0.54638 -0.06767 0.03456
 C20 C 0.66811 0.09404 -0.00149
 N21 N 0.61292 0.06555 -0.03558
 C22 C 0.61635 0.08385 -0.09263
 C23 C 0.67674 0.13462 -0.11689
 C24 C 0.72945 0.14481 -0.02395
 C25 C 0.43420 -0.10961 -0.06844
 C26 C 0.38132 -0.14062 -0.10749
 C27 C 0.38774 -0.03250 -0.12103
 C28 C 0.44079 -0.00360 -0.08187
 N29 N 0.46302 -0.04222 -0.05662
 H30 H 0.66413 0.07783 0.04355
 H31 H 0.57226 0.05959 -0.11937
 H32 H 0.67806 0.14886 -0.16217
 H33 H 0.77251 0.16763 0.00427
 H34 H 0.45143 -0.13994 -0.04703
 H35 H 0.35998 -0.19436 -0.11537
 H36 H 0.37109 -0.00030 -0.14014
 H37 H 0.46392 0.04970 -0.07098
 C38 C 0.56695 -0.16804 0.08119
 C39 C 0.45764 0.09876 0.13314
 C40 C 0.35666 -0.10227 -0.13440
 C41 C 0.73417 0.16636 -0.08216
 C42 C -0.08747 0.53447 0.57749
 H43 H -0.05777 0.52784 0.54526
 C44 C -0.14591 0.53208 0.56028
 H45 H -0.15977 0.52433 0.51480
 C46 C -0.10823 0.54752 0.67614
 H47 H -0.09367 0.55226 0.72139
 C48 C -0.16764 0.54428 0.66095
 H49 H -0.19842 0.54712 0.69474
 N50 N -0.06974 0.54214 0.63462
 C51 C 0.05539 0.46520 0.60066
 H52 H 0.03703 0.43045 0.63755
 C53 C 0.09041 0.45553 0.55616
 H54 H 0.09810 0.41276 0.55870
 C55 C 0.07049 0.56489 0.55342
 H56 H 0.06404 0.60846 0.55357
 C57 C 0.10393 0.55599 0.50721
 H58 H 0.12293 0.59271 0.47160
 Zn59 Zn 0.00415 0.53646 0.66080
 N60 N 0.04603 0.51917 0.59841
 C61 C -0.00694 0.47515 0.77210
 N62 N -0.02968 0.46443 0.71638
 C63 C -0.08141 0.40296 0.69978
 C64 C -0.11329 0.34950 0.74020
 C65 C -0.03682 0.42285 0.81372
 C66 C 0.06126 0.67316 0.70079
 C67 C 0.11101 0.73285 0.72670
 C68 C 0.17697 0.67988 0.73904
 C69 C 0.12631 0.62157 0.71264
 N70 N 0.06943 0.61875 0.69508
 H71 H 0.03317 0.52467 0.78491
 H72 H -0.09890 0.39607 0.65531
 H73 H -0.15474 0.30119 0.72627
 H74 H -0.01892 0.43255 0.85812
 H75 H 0.01622 0.67034 0.68542
 H76 H 0.10360 0.77552 0.73163
 H77 H 0.22170 0.68075 0.75257
 H78 H 0.13197 0.57798 0.70648
 C79 C 0.11478 0.50118 0.50866
 C80 C -0.18731 0.53595 0.60241
 C81 C 0.16940 0.73634 0.74691
 C82 C -0.09148 0.35948 0.79823
 C83 C 0.50684 0.43720 0.44743
 H84 H 0.45674 0.39338 0.44778
 C85 C 0.54976 0.44719 0.49353
 H86 H 0.53259 0.41113 0.52961
 C87 C 0.59109 0.53660 0.39915
 H88 H 0.60712 0.57085 0.36193
 C89 C 0.63626 0.54737 0.44357
 H90 H 0.68675 0.59044 0.44077
 N91 N 0.52767 0.48227 0.40197
 C92 C 0.34423 0.45299 0.32494
 H93 H 0.35354 0.44756 0.27972
 C94 C 0.28856 0.45705 0.34018
 H95 H 0.25471 0.45413 0.30658
 C96 C 0.37907 0.46730 0.42338
 H97 H 0.41571 0.47424 0.45545
 C98 C 0.32354 0.47060 0.44063
 H99 H 0.31819 0.47957 0.48594
 Zn100 Zn 0.46779 0.46407 0.33987
 N101 N 0.38842 0.45869 0.36632
 C102 C 0.38707 0.32716 0.30060
 N103 N 0.45004 0.38144 0.30611
 C104 C 0.50390 0.37829 0.28854
 C105 C 0.49561 0.31974 0.26236
 C106 C 0.37648 0.26728 0.27483
 C107 C 0.51570 0.59704 0.30004
 C108 C 0.53711 0.65014 0.25933
 C109 C 0.53966 0.57640 0.18615
 C110 C 0.51745 0.52445 0.22807
 N111 N 0.50577 0.53553 0.28376
 H112 H 0.34502 0.33024 0.31594
 H113 H 0.55348 0.42182 0.29450
 H114 H 0.53935 0.31868 0.24879
 H115 H 0.32607 0.22477 0.27003
 H116 H 0.50538 0.60422 0.34449
 H117 H 0.54412 0.69849 0.27303
 H118 H 0.54758 0.56640 0.14178
 H119 H 0.50792 0.47489 0.21555
 C120 C 0.27801 0.46651 0.39860
 C121 C 0.61543 0.50242 0.49151
 C122 C 0.54854 0.63978 0.20132
 C123 C 0.43114 0.26341 0.25462
 N124 N 0.19909 0.50367 0.37821
 N125 N 0.15573 0.51440 0.40606
 C126 C 0.15326 0.49349 0.46165
 C127 C 0.19662 0.46975 0.46706
 N128 N 0.22450 0.47722 0.41409
 H129 H 0.20836 0.45127 0.50618
 N130 N 0.59416 0.69351 0.10660
 N131 N 0.59987 0.74406 0.07350
 C132 C 0.57472 0.77574 0.10435
 C133 C 0.55359 0.74283 0.15776
 N134 N 0.56658 0.69189 0.15744
 H135 H 0.52820 0.75265 0.19221
 N136 N 0.22647 0.85740 0.77099
 N137 N 0.27718 0.90229 0.80276
 C138 C 0.30433 0.86888 0.82864
 C139 C 0.26813 0.80160 0.81113
 N140 N 0.22027 0.79664 0.77526
 H141 H 0.27465 0.75982 0.82401
 N142 N 0.64401 0.49667 0.59286
 N143 N 0.69577 0.50584 0.62386
 C144 C 0.74732 0.52669 0.58634
 C145 C 0.72549 0.53055 0.53128
 N146 N 0.66095 0.51143 0.53727
 H147 H 0.75283 0.54338 0.49052
 N148 N 0.36505 0.14284 0.22905
 N149 N 0.37033 0.09768 0.19740
 C150 C 0.43193 0.13032 0.17340
 C151 C 0.46421 0.19711 0.19161
 N152 N 0.42098 0.20292 0.22629
 H153 H 0.51368 0.23785 0.17974
 N154 N -0.09958 0.30511 0.89254
 N155 N -0.14457 0.25432 0.92550
 C156 C -0.20163 0.22276 0.89471
 C157 C -0.18984 0.25598 0.84147
 N158 N -0.12567 0.30700 0.84184
 H159 H -0.22520 0.24634 0.80713
   
