data_POSCAR
  _audit_creation_date              2014-09-24
  _audit_creation_method            'ToBaCCo'
  _symmetry_space_group_name_H-M    'P1'
  _symmetry_Int_Tables_number       1
  _symmetry_cell_setting            triclinic
  loop_
  _symmetry_equiv_pos_as_xyz
 x,y,z
_cell_length_a 28.8083
_cell_length_b 15.8813
_cell_length_c 10.1519
_cell_angle_alpha 89.898100
_cell_angle_beta 90.041200
_cell_angle_gamma 89.986400
loop_
  _atom_site_label
  _atom_site_type_symbol
  _atom_site_fract_x
  _atom_site_fract_y
  _atom_site_fract_z
C1 C 0.71112 0.28012 0.56965
 C2 C 0.71207 0.27883 0.43015
 C3 C 0.75085 0.24547 0.36498
 C4 C 0.78884 0.21350 0.43562
 C5 C 0.78787 0.21514 0.57492
 C6 C 0.74911 0.24824 0.64014
 H7 H 0.74853 0.24927 0.74718
 H8 H 0.75141 0.24454 0.25802
 C9 C 0.21119 0.78051 0.56572
 C10 C 0.21203 0.77935 0.42640
 C11 C 0.25054 0.74560 0.36131
 C12 C 0.28822 0.71297 0.43189
 C13 C 0.28756 0.71378 0.57094
 C14 C 0.24898 0.74761 0.63646
 H15 H 0.24830 0.74852 0.74339
 H16 H 0.25123 0.74477 0.25440
 C17 C 0.28686 0.28349 -0.57111
 C18 C 0.28618 0.28497 -0.43238
 C19 C 0.24753 0.25358 -0.36452
 C20 C 0.20933 0.22025 -0.43261
 C21 C 0.21024 0.21820 -0.57241
 C22 C 0.24899 0.25007 -0.63967
 H23 H 0.24975 0.24899 -0.74663
 H24 H 0.24729 0.25512 -0.25757
 C25 C -0.21347 0.78554 -0.56977
 C26 C -0.21476 0.78755 -0.43110
 C27 C -0.25333 0.75482 -0.36479
 C28 C -0.29087 0.72029 -0.43432
 C29 C -0.28977 0.71888 -0.57415
 C30 C -0.25091 0.75155 -0.63989
 H31 H -0.24969 0.75064 -0.74681
 H32 H -0.25399 0.75616 -0.25784
 O33 O -0.06339 0.85710 0.24654
 O34 O -0.11592 0.93183 0.12236
 C35 C -0.10532 0.87963 0.21593
 O36 O 0.06540 1.14910 0.23817
 O37 O 0.11660 1.07165 0.11358
 C38 C 0.10692 1.12582 0.20558
 O39 O -0.06311 1.14068 0.25611
 O40 O -0.11579 1.06985 0.12730
 C41 C -0.10514 1.11963 0.22398
 O42 O 0.06551 0.84680 0.22549
 O43 O 0.11664 0.92891 0.10835
 C44 C 0.10701 0.87198 0.19630
 Zr45 Zr 0.00049 0.89220 0.15893
 O46 O 0.00191 0.87305 0.36407
 O47 O -0.00158 0.76084 0.12721
 Zr48 Zr 0.00064 1.10640 0.16693
 O49 O 0.00563 1.10791 0.37264
 O50 O -0.00399 1.23944 0.15956
 O51 O -0.03998 0.99903 0.19178
 O52 O 0.04054 0.99889 0.18583
 O53 O 0.06263 0.85553 -0.24556
 O54 O 0.11525 0.93235 -0.12478
 C55 C 0.10462 0.87817 -0.21571
 O56 O -0.06629 1.15149 -0.23503
 O57 O -0.11730 1.07254 -0.11267
 C58 C -0.10768 1.12650 -0.20464
 O59 O 0.06271 1.15532 -0.23710
 O60 O 0.11514 1.07466 -0.12162
 C61 C 0.10463 1.13075 -0.21016
 O62 O -0.06649 0.86205 -0.24787
 O63 O -0.11748 0.93488 -0.11663
 C64 C -0.10798 0.88420 -0.21307
 Zr65 Zr -0.00162 0.89737 -0.16746
 O66 O -0.00082 0.89167 -0.37368
 O67 O -0.00567 0.76436 -0.15631
 Zr68 Zr -0.00132 1.11183 -0.15981
 O69 O -0.00073 1.12555 -0.36550
 O70 O -0.00178 1.24350 -0.13098
 Zr71 Zr -0.07027 1.00221 0.00305
 Zr72 Zr 0.06941 1.00199 -0.00404
 O73 O 0.03792 1.00482 -0.19130
 O74 O -0.04243 1.00516 -0.18838
 O75 O 0.04199 0.87871 -0.00689
 O76 O -0.04188 1.12419 0.00609
 O77 O -0.04221 0.87997 -0.00247
 O78 O 0.04223 1.12524 0.00189
 H79 H 0.06118 0.99801 0.26370
 H80 H -0.06344 1.17279 0.00932
 H81 H 0.05666 1.00579 -0.27304
 H82 H -0.06399 0.83165 -0.00271
 H83 H 0.02451 1.26061 0.11630
 H84 H -0.00308 1.26881 -0.22016
 H85 H -0.02262 1.08258 -0.39841
 H86 H -0.01731 0.94252 -0.40486
 H87 H 0.02428 0.74349 -0.12125
 H88 H -0.00265 0.73478 0.21586
 H89 H 0.02434 0.91392 0.40042
 H90 H -0.00169 1.04966 0.39976
 O91 O 0.43648 0.35489 0.24312
 O92 O 0.38443 0.43017 0.11827
 C93 C 0.39469 0.37792 0.21221
 O94 O 0.56551 0.65062 0.23010
 O95 O 0.61716 0.57089 0.11106
 C96 C 0.60720 0.62643 0.20071
 O97 O 0.43706 0.64089 0.24563
 O98 O 0.38465 0.56809 0.11860
 C99 C 0.39520 0.61892 0.21391
 O100 O 0.56508 0.34897 0.23345
 O101 O 0.61680 0.42601 0.10954
 C102 C 0.60678 0.37166 0.20126
 Zr103 Zr 0.50075 0.39314 0.16087
 O104 O 0.50253 0.38952 0.36700
 O105 O 0.49963 0.26061 0.14352
 Zr106 Zr 0.50091 0.60702 0.15782
 O107 O 0.50268 0.62298 0.36290
 O108 O 0.49905 0.73874 0.12913
 O109 O 0.46012 0.50019 0.18677
 O110 O 0.54083 0.49996 0.18348
 O111 O 0.56457 0.34894 -0.24131
 O112 O 0.61668 0.42826 -0.12312
 C113 C 0.60639 0.37290 -0.21263
 O114 O 0.43477 0.64342 -0.24825
 O115 O 0.38355 0.56819 -0.12094
 C116 C 0.39318 0.62043 -0.21538
 O117 O 0.56347 0.64922 -0.24521
 O118 O 0.61598 0.57312 -0.12235
 C119 C 0.60538 0.62704 -0.21419
 O120 O 0.43556 0.35777 -0.25063
 O121 O 0.38387 0.42999 -0.12064
 C122 C 0.39384 0.37923 -0.21644
 Zr123 Zr 0.50002 0.39130 -0.16557
 O124 O 0.50088 0.37509 -0.37031
 O125 O 0.49591 0.25893 -0.14175
 Zr126 Zr 0.49954 0.60541 -0.16903
 O127 O 0.50038 0.60771 -0.37546
 O128 O 0.49568 0.73847 -0.15965
 Zr129 Zr 0.43046 0.49920 -0.00245
 Zr130 Zr 0.57041 0.49946 -0.00544
 O131 O 0.53960 0.49865 -0.19315
 O132 O 0.45893 0.49810 -0.19315
 O133 O 0.54299 0.37623 -0.00290
 O134 O 0.45866 0.62129 -0.00433
 O135 O 0.45878 0.37715 -0.00147
 O136 O 0.54276 0.62254 -0.00673
 H137 H 0.56112 0.49939 0.26214
 H138 H 0.43697 0.66977 -0.00371
 H139 H 0.55947 0.49925 -0.27258
 H140 H 0.43713 0.32864 -0.00091
 H141 H 0.49776 0.76373 0.21836
 H142 H 0.52439 0.75889 -0.11662
 H143 H 0.48066 0.56015 -0.40443
 H144 H 0.51464 0.42752 -0.40482
 H145 H 0.52660 0.23890 -0.11086
 H146 H 0.49896 0.23841 0.23477
 H147 H 0.48373 0.43825 0.39605
 H148 H 0.51754 0.57152 0.39764
 C149 C 0.32553 0.31635 0.35385
 C150 C 0.35718 0.34399 0.28898
 C151 C -0.17452 0.81824 0.35679
 C152 C -0.14267 0.84569 0.29279
 C153 C 0.67479 0.68705 0.35046
 C154 C 0.64430 0.65974 0.28044
 C155 C 0.17472 1.18626 0.35336
 C156 C 0.14419 1.15882 0.28413
 C157 C 0.67458 0.31179 -0.35950
 C158 C 0.64348 0.33920 -0.29188
 C159 C 0.17276 0.81501 -0.36001
 C160 C 0.14166 0.84346 -0.29373
 C161 C 0.32361 0.68225 -0.35598
 C162 C 0.35524 0.65437 -0.29090
 C163 C -0.17633 1.18521 -0.35014
 C164 C -0.14519 1.15894 -0.28227
 C165 C 0.67300 0.68856 -0.36203
 C166 C 0.64224 0.66101 -0.29355
 C167 C 0.17277 1.19031 -0.35942
 C168 C 0.14162 1.16405 -0.29059
 C169 C 0.32449 0.31820 -0.35692
 C170 C 0.35614 0.34580 -0.29237
 C171 C -0.17713 0.82227 -0.35411
 C172 C -0.14585 0.85071 -0.28871
 C173 C 0.32670 0.67942 0.35764
 C174 C 0.35805 0.65193 0.29208
 C175 C -0.17433 1.18140 0.36616
 C176 C -0.14256 1.15336 0.30185
 C177 C 0.67456 0.31125 0.34982
 C178 C 0.64397 0.33816 0.28000
 C179 C 0.17462 0.81200 0.34599
 C180 C 0.14419 0.83875 0.27544
   
