data_POSCAR
  _audit_creation_date              2014-09-24
  _audit_creation_method            'ToBaCCo'
  _symmetry_space_group_name_H-M    'P1'
  _symmetry_Int_Tables_number       1
  _symmetry_cell_setting            triclinic
  loop_
  _symmetry_equiv_pos_as_xyz
 x,y,z
_cell_length_a 26.9420
_cell_length_b 27.1549
_cell_length_c 22.3813
_cell_angle_alpha 89.107600
_cell_angle_beta 91.014000
_cell_angle_gamma 86.349700
loop_
  _atom_site_label
  _atom_site_type_symbol
  _atom_site_fract_x
  _atom_site_fract_y
  _atom_site_fract_z
C1 C 1.22459 0.20211 0.19429
 C2 C 1.24659 0.24263 0.15606
 C3 C 1.26534 0.27952 0.18901
 C4 C 1.25949 0.27238 0.25744
 C5 C 1.26612 0.18463 0.23820
 C6 C 1.28412 0.22085 0.27186
 C7 C 1.18569 0.22959 0.23239
 C8 C 1.20346 0.26581 0.26596
 H9 H 1.24950 0.24089 0.10795
 H10 H 1.27449 0.30198 0.28483
 H11 H 1.27698 0.14590 0.24615
 H12 H 1.14702 0.22077 0.23265
 C13 C 0.72685 -0.29777 0.19250
 C14 C 0.74709 -0.25687 0.15341
 C15 C 0.76535 -0.21938 0.18563
 C16 C 0.76105 -0.22647 0.25420
 C17 C 0.76946 -0.31421 0.23522
 C18 C 0.78703 -0.27749 0.26832
 C19 C 0.68802 -0.27108 0.23152
 C20 C 0.70553 -0.23414 0.26400
 H21 H 0.74885 -0.25854 0.10519
 H22 H 0.77576 -0.19641 0.28108
 H23 H 0.78092 -0.35277 0.24353
 H24 H 0.64939 -0.28006 0.23203
 C25 C 0.71506 0.23249 -0.31571
 C26 C 0.76273 0.24405 -0.33990
 C27 C 0.79360 0.26911 -0.29877
 C28 C 0.77097 0.27537 -0.23929
 C29 C 0.72662 0.20319 -0.26179
 C30 C 0.75897 0.22525 -0.22035
 C31 C 0.69305 0.27917 -0.29522
 C32 C 0.72252 0.30249 -0.25128
 H33 H 0.77156 0.23938 -0.38664
 H34 H 0.79465 0.29387 -0.20645
 H35 H 0.71607 0.16548 -0.25644
 H36 H 0.65590 0.29338 -0.30829
 C37 C 1.21642 -0.26783 -0.31649
 C38 C 1.26608 -0.25509 -0.34280
 C39 C 1.29645 -0.23260 -0.30370
 C40 C 1.27408 -0.22610 -0.24056
 C41 C 1.23009 -0.29937 -0.26087
 C42 C 1.26070 -0.27852 -0.22132
 C43 C 1.19390 -0.21934 -0.29265
 C44 C 1.22327 -0.19753 -0.25211
 H45 H 1.27443 -0.25978 -0.38961
 H46 H 1.29844 -0.20812 -0.20807
 H47 H 1.21922 -0.33694 -0.25574
 H48 H 1.15616 -0.20546 -0.30338
 C49 C 0.23262 0.21055 0.81640
 C50 C 0.24402 0.25632 0.84430
 C51 C 0.26799 0.28950 0.80560
 C52 C 0.27450 0.27072 0.74473
 C53 C 0.20097 0.22554 0.76094
 C54 C 0.22188 0.25775 0.72370
 C55 C 0.28165 0.18919 0.79196
 C56 C 0.30356 0.22004 0.75344
 H57 H 0.23908 0.26266 0.89158
 H58 H 0.29255 0.29594 0.71349
 H59 H 0.16302 0.21514 0.75503
 H60 H 0.29566 0.15141 0.80047
 C61 C 0.72896 0.71166 0.81048
 C62 C 0.73964 0.75834 0.83754
 C63 C 0.76520 0.79052 0.79861
 C64 C 0.77280 0.77000 0.73834
 C65 C 0.70025 0.72463 0.75616
 C66 C 0.72297 0.75820 0.71719
 C67 C 0.77665 0.69112 0.79043
 C68 C 0.80045 0.72209 0.74882
 H69 H 0.73402 0.76563 0.88451
 H70 H 0.79186 0.79458 0.70724
 H71 H 0.66249 0.71402 0.74884
 H72 H 0.79105 0.65386 0.80140
 C73 C 0.70714 0.22706 0.30632
 C74 C 0.75178 0.24328 0.34313
 C75 C 0.78758 0.26287 0.30898
 C76 C 0.77563 0.26287 0.24092
 C77 C 0.68926 0.27258 0.26958
 C78 C 0.72461 0.29120 0.23500
 C79 C 0.72961 0.19075 0.26135
 C80 C 0.76507 0.20899 0.22684
 H81 H 0.75238 0.24426 0.39148
 H82 H 0.80449 0.27841 0.21267
 H83 H 0.65100 0.28767 0.26919
 H84 H 0.71913 0.15296 0.25861
 C85 C 0.21067 0.72674 0.31202
 C86 C 0.25703 0.74337 0.34459
 C87 C 0.29019 0.76400 0.30787
 C88 C 0.27421 0.76455 0.24096
 C89 C 0.18967 0.77233 0.27731
 C90 C 0.22237 0.79199 0.23961
 C91 C 0.23044 0.69137 0.26425
 C92 C 0.26404 0.71036 0.22743
 H93 H 0.26052 0.74365 0.39288
 H94 H 0.30107 0.78091 0.21054
 H95 H 0.15131 0.78657 0.28002
 H96 H 0.22090 0.65323 0.26250
 O97 O 1.06593 0.07157 0.10818
 O98 O 1.12025 0.03101 0.04513
 C99 C 1.11017 0.06065 0.08862
 O100 O 0.92817 -0.09428 0.09090
 O101 O 0.86993 -0.04317 0.04006
 C102 C 0.88269 -0.07987 0.07665
 O103 O 1.06580 -0.09405 0.09814
 O104 O 1.12089 -0.05319 0.04151
 C105 C 1.11048 -0.08399 0.08369
 O106 O 0.92919 0.08842 0.10054
 O107 O 0.87028 0.04810 0.04823
 C108 C 0.88372 0.08134 0.08570
 Zr109 Zr 0.99601 0.05246 0.07501
 O110 O 0.99189 0.03887 0.16819
 O111 O 1.00115 0.12831 0.09234
 Zr112 Zr 0.99612 -0.06974 0.06054
 O113 O 0.99423 -0.08698 0.15281
 O114 O 1.00277 -0.14643 0.04367
 O115 O 1.04099 -0.01199 0.07907
 O116 O 0.95206 -0.00668 0.07945
 O117 O 0.92480 0.10745 -0.08923
 O118 O 0.86832 0.05567 -0.05202
 C119 C 0.87983 0.09594 -0.07987
 O120 O 1.06129 -0.07785 -0.12757
 O121 O 1.11884 -0.04501 -0.06529
 C122 C 1.10666 -0.07056 -0.11124
 O123 O 0.92399 -0.07799 -0.12102
 O124 O 0.86838 -0.03673 -0.05956
 C125 C 0.87939 -0.06740 -0.10252
 O126 O 1.06025 0.09265 -0.10014
 O127 O 1.11812 0.03880 -0.05333
 C128 C 1.10546 0.07764 -0.08572
 Zr129 Zr 0.99202 0.06578 -0.07557
 O130 O 0.98375 0.06483 -0.16982
 O131 O 0.99476 0.14319 -0.08382
 Zr132 Zr 0.99268 -0.05596 -0.08884
 O133 O 0.98460 -0.04775 -0.18281
 O134 O 0.99918 -0.13375 -0.09608
 Zr135 Zr 1.06925 -0.00576 -0.00800
 Zr136 Zr 0.91845 0.00290 -0.00599
 O137 O 0.94742 0.00863 -0.09238
 O138 O 1.03727 0.00374 -0.09461
 O139 O 0.95039 0.07159 0.00141
 O140 O 1.03844 -0.07471 -0.01548
 O141 O 1.03643 0.06633 0.00037
 O142 O 0.94968 -0.06996 -0.01456
 H143 H 0.93002 -0.00737 0.11441
 H144 H 1.06190 -0.10417 -0.01839
 H145 H 0.92327 0.01342 -0.12622
 H146 H 1.05647 0.09548 0.00438
 H147 H 0.96951 -0.15662 0.03145
 H148 H 0.97222 -0.14719 -0.07258
 H149 H 1.00949 -0.02496 -0.19635
 H150 H 1.01750 0.06340 -0.18672
 H151 H 0.99784 0.15577 -0.04279
 H152 H 0.98784 0.14661 0.05638
 H153 H 1.02472 0.02417 0.18211
 H154 H 0.99836 -0.05584 0.17400
 O155 O 1.10155 0.42686 0.59926
 O156 O 1.05416 0.37186 0.55069
 C157 C 1.09143 0.38268 0.58512
 O158 O 0.91802 0.56441 0.62175
 O159 O 0.95564 0.62148 0.56415
 C160 C 0.92684 0.60937 0.60725
 O161 O 0.92706 0.42833 0.62404
 O162 O 0.96466 0.37301 0.55952
 C163 C 0.93657 0.38399 0.60506
 O164 O 1.10019 0.56135 0.58986
 O165 O 1.04343 0.61979 0.54953
 C166 C 1.08480 0.60653 0.57761
 Zr167 Zr 1.06740 0.49482 0.57265
 O168 O 1.06778 0.49568 0.66703
 O169 O 1.14606 0.49000 0.57316
 Zr170 Zr 0.94481 0.49661 0.58708
 O171 O 0.95238 0.49797 0.68135
 O172 O 0.86646 0.49643 0.59037
 O173 O 1.00952 0.45029 0.59086
 O174 O 1.00557 0.53936 0.59153
 O175 O 1.08432 0.56565 0.40358
 O176 O 1.03522 0.62231 0.45442
 C177 C 1.07189 0.61022 0.41959
 O178 O 0.90623 0.43369 0.40400
 O179 O 0.95689 0.37535 0.45520
 C180 C 0.92099 0.38835 0.41722
 O181 O 0.89393 0.57057 0.41744
 O182 O 0.94507 0.62441 0.46210
 C183 C 0.90662 0.61467 0.42967
 O184 O 1.08205 0.43221 0.38924
 O185 O 1.04438 0.37441 0.44567
 C186 C 1.07514 0.38728 0.40470
 Zr187 Zr 1.05232 0.49893 0.42247
 O188 O 1.03314 0.50823 0.33060
 O189 O 1.12744 0.49514 0.39630
 Zr190 Zr 0.92989 0.50078 0.43751
 O191 O 0.92202 0.51003 0.34362
 O192 O 0.85208 0.49660 0.44489
 Zr193 Zr 1.00266 0.42245 0.50383
 Zr194 Zr 0.99544 0.57245 0.50615
 O195 O 0.98828 0.54440 0.41954
 O196 O 0.99231 0.45498 0.41762
 O197 O 1.06789 0.53952 0.49722
 O198 O 0.93026 0.45553 0.51260
 O199 O 1.07156 0.45416 0.49581
 O200 O 0.92531 0.54306 0.51449
 H201 H 1.00923 0.56090 0.62648
 H202 H 0.90169 0.43443 0.51534
 H203 H 0.98461 0.56880 0.38609
 H204 H 1.10302 0.43353 0.49247
 H205 H 0.85803 0.49610 0.63330
 H206 H 0.84193 0.51548 0.48060
 H207 H 0.94126 0.48225 0.32500
 H208 H 1.03010 0.47499 0.31394
 H209 H 1.14784 0.49137 0.43343
 H210 H 1.15609 0.50069 0.53296
 H211 H 1.10300 0.49788 0.67959
 H212 H 0.98034 0.47417 0.69301
 O213 O 0.40811 -0.06493 0.40318
 O214 O 0.45993 -0.12351 0.45211
 C215 C 0.42355 -0.11029 0.41490
 O216 O 0.57572 0.07130 0.39100
 O217 O 0.53413 0.12438 0.45459
 C218 C 0.56504 0.11474 0.41212
 O219 O 0.58074 -0.06414 0.38106
 O220 O 0.54778 -0.12339 0.44034
 C221 C 0.57592 -0.10945 0.39716
 O222 O 0.39370 0.07089 0.42093
 O223 O 0.44558 0.12470 0.46412
 C224 C 0.40633 0.11496 0.43301
 Zr225 Zr 0.43051 0.00152 0.43960
 O226 O 0.41463 0.01187 0.34714
 O227 O 0.35433 -0.00262 0.45890
 Zr228 Zr 0.55238 0.00189 0.41781
 O229 O 0.53306 0.01057 0.32589
 O230 O 0.62868 -0.00062 0.39661
 O231 O 0.49276 -0.04272 0.41517
 O232 O 0.48756 0.04593 0.41965
 O233 O 0.42386 0.06202 0.62530
 O234 O 0.45754 0.12016 0.56527
 C235 C 0.43079 0.10726 0.60982
 O236 O 0.60953 -0.07318 0.58874
 O237 O 0.55979 -0.12767 0.54315
 C238 C 0.59831 -0.11731 0.57569
 O239 O 0.60637 0.06182 0.58189
 O240 O 0.54636 0.12012 0.54869
 C241 C 0.58924 0.10703 0.57340
 O242 O 0.43419 -0.07414 0.62308
 O243 O 0.47077 -0.12778 0.55586
 C244 C 0.44351 -0.11797 0.60245
 Zr245 Zr 0.45122 -0.00500 0.58844
 O246 O 0.46571 -0.00443 0.68174
 O247 O 0.37399 -0.00858 0.60216
 Zr248 Zr 0.57285 -0.00469 0.56739
 O249 O 0.57634 -0.00230 0.66197
 O250 O 0.65145 -0.00834 0.56863
 Zr251 Zr 0.50651 -0.07666 0.50000
 Zr252 Zr 0.49765 0.07286 0.50635
 O253 O 0.51126 0.03873 0.59059
 O254 O 0.51638 -0.05059 0.58759
 O255 O 0.42843 0.04239 0.51761
 O256 O 0.57464 -0.04375 0.48928
 O257 O 0.43424 -0.04493 0.51343
 O258 O 0.57014 0.04163 0.49259
 H259 H 0.48203 0.06997 0.38605
 H260 H 0.60615 -0.06382 0.48361
 H261 H 0.51550 0.06039 0.62532
 H262 H 0.40612 -0.06656 0.51658
 H263 H 0.64611 0.01473 0.43009
 H264 H 0.66171 -0.00776 0.52646
 H265 H 0.57597 -0.03661 0.67747
 H266 H 0.48837 -0.03354 0.69208
 H267 H 0.35655 0.01506 0.57361
 H268 H 0.33630 -0.00089 0.41987
 H269 H 0.43918 -0.00943 0.32553
 H270 H 0.52440 -0.02196 0.31091
 O271 O 0.56971 0.56994 0.11064
 O272 O 0.62302 0.53154 0.04443
 C273 C 0.61353 0.55995 0.08923
 O274 O 0.43352 0.40328 0.09486
 O275 O 0.37382 0.45456 0.04669
 C276 C 0.38760 0.41734 0.08215
 O277 O 0.57151 0.40403 0.09575
 O278 O 0.62450 0.44796 0.03941
 C279 C 0.61553 0.41570 0.08048
 O280 O 0.43265 0.58729 0.10652
 O281 O 0.37319 0.54684 0.05534
 C282 C 0.38695 0.58015 0.09258
 Zr283 Zr 0.49924 0.55195 0.07834
 O284 O 0.49955 0.53561 0.17095
 O285 O 0.50406 0.62783 0.09594
 Zr286 Zr 0.50039 0.43011 0.06371
 O287 O 0.49991 0.41866 0.15741
 O288 O 0.50736 0.35290 0.05060
 O289 O 0.54521 0.48813 0.08038
 O290 O 0.45586 0.49246 0.08400
 O291 O 0.42402 0.60652 -0.08338
 O292 O 0.36886 0.55397 -0.04477
 C293 C 0.37946 0.59432 -0.07297
 O294 O 0.56102 0.42193 -0.12628
 O295 O 0.61974 0.45592 -0.06695
 C296 C 0.60671 0.42953 -0.11186
 O297 O 0.42438 0.42222 -0.11613
 O298 O 0.36977 0.46249 -0.05262
 C299 C 0.38017 0.43241 -0.09626
 O300 O 0.55880 0.59483 -0.09848
 O301 O 0.61838 0.54139 -0.05422
 C302 C 0.60449 0.58042 -0.08595
 Zr303 Zr 0.49199 0.56609 -0.07195
 O304 O 0.48196 0.56543 -0.16601
 O305 O 0.49326 0.64366 -0.07969
 Zr306 Zr 0.49347 0.44444 -0.08591
 O307 O 0.48353 0.45371 -0.17958
 O308 O 0.50006 0.36674 -0.09420
 Zr309 Zr 0.57135 0.49512 -0.00760
 Zr310 Zr 0.42060 0.50198 -0.00038
 O311 O 0.44765 0.50856 -0.08766
 O312 O 0.53741 0.50461 -0.09305
 O313 O 0.45194 0.57098 0.00630
 O314 O 0.54076 0.42595 -0.01400
 O315 O 0.53801 0.56672 0.00263
 O316 O 0.45249 0.42956 -0.01020
 H317 H 0.43448 0.49124 0.11951
 H318 H 0.56395 0.39639 -0.01784
 H319 H 0.42287 0.51331 -0.12085
 H320 H 0.55792 0.59597 0.00654
 H321 H 0.47581 0.34313 0.03239
 H322 H 0.47379 0.35296 -0.06988
 H323 H 0.50901 0.47557 -0.19378
 H324 H 0.51536 0.56425 -0.18385
 H325 H 0.49710 0.65601 -0.03866
 H326 H 0.48955 0.64620 0.06064
 H327 H 0.49960 0.56780 0.19117
 H328 H 0.52000 0.44401 0.17548
 N329 N 1.20033 0.15463 0.10401
 C330 C 1.20227 0.15937 0.16429
 N331 N 1.17902 0.12673 0.19894
 N332 N 1.15270 0.09226 0.17459
 C333 C 1.14971 0.08813 0.11453
 N334 N 1.17438 0.11954 0.07959
 N335 N 1.19966 0.66028 0.62324
 C336 C 1.18316 0.70523 0.64278
 N337 N 1.13404 0.71959 0.63562
 N338 N 1.10234 0.68938 0.61165
 C339 C 1.11881 0.64352 0.59500
 N340 N 1.16804 0.63001 0.59992
 N341 N 0.70221 0.16214 0.62356
 C342 C 0.68445 0.20639 0.64433
 N343 N 0.63514 0.21978 0.63590
 N344 N 0.60464 0.18947 0.60995
 C345 C 0.62238 0.14440 0.59213
 N346 N 0.67174 0.13177 0.59816
 N347 N 0.68299 0.62607 0.19834
 C348 C 0.70525 0.65905 0.16319
 N349 N 0.70283 0.65428 0.10297
 N350 N 0.67714 0.61886 0.07903
 C351 C 0.65324 0.58722 0.11446
 N352 N 0.65688 0.59126 0.17447
 N353 N 0.82309 -0.15293 0.19062
 C354 C 0.79074 -0.17814 0.15775
 N355 N 0.78508 -0.16692 0.09838
 N356 N 0.81158 -0.13264 0.07278
 C357 C 0.84473 -0.10824 0.10565
 N358 N 0.84991 -0.11917 0.16496
 N359 N 0.85340 0.28352 0.62534
 C360 C 0.83612 0.29183 0.68141
 N361 N 0.85765 0.32624 0.71477
 N362 N 0.89278 0.35297 0.69174
 C363 C 0.90882 0.34572 0.63499
 N364 N 0.88894 0.30984 0.60256
 N365 N 0.36066 -0.21900 0.62092
 C366 C 0.34215 -0.20991 0.67622
 N367 N 0.36271 -0.17506 0.70966
 N368 N 0.39853 -0.14880 0.68764
 C369 C 0.41592 -0.15665 0.63164
 N370 N 0.39674 -0.19287 0.59898
 N371 N 0.28581 0.33412 0.10378
 C372 C 0.29312 0.31969 0.16203
 N373 N 0.32894 0.34072 0.19444
 N374 N 0.35717 0.37363 0.16936
 C375 C 0.35013 0.38793 0.11119
 N376 N 0.31366 0.36767 0.07886
 N377 N 0.77091 0.14889 -0.16462
 C378 C 0.78382 0.19600 -0.17524
 N379 N 0.82490 0.21123 -0.14707
 N380 N 0.85326 0.17977 -0.11281
 C381 C 0.84148 0.13213 -0.10439
 N382 N 0.79909 0.11751 -0.12999
 N383 N 0.86618 0.71392 0.32453
 C384 C 0.81632 0.70901 0.32259
 N385 N 0.79650 0.67814 0.36257
 N386 N 0.82540 0.65154 0.40129
 C387 C 0.87533 0.65496 0.40195
 N388 N 0.89520 0.68748 0.36380
 N389 N 0.29493 0.17528 0.36540
 C390 C 0.31388 0.20702 0.32580
 N391 N 0.36339 0.21387 0.32851
 N392 N 0.39300 0.18832 0.36805
 C393 C 0.37407 0.15494 0.40591
 N394 N 0.32439 0.14970 0.40448
 N395 N 0.32530 0.70772 -0.14316
 C396 C 0.28475 0.69188 -0.17162
 N397 N 0.27133 0.64517 -0.15985
 N398 N 0.29882 0.61458 -0.12349
 C399 C 0.34072 0.62985 -0.09728
 N400 N 0.35275 0.67720 -0.10695
 N401 N 1.16313 -0.12763 -0.24153
 C402 C 1.20222 -0.15558 -0.21753
 N403 N 1.21386 -0.15037 -0.15866
 N404 N 1.18584 -0.11992 -0.12475
 C405 C 1.14526 -0.09388 -0.14870
 N406 N 1.13517 -0.09764 -0.20785
 N407 N 1.18596 0.33732 0.32926
 C408 C 1.17117 0.29459 0.30695
 N409 N 1.12516 0.28001 0.32097
 N410 N 1.09458 0.30779 0.35485
 C411 C 1.10919 0.35121 0.37580
 N412 N 1.15540 0.36514 0.36261
 N413 N 0.62954 -0.22048 0.32316
 C414 C 0.67301 -0.20387 0.30287
 N415 N 0.68460 -0.15757 0.31608
 N416 N 0.65343 -0.12858 0.34717
 C417 C 0.60978 -0.14471 0.36686
 N418 N 0.59846 -0.19152 0.35502
 N419 N 0.71708 0.35460 -0.16365
 C420 C 0.70047 0.34192 -0.21887
 N421 N 0.65680 0.36377 -0.23986
 N422 N 0.62934 0.39443 -0.20664
 C423 C 0.64417 0.40514 -0.15058
 N424 N 0.68921 0.38556 -0.12989
 N425 N 1.21972 0.12727 -0.14077
 C426 C 1.20544 0.17623 -0.14521
 N427 N 1.16007 0.19205 -0.12556
 N428 N 1.12930 0.16004 -0.10469
 C429 C 1.14270 0.11111 -0.10253
 N430 N 1.18898 0.09512 -0.11913
 N431 N 1.12481 0.71744 0.34944
 C432 C 1.17414 0.70272 0.35104
 N433 N 1.18903 0.66036 0.38061
 N434 N 1.15583 0.63273 0.40533
 C435 C 1.10656 0.64645 0.40196
 N436 N 1.09144 0.68985 0.37470
 N437 N 0.62791 0.18759 0.30383
 C438 C 0.66495 0.20519 0.33770
 N439 N 0.66457 0.19830 0.39785
 N440 N 0.62925 0.17296 0.42269
 C441 C 0.59325 0.15400 0.38828
 N442 N 0.59312 0.16189 0.32851
 N443 N 0.71776 0.63091 -0.14373
 C444 C 0.70241 0.67945 -0.15219
 N445 N 0.65634 0.69489 -0.13405
 N446 N 0.62626 0.66297 -0.11121
 C447 C 0.64091 0.61441 -0.10518
 N448 N 0.68774 0.59895 -0.12015
 N449 N 0.82052 -0.14409 -0.21312
 C450 C 0.78744 -0.16753 -0.17969
 N451 N 0.78010 -0.15249 -0.12249
 N452 N 0.80621 -0.11712 -0.09895
 C453 C 0.84072 -0.09519 -0.13179
 N454 N 0.84693 -0.10913 -0.18944
 N455 N 0.84506 0.32941 0.30436
 C456 C 0.82788 0.29085 0.33527
 N457 N 0.84484 0.28205 0.39238
 N458 N 0.87712 0.31115 0.41772
 C459 C 0.89329 0.35045 0.38704
 N460 N 0.87668 0.35883 0.32990
 N461 N 0.35163 -0.21898 0.38726
 C462 C 0.33126 -0.20804 0.33214
 N463 N 0.34489 -0.16709 0.30289
 N464 N 0.37636 -0.13748 0.32842
 C465 C 0.39618 -0.14794 0.38380
 N466 N 0.38370 -0.18966 0.41252
 N467 N 0.32040 0.35698 -0.20672
 C468 C 0.28925 0.33175 -0.17254
 N469 N 0.28295 0.34547 -0.11470
 N470 N 0.30850 0.38123 -0.09124
 C471 C 0.34127 0.40487 -0.12487
 N472 N 0.34625 0.39236 -0.18315
 N473 N 1.21266 -0.16936 0.13927
 C474 C 1.20515 -0.16707 0.19915
 N475 N 1.17119 -0.13278 0.21969
 N476 N 1.14416 -0.10337 0.18210
 C477 C 1.15001 -0.10680 0.12234
 N478 N 1.18547 -0.13964 0.10137
 N479 N 1.14524 0.27070 0.66194
 C480 C 1.19150 0.28480 0.67695
 N481 N 1.20572 0.32843 0.65558
 N482 N 1.17420 0.35770 0.62277
 C483 C 1.12738 0.34461 0.60969
 N484 N 1.11364 0.30001 0.62881
 N485 N 0.71153 -0.17494 0.64602
 C486 C 0.69473 -0.21586 0.67216
 N487 N 0.64724 -0.22758 0.65934
 N488 N 0.61699 -0.19842 0.62438
 C489 C 0.63324 -0.15629 0.60076
 N490 N 0.68123 -0.14564 0.61148
 N491 N 0.71317 0.32517 0.13337
 C492 C 0.71086 0.33202 0.19332
 N493 N 0.68241 0.37086 0.21383
 N494 N 0.65571 0.40064 0.17627
 C495 C 0.65637 0.39283 0.11669
 N496 N 0.68626 0.35511 0.09558
 N497 N 0.77649 0.13270 0.16866
 C498 C 0.79198 0.17796 0.18301
 N499 N 0.83490 0.19233 0.16005
 N500 N 0.86219 0.16191 0.12600
 C501 C 0.84753 0.11625 0.11289
 N502 N 0.80375 0.10224 0.13419
 N503 N 0.86424 0.65929 0.73699
 C504 C 0.84050 0.70175 0.71610
 N505 N 0.85128 0.71811 0.66018
 N506 N 0.88200 0.69082 0.62549
 C507 C 0.90321 0.64676 0.64608
 N508 N 0.89473 0.63248 0.70290
 N509 N 0.34945 0.21216 0.65910
 C510 C 0.34586 0.20070 0.71818
 N511 N 0.37516 0.16246 0.74149
 N512 N 0.40495 0.13507 0.70696
 C513 C 0.40705 0.14495 0.64766
 N514 N 0.37974 0.18475 0.62434
 N515 N 0.33703 0.69182 0.16600
 C516 C 0.29223 0.67883 0.18491
 N517 N 0.27660 0.63387 0.16933
 N518 N 0.30518 0.60266 0.13717
 C519 C 0.35070 0.61532 0.11992
 N520 N 0.36568 0.66059 0.13443
   
