data_POSCAR
  _audit_creation_date              2014-09-24
  _audit_creation_method            'ToBaCCo'
  _symmetry_space_group_name_H-M    'P1'
  _symmetry_Int_Tables_number       1
  _symmetry_cell_setting            triclinic
  loop_
  _symmetry_equiv_pos_as_xyz
 x,y,z
_cell_length_a 51.7317
_cell_length_b 51.7322
_cell_length_c 51.7321
_cell_angle_alpha 89.066600
_cell_angle_beta 89.070200
_cell_angle_gamma 89.076600
loop_
  _atom_site_label
  _atom_site_type_symbol
  _atom_site_fract_x
  _atom_site_fract_y
  _atom_site_fract_z
Si1 Si 0.75441 0.61902 0.99936
 Si2 Si 0.74961 0.37949 0.50225
 Si3 Si 0.24953 -0.12048 0.00207
 Si4 Si 0.25449 0.11902 0.49916
 Si5 Si 0.11898 0.49938 0.25454
 Si6 Si -0.12053 0.00220 0.24940
 Si7 Si 0.37946 0.50209 0.74962
 Si8 Si 0.61898 0.99928 0.75433
 Si9 Si 0.00222 0.24966 -0.12045
 Si10 Si 0.49937 0.25433 0.11906
 Si11 Si 0.99926 0.75463 0.61907
 Si12 Si 0.50214 0.74936 0.37956
 C13 C 0.41703 -0.02502 0.27736
 H14 H 0.41806 -0.00637 0.28643
 C15 C 0.43084 -0.04620 0.28753
 H16 H 0.44270 -0.04385 0.30438
 C17 C 0.39927 -0.05131 0.24520
 H18 H 0.38637 -0.05349 0.22921
 C19 C 0.41275 -0.07293 0.25472
 H20 H 0.41038 -0.09155 0.24584
 N21 N 0.40155 -0.02794 0.25661
 C22 C 0.38651 0.04849 0.22271
 H23 H 0.36568 0.04741 0.22173
 C24 C 0.39907 0.07042 0.21331
 H25 H 0.38791 0.08631 0.20501
 C26 C 0.42649 0.02905 0.23473
 H27 H 0.43705 0.01280 0.24295
 C28 C 0.43987 0.05072 0.22550
 H29 H 0.46075 0.05119 0.22671
 Zn30 Zn 0.38043 0.00036 0.24581
 N31 N 0.40024 0.02852 0.23345
 C32 C 0.36227 0.03521 0.28375
 N33 N 0.36020 0.01074 0.27480
 C34 C 0.34523 -0.00701 0.28738
 C35 C 0.33141 -0.00030 0.30982
 C36 C 0.34880 0.04269 0.30603
 C37 C 0.37202 -0.01501 0.19558
 C38 C 0.35828 -0.02278 0.17417
 C39 C 0.31871 -0.01869 0.19937
 C40 C 0.33323 -0.01095 0.22039
 N41 N 0.35945 -0.00964 0.21821
 H42 H 0.37479 0.04885 0.27401
 H43 H 0.34434 -0.02649 0.28016
 H44 H 0.31970 -0.01456 0.31988
 H45 H 0.35078 0.06215 0.31311
 H46 H 0.39284 -0.01350 0.19433
 H47 H 0.36852 -0.02737 0.15635
 H48 H 0.29788 -0.02004 0.20127
 H49 H 0.32357 -0.00612 0.23838
 C50 C 0.42596 0.07163 0.21482
 C51 C 0.42848 -0.07041 0.27621
 C52 C 0.33141 -0.02479 0.17611
 C53 C 0.33333 0.02479 0.31923
 C54 C 0.08557 1.02394 0.78114
 H55 H 0.08400 1.00527 0.79071
 C56 C 0.07205 1.04534 0.79100
 H57 H 0.05990 1.04314 0.80812
 C58 C 0.10433 1.05004 0.74795
 H59 H 0.11750 1.05204 0.73167
 C60 C 0.09117 1.07187 0.75714
 H61 H 0.09405 1.09049 0.74772
 N62 N 0.10139 1.02667 0.76002
 C63 C 0.11497 0.94993 0.72827
 H64 H 0.13587 0.95023 0.72729
 C65 C 0.10186 0.92871 0.71910
 H66 H 0.11267 0.91255 0.71103
 C67 C 0.07533 0.97082 0.73966
 H68 H 0.06512 0.98743 0.74741
 C69 C 0.06141 0.94990 0.73064
 H70 H 0.04048 0.95035 0.73157
 Zn71 Zn 0.12200 0.99798 0.74956
 N72 N 0.10165 0.97032 0.73849
 C73 C 0.13958 0.96284 0.78819
 N74 N 0.14193 0.98725 0.77830
 C75 C 0.15718 1.00484 0.78970
 C76 C 0.17106 0.99800 0.81183
 C77 C 0.15310 0.95523 0.81021
 C78 C 0.13097 1.01340 0.69868
 C79 C 0.14499 1.02098 0.67668
 C80 C 0.18437 1.01580 0.70088
 C81 C 0.16958 1.00826 0.72251
 N82 N 0.14334 1.00760 0.72110
 H83 H 0.12685 0.94934 0.77935
 H84 H 0.15831 1.02427 0.78175
 H85 H 0.18304 1.01212 0.82091
 H86 H 0.15095 0.93581 0.81805
 H87 H 0.11012 1.01239 0.69805
 H88 H 0.13493 1.02594 0.65903
 H89 H 0.20522 1.01666 0.70216
 H90 H 0.17906 1.00309 0.74034
 C91 C 0.07486 0.92865 0.72031
 C92 C 0.07507 1.06956 0.77898
 C93 C 0.17190 1.02236 0.67783
 C94 C 0.16892 0.97296 0.82218
 C95 C 0.58555 0.52361 0.28125
 H96 H 0.58401 0.50493 0.29082
 C97 C 0.57201 0.54499 0.29110
 H98 H 0.55987 0.54278 0.30823
 C99 C 0.60428 0.54972 0.24804
 H100 H 0.61744 0.55174 0.23176
 C101 C 0.59109 0.57154 0.25723
 H102 H 0.59395 0.59015 0.24781
 N103 N 0.60136 0.52634 0.26012
 C104 C 0.61504 0.44962 0.22838
 H105 H 0.63593 0.44994 0.22739
 C106 C 0.60195 0.42838 0.21920
 H107 H 0.61278 0.41224 0.21113
 C108 C 0.57537 0.47047 0.23977
 H109 H 0.56515 0.48706 0.24751
 C110 C 0.56148 0.44953 0.23075
 H111 H 0.54054 0.44996 0.23167
 Zn112 Zn 0.62201 0.49768 0.24966
 N113 N 0.60169 0.47000 0.23860
 C114 C 0.63964 0.46257 0.28829
 N115 N 0.64196 0.48698 0.27840
 C116 C 0.65718 0.50460 0.28981
 C117 C 0.67106 0.49778 0.31194
 C118 C 0.65317 0.45498 0.31032
 C119 C 0.63097 0.51310 0.19878
 C120 C 0.64497 0.52071 0.17678
 C121 C 0.68436 0.51560 0.20099
 C122 C 0.66958 0.50804 0.22261
 N123 N 0.64334 0.50733 0.22120
 H124 H 0.62693 0.44905 0.27946
 H125 H 0.65827 0.52403 0.28186
 H126 H 0.68301 0.51192 0.32102
 H127 H 0.65105 0.43556 0.31816
 H128 H 0.61012 0.51205 0.19815
 H129 H 0.63491 0.52565 0.15913
 H130 H 0.70521 0.51649 0.20227
 H131 H 0.67907 0.50288 0.24045
 C132 C 0.57495 0.42830 0.22041
 C133 C 0.57501 0.56921 0.27908
 C134 C 0.67188 0.52213 0.17793
 C135 C 0.66895 0.47274 0.32229
 C136 C 0.91703 0.47531 0.77745
 H137 H 0.91804 0.49395 0.78651
 C138 C 0.93087 0.45414 0.78761
 H139 H 0.94272 0.45650 0.80446
 C140 C 0.89931 0.44900 0.74527
 H141 H 0.88642 0.44680 0.72929
 C142 C 0.91282 0.42740 0.75479
 H143 H 0.91047 0.40877 0.74591
 N144 N 0.90156 0.47237 0.75669
 C145 C 0.88643 0.54879 0.72281
 H146 H 0.86560 0.54769 0.72182
 C147 C 0.89897 0.57073 0.71340
 H148 H 0.88780 0.58661 0.70510
 C149 C 0.92643 0.52939 0.73482
 H150 H 0.93701 0.51315 0.74304
 C151 C 0.93979 0.55108 0.72559
 H152 H 0.96066 0.55157 0.72680
 Zn153 Zn 0.88040 0.50064 0.74589
 N154 N 0.90018 0.52883 0.73354
 C155 C 0.86220 0.53546 0.78384
 N156 N 0.86016 0.51100 0.77488
 C157 C 0.84522 0.49322 0.78746
 C158 C 0.83140 0.49991 0.80991
 C159 C 0.84872 0.54293 0.80612
 C160 C 0.87202 0.48526 0.69566
 C161 C 0.85829 0.47747 0.67425
 C162 C 0.81871 0.48150 0.69946
 C163 C 0.83322 0.48927 0.72047
 N164 N 0.85943 0.49062 0.71829
 H165 H 0.87470 0.54913 0.77410
 H166 H 0.84436 0.47374 0.78024
 H167 H 0.81971 0.48563 0.81997
 H168 H 0.85067 0.56238 0.81321
 H169 H 0.89284 0.48681 0.69441
 H170 H 0.86853 0.47289 0.65644
 H171 H 0.79789 0.48012 0.70136
 H172 H 0.82355 0.49408 0.73846
 C173 C 0.92586 0.57197 0.71492
 C174 C 0.92854 0.42993 0.77628
 C175 C 0.83143 0.47542 0.67620
 C176 C 0.83328 0.52499 0.81933
 C177 C 0.27744 0.41696 -0.02466
 H178 H 0.28651 0.41799 -0.00602
 C179 C 0.28760 0.43078 -0.04584
 H180 H 0.30445 0.44263 -0.04350
 C181 C 0.24525 0.39922 -0.05094
 H182 H 0.22926 0.38633 -0.05312
 C183 C 0.25477 0.41271 -0.07256
 H184 H 0.24588 0.41035 -0.09118
 N185 N 0.25668 0.40150 -0.02758
 C186 C 0.22280 0.38644 0.04887
 H187 H 0.22181 0.36561 0.04779
 C188 C 0.21340 0.39900 0.07079
 H189 H 0.20510 0.38784 0.08668
 C190 C 0.23482 0.42642 0.02942
 H191 H 0.24304 0.43698 0.01317
 C192 C 0.22559 0.43980 0.05109
 H193 H 0.22680 0.46067 0.05155
 Zn194 Zn 0.24588 0.38036 0.00072
 N195 N 0.23354 0.40017 0.02889
 C196 C 0.28383 0.36218 0.03556
 N197 N 0.27486 0.36013 0.01109
 C198 C 0.28744 0.34516 -0.00667
 C199 C 0.30988 0.33134 0.00003
 C200 C 0.30611 0.34871 0.04303
 C201 C 0.19564 0.37198 -0.01464
 C202 C 0.17423 0.35824 -0.02242
 C203 C 0.19942 0.31866 -0.01836
 C204 C 0.22044 0.33318 -0.01060
 N205 N 0.21827 0.35939 -0.00928
 H206 H 0.27409 0.37469 0.04921
 H207 H 0.28021 0.34429 -0.02614
 H208 H 0.31993 0.31964 -0.01424
 H209 H 0.31320 0.35067 0.06248
 H210 H 0.19440 0.39279 -0.01311
 H211 H 0.15641 0.36849 -0.02700
 H212 H 0.20132 0.29785 -0.01973
 H213 H 0.23843 0.32351 -0.00579
 C214 C 0.21491 0.42589 0.07199
 C215 C 0.27626 0.42843 -0.07005
 C216 C 0.17617 0.33138 -0.02445
 C217 C 0.31930 0.33324 0.02511
 C218 C 0.78117 0.08552 1.02360
 H219 H 0.79075 0.08398 1.00492
 C220 C 0.79102 0.07199 1.04499
 H221 H 0.80815 0.05985 1.04279
 C222 C 0.74796 0.10426 1.04969
 H223 H 0.73168 0.11742 1.05170
 C224 C 0.75715 0.09108 1.07152
 H225 H 0.74772 0.09394 1.09013
 N226 N 0.76005 0.10134 1.02632
 C227 C 0.72831 0.11498 0.94958
 H228 H 0.72733 0.13588 0.94989
 C229 C 0.71914 0.10189 0.92835
 H230 H 0.71107 0.11271 0.91220
 C231 C 0.73969 0.07533 0.97046
 H232 H 0.74744 0.06511 0.98706
 C233 C 0.73067 0.06142 0.94953
 H234 H 0.73159 0.04049 0.94996
 Zn235 Zn 0.74959 0.12198 0.99764
 N236 N 0.73853 0.10165 0.96997
 C237 C 0.78823 0.13960 0.96253
 N238 N 0.77834 0.14192 0.98694
 C239 C 0.78974 0.15714 1.00455
 C240 C 0.81187 0.17103 0.99774
 C241 C 0.81026 0.15313 0.95494
 C242 C 0.69871 0.13094 1.01305
 C243 C 0.67671 0.14494 1.02066
 C244 C 0.70093 0.18433 1.01552
 C245 C 0.72255 0.16954 1.00797
 N246 N 0.72113 0.14330 1.00728
 H247 H 0.77940 0.12689 0.94902
 H248 H 0.78178 0.15823 1.02398
 H249 H 0.82095 0.18298 1.01188
 H250 H 0.81810 0.15101 0.93553
 H251 H 0.69808 0.11009 1.01202
 H252 H 0.65906 0.13488 1.02560
 H253 H 0.70221 0.20517 1.01641
 H254 H 0.74039 0.17903 1.00281
 C255 C 0.72034 0.07489 0.92829
 C256 C 0.77900 0.07500 1.06920
 C257 C 0.67787 0.17185 1.02207
 C258 C 0.82222 0.16892 0.97270
 C259 C 0.28106 0.58551 0.52392
 H260 H 0.29063 0.58394 0.50524
 C261 C 0.29090 0.57197 0.54531
 H262 H 0.30802 0.55981 0.54311
 C263 C 0.24788 0.60428 0.55002
 H264 H 0.23161 0.61746 0.55203
 C265 C 0.25706 0.59109 0.57185
 H266 H 0.24764 0.59398 0.59046
 N267 N 0.25996 0.60134 0.52664
 C268 C 0.22821 0.61499 0.44991
 H269 H 0.22725 0.63589 0.45021
 C270 C 0.21903 0.60190 0.42868
 H271 H 0.21097 0.61273 0.41253
 C272 C 0.23957 0.57533 0.47079
 H273 H 0.24731 0.56511 0.48739
 C274 C 0.23054 0.56143 0.44986
 H275 H 0.23145 0.54050 0.45030
 Zn276 Zn 0.24951 0.62198 0.49796
 N277 N 0.23843 0.60165 0.47030
 C278 C 0.28815 0.63954 0.46283
 N279 N 0.27827 0.64189 0.48725
 C280 C 0.28969 0.65712 0.50484
 C281 C 0.31184 0.67098 0.49800
 C282 C 0.31020 0.65305 0.45523
 C283 C 0.19864 0.63099 0.51339
 C284 C 0.17665 0.64502 0.52098
 C285 C 0.20089 0.68438 0.51581
 C286 C 0.22251 0.66957 0.50827
 N287 N 0.22107 0.64333 0.50759
 H288 H 0.27931 0.62684 0.44933
 H289 H 0.28175 0.65823 0.52427
 H290 H 0.32093 0.68294 0.51213
 H291 H 0.31802 0.65091 0.43581
 H292 H 0.19799 0.61014 0.51236
 H293 H 0.15899 0.63497 0.52593
 H294 H 0.20219 0.70523 0.51668
 H295 H 0.24035 0.67904 0.50310
 C296 C 0.22022 0.57490 0.42862
 C297 C 0.27889 0.57499 0.56953
 C298 C 0.17783 0.67192 0.52236
 C299 C 0.32218 0.66884 0.47296
 C300 C 0.77734 0.91701 0.47502
 H301 H 0.78640 0.91805 0.49367
 C302 C 0.78749 0.93084 0.45384
 H303 H 0.80433 0.94271 0.45618
 C304 C 0.74518 0.89923 0.44874
 H305 H 0.72921 0.88632 0.44656
 C306 C 0.75469 0.91272 0.42712
 H307 H 0.74581 0.91034 0.40850
 N308 N 0.75659 0.90152 0.47211
 C309 C 0.72271 0.88645 0.54854
 H310 H 0.72174 0.86562 0.54747
 C311 C 0.71330 0.89901 0.57047
 H312 H 0.70501 0.88785 0.58635
 C313 C 0.73470 0.92645 0.52910
 H314 H 0.74292 0.93701 0.51285
 C315 C 0.72547 0.93982 0.55076
 H316 H 0.72666 0.96069 0.55123
 Zn317 Zn 0.74581 0.88039 0.50041
 N318 N 0.73344 0.90019 0.52857
 C319 C 0.78377 0.86227 0.53526
 N320 N 0.77481 0.86018 0.51079
 C321 C 0.78740 0.84522 0.49304
 C322 C 0.80986 0.83142 0.49976
 C323 C 0.80606 0.84882 0.54275
 C324 C 0.69559 0.87195 0.48503
 C325 C 0.67418 0.85819 0.47727
 C326 C 0.69940 0.81863 0.48138
 C327 C 0.72042 0.83317 0.48911
 N328 N 0.71822 0.85938 0.49041
 H329 H 0.77402 0.87478 0.54890
 H330 H 0.78018 0.84432 0.47357
 H331 H 0.81992 0.81972 0.48550
 H332 H 0.81315 0.85080 0.56220
 H333 H 0.69432 0.89277 0.48654
 H334 H 0.65636 0.86842 0.47268
 H335 H 0.70132 0.79781 0.48003
 H336 H 0.73841 0.82352 0.49395
 C337 C 0.71480 0.92590 0.57167
 C338 C 0.77617 0.92847 0.42963
 C339 C 0.67615 0.83132 0.47527
 C340 C 0.81927 0.83335 0.52485
 C341 C -0.02482 0.27735 0.41697
 H342 H -0.00617 0.28641 0.41799
 C343 C -0.04599 0.28750 0.43082
 H344 H -0.04363 0.30434 0.44268
 C345 C -0.05114 0.24520 0.39922
 H346 H -0.05333 0.22923 0.38631
 C347 C -0.07274 0.25471 0.41273
 H348 H -0.09136 0.24583 0.41037
 N349 N -0.02776 0.25661 0.40148
 C350 C 0.04866 0.22274 0.38633
 H351 H 0.04756 0.22177 0.36550
 C352 C 0.07059 0.21333 0.39887
 H353 H 0.08647 0.20505 0.38769
 C354 C 0.02925 0.23471 0.42635
 H355 H 0.01301 0.24292 0.43693
 C356 C 0.05093 0.22548 0.43970
 H357 H 0.05141 0.22667 0.46057
 Zn358 Zn 0.00051 0.24583 0.38032
 N359 N 0.02870 0.23346 0.40009
 C360 C 0.03534 0.28379 0.36216
 N361 N 0.01087 0.27483 0.36010
 C362 C -0.00690 0.28743 0.34516
 C363 C -0.00020 0.30989 0.33136
 C364 C 0.04281 0.30609 0.34870
 C365 C -0.01487 0.19561 0.37190
 C366 C -0.02266 0.17421 0.35815
 C367 C -0.01862 0.19944 0.31859
 C368 C -0.01086 0.22045 0.33312
 N369 N -0.00951 0.21824 0.35933
 H370 H 0.04900 0.27404 0.37465
 H371 H -0.02637 0.28020 0.34429
 H372 H -0.01447 0.31995 0.31967
 H373 H 0.06227 0.31318 0.35066
 H374 H -0.01333 0.19434 0.39272
 H375 H -0.02724 0.15638 0.36839
 H376 H -0.02000 0.20135 0.29777
 H377 H -0.00604 0.23844 0.32346
 C378 C 0.07182 0.21482 0.42576
 C379 C -0.07021 0.27618 0.42847
 C380 C -0.02470 0.17617 0.33129
 C381 C 0.02489 0.31931 0.33325
 C382 C 1.02375 0.78119 0.08545
 H383 H 1.00508 0.79076 0.08390
 C384 C 1.04514 0.79104 0.07191
 H385 H 1.04294 0.80816 0.05976
 C386 C 1.04986 0.74800 0.10421
 H387 H 1.05186 0.73172 0.11738
 C388 C 1.07168 0.75719 0.09102
 H389 H 1.09029 0.74776 0.09389
 N390 N 1.02648 0.76008 0.10128
 C391 C 0.94975 0.72833 0.11494
 H392 H 0.95006 0.72736 0.13584
 C393 C 0.92851 0.71915 0.10186
 H394 H 0.91237 0.71108 0.11269
 C395 C 0.97062 0.73970 0.07528
 H396 H 0.98721 0.74745 0.06505
 C397 C 0.94968 0.73067 0.06139
 H398 H 0.95011 0.73159 0.04045
 Zn399 Zn 0.99780 0.74962 0.12192
 N400 N 0.97013 0.73855 0.10160
 C401 C 0.96269 0.78827 0.13950
 N402 N 0.98710 0.77838 0.14184
 C403 C 1.00470 0.78979 0.15707
 C404 C 0.99787 0.81192 0.17094
 C405 C 0.95509 0.81030 0.15301
 C406 C 1.01322 0.69875 0.13092
 C407 C 1.02082 0.67676 0.14494
 C408 C 1.01567 0.70099 0.18431
 C409 C 1.00812 0.72260 0.16951
 N410 N 1.00744 0.72118 0.14327
 H411 H 0.94918 0.77943 0.12679
 H412 H 1.02413 0.78184 0.15818
 H413 H 1.01200 0.82101 0.18290
 H414 H 0.93568 0.81813 0.15088
 H415 H 1.01219 0.69811 0.11007
 H416 H 1.02577 0.65910 0.13489
 H417 H 1.01654 0.70228 0.20516
 H418 H 1.00295 0.74045 0.17898
 C419 C 0.92844 0.72034 0.07486
 C420 C 1.06936 0.77902 0.07492
 C421 C 1.02221 0.67793 0.17185
 C422 C 0.97283 0.82227 0.16881
 C423 C 0.52377 0.28120 0.58551
 H424 H 0.50510 0.29077 0.58394
 C425 C 0.54517 0.29105 0.57199
 H426 H 0.54299 0.30818 0.55985
 C427 C 0.54984 0.24798 0.60426
 H428 H 0.55183 0.23169 0.61742
 C429 C 0.57168 0.25716 0.59110
 H430 H 0.59028 0.24773 0.59398
 N431 N 0.52647 0.26007 0.60132
 C432 C 0.44972 0.22832 0.61488
 H433 H 0.45001 0.22733 0.63578
 C434 C 0.42850 0.21915 0.60177
 H435 H 0.41234 0.21108 0.61258
 C436 C 0.47063 0.23972 0.57525
 H437 H 0.48723 0.24747 0.56504
 C438 C 0.44970 0.23070 0.56133
 H439 H 0.45016 0.23164 0.54039
 Zn440 Zn 0.49777 0.24960 0.62193
 N441 N 0.47012 0.23855 0.60157
 C442 C 0.46265 0.28823 0.63951
 N443 N 0.48705 0.27834 0.64187
 C444 C 0.50465 0.28974 0.65712
 C445 C 0.49781 0.31186 0.67100
 C446 C 0.45504 0.31025 0.65304
 C447 C 0.51317 0.19872 0.63089
 C448 C 0.52076 0.17671 0.64490
 C449 C 0.51559 0.20091 0.68429
 C450 C 0.50805 0.22254 0.66950
 N451 N 0.50738 0.22113 0.64326
 H452 H 0.44915 0.27940 0.62678
 H453 H 0.52407 0.28178 0.65823
 H454 H 0.51193 0.32093 0.68298
 H455 H 0.43563 0.31809 0.65090
 H456 H 0.51215 0.19809 0.61004
 H457 H 0.52570 0.15906 0.63484
 H458 H 0.51646 0.20219 0.70513
 H459 H 0.50288 0.24038 0.67898
 C460 C 0.42845 0.22037 0.57477
 C461 C 0.56938 0.27902 0.57501
 C462 C 0.52214 0.17786 0.67181
 C463 C 0.47277 0.32221 0.66886
 C464 C 0.47516 0.77737 0.91692
 H465 H 0.49380 0.78644 0.91795
 C466 C 0.45398 0.78753 0.93074
 H467 H 0.45632 0.80438 0.94259
 C468 C 0.44886 0.74519 0.89918
 H469 H 0.44668 0.72921 0.88629
 C470 C 0.42725 0.75471 0.91267
 H471 H 0.40863 0.74583 0.91030
 N472 N 0.47223 0.75661 0.90146
 C473 C 0.54867 0.72273 0.88641
 H474 H 0.54759 0.72174 0.86559
 C475 C 0.57059 0.71333 0.89898
 H476 H 0.58648 0.70503 0.88783
 C477 C 0.52922 0.73475 0.92640
 H478 H 0.51297 0.74297 0.93695
 C479 C 0.55089 0.72552 0.93978
 H480 H 0.55135 0.72673 0.96065
 Zn481 Zn 0.50053 0.74581 0.88033
 N482 N 0.52870 0.73347 0.90014
 C483 C 0.53537 0.78376 0.86215
 N484 N 0.51090 0.77479 0.86009
 C485 C 0.49314 0.78737 0.84512
 C486 C 0.49985 0.80982 0.83130
 C487 C 0.54285 0.80604 0.84867
 C488 C 0.48516 0.69558 0.87196
 C489 C 0.47738 0.67416 0.85823
 C490 C 0.48145 0.69935 0.81864
 C491 C 0.48921 0.72037 0.83315
 N492 N 0.49053 0.71820 0.85936
 H493 H 0.54903 0.77402 0.87466
 H494 H 0.47367 0.78014 0.84424
 H495 H 0.48558 0.81986 0.81960
 H496 H 0.56230 0.81313 0.85064
 H497 H 0.48668 0.69433 0.89277
 H498 H 0.47279 0.65634 0.86848
 H499 H 0.48009 0.70124 0.79782
 H500 H 0.49403 0.73836 0.82348
 C501 C 0.57179 0.71484 0.92587
 C502 C 0.42976 0.77621 0.92839
 C503 C 0.47536 0.67610 0.83136
 C504 C 0.52493 0.81924 0.83321
 C505 C 0.49273 -0.22295 0.35967
 C506 C 0.48628 -0.20398 0.34741
 C507 C 0.47827 -0.18092 0.33359
 C508 C 0.48759 -0.15683 0.34079
 C509 C 0.47871 -0.13421 0.32842
 C510 C 0.46047 -0.13559 0.30878
 C511 C 0.45143 -0.15971 0.30134
 C512 C 0.46031 -0.18233 0.31371
 C513 C 0.45012 -0.11229 0.29708
 C514 C 0.44071 -0.09300 0.28749
 H515 H 0.50140 -0.15550 0.35622
 H516 H 0.48574 -0.11566 0.33442
 H517 H 0.43723 -0.16100 0.28626
 H518 H 0.45288 -0.20083 0.30807
 C519 C 0.99283 0.27737 0.85968
 C520 C 0.98639 0.29636 0.84745
 C521 C 0.97839 0.31944 0.83364
 C522 C 0.98747 0.34355 0.84107
 C523 C 0.97858 0.36617 0.82871
 C524 C 0.96058 0.36477 0.80885
 C525 C 0.95179 0.34063 0.80118
 C526 C 0.96067 0.31801 0.81355
 C527 C 0.95021 0.38807 0.79716
 C528 C 0.94079 0.40735 0.78757
 H529 H 1.00109 0.34489 0.85667
 H530 H 0.98542 0.38473 0.83488
 H531 H 0.93777 0.33933 0.78594
 H532 H 0.95342 0.29949 0.80773
 C533 C 0.01184 1.22226 0.85997
 C534 C 0.01833 1.20340 0.84797
 C535 C 0.02629 1.18043 0.83447
 C536 C 0.01537 1.15659 0.84128
 C537 C 0.02413 1.13397 0.82928
 C538 C 0.04383 1.13509 0.81042
 C539 C 0.05449 1.15897 0.80336
 C540 C 0.04574 1.18159 0.81536
 C541 C 0.05395 1.11170 0.79912
 C542 C 0.06313 1.09231 0.78988
 H543 H 0.00040 1.15545 0.85613
 H544 H 0.01583 1.11561 0.83498
 H545 H 0.06982 1.16005 0.78888
 H546 H 0.05441 1.19989 0.81003
 C547 C 0.51175 0.72193 0.36001
 C548 C 0.51822 0.70306 0.34802
 C549 C 0.52618 0.68007 0.33455
 C550 C 0.54545 0.68126 0.31526
 C551 C 0.55420 0.65864 0.30326
 C552 C 0.54372 0.63473 0.31051
 C553 C 0.52419 0.63358 0.32956
 C554 C 0.51544 0.65621 0.34154
 C555 C 0.55385 0.61134 0.29922
 C556 C 0.56304 0.59195 0.28997
 H557 H 0.55398 0.69958 0.30978
 H558 H 0.56940 0.65973 0.28864
 H559 H 0.51603 0.61519 0.33540
 H560 H 0.50060 0.65505 0.35653
 C561 C 0.50790 0.28114 0.13923
 C562 C 0.51399 0.29946 0.15174
 C563 C 0.52180 0.32169 0.16586
 C564 C 0.53963 0.31888 0.18583
 C565 C 0.54873 0.34071 0.19819
 C566 C 0.54004 0.36545 0.19062
 C567 C 0.52182 0.36823 0.17099
 C568 C 0.51271 0.34639 0.15864
 C569 C 0.55118 0.38795 0.20175
 C570 C 0.56145 0.40655 0.21054
 H571 H 0.54690 0.29989 0.19147
 H572 H 0.56297 0.33835 0.21321
 H573 H 0.51511 0.38727 0.16485
 H574 H 0.49903 0.34880 0.14311
 C575 C 0.00777 0.78147 0.63921
 C576 C 0.01385 0.79981 0.65170
 C577 C 0.02165 0.82205 0.66580
 C578 C 0.03937 0.81924 0.68588
 C579 C 0.04847 0.84108 0.69822
 C580 C 0.03989 0.86583 0.69053
 C581 C 0.02179 0.86861 0.67080
 C582 C 0.01268 0.84676 0.65846
 C583 C 0.05104 0.88832 0.70165
 C584 C 0.06134 0.90691 0.71044
 H585 H 0.04655 0.80024 0.69160
 H586 H 0.06262 0.83872 0.71332
 H587 H 0.01517 0.88765 0.66457
 H588 H -0.00091 0.84917 0.64285
 C589 C 0.99021 0.72657 0.63844
 C590 C 0.98407 0.70733 0.65030
 C591 C 0.97642 0.68394 0.66357
 C592 C 0.95709 0.68472 0.68282
 C593 C 0.94838 0.66176 0.69437
 C594 C 0.95897 0.63792 0.68671
 C595 C 0.97863 0.63717 0.66778
 C596 C 0.98734 0.66014 0.65624
 C597 C 0.94848 0.61427 0.69712
 C598 C 0.93875 0.59475 0.70542
 H599 H 0.94841 0.70300 0.68853
 H600 H 0.93305 0.66255 0.70887
 H601 H 0.98683 0.61885 0.66159
 H602 H 1.00220 0.65931 0.64126
 C603 C 0.49035 0.22624 0.13841
 C604 C 0.48421 0.20699 0.15025
 C605 C 0.47657 0.18359 0.16350
 C606 C 0.48736 0.15978 0.15602
 C607 C 0.47865 0.13680 0.16756
 C608 C 0.45912 0.13756 0.18663
 C609 C 0.44868 0.16140 0.19443
 C610 C 0.45738 0.18437 0.18289
 C611 C 0.44862 0.11391 0.19703
 C612 C 0.43887 0.09439 0.20533
 H613 H 0.50211 0.15894 0.14094
 H614 H 0.48674 0.11847 0.16125
 H615 H 0.43345 0.16220 0.20904
 H616 H 0.44881 0.20266 0.18872
 C617 C 0.35961 0.49268 -0.22267
 C618 C 0.34737 0.48623 -0.20368
 C619 C 0.33357 0.47823 -0.18060
 C620 C 0.34085 0.48749 -0.15651
 C621 C 0.32850 0.47860 -0.13388
 C622 C 0.30881 0.46043 -0.13525
 C623 C 0.30127 0.45145 -0.15937
 C624 C 0.31363 0.46033 -0.18200
 C625 C 0.29712 0.45008 -0.11194
 C626 C 0.28754 0.44067 -0.09264
 H627 H 0.35633 0.50124 -0.15520
 H628 H 0.33457 0.48558 -0.11534
 H629 H 0.28615 0.43731 -0.16065
 H630 H 0.30793 0.45295 -0.20050
 C631 C 0.85958 0.99278 0.27708
 C632 C 0.84733 0.98632 0.29606
 C633 C 0.83350 0.97831 0.31912
 C634 C 0.84068 0.98765 0.34320
 C635 C 0.82832 0.97875 0.36582
 C636 C 0.80871 0.96049 0.36444
 C637 C 0.80128 0.95143 0.34032
 C638 C 0.81365 0.96032 0.31771
 C639 C 0.79702 0.95012 0.38775
 C640 C 0.78744 0.94071 0.40704
 H641 H 0.85610 1.00147 0.34453
 H642 H 0.83431 0.98580 0.38437
 H643 H 0.78622 0.93721 0.33904
 H644 H 0.80802 0.95287 0.29920
 C645 C 0.85992 0.01180 1.22197
 C646 C 0.84793 0.01827 1.20309
 C647 C 0.83446 0.02622 1.18010
 C648 C 0.84142 0.01544 1.15625
 C649 C 0.82944 0.02418 1.13362
 C650 C 0.81043 0.04374 1.13474
 C651 C 0.80320 0.05426 1.15864
 C652 C 0.81519 0.04552 1.18127
 C653 C 0.79914 0.05386 1.11135
 C654 C 0.78989 0.06305 1.09196
 H655 H 0.85639 0.00059 1.15510
 H656 H 0.83526 0.01600 1.11524
 H657 H 0.78861 0.06948 1.15972
 H658 H 0.80975 0.05408 1.19959
 C659 C 0.35988 0.51171 0.72222
 C660 C 0.34787 0.51819 0.70336
 C661 C 0.33437 0.52615 0.68039
 C662 C 0.34122 0.51529 0.65654
 C663 C 0.32922 0.52404 0.63392
 C664 C 0.31031 0.54370 0.63505
 C665 C 0.30320 0.55430 0.65895
 C666 C 0.31521 0.54555 0.68157
 C667 C 0.29902 0.55383 0.61167
 C668 C 0.28977 0.56303 0.59228
 H669 H 0.35611 0.50036 0.65539
 H670 H 0.33496 0.51579 0.61555
 H671 H 0.28868 0.56959 0.66003
 H672 H 0.30985 0.55417 0.69987
 C673 C 0.13911 0.50789 0.28140
 C674 C 0.15160 0.51397 0.29974
 C675 C 0.16569 0.52176 0.32199
 C676 C 0.15837 0.51276 0.34669
 C677 C 0.17070 0.52186 0.36854
 C678 C 0.19043 0.53999 0.36577
 C679 C 0.19810 0.54859 0.34103
 C680 C 0.18576 0.53950 0.31919
 C681 C 0.20155 0.55112 0.38827
 C682 C 0.21034 0.56140 0.40687
 H683 H 0.14277 0.49916 0.34909
 H684 H 0.16448 0.51522 0.38758
 H685 H 0.21320 0.56275 0.33868
 H686 H 0.19148 0.54670 0.30019
 C687 C 0.63914 0.00780 0.78115
 C688 C 0.65165 0.01389 0.79948
 C689 C 0.66576 0.02170 0.82171
 C690 C 0.65851 0.01266 0.84641
 C691 C 0.67086 0.02177 0.86825
 C692 C 0.69053 0.03995 0.86546
 C693 C 0.69813 0.04860 0.84072
 C694 C 0.68578 0.03950 0.81888
 C695 C 0.70166 0.05110 0.88795
 C696 C 0.71046 0.06138 0.90654
 H697 H 0.64295 -0.00099 0.84883
 H698 H 0.66469 0.01509 0.88729
 H699 H 0.71319 0.06281 0.83835
 H700 H 0.69144 0.04674 0.79989
 C701 C 0.63833 0.99026 0.72625
 C702 C 0.65017 0.98412 0.70701
 C703 C 0.66342 0.97648 0.68361
 C704 C 0.65596 0.98727 0.65979
 C705 C 0.66750 0.97856 0.63683
 C706 C 0.68657 0.95904 0.63759
 C707 C 0.69437 0.94860 0.66144
 C708 C 0.68282 0.95730 0.68440
 C709 C 0.69698 0.94855 0.61395
 C710 C 0.70529 0.93880 0.59443
 H711 H 0.64087 1.00202 0.65895
 H712 H 0.66120 0.98665 0.61849
 H713 H 0.70898 0.93337 0.66224
 H714 H 0.68864 0.94872 0.70269
 C715 C 0.13837 0.49034 0.22650
 C716 C 0.15023 0.48419 0.20727
 C717 C 0.16351 0.47654 0.18389
 C718 C 0.15614 0.48739 0.16007
 C719 C 0.16769 0.47866 0.13711
 C720 C 0.18668 0.45906 0.13789
 C721 C 0.19438 0.44855 0.16175
 C722 C 0.18282 0.45727 0.18470
 C723 C 0.19710 0.44855 0.11426
 C724 C 0.20541 0.43880 0.09475
 H725 H 0.14111 0.50220 0.15921
 H726 H 0.16146 0.48680 0.11878
 H727 H 0.20892 0.43326 0.16257
 H728 H 0.18857 0.44865 0.20299
 C729 C -0.22271 0.35960 0.49285
 C730 C -0.20373 0.34735 0.48639
 C731 C -0.18067 0.33353 0.47838
 C732 C -0.18210 0.31358 0.46049
 C733 C -0.15949 0.30121 0.45160
 C734 C -0.13536 0.30874 0.46054
 C735 C -0.13396 0.32844 0.47870
 C736 C -0.15657 0.34081 0.48760
 C737 C -0.11206 0.29704 0.45016
 C738 C -0.09278 0.28746 0.44073
 H739 H -0.20062 0.30788 0.45314
 H740 H -0.16080 0.28608 0.43746
 H741 H -0.11540 0.33450 0.48565
 H742 H -0.15523 0.35630 0.50134
 C743 C 0.27722 0.85964 0.99265
 C744 C 0.29620 0.84739 0.98620
 C745 C 0.31926 0.83357 0.97819
 C746 C 0.31784 0.81367 0.96025
 C747 C 0.34046 0.80130 0.95137
 C748 C 0.36458 0.80877 0.96038
 C749 C 0.36597 0.82843 0.97860
 C750 C 0.34335 0.84079 0.98748
 C751 C 0.38789 0.79708 0.95003
 C752 C 0.40718 0.78749 0.94062
 H753 H 0.29934 0.80801 0.95284
 H754 H 0.33917 0.78621 0.93719
 H755 H 0.38452 0.83445 0.98561
 H756 H 0.34468 0.85624 1.00127
 C757 C 1.22210 0.85996 0.01167
 C758 C 1.20323 0.84797 0.01815
 C759 C 1.18024 0.83448 0.02610
 C760 C 1.15639 0.84144 0.01532
 C761 C 1.13376 0.82946 0.02407
 C762 C 1.13489 0.81045 0.04364
 C763 C 1.15880 0.80323 0.05416
 C764 C 1.18142 0.81523 0.04541
 C765 C 1.11150 0.79916 0.05377
 C766 C 1.09211 0.78991 0.06296
 H767 H 1.15524 0.85641 0.00046
 H768 H 1.11538 0.83527 0.01589
 H769 H 1.15988 0.78864 0.06938
 H770 H 1.19974 0.80978 0.05396
 C771 C 0.72218 0.35993 0.51187
 C772 C 0.70331 0.34794 0.51834
 C773 C 0.68031 0.33446 0.52629
 C774 C 0.65649 0.34132 0.51539
 C775 C 0.63385 0.32933 0.52413
 C776 C 0.63495 0.31043 0.54380
 C777 C 0.65883 0.30331 0.55444
 C778 C 0.68146 0.31530 0.54570
 C779 C 0.61155 0.29914 0.55390
 C780 C 0.59214 0.28990 0.56308
 H781 H 0.65536 0.35620 0.50045
 H782 H 0.61549 0.33507 0.51585
 H783 H 0.65988 0.28880 0.56974
 H784 H 0.69976 0.30994 0.55435
 C785 C 0.28133 0.13918 0.50766
 C786 C 0.29966 0.15168 0.51374
 C787 C 0.32189 0.16580 0.52154
 C788 C 0.34661 0.15848 0.51257
 C789 C 0.36844 0.17083 0.52169
 C790 C 0.36565 0.19056 0.53979
 C791 C 0.34090 0.19824 0.54836
 C792 C 0.31907 0.18588 0.53925
 C793 C 0.38813 0.20170 0.55094
 C794 C 0.40672 0.21049 0.56124
 H795 H 0.34902 0.14286 0.49899
 H796 H 0.38749 0.16461 0.51508
 H797 H 0.33853 0.21335 0.56250
 H798 H 0.30006 0.19160 0.54643
 C799 C 0.78124 0.63917 0.00787
 C800 C 0.79957 0.65167 0.01394
 C801 C 0.82182 0.66578 0.02174
 C802 C 0.81901 0.68581 0.03951
 C803 C 0.84085 0.69816 0.04861
 C804 C 0.86559 0.69054 0.03996
 C805 C 0.86837 0.67085 0.02179
 C806 C 0.84652 0.65851 0.01270
 C807 C 0.88809 0.70167 0.05109
 C808 C 0.90669 0.71046 0.06136
 H809 H 0.80002 0.69149 0.04675
 H810 H 0.83850 0.71323 0.06279
 H811 H 0.88740 0.66467 0.01512
 H812 H 0.84892 0.64294 -0.00093
 C813 C 0.72634 0.63838 0.99032
 C814 C 0.70710 0.65023 0.98417
 C815 C 0.68371 0.66348 0.97652
 C816 C 0.65989 0.65606 0.98733
 C817 C 0.63693 0.66760 0.97861
 C818 C 0.63770 0.68663 0.95905
 C819 C 0.66156 0.69439 0.94858
 C820 C 0.68452 0.68284 0.95729
 C821 C 0.61407 0.69704 0.94854
 C822 C 0.59455 0.70535 0.93879
 H823 H 0.65905 0.64100 1.00211
 H824 H 0.61860 0.66132 0.98672
 H825 H 0.66236 0.70897 0.93332
 H826 H 0.70281 0.68863 0.94870
 C827 C 0.22643 0.13837 0.49011
 C828 C 0.20718 0.15022 0.48396
 C829 C 0.18380 0.16347 0.47631
 C830 C 0.15999 0.15611 0.48720
 C831 C 0.13702 0.16764 0.47849
 C832 C 0.13777 0.18660 0.45886
 C833 C 0.16161 0.19430 0.44830
 C834 C 0.18458 0.18276 0.45701
 C835 C 0.11412 0.19701 0.44837
 C836 C 0.09460 0.20532 0.43864
 H837 H 0.15916 0.14111 0.50204
 H838 H 0.11869 0.16142 0.48666
 H839 H 0.16240 0.20882 0.43299
 H840 H 0.20286 0.18850 0.44835
 C841 C 0.59910 0.02709 0.74544
 C842 C 0.58681 0.04596 0.73882
 C843 C 0.57301 0.06876 0.73015
 C844 C 0.58027 0.09313 0.73866
 C845 C 0.56848 0.11549 0.72848
 C846 C 0.54938 0.11355 0.70975
 C847 C 0.54171 0.08916 0.70167
 C848 C 0.55351 0.06680 0.71185
 C849 C 0.53903 0.13650 0.69743
 C850 C 0.53100 0.15552 0.68623
 H851 H 0.59546 0.09486 0.75267
 H852 H 0.57469 0.13426 0.73471
 H853 H 0.52710 0.08745 0.68705
 H854 H 0.54788 0.04806 0.70501
 C855 C 1.09913 0.52720 0.24563
 C856 C 1.08685 0.54607 0.23898
 C857 C 1.07307 0.56887 0.23029
 C858 C 1.08036 0.59325 0.23876
 C859 C 1.06857 0.61560 0.22854
 C860 C 1.04945 0.61365 0.20984
 C861 C 1.04175 0.58925 0.20181
 C862 C 1.05354 0.56689 0.21202
 C863 C 1.03911 0.63659 0.19750
 C864 C 1.03108 0.65560 0.18629
 H865 H 1.09557 0.59499 0.25275
 H866 H 1.07481 0.63438 0.23474
 H867 H 1.02713 0.58753 0.18721
 H868 H 1.04789 0.54815 0.20521
 C869 C 0.89962 0.97484 0.23995
 C870 C 0.91199 0.95619 0.23306
 C871 C 0.92575 0.93355 0.22420
 C872 C 0.94114 0.93488 0.20169
 C873 C 0.95254 0.91239 0.19169
 C874 C 0.94860 0.88849 0.20415
 C875 C 0.93370 0.88726 0.22699
 C876 C 0.92231 0.90974 0.23699
 C877 C 0.95817 0.86510 0.19247
 C878 C 0.96532 0.84552 0.18204
 H879 H 0.94376 0.95315 0.19153
 H880 H 0.96385 0.91354 0.17391
 H881 H 0.93037 0.86886 0.23667
 H882 H 0.91029 0.90847 0.25430
 C883 C 0.39959 0.47473 0.74015
 C884 C 0.41194 0.45608 0.73323
 C885 C 0.42570 0.43344 0.72435
 C886 C 0.44110 0.43479 0.70185
 C887 C 0.45249 0.41231 0.69183
 C888 C 0.44853 0.38840 0.70426
 C889 C 0.43361 0.38714 0.72708
 C890 C 0.42222 0.40962 0.73711
 C891 C 0.45810 0.36502 0.69255
 C892 C 0.46525 0.34545 0.68211
 H893 H 0.44375 0.45307 0.69173
 H894 H 0.46382 0.41347 0.67406
 H895 H 0.43025 0.36873 0.73674
 H896 H 0.41019 0.40833 0.75440
 C897 C 0.39900 0.52916 0.75872
 C898 C 0.41107 0.54755 0.76540
 C899 C 0.42463 0.56978 0.77407
 C900 C 0.44405 0.56685 0.79249
 C901 C 0.45570 0.58864 0.80254
 C902 C 0.44798 0.61345 0.79422
 C903 C 0.42894 0.61637 0.77540
 C904 C 0.41729 0.59457 0.76534
 C905 C 0.45830 0.63583 0.80628
 C906 C 0.46637 0.65436 0.81724
 H907 H 0.44975 0.54778 0.79950
 H908 H 0.47028 0.58617 0.81722
 H909 H 0.42269 0.63546 0.76896
 H910 H 0.40216 0.59706 0.75123
 C911 C -0.10102 0.02927 0.25852
 C912 C -0.08896 0.04766 0.26522
 C913 C -0.07541 0.06990 0.27391
 C914 C -0.08279 0.09469 0.26523
 C915 C -0.07115 0.11648 0.27530
 C916 C -0.05208 0.11356 0.29410
 C917 C -0.04433 0.08874 0.30238
 C918 C -0.05597 0.06695 0.29231
 C919 C -0.04176 0.13593 0.30618
 C920 C -0.03369 0.15445 0.31715
 H921 H -0.09793 0.09719 0.25113
 H922 H -0.07742 0.13558 0.26890
 H923 H -0.02973 0.08626 0.31704
 H924 H -0.05024 0.04788 0.29929
 C925 C 0.09906 0.47230 0.26431
 C926 C 0.08668 0.45381 0.27114
 C927 C 0.07276 0.43132 0.27974
 C928 C 0.07557 0.40813 0.26628
 C929 C 0.06388 0.38566 0.27585
 C930 C 0.04932 0.38630 0.29890
 C931 C 0.04602 0.40962 0.31205
 C932 C 0.05772 0.43209 0.30248
 C933 C 0.03953 0.36272 0.31015
 C934 C 0.03230 0.34291 0.32027
 H935 H 0.08730 0.40728 0.24876
 H936 H 0.06674 0.36769 0.26564
 H937 H 0.03498 0.41029 0.33001
 H938 H 0.05555 0.44988 0.31313
 C939 C 0.59908 0.97219 0.76412
 C940 C 0.58671 0.95370 0.77097
 C941 C 0.57280 0.93121 0.77958
 C942 C 0.55772 0.93201 0.80231
 C943 C 0.54603 0.90955 0.81189
 C944 C 0.54937 0.88620 0.79879
 C945 C 0.56397 0.88553 0.77576
 C946 C 0.57566 0.90800 0.76617
 C947 C 0.53958 0.86263 0.81006
 C948 C 0.53236 0.84283 0.82020
 H949 H 0.55553 0.94981 0.81292
 H950 H 0.53497 0.91023 0.82984
 H951 H 0.56686 0.86755 0.76559
 H952 H 0.58741 0.90713 0.74867
 C953 C 0.74551 0.59915 0.02717
 C954 C 0.73888 0.58686 0.04604
 C955 C 0.73021 0.57306 0.06884
 C956 C 0.73870 0.58035 0.09322
 C957 C 0.72851 0.56855 0.11558
 C958 C 0.70981 0.54942 0.11363
 C959 C 0.70176 0.54173 0.08923
 C960 C 0.71194 0.55353 0.06688
 C961 C 0.69749 0.53906 0.13658
 C962 C 0.68630 0.53101 0.15560
 H963 H 0.75269 0.59556 0.09495
 H964 H 0.73472 0.57477 0.13435
 H965 H 0.68716 0.52710 0.08752
 H966 H 0.70511 0.54789 0.04813
 C967 C 0.24559 1.09918 0.52699
 C968 C 0.23896 1.08691 0.54588
 C969 C 0.23028 1.07314 0.56869
 C970 C 0.23877 1.08044 0.59306
 C971 C 0.22857 1.06867 0.61543
 C972 C 0.20986 1.04955 0.61351
 C973 C 0.20181 1.04184 0.58912
 C974 C 0.21200 1.05361 0.56675
 C975 C 0.19753 1.03923 0.63647
 C976 C 0.18633 1.03121 0.65549
 H977 H 0.25276 1.09565 0.59478
 H978 H 0.23478 1.07492 0.63420
 H979 H 0.18721 1.02721 0.58742
 H980 H 0.20518 1.04794 0.54801
 C981 C 0.24009 0.89967 0.97471
 C982 C 0.23319 0.91204 0.95606
 C983 C 0.22433 0.92582 0.93343
 C984 C 0.20184 0.94123 0.93477
 C985 C 0.19184 0.95265 0.91229
 C986 C 0.20428 0.94868 0.88838
 C987 C 0.22709 0.93376 0.88713
 C988 C 0.23710 0.92235 0.90961
 C989 C 0.19259 0.95827 0.86500
 C990 C 0.18215 0.96543 0.84542
 H991 H 0.19171 0.94388 0.95305
 H992 H 0.17408 0.96399 0.91345
 H993 H 0.23675 0.93040 0.86872
 H994 H 0.25438 0.91030 0.90833
 C995 C 0.74016 0.39962 0.47488
 C996 C 0.73326 0.41197 0.45623
 C997 C 0.72438 0.42572 0.43358
 C998 C 0.70189 0.44113 0.43490
 C999 C 0.69188 0.45251 0.41242
 C1000 C 0.70432 0.44854 0.38851
 C1001 C 0.72715 0.43363 0.38728
 C1002 C 0.73716 0.42224 0.40977
 C1003 C 0.69263 0.45810 0.36512
 C1004 C 0.68219 0.46524 0.34554
 H1005 H 0.69176 0.44378 0.45318
 H1006 H 0.67411 0.46384 0.41356
 H1007 H 0.73681 0.43026 0.36887
 H1008 H 0.75446 0.41021 0.40850
 C1009 C 0.75873 0.39901 0.52932
 C1010 C 0.76542 0.41108 0.54770
 C1011 C 0.77411 0.42464 0.56993
 C1012 C 0.79252 0.44407 0.56698
 C1013 C 0.80258 0.45573 0.58876
 C1014 C 0.79427 0.44800 0.61358
 C1015 C 0.77545 0.42896 0.61651
 C1016 C 0.76539 0.41730 0.59472
 C1017 C 0.80634 0.45834 0.63595
 C1018 C 0.81730 0.46642 0.65448
 H1019 H 0.79952 0.44977 0.54791
 H1020 H 0.81726 0.47031 0.58628
 H1021 H 0.76902 0.42271 0.63561
 H1022 H 0.75128 0.40218 0.59722
 C1023 C 0.25866 -0.10098 0.02915
 C1024 C 0.26536 -0.08893 0.04755
 C1025 C 0.27404 -0.07539 0.06978
 C1026 C 0.26532 -0.08276 0.09457
 C1027 C 0.27540 -0.07113 0.11637
 C1028 C 0.29422 -0.05209 0.11346
 C1029 C 0.30254 -0.04435 0.08865
 C1030 C 0.29247 -0.05598 0.06686
 C1031 C 0.30630 -0.04180 0.13585
 C1032 C 0.31727 -0.03375 0.15438
 H1033 H 0.25120 -0.09788 0.09706
 H1034 H 0.26896 -0.07740 0.13547
 H1035 H 0.31723 -0.02978 0.08619
 H1036 H 0.29948 -0.05026 0.04779
 C1037 C 0.26427 0.09909 0.47209
 C1038 C 0.27111 0.08669 0.45362
 C1039 C 0.27972 0.07276 0.43115
 C1040 C 0.30245 0.05769 0.43196
 C1041 C 0.31203 0.04598 0.40952
 C1042 C 0.29892 0.04928 0.38617
 C1043 C 0.27588 0.06386 0.38549
 C1044 C 0.26629 0.07557 0.40794
 C1045 C 0.31018 0.03947 0.36261
 C1046 C 0.32032 0.03222 0.34282
 H1047 H 0.31307 0.05553 0.44977
 H1048 H 0.32998 0.03493 0.41021
 H1049 H 0.26570 0.06672 0.36750
 H1050 H 0.24879 0.08732 0.40707
 C1051 C 0.76419 0.59911 0.97227
 C1052 C 0.77104 0.58674 0.95378
 C1053 C 0.77965 0.57283 0.93130
 C1054 C 0.76622 0.57566 0.90809
 C1055 C 0.77581 0.56398 0.88563
 C1056 C 0.79886 0.54940 0.88629
 C1057 C 0.81197 0.54609 0.90963
 C1058 C 0.80239 0.55778 0.93210
 C1059 C 0.81013 0.53963 0.86272
 C1060 C 0.82027 0.53240 0.84292
 H1061 H 0.74871 0.58740 0.90723
 H1062 H 0.76563 0.56685 0.86764
 H1063 H 0.82993 0.53504 0.91032
 H1064 H 0.81301 0.55560 0.94990
 C1065 C 0.02708 0.74571 0.59923
 C1066 C 0.04596 0.73907 0.58695
 C1067 C 0.06876 0.73038 0.57318
 C1068 C 0.06679 0.71211 0.55365
 C1069 C 0.08915 0.70190 0.54187
 C1070 C 0.11355 0.70992 0.54958
 C1071 C 0.11550 0.72862 0.56871
 C1072 C 0.09314 0.73883 0.58048
 C1073 C 0.13650 0.69758 0.53925
 C1074 C 0.15551 0.68637 0.53122
 H1075 H 0.04805 0.70530 0.54798
 H1076 H 0.08743 0.68730 0.52724
 H1077 H 0.13427 0.73481 0.57495
 H1078 H 0.09488 0.75282 0.59569
 C1079 C 0.52716 0.24545 1.09917
 C1080 C 0.54602 0.23884 1.08686
 C1081 C 0.56881 0.23018 1.07304
 C1082 C 0.59320 0.23866 1.08031
 C1083 C 0.61555 0.22848 1.06850
 C1084 C 0.61359 0.20978 1.04937
 C1085 C 0.58919 0.20174 1.04169
 C1086 C 0.56684 0.21192 1.05350
 C1087 C 0.63653 0.19747 1.03900
 C1088 C 0.65554 0.18627 1.03095
 H1089 H 0.59494 0.25264 1.09553
 H1090 H 0.63433 0.23469 1.07472
 H1091 H 0.58746 0.18715 1.02705
 H1092 H 0.54809 0.20509 1.04787
 C1093 C 0.97483 0.24019 0.89965
 C1094 C 0.95617 0.23328 0.91199
 C1095 C 0.93351 0.22440 0.92572
 C1096 C 0.90970 0.23715 0.92221
 C1097 C 0.88720 0.22713 0.93358
 C1098 C 0.88844 0.20432 0.94851
 C1099 C 0.91235 0.19190 0.95252
 C1100 C 0.93484 0.20192 0.94115
 C1101 C 0.86505 0.19261 0.95806
 C1102 C 0.84547 0.18217 0.96520
 H1103 H 0.90842 0.25443 0.91015
 H1104 H 0.86879 0.23677 0.93018
 H1105 H 0.91350 0.17414 0.96387
 H1106 H 0.95312 0.19180 0.94383
 C1107 C 0.47478 0.73992 0.39971
 C1108 C 0.45613 0.73303 0.41208
 C1109 C 0.43349 0.72417 0.42585
 C1110 C 0.43480 0.70167 0.44123
 C1111 C 0.41231 0.69168 0.45264
 C1112 C 0.38842 0.70415 0.44871
 C1113 C 0.38720 0.72699 0.43381
 C1114 C 0.40969 0.73698 0.42241
 C1115 C 0.36502 0.69248 0.45829
 C1116 C 0.34544 0.68206 0.46544
 H1117 H 0.45307 0.69150 0.44386
 H1118 H 0.41345 0.67390 0.46396
 H1119 H 0.36880 0.73668 0.43048
 H1120 H 0.40842 0.75429 0.41038
 C1121 C 0.52922 0.75849 0.39907
 C1122 C 0.54761 0.76520 0.41112
 C1123 C 0.56985 0.77389 0.42465
 C1124 C 0.56691 0.79230 0.44408
 C1125 C 0.58870 0.80238 0.45571
 C1126 C 0.61352 0.79409 0.44796
 C1127 C 0.61644 0.77528 0.42891
 C1128 C 0.59464 0.76520 0.41728
 C1129 C 0.63589 0.80619 0.45826
 C1130 C 0.65442 0.81717 0.46631
 H1131 H 0.54784 0.79929 0.44981
 H1132 H 0.58623 0.81706 0.47029
 H1133 H 0.63553 0.76887 0.42264
 H1134 H 0.59714 0.75109 0.40215
 C1135 C 0.02927 0.25876 -0.10090
 C1136 C 0.04766 0.26543 -0.08882
 C1137 C 0.06988 0.27410 -0.07524
 C1138 C 0.09467 0.26536 -0.08256
 C1139 C 0.11646 0.27542 -0.07090
 C1140 C 0.11353 0.29423 -0.05186
 C1141 C 0.08872 0.30256 -0.04415
 C1142 C 0.06693 0.29252 -0.05582
 C1143 C 0.13591 0.30630 -0.04152
 C1144 C 0.15444 0.31725 -0.03344
 H1145 H 0.09717 0.25125 -0.09769
 H1146 H 0.13556 0.26898 -0.07714
 H1147 H 0.08624 0.31724 -0.02957
 H1148 H 0.04786 0.29953 -0.05013
 C1149 C 0.47226 0.26412 0.09919
 C1150 C 0.45377 0.27098 0.08683
 C1151 C 0.43127 0.27960 0.07294
 C1152 C 0.43207 0.30231 0.05786
 C1153 C 0.40961 0.31191 0.04618
 C1154 C 0.38626 0.29881 0.04954
 C1155 C 0.38559 0.27578 0.06414
 C1156 C 0.40805 0.26619 0.07581
 C1157 C 0.36269 0.31008 0.03976
 C1158 C 0.34289 0.32023 0.03253
 H1159 H 0.44988 0.31292 0.05565
 H1160 H 0.41030 0.32985 0.03511
 H1161 H 0.36759 0.26562 0.06704
 H1162 H 0.40719 0.24869 0.08758
 C1163 C 0.97218 0.76439 0.59914
 C1164 C 0.95371 0.77123 0.58675
 C1165 C 0.93123 0.77982 0.57282
 C1166 C 0.93202 0.80257 0.55777
 C1167 C 0.90957 0.81213 0.54605
 C1168 C 0.88624 0.79899 0.54934
 C1169 C 0.88558 0.77594 0.56391
 C1170 C 0.90803 0.76637 0.57562
 C1171 C 0.86267 0.81024 0.53953
 C1172 C 0.84287 0.82036 0.53228
 H1173 H 0.94982 0.81321 0.55561
 H1174 H 0.91025 0.83009 0.53501
 H1175 H 0.86760 0.76574 0.56675
 H1176 H 0.90717 0.74885 0.58735
   
