data_POSCAR
  _audit_creation_date              2014-09-24
  _audit_creation_method            'ToBaCCo'
  _symmetry_space_group_name_H-M    'P1'
  _symmetry_Int_Tables_number       1
  _symmetry_cell_setting            triclinic
  loop_
  _symmetry_equiv_pos_as_xyz
 x,y,z
_cell_length_a 29.9870
_cell_length_b 32.2310
_cell_length_c 9.3171
_cell_angle_alpha 88.165200
_cell_angle_beta 89.033500
_cell_angle_gamma 90.209900
loop_
  _atom_site_label
  _atom_site_type_symbol
  _atom_site_fract_x
  _atom_site_fract_y
  _atom_site_fract_z
O1 O 0.30014 0.20544 0.16296
 O2 O 0.21550 0.28682 0.10317
 O3 O 0.30141 0.28589 0.14240
 O4 O 0.21420 0.20574 0.11912
 O5 O 0.20134 0.20847 0.35253
 O6 O 0.28897 0.28843 0.37624
 O7 O 0.20323 0.28890 0.33716
 O8 O 0.28726 0.20754 0.39666
 Cu9 Cu 0.25896 0.24567 0.10846
 Cu10 Cu 0.24405 0.24848 0.38906
 C11 C 0.30840 0.19297 0.29054
 C12 C 0.19482 0.30157 0.21006
 C13 C 0.31024 0.30064 0.26353
 C14 C 0.19250 0.19374 0.23117
 O15 O 0.79454 0.29028 0.23208
 O16 O 0.70637 0.21116 0.27065
 O17 O 0.79361 0.21046 0.24876
 O18 O 0.70725 0.29147 0.25059
 O19 O 0.70322 0.28898 0.01454
 O20 O 0.78917 0.20784 0.01289
 O21 O 0.70182 0.20899 0.03483
 O22 O 0.79058 0.28832 -0.00404
 Cu23 Cu 0.75080 0.25108 0.27404
 Cu24 Cu 0.74583 0.24829 -0.00900
 C25 C 0.80832 0.30212 0.10777
 C26 C 0.68834 0.19716 0.15950
 C27 C 0.80674 0.19599 0.13008
 C28 C 0.68995 0.30342 0.13281
 O29 O 0.79295 0.78971 0.84056
 O30 O 0.70177 0.71333 0.83075
 O31 O 0.78936 0.70958 0.83323
 O32 O 0.70630 0.79339 0.83395
 O33 O 0.70893 0.79679 0.59684
 O34 O 0.79179 0.71304 0.59621
 O35 O 0.70434 0.71641 0.59363
 O36 O 0.79584 0.79282 0.60340
 Cu37 Cu 0.74731 0.75100 0.85829
 Cu38 Cu 0.75038 0.75500 0.57384
 C39 C 0.81031 0.80389 0.72365
 C40 C 0.68692 0.70248 0.71088
 C41 C 0.80566 0.69781 0.71443
 C42 C 0.69317 0.80909 0.71525
 O43 O 0.29684 0.80634 0.88470
 O44 O 0.22584 0.71565 0.98173
 O45 O 0.31047 0.72723 0.91860
 O46 O 0.21339 0.79579 0.95376
 O47 O 0.19858 0.78878 0.72449
 O48 O 0.29451 0.71808 0.69119
 O49 O 0.20981 0.70887 0.75324
 O50 O 0.28233 0.79806 0.65574
 Cu51 Cu 0.26305 0.76186 0.95780
 Cu52 Cu 0.24485 0.75256 0.68324
 C53 C 0.30169 0.81756 0.75331
 C54 C 0.20537 0.69708 0.88407
 C55 C 0.31910 0.71103 0.79910
 C56 C 0.18973 0.80445 0.84524
 C57 C 1.00363 0.10121 0.18145
 C58 C 1.04372 0.07887 0.17643
 C59 C 1.04351 0.03823 0.12645
 C60 C 1.00399 0.02007 0.07643
 C61 C 0.96467 0.04400 0.07731
 C62 C 0.96384 0.08368 0.13401
 C63 C 1.00338 -0.02325 0.02166
 C64 C 0.96341 -0.04657 0.02485
 C65 C 0.96135 -0.08556 -0.03631
 C66 C 1.00032 -0.10337 -0.09109
 C67 C 1.04114 -0.08200 -0.08847
 C68 C 1.04225 -0.04175 -0.03500
 H69 H 1.00382 0.13306 0.21482
 H70 H 1.07440 0.02104 0.12803
 H71 H 0.93422 0.03218 0.03309
 H72 H 0.93334 -0.03463 0.07388
 H73 H 0.99897 -0.13477 -0.12873
 H74 H 1.07363 -0.02510 -0.03939
 C75 C 0.49462 0.60836 0.53513
 C76 C 0.53437 0.59075 0.48513
 C77 C 0.53391 0.55042 0.43412
 C78 C 0.49481 0.52592 0.44212
 C79 C 0.45510 0.54430 0.49262
 C80 C 0.45457 0.58560 0.53622
 C81 C 0.49588 0.48159 0.39775
 C82 C 0.45729 0.46154 0.34887
 C83 C 0.45869 0.42017 0.30621
 C84 C 0.49956 0.39907 0.30666
 C85 C 0.53827 0.41837 0.35440
 C86 C 0.53589 0.45873 0.40459
 H87 H 0.49471 0.64046 0.56606
 H88 H 0.56454 0.53835 0.38921
 H89 H 0.42433 0.52672 0.50017
 H90 H 0.42590 0.47783 0.34216
 H91 H 0.50108 0.36689 0.27702
 H92 H 0.56571 0.47209 0.44815
 C93 C 0.00661 0.39668 0.12887
 C94 C -0.03346 0.41465 0.08368
 C95 C -0.03323 0.45564 0.02994
 C96 C 0.00585 0.48015 0.02965
 C97 C 0.04585 0.46146 0.07597
 C98 C 0.04648 0.41971 0.12421
 C99 C 0.00422 0.52472 -0.02082
 C100 C 0.04179 0.54501 -0.08443
 C101 C 0.03841 0.58582 -0.14097
 C102 C -0.00288 0.60582 -0.13991
 C103 C -0.04013 0.58679 -0.07294
 C104 C -0.03596 0.54717 -0.00920
 H105 H 0.00710 0.36415 0.16156
 H106 H -0.06403 0.46819 -0.01156
 H107 H 0.07654 0.47918 0.07691
 H108 H 0.07337 0.52916 -0.09429
 H109 H -0.00548 0.63711 -0.18522
 H110 H -0.06471 0.53375 0.04692
 C111 C 0.50465 0.91238 0.79179
 C112 C 0.46394 0.93296 0.77826
 C113 C 0.46191 0.97089 0.70015
 C114 C 0.50033 0.98759 0.62994
 C115 C 0.54036 0.96475 0.63775
 C116 C 0.54311 0.92797 0.72121
 C117 C 0.49929 1.02833 0.54796
 C118 C 0.53831 1.05273 0.53312
 C119 C 0.53909 1.08942 0.44908
 C120 C 0.49967 1.10384 0.38659
 C121 C 0.45959 1.08144 0.40631
 C122 C 0.45986 1.04342 0.48456
 H123 H 0.50543 0.88275 0.84991
 H124 H 0.43044 0.98714 0.69631
 H125 H 0.56977 0.97521 0.57797
 H126 H 0.56859 1.04341 0.58667
 H127 H 0.49992 1.13373 0.33020
 H128 H 0.42914 1.02580 0.49474
 C129 C 1.15803 0.16490 0.21788
 C130 C 1.13056 0.15345 0.32760
 C131 C 1.08994 0.12834 0.30809
 C132 C 1.08668 0.09892 0.21017
 H133 H 1.13464 0.16676 0.43193
 H134 H 1.06167 0.13469 0.37768
 H135 H 1.15189 0.15357 0.11172
 H136 H 1.11617 0.08958 0.15090
 C137 C 0.64778 0.67485 0.71026
 C138 C 0.63137 0.65995 0.58976
 C139 C 0.58925 0.63634 0.59348
 C140 C 0.57656 0.61452 0.48167
 H141 H 0.64850 0.66582 0.48768
 H142 H 0.56849 0.63641 0.68994
 H143 H 0.63095 0.66779 0.81211
 H144 H 0.59878 0.61193 0.38942
 C145 C -0.15352 0.33087 0.09220
 C146 C -0.12720 0.33842 0.20347
 C147 C -0.08530 0.36256 0.19239
 C148 C -0.07581 0.39088 0.08785
 H149 H -0.13461 0.32362 0.30723
 H150 H -0.06210 0.35768 0.27907
 H151 H -0.14507 0.34302 -0.01445
 H152 H -0.10061 0.39899 0.00878
 C153 C 0.33065 0.85304 0.71136
 C154 C 0.35575 0.87246 0.80577
 C155 C 0.38933 0.90339 0.75644
 C156 C 0.42369 0.91238 0.83938
 H157 H 0.35428 0.86299 0.91849
 H158 H 0.38899 0.91503 0.64591
 H159 H 0.33336 0.86180 0.59820
 H160 H 0.42585 0.89770 0.94540
 C161 C -0.15943 0.66940 -0.28868
 C162 C -0.14122 0.65289 -0.16988
 C163 C -0.09961 0.62905 -0.17960
 C164 C -0.08336 0.60841 -0.06560
 H165 H -0.15551 0.65867 -0.06472
 H166 H -0.08148 0.62897 -0.28131
 H167 H -0.14499 0.66231 -0.39258
 H168 H -0.10278 0.60609 0.03355
 C169 C 0.34375 1.16228 0.31856
 C170 C 0.37258 1.15059 0.21609
 C171 C 0.41319 1.12633 0.24776
 C172 C 0.41649 1.09928 0.35952
 H173 H 0.36955 1.16334 0.10773
 H174 H 0.44158 1.13178 0.17628
 H175 H 0.34836 1.15203 0.42910
 H176 H 0.38692 1.09069 0.42208
 C177 C 1.15379 -0.16863 -0.13842
 C178 C 1.12588 -0.15864 -0.24515
 C179 C 1.08567 -0.13318 -0.22269
 C180 C 1.08345 -0.10266 -0.12824
 H181 H 1.12990 -0.17256 -0.34888
 H182 H 1.05709 -0.14008 -0.28732
 H183 H 1.14780 -0.15650 -0.03270
 H184 H 1.11345 -0.09298 -0.07517
 C185 C 0.65245 0.33269 0.13152
 C186 C 0.63655 0.34996 0.25026
 C187 C 0.59478 0.37371 0.24613
 C188 C 0.58121 0.39610 0.35673
 H189 H 0.65328 0.34522 0.35170
 H190 H 0.57449 0.37263 0.15100
 H191 H 0.63582 0.33839 0.03036
 H192 H 0.60276 0.39963 0.44783
 C193 C 0.84886 -0.16787 -0.27426
 C194 C 0.86397 -0.15241 -0.15283
 C195 C 0.90588 -0.12863 -0.15313
 C196 C 0.91841 -0.10805 -0.03820
 H197 H 0.84614 -0.15834 -0.05200
 H198 H 0.92699 -0.12808 -0.24886
 H199 H 0.86634 -0.16088 -0.37502
 H200 H 0.89597 -0.10617 0.05380
 C201 C 0.34607 0.33164 0.27576
 C202 C 0.37485 0.34065 0.16741
 C203 C 0.41483 0.36681 0.18418
 C204 C 0.41658 0.39840 0.27414
 H205 H 0.37200 0.32480 0.06717
 H206 H 0.44376 0.35953 0.11878
 H207 H 0.35066 0.34502 0.37967
 H208 H 0.38638 0.40836 0.32820
 C209 C 0.17552 0.66205 -0.07527
 C210 C 0.14760 0.64563 -0.16873
 C211 C 0.11372 0.61469 -0.12144
 C212 C 0.07748 0.60881 -0.19992
 H213 H 0.14733 0.65743 -0.27903
 H214 H 0.11608 0.59976 -0.01585
 H215 H 0.17447 0.65131 0.03619
 H216 H 0.07355 0.62665 -0.29956
 C217 C 0.65228 1.16973 0.17265
 C218 C 0.63559 1.15633 0.30014
 C219 C 0.59426 1.13161 0.31008
 C220 C 0.58101 1.11345 0.43455
 H221 H 0.65165 1.16460 0.39878
 H222 H 0.57441 1.12827 0.21488
 H223 H 0.63631 1.16026 0.07528
 H224 H 0.60247 1.11457 0.52689
 C225 C 0.15989 0.33291 0.18482
 C226 C 0.13190 0.34432 0.29002
 C227 C 0.09190 0.36977 0.26384
 C228 C 0.08929 0.39948 0.16033
 H229 H 0.13507 0.33054 0.39692
 H230 H 0.06334 0.36345 0.33396
 H231 H 0.15502 0.34423 0.07552
 H232 H 0.11891 0.40894 0.09945
 C233 C 0.65811 0.84085 0.71265
 C234 C 0.63681 0.85235 0.83253
 C235 C 0.59697 0.87915 0.83292
 C236 C 0.58564 0.90478 0.72338
 H237 H 0.64629 0.83874 0.93529
 H238 H 0.57634 0.87745 0.92938
 H239 H 0.64768 0.85242 0.60831
 H240 H 0.60832 0.90972 0.63285
 C241 C 0.84399 0.16641 0.12570
 C242 C 0.86990 0.15912 0.23963
 C243 C 0.91141 0.13456 0.23565
 C244 C 0.92134 0.10696 0.13536
 H245 H 0.86256 0.17449 0.33895
 H246 H 0.93420 0.13899 0.32280
 H247 H 0.85224 0.15344 0.02301
 H248 H 0.89694 0.09938 0.05595
 C249 C 0.35895 0.68481 0.78647
 C250 C 0.36495 0.65865 0.67957
 C251 C 0.40724 0.63603 0.66331
 C252 C 0.41133 0.60536 0.57070
 H253 H 0.33900 0.65465 0.60147
 H254 H 0.43556 0.64528 0.72575
 H255 H 0.38426 0.68733 0.86752
 H256 H 0.38199 0.59463 0.51615
   
