data_POSCAR
  _audit_creation_date              2014-09-24
  _audit_creation_method            'ToBaCCo'
  _symmetry_space_group_name_H-M    'P1'
  _symmetry_Int_Tables_number       1
  _symmetry_cell_setting            triclinic
  loop_
  _symmetry_equiv_pos_as_xyz
 x,y,z
_cell_length_a 46.4875
_cell_length_b 46.9975
_cell_length_c 24.6611
_cell_angle_alpha 90.055800
_cell_angle_beta 90.256600
_cell_angle_gamma 92.689300
loop_
  _atom_site_label
  _atom_site_type_symbol
  _atom_site_fract_x
  _atom_site_fract_y
  _atom_site_fract_z
C1 C -0.02762 0.24051 -0.00265
 C2 C -0.01677 0.23910 -0.05682
 C3 C 0.01265 0.23412 -0.06413
 C4 C 0.03195 0.23148 -0.02031
 C5 C 0.02140 0.23567 0.03313
 C6 C -0.00790 0.24007 0.04082
 H7 H -0.01554 0.24162 0.08210
 H8 H 0.02066 0.23208 -0.10499
 C9 C 0.47417 0.76851 0.55360
 C10 C 0.47185 0.76784 0.49646
 C11 C 0.49491 0.77852 0.46498
 C12 C 0.52058 0.78926 0.48889
 C13 C 0.52299 0.78998 0.54624
 C14 C 0.49971 0.77953 0.57787
 H15 H 0.50168 0.77946 0.62169
 H16 H 0.49319 0.77753 0.42113
 C17 C 1.01385 0.72391 0.06500
 C18 C 1.02199 0.72130 0.00960
 C19 C 1.00126 0.72384 -0.03144
 C20 C 0.97191 0.72723 -0.01996
 C21 C 0.96341 0.72740 0.03553
 C22 C 0.98442 0.72661 0.07647
 H23 H 0.97737 0.72833 0.11808
 H24 H 1.00847 0.72322 -0.07309
 C25 C 0.52850 0.25212 0.51609
 C26 C 0.52894 0.25469 0.45910
 C27 C 0.50467 0.24611 0.42859
 C28 C 0.47953 0.23494 0.45340
 C29 C 0.47905 0.23193 0.51075
 C30 C 0.50346 0.24089 0.54128
 H31 H 0.50323 0.23847 0.58500
 H32 H 0.50518 0.24894 0.38495
 C33 C 0.75138 0.00280 -0.00411
 C34 C 0.75741 0.00387 -0.06057
 C35 C 0.75145 0.02837 -0.09002
 C36 C 0.73946 0.05186 -0.06537
 C37 C 0.73284 0.05079 -0.00947
 C38 C 0.73849 0.02615 0.02036
 H39 H 0.73383 0.02568 0.06341
 H40 H 0.75579 0.02901 -0.13319
 C41 C 0.23450 0.44501 0.57924
 C42 C 0.23778 0.44210 0.52240
 C43 C 0.23315 0.46547 0.48862
 C44 C 0.22614 0.49197 0.50987
 C45 C 0.22286 0.49483 0.56676
 C46 C 0.22695 0.47131 0.60040
 H47 H 0.22433 0.47357 0.64385
 H48 H 0.23631 0.46333 0.44530
 C49 C 0.26112 0.99811 0.05409
 C50 C 0.26810 0.99080 -0.00062
 C51 C 0.27502 0.96261 -0.01213
 C52 C 0.27569 0.94167 0.02808
 C53 C 0.26888 0.94876 0.08212
 C54 C 0.26251 0.97692 0.09446
 H55 H 0.25605 0.98163 0.13556
 H56 H 0.28133 0.95696 -0.05289
 C57 C 0.75646 0.54914 0.49243
 C58 C 0.75208 0.55167 0.43598
 C59 C 0.75753 0.52874 0.40187
 C60 C 0.76745 0.50310 0.42249
 C61 C 0.77221 0.50061 0.47921
 C62 C 0.76632 0.52359 0.51336
 H63 H 0.76985 0.52175 0.55669
 H64 H 0.75336 0.53072 0.35877
 O65 O 0.23780 0.24325 0.34727
 O66 O 0.23472 0.17849 0.26357
 O67 O 0.27397 0.20699 0.31929
 O68 O 0.19719 0.21584 0.29019
 O69 O 0.20882 0.24270 0.21960
 O70 O 0.28540 0.23085 0.24456
 O71 O 0.24369 0.20443 0.19035
 O72 O 0.24994 0.26899 0.27518
 Cu73 Cu 0.23445 0.20851 0.31226
 Cu74 Cu 0.24811 0.23936 0.22517
 C75 C 0.24538 0.26691 0.32577
 C76 C 0.23835 0.18044 0.21270
 C77 C 0.29271 0.21758 0.28691
 C78 C 0.18986 0.23066 0.24975
 O79 O 0.74391 0.75093 0.29339
 O80 O 0.75615 0.82260 0.23629
 O81 O 0.71685 0.79816 0.30150
 O82 O 0.78068 0.77462 0.22795
 O83 O 0.75234 0.76035 0.16013
 O84 O 0.68993 0.78858 0.22910
 O85 O 0.72954 0.81011 0.16489
 O86 O 0.71366 0.73957 0.22659
 Cu87 Cu 0.75196 0.78810 0.27209
 Cu88 Cu 0.71855 0.77357 0.18815
 C89 C 0.72678 0.73304 0.26985
 C90 C 0.74577 0.82820 0.19008
 C91 C 0.69254 0.79733 0.27757
 C92 C 0.77715 0.76276 0.18190
 O93 O 0.78593 0.26764 0.18823
 O94 O 0.71824 0.27110 0.26366
 O95 O 0.74046 0.23435 0.19927
 O96 O 0.76298 0.30553 0.25200
 O97 O 0.74698 0.32490 0.17675
 O98 O 0.71655 0.25475 0.13343
 O99 O 0.69956 0.29528 0.19629
 O100 O 0.76403 0.28321 0.11503
 Cu101 Cu 0.75409 0.26781 0.23304
 Cu102 Cu 0.72981 0.29175 0.14830
 C103 C 0.78589 0.27319 0.13788
 C104 C 0.69774 0.28451 0.24340
 C105 C 0.72430 0.23247 0.15756
 C106 C 0.75892 0.32732 0.22301
 O107 O 0.23533 0.68059 0.28435
 O108 O 0.24742 0.75595 0.24777
 O109 O 0.27955 0.71697 0.28861
 O110 O 0.20411 0.71995 0.24450
 O111 O 0.19156 0.73033 0.32826
 O112 O 0.26770 0.73173 0.37023
 O113 O 0.23453 0.76877 0.33007
 O114 O 0.22600 0.69312 0.36863
 Cu115 Cu 0.24293 0.71704 0.25805
 Cu116 Cu 0.22854 0.73223 0.35763
 C117 C 0.22897 0.67402 0.33288
 C118 C 0.24279 0.77517 0.28242
 C119 C 0.28657 0.72433 0.33665
 C120 C 0.18495 0.72537 0.27899
 O121 O 0.78392 0.29672 0.62575
 O122 O 0.76141 0.22863 0.68852
 O123 O 0.73501 0.26741 0.63797
 O124 O 0.81019 0.25762 0.67899
 O125 O 0.80307 0.28148 0.75444
 O126 O 0.72701 0.28821 0.71637
 O127 O 0.75577 0.25010 0.76724
 O128 O 0.77404 0.31934 0.70148
 Cu129 Cu 0.77354 0.26053 0.64998
 Cu130 Cu 0.76434 0.28710 0.74263
 C131 C 0.78232 0.31969 0.65242
 C132 C 0.75476 0.22764 0.73834
 C133 C 0.71796 0.27883 0.67077
 C134 C 0.81950 0.26786 0.72380
 O135 O 0.30220 0.70278 0.80280
 O136 O 0.23406 0.69662 0.87707
 O137 O 0.25632 0.66943 0.79746
 O138 O 0.27919 0.73193 0.88069
 O139 O 0.25883 0.75970 0.82110
 O140 O 0.23624 0.69784 0.73854
 O141 O 0.21386 0.72495 0.81822
 O142 O 0.28299 0.73158 0.74350
 Cu143 Cu 0.27003 0.69747 0.84552
 Cu144 Cu 0.24616 0.73141 0.77425
 C145 C 0.30431 0.71797 0.76040
 C146 C 0.21221 0.70929 0.86028
 C147 C 0.24202 0.67303 0.75413
 C148 C 0.27249 0.75655 0.86513
 O149 O 0.27437 0.25694 0.79179
 O150 O 0.27970 0.18131 0.82535
 O151 O 0.30841 0.21698 0.76335
 O152 O 0.24516 0.22001 0.85257
 O153 O 0.21662 0.21081 0.78220
 O154 O 0.27979 0.20346 0.69540
 O155 O 0.24992 0.16972 0.75810
 O156 O 0.24718 0.24556 0.72080
 Cu157 Cu 0.27979 0.22021 0.81511
 Cu158 Cu 0.24550 0.20639 0.73207
 C159 C 0.26018 0.26427 0.75038
 C160 C 0.26543 0.16257 0.79797
 C161 C 0.30484 0.20882 0.71455
 C162 C 0.22012 0.21577 0.83244
 O163 O 0.73592 0.79233 0.66026
 O164 O 0.80563 0.76965 0.71159
 O165 O 0.76332 0.74460 0.65915
 O166 O 0.77863 0.81681 0.71360
 O167 O 0.75563 0.80473 0.78885
 O168 O 0.74397 0.73146 0.73730
 O169 O 0.78545 0.75931 0.79054
 O170 O 0.71472 0.77719 0.73558
 Cu171 Cu 0.77284 0.78211 0.67826
 Cu172 Cu 0.74791 0.76681 0.77085
 C173 C 0.71344 0.78843 0.68890
 C174 C 0.80748 0.76111 0.76021
 C175 C 0.75145 0.72556 0.68924
 C176 C 0.76944 0.82320 0.76030
 C177 C 0.25084 0.06536 0.13017
 C178 C 0.23366 0.07937 0.09453
 C179 C 0.22292 0.06688 0.04708
 C180 C 0.23092 0.03915 0.03514
 C181 C 0.25052 0.02485 0.06913
 C182 C 0.25954 0.03804 0.11862
 O183 O 0.25881 0.08096 0.17298
 C184 C 0.24658 0.10546 0.16397
 C185 C 0.23118 0.10574 0.11619
 C186 C 0.21811 0.12989 0.09731
 C187 C 0.22096 0.15468 0.12915
 C188 C 0.23609 0.15457 0.17920
 C189 C 0.24894 0.12956 0.19693
 H190 H 0.20890 0.07809 0.02017
 H191 H 0.22206 0.02900 -0.00106
 H192 H 0.27440 0.02819 0.14593
 H193 H 0.20654 0.12978 0.05912
 H194 H 0.21109 0.17382 0.11532
 H195 H 0.26100 0.12913 0.23458
 C196 C 0.75912 0.62050 0.56352
 C197 C 0.73789 0.61600 0.60167
 C198 C 0.72221 0.59016 0.60652
 C199 C 0.72853 0.56821 0.57028
 C200 C 0.75022 0.57248 0.53046
 C201 C 0.76604 0.59886 0.52785
 O202 O 0.77141 0.64655 0.56531
 C203 C 0.75768 0.65880 0.60551
 C204 C 0.73709 0.64102 0.62940
 C205 C 0.72062 0.64947 0.67301
 C206 C 0.72558 0.67736 0.69271
 C207 C 0.74645 0.69624 0.66824
 C208 C 0.76265 0.68670 0.62387
 H209 H 0.70562 0.58705 0.63687
 H210 H 0.71649 0.54797 0.57286
 H211 H 0.78343 0.60236 0.49932
 H212 H 0.70464 0.63508 0.69140
 H213 H 0.71299 0.68432 0.72668
 H214 H 0.77893 0.70043 0.60465
 C215 C 0.74493 0.94031 0.08786
 C216 C 0.77190 0.92987 0.08231
 C217 C 0.79330 0.94322 0.05102
 C218 C 0.78646 0.96805 0.02333
 C219 C 0.75870 0.97935 0.02791
 C220 C 0.73800 0.96567 0.06242
 O221 O 0.72704 0.92307 0.11586
 C222 C 0.74316 0.90139 0.12845
 C223 C 0.77090 0.90472 0.10939
 C224 C 0.79133 0.88439 0.11697
 C225 C 0.78281 0.85955 0.14524
 C226 C 0.75419 0.85530 0.16397
 C227 C 0.73404 0.87649 0.15563
 H228 H 0.81425 0.93438 0.04674
 H229 H 0.80280 0.97850 -0.00183
 H230 H 0.71645 0.97328 0.06594
 H231 H 0.81297 0.88745 0.10134
 H232 H 0.79823 0.84325 0.15137
 H233 H 0.71202 0.87352 0.16941
 C234 C 0.23539 0.37220 0.64504
 C235 C 0.25475 0.37782 0.68645
 C236 C 0.26714 0.40483 0.69629
 C237 C 0.25965 0.42688 0.66145
 C238 C 0.24004 0.42162 0.61789
 C239 C 0.22719 0.39394 0.61053
 O240 O 0.22717 0.34482 0.64124
 C241 C 0.24169 0.33293 0.68111
 C242 C 0.25877 0.35224 0.71009
 C243 C 0.27631 0.34436 0.75275
 C244 C 0.27632 0.31535 0.76608
 C245 C 0.25912 0.29485 0.73654
 C246 C 0.24146 0.30393 0.69348
 H247 H 0.28255 0.40866 0.72882
 H248 H 0.26977 0.44789 0.66733
 H249 H 0.21208 0.38931 0.57781
 H250 H 0.28970 0.35995 0.77473
 H251 H 0.29003 0.30889 0.79900
 H252 H 0.22817 0.28890 0.66995
 C253 C 0.90257 0.25629 0.06242
 C254 C 0.88362 0.24109 0.02931
 C255 C 0.89258 0.22374 -0.01232
 C256 C 0.92229 0.22263 -0.02110
 C257 C 0.94250 0.23985 0.00971
 C258 C 0.93213 0.25618 0.05346
 O259 O 0.88966 0.27071 0.10090
 C260 C 0.86192 0.26465 0.09155
 C261 C 0.85706 0.24692 0.04767
 C262 C 0.82956 0.23859 0.02959
 C263 C 0.80614 0.24862 0.05845
 C264 C 0.81070 0.26599 0.10501
 C265 C 0.83897 0.27418 0.12177
 H266 H 0.87728 0.21129 -0.03685
 H267 H 0.92947 0.20840 -0.05227
 H268 H 0.94638 0.26967 0.07828
 H269 H 0.82626 0.22484 -0.00534
 H270 H 0.78448 0.24206 0.04583
 H271 H 0.84290 0.28742 0.15724
 C272 C 0.40586 0.75549 0.63430
 C273 C 0.40886 0.72767 0.64975
 C274 C 0.43274 0.71240 0.63616
 C275 C 0.45427 0.72629 0.60481
 C276 C 0.45164 0.75490 0.58833
 C277 C 0.42735 0.76989 0.60415
 O278 O 0.38124 0.76592 0.65065
 C279 C 0.36847 0.74423 0.67715
 C280 C 0.38461 0.72042 0.67808
 C281 C 0.37571 0.69547 0.70457
 C282 C 0.34917 0.69507 0.73146
 C283 C 0.33187 0.71917 0.73066
 C284 C 0.34163 0.74408 0.70271
 H285 H 0.43458 0.69050 0.64870
 H286 H 0.47288 0.71478 0.59292
 H287 H 0.42510 0.79189 0.59258
 H288 H 0.38886 0.67706 0.70497
 H289 H 0.34197 0.67586 0.75262
 H290 H 0.32906 0.76290 0.70198
 C291 C 0.08212 0.73362 0.14504
 C292 C 0.07397 0.72120 0.19329
 C293 C 0.04626 0.70998 0.20232
 C294 C 0.02628 0.71120 0.15960
 C295 C 0.03403 0.72381 0.10868
 C296 C 0.06241 0.73604 0.10284
 O297 O 0.10989 0.74141 0.14326
 C298 C 0.11949 0.73370 0.19152
 C299 C 0.09833 0.72157 0.22406
 C300 C 0.10387 0.71171 0.27613
 C301 C 0.13247 0.71410 0.29501
 C302 C 0.15473 0.72553 0.26122
 C303 C 0.14805 0.73569 0.20896
 H304 H 0.04047 0.69975 0.24029
 H305 H 0.00526 0.70089 0.16579
 H306 H 0.06923 0.74734 0.06661
 H307 H 0.08689 0.70220 0.30102
 H308 H 0.13744 0.70614 0.33499
 H309 H 0.16467 0.74449 0.18237
 C310 C 0.60475 0.25865 0.56985
 C311 C 0.60194 0.27827 0.61068
 C312 C 0.57569 0.28964 0.62348
 C313 C 0.55148 0.28065 0.59246
 C314 C 0.55398 0.26067 0.54979
 C315 C 0.58097 0.24919 0.53914
 O316 O 0.63147 0.25046 0.56402
 C317 C 0.64592 0.26521 0.60200
 C318 C 0.62889 0.28249 0.63186
 C319 C 0.63969 0.29940 0.67430
 C320 C 0.66917 0.29830 0.68661
 C321 C 0.68720 0.28067 0.65624
 C322 C 0.67526 0.26404 0.61310
 H323 H 0.57395 0.30502 0.65586
 H324 H 0.53088 0.28949 0.60103
 H325 H 0.58340 0.23336 0.50782
 H326 H 0.62589 0.31276 0.69741
 H327 H 0.67791 0.31113 0.71981
 H328 H 0.68828 0.25013 0.58948
 C329 C 0.74286 0.12624 0.87523
 C330 C 0.72681 0.12155 0.82879
 C331 C 0.71348 0.09530 0.81603
 C332 C 0.71706 0.07282 0.85234
 C333 C 0.73392 0.07685 0.90004
 C334 C 0.74684 0.10407 0.91184
 O335 O 0.75477 0.15248 0.87823
 C336 C 0.74618 0.16451 0.83254
 C337 C 0.72915 0.14638 0.80083
 C338 C 0.71945 0.15372 0.74959
 C339 C 0.72782 0.18081 0.72992
 C340 C 0.74522 0.20001 0.76180
 C341 C 0.75420 0.19191 0.81425
 H342 H 0.70121 0.09211 0.77894
 H343 H 0.70715 0.05207 0.84294
 H344 H 0.76036 0.10756 0.94730
 H345 H 0.70649 0.13888 0.72508
 H346 H 0.72088 0.18682 0.68972
 H347 H 0.76801 0.20597 0.83885
 C348 C 0.23325 0.56531 0.44615
 C349 C 0.21644 0.56117 0.40055
 C350 C 0.20266 0.53508 0.38794
 C351 C 0.20605 0.51247 0.42424
 C352 C 0.22334 0.51616 0.47159
 C353 C 0.23776 0.54289 0.48164
 O354 O 0.24354 0.59196 0.45187
 C355 C 0.23309 0.60493 0.40880
 C356 C 0.21666 0.58698 0.37570
 C357 C 0.20415 0.59607 0.32775
 C358 C 0.20874 0.62484 0.31347
 C359 C 0.22492 0.64385 0.34778
 C360 C 0.23721 0.63375 0.39617
 H361 H 0.18934 0.53238 0.35203
 H362 H 0.19490 0.49217 0.41592
 H363 H 0.25169 0.54629 0.51654
 H364 H 0.19146 0.58152 0.30217
 H365 H 0.19929 0.63248 0.27632
 H366 H 0.24991 0.64782 0.42270
 C367 C 0.27361 0.87140 0.95453
 C368 C 0.29376 0.85683 0.98301
 C369 C 0.30969 0.86918 1.02560
 C370 C 0.30436 0.89750 1.03953
 C371 C 0.28303 0.91251 1.01151
 C372 C 0.26781 0.89925 0.96795
 O373 O 0.26060 0.85607 0.91579
 C374 C 0.27266 0.83120 0.91983
 C375 C 0.29300 0.83033 0.96039
 C376 C 0.30751 0.80578 0.97218
 C377 C 0.30071 0.78129 0.94082
 C378 C 0.28000 0.78198 0.89840
 C379 C 0.26590 0.80743 0.88803
 H380 H 0.32551 0.85743 1.04745
 H381 H 0.31640 0.90759 1.07256
 H382 H 0.25132 0.91008 0.94601
 H383 H 0.32328 0.80542 1.00456
 H384 H 0.31163 0.76193 0.94937
 H385 H 0.24969 0.80866 0.85655
 C386 C 0.76415 0.43015 0.35588
 C387 C 0.77906 0.43604 0.30885
 C388 C 0.79089 0.46301 0.29688
 C389 C 0.78730 0.48476 0.33502
 C390 C 0.77171 0.47936 0.38365
 C391 C 0.75971 0.45160 0.39369
 O392 O 0.75447 0.40319 0.35936
 C393 C 0.76333 0.39184 0.31340
 C394 C 0.77824 0.41108 0.28076
 C395 C 0.78797 0.40406 0.22934
 C396 C 0.78186 0.37614 0.21072
 C397 C 0.76697 0.35588 0.24408
 C398 C 0.75783 0.36379 0.29634
 H399 H 0.80253 0.46716 0.25959
 H400 H 0.79665 0.50583 0.32673
 H401 H 0.74709 0.44689 0.42963
 H402 H 0.79922 0.41968 0.20399
 H403 H 0.78860 0.37028 0.17040
 H404 H 0.74571 0.34887 0.32190
 C405 C 0.10408 0.22943 0.91411
 C406 C 0.11815 0.21243 0.94981
 C407 C 0.10462 0.19979 0.99434
 C408 C 0.07558 0.20535 1.00294
 C409 C 0.06082 0.22444 0.96880
 C410 C 0.07555 0.23597 0.92277
 O411 O 0.12039 0.23840 0.87296
 C412 C 0.14537 0.22692 0.88306
 C413 C 0.14531 0.21113 0.93002
 C414 C 0.16953 0.19774 0.94874
 C415 C 0.19466 0.20046 0.91731
 C416 C 0.19476 0.21571 0.86773
 C417 C 0.16981 0.22922 0.85055
 H418 H 0.11583 0.18570 1.02097
 H419 H 0.06457 0.19432 1.03586
 H420 H 0.06570 0.25068 0.89541
 H421 H 0.16907 0.18556 0.98599
 H422 H 0.21369 0.18990 0.93051
 H423 H 0.16942 0.24103 0.81288
 C424 C 0.59380 0.79419 0.42184
 C425 C 0.58888 0.81348 0.38131
 C426 C 0.56250 0.82580 0.37423
 C427 C 0.54032 0.81800 0.41051
 C428 C 0.54478 0.79803 0.45247
 C429 C 0.57194 0.78583 0.45782
 O430 O 0.61998 0.78409 0.42017
 C431 C 0.63181 0.79716 0.37748
 C432 C 0.61361 0.81526 0.35209
 C433 C 0.62075 0.82933 0.30403
 C434 C 0.64750 0.82411 0.28072
 C435 C 0.66661 0.80563 0.30626
 C436 C 0.65887 0.79236 0.35583
 H437 H 0.55903 0.84070 0.34169
 H438 H 0.51960 0.82734 0.40585
 H439 H 0.57573 0.76993 0.48845
 H440 H 0.60583 0.84296 0.28416
 H441 H 0.65313 0.83394 0.24225
 H442 H 0.67269 0.77736 0.37498
 C443 C 0.90789 0.74786 0.89921
 C444 C 0.91187 0.73285 0.85228
 C445 C 0.93556 0.71648 0.84417
 C446 C 0.95565 0.71499 0.88664
 C447 C 0.95209 0.73008 0.93632
 C448 C 0.92812 0.74765 0.94099
 O449 O 0.88331 0.76109 0.89998
 C450 C 0.87148 0.75427 0.85239
 C451 C 0.88826 0.73731 0.82130
 C452 C 0.88008 0.72793 0.76971
 C453 C 0.85351 0.73634 0.74946
 C454 C 0.83554 0.75312 0.78149
 C455 C 0.84466 0.76219 0.83369
 H456 H 0.93803 0.70449 0.80711
 H457 H 0.97308 0.70079 0.88138
 H458 H 0.92508 0.76098 0.97606
 H459 H 0.89369 0.71469 0.74589
 H460 H 0.84662 0.72936 0.70939
 H461 H 0.83140 0.77524 0.85865
 C462 C 0.40351 0.23018 0.39699
 C463 C 0.40752 0.21519 0.34988
 C464 C 0.43422 0.20577 0.33469
 C465 C 0.45765 0.21196 0.36958
 C466 C 0.45415 0.22779 0.41807
 C467 C 0.42662 0.23737 0.43125
 O468 O 0.37640 0.23673 0.40463
 C469 C 0.36302 0.22582 0.36125
 C470 C 0.38108 0.21271 0.32602
 C471 C 0.37156 0.20095 0.27685
 C472 C 0.34224 0.20282 0.26363
 C473 C 0.32327 0.21556 0.30021
 C474 C 0.33378 0.22705 0.34973
 H475 H 0.43687 0.19386 0.29761
 H476 H 0.47853 0.20440 0.35893
 H477 H 0.42326 0.25009 0.46708
 H478 H 0.38621 0.19105 0.24942
 H479 H 0.33421 0.19413 0.22548
 H480 H 0.31969 0.23717 0.37790
 C481 C 0.75994 0.92960 0.88071
 C482 C 0.78267 0.93315 0.84546
 C483 C 0.79847 0.95886 0.84005
 C484 C 0.79039 0.98187 0.87207
 C485 C 0.76682 0.97882 0.90834
 C486 C 0.75139 0.95222 0.91248
 O487 O 0.74741 0.90366 0.87902
 C488 C 0.76248 0.89055 0.84175
 C489 C 0.78422 0.90766 0.81974
 C490 C 0.80186 0.89849 0.77845
 C491 C 0.79686 0.87057 0.75905
 C492 C 0.77471 0.85241 0.78146
 C493 C 0.75742 0.86263 0.82368
 H494 H 0.81622 0.96119 0.81191
 H495 H 0.80231 1.00213 0.86846
 H496 H 0.73292 0.94940 0.93884
 H497 H 0.81866 0.91242 0.76136
 H498 H 0.81028 0.86308 0.72674
 H499 H 0.74010 0.84947 0.84113
 C500 C 0.23808 0.37686 0.43333
 C501 C 0.26135 0.36349 0.45431
 C502 C 0.27878 0.37535 0.49521
 C503 C 0.27162 0.40188 0.51597
 C504 C 0.24680 0.41536 0.49701
 C505 C 0.23022 0.40290 0.45420
 O506 O 0.22443 0.36203 0.39441
 C507 C 0.23926 0.33866 0.39102
 C508 C 0.26189 0.33839 0.42722
 C509 C 0.27937 0.31536 0.43257
 C510 C 0.27332 0.29168 0.39909
 C511 C 0.25059 0.29181 0.36066
 C512 C 0.23337 0.31564 0.35628
 H513 H 0.29717 0.36456 0.51064
 H514 H 0.28495 0.41163 0.54762
 H515 H 0.21129 0.41282 0.43873
 H516 H 0.29676 0.31545 0.46192
 H517 H 0.28643 0.27334 0.40263
 H518 H 0.21568 0.31595 0.32760
 C519 C 0.27962 0.05858 0.92254
 C520 C 0.26681 0.05100 0.87397
 C521 C 0.25611 0.02350 0.86306
 C522 C 0.25788 0.00320 0.90448
 C523 C 0.26973 0.01074 0.95625
 C524 C 0.28197 0.03871 0.96402
 O525 O 0.28684 0.08615 0.92601
 C526 C 0.27820 0.09624 0.87875
 C527 C 0.26581 0.07563 0.84535
 C528 C 0.25361 0.08189 0.79539
 C529 C 0.25404 0.11059 0.77944
 C530 C 0.26654 0.13227 0.81343
 C531 C 0.27909 0.12478 0.86354
 H532 H 0.24583 0.01808 0.82472
 H533 H 0.24819 -0.01788 0.89721
 H534 H 0.29203 0.04520 1.00202
 H535 H 0.24357 0.06536 0.77014
 H536 H 0.24430 0.11592 0.74102
 H537 H 0.28835 0.14078 0.89091
 C538 C 0.74769 0.62421 0.37271
 C539 C 0.71864 0.62474 0.36192
 C540 C 0.69939 0.60223 0.37511
 C541 C 0.71059 0.57834 0.40053
 C542 C 0.74047 0.57739 0.41148
 C543 C 0.75930 0.60044 0.39657
 O544 O 0.76229 0.64780 0.35780
 C545 C 0.74209 0.66355 0.33687
 C546 C 0.71503 0.65037 0.33776
 C547 C 0.69096 0.66289 0.31609
 C548 C 0.69500 0.69009 0.29280
 C549 C 0.72260 0.70428 0.29285
 C550 C 0.74641 0.69077 0.31528
 H551 H 0.67662 0.60307 0.36633
 H552 H 0.69616 0.56050 0.41131
 H553 H 0.78229 0.59984 0.40330
 H554 H 0.66991 0.65204 0.31676
 H555 H 0.67665 0.70032 0.27565
 H556 H 0.76778 0.70100 0.31514
 C557 C 0.09481 0.72082 0.94125
 C558 C 0.10602 0.69734 0.96526
 C559 C 0.09070 0.68033 1.00232
 C560 C 0.06279 0.68801 1.01563
 C561 C 0.05102 0.71264 0.99274
 C562 C 0.06718 0.72899 0.95428
 O563 O 0.11294 0.73404 0.90704
 C564 C 0.13613 0.71861 0.90964
 C565 C 0.13303 0.69601 0.94488
 C566 C 0.15484 0.67744 0.95474
 C567 C 0.18089 0.68225 0.92696
 C568 C 0.18463 0.70520 0.88977
 C569 C 0.16179 0.72363 0.88110
 H570 H 0.09994 0.66187 1.02045
 H571 H 0.05045 0.67512 1.04446
 H572 H 0.05873 0.74785 0.93616
 H573 H 0.15195 0.65992 0.98295
 H574 H 0.19803 0.66786 0.93407
 H575 H 0.16399 0.74144 0.85338
 C576 C 0.59515 0.26076 0.37268
 C577 C 0.60052 0.28982 0.37222
 C578 C 0.58367 0.30851 0.40049
 C579 C 0.56027 0.29671 0.43010
 C580 C 0.55416 0.26690 0.42996
 C581 C 0.57172 0.24872 0.40070
 O582 O 0.61404 0.24664 0.34445
 C583 C 0.63164 0.26719 0.32534
 C584 C 0.62419 0.29406 0.34059
 C585 C 0.63943 0.31867 0.32376
 C586 C 0.66338 0.31536 0.29016
 C587 C 0.67173 0.28782 0.27541
 C588 C 0.65571 0.26343 0.29323
 H589 H 0.58842 0.33127 0.39993
 H590 H 0.54673 0.31063 0.45257
 H591 H 0.56736 0.22588 0.40030
 H592 H 0.63311 0.33959 0.33598
 H593 H 0.67583 0.33408 0.27669
 H594 H 0.66175 0.24222 0.28218
 C595 C 0.92470 0.26419 0.85360
 C596 C 0.92751 0.24656 0.80967
 C597 C 0.94956 0.22774 0.80549
 C598 C 0.96892 0.22631 0.84917
 C599 C 0.96592 0.24348 0.89639
 C600 C 0.94421 0.26382 0.89662
 O601 O 0.90084 0.27861 0.85213
 C602 C 0.88822 0.26977 0.80636
 C603 C 0.90375 0.25031 0.77860
 C604 C 0.89363 0.23700 0.73139
 C605 C 0.86625 0.24376 0.71241
 C606 C 0.84944 0.26320 0.74115
 C607 C 0.86092 0.27668 0.78842
 H608 H 0.95098 0.21363 0.77100
 H609 H 0.98479 0.21021 0.84750
 H610 H 0.94155 0.27801 0.93065
 H611 H 0.90605 0.22145 0.71063
 H612 H 0.85781 0.23311 0.67636
 H613 H 0.84860 0.29134 0.81173
 C614 C 0.39619 0.75340 0.44391
 C615 C 0.40030 0.73090 0.40949
 C616 C 0.42695 0.71913 0.40280
 C617 C 0.45027 0.73110 0.43275
 C618 C 0.44655 0.75448 0.46807
 C619 C 0.41914 0.76590 0.47325
 O620 O 0.36929 0.76162 0.44411
 C621 C 0.35614 0.74400 0.40893
 C622 C 0.37416 0.72493 0.38620
 C623 C 0.36498 0.70535 0.34668
 C624 C 0.33602 0.70540 0.33008
 C625 C 0.31696 0.72453 0.35377
 C626 C 0.32724 0.74402 0.39388
 H627 H 0.42973 0.70148 0.37538
 H628 H 0.47129 0.72240 0.42820
 H629 H 0.41593 0.78444 0.49807
 H630 H 0.37962 0.69075 0.32892
 H631 H 0.32837 0.69039 0.29932
 H632 H 0.31328 0.75915 0.41207
 C633 C 0.25024 0.88017 0.15692
 C634 C 0.26336 0.88558 0.20619
 C635 C 0.27806 0.91135 0.21797
 C636 C 0.27959 0.93214 0.17700
 C637 C 0.26624 0.92697 0.12579
 C638 C 0.25058 0.90084 0.11658
 O639 O 0.23894 0.85385 0.15240
 C640 C 0.24496 0.84236 0.19992
 C641 C 0.25953 0.86094 0.23470
 C642 C 0.26800 0.85309 0.28659
 C643 C 0.26141 0.82489 0.30297
 C644 C 0.24736 0.80521 0.26690
 C645 C 0.23890 0.81415 0.21481
 H646 H 0.28860 0.91503 0.25673
 H647 H 0.29163 0.95203 0.18470
 H648 H 0.23959 0.89638 0.07852
 H649 H 0.27945 0.86804 0.31330
 H650 H 0.26807 0.81811 0.34287
 H651 H 0.22813 0.79950 0.18657
 C652 C 0.77679 0.43473 0.56569
 C653 C 0.80034 0.42257 0.54335
 C654 C 0.81671 0.43564 0.50246
 C655 C 0.80814 0.46206 0.48323
 C656 C 0.78315 0.47441 0.50396
 C657 C 0.76772 0.46079 0.54674
 O658 O 0.76356 0.41841 0.60271
 C659 C 0.77896 0.39534 0.60354
 C660 C 0.80160 0.39672 0.56770
 C661 C 0.81913 0.37398 0.55898
 C662 C 0.81290 0.34876 0.58798
 C663 C 0.78982 0.34694 0.62544
 C664 C 0.77288 0.37075 0.63387
 H665 H 0.83512 0.42564 0.48539
 H666 H 0.82038 0.47252 0.45107
 H667 H 0.74845 0.46961 0.56303
 H668 H 0.83647 0.37534 0.52980
 H669 H 0.82585 0.33056 0.58102
 H670 H 0.75467 0.36964 0.66115
 C671 C 0.72794 0.11551 0.07953
 C672 C 0.70310 0.12665 0.05985
 C673 C 0.68587 0.11288 0.02067
 C674 C 0.69494 0.08690 0.00017
 C675 C 0.72098 0.07553 0.01854
 C676 C 0.73727 0.08969 0.05983
 O677 O 0.74225 0.13282 0.11380
 C678 C 0.72623 0.15544 0.11563
 C679 C 0.70206 0.15280 0.08326
 C680 C 0.68362 0.17494 0.07561
 C681 C 0.69058 0.20093 0.10182
 C682 C 0.71546 0.20421 0.13522
 C683 C 0.73322 0.18089 0.14288
 H684 H 0.66664 0.12222 0.00523
 H685 H 0.68238 0.07618 -0.03152
 H686 H 0.75754 0.08175 0.07361
 H687 H 0.66507 0.17259 0.04905
 H688 H 0.67691 0.21866 0.09525
 H689 H 0.75282 0.18298 0.16676
 C690 C 0.23120 0.56051 0.65366
 C691 C 0.20889 0.57605 0.63485
 C692 C 0.18916 0.56553 0.59628
 C693 C 0.19296 0.53809 0.57561
 C694 C 0.21659 0.52225 0.59282
 C695 C 0.23554 0.53346 0.63330
 O696 O 0.24790 0.57446 0.68948
 C697 C 0.23601 0.59946 0.69323
 C698 C 0.21219 0.60164 0.66041
 C699 C 0.19735 0.62655 0.65616
 C700 C 0.20746 0.65009 0.68706
 C701 C 0.23177 0.64818 0.72174
 C702 C 0.24610 0.62238 0.72497
 H703 H 0.17175 0.57813 0.58207
 H704 H 0.17815 0.52953 0.54505
 H705 H 0.25387 0.52191 0.64684
 H706 H 0.17887 0.62791 0.62958
 H707 H 0.19623 0.66971 0.68431
 H708 H 0.26491 0.62038 0.75049
 C709 C 0.89340 0.74401 0.10374
 C710 C 0.87490 0.72375 0.08051
 C711 C 0.88408 0.70332 0.04443
 C712 C 0.91346 0.70408 0.03121
 C713 C 0.93276 0.72552 0.05291
 C714 C 0.92257 0.74543 0.09052
 O715 O 0.88038 0.76139 0.13714
 C716 C 0.85302 0.75201 0.13477
 C717 C 0.84847 0.72915 0.10037
 C718 C 0.82125 0.71664 0.09041
 C719 C 0.79781 0.72811 0.11710
 C720 C 0.80202 0.75136 0.15353
 C721 C 0.83011 0.76338 0.16254
 H722 H 0.86917 0.68745 0.02695
 H723 H 0.92113 0.68843 0.00316
 H724 H 0.93680 0.76199 0.10778
 H725 H 0.81814 0.69885 0.06278
 H726 H 0.77643 0.71867 0.10995
 H727 H 0.83395 0.78132 0.18962
 C728 C 0.41567 0.22441 0.60547
 C729 C 0.40217 0.19978 0.58604
 C730 C 0.41374 0.18351 0.54511
 C731 C 0.43998 0.19341 0.52245
 C732 C 0.45351 0.21959 0.53977
 C733 C 0.44150 0.23486 0.58295
 O734 O 0.40089 0.23693 0.64394
 C735 C 0.37742 0.21995 0.64863
 C736 C 0.37700 0.19706 0.61373
 C737 C 0.35363 0.17759 0.60950
 C738 C 0.32977 0.18187 0.64273
 C739 C 0.32999 0.20497 0.67981
 C740 C 0.35426 0.22417 0.68303
 H741 H 0.40278 0.16411 0.53066
 H742 H 0.44927 0.18127 0.49014
 H743 H 0.45129 0.25493 0.59686
 H744 H 0.35358 0.16002 0.58110
 H745 H 0.31126 0.16705 0.64004
 H746 H 0.35473 0.24223 0.71038
 C747 C 0.08532 0.24941 0.12646
 C748 C 0.07818 0.23114 0.16838
 C749 C 0.05211 0.21541 0.17029
 C750 C 0.03299 0.21805 0.12657
 C751 C 0.04019 0.23623 0.08221
 C752 C 0.06627 0.25302 0.08345
 O753 O 0.11227 0.25992 0.12921
 C754 C 0.12239 0.24799 0.17369
 C755 C 0.10235 0.23037 0.19946
 C756 C 0.10908 0.21403 0.24438
 C757 C 0.13776 0.21547 0.26279
 C758 C 0.15906 0.23274 0.23569
 C759 C 0.15095 0.24973 0.19125
 H760 H 0.04725 0.20063 0.20297
 H761 H 0.01323 0.20491 0.12595
 H762 H 0.07244 0.26687 0.04998
 H763 H 0.09307 0.19994 0.26344
 H764 H 0.14355 0.20217 0.29657
 H765 H 0.16667 0.26274 0.16898
 C766 C 0.59249 0.78911 0.62490
 C767 C 0.60573 0.81438 0.60818
 C768 C 0.59187 0.83398 0.57628
 C769 C 0.56355 0.82680 0.55948
 C770 C 0.55013 0.80006 0.57342
 C771 C 0.56449 0.78144 0.60821
 O772 O 0.60978 0.77289 0.65298
 C773 C 0.63457 0.78809 0.65358
 C774 C 0.63334 0.81353 0.62628
 C775 C 0.65752 0.83156 0.61788
 C776 C 0.68396 0.82302 0.63857
 C777 C 0.68557 0.79717 0.66778
 C778 C 0.66044 0.77960 0.67579
 H779 H 0.60274 0.85369 0.56345
 H780 H 0.55262 0.84131 0.53322
 H781 H 0.55493 0.76073 0.61873
 H782 H 0.65619 0.85117 0.59519
 H783 H 0.70315 0.83655 0.63216
 H784 H 0.66125 0.75946 0.69689
   
