data_POSCAR
  _audit_creation_date              2014-09-24
  _audit_creation_method            'ToBaCCo'
  _symmetry_space_group_name_H-M    'P1'
  _symmetry_Int_Tables_number       1
  _symmetry_cell_setting            triclinic
  loop_
  _symmetry_equiv_pos_as_xyz
 x,y,z
_cell_length_a 42.3848
_cell_length_b 42.3073
_cell_length_c 18.7689
_cell_angle_alpha 89.983900
_cell_angle_beta 90.006700
_cell_angle_gamma 120.086500
loop_
  _atom_site_label
  _atom_site_type_symbol
  _atom_site_fract_x
  _atom_site_fract_y
  _atom_site_fract_z
C1 C 0.48561 0.96609 0.53849
 C2 C 0.47712 0.96623 0.46541
 C3 C 0.48954 0.99959 0.43001
 C4 C 0.51163 1.03349 0.46370
 C5 C 0.52018 1.03366 0.53741
 C6 C 0.50782 0.99990 0.57231
 H7 H 0.51217 0.99999 0.62921
 H8 H 0.48452 0.99878 0.37321
 C9 C 0.03290 0.51973 0.53670
 C10 C 0.03317 0.51387 0.46273
 C11 C -0.00003 0.49446 0.42614
 C12 C -0.03393 0.48137 0.46065
 C13 C -0.03389 0.48745 0.53531
 C14 C -0.00055 0.50668 0.57172
 H15 H -0.00069 0.51012 0.62897
 H16 H 0.00090 0.49173 0.36886
 C17 C 0.48199 0.51546 0.53917
 C18 C 0.48946 0.52263 0.46526
 C19 C 0.50994 0.50971 0.43003
 C20 C 0.52287 0.48922 0.46529
 C21 C 0.51569 0.48171 0.53918
 C22 C 0.49464 0.49437 0.57409
 H23 H 0.49111 0.49083 0.63125
 H24 H 0.51409 0.51388 0.37299
 O25 O 0.38829 0.65793 -0.06006
 O26 O 0.38676 0.71812 -0.08166
 C27 C 0.36966 0.73489 -0.09425
 O28 O 0.34158 0.72951 -0.05987
 O29 O 0.28147 0.66769 -0.08174
 C30 C 0.26463 0.63376 -0.09435
 O31 O 0.26991 0.61096 -0.05998
 O32 O 0.33163 0.61275 -0.08226
 C33 C 0.36552 0.62992 -0.09478
 O34 O 0.38674 0.66783 0.08162
 O35 O 0.38824 0.72958 0.05996
 C36 C 0.36544 0.73481 0.09430
 O37 O 0.33156 0.71786 0.08174
 O38 O 0.26998 0.65750 0.05994
 C39 C 0.26482 0.62944 0.09438
 O40 O 0.28162 0.61239 0.08156
 O41 O 0.34178 0.61104 0.05927
 C42 C 0.36977 0.63385 0.09387
 Cr43 Cr 0.38546 0.69233 -0.00003
 Cr44 Cr 0.30717 0.69211 0.00001
 Cr45 Cr 0.30726 0.61384 -0.00034
 O46 O 0.33329 0.66610 -0.00011
 O47 O 0.61280 0.33116 -0.08158
 O48 O 0.61125 0.26947 -0.05933
 C49 C 0.63399 0.26419 -0.09379
 O50 O 0.66788 0.28102 -0.08122
 O51 O 0.72961 0.34126 -0.05950
 C52 C 0.73492 0.36928 -0.09420
 O53 O 0.71815 0.38641 -0.08185
 O54 O 0.65808 0.38795 -0.06034
 C55 C 0.62998 0.36507 -0.09458
 O56 O 0.61138 0.34141 0.05997
 O57 O 0.61282 0.28117 0.08224
 C58 C 0.62982 0.26429 0.09479
 O59 O 0.65786 0.26959 0.06039
 O60 O 0.71805 0.33142 0.08213
 C61 C 0.73486 0.36539 0.09455
 O62 O 0.72964 0.38815 0.05986
 O63 O 0.66806 0.38674 0.08136
 C64 C 0.63419 0.36964 0.09406
 Cr65 Cr 0.61412 0.30683 0.00033
 Cr66 Cr 0.69232 0.30685 0.00045
 Cr67 Cr 0.69245 0.38525 -0.00022
 O68 O 0.66630 0.33298 0.00021
 C69 C 0.47617 0.89866 -0.32195
 C70 C 0.44005 0.87100 -0.33198
 C71 C 0.41924 0.87423 -0.38620
 C72 C 0.43433 0.90520 -0.42979
 C73 C 0.47073 0.93358 -0.42020
 C74 C 0.49136 0.92968 -0.36532
 C75 C 0.42398 0.84018 -0.28438
 C76 C 0.41082 0.81501 -0.24299
 C77 C 0.39586 0.78630 -0.19282
 C78 C 0.38358 0.76245 -0.14857
 H79 H 0.49255 0.89644 -0.28006
 H80 H 0.39104 0.85320 -0.39373
 H81 H 0.41672 0.90761 -0.46846
 H82 H 0.51958 0.95029 -0.35659
 C83 C 0.12234 0.53972 -0.37875
 C84 C 0.12896 0.56838 -0.33254
 C85 C 0.10477 0.58182 -0.33069
 C86 C 0.07384 0.56639 -0.37417
 C87 C 0.06682 0.53740 -0.42020
 C88 C 0.09139 0.52425 -0.42228
 C89 C 0.15962 0.58296 -0.28471
 C90 C 0.18469 0.59489 -0.24319
 C91 C 0.21331 0.60860 -0.19294
 C92 C 0.23711 0.62015 -0.14866
 H93 H 0.14073 0.52894 -0.38026
 H94 H 0.10955 0.60389 -0.29492
 H95 H 0.05523 0.57689 -0.37167
 H96 H 0.08621 0.50153 -0.45649
 C97 C 0.42434 0.52491 -0.32106
 C98 C 0.43192 0.56067 -0.33267
 C99 C 0.45529 0.58124 -0.38804
 C100 C 0.47136 0.56627 -0.43122
 C101 C 0.46421 0.53023 -0.41999
 C102 C 0.44037 0.50986 -0.36398
 C103 C 0.41698 0.57662 -0.28543
 C104 C 0.40479 0.58956 -0.24411
 C105 C 0.39083 0.60419 -0.19384
 C106 C 0.37915 0.61622 -0.14939
 H107 H 0.40628 0.50872 -0.27828
 H108 H 0.46179 0.60919 -0.39680
 H109 H 0.49086 0.58372 -0.47087
 H110 H 0.43343 0.48189 -0.35398
 C111 C 0.57690 0.10099 -0.32200
 C112 C 0.56768 0.12813 -0.33147
 C113 C 0.54324 0.12444 -0.38529
 C114 C 0.52788 0.09359 -0.42923
 C115 C 0.53688 0.06588 -0.42039
 C116 C 0.56160 0.07013 -0.36569
 C117 C 0.58236 0.15899 -0.28402
 C118 C 0.59451 0.18417 -0.24268
 C119 C 0.60853 0.21287 -0.19250
 C120 C 0.62030 0.23669 -0.14819
 H121 H 0.59579 0.10357 -0.28043
 H122 H 0.53554 0.14509 -0.39247
 H123 H 0.50788 0.09088 -0.46831
 H124 H 0.56983 0.04994 -0.35753
 C125 C 0.89454 0.47683 -0.33088
 C126 C 0.87055 0.43905 -0.33250
 C127 C 0.87732 0.41710 -0.37860
 C128 C 0.90816 0.43284 -0.42245
 C129 C 0.93243 0.47073 -0.42081
 C130 C 0.92535 0.49258 -0.37464
 C131 C 0.83986 0.42285 -0.28473
 C132 C 0.81478 0.40980 -0.24323
 C133 C 0.78616 0.39510 -0.19296
 C134 C 0.76238 0.38305 -0.14862
 H135 H 0.88965 0.49404 -0.29519
 H136 H 0.85906 0.38781 -0.37993
 H137 H 0.91340 0.41545 -0.45691
 H138 H 0.94378 0.52182 -0.37244
 C139 C 0.52503 0.42383 -0.32113
 C140 C 0.56072 0.43143 -0.33265
 C141 C 0.58130 0.45489 -0.38793
 C142 C 0.56639 0.47104 -0.43111
 C143 C 0.53042 0.46387 -0.41998
 C144 C 0.51004 0.43993 -0.36405
 C145 C 0.57661 0.41643 -0.28539
 C146 C 0.58952 0.40420 -0.24405
 C147 C 0.60415 0.39024 -0.19374
 C148 C 0.61619 0.37860 -0.14925
 H149 H 0.50883 0.40570 -0.27842
 H150 H 0.60920 0.46140 -0.39662
 H151 H 0.58384 0.49061 -0.47068
 H152 H 0.48212 0.43299 -0.35412
 C153 C 0.89941 0.42538 0.31867
 C154 C 0.87108 0.43247 0.33140
 C155 C 0.87374 0.45522 0.38788
 C156 C 0.90476 0.47104 0.43124
 C157 C 0.93372 0.46422 0.41910
 C158 C 0.93045 0.44115 0.36174
 C159 C 0.84006 0.41750 0.28443
 C160 C 0.81481 0.40517 0.24333
 C161 C 0.78609 0.39100 0.19330
 C162 C 0.76229 0.37915 0.14902
 H163 H 0.89765 0.40780 0.27501
 H164 H 0.85218 0.46137 0.39751
 H165 H 0.90668 0.49004 0.47191
 H166 H 0.95155 0.43449 0.35093
 C167 C 0.58002 0.12367 0.38484
 C168 C 0.55935 0.12746 0.33102
 C169 C 0.52291 0.10045 0.32162
 C170 C 0.50715 0.06968 0.36561
 C171 C 0.52748 0.06542 0.42057
 C172 C 0.56434 0.09291 0.42906
 C173 C 0.57565 0.15842 0.28375
 C174 C 0.58881 0.18375 0.24271
 C175 C 0.60366 0.21266 0.19296
 C176 C 0.61586 0.23666 0.14898
 H177 H 0.60843 0.14420 0.39194
 H178 H 0.50665 0.10310 0.28002
 H179 H 0.47865 0.04965 0.35762
 H180 H 0.58155 0.09014 0.46822
 C181 C 0.58377 0.47846 0.33139
 C182 C 0.56922 0.44056 0.33162
 C183 C 0.53994 0.41856 0.37660
 C184 C 0.52508 0.43438 0.42079
 C185 C 0.53950 0.47242 0.42067
 C186 C 0.56895 0.49431 0.37553
 C187 C 0.58354 0.42426 0.28374
 C188 C 0.59539 0.41101 0.24232
 C189 C 0.60909 0.39601 0.19227
 C190 C 0.62064 0.38368 0.14819
 H191 H 0.60631 0.49571 0.29657
 H192 H 0.52831 0.38918 0.37685
 H193 H 0.50203 0.41696 0.45439
 H194 H 0.58040 0.52366 0.37449
 C195 C 0.12386 0.58234 0.38054
 C196 C 0.12996 0.56000 0.33428
 C197 C 0.10516 0.52240 0.33212
 C198 C 0.07406 0.50728 0.37514
 C199 C 0.06749 0.52960 0.42099
 C200 C 0.09275 0.56725 0.42361
 C201 C 0.16057 0.57578 0.28631
 C202 C 0.18552 0.58870 0.24450
 C203 C 0.21393 0.60341 0.19381
 C204 C 0.23754 0.61556 0.14912
 H205 H 0.14273 0.61151 0.38226
 H206 H 0.10953 0.50489 0.29629
 H207 H 0.05491 0.47821 0.37221
 H208 H 0.08792 0.58505 0.45769
 C209 C 0.45971 0.87843 0.37629
 C210 C 0.43006 0.87079 0.33226
 C211 C 0.41524 0.89385 0.33299
 C212 C 0.43021 0.92462 0.37707
 C213 C 0.46009 0.93256 0.42116
 C214 C 0.47473 0.90920 0.42038
 C215 C 0.41572 0.84016 0.28424
 C216 C 0.40396 0.81505 0.24274
 C217 C 0.39041 0.78633 0.19263
 C218 C 0.37897 0.76243 0.14849
 H219 H 0.47155 0.86091 0.37577
 H220 H 0.39239 0.88828 0.29890
 H221 H 0.41859 0.94232 0.37672
 H222 H 0.49811 0.91512 0.45310
 C223 C 0.41876 0.53952 0.37661
 C224 C 0.44065 0.56882 0.33148
 C225 C 0.47849 0.58344 0.33116
 C226 C 0.49439 0.56869 0.37534
 C227 C 0.47261 0.53922 0.42061
 C228 C 0.43463 0.52471 0.42083
 C229 C 0.42430 0.58309 0.28358
 C230 C 0.41103 0.59491 0.24214
 C231 C 0.39603 0.60861 0.19208
 C232 C 0.38373 0.62020 0.14799
 H233 H 0.38943 0.52784 0.37693
 H234 H 0.49566 0.60601 0.29624
 H235 H 0.52368 0.58019 0.37423
 H236 H 0.41729 0.50165 0.45453
   
