data_POSCAR
  _audit_creation_date              2014-09-24
  _audit_creation_method            'ToBaCCo'
  _symmetry_space_group_name_H-M    'P1'
  _symmetry_Int_Tables_number       1
  _symmetry_cell_setting            triclinic
  loop_
  _symmetry_equiv_pos_as_xyz
 x,y,z
_cell_length_a 44.0211
_cell_length_b 42.3473
_cell_length_c 43.0993
_cell_angle_alpha 93.011300
_cell_angle_beta 90.744300
_cell_angle_gamma 87.715400
loop_
  _atom_site_label
  _atom_site_type_symbol
  _atom_site_fract_x
  _atom_site_fract_y
  _atom_site_fract_z
C1 C 0.61905 0.63002 0.65528
 C2 C 0.59523 0.65305 0.65627
 C3 C 0.59507 0.67848 0.63656
 C4 C 0.61886 0.68050 0.61542
 C5 C 0.64297 0.65781 0.61436
 C6 C 0.64311 0.63250 0.63444
 C7 C 0.61916 0.60464 0.67493
 C8 C 0.64364 0.58204 0.67510
 C9 C 0.66751 0.58477 0.65388
 C10 C 0.66718 0.60952 0.63346
 C11 C 0.69053 0.61151 0.61188
 C12 C 0.69056 0.63665 0.59192
 C13 C 0.66687 0.65989 0.59343
 H14 H 0.57660 0.65094 0.67213
 H15 H 0.61877 0.70001 0.60009
 H16 H 0.60048 0.60323 0.69089
 H17 H 0.68592 0.56711 0.65209
 H18 H 0.70890 0.59366 0.61075
 H19 H 0.66669 0.67912 0.57777
 C20 C 0.89252 0.37733 0.13211
 C21 C 0.91516 0.35309 0.13030
 C22 C 0.91675 0.33102 0.10456
 C23 C 0.89431 0.33337 0.08092
 C24 C 0.87107 0.35704 0.08285
 C25 C 0.87030 0.37927 0.10838
 C26 C 0.89171 0.39966 0.15737
 C27 C 0.86852 0.42337 0.15956
 C28 C 0.84628 0.42507 0.13599
 C29 C 0.84715 0.40333 0.11031
 C30 C 0.82515 0.40515 0.08660
 C31 C 0.82558 0.38281 0.06134
 C32 C 0.84840 0.35869 0.05970
 H33 H 0.93205 0.35201 0.14879
 H34 H 0.89380 0.31616 0.06150
 H35 H 0.90882 0.39833 0.17563
 H36 H 0.82856 0.44360 0.13748
 H37 H 0.80728 0.42353 0.08808
 H38 H 0.84868 0.34149 0.04015
 C39 C 0.39036 0.12920 -0.14111
 C40 C 0.41167 0.15302 -0.13908
 C41 C 0.40952 0.17731 -0.11571
 C42 C 0.38549 0.17812 -0.09454
 C43 C 0.36352 0.15496 -0.09683
 C44 C 0.36604 0.13030 -0.12012
 C45 C 0.39314 0.10435 -0.16380
 C46 C 0.37164 0.08039 -0.16634
 C47 C 0.34683 0.08242 -0.14576
 C48 C 0.34421 0.10677 -0.12244
 C49 C 0.32021 0.10786 -0.10122
 C50 C 0.31743 0.13252 -0.07821
 C51 C 0.33913 0.15602 -0.07618
 H52 H 0.43034 0.15236 -0.15530
 H53 H 0.38366 0.19707 -0.07667
 H54 H 0.41159 0.10471 -0.18008
 H55 H 0.32994 0.06444 -0.14713
 H56 H 0.30347 0.08973 -0.10275
 H57 H 0.33730 0.17480 -0.05813
 C58 C 0.10429 0.87435 0.34950
 C59 C 0.08016 0.85366 0.34836
 C60 C 0.07606 0.83267 0.37228
 C61 C 0.09608 0.83411 0.39818
 C62 C 0.12073 0.85417 0.39922
 C63 C 0.12512 0.87405 0.37458
 C64 C 0.10788 0.89542 0.32588
 C65 C 0.13267 0.91529 0.32642
 C66 C 0.15410 0.91397 0.35079
 C67 C 0.15030 0.89372 0.37508
 C68 C 0.17106 0.89306 0.40000
 C69 C 0.16661 0.87362 0.42485
 C70 C 0.14134 0.85429 0.42434
 H71 H 0.06428 0.85483 0.32907
 H72 H 0.09339 0.81861 0.41711
 H73 H 0.09154 0.89625 0.30686
 H74 H 0.17313 0.92948 0.35135
 H75 H 0.19046 0.90808 0.40036
 H76 H 0.13815 0.83875 0.44312
 N77 N 0.08484 0.17199 0.11524
 N78 N 0.07760 0.16512 0.14353
 C79 C 0.05438 0.18452 0.15347
 C80 C 0.04646 0.20440 0.12998
 C81 C 0.06611 0.19570 0.10599
 H82 H 0.04368 0.18383 0.17586
 H83 H 0.06709 0.20630 0.08375
 Cu84 Cu 0.09839 0.13088 0.16441
 Cu85 Cu 0.11925 0.15097 0.09361
 Cu86 Cu 0.15138 0.08450 0.12661
 N87 N 0.11156 0.08994 0.17900
 N88 N 0.13309 0.07239 0.16497
 C89 C 0.13840 0.04602 0.18068
 C90 C 0.11873 0.04690 0.20549
 C91 C 0.10200 0.07509 0.20372
 H92 H 0.15485 0.02725 0.17420
 H93 H 0.08446 0.08431 0.21944
 N94 N 0.16630 0.10087 0.08784
 N95 N 0.15436 0.12653 0.07558
 C96 C 0.17047 0.13272 0.05041
 C97 C 0.19335 0.10965 0.04640
 C98 C 0.19003 0.08978 0.07050
 H99 H 0.16618 0.15274 0.03618
 H100 H 0.20449 0.06944 0.07562
 H101 H 0.11191 0.10839 0.11330
 H102 H 0.14263 0.13291 0.13125
 N103 N 0.42377 0.83681 0.60261
 N104 N 0.42882 0.84090 0.63264
 C105 C 0.45274 0.82226 0.64076
 C106 C 0.46354 0.80587 0.61430
 C107 C 0.44467 0.81578 0.59042
 H108 H 0.46167 0.82070 0.66415
 H109 H 0.44541 0.80770 0.56621
 Cu110 Cu 0.40391 0.87063 0.65803
 Cu111 Cu 0.38943 0.85822 0.58232
 Cu112 Cu 0.33266 0.88534 0.63355
 N113 N 0.37758 0.90216 0.67958
 N114 N 0.34902 0.90674 0.67107
 C115 C 0.33581 0.92914 0.69039
 C116 C 0.35757 0.93951 0.71166
 C117 C 0.38379 0.92196 0.70403
 H118 H 0.31264 0.93828 0.68809
 H119 H 0.40581 0.92369 0.71530
 N120 N 0.32523 0.87620 0.58885
 N121 N 0.34721 0.86788 0.56915
 C122 C 0.33546 0.86554 0.54019
 C123 C 0.30454 0.87266 0.54175
 C124 C 0.29882 0.87916 0.57296
 H125 H 0.34838 0.85849 0.51964
 H126 H 0.27716 0.88623 0.58325
 H127 H 0.37385 0.89257 0.61579
 H128 H 0.36610 0.85020 0.62102
 N129 N 0.92322 0.67006 0.40450
 N130 N 0.93225 0.66225 0.37606
 C131 C 0.95349 0.68228 0.36812
 C132 C 0.95838 0.70333 0.39310
 C133 C 0.93884 0.69489 0.41586
 H134 H 0.96512 0.68126 0.34612
 H135 H 0.93594 0.70616 0.43879
 Cu136 Cu 0.91647 0.62566 0.35292
 Cu137 Cu 0.89175 0.64756 0.42449
 Cu138 Cu 0.85776 0.58756 0.38031
 N139 N 0.90110 0.58816 0.33104
 N140 N 0.87724 0.57427 0.34119
 C141 C 0.87040 0.55002 0.32122
 C142 C 0.89134 0.54834 0.29754
 C143 C 0.91055 0.57287 0.30448
 H144 H 0.85189 0.53439 0.32395
 H145 H 0.92959 0.57939 0.29091
 N146 N 0.84197 0.60432 0.42070
 N147 N 0.85461 0.62748 0.43731
 C148 C 0.83800 0.63426 0.46302
 C149 C 0.81421 0.61395 0.46285
 C150 C 0.81741 0.59528 0.43574
 H151 H 0.84290 0.65248 0.48070
 H152 H 0.80257 0.57689 0.42734
 H153 H 0.89703 0.60394 0.39972
 H154 H 0.87053 0.63447 0.38315
 N155 N 0.57310 0.32906 -0.12165
 N156 N 0.56065 0.34384 -0.14499
 C157 C 0.53499 0.32948 -0.15400
 C158 C 0.53101 0.30470 -0.13499
 C159 C 0.55548 0.30523 -0.11460
 H160 H 0.52022 0.33655 -0.17285
 H161 H 0.56050 0.28889 -0.09659
 Cu162 Cu 0.57890 0.38049 -0.16142
 Cu163 Cu 0.61207 0.34054 -0.10349
 Cu164 Cu 0.64743 0.40297 -0.13480
 N165 N 0.59947 0.41527 -0.17877
 N166 N 0.62683 0.42292 -0.16927
 C167 C 0.63627 0.44652 -0.18605
 C168 C 0.61339 0.45443 -0.20678
 C169 C 0.59033 0.43419 -0.20156
 H170 H 0.65790 0.45760 -0.18302
 H171 H 0.56880 0.43301 -0.21385
 N172 N 0.66468 0.37995 -0.09977
 N173 N 0.65160 0.35566 -0.08830
 C174 C 0.66905 0.34478 -0.06495
 C175 C 0.69407 0.36340 -0.06136
 C176 C 0.69050 0.38553 -0.08365
 H177 H 0.66358 0.32534 -0.05101
 H178 H 0.70569 0.40429 -0.08773
 H179 H 0.60904 0.38769 -0.11380
 H180 H 0.62793 0.35957 -0.14311
 C181 C -0.02268 0.27653 0.13063
 C182 C -0.01396 0.26031 0.10281
 N183 N -0.02826 0.26755 0.07590
 C184 C -0.05108 0.29017 0.07549
 C185 C -0.05990 0.30698 0.10340
 N186 N -0.04498 0.29954 0.13019
 N187 N -0.00898 0.26878 0.15773
 C188 C 0.01313 0.24545 0.15824
 C189 C 0.02232 0.22947 0.13030
 N190 N 0.00855 0.23744 0.10316
 H191 H -0.06108 0.29554 0.05328
 H192 H 0.02373 0.23981 0.18016
 C193 C 0.53615 0.73728 0.61105
 C194 C 0.52326 0.74817 0.63941
 N195 N 0.53393 0.73629 0.66625
 C196 C 0.55689 0.71385 0.66604
 C197 C 0.56997 0.70282 0.63766
 N198 N 0.55927 0.71506 0.61081
 N199 N 0.52519 0.74894 0.58418
 C200 C 0.50182 0.77098 0.58439
 C201 C 0.48893 0.78207 0.61281
 N202 N 0.50014 0.77034 0.63966
 H203 H 0.56513 0.70509 0.68786
 H204 H 0.49364 0.77986 0.56261
 C205 C 1.02292 0.77469 0.39693
 C206 C 1.00952 0.76464 0.36867
 N207 N 1.01761 0.77774 0.34213
 C208 C 1.03858 0.80047 0.34244
 C209 C 1.05285 0.81036 0.37075
 N210 N 1.04440 0.79682 0.39724
 N211 N 1.01438 0.76203 0.42362
 C212 C 0.99311 0.73955 0.42324
 C213 C 0.98025 0.72878 0.39478
 N214 N 0.98884 0.74169 0.36813
 H215 H 1.04484 0.80924 0.32044
 H216 H 0.98692 0.72966 0.44481
 C217 C 0.46198 0.23801 -0.13913
 C218 C 0.47692 0.24586 -0.11097
 N219 N 0.46904 0.23189 -0.08475
 C220 C 0.44697 0.21026 -0.08545
 C221 C 0.43247 0.20180 -0.11377
 N222 N 0.44042 0.21595 -0.13997
 N223 N 0.46932 0.25255 -0.16518
 C224 C 0.49104 0.27453 -0.16441
 C225 C 0.50656 0.28193 -0.13641
 N226 N 0.49907 0.26731 -0.11031
 H227 H 0.44128 0.19925 -0.06430
 H228 H 0.49657 0.28557 -0.18559
 C229 C 0.11190 -0.02155 0.27270
 C230 C 0.13941 -0.01798 0.25739
 N231 N 0.16426 -0.03616 0.26491
 C232 C 0.16285 -0.05775 0.28710
 C233 C 0.13522 -0.06166 0.30218
 N234 N 0.11036 -0.04344 0.29445
 N235 N 0.08728 -0.00277 0.26590
 C236 C 0.08889 0.01953 0.24448
 C237 C 0.11629 0.02297 0.22881
 N238 N 0.14091 0.00395 0.23561
 H239 H 0.18296 -0.07198 0.29266
 H240 H 0.06887 0.03412 0.23949
 C241 C 0.61537 0.52640 -0.27089
 C242 C 0.64214 0.51008 -0.26207
 N243 N 0.66897 0.51740 -0.27440
 C244 C 0.67037 0.54028 -0.29527
 C245 C 0.64356 0.55734 -0.30399
 N246 N 0.61678 0.54974 -0.29113
 N247 N 0.58836 0.51854 -0.25920
 C248 C 0.58695 0.49508 -0.23893
 C249 C 0.61386 0.47918 -0.22946
 N250 N 0.64087 0.48717 -0.24130
 H251 H 0.69247 0.54574 -0.30361
 H252 H 0.56515 0.48940 -0.22984
 C253 C 0.35066 1.01420 0.78052
 C254 C 0.37855 1.00528 0.76676
 N255 N 0.40371 1.02114 0.77524
 C256 C 0.40233 1.04580 0.79672
 C257 C 0.37434 1.05501 0.81098
 N258 N 0.34929 1.03843 0.80245
 N259 N 0.32531 0.99876 0.77143
 C260 C 0.32668 0.97475 0.74913
 C261 C 0.35477 0.96545 0.73567
 N262 N 0.38005 0.98100 0.74498
 H263 H 0.42329 1.05690 0.80323
 H264 H 0.30617 0.96281 0.74232
 C265 C 0.89368 0.48204 0.22068
 C266 C 0.86658 0.48932 0.23678
 N267 N 0.84065 0.47522 0.22732
 C268 C 0.84057 0.45414 0.20241
 C269 C 0.86775 0.44645 0.18644
 N270 N 0.89373 0.46059 0.19612
 N271 N 0.91943 0.49673 0.22970
 C272 C 0.91934 0.51840 0.25414
 C273 C 0.89233 0.52541 0.27063
 N274 N 0.86658 0.51055 0.26149
 H275 H 0.81962 0.44311 0.19543
 H276 H 0.94023 0.52962 0.26089
 C277 C 0.26249 0.10638 -0.02105
 C278 C 0.24603 0.13469 -0.01325
 N279 N 0.25295 0.16163 -0.02687
 C280 C 0.27574 0.16160 -0.04787
 C281 C 0.29223 0.13327 -0.05587
 N282 N 0.28500 0.10625 -0.04230
 N283 N 0.25603 0.07962 -0.00684
 C284 C 0.23391 0.07989 0.01494
 C285 C 0.21724 0.10818 0.02268
 N286 N 0.22371 0.13489 0.00819
 H287 H 0.28075 0.18341 -0.05843
 H288 H 0.22926 0.05820 0.02586
 C289 C 0.74545 0.61127 0.53006
 C290 C 0.76042 0.63934 0.52573
 N291 N 0.75221 0.66607 0.54287
 C292 C 0.72967 0.66601 0.56417
 C293 C 0.71491 0.63782 0.56886
 N294 N 0.72332 0.61108 0.55166
 N295 N 0.75304 0.58476 0.51237
 C296 C 0.77495 0.58500 0.49046
 C297 C 0.79029 0.61294 0.48630
 N298 N 0.78266 0.63947 0.50420
 H299 H 0.72362 0.68759 0.57762
 H300 H 0.78059 0.56347 0.47676
 C301 C 0.76452 0.35839 0.00601
 C302 C 0.75682 0.38690 -0.00791
 N303 N 0.77165 0.41344 0.00094
 C304 C 0.79383 0.41281 0.02318
 C305 C 0.80182 0.38424 0.03696
 N306 N 0.78698 0.35762 0.02788
 N307 N 0.74908 0.33207 -0.00222
 C308 C 0.72620 0.33296 -0.02373
 C309 C 0.71865 0.36140 -0.03797
 N310 N 0.73432 0.38768 -0.02971
 H311 H 0.80533 0.43429 0.02983
 H312 H 0.71432 0.31161 -0.02988
 C313 C 0.24021 0.87423 0.46802
 C314 C 0.23085 0.87266 0.49888
 N315 N 0.20080 0.87132 0.50510
 C316 C 0.17963 0.87139 0.48183
 C317 C 0.18888 0.87316 0.45084
 N318 N 0.21909 0.87467 0.44482
 N319 N 0.27027 0.87511 0.46173
 C320 C 0.29149 0.87445 0.48492
 C321 C 0.28223 0.87314 0.51594
 N322 N 0.25200 0.87237 0.52210
 H323 H 0.15581 0.87061 0.48752
 H324 H 0.31526 0.87535 0.47914
   
