data_POSCAR
  _audit_creation_date              2014-09-24
  _audit_creation_method            'ToBaCCo'
  _symmetry_space_group_name_H-M    'P1'
  _symmetry_Int_Tables_number       1
  _symmetry_cell_setting            triclinic
  loop_
  _symmetry_equiv_pos_as_xyz
 x,y,z
_cell_length_a 51.3302
_cell_length_b 52.1428
_cell_length_c 51.8299
_cell_angle_alpha 89.540800
_cell_angle_beta 89.365400
_cell_angle_gamma 89.308500
loop_
  _atom_site_label
  _atom_site_type_symbol
  _atom_site_fract_x
  _atom_site_fract_y
  _atom_site_fract_z
Si1 Si 0.75000 0.61516 1.00532
 Si2 Si 0.75298 0.38124 0.50229
 Si3 Si 0.24766 -0.11821 -0.00553
 Si4 Si 0.25781 0.11594 0.49679
 Si5 Si 0.11737 0.50005 0.25555
 Si6 Si -0.11479 0.00004 0.24909
 Si7 Si 0.38274 0.49827 0.74831
 Si8 Si 0.61930 0.99621 0.75662
 Si9 Si 0.00015 0.25467 -0.12175
 Si10 Si 0.49715 0.25220 0.11873
 Si11 Si 0.99834 0.75523 0.62033
 Si12 Si 0.50163 0.75093 0.37793
 C13 C 0.41769 -0.02850 0.27126
 H14 H 0.41919 -0.01011 0.28061
 C15 C 0.43153 -0.04971 0.28081
 H16 H 0.44384 -0.04765 0.29749
 C17 C 0.39869 -0.05410 0.23903
 H18 H 0.38528 -0.05596 0.22327
 C19 C 0.41217 -0.07577 0.24796
 H20 H 0.40927 -0.09415 0.23888
 N21 N 0.40157 -0.03106 0.25079
 C22 C 0.38690 0.04558 0.21947
 H23 H 0.36585 0.04490 0.21900
 C24 C 0.39976 0.06732 0.21046
 H25 H 0.38860 0.08344 0.20295
 C26 C 0.42714 0.02535 0.22980
 H27 H 0.43769 0.00887 0.23721
 C28 C 0.44083 0.04682 0.22093
 H29 H 0.46191 0.04688 0.22159
 Zn30 Zn 0.38043 -0.00259 0.24121
 N31 N 0.40062 0.02530 0.22920
 C32 C 0.36414 0.03133 0.28060
 N33 N 0.36114 0.00736 0.27094
 C34 C 0.34606 -0.01026 0.28337
 C35 C 0.33311 -0.00392 0.30640
 C36 C 0.35156 0.03843 0.30346
 C37 C 0.37021 -0.01685 0.19095
 C38 C 0.35561 -0.02385 0.16967
 C39 C 0.31647 -0.01953 0.19571
 C40 C 0.33185 -0.01254 0.21659
 N41 N 0.35826 -0.01170 0.21392
 H42 H 0.37675 0.04485 0.27095
 H43 H 0.34444 -0.02936 0.27558
 H44 H 0.32130 -0.01807 0.31631
 H45 H 0.35426 0.05750 0.31108
 H46 H 0.39120 -0.01571 0.18931
 H47 H 0.36537 -0.02827 0.15158
 H48 H 0.29550 -0.02053 0.19800
 H49 H 0.32270 -0.00792 0.23487
 C50 C 0.42694 0.06803 0.21130
 C51 C 0.42852 -0.07361 0.26920
 C52 C 0.32853 -0.02536 0.17209
 C53 C 0.33600 0.02065 0.31654
 C54 C 0.07926 1.02936 0.77822
 H55 H 0.07828 1.01100 0.78803
 C56 C 0.06527 1.05043 0.78791
 H57 H 0.05339 1.04829 0.80518
 C58 C 0.09704 1.05505 0.74457
 H59 H 0.11003 1.05704 0.72817
 C60 C 0.08339 1.07655 0.75359
 H61 H 0.08575 1.09490 0.74395
 N62 N 0.09485 1.03204 0.75697
 C63 C 0.11001 0.95570 0.72609
 H64 H 0.13102 0.95672 0.72476
 C65 C 0.09734 0.93392 0.71754
 H66 H 0.10860 0.91811 0.70954
 C67 C 0.06966 0.97523 0.73786
 H68 H 0.05900 0.99149 0.74556
 C69 C 0.05616 0.95371 0.72946
 H70 H 0.03509 0.95339 0.73077
 Zn71 Zn 0.11615 1.00390 0.74673
 N72 N 0.09615 0.97568 0.73622
 C73 C 0.13446 0.97012 0.78555
 N74 N 0.13677 0.99416 0.77542
 C75 C 0.15239 1.01181 0.78649
 C76 C 0.16680 1.00534 0.80844
 C77 C 0.14848 0.96290 0.80737
 C78 C 0.12426 1.01830 0.69563
 C79 C 0.13801 1.02518 0.67333
 C80 C 0.17811 1.02101 0.69711
 C81 C 0.16357 1.01417 0.71904
 N82 N 0.13710 1.01328 0.71797
 H83 H 0.12142 0.95657 0.77704
 H84 H 0.15347 1.03095 0.77839
 H85 H 0.17914 1.01946 0.81720
 H86 H 0.14640 0.94374 0.81531
 H87 H 0.10324 1.01709 0.69526
 H88 H 0.12758 1.02943 0.65572
 H89 H 0.19914 1.02196 0.69811
 H90 H 0.17344 1.00959 0.73682
 C91 C 0.07020 0.93287 0.71928
 C92 C 0.06756 1.07429 0.77559
 C93 C 0.16516 1.02666 0.67409
 C94 C 0.16475 0.98064 0.81895
 C95 C 0.57827 0.52149 0.28506
 H96 H 0.57713 0.50336 0.29529
 C97 C 0.56447 0.54289 0.29426
 H98 H 0.55255 0.54124 0.31156
 C99 C 0.59634 0.54629 0.25088
 H100 H 0.60939 0.54782 0.23448
 C101 C 0.58287 0.56809 0.25939
 H102 H 0.58542 0.58620 0.24935
 N103 N 0.59394 0.52358 0.26380
 C104 C 0.60906 0.44640 0.23492
 H105 H 0.63010 0.44717 0.23402
 C106 C 0.59630 0.42474 0.22620
 H107 H 0.60753 0.40875 0.21853
 C108 C 0.56869 0.46660 0.24542
 H109 H 0.55807 0.48314 0.25258
 C110 C 0.55511 0.44523 0.23681
 H111 H 0.53401 0.44528 0.23742
 Zn112 Zn 0.61521 0.49515 0.25429
 N113 N 0.59521 0.46670 0.24441
 C114 C 0.63412 0.46246 0.29385
 N115 N 0.63593 0.48629 0.28313
 C116 C 0.65139 0.50445 0.29357
 C117 C 0.66622 0.49872 0.31541
 C118 C 0.64857 0.45597 0.31561
 C119 C 0.62332 0.50836 0.20289
 C120 C 0.63702 0.51528 0.18057
 C121 C 0.67709 0.51209 0.20453
 C122 C 0.66260 0.50518 0.22647
 N123 N 0.63616 0.50389 0.22534
 H124 H 0.62121 0.44851 0.28580
 H125 H 0.65208 0.52341 0.28498
 H126 H 0.67850 0.51323 0.32363
 H127 H 0.64696 0.43695 0.32401
 H128 H 0.60233 0.50686 0.20249
 H129 H 0.62656 0.51929 0.16292
 H130 H 0.69808 0.51356 0.20562
 H131 H 0.67248 0.50103 0.24433
 C132 C 0.56910 0.42414 0.22709
 C133 C 0.56701 0.56646 0.28142
 C134 C 0.66411 0.51736 0.18144
 C135 C 0.66476 0.47422 0.32649
 C136 C 0.91584 0.47874 0.77834
 H137 H 0.91713 0.49696 0.78805
 C138 C 0.92986 0.45746 0.78753
 H139 H 0.94210 0.45931 0.80428
 C140 C 0.89717 0.45357 0.74557
 H141 H 0.88382 0.45186 0.72975
 C142 C 0.91084 0.43187 0.75411
 H143 H 0.90813 0.41365 0.74467
 N144 N 0.89978 0.47641 0.75779
 C145 C 0.88399 0.55337 0.72762
 H146 H 0.86295 0.55251 0.72726
 C147 C 0.89662 0.57527 0.71864
 H148 H 0.88529 0.59136 0.71131
 C149 C 0.92448 0.53335 0.73745
 H150 H 0.93521 0.51687 0.74460
 C151 C 0.93792 0.55497 0.72861
 H152 H 0.95901 0.55516 0.72905
 Zn153 Zn 0.87822 0.50473 0.74863
 N154 N 0.89796 0.53309 0.73703
 C155 C 0.86131 0.53779 0.78857
 N156 N 0.85874 0.51393 0.77850
 C157 C 0.84405 0.49582 0.79067
 C158 C 0.83107 0.50153 0.81384
 C159 C 0.84867 0.54427 0.81160
 C160 C 0.86858 0.49125 0.69812
 C161 C 0.85442 0.48369 0.67675
 C162 C 0.81508 0.48581 0.70275
 C163 C 0.83003 0.49342 0.72373
 N164 N 0.85635 0.49554 0.72112
 H165 H 0.87362 0.55171 0.77912
 H166 H 0.84280 0.47682 0.78257
 H167 H 0.81956 0.48699 0.82352
 H168 H 0.85102 0.56325 0.81954
 H169 H 0.88948 0.49334 0.69655
 H170 H 0.86445 0.47984 0.65866
 H171 H 0.79422 0.48364 0.70501
 H172 H 0.82064 0.49733 0.74206
 C173 C 0.92380 0.57614 0.71922
 C174 C 0.92710 0.43376 0.77544
 C175 C 0.82748 0.48072 0.67911
 C176 C 0.83352 0.52597 0.82442
 C177 C 0.27794 0.42276 -0.02460
 H178 H 0.28750 0.42369 -0.00614
 C179 C 0.28814 0.43607 -0.04588
 H180 H 0.30552 0.44740 -0.04380
 C181 C 0.24455 0.40562 -0.05038
 H182 H 0.22811 0.39311 -0.05234
 C183 C 0.25408 0.41861 -0.07209
 H184 H 0.24477 0.41623 -0.09056
 N185 N 0.25662 0.40778 -0.02725
 C186 C 0.22430 0.39300 0.04951
 H187 H 0.22304 0.37236 0.04822
 C188 C 0.21545 0.40545 0.07166
 H189 H 0.20729 0.39439 0.08752
 C190 C 0.23638 0.43264 0.03031
 H191 H 0.24439 0.44311 0.01405
 C192 C 0.22770 0.44591 0.05222
 H193 H 0.22910 0.46661 0.05287
 Zn194 Zn 0.24615 0.38692 0.00100
 N195 N 0.23478 0.40661 0.02953
 C196 C 0.28508 0.36851 0.03471
 N197 N 0.27534 0.36653 0.01050
 C198 C 0.28727 0.35149 -0.00758
 C199 C 0.30978 0.33743 -0.00143
 C200 C 0.30745 0.35481 0.04163
 C201 C 0.19499 0.37918 -0.01336
 C202 C 0.17304 0.36580 -0.02093
 C203 C 0.19795 0.32628 -0.01772
 C204 C 0.21952 0.34043 -0.01017
 N205 N 0.21774 0.36645 -0.00856
 H206 H 0.27588 0.38108 0.04861
 H207 H 0.27944 0.35068 -0.02684
 H208 H 0.31927 0.32559 -0.01591
 H209 H 0.31512 0.35664 0.06092
 H210 H 0.19408 0.39983 -0.01162
 H211 H 0.15515 0.37616 -0.02517
 H212 H 0.19956 0.30563 -0.01943
 H213 H 0.23761 0.33065 -0.00578
 C214 C 0.21725 0.43211 0.07310
 C215 C 0.27624 0.43371 -0.06990
 C216 C 0.17458 0.33915 -0.02332
 C217 C 0.31995 0.33920 0.02342
 C218 C 0.78328 0.08524 1.02619
 H219 H 0.79301 0.08368 1.00764
 C220 C 0.79324 0.07214 1.04762
 H221 H 0.81062 0.06031 1.04559
 C222 C 0.74945 0.10351 1.05191
 H223 H 0.73286 0.11630 1.05374
 C224 C 0.75875 0.09075 1.07378
 H225 H 0.74910 0.09356 1.09226
 N226 N 0.76177 0.10058 1.02870
 C227 C 0.72996 0.11220 0.95182
 H228 H 0.72857 0.13292 0.95200
 C229 C 0.72111 0.09871 0.93060
 H230 H 0.71284 0.10905 0.91437
 C231 C 0.74205 0.07340 0.97298
 H232 H 0.74993 0.06366 0.98969
 C233 C 0.73335 0.05911 0.95207
 H234 H 0.73463 0.03836 0.95265
 Zn235 Zn 0.75096 0.12037 0.99987
 N236 N 0.74037 0.09948 0.97234
 C237 C 0.78984 0.13753 0.96501
 N238 N 0.77961 0.14057 0.98915
 C239 C 0.79075 0.15654 1.00641
 C240 C 0.81293 0.17044 0.99947
 C241 C 0.81191 0.15104 0.95731
 C242 C 0.69947 0.12795 1.01463
 C243 C 0.67686 0.14121 1.02190
 C244 C 0.70012 0.18101 1.01693
 C245 C 0.72239 0.16696 1.00970
 N246 N 0.72173 0.14088 1.00908
 H247 H 0.78127 0.12424 0.95179
 H248 H 0.78257 0.15819 1.02566
 H249 H 0.82179 0.18301 1.01332
 H250 H 0.81998 0.14835 0.93811
 H251 H 0.69945 0.10723 1.01367
 H252 H 0.65935 0.13070 1.02667
 H253 H 0.70081 0.20175 1.01778
 H254 H 0.74013 0.17688 1.00475
 C255 C 0.72283 0.07196 0.93070
 C256 C 0.78094 0.07509 1.07167
 C257 C 0.67721 0.16796 1.02322
 C258 C 0.82362 0.16757 0.97469
 C259 C 0.28152 0.58575 0.52597
 H260 H 0.29111 0.58416 0.50735
 C261 C 0.29123 0.57210 0.54718
 H262 H 0.30828 0.55985 0.54490
 C263 C 0.24835 0.60458 0.55210
 H264 H 0.23213 0.61779 0.55417
 C265 C 0.25741 0.59129 0.57376
 H266 H 0.24795 0.59412 0.59233
 N267 N 0.26047 0.60163 0.52879
 C268 C 0.22865 0.61514 0.45218
 H269 H 0.22790 0.63588 0.45261
 C270 C 0.21930 0.60218 0.43085
 H271 H 0.21128 0.61295 0.41476
 C272 C 0.23966 0.57577 0.47285
 H273 H 0.24731 0.56561 0.48941
 C274 C 0.23044 0.56200 0.45181
 H275 H 0.23110 0.54123 0.45214
 Zn276 Zn 0.25011 0.62209 0.50025
 N277 N 0.23877 0.60188 0.47251
 C278 C 0.28933 0.63862 0.46546
 N279 N 0.27929 0.64160 0.48968
 C280 C 0.29092 0.65705 0.50710
 C281 C 0.31342 0.67049 0.50024
 C282 C 0.31171 0.65167 0.45784
 C283 C 0.19892 0.63102 0.51533
 C284 C 0.17668 0.64489 0.52261
 C285 C 0.20108 0.68403 0.51772
 C286 C 0.22295 0.66938 0.51048
 N287 N 0.22154 0.64334 0.50979
 H288 H 0.28035 0.62573 0.45211
 H289 H 0.28286 0.65866 0.52640
 H290 H 0.32265 0.68266 0.51420
 H291 H 0.31962 0.64905 0.43856
 H292 H 0.19830 0.61032 0.51429
 H293 H 0.15887 0.63486 0.52732
 H294 H 0.20235 0.70473 0.51858
 H295 H 0.24096 0.67882 0.50551
 C296 C 0.22021 0.57540 0.43063
 C297 C 0.27916 0.57507 0.57132
 C298 C 0.17779 0.67160 0.52395
 C299 C 0.32391 0.66769 0.47537
 C300 C 0.77907 0.92208 0.47487
 H301 H 0.78835 0.92297 0.49348
 C302 C 0.78956 0.93543 0.45377
 H303 H 0.80690 0.94678 0.45613
 C304 C 0.74602 0.90506 0.44859
 H305 H 0.72956 0.89260 0.44639
 C306 C 0.75585 0.91810 0.42705
 H307 H 0.74677 0.91582 0.40845
 N308 N 0.75774 0.90717 0.47191
 C309 C 0.72395 0.89322 0.54816
 H310 H 0.72246 0.87258 0.54697
 C311 C 0.71493 0.90590 0.57012
 H312 H 0.70641 0.89501 0.58591
 C313 C 0.73684 0.93260 0.52895
 H314 H 0.74523 0.94288 0.51276
 C315 C 0.72800 0.94610 0.55067
 H316 H 0.72968 0.96677 0.55124
 Zn317 Zn 0.74661 0.88656 0.50009
 N318 N 0.73492 0.90658 0.52828
 C319 C 0.78465 0.86783 0.53468
 N320 N 0.77542 0.86594 0.51026
 C321 C 0.78751 0.85066 0.49248
 C322 C 0.80964 0.83626 0.49917
 C323 C 0.80663 0.85379 0.54213
 C324 C 0.69564 0.87896 0.48475
 C325 C 0.67376 0.86557 0.47697
 C326 C 0.69840 0.82599 0.48126
 C327 C 0.71988 0.84016 0.48900
 N328 N 0.71821 0.86620 0.49018
 H329 H 0.77533 0.88057 0.54834
 H330 H 0.78009 0.84990 0.47305
 H331 H 0.81926 0.82424 0.48493
 H332 H 0.81389 0.85557 0.56158
 H333 H 0.69479 0.89965 0.48619
 H334 H 0.65601 0.87594 0.47225
 H335 H 0.69993 0.80530 0.47994
 H336 H 0.73782 0.83034 0.49390
 C337 C 0.71708 0.93253 0.57147
 C338 C 0.77797 0.93320 0.42960
 C339 C 0.67521 0.83887 0.47504
 C340 C 0.81927 0.83792 0.52424
 C341 C -0.02277 0.27594 0.41545
 H342 H -0.00405 0.28513 0.41677
 C343 C -0.04432 0.28598 0.42883
 H344 H -0.04220 0.30287 0.44062
 C345 C -0.04884 0.24355 0.39738
 H346 H -0.05075 0.22752 0.38452
 C347 C -0.07085 0.25297 0.41042
 H348 H -0.08954 0.24398 0.40774
 N349 N -0.02540 0.25515 0.40003
 C350 C 0.05241 0.22319 0.38671
 H351 H 0.05185 0.22229 0.36588
 C352 C 0.07428 0.21414 0.39978
 H353 H 0.09064 0.20619 0.38899
 C354 C 0.03164 0.23445 0.42622
 H355 H 0.01486 0.24216 0.43640
 C356 C 0.05323 0.22554 0.44010
 H357 H 0.05310 0.22649 0.46097
 Zn358 Zn 0.00355 0.24475 0.37954
 N359 N 0.03178 0.23334 0.39997
 C360 C 0.03807 0.28313 0.36201
 N361 N 0.01371 0.27351 0.35944
 C362 C -0.00421 0.28530 0.34406
 C363 C 0.00220 0.30762 0.33035
 C364 C 0.04526 0.30531 0.34866
 C365 C -0.01108 0.19452 0.37101
 C366 C -0.01794 0.17285 0.35715
 C367 C -0.01285 0.19730 0.31763
 C368 C -0.00604 0.21859 0.33226
 N369 N -0.00563 0.21688 0.35849
 H370 H 0.05183 0.27401 0.37484
 H371 H -0.02361 0.27756 0.34277
 H372 H -0.01221 0.31705 0.31833
 H373 H 0.06462 0.31294 0.35105
 H374 H -0.01026 0.19364 0.39184
 H375 H -0.02256 0.15523 0.36733
 H376 H -0.01344 0.19881 0.29679
 H377 H -0.00114 0.23638 0.32267
 C378 C 0.07476 0.21538 0.42669
 C379 C -0.06863 0.27452 0.42607
 C380 C -0.01894 0.17428 0.33024
 C381 C 0.02717 0.31773 0.33279
 C382 C 1.02510 0.77874 0.08436
 H383 H 1.00622 0.78805 0.08286
 C384 C 1.04660 0.78891 0.07124
 H385 H 1.04427 0.80600 0.05943
 C386 C 1.05160 0.74592 0.10268
 H387 H 1.05368 0.72967 0.11556
 C388 C 1.07358 0.75546 0.08991
 H389 H 1.09240 0.74632 0.09276
 N390 N 1.02797 0.75768 0.09979
 C391 C 0.95031 0.72683 0.11289
 H392 H 0.95067 0.72601 0.13374
 C393 C 0.92879 0.71774 0.09977
 H394 H 0.91249 0.70989 0.11055
 C395 C 0.97139 0.73761 0.07336
 H396 H 0.98820 0.74505 0.06321
 C397 C 0.95016 0.72864 0.05943
 H398 H 0.95059 0.72929 0.03853
 Zn399 Zn 0.99907 0.74727 0.12014
 N400 N 0.97096 0.73667 0.09963
 C401 C 0.96441 0.78599 0.13816
 N402 N 0.98879 0.77574 0.14045
 C403 C 1.00681 0.78664 0.15589
 C404 C 1.00044 0.80862 0.17003
 C405 C 0.95726 0.80789 0.15194
 C406 C 1.01432 0.69667 0.12852
 C407 C 1.02114 0.67460 0.14237
 C408 C 1.01505 0.69827 0.18194
 C409 C 1.00832 0.71996 0.16731
 N410 N 1.00840 0.71883 0.14107
 H411 H 0.95059 0.77756 0.12528
 H412 H 1.02621 0.77840 0.15695
 H413 H 1.01490 0.81729 0.18216
 H414 H 0.93787 0.81602 0.14985
 H415 H 1.01386 0.69624 0.10766
 H416 H 1.02611 0.65712 0.13218
 H417 H 1.01521 0.69931 0.20280
 H418 H 1.00300 0.73759 0.17693
 C419 C 0.92869 0.71862 0.07282
 C420 C 1.07110 0.77730 0.07427
 C421 C 1.02160 0.67543 0.16931
 C422 C 0.97544 0.81935 0.16794
 C423 C 0.52920 0.27819 0.58866
 H424 H 0.51039 0.28757 0.58686
 C425 C 0.55102 0.28846 0.57614
 H426 H 0.54901 0.30569 0.56449
 C427 C 0.55519 0.24504 0.60710
 H428 H 0.55696 0.22861 0.61979
 C429 C 0.57746 0.25466 0.59493
 H430 H 0.59619 0.24540 0.59805
 N431 N 0.53166 0.25691 0.60385
 C432 C 0.45399 0.22535 0.61477
 H433 H 0.45403 0.22399 0.63561
 C434 C 0.43274 0.21649 0.60109
 H435 H 0.41634 0.20825 0.61140
 C436 C 0.47557 0.23733 0.57586
 H437 H 0.49247 0.24517 0.56617
 C438 C 0.45463 0.22862 0.56137
 H439 H 0.45536 0.22984 0.54050
 Zn440 Zn 0.50234 0.24607 0.62336
 N441 N 0.47475 0.23569 0.60209
 C442 C 0.46696 0.28421 0.64096
 N443 N 0.49134 0.27413 0.64391
 C444 C 0.50875 0.28502 0.66002
 C445 C 0.50176 0.30688 0.67409
 C446 C 0.45921 0.30595 0.65465
 C447 C 0.51741 0.19541 0.63078
 C448 C 0.52433 0.17307 0.64410
 C449 C 0.51818 0.19580 0.68422
 C450 C 0.51133 0.21780 0.67010
 N451 N 0.51143 0.21726 0.64384
 H452 H 0.45364 0.27581 0.62755
 H453 H 0.52818 0.27694 0.66160
 H454 H 0.51576 0.31560 0.68670
 H455 H 0.43985 0.31397 0.65197
 H456 H 0.51699 0.19547 0.60991
 H457 H 0.52941 0.15586 0.63350
 H458 H 0.51841 0.19637 0.70511
 H459 H 0.50601 0.23521 0.68012
 C460 C 0.43303 0.21812 0.57417
 C461 C 0.57540 0.27669 0.57953
 C462 C 0.52485 0.17329 0.67105
 C463 C 0.47677 0.31746 0.67127
 C464 C 0.47253 0.77409 0.91364
 H465 H 0.49115 0.78336 0.91553
 C466 C 0.45049 0.78421 0.92615
 H467 H 0.45214 0.80122 0.93785
 C468 C 0.44721 0.74151 0.89489
 H469 H 0.44579 0.72539 0.88206
 C470 C 0.42472 0.75100 0.90704
 H471 H 0.40616 0.74197 0.90374
 N472 N 0.47049 0.75320 0.89826
 C473 C 0.54883 0.72170 0.88711
 H474 H 0.54882 0.72068 0.86626
 C475 C 0.57044 0.71291 0.90077
 H476 H 0.58713 0.70504 0.89046
 C477 C 0.52695 0.73301 0.92602
 H478 H 0.50985 0.74065 0.93573
 C479 C 0.54824 0.72437 0.94049
 H480 H 0.54755 0.72543 0.96135
 Zn481 Zn 0.50006 0.74296 0.87861
 N482 N 0.52778 0.73174 0.89979
 C483 C 0.53475 0.78161 0.86229
 N484 N 0.51058 0.77183 0.85891
 C485 C 0.49300 0.78363 0.84316
 C486 C 0.49959 0.80616 0.82991
 C487 C 0.54211 0.80399 0.84942
 C488 C 0.48605 0.69269 0.86967
 C489 C 0.47948 0.67104 0.85566
 C490 C 0.48514 0.69559 0.81627
 C491 C 0.49166 0.71686 0.83107
 N492 N 0.49162 0.71509 0.85729
 H493 H 0.54821 0.77247 0.87542
 H494 H 0.47371 0.77576 0.84126
 H495 H 0.48546 0.81561 0.81760
 H496 H 0.56132 0.81175 0.85245
 H497 H 0.48649 0.69178 0.89052
 H498 H 0.47470 0.65339 0.86572
 H499 H 0.48484 0.69715 0.79542
 H500 H 0.49663 0.73470 0.82160
 C501 C 0.57020 0.71433 0.92768
 C502 C 0.42633 0.77270 0.92257
 C503 C 0.47887 0.67254 0.82874
 C504 C 0.52436 0.81645 0.83322
 C505 C 0.48308 -0.20131 0.31591
 C506 C 0.47654 -0.17822 0.32821
 C507 C 0.47791 -0.17663 0.35509
 C508 C 0.48553 -0.19800 0.36964
 C509 C 0.49172 -0.22126 0.35751
 C510 C 0.49075 -0.22277 0.33053
 C511 C 0.46777 -0.15621 0.31362
 C512 C 0.45985 -0.13742 0.30232
 C513 C 0.44983 -0.11520 0.29003
 C514 C 0.44056 -0.09619 0.28022
 H515 H 0.48212 -0.20274 0.29510
 H516 H 0.47291 -0.15889 0.36482
 H517 H 0.48640 -0.19643 0.39045
 H518 H 0.49582 -0.24041 0.32075
 C519 C 0.97627 0.32790 0.85828
 C520 C 0.97505 0.32740 0.83134
 C521 C 0.98163 0.30483 0.81814
 C522 C 0.98926 0.28280 0.83191
 C523 C 0.99013 0.28323 0.85894
 C524 C 0.98385 0.30597 0.87199
 C525 C 0.96637 0.34999 0.81759
 C526 C 0.95851 0.36918 0.80696
 C527 C 0.94854 0.39178 0.79536
 C528 C 0.93925 0.41103 0.78603
 H529 H 0.97123 0.34523 0.86871
 H530 H 0.98078 0.30424 0.79728
 H531 H 0.99440 0.26558 0.82144
 H532 H 0.98465 0.30670 0.89285
 C533 C -0.00177 1.19282 0.82854
 C534 C 0.02319 1.18193 0.83090
 C535 C 0.04148 1.19351 0.84672
 C536 C 0.03485 1.21567 0.86036
 C537 C 0.00987 1.22664 0.85818
 C538 C -0.00842 1.21507 0.84220
 C539 C 0.03017 1.15854 0.81779
 C540 C 0.03710 1.13894 0.80746
 C541 C 0.04645 1.11610 0.79597
 C542 C 0.05549 1.09684 0.78653
 H543 H -0.01614 1.18396 0.81645
 H544 H 0.06078 1.18518 0.84884
 H545 H 0.04916 1.22375 0.87297
 H546 H -0.02793 1.22304 0.84062
 C547 C 0.54247 0.68833 0.34870
 C548 C 0.52402 0.67625 0.33344
 C549 C 0.49913 0.68720 0.33075
 C550 C 0.49270 0.71002 0.34353
 C551 C 0.51113 0.72209 0.35895
 C552 C 0.53605 0.71106 0.36146
 C553 C 0.53076 0.65233 0.32121
 C554 C 0.53743 0.63230 0.31155
 C555 C 0.54644 0.60900 0.30076
 C556 C 0.55521 0.58938 0.29185
 H557 H 0.56173 0.67996 0.35106
 H558 H 0.48465 0.67797 0.31909
 H559 H 0.47324 0.71804 0.34171
 H560 H 0.55047 0.71957 0.37367
 C561 C 0.51300 0.29873 0.18138
 C562 C 0.51954 0.32196 0.16930
 C563 C 0.51889 0.32405 0.14239
 C564 C 0.51202 0.30301 0.12758
 C565 C 0.50588 0.27959 0.13950
 C566 C 0.50606 0.27759 0.16650
 C567 C 0.52794 0.34353 0.18411
 C568 C 0.53581 0.36194 0.19543
 C569 C 0.54611 0.38370 0.20752
 C570 C 0.55596 0.40225 0.21692
 H571 H 0.51345 0.29690 0.20220
 H572 H 0.52395 0.34189 0.13282
 H573 H 0.51175 0.30494 0.10676
 H574 H 0.50101 0.25982 0.17610
 C575 C 0.01712 0.82915 0.64004
 C576 C 0.02069 0.82779 0.66674
 C577 C 0.01711 0.80445 0.67985
 C578 C 0.01016 0.78252 0.66621
 C579 C 0.00691 0.78385 0.63940
 C580 C 0.01024 0.80731 0.62645
 C581 C 0.02921 0.85018 0.68018
 C582 C 0.03710 0.86921 0.69042
 C583 C 0.04736 0.89158 0.70137
 C584 C 0.05714 0.91057 0.70992
 H585 H 0.01996 0.84705 0.62967
 H586 H 0.01996 0.80315 0.70050
 H587 H 0.00768 0.76458 0.67653
 H588 H 0.00777 0.80866 0.60575
 C589 C 0.99830 0.68335 0.65563
 C590 C 0.97482 0.68345 0.66959
 C591 C 0.95943 0.70578 0.67037
 C592 C 0.96704 0.72762 0.65652
 C593 C 0.98997 0.72728 0.64152
 C594 C 1.00591 0.70518 0.64179
 C595 C 0.96571 0.66025 0.68174
 C596 C 0.95741 0.64074 0.69119
 C597 C 0.94679 0.61796 0.70152
 C598 C 0.93685 0.59871 0.70982
 H599 H 1.01046 0.66623 0.65499
 H600 H 0.94126 0.70613 0.68120
 H601 H 0.95465 0.74447 0.65718
 H602 H 1.02407 0.70449 0.63107
 C603 C 0.45603 0.18970 0.14651
 C604 C 0.47399 0.17715 0.16249
 C605 C 0.49865 0.18770 0.16606
 C606 C 0.50533 0.21060 0.15346
 C607 C 0.48736 0.22315 0.13735
 C608 C 0.46268 0.21249 0.13394
 C609 C 0.46693 0.15319 0.17450
 C610 C 0.45975 0.13319 0.18381
 C611 C 0.44986 0.11001 0.19396
 C612 C 0.44013 0.09059 0.20210
 H613 H 0.43695 0.18164 0.14346
 H614 H 0.51277 0.17809 0.17828
 H615 H 0.52462 0.21833 0.15598
 H616 H 0.44864 0.22134 0.12118
 C617 C 0.32268 0.48871 -0.19775
 C618 C 0.33539 0.47621 -0.17736
 C619 C 0.36191 0.47010 -0.17961
 C620 C 0.37574 0.47667 -0.20198
 C621 C 0.36331 0.48967 -0.22231
 C622 C 0.33656 0.49531 -0.22021
 C623 C 0.32133 0.46894 -0.15430
 C624 C 0.31024 0.46218 -0.13483
 C625 C 0.29793 0.45336 -0.11201
 C626 C 0.28785 0.44495 -0.09265
 H627 H 0.30206 0.49324 -0.19635
 H628 H 0.37187 0.46006 -0.16414
 H629 H 0.39608 0.47118 -0.20350
 H630 H 0.32626 0.50469 -0.23575
 C631 C 0.82503 0.98987 0.30276
 C632 C 0.83773 0.97733 0.32314
 C633 C 0.86432 0.97149 0.32100
 C634 C 0.87822 0.97833 0.29875
 C635 C 0.86578 0.99133 0.27842
 C636 C 0.83897 0.99674 0.28043
 C637 C 0.82359 0.96967 0.34601
 C638 C 0.81241 0.96258 0.36531
 C639 C 0.79997 0.95339 0.38791
 C640 C 0.78977 0.94470 0.40707
 H641 H 0.80436 0.99419 0.30407
 H642 H 0.87428 0.96142 0.33645
 H643 H 0.89860 0.97298 0.29730
 H644 H 0.82867 1.00610 0.26488
 C645 C 0.85191 0.00451 1.17649
 C646 C 0.83580 0.02628 1.17817
 C647 C 0.83355 0.03946 1.20154
 C648 C 0.84769 0.03113 1.22301
 C649 C 0.86422 0.00954 1.22131
 C650 C 0.86607 -0.00379 1.19791
 C651 C 0.82283 0.03583 1.15550
 C652 C 0.81260 0.04410 1.13628
 C653 C 0.80122 0.05421 1.11366
 C654 C 0.79185 0.06337 1.09441
 H655 H 0.85396 -0.00572 1.15845
 H656 H 0.82131 0.05648 1.20300
 H657 H 0.84635 0.04198 1.24070
 H658 H 0.87888 -0.02025 1.19580
 C659 C 0.33123 0.53776 0.70069
 C660 C 0.33345 0.52456 0.67733
 C661 C 0.34943 0.50270 0.67569
 C662 C 0.36353 0.49433 0.69714
 C663 C 0.36174 0.50771 0.72052
 C664 C 0.34532 0.52937 0.72218
 C665 C 0.32061 0.53426 0.65465
 C666 C 0.31047 0.54276 0.63548
 C667 C 0.29919 0.55327 0.61298
 C668 C 0.28991 0.56282 0.59387
 H669 H 0.31911 0.55485 0.70213
 H670 H 0.35146 0.49245 0.65766
 H671 H 0.37628 0.47781 0.69509
 H672 H 0.34403 0.54027 0.73985
 C673 C 0.17755 0.52065 0.30382
 C674 C 0.16465 0.52385 0.32757
 C675 C 0.13788 0.51938 0.32957
 C676 C 0.12399 0.51202 0.30790
 C677 C 0.13673 0.50912 0.28402
 C678 C 0.16363 0.51324 0.28209
 C679 C 0.17840 0.53290 0.34970
 C680 C 0.18909 0.54121 0.36840
 C681 C 0.20071 0.55193 0.39030
 C682 C 0.20995 0.56204 0.40886
 H683 H 0.19825 0.52419 0.30204
 H684 H 0.12767 0.52191 0.34780
 H685 H 0.10323 0.50887 0.30971
 H686 H 0.17380 0.51109 0.26382
 C687 C 0.64047 0.01717 0.82991
 C688 C 0.66761 0.01906 0.82832
 C689 C 0.68061 0.01338 0.80510
 C690 C 0.66643 0.00616 0.78345
 C691 C 0.63917 0.00484 0.78490
 C692 C 0.62634 0.01002 0.80834
 C693 C 0.68166 0.02809 0.85026
 C694 C 0.69243 0.03655 0.86884
 C695 C 0.70396 0.04758 0.89063
 C696 C 0.71299 0.05807 0.90908
 H697 H 0.63020 0.02158 0.84773
 H698 H 0.70162 0.01481 0.80366
 H699 H 0.67674 0.00188 0.76567
 H700 H 0.60532 0.00889 0.80984
 C701 C 0.66861 1.00064 0.69289
 C702 C 0.66621 0.97645 0.68165
 C703 C 0.65058 0.95792 0.69356
 C704 C 0.63711 0.96356 0.71639
 C705 C 0.63929 0.98777 0.72770
 C706 C 0.65512 1.00629 0.71583
 C707 C 0.67897 0.97044 0.65755
 C708 C 0.68879 0.96401 0.63735
 C709 C 0.69939 0.95479 0.61391
 C710 C 0.70778 0.94546 0.59426
 H711 H 0.68055 1.01518 0.68376
 H712 H 0.64844 0.93920 0.68495
 H713 H 0.62461 0.94908 0.72471
 H714 H 0.65669 1.02523 0.72408
 C715 C 0.15372 0.50305 0.18359
 C716 C 0.16753 0.47978 0.18255
 C717 C 0.16785 0.46351 0.20416
 C718 C 0.15370 0.47006 0.22640
 C719 C 0.13887 0.49283 0.22716
 C720 C 0.13958 0.50961 0.20582
 C721 C 0.17987 0.47177 0.15884
 C722 C 0.18942 0.46426 0.13890
 C723 C 0.19978 0.45439 0.11563
 C724 C 0.20804 0.44489 0.09601
 H725 H 0.15342 0.51586 0.16703
 H726 H 0.17852 0.44547 0.20360
 H727 H 0.15395 0.45699 0.24264
 H728 H 0.12899 0.52765 0.20604
 C729 C -0.19688 0.32064 0.48382
 C730 C -0.17514 0.33337 0.47361
 C731 C -0.17537 0.36016 0.47183
 C732 C -0.19708 0.37418 0.48037
 C733 C -0.21874 0.36159 0.49094
 C734 C -0.21867 0.33471 0.49240
 C735 C -0.15261 0.31920 0.46464
 C736 C -0.13346 0.30807 0.45671
 C737 C -0.11085 0.29579 0.44683
 C738 C -0.09154 0.28585 0.43777
 H739 H -0.19698 0.29989 0.48512
 H740 H -0.15874 0.37021 0.46383
 H741 H -0.19691 0.39491 0.47888
 H742 H -0.23531 0.32457 0.50011
 C743 C 0.29667 0.82037 0.97584
 C744 C 0.31859 0.83274 0.96557
 C745 C 0.31863 0.85950 0.96333
 C746 C 0.29707 0.87386 0.97167
 C747 C 0.27530 0.86165 0.98249
 C748 C 0.27502 0.83478 0.98420
 C749 C 0.34119 0.81825 0.95735
 C750 C 0.36049 0.80687 0.95020
 C751 C 0.38337 0.79433 0.94134
 C752 C 0.40298 0.78419 0.93319
 H753 H 0.29637 0.79965 0.97749
 H754 H 0.33541 0.86927 0.95531
 H755 H 0.29752 0.89458 0.97003
 H756 H 0.25831 0.82492 0.99211
 C757 C 1.17385 0.85113 0.00356
 C758 C 1.17674 0.83460 0.02476
 C759 C 1.20108 0.83189 0.03651
 C760 C 1.22240 0.84576 0.02713
 C761 C 1.21957 0.86232 0.00585
 C762 C 1.19512 0.86498 -0.00580
 C763 C 1.15445 0.82120 0.03489
 C764 C 1.13548 0.81050 0.04341
 C765 C 1.11307 0.79849 0.05361
 C766 C 1.09390 0.78864 0.06271
 H767 H 1.15507 0.85356 -0.00553
 H768 H 1.20350 0.81931 0.05307
 H769 H 1.24102 0.84376 0.03660
 H770 H 1.19218 0.87800 -0.02186
 C771 C 0.70633 0.33105 0.54397
 C772 C 0.68215 0.33349 0.53186
 C773 C 0.67946 0.34978 0.51046
 C774 C 0.70074 0.36371 0.50129
 C775 C 0.72503 0.36138 0.51332
 C776 C 0.72768 0.34501 0.53477
 C777 C 0.65975 0.32014 0.54180
 C778 C 0.64060 0.30955 0.55004
 C779 C 0.61791 0.29772 0.55982
 C780 C 0.59848 0.28798 0.56850
 H781 H 0.70859 0.31865 0.56068
 H782 H 0.66080 0.35200 0.50107
 H783 H 0.69790 0.37658 0.48509
 H784 H 0.74617 0.34326 0.54454
 C785 C 0.30704 0.17607 0.51411
 C786 C 0.33013 0.16313 0.52076
 C787 C 0.33138 0.13634 0.51963
 C788 C 0.30963 0.12252 0.51222
 C789 C 0.28632 0.13532 0.50603
 C790 C 0.28521 0.16220 0.50664
 C791 C 0.35226 0.17696 0.52989
 C792 C 0.37096 0.18764 0.53841
 C793 C 0.39286 0.19916 0.54952
 C794 C 0.41138 0.20822 0.56010
 H795 H 0.30585 0.19681 0.51494
 H796 H 0.34910 0.12611 0.52478
 H797 H 0.31089 0.10178 0.51162
 H798 H 0.26756 0.17249 0.50156
 C799 C 0.81186 0.66562 0.00166
 C800 C 0.82285 0.66323 0.02620
 C801 C 0.81155 0.64687 0.04457
 C802 C 0.78949 0.63286 0.03850
 C803 C 0.77831 0.63518 0.01401
 C804 C 0.78969 0.65157 -0.00443
 C805 C 0.84600 0.67694 0.03281
 C806 C 0.86536 0.68763 0.03978
 C807 C 0.88785 0.69927 0.04959
 C808 C 0.90672 0.70848 0.05940
 H809 H 0.82052 0.67812 -0.01277
 H810 H 0.81999 0.64472 0.06355
 H811 H 0.78159 0.61994 0.05291
 H812 H 0.78157 0.65328 -0.02358
 C813 C 0.67532 0.63493 0.98377
 C814 C 0.67580 0.66168 0.98158
 C815 C 0.69866 0.67486 0.98722
 C816 C 0.72107 0.66124 0.99471
 C817 C 0.72073 0.63438 0.99632
 C818 C 0.69763 0.62137 0.99118
 C819 C 0.65309 0.67514 0.97230
 C820 C 0.63387 0.68539 0.96364
 C821 C 0.61138 0.69633 0.95240
 C822 C 0.59239 0.70490 0.94175
 H823 H 0.65778 0.62452 0.97941
 H824 H 0.69924 0.69557 0.98556
 H825 H 0.73856 0.67168 0.99896
 H826 H 0.69697 0.60065 0.99254
 C827 C 0.19420 0.16571 0.49862
 C828 C 0.18365 0.16314 0.47398
 C829 C 0.19598 0.14715 0.45594
 C830 C 0.21856 0.13355 0.46250
 C831 C 0.22920 0.13592 0.48716
 C832 C 0.21688 0.15208 0.50521
 C833 C 0.15981 0.17613 0.46701
 C834 C 0.13987 0.18619 0.45985
 C835 C 0.11672 0.19710 0.44992
 C836 C 0.09731 0.20576 0.44008
 H837 H 0.18473 0.17792 0.51280
 H838 H 0.18790 0.14488 0.43687
 H839 H 0.22721 0.12082 0.44837
 H840 H 0.22459 0.15382 0.52447
 C841 C 0.58692 0.06909 0.74973
 C842 C 0.57111 0.06698 0.72806
 C843 C 0.56860 0.04320 0.71600
 C844 C 0.58229 0.02176 0.72529
 C845 C 0.59853 0.02392 0.74673
 C846 C 0.60062 0.04769 0.75900
 C847 C 0.55915 0.08959 0.71711
 C848 C 0.55008 0.10878 0.70750
 C849 C 0.54045 0.13135 0.69564
 C850 C 0.53297 0.15058 0.68484
 H851 H 0.58924 0.08745 0.75903
 H852 H 0.55662 0.04140 0.69905
 H853 H 0.58075 0.00365 0.71536
 H854 H 0.61339 0.05007 0.77522
 C855 C 1.08223 0.57195 0.25045
 C856 C 1.06668 0.56987 0.22858
 C857 C 1.06467 0.54621 0.21621
 C858 C 1.07880 0.52493 0.22521
 C859 C 1.09508 0.52712 0.24664
 C860 C 1.09638 0.55069 0.25944
 C861 C 1.05485 0.59247 0.21745
 C862 C 1.04598 0.61156 0.20747
 C863 C 1.03665 0.63395 0.19501
 C864 C 1.02943 0.65297 0.18369
 H865 H 1.08413 0.59022 0.26002
 H866 H 1.05294 0.54444 0.19908
 H867 H 1.07794 0.50707 0.21474
 H868 H 1.10905 0.55311 0.27574
 C869 C 0.90356 0.92541 0.22980
 C870 C 0.93015 0.92618 0.22365
 C871 C 0.94377 0.94914 0.22624
 C872 C 0.93068 0.97136 0.23456
 C873 C 0.90390 0.97068 0.24017
 C874 C 0.89051 0.94754 0.23802
 C875 C 0.94273 0.90365 0.21327
 C876 C 0.95199 0.88448 0.20390
 C877 C 0.96142 0.86182 0.19217
 C878 C 0.96837 0.84243 0.18149
 H879 H 0.89280 0.90781 0.22773
 H880 H 0.96433 0.94998 0.22138
 H881 H 0.94130 0.98909 0.23598
 H882 H 0.86981 0.94672 0.24220
 C883 C 0.40186 0.42361 0.72965
 C884 C 0.42861 0.42445 0.72426
 C885 C 0.44200 0.44753 0.72694
 C886 C 0.42856 0.46976 0.73465
 C887 C 0.40166 0.46898 0.73961
 C888 C 0.38845 0.44576 0.73729
 C889 C 0.44168 0.40186 0.71465
 C890 C 0.45147 0.38264 0.70590
 C891 C 0.46158 0.35995 0.69479
 C892 C 0.46910 0.34053 0.68452
 H893 H 0.39127 0.40591 0.72752
 H894 H 0.46268 0.44843 0.72266
 H895 H 0.43906 0.48754 0.73623
 H896 H 0.36767 0.44486 0.74101
 C897 C 0.43454 0.54492 0.78621
 C898 C 0.43334 0.56788 0.77209
 C899 C 0.41880 0.56918 0.74943
 C900 C 0.40468 0.54794 0.74151
 C901 C 0.40468 0.52528 0.75637
 C902 C 0.42041 0.52369 0.77831
 C903 C 0.44521 0.59056 0.78202
 C904 C 0.45420 0.60960 0.79126
 C905 C 0.46368 0.63180 0.80317
 C906 C 0.47100 0.65055 0.81430
 H907 H 0.44581 0.54365 0.80374
 H908 H 0.41782 0.58682 0.73827
 H909 H 0.39343 0.54957 0.72407
 H910 H 0.42134 0.50634 0.78976
 C911 C -0.06282 0.04641 0.28714
 C912 C -0.06431 0.06956 0.27335
 C913 C -0.07899 0.07106 0.25080
 C914 C -0.09303 0.04983 0.24269
 C915 C -0.09278 0.02698 0.25725
 C916 C -0.07687 0.02519 0.27904
 C917 C -0.05254 0.09221 0.28351
 C918 C -0.04365 0.11124 0.29288
 C919 C -0.03423 0.13345 0.30485
 C920 C -0.02691 0.15223 0.31594
 H921 H -0.05143 0.04498 0.30458
 H922 H -0.08019 0.08884 0.23989
 H923 H -0.10443 0.05163 0.22537
 H924 H -0.07573 0.00769 0.29025
 C925 C 0.10023 0.42876 0.28622
 C926 C 0.07354 0.42618 0.28199
 C927 C 0.05964 0.44598 0.26970
 C928 C 0.07250 0.46822 0.26156
 C929 C 0.09939 0.47067 0.26545
 C930 C 0.11304 0.45090 0.27812
 C931 C 0.06069 0.40338 0.29102
 C932 C 0.05116 0.38395 0.29935
 C933 C 0.04143 0.36095 0.31002
 C934 C 0.03429 0.34123 0.31994
 H935 H 0.11113 0.41374 0.29603
 H936 H 0.03890 0.44431 0.26659
 H937 H 0.06134 0.48339 0.25245
 H938 H 0.13355 0.45271 0.28224
 C939 C 0.55915 0.94633 0.77516
 C940 C 0.57278 0.92465 0.78415
 C941 C 0.60001 0.92480 0.78493
 C942 C 0.61360 0.94640 0.77668
 C943 C 0.60013 0.96805 0.76739
 C944 C 0.57280 0.96804 0.76684
 C945 C 0.55923 0.90223 0.79308
 C946 C 0.54922 0.88294 0.80114
 C947 C 0.53906 0.85995 0.81137
 C948 C 0.53167 0.84013 0.82086
 H949 H 0.53806 0.94648 0.77466
 H950 H 0.61075 0.90820 0.79199
 H951 H 0.63468 0.94618 0.77743
 H952 H 0.56202 0.98468 0.76010
 C953 C 0.72019 0.59544 0.07678
 C954 C 0.72085 0.56862 0.07692
 C955 C 0.73074 0.55541 0.05541
 C956 C 0.73988 0.56907 0.03382
 C957 C 0.73922 0.59598 0.03373
 C958 C 0.72924 0.60904 0.05528
 C959 C 0.71049 0.55504 0.09894
 C960 C 0.70107 0.54485 0.11773
 C961 C 0.68915 0.53419 0.13994
 C962 C 0.67819 0.52605 0.15893
 H963 H 0.71243 0.60586 0.09322
 H964 H 0.73114 0.53464 0.05525
 H965 H 0.74714 0.55863 0.01724
 H966 H 0.72836 0.62980 0.05543
 C967 C 0.24777 1.08571 0.57039
 C968 C 0.22572 1.07045 0.56785
 C969 C 0.21438 1.06764 0.54359
 C970 C 0.22476 1.08047 0.52208
 C971 C 0.24657 1.09616 0.52466
 C972 C 0.25812 1.09855 0.54893
 C973 C 0.21374 1.05926 0.59045
 C974 C 0.20337 1.05076 0.60961
 C975 C 0.19074 1.04167 0.63216
 C976 C 0.17942 1.03453 0.65136
 H977 H 0.25654 1.08824 0.58910
 H978 H 0.19716 1.05607 0.54143
 H979 H 0.21535 1.07872 0.50358
 H980 H 0.27460 1.11091 0.55162
 C981 C 0.22785 0.94308 0.94627
 C982 C 0.22102 0.93059 0.92351
 C983 C 0.22310 0.90386 0.92210
 C984 C 0.23150 0.88962 0.94339
 C985 C 0.23778 0.90192 0.96641
 C986 C 0.23634 0.92877 0.96766
 C987 C 0.21080 0.94467 0.90179
 C988 C 0.20144 0.95507 0.88315
 C989 C 0.18959 0.96561 0.86095
 C990 C 0.17870 0.97322 0.84183
 H991 H 0.22632 0.96377 0.94758
 H992 H 0.21786 0.89398 0.90462
 H993 H 0.23268 0.86892 0.94203
 H994 H 0.24143 0.93867 0.98512
 C995 C 0.72869 0.40146 0.42935
 C996 C 0.72513 0.42807 0.43054
 C997 C 0.73118 0.44113 0.45320
 C998 C 0.74026 0.42747 0.47476
 C999 C 0.74305 0.40069 0.47379
 C1000 C 0.73766 0.38787 0.45082
 C1001 C 0.71394 0.44134 0.40879
 C1002 C 0.70376 0.45100 0.39020
 C1003 C 0.69098 0.46066 0.36813
 C1004 C 0.67938 0.46755 0.34916
 H1005 H 0.72405 0.39115 0.41196
 H1006 H 0.72849 0.46173 0.45432
 H1007 H 0.74462 0.43778 0.49218
 H1008 H 0.73984 0.36722 0.44969
 C1009 C 0.79471 0.41215 0.56229
 C1010 C 0.77652 0.42833 0.57445
 C1011 C 0.75135 0.43090 0.56450
 C1012 C 0.74443 0.41718 0.54252
 C1013 C 0.76268 0.40095 0.53030
 C1014 C 0.78782 0.39847 0.54043
 C1015 C 0.78400 0.44157 0.59744
 C1016 C 0.79177 0.45179 0.61662
 C1017 C 0.80255 0.46277 0.63884
 C1018 C 0.81316 0.47136 0.65746
 H1019 H 0.81417 0.40986 0.56992
 H1020 H 0.73705 0.44325 0.57385
 H1021 H 0.72480 0.41899 0.53523
 H1022 H 0.80213 0.38568 0.53188
 C1023 C 0.24871 -0.06961 0.05752
 C1024 C 0.27396 -0.07322 0.06702
 C1025 C 0.29140 -0.08970 0.05425
 C1026 C 0.28370 -0.10270 0.03226
 C1027 C 0.25848 -0.09923 0.02258
 C1028 C 0.24098 -0.08265 0.03538
 C1029 C 0.28226 -0.06080 0.09018
 C1030 C 0.29075 -0.05139 0.10948
 C1031 C 0.30235 -0.04142 0.13177
 C1032 C 0.31360 -0.03371 0.15042
 H1033 H 0.23499 -0.05701 0.06733
 H1034 H 0.31091 -0.09279 0.06153
 H1035 H 0.29745 -0.11579 0.02328
 H1036 H 0.22129 -0.08007 0.02844
 C1037 C 0.28836 0.09569 0.42589
 C1038 C 0.28690 0.06892 0.42574
 C1039 C 0.27688 0.05587 0.44735
 C1040 C 0.26817 0.06966 0.46896
 C1041 C 0.26934 0.09654 0.46892
 C1042 C 0.27971 0.10940 0.44738
 C1043 C 0.29599 0.05527 0.40328
 C1044 C 0.30414 0.04525 0.38389
 C1045 C 0.31438 0.03512 0.36068
 C1046 C 0.32381 0.02781 0.34061
 H1047 H 0.29618 0.10598 0.40935
 H1048 H 0.27581 0.03514 0.44749
 H1049 H 0.26056 0.05934 0.48552
 H1050 H 0.28093 0.13013 0.44711
 C1051 C 0.79228 0.56557 0.95839
 C1052 C 0.77999 0.56826 0.93449
 C1053 C 0.75788 0.58403 0.93228
 C1054 C 0.74834 0.59743 0.95366
 C1055 C 0.76075 0.59510 0.97758
 C1056 C 0.78269 0.57897 0.97986
 C1057 C 0.79099 0.55651 0.91175
 C1058 C 0.80026 0.54781 0.89217
 C1059 C 0.81133 0.53893 0.86879
 C1060 C 0.82116 0.53243 0.84861
 H1061 H 0.80958 0.55362 0.96027
 H1062 H 0.74840 0.58650 0.91383
 H1063 H 0.73175 0.61012 0.95115
 H1064 H 0.79272 0.57721 0.99807
 C1065 C 0.04663 0.71652 0.56871
 C1066 C 0.07054 0.72884 0.57134
 C1067 C 0.07231 0.75017 0.58739
 C1068 C 0.05046 0.75879 0.60127
 C1069 C 0.02658 0.74616 0.59919
 C1070 C 0.02476 0.72515 0.58258
 C1071 C 0.09365 0.71834 0.55929
 C1072 C 0.11312 0.70887 0.55006
 C1073 C 0.13589 0.69691 0.54018
 C1074 C 0.15516 0.68587 0.53244
 H1075 H 0.04509 0.69981 0.55656
 H1076 H 0.09077 0.75969 0.58978
 H1077 H 0.05261 0.77476 0.61421
 H1078 H 0.00666 0.71483 0.58107
 C1079 C 0.54523 0.21265 1.06785
 C1080 C 0.56954 0.22398 1.07133
 C1081 C 0.57179 0.24471 1.08810
 C1082 C 0.54997 0.25381 1.10170
 C1083 C 0.52563 0.24232 1.09855
 C1084 C 0.52337 0.22177 1.08145
 C1085 C 0.59249 0.21329 1.05915
 C1086 C 0.61194 0.20390 1.04980
 C1087 C 0.63480 0.19226 1.03974
 C1088 C 0.65425 0.18163 1.03185
 H1089 H 0.54330 0.19643 1.05511
 H1090 H 0.59054 0.25344 1.09116
 H1091 H 0.55242 0.26931 1.11514
 H1092 H 0.50482 0.21244 1.07907
 C1093 C 0.92690 0.24581 0.91143
 C1094 C 0.93022 0.22421 0.92729
 C1095 C 0.95486 0.21258 0.92934
 C1096 C 0.97599 0.22232 0.91524
 C1097 C 0.97264 0.24376 0.89906
 C1098 C 0.94798 0.25552 0.89732
 C1099 C 0.90792 0.21299 0.93989
 C1100 C 0.88888 0.20330 0.94943
 C1101 C 0.86627 0.19151 0.95944
 C1102 C 0.84684 0.18093 0.96697
 H1103 H 0.90786 0.25478 0.90945
 H1104 H 0.95761 0.19569 0.94135
 H1105 H 0.99481 0.21279 0.91653
 H1106 H 0.94469 0.27173 0.88461
 C1107 C 0.42823 0.74350 0.41115
 C1108 C 0.43140 0.72242 0.42775
 C1109 C 0.45600 0.71083 0.43034
 C1110 C 0.47723 0.72003 0.41602
 C1111 C 0.47403 0.74091 0.39907
 C1112 C 0.44941 0.75267 0.39683
 C1113 C 0.40898 0.71163 0.44050
 C1114 C 0.38980 0.70227 0.45013
 C1115 C 0.36701 0.69087 0.46017
 C1116 C 0.34739 0.68062 0.46769
 H1117 H 0.40923 0.75243 0.40876
 H1118 H 0.45862 0.69433 0.44292
 H1119 H 0.49601 0.71050 0.41772
 H1120 H 0.44623 0.76844 0.38354
 C1121 C 0.55090 0.77279 0.43677
 C1122 C 0.57261 0.78186 0.42300
 C1123 C 0.57289 0.78124 0.39602
 C1124 C 0.55158 0.77168 0.38283
 C1125 C 0.52984 0.76249 0.39648
 C1126 C 0.52953 0.76317 0.42353
 C1127 C 0.59437 0.79261 0.43622
 C1128 C 0.61283 0.80220 0.44636
 C1129 C 0.63459 0.81416 0.45723
 C1130 C 0.65317 0.82504 0.46574
 H1131 H 0.55040 0.77338 0.45766
 H1132 H 0.58948 0.78836 0.38516
 H1133 H 0.55203 0.77154 0.36193
 H1134 H 0.51279 0.75657 0.43443
 C1135 C 0.07139 0.28443 -0.10278
 C1136 C 0.07133 0.28386 -0.07580
 C1137 C 0.04973 0.27420 -0.06228
 C1138 C 0.02826 0.26515 -0.07578
 C1139 C 0.02838 0.26564 -0.10285
 C1140 C 0.05000 0.27545 -0.11623
 C1141 C 0.09322 0.29400 -0.06230
 C1142 C 0.11182 0.30318 -0.05201
 C1143 C 0.13375 0.31475 -0.04106
 C1144 C 0.15245 0.32542 -0.03254
 H1145 H 0.08790 0.29202 -0.11344
 H1146 H 0.04940 0.27388 -0.04138
 H1147 H 0.01162 0.25805 -0.06506
 H1148 H 0.05030 0.27619 -0.13713
 C1149 C 0.44885 0.27463 0.05844
 C1150 C 0.42664 0.28364 0.07166
 C1151 C 0.42588 0.28306 0.09864
 C1152 C 0.44712 0.27351 0.11240
 C1153 C 0.46932 0.26427 0.09932
 C1154 C 0.47020 0.26501 0.07226
 C1155 C 0.40466 0.29409 0.05798
 C1156 C 0.38569 0.30342 0.04791
 C1157 C 0.36303 0.31506 0.03776
 C1158 C 0.34344 0.32567 0.03047
 H1159 H 0.44971 0.27518 0.03755
 H1160 H 0.40888 0.29012 0.10908
 H1161 H 0.44622 0.27330 0.13329
 H1162 H 0.48729 0.25835 0.06180
 C1163 C 0.92687 0.78644 0.60049
 C1164 C 0.92556 0.78277 0.57385
 C1165 C 0.94618 0.77046 0.56085
 C1166 C 0.96802 0.76183 0.57453
 C1167 C 0.96925 0.76524 0.60135
 C1168 C 0.94861 0.77786 0.61411
 C1169 C 0.90332 0.79262 0.56013
 C1170 C 0.88433 0.80172 0.54991
 C1171 C 0.86180 0.81335 0.53945
 C1172 C 0.84242 0.82410 0.53181
 H1173 H 0.91122 0.79630 0.61071
 H1174 H 0.94552 0.76781 0.54016
 H1175 H 0.98390 0.75283 0.56403
 H1176 H 0.94952 0.78175 0.63455
   
