data_POSCAR
  _audit_creation_date              2014-09-24
  _audit_creation_method            'ToBaCCo'
  _symmetry_space_group_name_H-M    'P1'
  _symmetry_Int_Tables_number       1
  _symmetry_cell_setting            triclinic
  loop_
  _symmetry_equiv_pos_as_xyz
 x,y,z
_cell_length_a 24.8009
_cell_length_b 25.1384
_cell_length_c 25.5898
_cell_angle_alpha 89.971700
_cell_angle_beta 90.150200
_cell_angle_gamma 90.144800
loop_
  _atom_site_label
  _atom_site_type_symbol
  _atom_site_fract_x
  _atom_site_fract_y
  _atom_site_fract_z
C1 C 0.47201 0.25480 0.02234
 C2 C 0.47292 0.25576 -0.03065
 C3 C 0.42104 0.26690 -0.04719
 N4 N 0.38811 0.27382 -0.00558
 C5 C 0.41972 0.26567 0.03706
 C6 C 0.40524 0.26794 -0.10042
 C7 C 0.36377 0.30203 -0.11830
 C8 C 0.33955 0.30109 -0.16727
 C9 C 0.30072 0.34051 -0.16734
 C10 C 0.30243 0.36419 -0.11839
 N11 N 0.34131 0.34094 -0.08926
 C12 C 0.26874 0.40564 -0.10056
 C13 C 0.26804 0.42102 -0.04726
 C14 C 0.25733 0.47222 -0.03075
 C15 C 0.25738 0.47148 0.02224
 C16 C 0.26826 0.41985 0.03709
 N17 N 0.27552 0.38854 -0.00555
 C18 C 0.26760 0.40238 0.08958
 C19 C 0.29712 0.35771 0.10610
 C20 C 0.29396 0.33274 0.15435
 C21 C 0.33256 0.29297 0.15427
 C22 C 0.35776 0.29530 0.10600
 N23 N 0.33616 0.33491 0.07739
 C24 C 0.40185 0.26458 0.08941
 H25 H 0.50624 0.24818 0.04726
 H26 H 0.50807 0.25020 -0.05442
 H27 H 0.35117 0.34935 0.04217
 H28 H 0.34789 0.27412 -0.19916
 H29 H 0.27356 0.34966 -0.19925
 H30 H 0.25172 0.50688 -0.05453
 H31 H 0.25139 0.50536 0.04709
 H32 H 0.34132 0.26596 0.18611
 H33 H 0.35418 0.35317 -0.05241
 H34 H 0.26712 0.34238 0.18624
 C35 C 0.74036 0.52499 0.02463
 C36 C 0.73932 0.52533 -0.02846
 C37 C 0.72560 0.57627 -0.04359
 N38 N 0.71759 0.60713 -0.00097
 C39 C 0.72733 0.57576 0.04101
 C40 C 0.72393 0.59332 -0.09630
 C41 C 0.69218 0.63668 -0.11356
 C42 C 0.68875 0.65524 -0.16451
 C43 C 0.65277 0.69705 -0.16426
 C44 C 0.63590 0.70350 -0.11295
 N45 N 0.65950 0.66600 -0.08280
 C46 C 0.60638 0.74763 -0.09381
 C47 C 0.61350 0.76500 -0.04144
 C48 C 0.61689 0.81765 -0.02548
 C49 C 0.61773 0.81725 0.02804
 C50 C 0.61501 0.76442 0.04320
 N51 N 0.61273 0.73256 0.00068
 C52 C 0.60905 0.74627 0.09526
 C53 C 0.63813 0.70127 0.11328
 C54 C 0.64380 0.68475 0.16478
 C55 C 0.67941 0.64253 0.16467
 C56 C 0.69363 0.63359 0.11302
 N57 N 0.66938 0.67041 0.08260
 C58 C 0.72604 0.59130 0.09435
 H59 H 0.74808 0.49066 0.04847
 H60 H 0.74641 0.49148 -0.05310
 H61 H 0.67611 0.67636 0.04318
 H62 H 0.71066 0.64124 -0.19828
 H63 H 0.64370 0.72223 -0.19741
 H64 H 0.61953 0.85279 -0.04980
 H65 H 0.62098 0.85195 0.05288
 H66 H 0.69231 0.62083 0.19893
 H67 H 0.65159 0.65930 -0.04363
 H68 H 0.62654 0.70226 0.19944
 C69 C 0.61818 0.17573 0.96915
 C70 C 0.61774 0.17557 1.02280
 C71 C 0.61984 0.22829 1.03850
 N72 N 0.62227 0.26052 0.99615
 C73 C 0.62034 0.22858 0.95361
 C74 C 0.61219 0.24772 1.09002
 C75 C 0.63876 0.29541 1.10480
 C76 C 0.62841 0.32750 1.14772
 C77 C 0.66721 0.36702 1.14797
 C78 C 0.70048 0.35803 1.10524
 N79 N 0.68241 0.31457 1.07946
 C80 C 0.74846 0.38542 1.09098
 C81 C 0.76828 0.37844 1.03919
 C82 C 0.82166 0.38143 1.02330
 C83 C 0.82128 0.38205 0.96962
 C84 C 0.76773 0.37926 0.95416
 N85 N 0.73553 0.37619 0.99676
 C86 C 0.74756 0.38647 0.90254
 C87 C 0.70035 0.35866 0.88749
 C88 C 0.66836 0.36688 0.84364
 C89 C 0.62968 0.32723 0.84347
 C90 C 0.63907 0.29587 0.88725
 N91 N 0.68203 0.31551 0.91340
 C92 C 0.61257 0.24828 0.90206
 H93 H 0.61732 0.14071 0.94461
 H94 H 0.61652 0.14044 1.04721
 H95 H 0.70114 0.29728 0.94505
 H96 H 0.59650 0.32422 1.17610
 H97 H 0.66913 0.39851 1.17655
 H98 H 0.85739 0.38283 1.04762
 H99 H 0.85663 0.38388 0.94501
 H100 H 0.59878 0.32311 0.81401
 H101 H 0.70206 0.29587 1.04849
 H102 H 0.67148 0.39763 0.81439
 C103 C 0.17888 0.61496 1.02522
 C104 C 0.17919 0.61493 0.97155
 C105 C 0.23275 0.61728 0.95641
 N106 N 0.26503 0.61934 0.99914
 C107 C 0.23234 0.61698 1.04139
 C108 C 0.25290 0.61062 0.90491
 C109 C 0.30081 0.63767 0.89065
 C110 C 0.33307 0.62941 0.84710
 C111 C 0.37229 0.66855 0.84762
 C112 C 0.36300 0.69960 0.89149
 N113 N 0.31962 0.68029 0.91707
 C114 C 0.38978 0.74686 0.90689
 C115 C 0.38163 0.76586 0.95820
 C116 C 0.38131 0.81858 0.97399
 C117 C 0.38062 0.81810 1.02759
 C118 C 0.38095 0.76505 1.04273
 N119 N 0.38048 0.73330 1.00019
 C120 C 0.39000 0.74499 1.09380
 C121 C 0.36325 0.69713 1.10824
 C122 C 0.37327 0.66437 1.15089
 C123 C 0.33383 0.62535 1.15070
 C124 C 0.30063 0.63520 1.10791
 N125 N 0.31927 0.67870 1.08266
 C126 C 0.25223 0.60865 1.09307
 H127 H 0.14315 0.61373 1.04937
 H128 H 0.14381 0.61384 0.94675
 H129 H 0.29977 0.69799 1.05185
 H130 H 0.32992 0.59895 0.81758
 H131 H 0.40350 0.67256 0.81858
 H132 H 0.38113 0.85379 0.94966
 H133 H 0.38012 0.85293 1.05242
 H134 H 0.33132 0.59367 1.17906
 H135 H 0.30050 0.69852 0.94860
 H136 H 0.40533 0.66704 1.17938
 C137 C 0.02722 0.37823 0.18500
 C138 C -0.02794 0.37973 0.18596
 C139 C -0.04284 0.38415 0.23800
 N140 N 0.00151 0.38494 0.26883
 C141 C 0.04441 0.38166 0.23643
 C142 C -0.09634 0.39167 0.25601
 C143 C -0.11559 0.36285 0.30013
 C144 C -0.16849 0.34619 0.30732
 C145 C -0.16836 0.31083 0.34863
 C146 C -0.11555 0.30744 0.36643
 N147 N -0.08412 0.33972 0.33691
 C148 C -0.09654 0.27427 0.40759
 C149 C -0.04138 0.27326 0.42270
 C150 C -0.02432 0.26300 0.47321
 C151 C 0.03044 0.26248 0.47232
 C152 C 0.04593 0.27252 0.42142
 N153 N 0.00176 0.27984 0.39093
 C154 C 0.10064 0.27271 0.40505
 C155 C 0.11945 0.30403 0.36285
 C156 C 0.17273 0.31698 0.35237
 C157 C 0.17219 0.35216 0.31072
 C158 C 0.11860 0.35871 0.29625
 N159 N 0.08739 0.32863 0.32777
 C160 C 0.09881 0.38744 0.25258
 H161 H 0.05185 0.37431 0.15038
 H162 H -0.05411 0.37694 0.15216
 H163 H 0.04627 0.32326 0.32373
 H164 H -0.20301 0.35454 0.28276
 H165 H -0.20311 0.28882 0.36217
 H166 H -0.04896 0.25787 0.50746
 H167 H 0.05610 0.25717 0.50577
 H168 H 0.20762 0.36863 0.29224
 H169 H -0.04337 0.34703 0.34248
 H170 H 0.20840 0.30353 0.37277
 C171 C -0.03089 0.81759 0.61573
 C172 C 0.02445 0.81707 0.61477
 C173 C 0.03981 0.76415 0.61655
 N174 N -0.00429 0.73242 0.61916
 C175 C -0.04769 0.76489 0.61769
 C176 C 0.09262 0.74410 0.60904
 C177 C 0.10769 0.69730 0.63605
 C178 C 0.15198 0.66490 0.62727
 C179 C 0.15185 0.62667 0.66614
 C180 C 0.10750 0.63685 0.69762
 N181 N 0.08123 0.67968 0.67872
 C182 C 0.09232 0.61114 0.74458
 C183 C 0.03945 0.61942 0.76402
 C184 C 0.02419 0.61920 0.81604
 C185 C -0.03116 0.62049 0.81663
 C186 C -0.04817 0.62091 0.76487
 N187 N -0.00476 0.62125 0.73287
 C188 C -0.10180 0.61234 0.74634
 C189 C -0.11774 0.63870 0.69956
 C190 C -0.16305 0.62958 0.66875
 C191 C -0.16280 0.66767 0.62959
 C192 C -0.11737 0.69922 0.63742
 N193 N -0.09076 0.68105 0.67999
 C194 C -0.10110 0.74566 0.60966
 H195 H -0.05581 0.85285 0.61472
 H196 H 0.05024 0.85181 0.61320
 H197 H -0.05778 0.69968 0.69766
 H198 H 0.18151 0.66736 0.59647
 H199 H 0.18128 0.59532 0.66957
 H200 H 0.05008 0.61849 0.85014
 H201 H -0.05595 0.62072 0.85137
 H202 H -0.19299 0.67064 0.59929
 H203 H 0.04929 0.69908 0.69707
 H204 H -0.19345 0.59910 0.67293
 C205 C 0.97041 0.73579 0.47229
 C206 C 1.02511 0.73621 0.47244
 C207 C 1.04164 0.72534 0.42202
 N208 N 0.99802 0.71734 0.39089
 C209 C 0.95424 0.72448 0.42180
 C210 C 1.09684 0.72371 0.40693
 C211 C 1.11551 0.68902 0.36696
 C212 C 1.16844 0.68338 0.35033
 C213 C 1.16795 0.64695 0.30980
 C214 C 1.11461 0.63210 0.30196
 N215 N 1.08351 0.65708 0.33759
 C216 C 1.09468 0.60273 0.25857
 C217 C 1.04084 0.60917 0.24116
 C218 C 1.02547 0.61429 0.18929
 C219 C 0.97031 0.61528 0.18854
 C220 C 0.95359 0.61065 0.23996
 N221 N 0.99682 0.60725 0.27220
 C222 C 0.89929 0.60467 0.25620
 C223 C 0.88011 0.63331 0.30009
 C224 C 0.82682 0.63910 0.31548
 C225 C 0.82667 0.67517 0.35640
 C226 C 0.87994 0.68946 0.36558
 N227 N 0.91156 0.66456 0.33051
 C228 C 0.89919 0.72259 0.40640
 H229 H 0.94532 0.74090 0.50611
 H230 H 1.04998 0.74145 0.50640
 H231 H 0.95242 0.67086 0.32550
 H232 H 1.20369 0.70441 0.36435
 H233 H 1.20249 0.63643 0.28630
 H234 H 1.05130 0.61834 0.15550
 H235 H 0.94541 0.62001 0.15406
 H236 H 0.79124 0.68843 0.37712
 H237 H 1.04244 0.65147 0.34212
 H238 H 0.79130 0.62150 0.29801
 C239 C 1.02883 0.18338 0.61428
 C240 C 0.97362 0.18231 0.61508
 C241 C 0.95665 0.23476 0.61601
 N242 N 0.99987 0.26778 0.61611
 C243 C 1.04410 0.23647 0.61471
 C244 C 0.90230 0.25178 0.61118
 C245 C 0.88292 0.29503 0.64126
 C246 C 0.82942 0.30947 0.64809
 C247 C 0.82897 0.35066 0.68391
 C248 C 0.88228 0.36104 0.69709
 N249 N 0.91423 0.32606 0.67198
 C250 C 0.90119 0.40348 0.72872
 C251 C 0.95587 0.41985 0.72971
 C252 C 0.97153 0.47183 0.73891
 C253 C 1.02619 0.47244 0.73868
 C254 C 1.04298 0.42089 0.72958
 N255 N 0.99975 0.38849 0.72336
 C256 C 1.09804 0.40572 0.72855
 C257 C 1.11713 0.36477 0.69528
 C258 C 1.17010 0.34771 0.69084
 C259 C 1.17015 0.30648 0.65510
 C260 C 1.11706 0.29876 0.63953
 N261 N 1.08555 0.33503 0.66347
 C262 C 1.09788 0.25519 0.60958
 H263 H 1.05471 0.14879 0.61467
 H264 H 0.94892 0.14678 0.61599
 H265 H 1.04473 0.34041 0.65683
 H266 H 0.79393 0.29121 0.63123
 H267 H 0.79325 0.37079 0.69758
 H268 H 0.94611 0.50621 0.74326
 H269 H 1.05090 0.50729 0.74247
 H270 H 1.20479 0.28248 0.64523
 H271 H 0.95533 0.32206 0.67709
 H272 H 1.20498 0.36202 0.71208
 C273 C 0.25523 0.02534 0.46936
 C274 C 0.25205 -0.02848 0.46867
 C275 C 0.26451 -0.04492 0.41855
 N276 N 0.27607 -0.00178 0.38858
 C277 C 0.26936 0.04144 0.41974
 C278 C 0.26735 -0.09975 0.40395
 C279 C 0.30363 -0.11815 0.36494
 C280 C 0.32035 -0.17023 0.35734
 C281 C 0.35616 -0.16979 0.31611
 C282 C 0.35977 -0.11754 0.29859
 N283 N 0.32705 -0.08702 0.32829
 C284 C 0.38712 -0.09895 0.25311
 C285 C 0.37902 -0.04595 0.23573
 C286 C 0.37377 -0.03011 0.18406
 C287 C 0.37506 0.02440 0.18395
 C288 C 0.38092 0.04022 0.23554
 N289 N 0.38318 -0.00285 0.26713
 C290 C 0.38833 0.09346 0.25239
 C291 C 0.36023 0.11310 0.29633
 C292 C 0.34684 0.16589 0.30516
 C293 C 0.31149 0.16634 0.34690
 C294 C 0.30521 0.11393 0.36285
 N295 N 0.33546 0.08226 0.33221
 C296 C 0.27304 0.09588 0.40482
 H297 H 0.25011 0.04974 0.50330
 H298 H 0.24457 -0.05284 0.50232
 H299 H 0.34047 0.04167 0.33657
 H300 H 0.30843 -0.20546 0.37857
 H301 H 0.37428 -0.20504 0.29978
 H302 H 0.36926 -0.05525 0.14999
 H303 H 0.37109 0.04947 0.14978
 H304 H 0.29204 0.20122 0.36278
 H305 H 0.31781 -0.04761 0.32085
 H306 H 0.35797 0.20012 0.28190
 C307 C 0.61819 0.02869 0.81013
 C308 C 0.61944 -0.02582 0.81166
 C309 C 0.61801 -0.04304 0.76019
 N310 N 0.61690 -0.00103 0.72737
 C311 C 0.61612 0.04280 0.75779
 C312 C 0.60946 -0.09570 0.74283
 C313 C 0.63451 -0.11216 0.69583
 C314 C 0.62431 -0.15754 0.66652
 C315 C 0.66162 -0.15812 0.62639
 C316 C 0.69379 -0.11309 0.63232
 N317 N 0.67662 -0.08584 0.67457
 C318 C 0.74046 -0.09801 0.60364
 C319 C 0.76005 -0.04529 0.60965
 C320 C 0.81349 -0.02892 0.60762
 C321 C 0.81299 0.02561 0.60633
 C322 C 0.75931 0.04082 0.60769
 N323 N 0.72711 -0.00253 0.61067
 C324 C 0.73905 0.09288 0.60022
 C325 C 0.69194 0.10819 0.62757
 C326 C 0.65953 0.15240 0.61925
 C327 C 0.62144 0.15280 0.65875
 C328 C 0.63169 0.10885 0.69009
 N329 N 0.67442 0.08234 0.67053
 C330 C 0.60632 0.09413 0.73753
 H331 H 0.61883 0.05480 0.84374
 H332 H 0.62116 -0.04986 0.84671
 H333 H 0.69415 0.05066 0.68865
 H334 H 0.59370 -0.18750 0.67243
 H335 H 0.66366 -0.18862 0.59681
 H336 H 0.84923 -0.05353 0.60743
 H337 H 0.84831 0.05093 0.60522
 H338 H 0.59028 0.18237 0.66296
 H339 H 0.69606 -0.05303 0.69112
 H340 H 0.66201 0.18155 0.58837
 C341 C 0.18163 0.97137 0.61014
 C342 C 0.18185 1.02598 0.61014
 C343 C 0.23539 1.04187 0.61346
 N344 N 0.26765 0.99860 0.61654
 C345 C 0.23500 0.95544 0.61364
 C346 C 0.25585 1.09432 0.60632
 C347 C 0.30344 1.10908 0.63377
 C348 C 0.33754 1.15212 0.62476
 C349 C 0.37522 1.15260 0.66466
 C350 C 0.36334 1.10973 0.69692
 N351 N 0.31995 1.08379 0.67744
 C352 C 0.38793 1.09524 0.74496
 C353 C 0.37794 1.04318 0.76411
 C354 C 0.37599 1.02730 0.81604
 C355 C 0.37651 0.97270 0.81601
 C356 C 0.37847 0.95708 0.76412
 N357 N 0.37846 1.00011 0.73254
 C358 C 0.38809 0.90508 0.74540
 C359 C 0.36212 0.88879 0.69863
 C360 C 0.37171 0.84360 0.66895
 C361 C 0.33342 0.84292 0.62947
 C362 C 0.30155 0.88779 0.63605
 N363 N 0.31948 0.91493 0.67817
 C364 C 0.25476 0.90281 0.60770
 H365 H 0.14600 0.94652 0.60842
 H366 H 0.14641 1.05093 0.60817
 H367 H 0.30028 0.94751 0.69513
 H368 H 0.33686 1.18036 0.59298
 H369 H 0.40740 1.18136 0.66816
 H370 H 0.37471 1.05226 0.85045
 H371 H 0.37570 0.94749 0.85030
 H372 H 0.33046 0.81248 0.59989
 H373 H 0.29924 1.05287 0.69592
 H374 H 0.40244 0.81377 0.67433
 C375 C 0.81386 1.02690 0.38439
 C376 C 0.81330 0.97237 0.38562
 C377 C 0.75961 0.95685 0.38605
 N378 N 0.72738 1.00028 0.38421
 C379 C 0.76050 1.04324 0.38407
 C380 C 0.73988 0.90414 0.39297
 C381 C 0.69259 0.88856 0.36584
 C382 C 0.66224 0.84250 0.37212
 C383 C 0.62344 0.84254 0.33305
 C384 C 0.63137 0.88851 0.30395
 N385 N 0.67330 0.91580 0.32442
 C386 C 0.60521 0.90426 0.25720
 C387 C 0.61407 0.95636 0.23816
 C388 C 0.61665 0.97146 0.18609
 C389 C 0.61625 1.02599 0.18538
 C390 C 0.61352 1.04230 0.23708
 N391 N 0.61302 0.99969 0.26928
 C392 C 0.60462 1.09475 0.25511
 C393 C 0.63186 1.11114 0.30150
 C394 C 0.62492 1.15751 0.33034
 C395 C 0.66450 1.15800 0.36864
 C396 C 0.69436 1.11180 0.36254
 N397 N 0.67410 1.08407 0.32177
 C398 C 0.74187 1.09637 0.38949
 H399 H 0.84974 1.05136 0.38255
 H400 H 0.84867 0.94732 0.38478
 H401 H 0.69188 1.05050 0.30527
 H402 H 0.66709 0.81142 0.40085
 H403 H 0.59385 0.81154 0.32720
 H404 H 0.61860 0.94593 0.15210
 H405 H 0.61784 1.05071 0.15078
 H406 H 0.67009 1.18946 0.39682
 H407 H 0.69153 0.94904 0.30752
 H408 H 0.59546 1.18856 0.32497
 O409 O 0.87950 0.80311 0.44922
 O410 O 0.80944 0.88394 0.54535
 O411 O 0.88467 0.81265 0.54914
 O412 O 0.81483 0.88333 0.44653
 O413 O 0.74846 0.82584 0.44918
 O414 O 0.82064 0.75308 0.55665
 O415 O 0.74733 0.82275 0.55506
 O416 O 0.81830 0.73989 0.45677
 Cu417 Cu 0.85342 0.85130 0.49715
 Cu418 Cu 0.77630 0.78042 0.50255
 C419 C 0.86248 0.75682 0.43787
 C420 C 0.76651 0.86794 0.56732
 C421 C 0.86626 0.77136 0.57127
 C422 C 0.76907 0.86846 0.43067
 O423 O 0.11969 0.19302 0.44924
 O424 O 0.18776 0.11252 0.54683
 O425 O 0.11677 0.18530 0.54955
 O426 O 0.19224 0.11837 0.44739
 O427 O 0.25860 0.17635 0.45533
 O428 O 0.17840 0.24776 0.55681
 O429 O 0.24980 0.17367 0.55759
 O430 O 0.18231 0.25513 0.45475
 Cu431 Cu 0.14788 0.14665 0.49697
 Cu432 Cu 0.22412 0.21959 0.50554
 C433 C 0.13739 0.23859 0.43675
 C434 C 0.23018 0.12852 0.56969
 C435 C 0.13383 0.22740 0.57135
 C436 C 0.23962 0.13339 0.43619
 O437 O 0.18888 0.88056 0.44779
 O438 O 0.11106 0.81299 0.54808
 O439 O 0.18376 0.88241 0.54803
 O440 O 0.11461 0.80242 0.44989
 O441 O 0.17839 0.74177 0.45143
 O442 O 0.24832 0.82331 0.55373
 O443 O 0.17284 0.75105 0.55462
 O444 O 0.25298 0.82041 0.45099
 Cu445 Cu 0.14368 0.85076 0.49629
 Cu446 Cu 0.21948 0.77782 0.50246
 C447 C 0.23537 0.86483 0.43425
 C448 C 0.12812 0.77083 0.56942
 C449 C 0.22751 0.86694 0.56866
 C450 C 0.13218 0.75715 0.43593
 O451 O 0.88499 0.18158 0.55133
 O452 O 0.81779 0.11819 0.44205
 O453 O 0.88705 0.19665 0.45290
 O454 O 0.81063 0.11221 0.54147
 O455 O 0.74869 0.17371 0.54927
 O456 O 0.82107 0.25484 0.44938
 O457 O 0.75009 0.17374 0.44654
 O458 O 0.82495 0.24554 0.55268
 Cu459 Cu 0.85621 0.14632 0.49592
 Cu460 Cu 0.77967 0.21824 0.49914
 C461 C 0.86787 0.22449 0.57091
 C462 C 0.77140 0.13219 0.42697
 C463 C 0.86850 0.24081 0.43672
 C464 C 0.76737 0.12855 0.56218
 O465 O 0.55057 0.81938 0.88961
 O466 O 0.44862 0.89042 0.81586
 O467 O 0.44812 0.81954 0.88851
 O468 O 0.55157 0.88883 0.81505
 O469 O 0.55209 0.82698 0.75475
 O470 O 0.44691 0.75530 0.83063
 O471 O 0.44557 0.82762 0.75650
 O472 O 0.55334 0.75635 0.83041
 Cu473 Cu 0.49990 0.86084 0.85791
 Cu474 Cu 0.49943 0.78501 0.78698
 C475 C 0.56992 0.77579 0.87359
 C476 C 0.42887 0.87200 0.77393
 C477 C 0.42964 0.77529 0.87301
 C478 C 0.56973 0.87095 0.77233
 O479 O 0.55167 0.17652 0.10889
 O480 O 0.44360 0.11048 0.17883
 O481 O 0.44867 0.18573 0.11008
 O482 O 0.54650 0.10928 0.18536
 O483 O 0.55243 0.17219 0.24421
 O484 O 0.44931 0.24875 0.17004
 O485 O 0.44590 0.17078 0.24090
 O486 O 0.55499 0.24050 0.16694
 Cu487 Cu 0.49724 0.13944 0.14014
 Cu488 Cu 0.50050 0.21442 0.21171
 C489 C 0.57182 0.22002 0.12448
 C490 C 0.42657 0.12771 0.22211
 C491 C 0.43339 0.23102 0.12613
 C492 C 0.56716 0.12703 0.22739
 O493 O 0.54669 0.11130 0.80804
 O494 O 0.45132 0.19049 0.88227
 O495 O 0.44378 0.11168 0.81532
 O496 O 0.55231 0.17737 0.88368
 O497 O 0.55421 0.24124 0.82541
 O498 O 0.44435 0.17087 0.75260
 O499 O 0.44805 0.25081 0.81990
 O500 O 0.55110 0.17295 0.74761
 Cu501 Cu 0.49770 0.14151 0.85286
 Cu502 Cu 0.49939 0.21513 0.78011
 C503 C 0.56658 0.12848 0.76564
 C504 C 0.43466 0.23509 0.86523
 C505 C 0.42590 0.12774 0.77183
 C506 C 0.57196 0.22079 0.86775
 O507 O 0.54618 0.88844 0.18617
 O508 O 0.44820 0.81495 0.11034
 O509 O 0.44378 0.88697 0.18259
 O510 O 0.55096 0.81901 0.11327
 O511 O 0.54969 0.75363 0.17010
 O512 O 0.44302 0.82592 0.24367
 O513 O 0.44289 0.75309 0.17027
 O514 O 0.54954 0.82537 0.24524
 Cu515 Cu 0.49714 0.85845 0.14228
 Cu516 Cu 0.49628 0.78292 0.21344
 C517 C 0.56560 0.87023 0.22826
 C518 C 0.42778 0.77174 0.12642
 C519 C 0.42496 0.86946 0.22530
 C520 C 0.56895 0.77466 0.12885
 O521 O 0.81744 0.44819 0.88464
 O522 O 0.88386 0.55360 0.81429
 O523 O 0.80472 0.54876 0.88125
 O524 O 0.88077 0.45153 0.80538
 O525 O 0.81944 0.45332 0.74297
 O526 O 0.73905 0.54660 0.82303
 O527 O 0.82016 0.55758 0.75516
 O528 O 0.75407 0.44315 0.82499
 Cu529 Cu 0.85288 0.50096 0.85168
 Cu530 Cu 0.77680 0.50008 0.78061
 C531 C 0.77447 0.42709 0.86814
 C532 C 0.86548 0.57405 0.77284
 C533 C 0.75769 0.56244 0.86652
 C534 C 0.86412 0.43666 0.76063
 O535 O 0.11282 0.54747 0.18488
 O536 O 0.18822 0.44865 0.11100
 O537 O 0.11398 0.44544 0.18107
 O538 O 0.18216 0.54998 0.10962
 O539 O 0.24535 0.55544 0.16919
 O540 O 0.17679 0.44516 0.24161
 O541 O 0.25371 0.45085 0.16954
 O542 O 0.17507 0.54997 0.24598
 Cu543 Cu 0.14301 0.49766 0.14104
 Cu544 Cu 0.21924 0.50033 0.21274
 C545 C 0.13015 0.56598 0.22793
 C546 C 0.23458 0.43415 0.12638
 C547 C 0.13262 0.42688 0.22331
 C548 C 0.22561 0.57086 0.12572
 O549 O 0.88641 0.44774 0.18555
 O550 O 0.80661 0.54597 0.11454
 O551 O 0.88309 0.54941 0.18294
 O552 O 0.81754 0.44496 0.10906
 O553 O 0.75484 0.43651 0.16849
 O554 O 0.82140 0.54630 0.24413
 O555 O 0.74187 0.54016 0.17308
 O556 O 0.82422 0.44128 0.24598
 Cu557 Cu 0.85448 0.49762 0.14240
 Cu558 Cu 0.77916 0.49083 0.21409
 C559 C 0.86964 0.42711 0.22788
 C560 C 0.75982 0.55856 0.13027
 C561 C 0.86505 0.56600 0.22605
 C562 C 0.77464 0.42274 0.12460
 O563 O 0.11507 0.44962 0.80556
 O564 O 0.18141 0.55078 0.88438
 O565 O 0.11068 0.55041 0.81368
 O566 O 0.18989 0.45008 0.88148
 O567 O 0.25287 0.45134 0.82093
 O568 O 0.17301 0.55698 0.75336
 O569 O 0.24638 0.55615 0.82669
 O570 O 0.17841 0.45244 0.74547
 Cu571 Cu 0.14296 0.49806 0.85211
 Cu572 Cu 0.21915 0.50436 0.78059
 C573 C 0.13279 0.43573 0.76109
 C574 C 0.22533 0.57145 0.86943
 C575 C 0.12793 0.57174 0.77210
 C576 C 0.23579 0.43539 0.86510
   
