data_POSCAR
  _audit_creation_date              2014-09-24
  _audit_creation_method            'ToBaCCo'
  _symmetry_space_group_name_H-M    'P1'
  _symmetry_Int_Tables_number       1
  _symmetry_cell_setting            triclinic
  loop_
  _symmetry_equiv_pos_as_xyz
 x,y,z
_cell_length_a 28.5247
_cell_length_b 28.6260
_cell_length_c 32.6727
_cell_angle_alpha 89.885500
_cell_angle_beta 89.978500
_cell_angle_gamma 121.419500
loop_
  _atom_site_label
  _atom_site_type_symbol
  _atom_site_fract_x
  _atom_site_fract_y
  _atom_site_fract_z
C1 C 0.05170 0.56091 1.33654
 C2 C 0.00189 0.54186 1.35731
 C3 C -0.04858 0.51853 1.33664
 C4 C -0.04905 0.51545 1.29323
 C5 C 0.00112 0.53610 1.27154
 C6 C 0.05167 0.56019 1.29309
 C7 C 0.10104 0.58500 1.27061
 C8 C 0.10077 0.58297 1.22812
 C9 C 0.05113 0.55621 1.20631
 C10 C 0.00084 0.53326 1.22805
 C11 C -0.09789 0.49577 1.27075
 C12 C -0.09822 0.49202 1.22832
 C13 C -0.04969 0.50802 1.20639
 C14 C -0.04990 0.50219 1.16313
 C15 C 0.00057 0.52623 1.14235
 C16 C 0.05057 0.55257 1.16318
 H17 H 0.14053 0.60662 1.28573
 H18 H 0.13999 0.60259 1.21249
 H19 H -0.13647 0.48365 1.28567
 H20 H -0.13700 0.47687 1.21279
 H21 H 0.00194 0.54159 1.39054
 H22 H 0.00112 0.52224 1.10935
 C23 C 0.43279 0.48188 1.33433
 C24 C 0.45651 0.45665 1.35518
 C25 C 0.48181 0.43264 1.33452
 C26 C 0.48459 0.43525 1.29109
 C27 C 0.46052 0.46074 1.26949
 C28 C 0.43425 0.48379 1.29116
 C29 C 0.40927 0.50725 1.26913
 C30 C 0.41114 0.50933 1.22660
 C31 C 0.43803 0.48797 1.20448
 C32 C 0.46211 0.46262 1.22603
 C33 C 0.50817 0.41071 1.26853
 C34 C 0.51062 0.41352 1.22602
 C35 C 0.48787 0.43928 1.20417
 C36 C 0.48994 0.44207 1.16094
 C37 C 0.46709 0.46820 1.14018
 C38 C 0.44155 0.49136 1.16129
 H39 H 0.38772 0.52401 1.28459
 H40 H 0.39120 0.52782 1.21116
 H41 H 0.52460 0.38853 1.28342
 H42 H 0.53012 0.39474 1.21041
 H43 H 0.45615 0.45673 1.38841
 H44 H 0.46978 0.47108 1.10705
 C45 C 0.55258 1.04727 1.16107
 C46 C 0.52800 0.99652 1.14104
 C47 C 0.50799 0.94747 1.16242
 C48 C 0.51281 0.94816 1.20544
 C49 C 0.53734 0.99867 1.22659
 C50 C 0.55932 1.04853 1.20435
 C51 C 0.58990 1.09808 1.22582
 C52 C 0.59239 1.09882 1.26833
 C53 C 0.56546 1.04996 1.29119
 C54 C 0.54038 0.99934 1.27008
 C55 C 0.49432 0.89963 1.22773
 C56 C 0.49767 0.90031 1.27018
 C57 C 0.51874 0.94947 1.29223
 C58 C 0.52184 0.95048 1.33567
 C59 C 0.54544 1.00106 1.35588
 C60 C 0.56526 1.05052 1.33461
 H61 H 0.61199 1.13694 1.20995
 H62 H 0.61581 1.13821 1.28322
 H63 H 0.47734 0.86056 1.21246
 H64 H 0.48410 0.86175 1.28545
 H65 H 0.52199 0.99467 1.10814
 H66 H 0.54473 1.00148 1.38910
 C67 C 0.94908 0.50305 0.66047
 C68 C 0.99864 0.52528 0.63921
 C69 C 1.04909 0.55058 0.65965
 C70 C 1.04985 0.55103 0.70309
 C71 C 0.99956 0.52763 0.72508
 C72 C 0.94903 0.50431 0.70367
 C73 C 0.89974 0.48200 0.72593
 C74 C 0.89989 0.48178 0.76852
 C75 C 0.94924 0.50275 0.79039
 C76 C 0.99962 0.52634 0.76855
 C77 C 1.09916 0.57174 0.72506
 C78 C 1.09920 0.57004 0.76763
 C79 C 1.04997 0.54799 0.79006
 C80 C 1.04945 0.54505 0.83344
 C81 C 0.99923 0.52023 0.85428
 C82 C 0.94960 0.50064 0.83358
 H83 H 0.86048 0.46423 0.71058
 H84 H 0.86079 0.46424 0.78414
 H85 H 1.13821 0.58859 0.70947
 H86 H 1.13829 0.58563 0.78282
 H87 H 0.99788 0.52392 0.60599
 H88 H 0.99883 0.51811 0.88748
 C89 C 0.44267 0.48854 0.83552
 C90 C 0.46712 0.46386 0.85624
 C91 C 0.48921 0.43730 0.83509
 C92 C 0.48582 0.43403 0.79192
 C93 C 0.46310 0.46065 0.77038
 C94 C 0.44105 0.48766 0.79221
 C95 C 0.41855 0.51358 0.77017
 C96 C 0.41833 0.51357 0.72762
 C97 C 0.44286 0.48984 0.70538
 C98 C 0.46415 0.46185 0.72691
 C99 C 0.50522 0.40545 0.76976
 C100 C 0.50531 0.40577 0.72716
 C101 C 0.48745 0.43595 0.70516
 C102 C 0.49281 0.44150 0.66202
 C103 C 0.47216 0.46983 0.64129
 C104 C 0.44730 0.49393 0.66218
 H105 H 0.40118 0.53454 0.78556
 H106 H 0.39975 0.53351 0.71237
 H107 H 0.52095 0.38295 0.78524
 H108 H 0.52068 0.38307 0.71162
 H109 H 0.47002 0.46636 0.88936
 H110 H 0.47654 0.47422 0.60828
 C111 C 0.51402 -0.04871 0.83472
 C112 C 0.53764 0.00196 0.85492
 C113 C 0.56354 0.05153 0.83354
 C114 C 0.56660 0.05154 0.79044
 C115 C 0.54371 0.00116 0.76936
 C116 C 0.52039 -0.04879 0.79150
 C117 C 0.50575 -0.09697 0.76980
 C118 C 0.50535 -0.09752 0.72717
 C119 C 0.51992 -0.04983 0.70477
 C120 C 0.54280 0.00056 0.72593
 C121 C 0.59163 0.10062 0.76790
 C122 C 0.59025 0.09997 0.72534
 C123 C 0.56354 0.05021 0.70383
 C124 C 0.55662 0.04862 0.66087
 C125 C 0.53070 -0.00181 0.64073
 C126 C 0.51211 -0.05101 0.66189
 H127 H 0.49309 -0.13499 0.78566
 H128 H 0.49195 -0.13600 0.71192
 H129 H 0.61155 0.13999 0.78302
 H130 H 0.60936 0.13888 0.70948
 H131 H 0.53302 0.00308 0.88781
 H132 H 0.52418 -0.00280 0.60795
 O133 O 0.40665 0.65325 0.94957
 O134 O 0.42647 0.75192 0.96216
 C135 C 0.39799 0.76658 0.94234
 O136 O 0.34764 0.74811 0.95000
 O137 O 0.24705 0.66569 0.96297
 C138 C 0.23203 0.62251 0.94254
 O139 O 0.24978 0.59090 0.95003
 O140 O 0.33019 0.57360 0.96274
 C141 C 0.37374 0.60287 0.94218
 O142 O 0.40643 0.63771 1.03118
 O143 O 0.42179 0.73493 1.04330
 C144 C 0.40206 0.76449 1.05177
 O145 O 0.36307 0.76278 1.03169
 O146 O 0.26476 0.67819 1.04385
 C147 C 0.23363 0.62774 1.05198
 O148 O 0.23425 0.59037 1.03157
 O149 O 0.31777 0.57815 1.04373
 C150 C 0.36827 0.59853 1.05164
 Cr151 Cr 0.41222 0.69322 0.99655
 Cr152 Cr 0.30682 0.71184 0.99704
 Cr153 Cr 0.28493 0.58636 0.99697
 O154 O 0.33468 0.66385 0.99698
 O155 O 0.58030 0.31583 0.95038
 O156 O 0.59308 0.23278 0.96312
 C157 C 0.63155 0.23398 0.94264
 O158 O 0.68185 0.26653 0.95071
 O159 O 0.76548 0.36404 0.96617
 C160 C 0.76850 0.40461 0.94768
 O161 O 0.73626 0.42161 0.95503
 O162 O 0.63725 0.40384 0.96589
 C163 C 0.59942 0.36635 0.94408
 O164 O 0.57118 0.32613 1.03094
 O165 O 0.58983 0.24657 1.04433
 C166 C 0.62191 0.22938 1.05199
 O167 O 0.66577 0.24482 1.03176
 O168 O 0.74700 0.34375 1.04674
 C169 C 0.76491 0.39328 1.05570
 O170 O 0.75043 0.42243 1.03652
 O171 O 0.65041 0.40027 1.04776
 C172 C 0.59929 0.36798 1.05317
 Cr173 Cr 0.58664 0.28223 0.99730
 Cr174 Cr 0.71306 0.30576 0.99884
 Cr175 Cr 0.69239 0.40909 1.00122
 O176 O 0.66420 0.33247 0.99896
 O177 O 0.64846 0.40197 0.54239
 O178 O 0.74931 0.42615 0.52900
 C179 C 0.76361 0.39849 0.55022
 O180 O 0.74521 0.34836 0.54316
 O181 O 0.66804 0.24791 0.52981
 C182 C 0.62376 0.23087 0.54971
 O183 O 0.59020 0.24558 0.54108
 O184 O 0.56984 0.32324 0.53112
 C185 C 0.59881 0.36732 0.55121
 O186 O 0.63124 0.40188 0.46164
 O187 O 0.73060 0.42089 0.44828
 C188 C 0.76532 0.40651 0.44276
 O189 O 0.76368 0.36693 0.46193
 O190 O 0.68164 0.26644 0.44861
 C191 C 0.63132 0.23359 0.44033
 O192 O 0.59214 0.23317 0.45938
 O193 O 0.57407 0.31306 0.44928
 C194 C 0.59044 0.36295 0.44317
 Cr195 Cr 0.68867 0.40958 0.49526
 Cr196 Cr 0.71269 0.30845 0.49570
 Cr197 Cr 0.58466 0.28077 0.49510
 O198 O 0.66186 0.33283 0.49480
 O199 O 0.32679 0.57361 0.53582
 O200 O 0.25083 0.59665 0.54623
 C201 C 0.23312 0.62853 0.55139
 O202 O 0.24951 0.67100 0.52961
 O203 O 0.35189 0.74910 0.54349
 C204 C 0.40161 0.76517 0.55164
 O205 O 0.42961 0.75029 0.53118
 O206 O 0.40708 0.65110 0.54376
 C207 C 0.37252 0.60236 0.55406
 O208 O 0.31408 0.57444 0.45415
 O209 O 0.23490 0.59407 0.46422
 C210 C 0.23601 0.63200 0.44292
 O211 O 0.27001 0.68257 0.44909
 O212 O 0.37038 0.76551 0.46264
 C213 C 0.40993 0.76682 0.44373
 O214 O 0.42407 0.73216 0.44972
 O215 O 0.40389 0.63290 0.46303
 C216 C 0.36386 0.59102 0.44622
 Cr217 Cr 0.28361 0.58775 0.49994
 Cr218 Cr 0.31155 0.71510 0.49622
 Cr219 Cr 0.41304 0.69053 0.49682
 O220 O 0.33618 0.66434 0.49721
 C221 C 0.41987 0.59058 0.38857
 C222 C 0.43595 0.56451 0.36096
 C223 C 0.40856 0.50734 0.35947
 C224 C 0.36337 0.47579 0.38586
 C225 C 0.34835 0.50214 0.41526
 C226 C 0.37656 0.56035 0.41616
 C227 C 0.30722 0.46889 0.44383
 N228 N 0.28065 0.41359 0.44101
 N229 N 0.29280 0.38907 0.41193
 C230 C 0.33324 0.41826 0.38431
 H231 H 0.44220 0.63492 0.38889
 H232 H 0.47102 0.58917 0.34127
 H233 H 0.29657 0.48583 0.46899
 H234 H 0.34145 0.39627 0.36135
 C235 C 0.41377 0.82002 0.38279
 C236 C 0.44114 0.86418 0.35595
 C237 C 0.49775 0.90235 0.36000
 C238 C 0.52722 0.89437 0.39163
 C239 C 0.49906 0.84982 0.41933
 C240 C 0.44187 0.81224 0.41459
 C241 C 0.52913 0.84538 0.45167
 N242 N 0.58402 0.88109 0.45448
 N243 N 0.61093 0.92111 0.42727
 C244 C 0.58457 0.92882 0.39591
 H245 H 0.36994 0.79214 0.37914
 H246 H 0.41726 0.86991 0.33290
 H247 H 0.50968 0.81424 0.47493
 H248 H 0.60881 0.96154 0.37444
 C249 C 0.16033 0.63924 0.41377
 C250 C 0.11423 0.62054 0.38900
 C251 C 0.09969 0.57872 0.36024
 C252 C 0.13236 0.55446 0.35746
 C253 C 0.17978 0.57419 0.38244
 C254 C 0.19301 0.61608 0.41143
 C255 C 0.21245 0.55101 0.37763
 N256 N 0.19682 0.50874 0.35146
 N257 N 0.15072 0.48805 0.32981
 C258 C 0.11779 0.50905 0.33214
 H259 H 0.16942 0.67083 0.43609
 H260 H 0.08981 0.63933 0.39212
 H261 H 0.25047 0.56634 0.39414
 H262 H 0.08040 0.48969 0.31439
 C263 C 0.58900 0.41488 0.38314
 C264 C 0.56241 0.43090 0.35585
 C265 C 0.50548 0.40901 0.35850
 C266 C 0.47486 0.36888 0.38903
 C267 C 0.50221 0.35378 0.41749
 C268 C 0.55974 0.37667 0.41411
 C269 C 0.47095 0.31729 0.44922
 N270 N 0.41575 0.29465 0.45039
 N271 N 0.38964 0.30619 0.42216
 C272 C 0.41717 0.34221 0.39148
 H273 H 0.63305 0.43315 0.38047
 H274 H 0.58699 0.46249 0.33359
 H275 H 0.48967 0.30691 0.47339
 H276 H 0.39367 0.34929 0.36908
 C277 C 0.63989 0.15829 0.41286
 C278 C 0.62248 0.11262 0.38813
 C279 C 0.58239 0.09860 0.35779
 C280 C 0.55876 0.13166 0.35315
 C281 C 0.57730 0.17873 0.37810
 C282 C 0.61716 0.19116 0.40886
 C283 C 0.55494 0.21183 0.37155
 N284 N 0.51436 0.19688 0.34372
 N285 N 0.49456 0.15106 0.32209
 C286 C 0.51488 0.11775 0.32610
 H287 H 0.67000 0.16685 0.43647
 H288 H 0.64084 0.08802 0.39262
 H289 H 0.56957 0.24961 0.38803
 H290 H 0.49607 0.08055 0.30834
 C291 C 0.81944 0.41079 0.38227
 C292 C 0.86420 0.43825 0.35588
 C293 C 0.90275 0.49451 0.36049
 C294 C 0.89444 0.52360 0.39211
 C295 C 0.84929 0.49534 0.41936
 C296 C 0.81141 0.43847 0.41412
 C297 C 0.84453 0.52499 0.45176
 N298 N 0.88049 0.57961 0.45497
 N299 N 0.92106 0.60665 0.42813
 C300 C 0.92911 0.58068 0.39677
 H301 H 0.79128 0.36721 0.37823
 H302 H 0.87009 0.41467 0.33276
 H303 H 0.81294 0.50543 0.47475
 H304 H 0.96226 0.60500 0.37559
 C305 C 0.59474 0.43830 1.09374
 C306 C 0.56835 0.45645 1.11906
 C307 C 0.51716 0.41958 1.13614
 C308 C 0.49250 0.36293 1.12845
 C309 C 0.51970 0.34388 1.10319
 C310 C 0.57092 0.38247 1.08449
 C311 C 0.49455 0.28680 1.09831
 N312 N 0.44521 0.25219 1.11598
 N313 N 0.41915 0.27042 1.13845
 C314 C 0.44105 0.32456 1.14526
 H315 H 0.63352 0.46877 1.08016
 H316 H 0.58759 0.49994 1.12480
 H317 H 0.51353 0.26868 1.08157
 H318 H 0.41819 0.33705 1.16394
 C319 C 0.84985 0.47439 1.08056
 C320 C 0.89550 0.50043 1.10588
 C321 C 0.90141 0.47337 1.13956
 C322 C 0.85952 0.41782 1.14722
 C323 C 0.81170 0.39196 1.12222
 C324 C 0.80797 0.42000 1.08760
 C325 C 0.76928 0.33869 1.13286
 N326 N 0.77643 0.31164 1.16398
 N327 N 0.82297 0.33419 1.18524
 C328 C 0.86485 0.38597 1.17771
 H329 H 0.84823 0.49671 1.05431
 H330 H 0.92665 0.54258 1.09907
 H331 H 0.73020 0.31838 1.11727
 H332 H 0.90191 0.40154 1.19556
 C333 C 0.61949 0.14646 1.07599
 C334 C 0.60198 0.10191 1.10192
 C335 C 0.56972 0.09462 1.13664
 C336 C 0.55459 0.13405 1.14460
 C337 C 0.57561 0.18149 1.11945
 C338 C 0.60622 0.18635 1.08369
 C339 C 0.56538 0.22258 1.13129
 N340 N 0.53136 0.21395 1.16320
 N341 N 0.50718 0.16719 1.18418
 C342 C 0.51711 0.12678 1.17572
 H343 H 0.64288 0.14906 1.04903
 H344 H 0.61427 0.07282 1.09478
 H345 H 0.58469 0.26179 1.11603
 H346 H 0.49569 0.08947 1.19348
 C347 C 0.35654 0.51627 1.08636
 C348 C 0.37491 0.49036 1.11220
 C349 C 0.42116 0.52093 1.13693
 C350 C 0.44840 0.57877 1.13672
 C351 C 0.42887 0.60515 1.11125
 C352 C 0.38395 0.57355 1.08449
 C353 C 0.45478 0.66242 1.11390
 N354 N 0.49891 0.69117 1.13864
 N355 N 0.51875 0.66653 1.16112
 C356 C 0.49513 0.61138 1.16095
 H357 H 0.32206 0.49136 1.06635
 H358 H 0.35375 0.44607 1.11215
 H359 H 0.43977 0.68454 1.09735
 H360 H 0.51295 0.59364 1.17992
 C361 C 0.16297 0.63814 1.08743
 C362 C 0.11820 0.61946 1.11373
 C363 C 0.10138 0.57341 1.13849
 C364 C 0.13139 0.54665 1.13779
 C365 C 0.17784 0.56644 1.11179
 C366 C 0.19225 0.61123 1.08505
 C367 C 0.20864 0.54093 1.11397
 N368 N 0.19220 0.49701 1.13878
 N369 N 0.14720 0.47699 1.16178
 C370 C 0.11618 0.50019 1.16209
 H371 H 0.17334 0.67252 1.06749
 H372 H 0.09550 0.64023 1.11400
 H373 H 0.24620 0.55606 1.09700
 H374 H 0.08017 0.48228 1.18149
 C375 C 0.48461 0.83902 1.08595
 C376 C 0.51017 0.88382 1.11223
 C377 C 0.47911 0.89601 1.13843
 C378 C 0.42124 0.86118 1.13932
 C379 C 0.39535 0.81478 1.11340
 C380 C 0.42724 0.80518 1.08512
 C381 C 0.33820 0.77922 1.11702
 N382 N 0.30892 0.79112 1.14312
 N383 N 0.33298 0.83608 1.16605
 C384 C 0.38805 0.87157 1.16499
 H385 H 0.50972 0.83230 1.06475
 H386 H 0.55447 0.91027 1.11122
 H387 H 0.31672 0.74155 1.10010
 H388 H 0.40528 0.90733 1.18436
 C389 C 0.51638 0.36283 0.58047
 C390 C 0.49123 0.38155 0.60669
 C391 C 0.52132 0.41998 0.63723
 C392 C 0.57772 0.43821 0.64237
 C393 C 0.60227 0.41599 0.61764
 C394 C 0.57228 0.38080 0.58454
 C395 C 0.65600 0.42953 0.62734
 N396 N 0.68466 0.46680 0.65696
 N397 N 0.66313 0.49112 0.67776
 C398 C 0.61083 0.47840 0.67132
 H399 H 0.49227 0.33565 0.55579
 H400 H 0.44815 0.36725 0.60227
 H401 H 0.67513 0.41001 0.61243
 H402 H 0.59559 0.49949 0.68914
 C403 C 0.63166 0.15578 0.57966
 C404 C 0.61507 0.11163 0.60596
 C405 C 0.57464 0.09847 0.63560
 C406 C 0.55150 0.13167 0.63956
 C407 C 0.57088 0.17889 0.61447
 C408 C 0.60929 0.18928 0.58254
 C409 C 0.55136 0.21412 0.62290
 N410 N 0.51194 0.20024 0.65167
 N411 N 0.49099 0.15391 0.67298
 C412 C 0.50926 0.11909 0.66782
 H413 H 0.66122 0.16267 0.55599
 H414 H 0.63301 0.08654 0.60247
 H415 H 0.56780 0.25327 0.60800
 H416 H 0.49085 0.08217 0.68611
 C417 C 0.83582 0.40051 0.59325
 C418 C 0.88051 0.42541 0.61947
 C419 C 0.89799 0.47680 0.63597
 C420 C 0.86880 0.50309 0.62704
 C421 C 0.82221 0.47741 0.60080
 C422 C 0.80664 0.42598 0.58243
 C423 C 0.79315 0.50438 0.59464
 N424 N 0.81092 0.55384 0.61202
 N425 N 0.85557 0.57838 0.63540
 C426 C 0.88510 0.55472 0.64350
 H427 H 0.82535 0.36148 0.58019
 H428 H 0.90270 0.40499 0.62613
 H429 H 0.75573 0.48674 0.57732
 H430 H 0.92081 0.57632 0.66297
 C431 C 0.36538 0.51973 0.58483
 C432 C 0.38437 0.49389 0.61006
 C433 C 0.42744 0.52397 0.63753
 C434 C 0.45079 0.58133 0.64047
 C435 C 0.42906 0.60730 0.61671
 C436 C 0.38800 0.57656 0.58675
 C437 C 0.44909 0.66308 0.62432
 N438 N 0.49102 0.69141 0.65096
 N439 N 0.51400 0.66780 0.67090
 C440 C 0.49548 0.61385 0.66647
 H441 H 0.33396 0.49509 0.56256
 H442 H 0.36617 0.45003 0.60742
 H443 H 0.43114 0.68437 0.61042
 H444 H 0.51555 0.59682 0.68360
 C445 C 0.48483 0.84734 0.57839
 C446 C 0.51117 0.89172 0.60484
 C447 C 0.48298 0.89742 0.63772
 C448 C 0.42750 0.85572 0.64512
 C449 C 0.40209 0.80847 0.61994
 C450 C 0.42973 0.80621 0.58457
 C451 C 0.35000 0.76476 0.63148
 N452 N 0.32325 0.77028 0.66366
 N453 N 0.34509 0.81651 0.68504
 C454 C 0.39601 0.85960 0.67662
 H455 H 0.50724 0.84633 0.55197
 H456 H 0.55352 0.92310 0.59868
 H457 H 0.33073 0.72590 0.61579
 H458 H 0.41143 0.89611 0.69491
 C459 C 0.15004 0.55618 0.58605
 C460 C 0.10490 0.53687 0.61179
 C461 C 0.09706 0.57282 0.63560
 C462 C 0.13507 0.63003 0.63226
 C463 C 0.18078 0.65008 0.60517
 C464 C 0.18834 0.61244 0.58184
 C465 C 0.21702 0.70716 0.60268
 N466 N 0.20741 0.74130 0.62488
 N467 N 0.16408 0.72250 0.64951
 C468 C 0.12755 0.66818 0.65387
 H469 H 0.15409 0.52657 0.56825
 H470 H 0.07589 0.49310 0.61341
 H471 H 0.25320 0.72553 0.58376
 H472 H 0.09281 0.65541 0.67398
 C473 C 0.44444 0.59385 0.90542
 C474 C 0.46094 0.56547 0.88068
 C475 C 0.42226 0.51779 0.86030
 C476 C 0.36571 0.49916 0.86399
 C477 C 0.34885 0.52928 0.88783
 C478 C 0.38862 0.57581 0.91032
 C479 C 0.29269 0.51197 0.88763
 N480 N 0.25608 0.46592 0.86728
 N481 N 0.27172 0.43616 0.84678
 C482 C 0.32521 0.45113 0.84449
 H483 H 0.47564 0.62917 0.92205
 H484 H 0.50437 0.58025 0.87800
 H485 H 0.27744 0.53506 0.90244
 H486 H 0.33562 0.42561 0.82717
 C487 C 0.15110 0.54978 0.90600
 C488 C 0.10596 0.53065 0.88029
 C489 C 0.09761 0.56687 0.85709
 C490 C 0.13532 0.62405 0.86067
 C491 C 0.18126 0.64386 0.88734
 C492 C 0.18883 0.60604 0.91070
 C493 C 0.21767 0.70098 0.88950
 N494 N 0.20769 0.73528 0.86780
 N495 N 0.16377 0.71667 0.84394
 C496 C 0.12718 0.66239 0.83978
 H497 H 0.15531 0.52007 0.92363
 H498 H 0.07717 0.48688 0.87840
 H499 H 0.25435 0.71932 0.90770
 H500 H 0.09194 0.64985 0.82034
 C501 C 0.47967 0.85344 0.92057
 C502 C 0.50756 0.89851 0.89486
 C503 C 0.48352 0.90297 0.85864
 C504 C 0.42905 0.85981 0.84884
 C505 C 0.40236 0.81205 0.87380
 C506 C 0.42677 0.81020 0.91105
 C507 C 0.35211 0.76750 0.86032
 N508 N 0.32717 0.77274 0.82684
 N509 N 0.34920 0.81954 0.80600
 C510 C 0.39878 0.86342 0.81617
 H511 H 0.49946 0.85296 0.94875
 H512 H 0.54880 0.93028 0.90342
 H513 H 0.33280 0.72837 0.87577
 H514 H 0.41391 0.90056 0.79857
 C515 C 0.51644 0.35368 0.90968
 C516 C 0.48967 0.37117 0.88389
 C517 C 0.51962 0.41756 0.85919
 C518 C 0.57779 0.44599 0.85951
 C519 C 0.60509 0.42773 0.88530
 C520 C 0.57399 0.38229 0.91174
 C521 C 0.66276 0.45538 0.88326
 N522 N 0.69092 0.49959 0.85847
 N523 N 0.66535 0.51792 0.83543
 C524 C 0.60984 0.49277 0.83515
 H525 H 0.49190 0.31880 0.92949
 H526 H 0.44518 0.34915 0.88392
 H527 H 0.68573 0.44179 0.90043
 H528 H 0.59139 0.50948 0.81576
 C529 C 0.82071 0.39932 0.88954
 C530 C 0.86381 0.42211 0.86150
 C531 C 0.89919 0.47884 0.85890
 C532 C 0.89005 0.51340 0.88426
 C533 C 0.84699 0.49030 0.91362
 C534 C 0.81194 0.43246 0.91621
 C535 C 0.84249 0.52619 0.94049
 N536 N 0.87682 0.58108 0.93658
 N537 N 0.91582 0.60266 0.90800
 C538 C 0.92370 0.57074 0.88180
 H539 H 0.79462 0.35513 0.89109
 H540 H 0.87072 0.39524 0.84255
 H541 H 0.81291 0.51160 0.96501
 H542 H 0.95620 0.59045 0.85930
 C543 C 0.64605 0.16597 0.90783
 C544 C 0.62914 0.12131 0.88204
 C545 C 0.58249 0.10223 0.85751
 C546 C 0.55321 0.12978 0.85791
 C547 C 0.57114 0.17607 0.88343
 C548 C 0.61672 0.19284 0.90991
 C549 C 0.54296 0.20428 0.88114
 N550 N 0.49842 0.18560 0.85657
 N551 N 0.48025 0.14077 0.83396
 C552 C 0.50599 0.11216 0.83384
 H553 H 0.68097 0.17807 0.92767
 H554 H 0.65174 0.10044 0.88203
 H555 H 0.55641 0.24154 0.89788
 H556 H 0.48942 0.07614 0.81479
   
