data_POSCAR
  _audit_creation_date              2014-09-24
  _audit_creation_method            'ToBaCCo'
  _symmetry_space_group_name_H-M    'P1'
  _symmetry_Int_Tables_number       1
  _symmetry_cell_setting            triclinic
  loop_
  _symmetry_equiv_pos_as_xyz
 x,y,z
_cell_length_a 26.4044
_cell_length_b 25.4460
_cell_length_c 25.9401
_cell_angle_alpha 88.028300
_cell_angle_beta 90.722600
_cell_angle_gamma 87.871500
loop_
  _atom_site_label
  _atom_site_type_symbol
  _atom_site_fract_x
  _atom_site_fract_y
  _atom_site_fract_z
N1 N 0.18413 1.27654 0.15335
 N2 N 0.17342 1.29584 0.19843
 C3 C 0.14725 1.34211 0.19113
 C4 C 0.14036 1.35152 0.13834
 C5 C 0.16373 1.30852 0.11592
 H6 H 0.12975 1.36389 0.22172
 H7 H 0.16501 1.30052 0.07524
 Cu8 Cu 0.18479 1.25202 0.26073
 Cu9 Cu 0.22034 1.20941 0.14618
 Cu10 Cu 0.27014 1.15098 0.25838
 N11 N 0.17957 1.19000 0.30629
 N12 N 0.21190 1.14948 0.30519
 C13 C 0.19302 1.10895 0.33288
 C14 C 0.14538 1.12446 0.35067
 C15 C 0.13962 1.17699 0.33483
 H16 H 0.21051 1.06982 0.33573
 H17 H 0.10789 1.20376 0.34187
 N18 N 0.30227 1.14143 0.19110
 N19 N 0.27936 1.15919 0.14815
 C20 C 0.30793 1.14611 0.10786
 C21 C 0.35269 1.12146 0.12595
 C22 C 0.34710 1.11801 0.17925
 H23 H 0.29698 1.15508 0.06818
 H24 H 0.37375 1.10045 0.20740
 H25 H 0.20880 1.17232 0.21384
 H26 H 0.25773 1.22300 0.21236
 N27 N 0.80462 0.69156 0.17920
 N28 N 0.84655 0.69936 0.20530
 C29 C 0.88267 0.66416 0.19145
 C30 C 0.86199 0.63202 0.15553
 C31 C 0.81246 0.65053 0.14844
 H32 H 0.92189 0.66397 0.20404
 H33 H 0.78559 0.63805 0.11993
 Cu34 Cu 0.85137 0.75726 0.25188
 Cu35 Cu 0.74601 0.74038 0.18151
 Cu36 Cu 0.77495 0.86267 0.22640
 N37 N 0.85610 0.82032 0.29168
 N38 N 0.82421 0.86061 0.28309
 C39 C 0.83473 0.89860 0.31593
 C40 C 0.87539 0.88121 0.34732
 C41 C 0.88865 0.83165 0.32977
 H42 H 0.81583 0.93708 0.31507
 H43 H 0.91903 0.80537 0.34442
 N44 N 0.71522 0.85107 0.18262
 N45 N 0.70282 0.80421 0.16739
 C46 C 0.66142 0.80967 0.13644
 C47 C 0.64715 0.86251 0.13232
 C48 C 0.68221 0.88756 0.16177
 H49 H 0.64496 0.77814 0.11576
 H50 H 0.68444 0.92954 0.16606
 H51 H 0.79727 0.79768 0.18386
 H52 H 0.76208 0.78701 0.24501
 N53 N 0.82325 1.28764 -0.14296
 N54 N 0.85404 1.29131 -0.18219
 C55 C 0.88876 1.32710 -0.17241
 C56 C 0.88073 1.34533 -0.12335
 C57 C 0.83798 1.32027 -0.10634
 H58 H 0.91836 1.33803 -0.19869
 H59 H 0.81975 1.32440 -0.06951
 Cu60 Cu 0.84997 1.24490 -0.23979
 Cu61 Cu 0.76627 1.24116 -0.14371
 Cu62 Cu 0.78717 1.13365 -0.21984
 N63 N 0.85835 1.18570 -0.28452
 N64 N 0.83254 1.14301 -0.27780
 C65 C 0.84674 1.10817 -0.31318
 C66 C 0.88396 1.12989 -0.34413
 C67 C 0.89070 1.17908 -0.32356
 H68 H 0.83134 1.06956 -0.31546
 H69 H 0.91964 1.20660 -0.33294
 N70 N 0.73327 1.13738 -0.16795
 N71 N 0.72440 1.17892 -0.13984
 C72 C 0.68325 1.17095 -0.11085
 C73 C 0.66491 1.12234 -0.12189
 C74 C 0.69811 1.10177 -0.15746
 H75 H 0.66709 1.19889 -0.08458
 H76 H 0.69597 1.06410 -0.17527
 H77 H 0.81722 1.18856 -0.17129
 H78 H 0.76668 1.21176 -0.21868
 N79 N 0.17269 0.72006 -0.13946
 N80 N 0.15096 0.70691 -0.18275
 C81 C 0.11836 0.66864 -0.17270
 C82 C 0.11886 0.65821 -0.11999
 C83 C 0.15435 0.69094 -0.10017
 H84 H 0.09435 0.65148 -0.20121
 H85 H 0.16446 0.69481 -0.05997
 Cu86 Cu 0.16168 0.74630 -0.24656
 Cu87 Cu 0.21955 0.77716 -0.13709
 Cu88 Cu 0.25616 0.83001 -0.25554
 N89 N 0.16198 0.80126 -0.30022
 N90 N 0.19907 0.83398 -0.30470
 C91 C 0.18781 0.86903 -0.34372
 C92 C 0.14094 0.85753 -0.36518
 C93 C 0.12577 0.81449 -0.33553
 H94 H 0.21164 0.90108 -0.35477
 H95 H 0.08939 0.79640 -0.33635
 N96 N 0.29463 0.83894 -0.19097
 N97 N 0.27913 0.82078 -0.14575
 C98 C 0.31081 0.83605 -0.10864
 C99 C 0.34828 0.86457 -0.13160
 C100 C 0.33687 0.86607 -0.18381
 H101 H 0.30679 0.82755 -0.06779
 H102 H 0.35659 0.88709 -0.21394
 H103 H 0.20053 0.81944 -0.20498
 H104 H 0.24514 0.76122 -0.20924
 Si105 Si 0.49974 0.99592 -0.01205
 Si106 Si -0.00394 0.50052 1.01055
 Si107 Si 1.00422 0.00541 0.49638
 C108 C 0.10504 0.44360 1.12391
 C109 C 0.10766 0.38913 1.11282
 C110 C 0.07589 0.37102 1.07420
 C111 C 0.04182 0.40461 1.04749
 C112 C 0.04041 0.45884 1.05463
 C113 C 0.07146 0.47878 1.09420
 C114 C 0.13749 0.46475 1.16101
 C115 C 0.13544 0.51834 1.17045
 C116 C 0.10209 0.55222 1.14248
 C117 C 0.07078 0.53292 1.10449
 H118 H 0.16559 0.44066 1.18231
 H119 H 0.16042 0.53380 1.19917
 H120 H 0.10107 0.59390 1.14965
 H121 H 0.04696 0.56121 1.08287
 H122 H 0.07544 0.32955 1.06601
 H123 H 0.01630 0.38689 1.02108
 C124 C -0.11215 0.54198 1.12336
 C125 C -0.10935 0.59741 1.12110
 C126 C -0.07727 0.62133 1.08588
 C127 C -0.04801 0.59150 1.05298
 C128 C -0.04932 0.53640 1.05409
 C129 C -0.08147 0.51098 1.09002
 C130 C -0.14396 0.51669 1.15890
 C131 C -0.14559 0.46199 1.16183
 C132 C -0.11553 0.43162 1.12972
 C133 C -0.08369 0.45564 1.09427
 H134 H -0.16761 0.53895 1.18477
 H135 H -0.17016 0.44304 1.18928
 H136 H -0.11687 0.38914 1.13228
 H137 H -0.06133 0.43023 1.07028
 H138 H -0.07456 0.66376 1.08410
 H139 H -0.02290 0.61239 1.02775
 C140 C -0.03498 0.38364 0.90357
 C141 C -0.08877 0.38278 0.90562
 C142 C -0.11482 0.41883 0.93624
 C143 C -0.08901 0.45457 0.96515
 C144 C -0.03617 0.45665 0.96368
 C145 C -0.00891 0.42306 0.93007
 C146 C -0.00599 0.34466 0.87826
 C147 C 0.04637 0.34757 0.87427
 C148 C 0.07125 0.38838 0.89649
 C149 C 0.04421 0.42536 0.92459
 H150 H -0.02272 0.31046 0.86285
 H151 H 0.06781 0.31765 0.85428
 H152 H 0.11197 0.39048 0.89335
 H153 H 0.06589 0.45454 0.94294
 H154 H -0.15579 0.41914 0.93824
 H155 H -0.11090 0.48062 0.98912
 C156 C 0.03311 0.62218 0.90339
 C157 C 0.08658 0.62220 0.90978
 C158 C 0.11047 0.58723 0.94591
 C159 C 0.08280 0.55169 0.97482
 C160 C 0.03012 0.54980 0.96885
 C161 C 0.00473 0.58496 0.93230
 C162 C 0.00686 0.65964 0.87043
 C163 C -0.04552 0.65884 0.86391
 C164 C -0.07300 0.62154 0.89065
 C165 C -0.04843 0.58529 0.92474
 H166 H 0.02604 0.69070 0.85020
 H167 H -0.06496 0.68769 0.83835
 H168 H -0.11376 0.62130 0.88570
 H169 H -0.07200 0.55863 0.94567
 H170 H 0.15124 0.58694 0.95135
 H171 H 0.10328 0.52491 1.00152
 C172 C 1.05653 0.10489 0.37476
 C173 C 1.10982 0.09339 0.37708
 C174 C 1.12759 0.05058 0.40868
 C175 C 1.09529 0.02434 0.44204
 C176 C 1.04432 0.04080 0.44669
 C177 C 1.02427 0.08087 0.41172
 C178 C 1.03378 0.13674 0.33436
 C179 C 0.98231 0.15072 0.33454
 C180 C 0.95211 0.13226 0.37408
 C181 C 0.97265 0.09738 0.41191
 H182 H 1.05488 0.14946 0.30110
 H183 H 0.96579 0.17581 0.30374
 H184 H 0.91227 0.14385 0.37470
 H185 H 0.94758 0.08384 0.44112
 H186 H 1.16738 0.03857 0.40973
 H187 H 1.11113 -0.00860 0.46492
 C188 C 1.06944 -0.13322 0.57071
 C189 C 1.11156 -0.11258 0.59723
 C190 C 1.12035 -0.05866 0.59003
 C191 C 1.08711 -0.02550 0.56082
 C192 C 1.04357 -0.04435 0.53752
 C193 C 1.03248 -0.09820 0.54608
 C194 C 1.06358 -0.18793 0.56651
 C195 C 1.01858 -0.20732 0.54763
 C196 C 0.97873 -0.17268 0.53281
 C197 C 0.98540 -0.11861 0.53241
 H198 H 1.09393 -0.21612 0.57693
 H199 H 1.01417 -0.24934 0.54579
 H200 H 0.94275 -0.18769 0.52088
 H201 H 0.95277 -0.09348 0.52309
 H202 H 1.15185 -0.04091 0.60898
 H203 H 1.09546 0.01580 0.55676
 C204 C 0.87546 -0.05377 0.41729
 C205 C 0.90072 -0.09046 0.38517
 C206 C 0.95359 -0.09686 0.38936
 C207 C 0.98155 -0.06572 0.42122
 C208 C 0.95822 -0.02785 0.45194
 C209 C 0.90430 -0.02059 0.44913
 C210 C 0.82199 -0.05176 0.42128
 C211 C 0.79723 -0.01446 0.45086
 C212 C 0.82498 0.02121 0.47756
 C213 C 0.87771 0.01815 0.47690
 H214 H 0.79865 -0.07994 0.40310
 H215 H 0.75628 -0.01314 0.45292
 H216 H 0.80559 0.05104 0.49955
 H217 H 0.89634 0.04766 0.49739
 H218 H 0.97418 -0.12459 0.36588
 H219 H 1.02237 -0.07215 0.42245
 C220 C 0.94277 0.13188 0.58028
 C221 C 0.91240 0.10459 0.61694
 C222 C 0.91395 0.04918 0.61680
 C223 C 0.94427 0.02160 0.58276
 C224 C 0.97551 0.04769 0.54796
 C225 C 0.97872 0.10305 0.55055
 C226 C 0.93692 0.18670 0.56987
 C227 C 0.97172 0.21320 0.53957
 C228 C 1.01266 0.18563 0.51892
 C229 C 1.01625 0.13097 0.52444
 H230 H 0.90463 0.20935 0.58326
 H231 H 0.96738 0.25536 0.53289
 H232 H 1.04109 0.20648 0.49758
 H233 H 1.04939 0.11125 0.50961
 H234 H 0.89217 0.02607 0.64362
 H235 H 0.94206 -0.02080 0.58281
 C236 C 0.40374 1.11895 0.04292
 C237 C 0.39526 1.10046 0.09428
 C238 C 0.42497 1.05747 0.11391
 C239 C 0.45837 1.03013 0.08243
 C240 C 0.46002 1.04147 0.02917
 C241 C 0.43233 1.08683 0.00898
 C242 C 0.38539 1.16911 0.02462
 C243 C 0.38877 1.18420 -0.02729
 C244 C 0.41083 1.14990 -0.06175
 C245 C 0.43249 1.10181 -0.04390
 H246 H 0.36957 1.19763 0.05045
 H247 H 0.37382 1.22244 -0.04089
 H248 H 0.41217 1.16104 -0.10235
 H249 H 0.44888 1.07685 -0.07210
 H250 H 0.42143 1.04367 0.15359
 H251 H 0.48128 0.99844 0.10017
 C252 C 0.58358 1.07263 -0.13138
 C253 C 0.61950 1.09756 -0.10029
 C254 C 0.61237 1.09870 -0.04704
 C255 C 0.57379 1.07115 -0.02373
 C256 C 0.54154 1.04042 -0.05249
 C257 C 0.54366 1.04453 -0.10754
 C258 C 0.58504 1.07729 -0.18584
 C259 C 0.54893 1.05421 -0.21632
 C260 C 0.50948 1.02804 -0.19340
 C261 C 0.50624 1.02423 -0.13989
 H262 H 0.61283 1.10025 -0.20565
 H263 H 0.55060 1.05822 -0.25794
 H264 H 0.48024 1.01204 -0.21722
 H265 H 0.47220 1.00847 -0.12523
 H266 H 0.63836 1.11914 -0.02284
 H267 H 0.57123 1.07126 0.01793
 C268 C 0.43986 0.88328 -0.11048
 C269 C 0.38725 0.89372 -0.10465
 C270 C 0.37055 0.93255 -0.07147
 C271 C 0.40483 0.96194 -0.04491
 C272 C 0.45722 0.95300 -0.04981
 C273 C 0.47531 0.91294 -0.08266
 C274 C 0.45799 0.84351 -0.14286
 C275 C 0.50986 0.83371 -0.14857
 C276 C 0.54450 0.86316 -0.12226
 C277 C 0.52762 0.90237 -0.08967
 H278 H 0.43235 0.81959 -0.16387
 H279 H 0.52325 0.80319 -0.17365
 H280 H 0.58474 0.85564 -0.12718
 H281 H 0.55611 0.92453 -0.07089
 H282 H 0.33035 0.94065 -0.06649
 H283 H 0.38969 0.99168 -0.02004
 C284 C 0.55680 0.87972 0.09874
 C285 C 0.60936 0.88849 0.09642
 C286 C 0.62707 0.92439 0.05966
 C287 C 0.59383 0.95304 0.02671
 C288 C 0.54118 0.94881 0.03041
 C289 C 0.52228 0.90991 0.06545
 C290 C 0.53764 0.84268 0.13451
 C291 C 0.48586 0.83446 0.13691
 C292 C 0.45221 0.86331 0.10437
 C293 C 0.46999 0.90073 0.06923
 H294 H 0.56235 0.81986 0.16102
 H295 H 0.47174 0.80579 0.16443
 H296 H 0.41196 0.85708 0.10673
 H297 H 0.44200 0.92294 0.04627
 H298 H 0.66736 0.93036 0.05639
 H299 H 0.61034 0.97878 -0.00173
   
