data_POSCAR
  _audit_creation_date              2014-09-24
  _audit_creation_method            'ToBaCCo'
  _symmetry_space_group_name_H-M    'P1'
  _symmetry_Int_Tables_number       1
  _symmetry_cell_setting            triclinic
  loop_
  _symmetry_equiv_pos_as_xyz
 x,y,z
_cell_length_a 41.6205
_cell_length_b 42.4723
_cell_length_c 39.8600
_cell_angle_alpha 90.882600
_cell_angle_beta 89.190900
_cell_angle_gamma 91.512300
loop_
  _atom_site_label
  _atom_site_type_symbol
  _atom_site_fract_x
  _atom_site_fract_y
  _atom_site_fract_z
N1 N 0.16480 0.17583 0.23348
 N2 N 0.18930 0.15686 0.23320
 C3 C 0.18437 0.13489 0.25692
 C4 C 0.15538 0.14073 0.27265
 C5 C 0.14350 0.16673 0.25737
 H6 H 0.20038 0.11596 0.26213
 H7 H 0.12096 0.17794 0.26294
 Cu8 Cu 0.22457 0.16259 0.20109
 Cu9 Cu 0.16187 0.21042 0.20241
 Cu10 Cu 0.22477 0.22115 0.14526
 N11 N 0.25993 0.16885 0.16924
 N12 N 0.25981 0.19177 0.14738
 C13 C 0.28593 0.18980 0.12718
 C14 C 0.30320 0.16444 0.13717
 C15 C 0.28616 0.15150 0.16368
 H16 H 0.29125 0.20488 0.10609
 H17 H 0.29182 0.13037 0.17698
 N18 N 0.18707 0.24829 0.14731
 N19 N 0.16318 0.24411 0.16912
 C20 C 0.14087 0.26581 0.16398
 C21 C 0.15127 0.28435 0.13782
 C22 C 0.18050 0.27279 0.12765
 H23 H 0.11852 0.26784 0.17791
 H24 H 0.19558 0.28137 0.10727
 H25 H 0.18975 0.19104 0.16423
 H26 H 0.21093 0.21761 0.19494
 N27 N -0.18270 0.81715 0.24703
 N28 N -0.20710 0.83616 0.24596
 C29 C -0.20432 0.85779 0.27096
 C30 C -0.17684 0.85167 0.28840
 C31 C -0.16364 0.82589 0.27269
 H32 H -0.22044 0.87696 0.27561
 H33 H -0.14141 0.81488 0.27892
 Cu34 Cu -0.23872 0.83147 0.21062
 Cu35 Cu -0.17630 0.78355 0.21410
 Cu36 Cu -0.23265 0.77497 0.15104
 N37 N -0.27039 0.82652 0.17540
 N38 N -0.26781 0.80440 0.15210
 C39 C -0.29157 0.80715 0.12981
 C40 C -0.30989 0.83221 0.13994
 C41 C -0.29588 0.84416 0.16872
 H42 H -0.29455 0.79279 0.10736
 H43 H -0.30297 0.86484 0.18284
 N44 N -0.19533 0.74762 0.15456
 N45 N -0.17392 0.75096 0.17861
 C46 C -0.15098 0.72952 0.17377
 C47 C -0.15844 0.71202 0.14550
 C48 C -0.18656 0.72391 0.13380
 H49 H -0.13012 0.72708 0.18929
 H50 H -0.19932 0.71615 0.11159
 H51 H -0.19984 0.80438 0.17504
 H52 H -0.22417 0.77678 0.20179
 N53 N -0.18708 0.19896 -0.26881
 N54 N -0.20827 0.17629 -0.26226
 C55 C -0.20423 0.15239 -0.28438
 C56 C -0.17930 0.16074 -0.30581
 C57 C -0.16880 0.19027 -0.29532
 H58 H -0.21774 0.13027 -0.28430
 H59 H -0.14874 0.20390 -0.30553
 Cu60 Cu -0.23779 0.17903 -0.22431
 Cu61 Cu -0.18340 0.23688 -0.24099
 Cu62 Cu -0.24203 0.24687 -0.17957
 N63 N -0.27366 0.18757 -0.19423
 N64 N -0.27531 0.21391 -0.17656
 C65 C -0.30153 0.21246 -0.15632
 C66 C -0.31699 0.18379 -0.16207
 C67 C -0.29877 0.16850 -0.18603
 H68 H -0.30812 0.23031 -0.13802
 H69 H -0.30282 0.14484 -0.19580
 N70 N -0.20620 0.27739 -0.18675
 N71 N -0.18388 0.27356 -0.21023
 C72 C -0.16144 0.29682 -0.20725
 C73 C -0.17022 0.31610 -0.18079
 C74 C -0.19853 0.30322 -0.16818
 H75 H -0.13951 0.29871 -0.22202
 H76 H -0.21160 0.31115 -0.14612
 H77 H -0.20453 0.21990 -0.19717
 H78 H -0.23203 0.23578 -0.22923
 N79 N 0.16774 0.81405 -0.25187
 N80 N 0.18711 0.83807 -0.24452
 C81 C 0.17734 0.86371 -0.26061
 C82 C 0.15055 0.85503 -0.27884
 C83 C 0.14509 0.82346 -0.27298
 H84 H 0.18922 0.88666 -0.25981
 H85 H 0.12645 0.80833 -0.28368
 Cu86 Cu 0.22427 0.83286 -0.21640
 Cu87 Cu 0.17434 0.77212 -0.23485
 Cu88 Cu 0.22729 0.76906 -0.16857
 N89 N 0.26287 0.82324 -0.19195
 N90 N 0.26391 0.79826 -0.17290
 C91 C 0.29188 0.79879 -0.15628
 C92 C 0.30928 0.82530 -0.16594
 C93 C 0.29026 0.84043 -0.18834
 H94 H 0.29827 0.78208 -0.13742
 H95 H 0.29521 0.86308 -0.19960
 N96 N 0.19521 0.73553 -0.17839
 N97 N 0.17580 0.73627 -0.20428
 C98 C 0.15564 0.71098 -0.20336
 C99 C 0.16297 0.69360 -0.17575
 C100 C 0.18800 0.70970 -0.16033
 H101 H 0.13587 0.70660 -0.22027
 H102 H 0.19908 0.70386 -0.13691
 H103 H 0.18944 0.79241 -0.19115
 H104 H 0.22192 0.77540 -0.21809
 N105 N 0.19376 1.18246 0.74342
 N106 N 0.17488 1.20682 0.74413
 C107 C 0.15480 1.20455 0.71788
 C108 C 0.16167 1.17741 0.69998
 C109 C 0.18636 1.16389 0.71680
 H110 H 0.13592 1.22075 0.71277
 H111 H 0.19731 1.14166 0.71079
 Cu112 Cu 0.17718 1.23816 0.78041
 Cu113 Cu 0.22471 1.17514 0.77832
 Cu114 Cu 0.22769 1.22849 0.84478
 N115 N 0.17869 1.26737 0.81863
 N116 N 0.19834 1.26346 0.84371
 C117 C 0.19338 1.28604 0.86722
 C118 C 0.16952 1.30506 0.85609
 C119 C 0.16062 1.29264 0.82533
 H120 H 0.20558 1.28797 0.89098
 H121 H 0.14170 1.30084 0.80961
 N122 N 0.25562 1.19168 0.84138
 N123 N 0.25449 1.17145 0.81589
 C124 C 0.27570 1.14862 0.82095
 C125 C 0.29081 1.15490 0.85089
 C126 C 0.27767 1.18223 0.86333
 H127 H 0.27960 1.12863 0.80440
 H128 H 0.28350 1.19408 0.88676
 H129 H 0.19935 1.19816 0.81604
 H130 H 0.23132 1.22172 0.79357
 N131 N 0.82578 0.82294 0.74843
 N132 N 0.84553 0.79928 0.74929
 C133 C 0.86740 0.80241 0.72411
 C134 C 0.86070 0.82933 0.70678
 C135 C 0.83430 0.84181 0.72281
 H136 H 0.88706 0.78677 0.71916
 H137 H 0.82267 0.86344 0.71676
 Cu138 Cu 0.84099 0.76770 0.78425
 Cu139 Cu 0.79162 0.82874 0.78167
 Cu140 Cu 0.78319 0.77270 0.84387
 N141 N 0.83585 0.73598 0.81899
 N142 N 0.81315 0.73810 0.84218
 C143 C 0.81563 0.71416 0.86374
 C144 C 0.84109 0.69614 0.85335
 C145 C 0.85352 0.71057 0.82505
 H146 H 0.80065 0.71065 0.88583
 H147 H 0.87439 0.70351 0.81061
 N148 N 0.75526 0.80946 0.84121
 N149 N 0.75848 0.83070 0.81742
 C150 C 0.73680 0.85329 0.82291
 C151 C 0.71925 0.84585 0.85135
 C152 C 0.73140 0.81804 0.86245
 H153 H 0.73429 0.87397 0.80778
 H154 H 0.72379 0.80536 0.88462
 H155 H 0.81292 0.80520 0.82033
 H156 H 0.78491 0.78153 0.79321
 N157 N 0.20047 0.81152 1.27749
 N158 N 0.18086 0.78673 1.27669
 C159 C 0.15775 0.79033 1.30041
 C160 C 0.16350 0.81877 1.31674
 C161 C 0.19061 0.83169 1.30162
 H162 H 0.13782 0.77397 1.30480
 H163 H 0.20170 0.85448 1.30704
 Cu164 Cu 0.18645 0.75258 1.24408
 Cu165 Cu 0.23598 0.81691 1.24593
 Cu166 Cu 0.24258 0.76133 1.18229
 N167 N 0.18850 0.72388 1.20545
 N168 N 0.21045 0.72729 1.18159
 C169 C 0.20571 0.70483 1.15782
 C170 C 0.17954 0.68640 1.16744
 C171 C 0.16904 0.69905 1.19763
 H172 H 0.21969 0.70257 1.13487
 H173 H 0.14836 0.69126 1.21234
 N174 N 0.27293 0.79750 1.18723
 N175 N 0.27047 0.81863 1.21171
 C176 C 0.29348 0.84121 1.20749
 C177 C 0.31115 0.83381 1.17912
 C178 C 0.29760 0.80610 1.16675
 H179 H 0.29645 0.86212 1.22307
 H180 H 0.30447 0.79383 1.14390
 H181 H 0.21219 0.79197 1.20744
 H182 H 0.24167 0.77021 1.23273
 N183 N 0.81420 1.17721 1.27212
 N184 N 0.83420 1.20170 1.27066
 C185 C 0.85781 1.19809 1.29303
 C186 C 0.85201 1.16999 1.30924
 C187 C 0.82432 1.15729 1.29545
 H188 H 0.87809 1.21417 1.29668
 H189 H 0.81292 1.13484 1.30130
 Cu190 Cu 0.82791 1.23475 1.23815
 Cu191 Cu 0.77764 1.17188 1.24235
 Cu192 Cu 0.76639 1.23064 1.18440
 N193 N 0.82135 1.26784 1.20581
 N194 N 0.79722 1.26604 1.18480
 C195 C 0.79920 1.29075 1.16399
 C196 C 0.82586 1.30890 1.17258
 C197 C 0.83949 1.29377 1.19901
 H198 H 0.78320 1.29457 1.14339
 H199 H 0.86161 1.30057 1.21142
 N200 N 0.73780 1.19298 1.18804
 N201 N 0.74207 1.17068 1.21017
 C202 C 0.71953 1.14770 1.20566
 C203 C 0.70030 1.15605 1.17961
 C204 C 0.71240 1.18474 1.16887
 H205 H 0.71769 1.12609 1.21964
 H206 H 0.70381 1.19814 1.14812
 H207 H 0.79704 1.19778 1.20301
 H208 H 0.77132 1.21916 1.23407
 O209 O 0.53193 0.96868 0.93386
 O210 O 0.46916 0.98747 1.07064
 O211 O 0.56274 0.98011 1.02305
 O212 O 0.45664 0.94761 0.97453
 O213 O 0.51943 0.96256 1.04681
 O214 O 0.47190 0.96898 0.92846
 O215 O 0.46082 0.95559 1.03153
 O216 O 0.56766 0.99430 0.96403
 C217 C 0.56012 0.97235 0.94373
 C218 C 0.45551 0.96285 1.06116
 C219 C 0.54821 0.95920 1.03951
 C220 C 0.45858 0.94678 0.94367
 O221 O 0.47245 1.02957 0.93309
 O222 O 0.52517 1.01340 1.08097
 O223 O 0.54350 1.05161 0.98006
 O224 O 0.44044 1.01733 1.02579
 O225 O 0.48433 1.03989 1.04496
 O226 O 0.53316 1.03047 0.93201
 O227 O 0.43535 1.00687 0.96517
 O228 O 0.54235 1.03937 1.03791
 Co229 Co 0.50236 0.99933 0.93773
 Co230 Co 0.50285 1.00142 1.04400
 Co231 Co 0.54953 1.01470 1.00066
 Co232 Co 0.45236 0.98330 0.99907
 O233 O 0.50045 0.99857 0.99306
 C234 C 0.44386 1.02684 0.94325
 C235 C 0.54620 1.03297 1.06843
 C236 C 0.54309 1.05346 0.94916
 C237 C 0.45477 1.04068 1.03962
 O238 O 0.02964 0.47019 0.06518
 O239 O 0.01549 0.52292 -0.08154
 O240 O 0.01609 0.43960 -0.02733
 O241 O 0.05276 0.54037 0.02043
 O242 O 0.04081 0.48207 -0.04548
 O243 O 0.03056 0.52988 0.06793
 O244 O 0.04139 0.53934 -0.03770
 O245 O 0.00521 0.43466 0.03297
 C246 C 0.02628 0.44241 0.05442
 C247 C 0.03563 0.54306 -0.06843
 C248 C 0.04055 0.45296 -0.04067
 C249 C 0.05391 0.54062 0.05137
 O250 O -0.03212 0.52879 0.06549
 O251 O -0.01285 0.46885 -0.07195
 O252 O -0.05481 0.45735 0.02371
 O253 O -0.01884 0.56052 -0.02420
 O254 O -0.03713 0.51869 -0.04867
 O255 O -0.03208 0.46971 0.06993
 O256 O -0.00606 0.56413 0.03537
 O257 O -0.04619 0.46146 -0.03337
 Co258 Co -0.00109 0.49970 0.06123
 Co259 Co 0.00206 0.50131 -0.04504
 Co260 Co -0.01842 0.45215 -0.00075
 Co261 Co 0.01556 0.54667 -0.00098
 O262 O -0.00171 0.49874 0.00579
 C263 C -0.02832 0.55650 0.05580
 C264 C -0.03859 0.45642 -0.06298
 C265 C -0.05517 0.45759 0.05462
 C266 C -0.03993 0.54703 -0.04164
 O267 O 1.06081 0.03223 0.46975
 O268 O 0.92855 0.01056 0.53310
 O269 O 0.97560 0.01943 0.43603
 O270 O 1.01957 0.05340 0.54683
 O271 O 0.95175 0.03604 0.48069
 O272 O 1.06432 0.03295 0.53264
 O273 O 0.96511 0.04377 0.54166
 O274 O 1.03245 0.00623 0.43225
 C275 C 1.05259 0.02770 0.44007
 C276 C 0.93681 0.03563 0.54679
 C277 C 0.95903 0.03972 0.45069
 C278 C 1.04919 0.05476 0.54606
 O279 O 1.06058 -0.02776 0.53328
 O280 O 0.91988 -0.01534 0.47543
 O281 O 1.01738 -0.05122 0.45752
 O282 O 0.97143 -0.01762 0.56443
 O283 O 0.95444 -0.04113 0.51870
 O284 O 1.06298 -0.02939 0.47004
 O285 O 1.02902 -0.00521 0.57072
 O286 O 0.96158 -0.04012 0.45781
 Co287 Co 1.05653 0.00200 0.50132
 Co288 Co 0.95493 -0.00268 0.49876
 Co289 Co 0.99721 -0.01474 0.45067
 Co290 Co 0.99655 0.01712 0.55171
 O291 O 1.00353 0.00159 0.50194
 C292 C 1.05039 -0.02471 0.56282
 C293 C 0.93234 -0.03415 0.45344
 C294 C 1.04704 -0.05233 0.45852
 C295 C 0.95896 -0.04155 0.54973
 C296 C 1.14081 0.12384 0.29747
 C297 C 1.12747 0.10908 0.31940
 C298 C 1.11149 0.09202 0.34499
 C299 C 1.09771 0.07752 0.36682
 C300 C 1.08161 0.06049 0.39235
 C301 C 1.06811 0.04571 0.41415
 C302 C 0.83699 -0.13022 0.31551
 C303 C 0.84959 -0.11533 0.33791
 C304 C 0.86539 -0.09814 0.36365
 C305 C 0.87970 -0.08356 0.38514
 C306 C 0.89731 -0.06650 0.40966
 C307 C 0.91299 -0.05183 0.43001
 C308 C 0.83533 0.14126 0.66889
 C309 C 0.84840 0.12485 0.64823
 C310 C 0.86474 0.10567 0.62482
 C311 C 0.87967 0.08936 0.60557
 C312 C 0.89834 0.07041 0.58399
 C313 C 0.91533 0.05439 0.56645
 C314 C 1.13361 -0.12589 0.69830
 C315 C 1.11969 -0.11019 0.67856
 C316 C 1.10385 -0.09210 0.65487
 C317 C 1.09076 -0.07675 0.63421
 C318 C 1.07603 -0.05877 0.60964
 C319 C 1.06399 -0.04329 0.58839
 C320 C 0.32898 1.15180 1.12121
 C321 C 0.35121 1.13932 1.10721
 C322 C 0.37624 1.12283 1.09122
 C323 C 0.39654 1.10692 1.07811
 C324 C 0.41877 1.08607 1.06361
 C325 C 0.43621 1.06635 1.05211
 C326 C 0.33610 0.83773 0.84877
 C327 C 0.35892 0.85023 0.86222
 C328 C 0.38415 0.86680 0.87854
 C329 C 0.40418 0.88265 0.89294
 C330 C 0.42559 0.90315 0.91027
 C331 C 0.44188 0.92226 0.92539
 C332 C 0.66604 0.84540 1.12281
 C333 C 0.64526 0.85840 1.10801
 C334 C 0.62183 0.87548 1.09137
 C335 C 0.60279 0.89183 1.07792
 C336 C 0.58191 0.91311 1.06323
 C337 C 0.56554 0.93315 1.05173
 C338 C 0.65788 1.17086 0.85544
 C339 C 0.63642 1.15759 0.87064
 C340 C 0.61268 1.13976 0.88801
 C341 C 0.59386 1.12261 0.90254
 C342 C 0.57383 1.10039 0.91916
 C343 C 0.55864 1.07976 0.93305
 C344 C 0.13418 0.30965 0.12356
 C345 C 0.11893 0.33058 0.11219
 C346 C 0.10021 0.35473 0.09948
 C347 C 0.08366 0.37511 0.08901
 C348 C 0.06382 0.39872 0.07703
 C349 C 0.04669 0.41874 0.06681
 C350 C -0.15086 0.34081 -0.16575
 C351 C -0.13405 0.36074 -0.15249
 C352 C -0.11389 0.38310 -0.13607
 C353 C -0.09645 0.40133 -0.12111
 C354 C -0.07601 0.42164 -0.10233
 C355 C -0.05872 0.43806 -0.08507
 C356 C 0.14441 0.66770 -0.16234
 C357 C 0.12823 0.64673 -0.15036
 C358 C 0.10880 0.62307 -0.13537
 C359 C 0.09197 0.60360 -0.12161
 C360 C 0.07218 0.58167 -0.10436
 C361 C 0.05535 0.56365 -0.08856
 C362 C -0.13969 0.68751 0.13059
 C363 C -0.12337 0.66717 0.11848
 C364 C -0.10373 0.64356 0.10476
 C365 C -0.08661 0.62353 0.09335
 C366 C -0.06630 0.60019 0.08025
 C367 C -0.04888 0.58026 0.06913
 C368 C 1.14412 0.16357 0.67238
 C369 C 1.12941 0.15068 0.64996
 C370 C 1.11219 0.13401 0.62470
 C371 C 1.09754 0.11832 0.60426
 C372 C 1.08048 0.09812 0.58186
 C373 C 1.06609 0.07924 0.56439
 C374 C 0.87871 -0.15651 0.67956
 C375 C 0.89307 -0.14306 0.65723
 C376 C 0.90903 -0.12546 0.63183
 C377 C 0.92188 -0.10884 0.61102
 C378 C 0.93596 -0.08742 0.58790
 C379 C 0.94704 -0.06744 0.56954
 C380 C 1.14389 -0.16634 0.34200
 C381 C 1.12793 -0.15255 0.36266
 C382 C 1.10975 -0.13486 0.38604
 C383 C 1.09466 -0.11834 0.40503
 C384 C 1.07749 -0.09724 0.42579
 C385 C 1.06328 -0.07763 0.44186
 C386 C 0.87189 0.15516 0.33332
 C387 C 0.88781 0.14133 0.35310
 C388 C 0.90549 0.12346 0.37571
 C389 C 0.91962 0.10672 0.39438
 C390 C 0.93491 0.08531 0.41534
 C391 C 0.94671 0.06542 0.43221
 C392 C 0.15436 0.33036 -0.12581
 C393 C 0.14051 0.35113 -0.11106
 C394 C 0.12288 0.37487 -0.09441
 C395 C 0.10649 0.39445 -0.08080
 C396 C 0.08555 0.41636 -0.06567
 C397 C 0.06602 0.43390 -0.05364
 C398 C -0.16066 0.33543 0.15475
 C399 C -0.14833 0.35704 0.13957
 C400 C -0.13246 0.38142 0.12158
 C401 C -0.11745 0.40122 0.10610
 C402 C -0.09794 0.42293 0.08797
 C403 C -0.07947 0.43986 0.07260
 C404 C -0.14571 0.66993 -0.12953
 C405 C -0.13365 0.64850 -0.11514
 C406 C -0.11807 0.62418 -0.09838
 C407 C -0.10325 0.60430 -0.08434
 C408 C -0.08378 0.58236 -0.06841
 C409 C -0.06505 0.56514 -0.05556
 C410 C 0.16466 0.66097 0.14857
 C411 C 0.15146 0.64002 0.13280
 C412 C 0.13474 0.61611 0.11461
 C413 C 0.11900 0.59650 0.09948
 C414 C 0.09853 0.57488 0.08227
 C415 C 0.07918 0.55806 0.06798
 C416 C 0.31462 1.13604 0.86620
 C417 C 0.33449 1.11976 0.87854
 C418 C 0.35766 1.10030 0.89258
 C419 C 0.37738 1.08351 0.90436
 C420 C 0.40046 1.06372 0.91802
 C421 C 0.42021 1.04683 0.92958
 C422 C 0.33553 0.85330 1.16322
 C423 C 0.35534 0.87008 1.14948
 C424 C 0.37787 0.89002 1.13276
 C425 C 0.39658 0.90708 1.11782
 C426 C 0.41790 0.92691 1.09938
 C427 C 0.43550 0.94355 1.08263
 C428 C 0.67483 1.13729 1.16478
 C429 C 0.65389 1.12125 1.15199
 C430 C 0.62986 1.10227 1.13639
 C431 C 0.60981 1.08606 1.12237
 C432 C 0.58690 1.06719 1.10491
 C433 C 0.56793 1.05135 1.08895
 C434 C 0.69445 0.86430 0.86684
 C435 C 0.67381 0.88028 0.87936
 C436 C 0.64973 0.89944 0.89353
 C437 C 0.62921 0.91603 0.90531
 C438 C 0.60517 0.93563 0.91882
 C439 C 0.58464 0.95242 0.93022
   
