data_POSCAR
  _audit_creation_date              2014-09-24
  _audit_creation_method            'ToBaCCo'
  _symmetry_space_group_name_H-M    'P1'
  _symmetry_Int_Tables_number       1
  _symmetry_cell_setting            triclinic
  loop_
  _symmetry_equiv_pos_as_xyz
 x,y,z
_cell_length_a 45.1553
_cell_length_b 46.0091
_cell_length_c 44.3735
_cell_angle_alpha 89.894900
_cell_angle_beta 89.819700
_cell_angle_gamma 90.069900
loop_
  _atom_site_label
  _atom_site_type_symbol
  _atom_site_fract_x
  _atom_site_fract_y
  _atom_site_fract_z
C1 C 0.32887 0.32400 -0.00166
 C2 C 0.32904 0.32301 0.02907
 C3 C 0.30747 0.33985 0.04753
 C4 C 0.35232 0.30711 0.04573
 C5 C 0.34795 0.30456 -0.02034
 C6 C 0.30962 0.34494 -0.01804
 C7 C 0.31779 0.35971 0.06903
 C8 C 0.29800 0.37755 0.08464
 C9 C 0.26729 0.37557 0.07942
 C10 C 0.25698 0.35516 0.05840
 C11 C 0.27683 0.33729 0.04279
 C12 C 0.38213 0.31533 0.04285
 C13 C 0.40387 0.30153 0.06002
 C14 C 0.39621 0.27889 0.07978
 C15 C 0.36633 0.27063 0.08258
 C16 C 0.34452 0.28488 0.06590
 C17 C 0.34893 0.27449 -0.01507
 C18 C 0.36591 0.25635 -0.03355
 C19 C 0.38189 0.26758 -0.05837
 C20 C 0.38080 0.29796 -0.06344
 C21 C 0.36404 0.31603 -0.04469
 C22 C 0.29082 0.33512 -0.04101
 C23 C 0.27195 0.35452 -0.05575
 C24 C 0.27157 0.38406 -0.04765
 C25 C 0.29060 0.39390 -0.02496
 C26 C 0.30991 0.37465 -0.01073
 H27 H 0.34133 0.36223 0.07287
 H28 H 0.30708 0.39354 0.09986
 H29 H 0.23351 0.35323 0.05382
 H30 H 0.26835 0.32191 0.02649
 H31 H 0.38842 0.33282 0.02775
 H32 H 0.42673 0.30839 0.05777
 H33 H 0.32154 0.27860 0.06867
 H34 H 0.33613 0.26491 0.00307
 H35 H 0.36600 0.23326 -0.02863
 H36 H 0.39299 0.30845 -0.08135
 H37 H 0.36367 0.33917 -0.04921
 H38 H 0.29034 0.31234 -0.04709
 H39 H 0.25716 0.34629 -0.07289
 H40 H 0.29074 0.41660 -0.01851
 H41 H 0.32482 0.38286 0.00632
 H42 H 0.35974 0.25368 0.09819
 C43 C 0.67800 0.67727 -0.02679
 C44 C 0.67503 0.67686 0.00379
 C45 C 0.69440 0.65834 0.02289
 C46 C 0.65192 0.69415 0.01945
 C47 C 0.66079 0.69742 -0.04629
 C48 C 0.69721 0.65591 -0.04218
 C49 C 0.68178 0.63806 0.04274
 C50 C 0.69979 0.62009 0.06026
 C51 C 0.73081 0.62205 0.05837
 C52 C 0.74342 0.64308 0.03907
 C53 C 0.72535 0.66100 0.02151
 C54 C 0.62221 0.69296 0.01020
 C55 C 0.60099 0.71057 0.02393
 C56 C 0.60883 0.72879 0.04790
 C57 C 0.63833 0.72917 0.05796
 C58 C 0.65968 0.71195 0.04382
 C59 C 0.66048 0.72748 -0.04082
 C60 C 0.64252 0.74587 -0.05800
 C61 C 0.62462 0.73450 -0.08112
 C62 C 0.62618 0.70466 -0.08747
 C63 C 0.64403 0.68630 -0.07024
 C64 C 0.72176 0.66529 -0.05897
 C65 C 0.74020 0.64501 -0.07301
 C66 C 0.73396 0.61511 -0.07076
 C67 C 0.70890 0.60593 -0.05460
 C68 C 0.69077 0.62615 -0.04021
 H69 H 0.65794 0.63582 0.04432
 H70 H 0.68943 0.60437 0.07513
 H71 H 0.76712 0.64614 0.03766
 H72 H 0.73550 0.67706 0.00688
 H73 H 0.61555 0.67874 -0.00798
 H74 H 0.57837 0.70992 0.01590
 H75 H 0.68243 0.71305 0.05141
 H76 H 0.67386 0.73663 -0.02298
 H77 H 0.64292 0.76889 -0.05317
 H78 H 0.61296 0.69538 -0.10538
 H79 H 0.64409 0.66323 -0.07505
 H80 H 0.72676 0.68825 -0.06090
 H81 H 0.75891 0.65276 -0.08605
 H82 H 0.70351 0.58303 -0.05290
 H83 H 0.67163 0.61866 -0.02762
 H84 H 0.64513 0.74342 0.07604
 C85 C 0.68186 0.31916 1.01842
 C86 C 0.67929 0.32063 0.98787
 C87 C 0.69783 0.34096 0.96988
 C88 C 0.65755 0.30259 0.97097
 C89 C 0.66476 0.29790 1.03671
 C90 C 0.70012 0.34042 1.03528
 C91 C 0.68434 0.36133 0.95084
 C92 C 0.70158 0.38045 0.93369
 C93 C 0.73263 0.37958 0.93519
 C94 C 0.74612 0.35860 0.95380
 C95 C 0.72884 0.33953 0.97100
 C96 C 0.62746 0.30205 0.97915
 C97 C 0.60737 0.28482 0.96324
 C98 C 0.61671 0.26857 0.93824
 C99 C 0.64675 0.26947 0.92973
 C100 C 0.66692 0.28636 0.94593
 C101 C 0.66623 0.26795 1.03084
 C102 C 0.64849 0.24841 1.04707
 C103 C 0.62894 0.25860 1.06951
 C104 C 0.62844 0.28848 1.07594
 C105 C 0.64617 0.30789 1.05980
 C106 C 0.72539 0.33124 1.05080
 C107 C 0.74196 0.35104 1.06770
 C108 C 0.73298 0.38023 1.07043
 C109 C 0.70759 0.38933 1.05441
 C110 C 0.69151 0.36962 1.03693
 H111 H 0.66043 0.36256 0.94946
 H112 H 0.69059 0.39612 0.91933
 H113 H 0.76992 0.35636 0.95481
 H114 H 0.73964 0.32339 0.98493
 H115 H 0.61951 0.31499 0.99785
 H116 H 0.58435 0.28453 0.97020
 H117 H 0.68998 0.28652 0.93915
 H118 H 0.68089 0.25977 1.01346
 H119 H 0.65034 0.22556 1.04188
 H120 H 0.61388 0.29697 1.09325
 H121 H 0.64473 0.33088 1.06479
 H122 H 0.73231 0.30873 1.04974
 H123 H 0.76144 0.34324 1.07940
 H124 H 0.70019 0.41165 1.05460
 H125 H 0.67202 0.37702 1.02500
 H126 H 0.65481 0.25671 0.91096
 C127 C 0.32650 0.67177 1.00342
 C128 C 0.32389 0.67251 0.97282
 C129 C 0.30571 0.65077 0.95668
 C130 C 0.34060 0.69366 0.95388
 C131 C 0.34896 0.68958 1.01951
 C132 C 0.30707 0.65294 1.02238
 C133 C 0.31233 0.62107 0.95902
 C134 C 0.29584 0.60066 0.94296
 C135 C 0.27222 0.60957 0.92471
 C136 C 0.26577 0.63938 0.92219
 C137 C 0.28258 0.65983 0.93790
 C138 C 0.35846 0.68358 0.93020
 C139 C 0.37582 0.70293 0.91349
 C140 C 0.37573 0.73278 0.92003
 C141 C 0.35675 0.74306 0.94292
 C142 C 0.33934 0.72365 0.95964
 C143 C 0.34064 0.70584 1.04484
 C144 C 0.36140 0.72282 1.06006
 C145 C 0.39108 0.72413 1.04999
 C146 C 0.39928 0.70758 1.02471
 C147 C 0.37867 0.68997 1.01011
 C148 C 0.27614 0.65433 1.01996
 C149 C 0.25809 0.63750 1.03879
 C150 C 0.27042 0.61915 1.06089
 C151 C 0.30164 0.61779 1.06305
 C152 C 0.31960 0.63457 1.04409
 H153 H 0.33049 0.61378 0.97301
 H154 H 0.30138 0.57783 0.94496
 H155 H 0.24819 0.64695 0.90764
 H156 H 0.27751 0.68273 0.93555
 H157 H 0.35963 0.66058 0.92520
 H158 H 0.38991 0.69441 0.89579
 H159 H 0.32513 0.73195 0.97734
 H160 H 0.31787 0.70575 1.05259
 H161 H 0.35355 0.73560 1.07885
 H162 H 0.42189 0.70786 1.01642
 H163 H 0.38591 0.67682 0.99127
 H164 H 0.26593 0.66879 1.00377
 H165 H 0.23429 0.63920 1.03628
 H166 H 0.31274 0.60380 1.07894
 H167 H 0.34344 0.63319 1.04633
 H168 H 0.35510 0.76597 0.94798
 C169 C -0.02078 0.32422 0.31393
 C170 C 0.00928 0.32539 0.31321
 C171 C 0.02765 0.30654 0.33272
 C172 C 0.02540 0.34716 0.29471
 C173 C -0.03896 0.34456 0.29597
 C174 C -0.03692 0.30422 0.33453
 C175 C 0.02730 0.30994 0.36412
 C176 C 0.04572 0.29294 0.38223
 C177 C 0.06478 0.27227 0.36917
 C178 C 0.06450 0.26845 0.33781
 C179 C 0.04638 0.28575 0.31968
 C180 C 0.04370 0.36751 0.30897
 C181 C 0.05955 0.38787 0.29205
 C182 C 0.05759 0.38831 0.26047
 C183 C 0.03940 0.36758 0.24613
 C184 C 0.02342 0.34724 0.26317
 C185 C -0.05378 0.33464 0.27032
 C186 C -0.07167 0.35352 0.25369
 C187 C -0.07595 0.38247 0.26299
 C188 C -0.06063 0.39232 0.28879
 C189 C -0.04221 0.37354 0.30493
 C190 C -0.03269 0.27405 0.33326
 C191 C -0.04708 0.25566 0.35380
 C192 C -0.06620 0.26719 0.37609
 C193 C -0.07077 0.29745 0.37656
 C194 C -0.05638 0.31568 0.35607
 H195 H 0.01301 0.32597 0.37450
 H196 H 0.04494 0.29589 0.40642
 H197 H 0.07886 0.25255 0.32730
 H198 H 0.04689 0.28293 0.29545
 H199 H 0.04562 0.36770 0.33329
 H200 H 0.07348 0.40334 0.30373
 H201 H 0.00987 0.33127 0.25176
 H202 H -0.05139 0.31228 0.26313
 H203 H -0.08278 0.34518 0.23389
 H204 H -0.06205 0.41456 0.29640
 H205 H -0.03069 0.38150 0.32465
 H206 H -0.01811 0.26475 0.31643
 H207 H -0.04296 0.23266 0.35173
 H208 H -0.08537 0.30723 0.39311
 H209 H -0.06000 0.33890 0.35747
 H210 H 0.03780 0.36645 0.22188
 C211 C -0.00758 0.67342 0.68252
 C212 C 0.02256 0.67377 0.68494
 C213 C 0.04128 0.69387 0.66676
 C214 C 0.03868 0.65318 0.70492
 C215 C -0.02619 0.65391 0.70147
 C216 C -0.02364 0.69200 0.66047
 C217 C 0.06420 0.68244 0.64899
 C218 C 0.08144 0.70066 0.63092
 C219 C 0.07608 0.73067 0.63007
 C220 C 0.05372 0.74233 0.64865
 C221 C 0.03658 0.72405 0.66698
 C222 C 0.03380 0.62305 0.70322
 C223 C 0.04962 0.60400 0.72169
 C224 C 0.07114 0.61472 0.74163
 C225 C 0.07660 0.64470 0.74268
 C226 C 0.06037 0.66378 0.72466
 C227 C -0.02451 0.65451 0.73301
 C228 C -0.04136 0.63522 0.75044
 C229 C -0.06050 0.61491 0.73655
 C230 C -0.06266 0.61525 0.70490
 C231 C -0.04578 0.63450 0.68762
 C232 C -0.04781 0.70866 0.67018
 C233 C -0.06337 0.72611 0.64993
 C234 C -0.05494 0.72745 0.61928
 C235 C -0.03060 0.71072 0.60972
 C236 C -0.01558 0.69269 0.62989
 H237 H 0.06837 0.65926 0.64868
 H238 H 0.09871 0.69116 0.61710
 H239 H 0.04959 0.76546 0.64939
 H240 H 0.01951 0.73338 0.68114
 H241 H 0.01803 0.61424 0.68733
 H242 H 0.04566 0.58088 0.71963
 H243 H 0.06481 0.68688 0.72602
 H244 H -0.00996 0.66981 0.74413
 H245 H -0.03909 0.63669 0.77458
 H246 H -0.07723 0.60027 0.69331
 H247 H -0.04756 0.63387 0.66329
 H248 H -0.05446 0.70841 0.69367
 H249 H -0.08127 0.73907 0.65890
 H250 H -0.02351 0.71105 0.58637
 H251 H 0.00240 0.67935 0.62161
 H252 H 0.09338 0.65336 0.75758
 C253 C 1.01369 0.68195 0.31869
 C254 C 0.98349 0.68272 0.31803
 C255 C 0.96676 0.70226 0.33862
 C256 C 0.96567 0.66369 0.29787
 C257 C 1.03152 0.66353 0.29789
 C258 C 1.03019 0.69844 0.34192
 C259 C 0.94754 0.69048 0.36033
 C260 C 0.93261 0.70862 0.38058
 C261 C 0.93646 0.73900 0.37924
 C262 C 0.95546 0.75067 0.35720
 C263 C 0.97023 0.73252 0.33689
 C264 C 0.97070 0.63357 0.29643
 C265 C 0.95401 0.61609 0.27710
 C266 C 0.93143 0.62830 0.25936
 C267 C 0.92558 0.65814 0.26177
 C268 C 0.94264 0.67570 0.28068
 C269 C 1.02780 0.66497 0.26651
 C270 C 1.04379 0.64646 0.24739
 C271 C 1.06412 0.62614 0.25933
 C272 C 1.06832 0.62564 0.29076
 C273 C 1.05231 0.64404 0.30972
 C274 C 1.04404 0.72477 0.33457
 C275 C 1.05857 0.74094 0.35676
 C276 C 1.06027 0.73053 0.38670
 C277 C 1.04709 0.70354 0.39351
 C278 C 1.03177 0.68793 0.37151
 H279 H 0.94464 0.66716 0.36201
 H280 H 0.91880 0.69865 0.39765
 H281 H 0.95886 0.77393 0.35565
 H282 H 0.98454 0.74207 0.31993
 H283 H 0.98749 0.62354 0.31036
 H284 H 0.95834 0.59297 0.27658
 H285 H 0.93800 0.69877 0.28175
 H286 H 1.01230 0.68028 0.25682
 H287 H 1.03990 0.64846 0.22349
 H288 H 1.08383 0.61059 0.30092
 H289 H 1.05572 0.64252 0.33381
 H290 H 1.04318 0.73300 0.31170
 H291 H 1.06911 0.76100 0.34991
 H292 H 1.04806 0.69470 0.41614
 H293 H 1.02124 0.66754 0.37747
 H294 H 0.90801 0.66795 0.24868
 C295 C 1.01302 0.30922 0.68699
 C296 C 0.98299 0.31045 0.68790
 C297 C 0.96435 0.29196 0.66822
 C298 C 0.96765 0.33279 0.70605
 C299 C 1.03170 0.32887 0.70538
 C300 C 1.02878 0.29138 0.66446
 C301 C 0.94394 0.30501 0.64870
 C302 C 0.92726 0.28810 0.62897
 C303 C 0.93059 0.25778 0.62830
 C304 C 0.95035 0.24457 0.64866
 C305 C 0.96710 0.26157 0.66841
 C306 C 0.97049 0.36227 0.69849
 C307 C 0.95585 0.38338 0.71542
 C308 C 0.93854 0.37538 0.74039
 C309 C 0.93554 0.34576 0.74780
 C310 C 0.94987 0.32460 0.73055
 C311 C 1.02934 0.32945 0.73691
 C312 C 1.04649 0.34884 0.75372
 C313 C 1.06653 0.36782 0.73918
 C314 C 1.06894 0.36682 0.70766
 C315 C 1.05182 0.34753 0.69096
 C316 C 1.04749 0.26892 0.67384
 C317 C 1.06520 0.25437 0.65290
 C318 C 1.06541 0.26284 0.62240
 C319 C 1.04559 0.28478 0.61301
 C320 C 1.02744 0.29880 0.63389
 H321 H 0.94139 0.32841 0.64822
 H322 H 0.91202 0.29885 0.61379
 H323 H 0.95286 0.22124 0.64970
 H324 H 0.98228 0.25105 0.68381
 H325 H 0.98388 0.36884 0.67935
 H326 H 0.95815 0.40602 0.70910
 H327 H 0.94726 0.30186 0.73638
 H328 H 1.01407 0.31503 0.74844
 H329 H 1.04348 0.34902 0.77787
 H330 H 1.08409 0.38116 0.69583
 H331 H 1.05392 0.34756 0.66664
 H332 H 1.04877 0.26307 0.69745
 H333 H 1.07980 0.23736 0.66088
 H334 H 1.04368 0.29124 0.58968
 H335 H 1.01304 0.31617 0.62639
 H336 H 0.92164 0.33889 0.76641
 C337 C 0.32215 -0.01625 0.32367
 C338 C 0.32374 0.01325 0.32529
 C339 C 0.34515 0.02970 0.30637
 C340 C 0.30521 0.03027 0.34658
 C341 C 0.29966 -0.03346 0.34047
 C342 C 0.34471 -0.03283 0.30678
 C343 C 0.36662 0.04729 0.31997
 C344 C 0.38720 0.06237 0.30232
 C345 C 0.38670 0.06019 0.27075
 C346 C 0.36457 0.04312 0.25712
 C347 C 0.34402 0.02802 0.27483
 C348 C 0.30337 0.02254 0.37718
 C349 C 0.28508 0.03807 0.39675
 C350 C 0.26928 0.06229 0.38642
 C351 C 0.27188 0.07070 0.35605
 C352 C 0.28972 0.05477 0.33631
 C353 C 0.26931 -0.02744 0.33776
 C354 C 0.24857 -0.04292 0.35493
 C355 C 0.25772 -0.06495 0.37479
 C356 C 0.28817 -0.07114 0.37713
 C357 C 0.30882 -0.05572 0.35995
 C358 C 0.33729 -0.04677 0.27986
 C359 C 0.35866 -0.06250 0.26397
 C360 C 0.38777 -0.06514 0.27529
 C361 C 0.39471 -0.05144 0.30271
 C362 C 0.37352 -0.03512 0.31807
 H363 H 0.36766 0.04902 0.34429
 H364 H 0.40375 0.07561 0.31340
 H365 H 0.36261 0.04168 0.23290
 H366 H 0.32709 0.01512 0.26394
 H367 H 0.31589 0.00433 0.38587
 H368 H 0.28345 0.03130 0.42010
 H369 H 0.29100 0.06125 0.31286
 H370 H 0.26175 -0.01051 0.32265
 H371 H 0.22532 -0.03757 0.35282
 H372 H 0.29638 -0.08717 0.39284
 H373 H 0.33213 -0.06055 0.36262
 H374 H 0.31496 -0.04534 0.27112
 H375 H 0.35173 -0.07327 0.24355
 H376 H 0.41673 -0.05310 0.31221
 H377 H 0.37942 -0.02457 0.33903
 H378 H 0.25952 0.08900 0.34735
 C379 C 0.68077 -0.00787 0.68446
 C380 C 0.68198 0.02166 0.68457
 C381 C 0.66244 0.03925 0.70443
 C382 C 0.70105 0.03793 0.66323
 C383 C 0.69917 -0.02581 0.66379
 C384 C 0.65928 -0.02359 0.70377
 C385 C 0.64201 0.05851 0.69156
 C386 C 0.62281 0.07461 0.70976
 C387 C 0.62396 0.07212 0.74140
 C388 C 0.64455 0.05286 0.75420
 C389 C 0.66375 0.03671 0.73593
 C390 C 0.69556 0.03706 0.63215
 C391 C 0.71277 0.05366 0.61230
 C392 C 0.73580 0.07130 0.62331
 C393 C 0.74160 0.07158 0.65435
 C394 C 0.72407 0.05535 0.67422
 C395 C 0.73023 -0.02405 0.66385
 C396 C 0.74714 -0.04159 0.64456
 C397 C 0.73319 -0.06125 0.62475
 C398 C 0.70212 -0.06291 0.62499
 C399 C 0.68534 -0.04551 0.64429
 C400 C 0.66909 -0.03892 0.72911
 C401 C 0.64886 -0.05353 0.74765
 C402 C 0.61833 -0.05358 0.74071
 C403 C 0.60889 -0.03859 0.71476
 C404 C 0.62909 -0.02346 0.69670
 H405 H 0.64048 0.06058 0.66729
 H406 H 0.60669 0.08837 0.69881
 H407 H 0.64584 0.05035 0.77844
 H408 H 0.67957 0.02219 0.74633
 H409 H 0.67775 0.02379 0.62336
 H410 H 0.70822 0.05248 0.58840
 H411 H 0.72849 0.05628 0.69818
 H412 H 0.74139 -0.00936 0.67912
 H413 H 0.77095 -0.03980 0.64570
 H414 H 0.69067 -0.07784 0.61019
 H415 H 0.66143 -0.04730 0.64384
 H416 H 0.69244 -0.03936 0.73462
 H417 H 0.65760 -0.06538 0.76668
 H418 H 0.58570 -0.03827 0.70855
 H419 H 0.62125 -0.01183 0.67704
 H420 H 0.75934 0.08485 0.66329
 C421 C 0.31562 1.02124 0.67982
 C422 C 0.31361 0.99176 0.68284
 C423 C 0.33415 0.97537 0.70260
 C424 C 0.29238 0.97412 0.66488
 C425 C 0.29912 1.03713 0.65588
 C426 C 0.33480 1.03888 0.70006
 C427 C 0.36479 0.97619 0.69729
 C428 C 0.38391 0.95899 0.71440
 C429 C 0.37267 0.94068 0.73717
 C430 C 0.34211 0.94057 0.74302
 C431 C 0.32294 0.95745 0.72557
 C432 C 0.30282 0.95076 0.64760
 C433 C 0.28349 0.93488 0.62944
 C434 C 0.25327 0.94193 0.62810
 C435 C 0.24258 0.96469 0.64636
 C436 C 0.26198 0.98059 0.66458
 C437 C 0.28206 1.06160 0.66330
 C438 C 0.26563 1.07600 0.64116
 C439 C 0.26599 1.06611 0.61119
 C440 C 0.28347 1.04199 0.60371
 C441 C 0.30035 1.02800 0.62569
 C442 C 0.33221 1.03672 0.73153
 C443 C 0.35039 1.05332 0.75031
 C444 C 0.37123 1.07278 0.73809
 C445 C 0.37372 1.07495 0.70649
 C446 C 0.35554 1.05833 0.68774
 H447 H 0.37380 0.98973 0.67948
 H448 H 0.40745 0.96005 0.70984
 H449 H 0.33300 0.92678 0.76056
 H450 H 0.29934 0.95648 0.72987
 H451 H 0.32613 0.94524 0.64759
 H452 H 0.29234 0.91730 0.61593
 H453 H 0.25334 0.99810 0.67831
 H454 H 0.28092 1.06915 0.68638
 H455 H 0.25196 1.09425 0.64772
 H456 H 0.28416 1.03406 0.58075
 H457 H 0.31405 1.00974 0.61921
 H458 H 0.31603 1.02222 0.74157
 H459 H 0.34806 1.05107 0.77451
 H460 H 0.39007 1.08892 0.69604
 H461 H 0.35800 1.06026 0.66353
 H462 H 0.21933 0.97022 0.64694
 C463 C 0.68644 1.00196 0.32438
 C464 C 0.68380 0.97255 0.32211
 C465 C 0.65926 0.95944 0.30472
 C466 C 0.70321 0.95199 0.33876
 C467 C 0.70714 1.01617 0.34580
 C468 C 0.66779 1.02148 0.30572
 C469 C 0.62988 0.96321 0.31426
 C470 C 0.60691 0.94879 0.29954
 C471 C 0.61292 0.93085 0.27476
 C472 C 0.64236 0.92747 0.26492
 C473 C 0.66540 0.94150 0.28001
 C474 C 0.69032 0.92928 0.35545
 C475 C 0.70788 0.91051 0.37235
 C476 C 0.73866 0.91421 0.37330
 C477 C 0.75183 0.93622 0.35570
 C478 C 0.73422 0.95478 0.33832
 C479 C 0.72506 1.03918 0.33583
 C480 C 0.74400 1.05344 0.35571
 C481 C 0.74559 1.04484 0.38624
 C482 C 0.72790 1.02144 0.39597
 C483 C 0.70836 1.00776 0.37621
 C484 C 0.66872 1.01991 0.27417
 C485 C 0.65068 1.03790 0.25673
 C486 C 0.63119 1.05773 0.27062
 C487 C 0.63110 1.05984 0.30219
 C488 C 0.64924 1.04190 0.31959
 H489 H 0.62490 0.97664 0.33365
 H490 H 0.58443 0.95140 0.30769
 H491 H 0.64773 0.91314 0.24638
 H492 H 0.68804 0.93812 0.27270
 H493 H 0.66650 0.92647 0.35601
 H494 H 0.69728 0.89354 0.38549
 H495 H 0.74473 0.97156 0.32488
 H496 H 0.72451 1.04602 0.31246
 H497 H 0.75779 1.07055 0.34660
 H498 H 0.72844 1.01425 0.41924
 H499 H 0.69411 0.99065 0.38472
 H500 H 0.68349 1.00476 0.26308
 H501 H 0.65243 1.03635 0.23249
 H502 H 0.61661 1.07513 0.31347
 H503 H 0.64846 1.04360 0.34393
 H504 H 0.77562 0.93901 0.35516
 O505 O 0.85911 0.81145 0.48183
 O506 O 0.82413 0.86056 0.53746
 O507 O 0.86008 0.81563 0.54020
 O508 O 0.82386 0.85597 0.47881
 O509 O 0.78556 0.82619 0.48173
 O510 O 0.82089 0.78708 0.54431
 O511 O 0.78548 0.83119 0.54001
 O512 O 0.82091 0.78165 0.48581
 Cu513 Cu 0.84567 0.83891 0.50938
 Cu514 Cu 0.79938 0.80357 0.51325
 C515 C 0.84591 0.78810 0.47445
 C516 C 0.79865 0.85429 0.54798
 C517 C 0.84666 0.79446 0.55263
 C518 C 0.79855 0.84779 0.46971
 O519 O 0.18144 0.14695 0.52290
 O520 O 0.13456 0.18031 0.46427
 O521 O 0.18185 0.14741 0.46455
 O522 O 0.13369 0.17863 0.52277
 O523 O 0.16103 0.21851 0.52278
 O524 O 0.20988 0.18677 0.46505
 O525 O 0.16269 0.21961 0.46515
 O526 O 0.20878 0.18677 0.52422
 Cu527 Cu 0.15515 0.15932 0.49345
 Cu528 Cu 0.18861 0.20677 0.49435
 C529 C 0.20303 0.16132 0.53363
 C530 C 0.14030 0.20594 0.45525
 C531 C 0.20419 0.16154 0.45509
 C532 C 0.13881 0.20413 0.53223
 O533 O 0.10766 0.85393 0.53080
 O534 O 0.15388 0.89041 0.47339
 O535 O 0.10956 0.85433 0.47168
 O536 O 0.15289 0.88958 0.53192
 O537 O 0.18401 0.85260 0.53165
 O538 O 0.13951 0.81645 0.47320
 O539 O 0.18403 0.85266 0.47298
 O540 O 0.13910 0.81724 0.53172
 Cu541 Cu 0.12781 0.87574 0.50197
 Cu542 Cu 0.16473 0.83101 0.50241
 C543 C 0.11565 0.82945 0.54120
 C544 C 0.17679 0.87769 0.46335
 C545 C 0.11711 0.82934 0.46229
 C546 C 0.17609 0.87718 0.54178
 O547 O 0.83341 0.13043 0.46572
 O548 O 0.87258 0.16805 0.52705
 O549 O 0.83272 0.12720 0.52405
 O550 O 0.87413 0.17071 0.46823
 O551 O 0.83983 0.20483 0.47053
 O552 O 0.79671 0.15964 0.52338
 O553 O 0.83663 0.20048 0.52907
 O554 O 0.79973 0.16524 0.46517
 Cu555 Cu 0.85681 0.14578 0.49616
 Cu556 Cu 0.81474 0.18595 0.49730
 C557 C 0.81003 0.14164 0.45488
 C558 C 0.86104 0.19057 0.53871
 C559 C 0.80738 0.13571 0.53272
 C560 C 0.86404 0.19522 0.45991
 O561 O 0.47120 0.87703 0.82991
 O562 O 0.52748 0.83105 0.86641
 O563 O 0.52898 0.87489 0.82929
 O564 O 0.46977 0.83219 0.86624
 O565 O 0.46875 0.80264 0.82711
 O566 O 0.52767 0.84510 0.79032
 O567 O 0.52660 0.80119 0.82753
 O568 O 0.47065 0.84742 0.79081
 Cu569 Cu 0.49939 0.85677 0.85189
 Cu570 Cu 0.49827 0.82100 0.80514
 C571 C 0.46169 0.87031 0.80395
 C572 C 0.53668 0.80831 0.85318
 C573 C 0.53827 0.86726 0.80340
 C574 C 0.45926 0.81003 0.85292
 O575 O 0.53923 0.15889 0.13038
 O576 O 0.48193 0.11823 0.17272
 O577 O 0.48136 0.15607 0.12927
 O578 O 0.53939 0.11922 0.17266
 O579 O 0.53734 0.15354 0.20732
 O580 O 0.48101 0.19195 0.16229
 O581 O 0.47976 0.15389 0.20591
 O582 O 0.53848 0.19295 0.16539
 Cu583 Cu 0.51070 0.13463 0.14778
 Cu584 Cu 0.50898 0.17660 0.18862
 C585 C 0.54871 0.18284 0.14095
 C586 C 0.47102 0.12932 0.19652
 C587 C 0.47141 0.18032 0.13824
 C588 C 0.54798 0.12980 0.19756
 O589 O 0.52431 0.12728 0.83985
 O590 O 0.46736 0.16866 0.88142
 O591 O 0.46663 0.12846 0.83956
 O592 O 0.52488 0.16769 0.88123
 O593 O 0.52633 0.20111 0.84547
 O594 O 0.46721 0.16259 0.80456
 O595 O 0.46888 0.20288 0.84655
 O596 O 0.52486 0.16098 0.80439
 Cu597 Cu 0.49564 0.14462 0.86401
 Cu598 Cu 0.49676 0.18525 0.82169
 C599 C 0.53423 0.13702 0.81499
 C600 C 0.45887 0.19314 0.87143
 C601 C 0.45718 0.13871 0.81481
 C602 C 0.53554 0.19106 0.87042
 O603 O 0.46889 0.81905 0.12524
 O604 O 0.52635 0.86875 0.15325
 O605 O 0.52591 0.81909 0.12529
 O606 O 0.46826 0.86856 0.15340
 O607 O 0.46891 0.84576 0.19725
 O608 O 0.52603 0.79593 0.16895
 O609 O 0.52597 0.84558 0.19690
 O610 O 0.46807 0.79636 0.16917
 Cu611 Cu 0.49737 0.84631 0.13492
 Cu612 Cu 0.49726 0.81851 0.18745
 C613 C 0.45876 0.79924 0.14238
 C614 C 0.53590 0.86562 0.17992
 C615 C 0.53560 0.79897 0.14222
 C616 C 0.45886 0.86561 0.18021
 O617 O 0.87307 0.52410 0.82936
 O618 O 0.82950 0.46959 0.87106
 O619 O 0.87163 0.46738 0.83094
 O620 O 0.83030 0.52608 0.86851
 O621 O 0.79674 0.52457 0.83242
 O622 O 0.83911 0.46768 0.79385
 O623 O 0.79694 0.46822 0.83406
 O624 O 0.83962 0.52418 0.79316
 Cu625 Cu 0.85450 0.49681 0.85364
 Cu626 Cu 0.81481 0.49607 0.80967
 C627 C 0.86363 0.53365 0.80430
 C628 C 0.80581 0.45959 0.85969
 C629 C 0.86242 0.45768 0.80586
 C630 C 0.80635 0.53515 0.85688
 O631 O 0.16725 0.47597 0.12544
 O632 O 0.12683 0.53600 0.16288
 O633 O 0.16865 0.53240 0.12178
 O634 O 0.12434 0.47933 0.16485
 O635 O 0.15760 0.47997 0.20121
 O636 O 0.20227 0.53260 0.15779
 O637 O 0.16061 0.53655 0.19874
 O638 O 0.20022 0.47648 0.16206
 Cu639 Cu 0.14338 0.50596 0.14013
 Cu640 Cu 0.18344 0.50657 0.18362
 C641 C 0.19070 0.46605 0.13745
 C642 C 0.13690 0.54636 0.18737
 C643 C 0.19325 0.54115 0.13215
 C644 C 0.13347 0.47052 0.19032
 O645 O 0.82916 0.53441 0.12368
 O646 O 0.86976 0.47710 0.16453
 O647 O 0.82915 0.47769 0.12302
 O648 O 0.87017 0.53344 0.16567
 O649 O 0.83498 0.53379 0.20035
 O650 O 0.79425 0.47774 0.15799
 O651 O 0.83542 0.47753 0.20009
 O652 O 0.79449 0.53413 0.15888
 Cu653 Cu 0.85299 0.50576 0.14065
 Cu654 Cu 0.81127 0.50562 0.18281
 C655 C 0.80478 0.54386 0.13421
 C656 C 0.85978 0.46803 0.18960
 C657 C 0.80455 0.46845 0.13312
 C658 C 0.85974 0.54283 0.19046
 O659 O 0.18003 0.51826 0.86242
 O660 O 0.13898 0.45828 0.82754
 O661 O 0.18398 0.46177 0.86384
 O662 O 0.13636 0.51450 0.82437
 O663 O 0.16889 0.51637 0.78711
 O664 O 0.21397 0.46063 0.82442
 O665 O 0.16912 0.45980 0.78826
 O666 O 0.21268 0.51721 0.82526
 Cu667 Cu 0.15673 0.48820 0.84846
 Cu668 Cu 0.19432 0.48861 0.80240
 C669 C 0.20351 0.52773 0.85002
 C670 C 0.14683 0.44905 0.80179
 C671 C 0.20685 0.45191 0.85057
 C672 C 0.14472 0.52451 0.79900
 C673 C 0.24572 0.39550 0.09406
 C674 C 0.25129 0.40927 0.12010
 C675 C 0.23165 0.43093 0.13460
 C676 C 0.20726 0.44258 0.12225
 H677 H 0.27149 0.40460 0.13217
 H678 H 0.23885 0.43855 0.15647
 H679 H 0.22465 0.39844 0.08298
 H680 H 0.19960 0.43575 0.10033
 C681 C 0.74885 0.60218 0.07731
 C682 C 0.77763 0.59642 0.07232
 C683 C 0.79522 0.57545 0.09026
 C684 C 0.78757 0.56596 0.11781
 H685 H 0.78882 0.60586 0.05309
 H686 H 0.81561 0.56779 0.08012
 H687 H 0.73722 0.59073 0.09505
 H688 H 0.76789 0.57409 0.12884
 C689 C 0.74990 0.40032 0.91642
 C690 C 0.77827 0.40735 0.92179
 C691 C 0.79547 0.42869 0.90388
 C692 C 0.78804 0.43789 0.87621
 H693 H 0.78944 0.39848 0.94124
 H694 H 0.81567 0.43665 0.91408
 H695 H 0.73808 0.41116 0.89848
 H696 H 0.76860 0.42950 0.86505
 C697 C 0.25539 0.58742 0.90786
 C698 C 0.22640 0.59000 0.90218
 C699 C 0.20933 0.56719 0.88670
 C700 C 0.22072 0.55089 0.86455
 H701 H 0.21413 0.60824 0.91119
 H702 H 0.18628 0.56469 0.89305
 H703 H 0.26682 0.56759 0.90172
 H704 H 0.24301 0.55489 0.85645
 C705 C 0.08516 0.25456 0.38770
 C706 C 0.09854 0.26543 0.41212
 C707 C 0.12005 0.24925 0.43063
 C708 C 0.12015 0.22026 0.43382
 H709 H 0.09510 0.28799 0.41808
 H710 H 0.13505 0.26229 0.44401
 H711 H 0.09086 0.23303 0.37976
 H712 H 0.10379 0.20704 0.42247
 C713 C 0.09457 0.74876 0.60975
 C714 C 0.08638 0.77467 0.59888
 C715 C 0.10534 0.78982 0.57682
 C716 C 0.09728 0.81506 0.56433
 H717 H 0.06532 0.78418 0.60507
 H718 H 0.12608 0.77978 0.57024
 H719 H 0.11527 0.73944 0.60192
 H720 H 0.07662 0.82523 0.57095
 C721 C 0.92215 0.75912 0.40100
 C722 C 0.89761 0.75269 0.41670
 C723 C 0.88479 0.77370 0.43817
 C724 C 0.85940 0.76791 0.45262
 H725 H 0.88648 0.73208 0.41351
 H726 H 0.89622 0.79406 0.44218
 H727 H 0.93190 0.78051 0.40364
 H728 H 0.84795 0.74763 0.44823
 C729 C 0.91284 0.24112 0.60617
 C730 C 0.91921 0.21394 0.59729
 C731 C 0.90272 0.19817 0.57359
 C732 C 0.87589 0.20590 0.56348
 H733 H 0.93851 0.20300 0.60608
 H734 H 0.91346 0.17918 0.56418
 H735 H 0.89492 0.25275 0.59551
 H736 H 0.86419 0.22411 0.57320
 C737 C 0.40902 0.07675 0.25307
 C738 C 0.41614 0.07086 0.22430
 C739 C 0.43877 0.08711 0.20687
 C740 C 0.44810 0.11391 0.21395
 H741 H 0.40634 0.05240 0.21307
 H742 H 0.44745 0.07660 0.18689
 H743 H 0.42091 0.09358 0.26498
 H744 H 0.43882 0.12528 0.23306
 C745 C 0.60342 0.08829 0.76157
 C746 C 0.58956 0.11287 0.75331
 C747 C 0.56828 0.12931 0.77222
 C748 C 0.55657 0.11994 0.79833
 H749 H 0.59425 0.12240 0.73152
 H750 H 0.56123 0.15007 0.76321
 H751 H 0.60050 0.07985 0.78413
 H752 H 0.56269 0.09910 0.80767
 C753 C 0.39229 0.92152 0.75498
 C754 C 0.41592 0.90840 0.74272
 C755 C 0.43532 0.88811 0.75924
 C756 C 0.44036 0.88970 0.78894
 H757 H 0.42042 0.91107 0.71889
 H758 H 0.44749 0.87252 0.74579
 H759 H 0.38584 0.91649 0.77793
 H760 H 0.43011 0.90664 0.80227
 C761 C 0.58846 0.91412 0.26126
 C762 C 0.58761 0.90704 0.23210
 C763 C 0.56374 0.88843 0.22066
 C764 C 0.55893 0.88536 0.19117
 H765 H 0.60452 0.91484 0.21669
 H766 H 0.54985 0.87696 0.23675
 H767 H 0.57025 0.90774 0.27586
 H768 H 0.57181 0.89785 0.17504
 C769 C 0.39757 0.24889 0.92409
 C770 C 0.41239 0.25639 0.89718
 C771 C 0.43035 0.23768 0.88014
 C772 C 0.43886 0.20948 0.88851
 H773 H 0.40986 0.27784 0.88770
 H774 H 0.43920 0.24664 0.85937
 H775 H 0.39801 0.22636 0.93102
 H776 H 0.43123 0.20007 0.90947
 C777 C 0.60417 0.75280 0.90085
 C778 C 0.59260 0.77784 0.91099
 C779 C 0.57064 0.79586 0.89464
 C780 C 0.55919 0.78967 0.86750
 H781 H 0.59851 0.78560 0.93316
 H782 H 0.56331 0.81527 0.90624
 H783 H 0.59738 0.74418 0.87933
 H784 H 0.56593 0.77054 0.85523
 C785 C 0.41262 0.74191 0.06350
 C786 C 0.40980 0.75447 0.09058
 C787 C 0.43305 0.77393 0.10182
 C788 C 0.43587 0.77938 0.13120
 H789 H 0.39105 0.75004 0.10510
 H790 H 0.44841 0.78357 0.08582
 H791 H 0.43337 0.74507 0.05150
 H792 H 0.42178 0.76833 0.14740
 C793 C 0.60875 0.23937 0.08698
 C794 C 0.60283 0.21147 0.08030
 C795 C 0.58125 0.19340 0.09731
 C796 C 0.57163 0.19977 0.12514
 H797 H 0.61257 0.20152 0.06061
 H798 H 0.57310 0.17403 0.08623
 H799 H 0.59707 0.24960 0.10541
 H800 H 0.58028 0.21835 0.13710
 C801 C 0.24734 0.07953 0.58762
 C802 C 0.24132 0.10796 0.58673
 C803 C 0.22240 0.12009 0.56284
 C804 C 0.22172 0.14865 0.55738
 H805 H 0.25092 0.12251 0.60322
 H806 H 0.20930 0.10540 0.54919
 H807 H 0.23928 0.06565 0.56969
 H808 H 0.23593 0.16311 0.57009
 C809 C 0.76400 0.05870 0.40736
 C810 C 0.77622 0.08497 0.40329
 C811 C 0.79380 0.09854 0.42725
 C812 C 0.79442 0.12739 0.43007
 H813 H 0.77157 0.09787 0.38347
 H814 H 0.80483 0.08488 0.44370
 H815 H 0.76701 0.04829 0.42911
 H816 H 0.78134 0.14081 0.41505
 C817 C 0.74957 0.91899 0.60402
 C818 C 0.77896 0.91957 0.59904
 C819 C 0.79441 0.89952 0.57801
 C820 C 0.78351 0.87366 0.56952
 H821 H 0.79256 0.93605 0.60941
 H822 H 0.81601 0.90624 0.56990
 H823 H 0.73621 0.90360 0.59165
 H824 H 0.76262 0.86599 0.57849
 C825 C 0.23522 0.92026 0.39390
 C826 C 0.23978 0.89434 0.40707
 C827 C 0.21891 0.87989 0.42809
 C828 C 0.19521 0.89263 0.44066
 H829 H 0.25983 0.88239 0.40229
 H830 H 0.22450 0.85786 0.43454
 H831 H 0.21422 0.93119 0.39667
 H832 H 0.18934 0.91476 0.43516
 C833 C 0.08489 0.38947 0.75534
 C834 C 0.08854 0.39038 0.78530
 C835 C 0.10679 0.41272 0.80027
 C836 C 0.12988 0.42591 0.78694
 H837 H 0.07712 0.37526 0.79991
 H838 H 0.10127 0.41783 0.82344
 H839 H 0.09580 0.40567 0.74149
 H840 H 0.13686 0.41967 0.76452
 C841 C 0.08043 0.60620 0.24167
 C842 C 0.07803 0.60262 0.21164
 C843 C 0.09501 0.58044 0.19454
 C844 C 0.12112 0.56966 0.20358
 H845 H 0.06197 0.61471 0.19877
 H846 H 0.08565 0.57319 0.17340
 H847 H 0.09542 0.59200 0.25369
 H848 H 0.13150 0.57779 0.22383
 C849 C 0.90503 0.40034 0.24593
 C850 C 0.89431 0.42604 0.25532
 C851 C 0.87458 0.44432 0.23681
 C852 C 0.87731 0.44682 0.20684
 H853 H 0.89809 0.43355 0.27803
 H854 H 0.85919 0.45824 0.24874
 H855 H 0.89749 0.39218 0.22436
 H856 H 0.89454 0.43502 0.19506
 C857 C 0.92244 0.59428 0.75258
 C858 C 0.92324 0.59002 0.78258
 C859 C 0.90552 0.56759 0.79843
 C860 C 0.88047 0.55593 0.78763
 H861 H 0.93839 0.60198 0.79664
 H862 H 0.91323 0.56121 0.82057
 H863 H 0.90830 0.58026 0.73934
 H864 H 0.87146 0.56310 0.76632
 C865 C 0.75229 0.59311 0.91390
 C866 C 0.78154 0.59608 0.90983
 C867 C 0.79948 0.57371 0.89461
 C868 C 0.78890 0.55786 0.87178
 H869 H 0.79311 0.61447 0.91944
 H870 H 0.82230 0.57124 0.90160
 H871 H 0.74148 0.57312 0.90716
 H872 H 0.76685 0.56194 0.86322
 C873 C 0.25112 0.40487 0.93803
 C874 C 0.24473 0.40384 0.90870
 C875 C 0.22515 0.42559 0.89493
 C876 C 0.22551 0.42995 0.86519
 H877 H 0.25500 0.38759 0.89444
 H878 H 0.21108 0.43876 0.90928
 H879 H 0.24258 0.42259 0.95158
 H880 H 0.24083 0.41780 0.85120
 C881 C 0.25100 0.60297 0.07953
 C882 C 0.25942 0.58634 0.10300
 C883 C 0.23890 0.56890 0.12188
 C884 C 0.21154 0.56086 0.11361
 H885 H 0.28223 0.58557 0.11004
 H886 H 0.24777 0.56090 0.14298
 H887 H 0.22758 0.60475 0.07479
 H888 H 0.20267 0.56734 0.09202
 C889 C 0.74978 0.39905 0.08879
 C890 C 0.74045 0.42516 0.09853
 C891 C 0.75839 0.44414 0.11816
 C892 C 0.78778 0.44708 0.11527
 H893 H 0.71810 0.43241 0.09433
 H894 H 0.74648 0.45806 0.13368
 H895 H 0.77100 0.39129 0.09687
 H896 H 0.79949 0.43523 0.09784
 C897 C 0.93048 0.74500 0.59794
 C898 C 0.90386 0.75725 0.60218
 C899 C 0.89026 0.77499 0.57836
 C900 C 0.86090 0.77803 0.57696
 H901 H 0.89095 0.75312 0.62229
 H902 H 0.90425 0.78459 0.56109
 H903 H 0.94088 0.74777 0.57603
 H904 H 0.84685 0.76663 0.59294
 C905 C 0.91888 0.25014 0.39786
 C906 C 0.92160 0.22119 0.40128
 C907 C 0.90533 0.20419 0.42445
 C908 C 0.88008 0.21299 0.43756
 H909 H 0.93701 0.20888 0.38778
 H910 H 0.91412 0.18293 0.42986
 H911 H 0.90461 0.26166 0.41339
 H912 H 0.87003 0.23344 0.43130
 C913 C 0.08561 0.24938 0.60271
 C914 C 0.09326 0.26009 0.57560
 C915 C 0.11538 0.24609 0.55604
 C916 C 0.11821 0.21723 0.55388
 H917 H 0.08538 0.28104 0.56809
 H918 H 0.12811 0.26011 0.54123
 H919 H 0.09716 0.23025 0.61079
 H920 H 0.10359 0.20296 0.56647
 C921 C 0.07518 0.74549 0.40987
 C922 C 0.08334 0.77354 0.40868
 C923 C 0.09987 0.78682 0.43375
 C924 C 0.09985 0.81558 0.43807
 H925 H 0.07718 0.78729 0.38993
 H926 H 0.11192 0.77281 0.44908
 H927 H 0.07946 0.73377 0.43066
 H928 H 0.08633 0.82937 0.42386
 C929 C 0.59702 0.93129 0.75792
 C930 C 0.60161 0.92013 0.78554
 C931 C 0.57850 0.90355 0.80173
 C932 C 0.56116 0.88428 0.78767
 H933 H 0.62176 0.92452 0.79778
 H934 H 0.57713 0.90593 0.82598
 H935 H 0.57497 0.92920 0.74849
 H936 H 0.56437 0.88015 0.76384
 C937 C 0.40987 0.91828 0.26107
 C938 C 0.40842 0.90821 0.23280
 C939 C 0.43203 0.88939 0.22111
 C940 C 0.43589 0.88533 0.19159
 H941 H 0.39047 0.91398 0.21787
 H942 H 0.44669 0.87880 0.23704
 H943 H 0.42991 0.91381 0.27372
 H944 H 0.42241 0.89713 0.17553
 C945 C 0.61094 0.07672 0.25319
 C946 C 0.60229 0.07084 0.22492
 C947 C 0.58084 0.08833 0.20747
 C948 C 0.57026 0.11438 0.21571
 H949 H 0.60991 0.05127 0.21394
 H950 H 0.57345 0.07879 0.18649
 H951 H 0.60175 0.09518 0.26496
 H952 H 0.57753 0.12480 0.23620
 C953 C 0.39061 0.08942 0.75893
 C954 C 0.40449 0.11420 0.75114
 C955 C 0.42488 0.13089 0.77078
 C956 C 0.43486 0.12205 0.79775
 H957 H 0.40076 0.12349 0.72908
 H958 H 0.43295 0.15125 0.76157
 H959 H 0.39266 0.08107 0.78160
 H960 H 0.42772 0.10161 0.80735
 C961 C 0.58620 0.74820 0.06089
 C962 C 0.58579 0.75568 0.08995
 C963 C 0.56313 0.77574 0.10134
 C964 C 0.55820 0.77883 0.13084
 H965 H 0.60184 0.74667 0.10548
 H966 H 0.54996 0.78788 0.08526
 H967 H 0.56870 0.75583 0.04617
 H968 H 0.57035 0.76569 0.14689
 C969 C 0.41952 0.26497 0.09805
 C970 C 0.41955 0.23647 0.10384
 C971 C 0.44312 0.22313 0.12199
 C972 C 0.44818 0.19459 0.12048
 H973 H 0.40251 0.22265 0.09436
 H974 H 0.45683 0.23681 0.13613
 H975 H 0.43791 0.27824 0.10560
 H976 H 0.43553 0.18135 0.10494
 C977 C 0.59480 0.25053 0.92195
 C978 C 0.59661 0.24532 0.89227
 C979 C 0.57395 0.22879 0.87552
 C980 C 0.55844 0.20675 0.88754
 H981 H 0.61401 0.25542 0.87907
 H982 H 0.57095 0.23437 0.85200
 H983 H 0.57561 0.24301 0.93444
 H984 H 0.56284 0.19967 0.91038
 C985 C 0.39573 0.75208 0.90239
 C986 C 0.40449 0.77854 0.91159
 C987 C 0.42641 0.79694 0.89545
 C988 C 0.43607 0.79214 0.86726
 H989 H 0.39692 0.78684 0.93304
 H990 H 0.43504 0.81537 0.90781
 H991 H 0.40497 0.74296 0.88202
 H992 H 0.42734 0.77441 0.85405
 C993 C 0.75596 0.89483 0.39313
 C994 C 0.78063 0.90339 0.40738
 C995 C 0.79598 0.88583 0.43054
 C996 C 0.78348 0.86343 0.44527
 H997 H 0.78985 0.92466 0.40280
 H998 H 0.81798 0.89295 0.43685
 H999 H 0.74658 0.87364 0.39759
 H1000 H 0.76114 0.85659 0.44028
 C1001 C 0.23402 0.92480 0.60757
 C1002 C 0.20751 0.93386 0.59759
 C1003 C 0.18895 0.91802 0.57543
 C1004 C 0.19453 0.89119 0.56499
 H1005 H 0.19908 0.95476 0.60457
 H1006 H 0.16969 0.92954 0.56718
 H1007 H 0.24323 0.90470 0.59923
 H1008 H 0.21326 0.87889 0.57303
 C1009 C 0.24926 0.07746 0.40746
 C1010 C 0.24448 0.10610 0.40639
 C1011 C 0.22416 0.11969 0.42806
 C1012 C 0.22399 0.14838 0.43260
 H1013 H 0.25607 0.11958 0.39013
 H1014 H 0.20962 0.10578 0.44122
 H1015 H 0.23907 0.06473 0.42530
 H1016 H 0.23953 0.16222 0.42063
 C1017 C 0.75435 0.08924 0.60298
 C1018 C 0.74348 0.10210 0.57825
 C1019 C 0.76132 0.12103 0.55833
 C1020 C 0.79041 0.11732 0.55376
 H1021 H 0.72009 0.10036 0.57325
 H1022 H 0.74954 0.13745 0.54562
 H1023 H 0.77695 0.09355 0.60976
 H1024 H 0.80192 0.09948 0.56452
 C1025 C 0.91291 0.61026 0.23920
 C1026 C 0.92361 0.58710 0.22446
 C1027 C 0.90554 0.56854 0.20446
 C1028 C 0.87648 0.56399 0.20859
 H1029 H 0.94696 0.58200 0.22592
 H1030 H 0.91728 0.55633 0.18734
 H1031 H 0.89033 0.61719 0.23529
 H1032 H 0.86504 0.57426 0.22721
 C1033 C 0.92267 0.39826 0.75717
 C1034 C 0.91657 0.39638 0.78668
 C1035 C 0.90035 0.41936 0.80293
 C1036 C 0.87877 0.43481 0.78993
 H1037 H 0.92498 0.37835 0.79979
 H1038 H 0.90532 0.42245 0.82657
 H1039 H 0.91700 0.41789 0.74496
 H1040 H 0.87217 0.43010 0.76699
 C1041 C 0.08947 0.59503 0.76010
 C1042 C 0.07911 0.57009 0.77169
 C1043 C 0.09781 0.55000 0.78922
 C1044 C 0.12648 0.54580 0.78280
 H1045 H 0.05589 0.56464 0.76944
 H1046 H 0.08707 0.53680 0.80628
 H1047 H 0.11188 0.60188 0.76519
 H1048 H 0.13662 0.55714 0.76399
 C1049 C 0.07569 0.41006 0.24378
 C1050 C 0.07210 0.41673 0.21455
 C1051 C 0.09017 0.43855 0.19809
 C1052 C 0.11622 0.44906 0.20774
 H1053 H 0.05440 0.40688 0.20182
 H1054 H 0.08170 0.44557 0.17646
 H1055 H 0.09205 0.42168 0.25681
 H1056 H 0.12576 0.44165 0.22869
   
