data_POSCAR
  _audit_creation_date              2014-09-24
  _audit_creation_method            'ToBaCCo'
  _symmetry_space_group_name_H-M    'P1'
  _symmetry_Int_Tables_number       1
  _symmetry_cell_setting            triclinic
  loop_
  _symmetry_equiv_pos_as_xyz
 x,y,z
_cell_length_a 12.2021
_cell_length_b 12.2070
_cell_length_c 23.6861
_cell_angle_alpha 94.148700
_cell_angle_beta 89.043000
_cell_angle_gamma 109.525700
loop_
  _atom_site_label
  _atom_site_type_symbol
  _atom_site_fract_x
  _atom_site_fract_y
  _atom_site_fract_z
O1 O -0.01938 0.59978 0.94871
 O2 O -0.05181 0.39404 1.05940
 O3 O -0.01424 0.61765 1.05903
 O4 O -0.05892 0.37699 0.94942
 O5 O 0.13030 0.40947 0.94739
 O6 O 0.17504 0.65051 1.05713
 O7 O 0.13733 0.42669 1.05771
 O8 O 0.16991 0.63227 0.94741
 Cu9 Cu -0.05508 0.49395 1.00445
 Cu10 Cu 0.17210 0.53281 1.00239
 C11 C 0.08104 0.65102 0.92924
 C12 C 0.03728 0.37453 1.07715
 C13 C 0.08808 0.67573 1.07642
 C14 C 0.02795 0.35236 0.92963
 O15 O 0.37678 0.07867 0.55509
 O16 O 0.59559 0.09404 0.44400
 O17 O 0.37192 0.05638 0.44486
 O18 O 0.59999 0.11859 0.55388
 O19 O 0.56741 -0.07001 0.55728
 O20 O 0.33913 -0.13229 0.44792
 O21 O 0.56320 -0.09447 0.44693
 O22 O 0.34459 -0.11002 0.55765
 Cu23 Cu 0.48923 0.10583 0.49904
 Cu24 Cu 0.45054 -0.12063 0.50258
 C25 C 0.32341 -0.01856 0.57527
 C26 C 0.61742 0.00241 0.42680
 C27 C 0.31603 -0.04852 0.42811
 C28 C 0.62236 0.03505 0.57427
 C29 C -0.02310 0.03710 0.25190
 C30 C -0.03765 -0.04123 0.75292
 C31 C 0.10784 -0.22488 0.11863
 C32 C 0.02048 -0.19843 0.14416
 C33 C 0.04346 -0.09468 0.18387
 C34 C -0.04245 -0.07393 0.21383
 H35 H -0.06877 -0.25305 0.13541
 H36 H 0.13144 -0.03377 0.18841
 H37 H 0.19692 -0.17118 0.12849
 H38 H -0.13036 -0.13431 0.20755
 C39 C 0.02693 0.29448 0.11785
 C40 C -0.07590 0.23188 0.13910
 C41 C -0.09009 0.14136 0.17953
 C42 C -0.00528 0.13668 0.21374
 H43 H -0.15532 0.24136 0.12393
 H44 H -0.17566 0.07630 0.18173
 H45 H 0.10582 0.28093 0.13073
 H46 H 0.07957 0.20320 0.21317
 C47 C 0.23489 -0.02778 0.61929
 C48 C 0.20932 0.06482 0.64165
 C49 C 0.11778 0.05904 0.68433
 C50 C 0.06438 -0.03427 0.71363
 H51 H 0.25463 0.14991 0.62667
 H52 H 0.09408 0.13667 0.69192
 H53 H 0.18904 -0.11426 0.63211
 H54 H 0.08714 -0.11235 0.70640
 C55 C -0.28573 0.06229 0.61764
 C56 C -0.26335 -0.01989 0.64506
 C57 C -0.16708 0.01182 0.68635
 C58 C -0.14481 -0.06877 0.71534
 H59 H -0.31502 -0.11085 0.63651
 H60 H -0.11194 0.10219 0.69219
 H61 H -0.23459 0.15313 0.62716
 H62 H -0.19902 -0.15921 0.70732
 C63 C 0.09694 -0.26549 0.88553
 C64 C 0.00802 -0.24621 0.86087
 C65 C 0.02989 -0.15822 0.81895
 C66 C -0.05734 -0.13973 0.79198
 H67 H -0.08075 -0.29432 0.87201
 H68 H 0.11907 -0.10634 0.81067
 H69 H 0.18524 -0.21788 0.87343
 H70 H -0.14601 -0.19011 0.80240
 C71 C 0.00771 0.25552 0.88593
 C72 C 0.09495 0.22651 0.86136
 C73 C 0.07876 0.12646 0.81933
 C74 C -0.02068 0.06967 0.79082
 H75 H 0.18370 0.27495 0.87431
 H76 H 0.15367 0.09910 0.81152
 H77 H -0.08185 0.20633 0.87527
 H78 H -0.09577 0.09687 0.79794
 C79 C -0.29767 0.00658 0.38595
 C80 C -0.23277 0.10607 0.36407
 C81 C -0.13712 0.11438 0.32364
 C82 C -0.12786 0.02466 0.28987
 H83 H -0.24435 0.18762 0.37878
 H84 H -0.07189 0.19961 0.32111
 H85 H -0.28229 -0.07408 0.37352
 H86 H -0.19425 -0.06015 0.29081
 C87 C 0.22169 -0.07481 0.38603
 C88 C 0.19829 0.00863 0.36011
 C89 C 0.09963 -0.02008 0.32038
 C90 C 0.08277 0.06162 0.29018
 H91 H 0.25176 0.09910 0.36852
 H92 H 0.03940 -0.10867 0.31597
 H93 H 0.16931 -0.16528 0.37656
 H94 H 0.14231 0.15035 0.29637
   
