data_POSCAR
  _audit_creation_date              2014-09-24
  _audit_creation_method            'ToBaCCo'
  _symmetry_space_group_name_H-M    'P1'
  _symmetry_Int_Tables_number       1
  _symmetry_cell_setting            triclinic
  loop_
  _symmetry_equiv_pos_as_xyz
 x,y,z
_cell_length_a 24.9109
_cell_length_b 26.2268
_cell_length_c 68.1547
_cell_angle_alpha 90.022200
_cell_angle_beta 90.005400
_cell_angle_gamma 124.122400
loop_
  _atom_site_label
  _atom_site_type_symbol
  _atom_site_fract_x
  _atom_site_fract_y
  _atom_site_fract_z
C1 C 0.03093 0.07963 0.54179
 H2 H 0.07195 0.07577 0.54186
 C3 C 0.03047 0.12118 0.55430
 H4 H 0.07117 0.14853 0.56410
 C5 C -0.07096 0.04888 0.52848
 H6 H -0.10991 0.02089 0.51823
 C7 C -0.07364 0.09000 0.54095
 H8 H -0.11497 0.09336 0.54020
 N9 N -0.01837 0.04557 0.52891
 C10 C 0.06786 -0.05099 0.52848
 H11 H 0.10698 -0.02263 0.51834
 C12 C 0.07056 -0.09219 0.54091
 H13 H 0.11212 -0.09519 0.54024
 C14 C -0.03464 -0.08274 0.54154
 H15 H -0.07588 -0.07922 0.54151
 C16 C -0.03417 -0.12438 0.55398
 H17 H -0.07511 -0.15216 0.56366
 Zn18 Zn -0.00159 -0.00115 0.51201
 N19 N 0.01503 -0.04807 0.52884
 C20 C 0.09482 0.03504 0.48244
 N21 N 0.06890 0.05473 0.49553
 C22 C 0.08635 0.11406 0.49542
 C23 C 0.13026 0.15582 0.48165
 C24 C 0.13955 0.07574 0.46836
 C25 C -0.09976 -0.03831 0.48280
 C26 C -0.14466 -0.07922 0.46877
 C27 C -0.13075 -0.15751 0.48103
 C28 C -0.08705 -0.11558 0.49480
 N29 N -0.07184 -0.05707 0.49542
 H30 H 0.07894 -0.01273 0.48245
 H31 H 0.06398 0.12882 0.50537
 H32 H 0.14197 0.20231 0.48170
 H33 H 0.15846 0.05902 0.45772
 H34 H -0.08560 0.00893 0.48317
 H35 H -0.16521 -0.06260 0.45871
 H36 H -0.14010 -0.20314 0.48091
 H37 H -0.06304 -0.12951 0.50438
 C38 C 0.01834 -0.13035 0.55361
 C39 C -0.02169 0.12766 0.55381
 C40 C -0.15973 -0.13972 0.46737
 C41 C 0.15662 0.13674 0.46763
 C42 C 1.08987 0.03707 0.13293
 H43 H 1.08640 0.07634 0.13370
 C44 C 1.13223 0.03717 0.11966
 H45 H 1.16089 0.07677 0.11021
 C46 C 1.05587 -0.06197 0.14450
 H47 H 1.02577 -0.10037 0.15422
 C48 C 1.09754 -0.06410 0.13118
 H49 H 1.09947 -0.10431 0.13081
 N50 N 1.05356 -0.01139 0.14520
 C51 C 0.94758 0.06360 0.14430
 H52 H 0.97773 0.10216 0.15398
 C53 C 0.90588 0.06550 0.13094
 H54 H 0.90396 0.10571 0.13048
 C55 C 0.91353 -0.03565 0.13290
 H56 H 0.91699 -0.07491 0.13376
 C57 C 0.87114 -0.03598 0.11959
 H58 H 0.84244 -0.07574 0.11019
 Zn59 Zn 1.00174 0.00097 0.16209
 N60 N 0.94989 0.01302 0.14512
 C61 C 1.03360 0.09247 0.19097
 N62 N 1.05743 0.06912 0.17856
 C63 C 1.12069 0.08825 0.17940
 C64 C 1.16247 0.13177 0.19318
 C65 C 1.07409 0.13664 0.20503
 C66 C 0.96996 -0.08998 0.19115
 C67 C 0.92950 -0.13386 0.20526
 C68 C 0.84111 -0.12919 0.19330
 C69 C 0.88285 -0.08595 0.17946
 N70 N 0.94610 -0.06686 0.17865
 H71 H 0.98272 0.07530 0.19041
 H72 H 1.13852 0.06778 0.16999
 H73 H 1.21221 0.14510 0.19373
 H74 H 1.05404 0.15375 0.21509
 H75 H 1.02083 -0.07284 0.19060
 H76 H 0.94957 -0.15079 0.21539
 H77 H 0.79138 -0.14249 0.19382
 H78 H 0.86501 -0.06566 0.16998
 C79 C 0.86651 0.01481 0.11850
 C80 C 1.13686 -0.01363 0.11868
 C81 C 0.86436 -0.15306 0.20667
 C82 C 1.13924 0.15590 0.20647
 C83 C 0.07983 0.96942 0.84204
 H84 H 0.05295 0.92987 0.83255
 C85 C 0.12339 0.97146 0.85527
 H86 H 0.13021 0.93415 0.85526
 C87 C 0.10026 1.06320 0.85436
 H88 H 0.08937 1.09774 0.85430
 C89 C 0.14496 1.06724 0.86793
 H90 H 0.16880 1.10547 0.87812
 N91 N 0.06861 1.01458 0.84178
 C92 C -0.10380 0.93509 0.85395
 H93 H -0.09512 0.89908 0.85339
 C94 C -0.14867 0.93119 0.86742
 H95 H -0.17477 0.89136 0.87692
 C96 C -0.07788 1.03205 0.84299
 H97 H -0.04885 1.07263 0.83407
 C98 C -0.12126 1.03040 0.85620
 H99 H -0.12535 1.06938 0.85661
 Zn100 Zn -0.00082 0.99959 0.82546
 N101 N -0.06965 0.98504 0.84201
 C102 C -0.07451 0.87520 0.80863
 N103 N -0.02104 0.93411 0.80839
 C104 C 0.02837 0.95195 0.79563
 C105 C 0.02715 0.90969 0.78306
 C106 C -0.07790 0.83093 0.79609
 C107 C 0.07275 1.12369 0.80854
 C108 C 0.07600 1.16802 0.79608
 C109 C -0.03026 1.08983 0.78361
 C110 C -0.03132 1.04751 0.79609
 N111 N 0.01886 1.06502 0.80850
 H112 H -0.11345 0.86214 0.81882
 H113 H 0.07021 0.99912 0.79575
 H114 H 0.06806 0.92528 0.77340
 H115 H -0.11978 0.78379 0.79672
 H116 H 0.11216 1.13648 0.81852
 H117 H 0.11832 1.21497 0.79652
 H118 H -0.07169 1.07448 0.77420
 H119 H -0.07350 1.00052 0.79639
 C120 C -0.15713 0.97995 0.86890
 C121 C 0.15598 1.02018 0.86868
 C122 C 0.02325 1.15130 0.78368
 C123 C -0.02575 0.84797 0.78339
 O124 O 0.58080 0.04608 -0.02572
 O125 O 0.47712 0.04738 0.01294
 O126 O 0.58514 0.05371 0.01254
 O127 O 0.48102 0.05440 -0.02515
 O128 O 0.42018 -0.04733 -0.02553
 O129 O 0.52489 -0.04804 0.01292
 O130 O 0.41689 -0.05438 0.01271
 O131 O 0.52014 -0.05565 -0.02517
 Cu132 Cu 0.53707 0.06046 -0.00639
 Cu133 Cu 0.46450 -0.06143 -0.00631
 C134 C 0.56808 -0.00548 -0.03187
 C135 C 0.42929 -0.00378 0.01941
 C136 C 0.57288 0.00322 0.01927
 C137 C 0.43282 0.00415 -0.03171
 O138 O -0.05117 0.52308 0.65006
 O139 O -0.04984 0.42222 0.68780
 O140 O -0.05944 0.51641 0.68818
 O141 O -0.05835 0.41984 0.64968
 O142 O 0.04874 0.47522 0.65010
 O143 O 0.04761 0.57651 0.68774
 O144 O 0.05721 0.48230 0.68820
 O145 O 0.05593 0.57847 0.64962
 Cu146 Cu -0.06528 0.46467 0.66893
 Cu147 Cu 0.06295 0.53384 0.66892
 C148 C 0.00272 0.56806 0.64343
 C149 C 0.00442 0.43553 0.69441
 C150 C -0.00663 0.56326 0.69435
 C151 C -0.00518 0.43018 0.64349
 O152 O 0.52894 0.57534 0.31804
 O153 O 0.42200 0.46794 0.35717
 O154 O 0.52649 0.57986 0.35622
 O155 O 0.41710 0.46955 0.31897
 O156 O 0.47393 0.42847 0.31797
 O157 O 0.57972 0.53519 0.35742
 O158 O 0.47548 0.42349 0.35614
 O159 O 0.58579 0.53431 0.31920
 Cu160 Cu 0.46817 0.52742 0.33761
 Cu161 Cu 0.53423 0.47616 0.33769
 C162 C 0.57602 0.57307 0.31211
 C163 C 0.43048 0.42692 0.36312
 C164 C 0.57115 0.57617 0.36335
 C165 C 0.42700 0.43081 0.31192
 C166 C -0.01479 0.26110 0.58985
 N167 N 0.03884 0.26091 0.58680
 N168 N 0.03625 0.21853 0.57533
 C169 C -0.01995 0.17464 0.56640
 N170 N -0.07362 0.17512 0.56934
 N171 N -0.07113 0.21745 0.58091
 C172 C -0.01190 0.30679 0.60308
 N173 N -0.06669 0.30298 0.60817
 N174 N -0.06418 0.34296 0.62083
 C175 C -0.00682 0.38837 0.62881
 N176 N 0.04808 0.39255 0.62359
 N177 N 0.04553 0.35240 0.61098
 C178 C 0.74263 0.73062 0.25190
 N179 N 0.72541 0.76171 0.24057
 N180 N 0.76394 0.79806 0.22615
 C181 C 0.82131 0.80498 0.22247
 N182 N 0.83857 0.77387 0.23385
 N183 N 0.79983 0.73721 0.24825
 C184 C 0.69980 0.69044 0.26776
 N185 N 0.71295 0.65382 0.27768
 N186 N 0.67355 0.61674 0.29186
 C187 C 0.61977 0.61516 0.29674
 N188 N 0.60675 0.65202 0.28690
 N189 N 0.64602 0.68891 0.27264
 C190 C 0.27429 0.01482 -0.08860
 N191 N 0.27766 0.06769 -0.09184
 N192 N 0.24022 0.06980 -0.10537
 C193 C 0.19835 0.01917 -0.11627
 N194 N 0.19529 -0.03351 -0.11296
 N195 N 0.23235 -0.03572 -0.09940
 C196 C 0.31527 0.01195 -0.07375
 N197 N 0.30626 -0.04273 -0.06907
 N198 N 0.34348 -0.04553 -0.05565
 C199 C 0.39136 0.00639 -0.04652
 N200 N 0.40042 0.06104 -0.05123
 N201 N 0.36300 0.06379 -0.06456
 C202 C 0.01187 0.73651 0.58966
 N203 N 0.06823 0.78041 0.58082
 N204 N 0.07059 0.82263 0.56923
 C205 C 0.01673 0.82274 0.56619
 N206 N -0.03950 0.77859 0.57503
 N207 N -0.04194 0.73633 0.58651
 C208 C 0.00912 0.69098 0.60292
 N209 N -0.04829 0.64528 0.61079
 N210 N -0.05073 0.60528 0.62344
 C211 C 0.00426 0.60970 0.62871
 N212 N 0.06159 0.65520 0.62077
 N213 N 0.06399 0.69503 0.60807
 C214 C 0.26100 0.27301 0.25160
 N215 N 0.20379 0.26635 0.24789
 N216 N 0.16506 0.22944 0.23351
 C217 C 0.18233 0.19816 0.22222
 N218 N 0.23972 0.20518 0.22595
 N219 N 0.27824 0.24177 0.24036
 C220 C 0.30376 0.31337 0.26745
 N221 N 0.35749 0.31492 0.27243
 N222 N 0.39662 0.35187 0.28672
 C223 C 0.38352 0.38880 0.29648
 N224 N 0.32981 0.38722 0.29150
 N225 N 0.29054 0.35008 0.27729
 C226 C 0.72505 -0.01621 -0.08932
 N227 N 0.76204 0.03241 -0.10138
 N228 N 0.79931 0.03055 -0.11494
 C229 C 0.80166 -0.01977 -0.11699
 N230 N 0.76442 -0.06856 -0.10486
 N231 N 0.72666 -0.06690 -0.09134
 C232 C 0.68439 -0.01343 -0.07433
 N233 N 0.63924 -0.06470 -0.06435
 N234 N 0.60217 -0.06196 -0.05088
 C235 C 0.60915 -0.00782 -0.04679
 N236 N 0.65451 0.04354 -0.05670
 N237 N 0.69127 0.04070 -0.07028
 C238 C 0.26518 -0.01009 0.07791
 N239 N 0.21962 -0.06369 0.08687
 N240 N 0.17917 -0.06503 0.10001
 C241 C 0.18261 -0.01285 0.10460
 N242 N 0.22847 0.04064 0.09567
 N243 N 0.26899 0.04205 0.08262
 C244 C 0.30877 -0.00836 0.06303
 N245 N 0.35664 0.04610 0.05508
 N246 N 0.39542 0.04780 0.04125
 C247 C 0.38746 -0.00500 0.03481
 N248 N 0.33964 -0.05944 0.04278
 N249 N 0.30104 -0.06111 0.05666
 C250 C 0.72651 0.74211 0.42368
 N251 N 0.73507 0.79781 0.42548
 N252 N 0.77190 0.83648 0.43981
 C253 C 0.80121 0.82081 0.45306
 N254 N 0.79165 0.76456 0.45124
 N255 N 0.75537 0.72618 0.43685
 C256 C 0.68690 0.69954 0.40779
 N257 N 0.68830 0.64946 0.40393
 N258 N 0.65206 0.61040 0.38962
 C259 C 0.61276 0.61984 0.37875
 N260 N 0.61134 0.66989 0.38262
 N261 N 0.64795 0.70919 0.39681
 C262 C 0.01641 0.27787 0.74791
 N263 N -0.03753 0.22106 0.75133
 N264 N -0.03488 0.18137 0.76272
 C265 C 0.02171 0.19672 0.77120
 N266 N 0.07577 0.25391 0.76790
 N267 N 0.07319 0.29368 0.75640
 C268 C 0.01313 0.32036 0.73474
 N269 N 0.06771 0.37474 0.72940
 N270 N 0.06461 0.41177 0.71677
 C271 C 0.00686 0.39593 0.70908
 N272 N -0.04780 0.34180 0.71455
 N273 N -0.04467 0.30468 0.72713
 C274 C 0.73793 0.01056 0.07767
 N275 N 0.73420 -0.04148 0.08245
 N276 N 0.77482 -0.03984 0.09551
 C277 C 0.82070 0.01379 0.10439
 N278 N 0.82406 0.06588 0.09972
 N279 N 0.78351 0.06431 0.08656
 C280 C 0.69417 0.00858 0.06279
 N281 N 0.70178 0.06121 0.05636
 N282 N 0.66296 0.05929 0.04251
 C283 C 0.61503 0.00472 0.03462
 N284 N 0.60720 -0.04797 0.04111
 N285 N 0.64619 -0.04602 0.05492
 C286 C 0.27270 0.25880 0.42265
 N287 N 0.27088 0.20671 0.42585
 N288 N 0.23425 0.16780 0.44015
 C289 C 0.19849 0.17982 0.45188
 N290 N 0.20064 0.23206 0.44862
 N291 N 0.23688 0.27071 0.43429
 C292 C 0.31289 0.30194 0.40694
 N293 N 0.30860 0.34996 0.40235
 N294 N 0.34554 0.38961 0.38826
 C295 C 0.38836 0.38279 0.37834
 N296 N 0.39262 0.33478 0.38294
 N297 N 0.35545 0.29497 0.39694
 C298 C -0.01865 0.72140 0.74767
 N299 N -0.07526 0.70526 0.75635
 N300 N -0.07793 0.74505 0.76782
 C301 C -0.02414 0.80259 0.77089
 N302 N 0.03228 0.81829 0.76221
 N303 N 0.03503 0.77858 0.75086
 C304 C -0.01531 0.67883 0.73454
 N305 N 0.04243 0.69468 0.72684
 N306 N 0.04557 0.65743 0.71430
 C307 C -0.00902 0.60301 0.70898
 N308 N -0.06670 0.58700 0.71677
 N309 N -0.06981 0.62415 0.72935
   
