data_POSCAR
  _audit_creation_date              2014-09-24
  _audit_creation_method            'ToBaCCo'
  _symmetry_space_group_name_H-M    'P1'
  _symmetry_Int_Tables_number       1
  _symmetry_cell_setting            triclinic
  loop_
  _symmetry_equiv_pos_as_xyz
 x,y,z
_cell_length_a 27.2266
_cell_length_b 23.3867
_cell_length_c 19.7497
_cell_angle_alpha 89.814500
_cell_angle_beta 89.853200
_cell_angle_gamma 89.605700
loop_
  _atom_site_label
  _atom_site_type_symbol
  _atom_site_fract_x
  _atom_site_fract_y
  _atom_site_fract_z
C1 C 1.22685 0.33212 0.35242
 H2 H 1.25866 0.31733 0.38021
 C3 C 1.19422 0.37148 0.38286
 H4 H 1.20129 0.38610 0.43388
 C5 C 1.17715 0.32816 0.25458
 H6 H 1.16992 0.31037 0.20514
 C7 C 1.14332 0.36650 0.28350
 H8 H 1.11044 0.37773 0.25556
 N9 N 1.21752 0.31049 0.28965
 C10 C 1.22687 0.17383 0.14553
 H11 H 1.26066 0.18630 0.12088
 C12 C 1.19541 0.13511 0.11370
 H13 H 1.20455 0.11906 0.06382
 C14 C 1.17295 0.18095 0.23960
 H15 H 1.16453 0.19897 0.28870
 C16 C 1.14070 0.14267 0.20991
 H17 H 1.10712 0.13203 0.23650
 Zn18 Zn 1.25634 0.24786 0.25246
 N19 N 1.21483 0.19617 0.20708
 C20 C 1.27432 0.15410 0.34209
 N21 N 1.28818 0.20755 0.32262
 C22 C 1.33176 0.22967 0.34202
 C23 C 1.36672 0.19473 0.37243
 C24 C 1.30702 0.11869 0.37743
 C25 C 1.29652 0.32092 0.15385
 C26 C 1.33369 0.34705 0.11672
 C27 C 1.39059 0.27333 0.15208
 C28 C 1.35152 0.24725 0.18700
 N29 N 1.30640 0.27336 0.19081
 H30 H 1.23926 0.13735 0.32673
 H31 H 1.34144 0.27268 0.32702
 H32 H 1.40264 0.21253 0.38228
 H33 H 1.29599 0.07545 0.38977
 H34 H 1.26033 0.34018 0.15592
 H35 H 1.32543 0.38658 0.09031
 H36 H 1.42722 0.25515 0.15468
 H37 H 1.35820 0.20777 0.21412
 C38 C 1.15131 0.11981 0.14569
 C39 C 1.15096 0.38799 0.34910
 C40 C 1.38208 0.32532 0.11893
 C41 C 1.35543 0.13733 0.38796
 C42 C 0.68227 -0.21730 0.34406
 H43 H 0.67699 -0.26309 0.34585
 C44 C 0.65105 -0.18136 0.37980
 H45 H 0.62156 -0.19946 0.40977
 C46 C 0.72494 -0.13754 0.29883
 H47 H 0.75356 -0.12078 0.26672
 C48 C 0.69467 -0.09977 0.33457
 H49 H 0.69926 -0.05404 0.32895
 N50 N 0.71616 -0.19482 0.30138
 C51 C 0.70710 -0.32096 0.14350
 H52 H 0.74524 -0.33373 0.13921
 C53 C 0.67142 -0.34855 0.10543
 H54 H 0.68240 -0.38361 0.07286
 C55 C 0.64622 -0.26128 0.19268
 H56 H 0.63646 -0.22654 0.22604
 C57 C 0.60903 -0.28831 0.15579
 H58 H 0.57097 -0.27617 0.16353
 Zn59 Zn 0.74477 -0.24749 0.24211
 N60 N 0.69389 -0.27976 0.18825
 C61 C 0.77390 -0.36004 0.29648
 N62 N 0.77969 -0.30211 0.29766
 C63 C 0.81270 -0.27781 0.34021
 C64 C 0.84392 -0.31162 0.37970
 C65 C 0.80426 -0.39577 0.33633
 C66 C 0.77257 -0.16377 0.14563
 C67 C 0.80613 -0.12871 0.11161
 C68 C 0.87153 -0.19019 0.15203
 C69 C 0.83698 -0.22352 0.18538
 N70 N 0.78878 -0.20850 0.18413
 H71 H 0.74693 -0.37873 0.26328
 H72 H 0.81622 -0.23177 0.34122
 H73 H 0.87169 -0.29121 0.41030
 H74 H 0.80116 -0.44177 0.33236
 H75 H 0.73378 -0.15344 0.14445
 H76 H 0.79295 -0.09169 0.08386
 H77 H 0.90988 -0.20230 0.15591
 H78 H 0.84901 -0.26041 0.21401
 C79 C 0.62150 -0.33386 0.11335
 C80 C 0.65596 -0.12214 0.37259
 C81 C 0.85655 -0.14080 0.11656
 C82 C 0.84073 -0.37139 0.37716
 C83 C 0.68765 0.28286 -0.13536
 H84 H 0.71543 0.26242 -0.10449
 C85 C 0.64485 0.30449 -0.10495
 H86 H 0.64151 0.30437 -0.05027
 C87 C 0.65822 0.30931 -0.24393
 H88 H 0.66252 0.30866 -0.29830
 C89 C 0.61531 0.33171 -0.21570
 H90 H 0.58851 0.35242 -0.24818
 N91 N 0.69392 0.28672 -0.20369
 C92 C 0.71705 0.17921 -0.36620
 H93 H 0.74557 0.20021 -0.39505
 C94 C 0.68712 0.13821 -0.39654
 H95 H 0.69151 0.12866 -0.44986
 C96 C 0.67430 0.16747 -0.26207
 H97 H 0.66998 0.17847 -0.20928
 C98 C 0.64380 0.12711 -0.29006
 H99 H 0.61498 0.10842 -0.25937
 Zn100 Zn 0.74442 0.24601 -0.24950
 N101 N 0.70951 0.19314 -0.30024
 C102 C 0.78123 0.14352 -0.19184
 N103 N 0.78259 0.20174 -0.18740
 C104 C 0.81293 0.22792 -0.14274
 C105 C 0.84550 0.19537 -0.10361
 C106 C 0.81180 0.10948 -0.15202
 C107 C 0.77028 0.33963 -0.34295
 C108 C 0.80372 0.37474 -0.37842
 C109 C 0.86959 0.31573 -0.33551
 C110 C 0.83520 0.28204 -0.30172
 N111 N 0.78648 0.29462 -0.30453
 H112 H 0.75831 0.12276 -0.22851
 H113 H 0.81365 0.27411 -0.14030
 H114 H 0.87178 0.21663 -0.07139
 H115 H 0.81188 0.06349 -0.15865
 H116 H 0.73151 0.34926 -0.34556
 H117 H 0.78963 0.41055 -0.40758
 H118 H 0.90790 0.30367 -0.33046
 H119 H 0.84783 0.24559 -0.27277
 C120 C 0.64953 0.11284 -0.35808
 C121 C 0.60844 0.32992 -0.14541
 C122 C 0.85470 0.36382 -0.37433
 C123 C 0.84545 0.13551 -0.10919
 C124 C 1.22013 -0.17842 -0.13722
 H125 H 1.24856 -0.19892 -0.10755
 C126 C 1.19103 -0.13518 -0.10821
 H127 H 1.19555 -0.12465 -0.05522
 C128 C 1.17885 -0.16734 -0.24202
 H129 H 1.17490 -0.17951 -0.29452
 C130 C 1.14888 -0.12463 -0.21507
 H131 H 1.12064 -0.10542 -0.24649
 N132 N 1.21282 -0.19428 -0.20276
 C133 C 1.22884 -0.33895 -0.34535
 H134 H 1.26631 -0.33594 -0.36322
 C135 C 1.19591 -0.37630 -0.37793
 H136 H 1.20835 -0.40099 -0.42105
 C137 C 1.16682 -0.30986 -0.26876
 H138 H 1.15521 -0.28430 -0.22606
 C139 C 1.13320 -0.34655 -0.29910
 H140 H 1.09622 -0.34783 -0.27887
 Zn141 Zn 1.25344 -0.24683 -0.25064
 N142 N 1.21339 -0.30515 -0.29303
 C143 C 1.29033 -0.30752 -0.13589
 N144 N 1.30320 -0.27895 -0.19321
 C145 C 1.35146 -0.27292 -0.21075
 C146 C 1.38873 -0.29729 -0.17117
 C147 C 1.32646 -0.33284 -0.09516
 C148 C 1.28966 -0.20563 -0.38102
 C149 C 1.32039 -0.16910 -0.41791
 C150 C 1.33846 -0.11855 -0.31424
 C151 C 1.30772 -0.15545 -0.27981
 N152 N 1.28557 -0.19919 -0.31276
 H153 H 1.25192 -0.31216 -0.12298
 H154 H 1.36134 -0.25145 -0.25724
 H155 H 1.42647 -0.29563 -0.18855
 H156 H 1.31548 -0.35877 -0.05221
 H157 H 1.27096 -0.24003 -0.40632
 H158 H 1.32623 -0.17599 -0.47156
 H159 H 1.35824 -0.08607 -0.28660
 H160 H 1.30366 -0.15132 -0.22558
 C161 C 1.14681 -0.37957 -0.35575
 C162 C 1.15435 -0.10850 -0.14721
 C163 C 1.34591 -0.12628 -0.38338
 C164 C 1.37627 -0.32865 -0.11339
 C165 C 0.27933 0.18294 0.62911
 H166 H 0.25193 0.20669 0.60113
 C167 C 0.30907 0.14295 0.59548
 H168 H 0.30507 0.13664 0.54146
 C169 C 0.32207 0.16555 0.73178
 H170 H 0.32918 0.17658 0.78378
 C171 C 0.35190 0.12555 0.70081
 H172 H 0.38105 0.10538 0.72980
 N173 N 0.28683 0.19366 0.69606
 C174 C 0.16426 0.22611 0.80858
 H175 H 0.15226 0.26382 0.78154
 C176 C 0.12971 0.19246 0.84127
 H177 H 0.09152 0.20549 0.83815
 C178 C 0.22826 0.16483 0.84583
 H179 H 0.26665 0.15381 0.84766
 C180 C 0.19489 0.13018 0.88044
 H181 H 0.20834 0.09314 0.90796
 Zn182 Zn 0.25504 0.24966 0.74824
 N183 N 0.21231 0.21057 0.80861
 C184 C 0.18159 0.27910 0.65490
 N185 N 0.21846 0.30228 0.69191
 C186 C 0.22587 0.35998 0.69172
 C187 C 0.19400 0.39672 0.65565
 C188 C 0.14877 0.31397 0.61944
 C189 C 0.30885 0.28183 0.86550
 C190 C 0.34992 0.30323 0.89921
 C191 C 0.38440 0.32980 0.79083
 C192 C 0.34300 0.30772 0.75923
 N193 N 0.30585 0.28544 0.79678
 H194 H 0.17594 0.23337 0.65604
 H195 H 0.25524 0.37781 0.72155
 H196 H 0.19887 0.44258 0.65827
 H197 H 0.11833 0.29453 0.59307
 H198 H 0.27925 0.26295 0.89425
 H199 H 0.35050 0.30382 0.95407
 H200 H 0.41222 0.35092 0.76064
 H201 H 0.34017 0.30861 0.70461
 C202 C 0.14453 0.14250 0.87616
 C203 C 0.34653 0.11519 0.63169
 C204 C 0.38784 0.32831 0.86162
 C205 C 0.15400 0.37360 0.62064
 C206 C 0.77319 0.68051 0.64512
 H207 H 0.74398 0.70192 0.61797
 C208 C 0.80424 0.64206 0.61024
 H209 H 0.79956 0.63590 0.55631
 C210 C 0.81512 0.66210 0.74760
 H211 H 0.81962 0.67014 0.80113
 C212 C 0.84749 0.62458 0.71459
 H213 H 0.87677 0.60438 0.74320
 N214 N 0.78036 0.69173 0.71224
 C215 C 0.68081 0.72589 0.88068
 H216 H 0.70399 0.75166 0.91242
 C217 C 0.63718 0.70285 0.90770
 H218 H 0.62875 0.70871 0.96087
 C219 C 0.66458 0.68419 0.77403
 H220 H 0.67456 0.67838 0.72145
 C221 C 0.62222 0.65922 0.79909
 H222 H 0.60113 0.63205 0.76578
 Zn223 Zn 0.74453 0.75057 0.76262
 N224 N 0.69370 0.71565 0.81485
 C225 C 0.67327 0.82881 0.74146
 N226 N 0.71096 0.80341 0.70749
 C227 C 0.72181 0.81805 0.64238
 C228 C 0.69095 0.85602 0.60722
 C229 C 0.64169 0.86605 0.70862
 C230 C 0.83545 0.79667 0.79068
 C231 C 0.86930 0.83443 0.81740
 C232 C 0.80575 0.87369 0.88932
 C233 C 0.77270 0.83498 0.86053
 N234 N 0.78834 0.79646 0.81326
 H235 H 0.66670 0.81898 0.79408
 H236 H 0.75367 0.79998 0.61749
 H237 H 0.69794 0.86545 0.55434
 H238 H 0.61048 0.88365 0.73584
 H239 H 0.84662 0.76911 0.74966
 H240 H 0.90650 0.83311 0.79793
 H241 H 0.79297 0.90350 0.92744
 H242 H 0.73441 0.83706 0.87466
 C243 C 0.60827 0.66707 0.86715
 C244 C 0.84311 0.61508 0.64468
 C245 C 0.85487 0.87362 0.86762
 C246 C 0.64951 0.87857 0.64037
 C247 C 0.76841 0.15352 0.16250
 H248 H 0.72988 0.14282 0.16579
 C249 C 0.80147 0.11561 0.13136
 H250 H 0.78834 0.07598 0.11000
 C251 C 0.83276 0.21759 0.18812
 H252 H 0.84489 0.25748 0.20948
 C253 C 0.86665 0.18158 0.15762
 H254 H 0.90465 0.19490 0.15597
 N255 N 0.78516 0.20175 0.19321
 C256 C 0.68152 0.22155 0.35417
 H257 H 0.67509 0.26722 0.35204
 C258 C 0.64942 0.18672 0.38955
 H259 H 0.61834 0.20561 0.41581
 C260 C 0.72764 0.14062 0.31812
 H261 H 0.75805 0.12297 0.28979
 C262 C 0.69676 0.10404 0.35385
 H263 H 0.70270 0.05823 0.35195
 Zn264 Zn 0.74399 0.24562 0.24965
 N265 N 0.71701 0.19757 0.31503
 C266 C 0.64463 0.25788 0.20188
 N267 N 0.69219 0.27548 0.19477
 C268 C 0.70488 0.31290 0.14526
 C269 C 0.66880 0.33779 0.10465
 C270 C 0.60703 0.28274 0.16304
 C271 C 0.81742 0.27853 0.33759
 C272 C 0.85053 0.31322 0.37192
 C273 C 0.80747 0.39628 0.32929
 C274 C 0.77557 0.35968 0.29400
 N275 N 0.78178 0.30181 0.29767
 H276 H 0.63526 0.22556 0.23867
 H277 H 0.74295 0.32481 0.13891
 H278 H 0.67925 0.37046 0.06843
 H279 H 0.56905 0.27217 0.17321
 H280 H 0.82129 0.23252 0.34064
 H281 H 0.87987 0.29362 0.40100
 H282 H 0.80324 0.44219 0.32451
 H283 H 0.74661 0.37754 0.26289
 C284 C 0.65553 0.12732 0.38595
 C285 C 0.85161 0.12867 0.13134
 C286 C 0.84619 0.37281 0.36755
 C287 C 0.61904 0.32451 0.11523
 C288 C 0.29416 0.66374 0.18022
 H289 H 0.26159 0.64252 0.19860
 C290 C 0.33026 0.63271 0.14691
 H291 H 0.32394 0.58754 0.13979
 C292 C 0.34004 0.74851 0.16536
 H293 H 0.34346 0.79402 0.17359
 C294 C 0.37829 0.71838 0.13291
 H295 H 0.41094 0.74057 0.11623
 N296 N 0.30049 0.72007 0.19160
 C297 C 0.16190 0.71882 0.29483
 H298 H 0.14919 0.75726 0.26988
 C299 C 0.12781 0.68383 0.32722
 H300 H 0.08942 0.69609 0.32504
 C301 C 0.22710 0.65893 0.33083
 H302 H 0.26606 0.64971 0.33248
 C303 C 0.19390 0.62250 0.36461
 H304 H 0.20767 0.58542 0.39166
 Zn305 Zn 0.25469 0.75747 0.24937
 N306 N 0.21058 0.70560 0.29562
 C307 C 0.18780 0.78342 0.14966
 N308 N 0.21992 0.80837 0.19271
 C309 C 0.22633 0.86614 0.19313
 C310 C 0.19568 0.90154 0.15454
 C311 C 0.15609 0.81698 0.11124
 C312 C 0.33770 0.77985 0.32051
 C313 C 0.37211 0.81542 0.34881
 C314 C 0.30703 0.88207 0.37780
 C315 C 0.27380 0.84552 0.34595
 N316 N 0.29055 0.79758 0.31425
 H317 H 0.18495 0.73731 0.14832
 H318 H 0.25433 0.88506 0.22423
 H319 H 0.19871 0.94758 0.15827
 H320 H 0.12818 0.79668 0.08076
 H321 H 0.34941 0.73934 0.29975
 H322 H 0.40995 0.80074 0.34919
 H323 H 0.29361 0.92160 0.39978
 H324 H 0.23544 0.85746 0.34234
 C325 C 0.14323 0.63449 0.36252
 C326 C 0.37444 0.65906 0.12608
 C327 C 0.35760 0.86892 0.37524
 C328 C 0.15886 0.87662 0.11552
 O329 O 1.06863 0.09530 0.13108
 O330 O 1.12494 0.05375 0.05967
 C331 C 1.11318 0.08662 0.11034
 O332 O 0.93946 -0.11574 0.10104
 O333 O 0.88103 -0.05772 0.05246
 C334 C 0.89425 -0.10226 0.08788
 O335 O 1.07492 -0.10651 0.10408
 O336 O 1.12793 -0.04585 0.04893
 C337 C 1.11851 -0.08918 0.08805
 O338 O 0.93397 0.10131 0.12245
 O339 O 0.87815 0.04901 0.06241
 C340 C 0.88954 0.08951 0.10454
 Zr341 Zr 1.00129 0.06536 0.09407
 O342 O 0.99611 0.04515 0.19851
 O343 O 1.00334 0.15257 0.12146
 Zr344 Zr 1.00550 -0.07508 0.07545
 O345 O 1.00158 -0.07909 0.18251
 O346 O 1.01263 -0.16515 0.07116
 O347 O 1.04858 -0.00437 0.09668
 O348 O 0.95931 -0.00737 0.09827
 O349 O 0.92962 0.12063 -0.09360
 O350 O 0.87667 0.05431 -0.04904
 C351 C 0.88602 0.10152 -0.08142
 O352 O 1.07129 -0.08480 -0.13477
 O353 O 1.12619 -0.03890 -0.06603
 C354 C 1.11549 -0.07380 -0.11497
 O355 O 0.93710 -0.09767 -0.12221
 O356 O 0.87991 -0.05036 -0.05752
 C357 C 0.89235 -0.08842 -0.10255
 O358 O 1.06382 0.11970 -0.10805
 O359 O 1.12233 0.06365 -0.05690
 C360 C 1.10904 0.10662 -0.09506
 Zr361 Zr 0.99828 0.08187 -0.07652
 O362 O 0.99068 0.08298 -0.18326
 O363 O 0.99933 0.17224 -0.07736
 Zr364 Zr 1.00311 -0.05852 -0.09501
 O365 O 0.99535 -0.03907 -0.19931
 O366 O 1.00899 -0.14588 -0.12104
 Zr367 Zr 1.07641 0.00648 -0.00245
 Zr368 Zr 0.92777 0.00063 0.00160
 O369 O 0.95629 0.01094 -0.09680
 O370 O 1.04569 0.01471 -0.10017
 O371 O 0.95665 0.08369 0.01136
 O372 O 1.04680 -0.07617 -0.01215
 O373 O 1.04160 0.08653 0.00908
 O374 O 0.96163 -0.08015 -0.01006
 H375 H 0.93634 -0.01117 0.13704
 H376 H 1.06832 -0.11027 -0.01656
 H377 H 0.93238 0.01322 -0.13451
 H378 H 1.06110 0.12195 0.01318
 H379 H 0.99278 -0.17820 0.03236
 H380 H 1.01059 -0.16744 -0.07801
 H381 H 1.02788 -0.02718 -0.21663
 H382 H 1.02356 0.07603 -0.20320
 H383 H 0.98834 0.18478 -0.03201
 H384 H 0.99920 0.17476 0.07920
 H385 H 1.02963 0.03640 0.21500
 H386 H 1.03327 -0.06553 0.20063
 O387 O 1.06322 0.59737 0.62627
 O388 O 1.12003 0.55198 0.55879
 C389 C 1.10817 0.58712 0.60764
 O390 O 0.93477 0.38400 0.60588
 O391 O 0.87595 0.44144 0.55779
 C392 C 0.88914 0.39762 0.59517
 O393 O 1.06974 0.39325 0.60882
 O394 O 1.12332 0.45172 0.55171
 C395 C 1.11371 0.40938 0.59262
 O396 O 0.92744 0.59652 0.62612
 O397 O 0.87241 0.54697 0.56105
 C398 C 0.88302 0.58396 0.60810
 Zr399 Zr 0.99582 0.56740 0.58827
 O400 O 0.99253 0.55946 0.69507
 O401 O 0.99733 0.65776 0.59464
 Zr402 Zr 1.00035 0.42528 0.57914
 O403 O 0.99661 0.42950 0.68622
 O404 O 1.00514 0.33523 0.58642
 O405 O 1.04312 0.49714 0.59588
 O406 O 0.95444 0.49409 0.59711
 O407 O 0.92492 0.61156 0.39425
 O408 O 0.87107 0.54965 0.44548
 C409 C 0.88088 0.59404 0.40773
 O410 O 1.06618 0.40697 0.36724
 O411 O 1.12128 0.45635 0.43242
 C412 C 1.11072 0.42002 0.38457
 O413 O 0.92990 0.39685 0.37907
 O414 O 0.87338 0.44724 0.44231
 C415 C 0.88515 0.40846 0.39786
 O416 O 1.06016 0.61040 0.38264
 O417 O 1.11860 0.55734 0.43851
 C418 C 1.10552 0.59785 0.39647
 Zr419 Zr 0.99373 0.57512 0.41783
 O420 O 0.98702 0.57158 0.31102
 O421 O 0.99374 0.66536 0.41196
 Zr422 Zr 0.99777 0.43296 0.40863
 O423 O 0.99040 0.44203 0.30237
 O424 O 1.00503 0.34316 0.39908
 Zr425 Zr 1.07185 0.50273 0.49659
 Zr426 Zr 0.92216 0.49774 0.50048
 O427 O 0.95185 0.50323 0.40210
 O428 O 1.04046 0.50623 0.39884
 O429 O 0.95060 0.58141 0.50493
 O430 O 1.04210 0.41984 0.49193
 O431 O 1.03730 0.58348 0.50270
 O432 O 0.95566 0.41614 0.49446
 H433 H 0.93237 0.49119 0.63694
 H434 H 1.06418 0.38614 0.48854
 H435 H 0.92867 0.50423 0.36350
 H436 H 1.05762 0.61840 0.50465
 H437 H 1.01031 0.32076 0.54001
 H438 H 0.98266 0.32552 0.43261
 H439 H 1.01982 0.46213 0.28532
 H440 H 1.01977 0.56249 0.29186
 H441 H 0.99486 0.67953 0.45896
 H442 H 0.96943 0.67291 0.56785
 H443 H 1.02222 0.53836 0.71000
 H444 H 1.02998 0.43762 0.70332
 O445 O 0.56640 0.09130 0.62865
 O446 O 0.62293 0.04452 0.56194
 C447 C 0.61103 0.07981 0.60963
 O448 O 0.42999 -0.11133 0.60408
 O449 O 0.37652 -0.05396 0.54433
 C450 C 0.38633 -0.09582 0.58525
 O451 O 0.56617 -0.10479 0.61935
 O452 O 0.62271 -0.05294 0.55890
 C453 C 0.61082 -0.09088 0.60384
 O454 O 0.42992 0.09678 0.61841
 O455 O 0.37623 0.04780 0.55072
 C456 C 0.38619 0.08453 0.59766
 Zr457 Zr 0.49875 0.06582 0.58760
 O458 O 0.49869 0.06306 0.69490
 O459 O 0.49900 0.15623 0.58728
 Zr460 Zr 0.49882 -0.07689 0.57855
 O461 O 0.49146 -0.08283 0.68503
 O462 O 0.50172 -0.16677 0.56783
 O463 O 0.54254 -0.00641 0.59837
 O464 O 0.45502 -0.00583 0.59309
 O465 O 0.43606 0.11767 0.40087
 O466 O 0.37922 0.05370 0.43922
 C467 C 0.39099 0.10150 0.40973
 O468 O 0.57288 -0.09867 0.37655
 O469 O 0.62600 -0.04815 0.44342
 C470 C 0.61642 -0.08605 0.39781
 O471 O 0.43739 -0.10845 0.38429
 O472 O 0.37958 -0.05108 0.43425
 C473 C 0.39214 -0.09512 0.39797
 O474 O 0.57195 0.10662 0.39001
 O475 O 0.62547 0.04890 0.44905
 C476 C 0.61564 0.09121 0.40889
 Zr477 Zr 0.50272 0.07394 0.41702
 O478 O 0.49800 0.07091 0.31012
 O479 O 0.50735 0.16381 0.40819
 Zr480 Zr 0.50358 -0.06831 0.40786
 O481 O 0.49936 -0.05534 0.30189
 O482 O 0.50873 -0.15708 0.38929
 Zr483 Zr 0.57438 -0.00184 0.50115
 Zr484 Zr 0.42711 -0.00094 0.49394
 O485 O 0.45945 0.00358 0.39729
 O486 O 0.54813 0.00328 0.40090
 O487 O 0.45752 0.08141 0.50149
 O488 O 0.54371 -0.08381 0.49492
 O489 O 0.54302 0.08049 0.50506
 O490 O 0.45820 -0.08363 0.49072
 H491 H 0.43143 -0.00812 0.63123
 H492 H 0.56520 -0.11818 0.49515
 H493 H 0.43649 0.00538 0.35843
 H494 H 0.56369 0.11502 0.50890
 H495 H 0.50133 -0.18276 0.61436
 H496 H 0.50484 -0.17612 0.43382
 H497 H 0.53243 -0.04381 0.28626
 H498 H 0.53140 0.06241 0.29281
 H499 H 0.50460 0.17900 0.45480
 H500 H 0.49960 0.16808 0.63541
 H501 H 0.46981 0.04109 0.71023
 H502 H 0.51200 -0.05237 0.70468
 O503 O 0.59234 0.41784 0.10967
 O504 O 0.54693 0.35235 0.05017
 C505 C 0.58261 0.36637 0.09099
 O506 O 0.40908 0.56888 0.11981
 O507 O 0.44926 0.63851 0.05972
 C508 C 0.41455 0.62123 0.10101
 O509 O 0.41545 0.41567 0.12207
 O510 O 0.45439 0.35116 0.05242
 C511 C 0.42162 0.36480 0.09825
 O512 O 0.59612 0.57250 0.10414
 O513 O 0.54630 0.64036 0.05432
 C514 C 0.58482 0.62477 0.08951
 Zr515 Zr 0.56325 0.49568 0.07694
 O516 O 0.56213 0.49631 0.18405
 O517 O 0.64083 0.49386 0.06711
 Zr518 Zr 0.44341 0.49401 0.08942
 O519 O 0.45958 0.49673 0.19424
 O520 O 0.36800 0.48958 0.11400
 O521 O 0.50445 0.44127 0.09477
 O522 O 0.50313 0.54701 0.09714
 O523 O 0.58140 0.57653 -0.12785
 O524 O 0.54515 0.64104 -0.05541
 C525 C 0.57578 0.62752 -0.10427
 O526 O 0.40802 0.42237 -0.12056
 O527 O 0.45343 0.35465 -0.06286
 C528 C 0.41935 0.37017 -0.10563
 O529 O 0.39860 0.57638 -0.10199
 O530 O 0.44933 0.64203 -0.05184
 C531 C 0.41068 0.62806 -0.08710
 O532 O 0.58051 0.42274 -0.13439
 O533 O 0.54370 0.35500 -0.06677
 C534 C 0.57388 0.37064 -0.11479
 Zr535 Zr 0.55426 0.49925 -0.09325
 O536 O 0.54363 0.50610 -0.19927
 O537 O 0.63157 0.49709 -0.10431
 Zr538 Zr 0.43438 0.49897 -0.08168
 O539 O 0.43828 0.50639 -0.18823
 O540 O 0.35688 0.49334 -0.08436
 Zr541 Zr 0.49928 0.40924 -0.00467
 Zr542 Zr 0.49770 0.58482 0.00081
 O543 O 0.49325 0.55161 -0.09781
 O544 O 0.49415 0.44639 -0.10201
 O545 O 0.56812 0.54809 -0.00773
 O546 O 0.42931 0.44764 0.00268
 O547 O 0.56866 0.44804 -0.01032
 O548 O 0.42807 0.54622 0.00647
 H549 H 0.50443 0.57328 0.13639
 H550 H 0.39883 0.42480 0.00267
 H551 H 0.49103 0.57917 -0.13595
 H552 H 0.59918 0.42491 -0.01346
 H553 H 0.34989 0.49234 0.07080
 H554 H 0.34456 0.50787 -0.04050
 H555 H 0.40388 0.50839 -0.20433
 H556 H 0.52711 0.47096 -0.21490
 H557 H 0.64554 0.51356 -0.06254
 H558 H 0.65513 0.49246 0.11321
 H559 H 0.59673 0.49804 0.19916
 H560 H 0.46722 0.45722 0.20922
   
