data_POSCAR
  _audit_creation_date              2014-09-24
  _audit_creation_method            'ToBaCCo'
  _symmetry_space_group_name_H-M    'P1'
  _symmetry_Int_Tables_number       1
  _symmetry_cell_setting            triclinic
  loop_
  _symmetry_equiv_pos_as_xyz
 x,y,z
_cell_length_a 49.4801
_cell_length_b 26.2830
_cell_length_c 21.7592
_cell_angle_alpha 89.993900
_cell_angle_beta 89.856700
_cell_angle_gamma 90.125300
loop_
  _atom_site_label
  _atom_site_type_symbol
  _atom_site_fract_x
  _atom_site_fract_y
  _atom_site_fract_z
C1 C 0.79978 0.19370 0.44563
 C2 C 0.81177 0.18118 0.50162
 C3 C 0.79976 0.19436 0.55748
 C4 C 0.77487 0.22068 0.55805
 C5 C 0.76242 0.23358 0.50139
 C6 C 0.77491 0.22009 0.44485
 C7 C 0.76226 0.23347 0.38932
 C8 C 0.73778 0.25953 0.38923
 C9 C 0.72508 0.27320 0.44463
 C10 C 0.73750 0.26021 0.50128
 C11 C 0.76215 0.23454 0.61345
 C12 C 0.73765 0.26047 0.61332
 C13 C 0.72497 0.27367 0.55778
 C14 C 0.70005 0.29988 0.55691
 C15 C 0.68811 0.31244 0.50086
 C16 C 0.70023 0.29946 0.44509
 H17 H 0.77121 0.22384 0.34539
 H18 H 0.72887 0.26892 0.34527
 H19 H 0.77107 0.22533 0.65746
 H20 H 0.72868 0.27017 0.65723
 H21 H 0.83101 0.16121 0.50170
 H22 H 0.66889 0.33241 0.50049
 C23 C 0.30026 0.70032 0.44510
 C24 C 0.31241 0.68820 0.50101
 C25 C 0.30019 0.70066 0.55691
 C26 C 0.27502 0.72586 0.55752
 C27 C 0.26242 0.73836 0.50097
 C28 C 0.27509 0.72554 0.44443
 C29 C 0.26230 0.73833 0.38894
 C30 C 0.23748 0.76322 0.38889
 C31 C 0.22458 0.77627 0.44433
 C32 C 0.23715 0.76380 0.50093
 C33 C 0.26216 0.73891 0.61298
 C34 C 0.23732 0.76378 0.61297
 C35 C 0.22446 0.77658 0.55748
 C36 C 0.19921 0.80173 0.55670
 C37 C 0.18711 0.81383 0.50063
 C38 C 0.19940 0.80141 0.44482
 H39 H 0.27140 0.72914 0.34503
 H40 H 0.22846 0.77221 0.34494
 H41 H 0.27120 0.72992 0.65690
 H42 H 0.22826 0.77296 0.65693
 H43 H 0.33181 0.66894 0.50103
 H44 H 0.16766 0.83297 0.50028
 C45 C 0.19903 0.19925 -0.44520
 C46 C 0.18683 0.18730 -0.50119
 C47 C 0.19915 0.19958 -0.55711
 C48 C 0.22450 0.22455 -0.55764
 C49 C 0.23716 0.23682 -0.50102
 C50 C 0.22441 0.22411 -0.44447
 C51 C 0.23733 0.23668 -0.38896
 C52 C 0.26229 0.26121 -0.38887
 C53 C 0.27525 0.27415 -0.44426
 C54 C 0.26260 0.26194 -0.50089
 C55 C 0.23751 0.23762 -0.61304
 C56 C 0.26246 0.26220 -0.61291
 C57 C 0.27538 0.27471 -0.55738
 C58 C 0.30077 0.29957 -0.55653
 C59 C 0.31296 0.31132 -0.50042
 C60 C 0.30059 0.29892 -0.44468
 H61 H 0.22821 0.22758 -0.34501
 H62 H 0.27138 0.26998 -0.34489
 H63 H 0.22845 0.22889 -0.65706
 H64 H 0.27159 0.27139 -0.65682
 H65 H 0.16727 0.16834 -0.50124
 H66 H 0.33251 0.33024 -0.50002
 C67 C -0.30070 0.69866 -0.44548
 C68 C -0.31264 0.68575 -0.50144
 C69 C -0.30064 0.69897 -0.55736
 C70 C -0.27581 0.72572 -0.55796
 C71 C -0.26342 0.73899 -0.50134
 C72 C -0.27588 0.72540 -0.44476
 C73 C -0.26322 0.73896 -0.38926
 C74 C -0.23880 0.76538 -0.38923
 C75 C -0.22615 0.77922 -0.44466
 C76 C -0.23855 0.76601 -0.50128
 C77 C -0.26308 0.73958 -0.61339
 C78 C -0.23866 0.76601 -0.61332
 C79 C -0.22604 0.77961 -0.55781
 C80 C -0.20122 0.80638 -0.55698
 C81 C -0.18931 0.81917 -0.50094
 C82 C -0.20135 0.80584 -0.44518
 H83 H -0.27212 0.72913 -0.34530
 H84 H -0.22991 0.77496 -0.34530
 H85 H -0.27194 0.73002 -0.65738
 H86 H -0.22971 0.77577 -0.65724
 H87 H -0.33179 0.66532 -0.50145
 H88 H -0.17015 0.83946 -0.50060
 O89 O -0.03698 0.91475 0.11519
 O90 O -0.06696 0.95899 0.05524
 C91 C -0.06123 0.92806 0.09964
 O92 O 0.03826 1.09215 0.10988
 O93 O 0.06820 1.04496 0.05266
 C94 C 0.06250 1.07849 0.09438
 O95 O -0.03760 1.08677 0.11473
 O96 O -0.06752 1.04198 0.05468
 C97 C -0.06183 1.07302 0.09907
 O98 O 0.03838 0.90922 0.10758
 O99 O 0.06835 0.95766 0.05164
 C100 C 0.06264 0.92346 0.09259
 Zr101 Zr 0.00056 0.93593 0.07596
 O102 O 0.00202 0.92647 0.17233
 O103 O -0.00076 0.85624 0.06356
 Zr104 Zr 0.00042 1.06525 0.07799
 O105 O 0.00298 1.06781 0.17501
 O106 O -0.00257 1.14554 0.07452
 O107 O -0.02328 1.00039 0.08939
 O108 O 0.02372 1.00058 0.08847
 O109 O 0.03820 0.91018 -0.10971
 O110 O 0.06815 0.95797 -0.05325
 C111 C 0.06245 0.92416 -0.09462
 O112 O -0.03682 1.08720 -0.11516
 O113 O -0.06691 1.04328 -0.05457
 C114 C -0.06112 1.07412 -0.09912
 O115 O 0.03868 1.09252 -0.10879
 O116 O 0.06851 1.04495 -0.05219
 C117 C 0.06290 1.07867 -0.09362
 O118 O -0.03757 0.91526 -0.11419
 O119 O -0.06750 0.96019 -0.05426
 C120 C -0.06180 0.92892 -0.09844
 Zr121 Zr 0.00040 0.93726 -0.07782
 O122 O 0.00290 0.93489 -0.17490
 O123 O -0.00245 0.85689 -0.07431
 Zr124 Zr 0.00067 1.06671 -0.07595
 O125 O 0.00236 1.07679 -0.17218
 O126 O -0.00217 1.14669 -0.06563
 Zr127 Zr -0.03985 1.00118 0.00015
 Zr128 Zr 0.04092 1.00141 -0.00011
 O129 O 0.02374 1.00202 -0.08861
 O130 O -0.02321 1.00205 -0.08922
 O131 O 0.02495 0.92694 -0.00113
 O132 O -0.02337 1.07504 0.00104
 O133 O -0.02349 0.92741 -0.00074
 O134 O 0.02503 1.07588 0.00106
 H135 H 0.03550 1.00031 0.12521
 H136 H -0.03607 1.10417 0.00122
 H137 H 0.03550 1.00206 -0.12551
 H138 H -0.03618 0.89818 -0.00073
 H139 H 0.01414 1.15858 0.05496
 H140 H 0.01593 1.15970 -0.05431
 H141 H 0.00214 1.04240 -0.19043
 H142 H -0.01025 0.95983 -0.19100
 H143 H 0.01346 0.84426 -0.05145
 H144 H -0.00126 0.84138 0.10538
 H145 H 0.00187 0.96096 0.19029
 H146 H -0.01043 1.04335 0.19146
 O147 O 0.53723 0.41245 -0.11506
 O148 O 0.56734 0.45691 -0.05542
 C149 C 0.56152 0.42570 -0.09956
 O150 O 0.46228 0.59010 -0.10981
 O151 O 0.43225 0.54240 -0.05303
 C152 C 0.43801 0.57621 -0.09447
 O153 O 0.53815 0.58533 -0.11440
 O154 O 0.56805 0.54029 -0.05480
 C155 C 0.56238 0.57170 -0.09882
 O156 O 0.46202 0.40701 -0.10807
 O157 O 0.43216 0.45517 -0.05194
 C158 C 0.43780 0.42106 -0.09297
 Zr159 Zr 0.49977 0.43399 -0.07614
 O160 O 0.49836 0.42489 -0.17257
 O161 O 0.50087 0.35431 -0.06376
 Zr162 Zr 0.50010 0.56325 -0.07806
 O163 O 0.49762 0.56561 -0.17514
 O164 O 0.50314 0.64361 -0.07479
 O165 O 0.52374 0.49849 -0.08958
 O166 O 0.47668 0.49857 -0.08855
 O167 O 0.46209 0.40812 0.10971
 O168 O 0.43219 0.45577 0.05321
 C169 C 0.43785 0.42204 0.09467
 O170 O 0.53733 0.58578 0.11477
 O171 O 0.56737 0.54152 0.05463
 C172 C 0.56159 0.57263 0.09893
 O173 O 0.46196 0.59044 0.10861
 O174 O 0.43201 0.54276 0.05215
 C175 C 0.43770 0.57651 0.09351
 O176 O 0.53793 0.41312 0.11373
 O177 O 0.56795 0.45796 0.05365
 C178 C 0.56220 0.42667 0.09784
 Zr179 Zr 0.49995 0.43514 0.07765
 O180 O 0.49736 0.43248 0.17472
 O181 O 0.50254 0.35479 0.07417
 Zr182 Zr 0.49990 0.56452 0.07584
 O183 O 0.49785 0.57367 0.17218
 O184 O 0.50308 0.64449 0.06579
 Zr185 Zr 0.54032 0.49920 -0.00034
 Zr186 Zr 0.45949 0.49926 0.00008
 O187 O 0.47674 0.49983 0.08854
 O188 O 0.52372 0.49994 0.08906
 O189 O 0.47536 0.42485 0.00096
 O190 O 0.52392 0.57295 -0.00116
 O191 O 0.52378 0.42542 0.00051
 O192 O 0.47552 0.57375 -0.00109
 H193 H 0.46492 0.49832 -0.12532
 H194 H 0.53666 0.60209 -0.00129
 H195 H 0.46508 0.49986 0.12561
 H196 H 0.53636 0.39613 0.00046
 H197 H 0.48657 0.65670 -0.05481
 H198 H 0.48504 0.65748 0.05420
 H199 H 0.50178 0.54001 0.19020
 H200 H 0.51099 0.45648 0.19106
 H201 H 0.48660 0.34227 0.05129
 H202 H 0.50134 0.33945 -0.10558
 H203 H 0.49886 0.45944 -0.19036
 H204 H 0.51136 0.54188 -0.19152
 C205 C 0.34604 0.34045 0.29714
 C206 C 0.33737 0.32385 0.23239
 C207 C 0.35489 0.33896 0.18723
 C208 C 0.37926 0.36913 0.21150
 C209 C 0.39217 0.33458 0.26000
 C210 C 0.37475 0.31954 0.30492
 C211 C 0.34955 0.39837 0.29303
 C212 C 0.36700 0.41344 0.24805
 C213 C 0.32795 0.32459 0.34714
 C214 C 0.31453 0.31243 0.39111
 C215 C 0.39874 0.38594 0.16474
 C216 C 0.41603 0.40140 0.13032
 H217 H 0.31911 0.30234 0.22286
 H218 H 0.35166 0.33035 0.13901
 H219 H 0.41319 0.32285 0.25911
 H220 H 0.38086 0.29496 0.34248
 H221 H 0.33914 0.42522 0.32266
 H222 H 0.37155 0.45323 0.23925
 C223 C -0.15510 0.84841 0.29891
 C224 C -0.15879 0.82148 0.23684
 C225 C -0.14065 0.83678 0.19311
 C226 C -0.12070 0.87743 0.21596
 C227 C -0.10751 0.85417 0.27310
 C228 C -0.12555 0.83895 0.31659
 C229 C -0.15659 0.90546 0.28418
 C230 C -0.13849 0.92073 0.24056
 C231 C -0.17380 0.83223 0.34752
 C232 C -0.18749 0.81967 0.39084
 C233 C -0.10063 0.89417 0.17054
 C234 C -0.08308 0.90897 0.13642
 H235 H -0.17434 0.79325 0.22793
 H236 H -0.14063 0.82162 0.14671
 H237 H -0.08583 0.85003 0.27894
 H238 H -0.11931 0.82180 0.35968
 H239 H -0.17071 0.93150 0.30582
 H240 H -0.13712 0.95987 0.22486
 C241 C 0.65416 0.65634 0.29774
 C242 C 0.62443 0.66086 0.31700
 C243 C 0.60677 0.64491 0.27332
 C244 C 0.62048 0.62588 0.21439
 C245 C 0.64013 0.58436 0.23568
 C246 C 0.65781 0.60035 0.27959
 C247 C 0.65638 0.68615 0.23717
 C248 C 0.63860 0.67010 0.19323
 C249 C 0.67245 0.67310 0.34666
 C250 C 0.68585 0.68578 0.39026
 C251 C 0.60074 0.60811 0.16897
 C252 C 0.58337 0.59244 0.13513
 H253 H 0.61778 0.67539 0.36122
 H254 H 0.58503 0.64594 0.28015
 H255 H 0.64045 0.54608 0.21713
 H256 H 0.67314 0.57562 0.29894
 H257 H 0.67077 0.71669 0.22927
 H258 H 0.63773 0.68697 0.14774
 C259 C 0.15412 1.15969 0.29637
 C260 C 0.12430 1.16892 0.31218
 C261 C 0.10694 1.15409 0.26727
 C262 C 0.12101 1.13139 0.21072
 C263 C 0.13847 1.08795 0.23594
 C264 C 0.15587 1.10282 0.28093
 C265 C 0.15869 1.18725 0.23491
 C266 C 0.14123 1.17235 0.18975
 C267 C 0.17215 1.17529 0.34637
 C268 C 0.18551 1.18714 0.39039
 C269 C 0.10158 1.11462 0.16405
 C270 C 0.08432 1.09913 0.12979
 H271 H 0.11741 1.18574 0.35501
 H272 H 0.08519 1.15823 0.27160
 H273 H 0.13731 1.04895 0.21973
 H274 H 0.16963 1.07654 0.30323
 H275 H 0.17425 1.21580 0.22753
 H276 H 0.14181 1.18814 0.14367
 C277 C 0.65438 0.34232 -0.29860
 C278 C 0.65652 0.31278 -0.23788
 C279 C 0.63863 0.32876 -0.19404
 C280 C 0.62046 0.37264 -0.21542
 C281 C 0.60691 0.35314 -0.27421
 C282 C 0.62469 0.33724 -0.31781
 C283 C 0.65788 0.39845 -0.28078
 C284 C 0.64006 0.41436 -0.23703
 C285 C 0.67281 0.32568 -0.34740
 C286 C 0.68636 0.31306 -0.39087
 C287 C 0.60067 0.39034 -0.16995
 C288 C 0.58328 0.40593 -0.13597
 H289 H 0.67090 0.28236 -0.22989
 H290 H 0.63767 0.31205 -0.14847
 H291 H 0.58518 0.35183 -0.28101
 H292 H 0.61819 0.32226 -0.36189
 H293 H 0.67322 0.42333 -0.30025
 H294 H 0.64011 0.45285 -0.21907
 C295 C 0.15401 0.84217 -0.29690
 C296 C 0.15732 0.89821 -0.27852
 C297 C 0.13992 0.91327 -0.23345
 C298 C 0.12091 0.87082 -0.21116
 C299 C 0.13964 0.82722 -0.19153
 C300 C 0.15709 0.81213 -0.23674
 C301 C 0.12414 0.83650 -0.31432
 C302 C 0.10679 0.85152 -0.26937
 C303 C 0.17207 0.82643 -0.34692
 C304 C 0.18548 0.81442 -0.39091
 C305 C 0.10149 0.88777 -0.16442
 C306 C 0.08425 0.90341 -0.13010
 H307 H 0.17208 0.92377 -0.29892
 H308 H 0.13982 0.95170 -0.21520
 H309 H 0.13928 0.80987 -0.14627
 H310 H 0.17169 0.78184 -0.23021
 H311 H 0.11720 0.82186 -0.35821
 H312 H 0.08500 0.84971 -0.27481
 C313 C 0.34619 0.65924 -0.29450
 C314 C 0.34914 0.60127 -0.28995
 C315 C 0.36661 0.58603 -0.24541
 C316 C 0.37946 0.63019 -0.20967
 C317 C 0.35549 0.66119 -0.18489
 C318 C 0.33795 0.67651 -0.22964
 C319 C 0.37507 0.67933 -0.30341
 C320 C 0.39252 0.66410 -0.25891
 C321 C 0.32806 0.67519 -0.34407
 C322 C 0.31460 0.68732 -0.38776
 C323 C 0.39895 0.61295 -0.16351
 C324 C 0.41623 0.59712 -0.12961
 H325 H 0.33842 0.57448 -0.31905
 H326 H 0.37086 0.54622 -0.23647
 H327 H 0.35253 0.67021 -0.13667
 H328 H 0.31995 0.69863 -0.21976
 H329 H 0.38129 0.70346 -0.34144
 H330 H 0.41367 0.67519 -0.25885
 C331 C -0.15445 1.15410 -0.29783
 C332 C -0.12516 1.15140 -0.32080
 C333 C -0.10730 1.13638 -0.27714
 C334 C -0.12037 1.12547 -0.21454
 C335 C -0.14253 1.08602 -0.22772
 C336 C -0.16047 1.10106 -0.27153
 C337 C -0.15355 1.18959 -0.24178
 C338 C -0.13559 1.17449 -0.19785
 C339 C -0.17298 1.16983 -0.34667
 C340 C -0.18658 1.18181 -0.39018
 C341 C -0.10044 1.10858 -0.16916
 C342 C -0.08294 1.09347 -0.13538
 H343 H -0.11896 1.16072 -0.36739
 H344 H -0.08581 1.13280 -0.28633
 H345 H -0.14413 1.04969 -0.20429
 H346 H -0.17743 1.07758 -0.28565
 H347 H -0.16593 1.22343 -0.23700
 H348 H -0.13260 1.19538 -0.15536
 C349 C 0.65425 0.65565 -0.30002
 C350 C 0.65643 0.68604 -0.23992
 C351 C 0.63888 0.66999 -0.19534
 C352 C 0.62096 0.62519 -0.21548
 C353 C 0.64077 0.58391 -0.23678
 C354 C 0.65827 0.59989 -0.28125
 C355 C 0.62445 0.65943 -0.31863
 C356 C 0.60699 0.64346 -0.27431
 C357 C 0.67237 0.67241 -0.34942
 C358 C 0.68574 0.68522 -0.39314
 C359 C 0.60148 0.60730 -0.16932
 C360 C 0.58421 0.59153 -0.13507
 H361 H 0.67056 0.71714 -0.23290
 H362 H 0.63796 0.68736 -0.15014
 H363 H 0.64118 0.54565 -0.21814
 H364 H 0.67366 0.57527 -0.30073
 H365 H 0.61764 0.67354 -0.36287
 H366 H 0.58523 0.64389 -0.28062
 C367 C 0.15404 1.15934 -0.29808
 C368 C 0.15883 1.18700 -0.23682
 C369 C 0.14152 1.17219 -0.19113
 C370 C 0.12120 1.13125 -0.21139
 C371 C 0.13855 1.08774 -0.23700
 C372 C 0.15580 1.10248 -0.28255
 C373 C 0.12419 1.16862 -0.31308
 C374 C 0.10697 1.15390 -0.26763
 C375 C 0.17195 1.17478 -0.34856
 C376 C 0.18530 1.18664 -0.39275
 C377 C 0.10192 1.11459 -0.16410
 C378 C 0.08472 1.09919 -0.12939
 H379 H 0.17440 1.21560 -0.22997
 H380 H 0.14224 1.18811 -0.14513
 H381 H 0.13742 1.04878 -0.22067
 H382 H 0.16944 1.07613 -0.30522
 H383 H 0.11716 1.18543 -0.35573
 H384 H 0.08522 1.15813 -0.27139
 C385 C 0.34641 0.33919 -0.29510
 C386 C 0.37600 0.32563 -0.30821
 C387 C 0.39332 0.34056 -0.26325
 C388 C 0.37942 0.36768 -0.20934
 C389 C 0.35760 0.33033 -0.18692
 C390 C 0.34018 0.31531 -0.23213
 C391 C 0.34646 0.39681 -0.28378
 C392 C 0.36379 0.41176 -0.23872
 C393 C 0.32841 0.32362 -0.34517
 C394 C 0.31501 0.31186 -0.38914
 C395 C 0.39877 0.38464 -0.16259
 C396 C 0.41599 0.40027 -0.12830
 H397 H 0.38277 0.30589 -0.34930
 H398 H 0.41492 0.33364 -0.26587
 H399 H 0.35594 0.31701 -0.13984
 H400 H 0.32358 0.28909 -0.22382
 H401 H 0.33390 0.42354 -0.30877
 H402 H 0.36604 0.45125 -0.22506
 C403 C -0.15477 0.84784 -0.29781
 C404 C -0.15981 0.90215 -0.27456
 C405 C -0.14196 0.91747 -0.23066
 C406 C -0.12082 0.87702 -0.21436
 C407 C -0.10745 0.86305 -0.27572
 C408 C -0.12525 0.84774 -0.31948
 C409 C -0.15516 0.81435 -0.23996
 C410 C -0.13727 0.82973 -0.19596
 C411 C -0.17328 0.83175 -0.34662
 C412 C -0.18694 0.81942 -0.38992
 C413 C -0.10103 0.89417 -0.16875
 C414 C -0.08363 0.90944 -0.13471
 H415 H -0.17602 0.92637 -0.29093
 H416 H -0.14289 0.95474 -0.20936
 H417 H -0.08583 0.86511 -0.28415
 H418 H -0.11887 0.83665 -0.36534
 H419 H -0.16834 0.78163 -0.23401
 H420 H -0.13516 0.81023 -0.15226
 C421 C 0.34616 0.65837 0.29597
 C422 C 0.36444 0.61407 0.31502
 C423 C 0.38179 0.59890 0.27012
 C424 C 0.37925 0.62945 0.21032
 C425 C 0.38299 0.68521 0.22949
 C426 C 0.36559 0.70041 0.27450
 C427 C 0.33192 0.64003 0.23730
 C428 C 0.34936 0.62479 0.19216
 C429 C 0.32813 0.67436 0.34590
 C430 C 0.31470 0.68666 0.38974
 C431 C 0.39866 0.61251 0.16358
 C432 C 0.41591 0.59705 0.12916
 H433 H 0.36376 0.59602 0.35990
 H434 H 0.39592 0.56781 0.27655
 H435 H 0.39786 0.71062 0.20921
 H436 H 0.36559 0.73883 0.29283
 H437 H 0.31013 0.63916 0.23170
 H438 H 0.34252 0.61081 0.14790
 C439 C -0.15459 1.15201 0.30065
 C440 C -0.12812 1.13051 0.32625
 C441 C -0.11040 1.11540 0.28212
 C442 C -0.12080 1.12319 0.21646
 C443 C -0.12813 1.17984 0.21271
 C444 C -0.14593 1.19500 0.25701
 C445 C -0.16576 1.10998 0.25870
 C446 C -0.14796 1.09480 0.21435
 C447 C -0.17299 1.16806 0.34982
 C448 C -0.18655 1.18050 0.39337
 C449 C -0.10106 1.10653 0.17036
 C450 C -0.08367 1.09187 0.13585
 H451 H -0.12369 1.12727 0.37495
 H452 H -0.09081 1.09926 0.29306
 H453 H -0.12014 1.20569 0.17822
 H454 H -0.15320 1.23384 0.26048
 H455 H -0.18583 1.09364 0.26340
 H456 H -0.15279 1.06546 0.18099
 C457 C 0.65421 0.34270 0.29741
 C458 C 0.65773 0.39894 0.28007
 C459 C 0.64015 0.41499 0.23609
 C460 C 0.62077 0.37329 0.21374
 C461 C 0.60687 0.35340 0.27212
 C462 C 0.62441 0.33736 0.31598
 C463 C 0.65676 0.31349 0.23652
 C464 C 0.63913 0.32960 0.19242
 C465 C 0.67245 0.32592 0.34635
 C466 C 0.68594 0.31325 0.38976
 C467 C 0.60124 0.39121 0.16800
 C468 C 0.58399 0.40693 0.13395
 H469 H 0.67281 0.42387 0.30027
 H470 H 0.64019 0.45363 0.21858
 H471 H 0.58511 0.35193 0.27846
 H472 H 0.61766 0.32220 0.35984
 H473 H 0.67118 0.28308 0.22871
 H474 H 0.63838 0.31292 0.14681
 C475 C 0.15374 0.84207 0.29525
 C476 C 0.15660 0.81117 0.23563
 C477 C 0.13925 0.82611 0.19034
 C478 C 0.12083 0.87041 0.20932
 C479 C 0.14015 0.91267 0.23055
 C480 C 0.15744 0.89777 0.27571
 C481 C 0.12383 0.83739 0.31311
 C482 C 0.10658 0.85225 0.26808
 C483 C 0.17168 0.82649 0.34537
 C484 C 0.18503 0.81460 0.38934
 C485 C 0.10154 0.88718 0.16243
 C486 C 0.08438 0.90273 0.12801
 H487 H 0.17104 0.78055 0.22945
 H488 H 0.13883 0.80830 0.14534
 H489 H 0.14034 0.95084 0.21150
 H490 H 0.17244 0.92319 0.29536
 H491 H 0.11679 0.82358 0.35739
 H492 H 0.08478 0.85119 0.27389
   
