data_POSCAR
  _audit_creation_date              2014-09-24
  _audit_creation_method            'ToBaCCo'
  _symmetry_space_group_name_H-M    'P1'
  _symmetry_Int_Tables_number       1
  _symmetry_cell_setting            triclinic
  loop_
  _symmetry_equiv_pos_as_xyz
 x,y,z
_cell_length_a 35.4813
_cell_length_b 34.1153
_cell_length_c 35.9631
_cell_angle_alpha 93.456600
_cell_angle_beta 90.736400
_cell_angle_gamma 92.559400
loop_
  _atom_site_label
  _atom_site_type_symbol
  _atom_site_fract_x
  _atom_site_fract_y
  _atom_site_fract_z
C1 C 0.68845 0.66078 0.99458
 H2 H 0.69778 0.67200 1.02211
 C3 C 0.65886 0.67827 0.97647
 H4 H 0.64567 0.70323 0.98999
 C5 C 0.69176 0.61246 0.94464
 H6 H 0.70298 0.58567 0.93292
 C7 C 0.66251 0.62892 0.92579
 H8 H 0.65206 0.61516 0.89950
 N9 N 0.70385 0.62809 0.97866
 C10 C 0.80487 0.60020 1.03996
 H11 H 0.79615 0.56966 1.04224
 C12 C 0.84039 0.61379 1.05279
 H13 H 0.85868 0.59340 1.06513
 C14 C 0.79127 0.66324 1.02032
 H15 H 0.77207 0.68203 1.00708
 C16 C 0.82702 0.67824 1.03294
 H17 H 0.83528 0.70877 1.02973
 Zn18 Zn 0.73626 0.59765 1.00638
 N19 N 0.78107 0.62477 1.02422
 C20 C 0.77442 0.56891 0.94646
 N21 N 0.75309 0.55620 0.97481
 C22 C 0.74722 0.51723 0.98003
 C23 C 0.76315 0.48923 0.95556
 C24 C 0.79015 0.54217 0.92123
 C25 C 0.72016 0.59131 1.08227
 C26 C 0.69710 0.58433 1.11244
 C27 C 0.65022 0.55284 1.06987
 C28 C 0.67439 0.56016 1.04035
 N29 N 0.70832 0.57975 1.04700
 H30 H 0.77913 0.60012 0.94353
 H31 H 0.73080 0.50796 1.00331
 H32 H 0.75887 0.45821 0.95980
 H33 H 0.80708 0.55303 0.89888
 H34 H 0.74658 0.60785 1.08706
 H35 H 0.70615 0.59515 1.14023
 H36 H 0.62253 0.53887 1.06429
 H37 H 0.66534 0.55202 1.01198
 C38 C 0.85200 0.65324 1.04921
 C39 C 0.64521 0.66145 0.94200
 C40 C 0.66152 0.56576 1.10616
 C41 C 0.78463 0.50178 0.92569
 C42 C 0.67395 0.36455 0.47411
 H43 H 0.67133 0.38461 0.45234
 C44 C 0.64121 0.34854 0.48906
 H45 H 0.61399 0.35687 0.47901
 C46 C 0.71181 0.33015 0.51460
 H47 H 0.73921 0.32346 0.52510
 C48 C 0.67955 0.31261 0.52981
 H49 H 0.68234 0.29303 0.55218
 N50 N 0.70836 0.35768 0.48898
 C51 C 0.81745 0.40139 0.44987
 H52 H 0.81167 0.43201 0.45562
 C53 C 0.85194 0.39135 0.43527
 H54 H 0.87280 0.41422 0.42943
 C55 C 0.79736 0.33417 0.45098
 H56 H 0.77594 0.31222 0.45757
 C57 C 0.83219 0.32271 0.43680
 H58 H 0.83752 0.29183 0.43207
 Zn59 Zn 0.74829 0.39501 0.47924
 N60 N 0.79093 0.37307 0.45719
 C61 C 0.78424 0.39559 0.54828
 N62 N 0.76685 0.41971 0.52528
 C63 C 0.76622 0.45906 0.53405
 C64 C 0.78284 0.47516 0.56741
 C65 C 0.80055 0.41032 0.58204
 C66 C 0.73586 0.42495 0.40923
 C67 C 0.71536 0.44341 0.38246
 C68 C 0.68052 0.47553 0.43184
 C69 C 0.70171 0.45645 0.45780
 N70 N 0.72837 0.43110 0.44613
 H71 H 0.78686 0.36501 0.53981
 H72 H 0.75394 0.47820 0.51486
 H73 H 0.78279 0.50655 0.57398
 H74 H 0.81458 0.39065 0.59964
 H75 H 0.75603 0.40369 0.40023
 H76 H 0.72055 0.43705 0.35315
 H77 H 0.65837 0.49426 0.44149
 H78 H 0.69484 0.45955 0.48700
 C79 C 0.85973 0.35188 0.42894
 C80 C 0.64397 0.32397 0.51862
 C81 C 0.68672 0.46811 0.39358
 C82 C 0.80005 0.45062 0.59179
 C83 C 0.20045 -0.15097 0.01580
 H84 H 0.22839 -0.15983 0.02283
 C85 C 0.16893 -0.16900 0.03201
 H86 H 0.17280 -0.19181 0.05119
 C87 C 0.16120 -0.10861 -0.01530
 H88 H 0.15812 -0.08457 -0.03309
 C89 C 0.12924 -0.12514 0.00092
 H90 H 0.10182 -0.11378 -0.00452
 N91 N 0.19612 -0.12104 -0.00716
 C92 C 0.30964 -0.09478 -0.04795
 H93 H 0.30597 -0.06351 -0.04783
 C94 C 0.34416 -0.10946 -0.05795
 H95 H 0.36674 -0.08906 -0.06519
 C96 C 0.28420 -0.15885 -0.03893
 H97 H 0.26060 -0.17796 -0.03193
 C98 C 0.31878 -0.17495 -0.04867
 H99 H 0.32179 -0.20640 -0.04885
 Zn100 Zn 0.23800 -0.09022 -0.02424
 N101 N 0.28056 -0.11921 -0.03836
 C102 C 0.26031 -0.06786 0.04907
 N103 N 0.25608 -0.05396 0.01470
 C104 C 0.27031 -0.01758 0.00711
 C105 C 0.29065 0.00577 0.03438
 C106 C 0.28032 -0.04547 0.07709
 C107 C 0.23344 -0.07770 -0.10038
 C108 C 0.22643 -0.05735 -0.13202
 C109 C 0.19718 -0.00738 -0.09317
 C110 C 0.20471 -0.02878 -0.06213
 N111 N 0.22323 -0.06288 -0.06619
 H112 H 0.24972 -0.09712 0.05432
 H113 H 0.26802 -0.00755 -0.02071
 H114 H 0.30321 0.03394 0.02768
 H115 H 0.28440 -0.05768 0.10387
 H116 H 0.24762 -0.10510 -0.10308
 H117 H 0.23536 -0.06902 -0.15903
 H118 H 0.18320 0.02017 -0.08970
 H119 H 0.19663 -0.01772 -0.03469
 C120 C 0.34922 -0.15002 -0.05817
 C121 C 0.13295 -0.15527 0.02511
 C122 C 0.20865 -0.02164 -0.12832
 C123 C 0.29658 -0.00857 0.06946
 C124 C 0.20239 0.14591 0.47878
 H125 H 0.20975 0.15749 0.50672
 C126 C 0.17054 0.15906 0.46052
 H127 H 0.15370 0.18107 0.47437
 C128 C 0.21356 0.10106 0.42762
 H129 H 0.22933 0.07737 0.41532
 C130 C 0.18191 0.11299 0.40872
 H131 H 0.17393 0.09891 0.38181
 N132 N 0.22302 0.11716 0.46222
 C133 C 0.32598 0.10824 0.52887
 H134 H 0.32377 0.07652 0.52918
 C135 C 0.35619 0.12897 0.54693
 H136 H 0.37731 0.11292 0.56085
 C137 C 0.30099 0.16724 0.50970
 H138 H 0.27944 0.18181 0.49495
 C139 C 0.33132 0.18929 0.52717
 H140 H 0.33317 0.22094 0.52585
 Zn141 Zn 0.26087 0.09245 0.48932
 N142 N 0.29891 0.12743 0.51117
 C143 C 0.30667 0.07781 0.43023
 N144 N 0.28693 0.05825 0.45603
 C145 C 0.28767 0.01845 0.45706
 C146 C 0.30811 -0.00328 0.43039
 C147 C 0.32723 0.05745 0.40331
 C148 C 0.24275 0.08131 0.56373
 C149 C 0.22275 0.06613 0.59307
 C150 C 0.18916 0.02068 0.54896
 C151 C 0.20994 0.03677 0.52023
 N152 N 0.23627 0.06647 0.52810
 H153 H 0.30595 0.10949 0.43036
 H154 H 0.27231 0.00353 0.47824
 H155 H 0.30802 -0.03499 0.43074
 H156 H 0.34209 0.07381 0.38271
 H157 H 0.26251 0.10595 0.56952
 H158 H 0.22784 0.07851 0.62123
 H159 H 0.16804 -0.00268 0.54238
 H160 H 0.20453 0.02619 0.49161
 C161 C 0.35911 0.17004 0.54625
 C162 C 0.15977 0.14179 0.42529
 C163 C 0.19551 0.03581 0.58585
 C164 C 0.32780 0.01629 0.40287
 C165 C 0.18289 0.48216 0.18995
 H166 H 0.19118 0.51254 0.19741
 C167 C 0.19457 0.46427 0.15620
 H168 H 0.21247 0.48077 0.13802
 C169 C 0.14598 0.42482 0.20226
 H170 H 0.12513 0.41014 0.21870
 C171 C 0.15682 0.40607 0.16903
 H172 H 0.14514 0.37692 0.16081
 N173 N 0.15827 0.46253 0.21169
 C174 C 0.13272 0.53692 0.30883
 H175 H 0.10314 0.53560 0.30095
 C176 C 0.14429 0.55659 0.34195
 H177 H 0.12325 0.57063 0.35901
 C178 C 0.19514 0.51852 0.29602
 H179 H 0.21437 0.50269 0.27821
 C180 C 0.20811 0.53781 0.32981
 H181 H 0.23751 0.53711 0.33802
 Zn182 Zn 0.13031 0.49002 0.24814
 N183 N 0.15779 0.51822 0.28673
 C184 C 0.06286 0.45068 0.27623
 N185 N 0.10111 0.45285 0.27370
 C186 C 0.12299 0.42796 0.29163
 C187 C 0.10667 0.39834 0.31184
 C188 C 0.04529 0.42169 0.29691
 C189 C 0.11629 0.56443 0.22477
 C190 C 0.09956 0.59267 0.20447
 C191 C 0.05462 0.54251 0.17912
 C192 C 0.07240 0.51498 0.19989
 N193 N 0.10229 0.52651 0.22266
 H194 H 0.04607 0.47140 0.26256
 H195 H 0.15337 0.43086 0.28961
 H196 H 0.12437 0.37826 0.32541
 H197 H 0.01484 0.41989 0.29869
 H198 H 0.14116 0.57274 0.24155
 H199 H 0.11094 0.62273 0.20643
 H200 H 0.03075 0.53307 0.16124
 H201 H 0.06273 0.48440 0.19746
 C202 C 0.18222 0.55647 0.35341
 C203 C 0.18020 0.42621 0.14515
 C204 C 0.06845 0.58190 0.18145
 C205 C 0.06757 0.39502 0.31469
 C206 C -0.15350 0.02334 0.22868
 H207 H -0.15446 0.03467 0.25738
 C208 C -0.17339 0.04154 0.20118
 H209 H -0.19029 0.06635 0.20885
 C210 C -0.13010 -0.02228 0.18328
 H211 H -0.11317 -0.04707 0.17616
 C212 C -0.14949 -0.00495 0.15499
 H213 H -0.14768 -0.01671 0.12643
 N214 N -0.13211 -0.00787 0.21935
 C215 C -0.11331 -0.07273 0.31949
 H216 H -0.08487 -0.08113 0.31384
 C217 C -0.13097 -0.08481 0.35154
 H218 H -0.11559 -0.10203 0.37044
 C219 C -0.16779 -0.04050 0.30154
 H220 H -0.18214 -0.02322 0.28208
 C221 C -0.18651 -0.05181 0.33357
 H222 H -0.21503 -0.04302 0.33864
 Zn223 Zn -0.10195 -0.03096 0.25586
 N224 N -0.13142 -0.05023 0.29558
 C225 C -0.06677 0.04516 0.26856
 N226 N -0.06530 0.00685 0.27682
 C227 C -0.03896 -0.00462 0.30133
 C228 C -0.01448 0.02322 0.32035
 C229 C -0.04328 0.07391 0.28727
 C230 C -0.09300 -0.10988 0.23063
 C231 C -0.07671 -0.14035 0.20972
 C232 C -0.02770 -0.09411 0.19163
 C233 C -0.04476 -0.06456 0.21306
 N234 N -0.07690 -0.07288 0.23183
 H235 H -0.08668 0.05386 0.24810
 H236 H -0.03728 -0.03528 0.30668
 H237 H 0.00558 0.01400 0.34064
 H238 H -0.04577 0.10439 0.28118
 H239 H -0.11900 -0.11553 0.24514
 H240 H -0.08985 -0.16967 0.20852
 H241 H -0.00241 -0.08696 0.17646
 H242 H -0.03298 -0.03471 0.21397
 C243 C -0.16782 -0.07365 0.35926
 C244 C -0.17113 0.02736 0.16398
 C245 C -0.04404 -0.13247 0.18964
 C246 C -0.01740 0.06303 0.31421
 C247 C 0.33655 0.52809 0.69606
 H248 H 0.32796 0.49773 0.69961
 C249 C 0.31967 0.54858 0.66822
 H250 H 0.29790 0.53399 0.65035
 C251 C 0.37780 0.58320 0.71269
 H252 H 0.40166 0.59611 0.72865
 C253 C 0.36180 0.60456 0.68535
 H254 H 0.37304 0.63389 0.68076
 N255 N 0.36544 0.54549 0.71719
 C256 C 0.38809 0.47023 0.80625
 H257 H 0.41807 0.46974 0.80123
 C258 C 0.37289 0.45072 0.83558
 H259 H 0.39157 0.43529 0.85306
 C260 C 0.32796 0.49206 0.78952
 H261 H 0.31093 0.50877 0.77162
 C262 C 0.31141 0.47300 0.81917
 H263 H 0.28151 0.47487 0.82416
 Zn264 Zn 0.39426 0.51544 0.74809
 N265 N 0.36572 0.49017 0.78386
 C266 C 0.41211 0.57599 0.79907
 N267 N 0.42901 0.54915 0.77617
 C268 C 0.46721 0.54695 0.77566
 C269 C 0.48998 0.57350 0.79829
 C270 C 0.43365 0.60324 0.82154
 C271 C 0.40436 0.43889 0.71892
 C272 C 0.41900 0.40926 0.69591
 C273 C 0.45971 0.45800 0.66862
 C274 C 0.44417 0.48698 0.69228
 N275 N 0.41745 0.47684 0.71724
 H276 H 0.38165 0.57648 0.79940
 H277 H 0.47997 0.52468 0.75795
 H278 H 0.52038 0.57200 0.79772
 H279 H 0.41958 0.62472 0.83915
 H280 H 0.38201 0.43147 0.73769
 H281 H 0.40860 0.37911 0.69772
 H282 H 0.48127 0.46621 0.64918
 H283 H 0.45333 0.51750 0.69072
 C284 C 0.33412 0.45216 0.84254
 C285 C 0.33321 0.58697 0.66229
 C286 C 0.44696 0.41861 0.67064
 C287 C 0.47310 0.60232 0.82107
 C288 C 0.67039 1.00740 0.70918
 H289 H 0.69100 1.02742 0.72348
 C290 C 0.67970 0.98724 0.67554
 H291 H 0.70769 0.99135 0.66438
 C292 C 0.60794 0.97957 0.70448
 H293 H 0.57965 0.97764 0.71524
 C294 C 0.61602 0.95907 0.67112
 H295 H 0.59407 0.94097 0.65647
 N296 N 0.63478 1.00346 0.72266
 C297 C 0.64709 1.09592 0.81145
 H298 H 0.62248 1.11128 0.80373
 C299 C 0.67208 1.11315 0.83878
 H300 H 0.66699 1.14198 0.85156
 C301 C 0.68352 1.03937 0.80514
 H302 H 0.68761 1.01042 0.79228
 C303 C 0.70917 1.05551 0.83230
 H304 H 0.73326 1.03912 0.83997
 Zn305 Zn 0.61525 1.03461 0.76296
 N306 N 0.65306 1.05955 0.79537
 C307 C 0.60232 0.97514 0.81244
 N308 N 0.58455 1.00039 0.79095
 C309 C 0.54619 0.99977 0.78836
 C310 C 0.52431 0.97412 0.80892
 C311 C 0.58148 0.94858 0.83301
 C312 C 0.59500 1.08181 0.70589
 C313 C 0.57338 1.10735 0.68674
 C314 C 0.53426 1.11554 0.74087
 C315 C 0.55744 1.09073 0.75950
 N316 N 0.58631 1.07327 0.74134
 H317 H 0.63274 0.97529 0.81341
 H318 H 0.53237 1.01831 0.76968
 H319 H 0.49383 0.97378 0.80668
 H320 H 0.59605 0.92864 0.84990
 H321 H 0.61851 1.06841 0.69214
 H322 H 0.58021 1.11315 0.65828
 H323 H 0.51047 1.12821 0.75493
 H324 H 0.55169 1.08451 0.78806
 C325 C 0.70321 1.09256 0.84954
 C326 C 0.65187 0.96324 0.65600
 C327 C 0.54214 1.12379 0.70407
 C328 C 0.54196 0.94816 0.83136
 C329 C 0.06178 0.19017 -0.10190
 H330 H 0.07477 0.21010 -0.08056
 C331 C 0.08318 0.16104 -0.11864
 H332 H 0.11264 0.15942 -0.11086
 C333 C 0.00736 0.16585 -0.13630
 H334 H -0.02249 0.16737 -0.14224
 C335 C 0.02800 0.13615 -0.15401
 H336 H 0.01409 0.11514 -0.17399
 N337 N 0.02462 0.19235 -0.11102
 C338 C -0.05315 0.28777 -0.09313
 H339 H -0.05256 0.28906 -0.06300
 C340 C -0.07312 0.31508 -0.11173
 H341 H -0.08816 0.33695 -0.09553
 C342 C -0.03229 0.25898 -0.15039
 H343 H -0.01538 0.23778 -0.16522
 C344 C -0.05162 0.28629 -0.17023
 H345 H -0.04996 0.28569 -0.20030
 Zn346 Zn -0.00309 0.22964 -0.08264
 N347 N -0.03335 0.26035 -0.11247
 C348 C 0.05595 0.28607 -0.07846
 N349 N 0.03186 0.26553 -0.05691
 C350 C 0.03400 0.26981 -0.01906
 C351 C 0.06247 0.29425 -0.00154
 C352 C 0.08517 0.31016 -0.06213
 C353 C -0.07018 0.20347 -0.04513
 C354 C -0.08986 0.18121 -0.01954
 C355 C -0.03117 0.15352 -0.00210
 C356 C -0.01258 0.17663 -0.02752
 N357 N -0.03212 0.20110 -0.04834
 H358 H 0.05331 0.28240 -0.10849
 H359 H 0.01417 0.25374 -0.00246
 H360 H 0.06464 0.29688 0.02857
 H361 H 0.10486 0.32527 -0.07970
 H362 H -0.08539 0.22250 -0.06232
 H363 H -0.11994 0.18411 -0.01672
 H364 H -0.01522 0.13420 0.01431
 H365 H 0.01759 0.17504 -0.03078
 C366 C -0.07213 0.31489 -0.15082
 C367 C 0.06639 0.13368 -0.14479
 C368 C -0.07017 0.15572 0.00200
 C369 C 0.08894 0.31385 -0.02318
 C370 C 0.50357 0.19546 0.13192
 H371 H 0.52983 0.20449 0.14620
 C372 C 0.48098 0.16437 0.14470
 H373 H 0.48981 0.14973 0.16901
 C374 C 0.46068 0.20202 0.08186
 H375 H 0.45325 0.21583 0.05670
 C376 C 0.43763 0.17115 0.09344
 H377 H 0.41236 0.16177 0.07754
 N378 N 0.49272 0.21403 0.10130
 C379 C 0.56421 0.32275 0.10192
 H380 H 0.57006 0.32089 0.07243
 C381 C 0.57653 0.35607 0.12382
 H382 H 0.59220 0.37943 0.11091
 C383 C 0.53449 0.29546 0.15366
 H384 H 0.51674 0.27259 0.16481
 C385 C 0.54630 0.32855 0.17671
 H386 H 0.53805 0.33068 0.20562
 Zn387 Zn 0.52243 0.25504 0.08079
 N388 N 0.54333 0.29340 0.11685
 C389 C 0.45964 0.29733 0.06899
 N390 N 0.49013 0.28304 0.05111
 C391 C 0.49596 0.28852 0.01443
 C392 C 0.46944 0.30769 -0.00611
 C393 C 0.43234 0.31618 0.04947
 C394 C 0.59734 0.23738 0.06229
 C395 C 0.62559 0.21948 0.04167
 C396 C 0.57800 0.19062 -0.00152
 C397 C 0.55048 0.20857 0.02035
 N398 N 0.56059 0.23177 0.05138
 H399 H 0.45610 0.29301 0.09831
 H400 H 0.52092 0.27791 0.00102
 H401 H 0.47379 0.31152 -0.03544
 H402 H 0.40781 0.32658 0.06396
 H403 H 0.60478 0.25512 0.08744
 H404 H 0.65465 0.22402 0.05108
 H405 H 0.56972 0.17211 -0.02604
 H406 H 0.52098 0.20400 0.01261
 C407 C 0.56690 0.35966 0.16161
 C408 C 0.44755 0.15211 0.12512
 C409 C 0.61597 0.19562 0.00936
 C410 C 0.43697 0.32099 0.01132
 C411 C 0.96187 0.66757 0.68019
 H412 H 0.99044 0.67671 0.68868
 C413 C 0.94479 0.63346 0.69377
 H414 H 0.96014 0.61662 0.71300
 C415 C 0.90832 0.67578 0.64181
 H416 H 0.89476 0.69070 0.62007
 C417 C 0.89039 0.64224 0.65464
 H418 H 0.86302 0.63218 0.64320
 N419 N 0.94380 0.68735 0.65394
 C420 C 1.00548 0.79418 0.62645
 H421 H 1.00480 0.78448 0.59727
 C422 C 1.02276 0.83017 0.63734
 H423 H 1.03497 0.84778 0.61612
 C424 C 0.99083 0.78182 0.68894
 H425 H 0.97835 0.76256 0.70868
 C426 C 1.00843 0.81821 0.70132
 H427 H 1.00970 0.82701 0.73075
 Zn428 Zn 0.97056 0.72448 0.62578
 N429 N 0.99017 0.77064 0.65193
 C430 C 0.90950 0.76520 0.60465
 N431 N 0.93791 0.74416 0.58975
 C432 C 0.94489 0.74321 0.55257
 C433 C 0.92281 0.76426 0.52894
 C434 C 0.88673 0.78635 0.58210
 C435 C 1.04693 0.70940 0.61971
 C436 C 1.07934 0.69413 0.60426
 C437 C 1.04022 0.65710 0.55787
 C438 C 1.00833 0.67266 0.57463
 N439 N 1.01236 0.69950 0.60413
 H440 H 0.90535 0.76647 0.63444
 H441 H 0.96859 0.72789 0.54139
 H442 H 0.92901 0.76426 0.49954
 H443 H 0.86470 0.80340 0.59467
 H444 H 1.04953 0.72952 0.64407
 H445 H 1.10676 0.70299 0.61630
 H446 H 1.03682 0.63681 0.53362
 H447 H 0.98048 0.66413 0.56356
 C448 C 1.02485 0.84259 0.67520
 C449 C 0.90902 0.62006 0.67985
 C450 C 1.07625 0.66856 0.57255
 C451 C 0.89373 0.78645 0.54381
 C452 C 0.48470 0.70390 0.37020
 H453 H 0.45738 0.70996 0.35872
 C454 C 0.50173 0.66882 0.35931
 H455 H 0.48773 0.64826 0.33897
 C456 C 0.53559 0.72233 0.41186
 H457 H 0.54831 0.74253 0.43316
 C458 C 0.55317 0.68748 0.40227
 H459 H 0.57970 0.68150 0.41555
 N460 N 0.50207 0.73013 0.39565
 C461 C 0.44454 0.84077 0.38736
 H462 H 0.44202 0.84811 0.41688
 C463 C 0.42990 0.86528 0.36160
 H464 H 0.41625 0.89165 0.37131
 C465 C 0.46536 0.79711 0.33881
 H466 H 0.47944 0.77076 0.33010
 C467 C 0.45110 0.82080 0.31210
 H468 H 0.45402 0.81246 0.28276
 Zn469 Zn 0.47742 0.77578 0.41374
 N470 N 0.46121 0.80710 0.37564
 C471 C 0.54248 0.82162 0.42531
 N472 N 0.51191 0.80793 0.44381
 C473 C 0.50785 0.81668 0.48093
 C474 C 0.53632 0.83873 0.50116
 C475 C 0.57157 0.84331 0.44441
 C476 C 0.39965 0.76260 0.42566
 C477 C 0.36814 0.74432 0.44116
 C478 C 0.40937 0.71720 0.48601
 C479 C 0.44017 0.73583 0.46954
 N480 N 0.43483 0.75787 0.43983
 H481 H 0.54470 0.81452 0.39571
 H482 H 0.48300 0.80604 0.49494
 H483 H 0.53353 0.84483 0.53087
 H484 H 0.59615 0.85294 0.42931
 H485 H 0.39600 0.77901 0.40123
 H486 H 0.34037 0.74735 0.42911
 H487 H 0.41417 0.69906 0.50915
 H488 H 0.46850 0.73163 0.47958
 C489 C 0.43288 0.85496 0.32361
 C490 C 0.53638 0.66043 0.37573
 C491 C 0.37290 0.72095 0.47126
 C492 C 0.56890 0.85151 0.48296
 C493 C 0.36047 0.00062 0.18712
 C494 C 0.38681 0.01650 0.21380
 C495 C 0.40855 0.05056 0.20669
 C496 C 0.40427 0.06827 0.17273
 C497 C 0.37731 0.05205 0.14625
 C498 C 0.35543 0.01815 0.15357
 C499 C 0.39102 -0.00351 0.24868
 C500 C 0.39994 -0.04308 0.24713
 C501 C 0.39850 -0.06459 0.27894
 C502 C 0.38634 -0.04665 0.31280
 C503 C 0.37677 -0.00689 0.31435
 C504 C 0.38044 0.01469 0.28256
 H505 H 0.34370 -0.02576 0.19244
 H506 H 0.42926 0.06276 0.22710
 H507 H 0.40742 -0.05756 0.22076
 H508 H 0.37204 0.04489 0.28357
 H509 H 0.37393 0.06516 0.11981
 H510 H 0.38296 -0.06365 0.33704
 C511 C 0.13277 1.00041 0.67961
 C512 C 0.11276 0.98634 0.70985
 C513 C 0.08807 0.95310 0.70458
 C514 C 0.08348 0.93422 0.66894
 C515 C 0.10287 0.94911 0.63881
 C516 C 0.12785 0.98180 0.64388
 C517 C 0.12021 1.00495 0.74728
 C518 C 0.09386 1.02923 0.76462
 C519 C 0.10299 1.04994 0.79864
 C520 C 0.13792 1.04439 0.81622
 C521 C 0.16399 1.01991 0.79902
 C522 C 0.15539 1.00088 0.76435
 H523 H 0.15229 1.02564 0.68412
 H524 H 0.07346 0.94154 0.72810
 H525 H 0.06719 1.03360 0.75081
 H526 H 0.17612 0.98284 0.75068
 H527 H 0.09940 0.93430 0.61138
 H528 H 0.14547 1.05993 0.84259
 C529 C 0.60183 0.54091 0.21865
 C530 C 0.59317 0.51009 0.24167
 C531 C 0.59018 0.47115 0.22595
 C532 C 0.59623 0.46366 0.18747
 C533 C 0.60674 0.49485 0.16553
 C534 C 0.60906 0.53353 0.18100
 C535 C 0.58811 0.52003 0.28195
 C536 C 0.56475 0.55076 0.29302
 C537 C 0.56570 0.56686 0.32969
 C538 C 0.58884 0.55069 0.35623
 C539 C 0.61170 0.51954 0.34600
 C540 C 0.61123 0.50411 0.30872
 H541 H 0.60406 0.57100 0.23028
 H542 H 0.58251 0.44724 0.24327
 H543 H 0.54757 0.56400 0.27247
 H544 H 0.62994 0.48110 0.30021
 H545 H 0.61127 0.48913 0.13600
 H546 H 0.58995 0.56299 0.38472
 C547 C 0.85275 0.44540 0.71568
 C548 C 0.87102 0.46382 0.74744
 C549 C 0.88934 0.50110 0.74511
 C550 C 0.88802 0.52057 0.71199
 C551 C 0.86878 0.50225 0.68082
 C552 C 0.85104 0.46484 0.68244
 C553 C 0.86414 0.44865 0.78453
 C554 C 0.87867 0.41327 0.79567
 C555 C 0.87153 0.40116 0.83191
 C556 C 0.84907 0.42364 0.85589
 C557 C 0.83468 0.45868 0.84482
 C558 C 0.84246 0.47105 0.80942
 H559 H 0.83774 0.41723 0.71749
 H560 H 0.90274 0.51590 0.76966
 H561 H 0.89619 0.39628 0.77694
 H562 H 0.83157 0.49851 0.80125
 H563 H 0.86774 0.51714 0.65510
 H564 H 0.84428 0.41456 0.88386
 C565 C 0.21492 0.37073 -0.02388
 C566 C 0.24694 0.38933 -0.00613
 C567 C 0.24398 0.40749 0.02965
 C568 C 0.20992 0.40543 0.04847
 C569 C 0.17822 0.38551 0.03115
 C570 C 0.18058 0.36828 -0.00519
 C571 C 0.28439 0.38589 -0.02277
 C572 C 0.29228 0.40033 -0.05770
 C573 C 0.32859 0.39719 -0.07236
 C574 C 0.35627 0.37870 -0.05272
 C575 C 0.34852 0.36417 -0.01793
 C576 C 0.31271 0.36809 -0.00299
 H577 H 0.21718 0.35624 -0.05136
 H578 H 0.26861 0.42190 0.04352
 H579 H 0.27074 0.41476 -0.07272
 H580 H 0.30679 0.35688 0.02400
 H581 H 0.15180 0.38371 0.04582
 H582 H 0.38419 0.37667 -0.06431
 C583 C 0.73460 0.13898 1.01247
 C584 C 0.76691 0.12114 0.99919
 C585 C 0.77179 0.11588 0.96062
 C586 C 0.74352 0.12592 0.93569
 C587 C 0.71030 0.14246 0.94952
 C588 C 0.70646 0.14978 0.98824
 C589 C 0.79458 0.10748 1.02622
 C590 C 0.78153 0.08745 1.05685
 C591 C 0.80643 0.07604 1.08406
 C592 C 0.84528 0.08493 1.08078
 C593 C 0.85892 0.10516 1.05043
 C594 C 0.83346 0.11573 1.02280
 H595 H 0.73115 0.14475 1.04219
 H596 H 0.79699 0.10277 0.94983
 H597 H 0.75162 0.08054 1.05966
 H598 H 0.84357 0.13103 0.99923
 H599 H 0.68877 0.15107 0.93042
 H600 H 0.86490 0.07676 1.10198
 C601 C 0.17907 0.63198 0.52261
 C602 C 0.21181 0.62217 0.50319
 C603 C 0.20889 0.60722 0.46589
 C604 C 0.17324 0.60175 0.44857
 C605 C 0.14098 0.61172 0.46817
 C606 C 0.14353 0.62701 0.50493
 C607 C 0.24881 0.62720 0.52234
 C608 C 0.25472 0.60911 0.55588
 C609 C 0.28925 0.61465 0.57494
 C610 C 0.31811 0.63830 0.56027
 C611 C 0.31276 0.65624 0.52694
 C612 C 0.27800 0.65062 0.50775
 H613 H 0.18141 0.64382 0.55123
 H614 H 0.23397 0.59934 0.45085
 H615 H 0.23251 0.59066 0.56710
 H616 H 0.27353 0.66448 0.48184
 H617 H 0.11353 0.60769 0.45454
 H618 H 0.34527 0.64235 0.57443
 C619 C 0.69945 0.89106 0.49462
 C620 C 0.73194 0.90401 0.51518
 C621 C 0.72821 0.92237 0.55101
 C622 C 0.69244 0.92689 0.56646
 C623 C 0.66018 0.91244 0.54586
 C624 C 0.66369 0.89433 0.51005
 C625 C 0.76934 0.89284 0.50139
 C626 C 0.78152 0.90145 0.46548
 C627 C 0.81586 0.88736 0.45210
 C628 C 0.83705 0.86377 0.47416
 C629 C 0.82484 0.85469 0.50967
 C630 C 0.79153 0.86990 0.52335
 H631 H 0.70204 0.87587 0.46748
 H632 H 0.75315 0.93217 0.56729
 H633 H 0.76451 0.91906 0.44833
 H634 H 0.78206 0.86238 0.55067
 H635 H 0.63244 0.91504 0.55768
 H636 H 0.86326 0.85276 0.46358
 C637 C -0.00019 0.19503 0.36391
 C638 C 0.01818 0.22645 0.38459
 C639 C 0.05318 0.22100 0.40189
 C640 C 0.06962 0.18425 0.39844
 C641 C 0.05069 0.15292 0.37741
 C642 C 0.01577 0.15844 0.36012
 C643 C 0.00107 0.26515 0.38586
 C644 C -0.03557 0.26934 0.39969
 C645 C -0.05358 0.30479 0.39703
 C646 C -0.03515 0.33571 0.37929
 C647 C 0.00093 0.33179 0.36510
 C648 C 0.01942 0.29665 0.36903
 H649 H -0.02695 0.19918 0.35012
 H650 H 0.06768 0.24525 0.41779
 H651 H -0.05008 0.24503 0.41236
 H652 H 0.04712 0.29297 0.35734
 H653 H 0.06297 0.12443 0.37462
 H654 H -0.04894 0.36301 0.37601
 C655 C 1.02129 0.67229 0.11942
 C656 C 1.00158 0.70163 0.10274
 C657 C 0.96498 0.69287 0.08811
 C658 C 0.94863 0.65476 0.08954
 C659 C 0.96869 0.62580 0.10589
 C660 C 1.00451 0.63434 0.12150
 C661 C 1.01804 0.74214 0.10292
 C662 C 1.05089 0.75081 0.08291
 C663 C 1.06496 0.78982 0.08182
 C664 C 1.04712 0.81981 0.10244
 C665 C 1.01550 0.81122 0.12378
 C666 C 1.00055 0.77239 0.12335
 H667 H 1.04903 0.67936 0.13159
 H668 H 0.94941 0.71561 0.07586
 H669 H 1.06462 0.72756 0.06719
 H670 H 0.97568 0.76547 0.13929
 H671 H 0.95574 0.59660 0.10756
 H672 H 1.05831 0.84989 0.10256
 C673 C 0.51839 0.22608 0.62468
 C674 C 0.49515 0.24817 0.60309
 C675 C 0.45952 0.23254 0.59097
 C676 C 0.44727 0.19474 0.60044
 C677 C 0.46998 0.17377 0.62367
 C678 C 0.50557 0.18942 0.63583
 C679 C 0.50793 0.28807 0.59436
 C680 C 0.54023 0.29410 0.57308
 C681 C 0.55332 0.33242 0.56647
 C682 C 0.53451 0.36463 0.58196
 C683 C 0.50327 0.35888 0.60467
 C684 C 0.48946 0.32037 0.60997
 H685 H 0.54603 0.23795 0.63389
 H686 H 0.44202 0.24932 0.57349
 H687 H 0.55491 0.26908 0.56158
 H688 H 0.46534 0.31533 0.62751
 H689 H 0.46063 0.14459 0.63095
 H690 H 0.54529 0.39422 0.57776
 C691 C 0.48937 0.72811 0.88584
 C692 C 0.51033 0.75812 0.90618
 C693 C 0.54507 0.74986 0.92255
 C694 C 0.55918 0.71222 0.91773
 C695 C 0.53847 0.68280 0.89599
 C696 C 0.50357 0.69075 0.88008
 C697 C 0.49790 0.79883 0.90606
 C698 C 0.46081 0.80795 0.91574
 C699 C 0.44827 0.84586 0.91109
 C700 C 0.47239 0.87397 0.89588
 C701 C 0.50911 0.86493 0.88558
 C702 C 0.52205 0.82778 0.89170
 H703 H 0.46285 0.73432 0.87263
 H704 H 0.56147 0.77285 0.93838
 H705 H 0.44193 0.78567 0.92651
 H706 H 0.55016 0.82062 0.88292
 H707 H 0.54911 0.65362 0.89194
 H708 H 0.46218 0.90285 0.89166
 N709 N 0.41929 -0.12422 0.29967
 N710 N 0.40669 -0.10530 0.27459
 N711 N 0.91006 0.34481 0.82957
 N712 N 0.88892 0.36849 0.84715
 N713 N 0.08924 1.10378 0.83920
 N714 N 0.07791 1.07851 0.81358
 N715 N 0.55515 0.62493 0.36636
 N716 N 0.54552 0.60164 0.33855
 N717 N 0.57484 0.39577 0.18366
 N718 N 0.58963 0.42561 0.16878
 N719 N 0.04505 0.87882 0.68674
 N720 N 0.06109 0.89867 0.66204
 N721 N 0.89269 0.58209 0.68654
 N722 N 0.90503 0.55940 0.71028
 N723 N 0.42385 0.11954 0.13530
 N724 N 0.42840 0.10160 0.16494
 N725 N 0.31846 0.43416 -0.12578
 N726 N 0.33965 0.41456 -0.10580
 N727 N 0.81420 0.91699 0.39342
 N728 N 0.83087 0.89687 0.41679
 N729 N 0.81018 0.04232 1.13907
 N730 N 0.79088 0.05628 1.11486
 N731 N 0.32236 0.60698 0.63044
 N732 N 0.29553 0.59494 0.60830
 N733 N 0.19339 0.57300 0.38977
 N734 N 0.16781 0.58550 0.41135
 N735 N 0.72637 0.10735 0.87370
 N736 N 0.75045 0.12080 0.89659
 N737 N 0.65788 0.94452 0.61995
 N738 N 0.68930 0.94534 0.60324
 N739 N 0.18508 0.40889 0.10851
 N740 N 0.20819 0.42283 0.08552
 N741 N -0.10411 0.34325 0.41444
 N742 N -0.09046 0.30936 0.41222
 N743 N 0.38500 0.83440 0.93213
 N744 N 0.41127 0.85732 0.92102
 N745 N 1.10045 0.83187 0.04505
 N746 N 1.09736 0.79898 0.05995
 N747 N 0.61151 0.31443 0.53998
 N748 N 0.58632 0.33957 0.54512
 N749 N 0.39084 0.19197 0.56340
 N750 N 0.41357 0.17556 0.58464
 N751 N 0.88895 0.66762 0.06176
 N752 N 0.91137 0.64416 0.07576
 N753 N 0.61164 0.67361 0.92450
 N754 N 0.59427 0.70398 0.93521
 N755 N 0.12516 0.15015 0.40697
 N756 N 0.10512 0.17895 0.41674
 N757 N 0.51763 0.14760 0.68414
 N758 N 0.52995 0.16754 0.65773
 N759 N 1.05156 0.61156 0.16110
 N760 N 1.02207 0.60443 0.14096
 N761 N 0.97157 0.83640 0.16712
 N762 N 0.99957 0.84233 0.14608
 N763 N 0.46230 0.38717 0.64847
 N764 N 0.48788 0.39205 0.62451
 N765 N 0.49609 0.63064 0.84319
 N766 N 0.48209 0.66170 0.85747
 N767 N 0.00458 0.09205 0.33656
 N768 N -0.00437 0.12779 0.33821
 N769 N 0.05148 0.36406 0.33533
 N770 N 0.01726 0.36334 0.34531
 N771 N 0.51913 0.92104 0.85114
 N772 N 0.53274 0.89210 0.86660
 N773 N 0.63871 0.56488 0.13245
 N774 N 0.61709 0.56627 0.15895
 N775 N 0.17432 1.02200 0.61643
 N776 N 0.14863 0.99478 0.61262
 N777 N 0.20405 0.99778 0.84361
 N778 N 0.20030 1.01613 0.81547
 N779 N 0.66299 0.48304 0.36562
 N780 N 0.63610 0.50533 0.37378
 N781 N 0.81896 0.46753 0.62478
 N782 N 0.83036 0.44697 0.65081
 N783 N 0.32155 0.01298 0.09572
 N784 N 0.32925 -0.00069 0.12692
 N785 N 0.34620 -0.00565 0.37349
 N786 N 0.36006 0.01205 0.34627
 N787 N 0.80185 0.47372 0.90085
 N788 N 0.81478 0.48408 0.86990
 N789 N 0.11007 0.65613 0.55511
 N790 N 0.10966 0.63819 0.52309
 N791 N 0.64423 0.17494 0.98888
 N792 N 0.67562 0.16962 1.00481
 N793 N 0.91320 0.13539 1.02536
 N794 N 0.89859 0.11513 1.04908
 N795 N 0.34080 0.69974 0.48503
 N796 N 0.34371 0.67896 0.51300
 N797 N 0.59963 0.87081 0.50413
 N798 N 0.63180 0.87660 0.48962
 N799 N 0.11998 0.33603 -0.00518
 N800 N 0.14911 0.34664 -0.02300
 N801 N 0.40895 0.33882 -0.01015
 N802 N 0.37672 0.34606 0.00305
 N803 N 0.87288 0.81021 0.52011
 N804 N 0.84562 0.83000 0.53243
   
