data_POSCAR
  _audit_creation_date              2014-09-24
  _audit_creation_method            'ToBaCCo'
  _symmetry_space_group_name_H-M    'P1'
  _symmetry_Int_Tables_number       1
  _symmetry_cell_setting            triclinic
  loop_
  _symmetry_equiv_pos_as_xyz
 x,y,z
_cell_length_a 52.5168
_cell_length_b 26.2508
_cell_length_c 19.7534
_cell_angle_alpha 88.631200
_cell_angle_beta 89.773600
_cell_angle_gamma 90.047200
loop_
  _atom_site_label
  _atom_site_type_symbol
  _atom_site_fract_x
  _atom_site_fract_y
  _atom_site_fract_z
C1 C 0.80975 0.17216 0.46305
 C2 C 0.80560 0.16067 0.53018
 C3 C 0.79043 0.19923 0.55521
 N4 N 0.78433 0.23271 0.50491
 C5 C 0.79615 0.21624 0.44858
 C6 C 0.78425 0.20600 0.62432
 C7 C 0.76376 0.23754 0.64397
 C8 C 0.76084 0.25772 0.70780
 C9 C 0.73920 0.28685 0.70602
 C10 C 0.72917 0.28356 0.64124
 N11 N 0.74435 0.25342 0.60365
 C12 C 0.70619 0.30697 0.61906
 C13 C 0.69997 0.31105 0.54924
 C14 C 0.67562 0.31602 0.52288
 C15 C 0.67828 0.32343 0.45428
 C16 C 0.70412 0.32087 0.44037
 N17 N 0.71733 0.31328 0.49851
 C18 C 0.71544 0.32962 0.37603
 C19 C 0.74122 0.31837 0.36316
 C20 C 0.75517 0.33529 0.30723
 C21 C 0.77840 0.31086 0.31047
 C22 C 0.77780 0.27944 0.36790
 N23 N 0.75510 0.28431 0.39952
 C24 C 0.79651 0.24318 0.38601
 H25 H 0.82142 0.15035 0.42908
 H26 H 0.81332 0.12808 0.55767
 H27 H 0.74814 0.26078 0.43849
 H28 H 0.77339 0.25338 0.75086
 H29 H 0.73212 0.30878 0.74776
 H30 H 0.65771 0.31437 0.55009
 H31 H 0.66283 0.32990 0.41911
 H32 H 0.79360 0.31437 0.27347
 H33 H 0.74066 0.24116 0.55489
 H34 H 0.74904 0.36146 0.26740
 C35 C 0.32620 0.71492 0.46945
 C36 C 0.32616 0.71527 0.53859
 C37 C 0.30450 0.74166 0.55840
 N38 N 0.29180 0.75838 0.50266
 C39 C 0.30483 0.74165 0.44837
 C40 C 0.29876 0.75641 0.62573
 C41 C 0.27769 0.78816 0.64086
 C42 C 0.27424 0.81407 0.70084
 C43 C 0.25015 0.83432 0.69922
 C44 C 0.23932 0.82020 0.63866
 N45 N 0.25621 0.79228 0.60329
 C46 C 0.21375 0.82969 0.62019
 C47 C 0.20495 0.82495 0.55292
 C48 C 0.17968 0.82596 0.53291
 C49 C 0.17969 0.82568 0.46347
 C50 C 0.20493 0.82275 0.44317
 N51 N 0.22031 0.82266 0.49796
 C52 C 0.21372 0.82485 0.37536
 C53 C 0.23915 0.81375 0.35711
 C54 C 0.24981 0.82332 0.29367
 C55 C 0.27396 0.80300 0.29495
 C56 C 0.27742 0.78162 0.35910
 N57 N 0.25605 0.78794 0.39644
 C58 C 0.29931 0.75442 0.38006
 H59 H 0.34105 0.69882 0.43847
 H60 H 0.34148 0.70034 0.56945
 H61 H 0.25215 0.77058 0.44315
 H62 H 0.28730 0.81748 0.74262
 H63 H 0.24144 0.85616 0.73890
 H64 H 0.16288 0.82722 0.56465
 H65 H 0.16289 0.82761 0.43211
 H66 H 0.28732 0.80339 0.25309
 H67 H 0.25192 0.77134 0.56079
 H68 H 0.24098 0.84211 0.25043
 C69 C 0.32755 0.27095 -0.54623
 C70 C 0.33077 0.26184 -0.47844
 C71 C 0.30745 0.24567 -0.45317
 N72 N 0.29016 0.24413 -0.50364
 C73 C 0.30248 0.25845 -0.56142
 C74 C 0.30206 0.23840 -0.38354
 C75 C 0.27786 0.22473 -0.35755
 C76 C 0.27028 0.23055 -0.29094
 C77 C 0.24580 0.21226 -0.28574
 C78 C 0.23921 0.19460 -0.34912
 N79 N 0.25893 0.20248 -0.39255
 C80 C 0.21600 0.17002 -0.36525
 C81 C 0.21005 0.15818 -0.43293
 C82 C 0.19609 0.11619 -0.45219
 C83 C 0.19406 0.11945 -0.52129
 C84 C 0.20647 0.16387 -0.54197
 N85 N 0.21670 0.18700 -0.48786
 C86 C 0.20791 0.18366 -0.60931
 C87 C 0.22716 0.21886 -0.62855
 C88 C 0.22638 0.25106 -0.68510
 C89 C 0.24954 0.27518 -0.68912
 C90 C 0.26400 0.25726 -0.63465
 N91 N 0.24996 0.22328 -0.59765
 C92 C 0.29039 0.26658 -0.62533
 H93 H 0.34197 0.28800 -0.57863
 H94 H 0.34799 0.26924 -0.45039
 H95 H 0.25660 0.19891 -0.55932
 H96 H 0.28111 0.24689 -0.25032
 H97 H 0.23436 0.21224 -0.24011
 H98 H 0.18868 0.08574 -0.41983
 H99 H 0.18492 0.09162 -0.55259
 H100 H 0.25495 0.30201 -0.72896
 H101 H 0.26026 0.18917 -0.44160
 H102 H 0.21085 0.25632 -0.72042
 C103 C -0.17343 0.77629 -0.48076
 C104 C -0.17635 0.78561 -0.54865
 C105 C -0.20169 0.77557 -0.56393
 N106 N -0.21436 0.76238 -0.50620
 C107 C -0.19713 0.76258 -0.45552
 C108 C -0.21364 0.78488 -0.62773
 C109 C -0.23990 0.77471 -0.63782
 C110 C -0.25425 0.79203 -0.69282
 C111 C -0.27712 0.76675 -0.68981
 C112 C -0.27628 0.73453 -0.63329
 N113 N -0.25374 0.73998 -0.60149
 C114 C -0.29516 0.69831 -0.61493
 C115 C -0.29698 0.67884 -0.54747
 C116 C -0.30923 0.63418 -0.52698
 C117 C -0.30780 0.63147 -0.45775
 C118 C -0.29430 0.67396 -0.43819
 N119 N -0.28739 0.70262 -0.49305
 C120 C -0.28888 0.68620 -0.37036
 C121 C -0.26568 0.71061 -0.35338
 C122 C -0.25937 0.72825 -0.28977
 C123 C -0.23490 0.74676 -0.29423
 C124 C -0.22699 0.74091 -0.36056
 N125 N -0.24572 0.71852 -0.39615
 C126 C -0.20282 0.75565 -0.38587
 H127 H -0.15596 0.78135 -0.45280
 H128 H -0.16146 0.80068 -0.58116
 H129 H -0.24415 0.70554 -0.44532
 H130 H -0.24885 0.81896 -0.73255
 H131 H -0.29249 0.77116 -0.72583
 H132 H -0.31787 0.60582 -0.55843
 H133 H -0.31522 0.60099 -0.42546
 H134 H -0.22430 0.76348 -0.25345
 H135 H -0.24705 0.71576 -0.56306
 H136 H -0.27102 0.72826 -0.24452
 O137 O -0.03934 0.89564 0.10659
 O138 O -0.06762 0.94619 0.04744
 C139 C -0.06221 0.90905 0.08961
 O140 O 0.02876 1.07984 0.13524
 O141 O 0.05851 1.03923 0.07012
 C142 C 0.05203 1.06919 0.11877
 O143 O -0.04262 1.07256 0.13375
 O144 O -0.06897 1.03065 0.06119
 C145 C -0.06503 1.05930 0.11243
 O146 O 0.03170 0.89537 0.10549
 O147 O 0.05983 0.95178 0.05542
 C148 C 0.05457 0.91194 0.09305
 Zr149 Zr -0.00392 0.92594 0.07522
 O150 O -0.00233 0.91497 0.18167
 O151 O -0.00557 0.84623 0.06187
 Zr152 Zr -0.00590 1.05331 0.09567
 O153 O -0.00453 1.04100 0.20194
 O154 O -0.00953 1.13282 0.10823
 O155 O -0.02777 0.98706 0.09721
 O156 O 0.01710 0.98933 0.09931
 O157 O 0.03390 0.92268 -0.13041
 O158 O 0.06106 0.96374 -0.05874
 C159 C 0.05649 0.93513 -0.11006
 O160 O -0.03866 1.09666 -0.11333
 O161 O -0.06732 1.04463 -0.05725
 C162 C -0.06159 1.08124 -0.10003
 O163 O 0.03197 1.10326 -0.10208
 O164 O 0.05997 1.05060 -0.04563
 C165 C 0.05481 1.08865 -0.08631
 O166 O -0.03801 0.92295 -0.13815
 O167 O -0.06679 0.96251 -0.06910
 C168 C -0.06111 0.93513 -0.12048
 Zr169 Zr -0.00250 0.94365 -0.09392
 O170 O 0.00088 0.95259 -0.20038
 O171 O -0.00410 0.86346 -0.10267
 Zr172 Zr -0.00365 1.07149 -0.07341
 O173 O -0.00023 1.08778 -0.17840
 O174 O -0.00739 1.15029 -0.05474
 Zr175 Zr -0.04193 0.99715 -0.00186
 Zr176 Zr 0.03417 1.00025 0.00336
 O177 O 0.01898 1.00973 -0.09471
 O178 O -0.02544 1.00824 -0.09865
 O179 O 0.01984 0.92596 -0.00949
 O180 O -0.02715 1.07077 0.01062
 O181 O -0.02533 0.92479 -0.01225
 O182 O 0.01805 1.07321 0.01437
 H183 H 0.02806 0.98543 0.13983
 H184 H -0.03918 1.09966 0.01395
 H185 H 0.03042 1.01455 -0.13432
 H186 H -0.03652 0.89480 -0.01808
 H187 H 0.00426 1.14955 0.08166
 H188 H 0.00869 1.16202 -0.03430
 H189 H -0.00926 1.06036 -0.20193
 H190 H -0.01288 0.97573 -0.21587
 H191 H 0.01183 0.84924 -0.08352
 H192 H 0.00882 0.83698 0.03219
 H193 H -0.01688 0.93342 0.20139
 H194 H -0.01941 1.01979 0.21512
 O195 O 0.46600 0.39204 0.11993
 O196 O 0.43501 0.43836 0.06455
 C197 C 0.44240 0.40262 0.10649
 O198 O 0.52914 0.58567 0.12791
 O199 O 0.55853 0.54696 0.05965
 C200 C 0.55226 0.57746 0.10788
 O201 O 0.45839 0.56951 0.14044
 O202 O 0.43170 0.52182 0.07549
 C203 C 0.43597 0.55288 0.12400
 O204 O 0.53695 0.39950 0.10511
 O205 O 0.56211 0.45860 0.04942
 C206 C 0.55893 0.41857 0.08840
 Zr207 Zr 0.49990 0.42561 0.08155
 O208 O 0.50452 0.41845 0.18780
 O209 O 0.50032 0.34538 0.07353
 Zr210 Zr 0.49456 0.55296 0.09726
 O211 O 0.49909 0.54201 0.20311
 O212 O 0.48889 0.63194 0.10992
 O213 O 0.47484 0.48422 0.10541
 O214 O 0.51956 0.49207 0.09931
 O215 O 0.53255 0.42189 -0.13041
 O216 O 0.56008 0.46762 -0.06505
 C217 C 0.55515 0.43715 -0.11418
 O218 O 0.45487 0.58843 -0.10516
 O219 O 0.43010 0.53251 -0.04280
 C220 C 0.43301 0.56932 -0.08683
 O221 O 0.52611 0.60253 -0.10837
 O222 O 0.55690 0.55474 -0.05459
 C223 C 0.54973 0.59115 -0.09570
 O224 O 0.46092 0.41388 -0.12588
 O225 O 0.43281 0.45016 -0.05198
 C226 C 0.43800 0.42291 -0.10383
 Zr227 Zr 0.49667 0.43959 -0.08837
 O228 O 0.49730 0.44660 -0.19532
 O229 O 0.49720 0.35913 -0.09429
 Zr230 Zr 0.49193 0.56755 -0.07257
 O231 O 0.49234 0.57991 -0.17880
 O232 O 0.48640 0.64643 -0.05769
 Zr233 Zr 0.45811 0.48992 0.00879
 Zr234 Zr 0.53375 0.50277 0.00018
 O235 O 0.51599 0.50817 -0.09529
 O236 O 0.47160 0.50099 -0.09117
 O237 O 0.52144 0.42657 -0.00739
 O238 O 0.47078 0.56565 0.01573
 O239 O 0.47660 0.41955 -0.00199
 O240 O 0.51565 0.57392 0.01100
 H241 H 0.53170 0.49069 0.13755
 H242 H 0.45808 0.59327 0.02027
 H243 H 0.52637 0.51335 -0.13686
 H244 H 0.46620 0.38815 -0.00464
 H245 H 0.49979 0.64998 0.07621
 H246 H 0.50247 0.66041 -0.03981
 H247 H 0.48085 0.55436 -0.19840
 H248 H 0.48297 0.46896 -0.20887
 H249 H 0.51389 0.34712 -0.07727
 H250 H 0.51305 0.33704 0.03851
 H251 H 0.48952 0.43429 0.20920
 H252 H 0.48453 0.52133 0.22000
 C253 C 0.30449 0.28647 0.31897
 C254 C 0.32860 0.26845 0.30214
 C255 C 0.34542 0.29540 0.25391
 N256 N 0.36985 0.27970 0.24733
 N257 N 0.38620 0.30616 0.20877
 C258 C 0.37873 0.34935 0.17531
 N259 N 0.35416 0.36467 0.18092
 N260 N 0.33780 0.33826 0.21979
 C261 C 0.39714 0.38033 0.13614
 C262 C 0.42317 0.37101 0.14123
 H263 H 0.33618 0.23520 0.32864
 H264 H 0.39025 0.41233 0.10582
 H265 H 0.29575 0.31320 0.28371
 H266 H 0.42992 0.33999 0.17357
 C267 C -0.19961 0.80650 0.31753
 C268 C -0.17590 0.78788 0.29813
 C269 C -0.15961 0.81386 0.24749
 N270 N -0.13640 0.79414 0.23365
 N271 N -0.12035 0.81890 0.19232
 C272 C -0.12684 0.86442 0.16319
 N273 N -0.15025 0.88388 0.17613
 N274 N -0.16635 0.85907 0.21768
 C275 C -0.10819 0.89362 0.12196
 C276 C -0.08275 0.87875 0.12090
 H277 H -0.16854 0.75352 0.32243
 H278 H -0.11403 0.92881 0.09684
 H279 H -0.20840 0.83448 0.28410
 H280 H -0.07706 0.84467 0.14890
 C281 C 0.68826 0.68177 0.33372
 C282 C 0.66310 0.66674 0.34530
 C283 C 0.64658 0.64870 0.29101
 N284 N 0.62106 0.64764 0.30084
 N285 N 0.60569 0.63074 0.25298
 C286 C 0.61520 0.61384 0.19354
 N287 N 0.64081 0.61431 0.18387
 N288 N 0.65623 0.63167 0.23167
 C289 C 0.59793 0.59390 0.14177
 C290 C 0.57197 0.60398 0.14589
 H291 H 0.65454 0.67151 0.39469
 H292 H 0.60540 0.56979 0.10264
 H293 H 0.69444 0.68526 0.28139
 H294 H 0.56526 0.62993 0.18391
 C295 C 0.19058 1.16836 0.34030
 C296 C 0.16539 1.15418 0.35344
 C297 C 0.14815 1.13690 0.30019
 N298 N 0.12281 1.13439 0.31286
 N299 N 0.10683 1.11806 0.26598
 C300 C 0.11556 1.10321 0.20469
 N301 N 0.14098 1.10522 0.19212
 N302 N 0.15699 1.12194 0.23898
 C303 C 0.09774 1.08430 0.15353
 C304 C 0.07166 1.09195 0.16124
 H305 H 0.15741 1.15865 0.40356
 H306 H 0.10505 1.06388 0.11061
 H307 H 0.19627 1.17193 0.28760
 H308 H 0.06496 1.11452 0.20292
 C309 C 0.68953 0.32594 -0.33079
 C310 C 0.67252 0.36623 -0.34135
 C311 C 0.65484 0.38269 -0.28843
 N312 N 0.63311 0.40713 -0.30648
 N313 N 0.61632 0.42072 -0.25967
 C314 C 0.62080 0.41105 -0.19294
 N315 N 0.64283 0.38765 -0.17458
 N316 N 0.65950 0.37340 -0.22159
 C317 C 0.60158 0.42414 -0.14202
 C318 C 0.57591 0.42051 -0.15817
 H319 H 0.67167 0.38636 -0.38969
 H320 H 0.60745 0.43448 -0.09167
 H321 H 0.69084 0.31060 -0.27957
 H322 H 0.57062 0.40491 -0.20647
 C323 C 0.19585 0.84452 -0.32502
 C324 C 0.17835 0.88408 -0.33266
 C325 C 0.15943 0.89530 -0.28011
 N326 N 0.13676 0.91595 -0.29834
 N327 N 0.11895 0.92477 -0.25194
 C328 C 0.12326 0.91391 -0.18542
 N329 N 0.14616 0.89425 -0.16684
 N330 N 0.16387 0.88468 -0.21348
 C331 C 0.10331 0.92331 -0.13475
 C332 C 0.07780 0.91798 -0.15207
 H333 H 0.17721 0.90505 -0.38043
 H334 H 0.10861 0.93409 -0.08413
 H335 H 0.19723 0.82472 -0.27640
 H336 H 0.07312 0.90246 -0.20085
 C337 C 0.31537 0.74209 -0.32115
 C338 C 0.32369 0.69205 -0.31147
 C339 C 0.34462 0.67856 -0.26559
 N340 N 0.34837 0.62912 -0.24697
 N341 N 0.36848 0.61561 -0.20995
 C342 C 0.38579 0.65095 -0.19099
 N343 N 0.38211 0.70042 -0.20984
 N344 N 0.36182 0.71403 -0.24633
 C345 C 0.40872 0.63564 -0.15342
 C346 C 0.40976 0.58902 -0.11864
 H347 H 0.31520 0.66191 -0.34045
 H348 H 0.42493 0.66117 -0.15325
 H349 H 0.31997 0.76879 -0.28218
 H350 H 0.39275 0.56570 -0.11445
 C351 C -0.20038 1.18376 -0.32428
 C352 C -0.17402 1.17931 -0.33127
 C353 C -0.15740 1.15774 -0.27855
 N354 N -0.13194 1.16423 -0.28498
 N355 N -0.11617 1.14427 -0.23915
 C356 C -0.12520 1.11676 -0.18517
 N357 N -0.15074 1.10989 -0.17877
 N358 N -0.16661 1.13019 -0.22463
 C359 C -0.10737 1.09369 -0.13597
 C360 C -0.08173 1.10727 -0.13837
 H361 H -0.16466 1.19553 -0.37574
 H362 H -0.11414 1.06512 -0.09974
 H363 H -0.20851 1.17585 -0.27464
 H364 H -0.07562 1.13721 -0.17350
 C365 C 0.69360 0.67253 -0.31812
 C366 C 0.66728 0.66927 -0.32869
 C367 C 0.64895 0.65547 -0.27466
 N368 N 0.62373 0.66346 -0.28503
 N369 N 0.60666 0.64968 -0.23800
 C370 C 0.61416 0.62712 -0.17880
 N371 N 0.63940 0.61901 -0.16841
 N372 N 0.65651 0.63312 -0.21533
 C373 C 0.59530 0.60832 -0.12865
 C374 C 0.56939 0.61954 -0.13438
 H375 H 0.65945 0.67997 -0.37763
 H376 H 0.60180 0.58254 -0.08873
 H377 H 0.70014 0.66870 -0.26641
 H378 H 0.56309 0.64683 -0.17276
 C379 C 0.19889 1.15611 -0.31229
 C380 C 0.17251 1.15402 -0.32154
 C381 C 0.15449 1.14133 -0.26651
 N382 N 0.12953 1.15308 -0.27433
 N383 N 0.11265 1.14072 -0.22627
 C384 C 0.12004 1.11583 -0.16859
 N385 N 0.14502 1.10382 -0.16080
 N386 N 0.16199 1.11659 -0.20875
 C387 C 0.10104 1.09869 -0.11788
 C388 C 0.07585 1.11536 -0.12133
 H389 H 0.16444 1.16555 -0.36989
 H390 H 0.10651 1.06978 -0.08070
 H391 H 0.20582 1.15170 -0.26099
 H392 H 0.07086 1.14566 -0.15705
 C393 C 0.32289 0.24884 -0.33555
 C394 C 0.32573 0.29699 -0.30865
 C395 C 0.34935 0.31315 -0.27555
 N396 N 0.35010 0.35859 -0.24448
 N397 N 0.37149 0.37461 -0.21594
 C398 C 0.39305 0.34606 -0.21786
 N399 N 0.39239 0.30078 -0.24955
 N400 N 0.37091 0.28458 -0.27779
 C401 C 0.41665 0.36375 -0.18566
 C402 C 0.41578 0.40272 -0.13920
 H403 H 0.31052 0.32455 -0.31497
 H404 H 0.43450 0.34491 -0.19645
 H405 H 0.33813 0.22124 -0.33093
 H406 H 0.39745 0.41866 -0.12580
 C407 C -0.18259 0.76774 -0.33662
 C408 C -0.17441 0.81778 -0.32940
 C409 C -0.15118 0.83115 -0.29252
 N410 N -0.14661 0.88056 -0.27828
 N411 N -0.12520 0.89393 -0.24757
 C412 C -0.10732 0.85852 -0.23067
 N413 N -0.11175 0.80907 -0.24550
 N414 N -0.13332 0.79559 -0.27580
 C415 C -0.08378 0.87342 -0.19576
 C416 C -0.08283 0.91891 -0.16114
 H417 H -0.18494 0.84825 -0.35449
 H418 H -0.06785 0.84726 -0.19341
 H419 H -0.17355 0.73683 -0.30858
 H420 H -0.09983 0.94220 -0.15866
 C421 C 0.31861 0.74140 0.32848
 C422 C 0.32174 0.69111 0.30926
 C423 C 0.34504 0.67315 0.27590
 N424 N 0.34660 0.62409 0.25632
 N425 N 0.36807 0.60621 0.22983
 C426 C 0.38891 0.63657 0.22256
 N427 N 0.38739 0.68564 0.24233
 N428 N 0.36586 0.70361 0.26856
 C429 C 0.41273 0.61709 0.19327
 C430 C 0.41348 0.57053 0.16100
 H431 H 0.30757 0.66309 0.32466
 H432 H 0.42953 0.64107 0.19358
 H433 H 0.33212 0.77045 0.31233
 H434 H 0.39617 0.54833 0.15688
 C435 C -0.18184 1.23464 0.33963
 C436 C -0.18040 1.19082 0.30160
 C437 C -0.15652 1.17402 0.27001
 N438 N -0.15621 1.13043 0.23460
 N439 N -0.13452 1.11301 0.20883
 C440 C -0.11225 1.13831 0.21787
 N441 N -0.11254 1.18195 0.25333
 N442 N -0.13427 1.19946 0.27901
 C443 C -0.08818 1.11907 0.18954
 C444 C -0.08798 1.07760 0.14689
 H445 H -0.19680 1.16581 0.29984
 H446 H -0.07061 1.13891 0.20020
 H447 H -0.16590 1.26077 0.34109
 H448 H -0.10583 1.05945 0.13432
 C449 C 0.69999 0.35262 0.32062
 C450 C 0.68029 0.32535 0.29138
 C451 C 0.66191 0.34857 0.24382
 N452 N 0.64129 0.32130 0.22495
 N453 N 0.62348 0.34236 0.18555
 C454 C 0.62559 0.39154 0.16327
 N455 N 0.64642 0.41868 0.18130
 N456 N 0.66424 0.39763 0.22099
 C457 C 0.60506 0.41599 0.12343
 C458 C 0.58131 0.39269 0.11750
 H459 H 0.67709 0.28622 0.30804
 H460 H 0.60794 0.45436 0.10343
 H461 H 0.70425 0.39114 0.30327
 H462 H 0.57822 0.35547 0.14099
 C463 C 0.19633 0.84402 0.32159
 C464 C 0.17488 0.81690 0.30207
 C465 C 0.15619 0.83835 0.25388
 N466 N 0.13392 0.81353 0.24351
 N467 N 0.11623 0.83370 0.20284
 C468 C 0.12017 0.87943 0.17081
 N469 N 0.14256 0.90397 0.18053
 N470 N 0.16023 0.88387 0.22138
 C471 C 0.10024 0.90359 0.12875
 C472 C 0.07558 0.88399 0.12603
 H473 H 0.17095 0.78007 0.32580
 H474 H 0.10462 0.93951 0.10316
 H475 H 0.20097 0.87992 0.29634
 H476 H 0.07102 0.84887 0.15338
   
