data_POSCAR
  _audit_creation_date              2014-09-24
  _audit_creation_method            'ToBaCCo'
  _symmetry_space_group_name_H-M    'P1'
  _symmetry_Int_Tables_number       1
  _symmetry_cell_setting            triclinic
  loop_
  _symmetry_equiv_pos_as_xyz
 x,y,z
_cell_length_a 54.6586
_cell_length_b 54.5081
_cell_length_c 27.2975
_cell_angle_alpha 89.709600
_cell_angle_beta 90.059900
_cell_angle_gamma 89.170700
loop_
  _atom_site_label
  _atom_site_type_symbol
  _atom_site_fract_x
  _atom_site_fract_y
  _atom_site_fract_z
O1 O 0.02766 0.24317 -0.01221
 O2 O -0.01967 0.24761 0.08397
 O3 O 0.02837 0.24357 0.08333
 O4 O -0.02032 0.24594 -0.01102
 O5 O -0.02189 0.20546 -0.00898
 O6 O 0.02560 0.20318 0.08564
 O7 O -0.02173 0.20721 0.08612
 O8 O 0.02539 0.20275 -0.00956
 Cu9 Cu 0.00428 0.24917 0.03586
 Cu10 Cu 0.00163 0.20064 0.03861
 C11 C 0.03458 0.22215 -0.02715
 C12 C -0.02896 0.22814 0.10105
 C13 C 0.03528 0.22282 0.10028
 C14 C -0.02938 0.22593 -0.02584
 O15 O 0.46738 0.76744 0.54732
 O16 O 0.51280 0.76263 0.44736
 O17 O 0.46494 0.76720 0.45180
 O18 O 0.51545 0.76275 0.54185
 O19 O 0.51179 0.72244 0.54317
 O20 O 0.46207 0.72684 0.45310
 O21 O 0.50914 0.72231 0.44847
 O22 O 0.46452 0.72707 0.54836
 Cu23 Cu 0.49038 0.76911 0.49709
 Cu24 Cu 0.48648 0.72066 0.49850
 C25 C 0.45818 0.74798 0.56471
 C26 C 0.51882 0.74154 0.43136
 C27 C 0.45501 0.74766 0.43699
 C28 C 0.52245 0.74171 0.55705
 O29 O 1.01595 0.74721 0.03959
 O30 O 0.96821 0.73289 -0.05067
 O31 O 1.01594 0.74024 -0.05351
 O32 O 0.96819 0.74305 0.04300
 O33 O 0.96381 0.78278 0.02847
 O34 O 1.00899 0.77947 -0.06971
 O35 O 0.96235 0.77245 -0.06493
 O36 O 1.01095 0.78674 0.02378
 Cu37 Cu 0.99245 0.73681 -0.00402
 Cu38 Cu 0.98584 0.78425 -0.02204
 C39 C 1.02202 0.76936 0.04625
 C40 C 0.95713 0.75019 -0.07312
 C41 C 1.02079 0.75970 -0.07741
 C42 C 0.95814 0.76371 0.05231
 O43 O 0.48552 0.24129 0.48403
 O44 O 0.53077 0.24053 0.58503
 O45 O 0.48273 0.24312 0.57844
 O46 O 0.53355 0.23758 0.48999
 O47 O 0.53550 0.27799 0.48609
 O48 O 0.48511 0.28351 0.57435
 O49 O 0.53242 0.28094 0.58082
 O50 O 0.48830 0.28165 0.47976
 Cu51 Cu 0.50799 0.23652 0.53481
 Cu52 Cu 0.51059 0.28504 0.52988
 C53 C 0.47905 0.26177 0.46522
 C54 C 0.53934 0.26073 0.59990
 C55 C 0.47507 0.26431 0.59079
 C56 C 0.54320 0.25691 0.47311
 O57 O 0.76258 0.02802 -0.06749
 O58 O 0.75971 -0.02293 0.02227
 O59 O 0.75992 0.02532 0.02760
 O60 O 0.76134 -0.01995 -0.07233
 O61 O 0.80174 -0.02100 -0.06877
 O62 O 0.80029 0.02369 0.03136
 O63 O 0.80008 -0.02369 0.02608
 O64 O 0.80295 0.02636 -0.06358
 Cu65 Cu 0.75678 0.00280 -0.02277
 Cu66 Cu 0.80529 0.00124 -0.01833
 C67 C 0.78340 0.03582 -0.08065
 C68 C 0.77957 -0.03214 0.03898
 C69 C 0.77995 0.03228 0.04625
 C70 C 0.78183 -0.02829 -0.08722
 O71 O 0.23751 0.47265 0.55195
 O72 O 0.24117 0.52126 0.45771
 O73 O 0.23866 0.47295 0.45645
 O74 O 0.24195 0.52069 0.55230
 O75 O 0.28222 0.51646 0.55310
 O76 O 0.27899 0.47006 0.45693
 O77 O 0.28148 0.51770 0.45833
 O78 O 0.27781 0.46922 0.55226
 Cu79 Cu 0.23574 0.49715 0.50451
 Cu80 Cu 0.28412 0.49293 0.50510
 C81 C 0.25704 0.46265 0.56810
 C82 C 0.26201 0.52808 0.44279
 C83 C 0.25843 0.46335 0.44055
 C84 C 0.26283 0.52683 0.56844
 O85 O 0.26742 1.02297 0.04698
 O86 O 0.27825 0.97369 -0.04345
 O87 O 0.27442 1.02204 -0.04642
 O88 O 0.27156 0.97483 0.05108
 O89 O 0.23169 0.97227 0.03956
 O90 O 0.23461 1.01881 -0.05778
 O91 O 0.23838 0.97106 -0.05475
 O92 O 0.22759 1.01960 0.03580
 Cu93 Cu 0.27696 0.99857 0.00312
 Cu94 Cu 0.22913 0.99505 -0.01060
 C95 C 0.24558 1.02990 0.05618
 C96 C 0.26006 0.96385 -0.06418
 C97 C 0.25482 1.02890 -0.06784
 C98 C 0.25105 0.96557 0.06192
 O99 O 0.75932 0.53016 0.51509
 O100 O 0.75304 0.48055 0.42460
 O101 O 0.75583 0.52848 0.41990
 O102 O 0.75527 0.48224 0.51964
 O103 O 0.71507 0.48642 0.52432
 O104 O 0.71556 0.53140 0.42437
 O105 O 0.71280 0.48408 0.42948
 O106 O 0.71907 0.53356 0.51941
 Cu107 Cu 0.75995 0.50503 0.46936
 Cu108 Cu 0.71162 0.50926 0.47481
 C109 C 0.74022 0.54029 0.53264
 C110 C 0.73182 0.47377 0.41198
 C111 C 0.73564 0.53773 0.40515
 C112 C 0.73492 0.47648 0.53874
 C113 C 0.21534 0.20504 0.21944
 C114 C 0.24018 0.19815 0.21968
 C115 C 0.25751 0.21500 0.23595
 C116 C 0.25028 0.23806 0.25487
 C117 C 0.22509 0.24411 0.25576
 C118 C 0.20766 0.22795 0.23749
 C119 C 0.26892 0.25578 0.27310
 C120 C 0.26414 0.28132 0.27246
 C121 C 0.28135 0.29791 0.29017
 C122 C 0.30402 0.28897 0.30721
 C123 C 0.30950 0.26375 0.30710
 C124 C 0.29166 0.24729 0.29159
 H125 H 0.20206 0.19313 0.20293
 H126 H 0.27668 0.21002 0.23320
 H127 H 0.21873 0.26136 0.27087
 H128 H 0.24711 0.28863 0.25794
 H129 H 0.31697 0.30151 0.32296
 H130 H 0.29569 0.22785 0.29439
 C131 C 0.78450 0.78978 0.18794
 C132 C 0.76012 0.79822 0.18742
 C133 C 0.74146 0.78203 0.20015
 C134 C 0.74692 0.75796 0.21648
 C135 C 0.77168 0.75025 0.21825
 C136 C 0.79043 0.76579 0.20317
 C137 C 0.72692 0.74092 0.23115
 C138 C 0.73023 0.71527 0.22759
 C139 C 0.71211 0.69914 0.24328
 C140 C 0.68982 0.70873 0.26068
 C141 C 0.68566 0.73417 0.26294
 C142 C 0.70449 0.75007 0.24966
 H143 H 0.79871 0.80149 0.17398
 H144 H 0.72268 0.78836 0.19680
 H145 H 0.77670 0.73213 0.23147
 H146 H 0.74697 0.70751 0.21282
 H147 H 0.67623 0.69647 0.27518
 H148 H 0.70155 0.76957 0.25450
 C149 C 0.79640 0.19968 0.22676
 C150 C 0.80551 0.22193 0.24407
 C151 C 0.78901 0.24053 0.25806
 C152 C 0.76348 0.23735 0.25383
 C153 C 0.75487 0.21488 0.23554
 C154 C 0.77116 0.19581 0.22330
 C155 C 0.74592 0.25745 0.26786
 C156 C 0.72228 0.25197 0.28527
 C157 C 0.70559 0.27073 0.29744
 C158 C 0.71308 0.29520 0.29488
 C159 C 0.73653 0.30117 0.27826
 C160 C 0.75269 0.28229 0.26430
 H161 H 0.80900 0.18579 0.21334
 H162 H 0.79631 0.25737 0.27246
 H163 H 0.73548 0.21212 0.23019
 H164 H 0.71673 0.23312 0.28990
 H165 H 0.70105 0.30956 0.30838
 H166 H 0.77051 0.28722 0.25046
 C167 C 0.19658 0.79793 0.21027
 C168 C 0.18982 0.77323 0.21191
 C169 C 0.20686 0.75558 0.22857
 C170 C 0.23002 0.76241 0.24665
 C171 C 0.23582 0.78762 0.24654
 C172 C 0.21947 0.80532 0.22762
 C173 C 0.24817 0.74335 0.26450
 C174 C 0.27355 0.74805 0.26437
 C175 C 0.29055 0.73053 0.28148
 C176 C 0.28228 0.70762 0.29741
 C177 C 0.25734 0.70204 0.29640
 C178 C 0.24038 0.72019 0.28165
 H179 H 0.18457 0.81131 0.19302
 H180 H 0.20194 0.73648 0.22648
 H181 H 0.25304 0.79383 0.26111
 H182 H 0.28048 0.76522 0.25055
 H183 H 0.29519 0.69449 0.31287
 H184 H 0.22114 0.71602 0.28391
 C185 C 0.71178 0.30755 0.72436
 C186 C 0.70338 0.28528 0.74357
 C187 C 0.72042 0.26764 0.76001
 C188 C 0.74578 0.27164 0.75616
 C189 C 0.75375 0.29401 0.73604
 C190 C 0.73692 0.31223 0.72127
 C191 C 0.76384 0.25241 0.77231
 C192 C 0.78693 0.25897 0.79079
 C193 C 0.80411 0.24099 0.80510
 C194 C 0.79764 0.21619 0.80339
 C195 C 0.77468 0.20920 0.78570
 C196 C 0.75806 0.22731 0.76969
 H197 H 0.69880 0.32069 0.70922
 H198 H 0.71369 0.25080 0.77584
 H199 H 0.77307 0.29731 0.73116
 H200 H 0.79165 0.27809 0.79456
 H201 H 0.81003 0.20241 0.81827
 H202 H 0.74066 0.22162 0.75499
 C203 C 0.29014 0.70655 0.71309
 C204 C 0.29758 0.72952 0.73023
 C205 C 0.27992 0.74628 0.74764
 C206 C 0.25482 0.74052 0.74703
 C207 C 0.24789 0.71761 0.72796
 C208 C 0.26537 0.70032 0.71262
 C209 C 0.23569 0.75816 0.76552
 C210 C 0.21322 0.74933 0.78340
 C211 C 0.19408 0.76541 0.79579
 C212 C 0.19802 0.79074 0.79438
 C213 C 0.22069 0.80004 0.78020
 C214 C 0.23927 0.78379 0.76456
 H215 H 0.30352 0.69401 0.69763
 H216 H 0.28599 0.76363 0.76195
 H217 H 0.22879 0.71300 0.72458
 H218 H 0.21023 0.72984 0.78720
 H219 H 0.18372 0.80333 0.80626
 H220 H 0.25611 0.79126 0.75058
 C221 C 0.29361 0.29078 0.71994
 C222 C 0.27062 0.29956 0.73487
 C223 C 0.25313 0.28286 0.75143
 C224 C 0.25797 0.25723 0.75154
 C225 C 0.28117 0.24905 0.73466
 C226 C 0.29927 0.26567 0.72100
 C227 C 0.23912 0.23915 0.76898
 C228 C 0.24596 0.21480 0.78195
 C229 C 0.22848 0.19760 0.79609
 C230 C 0.20408 0.20519 0.80163
 C231 C 0.19671 0.22934 0.79074
 C232 C 0.21410 0.24595 0.77340
 H233 H 0.30679 0.30342 0.70511
 H234 H 0.23595 0.29033 0.76442
 H235 H 0.28561 0.22976 0.73169
 H236 H 0.26484 0.20875 0.78154
 H237 H 0.19110 0.19249 0.81696
 H238 H 0.20765 0.26411 0.76347
 C239 C 0.70583 0.71241 0.67928
 C240 C 0.72927 0.70393 0.69267
 C241 C 0.74711 0.72093 0.70598
 C242 C 0.74200 0.74642 0.70473
 C243 C 0.71840 0.75435 0.68969
 C244 C 0.70009 0.73754 0.67872
 C245 C 0.76103 0.76479 0.71839
 C246 C 0.75394 0.78837 0.73504
 C247 C 0.77129 0.80641 0.74439
 C248 C 0.79619 0.80041 0.74027
 C249 C 0.80381 0.77682 0.72689
 C250 C 0.78633 0.75920 0.71492
 H251 H 0.69240 0.69950 0.66667
 H252 H 0.76484 0.71399 0.71751
 H253 H 0.71401 0.77367 0.68596
 H254 H 0.73488 0.79298 0.74108
 H255 H 0.80991 0.81363 0.75023
 H256 H 0.79271 0.74148 0.70224
 C257 C 0.24081 0.04939 0.08774
 C258 C 0.25906 0.06436 0.10657
 C259 C 0.25282 0.08701 0.13333
 N260 N 0.26989 0.10454 0.13997
 N261 N 0.26397 0.12570 0.16159
 C262 C 0.24077 0.13001 0.17756
 N263 N 0.22384 0.11234 0.17155
 N264 N 0.22971 0.09128 0.14974
 C265 C 0.23338 0.15352 0.19967
 C266 C 0.24855 0.17392 0.20099
 H267 H 0.27810 0.06066 0.09795
 H268 H 0.21504 0.15475 0.21438
 H269 H 0.22182 0.05408 0.09492
 H270 H 0.26735 0.17196 0.18886
 C271 C 0.74267 0.56043 0.56793
 C272 C 0.72267 0.56887 0.59497
 C273 C 0.72315 0.59130 0.62463
 N274 N 0.70302 0.59789 0.65069
 N275 N 0.70209 0.61916 0.67437
 C276 C 0.72124 0.63469 0.67291
 N277 N 0.74158 0.62798 0.64737
 N278 N 0.74253 0.60663 0.62373
 C279 C 0.71837 0.65932 0.69399
 C280 C 0.73582 0.67756 0.68846
 H281 H 0.70550 0.55926 0.59265
 H282 H 0.70074 0.66400 0.70971
 H283 H 0.76029 0.56905 0.57188
 H284 H 0.75422 0.67262 0.67717
 C285 C 0.77949 0.94792 0.07100
 C286 C 0.75855 0.93471 0.08251
 C287 C 0.76051 0.91156 0.11038
 N288 N 0.74215 0.89505 0.10901
 N289 N 0.74472 0.87326 0.13103
 C290 C 0.76568 0.86730 0.15542
 N291 N 0.78378 0.88399 0.15755
 N292 N 0.78127 0.90567 0.13539
 C293 C 0.76986 0.84287 0.17706
 C294 C 0.75377 0.82348 0.17113
 H295 H 0.74099 0.94006 0.06709
 H296 H 0.78688 0.83988 0.19666
 H297 H 0.79704 0.94144 0.08481
 H298 H 0.73599 0.82690 0.15469
 C299 C 0.25546 0.44277 0.60463
 C300 C 0.27619 0.43396 0.62917
 C301 C 0.27624 0.41168 0.65980
 N302 N 0.29699 0.40488 0.68383
 N303 N 0.29825 0.38375 0.70842
 C304 C 0.27883 0.36857 0.70991
 N305 N 0.25789 0.37546 0.68636
 N306 N 0.25660 0.39668 0.66184
 C307 C 0.28190 0.34408 0.73213
 C308 C 0.26418 0.32595 0.72937
 H309 H 0.29345 0.44316 0.62413
 H310 H 0.29984 0.33936 0.74654
 H311 H 0.23786 0.43453 0.61129
 H312 H 0.24557 0.33093 0.71937
 C313 C 0.95223 0.22996 0.13544
 C314 C 0.94188 0.20922 0.15679
 C315 C 0.91903 0.21016 0.18515
 N316 N 0.91076 0.18935 0.20644
 N317 N 0.88897 0.18904 0.22817
 C318 C 0.87458 0.20951 0.22933
 N319 N 0.88297 0.23049 0.20860
 N320 N 0.90484 0.23082 0.18698
 C321 C 0.84940 0.20766 0.24770
 C322 C 0.83213 0.22665 0.24319
 H323 H 0.95002 0.19128 0.15036
 H324 H 0.84357 0.18977 0.26012
 H325 H 0.94502 0.24799 0.14450
 H326 H 0.83812 0.24510 0.23519
 C327 C 0.43936 0.74967 0.60314
 C328 C 0.43207 0.72884 0.62876
 C329 C 0.40997 0.72809 0.65937
 N330 N 0.40450 0.70702 0.68328
 N331 N 0.38340 0.70487 0.70713
 C332 C 0.36694 0.72371 0.70796
 N333 N 0.37252 0.74500 0.68463
 N334 N 0.39369 0.74717 0.66082
 C335 C 0.34256 0.71956 0.72885
 C336 C 0.32350 0.73681 0.72606
 H337 H 0.44212 0.71175 0.62378
 H338 H 0.33878 0.70125 0.74218
 H339 H 0.43040 0.76720 0.60971
 H340 H 0.32744 0.75574 0.71719
 C341 C 0.04139 0.77491 0.07733
 C342 C 0.05648 0.75680 0.09839
 C343 C 0.07902 0.76294 0.12488
 N344 N 0.09623 0.74528 0.13401
 N345 N 0.11729 0.75085 0.15565
 C346 C 0.12183 0.77429 0.16920
 N347 N 0.10449 0.79186 0.16070
 N348 N 0.08351 0.78632 0.13881
 C349 C 0.14526 0.78119 0.19134
 C350 C 0.16555 0.76532 0.19388
 H351 H 0.05287 0.73759 0.09193
 H352 H 0.14654 0.79975 0.20482
 H353 H 0.04578 0.79405 0.08247
 H354 H 0.16353 0.74639 0.18287
 C355 C 0.55830 0.26073 0.63820
 C356 C 0.56557 0.28261 0.65969
 C357 C 0.58865 0.28503 0.68676
 N358 N 0.59496 0.30733 0.70418
 N359 N 0.61695 0.31075 0.72381
 C360 C 0.63347 0.29200 0.72674
 N361 N 0.62703 0.26954 0.71008
 N362 N 0.60501 0.26611 0.69045
 C363 C 0.65860 0.29702 0.74267
 C364 C 0.67709 0.27913 0.74229
 H365 H 0.55505 0.29927 0.65265
 H366 H 0.66303 0.31585 0.75095
 H367 H 0.56783 0.24370 0.64684
 H368 H 0.67228 0.26003 0.73831
 C369 C 0.78550 0.05634 0.88471
 C370 C 0.76577 0.07145 0.87153
 C371 C 0.76962 0.09454 0.84458
 N372 N 0.75137 0.11162 0.84128
 N373 N 0.75545 0.13349 0.82098
 C374 C 0.77791 0.13898 0.80304
 N375 N 0.79598 0.12172 0.80546
 N376 N 0.79192 0.09992 0.82582
 C377 C 0.78378 0.16382 0.78602
 C378 C 0.76699 0.18329 0.78785
 H379 H 0.74761 0.06749 0.88502
 H380 H 0.80257 0.16726 0.77590
 H381 H 0.80373 0.06091 0.87249
 H382 H 0.74779 0.17957 0.79366
 C383 C 0.26409 0.54872 0.40826
 C384 C 0.24514 0.56579 0.40090
 C385 C 0.24908 0.58889 0.37392
 N386 N 0.23220 0.60740 0.37606
 N387 N 0.23635 0.62892 0.35432
 C388 C 0.25751 0.63263 0.32945
 N389 N 0.27418 0.61401 0.32678
 N390 N 0.27008 0.59258 0.34864
 C391 C 0.26343 0.65654 0.30766
 C392 C 0.24880 0.67761 0.31277
 H393 H 0.22769 0.56319 0.41881
 H394 H 0.28065 0.65769 0.28829
 H395 H 0.28188 0.55197 0.39226
 H396 H 0.23071 0.67617 0.32858
 C397 C 0.26410 0.94318 0.90206
 C398 C 0.24475 0.93317 0.87589
 C399 C 0.24635 0.90932 0.85101
 N400 N 0.22622 0.90053 0.82839
 N401 N 0.22635 0.87804 0.80961
 C402 C 0.24662 0.86341 0.81271
 N403 N 0.26693 0.87234 0.83461
 N404 N 0.26681 0.89489 0.85345
 C405 C 0.24598 0.83760 0.79673
 C406 C 0.22405 0.82687 0.78260
 H407 H 0.22701 0.94231 0.87657
 H408 H 0.26225 0.82630 0.80172
 H409 H 0.28215 0.93478 0.90023
 H410 H 0.20770 0.83831 0.78052
 C411 C 0.72876 0.45343 0.37754
 C412 C 0.74812 0.43808 0.36356
 C413 C 0.74386 0.41527 0.33640
 N414 N 0.76191 0.39800 0.33280
 N415 N 0.75757 0.37640 0.31204
 C416 C 0.73505 0.37138 0.29385
 N417 N 0.71719 0.38883 0.29659
 N418 N 0.72149 0.41036 0.31747
 C419 C 0.72889 0.34680 0.27626
 C420 C 0.74507 0.32682 0.27960
 H421 H 0.76646 0.44169 0.37646
 H422 H 0.71016 0.34389 0.26500
 H423 H 0.71031 0.44929 0.36596
 H424 H 0.76428 0.32995 0.28660
 C425 C 0.05362 0.21970 0.93513
 C426 C 0.06772 0.23933 0.91925
 C427 C 0.08857 0.23560 0.88579
 N428 N 0.10507 0.25369 0.87886
 N429 N 0.12489 0.24983 0.85132
 C430 C 0.12882 0.22779 0.82942
 N431 N 0.11210 0.20990 0.83569
 N432 N 0.09238 0.21371 0.86331
 C433 C 0.15170 0.22204 0.80333
 C434 C 0.17144 0.23799 0.80159
 H435 H 0.06447 0.25746 0.93419
 H436 H 0.15381 0.20364 0.78905
 H437 H 0.05756 0.20144 0.92147
 H438 H 0.16870 0.25701 0.81180
 C439 C 0.53760 0.73875 0.39336
 C440 C 0.55492 0.75669 0.38389
 C441 C 0.57646 0.75134 0.35320
 N442 N 0.59606 0.76636 0.35410
 N443 N 0.61635 0.76060 0.32936
 C444 C 0.61770 0.73964 0.30267
 N445 N 0.59797 0.72488 0.30114
 N446 N 0.57776 0.73059 0.32598
 C447 C 0.64034 0.73184 0.27793
 C448 C 0.66232 0.74438 0.28210
 H449 H 0.55394 0.77403 0.40305
 H450 H 0.63980 0.71493 0.25734
 H451 H 0.53945 0.72094 0.37619
 H452 H 0.66243 0.76219 0.29953
 C453 C 0.93764 0.74423 0.89182
 C454 C 0.92824 0.76171 0.85922
 C455 C 0.90655 0.75746 0.82859
 N456 N 0.89918 0.77496 0.79611
 N457 N 0.87846 0.77255 0.77106
 C458 C 0.86424 0.75256 0.77749
 N459 N 0.87179 0.73484 0.80948
 N460 N 0.89260 0.73721 0.83449
 C461 C 0.83970 0.75147 0.75508
 C462 C 0.83026 0.77124 0.72814
 H463 H 0.93653 0.77962 0.85725
 H464 H 0.82764 0.73694 0.76657
 H465 H 0.93037 0.72585 0.89217
 H466 H 0.84237 0.78606 0.71843
 C467 C 0.46013 0.26318 0.42711
 C468 C 0.44271 0.24504 0.42094
 C469 C 0.42051 0.24974 0.39150
 N470 N 0.40124 0.23436 0.39450
 N471 N 0.38034 0.23964 0.37120
 C472 C 0.37801 0.26050 0.34398
 N473 N 0.39740 0.27563 0.34038
 N474 N 0.41822 0.27038 0.36371
 C475 C 0.35471 0.26782 0.32094
 C476 C 0.33336 0.25427 0.32537
 H477 H 0.44404 0.22820 0.44210
 H478 H 0.35426 0.28506 0.30107
 H479 H 0.45803 0.28046 0.40767
 H480 H 0.33420 0.23613 0.34174
 C481 C 0.78292 0.95297 0.87448
 C482 C 0.76286 0.93864 0.86272
 C483 C 0.76557 0.91698 0.83125
 N484 N 0.74832 0.89931 0.83179
 N485 N 0.75161 0.87868 0.80644
 C486 C 0.77219 0.87511 0.77939
 N487 N 0.78916 0.89299 0.77808
 N488 N 0.78595 0.91351 0.80361
 C489 C 0.77732 0.85179 0.75451
 C490 C 0.76317 0.83096 0.76141
 H491 H 0.74548 0.94188 0.88076
 H492 H 0.79377 0.85070 0.73256
 H493 H 0.80064 0.94872 0.85867
 H494 H 0.74584 0.83255 0.78045
 C495 C 0.25761 0.44356 0.40406
 C496 C 0.27893 0.43548 0.38076
 C497 C 0.28085 0.41233 0.35352
 N498 N 0.30264 0.40580 0.33333
 N499 N 0.30576 0.38390 0.31274
 C500 C 0.28722 0.36766 0.31155
 N501 N 0.26525 0.37428 0.33114
 N502 N 0.26211 0.39624 0.35175
 C503 C 0.29213 0.34264 0.29378
 C504 C 0.27464 0.32425 0.29451
 H505 H 0.29562 0.44570 0.38560
 H506 H 0.31074 0.33814 0.28323
 H507 H 0.24047 0.43436 0.39770
 H508 H 0.25561 0.32912 0.30065
 C509 C 0.25541 0.04848 0.89906
 C510 C 0.23434 0.05681 0.87485
 C511 C 0.23242 0.08100 0.85100
 N512 N 0.21150 0.08730 0.82702
 N513 N 0.20818 0.10990 0.80934
 C514 C 0.22556 0.12714 0.81522
 N515 N 0.24667 0.12082 0.83877
 N516 N 0.25004 0.09814 0.85635
 C517 C 0.22036 0.15242 0.79891
 C518 C 0.23606 0.17195 0.80715
 H519 H 0.21783 0.04606 0.87651
 H520 H 0.20286 0.15589 0.78138
 H521 H 0.27234 0.05834 0.89457
 H522 H 0.25434 0.16837 0.82104
 C523 C 0.73549 0.55654 0.36634
 C524 C 0.71365 0.56394 0.34393
 C525 C 0.71132 0.58627 0.31387
 N526 N 0.68911 0.59280 0.29538
 N527 N 0.68585 0.61422 0.27246
 C528 C 0.70469 0.62992 0.26717
 N529 N 0.72706 0.62323 0.28495
 N530 N 0.73032 0.60177 0.30786
 C531 C 0.69990 0.65471 0.24768
 C532 C 0.71790 0.67256 0.24630
 H533 H 0.69706 0.55400 0.35169
 H534 H 0.68116 0.65959 0.23864
 H535 H 0.75247 0.56547 0.35714
 H536 H 0.73689 0.66706 0.25102
 C537 C 0.03979 0.76037 0.88879
 C538 C 0.05761 0.74193 0.88428
 C539 C 0.08068 0.74697 0.85842
 N540 N 0.10085 0.73269 0.86653
 N541 N 0.12240 0.73877 0.84741
 C542 C 0.12450 0.75935 0.81946
 N543 N 0.10424 0.77329 0.81056
 N544 N 0.08278 0.76725 0.82972
 C545 C 0.14826 0.76767 0.80115
 C546 C 0.17026 0.75538 0.81114
 H547 H 0.05617 0.72507 0.90522
 H548 H 0.14839 0.78452 0.77999
 H549 H 0.04226 0.77749 0.86912
 H550 H 0.16999 0.73757 0.82890
 C551 C 0.56394 0.25487 0.43898
 C552 C 0.57197 0.27524 0.41287
 C553 C 0.59447 0.27519 0.38347
 N554 N 0.59948 0.29501 0.35524
 N555 N 0.62046 0.29625 0.33072
 C556 C 0.63730 0.27780 0.33371
 N557 N 0.63228 0.25782 0.36174
 N558 N 0.61119 0.25652 0.38613
 C559 C 0.66097 0.28073 0.30909
 C560 C 0.68082 0.26461 0.31544
 H561 H 0.56161 0.29231 0.41490
 H562 H 0.66316 0.29712 0.28706
 H563 H 0.57325 0.23731 0.43506
 H564 H 0.67823 0.24726 0.33412
 C565 C 0.95103 0.22585 0.93742
 C566 C 0.93601 0.24618 0.92777
 C567 C 0.91408 0.24390 0.89684
 N568 N 0.89612 0.26137 0.89789
 N569 N 0.87544 0.25843 0.87270
 C570 C 0.87209 0.23797 0.84539
 N571 N 0.89022 0.22077 0.84372
 N572 N 0.91079 0.22365 0.86899
 C573 C 0.84890 0.23324 0.82016
 C574 C 0.82823 0.24839 0.82435
 H575 H 0.93912 0.26332 0.94655
 H576 H 0.84785 0.21646 0.79929
 H577 H 0.94687 0.20839 0.92080
 H578 H 0.82974 0.26609 0.84190
 C579 C 0.43469 0.74911 0.40163
 C580 C 0.42670 0.72817 0.37764
 C581 C 0.40391 0.72734 0.34912
 N582 N 0.39777 0.70615 0.32673
 N583 N 0.37624 0.70408 0.30442
 C584 C 0.36000 0.72311 0.30366
 N585 N 0.36623 0.74450 0.32550
 N586 N 0.38783 0.74659 0.34778
 C587 C 0.33531 0.71924 0.28403
 C588 C 0.31668 0.73697 0.28633
 H589 H 0.43695 0.71113 0.38201
 H590 H 0.33111 0.70098 0.27135
 H591 H 0.42549 0.76660 0.39556
 H592 H 0.32116 0.75579 0.29463
 C593 C 0.24979 0.94634 0.09984
 C594 C 0.22737 0.93931 0.11928
 C595 C 0.22433 0.91732 0.14997
 N596 N 0.20197 0.91245 0.16882
 N597 N 0.19804 0.89157 0.19284
 C598 C 0.21630 0.87471 0.19886
 N599 N 0.23882 0.87969 0.18056
 N600 N 0.24278 0.90065 0.15661
 C601 C 0.21055 0.85065 0.22016
 C602 C 0.22732 0.83111 0.22191
 H603 H 0.21099 0.94967 0.10960
 H604 H 0.19171 0.84761 0.23049
 H605 H 0.26652 0.93710 0.11133
 H606 H 0.24656 0.83455 0.21591
 C607 C 0.73362 0.45788 0.57762
 C608 C 0.75234 0.44086 0.58691
 C609 C 0.74834 0.41985 0.61993
 N610 N 0.76409 0.40035 0.61994
 N611 N 0.75948 0.38050 0.64697
 C612 C 0.73901 0.37951 0.67510
 N613 N 0.72354 0.39916 0.67570
 N614 N 0.72809 0.41893 0.64861
 C615 C 0.73242 0.35726 0.70230
 C616 C 0.74592 0.33540 0.69980
 H617 H 0.76928 0.44170 0.56644
 H618 H 0.71566 0.35793 0.72338
 H619 H 0.71630 0.45614 0.59647
 H620 H 0.76361 0.33525 0.68191
 C621 C 0.78012 0.05076 0.08510
 C622 C 0.76037 0.06660 0.09381
 C623 C 0.76276 0.08756 0.12715
 N624 N 0.74658 0.10667 0.12488
 N625 N 0.74981 0.12657 0.15225
 C626 C 0.76926 0.12794 0.18311
 N627 N 0.78512 0.10864 0.18603
 N628 N 0.78197 0.08885 0.15855
 C629 C 0.77466 0.15036 0.21042
 C630 C 0.76177 0.17242 0.20393
 H631 H 0.74374 0.06497 0.07251
 H632 H 0.79060 0.14983 0.23400
 H633 H 0.79722 0.05345 0.10431
 H634 H 0.74473 0.17268 0.18362
 C635 C 0.26525 0.54670 0.60409
 C636 C 0.24739 0.56493 0.61012
 C637 C 0.25288 0.58786 0.63601
 N638 N 0.23705 0.60725 0.63359
 N639 N 0.24275 0.62865 0.65382
 C640 C 0.26449 0.63140 0.67721
 N641 N 0.28015 0.61194 0.68013
 N642 N 0.27448 0.59060 0.65986
 C643 C 0.27183 0.65510 0.69760
 C644 C 0.25720 0.67624 0.69433
 H645 H 0.23000 0.56350 0.59136
 H646 H 0.28950 0.65584 0.71541
 H647 H 0.28297 0.54875 0.62130
 H648 H 0.23883 0.67494 0.67970
 C649 C 0.93946 0.76637 0.09052
 C650 C 0.92520 0.74709 0.10729
 C651 C 0.90316 0.75212 0.13688
 N652 N 0.88535 0.73512 0.14082
 N653 N 0.86423 0.74063 0.16294
 C654 C 0.86025 0.76331 0.18215
 N655 N 0.87828 0.78005 0.17925
 N656 N 0.89931 0.77457 0.15706
 C657 C 0.83615 0.77098 0.20098
 C658 C 0.81575 0.75595 0.19919
 H659 H 0.92859 0.72866 0.09401
 H660 H 0.83400 0.78988 0.21238
 H661 H 0.93492 0.78492 0.10171
 H662 H 0.81826 0.73656 0.19192
 C663 C 0.45391 0.26716 0.62338
 C664 C 0.43697 0.24857 0.63026
 C665 C 0.41345 0.25341 0.65483
 N666 N 0.39494 0.23717 0.65106
 N667 N 0.37304 0.24224 0.67037
 C668 C 0.36895 0.26370 0.69430
 N669 N 0.38756 0.27972 0.69867
 N670 N 0.40937 0.27471 0.67924
 C671 C 0.34471 0.27057 0.71334
 C672 C 0.32383 0.25657 0.70620
 H673 H 0.43999 0.23084 0.61340
 H674 H 0.34321 0.28789 0.73244
 H675 H 0.45017 0.28526 0.63802
 H676 H 0.32557 0.23841 0.69053
 C677 C 0.05514 0.22077 0.13636
 C678 C 0.07074 0.24001 0.14714
 C679 C 0.09366 0.23557 0.17446
 N680 N 0.11072 0.25337 0.17733
 N681 N 0.13245 0.24869 0.19790
 C682 C 0.13785 0.22606 0.21645
 N683 N 0.12063 0.20845 0.21436
 N684 N 0.09896 0.21312 0.19381
 C685 C 0.16254 0.21953 0.23394
 C686 C 0.18176 0.23607 0.23367
 H687 H 0.06733 0.25802 0.13139
 H688 H 0.16608 0.20052 0.24367
 H689 H 0.05901 0.20269 0.15135
 H690 H 0.17787 0.25545 0.22838
 C691 C 0.54362 0.73901 0.58989
 C692 C 0.56145 0.75694 0.59378
 C693 C 0.58520 0.75157 0.61735
 N694 N 0.60411 0.76723 0.61179
 N695 N 0.62616 0.76162 0.62997
 C696 C 0.63006 0.74015 0.65446
 N697 N 0.61109 0.72469 0.66057
 N698 N 0.58910 0.73026 0.64231
 C699 C 0.65445 0.73274 0.67237
 C700 C 0.67538 0.74659 0.66449
 H701 H 0.55894 0.77436 0.57504
 H702 H 0.65593 0.71535 0.69155
 H703 H 0.54673 0.72120 0.60673
 H704 H 0.67357 0.76478 0.64861
   
