data_POSCAR
  _audit_creation_date              2014-09-24
  _audit_creation_method            'ToBaCCo'
  _symmetry_space_group_name_H-M    'P1'
  _symmetry_Int_Tables_number       1
  _symmetry_cell_setting            triclinic
  loop_
  _symmetry_equiv_pos_as_xyz
 x,y,z
_cell_length_a 24.9907
_cell_length_b 23.8928
_cell_length_c 17.6049
_cell_angle_alpha 92.606200
_cell_angle_beta 91.398700
_cell_angle_gamma 92.325900
loop_
  _atom_site_label
  _atom_site_type_symbol
  _atom_site_fract_x
  _atom_site_fract_y
  _atom_site_fract_z
C1 C 1.30293 0.19555 0.27936
 C2 C 1.25965 0.22500 0.25207
 C3 C 1.21108 0.19597 0.23163
 C4 C 1.20558 0.13750 0.23771
 C5 C 1.24936 0.10876 0.26458
 C6 C 1.29785 0.13710 0.28741
 C7 C 1.26407 0.28682 0.24875
 C8 C 1.30605 0.31331 0.21085
 C9 C 1.31010 0.37245 0.20800
 C10 C 1.27080 0.40402 0.24504
 C11 C 1.22860 0.37783 0.28373
 C12 C 1.22621 0.31904 0.28539
 H13 H 1.33962 0.21915 0.29502
 H14 H 1.17863 0.21943 0.20934
 H15 H 1.33417 0.28670 0.18299
 H16 H 1.19628 0.29723 0.31746
 H17 H 1.24504 0.06367 0.26936
 H18 H 1.27302 0.44940 0.24406
 C19 C 0.79923 -0.29356 0.30836
 C20 C 0.75342 -0.27240 0.27586
 C21 C 0.71600 -0.30788 0.23616
 C22 C 0.72537 -0.36488 0.22232
 C23 C 0.77248 -0.38656 0.25589
 C24 C 0.80970 -0.35066 0.30059
 C25 C 0.74812 -0.21177 0.27317
 C26 C 0.78634 -0.18078 0.23468
 C27 C 0.77915 -0.12431 0.22083
 C28 C 0.73434 -0.09823 0.25160
 C29 C 0.69600 -0.12893 0.29255
 C30 C 0.70316 -0.18627 0.30188
 H31 H 0.82744 -0.26447 0.33901
 H32 H 0.68042 -0.28940 0.21429
 H33 H 0.82111 -0.20189 0.21468
 H34 H 0.67513 -0.21164 0.33268
 H35 H 0.77930 -0.43076 0.24731
 H36 H 0.72913 -0.05409 0.24330
 C37 C 0.80914 0.18454 -0.24028
 C38 C 0.76455 0.21166 -0.26834
 C39 C 0.71885 0.17956 -0.29390
 C40 C 0.71726 0.12065 -0.29112
 C41 C 0.76202 0.09440 -0.26252
 C42 C 0.80757 0.12581 -0.23524
 C43 C 0.76494 0.27379 -0.26840
 C44 C 0.80782 0.30410 -0.29911
 C45 C 0.80850 0.36331 -0.29949
 C46 C 0.76567 0.39119 -0.26586
 C47 C 0.72286 0.36152 -0.23324
 C48 C 0.72254 0.30252 -0.23647
 H49 H 0.84426 0.20968 -0.22117
 H50 H 0.68566 0.20095 -0.31814
 H51 H 0.83915 0.28029 -0.32427
 H52 H 0.69018 0.27795 -0.21336
 H53 H 0.76077 0.04912 -0.25956
 H54 H 0.76571 0.43663 -0.26456
 C55 C 1.30129 -0.28666 -0.18093
 C56 C 1.25596 -0.26282 -0.21141
 C57 C 1.21596 -0.29652 -0.24938
 C58 C 1.22125 -0.35467 -0.26066
 C59 C 1.26814 -0.37856 -0.22978
 C60 C 1.30866 -0.34453 -0.18876
 C61 C 1.25332 -0.20147 -0.21211
 C62 C 1.29053 -0.17165 -0.25395
 C63 C 1.28603 -0.11399 -0.26345
 C64 C 1.24544 -0.08580 -0.22498
 C65 C 1.20827 -0.11515 -0.18065
 C66 C 1.21244 -0.17356 -0.17556
 H67 H 1.33168 -0.25912 -0.15208
 H68 H 1.18201 -0.27581 -0.27225
 H69 H 1.32246 -0.19445 -0.27959
 H70 H 1.18540 -0.19800 -0.14199
 H71 H 1.27226 -0.42329 -0.23766
 H72 H 1.24234 -0.04102 -0.23034
 C73 C 0.17070 0.28993 0.72412
 C74 C 0.19655 0.24581 0.75570
 C75 C 0.16816 0.20604 0.79575
 C76 C 0.11283 0.21071 0.80655
 C77 C 0.08685 0.25558 0.77355
 C78 C 0.11576 0.29577 0.73304
 C79 C 0.25461 0.24443 0.75172
 C80 C 0.28554 0.28834 0.78666
 C81 C 0.34133 0.29049 0.78244
 C82 C 0.36609 0.24626 0.74122
 C83 C 0.33423 0.20128 0.70581
 C84 C 0.27860 0.20109 0.71181
 H85 H 0.19413 0.31858 0.69113
 H86 H 0.19063 0.17292 0.81897
 H87 H 0.26528 0.32134 0.81753
 H88 H 0.25361 0.16758 0.68417
 H89 H 0.04413 0.25975 0.78002
 H90 H 0.40903 0.24669 0.73552
 C91 C 0.68925 0.78294 0.67878
 C92 C 0.71467 0.73944 0.71258
 C93 C 0.68470 0.69721 0.74608
 C94 C 0.62837 0.69950 0.74977
 C95 C 0.60342 0.74614 0.71897
 C96 C 0.63406 0.78832 0.68320
 C97 C 0.77290 0.74483 0.72458
 C98 C 0.79401 0.79338 0.76259
 C99 C 0.84866 0.80389 0.77370
 C100 C 0.88484 0.76464 0.74714
 C101 C 0.86634 0.71083 0.70549
 C102 C 0.80621 0.70366 0.69735
 H103 H 0.71383 0.81506 0.65296
 H104 H 0.70681 0.66581 0.77398
 H105 H 0.76668 0.82401 0.78450
 H106 H 0.78843 0.66676 0.66719
 H107 H 0.56047 0.74882 0.72272
 H108 H 0.92747 0.77184 0.75711
 C109 C 0.68060 0.28488 0.21563
 C110 C 0.70717 0.24232 0.25119
 C111 C 0.67756 0.19940 0.28448
 C112 C 0.62127 0.19883 0.28280
 C113 C 0.59526 0.24228 0.24767
 C114 C 0.62451 0.28584 0.21462
 C115 C 0.76617 0.24457 0.25659
 C116 C 0.79338 0.29512 0.27910
 C117 C 0.84919 0.29849 0.28555
 C118 C 0.87808 0.25064 0.26835
 C119 C 0.85169 0.20007 0.24395
 C120 C 0.79530 0.19682 0.23999
 H121 H 0.70430 0.31630 0.18774
 H122 H 0.69910 0.16832 0.31401
 H123 H 0.77080 0.33165 0.29411
 H124 H 0.77365 0.15799 0.22315
 H125 H 0.55187 0.24253 0.24669
 H126 H 0.92128 0.25198 0.27402
 C127 C 0.19190 0.79731 0.20355
 C128 C 0.21540 0.74833 0.22476
 C129 C 0.18490 0.70677 0.25886
 C130 C 0.13063 0.71465 0.27556
 C131 C 0.10711 0.76436 0.25228
 C132 C 0.13770 0.80610 0.21568
 C133 C 0.27364 0.74392 0.21890
 C134 C 0.30696 0.78604 0.25434
 C135 C 0.36280 0.78434 0.25113
 C136 C 0.38502 0.73767 0.21272
 C137 C 0.35143 0.69423 0.17690
 C138 C 0.29572 0.69832 0.18029
 H139 H 0.21664 0.82890 0.17698
 H140 H 0.20524 0.66976 0.27391
 H141 H 0.28833 0.81896 0.28700
 H142 H 0.26935 0.66600 0.15269
 H143 H 0.06540 0.77019 0.26396
 H144 H 0.42812 0.73600 0.20980
 O145 O 1.07063 0.04072 0.13723
 O146 O 0.89006 -0.03360 0.08168
 O147 O 0.95254 0.09520 0.11968
 O148 O 1.00018 -0.09338 0.11209
 O149 O 0.88394 0.05909 0.05778
 O150 O 1.07907 -0.05560 0.10253
 O151 O 0.91918 -0.10805 0.03469
 O152 O 1.04664 0.11597 0.09144
 C153 C 1.07167 0.09225 0.14138
 C154 C 0.88946 -0.08475 0.08078
 C155 C 0.90344 0.08558 0.11542
 C156 C 1.04713 -0.08828 0.13566
 O157 O 1.09071 -0.02553 -0.04798
 O158 O 0.91264 0.03695 -0.09186
 O159 O 1.02243 0.10592 -0.05501
 O160 O 0.97855 -0.08856 -0.08937
 O161 O 0.90008 -0.05953 -0.07342
 O162 O 1.09351 0.07028 -0.00916
 O163 O 1.05749 -0.10240 -0.01431
 O164 O 0.92960 0.11217 -0.02736
 Co165 Co 1.07487 0.00709 0.04351
 Co166 Co 0.90520 0.00091 -0.00429
 Co167 Co 0.98774 0.09623 0.03148
 Co168 Co 0.98864 -0.08719 0.01172
 O169 O 0.98929 0.00438 0.02075
 C170 C 1.08863 -0.07689 -0.05579
 C171 C 0.91177 0.08847 -0.08728
 C172 C 1.07135 0.10011 -0.05700
 C173 C 0.93253 -0.08530 -0.11379
 O174 O 1.10365 0.54237 0.59960
 O175 O 0.92410 0.45992 0.58026
 O176 O 0.97636 0.59524 0.58807
 O177 O 1.04004 0.41050 0.59329
 O178 O 0.90757 0.55063 0.53942
 O179 O 1.11583 0.44730 0.56620
 O180 O 0.95599 0.38522 0.53649
 O181 O 1.06905 0.61493 0.55634
 C182 C 1.09976 0.59354 0.60397
 C183 C 0.92700 0.40879 0.58353
 C184 C 0.92787 0.58384 0.58954
 C185 C 1.08790 0.41853 0.60945
 O186 O 1.11204 0.47405 0.41380
 O187 O 0.92700 0.51477 0.39350
 O188 O 1.03991 0.59922 0.40699
 O189 O 0.99935 0.40137 0.39649
 O190 O 0.92181 0.42281 0.42946
 O191 O 1.11411 0.57078 0.45228
 O192 O 1.08556 0.39701 0.45612
 O193 O 0.94515 0.59742 0.43740
 Co194 Co 1.10219 0.50745 0.50667
 Co195 Co 0.92938 0.48816 0.48704
 Co196 Co 1.00819 0.59149 0.49719
 Co197 Co 1.01957 0.40926 0.49541
 O198 O 1.01501 0.49958 0.49678
 C199 C 1.11133 0.42262 0.40819
 C200 C 0.92060 0.56497 0.38855
 C201 C 1.08924 0.59759 0.40398
 C202 C 0.95099 0.39961 0.38227
 O203 O 0.57941 0.02286 0.60624
 O204 O 0.39043 -0.02745 0.58095
 O205 O 0.47452 0.09427 0.60368
 O206 O 0.49647 -0.10214 0.59097
 O207 O 0.39649 0.06889 0.55910
 O208 O 0.57641 -0.07393 0.56785
 O209 O 0.40947 -0.10502 0.52901
 O210 O 0.56425 0.10053 0.55997
 C211 C 0.58512 0.07430 0.61107
 C212 C 0.38615 -0.07881 0.58012
 C213 C 0.42562 0.09528 0.60948
 C214 C 0.54466 -0.10318 0.60597
 O215 O 0.57791 -0.04220 0.41778
 O216 O 0.40733 0.04094 0.40429
 O217 O 0.52702 0.09075 0.41635
 O218 O 0.45697 -0.09619 0.39487
 O219 O 0.38561 -0.05394 0.42389
 O220 O 0.59666 0.05037 0.45600
 O221 O 0.54153 -0.11701 0.45357
 O222 O 0.44022 0.11370 0.46179
 Co223 Co 0.57399 -0.00995 0.51146
 Co224 Co 0.40350 0.00622 0.49295
 Co225 Co 0.50009 0.08870 0.50951
 Co226 Co 0.47748 -0.09441 0.49325
 O227 O 0.48875 -0.00244 0.50201
 C228 C 0.57296 -0.09327 0.41028
 C229 C 0.41307 0.09224 0.40748
 C230 C 0.57479 0.08088 0.40904
 C231 C 0.40982 -0.08696 0.37969
 O232 O 0.61018 0.53351 0.07528
 O233 O 0.42755 0.45880 0.07708
 O234 O 0.49256 0.59223 0.07559
 O235 O 0.54119 0.40340 0.08507
 O236 O 0.41701 0.55236 0.04177
 O237 O 0.61651 0.43780 0.04986
 O238 O 0.45288 0.38168 0.03193
 O239 O 0.58135 0.60602 0.02651
 C240 C 0.61044 0.58476 0.07571
 C241 C 0.42675 0.40752 0.08032
 C242 C 0.44427 0.58614 0.08612
 C243 C 0.59003 0.41014 0.09614
 O244 O 0.60646 0.45603 -0.10552
 O245 O 0.42491 0.51365 -0.10994
 O246 O 0.53925 0.58563 -0.11544
 O247 O 0.49374 0.39055 -0.10833
 O248 O 0.41790 0.42045 -0.07610
 O249 O 0.61434 0.55369 -0.07850
 O250 O 0.58128 0.38260 -0.05311
 O251 O 0.44846 0.59476 -0.06743
 Co252 Co 0.60299 0.49488 -0.01503
 Co253 Co 0.43051 0.48675 -0.01653
 Co254 Co 0.51539 0.58400 -0.01983
 Co255 Co 0.51705 0.40070 -0.01163
 O256 O 0.51649 0.49180 -0.01567
 C257 C 0.60701 0.40471 -0.10406
 C258 C 0.41966 0.56413 -0.11324
 C259 C 0.58782 0.58084 -0.12493
 C260 C 0.44518 0.39065 -0.12040
 C261 C 1.15690 0.10373 0.21151
 C262 C 1.11039 0.12522 0.19097
 H263 H 1.16125 0.05896 0.20266
 H264 H 1.10416 0.16956 0.19874
 C265 C 1.17972 0.60957 0.69325
 C266 C 1.13593 0.62906 0.65678
 H267 H 1.18699 0.56525 0.68638
 H268 H 1.12751 0.67294 0.66015
 C269 C 0.67144 0.08490 0.67751
 C270 C 0.62270 0.10405 0.66505
 H271 H 0.67939 0.04229 0.65853
 H272 H 0.61349 0.14639 0.68283
 C273 C 0.68627 0.59892 0.17297
 C274 C 0.64850 0.61969 0.12596
 H275 H 0.68946 0.55389 0.17420
 H276 H 0.64628 0.66421 0.11970
 C277 C 0.81792 -0.09225 0.17486
 C278 C 0.85187 -0.11691 0.12659
 H279 H 0.81742 -0.04687 0.17937
 H280 H 0.85157 -0.16192 0.11755
 C281 C 0.84885 0.39575 0.66549
 C282 C 0.89203 0.37504 0.63162
 H283 H 0.84344 0.44047 0.66307
 H284 H 0.90054 0.33120 0.63246
 C285 C 0.32294 -0.08292 0.68655
 C286 C 0.35066 -0.10866 0.63147
 H287 H 0.32586 -0.03758 0.69346
 H288 H 0.34633 -0.15347 0.62054
 C289 C 0.35058 0.40124 0.16797
 C290 C 0.39067 0.37678 0.13069
 H291 H 0.34817 0.44633 0.16518
 H292 H 0.39593 0.33224 0.13132
 C293 C 0.85032 0.09581 -0.19655
 C294 C 0.88257 0.12062 -0.14234
 H295 H 0.84990 0.05052 -0.20471
 H296 H 0.88192 0.16529 -0.12984
 C297 C 0.85660 0.63265 0.33970
 C298 C 0.87711 0.58179 0.33578
 H299 H 0.87762 0.66371 0.37763
 H300 H 0.85879 0.54919 0.29790
 C301 C 0.33765 0.10561 0.32092
 C302 C 0.38174 0.12717 0.35819
 H303 H 0.32957 0.06069 0.32262
 H304 H 0.39145 0.17164 0.36222
 C305 C 0.35614 0.63590 -0.15382
 C306 C 0.37377 0.58362 -0.15981
 H307 H 0.38048 0.66585 -0.11833
 H308 H 0.35202 0.55205 -0.19564
 C309 C 1.16730 -0.08343 -0.13830
 C310 C 1.12485 -0.10786 -0.10555
 H311 H 1.17325 -0.03824 -0.13211
 H312 H 1.11669 -0.15254 -0.11207
 C313 C 1.18985 0.41269 0.32608
 C314 C 1.14395 0.39153 0.35368
 H315 H 1.20088 0.45658 0.33834
 H316 H 1.13113 0.34830 0.34173
 C317 C 0.65133 -0.09926 0.32881
 C318 C 0.60919 -0.12489 0.36131
 H319 H 0.65516 -0.05385 0.33272
 H320 H 0.60283 -0.16989 0.35734
 C321 C 0.68065 0.39393 -0.19442
 C322 C 0.64221 0.37100 -0.15209
 H323 H 0.68354 0.43922 -0.19675
 H324 H 0.63860 0.32633 -0.14598
 C325 C 1.08305 0.17364 -0.14911
 C326 C 1.10383 0.13243 -0.10917
 H327 H 1.04061 0.18060 -0.14431
 H328 H 1.14577 0.12363 -0.10933
 C329 C 1.09997 0.67609 0.31738
 C330 C 1.11983 0.63132 0.35078
 H331 H 1.05844 0.68511 0.32716
 H332 H 1.16128 0.62115 0.34667
 C333 C 0.58821 0.15706 0.32265
 C334 C 0.60721 0.11195 0.35537
 H335 H 0.54645 0.16631 0.32978
 H336 H 0.64827 0.10042 0.34939
 C337 C 0.59723 0.65972 -0.21106
 C338 C 0.61641 0.61293 -0.18198
 H339 H 0.55586 0.66897 -0.20052
 H340 H 0.65644 0.59997 -0.19288
 C341 C 0.86546 -0.14540 -0.17984
 C342 C 0.91479 -0.12217 -0.17849
 H343 H 0.83653 -0.12902 -0.14050
 H344 H 0.94473 -0.13730 -0.21682
 C345 C 0.87490 0.35043 0.31960
 C346 C 0.92783 0.36127 0.32241
 H347 H 0.84922 0.37783 0.35166
 H348 H 0.95484 0.33683 0.28874
 C349 C 0.39769 -0.17182 0.29352
 C350 C 0.38026 -0.12167 0.31961
 H351 H 0.43786 -0.18332 0.30906
 H352 H 0.34100 -0.10818 0.30360
 C353 C 0.36818 0.33648 -0.17788
 C354 C 0.42085 0.34815 -0.17580
 H355 H 0.34399 0.36426 -0.14383
 H356 H 0.44760 0.32309 -0.20911
 C357 C 1.11734 -0.14446 0.18736
 C358 C 1.06626 -0.12967 0.18857
 H359 H 1.14486 -0.11806 0.15655
 H360 H 1.03624 -0.15402 0.21730
 C361 C 1.08752 0.34034 0.69462
 C362 C 1.11282 0.38620 0.66853
 H363 H 1.04527 0.33224 0.68115
 H364 H 1.15442 0.39655 0.68309
 C365 C 0.61352 -0.16384 0.65095
 C366 C 0.56332 -0.14711 0.65518
 H367 H 0.64094 -0.13849 0.61849
 H368 H 0.53378 -0.16946 0.68744
 C369 C 0.59505 0.32912 0.17518
 C370 C 0.61767 0.37724 0.15221
 H371 H 0.55335 0.31893 0.16006
 H372 H 0.65893 0.38933 0.16646
 C373 C 0.88524 0.15408 0.21706
 C374 C 0.86719 0.11384 0.16691
 H375 H 0.92810 0.15931 0.22796
 H376 H 0.82497 0.10807 0.15268
 C377 C 0.90936 0.66571 0.66863
 C378 C 0.89278 0.61595 0.63826
 H379 H 0.88685 0.68781 0.68675
 H380 H 0.85086 0.60257 0.63863
 C381 C 0.35572 0.15572 0.65688
 C382 C 0.40417 0.13526 0.66620
 H383 H 0.32972 0.13784 0.61102
 H384 H 0.43071 0.15209 0.71194
 C385 C 0.37201 0.64588 0.13120
 C386 C 0.42058 0.62558 0.14179
 H387 H 0.34627 0.62714 0.08564
 H388 H 0.44685 0.64382 0.18691
   
