data_POSCAR
  _audit_creation_date              2014-09-24
  _audit_creation_method            'ToBaCCo'
  _symmetry_space_group_name_H-M    'P1'
  _symmetry_Int_Tables_number       1
  _symmetry_cell_setting            triclinic
  loop_
  _symmetry_equiv_pos_as_xyz
 x,y,z
_cell_length_a 37.8775
_cell_length_b 37.1731
_cell_length_c 37.0279
_cell_angle_alpha 90.375700
_cell_angle_beta 90.045300
_cell_angle_gamma 89.889400
loop_
  _atom_site_label
  _atom_site_type_symbol
  _atom_site_fract_x
  _atom_site_fract_y
  _atom_site_fract_z
N1 N 0.19092 1.26487 0.16626
 N2 N 0.16616 1.26426 0.19120
 C3 C 0.14264 1.29065 0.18458
 C4 C 0.15348 1.30858 0.15409
 C5 C 0.18401 1.29165 0.14296
 H6 H 0.11885 1.29573 0.19995
 H7 H 0.19933 1.29752 0.11907
 Cu8 Cu 0.16592 1.22742 0.22828
 Cu9 Cu 0.22869 1.22930 0.16434
 Cu10 Cu 0.22868 1.16350 0.23048
 N11 N 0.16602 1.19042 0.26521
 N12 N 0.19081 1.16556 0.26600
 C13 C 0.18385 1.14238 0.29287
 C14 C 0.15324 1.15351 0.30966
 C15 C 0.14241 1.18387 0.29155
 H16 H 0.19921 1.11860 0.29892
 H17 H 0.11859 1.19922 0.29649
 N18 N 0.26471 1.16597 0.19214
 N19 N 0.26469 1.19099 0.16694
 C20 C 0.29126 1.18428 0.14366
 C21 C 0.30868 1.15379 0.15490
 C22 C 0.29130 1.14271 0.18552
 H23 H 0.29685 1.19963 0.11964
 H24 H 0.29693 1.11881 0.20100
 H25 H 0.20122 1.18830 0.18926
 H26 H 0.22895 1.21770 0.21880
 N27 N 0.80865 0.73454 0.16664
 N28 N 0.83297 0.73504 0.19205
 C29 C 0.85666 0.70874 0.18537
 C30 C 0.84637 0.69092 0.15436
 C31 C 0.81597 0.70787 0.14302
 H32 H 0.88023 0.70368 0.20105
 H33 H 0.80107 0.70208 0.11874
 Cu34 Cu 0.83222 0.77191 0.22950
 Cu35 Cu 0.77088 0.77027 0.16447
 Cu36 Cu 0.77099 0.83688 0.23090
 N37 N 0.83311 0.80944 0.26627
 N38 N 0.80883 0.83483 0.26667
 C39 C 0.81623 0.85853 0.29327
 C40 C 0.84663 0.84719 0.31026
 C41 C 0.85688 0.81617 0.29256
 H42 H 0.80139 0.88281 0.29893
 H43 H 0.88043 0.80050 0.29764
 N44 N 0.73508 0.83414 0.19232
 N45 N 0.73504 0.80882 0.16707
 C46 C 0.70852 0.81538 0.14372
 C47 C 0.69122 0.84607 0.15498
 C48 C 0.70858 0.85743 0.18566
 H49 H 0.70288 0.79978 0.11966
 H50 H 0.70301 0.88151 0.20119
 H51 H 0.79842 0.81115 0.18996
 H52 H 0.76963 0.78268 0.21882
 N53 N 0.80621 1.26533 -0.16720
 N54 N 0.82782 1.26720 -0.19492
 C55 C 0.85166 1.29337 -0.18878
 C56 C 0.84432 1.30863 -0.15559
 C57 C 0.81549 1.29032 -0.14249
 H58 H 0.87320 1.30014 -0.20665
 H59 H 0.80283 1.29425 -0.11659
 Cu60 Cu 0.82382 1.23434 -0.23564
 Cu61 Cu 0.76894 1.22944 -0.16437
 Cu62 Cu 0.76897 1.16340 -0.23064
 N63 N 0.82786 1.19377 -0.26861
 N64 N 0.80626 1.16616 -0.26671
 C65 C 0.81555 1.14151 -0.29178
 C66 C 0.84437 1.15458 -0.31017
 C67 C 0.85174 1.18764 -0.29489
 H68 H 0.80292 1.11571 -0.29567
 H69 H 0.87329 1.20543 -0.30167
 N70 N 0.73353 1.16552 -0.19177
 N71 N 0.73352 1.19074 -0.16646
 C72 C 0.70727 1.18404 -0.14293
 C73 C 0.69011 1.15331 -0.15415
 C74 C 0.70728 1.14211 -0.18501
 H75 H 0.70169 1.19965 -0.11885
 H76 H 0.70171 1.11812 -0.20066
 H77 H 0.79840 1.19213 -0.19321
 H78 H 0.76389 1.21759 -0.21876
 N79 N 0.19151 0.73488 -0.16607
 N80 N 0.16669 0.73571 -0.19095
 C81 C 0.14317 0.70940 -0.18438
 C82 C 0.15406 0.69126 -0.15400
 C83 C 0.18467 0.70800 -0.14291
 H84 H 0.11936 0.70448 -0.19974
 H85 H 0.20008 0.70186 -0.11913
 Cu86 Cu 0.16639 0.77263 -0.22795
 Cu87 Cu 0.22926 0.77034 -0.16396
 Cu88 Cu 0.22895 0.83648 -0.22974
 N89 N 0.16647 0.80972 -0.26479
 N90 N 0.19113 0.83462 -0.26536
 C91 C 0.18411 0.85792 -0.29213
 C92 C 0.15358 0.84684 -0.30909
 C93 C 0.14287 0.81637 -0.29119
 H94 H 0.19935 0.88177 -0.29800
 H95 H 0.11913 0.80103 -0.29625
 N96 N 0.26502 0.83381 -0.19140
 N97 N 0.26517 0.80861 -0.16639
 C98 C 0.29181 0.81515 -0.14312
 C99 C 0.30907 0.84572 -0.15417
 C100 C 0.29156 0.85702 -0.18466
 H101 H 0.29754 0.79962 -0.11922
 H102 H 0.29705 0.88102 -0.20000
 H103 H 0.20162 0.81144 -0.18860
 H104 H 0.22941 0.78222 -0.21828
 C105 C 0.50043 0.99959 0.00055
 C106 C 0.00133 0.49859 0.99948
 C107 C 1.00093 0.00108 0.50078
 C108 C 0.05909 0.38955 1.05793
 C109 C 0.09987 0.38680 1.05813
 C110 C 0.09903 0.38393 1.09950
 C111 C 0.05852 0.38631 1.09958
 C112 C 0.06212 0.43060 1.06191
 C113 C 0.06124 0.42776 1.10328
 C114 C 0.10262 0.42824 1.06181
 C115 C 0.10210 0.42497 1.10354
 C116 C 0.11923 0.35726 1.11991
 C117 C 0.13550 0.33467 1.13620
 C118 C 0.04117 0.45577 1.04043
 C119 C 0.02346 0.47562 1.02221
 H120 H 0.04118 0.37527 1.03894
 H121 H 0.11596 0.36968 1.03977
 H122 H 0.04060 0.36879 1.11532
 H123 H 0.04511 0.44491 1.12158
 H124 H 0.12050 0.44578 1.04604
 H125 H 0.12001 0.43923 1.12254
 C126 C -0.10070 0.56939 1.06076
 C127 C -0.10090 0.57276 1.10252
 C128 C -0.09752 0.61378 1.09898
 C129 C -0.09765 0.61080 1.05758
 C130 C -0.06023 0.56679 1.06165
 C131 C -0.05690 0.60781 1.05816
 C132 C -0.06005 0.56973 1.10305
 C133 C -0.05704 0.61115 1.09985
 C134 C -0.11794 0.64062 1.11925
 C135 C -0.13441 0.66328 1.13549
 C136 C -0.03900 0.54150 1.04032
 C137 C -0.02104 0.52159 1.02220
 H138 H -0.11840 0.55192 1.04444
 H139 H -0.11922 0.55866 1.12102
 H140 H -0.11332 0.62799 1.03910
 H141 H -0.03858 0.62195 1.03969
 H142 H -0.04434 0.55252 1.12148
 H143 H -0.03928 0.62860 1.11613
 C144 C -0.06115 0.42915 0.89521
 C145 C -0.05747 0.38768 0.89715
 C146 C -0.09786 0.38460 0.89927
 C147 C -0.10191 0.42565 0.89698
 C148 C -0.06001 0.43094 0.93665
 C149 C -0.10039 0.42788 0.93878
 C150 C -0.05601 0.38988 0.93889
 C151 C -0.09668 0.38644 0.94071
 C152 C -0.11871 0.35814 0.87905
 C153 C -0.13566 0.33580 0.86297
 C154 C -0.03868 0.45594 0.95816
 C155 C -0.02080 0.47567 0.97650
 H156 H -0.04629 0.44701 0.87675
 H157 H -0.04008 0.37083 0.87981
 H158 H -0.12104 0.44004 0.87949
 H159 H -0.11778 0.44472 0.95613
 H160 H -0.03689 0.37545 0.95635
 H161 H -0.11149 0.36860 0.95921
 C162 C 0.10270 0.56944 0.93840
 C163 C 0.10254 0.57283 0.89668
 C164 C 0.09900 0.61383 0.90080
 C165 C 0.09950 0.61085 0.94216
 C166 C 0.06224 0.56681 0.93782
 C167 C 0.05875 0.60782 0.94189
 C168 C 0.06171 0.56976 0.89646
 C169 C 0.05853 0.61117 0.90025
 C170 C 0.11910 0.64072 0.88068
 C171 C 0.13525 0.66347 0.86461
 C172 C 0.04133 0.54146 0.95900
 C173 C 0.02358 0.52155 0.97699
 H174 H 0.12060 0.55195 0.95433
 H175 H 0.12077 0.55874 0.87785
 H176 H 0.11523 0.62802 0.96077
 H177 H 0.04050 0.62191 0.96072
 H178 H 0.04593 0.55255 0.87792
 H179 H 0.04058 0.62862 0.88435
 C180 C 1.10240 0.06299 0.43067
 C181 C 1.10022 0.05849 0.38910
 C182 C 1.09878 0.09962 0.38540
 C183 C 1.10128 0.10447 0.42657
 C184 C 1.06189 0.06260 0.43241
 C185 C 1.06040 0.10371 0.42874
 C186 C 1.05942 0.05780 0.39124
 C187 C 1.05826 0.09919 0.38717
 C188 C 1.11899 0.11974 0.35856
 C189 C 1.13525 0.13582 0.33585
 C190 C 1.04093 0.04144 0.45776
 C191 C 1.02317 0.02349 0.47773
 H192 H 1.12029 0.04787 0.44887
 H193 H 1.11679 0.04009 0.37252
 H194 H 1.11872 0.12391 0.44079
 H195 H 1.04379 0.12205 0.44535
 H196 H 1.04197 0.03837 0.37701
 H197 H 1.04031 0.11429 0.36899
 C198 C 1.10224 -0.05950 0.57247
 C199 C 1.09815 -0.05737 0.61405
 C200 C 1.09891 -0.09866 0.61554
 C201 C 1.10332 -0.10115 0.57435
 C202 C 1.06187 -0.06116 0.56887
 C203 C 1.06258 -0.10245 0.57031
 C204 C 1.05750 -0.05872 0.61006
 C205 C 1.05853 -0.10030 0.61191
 C206 C 1.11919 -0.11904 0.64222
 C207 C 1.13552 -0.13530 0.66482
 C208 C 1.04085 -0.03973 0.54368
 C209 C 1.02310 -0.02157 0.52381
 H210 H 1.11996 -0.04249 0.55595
 H211 H 1.11298 -0.03904 0.63232
 H212 H 1.12240 -0.11884 0.55997
 H213 H 1.04772 -0.12073 0.55202
 H214 H 1.03843 -0.04104 0.62446
 H215 H 1.04077 -0.11729 0.62841
 C216 C 0.93978 -0.10222 0.42955
 C217 C 0.89891 -0.10187 0.42684
 C218 C 0.90200 -0.09829 0.38565
 C219 C 0.94249 -0.09898 0.38795
 C220 C 0.93940 -0.06098 0.43254
 C221 C 0.94243 -0.05746 0.39134
 C222 C 0.89890 -0.06027 0.43027
 C223 C 0.90165 -0.05706 0.38867
 C224 C 0.88149 -0.11858 0.35887
 C225 C 0.86494 -0.13485 0.33628
 C226 C 0.96066 -0.03967 0.45781
 C227 C 0.97861 -0.02158 0.47772
 H228 H 0.95570 -0.12052 0.44668
 H229 H 0.88079 -0.12038 0.44114
 H230 H 0.96021 -0.11510 0.37027
 H231 H 0.96055 -0.03896 0.37702
 H232 H 0.88124 -0.04411 0.44797
 H233 H 0.88577 -0.03870 0.37156
 C234 C 0.94185 0.05983 0.60992
 C235 C 0.94193 0.10134 0.61356
 C236 C 0.90141 0.10086 0.61518
 C237 C 0.90104 0.05964 0.61191
 C238 C 0.93941 0.06361 0.56871
 C239 C 0.89889 0.06312 0.57030
 C240 C 0.93982 0.10483 0.57193
 C241 C 0.89893 0.10470 0.57396
 C242 C 0.88046 0.12100 0.64171
 C243 C 0.86343 0.13703 0.66410
 C244 C 0.96082 0.04220 0.54363
 C245 C 0.97875 0.02395 0.52381
 H246 H 0.95974 0.04115 0.62443
 H247 H 0.95937 0.11728 0.63166
 H248 H 0.88488 0.04127 0.62863
 H249 H 0.88145 0.04718 0.55221
 H250 H 0.95601 0.12317 0.55520
 H251 H 0.88102 0.12340 0.55951
 C252 C 0.43027 1.06176 0.10410
 C253 C 0.42634 1.10330 0.10366
 C254 C 0.38617 1.09889 0.09991
 C255 C 0.38969 1.05772 0.10069
 C256 C 0.43305 1.06179 0.06272
 C257 C 0.39287 1.05745 0.05902
 C258 C 0.42957 1.10296 0.06190
 C259 C 0.38900 1.09889 0.05852
 C260 C 0.35929 1.11902 0.12010
 C261 C 0.33650 1.13511 0.13622
 C262 C 0.45818 1.04051 0.04142
 C263 C 0.47785 1.02237 0.02329
 H264 H 0.44755 1.04625 0.12258
 H265 H 0.43982 1.12239 0.12226
 H266 H 0.37303 1.03931 0.11684
 H267 H 0.37938 1.03837 0.04043
 H268 H 0.44628 1.12131 0.04572
 H269 H 0.37175 1.11437 0.03997
 C270 C 0.60787 1.05826 -0.05678
 C271 C 0.61184 1.05694 -0.09836
 C272 C 0.61386 1.09821 -0.09870
 C273 C 0.61027 1.09981 -0.05740
 C274 C 0.56765 1.06112 -0.06136
 C275 C 0.56965 1.10238 -0.06167
 C276 C 0.57122 1.05948 -0.10266
 C277 C 0.57365 1.10111 -0.10334
 C278 C 0.64029 1.11841 -0.11903
 C279 C 0.66270 1.13457 -0.13530
 C280 C 0.54268 1.04000 -0.04010
 C281 C 0.52303 1.02207 -0.02206
 H282 H 0.62169 1.04042 -0.03741
 H283 H 0.62949 1.03849 -0.11366
 H284 H 0.62662 1.11661 -0.03901
 H285 H 0.55201 1.12080 -0.04631
 H286 H 0.55489 1.04263 -0.12101
 H287 H 0.55987 1.11896 -0.12272
 C288 C 0.42965 0.93847 -0.10312
 C289 C 0.42655 0.89687 -0.10354
 C290 C 0.38637 0.90053 -0.09901
 C291 C 0.38908 0.94177 -0.09894
 C292 C 0.43318 0.93758 -0.06180
 C293 C 0.39300 0.94118 -0.05734
 C294 C 0.43052 0.89635 -0.06185
 C295 C 0.38994 0.89967 -0.05769
 C296 C 0.35956 0.88040 -0.11923
 C297 C 0.33684 0.86433 -0.13540
 C298 C 0.45828 0.95881 -0.04046
 C299 C 0.47790 0.97690 -0.02227
 H300 H 0.44630 0.95466 -0.12154
 H301 H 0.44004 0.87841 -0.12278
 H302 H 0.37177 0.96026 -0.11439
 H303 H 0.37950 0.95964 -0.03811
 H304 H 0.44787 0.87793 -0.04636
 H305 H 0.37333 0.88352 -0.03921
 C306 C 0.57277 0.89701 0.05958
 C307 C 0.61325 0.90268 0.05835
 C308 C 0.61433 0.90094 0.09978
 C309 C 0.57424 0.89493 0.10137
 C310 C 0.56774 0.93793 0.06256
 C311 C 0.56878 0.93623 0.10399
 C312 C 0.60784 0.94389 0.06101
 C313 C 0.60928 0.94187 0.10272
 C314 C 0.64099 0.88081 0.12003
 C315 C 0.66358 0.86472 0.13621
 C316 C 0.54266 0.95906 0.04132
 C317 C 0.52300 0.97704 0.02324
 H318 H 0.55745 0.87882 0.04160
 H319 H 0.63183 0.88868 0.03980
 H320 H 0.56073 0.87456 0.11821
 H321 H 0.55019 0.95027 0.12248
 H322 H 0.62140 0.96425 0.04419
 H323 H 0.62458 0.96010 0.12068
   
