data_POSCAR
  _audit_creation_date              2014-09-24
  _audit_creation_method            'ToBaCCo'
  _symmetry_space_group_name_H-M    'P1'
  _symmetry_Int_Tables_number       1
  _symmetry_cell_setting            triclinic
  loop_
  _symmetry_equiv_pos_as_xyz
 x,y,z
_cell_length_a 44.5055
_cell_length_b 44.6792
_cell_length_c 44.4810
_cell_angle_alpha 89.993200
_cell_angle_beta 90.001000
_cell_angle_gamma 89.911700
loop_
  _atom_site_label
  _atom_site_type_symbol
  _atom_site_fract_x
  _atom_site_fract_y
  _atom_site_fract_z
C1 C 0.15778 0.18206 0.20008
 C2 C 0.15773 0.20370 0.17724
 C3 C 0.17969 0.20314 0.15516
 C4 C 0.20199 0.18093 0.15565
 C5 C 0.20205 0.15953 0.17822
 C6 C 0.17981 0.16010 0.20057
 C7 C 0.13901 0.17694 0.22416
 N8 N 0.14926 0.15251 0.23902
 C9 C 0.17410 0.14195 0.22495
 C10 C 0.22595 0.14064 0.17287
 N11 N 0.24017 0.15021 0.14772
 C12 C 0.22585 0.17473 0.13692
 C13 C 0.17390 0.22652 0.13581
 N14 N 0.14908 0.24103 0.14574
 C15 C 0.13893 0.22741 0.17096
 H16 H 0.11931 0.18984 0.23029
 H17 H 0.18688 0.12246 0.23181
 H18 H 0.23243 0.12134 0.18613
 H19 H 0.23222 0.18699 0.11691
 H20 H 0.18664 0.23247 0.11595
 H21 H 0.11930 0.23419 0.18365
 C22 C -0.15466 0.82110 0.20408
 C23 C -0.15526 0.79880 0.18190
 C24 C -0.17784 0.79876 0.16045
 C25 C -0.20010 0.82101 0.16092
 C26 C -0.19952 0.84305 0.18284
 C27 C -0.17666 0.84310 0.20454
 C28 C -0.13523 0.82686 0.22747
 N29 N -0.14506 0.85171 0.24190
 C30 C -0.17027 0.86191 0.22823
 C31 C -0.22354 0.86184 0.17759
 N32 N -0.23844 0.85156 0.15313
 C33 C -0.22445 0.82671 0.14268
 C34 C -0.17258 0.77486 0.14161
 N35 N -0.14748 0.76062 0.15123
 C36 C -0.13662 0.77493 0.17576
 H37 H -0.11542 0.81408 0.23347
 H38 H -0.18288 0.88156 0.23493
 H39 H -0.22960 0.88155 0.19041
 H40 H -0.23137 0.81390 0.12320
 H41 H -0.18585 0.76839 0.12228
 H42 H -0.11661 0.76854 0.18804
 C43 C -0.16097 0.17780 -0.20250
 C44 C -0.16157 0.20010 -0.18032
 C45 C -0.18356 0.19964 -0.15826
 C46 C -0.20521 0.17687 -0.15812
 C47 C -0.20462 0.15482 -0.18004
 C48 C -0.18237 0.15529 -0.20236
 C49 C -0.14202 0.17244 -0.22639
 N50 N -0.15155 0.14734 -0.24053
 C51 C -0.17611 0.13658 -0.22618
 C52 C -0.22798 0.13549 -0.17418
 N53 N -0.24251 0.14542 -0.14934
 C54 C -0.22893 0.17060 -0.13925
 C55 C -0.17841 0.22369 -0.13957
 N56 N -0.15396 0.23850 -0.14989
 C57 C -0.14342 0.22440 -0.17470
 H58 H -0.12270 0.18566 -0.23290
 H59 H -0.18834 0.11660 -0.23249
 H60 H -0.23387 0.11566 -0.18687
 H61 H -0.23571 0.18327 -0.11962
 H62 H -0.19129 0.22986 -0.11987
 H63 H -0.12391 0.23123 -0.18752
 C64 C 0.15876 0.82137 -0.20250
 C65 C 0.15804 0.79867 -0.18075
 C66 C 0.17967 0.79777 -0.15836
 C67 C 0.20230 0.81956 -0.15745
 C68 C 0.20301 0.84202 -0.17895
 C69 C 0.18111 0.84293 -0.20161
 C70 C 0.14044 0.82795 -0.22657
 N71 N 0.15127 0.85286 -0.24011
 C72 C 0.17604 0.86231 -0.22519
 C73 C 0.22710 0.86020 -0.17234
 N74 N 0.24078 0.84918 -0.14748
 C75 C 0.22596 0.82443 -0.13809
 C76 C 0.17320 0.77364 -0.14022
 N77 N 0.14829 0.76011 -0.15118
 C78 C 0.13876 0.77508 -0.17587
 H79 H 0.12069 0.81568 -0.23362
 H80 H 0.18922 0.88184 -0.23095
 H81 H 0.23404 0.88000 -0.18453
 H82 H 0.23184 0.81112 -0.11859
 H83 H 0.18550 0.76654 -0.12045
 H84 H 0.11918 0.76933 -0.18911
 C85 C 0.18201 1.15910 0.79955
 C86 C 0.20368 1.15900 0.82242
 C87 C 0.20321 1.18097 0.84441
 C88 C 0.18106 1.20330 0.84378
 C89 C 0.15962 1.20340 0.82118
 C90 C 0.16009 1.18117 0.79893
 C91 C 0.17677 1.14030 0.77559
 N92 N 0.15231 1.15058 0.76067
 C93 C 0.14184 1.17546 0.77459
 C94 C 0.14075 1.22729 0.82643
 N95 N 0.15038 1.24146 0.85156
 C96 C 0.17491 1.22713 0.86244
 C97 C 0.22656 1.17509 0.86386
 N98 N 0.24096 1.15022 0.85407
 C99 C 0.22730 1.14012 0.82884
 H100 H 0.18958 1.12055 0.76959
 H101 H 0.12234 1.18825 0.76767
 H102 H 0.12140 1.23377 0.81315
 H103 H 0.18718 1.23344 0.88249
 H104 H 0.23255 1.18779 0.88371
 H105 H 0.23398 1.12045 0.81627
 C106 C 0.82076 0.84386 0.79523
 C107 C 0.79840 0.84330 0.81741
 C108 C 0.79824 0.82073 0.83878
 C109 C 0.82044 0.79844 0.83820
 C110 C 0.84255 0.79898 0.81627
 C111 C 0.84271 0.82183 0.79466
 C112 C 0.82667 0.86330 0.77195
 N113 N 0.85157 0.85344 0.75750
 C114 C 0.86166 0.82820 0.77104
 C115 C 0.86133 0.77499 0.82145
 N116 N 0.85098 0.76015 0.84589
 C117 C 0.82609 0.77414 0.85640
 C118 C 0.77435 0.82608 0.85771
 N119 N 0.76024 0.85123 0.84822
 C120 C 0.77461 0.86202 0.82369
 H121 H 0.81398 0.88316 0.76608
 H122 H 0.88134 0.81558 0.76431
 H123 H 0.88111 0.76893 0.80862
 H124 H 0.81326 0.76728 0.87591
 H125 H 0.76782 0.81286 0.87704
 H126 H 0.76832 0.88207 0.81153
 C127 C 0.17824 0.83870 1.20366
 C128 C 0.20059 0.83814 1.18145
 C129 C 0.20014 0.81623 1.15942
 C130 C 0.17734 0.79462 1.15933
 C131 C 0.15525 0.79516 1.18128
 C132 C 0.15570 0.81732 1.20358
 C133 C 0.17281 0.85763 1.22748
 N134 N 0.14763 0.84811 1.24162
 C135 C 0.13688 0.82358 1.22735
 C136 C 0.13585 0.77191 1.17538
 N137 N 0.14578 0.75750 1.15051
 C138 C 0.17104 0.77105 1.14043
 C139 C 0.22415 0.82144 1.14061
 N140 N 0.23892 0.84587 1.15084
 C141 C 0.22486 0.85634 1.17571
 H142 H 0.18599 0.87696 1.23391
 H143 H 0.11683 0.81139 1.23366
 H144 H 0.11594 0.76600 1.18804
 H145 H 0.18368 0.76436 1.12074
 H146 H 0.23029 0.80865 1.12086
 H147 H 0.23166 0.87584 1.18843
 C148 C 0.82083 1.15931 1.20396
 C149 C 0.79806 1.15840 1.18221
 C150 C 0.79704 1.17989 1.15977
 C151 C 0.81878 1.20255 1.15882
 C152 C 0.84130 1.20344 1.18032
 C153 C 0.84234 1.18170 1.20303
 C154 C 0.82758 1.14111 1.22801
 N155 N 0.85254 1.15204 1.24148
 C156 C 0.86187 1.17676 1.22656
 C157 C 0.85945 1.22747 1.17360
 N158 N 0.84836 1.24095 1.14869
 C159 C 0.82359 1.22604 1.13937
 C160 C 0.77293 1.17321 1.14159
 N161 N 0.75953 1.14833 1.15258
 C162 C 0.77456 1.13899 1.17733
 H163 H 0.81542 1.12132 1.23506
 H164 H 0.88144 1.18998 1.23225
 H165 H 0.87931 1.23452 1.18573
 H166 H 0.81026 1.23176 1.11982
 H167 H 0.76578 1.18534 1.12175
 H168 H 0.76893 1.11945 1.19057
 O169 O 0.45762 1.05150 1.05540
 O170 O 0.42472 1.02237 1.02842
 C171 C 0.43074 1.04334 1.04758
 O172 O 0.54204 1.04875 0.94833
 O173 O 0.57512 1.02160 0.97719
 C174 C 0.56896 1.04087 0.95632
 O175 O 0.45758 1.05166 0.95151
 O176 O 0.42471 1.02252 0.97852
 C177 C 0.43073 1.04349 0.95935
 O178 O 0.54207 1.04864 1.05841
 O179 O 0.57510 1.02159 1.02941
 C180 C 0.56897 1.04081 1.05031
 Zr181 Zr 0.49988 1.03429 1.04157
 O182 O 0.50250 1.08157 1.04191
 O183 O 0.49651 1.03353 1.08904
 Zr184 Zr 0.49985 1.03474 0.96557
 O185 O 0.50124 1.08190 0.96885
 O186 O 0.49679 1.03636 0.91811
 O187 O 0.47307 1.04021 1.00357
 O188 O 0.52602 1.04003 1.00353
 O189 O 0.54254 0.94457 1.05812
 O190 O 0.57534 0.97195 1.02926
 C191 C 0.56939 0.95259 1.05007
 O192 O 0.45788 0.94202 0.95086
 O193 O 0.42488 0.97064 0.97831
 C194 C 0.43098 0.94997 0.95884
 O195 O 0.54229 0.94481 0.94814
 O196 O 0.57516 0.97148 0.97755
 C197 C 0.56914 0.95250 0.95642
 O198 O 0.45801 0.94152 1.05537
 O199 O 0.42495 0.97038 1.02822
 C200 C 0.43110 0.94952 1.04748
 Zr201 Zr 0.50016 0.95862 1.04126
 O202 O 0.50374 0.91137 1.04109
 O203 O 0.49677 0.95871 1.08874
 Zr204 Zr 0.50006 0.95895 0.96514
 O205 O 0.50357 0.91169 0.96496
 O206 O 0.49663 0.95945 0.91766
 Zr207 Zr 0.45536 0.99653 1.00337
 Zr208 Zr 0.54463 0.99674 1.00329
 O209 O 0.52618 0.95338 1.00316
 O210 O 0.47338 0.95286 1.00319
 O211 O 0.52682 0.99650 1.04724
 O212 O 0.47389 0.99683 0.95986
 O213 O 0.47389 0.99640 1.04690
 O214 O 0.52671 0.99690 0.95942
 H215 H 0.53962 1.05757 1.00354
 H216 H 0.46029 0.99693 0.94223
 H217 H 0.53980 0.93583 1.00315
 H218 H 0.46021 0.99636 1.06447
 H219 H 0.51188 1.02220 0.91008
 H220 H 0.51373 0.97122 0.90984
 H221 H 0.48692 0.90378 0.97735
 H222 H 0.48709 0.90353 1.02867
 H223 H 0.51368 0.97070 1.09662
 H224 H 0.51380 1.02194 1.09679
 H225 H 0.48908 1.08895 1.02579
 H226 H 0.50114 1.08951 0.94793
 O227 O 0.04884 0.54206 -0.05874
 O228 O 0.02154 0.57489 -0.02982
 C229 C 0.04094 0.56884 -0.05064
 O230 O -0.05856 0.45813 -0.05604
 O231 O -0.02958 0.42525 -0.02884
 C232 C -0.05049 0.43133 -0.04814
 O233 O -0.05558 0.54232 -0.05885
 O234 O -0.02831 0.57503 -0.02984
 C235 C -0.04759 0.56906 -0.05077
 O236 O 0.05153 0.45789 -0.05598
 O237 O 0.02259 0.42512 -0.02872
 C238 C 0.04349 0.43113 -0.04802
 Zr239 Zr 0.03451 0.50000 -0.04187
 O240 O 0.03415 0.49664 -0.08935
 O241 O 0.08195 0.50326 -0.04195
 Zr242 Zr -0.04159 0.50019 -0.04177
 O243 O -0.04179 0.49685 -0.08924
 O244 O -0.08904 0.50373 -0.04130
 O245 O -0.00351 0.52674 -0.04768
 O246 O -0.00356 0.47413 -0.04734
 O247 O 0.05141 0.45786 0.04854
 O248 O 0.02210 0.42515 0.02164
 C249 C 0.04313 0.43111 0.04082
 O250 O -0.05546 0.54226 0.05141
 O251 O -0.02826 0.57501 0.02239
 C252 C -0.04748 0.56902 0.04338
 O253 O -0.05839 0.45806 0.04849
 O254 O -0.02959 0.42520 0.02107
 C255 C -0.05036 0.43128 0.04053
 O256 O 0.04866 0.54198 0.05129
 O257 O 0.02147 0.57488 0.02233
 C258 C 0.04074 0.56877 0.04325
 Zr259 Zr 0.03455 0.49995 0.03421
 O260 O 0.03466 0.49655 0.08168
 O261 O 0.08201 0.50325 0.03382
 Zr262 Zr -0.04154 0.50014 0.03422
 O263 O -0.04178 0.49672 0.08169
 O264 O -0.08898 0.50369 0.03374
 Zr265 Zr -0.00345 0.54451 -0.00377
 Zr266 Zr -0.00351 0.45560 -0.00385
 O267 O -0.00352 0.47411 0.03967
 O268 O -0.00346 0.52667 0.04012
 O269 O 0.04040 0.47327 -0.00384
 O270 O -0.04699 0.52621 -0.00375
 O271 O 0.04003 0.52594 -0.00381
 O272 O -0.04741 0.47347 -0.00379
 H273 H -0.00356 0.46054 -0.06494
 H274 H -0.06452 0.53990 -0.00372
 H275 H -0.00356 0.46061 0.05735
 H276 H 0.05763 0.53949 -0.00377
 H277 H -0.09687 0.48674 -0.02940
 H278 H -0.09683 0.48657 0.02206
 H279 H -0.02902 0.51302 0.08961
 H280 H 0.02218 0.51311 0.08958
 H281 H 0.08984 0.48618 0.02201
 H282 H 0.08982 0.48678 -0.02935
 H283 H 0.02229 0.51369 -0.09717
 H284 H -0.02904 0.51318 -0.09712
 O285 O 1.05559 -0.05147 0.45801
 O286 O 1.02840 -0.02257 0.42502
 C287 C 1.04764 -0.04347 0.43111
 O288 O 0.94870 -0.04891 0.54246
 O289 O 0.97733 -0.02154 0.57547
 C290 C 0.95665 -0.04095 0.56936
 O291 O 0.95159 -0.05169 0.45791
 O292 O 0.97871 -0.02275 0.42498
 C293 C 0.95951 -0.04364 0.43103
 O294 O 1.05836 -0.04882 0.54254
 O295 O 1.02902 -0.02203 0.57546
 C296 C 1.05001 -0.04119 0.56943
 Zr297 Zr 1.04171 -0.03428 0.50026
 O298 O 1.04285 -0.08152 0.50353
 O299 O 1.08915 -0.03299 0.49686
 Zr300 Zr 0.96555 -0.03467 0.50020
 O301 O 0.96569 -0.08193 0.50359
 O302 O 0.91810 -0.03452 0.49672
 O303 O 1.00368 -0.04036 0.47352
 O304 O 1.00361 -0.03998 0.52623
 O305 O 1.05805 0.05549 0.54261
 O306 O 1.02930 0.02812 0.57554
 C307 C 1.05004 0.04750 0.56949
 O308 O 0.95089 0.05786 0.45792
 O309 O 0.97837 0.02918 0.42499
 C310 C 0.95890 0.04987 0.43104
 O311 O 0.94803 0.05514 0.54242
 O312 O 0.97753 0.02860 0.57539
 C313 C 0.95632 0.04751 0.56932
 O314 O 1.05525 0.05840 0.45799
 O315 O 1.02819 0.02943 0.42503
 C316 C 1.04738 0.05033 0.43109
 Zr317 Zr 1.04122 0.04134 0.50028
 O318 O 1.04099 0.08860 0.50368
 O319 O 1.08867 0.04125 0.49689
 Zr320 Zr 0.96512 0.04100 0.50020
 O321 O 0.96491 0.08827 0.50357
 O322 O 0.91768 0.04059 0.49673
 Zr323 Zr 1.00342 0.00334 0.45560
 Zr324 Zr 1.00334 0.00331 0.54492
 O325 O 1.00312 0.04663 0.52630
 O326 O 1.00315 0.04704 0.47348
 O327 O 1.04728 0.00353 0.52715
 O328 O 0.95989 0.00315 0.47408
 O329 O 1.04693 0.00355 0.47411
 O330 O 0.95945 0.00314 0.52703
 H331 H 1.00361 -0.05761 0.53974
 H332 H 0.94232 0.00306 0.46039
 H333 H 1.00306 0.06419 0.53990
 H334 H 1.06447 0.00359 0.46039
 H335 H 0.91017 -0.02271 0.51377
 H336 H 0.90988 0.02846 0.51361
 H337 H 0.97713 0.09615 0.48678
 H338 H 1.02842 0.09640 0.48709
 H339 H 1.09654 0.02909 0.51373
 H340 H 1.09685 -0.02227 0.51471
 H341 H 1.02917 -0.08949 0.48797
 H342 H 0.97807 -0.08977 0.48687
 C343 C 1.11122 0.11570 0.31160
 C344 C 1.07685 0.11865 0.31226
 C345 C 1.06391 0.10580 0.33684
 C346 C 1.08661 0.09125 0.35837
 C347 C 1.10897 0.11621 0.36613
 C348 C 1.12191 0.12906 0.34154
 C349 C 1.11738 0.08199 0.31428
 C350 C 1.10444 0.06914 0.33885
 C351 C 1.12517 0.12941 0.28508
 C352 C 1.13665 0.14047 0.26317
 C353 C 1.07268 0.07723 0.38473
 C354 C 1.06118 0.06524 0.40611
 H355 H 1.06382 0.12985 0.29494
 H356 H 1.03980 0.10598 0.34058
 H357 H 1.11417 0.12317 0.38893
 H358 H 1.13820 0.14704 0.34328
 H359 H 1.13071 0.06932 0.29828
 H360 H 1.10671 0.04547 0.34388
 C361 C 0.89448 -0.11015 0.31292
 C362 C 0.92872 -0.11437 0.31382
 C363 C 0.94206 -0.10118 0.33801
 C364 C 0.91984 -0.08507 0.35890
 C365 C 0.89653 -0.10889 0.36742
 C366 C 0.88319 -0.12208 0.34324
 C367 C 0.88959 -0.07617 0.31439
 C368 C 0.90292 -0.06299 0.33856
 C369 C 0.88005 -0.12427 0.28689
 C370 C 0.86810 -0.13574 0.26547
 C371 C 0.93410 -0.07074 0.38489
 C372 C 0.94573 -0.05859 0.40609
 H373 H 0.94136 -0.12663 0.29696
 H374 H 0.96613 -0.10213 0.34186
 H375 H 0.89101 -0.11490 0.39042
 H376 H 0.86625 -0.13939 0.34553
 H377 H 0.87682 -0.06356 0.29789
 H378 H 0.90157 -0.03908 0.34275
 C379 C 0.88793 0.11016 0.68782
 C380 C 0.87619 0.12199 0.65761
 C381 C 0.88985 0.10934 0.63329
 C382 C 0.91392 0.08611 0.64157
 C383 C 0.89775 0.06342 0.66179
 C384 C 0.88408 0.07606 0.68610
 C385 C 0.92201 0.11531 0.68684
 C386 C 0.93567 0.10267 0.66254
 C387 C 0.87330 0.12379 0.71403
 C388 C 0.86142 0.13500 0.73565
 C389 C 0.92874 0.07249 0.61547
 C390 C 0.94118 0.06118 0.59424
 H391 H 0.85867 0.13879 0.65550
 H392 H 0.88404 0.11531 0.61036
 H393 H 0.89709 0.03952 0.65740
 H394 H 0.87171 0.06300 0.70253
 H395 H 0.93434 0.12777 0.70377
 H396 H 0.95970 0.10430 0.65865
 C397 C 1.11455 -0.10739 0.68816
 C398 C 1.11900 -0.07333 0.68741
 C399 C 1.10624 -0.05986 0.66305
 C400 C 1.09029 -0.08178 0.64181
 C401 C 1.06768 -0.09849 0.66173
 C402 C 1.08043 -0.11195 0.68608
 C403 C 1.12695 -0.11867 0.65800
 C404 C 1.11420 -0.10520 0.63363
 C405 C 1.12820 -0.12191 0.71442
 C406 C 1.13925 -0.13391 0.73606
 C407 C 1.07642 -0.06729 0.61566
 C408 C 1.06462 -0.05538 0.59439
 H409 H 1.13110 -0.06089 0.70451
 H410 H 1.10741 -0.03588 0.65928
 H411 H 1.04376 -0.09966 0.65710
 H412 H 1.06743 -0.12466 0.70231
 H413 H 1.14422 -0.13574 0.65597
 H414 H 1.12054 -0.11073 0.61073
 C415 C 0.31197 1.11108 1.11046
 C416 C 0.31365 1.07729 1.11650
 C417 C 0.33802 1.06378 1.10381
 C418 C 0.35834 1.08538 1.08631
 C419 C 0.36649 1.11004 1.10890
 C420 C 0.34211 1.12356 1.12159
 C421 C 0.31315 1.11411 1.07609
 C422 C 0.33752 1.10060 1.06340
 C423 C 0.28570 1.12556 1.12413
 C424 C 0.26403 1.13733 1.13538
 C425 C 0.38450 1.07073 1.07262
 C426 C 0.40578 1.05841 1.06127
 H427 H 0.29715 1.06505 1.12959
 H428 H 0.34238 1.03997 1.10604
 H429 H 0.38938 1.11634 1.11443
 H430 H 0.34413 1.14144 1.13798
 H431 H 0.29633 1.12584 1.06289
 H432 H 0.34157 1.10075 1.03933
 C433 C 0.31245 0.88546 0.89261
 C434 C 0.34263 0.87371 0.88072
 C435 C 0.36696 0.88639 0.89428
 C436 C 0.35872 0.90956 0.91839
 C437 C 0.33793 0.89293 0.94027
 C438 C 0.31361 0.88025 0.92671
 C439 C 0.31404 0.91956 0.88875
 C440 C 0.33834 0.93223 0.90230
 C441 C 0.28623 0.87195 0.87796
 C442 C 0.26460 0.86105 0.86585
 C443 C 0.38484 0.92340 0.93291
 C444 C 0.40608 0.93525 0.94476
 H445 H 0.34471 0.85690 0.86322
 H446 H 0.38987 0.88043 0.88839
 H447 H 0.34197 0.89124 0.96429
 H448 H 0.29681 0.86771 0.93911
 H449 H 0.29751 0.93262 0.87647
 H450 H 0.34262 0.95614 0.90163
 C451 C 0.68901 0.88933 1.11591
 C452 C 0.68763 0.92346 1.11972
 C453 C 0.66303 0.93625 1.10672
 C454 C 0.64221 0.91367 1.09118
 C455 C 0.63448 0.89059 1.11554
 C456 C 0.65908 0.87780 1.12854
 C457 C 0.68702 0.88407 1.08187
 C458 C 0.66243 0.89685 1.06887
 C459 C 0.71554 0.87553 1.12979
 C460 C 0.73743 0.86413 1.14097
 C461 C 0.61582 0.92744 1.07703
 C462 C 0.59442 0.93884 1.06498
 H463 H 0.70448 0.93643 1.13160
 H464 H 0.65881 0.96019 1.10746
 H465 H 0.61169 0.88484 1.12203
 H466 H 0.65737 0.86108 1.14617
 H467 H 0.70349 0.87141 1.06908
 H468 H 0.65785 0.89516 1.04496
 C469 C 0.68662 1.10604 0.88919
 C470 C 0.68620 1.07186 0.88566
 C471 C 0.66211 1.05854 0.89900
 C472 C 0.64079 1.08070 0.91455
 C473 C 0.63216 1.10337 0.89009
 C474 C 0.65625 1.11669 0.87675
 C475 C 0.68480 1.11153 0.92321
 C476 C 0.66072 1.09822 0.93654
 C477 C 0.71258 1.12044 0.87492
 C478 C 0.73395 1.13233 0.86333
 C479 C 0.61491 1.06642 0.92904
 C480 C 0.59380 1.05474 0.94128
 H481 H 0.70332 1.05923 0.87373
 H482 H 0.65859 1.03450 0.89850
 H483 H 0.60915 1.10850 0.88378
 H484 H 0.65388 1.13322 0.85902
 H485 H 0.70101 1.12470 0.93573
 H486 H 0.65630 1.09999 0.96048
 C487 C 0.10998 0.31334 0.10584
 C488 C 0.07608 0.31548 0.11183
 C489 C 0.06276 0.33960 0.09861
 C490 C 0.08464 0.35923 0.08069
 C491 C 0.09971 0.33786 0.05823
 C492 C 0.11303 0.31373 0.07146
 C493 C 0.12280 0.34347 0.11632
 C494 C 0.10948 0.36760 0.10309
 C495 C 0.12423 0.28735 0.12013
 C496 C 0.13578 0.26595 0.13195
 C497 C 0.07018 0.38515 0.06648
 C498 C 0.05800 0.40627 0.05479
 H499 H 0.06362 0.29946 0.12528
 H500 H 0.03889 0.34423 0.10073
 H501 H 0.09989 0.34137 0.03408
 H502 H 0.12463 0.29657 0.05864
 H503 H 0.14077 0.34566 0.13268
 H504 H 0.11603 0.39045 0.10813
 C505 C -0.11626 0.31229 -0.11158
 C506 C -0.12896 0.34210 -0.12322
 C507 C -0.11600 0.36662 -0.11043
 C508 C -0.09162 0.35894 -0.08726
 C509 C -0.06930 0.33880 -0.10412
 C510 C -0.08225 0.31429 -0.11690
 C511 C -0.12006 0.31369 -0.07730
 C512 C -0.10710 0.33821 -0.06451
 C513 C -0.13009 0.28583 -0.12535
 C514 C -0.14121 0.26398 -0.13669
 C515 C -0.07750 0.38522 -0.07346
 C516 C -0.06544 0.40649 -0.06200
 H517 H -0.14658 0.34379 -0.14002
 H518 H -0.12252 0.38932 -0.11627
 H519 H -0.04541 0.34338 -0.10586
 H520 H -0.06945 0.29789 -0.12959
 H521 H -0.13188 0.29691 -0.06422
 H522 H -0.10783 0.34242 -0.04048
 C523 C 0.10755 0.68717 -0.11443
 C524 C 0.11894 0.65720 -0.12692
 C525 C 0.10532 0.63289 -0.11442
 C526 C 0.08165 0.64095 -0.09065
 C527 C 0.05976 0.66222 -0.10667
 C528 C 0.07338 0.68652 -0.11918
 C529 C 0.11189 0.68491 -0.08027
 C530 C 0.09828 0.66062 -0.06777
 C531 C 0.12223 0.71336 -0.12780
 C532 C 0.13430 0.73495 -0.13865
 C533 C 0.06704 0.61487 -0.07700
 C534 C 0.05510 0.59367 -0.06528
 H535 H 0.13617 0.65524 -0.14409
 H536 H 0.11088 0.61011 -0.12087
 H537 H 0.03570 0.65852 -0.10807
 H538 H 0.06098 0.70364 -0.13129
 H539 H 0.12453 0.70098 -0.06706
 H540 H 0.09926 0.65589 -0.04385
 C541 C -0.10977 0.68755 0.11140
 C542 C -0.12122 0.65759 0.12380
 C543 C -0.10863 0.63324 0.11026
 C544 C -0.08583 0.64125 0.08567
 C545 C -0.06287 0.66171 0.10115
 C546 C -0.07546 0.68606 0.11468
 C547 C -0.11558 0.68606 0.07742
 C548 C -0.10300 0.66172 0.06389
 C549 C -0.12335 0.71379 0.12589
 C550 C -0.13451 0.73542 0.13765
 C551 C -0.07228 0.61512 0.07098
 C552 C -0.06105 0.59389 0.05858
 H553 H -0.13775 0.65567 0.14164
 H554 H -0.11436 0.61047 0.11652
 H555 H -0.03884 0.65746 0.10145
 H556 H -0.06222 0.70266 0.12657
 H557 H -0.12843 0.70267 0.06505
 H558 H -0.10506 0.65750 0.03994
 C559 C 1.11527 0.11214 0.68850
 C560 C 1.12773 0.12355 0.65843
 C561 C 1.11486 0.11040 0.63397
 C562 C 1.09081 0.08714 0.64199
 C563 C 1.06833 0.10389 0.66206
 C564 C 1.08118 0.11703 0.68651
 C565 C 1.11951 0.07805 0.68748
 C566 C 1.10665 0.06490 0.66302
 C567 C 1.12900 0.12629 0.71487
 C568 C 1.14014 0.13789 0.73665
 C569 C 1.07680 0.07302 0.61575
 C570 C 1.06484 0.06139 0.59445
 H571 H 1.14513 0.14044 0.65652
 H572 H 1.12125 0.11603 0.61110
 H573 H 1.04441 0.10531 0.65747
 H574 H 1.06828 0.12971 0.70286
 H575 H 1.13156 0.06535 0.70445
 H576 H 1.10769 0.04094 0.65904
 C577 C 0.89012 -0.10685 0.68688
 C578 C 0.88582 -0.07276 0.68621
 C579 C 0.89910 -0.05927 0.66217
 C580 C 0.91536 -0.08121 0.64116
 C581 C 0.89152 -0.10442 0.63240
 C582 C 0.87825 -0.11790 0.65645
 C583 C 0.92425 -0.11165 0.68546
 C584 C 0.93752 -0.09817 0.66142
 C585 C 0.87589 -0.12139 0.71275
 C586 C 0.86428 -0.13338 0.73405
 C587 C 0.92972 -0.06676 0.61532
 C588 C 0.94182 -0.05495 0.59422
 H589 H 0.87344 -0.06030 0.70313
 H590 H 0.89811 -0.03526 0.65849
 H591 H 0.88560 -0.10980 0.60935
 H592 H 0.86094 -0.13483 0.65400
 H593 H 0.93688 -0.12451 0.70188
 H594 H 0.96153 -0.09947 0.65726
 C595 C 1.11019 -0.11227 0.31295
 C596 C 1.11597 -0.07843 0.31408
 C597 C 1.10330 -0.06467 0.33830
 C598 C 1.08609 -0.08611 0.35903
 C599 C 1.10890 -0.11052 0.36746
 C600 C 1.12157 -0.12427 0.34323
 C601 C 1.07588 -0.11551 0.31433
 C602 C 1.06320 -0.10175 0.33856
 C603 C 1.12386 -0.12698 0.28685
 C604 C 1.13517 -0.13890 0.26533
 C605 C 1.07247 -0.07120 0.38504
 C606 C 1.06121 -0.05869 0.40623
 H607 H 1.12886 -0.06633 0.29731
 H608 H 1.10534 -0.04079 0.34228
 H609 H 1.11457 -0.11649 0.39044
 H610 H 1.13810 -0.14203 0.34543
 H611 H 1.06270 -0.12755 0.29774
 H612 H 1.03917 -0.10200 0.34274
 C613 C 0.89277 0.11517 0.31281
 C614 C 0.88183 0.12762 0.34306
 C615 C 0.89535 0.11469 0.36730
 C616 C 0.91849 0.09059 0.35890
 C617 C 0.94055 0.10624 0.33754
 C618 C 0.92702 0.11917 0.31330
 C619 C 0.88777 0.08125 0.31484
 C620 C 0.90129 0.06833 0.33906
 C621 C 0.87815 0.12896 0.28671
 C622 C 0.86600 0.14004 0.26519
 C623 C 0.93299 0.07654 0.38491
 C624 C 0.94484 0.06460 0.40612
 H625 H 0.86494 0.14504 0.34526
 H626 H 0.89005 0.12103 0.39026
 H627 H 0.96467 0.10706 0.34113
 H628 H 0.93955 0.13108 0.29612
 H629 H 0.87476 0.06850 0.29866
 H630 H 0.89986 0.04450 0.34364
 C631 C 0.11125 0.31298 -0.11117
 C632 C 0.12358 0.34300 -0.12252
 C633 C 0.11007 0.36727 -0.10976
 C634 C 0.08556 0.35912 -0.08691
 C635 C 0.10112 0.33850 -0.06409
 C636 C 0.11463 0.31424 -0.07685
 C637 C 0.07727 0.31453 -0.11688
 C638 C 0.06376 0.33879 -0.10413
 C639 C 0.12571 0.28683 -0.12489
 C640 C 0.13749 0.26525 -0.13613
 C641 C 0.07092 0.38515 -0.07316
 C642 C 0.05858 0.40631 -0.06175
 H643 H 0.14135 0.34502 -0.13911
 H644 H 0.11627 0.39008 -0.11541
 H645 H 0.10150 0.34259 -0.04003
 H646 H 0.12658 0.29754 -0.06373
 H647 H 0.06489 0.29803 -0.12981
 H648 H 0.03982 0.34306 -0.10612
 C649 C -0.11475 0.31351 0.10745
 C650 C -0.13544 0.34103 0.10640
 C651 C -0.12279 0.36521 0.09267
 C652 C -0.09070 0.35947 0.08136
 C653 C -0.09320 0.33192 0.06089
 C654 C -0.10584 0.30775 0.07461
 C655 C -0.08588 0.32445 0.12277
 C656 C -0.07324 0.34860 0.10905
 C657 C -0.12824 0.28747 0.12226
 C658 C -0.13912 0.26598 0.13448
 C659 C -0.07690 0.38540 0.06665
 C660 C -0.06507 0.40650 0.05467
 H661 H -0.15803 0.34147 0.11559
 H662 H -0.13453 0.38637 0.09010
 H663 H -0.08573 0.33146 0.03765
 H664 H -0.10919 0.28657 0.06314
 H665 H -0.07622 0.31412 0.14266
 H666 H -0.05274 0.35898 0.11719
 C667 C -0.11105 0.68798 -0.11687
 C668 C -0.11655 0.68592 -0.08287
 C669 C -0.10368 0.66146 -0.06985
 C670 C -0.08657 0.64146 -0.09210
 C671 C -0.06388 0.66232 -0.10745
 C672 C -0.07676 0.68679 -0.12048
 C673 C -0.12241 0.65815 -0.12965
 C674 C -0.10953 0.63368 -0.11661
 C675 C -0.12494 0.71436 -0.13077
 C676 C -0.13640 0.73614 -0.14196
 C677 C -0.07273 0.61523 -0.07789
 C678 C -0.06131 0.59395 -0.06577
 H679 H -0.12941 0.70224 -0.07014
 H680 H -0.10550 0.65684 -0.04595
 H681 H -0.03983 0.65823 -0.10805
 H682 H -0.06375 0.70366 -0.13224
 H683 H -0.13908 0.65641 -0.14738
 H684 H -0.11516 0.61097 -0.12318
 C685 C 0.10565 0.68580 0.11090
 C686 C 0.11098 0.68437 0.07684
 C687 C 0.09770 0.66043 0.06335
 C688 C 0.08040 0.64025 0.08526
 C689 C 0.05808 0.66117 0.10115
 C690 C 0.07136 0.68512 0.11464
 C691 C 0.11664 0.65552 0.12298
 C692 C 0.10336 0.63157 0.10950
 C693 C 0.12000 0.71158 0.12533
 C694 C 0.13190 0.73280 0.13703
 C695 C 0.06619 0.61452 0.07063
 C696 C 0.05457 0.59351 0.05831
 H697 H 0.12399 0.70075 0.06439
 H698 H 0.09934 0.65630 0.03935
 H699 H 0.03398 0.65749 0.10174
 H700 H 0.05864 0.70198 0.12680
 H701 H 0.13335 0.65311 0.14060
 H702 H 0.10869 0.60862 0.11556
 C703 C 0.31302 1.11079 0.89433
 C704 C 0.31359 1.11432 0.92866
 C705 C 0.33767 1.10088 0.94198
 C706 C 0.35879 1.08524 0.91965
 C707 C 0.36747 1.10953 0.89686
 C708 C 0.34340 1.12297 0.88354
 C709 C 0.31463 1.07691 0.88881
 C710 C 0.33869 1.06348 0.90213
 C711 C 0.28711 1.12516 0.87994
 C712 C 0.26578 1.13681 0.86801
 C713 C 0.38466 1.07068 0.93391
 C714 C 0.40581 1.05844 0.94554
 H715 H 0.29661 1.12634 0.94138
 H716 H 0.34130 1.10136 0.96612
 H717 H 0.39049 1.11562 0.89163
 H718 H 0.34579 1.14058 0.86690
 H719 H 0.29831 1.06457 0.87559
 H720 H 0.34298 1.03962 0.90032
 C721 C 0.31237 0.88375 1.11180
 C722 C 0.34240 0.87319 1.12510
 C723 C 0.36684 0.88615 1.11205
 C724 C 0.35883 0.90839 1.08698
 C725 C 0.33729 0.93093 1.10165
 C726 C 0.31286 0.91797 1.11470
 C727 C 0.31488 0.87760 1.07793
 C728 C 0.33932 0.89057 1.06488
 C729 C 0.28603 0.86991 1.12586
 C730 C 0.26428 0.85873 1.13742
 C731 C 0.38501 0.92251 1.07293
 C732 C 0.40625 0.93458 1.06134
 H733 H 0.34430 0.85698 1.14320
 H734 H 0.38968 0.88105 1.11895
 H735 H 0.34090 0.95496 1.10178
 H736 H 0.29555 0.93090 1.12600
 H737 H 0.29887 0.86429 1.06531
 H738 H 0.34425 0.88835 1.04107
 C739 C 0.68693 1.10719 1.11536
 C740 C 0.68492 1.11172 1.08122
 C741 C 0.66074 1.09809 1.06843
 C742 C 0.64093 1.08125 1.09104
 C743 C 0.63248 1.10461 1.11489
 C744 C 0.65667 1.11826 1.12769
 C745 C 0.68649 1.07312 1.11989
 C746 C 0.66229 1.05948 1.10709
 C747 C 0.71299 1.12194 1.12899
 C748 C 0.73448 1.13413 1.13996
 C749 C 0.61497 1.06667 1.07708
 C750 C 0.59382 1.05481 1.06513
 H751 H 0.70108 1.12450 1.06822
 H752 H 0.65619 1.09918 1.04447
 H753 H 0.60952 1.10993 1.12121
 H754 H 0.65445 1.13528 1.14496
 H755 H 0.70366 1.06081 1.13207
 H756 H 0.65872 1.03547 1.10831
 C757 C 0.68746 0.88936 0.88841
 C758 C 0.68604 0.92350 0.88473
 C759 C 0.66177 0.93627 0.89834
 C760 C 0.64131 0.91364 0.91428
 C761 C 0.66200 0.89674 0.93607
 C762 C 0.68627 0.88397 0.92247
 C763 C 0.65724 0.87790 0.87643
 C764 C 0.63297 0.89067 0.89004
 C765 C 0.71359 0.87561 0.87383
 C766 C 0.73514 0.86432 0.86195
 C767 C 0.61527 0.92739 0.92901
 C768 C 0.59406 0.93879 0.94137
 H769 H 0.70263 0.93650 0.87254
 H770 H 0.65757 0.96021 0.89781
 H771 H 0.65797 0.89497 0.96008
 H772 H 0.70302 0.87126 0.93482
 H773 H 0.65510 0.86122 0.85881
 H774 H 0.61003 0.88494 0.88408
   
