data_POSCAR
  _audit_creation_date              2014-09-24
  _audit_creation_method            'ToBaCCo'
  _symmetry_space_group_name_H-M    'P1'
  _symmetry_Int_Tables_number       1
  _symmetry_cell_setting            triclinic
  loop_
  _symmetry_equiv_pos_as_xyz
 x,y,z
_cell_length_a 44.2335
_cell_length_b 44.6483
_cell_length_c 24.1320
_cell_angle_alpha 89.941200
_cell_angle_beta 90.753900
_cell_angle_gamma 90.527300
loop_
  _atom_site_label
  _atom_site_type_symbol
  _atom_site_fract_x
  _atom_site_fract_y
  _atom_site_fract_z
C1 C 0.69864 0.28072 0.54666
 C2 C 0.69567 0.29667 0.49667
 C3 C 0.71208 0.28942 0.44960
 C4 C 0.73262 0.26543 0.45169
 C5 C 0.73536 0.24811 0.50077
 C6 C 0.71792 0.25534 0.54800
 C7 C 0.71858 0.23562 0.59345
 C8 C 0.73865 0.21193 0.59570
 C9 C 0.75854 0.20637 0.55201
 C10 C 0.75538 0.22329 0.50247
 C11 C 0.75101 0.25881 0.40650
 C12 C 0.77073 0.23474 0.40835
 C13 C 0.77222 0.21562 0.45478
 C14 C 0.79142 0.19018 0.45631
 C15 C 0.79505 0.17476 0.50680
 C16 C 0.77991 0.18291 0.55518
 H17 H 0.70313 0.23785 0.62750
 H18 H 0.73781 0.19745 0.63163
 H19 H 0.75065 0.27250 0.36946
 H20 H 0.78524 0.23178 0.37315
 H21 H 0.68115 0.31609 0.49446
 H22 H 0.81041 0.15602 0.50867
 C23 C 0.21858 0.79818 0.54022
 C24 C 0.21223 0.80968 0.48751
 C25 C 0.22182 0.79553 0.43919
 C26 C 0.23956 0.76936 0.44355
 C27 C 0.24739 0.75797 0.49684
 C28 C 0.23631 0.77205 0.54525
 C29 C 0.24194 0.75870 0.59702
 C30 C 0.25965 0.73328 0.60176
 C31 C 0.27270 0.72005 0.55499
 C32 C 0.26525 0.73169 0.50169
 C33 C 0.24855 0.75351 0.39635
 C34 C 0.26580 0.72771 0.40109
 C35 C 0.27482 0.71665 0.45322
 C36 C 0.29206 0.69023 0.45829
 C37 C 0.29940 0.67928 0.51100
 C38 C 0.29084 0.69400 0.55968
 H39 H 0.23222 0.76735 0.63454
 H40 H 0.26211 0.72357 0.64260
 H41 H 0.24187 0.76050 0.35512
 H42 H 0.27151 0.71619 0.36328
 H43 H 0.19889 0.82989 0.48396
 H44 H 0.31383 0.65980 0.51382
 C45 C 0.17783 0.23637 -0.46023
 C46 C 0.17030 0.22517 -0.51272
 C47 C 0.18262 0.23711 -0.56130
 C48 C 0.20271 0.26207 -0.55718
 C49 C 0.21035 0.27406 -0.50419
 C50 C 0.19763 0.26135 -0.45564
 C51 C 0.20401 0.27473 -0.40407
 C52 C 0.22339 0.29928 -0.39972
 C53 C 0.23687 0.31177 -0.44684
 C54 C 0.22999 0.29944 -0.49978
 C55 C 0.21313 0.27708 -0.60458
 C56 C 0.23203 0.30205 -0.60026
 C57 C 0.24196 0.31293 -0.54836
 C58 C 0.26145 0.33845 -0.54353
 C59 C 0.26753 0.35017 -0.49051
 C60 C 0.25610 0.33707 -0.44252
 H61 H 0.19356 0.26683 -0.36648
 H62 H 0.22710 0.30886 -0.35899
 H63 H 0.20588 0.27040 -0.64574
 H64 H 0.23788 0.31329 -0.63837
 H65 H 0.15574 0.20551 -0.51548
 H66 H 0.28328 0.36880 -0.48576
 C67 C -0.27885 0.69231 -0.45544
 C68 C -0.28426 0.67937 -0.50774
 C69 C -0.27240 0.69129 -0.55677
 C70 C -0.25230 0.71624 -0.55313
 C71 C -0.24590 0.72958 -0.50077
 C72 C -0.25991 0.71825 -0.45208
 C73 C -0.25633 0.73461 -0.40253
 C74 C -0.23710 0.75929 -0.39916
 C75 C -0.22127 0.76942 -0.44562
 C76 C -0.22601 0.75490 -0.49729
 C77 C -0.23756 0.72757 -0.60009
 C78 C -0.21859 0.75246 -0.59676
 C79 C -0.21160 0.76612 -0.54565
 C80 C -0.19229 0.79186 -0.54178
 C81 C -0.18840 0.80575 -0.48993
 C82 C -0.20196 0.79467 -0.44214
 H83 H -0.26900 0.72922 -0.36587
 H84 H -0.23533 0.77085 -0.35982
 H85 H -0.24036 0.71728 -0.64036
 H86 H -0.21005 0.76106 -0.63537
 H87 H -0.29886 0.65978 -0.51058
 H88 H -0.17305 0.82474 -0.48572
 N89 N 0.02448 1.05453 -0.07466
 N90 N 0.04032 1.07763 -0.09292
 N91 N -0.03753 1.02250 -0.09243
 N92 N -0.06118 1.02397 -0.12604
 N93 N -0.03754 1.04470 -0.05686
 N94 N -0.06114 1.06211 -0.06588
 N95 N 0.02421 1.03272 -0.11113
 N96 N 0.03951 1.04054 -0.15550
 C97 C 0.04977 1.06845 -0.14322
 C98 C -0.07597 1.04853 -0.10865
 N99 N -0.02065 0.93964 -0.04916
 N100 N -0.03921 0.91627 -0.05278
 N101 N 0.03450 0.96895 -0.10642
 N102 N 0.05081 0.96434 -0.15087
 N103 N 0.04138 0.94951 -0.06744
 N104 N 0.06277 0.93129 -0.08442
 N105 N -0.02733 0.95945 -0.08752
 N106 N -0.05071 0.95044 -0.11761
 Mn107 Mn -0.00151 0.99587 -0.09976
 C108 C -0.05809 0.92362 -0.09537
 C109 C 0.06867 0.94110 -0.13640
 N110 N -0.02688 1.04870 0.06142
 N111 N -0.04862 1.06657 0.07811
 N112 N 0.04226 1.03950 0.08165
 N113 N 0.06305 1.05101 0.11540
 N114 N 0.03486 1.05894 0.04300
 N115 N 0.05024 1.08416 0.04976
 N116 N -0.01963 1.02955 0.10060
 N117 N -0.03620 1.03384 0.14482
 Mn118 Mn -0.00136 1.05197 -0.00681
 C119 C -0.05445 1.05673 0.13009
 C120 C 0.06818 1.07872 0.09440
 N121 N 0.05207 0.95338 0.05104
 N122 N 0.07395 0.93438 0.06316
 N123 N -0.00966 0.96611 0.10502
 N124 N -0.02766 0.96019 0.14675
 N125 N -0.00994 0.94389 0.06939
 N126 N -0.02805 0.92209 0.08631
 N127 N 0.05226 0.97565 0.08665
 N128 N 0.07416 0.97227 0.12360
 Mn129 Mn 0.01577 0.94625 0.00097
 Mn130 Mn 0.01641 1.00270 0.09382
 Cl131 Cl 0.00741 0.99920 -0.00292
 C132 C 0.08794 0.94679 0.10797
 C133 C -0.03904 0.93270 0.13464
 N134 N 0.53720 0.54623 -0.06381
 N135 N 0.55820 0.56554 -0.07999
 N136 N 0.47004 0.52897 -0.09030
 N137 N 0.44649 0.53428 -0.12258
 N138 N 0.47400 0.55056 -0.05400
 N139 N 0.45325 0.57144 -0.06112
 N140 N 0.53298 0.52529 -0.10138
 N141 N 0.55087 0.52974 -0.14384
 C142 C 0.56676 0.55468 -0.12984
 C143 C 0.43609 0.56071 -0.10386
 N144 N 0.46646 0.44360 -0.05235
 N145 N 0.44345 0.42481 -0.05903
 N146 N 0.52839 0.46119 -0.10069
 N147 N 0.54502 0.45405 -0.14344
 N148 N 0.52960 0.44020 -0.06262
 N149 N 0.54722 0.41814 -0.07868
 N150 N 0.46542 0.46493 -0.08971
 N151 N 0.44163 0.46140 -0.12261
 Mn152 Mn 0.49915 0.49512 -0.09588
 C153 C 0.42799 0.43642 -0.10277
 C154 C 0.55697 0.42737 -0.12900
 N155 N 0.48037 0.55054 0.06515
 N156 N 0.46123 0.57191 0.07773
 N157 N 0.54351 0.52521 0.09416
 N158 N 0.56634 0.52905 0.12908
 N159 N 0.54336 0.54636 0.05627
 N160 N 0.56594 0.56547 0.06511
 N161 N 0.48026 0.52947 0.10319
 N162 N 0.46092 0.53594 0.14257
 Mn163 Mn 0.50885 0.54880 0.00091
 C164 C 0.44908 0.56242 0.12595
 C165 C 0.58033 0.55406 0.11031
 N166 N 0.53587 0.44017 0.05688
 N167 N 0.55565 0.41859 0.06501
 N168 N 0.47571 0.46479 0.10382
 N169 N 0.45521 0.46140 0.14264
 N170 N 0.47284 0.44365 0.06630
 N171 N 0.45037 0.42527 0.07860
 N172 N 0.53901 0.46097 0.09502
 N173 N 0.56118 0.45418 0.12982
 Mn174 Mn 0.50126 0.44158 0.00209
 Mn175 Mn 0.50959 0.49512 0.09966
 Cl176 Cl 0.50478 0.49517 0.00175
 C177 C 0.57155 0.42780 0.11033
 C178 C 0.43948 0.43671 0.12621
 C179 C 0.27941 0.38345 0.40829
 C180 C 0.29733 0.39704 0.36818
 C181 C 0.31289 0.37970 0.33008
 C182 C 0.30972 0.34837 0.33145
 C183 C 0.29184 0.33464 0.37180
 C184 C 0.27651 0.35198 0.41120
 N185 N 0.33334 0.39444 0.29331
 N186 N 0.34732 0.38069 0.25542
 C187 C 0.36904 0.39575 0.22151
 C188 C 0.38130 0.38061 0.17646
 C189 C 0.40376 0.39419 0.14454
 C190 C 0.41457 0.42303 0.15784
 C191 C 0.40200 0.43835 0.20265
 C192 C 0.37932 0.42490 0.23410
 H193 H 0.26782 0.39767 0.43735
 H194 H 0.29966 0.42120 0.36756
 H195 H 0.32196 0.33448 0.30281
 H196 H 0.29150 0.31041 0.37407
 H197 H 0.37366 0.35813 0.16646
 H198 H 0.41310 0.38187 0.11024
 H199 H 0.40986 0.46063 0.21367
 H200 H 0.37030 0.43703 0.26890
 C201 C -0.15897 0.78628 0.37739
 C202 C -0.14170 0.79928 0.33525
 C203 C -0.14082 0.83041 0.32837
 C204 C -0.15784 0.84844 0.36371
 C205 C -0.17515 0.83557 0.40549
 C206 C -0.17624 0.80424 0.41294
 N207 N -0.12180 0.84343 0.28686
 N208 N -0.11798 0.87168 0.28407
 C209 C -0.09898 0.88615 0.24444
 C210 C -0.09373 0.91692 0.25003
 C211 C -0.07446 0.93195 0.21393
 C212 C -0.06031 0.91649 0.17091
 C213 C -0.06610 0.88566 0.16434
 C214 C -0.08520 0.87049 0.20115
 H215 H -0.15781 0.76228 0.38350
 H216 H -0.12835 0.78511 0.30885
 H217 H -0.15764 0.87258 0.35937
 H218 H -0.18810 0.85023 0.43170
 H219 H -0.10429 0.92920 0.28314
 H220 H -0.07057 0.95573 0.21985
 H221 H -0.05545 0.87323 0.13153
 H222 H -0.08906 0.84668 0.19598
 C223 C 0.70556 0.69637 0.34944
 C224 C 0.69184 0.68323 0.30270
 C225 C 0.68962 0.65205 0.29807
 C226 C 0.70234 0.63405 0.33990
 C227 C 0.71591 0.64707 0.38659
 C228 C 0.71754 0.67844 0.39247
 N229 N 0.67222 0.63913 0.25342
 N230 N 0.66819 0.61093 0.25011
 C231 C 0.64912 0.59693 0.20919
 C232 C 0.64390 0.56611 0.21348
 C233 C 0.62235 0.55202 0.17956
 C234 C 0.60584 0.56854 0.14017
 C235 C 0.61225 0.59922 0.13359
 C236 C 0.63365 0.61343 0.16822
 H237 H 0.70517 0.72053 0.35335
 H238 H 0.68178 0.69739 0.27114
 H239 H 0.70099 0.60986 0.33744
 H240 H 0.72505 0.63249 0.41847
 H241 H 0.65567 0.55319 0.24491
 H242 H 0.61799 0.52831 0.18527
 H243 H 0.59976 0.61244 0.10358
 H244 H 0.63736 0.63733 0.16420
 C245 C 0.19726 1.21209 0.35253
 C246 C 0.18932 1.19408 0.30698
 C247 C 0.15891 1.18740 0.29528
 C248 C 0.13645 1.19895 0.32951
 C249 C 0.14434 1.21596 0.37598
 C250 C 0.17483 1.22283 0.38822
 N251 N 0.15105 1.16693 0.25167
 N252 N 0.12549 1.16848 0.22709
 C253 C 0.11500 1.14642 0.18827
 C254 C 0.09252 1.15423 0.14977
 C255 C 0.07858 1.13233 0.11672
 C256 C 0.08626 1.10205 0.12310
 C257 C 0.10942 1.09428 0.16067
 C258 C 0.12398 1.11640 0.19261
 H259 H 0.22099 1.21611 0.36173
 H260 H 0.20687 1.18495 0.28131
 H261 H 0.11283 1.19369 0.32169
 H262 H 0.12652 1.22379 0.40259
 H263 H 0.08519 1.17725 0.14652
 H264 H 0.06066 1.13890 0.08835
 H265 H 0.11567 1.07107 0.16633
 H266 H 0.14102 1.10986 0.22279
 C267 C 0.65374 0.30322 -0.41243
 C268 C 0.63963 0.31729 -0.36840
 C269 C 0.65442 0.32014 -0.31687
 C270 C 0.68314 0.30782 -0.30954
 C271 C 0.69763 0.29413 -0.35399
 C272 C 0.68319 0.29170 -0.40640
 N273 N 0.64117 0.33690 -0.27299
 N274 N 0.62130 0.35649 -0.28423
 C275 C 0.60661 0.37412 -0.24342
 C276 C 0.60691 0.36651 -0.18687
 C277 C 0.59088 0.38387 -0.14899
 C278 C 0.57494 0.40921 -0.16727
 C279 C 0.57534 0.41689 -0.22371
 C280 C 0.59076 0.39929 -0.26137
 H281 H 0.64144 0.30131 -0.45139
 H282 H 0.61719 0.32625 -0.37483
 H283 H 0.69492 0.31012 -0.27013
 H284 H 0.72075 0.28694 -0.34796
 H285 H 0.61895 0.34696 -0.17231
 H286 H 0.59087 0.37752 -0.10568
 H287 H 0.56316 0.43618 -0.23909
 H288 H 0.59036 0.40526 -0.30489
 C289 C 0.22226 0.82520 -0.36792
 C290 C 0.20860 0.84093 -0.32482
 C291 C 0.17740 0.84612 -0.32619
 C292 C 0.15981 0.83444 -0.37011
 C293 C 0.17327 0.81815 -0.41227
 C294 C 0.20463 0.81351 -0.41187
 N295 N 0.16385 0.86366 -0.28360
 N296 N 0.13936 0.87755 -0.29341
 C297 C 0.12376 0.89453 -0.25266
 C298 C 0.10219 0.91511 -0.27082
 C299 C 0.08509 0.93094 -0.23277
 C300 C 0.08875 0.92587 -0.17564
 C301 C 0.11059 0.90532 -0.15721
 C302 C 0.12825 0.88992 -0.19552
 H303 H 0.24656 0.82240 -0.36731
 H304 H 0.22243 0.84987 -0.29127
 H305 H 0.13562 0.83791 -0.37179
 H306 H 0.15922 0.80943 -0.44576
 H307 H 0.09845 0.91871 -0.31476
 H308 H 0.06833 0.94651 -0.24823
 H309 H 0.11381 0.90102 -0.11337
 H310 H 0.14468 0.87386 -0.18069
 C311 C 0.31588 0.70183 -0.34955
 C312 C 0.32991 0.69004 -0.30206
 C313 C 0.33040 0.65909 -0.29313
 C314 C 0.31594 0.64000 -0.33163
 C315 C 0.30219 0.65165 -0.37917
 C316 C 0.30202 0.68274 -0.38916
 N317 N 0.34776 0.64723 -0.24770
 N318 N 0.34866 0.61914 -0.23903
 C319 C 0.36759 0.60553 -0.19784
 C320 C 0.36853 0.57429 -0.19616
 C321 C 0.38998 0.55980 -0.16328
 C322 C 0.41070 0.57638 -0.13087
 C323 C 0.40856 0.60775 -0.12961
 C324 C 0.38722 0.62233 -0.16334
 H325 H 0.31737 0.72575 -0.35670
 H326 H 0.34134 0.70499 -0.27317
 H327 H 0.31601 0.61595 -0.32591
 H328 H 0.29157 0.63622 -0.40825
 H329 H 0.35353 0.56116 -0.22259
 H330 H 0.39102 0.53558 -0.16468
 H331 H 0.42439 0.62098 -0.10504
 H332 H 0.38685 0.64657 -0.16408
 C333 C -0.20546 1.18519 -0.34609
 C334 C -0.19314 1.17144 -0.29891
 C335 C -0.18701 1.14076 -0.29888
 C336 C -0.19447 1.12367 -0.34603
 C337 C -0.20653 1.13735 -0.39328
 C338 C -0.21184 1.16844 -0.39451
 N339 N -0.17074 1.12797 -0.25299
 N340 N -0.16440 1.10023 -0.25184
 C341 C -0.14579 1.08700 -0.20965
 C342 C -0.13879 1.05667 -0.21444
 C343 C -0.11710 1.04382 -0.17957
 C344 C -0.10211 1.06115 -0.13898
 C345 C -0.11045 1.09119 -0.13187
 C346 C -0.13208 1.10413 -0.16720
 H347 H -0.20813 1.20928 -0.34576
 H348 H -0.18718 1.18494 -0.26309
 H349 H -0.19002 1.09988 -0.34714
 H350 H -0.21163 1.12350 -0.42909
 H351 H -0.14918 1.04328 -0.24702
 H352 H -0.11127 1.02056 -0.18575
 H353 H -0.09921 1.10504 -0.10093
 H354 H -0.13715 1.12767 -0.16279
 C355 C 0.67645 0.66900 -0.41384
 C356 C 0.66233 0.65424 -0.37024
 C357 C 0.67796 0.64900 -0.32026
 C358 C 0.70792 0.65901 -0.31451
 C359 C 0.72240 0.67335 -0.35874
 C360 C 0.70676 0.67890 -0.40909
 N361 N 0.66370 0.63308 -0.27587
 N362 N 0.64132 0.61576 -0.28617
 C363 C 0.62482 0.59984 -0.24475
 C364 C 0.62559 0.60818 -0.18857
 C365 C 0.60693 0.59336 -0.15048
 C366 C 0.58779 0.56981 -0.16811
 C367 C 0.58788 0.56119 -0.22407
 C368 C 0.60596 0.57630 -0.26197
 H369 H 0.66328 0.67317 -0.45117
 H370 H 0.63902 0.64707 -0.37551
 H371 H 0.72036 0.65484 -0.27639
 H372 H 0.74612 0.67916 -0.35410
 H373 H 0.63987 0.62656 -0.17458
 H374 H 0.60727 0.60043 -0.10756
 H375 H 0.57333 0.54322 -0.23902
 H376 H 0.60508 0.56982 -0.30521
 C377 C 0.18418 1.20851 -0.37012
 C378 C 0.17225 1.19080 -0.32768
 C379 C 0.14140 1.18357 -0.32756
 C380 C 0.12225 1.19550 -0.36867
 C381 C 0.13398 1.21392 -0.41004
 C382 C 0.16512 1.22029 -0.41168
 N383 N 0.12997 1.16331 -0.28675
 N384 N 0.10749 1.14629 -0.29795
 C385 C 0.09464 1.12631 -0.25818
 C386 C 0.07721 1.10203 -0.27716
 C387 C 0.06346 1.08259 -0.23960
 C388 C 0.06622 1.08773 -0.18239
 C389 C 0.08369 1.11214 -0.16327
 C390 C 0.09815 1.13114 -0.20094
 H391 H 0.20836 1.21245 -0.37129
 H392 H 0.18723 1.18163 -0.29627
 H393 H 0.09828 1.19038 -0.36893
 H394 H 0.11885 1.22261 -0.44174
 H395 H 0.07428 1.09821 -0.32122
 H396 H 0.04993 1.06405 -0.25536
 H397 H 0.08610 1.11652 -0.11929
 H398 H 0.11134 1.14996 -0.18551
 C399 C 0.26317 0.38025 -0.37766
 C400 C 0.27813 0.39353 -0.33254
 C401 C 0.29693 0.37652 -0.29796
 C402 C 0.29945 0.34556 -0.30731
 C403 C 0.28461 0.33227 -0.35266
 C404 C 0.26685 0.34965 -0.38882
 N405 N 0.31578 0.39177 -0.25822
 N406 N 0.33300 0.37800 -0.22429
 C407 C 0.35405 0.39381 -0.18915
 C408 C 0.37062 0.37794 -0.14914
 C409 C 0.39390 0.39210 -0.11898
 C410 C 0.40122 0.42226 -0.12926
 C411 C 0.38392 0.43841 -0.16804
 C412 C 0.36043 0.42437 -0.19753
 H413 H 0.24983 0.39408 -0.40540
 H414 H 0.27620 0.41743 -0.32600
 H415 H 0.31409 0.33200 -0.28142
 H416 H 0.28818 0.30876 -0.36118
 H417 H 0.36605 0.35434 -0.14249
 H418 H 0.40695 0.37915 -0.08936
 H419 H 0.38900 0.46173 -0.17652
 H420 H 0.34808 0.43712 -0.22840
 C421 C -0.20060 0.84007 -0.38184
 C422 C -0.18936 0.85549 -0.33557
 C423 C -0.17123 0.84089 -0.29620
 C424 C -0.16560 0.81014 -0.30217
 C425 C -0.17697 0.79463 -0.34843
 C426 C -0.19406 0.80966 -0.38907
 N427 N -0.15640 0.85858 -0.25436
 N428 N -0.13831 0.84772 -0.21829
 C429 C -0.12167 0.86686 -0.18093
 C430 C -0.10099 0.85434 -0.14315
 C431 C -0.08124 0.87280 -0.11232
 C432 C -0.08180 0.90401 -0.11959
 C433 C -0.10364 0.91652 -0.15519
 C434 C -0.12346 0.89818 -0.18540
 H435 H -0.21354 0.85206 -0.41302
 H436 H -0.19365 0.87923 -0.33160
 H437 H -0.15146 0.79844 -0.27244
 H438 H -0.17138 0.77125 -0.35379
 H439 H -0.09931 0.83025 -0.13937
 H440 H -0.06454 0.86265 -0.08520
 H441 H -0.10473 0.94054 -0.16120
 H442 H -0.13924 0.90851 -0.21408
 C443 C 0.29856 0.64289 0.40456
 C444 C 0.31358 0.62615 0.36470
 C445 C 0.33446 0.63991 0.32960
 C446 C 0.33959 0.67098 0.33381
 C447 C 0.32480 0.68771 0.37414
 C448 C 0.30432 0.67374 0.41016
 N449 N 0.35159 0.62156 0.29304
 N450 N 0.36898 0.63258 0.25653
 C451 C 0.38746 0.61411 0.22247
 C452 C 0.40238 0.62708 0.17753
 C453 C 0.42185 0.61006 0.14528
 C454 C 0.42714 0.57984 0.15817
 C455 C 0.41197 0.56675 0.20301
 C456 C 0.39213 0.58368 0.23474
 H457 H 0.28314 0.63161 0.43234
 H458 H 0.30954 0.60223 0.36210
 H459 H 0.35585 0.68208 0.30747
 H460 H 0.33011 0.71132 0.37856
 H461 H 0.39909 0.65051 0.16778
 H462 H 0.43330 0.62076 0.11105
 H463 H 0.41558 0.54348 0.21376
 H464 H 0.38101 0.57319 0.26952
 C465 C -0.20746 1.17561 0.35746
 C466 C -0.19252 1.16209 0.31328
 C467 C -0.16321 1.15111 0.32063
 C468 C -0.14845 1.15498 0.37195
 C469 C -0.16303 1.16887 0.41564
 C470 C -0.19296 1.17917 0.40957
 N471 N -0.14893 1.13530 0.27656
 N472 N -0.12728 1.11755 0.28728
 C473 C -0.11112 1.10156 0.24598
 C474 C -0.09175 1.07879 0.26343
 C475 C -0.07412 1.06363 0.22532
 C476 C -0.07517 1.07139 0.16892
 C477 C -0.09498 1.09401 0.15111
 C478 C -0.11303 1.10893 0.18942
 H479 H -0.23085 1.18194 0.35147
 H480 H -0.20424 1.15907 0.27398
 H481 H -0.12557 1.14715 0.37840
 H482 H -0.15065 1.17173 0.45433
 H483 H -0.09007 1.07300 0.30695
 H484 H -0.05907 1.04635 0.24034
 H485 H -0.09621 1.10040 0.10784
 H486 H -0.12780 1.12662 0.17517
 C487 C 0.69170 0.29461 0.35284
 C488 C 0.68059 0.31275 0.30997
 C489 C 0.68388 0.34408 0.31309
 C490 C 0.69986 0.35676 0.35778
 C491 C 0.71094 0.33867 0.40056
 C492 C 0.70627 0.30754 0.39910
 N493 N 0.66855 0.36363 0.27515
 N494 N 0.65295 0.35398 0.23410
 C495 C 0.63543 0.37371 0.19980
 C496 C 0.61982 0.36201 0.15375
 C497 C 0.59986 0.37992 0.12318
 C498 C 0.59498 0.40980 0.13871
 C499 C 0.61141 0.42180 0.18381
 C500 C 0.63154 0.40396 0.21402
 H501 H 0.68749 0.27068 0.35142
 H502 H 0.66818 0.30244 0.27594
 H503 H 0.70241 0.38085 0.36080
 H504 H 0.72188 0.34906 0.43617
 H505 H 0.62251 0.33872 0.14248
 H506 H 0.58750 0.37008 0.08859
 H507 H 0.60819 0.44479 0.19655
 H508 H 0.64324 0.41354 0.24957
 C509 C 0.23150 0.81861 0.34532
 C510 C 0.22088 0.83398 0.29831
 C511 C 0.19004 0.84032 0.29236
 C512 C 0.16969 0.82955 0.33192
 C513 C 0.18010 0.81352 0.37777
 C514 C 0.21114 0.80844 0.38566
 N515 N 0.17950 0.85912 0.24824
 N516 N 0.15986 0.87891 0.25863
 C517 C 0.14605 0.89754 0.21750
 C518 C 0.13262 0.92406 0.23483
 C519 C 0.11531 0.94101 0.19798
 C520 C 0.11039 0.93123 0.14327
 C521 C 0.12477 0.90509 0.12517
 C522 C 0.14277 0.88843 0.16201
 H523 H 0.25558 0.81546 0.35107
 H524 H 0.23680 0.84229 0.26813
 H525 H 0.14575 0.83400 0.32764
 H526 H 0.16398 0.80593 0.40828
 H527 H 0.13489 0.93116 0.27760
 H528 H 0.10452 0.96099 0.21326
 H529 H 0.12131 0.89707 0.08321
 H530 H 0.15275 0.86776 0.14807
   
