data_POSCAR
  _audit_creation_date              2014-09-24
  _audit_creation_method            'ToBaCCo'
  _symmetry_space_group_name_H-M    'P1'
  _symmetry_Int_Tables_number       1
  _symmetry_cell_setting            triclinic
  loop_
  _symmetry_equiv_pos_as_xyz
 x,y,z
_cell_length_a 46.4618
_cell_length_b 46.4385
_cell_length_c 46.4910
_cell_angle_alpha 89.995800
_cell_angle_beta 89.944400
_cell_angle_gamma 90.029600
loop_
  _atom_site_label
  _atom_site_type_symbol
  _atom_site_fract_x
  _atom_site_fract_y
  _atom_site_fract_z
C1 C 0.36929 0.33199 0.33243
 C2 C 0.35684 0.35677 0.32033
 C3 C 0.33208 0.36926 0.33243
 C4 C 0.31997 0.35681 0.35721
 C5 C 0.33204 0.33204 0.36968
 C6 C 0.35680 0.31991 0.35721
 H7 H 0.36617 0.36606 0.30110
 H8 H 0.30075 0.36615 0.36652
 H9 H 0.36610 0.30069 0.36652
 C10 C 0.36942 0.83186 -0.16910
 C11 C 0.35676 0.85664 -0.18120
 C12 C 0.33187 0.86913 -0.16914
 C13 C 0.31997 0.85662 -0.14421
 C14 C 0.33219 0.83197 -0.13170
 C15 C 0.35696 0.81990 -0.14417
 H16 H 0.36606 0.86598 -0.20043
 H17 H 0.30076 0.86579 -0.13470
 H18 H 0.36624 0.80078 -0.13462
 C19 C 0.86868 0.33248 -0.16839
 C20 C 0.85624 0.32045 -0.14360
 C21 C 0.83150 0.33255 -0.13112
 C22 C 0.81937 0.35730 -0.14360
 C23 C 0.83137 0.36981 -0.16851
 C24 C 0.85622 0.35723 -0.18054
 H25 H 0.86557 0.30125 -0.13426
 H26 H 0.80018 0.36651 -0.13409
 H27 H 0.86570 0.36638 -0.19977
 C28 C 0.86902 0.83257 0.33180
 C29 C 0.85646 0.85723 0.31958
 C30 C 0.83155 0.86973 0.33156
 C31 C 0.81961 0.85726 0.35651
 C32 C 0.83184 0.83260 0.36907
 C33 C 0.85662 0.82054 0.35662
 H34 H 0.86590 0.86637 0.30033
 H35 H 0.80038 0.86642 0.36598
 H36 H 0.86603 0.80141 0.36602
 C37 C 0.63067 0.66814 0.33253
 C38 C 0.64310 0.64332 0.32049
 C39 C 0.66782 0.63081 0.33261
 C40 C 0.67990 0.64328 0.35737
 C41 C 0.66782 0.66809 0.36980
 C42 C 0.64311 0.68024 0.35730
 H43 H 0.63381 0.63401 0.30127
 H44 H 0.69907 0.63393 0.36670
 H45 H 0.63382 0.69950 0.36657
 C46 C 0.63087 0.16751 -0.16822
 C47 C 0.64324 0.17956 -0.14343
 C48 C 0.66805 0.16756 -0.13102
 C49 C 0.68032 0.14292 -0.14359
 C50 C 0.66841 0.13041 -0.16851
 C51 C 0.64348 0.14287 -0.18046
 H52 H 0.63381 0.19868 -0.13402
 H53 H 0.69956 0.13379 -0.13415
 H54 H 0.63407 0.13371 -0.19969
 C55 C 0.13104 0.66763 -0.16831
 C56 C 0.14349 0.67967 -0.14355
 C57 C 0.16820 0.66754 -0.13109
 C58 C 0.18031 0.64276 -0.14357
 C59 C 0.16831 0.63025 -0.16845
 C60 C 0.14348 0.64285 -0.18045
 H61 H 0.13419 0.69889 -0.13421
 H62 H 0.19948 0.63353 -0.13409
 H63 H 0.13400 0.63369 -0.19966
 C64 C 0.13059 0.16785 0.33211
 C65 C 0.14311 0.14313 0.31997
 C66 C 0.16785 0.13064 0.33207
 C67 C 0.17986 0.14304 0.35689
 C68 C 0.16770 0.16776 0.36941
 C69 C 0.14297 0.17989 0.35693
 H70 H 0.13387 0.13386 0.30071
 H71 H 0.19905 0.13371 0.36621
 H72 H 0.13361 0.19908 0.36628
 C73 C 0.63071 0.33204 0.66797
 C74 C 0.64321 0.31993 0.64322
 C75 C 0.66802 0.33201 0.63079
 C76 C 0.68013 0.35678 0.64327
 C77 C 0.66800 0.36926 0.66801
 C78 C 0.64319 0.35681 0.68008
 H79 H 0.63388 0.30071 0.63390
 H80 H 0.69939 0.36608 0.63398
 H81 H 0.63384 0.36613 0.69927
 C82 C 0.63087 0.83190 1.16888
 C83 C 0.64335 0.82000 1.14395
 C84 C 0.66807 0.83217 1.13146
 C85 C 0.68026 0.85685 1.14399
 C86 C 0.66834 0.86929 1.16894
 C87 C 0.64348 0.85672 1.18099
 H88 H 0.63409 0.80086 1.13439
 H89 H 0.69944 0.86609 1.13448
 H90 H 0.63417 0.86601 1.20023
 C91 C 0.13021 0.33151 1.16845
 C92 C 0.14271 0.31952 1.14354
 C93 C 0.16745 0.33167 1.13103
 C94 C 0.17958 0.35642 1.14348
 C95 C 0.16754 0.36887 1.16827
 C96 C 0.14279 0.35638 1.18045
 H97 H 0.13349 0.30033 1.13406
 H98 H 0.19878 0.36576 1.13412
 H99 H 0.13363 0.36585 1.19967
 C100 C 0.13085 0.83166 0.66869
 C101 C 0.14346 0.85648 0.68079
 C102 C 0.16834 0.86903 0.66875
 C103 C 0.18027 0.85656 0.64383
 C104 C 0.16809 0.83187 0.63131
 C105 C 0.14334 0.81973 0.64378
 H106 H 0.13413 0.86580 0.70001
 H107 H 0.19947 0.86578 0.63433
 H108 H 0.13409 0.80058 0.63424
 C109 C 0.36939 0.66797 0.66792
 C110 C 0.35698 0.68002 0.64312
 C111 C 0.33223 0.66789 0.63066
 C112 C 0.32008 0.64314 0.64316
 C113 C 0.33211 0.63072 0.66797
 C114 C 0.35687 0.64322 0.68006
 H115 H 0.36634 0.69922 0.63378
 H116 H 0.30087 0.63381 0.63385
 H117 H 0.36613 0.63394 0.69931
 C118 C 0.36896 0.16757 1.16793
 C119 C 0.35650 0.17966 1.14320
 C120 C 0.33174 0.16755 1.13077
 C121 C 0.31960 0.14279 1.14326
 C122 C 0.33159 0.13025 1.16811
 C123 C 0.35648 0.14281 1.18007
 H124 H 0.36584 0.19887 1.13386
 H125 H 0.30039 0.13358 1.13381
 H126 H 0.36596 0.13361 1.19926
 C127 C 0.86934 0.66808 1.16764
 C128 C 0.85688 0.68018 1.14290
 C129 C 0.83209 0.66809 1.13047
 C130 C 0.81996 0.64333 1.14296
 C131 C 0.83205 0.63085 1.16771
 C132 C 0.85684 0.64331 1.17976
 H133 H 0.86623 0.69940 1.13357
 H134 H 0.80072 0.63402 1.13368
 H135 H 0.86614 0.63400 1.19896
 C136 C 0.86944 0.16815 0.66869
 C137 C 0.85700 0.18006 0.64376
 C138 C 0.83229 0.16789 0.63129
 C139 C 0.82010 0.14320 0.64382
 C140 C 0.83199 0.13075 0.66875
 C141 C 0.85683 0.14332 0.68079
 H142 H 0.86626 0.19922 0.63422
 H143 H 0.80094 0.13396 0.63431
 H144 H 0.86612 0.13402 0.70002
 C145 C 0.33174 0.36924 0.66832
 C146 C 0.31965 0.35676 0.64357
 C147 C 0.33177 0.33200 0.63109
 C148 C 0.35654 0.31992 0.64353
 C149 C 0.36900 0.33202 0.66828
 C150 C 0.35651 0.35678 0.68040
 H151 H 0.30043 0.36606 0.63428
 H152 H 0.36587 0.30071 0.63419
 H153 H 0.36582 0.36610 0.69960
 C154 C 0.33278 0.86974 0.16703
 C155 C 0.32068 0.85722 0.14232
 C156 C 0.33280 0.83244 0.12986
 C157 C 0.35760 0.82040 0.14230
 C158 C 0.37007 0.83256 0.16701
 C159 C 0.35758 0.85734 0.17909
 H160 H 0.30143 0.86649 0.13304
 H161 H 0.36693 0.80117 0.13300
 H162 H 0.36689 0.86670 0.19826
 C163 C 0.83214 0.36950 0.16759
 C164 C 0.85695 0.35707 0.17961
 C165 C 0.86944 0.33232 0.16747
 C166 C 0.85695 0.32021 0.14274
 C167 C 0.83214 0.33228 0.13035
 C168 C 0.82002 0.35702 0.14286
 H169 H 0.86628 0.36639 0.19880
 H170 H 0.86628 0.30100 0.13339
 H171 H 0.80077 0.36631 0.13361
 C172 C 0.83267 0.87018 0.66786
 C173 C 0.85746 0.85772 0.67991
 C174 C 0.86993 0.83295 0.66779
 C175 C 0.85744 0.82084 0.64306
 C176 C 0.83265 0.83292 0.63065
 C177 C 0.82055 0.85769 0.64313
 H178 H 0.86679 0.86705 0.69910
 H179 H 0.86675 0.80162 0.63373
 H180 H 0.80132 0.86699 0.63386
 C181 C 0.66816 0.63102 0.66856
 C182 C 0.64340 0.64351 0.68068
 C183 C 0.63093 0.66828 0.66857
 C184 C 0.64341 0.68036 0.64380
 C185 C 0.66817 0.66826 0.63132
 C186 C 0.68027 0.64349 0.64379
 H187 H 0.63407 0.63420 0.69990
 H188 H 0.63409 0.69958 0.63447
 H189 H 0.69948 0.63417 0.63445
 C190 C 0.66781 0.13000 0.16774
 C191 C 0.64303 0.14246 0.17985
 C192 C 0.63057 0.16724 0.16778
 C193 C 0.64306 0.17936 0.14303
 C194 C 0.66783 0.16728 0.13055
 C195 C 0.67993 0.14250 0.14299
 H196 H 0.63370 0.13312 0.19906
 H197 H 0.63374 0.19859 0.13373
 H198 H 0.69916 0.13320 0.13367
 C199 C 0.16793 0.63066 0.16765
 C200 C 0.14319 0.64319 0.17975
 C201 C 0.13078 0.66798 0.16766
 C202 C 0.14328 0.68006 0.14290
 C203 C 0.16803 0.66791 0.13042
 C204 C 0.18007 0.64311 0.14289
 H205 H 0.13384 0.63389 0.19897
 H206 H 0.13401 0.69931 0.13359
 H207 H 0.19927 0.63375 0.13357
 C208 C 0.16747 0.12972 0.66812
 C209 C 0.17960 0.14223 0.64337
 C210 C 0.16749 0.16699 0.63091
 C211 C 0.14269 0.17904 0.64335
 C212 C 0.13019 0.16692 0.66810
 C213 C 0.14267 0.14216 0.68021
 H214 H 0.19884 0.13294 0.63406
 H215 H 0.13337 0.19826 0.63403
 H216 H 0.13333 0.13283 0.69941
 C217 C 0.33218 0.63104 0.33171
 C218 C 0.35692 0.64357 0.31956
 C219 C 0.36939 0.66836 0.33164
 C220 C 0.35693 0.68044 0.35643
 C221 C 0.33219 0.66829 0.36895
 C222 C 0.32011 0.64350 0.35650
 H223 H 0.36623 0.63426 0.30034
 H224 H 0.36624 0.69967 0.36573
 H225 H 0.30092 0.63414 0.36586
 C226 C 0.33182 0.12988 0.83218
 C227 C 0.31966 0.14237 0.85691
 C228 C 0.33172 0.16718 0.86936
 C229 C 0.35651 0.17929 0.85691
 C230 C 0.36904 0.16718 0.83218
 C231 C 0.35661 0.14238 0.82010
 H232 H 0.30043 0.13304 0.86621
 H233 H 0.36580 0.19854 0.86621
 H234 H 0.36597 0.13305 0.80091
 C235 C 0.83242 0.63103 0.83219
 C236 C 0.85717 0.64354 0.82004
 C237 C 0.86957 0.66840 0.83203
 C238 C 0.85705 0.68058 0.85673
 C239 C 0.83230 0.66845 0.86925
 C240 C 0.82027 0.64358 0.85689
 H241 H 0.86652 0.63416 0.80088
 H242 H 0.86631 0.69987 0.86596
 H243 H 0.80107 0.63423 0.86625
 C244 C 0.83217 0.13027 0.33187
 C245 C 0.85689 0.14283 0.31969
 C246 C 0.86937 0.16761 0.33178
 C247 C 0.85696 0.17964 0.35661
 C248 C 0.83225 0.16746 0.36916
 C249 C 0.82014 0.14269 0.35670
 H250 H 0.86616 0.13356 0.30043
 H251 H 0.86628 0.19886 0.36593
 H252 H 0.80096 0.13331 0.36608
 C253 C 0.66790 0.36899 0.33236
 C254 C 0.64314 0.35648 0.32028
 C255 C 0.63071 0.33166 0.33234
 C256 C 0.64320 0.31953 0.35706
 C257 C 0.66795 0.33167 0.36952
 C258 C 0.68001 0.35649 0.35708
 H259 H 0.63381 0.36582 0.30110
 H260 H 0.63391 0.30026 0.36635
 H261 H 0.69922 0.36584 0.36639
 C262 C 0.66774 0.87025 0.83230
 C263 C 0.64294 0.85781 0.82024
 C264 C 0.63040 0.83307 0.83238
 C265 C 0.64285 0.82097 0.85714
 C266 C 0.66765 0.83304 0.86956
 C267 C 0.67981 0.85779 0.85706
 H268 H 0.63364 0.86712 0.80103
 H269 H 0.63349 0.80177 0.86648
 H270 H 0.69905 0.86708 0.86633
 C271 C 0.16716 0.36917 0.83232
 C272 C 0.17924 0.35667 0.85706
 C273 C 0.16718 0.33181 0.86944
 C274 C 0.14246 0.31967 0.85692
 C275 C 0.13001 0.33181 0.83219
 C276 C 0.14245 0.35666 0.82017
 H277 H 0.19842 0.36602 0.86641
 H278 H 0.13318 0.30038 0.86618
 H279 H 0.13315 0.36600 0.80098
 C280 C 0.16810 0.86959 0.33207
 C281 C 0.14330 0.85715 0.32003
 C282 C 0.13075 0.83243 0.33218
 C283 C 0.14317 0.82035 0.35696
 C284 C 0.16796 0.83244 0.36939
 C285 C 0.18015 0.85716 0.35686
 H286 H 0.13403 0.86644 0.30080
 H287 H 0.13379 0.80117 0.36632
 H288 H 0.19939 0.86645 0.36613
 O289 O 0.24741 1.02830 0.28611
 O290 O 0.28700 0.97225 0.24644
 O291 O 0.28692 1.02845 0.24653
 O292 O 0.24753 0.97213 0.28609
 O293 O 0.21387 0.97209 0.25255
 O294 O 0.25326 1.02841 0.21299
 O295 O 0.25333 0.97221 0.21291
 O296 O 0.21375 1.02826 0.25257
 Cu297 Cu 0.27060 1.00028 0.26966
 Cu298 Cu 0.23017 1.00023 0.22938
 C299 C 0.22394 1.03795 0.27598
 C300 C 0.27680 0.96256 0.22303
 C301 C 0.27669 1.03815 0.22314
 C302 C 0.22409 0.96241 0.27596
 O303 O 0.25256 0.52821 0.71377
 O304 O 0.21285 0.47212 0.75332
 O305 O 0.21297 0.52834 0.75327
 O306 O 0.25248 0.47202 0.71386
 O307 O 0.28605 0.47202 0.74748
 O308 O 0.24654 0.52832 0.78690
 O309 O 0.24642 0.47210 0.78695
 O310 O 0.28613 0.52822 0.74739
 Cu311 Cu 0.22934 0.50017 0.73018
 Cu312 Cu 0.26965 0.50017 0.77056
 C313 C 0.27600 0.53789 0.72395
 C314 C 0.22299 0.46241 0.77675
 C315 C 0.22315 0.53806 0.77668
 C316 C 0.27589 0.46231 0.72406
 O317 O 0.75294 -0.02880 0.28659
 O318 O 0.71338 0.02731 0.24700
 O319 O 0.71334 -0.02891 0.24717
 O320 O 0.75292 0.02740 0.28649
 O321 O 0.78653 0.02736 0.25284
 O322 O 0.74694 -0.02896 0.21350
 O323 O 0.74699 0.02725 0.21335
 O324 O 0.78654 -0.02886 0.25294
 Cu325 Cu 0.72977 -0.00074 0.27019
 Cu326 Cu 0.77013 -0.00081 0.22978
 C327 C 0.77636 -0.03852 0.27639
 C328 C 0.72357 0.03697 0.22355
 C329 C 0.72351 -0.03865 0.22375
 C330 C 0.77635 0.03710 0.27626
 O331 O 0.78693 0.52800 0.75331
 O332 O 0.74731 0.47191 0.71374
 O333 O 0.74732 0.52811 0.71390
 O334 O 0.78680 0.47178 0.75327
 O335 O 0.75318 0.47176 0.78692
 O336 O 0.71370 0.52808 0.74754
 O337 O 0.71369 0.47187 0.74738
 O338 O 0.75331 0.52799 0.78695
 Cu339 Cu 0.77047 0.49995 0.73018
 Cu340 Cu 0.73010 0.49992 0.77058
 C341 C 0.77675 0.53770 0.77674
 C342 C 0.72386 0.46221 0.72393
 C343 C 0.72390 0.53782 0.72413
 C344 C 0.77659 0.46204 0.77669
 O345 O 0.21339 0.52800 0.24699
 O346 O 0.25289 0.47192 0.28665
 O347 O 0.25295 0.52812 0.28646
 O348 O 0.21334 0.47180 0.24717
 O349 O 0.24696 0.47169 0.21353
 O350 O 0.28656 0.52802 0.25281
 O351 O 0.28651 0.47181 0.25301
 O352 O 0.24701 0.52789 0.21335
 Cu353 Cu 0.22977 0.49997 0.27020
 Cu354 Cu 0.27014 0.49984 0.22979
 C355 C 0.22358 0.53763 0.22353
 C356 C 0.27632 0.46219 0.27647
 C357 C 0.27638 0.53780 0.27621
 C358 C 0.22352 0.46202 0.22377
 O359 O 0.78689 0.97286 0.74712
 O360 O 0.74723 1.02904 0.78657
 O361 O 0.74724 0.97284 0.78659
 O362 O 0.78688 1.02907 0.74713
 O363 O 0.75335 1.02905 0.71347
 O364 O 0.71370 0.97282 0.75293
 O365 O 0.71369 1.02902 0.75291
 O366 O 0.75334 0.97285 0.71347
 Cu367 Cu 0.77043 1.00095 0.77023
 Cu368 Cu 0.73015 1.00093 0.72981
 C369 C 0.77675 0.96316 0.72368
 C370 C 0.72381 1.03872 0.77635
 C371 C 0.72382 0.96314 0.77638
 C372 C 0.77675 1.03877 0.72369
 O373 O 0.75274 0.52818 0.21361
 O374 O 0.71332 0.47191 0.25321
 O375 O 0.71332 0.52811 0.25329
 O376 O 0.75279 0.47200 0.21359
 O377 O 0.78649 0.47200 0.24709
 O378 O 0.74701 0.52812 0.28679
 O379 O 0.74701 0.47191 0.28671
 O380 O 0.78644 0.52819 0.24711
 Cu381 Cu 0.72965 0.50005 0.23006
 Cu382 Cu 0.77012 0.50006 0.27029
 C383 C 0.77620 0.53789 0.22372
 C384 C 0.72356 0.46220 0.27659
 C385 C 0.72355 0.53780 0.27669
 C386 C 0.77626 0.46232 0.22369
 O387 O 0.21326 0.02689 0.74717
 O388 O 0.25303 -0.02932 0.78645
 O389 O 0.25283 0.02690 0.78663
 O390 O 0.21332 -0.02932 0.74713
 O391 O 0.24687 -0.02920 0.71342
 O392 O 0.28639 0.02706 0.75293
 O393 O 0.28658 -0.02916 0.75273
 O394 O 0.24682 0.02701 0.71346
 Cu395 Cu 0.22974 -0.00123 0.77023
 Cu396 Cu 0.27003 -0.00105 0.72975
 C397 C 0.22339 0.03665 0.72373
 C398 C 0.27646 -0.03894 0.77616
 C399 C 0.27622 0.03669 0.77640
 C400 C 0.22347 -0.03897 0.72366
 O401 O 0.24649 0.28617 0.97194
 O402 O 0.28612 0.24670 1.02803
 O403 O 0.28602 0.24660 0.97189
 O404 O 0.24654 0.28619 1.02809
 O405 O 0.21292 0.25253 1.02817
 O406 O 0.25240 0.21293 0.97199
 O407 O 0.25250 0.21303 1.02813
 O408 O 0.21287 0.25250 0.97202
 Cu409 Cu 0.26967 0.26980 0.99997
 Cu410 Cu 0.22930 0.22937 1.00009
 C411 C 0.22305 0.27595 0.96230
 C412 C 0.27594 0.22326 1.03777
 C413 C 0.27583 0.22313 0.96225
 C414 C 0.22312 0.27598 1.03783
 O415 O 0.24709 0.78682 0.47205
 O416 O 0.28668 0.74717 0.52804
 O417 O 0.28665 0.74730 0.47189
 O418 O 0.24711 0.78668 0.52820
 O419 O 0.21350 0.75300 0.52817
 O420 O 0.25304 0.71362 0.47187
 O421 O 0.25307 0.71349 0.52802
 O422 O 0.21348 0.75314 0.47202
 Cu423 Cu 0.27026 0.77038 0.50005
 Cu424 Cu 0.22990 0.72993 0.50002
 C425 C 0.22366 0.77662 0.46236
 C426 C 0.27651 0.72370 0.53770
 C427 C 0.27647 0.72387 0.46216
 C428 C 0.22369 0.77643 0.53791
 O429 O 0.28690 0.75287 -0.02864
 O430 O 0.24739 0.71339 0.02766
 O431 O 0.24739 0.71325 -0.02848
 O432 O 0.28700 0.75292 0.02750
 O433 O 0.25339 0.78655 0.02751
 O434 O 0.21378 0.74689 -0.02849
 O435 O 0.21378 0.74703 0.02765
 O436 O 0.25328 0.78650 -0.02863
 Cu437 Cu 0.27055 0.72973 -0.00049
 Cu438 Cu 0.23018 0.77012 -0.00048
 C439 C 0.27670 0.77629 -0.03835
 C440 C 0.22396 0.72360 0.03736
 C441 C 0.22396 0.72343 -0.03816
 C442 C 0.27684 0.77638 0.03717
 O443 O 0.21313 0.24678 0.47231
 O444 O 0.25260 0.28629 0.52849
 O445 O 0.25270 0.28632 0.47235
 O446 O 0.21316 0.24659 0.52845
 O447 O 0.24681 0.21300 0.52837
 O448 O 0.28635 0.25272 0.47230
 O449 O 0.28625 0.25269 0.52844
 O450 O 0.24677 0.21318 0.47224
 Cu451 Cu 0.22951 0.26987 0.50041
 Cu452 Cu 0.26993 0.22952 0.50033
 C453 C 0.22334 0.22337 0.46257
 C454 C 0.27603 0.27611 0.53816
 C455 C 0.27615 0.27616 0.46265
 C456 C 0.22336 0.22313 0.53808
 O457 O 0.71334 0.75343 1.02816
 O458 O 0.75287 0.71407 0.97184
 O459 O 0.75286 0.71389 1.02797
 O460 O 0.71329 0.75359 0.97201
 O461 O 0.74691 0.78726 0.97205
 O462 O 0.78649 0.74755 1.02801
 O463 O 0.78649 0.74774 0.97188
 O464 O 0.74696 0.78710 1.02820
 Cu465 Cu 0.72971 0.73037 0.99999
 Cu466 Cu 0.77009 0.77079 1.00004
 C467 C 0.72355 0.77685 1.03792
 C468 C 0.77631 0.72430 0.96215
 C469 C 0.77630 0.72407 1.03765
 C470 C 0.72347 0.77707 0.96237
 O471 O 0.74731 0.28614 0.47204
 O472 O 0.78692 0.24673 0.52820
 O473 O 0.78686 0.24661 0.47204
 O474 O 0.74735 0.28625 0.52818
 O475 O 0.71374 0.25257 0.52828
 O476 O 0.75326 0.21294 0.47215
 O477 O 0.75331 0.21306 0.52831
 O478 O 0.71370 0.25246 0.47215
 Cu479 Cu 0.77049 0.26981 0.50010
 Cu480 Cu 0.73013 0.22937 0.50024
 C481 C 0.72387 0.27591 0.46241
 C482 C 0.77674 0.22330 0.53796
 C483 C 0.77667 0.22315 0.46239
 C484 C 0.72392 0.27605 0.53791
 O485 O 0.75273 0.28648 0.02793
 O486 O 0.71324 0.24684 -0.02818
 O487 O 0.71328 0.24680 0.02796
 O488 O 0.75258 0.28662 -0.02821
 O489 O 0.78632 0.25311 -0.02834
 O490 O 0.74701 0.21329 0.02786
 O491 O 0.74699 0.21333 -0.02828
 O492 O 0.78647 0.25297 0.02780
 Cu493 Cu 0.72957 0.27005 -0.00011
 Cu494 Cu 0.77009 0.22981 -0.00025
 C495 C 0.77622 0.27636 0.03754
 C496 C 0.72351 0.22345 -0.03792
 C497 C 0.72355 0.22338 0.03760
 C498 C 0.77603 0.27653 -0.03797
 O499 O 0.78665 0.75345 0.47210
 O500 O 0.74728 0.71389 0.52842
 O501 O 0.74714 0.71383 0.47228
 O502 O 0.78681 0.75349 0.52824
 O503 O 0.75316 0.78709 0.52832
 O504 O 0.71350 0.74743 0.47236
 O505 O 0.71363 0.74749 0.52850
 O506 O 0.75300 0.78705 0.47218
 Cu507 Cu 0.77035 0.73029 0.50025
 Cu508 Cu 0.72994 0.77064 0.50035
 C509 C 0.77641 0.77687 0.46241
 C510 C 0.72386 0.72406 0.53818
 C511 C 0.72368 0.72399 0.46266
 C512 C 0.77663 0.77694 0.53794
 O513 O 0.97216 0.25311 0.21302
 O514 O 1.02821 0.21357 0.25267
 O515 O 0.97204 0.21352 0.25252
 O516 O 1.02835 0.25311 0.21313
 O517 O 1.02828 0.28674 0.24674
 O518 O 0.97195 0.24715 0.28612
 O519 O 1.02811 0.24721 0.28628
 O520 O 0.97209 0.28675 0.24663
 Cu521 Cu 1.00020 0.22995 0.22945
 Cu522 Cu 1.00010 0.27035 0.26981
 C523 C 0.96245 0.27656 0.22319
 C524 C 1.03783 0.22376 0.27612
 C525 C 0.96229 0.22370 0.27593
 C526 C 1.03804 0.27654 0.22334
 O527 O 0.52793 0.28629 0.74716
 O528 O 0.47177 0.24660 0.78667
 O529 O 0.52795 0.24665 0.78660
 O530 O 0.47175 0.28629 0.74727
 O531 O 0.47173 0.25272 0.71359
 O532 O 0.52794 0.21309 0.75292
 O533 O 0.47177 0.21304 0.75299
 O534 O 0.52791 0.25273 0.71348
 Cu535 Cu 0.49985 0.26983 0.77031
 Cu536 Cu 0.49983 0.22952 0.72986
 C537 C 0.53761 0.27615 0.72371
 C538 C 0.46208 0.22317 0.77645
 C539 C 0.53765 0.22324 0.77635
 C540 C 0.46204 0.27614 0.72384
 O541 O -0.02861 0.28628 0.75260
 O542 O 0.02751 0.24637 0.71335
 O543 O -0.02868 0.24656 0.71325
 O544 O 0.02756 0.28607 0.75275
 O545 O 0.02734 0.25253 0.78646
 O546 O -0.02887 0.21303 0.74697
 O547 O 0.02732 0.21284 0.74707
 O548 O -0.02882 0.25276 0.78632
 Cu549 Cu -0.00053 0.26968 0.72960
 Cu550 Cu -0.00078 0.22942 0.77009
 C551 C -0.03840 0.27620 0.77604
 C552 C 0.03710 0.22293 0.72363
 C553 C -0.03849 0.22318 0.72350
 C554 C 0.03714 0.27592 0.77622
 O555 O 0.52799 0.24661 0.21352
 O556 O 0.47189 0.28622 0.25310
 O557 O 0.52806 0.28612 0.25308
 O558 O 0.47182 0.24674 0.21350
 O559 O 0.47173 0.21305 0.24706
 O560 O 0.52797 0.25243 0.28664
 O561 O 0.47179 0.25253 0.28666
 O562 O 0.52790 0.21292 0.24708
 Cu563 Cu 0.49995 0.26981 0.22993
 Cu564 Cu 0.49983 0.22935 0.27023
 C565 C 0.53763 0.22313 0.22367
 C566 C 0.46216 0.27601 0.27652
 C567 C 0.53771 0.27588 0.27649
 C568 C 0.46207 0.22330 0.22365
 O569 O 0.97254 0.75355 0.71317
 O570 O 1.02852 0.71373 0.75261
 O571 O 0.97235 0.71395 0.75267
 O572 O 1.02873 0.75339 0.71319
 O573 O 1.02882 0.78697 0.74685
 O574 O 0.97245 0.74755 0.78632
 O575 O 1.02862 0.74731 0.78627
 O576 O 0.97263 0.78714 0.74682
 Cu577 Cu 1.00052 0.73028 0.72953
 Cu578 Cu 1.00064 0.77062 0.76994
 C579 C 0.96291 0.77701 0.72339
 C580 C 1.03823 0.72385 0.77605
 C581 C 0.96268 0.72414 0.77611
 C582 C 1.03852 0.77678 0.72342
 O583 O 0.47268 0.75345 0.21296
 O584 O 0.52854 0.71392 0.25284
 O585 O 0.47238 0.71397 0.25257
 O586 O 0.52887 0.75346 0.21328
 O587 O 0.52871 0.78713 0.24686
 O588 O 0.47223 0.74766 0.28612
 O589 O 0.52839 0.74760 0.28641
 O590 O 0.47252 0.78714 0.24651
 Cu591 Cu 0.50064 0.73032 0.22954
 Cu592 Cu 0.50044 0.77077 0.26984
 C593 C 0.46295 0.77691 0.22306
 C594 C 0.53810 0.72413 0.27630
 C595 C 0.46256 0.72421 0.27593
 C596 C 0.53854 0.77690 0.22350
 O597 O -0.02805 0.78695 0.25279
 O598 O 0.02818 0.74739 0.21333
 O599 O -0.02799 0.74737 0.21329
 O600 O 0.02813 0.78689 0.25291
 O601 O 0.02803 0.75323 0.28650
 O602 O -0.02808 0.71372 0.24689
 O603 O 0.02809 0.71373 0.24692
 O604 O -0.02815 0.75329 0.28639
 Cu605 Cu 0.00008 0.77054 0.22971
 Cu606 Cu -0.00004 0.73011 0.27005
 C607 C -0.03780 0.77675 0.27620
 C608 C 0.03783 0.72393 0.22350
 C609 C -0.03771 0.72392 0.22346
 C610 C 0.03776 0.77668 0.27634
 O611 O 0.47162 0.78716 0.75296
 O612 O 0.52805 0.74756 0.71380
 O613 O 0.47188 0.74748 0.71358
 O614 O 0.52782 0.78727 0.75318
 O615 O 0.52772 0.75372 0.78688
 O616 O 0.47177 0.71394 0.74729
 O617 O 0.52794 0.71402 0.74750
 O618 O 0.47153 0.75363 0.78667
 Cu619 Cu 0.49986 0.77074 0.73000
 Cu620 Cu 0.49973 0.73046 0.77048
 C621 C 0.46182 0.77701 0.77637
 C622 C 0.53773 0.72416 0.72408
 C623 C 0.46217 0.72405 0.72380
 C624 C 0.53743 0.77715 0.77666
 N625 N 0.40600 0.32905 0.29398
 C626 C 0.39448 0.31806 0.31852
 N627 N 0.40591 0.29346 0.32947
 N628 N 0.42775 0.28030 0.31635
 C629 C 0.43904 0.29124 0.29173
 N630 N 0.42784 0.31591 0.28084
 N631 N 0.40511 0.82967 0.79326
 C632 C 0.39348 0.81874 0.81781
 N633 N 0.40519 0.79431 0.82895
 N634 N 0.42722 0.78129 0.81602
 C635 C 0.43852 0.79216 0.79140
 N636 N 0.42714 0.81666 0.78031
 N637 N -0.09466 0.29397 0.82886
 C638 C -0.10611 0.31850 0.81777
 N639 N -0.09458 0.32935 0.79316
 N640 N -0.07273 0.31613 0.78011
 C641 C -0.06153 0.29153 0.79115
 N642 N -0.07282 0.28074 0.81582
 N643 N -0.09420 0.79415 0.32901
 C644 C -0.10570 0.81869 0.31797
 N645 N -0.09416 0.82965 0.29343
 N646 N -0.07225 0.81655 0.28036
 C647 C -0.06099 0.79194 0.29134
 N648 N -0.07230 0.78103 0.31596
 N649 N 0.59408 0.70670 0.32946
 C650 C 0.60555 0.68208 0.31857
 N651 N 0.59412 0.67107 0.29401
 N652 N 0.57236 0.68421 0.28079
 C653 C 0.56113 0.70891 0.29162
 N654 N 0.57232 0.71986 0.31625
 N655 N 0.59409 0.17041 0.79344
 C656 C 0.60558 0.18135 0.81800
 N657 N 0.59400 0.20583 0.82909
 N658 N 0.57209 0.21893 0.81608
 C659 C 0.56084 0.20805 0.79145
 N660 N 0.57217 0.18349 0.78041
 N661 N 1.09434 0.67070 0.79329
 C662 C 1.10585 0.68161 0.81785
 N663 N 1.09442 0.70617 0.82889
 N664 N 1.07260 0.71939 0.81584
 C665 C 1.06132 0.70854 0.79120
 N666 N 1.07252 0.68390 0.78021
 N667 N 1.09400 0.17079 0.29362
 C668 C 1.10543 0.18177 0.31819
 N669 N 1.09392 0.20634 0.32915
 N670 N 1.07211 0.21948 0.31600
 C671 C 1.06091 0.20855 0.29136
 N672 N 1.07219 0.18391 0.28045
 N673 N 0.59393 0.29362 0.67081
 C674 C 0.60545 0.31815 0.68183
 N675 N 0.59396 0.32911 0.70639
 N676 N 0.57206 0.31599 0.71949
 C677 C 0.56077 0.29138 0.70853
 N678 N 0.57203 0.28048 0.68389
 N679 N 0.59519 0.82965 0.20653
 C680 C 0.60684 0.81871 0.18199
 N681 N 0.59518 0.79423 0.17089
 N682 N 0.57318 0.78116 0.18385
 C683 C 0.56185 0.79205 0.20845
 N684 N 0.57318 0.81660 0.21950
 N685 N 1.09460 0.32933 0.20615
 C686 C 1.10622 0.31834 0.18162
 N687 N 1.09456 0.29383 0.17060
 N688 N 1.07259 0.28077 0.18362
 C689 C 1.06129 0.29171 0.20822
 N690 N 1.07262 0.31629 0.21919
 N691 N 1.09518 0.82946 0.70635
 C692 C 1.10680 0.81850 0.68181
 N693 N 1.09511 0.79403 0.67073
 N694 N 1.07310 0.78099 0.68371
 C695 C 1.06180 0.79190 0.70832
 N696 N 1.07317 0.81644 0.71934
 N697 N 0.40598 0.67099 0.70642
 C698 C 0.39457 0.68190 0.68182
 N699 N 0.40610 0.70645 0.67079
 N700 N 0.42792 0.71963 0.68391
 C701 C 0.43909 0.70877 0.70859
 N702 N 0.42779 0.68415 0.71955
 N703 N 0.40572 0.20604 0.17081
 C704 C 0.39421 0.18145 0.18177
 N705 N 0.40573 0.17041 0.20627
 N706 N 0.42761 0.18349 0.21937
 C707 C 0.43889 0.20815 0.20847
 N708 N 0.42761 0.21914 0.18390
 N709 N -0.09393 0.70655 0.17054
 C710 C -0.10545 0.68197 0.18151
 N711 N -0.09398 0.67097 0.20605
 N712 N -0.07212 0.68408 0.21917
 C713 C -0.06084 0.70873 0.20826
 N714 N -0.07208 0.71967 0.18365
 N715 N -0.09502 0.17042 0.70639
 C716 C -0.10657 0.18135 0.68182
 N717 N -0.09487 0.20583 0.67074
 N718 N -0.07292 0.21890 0.68375
 C719 C -0.06170 0.20802 0.70838
 N720 N -0.07307 0.18347 0.71941
 N721 N 0.32921 0.40592 0.29394
 C722 C 0.31821 0.39447 0.31851
 N723 N 0.29366 0.40600 0.32949
 N724 N 0.28055 0.42785 0.31635
 C725 C 0.29150 0.43906 0.29171
 N726 N 0.31612 0.42777 0.28079
 N727 N 0.32946 -0.09527 0.79316
 C728 C 0.31858 -0.10693 0.81773
 N729 N 0.29407 -0.09537 0.82883
 N730 N 0.28090 -0.07346 0.81586
 C731 C 0.29173 -0.06213 0.79123
 N732 N 0.31631 -0.07335 0.78017
 N733 N 0.82925 0.40544 0.79382
 C734 C 0.81824 0.39382 0.81834
 N735 N 0.79375 0.40549 0.82939
 N736 N 0.78074 0.42748 0.81638
 C737 C 0.79170 0.43877 0.79179
 N738 N 0.81626 0.42743 0.78080
 N739 N 0.82927 -0.09480 0.29375
 C740 C 0.81830 -0.10637 0.31833
 N741 N 0.79376 -0.09477 0.32932
 N742 N 0.78065 -0.07290 0.31623
 C743 C 0.79156 -0.06166 0.29159
 N744 N 0.81617 -0.07293 0.28064
 N745 N 0.32907 0.59409 0.70648
 C746 C 0.31815 0.60555 0.68190
 N747 N 0.29360 0.59405 0.67093
 N748 N 0.28041 0.57222 0.68407
 C749 C 0.29127 0.56100 0.70873
 N750 N 0.31590 0.57227 0.71964
 N751 N 0.32945 1.09465 0.20579
 C752 C 0.31842 1.10627 0.18130
 N753 N 0.29389 1.09463 0.17034
 N754 N 0.28084 1.07267 0.18340
 C755 C 0.29181 1.06138 0.20797
 N756 N 0.31641 1.07269 0.21887
 N757 N 0.82916 0.59415 0.20616
 C758 C 0.81813 0.60565 0.18164
 N759 N 0.79353 0.59418 0.17075
 N760 N 0.78040 0.57232 0.18390
 C761 C 0.79137 0.56105 0.20849
 N762 N 0.81604 0.57229 0.21932
 N763 N 0.82964 1.09520 0.70649
 C764 C 0.81875 1.10678 0.68193
 N765 N 0.79426 1.09513 0.67088
 N766 N 0.78113 1.07321 0.68392
 C767 C 0.79197 1.06196 0.70855
 N768 N 0.81653 1.07328 0.71955
 N769 N 0.67065 0.59406 0.29421
 C770 C 0.68168 0.60558 0.31872
 N771 N 0.70626 0.59409 0.32964
 N772 N 0.71936 0.57222 0.31651
 C773 C 0.70838 0.56094 0.29193
 N774 N 0.68374 0.57219 0.28107
 N775 N 0.67080 1.09495 0.79369
 C776 C 0.68171 1.10654 0.81825
 N777 N 0.70626 1.09499 0.82923
 N778 N 0.71943 1.07313 0.81614
 C779 C 0.70857 1.06186 0.79152
 N780 N 0.68395 1.07309 0.78058
 N781 N 0.17046 0.59463 0.79388
 C782 C 0.18145 0.60624 0.81839
 N783 N 0.20592 0.59456 0.82941
 N784 N 0.21895 0.57258 0.81639
 C785 C 0.20801 0.56130 0.79181
 N786 N 0.18347 0.57265 0.78084
 N787 N 0.20640 1.09405 0.32904
 C788 C 0.18181 1.10550 0.31812
 N789 N 0.17086 1.09403 0.29355
 N790 N 0.18403 1.07224 0.28037
 C791 C 0.20869 1.06103 0.29124
 N792 N 0.21959 1.07226 0.31587
 N793 N 0.67090 0.40594 0.70648
 C794 C 0.68190 0.39447 0.68192
 N795 N 0.70647 0.40599 0.67095
 N796 N 0.71960 0.42784 0.68408
 C797 C 0.70865 0.43908 0.70871
 N798 N 0.68401 0.42780 0.71962
 N799 N 0.67065 -0.09514 0.20666
 C800 C 0.68158 -0.10674 0.18210
 N801 N 0.70608 -0.09509 0.17102
 N802 N 0.71919 -0.07316 0.18402
 C803 C 0.70831 -0.06188 0.20866
 N804 N 0.68374 -0.07320 0.21969
 N805 N 0.20603 0.40560 0.17103
 C806 C 0.18148 0.39412 0.18209
 N807 N 0.17053 0.40567 0.20663
 N808 N 0.18367 0.42757 0.21967
 C809 C 0.20829 0.43882 0.20867
 N810 N 0.21918 0.42750 0.18406
 N811 N 0.17063 -0.09542 0.70648
 C812 C 0.18157 -0.10701 0.68192
 N813 N 0.20608 -0.09536 0.67086
 N814 N 0.21918 -0.07343 0.68389
 C815 C 0.20829 -0.06217 0.70852
 N816 N 0.18371 -0.07349 0.71953
 N817 N 0.29356 0.32913 0.40638
 C818 C 0.31814 0.31816 0.39490
 N819 N 0.32913 0.29360 0.40640
 N820 N 0.31600 0.28047 0.42826
 C821 C 0.29136 0.29139 0.43951
 N822 N 0.28043 0.31601 0.42824
 N823 N 0.32945 0.79360 -0.09485
 C824 C 0.31841 0.81813 -0.10637
 N825 N 0.29389 0.82912 -0.09480
 N826 N 0.28085 0.81605 -0.07285
 C827 C 0.29183 0.79146 -0.06158
 N828 N 0.31643 0.78052 -0.07291
 N829 N 0.82880 0.29415 -0.09435
 C830 C 0.81769 0.31865 -0.10585
 N831 N 0.79310 0.32954 -0.09432
 N832 N 0.78007 0.31638 -0.07241
 C833 C 0.79113 0.29181 -0.06115
 N834 N 0.81578 0.28098 -0.07245
 N835 N 0.79352 0.82971 0.40595
 C836 C 0.81806 0.81875 0.39438
 N837 N 0.82914 0.79424 0.40591
 N838 N 0.81613 0.78115 0.42786
 C839 C 0.79151 0.79205 0.43918
 N840 N 0.78050 0.81663 0.42790
 N841 N 0.67095 0.29351 0.59414
 C842 C 0.68194 0.31809 0.60561
 N843 N 0.70651 0.32907 0.59411
 N844 N 0.71965 0.31593 0.57227
 C845 C 0.70872 0.29128 0.56104
 N846 N 0.68407 0.28036 0.57231
 N847 N 0.70636 0.82949 1.09453
 C848 C 0.68185 0.81842 1.10609
 N849 N 0.67082 0.79391 1.09451
 N850 N 0.68383 0.78092 1.07251
 C851 C 0.70842 0.79193 1.06119
 N852 N 0.71939 0.81651 1.07253
 N853 N 0.20583 0.32885 1.09420
 C854 C 0.18130 0.31783 1.10575
 N855 N 0.17029 0.29327 1.09425
 N856 N 0.18335 0.28019 1.07234
 C857 C 0.20796 0.29116 1.06102
 N858 N 0.21891 0.31579 1.07229
 N859 N 0.20642 0.82915 0.59442
 C860 C 0.18190 0.81808 0.60597
 N861 N 0.17089 0.79356 0.59442
 N862 N 0.18394 0.78053 0.57246
 C863 C 0.20853 0.79154 0.56115
 N864 N 0.21948 0.81614 0.57247
 N865 N 0.29385 0.67074 0.59393
 C866 C 0.31839 0.68175 0.60543
 N867 N 0.32939 0.70632 0.59393
 N868 N 0.31631 0.71944 0.57207
 C869 C 0.29170 0.70848 0.56081
 N870 N 0.28076 0.68384 0.57207
 N871 N 0.29334 0.17038 1.09406
 C872 C 0.31787 0.18141 1.10554
 N873 N 0.32886 0.20598 1.09402
 N874 N 0.31576 0.21907 1.07215
 C875 C 0.29115 0.20810 1.06091
 N876 N 0.28023 0.18346 1.07219
 N877 N 0.79366 0.67103 1.09381
 C878 C 0.81822 0.68201 1.10529
 N879 N 0.82923 0.70658 1.09381
 N880 N 0.81613 0.71974 1.07198
 C881 C 0.79149 0.70882 1.06074
 N882 N 0.78054 0.68417 1.07199
 N883 N 0.79401 0.17059 0.59444
 C884 C 0.81851 0.18166 0.60596
 N885 N 0.82952 0.20619 0.59438
 N886 N 0.81648 0.21921 0.57244
 C887 C 0.79190 0.20819 0.56116
 N888 N 0.78095 0.18359 0.57249
 N889 N 0.70626 0.67100 0.40647
 C890 C 0.68171 0.68199 0.39499
 N891 N 0.67073 0.70656 0.40649
 N892 N 0.68384 0.71969 0.42832
 C893 C 0.70846 0.70877 0.43956
 N894 N 0.71938 0.68412 0.42830
 N895 N 0.67071 0.20593 -0.09420
 C896 C 0.68182 0.18144 -0.10575
 N897 N 0.70640 0.17054 -0.09427
 N898 N 0.71943 0.18366 -0.07238
 C899 C 0.70838 0.20822 -0.06107
 N900 N 0.68372 0.21907 -0.07231
 N901 N 0.17106 0.70598 -0.09437
 C902 C 0.18206 0.68142 -0.10587
 N903 N 0.20660 0.67044 -0.09437
 N904 N 0.21970 0.68356 -0.07252
 C905 C 0.20876 0.70820 -0.06127
 N906 N 0.18415 0.71912 -0.07252
 N907 N 0.17051 0.20611 0.40623
 C908 C 0.18152 0.18158 0.39468
 N909 N 0.20606 0.17057 0.40617
 N910 N 0.21913 0.18362 0.42807
 C911 C 0.20818 0.20822 0.43939
 N912 N 0.18357 0.21917 0.42814
 N913 N 0.29331 0.40596 0.67121
 C914 C 0.31784 0.39446 0.68221
 N915 N 0.32879 0.40596 0.70675
 N916 N 0.31568 0.42785 0.71985
 C917 C 0.29108 0.43912 0.70891
 N918 N 0.28018 0.42785 0.68429
 N919 N 0.32985 0.90645 0.20546
 C920 C 0.31885 0.89493 0.18095
 N921 N 0.29424 0.90636 0.17004
 N922 N 0.28108 0.92818 0.18319
 C923 C 0.29203 0.93946 0.20778
 N924 N 0.31670 0.92827 0.21863
 N925 N 0.82925 0.40617 0.20607
 C926 C 0.81823 0.39467 0.18155
 N927 N 0.79363 0.40613 0.17066
 N928 N 0.78049 0.42795 0.18383
 C929 C 0.79145 0.43921 0.20843
 N930 N 0.81613 0.42799 0.21925
 N931 N 0.82971 0.90687 0.70633
 C932 C 0.81877 0.89539 0.68176
 N933 N 0.79424 0.90690 0.67077
 N934 N 0.78110 0.92876 0.68387
 C935 C 0.79198 0.94001 0.70851
 N936 N 0.81658 0.92873 0.71945
 N937 N 0.67105 0.59424 0.70695
 C938 C 0.68204 0.60577 0.68241
 N939 N 0.70656 0.59425 0.67137
 N940 N 0.71966 0.57234 0.68441
 C941 C 0.70873 0.56104 0.70902
 N942 N 0.68413 0.57232 0.72001
 N943 N 0.67068 0.09327 0.20617
 C944 C 0.68168 0.10477 0.18162
 N945 N 0.70624 0.09326 0.17062
 N946 N 0.71934 0.07138 0.18373
 C947 C 0.70839 0.06012 0.20835
 N948 N 0.68376 0.07140 0.21928
 N949 N 0.20630 0.59387 0.17056
 C950 C 0.18176 0.60542 0.18154
 N951 N 0.17075 0.59397 0.20611
 N952 N 0.18381 0.57209 0.21924
 C953 C 0.20842 0.56077 0.20831
 N954 N 0.21938 0.57199 0.18367
 N955 N 0.20590 0.09299 0.67093
 C956 C 0.18137 0.10449 0.68198
 N957 N 0.17042 0.09297 0.70654
 N958 N 0.18355 0.07109 0.71961
 C959 C 0.20815 0.05983 0.70861
 N960 N 0.21904 0.07111 0.68398
 N961 N 0.29377 0.59425 0.32894
 C962 C 0.31830 0.60578 0.31789
 N963 N 0.32927 0.59425 0.29334
 N964 N 0.31618 0.57232 0.28030
 C965 C 0.29158 0.56102 0.29130
 N966 N 0.28066 0.57233 0.31592
 N967 N 0.32900 0.09316 0.79374
 C968 C 0.31799 0.10461 0.81830
 N969 N 0.29347 0.09302 0.82931
 N970 N 0.28041 0.07111 0.81621
 C971 C 0.29136 0.05989 0.79158
 N972 N 0.31595 0.07125 0.78063
 N973 N 0.79407 0.59417 0.82947
 C974 C 0.81859 0.60571 0.81842
 N975 N 0.82961 0.59415 0.79391
 N976 N 0.81654 0.57219 0.78089
 C977 C 0.79194 0.56090 0.79187
 N978 N 0.78099 0.57222 0.81646
 N979 N 0.82924 0.09353 0.29345
 C980 C 0.81828 0.10503 0.31801
 N981 N 0.79375 0.09349 0.32906
 N982 N 0.78064 0.07158 0.31601
 C983 C 0.79154 0.06031 0.29138
 N984 N 0.81614 0.07162 0.28039
 N985 N 0.70631 0.40577 0.32944
 C986 C 0.68175 0.39426 0.31850
 N987 N 0.67071 0.40580 0.29401
 N988 N 0.68378 0.42772 0.28090
 C989 C 0.70841 0.43899 0.29178
 N990 N 0.71940 0.42769 0.31634
 N991 N 0.67078 0.90690 0.79379
 C992 C 0.68170 0.89543 0.81837
 N993 N 0.70625 0.90693 0.82935
 N994 N 0.71944 0.92876 0.81622
 C995 C 0.70857 0.94000 0.79157
 N996 N 0.68395 0.92874 0.78064
 N997 N 0.20554 0.40600 0.82955
 C998 C 0.18103 0.39448 0.81852
 N999 N 0.17007 0.40601 0.79399
 N1000 N 0.18317 0.42794 0.78094
 C1001 C 0.20777 0.43923 0.79190
 N1002 N 0.21866 0.42793 0.81650
 N1003 N 0.20667 0.90621 0.32899
 C1004 C 0.18206 0.89474 0.31810
 N1005 N 0.17108 0.90621 0.29356
 N1006 N 0.18423 0.92803 0.28036
 C1007 C 0.20890 0.93926 0.29120
 N1008 N 0.21984 0.92803 0.31581
 N1009 N 0.40571 0.32907 0.70667
 C1010 C 0.39423 0.31813 0.68211
 N1011 N 0.40575 0.29360 0.67106
 N1012 N 0.42762 0.28047 0.68410
 C1013 C 0.43888 0.29136 0.70873
 N1014 N 0.42759 0.31595 0.71973
 N1015 N 0.40682 0.79415 0.17001
 C1016 C 0.39529 0.81873 0.18091
 N1017 N 0.40674 0.82980 0.20544
 N1018 N 0.42858 0.81674 0.21861
 C1019 C 0.43987 0.79208 0.20777
 N1020 N 0.42866 0.78107 0.18317
 N1021 N 0.90619 0.29390 0.17032
 C1022 C 0.89468 0.31846 0.18130
 N1023 N 0.90618 0.32947 0.20583
 N1024 N 0.92805 0.31638 0.21892
 C1025 C 0.93932 0.29175 0.20800
 N1026 N 0.92806 0.28079 0.18340
 N1027 N 0.90667 0.83002 0.70615
 C1028 C 0.89516 0.81906 0.68161
 N1029 N 0.90665 0.79451 0.67058
 N1030 N 0.92852 0.78137 0.68363
 C1031 C 0.93979 0.79226 0.70825
 N1032 N 0.92854 0.81689 0.71922
 N1033 N 0.59401 0.32880 0.29394
 C1034 C 0.60550 0.31776 0.31845
 N1035 N 0.59401 0.29315 0.32938
 N1036 N 0.57214 0.28005 0.31627
 C1037 C 0.56088 0.29104 0.29169
 N1038 N 0.57215 0.31571 0.28081
 N1039 N 0.59373 0.83013 0.79396
 C1040 C 0.60517 0.81919 0.81854
 N1041 N 0.59361 0.79466 0.82958
 N1042 N 0.57175 0.78152 0.81650
 C1043 C 0.56054 0.79240 0.79185
 N1044 N 0.57186 0.81700 0.78087
 N1045 N 0.09329 0.29333 0.82922
 C1046 C 0.10485 0.31788 0.81824
 N1047 N 0.09345 0.32885 0.79366
 N1048 N 0.07162 0.31573 0.78050
 C1049 C 0.06029 0.29111 0.79143
 N1050 N 0.07146 0.28020 0.81608
 N1051 N 0.09398 0.79400 0.32928
 C1052 C 0.10553 0.81856 0.31831
 N1053 N 0.09407 0.82958 0.29377
 N1054 N 0.07221 0.81649 0.28064
 C1055 C 0.06090 0.79186 0.29155
 N1056 N 0.07212 0.78090 0.31616
 N1057 N 0.59418 0.70669 0.67135
 C1058 C 0.60569 0.68218 0.68242
 N1059 N 0.59416 0.67125 0.70699
 N1060 N 0.57224 0.68437 0.72003
 C1061 C 0.56096 0.70895 0.70901
 N1062 N 0.57227 0.71983 0.68437
 N1063 N 0.59384 0.17013 0.20622
 C1064 C 0.60536 0.18114 0.18168
 N1065 N 0.59390 0.20572 0.17073
 N1066 N 0.57205 0.21886 0.18385
 C1067 C 0.56076 0.20791 0.20846
 N1068 N 0.57199 0.18325 0.21936
 N1069 N 0.09405 0.67093 0.20610
 C1070 C 0.10558 0.68192 0.18156
 N1071 N 0.09414 0.70651 0.17060
 N1072 N 0.07229 0.71966 0.18371
 C1073 C 0.06099 0.70873 0.20832
 N1074 N 0.07220 0.68406 0.21923
 N1075 N 0.09342 0.16991 0.70651
 C1076 C 0.10494 0.18082 0.68193
 N1077 N 0.09345 0.20533 0.67085
 N1078 N 0.07156 0.21849 0.68388
 C1079 C 0.06027 0.20765 0.70853
 N1080 N 0.07152 0.18306 0.71956
 N1081 N 0.40616 0.67128 0.29322
 C1082 C 0.39461 0.68228 0.31774
 N1083 N 0.40609 0.70686 0.32872
 N1084 N 0.42800 0.71998 0.31564
 C1085 C 0.43932 0.70903 0.29105
 N1086 N 0.42806 0.68439 0.28013
 N1087 N 0.40577 0.20566 0.82933
 C1088 C 0.39427 0.18110 0.81832
 N1089 N 0.40579 0.17016 0.79376
 N1090 N 0.42766 0.18330 0.78066
 C1091 C 0.43892 0.20793 0.79162
 N1092 N 0.42764 0.21882 0.81625
 N1093 N 0.90627 0.67128 0.79355
 C1094 C 0.89479 0.68229 0.81809
 N1095 N 0.90632 0.70686 0.82905
 N1096 N 0.92821 0.71995 0.81592
 C1097 C 0.93947 0.70899 0.79130
 N1098 N 0.92816 0.68436 0.78040
 N1099 N 0.90603 0.17064 0.29328
 C1100 C 0.89454 0.18158 0.31785
 N1101 N 0.90601 0.20616 0.32884
 N1102 N 0.92785 0.21934 0.31573
 C1103 C 0.93912 0.20846 0.29109
 N1104 N 0.92788 0.18381 0.28015
 N1105 N 0.29334 0.32905 0.59443
 C1106 C 0.31790 0.31809 0.60590
 N1107 N 0.32892 0.29355 0.59439
 N1108 N 0.31583 0.28041 0.57254
 C1109 C 0.29120 0.29131 0.56130
 N1110 N 0.28024 0.31593 0.57258
 N1111 N 0.29432 0.82945 0.09326
 C1112 C 0.31888 0.81849 0.10472
 N1113 N 0.32985 0.79389 0.09326
 N1114 N 0.31671 0.78072 0.07147
 C1115 C 0.29207 0.79163 0.06024
 N1116 N 0.28116 0.81629 0.07147
 N1117 N 0.79360 0.32930 0.09379
 C1118 C 0.81822 0.31837 0.10518
 N1119 N 0.82924 0.29385 0.09362
 N1120 N 0.81611 0.28071 0.07180
 C1121 C 0.79142 0.29158 0.06065
 N1122 N 0.78046 0.31618 0.07197
 N1123 N 0.79412 0.82996 0.59408
 C1124 C 0.81871 0.81900 0.60550
 N1125 N 0.82969 0.79443 0.59399
 N1126 N 0.81653 0.78127 0.57219
 C1127 C 0.79187 0.79217 0.56101
 N1128 N 0.78096 0.81681 0.57228
 N1129 N 0.32931 0.70669 0.40572
 C1130 C 0.31833 0.68213 0.39421
 N1131 N 0.29381 0.67107 0.40575
 N1132 N 0.28071 0.68411 0.42767
 C1133 C 0.29164 0.70875 0.43895
 N1134 N 0.31623 0.71975 0.42764
 N1135 N 0.32878 0.20568 0.90600
 C1136 C 0.31780 0.18110 0.89454
 N1137 N 0.29322 0.17012 0.90604
 N1138 N 0.28008 0.18326 0.92787
 C1139 C 0.29102 0.20791 0.93911
 N1140 N 0.31566 0.21883 0.92784
 N1141 N 0.79380 0.67136 0.90592
 C1142 C 0.81835 0.68238 0.89441
 N1143 N 0.82929 0.70699 0.90587
 N1144 N 0.81614 0.72012 0.92771
 C1145 C 0.79152 0.70914 0.93899
 N1146 N 0.78063 0.68447 0.92776
 N1147 N 0.79391 0.17026 0.40602
 C1148 C 0.81843 0.18129 0.39445
 N1149 N 0.82945 0.20585 0.40594
 N1150 N 0.81641 0.21893 0.42786
 C1151 C 0.79182 0.20796 0.43920
 N1152 N 0.78086 0.18333 0.42795
 N1153 N 0.67091 0.29318 0.40620
 C1154 C 0.68187 0.31777 0.39470
 N1155 N 0.70641 0.32881 0.40616
 N1156 N 0.71955 0.31572 0.42800
 C1157 C 0.70866 0.29107 0.43927
 N1158 N 0.68404 0.28008 0.42804
 N1159 N 0.70609 0.83011 0.90622
 C1160 C 0.68152 0.81913 0.89474
 N1161 N 0.67052 0.79455 0.90622
 N1162 N 0.68363 0.78140 0.92805
 C1163 C 0.70827 0.79232 0.93928
 N1164 N 0.71921 0.81697 0.92804
 N1165 N 0.17011 0.29330 0.90609
 C1166 C 0.18107 0.31790 0.89462
 N1167 N 0.20560 0.32893 0.90611
 N1168 N 0.21873 0.31581 0.92794
 C1169 C 0.20784 0.29114 0.93918
 N1170 N 0.18323 0.28017 0.92792
 N1171 N 0.17078 0.79400 0.40612
 C1172 C 0.18180 0.81856 0.39462
 N1173 N 0.20634 0.82957 0.40611
 N1174 N 0.21943 0.81647 0.42798
 C1175 C 0.20847 0.79183 0.43924
 N1176 N 0.18386 0.78088 0.42798
 N1177 N 0.70660 0.67117 0.59456
 C1178 C 0.68204 0.68214 0.60608
 N1179 N 0.67102 0.70668 0.59457
 N1180 N 0.68410 0.71979 0.57267
 C1181 C 0.70872 0.70887 0.56138
 N1182 N 0.71969 0.68427 0.57266
 N1183 N 0.67066 0.20576 0.09386
 C1184 C 0.68172 0.18123 0.10535
 N1185 N 0.70632 0.17033 0.09386
 N1186 N 0.71942 0.18351 0.07200
 C1187 C 0.70841 0.20811 0.06075
 N1188 N 0.68374 0.21894 0.07201
 N1189 N 0.20651 0.67074 0.09372
 C1190 C 0.18195 0.68177 0.10520
 N1191 N 0.17100 0.70633 0.09368
 N1192 N 0.18413 0.71941 0.07180
 C1193 C 0.20875 0.70845 0.06055
 N1194 N 0.21965 0.68382 0.07184
 N1195 N 0.17039 0.20551 0.59427
 C1196 C 0.18140 0.18095 0.60573
 N1197 N 0.20600 0.17004 0.59424
 N1198 N 0.21913 0.18322 0.57242
 C1199 C 0.20817 0.20786 0.56119
 N1200 N 0.18350 0.21871 0.57245
   
