data_POSCAR
  _audit_creation_date              2014-09-24
  _audit_creation_method            'ToBaCCo'
  _symmetry_space_group_name_H-M    'P1'
  _symmetry_Int_Tables_number       1
  _symmetry_cell_setting            triclinic
  loop_
  _symmetry_equiv_pos_as_xyz
 x,y,z
_cell_length_a 47.7370
_cell_length_b 48.0236
_cell_length_c 47.8478
_cell_angle_alpha 89.871500
_cell_angle_beta 89.901000
_cell_angle_gamma 89.894800
loop_
  _atom_site_label
  _atom_site_type_symbol
  _atom_site_fract_x
  _atom_site_fract_y
  _atom_site_fract_z
C1 C 0.16773 0.17249 0.20444
 C2 C 0.15826 0.19839 0.19435
 C3 C 0.17210 0.21195 0.17230
 C4 C 0.19651 0.20010 0.16102
 C5 C 0.20615 0.17390 0.17021
 C6 C 0.19125 0.16013 0.19163
 H7 H 0.13972 0.20795 0.20327
 H8 H 0.20710 0.21073 0.14404
 H9 H 0.19858 0.14008 0.19904
 C10 C -0.16666 0.82871 0.20894
 C11 C -0.15506 0.80504 0.19591
 C12 C -0.16730 0.79367 0.17184
 C13 C -0.19135 0.80617 0.16056
 C14 C -0.20318 0.82982 0.17309
 C15 C -0.19090 0.84084 0.19729
 H16 H -0.13637 0.79537 0.20436
 H17 H -0.20076 0.79762 0.14186
 H18 H -0.20021 0.85911 0.20679
 C19 C -0.16798 0.16741 -0.20558
 C20 C -0.19111 0.15475 -0.19239
 C21 C -0.20538 0.16813 -0.17050
 C22 C -0.19587 0.19407 -0.16104
 C23 C -0.17190 0.20632 -0.17277
 C24 C -0.15845 0.19320 -0.19533
 H25 H -0.19878 0.13484 -0.19970
 H26 H -0.20634 0.20407 -0.14363
 H27 H -0.14023 0.20304 -0.20458
 C28 C 0.17267 0.83068 -0.20584
 C29 C 0.16297 0.80444 -0.19677
 C30 C 0.17374 0.79196 -0.17247
 C31 C 0.19569 0.80499 -0.15811
 C32 C 0.20618 0.83073 -0.16715
 C33 C 0.19414 0.84377 -0.19052
 H34 H 0.14602 0.79425 -0.20774
 H35 H 0.20440 0.79524 -0.13961
 H36 H 0.20225 0.86375 -0.19725
 C37 C 0.17358 1.17067 0.79125
 C38 C 0.16179 1.19510 0.80264
 C39 C 0.17043 1.20504 0.82885
 C40 C 0.19179 1.19102 0.84331
 C41 C 0.20490 1.16765 0.83161
 C42 C 0.19553 1.15743 0.80584
 H43 H 0.14494 1.20575 0.79185
 H44 H 0.19886 1.19887 0.86330
 H45 H 0.20539 1.13896 0.79730
 C46 C 0.83044 0.83260 0.79373
 C47 C 0.84140 0.80756 0.80466
 C48 C 0.82890 0.79424 0.82780
 C49 C 0.80480 0.80625 0.83978
 C50 C 0.79361 0.83117 0.82926
 C51 C 0.80647 0.84421 0.80636
 H52 H 0.85993 0.79850 0.79523
 H53 H 0.79474 0.79645 0.85757
 H54 H 0.79770 0.86353 0.79851
 C55 C 0.16779 0.82757 1.20538
 C56 C 0.15401 0.80619 1.19066
 C57 C 0.16632 0.79397 1.16702
 C58 C 0.19194 0.80420 1.15709
 C59 C 0.20565 0.82599 1.17085
 C60 C 0.19397 0.83698 1.19542
 H61 H 0.13409 0.79826 1.19807
 H62 H 0.20114 0.79531 1.13839
 H63 H 0.20472 0.85382 1.20593
 C64 C 0.83211 1.17107 1.20786
 C65 C 0.84365 1.19538 1.19599
 C66 C 0.83179 1.20759 1.17208
 C67 C 0.80790 1.19562 1.16007
 C68 C 0.79597 1.17153 1.17162
 C69 C 0.80814 1.15938 1.19540
 H70 H 0.86212 1.20478 1.20507
 H71 H 0.79872 1.20493 1.14157
 H72 H 0.79888 1.14064 1.20402
 O73 O 0.53913 0.95215 0.95249
 O74 O 0.57012 0.97628 0.97991
 C75 C 0.56433 0.95880 0.96015
 O76 O 0.46036 1.05045 0.95551
 O77 O 0.43004 1.02463 0.98237
 C78 C 0.43536 1.04347 0.96367
 O79 O 0.53926 1.04842 0.95244
 O80 O 0.57028 1.02274 0.97868
 C81 C 0.56447 1.04085 0.95939
 O82 O 0.46052 0.94880 0.95704
 O83 O 0.43019 0.97650 0.98185
 C84 C 0.43549 0.95673 0.96423
 Zr85 Zr 0.50005 0.96477 0.96942
 O86 O 0.49664 0.96428 0.92534
 O87 O 0.50354 0.92082 0.97021
 Zr88 Zr 0.50003 1.03513 0.96853
 O89 O 0.49847 1.03207 0.92452
 O90 O 0.50248 1.07912 0.96694
 O91 O 0.52497 0.99991 0.96328
 O92 O 0.47560 0.99996 0.96423
 O93 O 0.46168 0.95014 1.05430
 O94 O 0.43065 0.97602 1.02829
 C95 C 0.43648 0.95711 1.04678
 O96 O 0.54035 1.04880 1.05471
 O97 O 0.57073 1.02412 1.02693
 C98 C 0.56537 1.04191 1.04656
 O99 O 0.46161 1.05233 1.05218
 O100 O 0.43074 1.02417 1.02882
 C101 C 0.43644 1.04428 1.04588
 O102 O 0.54055 0.95184 1.05501
 O103 O 0.57091 0.97773 1.02827
 C104 C 0.56557 0.95947 1.04754
 Zr105 Zr 0.50093 0.96537 1.04014
 O106 O 0.49864 0.96613 1.08433
 O107 O 0.50376 0.92137 1.04059
 Zr108 Zr 0.50083 1.03581 1.03931
 O109 O 0.49777 1.03589 1.08346
 O110 O 0.50430 1.07975 1.03909
 Zr111 Zr 0.54206 1.00026 1.00384
 Zr112 Zr 0.45889 1.00031 1.00493
 O113 O 0.47662 1.00066 1.04516
 O114 O 0.52592 1.00062 1.04488
 O115 O 0.47554 0.95962 1.00518
 O116 O 0.52470 1.04056 1.00354
 O117 O 0.52481 0.95997 1.00448
 O118 O 0.47551 1.04095 1.00419
 H119 H 0.46271 0.99982 0.94802
 H120 H 0.53732 1.05691 1.00317
 H121 H 0.46406 1.00086 1.06167
 H122 H 0.53753 0.94364 1.00441
 H123 H 0.48757 1.08652 0.97925
 H124 H 0.48940 1.08706 1.02676
 H125 H 0.51344 1.02453 1.09077
 H126 H 0.51494 0.97681 1.09117
 H127 H 0.48790 0.91411 1.02953
 H128 H 0.48791 0.91360 0.98169
 H129 H 0.50887 0.97927 0.91810
 H130 H 0.49839 1.05145 0.91737
 O131 O 0.04266 0.53872 -0.05996
 O132 O 0.01973 0.56947 -0.03117
 C133 C 0.03628 0.56376 -0.05190
 O134 O -0.05664 0.46008 -0.04744
 O135 O -0.02648 0.43014 -0.02510
 C136 C -0.04776 0.43528 -0.04113
 O137 O -0.05487 0.53823 -0.05195
 O138 O -0.02673 0.56931 -0.02878
 C139 C -0.04653 0.56333 -0.04625
 O140 O 0.04601 0.46047 -0.05604
 O141 O 0.02211 0.43028 -0.02735
 C142 C 0.03986 0.43561 -0.04718
 Zr143 Zr 0.03113 0.49982 -0.04224
 O144 O 0.02808 0.49641 -0.08622
 O145 O 0.07527 0.50318 -0.04503
 Zr146 Zr -0.03938 0.49940 -0.03726
 O147 O -0.03789 0.49764 -0.08135
 O148 O -0.08367 0.49966 -0.03821
 O149 O -0.00478 0.52440 -0.04559
 O150 O -0.00427 0.47518 -0.04429
 O151 O 0.05349 0.46251 0.04100
 O152 O 0.02448 0.43132 0.01916
 C153 C 0.04531 0.43736 0.03539
 O154 O -0.04692 0.53985 0.04954
 O155 O -0.02459 0.57005 0.01968
 C156 C -0.04088 0.56473 0.04072
 O157 O -0.04952 0.46150 0.04787
 O158 O -0.02350 0.43078 0.02183
 C159 C -0.04209 0.43648 0.04073
 O160 O 0.05003 0.54080 0.04212
 O161 O 0.02174 0.57058 0.01726
 C162 C 0.04135 0.56555 0.03527
 Zr163 Zr 0.03613 0.50120 0.02829
 O164 O 0.03895 0.49886 0.07239
 O165 O 0.08022 0.50472 0.02515
 Zr166 Zr -0.03466 0.50057 0.03332
 O167 O -0.03158 0.49796 0.07738
 O168 O -0.07883 0.50332 0.03630
 Zr169 Zr -0.00219 0.54157 -0.00519
 Zr170 Zr -0.00122 0.45887 -0.00356
 O171 O 0.00134 0.47686 0.03642
 O172 O 0.00082 0.52574 0.03582
 O173 O 0.03940 0.47574 -0.00685
 O174 O -0.04244 0.52412 -0.00205
 O175 O 0.03846 0.52472 -0.00780
 O176 O -0.04222 0.47521 -0.00110
 H177 H -0.00529 0.46218 -0.06031
 H178 H -0.05887 0.53671 -0.00109
 H179 H 0.00251 0.46455 0.05303
 H180 H 0.05469 0.53748 -0.00913
 H181 H -0.09015 0.50479 -0.01931
 H182 H -0.08674 0.48778 0.02531
 H183 H -0.01939 0.51337 0.08360
 H184 H 0.02838 0.51481 0.08013
 H185 H 0.08685 0.48947 0.01294
 H186 H 0.08344 0.48725 -0.03472
 H187 H 0.01361 0.50984 -0.09242
 H188 H -0.05763 0.49692 -0.08765
 O189 O 1.05500 -0.04769 0.53950
 O190 O 1.02902 -0.02125 0.57005
 C191 C 1.04814 -0.03966 0.56452
 O192 O 1.04956 0.05159 0.45877
 O193 O 1.02576 0.02236 0.42929
 C194 C 1.04274 0.04283 0.43404
 O195 O 1.05402 0.05046 0.53720
 O196 O 1.02881 0.02465 0.56895
 C197 C 1.04753 0.04315 0.56256
 O198 O 1.05199 -0.05097 0.46100
 O199 O 1.02498 -0.02577 0.43027
 C200 C 1.04369 -0.04454 0.43595
 Zr201 Zr 1.03886 -0.03496 0.50022
 O202 O 1.08309 -0.03459 0.49710
 O203 O 1.03893 -0.07891 0.50389
 Zr204 Zr 1.03860 0.03534 0.49856
 O205 O 1.08259 0.03078 0.49679
 O206 O 1.04265 0.07919 0.49785
 O207 O 1.04458 0.00077 0.52425
 O208 O 1.04339 -0.00026 0.47490
 O209 O 0.95363 -0.05122 0.46285
 O210 O 0.97931 -0.02586 0.43114
 C211 C 0.96101 -0.04475 0.43750
 O212 O 0.95300 0.04979 0.53933
 O213 O 0.97978 0.02425 0.56995
 C214 C 0.96047 0.04242 0.56439
 O215 O 0.95439 0.05083 0.46065
 O216 O 0.97797 0.02223 0.43021
 C217 C 0.96065 0.04231 0.43567
 O218 O 0.95338 -0.04794 0.54142
 O219 O 0.98001 -0.02129 0.57101
 C220 C 0.96086 -0.03977 0.56615
 Zr221 Zr 0.96801 -0.03517 0.50157
 O222 O 0.92371 -0.03529 0.49977
 O223 O 0.96859 -0.07910 0.50530
 Zr224 Zr 0.96771 0.03537 0.49998
 O225 O 0.92343 0.03452 0.49775
 O226 O 0.96722 0.07940 0.50169
 Zr227 Zr 1.00395 0.00105 0.54154
 Zr228 Zr 1.00250 -0.00079 0.45859
 O229 O 0.96228 -0.00040 0.47666
 O230 O 0.96277 0.00060 0.52573
 O231 O 1.00302 -0.04107 0.47616
 O232 O 1.00354 0.04097 0.52342
 O233 O 1.00387 -0.03961 0.52527
 O234 O 1.00267 0.04022 0.47430
 H235 H 1.05950 -0.00037 0.46181
 H236 H 1.00353 0.05745 0.53582
 H237 H 0.94564 -0.00066 0.46431
 H238 H 1.00416 -0.05566 0.53831
 H239 H 1.02487 0.08705 0.50490
 H240 H 0.98018 0.08623 0.48705
 H241 H 0.91652 0.02453 0.51449
 H242 H 0.91678 -0.02339 0.51515
 H243 H 0.97937 -0.08651 0.48928
 H244 H 1.02748 -0.08637 0.48842
 H245 H 1.09009 -0.02110 0.51104
 H246 H 1.09024 0.04990 0.49553
 C247 C 1.12854 0.13414 0.27120
 N248 N 1.12184 0.16065 0.26395
 N249 N 1.13420 0.17288 0.24217
 C250 C 1.15405 0.15927 0.22698
 N251 N 1.16072 0.13272 0.23443
 N252 N 1.14808 0.12034 0.25596
 C253 C 1.11515 0.12070 0.29532
 N254 N 1.11430 0.09252 0.29734
 N255 N 1.10234 0.08027 0.31932
 C256 C 1.09118 0.09576 0.34027
 N257 N 1.09217 0.12395 0.33834
 N258 N 1.10378 0.13620 0.31616
 C259 C 1.07839 0.08218 0.36464
 N260 N 1.07614 0.09580 0.38939
 N261 N 1.06493 0.08324 0.41161
 C262 C 1.05521 0.05675 0.40973
 N263 N 1.05726 0.04324 0.38492
 N264 N 1.06883 0.05565 0.36283
 C265 C 0.87049 -0.13704 0.27870
 N266 N 0.84474 -0.12846 0.27035
 N267 N 0.83279 -0.13946 0.24780
 C268 C 0.84590 -0.15978 0.23290
 N269 N 0.87159 -0.16850 0.24159
 N270 N 0.88374 -0.15720 0.26388
 C271 C 0.88401 -0.12435 0.30304
 N272 N 0.91235 -0.12402 0.30522
 N273 N 0.92469 -0.11183 0.32693
 C274 C 0.90911 -0.09992 0.34745
 N275 N 0.88076 -0.10050 0.34542
 N276 N 0.86842 -0.11232 0.32349
 C277 C 0.92273 -0.08610 0.37109
 N278 N 0.90921 -0.08323 0.39591
 N279 N 0.92155 -0.07039 0.41726
 C280 C 0.94766 -0.05960 0.41438
 N281 N 0.96111 -0.06236 0.38952
 N282 N 0.94895 -0.07556 0.36832
 C283 C 0.86999 0.13035 0.72636
 N284 N 0.85094 0.11618 0.74189
 N285 N 0.83866 0.12816 0.76382
 C286 C 0.84523 0.15464 0.77140
 N287 N 0.86458 0.16862 0.75589
 N288 N 0.87656 0.15680 0.73371
 C289 C 0.88318 0.11728 0.70196
 N290 N 0.89373 0.13310 0.68089
 N291 N 0.90550 0.12119 0.65863
 C292 C 0.90748 0.09304 0.65685
 N293 N 0.89710 0.07724 0.67801
 N294 N 0.88497 0.08913 0.70006
 C295 C 0.92094 0.07988 0.63265
 N296 N 0.93233 0.05406 0.63497
 N297 N 0.94498 0.04221 0.61319
 C298 C 0.94631 0.05555 0.58818
 N299 N 0.93469 0.08127 0.58576
 N300 N 0.92240 0.09331 0.60768
 C301 C 1.13779 -0.13077 0.72523
 N302 N 1.13167 -0.15769 0.73129
 N303 N 1.14284 -0.17010 0.75358
 C304 C 1.16090 -0.15624 0.77052
 N305 N 1.16714 -0.12932 0.76417
 N306 N 1.15568 -0.11678 0.74211
 C307 C 1.12512 -0.11695 0.70096
 N308 N 1.12291 -0.08877 0.69997
 N309 N 1.11100 -0.07624 0.67812
 C310 C 1.10125 -0.09141 0.65631
 N311 N 1.10367 -0.11957 0.65721
 N312 N 1.11522 -0.13213 0.67923
 C313 C 1.08800 -0.07767 0.63231
 N314 N 1.08664 -0.09069 0.60720
 N315 N 1.07432 -0.07836 0.58547
 C316 C 1.06259 -0.05274 0.58818
 N317 N 1.06385 -0.03976 0.61332
 N318 N 1.07652 -0.05192 0.63495
 C319 C 0.27557 1.13702 1.13419
 N320 N 0.26897 1.16389 1.12831
 N321 N 0.24652 1.17579 1.13984
 C322 C 0.22996 1.16143 1.15800
 N323 N 0.23688 1.13459 1.16397
 N324 N 0.25908 1.12257 1.15217
 C325 C 0.29987 1.12356 1.12109
 N326 N 0.30121 1.09539 1.11931
 N327 N 0.32306 1.08302 1.10722
 C328 C 0.34456 1.09834 1.09682
 N329 N 0.34334 1.12652 1.09878
 N330 N 0.32129 1.13893 1.11054
 C331 C 0.36853 1.08452 1.08352
 N332 N 0.39368 1.09754 1.08130
 N333 N 0.41545 1.08469 1.06948
 C334 C 0.41272 1.05852 1.05914
 N335 N 0.38752 1.04562 1.06119
 N336 N 0.36589 1.05831 1.07334
 C337 C 0.27409 0.86779 0.87385
 N338 N 0.27135 0.83967 0.87327
 N339 N 0.24958 0.82793 0.86053
 C340 C 0.22988 0.84385 0.84764
 N341 N 0.23272 0.87199 0.84816
 N342 N 0.25433 0.88374 0.86116
 C343 C 0.29816 0.88074 0.88775
 N344 N 0.29761 0.90817 0.89453
 N345 N 0.31945 0.91996 0.90708
 C346 C 0.34276 0.90485 0.91303
 N347 N 0.34337 0.87744 0.90614
 N348 N 0.32140 0.86557 0.89386
 C349 C 0.36689 0.91803 0.92660
 N350 N 0.39255 0.90577 0.92606
 N351 N 0.41449 0.91806 0.93801
 C352 C 0.41146 0.94289 0.95120
 N353 N 0.38575 0.95502 0.95191
 N354 N 0.36391 0.94289 0.93971
 C355 C 0.72684 0.86859 1.13711
 N356 N 0.74653 0.88382 1.15061
 N357 N 0.76861 0.87143 1.16227
 C358 C 0.77202 0.84340 1.16060
 N359 N 0.75237 0.82820 1.14696
 N360 N 0.73010 0.84054 1.13558
 C361 C 0.70257 0.88228 1.12419
 N362 N 0.67927 0.86749 1.11772
 N363 N 0.65726 0.87996 1.10598
 C364 C 0.65789 0.90760 1.09999
 N365 N 0.68124 0.92236 1.10633
 N366 N 0.70312 0.90996 1.11838
 C367 C 0.63381 0.92125 1.08667
 N368 N 0.63694 0.94602 1.07329
 N369 N 0.61519 0.95819 1.06080
 C370 C 0.58945 0.94622 1.06155
 N371 N 0.58628 0.92156 1.07512
 N372 N 0.60811 0.90922 1.08732
 C373 C 0.72500 1.13009 0.86695
 N374 N 0.72705 1.15826 0.86591
 N375 N 0.74924 1.17037 0.85414
 C376 C 0.77005 1.15476 0.84270
 N377 N 0.76787 1.12658 0.84363
 N378 N 0.74584 1.11447 0.85566
 C379 C 0.70075 1.11668 0.88019
 N380 N 0.70186 1.08942 0.88768
 N381 N 0.67999 1.07726 0.89997
 C382 C 0.65611 1.09182 0.90492
 N383 N 0.65492 1.11904 0.89727
 N384 N 0.67690 1.13129 0.88525
 C385 C 0.63214 1.07842 0.91867
 N386 N 0.60626 1.09017 0.91767
 N387 N 0.58459 1.07804 0.93036
 C388 C 0.58809 1.05387 0.94473
 N389 N 0.61398 1.04218 0.94579
 N390 N 0.63558 1.05415 0.93286
 C391 C 0.13653 0.28231 0.13420
 N392 N 0.12029 0.26356 0.14792
 N393 N 0.13175 0.24164 0.16060
 C394 C 0.15988 0.23744 0.15986
 N395 N 0.17615 0.25626 0.14615
 N396 N 0.16470 0.27838 0.13370
 C397 C 0.12354 0.30578 0.11935
 N398 N 0.13896 0.32807 0.11106
 N399 N 0.12697 0.34915 0.09735
 C400 C 0.09922 0.34849 0.09115
 N401 N 0.08388 0.32615 0.09934
 N402 N 0.09579 0.30525 0.11329
 C403 C 0.08579 0.37149 0.07595
 N404 N 0.06040 0.36778 0.06383
 N405 N 0.04779 0.38867 0.05048
 C406 C 0.05999 0.41414 0.04898
 N407 N 0.08540 0.41789 0.06113
 N408 N 0.09816 0.39689 0.07423
 C409 C -0.13697 0.27697 -0.13521
 N410 N -0.12058 0.25847 -0.14909
 N411 N -0.13183 0.23641 -0.16156
 C412 C -0.15988 0.23184 -0.16043
 N413 N -0.17628 0.25039 -0.14654
 N414 N -0.16506 0.27265 -0.13430
 C415 C -0.12427 0.30073 -0.12075
 N416 N -0.14005 0.32284 -0.11261
 N417 N -0.12833 0.34427 -0.09938
 C418 C -0.10051 0.34416 -0.09351
 N419 N -0.08480 0.32198 -0.10153
 N420 N -0.09644 0.30073 -0.11501
 C421 C -0.08740 0.36768 -0.07902
 N422 N -0.06173 0.36472 -0.06721
 N423 N -0.04941 0.38615 -0.05463
 C424 C -0.06217 0.41140 -0.05364
 N425 N -0.08785 0.41439 -0.06546
 N426 N -0.10032 0.39286 -0.07778
 C427 C 0.13483 0.72101 -0.13919
 N428 N 0.13493 0.72555 -0.16721
 N429 N 0.14761 0.74788 -0.17793
 C430 C 0.16095 0.76631 -0.16104
 N431 N 0.16109 0.76151 -0.13306
 N432 N 0.14817 0.73937 -0.12234
 C433 C 0.11976 0.69726 -0.12701
 N434 N 0.11291 0.69732 -0.09948
 N435 N 0.09884 0.67614 -0.08826
 C436 C 0.09134 0.65397 -0.10409
 N437 N 0.09833 0.65379 -0.13162
 N438 N 0.11214 0.67515 -0.14293
 C439 C 0.07610 0.63064 -0.09133
 N440 N 0.07529 0.60528 -0.10384
 N441 N 0.06234 0.58395 -0.09149
 C442 C 0.04944 0.58733 -0.06639
 N443 N 0.05001 0.61276 -0.05410
 N444 N 0.06320 0.63397 -0.06627
 C445 C -0.13066 0.72420 0.13331
 N446 N -0.12876 0.72775 0.16138
 N447 N -0.14040 0.74982 0.17362
 C448 C -0.15466 0.76902 0.15831
 N449 N -0.15675 0.76530 0.13025
 N450 N -0.14484 0.74339 0.11797
 C451 C -0.11731 0.70022 0.11971
 N452 N -0.11253 0.70037 0.09174
 N453 N -0.10006 0.67880 0.07940
 C454 C -0.09217 0.65617 0.09454
 N455 N -0.09711 0.65594 0.12249
 N456 N -0.10931 0.67764 0.13488
 C457 C -0.07853 0.63242 0.08082
 N458 N -0.07730 0.60716 0.09359
 N459 N -0.06529 0.58554 0.08086
 C460 C -0.05378 0.58851 0.05505
 N461 N -0.05483 0.61382 0.04240
 N462 N -0.06711 0.63534 0.05499
 C463 C 1.14085 0.13528 0.71989
 N464 N 1.16006 0.12144 0.73549
 N465 N 1.17108 0.13317 0.75811
 C466 C 1.16305 0.15907 0.76637
 N467 N 1.14382 0.17290 0.75059
 N468 N 1.13308 0.16132 0.72770
 C469 C 1.12790 0.12176 0.69570
 N470 N 1.11614 0.13708 0.67490
 N471 N 1.10397 0.12460 0.65324
 C472 C 1.10274 0.09639 0.65185
 N473 N 1.11438 0.08110 0.67272
 N474 N 1.12690 0.09356 0.69415
 C475 C 1.08862 0.08255 0.62850
 N476 N 1.07796 0.05656 0.63175
 N477 N 1.06475 0.04406 0.61074
 C478 C 1.06212 0.05695 0.58561
 N479 N 1.07298 0.08285 0.58227
 N480 N 1.08583 0.09552 0.60342
 C481 C 0.86852 -0.12872 0.72657
 N482 N 0.87607 -0.15487 0.73425
 N483 N 0.86390 -0.16725 0.75602
 C484 C 0.84336 -0.15419 0.77077
 N485 N 0.83572 -0.12804 0.76282
 N486 N 0.84819 -0.11547 0.74129
 C487 C 0.88210 -0.11513 0.70268
 N488 N 0.88313 -0.08694 0.70077
 N489 N 0.89579 -0.07469 0.67915
 C490 C 0.90748 -0.09022 0.65851
 N491 N 0.90625 -0.11840 0.66033
 N492 N 0.89397 -0.13063 0.68213
 C493 C 0.92118 -0.07689 0.63454
 N494 N 0.92335 -0.09054 0.60983
 N495 N 0.93579 -0.07856 0.58798
 C496 C 0.94691 -0.05268 0.59018
 N497 N 0.94492 -0.03907 0.61495
 N498 N 0.93209 -0.05089 0.63670
 C499 C 1.13143 -0.13701 0.27515
 N500 N 1.11674 -0.15484 0.25888
 N501 N 1.12859 -0.16650 0.23656
 C502 C 1.15549 -0.16050 0.22932
 N503 N 1.17007 -0.14249 0.24567
 N504 N 1.15835 -0.13113 0.26823
 C505 C 1.11828 -0.12399 0.29958
 N506 N 1.13417 -0.11384 0.32073
 N507 N 1.12217 -0.10188 0.34283
 C508 C 1.09388 -0.09930 0.34438
 N509 N 1.07801 -0.10932 0.32316
 N510 N 1.08998 -0.12163 0.30125
 C511 C 1.08069 -0.08550 0.36835
 N512 N 1.05477 -0.07407 0.36595
 N513 N 1.04300 -0.06100 0.38752
 C514 C 1.05655 -0.05923 0.41236
 N515 N 1.08236 -0.07089 0.41485
 N516 N 1.09430 -0.08362 0.39316
 C517 C 0.86898 0.13381 0.27641
 N518 N 0.87713 0.15952 0.26793
 N519 N 0.86527 0.17152 0.24576
 C520 C 0.84451 0.15850 0.23142
 N521 N 0.83624 0.13284 0.24025
 N522 N 0.84837 0.12065 0.26215
 C523 C 0.88246 0.12028 0.30038
 N524 N 0.88256 0.09212 0.30277
 N525 N 0.89518 0.07976 0.32430
 C526 C 0.90778 0.09515 0.34442
 N527 N 0.90750 0.12333 0.34216
 N528 N 0.89524 0.13568 0.32041
 C529 C 0.92158 0.08150 0.36814
 N530 N 0.92506 0.09517 0.39269
 N531 N 0.93736 0.08263 0.41430
 C532 C 0.94700 0.05612 0.41198
 N533 N 0.94372 0.04253 0.38736
 N534 N 0.93105 0.05493 0.36589
 C535 C 0.13184 0.27477 -0.13505
 N536 N 0.13313 0.27209 -0.16326
 N537 N 0.14529 0.24989 -0.17479
 C538 C 0.15687 0.22970 -0.15853
 N539 N 0.15567 0.23252 -0.13032
 N540 N 0.14327 0.25456 -0.11880
 C541 C 0.11819 0.29899 -0.12219
 N542 N 0.11105 0.29849 -0.09473
 N543 N 0.09854 0.32034 -0.08296
 C544 C 0.09299 0.34360 -0.09814
 N545 N 0.10027 0.34418 -0.12559
 N546 N 0.11253 0.32220 -0.13744
 C547 C 0.07923 0.36761 -0.08502
 N548 N 0.07941 0.39299 -0.09759
 N549 N 0.06702 0.41475 -0.08549
 C550 C 0.05377 0.41183 -0.06051
 N551 N 0.05349 0.38642 -0.04803
 N552 N 0.06612 0.36475 -0.05999
 C553 C -0.13098 0.27744 0.13487
 N554 N -0.15916 0.27385 0.13383
 N555 N -0.17103 0.25165 0.14566
 C556 C -0.15519 0.23241 0.15926
 N557 N -0.12703 0.23616 0.16046
 N558 N -0.11513 0.25817 0.14836
 C559 C -0.11777 0.30149 0.12129
 N560 N -0.09001 0.30110 0.11510
 N561 N -0.07802 0.32271 0.10236
 C562 C -0.09328 0.34563 0.09565
 N563 N -0.12100 0.34612 0.10201
 N564 N -0.13307 0.32437 0.11446
 C565 C -0.08001 0.36933 0.08150
 N566 N -0.09233 0.39484 0.08158
 N567 N -0.08017 0.41633 0.06876
 C568 C -0.05543 0.41298 0.05512
 N569 N -0.04321 0.38744 0.05492
 N570 N -0.05519 0.36604 0.06801
 C571 C -0.13612 0.72310 -0.13835
 N572 N -0.16182 0.73190 -0.13002
 N573 N -0.17313 0.75483 -0.14096
 C574 C -0.15940 0.76970 -0.16096
 N575 N -0.13379 0.76054 -0.16946
 N576 N -0.12229 0.73784 -0.15824
 C577 C -0.12308 0.69856 -0.12552
 N578 N -0.09479 0.69574 -0.12540
 N579 N -0.08277 0.67391 -0.11305
 C580 C -0.09863 0.65390 -0.10073
 N581 N -0.12695 0.65656 -0.10108
 N582 N -0.13896 0.67862 -0.11309
 C583 C -0.08524 0.63019 -0.08674
 N584 N -0.09916 0.60581 -0.08308
 N585 N -0.08680 0.58434 -0.07037
 C586 C -0.06025 0.58667 -0.06051
 N587 N -0.04643 0.61110 -0.06403
 N588 N -0.05863 0.63241 -0.07708
 C589 C 0.12835 0.72612 0.12741
 N590 N 0.11248 0.74570 0.14041
 N591 N 0.12450 0.76728 0.15307
 C592 C 0.15280 0.77024 0.15289
 N593 N 0.16859 0.75070 0.13972
 N594 N 0.15661 0.72898 0.12734
 C595 C 0.11527 0.70214 0.11373
 N596 N 0.13075 0.67930 0.10724
 N597 N 0.11895 0.65746 0.09487
 C598 C 0.09132 0.65780 0.08826
 N599 N 0.07586 0.68069 0.09462
 N600 N 0.08759 0.70243 0.10727
 C601 C 0.07840 0.63382 0.07443
 N602 N 0.05333 0.63649 0.06136
 N603 N 0.04166 0.61476 0.04868
 C604 C 0.05450 0.58951 0.04887
 N605 N 0.07950 0.58679 0.06208
 N606 N 0.09132 0.60861 0.07449
 C607 C 0.27330 1.13064 0.87212
 N608 N 0.25261 1.14301 0.88714
 N609 N 0.23081 1.15474 0.87430
 C610 C 0.22873 1.15422 0.84599
 N611 N 0.24935 1.14163 0.83104
 N612 N 0.27129 1.13018 0.84385
 C613 C 0.29759 1.11815 0.88614
 N614 N 0.32137 1.11260 0.87156
 N615 N 0.34351 1.10137 0.88423
 C616 C 0.34257 1.09502 0.91187
 N617 N 0.31875 1.10045 0.92643
 N618 N 0.29671 1.11197 0.91383
 C619 C 0.36681 1.08217 0.92565
 N620 N 0.36382 1.06885 0.95052
 N621 N 0.38570 1.05659 0.96268
 C622 C 0.41143 1.05749 0.95057
 N623 N 0.41447 1.07103 0.92582
 N624 N 0.39252 1.08302 0.91351
 C625 C 0.27706 0.86231 1.13519
 N626 N 0.25749 0.84987 1.11896
 N627 N 0.23511 0.83792 1.13043
 C628 C 0.23127 0.83817 1.15856
 N629 N 0.25086 0.85067 1.17482
 N630 N 0.27344 0.86238 1.16335
 C631 C 0.30125 0.87606 1.12226
 N632 N 0.32432 0.88243 1.13750
 N633 N 0.34614 0.89505 1.12555
 C634 C 0.34549 0.90204 1.09804
 N635 N 0.32237 0.89577 1.08287
 N636 N 0.30072 0.88288 1.09472
 C637 C 0.36922 0.91632 1.08484
 N638 N 0.36576 0.92999 1.06023
 N639 N 0.38719 0.94311 1.04819
 C640 C 0.41293 0.94275 1.06017
 N641 N 0.41645 0.92894 1.08471
 N642 N 0.39493 0.91608 1.09692
 C643 C 0.72593 1.13432 1.13461
 N644 N 0.72977 1.13299 1.16268
 N645 N 0.75203 1.14483 1.17445
 C646 C 0.77111 1.15873 1.15862
 N647 N 0.76711 1.16024 1.13056
 N648 N 0.74502 1.14813 1.11876
 C649 C 0.70177 1.12074 1.12158
 N650 N 0.70184 1.11501 1.09381
 N651 N 0.68011 1.10227 1.08203
 C652 C 0.65738 1.09509 1.09752
 N653 N 0.65721 1.10100 1.12526
 N654 N 0.67909 1.11345 1.13711
 C655 C 0.63346 1.08111 1.08446
 N656 N 0.60803 1.08074 1.09722
 N657 N 0.58627 1.06829 1.08514
 C658 C 0.58927 1.05547 1.06006
 N659 N 0.61475 1.05567 1.04741
 N660 N 0.63641 1.06839 1.05933
 C661 C 0.72371 0.86790 0.86744
 N662 N 0.72772 0.87025 0.83945
 N663 N 0.74996 0.85860 0.82728
 C664 C 0.76881 0.84389 0.84262
 N665 N 0.76464 0.84137 0.87059
 N666 N 0.74259 0.85330 0.88280
 C667 C 0.69965 0.88127 0.88102
 N668 N 0.69986 0.88609 0.90896
 N669 N 0.67824 0.89859 0.92133
 C670 C 0.65547 0.90643 0.90627
 N671 N 0.65514 0.90143 0.87835
 N672 N 0.67693 0.88922 0.86592
 C673 C 0.63174 0.92020 0.92003
 N674 N 0.60612 0.92097 0.90775
 N675 N 0.58455 0.93321 0.92054
 C676 C 0.58795 0.94540 0.94588
 N677 N 0.61361 0.94479 0.95803
 N678 N 0.63507 0.93228 0.94542
   
