data_POSCAR
  _audit_creation_date              2014-09-24
  _audit_creation_method            'ToBaCCo'
  _symmetry_space_group_name_H-M    'P1'
  _symmetry_Int_Tables_number       1
  _symmetry_cell_setting            triclinic
  loop_
  _symmetry_equiv_pos_as_xyz
 x,y,z
_cell_length_a 20.5928
_cell_length_b 20.5980
_cell_length_c 20.6166
_cell_angle_alpha 89.999800
_cell_angle_beta 90.001600
_cell_angle_gamma 90.033400
loop_
  _atom_site_label
  _atom_site_type_symbol
  _atom_site_fract_x
  _atom_site_fract_y
  _atom_site_fract_z
C1 C 0.61917 0.33499 0.00235
 C2 C 0.66639 0.38220 0.00242
 C3 C 0.63506 0.44145 0.00163
 N4 N 0.56947 0.43161 0.00076
 C5 C 0.56009 0.36618 0.00148
 C6 C 0.67049 0.50279 0.00096
 C7 C 0.63479 0.56403 -0.00070
 C8 C 0.66623 0.62372 -0.00066
 C9 C 0.61898 0.67089 -0.00113
 C10 C 0.55932 0.63963 -0.00187
 N11 N 0.56943 0.57437 -0.00166
 C12 C 0.49823 0.67423 -0.00123
 C13 C 0.43701 0.64019 -0.00082
 C14 C 0.37740 0.67132 0.00016
 C15 C 0.32956 0.62426 0.00066
 C16 C 0.36048 0.56447 0.00001
 N17 N 0.42643 0.57465 -0.00092
 C18 C 0.32775 0.50313 0.00001
 C19 C 0.36139 0.44223 0.00051
 C20 C 0.33061 0.38268 -0.00144
 C21 C 0.37768 0.33497 -0.00120
 C22 C 0.43748 0.36630 0.00084
 N23 N 0.42670 0.43191 0.00214
 C24 C 0.49818 0.33240 0.00056
 H25 H 0.62700 0.28312 0.00296
 H26 H 0.71846 0.37406 0.00305
 H27 H 0.46313 0.46700 0.00371
 H28 H 0.71829 0.63231 0.00148
 H29 H 0.62668 0.72276 -0.00009
 H30 H 0.36890 0.72295 0.00033
 H31 H 0.27794 0.63178 0.00140
 H32 H 0.36930 0.28312 -0.00383
 H33 H 0.53505 0.53895 -0.00172
 H34 H 0.27894 0.37449 -0.00460
 C35 C 0.00308 0.62097 0.32965
 C36 C 0.00210 0.66866 0.37677
 C37 C 0.00076 0.63775 0.43636
 N38 N 0.00113 0.57190 0.42614
 C39 C 0.00240 0.56205 0.36057
 C40 C -0.00065 0.67244 0.49734
 C41 C -0.00068 0.63749 0.55802
 C42 C 0.00147 0.66841 0.61744
 C43 C 0.00048 0.62132 0.66514
 C44 C -0.00152 0.56146 0.63425
 N45 N -0.00362 0.57203 0.56878
 C46 C -0.00181 0.49983 0.66817
 C47 C -0.00220 0.43907 0.63477
 C48 C -0.00271 0.37995 0.66620
 C49 C -0.00152 0.33264 0.61876
 C50 C -0.00078 0.36386 0.55957
 N51 N -0.00137 0.42928 0.56940
 C52 C -0.00056 0.32983 0.49924
 C53 C 0.00050 0.36348 0.43750
 C54 C -0.00049 0.33217 0.37798
 C55 C 0.00070 0.37945 0.33019
 C56 C 0.00247 0.43987 0.36058
 N57 N 0.00247 0.42918 0.42625
 C58 C 0.00287 0.50135 0.32738
 H59 H 0.00400 0.62907 0.27794
 H60 H 0.00214 0.72088 0.36817
 H61 H 0.00430 0.46439 0.46246
 H62 H 0.00297 0.72003 0.62628
 H63 H 0.00276 0.62889 0.71712
 H64 H -0.00308 0.37143 0.71826
 H65 H -0.00273 0.28037 0.62719
 H66 H -0.00081 0.37174 0.27867
 H67 H -0.00735 0.53647 0.53357
 H68 H -0.00218 0.28072 0.36923
 C69 C 0.33350 0.00081 0.62222
 C70 C 0.38055 0.00095 0.66998
 C71 C 0.44007 -0.00057 0.63924
 N72 N 0.43055 -0.00191 0.57356
 C73 C 0.36509 -0.00119 0.56335
 C74 C 0.50145 -0.00157 0.67388
 C75 C 0.56243 -0.00393 0.63931
 C76 C 0.62228 -0.00648 0.67017
 C77 C 0.66968 -0.00642 0.62259
 C78 C 0.63868 -0.00338 0.56298
 N79 N 0.57316 -0.00217 0.57384
 C80 C 0.67326 -0.00176 0.50185
 C81 C 0.63880 -0.00145 0.44051
 C82 C 0.67007 0.00004 0.38100
 C83 C 0.62288 0.00009 0.33411
 C84 C 0.56350 -0.00161 0.36554
 N85 N 0.57317 -0.00305 0.43102
 C86 C 0.50243 -0.00110 0.33187
 C87 C 0.44142 -0.00317 0.36553
 C88 C 0.38201 -0.00725 0.33440
 C89 C 0.33434 -0.00728 0.38163
 C90 C 0.36537 -0.00336 0.44129
 N91 N 0.43083 -0.00007 0.43074
 C92 C 0.33147 -0.00234 0.50258
 H93 H 0.28121 0.00102 0.63018
 H94 H 0.37187 0.00158 0.72177
 H95 H 0.46580 0.00564 0.46602
 H96 H 0.63059 -0.00715 0.72183
 H97 H 0.72161 -0.00794 0.63074
 H98 H 0.72179 0.00220 0.37285
 H99 H 0.63042 0.00172 0.28234
 H100 H 0.28271 -0.01007 0.37333
 H101 H 0.53793 0.00172 0.53849
 H102 H 0.37392 -0.01126 0.28248
 O103 O 0.44750 -0.00014 -0.09400
 O104 O 0.44786 -0.00103 0.09235
 O105 O 0.44567 0.09326 -0.00043
 O106 O 0.44599 -0.09371 -0.00117
 O107 O 0.55327 -0.09389 -0.00039
 O108 O 0.55305 0.09205 -0.00039
 O109 O 0.55507 0.00054 0.09242
 O110 O 0.55487 -0.00055 -0.09409
 Cu111 Cu 0.43815 -0.00036 -0.00066
 Cu112 Cu 0.56308 -0.00043 -0.00097
 C113 C 0.50063 -0.00050 -0.12646
 C114 C 0.50148 -0.00097 0.12468
 C115 C 0.49978 0.12487 -0.00049
 C116 C 0.49957 -0.12612 -0.00118
 O117 O -0.09329 0.55597 0.99979
 O118 O 0.09341 0.55655 1.00094
 O119 O 0.00045 0.55620 0.90750
 O120 O -0.00018 0.55494 1.09261
 O121 O 0.00084 0.44786 1.09291
 O122 O -0.00040 0.44887 0.90765
 O123 O 0.09254 0.44954 1.00015
 O124 O -0.09337 0.44809 1.00081
 Cu125 Cu -0.00066 0.56443 0.99991
 Cu126 Cu -0.00038 0.43908 0.99987
 C127 C -0.12544 0.50195 1.00044
 C128 C 0.12556 0.50296 1.00058
 C129 C -0.00092 0.50204 0.87546
 C130 C 0.00123 0.50129 1.12517
 O131 O -0.00300 -0.09580 0.44582
 O132 O 0.00002 0.09002 0.44575
 O133 O 0.09221 -0.00317 0.44772
 O134 O -0.09516 -0.00215 0.44753
 O135 O -0.09362 -0.00261 0.55469
 O136 O 0.09203 -0.00349 0.55482
 O137 O 0.00011 0.09033 0.55319
 O138 O -0.00067 -0.09661 0.55307
 Cu139 Cu -0.00160 -0.00285 0.43817
 Cu140 Cu -0.00087 -0.00293 0.56299
 C141 C -0.00178 -0.12842 0.49919
 C142 C 0.00010 0.12221 0.49934
 C143 C 0.12426 -0.00333 0.50149
 C144 C -0.12676 -0.00249 0.50141
 N145 N -0.26114 0.50283 1.00025
 N146 N -0.19749 0.50214 1.00025
 N147 N 0.25954 0.49600 0.99861
 N148 N 0.19791 0.50174 0.99986
 N149 N -0.00082 -0.26200 0.49789
 N150 N -0.00120 -0.20030 0.49815
 N151 N -0.00044 0.25744 0.49811
 N152 N -0.00007 0.19428 0.49951
 N153 N 0.50186 -0.00066 -0.26055
 N154 N 0.49941 -0.00057 -0.19867
 N155 N 0.50189 -0.00107 0.25966
 N156 N 0.50170 -0.00102 0.19588
 N157 N 0.49845 -0.26007 -0.00120
 N158 N 0.49915 -0.19826 -0.00112
 N159 N 0.49676 0.25992 0.00028
 N160 N 0.50538 0.19715 0.00143
 N161 N -0.26095 -0.00130 0.50237
 N162 N -0.19905 -0.00183 0.50317
 N163 N 0.25941 -0.00269 0.50179
 N164 N 0.19619 -0.00299 0.50168
 N165 N 0.00220 0.49938 1.25917
 N166 N 0.00174 0.49944 1.19740
 N167 N -0.00146 0.50076 0.73993
 N168 N -0.00118 0.50160 0.80336
   
