data_POSCAR
  _audit_creation_date              2014-09-24
  _audit_creation_method            'ToBaCCo'
  _symmetry_space_group_name_H-M    'P1'
  _symmetry_Int_Tables_number       1
  _symmetry_cell_setting            triclinic
  loop_
  _symmetry_equiv_pos_as_xyz
 x,y,z
_cell_length_a 34.6000
_cell_length_b 21.0791
_cell_length_c 21.0159
_cell_angle_alpha 89.843200
_cell_angle_beta 90.103900
_cell_angle_gamma 89.895700
loop_
  _atom_site_label
  _atom_site_type_symbol
  _atom_site_fract_x
  _atom_site_fract_y
  _atom_site_fract_z
O1 O 0.05499 0.10800 0.11595
 O2 O 0.09710 0.05130 0.05396
 C3 C 0.08968 0.09155 0.09886
 O4 O -0.05403 -0.11752 0.10801
 O5 O -0.09632 -0.05558 0.05113
 C6 C -0.08878 -0.10049 0.09154
 O7 O 0.05451 -0.11213 0.11463
 O8 O 0.09643 -0.05458 0.05365
 C9 C 0.08932 -0.09583 0.09805
 O10 O -0.05386 0.11497 0.11010
 O11 O -0.09628 0.05463 0.05230
 C12 C -0.08866 0.09863 0.09344
 Zr13 Zr 0.00045 0.07886 0.08024
 O14 O -0.00382 0.07665 0.18072
 O15 O 0.00492 0.17897 0.08204
 Zr16 Zr 0.00034 -0.08140 0.07863
 O17 O -0.00397 -0.08217 0.17911
 O18 O 0.00478 -0.18158 0.07754
 O19 O 0.03494 -0.00154 0.09163
 O20 O -0.03319 -0.00126 0.09119
 O21 O -0.05443 0.11750 -0.10976
 O22 O -0.09653 0.05588 -0.05266
 C23 C -0.08911 0.10077 -0.09308
 O24 O 0.05421 -0.10915 -0.11858
 O25 O 0.09669 -0.05353 -0.05629
 C26 C 0.08900 -0.09342 -0.10141
 O27 O -0.05455 -0.11501 -0.11190
 O28 O -0.09663 -0.05434 -0.05378
 C29 C -0.08924 -0.09838 -0.09499
 O30 O 0.05437 0.11066 -0.11681
 O31 O 0.09685 0.05242 -0.05639
 C32 C 0.08918 0.09377 -0.10044
 Zr33 Zr -0.00000 0.08081 -0.08090
 O34 O -0.00482 0.08153 -0.18134
 O35 O 0.00450 0.18095 -0.08048
 Zr36 Zr -0.00005 -0.07949 -0.08237
 O37 O -0.00480 -0.07768 -0.18281
 O38 O 0.00437 -0.17965 -0.08367
 Zr39 Zr 0.05765 -0.00034 -0.00145
 Zr40 Zr -0.05712 -0.00003 -0.00089
 O41 O -0.03365 0.00093 -0.09314
 O42 O 0.03443 0.00069 -0.09429
 O43 O -0.03411 0.09248 -0.00006
 O44 O 0.03370 -0.09208 -0.00209
 O45 O 0.03374 0.09149 -0.00040
 O46 O -0.03424 -0.09278 -0.00185
 H47 H -0.05078 -0.00162 0.12834
 H48 H 0.05116 -0.12939 -0.00237
 H49 H -0.05143 0.00145 -0.13016
 H50 H 0.05133 0.12852 -0.00019
 H51 H -0.01688 -0.19787 0.05155
 H52 H -0.01682 -0.19661 -0.05711
 H53 H 0.01708 -0.05246 -0.19935
 H54 H 0.01690 0.05621 -0.19838
 H55 H -0.01663 0.19747 -0.05354
 H56 H -0.01606 0.19616 0.05500
 H57 H 0.01846 0.05205 0.19709
 H58 H 0.01759 -0.05642 0.19597
 O59 O 0.55390 0.61146 0.61311
 O60 O 0.59664 0.55424 0.55267
 C61 C 0.58879 0.59511 0.59686
 O62 O 0.44574 0.38555 0.60919
 O63 O 0.40320 0.44584 0.55117
 C64 C 0.41093 0.40183 0.59249
 O65 O 0.55381 0.39218 0.61595
 O66 O 0.59623 0.44868 0.55445
 C67 C 0.58857 0.40845 0.59941
 O68 O 0.44534 0.61850 0.60612
 O69 O 0.40302 0.55668 0.54970
 C70 C 0.41060 0.60157 0.58989
 Zr71 Zr 0.49948 0.58193 0.57670
 O72 O 0.49540 0.58563 0.67711
 O73 O 0.50137 0.68189 0.56945
 Zr74 Zr 0.49976 0.42178 0.57869
 O75 O 0.49515 0.42283 0.67913
 O76 O 0.50450 0.32161 0.57930
 O77 O 0.53407 0.50206 0.59052
 O78 O 0.46595 0.50187 0.58921
 O79 O 0.44548 0.61724 0.38624
 O80 O 0.40311 0.55581 0.44299
 C81 C 0.41071 0.60038 0.40227
 O82 O 0.55420 0.39003 0.38226
 O83 O 0.59638 0.44761 0.44310
 C84 C 0.58891 0.40658 0.39893
 O85 O 0.44609 0.38351 0.38811
 O86 O 0.40336 0.44471 0.44428
 C87 C 0.41124 0.39998 0.40411
 O88 O 0.55361 0.61088 0.38017
 O89 O 0.59611 0.55426 0.44193
 C90 C 0.58840 0.59464 0.39702
 Zr91 Zr 0.49958 0.58048 0.41647
 O92 O 0.49519 0.57881 0.31597
 O93 O 0.50301 0.68071 0.41565
 Zr94 Zr 0.50006 0.42039 0.41807
 O95 O 0.49565 0.42028 0.31757
 O96 O 0.50482 0.32024 0.41934
 Zr97 Zr 0.55744 0.50134 0.49794
 Zr98 Zr 0.44192 0.50078 0.49720
 O99 O 0.46611 0.50022 0.40540
 O100 O 0.53439 0.50051 0.40498
 O101 O 0.46491 0.59325 0.49633
 O102 O 0.53361 0.40958 0.49877
 O103 O 0.53330 0.59296 0.49672
 O104 O 0.46541 0.40840 0.49831
 H105 H 0.44852 0.50225 0.62657
 H106 H 0.55118 0.37241 0.49932
 H107 H 0.44861 0.49996 0.36802
 H108 H 0.55075 0.63020 0.49649
 H109 H 0.48274 0.30461 0.55403
 H110 H 0.48337 0.30365 0.44555
 H111 H 0.51738 0.44564 0.30071
 H112 H 0.51728 0.55390 0.29965
 H113 H 0.48533 0.69642 0.44907
 H114 H 0.50162 0.69802 0.61370
 H115 H 0.51537 0.55680 0.69454
 H116 H 0.51662 0.44893 0.69574
 C117 C 0.18633 0.17824 0.19418
 C118 C 0.19232 0.13206 0.14712
 C119 C 0.16097 0.10370 0.11648
 C120 C 0.12287 0.12092 0.13216
 C121 C 0.11690 0.16678 0.17961
 C122 C 0.14828 0.19510 0.21026
 C123 C 0.21966 0.20927 0.22583
 C124 C 0.21899 0.22166 0.29149
 C125 C 0.25020 0.25161 0.32104
 C126 C 0.28276 0.26983 0.28556
 C127 C 0.28348 0.25719 0.21995
 C128 C 0.25229 0.22725 0.19042
 C129 C 0.31571 0.30243 0.31668
 C130 C 0.35395 0.28721 0.30018
 C131 C 0.38496 0.31861 0.32872
 C132 C 0.37843 0.36606 0.37437
 C133 C 0.34014 0.38099 0.39114
 C134 C 0.30916 0.34951 0.36263
 H135 H 0.22129 0.11743 0.13434
 H136 H 0.16667 0.06830 0.08042
 H137 H 0.08796 0.18125 0.19281
 H138 H 0.14276 0.23109 0.24579
 H139 H 0.19450 0.20749 0.32019
 H140 H 0.24906 0.25985 0.37184
 H141 H 0.30788 0.27158 0.19117
 H142 H 0.25339 0.21928 0.13958
 H143 H 0.35992 0.25054 0.26556
 H144 H 0.41405 0.30572 0.31486
 H145 H 0.33401 0.41727 0.42611
 H146 H 0.28001 0.36282 0.37578
 C147 C 0.81455 0.80426 0.17819
 C148 C 0.85260 0.78822 0.19551
 C149 C 0.88401 0.81883 0.16722
 C150 C 0.87806 0.86617 0.12095
 C151 C 0.83997 0.88177 0.10328
 C152 C 0.80861 0.85119 0.13158
 C153 C 0.78114 0.77270 0.20909
 C154 C 0.74833 0.80800 0.22644
 C155 C 0.71697 0.77852 0.25594
 C156 C 0.71769 0.71307 0.26877
 C157 C 0.75046 0.67772 0.25128
 C158 C 0.78185 0.70721 0.22177
 C159 C 0.68452 0.68199 0.30084
 C160 C 0.69078 0.63594 0.34822
 C161 C 0.65960 0.60747 0.37922
 C162 C 0.62140 0.62436 0.36351
 C163 C 0.61515 0.67010 0.31577
 C164 C 0.64636 0.69862 0.28483
 H165 H 0.85807 0.75276 0.23181
 H166 H 0.91294 0.80570 0.18203
 H167 H 0.83428 0.91772 0.06753
 H168 H 0.77966 0.86391 0.11655
 H169 H 0.74719 0.85871 0.21826
 H170 H 0.69241 0.80722 0.26980
 H171 H 0.75163 0.62704 0.25969
 H172 H 0.80648 0.67860 0.20810
 H173 H 0.71984 0.62269 0.36216
 H174 H 0.66553 0.57243 0.41576
 H175 H 0.58613 0.68407 0.30229
 H176 H 0.64061 0.73332 0.24791
 C177 C 0.81421 0.19728 0.82057
 C178 C 0.80826 0.15027 0.86704
 C179 C 0.83962 0.11926 0.89529
 C180 C 0.87770 0.13451 0.87767
 C181 C 0.88364 0.18193 0.83156
 C182 C 0.85224 0.21296 0.80335
 C183 C 0.78084 0.22924 0.78960
 C184 C 0.78166 0.29474 0.77700
 C185 C 0.75037 0.32457 0.74719
 C186 C 0.71759 0.28954 0.72932
 C187 C 0.71674 0.22409 0.74210
 C188 C 0.74801 0.19428 0.77191
 C189 C 0.68452 0.32094 0.69692
 C190 C 0.64633 0.30463 0.71259
 C191 C 0.61520 0.33326 0.68125
 C192 C 0.62154 0.37883 0.63344
 C193 C 0.65976 0.39550 0.61814
 C194 C 0.69088 0.36689 0.64955
 H195 H 0.77931 0.13780 0.88197
 H196 H 0.83395 0.08325 0.93091
 H197 H 0.91255 0.19481 0.81679
 H198 H 0.85772 0.24845 0.76714
 H199 H 0.80631 0.32308 0.79093
 H200 H 0.75162 0.37523 0.73881
 H201 H 0.69217 0.19564 0.72795
 H202 H 0.74679 0.14357 0.78002
 H203 H 0.64051 0.27003 0.74951
 H204 H 0.58616 0.31948 0.69445
 H205 H 0.66574 0.43042 0.58158
 H206 H 0.71997 0.37992 0.63591
 C207 C 0.18489 0.81906 0.80202
 C208 C 0.19130 0.86439 0.84976
 C209 C 0.16020 0.89290 0.88097
 C210 C 0.12196 0.87676 0.86508
 C211 C 0.11558 0.83171 0.81701
 C212 C 0.14670 0.80316 0.78588
 C213 C 0.21792 0.78801 0.76958
 C214 C 0.21702 0.72274 0.75626
 C215 C 0.24820 0.69330 0.72620
 C216 C 0.28100 0.72847 0.70876
 C217 C 0.28189 0.79378 0.72195
 C218 C 0.25069 0.82323 0.75203
 C219 C 0.31426 0.69693 0.67739
 C220 C 0.35236 0.71241 0.69455
 C221 C 0.38364 0.68178 0.66592
 C222 C 0.37752 0.63497 0.61948
 C223 C 0.33938 0.61993 0.60193
 C224 C 0.30813 0.65056 0.63057
 H225 H 0.22040 0.87706 0.86377
 H226 H 0.16620 0.92740 0.91777
 H227 H 0.08653 0.81833 0.80337
 H228 H 0.14085 0.76903 0.74869
 H229 H 0.19246 0.69414 0.77014
 H230 H 0.24693 0.64271 0.71765
 H231 H 0.30652 0.82230 0.70823
 H232 H 0.25198 0.87378 0.76082
 H233 H 0.35798 0.74740 0.73102
 H234 H 0.41262 0.69446 0.68067
 H235 H 0.33358 0.58440 0.56604
 H236 H 0.27912 0.63829 0.61567
 C237 C 0.18548 0.18220 0.80448
 C238 C 0.19166 0.13551 0.85127
 C239 C 0.16044 0.10665 0.88183
 C240 C 0.12224 0.12385 0.86638
 C241 C 0.11607 0.17028 0.81926
 C242 C 0.14733 0.19909 0.78866
 C243 C 0.21873 0.21355 0.77272
 C244 C 0.21780 0.22665 0.70712
 C245 C 0.24902 0.25648 0.67742
 C246 C 0.28189 0.27393 0.71265
 C247 C 0.28283 0.26073 0.77824
 C248 C 0.25163 0.23089 0.80791
 C249 C 0.31498 0.30613 0.68128
 C250 C 0.35321 0.29044 0.69782
 C251 C 0.38434 0.32126 0.66891
 C252 C 0.37797 0.36860 0.62277
 C253 C 0.33970 0.38404 0.60599
 C254 C 0.30860 0.35316 0.63489
 H255 H 0.22069 0.12080 0.86386
 H256 H 0.16631 0.07083 0.91763
 H257 H 0.08707 0.18477 0.80622
 H258 H 0.14164 0.23544 0.75334
 H259 H 0.19312 0.21302 0.67854
 H260 H 0.24766 0.26512 0.62665
 H261 H 0.30744 0.27452 0.80691
 H262 H 0.25297 0.22239 0.85871
 H263 H 0.35909 0.25378 0.73274
 H264 H 0.41340 0.30796 0.68281
 H265 H 0.33368 0.42027 0.57068
 H266 H 0.27950 0.36689 0.62166
 C267 C 0.81405 0.80693 0.81735
 C268 C 0.80806 0.85381 0.86374
 C269 C 0.83941 0.88431 0.89234
 C270 C 0.87753 0.86870 0.87514
 C271 C 0.88350 0.82155 0.82897
 C272 C 0.85213 0.79103 0.80044
 C273 C 0.78070 0.77515 0.78630
 C274 C 0.78163 0.70970 0.77372
 C275 C 0.75041 0.68000 0.74388
 C276 C 0.71753 0.71505 0.72591
 C277 C 0.71656 0.78046 0.73871
 C278 C 0.74776 0.81015 0.76856
 C279 C 0.68451 0.68369 0.69349
 C280 C 0.64624 0.70011 0.70874
 C281 C 0.61519 0.67123 0.67764
 C282 C 0.62167 0.62527 0.63046
 C283 C 0.65997 0.60860 0.61547
 C284 C 0.69100 0.63746 0.64662
 H285 H 0.77909 0.86650 0.87844
 H286 H 0.83369 0.92015 0.92795
 H287 H 0.91244 0.80839 0.81449
 H288 H 0.85768 0.75568 0.76429
 H289 H 0.80633 0.68126 0.78769
 H290 H 0.75179 0.62937 0.73560
 H291 H 0.69193 0.80898 0.72453
 H292 H 0.74642 0.86081 0.77666
 H293 H 0.64028 0.73492 0.74524
 H294 H 0.58610 0.68507 0.69058
 H295 H 0.66608 0.57342 0.57937
 H296 H 0.72013 0.62433 0.63322
 C297 C 0.18367 0.81826 0.19011
 C298 C 0.14566 0.80222 0.20694
 C299 C 0.11414 0.83088 0.17650
 C300 C 0.11974 0.87661 0.12812
 C301 C 0.15814 0.89271 0.11184
 C302 C 0.18951 0.86394 0.14238
 C303 C 0.21717 0.78718 0.22188
 C304 C 0.24982 0.76911 0.18652
 C305 C 0.28129 0.73969 0.21624
 C306 C 0.28087 0.72759 0.28204
 C307 C 0.24824 0.74574 0.31744
 C308 C 0.21676 0.77519 0.28771
 C309 C 0.31419 0.69570 0.31346
 C310 C 0.30813 0.64925 0.36046
 C311 C 0.33942 0.61854 0.38936
 C312 C 0.37758 0.63359 0.37201
 C313 C 0.38364 0.68038 0.32528
 C314 C 0.35231 0.71101 0.29631
 H315 H 0.14022 0.76662 0.24305
 H316 H 0.08540 0.81659 0.19098
 H317 H 0.16429 0.92771 0.07539
 H318 H 0.21847 0.87804 0.12901
 H319 H 0.25077 0.77672 0.13557
 H320 H 0.30570 0.72534 0.18747
 H321 H 0.24728 0.73794 0.36836
 H322 H 0.19230 0.78941 0.31643
 H323 H 0.27911 0.63583 0.37418
 H324 H 0.33361 0.58276 0.42516
 H325 H 0.41262 0.69333 0.31089
 H326 H 0.35795 0.74719 0.26087
 C327 C 0.81500 0.19391 0.18158
 C328 C 0.80885 0.14729 0.13499
 C329 C 0.84008 0.11662 0.10626
 C330 C 0.87827 0.13180 0.12347
 C331 C 0.88441 0.17874 0.16981
 C332 C 0.85314 0.20944 0.19850
 C333 C 0.78173 0.22581 0.21275
 C334 C 0.78267 0.29121 0.22554
 C335 C 0.75140 0.32106 0.25511
 C336 C 0.71847 0.28619 0.27259
 C337 C 0.71754 0.22079 0.25978
 C338 C 0.74879 0.19096 0.23020
 C339 C 0.68527 0.31773 0.30434
 C340 C 0.64711 0.30145 0.28828
 C341 C 0.61586 0.33043 0.31872
 C342 C 0.62203 0.37638 0.36602
 C343 C 0.66023 0.39295 0.38180
 C344 C 0.69146 0.36397 0.35130
 H345 H 0.77982 0.13491 0.12025
 H346 H 0.83422 0.08098 0.07052
 H347 H 0.91341 0.19157 0.18430
 H348 H 0.85882 0.24461 0.23476
 H349 H 0.80739 0.31953 0.21182
 H350 H 0.75276 0.37168 0.26346
 H351 H 0.69289 0.19239 0.27362
 H352 H 0.74745 0.14033 0.22198
 H353 H 0.64137 0.26667 0.25166
 H354 H 0.58686 0.31669 0.30515
 H355 H 0.66609 0.42812 0.41802
 H356 H 0.72051 0.37702 0.36528
   
