data_POSCAR
  _audit_creation_date              2014-09-24
  _audit_creation_method            'ToBaCCo'
  _symmetry_space_group_name_H-M    'P1'
  _symmetry_Int_Tables_number       1
  _symmetry_cell_setting            triclinic
  loop_
  _symmetry_equiv_pos_as_xyz
 x,y,z
_cell_length_a 28.4315
_cell_length_b 28.4073
_cell_length_c 28.3061
_cell_angle_alpha 92.385200
_cell_angle_beta 89.552000
_cell_angle_gamma 88.811300
loop_
  _atom_site_label
  _atom_site_type_symbol
  _atom_site_fract_x
  _atom_site_fract_y
  _atom_site_fract_z
C1 C 0.00636 0.45834 0.22490
 C2 C 0.04947 0.46219 0.25660
 C3 C 0.05038 0.50178 0.28526
 C4 C 0.00743 0.53518 0.27917
 C5 C -0.03570 0.46444 0.25858
 C6 C -0.03556 0.50409 0.28688
 C7 C 0.00615 0.50419 0.19760
 C8 C 0.00675 0.54458 0.22575
 H9 H 0.07784 0.43609 0.25520
 H10 H 0.00795 0.56720 0.30296
 H11 H -0.06472 0.44026 0.25828
 H12 H 0.00358 0.50522 0.15968
 C13 C 0.00722 0.43732 0.77166
 C14 C -0.03180 0.43957 0.73932
 C15 C -0.03137 0.47868 0.70926
 C16 C 0.00881 0.50964 0.71847
 C17 C 0.04916 0.43924 0.74266
 C18 C 0.05079 0.47867 0.71310
 C19 C 0.00461 0.48243 0.79837
 C20 C 0.00615 0.52310 0.76940
 H21 H -0.06195 0.41705 0.74227
 H22 H 0.00992 0.53880 0.69395
 H23 H 0.07942 0.41622 0.74799
 H24 H -0.00690 0.48557 0.83476
 C25 C 0.22665 -0.00089 0.44390
 C26 C 0.24972 0.04702 0.44827
 C27 C 0.27426 0.05511 0.48868
 C28 C 0.27423 0.01301 0.52176
 C29 C 0.26653 -0.03676 0.45033
 C30 C 0.29144 -0.03022 0.49068
 C31 C 0.19695 -0.00366 0.48940
 C32 C 0.22134 0.00420 0.53035
 H33 H 0.24581 0.07303 0.42155
 H34 H 0.29508 0.01922 0.55429
 H35 H 0.27141 -0.06784 0.42712
 H36 H 0.16080 -0.01444 0.48973
 C37 C 0.76565 0.01470 0.45094
 C38 C 0.74707 -0.03218 0.45187
 C39 C 0.71984 -0.04128 0.49308
 C40 C 0.71552 -0.00014 0.52586
 C41 C 0.72302 0.04813 0.45762
 C42 C 0.69671 0.04053 0.49666
 C43 C 0.79272 0.02157 0.49747
 C44 C 0.76672 0.01310 0.53686
 H45 H 0.75146 -0.05710 0.42209
 H46 H 0.69416 -0.00535 0.55790
 H47 H 0.71841 0.07982 0.43798
 H48 H 0.82867 0.03323 0.49911
 C49 C 0.44090 0.22144 0.99346
 C50 C 0.44097 0.25429 1.03371
 C51 C 0.48242 0.28155 1.03914
 C52 C 0.51549 0.27318 0.99871
 C53 C 0.44761 0.24989 0.95287
 C54 C 0.48862 0.27842 0.95431
 C55 C 0.48497 0.19402 0.99621
 C56 C 0.52683 0.22213 0.99925
 H57 H 0.41090 0.25843 1.05739
 H58 H 0.54634 0.29600 1.00118
 H59 H 0.42313 0.24942 0.92376
 H60 H 0.48714 0.15677 0.98700
 C61 C 0.45250 0.77599 1.00350
 C62 C 0.45580 0.73272 0.96974
 C63 C 0.49507 0.70559 0.97461
 C64 C 0.52799 0.72433 1.01358
 C65 C 0.45762 0.75687 1.05278
 C66 C 0.49683 0.72970 1.05826
 C67 C 0.49592 0.80085 0.99527
 C68 C 0.53812 0.77281 1.00130
 H69 H 0.43216 0.72775 0.94014
 H70 H 0.55850 0.70053 1.01902
 H71 H 0.43167 0.76356 1.08063
 H72 H 0.49666 0.83469 0.97959
 B73 B 0.98949 1.04256 0.02153
 B74 B 0.98715 1.03939 -0.03916
 B75 B 1.03787 1.02256 -0.01099
 B76 B 1.02209 0.99404 0.03911
 B77 B 0.96172 0.99382 0.04237
 B78 B 0.93943 1.02161 -0.00604
 B79 B 0.99013 0.94104 -0.03879
 B80 B 0.99234 0.94390 0.02207
 B81 B 0.94174 0.96095 -0.00618
 B82 B 0.95738 0.98952 -0.05625
 B83 B 1.01784 0.98973 -0.05977
 B84 B 1.03984 0.96203 -0.01106
 B85 B 0.55430 0.50106 0.47183
 B86 B 0.55958 0.50336 0.53220
 B87 B 0.54042 0.55266 0.50380
 B88 B 0.50545 0.53379 0.45694
 B89 B 0.50248 0.47330 0.45761
 B90 B 0.53529 0.45439 0.50431
 B91 B 0.46140 0.51103 0.54140
 B92 B 0.45626 0.50843 0.48061
 B93 B 0.47486 0.45927 0.50973
 B94 B 0.51035 0.47789 0.55652
 B95 B 0.51329 0.53816 0.55556
 B96 B 0.48035 0.55761 0.50887
 C97 C 0.99791 1.32088 0.15241
 C98 C 1.00211 1.32523 0.20148
 C99 C 1.00562 1.36968 0.22384
 C100 C 1.00500 1.41088 0.19766
 C101 C 1.00128 1.40599 0.14802
 C102 C 0.99778 1.36126 0.12568
 C103 C 0.99400 1.27480 0.12984
 C104 C 0.99131 1.23584 0.11163
 C105 C 0.98936 1.18922 0.08990
 C106 C 1.01148 1.17954 0.04656
 C107 C 1.01191 1.13398 0.02630
 C108 C 0.98983 1.09599 0.04798
 C109 C 0.96808 1.10724 0.09243
 C110 C 0.96778 1.15293 0.11297
 H111 H 1.00241 1.29425 0.22256
 H112 H 1.00827 1.37206 0.26202
 H113 H 1.00054 1.43605 0.12602
 H114 H 0.99470 1.35819 0.08755
 H115 H 1.02944 1.20708 0.02867
 H116 H 1.03213 1.12911 -0.00562
 H117 H 0.95319 1.08106 0.11332
 H118 H 0.95139 1.15966 0.14734
 C119 C 0.99729 0.68224 0.16651
 C120 C 1.02030 0.64476 0.14163
 C121 C 1.02412 0.60044 0.16121
 C122 C 1.00480 0.59259 0.20614
 C123 C 0.98262 0.63078 0.23137
 C124 C 0.97878 0.67520 0.21163
 C125 C 0.99318 0.72765 0.14536
 C126 C 0.99109 0.76494 0.12621
 C127 C 0.99083 0.80865 0.10172
 C128 C 0.95320 0.84088 0.10595
 C129 C 0.95394 0.88287 0.08151
 C130 C 0.99253 0.89497 0.05273
 C131 C 1.02902 0.86051 0.04841
 C132 C 1.02859 0.81865 0.07257
 H133 H 1.03524 0.64975 0.10691
 H134 H 1.04249 0.57241 0.14111
 H135 H 0.96726 0.62630 0.26590
 H136 H 0.96107 0.70391 0.23142
 H137 H 0.92313 0.83364 0.12803
 H138 H 0.92407 0.90574 0.08648
 H139 H 1.05887 0.86492 0.02700
 H140 H 1.05797 0.79388 0.06821
 C141 C 1.00848 1.30757 -0.15859
 C142 C 1.00495 1.30839 -0.20749
 C143 C 1.00475 1.35105 -0.22943
 C144 C 1.00738 1.39423 -0.20283
 C145 C 1.01269 1.39257 -0.15326
 C146 C 1.01274 1.34938 -0.13136
 C147 C 1.00633 1.26326 -0.13713
 C148 C 1.00315 1.22494 -0.12160
 C149 C 0.99795 1.17887 -0.10468
 C150 C 1.03328 1.14492 -0.11237
 C151 C 1.02815 1.10031 -0.09472
 C152 C 0.98777 1.08796 -0.06888
 C153 C 0.95203 1.12306 -0.06390
 C154 C 0.95685 1.16768 -0.08142
 H155 H 1.00203 1.27597 -0.22876
 H156 H 1.00229 1.35044 -0.26765
 H157 H 1.01745 1.42382 -0.13097
 H158 H 1.01608 1.34860 -0.09329
 H159 H 1.06518 1.15306 -0.13129
 H160 H 1.05690 1.07647 -0.10107
 H161 H 0.92018 1.11776 -0.04603
 H162 H 0.92868 1.19371 -0.07602
 C163 C 1.00116 0.66299 -0.17046
 C164 C 1.01058 0.62490 -0.14228
 C165 C 1.01251 0.57913 -0.16218
 C166 C 1.00472 0.57011 -0.21107
 C167 C 0.99606 0.60941 -0.23914
 C168 C 0.99414 0.65523 -0.21892
 C169 C 0.99884 0.70995 -0.14937
 C170 C 0.99700 0.74902 -0.13108
 C171 C 0.99497 0.79558 -0.10906
 C172 C 0.97264 0.80366 -0.06544
 C173 C 0.97038 0.84903 -0.04441
 C174 C 0.99072 0.88810 -0.06585
 C175 C 1.01232 0.87839 -0.11062
 C176 C 1.01452 0.83311 -0.13173
 H177 H 1.01671 0.63056 -0.10474
 H178 H 1.02153 0.55134 -0.13877
 H179 H 0.98948 0.60576 -0.27650
 H180 H 0.98688 0.68462 -0.24115
 H181 H 0.95641 0.77496 -0.04776
 H182 H 0.95060 0.85292 -0.01199
 H183 H 1.02573 0.90535 -0.13144
 H184 H 1.03113 0.82757 -0.16616
 C185 C 1.16050 0.98471 0.30651
 C186 C 1.20941 0.98392 0.31052
 C187 C 1.23005 0.98795 0.35501
 C188 C 1.20217 0.99233 0.39647
 C189 C 1.15280 0.99339 0.39184
 C190 C 1.13224 0.98938 0.34717
 C191 C 1.13940 0.98364 0.26055
 C192 C 1.12159 0.98427 0.22214
 C193 C 1.09969 0.98703 0.17678
 C194 C 1.10244 0.94940 0.14374
 C195 C 1.07980 0.95252 0.10029
 C196 C 1.05399 0.99334 0.08788
 C197 C 1.05248 1.03060 0.12248
 C198 C 1.07497 1.02778 0.16585
 H199 H 1.23163 0.98104 0.27922
 H200 H 1.26807 0.98828 0.35710
 H201 H 1.12962 0.99864 0.42202
 H202 H 1.09426 0.99088 0.34429
 H203 H 1.12169 0.91739 0.15163
 H204 H 1.08335 0.92244 0.07677
 H205 H 1.03398 1.06244 0.11748
 H206 H 1.07245 1.05742 0.19120
 C207 C 1.15290 0.99784 -0.33323
 C208 C 1.20117 0.98749 -0.33796
 C209 C 1.22378 0.99042 -0.38194
 C210 C 1.19834 1.00333 -0.42204
 C211 C 1.15004 1.01482 -0.41644
 C212 C 1.12760 1.01193 -0.37255
 C213 C 1.12914 0.99405 -0.28824
 C214 C 1.10903 0.99110 -0.25070
 C215 C 1.08550 0.98805 -0.20550
 C216 C 1.10762 0.96533 -0.16888
 C217 C 1.08667 0.96528 -0.12404
 C218 C 1.04274 0.98811 -0.11349
 C219 C 1.02078 1.00981 -0.15215
 C220 C 1.04172 1.00991 -0.19710
 H221 H 1.22128 0.97681 -0.30772
 H222 H 1.26090 0.98163 -0.38446
 H223 H 1.12939 1.02637 -0.44591
 H224 H 1.09038 1.02059 -0.36935
 H225 H 1.14202 0.94878 -0.17447
 H226 H 1.10768 0.95042 -0.09755
 H227 H 0.98866 1.03002 -0.14783
 H228 H 1.02419 1.02832 -0.22497
 C229 C 0.84298 1.02191 0.31980
 C230 C 0.79595 1.03678 0.32233
 C231 C 0.77145 1.03595 0.36497
 C232 C 0.79399 1.02119 0.40617
 C233 C 0.84148 1.00602 0.40297
 C234 C 0.86591 1.00676 0.36007
 C235 C 0.86593 1.01829 0.27476
 C236 C 0.88313 1.01430 0.23600
 C237 C 0.90168 1.00874 0.18909
 C238 C 0.87647 1.02639 0.15163
 C239 C 0.89378 1.02000 0.10562
 C240 C 0.93729 0.99640 0.09545
 C241 C 0.96026 0.97657 0.13441
 C242 C 0.94315 0.98307 0.18045
 H243 H 0.77771 1.04745 0.29091
 H244 H 0.73435 1.04516 0.36498
 H245 H 0.85933 0.99194 0.43307
 H246 H 0.90211 0.99411 0.35797
 H247 H 0.84301 1.04467 0.15784
 H248 H 0.87118 1.03192 0.07877
 H249 H 0.99099 0.95430 0.13015
 H250 H 0.96206 0.96748 0.20920
 C251 C 0.82354 1.01031 -0.32354
 C252 C 0.77642 1.02333 -0.32969
 C253 C 0.75799 1.02499 -0.37515
 C254 C 0.78663 1.01377 -0.41497
 C255 C 0.83415 1.00109 -0.40824
 C256 C 0.85245 0.99943 -0.36278
 C257 C 0.84218 1.00691 -0.27698
 C258 C 0.85863 1.00338 -0.23833
 C259 C 0.87942 0.99861 -0.19288
 C260 C 0.90425 0.95760 -0.18304
 C261 C 0.92692 0.95393 -0.13985
 C262 C 0.92541 0.99062 -0.10465
 C263 C 0.89935 1.03152 -0.11604
 C264 C 0.87657 1.03549 -0.15915
 H265 H 0.75383 1.03180 -0.29938
 H266 H 0.72141 1.03515 -0.37877
 H267 H 0.85695 0.99117 -0.43795
 H268 H 0.88896 0.98902 -0.35822
 H269 H 0.90689 0.92860 -0.20911
 H270 H 0.94542 0.92193 -0.13545
 H271 H 0.89607 1.06129 -0.09228
 H272 H 0.85743 1.06776 -0.16638
 C273 C 1.30825 1.15235 -0.00312
 C274 C 1.31112 1.19901 -0.01606
 C275 C 1.35460 1.22060 -0.01798
 C276 C 1.39692 1.19584 -0.00786
 C277 C 1.39315 1.14872 0.00610
 C278 C 1.34926 1.12720 0.00794
 C279 C 1.26290 1.13085 -0.00147
 C280 C 1.22436 1.11391 -0.00157
 C281 C 1.17831 1.09389 -0.00401
 C282 C 1.16492 1.06935 -0.04497
 C283 C 1.12068 1.04928 -0.04787
 C284 C 1.08745 1.05288 -0.01047
 C285 C 1.10221 1.07884 0.03046
 C286 C 1.14661 1.09912 0.03369
 H287 H 1.27957 1.21903 -0.02422
 H288 H 1.35504 1.25740 -0.02657
 H289 H 1.42339 1.12845 0.01707
 H290 H 1.34728 1.09111 0.01862
 H291 H 1.18896 1.06520 -0.07485
 H292 H 1.11398 1.03108 -0.08004
 H293 H 1.08003 1.08399 0.06069
 H294 H 1.15623 1.11850 0.06583
 C295 C 0.66434 1.15833 0.00129
 C296 C 0.65866 1.20553 -0.01040
 C297 C 0.61369 1.22699 -0.01077
 C298 C 0.57305 1.20153 0.00036
 C299 C 0.57980 1.15401 0.01257
 C300 C 0.62470 1.13286 0.01295
 C301 C 0.71055 1.13567 0.00108
 C302 C 0.74888 1.11613 0.00087
 C303 C 0.79472 1.09271 0.00044
 C304 C 0.83296 1.11450 0.02190
 C305 C 0.87765 1.09278 0.01999
 C306 C 0.88642 1.04834 -0.00363
 C307 C 0.84644 1.02707 -0.02456
 C308 C 0.80167 1.04873 -0.02264
 H309 H 0.68901 1.22573 -0.01975
 H310 H 0.61141 1.26292 -0.02167
 H311 H 0.55071 1.13288 0.02326
 H312 H 0.62845 1.09644 0.02252
 H313 H 0.82854 1.14894 0.03948
 H314 H 0.90518 1.11308 0.03481
 H315 H 0.84930 0.99457 -0.04515
 H316 H 0.77257 1.03137 -0.04007
 C317 C 1.31635 0.84208 -0.01536
 C318 C 1.32051 0.79500 -0.00396
 C319 C 1.36468 0.77499 0.00294
 C320 C 1.40564 0.80157 -0.00189
 C321 C 1.40087 0.84956 -0.01230
 C322 C 1.35629 0.86958 -0.01911
 C323 C 1.27056 0.86236 -0.02036
 C324 C 1.23152 0.87862 -0.02226
 C325 C 1.18509 0.89833 -0.02125
 C326 C 1.14797 0.87400 -0.04174
 C327 C 1.10228 0.89268 -0.03764
 C328 C 1.09235 0.93634 -0.01314
 C329 C 1.13117 0.95863 0.00861
 C330 C 1.17661 0.94035 0.00426
 H331 H 1.28956 0.77377 -0.00022
 H332 H 1.36707 0.73821 0.01157
 H333 H 1.43073 0.87208 -0.01508
 H334 H 1.35295 0.90649 -0.02701
 H335 H 1.15414 0.84027 -0.06029
 H336 H 1.07540 0.87139 -0.05245
 H337 H 1.12732 0.98968 0.03111
 H338 H 1.20508 0.95866 0.02185
 C339 C 0.67523 0.82734 -0.01250
 C340 C 0.63621 0.85782 -0.00839
 C341 C 0.59115 0.83986 -0.00428
 C342 C 0.58403 0.79070 -0.00417
 C343 C 0.62422 0.76051 -0.00873
 C344 C 0.66922 0.77875 -0.01287
 C345 C 0.72153 0.84625 -0.01396
 C346 C 0.75993 0.86313 -0.01368
 C347 C 0.80503 0.88464 -0.01141
 C348 C 0.81755 0.91015 0.02932
 C349 C 0.86058 0.93263 0.03150
 C350 C 0.89308 0.93029 -0.00647
 C351 C 0.87903 0.90387 -0.04727
 C352 C 0.83595 0.88124 -0.04976
 H353 H 0.64066 0.89565 -0.00743
 H354 H 0.56253 0.86520 0.00077
 H355 H 0.62194 0.72266 -0.01029
 H356 H 0.69939 0.75486 -0.01606
 H357 H 0.79377 0.91319 0.05946
 H358 H 0.86711 0.95137 0.06358
 H359 H 0.90094 0.89981 -0.07781
 H360 H 0.82668 0.86149 -0.08180
 C361 C 0.83247 0.52030 0.35763
 C362 C 0.84644 0.55423 0.32605
 C363 C 0.89184 0.55202 0.30622
 C364 C 0.92349 0.51579 0.31777
 C365 C 0.91014 0.48359 0.35150
 C366 C 0.86498 0.48593 0.37140
 C367 C 0.78396 0.51764 0.37257
 C368 C 0.74346 0.51358 0.38474
 C369 C 0.69540 0.50777 0.39988
 C370 C 0.66221 0.54397 0.39555
 C371 C 0.61694 0.53984 0.41438
 C372 C 0.60286 0.49965 0.43855
 C373 C 0.63666 0.46248 0.43934
 C374 C 0.68204 0.46641 0.42060
 H375 H 0.82153 0.58083 0.31487
 H376 H 0.90084 0.57619 0.27917
 H377 H 0.93373 0.45481 0.36010
 H378 H 0.85464 0.45940 0.39563
 H379 H 0.67166 0.57621 0.37902
 H380 H 0.59412 0.56959 0.41114
 H381 H 0.62970 0.43043 0.45548
 H382 H 0.70718 0.43753 0.42369
 C383 C 0.17600 0.52081 0.36661
 C384 C 0.15561 0.55926 0.34407
 C385 C 0.11288 0.55423 0.31983
 C386 C 0.09056 0.51052 0.31746
 C387 C 0.11021 0.47292 0.34206
 C388 C 0.15248 0.47805 0.36636
 C389 C 0.22236 0.52336 0.38725
 C390 C 0.26156 0.52289 0.40367
 C391 C 0.30870 0.52017 0.42248
 C392 C 0.34659 0.53729 0.39734
 C393 C 0.39249 0.53254 0.41439
 C394 C 0.40256 0.51106 0.45762
 C395 C 0.36331 0.49241 0.48109
 C396 C 0.31737 0.49723 0.46423
 H397 H 0.17345 0.59258 0.34389
 H398 H 0.09868 0.58360 0.30089
 H399 H 0.09351 0.43897 0.34125
 H400 H 0.16763 0.44806 0.38368
 H401 H 0.34087 0.55361 0.36388
 H402 H 0.41953 0.54382 0.39165
 H403 H 0.36737 0.47216 0.51194
 H404 H 0.28865 0.48215 0.48349
 C405 C 0.84454 0.49788 0.63171
 C406 C 0.87086 0.53740 0.64518
 C407 C 0.91443 0.53155 0.66756
 C408 C 0.93102 0.48609 0.67799
 C409 C 0.90575 0.44691 0.66040
 C410 C 0.86304 0.45281 0.63773
 C411 C 0.79715 0.50217 0.61488
 C412 C 0.75700 0.50268 0.60162
 C413 C 0.70922 0.50196 0.58544
 C414 C 0.69712 0.52581 0.54545
 C415 C 0.65097 0.52578 0.52956
 C416 C 0.61451 0.50182 0.55251
 C417 C 0.62839 0.47750 0.59304
 C418 C 0.67483 0.47758 0.60927
 H419 H 0.85688 0.57259 0.64024
 H420 H 0.93258 0.56262 0.68009
 H421 H 0.91847 0.41119 0.66495
 H422 H 0.84351 0.42198 0.62655
 H423 H 0.72331 0.54515 0.52663
 H424 H 0.64460 0.54702 0.49997
 H425 H 0.60362 0.45993 0.61391
 H426 H 0.68370 0.45897 0.64074
 C427 C 0.18307 0.50220 0.65173
 C428 C 0.15285 0.54082 0.66277
 C429 C 0.10717 0.53352 0.67984
 C430 C 0.09203 0.48742 0.68716
 C431 C 0.12185 0.44917 0.67226
 C432 C 0.16682 0.45655 0.65495
 C433 C 0.23154 0.50817 0.63911
 C434 C 0.27249 0.51066 0.62856
 C435 C 0.32097 0.51291 0.61441
 C436 C 0.33664 0.55297 0.59345
 C437 C 0.38178 0.55365 0.57427
 C438 C 0.41323 0.51452 0.57468
 C439 C 0.39735 0.47560 0.59955
 C440 C 0.35183 0.47453 0.61876
 H441 H 0.16514 0.57644 0.65990
 H442 H 0.08568 0.56397 0.69082
 H443 H 0.11081 0.41309 0.67460
 H444 H 0.18951 0.42644 0.64547
 H445 H 0.31342 0.58344 0.59049
 H446 H 0.39034 0.58542 0.55899
 H447 H 0.41915 0.44514 0.60365
 H448 H 0.34038 0.44320 0.63573
 C449 C 0.51200 0.66151 0.18862
 C450 C 0.52336 0.63673 0.14612
 C451 C 0.52091 0.65960 0.10337
 C452 C 0.50665 0.70718 0.10310
 C453 C 0.49739 0.73220 0.14615
 C454 C 0.50003 0.70944 0.18866
 C455 C 0.50991 0.63773 0.23215
 C456 C 0.50711 0.61897 0.26928
 C457 C 0.50390 0.59748 0.31399
 C458 C 0.52502 0.55370 0.31993
 C459 C 0.52509 0.53434 0.36427
 C460 C 0.50397 0.55770 0.40457
 C461 C 0.48206 0.60188 0.39671
 C462 C 0.48208 0.62148 0.35230
 H463 H 0.53267 0.59955 0.14590
 H464 H 0.52780 0.63962 0.07054
 H465 H 0.48692 0.76910 0.14676
 H466 H 0.49142 0.72889 0.22145
 H467 H 0.54283 0.53498 0.29057
 H468 H 0.54502 0.50222 0.36648
 H469 H 0.46773 0.62365 0.42472
 H470 H 0.46620 0.65608 0.34826
 C471 C 0.51658 0.63381 0.84365
 C472 C 0.55223 0.66220 0.86209
 C473 C 0.54844 0.68119 0.90825
 C474 C 0.50880 0.67202 0.93591
 C475 C 0.47560 0.63974 0.91873
 C476 C 0.47944 0.62077 0.87262
 C477 C 0.51538 0.62255 0.79395
 C478 C 0.51453 0.61387 0.75211
 C479 C 0.51567 0.60205 0.70250
 C480 C 0.47771 0.61189 0.67335
 C481 C 0.47852 0.59541 0.62601
 C482 C 0.51686 0.56824 0.60660
 C483 C 0.55526 0.56172 0.63706
 C484 C 0.55494 0.57826 0.68382
 H485 H 0.58114 0.67236 0.83979
 H486 H 0.57376 0.70680 0.92028
 H487 H 0.44453 0.63273 0.93948
 H488 H 0.45181 0.59864 0.85860
 H489 H 0.44697 0.63098 0.68741
 H490 H 0.44817 0.60312 0.60573
 H491 H 0.58595 0.54300 0.62649
 H492 H 0.58496 0.57082 0.70591
 C493 C 0.50774 0.34846 0.17475
 C494 C 0.53353 0.36200 0.13507
 C495 C 0.52637 0.33975 0.09008
 C496 C 0.49253 0.30424 0.08396
 C497 C 0.46837 0.29054 0.12512
 C498 C 0.47573 0.31234 0.16926
 C499 C 0.51205 0.37072 0.22165
 C500 C 0.51164 0.38667 0.26213
 C501 C 0.50806 0.40428 0.31102
 C502 C 0.54470 0.39743 0.34266
 C503 C 0.54095 0.41541 0.38951
 C504 C 0.50085 0.44151 0.40675
 C505 C 0.46323 0.44465 0.37461
 C506 C 0.46675 0.42680 0.32774
 H507 H 0.55873 0.38994 0.13874
 H508 H 0.54606 0.35180 0.06023
 H509 H 0.44451 0.26146 0.12454
 H510 H 0.45613 0.30071 0.19949
 H511 H 0.57662 0.37878 0.33103
 H512 H 0.57058 0.40942 0.41141
 H513 H 0.43072 0.46122 0.38428
 H514 H 0.43716 0.43117 0.30432
 C515 C 0.52033 0.35329 0.83050
 C516 C 0.53855 0.36888 0.87443
 C517 C 0.53042 0.34333 0.91554
 C518 C 0.50273 0.30255 0.91340
 C519 C 0.48724 0.28646 0.86819
 C520 C 0.49571 0.31142 0.82782
 C521 C 0.52454 0.37935 0.78751
 C522 C 0.52469 0.39791 0.74956
 C523 C 0.52225 0.41762 0.70294
 C524 C 0.49730 0.45955 0.69615
 C525 C 0.49233 0.47682 0.65070
 C526 C 0.51305 0.45395 0.60983
 C527 C 0.53590 0.41017 0.61792
 C528 C 0.54083 0.39262 0.66332
 H529 H 0.55812 0.40116 0.87715
 H530 H 0.54346 0.35712 0.94903
 H531 H 0.46906 0.25362 0.86306
 H532 H 0.48232 0.29809 0.79420
 H533 H 0.48075 0.47868 0.72597
 H534 H 0.47074 0.50796 0.64838
 H535 H 0.54853 0.38775 0.58949
 H536 H 0.55845 0.35885 0.66727
 C537 C 0.66709 0.82301 0.51548
 C538 C 0.64687 0.86229 0.53984
 C539 C 0.66442 0.90725 0.53321
 C540 C 0.70223 0.91358 0.50153
 C541 C 0.72254 0.87309 0.47808
 C542 C 0.70511 0.82850 0.48502
 C543 C 0.64744 0.77720 0.51863
 C544 C 0.63140 0.73836 0.51803
 C545 C 0.61205 0.69222 0.51389
 C546 C 0.61791 0.66031 0.54938
 C547 C 0.59784 0.61592 0.54475
 C548 C 0.57134 0.60156 0.50463
 C549 C 0.56769 0.63471 0.46902
 C550 C 0.58758 0.67904 0.47337
 H551 H 0.61691 0.85833 0.56312
 H552 H 0.64647 0.93676 0.55127
 H553 H 0.75291 0.87504 0.45510
 H554 H 0.72110 0.79821 0.46612
 H555 H 0.63754 0.66978 0.58091
 H556 H 0.60366 0.59338 0.57321
 H557 H 0.54960 0.62788 0.43732
 H558 H 0.58328 0.70331 0.44508
 C559 C 0.62140 0.16705 0.52671
 C560 C 0.60452 0.13504 0.49230
 C561 C 0.62575 0.09049 0.48605
 C562 C 0.66381 0.07770 0.51436
 C563 C 0.67783 0.10837 0.55151
 C564 C 0.65668 0.15304 0.55763
 C565 C 0.60821 0.21588 0.52475
 C566 C 0.59837 0.25679 0.52025
 C567 C 0.58630 0.30510 0.51265
 C568 C 0.54589 0.31578 0.48767
 C569 C 0.53277 0.36254 0.48153
 C570 C 0.55823 0.40046 0.50193
 C571 C 0.60193 0.38826 0.52223
 C572 C 0.61547 0.34129 0.52821
 H573 H 0.57750 0.14577 0.46794
 H574 H 0.61529 0.06761 0.45657
 H575 H 0.70828 0.09993 0.57244
 H576 H 0.67036 0.17782 0.58395
 H577 H 0.52416 0.28793 0.47308
 H578 H 0.50212 0.36809 0.46052
 H579 H 0.62634 0.41418 0.53342
 H580 H 0.64843 0.33333 0.54542
 C581 C 0.36896 0.84335 0.51569
 C582 C 0.33487 0.86022 0.54866
 C583 C 0.31257 0.90422 0.54339
 C584 C 0.32410 0.93179 0.50507
 C585 C 0.36017 0.91581 0.47373
 C586 C 0.38250 0.87200 0.47908
 C587 C 0.38714 0.79539 0.51671
 C588 C 0.40194 0.75507 0.51613
 C589 C 0.41993 0.70695 0.51479
 C590 C 0.39544 0.67075 0.49172
 C591 C 0.41341 0.62432 0.49033
 C592 C 0.45686 0.61212 0.51154
 C593 C 0.47978 0.64983 0.53568
 C594 C 0.46204 0.69611 0.53699
 H595 H 0.32379 0.83836 0.57698
 H596 H 0.28378 0.91482 0.56693
 H597 H 0.36893 0.93598 0.44335
 H598 H 0.40866 0.85948 0.45323
 H599 H 0.36215 0.67827 0.47495
 H600 H 0.39187 0.59837 0.47384
 H601 H 0.51113 0.64432 0.55553
 H602 H 0.48123 0.72348 0.55585
 C603 C 0.33664 0.19156 0.50616
 C604 C 0.29005 0.18734 0.49145
 C605 C 0.26935 0.14316 0.48813
 C606 C 0.29485 0.10209 0.49934
 C607 C 0.34097 0.10660 0.51616
 C608 C 0.36184 0.15113 0.51934
 C609 C 0.35829 0.23735 0.50646
 C610 C 0.37569 0.27595 0.50645
 C611 C 0.39695 0.32194 0.50772
 C612 C 0.42374 0.33586 0.54648
 C613 C 0.44592 0.37925 0.54784
 C614 C 0.44236 0.41121 0.51102
 C615 C 0.41417 0.39637 0.47233
 C616 C 0.39176 0.35265 0.47067
 H617 H 0.26991 0.21815 0.48158
 H618 H 0.23347 0.14095 0.47577
 H619 H 0.36144 0.07561 0.52482
 H620 H 0.39790 0.15385 0.53103
 H621 H 0.42818 0.31277 0.57572
 H622 H 0.46580 0.38646 0.57840
 H623 H 0.40962 0.41778 0.44253
 H624 H 0.37098 0.34262 0.44011
   
