data_POSCAR
  _audit_creation_date              2014-09-24
  _audit_creation_method            'ToBaCCo'
  _symmetry_space_group_name_H-M    'P1'
  _symmetry_Int_Tables_number       1
  _symmetry_cell_setting            triclinic
  loop_
  _symmetry_equiv_pos_as_xyz
 x,y,z
_cell_length_a 18.4077
_cell_length_b 18.4705
_cell_length_c 21.3693
_cell_angle_alpha 91.054200
_cell_angle_beta 92.846700
_cell_angle_gamma 85.764000
loop_
  _atom_site_label
  _atom_site_type_symbol
  _atom_site_fract_x
  _atom_site_fract_y
  _atom_site_fract_z
O1 O -0.06029 0.56071 0.92640
 O2 O -0.08246 0.44996 1.06103
 O3 O -0.05577 0.58721 1.04631
 O4 O -0.04924 0.42084 0.94453
 O5 O 0.07033 0.41195 0.96176
 O6 O 0.06326 0.56872 1.06517
 O7 O 0.03592 0.43405 1.07891
 O8 O 0.05902 0.55541 0.94553
 Cu9 Cu -0.07321 0.50548 0.99327
 Cu10 Cu 0.06820 0.49045 1.01378
 C11 C 0.00178 0.58014 0.91441
 C12 C -0.02854 0.42221 1.09355
 C13 C 0.00418 0.60662 1.07192
 C14 C 0.01323 0.38806 0.93653
 O15 O 0.56377 -0.07328 0.55358
 O16 O 0.43996 -0.06330 0.41849
 O17 O 0.57717 -0.03909 0.43661
 O18 O 0.42086 -0.05498 0.53866
 O19 O 0.41748 0.06367 0.55477
 O20 O 0.55695 0.08003 0.44365
 O21 O 0.41701 0.05429 0.43237
 O22 O 0.56021 0.04529 0.56339
 Cu23 Cu 0.50189 -0.06831 0.48606
 Cu24 Cu 0.48714 0.07186 0.49927
 C25 C 0.58614 -0.01758 0.58130
 C26 C 0.40428 -0.00488 0.40306
 C27 C 0.59210 0.02469 0.42204
 C28 C 0.39258 0.00314 0.56386
 C29 C -0.10731 0.04059 0.27310
 C30 C -0.04298 0.05588 0.24566
 C31 C -0.03262 0.12683 0.22880
 C32 C -0.08403 0.18396 0.24214
 C33 C -0.14834 0.16853 0.27100
 C34 C -0.16065 0.09634 0.28569
 C35 C 0.01514 -0.00157 0.23652
 C36 C -0.00052 -0.06769 0.20792
 C37 C 0.05478 -0.12309 0.20125
 C38 C 0.12701 -0.11023 0.22065
 C39 C 0.14338 -0.04349 0.24896
 C40 C 0.08660 0.00972 0.25787
 H41 H -0.11536 -0.01476 0.28569
 H42 H 0.01583 0.13744 0.20460
 H43 H -0.05575 -0.07611 0.19080
 H44 H 0.09786 0.05975 0.28266
 H45 H -0.18870 0.21217 0.28151
 H46 H 0.17014 -0.15268 0.21485
 C47 C -0.00603 -0.10643 0.77082
 C48 C -0.02870 -0.03741 0.74837
 C49 C -0.10167 -0.02106 0.72918
 C50 C -0.15357 -0.07199 0.73536
 C51 C -0.13069 -0.14035 0.76086
 C52 C -0.05649 -0.15867 0.77697
 C53 C 0.02405 0.01798 0.74523
 C54 C 0.08723 0.00387 0.71217
 C55 C 0.13740 0.05689 0.70820
 C56 C 0.12638 0.12279 0.74192
 C57 C 0.06370 0.13611 0.77676
 C58 C 0.01211 0.08427 0.77698
 H59 H 0.05099 -0.11909 0.78430
 H60 H -0.11747 0.03091 0.70786
 H61 H 0.09648 -0.04791 0.68803
 H62 H -0.03590 0.09426 0.80422
 H63 H -0.17038 -0.17983 0.76692
 H64 H 0.16628 0.16304 0.74141
 C65 C -0.03059 -0.30309 0.15920
 C66 C 0.00884 -0.32337 0.10567
 C67 C 0.06156 -0.27884 0.08615
 C68 C 0.07526 -0.21472 0.11777
 C69 C 0.03761 -0.19311 0.17093
 C70 C -0.01553 -0.23771 0.19268
 C71 C -0.08220 -0.34764 0.18179
 C72 C -0.11851 -0.32831 0.23603
 C73 C -0.10331 -0.26518 0.26918
 C74 C -0.05201 -0.22048 0.24821
 H75 H -0.09444 -0.39795 0.15825
 H76 H -0.15800 -0.36300 0.25288
 H77 H -0.13092 -0.25113 0.31177
 H78 H -0.04049 -0.17324 0.27657
 H79 H 0.09327 -0.29431 0.04604
 H80 H 0.11588 -0.18153 0.10049
 C81 C 0.01181 0.34786 0.18876
 C82 C -0.04195 0.37512 0.14283
 C83 C -0.11251 0.34984 0.14384
 C84 C -0.12693 0.29193 0.18063
 C85 C -0.07212 0.25757 0.21921
 C86 C -0.00368 0.28846 0.22686
 C87 C 0.07930 0.37918 0.19991
 C88 C 0.13102 0.35067 0.24446
 C89 C 0.11627 0.29200 0.28032
 C90 C 0.04927 0.26181 0.27248
 H91 H 0.09235 0.42764 0.17687
 H92 H 0.18240 0.37524 0.25211
 H93 H 0.15632 0.27083 0.31540
 H94 H 0.03873 0.21844 0.30339
 H95 H -0.15637 0.37068 0.11194
 H96 H -0.17998 0.27016 0.17490
 C97 C 0.25679 0.00017 0.57108
 C98 C 0.32702 0.00345 0.60087
 C99 C 0.33327 0.02518 0.66395
 C100 C 0.27146 0.04290 0.69786
 C101 C 0.20144 0.04153 0.66919
 C102 C 0.19364 0.02131 0.60483
 C103 C 0.24807 -0.02080 0.50750
 C104 C 0.17913 -0.01920 0.47725
 C105 C 0.11766 0.00392 0.50947
 C106 C 0.12456 0.02437 0.57248
 H107 H 0.29438 -0.03881 0.48089
 H108 H 0.17334 -0.03517 0.42840
 H109 H 0.06436 0.00634 0.48544
 H110 H 0.07541 0.04383 0.59499
 H111 H 0.38664 0.03016 0.68674
 H112 H 0.27834 0.05823 0.74687
 C113 C -0.33548 0.02513 0.67374
 C114 C -0.35738 -0.02825 0.62873
 C115 C -0.31824 -0.09701 0.62951
 C116 C -0.25529 -0.11068 0.66671
 C117 C -0.22873 -0.05735 0.70682
 C118 C -0.27093 0.00989 0.71323
 C119 C -0.37746 0.09137 0.68337
 C120 C -0.35566 0.14171 0.72862
 C121 C -0.29300 0.12679 0.76651
 C122 C -0.25149 0.06129 0.75964
 H123 H -0.42892 0.10450 0.65849
 H124 H -0.38862 0.19202 0.73530
 H125 H -0.27730 0.16558 0.80236
 H126 H -0.20517 0.05057 0.79214
 H127 H -0.33307 -0.14038 0.59762
 H128 H -0.22475 -0.16267 0.66114
 C129 C -0.03390 -0.36325 0.80969
 C130 C 0.00430 -0.36141 0.86881
 C131 C 0.02983 -0.29606 0.89146
 C132 C 0.01148 -0.23161 0.85992
 C133 C -0.03148 -0.23065 0.80375
 C134 C -0.05076 -0.29760 0.77618
 C135 C -0.05539 -0.42930 0.78312
 C136 C -0.09152 -0.43091 0.72425
 C137 C -0.10627 -0.36715 0.69070
 C138 C -0.08584 -0.30109 0.71605
 H139 H -0.04304 -0.48019 0.80710
 H140 H -0.10729 -0.48201 0.70420
 H141 H -0.13332 -0.36894 0.64460
 H142 H -0.09670 -0.25330 0.68766
 H143 H 0.05859 -0.29366 0.93677
 H144 H 0.02772 -0.18142 0.88155
 C145 C 0.06072 0.25738 0.92313
 C146 C 0.02133 0.32054 0.89872
 C147 C -0.00312 0.32159 0.83560
 C148 C 0.01289 0.26213 0.79605
 C149 C 0.05405 0.20035 0.81855
 C150 C 0.07784 0.19722 0.88257
 C151 C 0.08222 0.25211 0.98747
 C152 C 0.12128 0.18997 1.01072
 C153 C 0.13932 0.13183 0.97073
 C154 C 0.11772 0.13503 0.90730
 H155 H 0.06807 0.29520 1.02060
 H156 H 0.13740 0.18681 1.06009
 H157 H 0.16975 0.08378 0.98904
 H158 H 0.13246 0.08839 0.87796
 H159 H -0.03310 0.36950 0.81640
 H160 H -0.00707 0.26418 0.74750
 C161 C -0.35973 0.07377 0.32390
 C162 C -0.34786 0.03623 0.38120
 C163 C -0.27670 0.01802 0.40428
 C164 C -0.21738 0.03881 0.37286
 C165 C -0.22715 0.07767 0.31683
 C166 C -0.29893 0.09384 0.29090
 C167 C -0.43097 0.09047 0.29809
 C168 C -0.44215 0.12570 0.24093
 C169 C -0.38286 0.14404 0.20809
 C170 C -0.31188 0.12792 0.23239
 H171 H -0.47842 0.07538 0.32130
 H172 H -0.49709 0.13802 0.22166
 H173 H -0.39187 0.17049 0.16332
 H174 H -0.26765 0.14165 0.20445
 H175 H -0.26700 -0.00987 0.44842
 H176 H -0.16303 0.02528 0.39306
 C177 C 0.31628 0.04435 0.31214
 C178 C 0.34323 -0.01065 0.35497
 C179 C 0.30974 -0.07653 0.35422
 C180 C 0.24722 -0.08634 0.31788
 C181 C 0.21731 -0.03248 0.27753
 C182 C 0.25537 0.03132 0.26936
 C183 C 0.34653 0.11146 0.31351
 C184 C 0.27296 0.12631 0.18945
 C185 C 0.23189 0.07743 0.21839
 H186 H 0.39235 0.12618 0.34315
 H187 H 0.18147 0.30772 0.82973
 H188 H 0.32904 0.13593 0.20144
 H189 H 0.18044 0.07039 0.19338
 H190 H 0.32891 -0.11984 0.38581
 H191 H 0.22003 -0.13571 0.32368
   
