data_POSCAR
  _audit_creation_date              2014-09-24
  _audit_creation_method            'ToBaCCo'
  _symmetry_space_group_name_H-M    'P1'
  _symmetry_Int_Tables_number       1
  _symmetry_cell_setting            triclinic
  loop_
  _symmetry_equiv_pos_as_xyz
 x,y,z
_cell_length_a 20.5062
_cell_length_b 20.3907
_cell_length_c 43.3879
_cell_angle_alpha 87.780100
_cell_angle_beta 90.198100
_cell_angle_gamma 120.490800
loop_
  _atom_site_label
  _atom_site_type_symbol
  _atom_site_fract_x
  _atom_site_fract_y
  _atom_site_fract_z
C1 C -0.02925 0.06125 0.55625
 H2 H -0.00781 0.02699 0.56654
 C3 C -0.03440 0.11422 0.57395
 H4 H -0.01899 0.11842 0.59798
 C5 C -0.07041 0.10112 0.51203
 H6 H -0.08122 0.09782 0.48755
 C7 C -0.07768 0.15393 0.52903
 H8 H -0.09548 0.19025 0.51759
 N9 N -0.04646 0.05617 0.52579
 C10 C 0.07236 -0.05924 0.52265
 H11 H 0.11554 -0.01749 0.50691
 C12 C 0.08565 -0.11059 0.53991
 H13 H 0.13971 -0.10751 0.53759
 C14 C -0.05157 -0.11576 0.54420
 H15 H -0.10541 -0.11808 0.54524
 C16 C -0.04042 -0.16735 0.56209
 H17 H -0.08620 -0.20923 0.57688
 Zn18 Zn -0.02098 -0.00142 0.50047
 N19 N 0.00447 -0.06298 0.52512
 C20 C 0.06102 0.06952 0.44401
 N21 N 0.06141 0.07115 0.47536
 C22 C 0.11607 0.13191 0.49013
 C23 C 0.17094 0.19593 0.47329
 C24 C 0.11647 0.13145 0.42628
 C25 C -0.08937 -0.11264 0.45738
 C26 C -0.14622 -0.16442 0.43868
 C27 C -0.23123 -0.12799 0.46023
 C28 C -0.17211 -0.07594 0.47816
 N29 N -0.10256 -0.06849 0.47606
 H30 H 0.01612 0.02199 0.43254
 H31 H 0.11445 0.13229 0.51503
 H32 H 0.21220 0.24520 0.48533
 H33 H 0.11426 0.13038 0.40135
 H34 H -0.03409 -0.10723 0.45694
 H35 H -0.13284 -0.19775 0.42397
 H36 H -0.28596 -0.13241 0.46235
 H37 H -0.18219 -0.04223 0.49395
 C38 C 0.02875 -0.16548 0.55994
 C39 C -0.05782 0.16211 0.56020
 C40 C -0.21877 -0.17282 0.43975
 C41 C 0.17074 0.19638 0.44100
 C42 C 1.14598 0.00447 0.15696
 H43 H 1.14898 0.00944 0.18172
 C44 C 1.20719 0.01052 0.14046
 H45 H 1.25693 0.01917 0.15266
 C46 C 1.07975 -0.00736 0.11068
 H47 H 1.03170 -0.01077 0.09896
 C48 C 1.13884 -0.00389 0.09334
 H49 H 1.13518 -0.00559 0.06846
 N50 N 1.08471 -0.00238 0.14189
 C51 C 0.94536 0.09077 0.14068
 H52 H 0.98275 0.13670 0.15505
 C53 C 0.89195 0.09748 0.12289
 H54 H 0.88962 0.14931 0.12337
 C55 C 0.90057 -0.03369 0.12352
 H56 H 0.90332 -0.08533 0.12448
 C57 C 0.84682 -0.02918 0.10522
 H58 H 0.80874 -0.07765 0.09206
 Zn59 Zn 1.01602 0.01135 0.16587
 N60 N 0.94912 0.02610 0.14044
 C61 C 1.12300 0.16483 0.17455
 N62 N 1.07624 0.09710 0.18970
 C63 C 1.07922 0.08848 0.22084
 C64 C 1.13122 0.14935 0.23793
 C65 C 1.17519 0.22746 0.19079
 C66 C 0.95675 -0.14000 0.19180
 C67 C 0.90496 -0.20376 0.20992
 C68 C 0.85055 -0.13090 0.22795
 C69 C 0.90264 -0.06913 0.20938
 N70 N 0.95444 -0.07454 0.19191
 H71 H 1.12101 0.16957 0.14968
 H72 H 1.04330 0.03366 0.23238
 H73 H 1.13314 0.14096 0.26262
 H74 H 1.21255 0.28067 0.17828
 H75 H 0.99771 -0.14321 0.17727
 H76 H 0.90692 -0.25579 0.20949
 H77 H 0.80949 -0.12513 0.24134
 H78 H 0.90138 -0.01668 0.20853
 C79 C 0.84201 0.03707 0.10478
 C80 C 1.20434 0.00745 0.10825
 C81 C 0.85095 -0.19953 0.22827
 C82 C 1.18056 0.21974 0.22284
 C83 C 0.07099 0.98104 0.88978
 H84 H 0.01709 0.96038 0.90138
 C85 C 0.13259 0.98858 0.90657
 H86 H 0.12572 0.97524 0.93115
 C87 C 0.14450 1.02043 0.84351
 H88 H 0.14806 1.03102 0.81877
 C89 C 0.20767 1.02966 0.85943
 H90 H 0.26001 1.04813 0.84678
 N91 N 0.07810 0.99724 0.85883
 C92 C -0.16003 0.89479 0.85645
 H93 H -0.16824 0.85385 0.83954
 C94 C -0.22187 0.88472 0.87395
 H95 H -0.27689 0.83491 0.87060
 C96 C -0.07924 1.01098 0.88013
 H97 H -0.02359 1.06090 0.88188
 C98 C -0.13905 1.00293 0.89828
 H99 H -0.12779 1.04719 0.91401
 Zn100 Zn -0.00612 0.97899 0.83472
 N101 N -0.09037 0.95706 0.85996
 C102 C -0.05155 0.82723 0.82373
 N103 N -0.02584 0.89716 0.80981
 C104 C -0.00603 0.91058 0.77934
 C105 C -0.01177 0.85224 0.76160
 C106 C -0.05943 0.76694 0.80674
 C107 C 0.07822 1.13433 0.81252
 C108 C 0.08878 1.19752 0.79458
 C109 C -0.03239 1.11792 0.77138
 C110 C -0.04085 1.05651 0.78988
 N111 N 0.01431 1.06546 0.80970
 H112 H -0.06469 0.81872 0.84820
 H113 H 0.01673 0.96717 0.76895
 H114 H 0.00483 0.86420 0.73746
 H115 H -0.07962 0.71170 0.81821
 H116 H 0.12038 1.14075 0.82905
 H117 H 0.13986 1.25202 0.79718
 H118 H -0.07725 1.10928 0.75588
 H119 H -0.09176 1.00136 0.78859
 C120 C -0.21200 0.93924 0.89529
 C121 C 0.20200 1.01302 0.89132
 C122 C 0.03308 1.18966 0.77364
 C123 C -0.03836 0.77946 0.77538
 C124 C 0.37350 0.00320 -0.02892
 C125 C 0.34483 0.01124 -0.00095
 C126 C 0.37842 0.01173 0.02727
 C127 C 0.44346 0.00415 0.02764
 C128 C 0.47238 -0.00554 -0.00044
 C129 C 0.43583 -0.00875 -0.02861
 C130 C 0.46195 -0.02504 -0.05558
 C131 C 0.52501 -0.03396 -0.05521
 C132 C 0.56437 -0.02707 -0.02786
 C133 C 0.53827 -0.01192 -0.00032
 C134 C 0.47941 0.00387 0.05529
 C135 C 0.54674 0.00295 0.05505
 C136 C 0.57840 -0.00233 0.02734
 C137 C 0.64809 -0.00055 0.02679
 C138 C 0.67189 -0.01803 -0.00026
 C139 C 0.62995 -0.03351 -0.02731
 H140 H 0.43318 -0.03263 -0.07720
 H141 H 0.54347 -0.04462 -0.07679
 H142 H 0.45634 0.00396 0.07757
 H143 H 0.57249 0.00394 0.07697
 H144 H 0.29777 0.02124 -0.00123
 H145 H 0.72419 -0.01902 -0.00037
 C146 C -0.01330 0.35322 0.63836
 C147 C -0.00321 0.32185 0.66607
 C148 C 0.01054 0.35947 0.69376
 C149 C 0.00764 0.42713 0.69444
 C150 C 0.00232 0.46202 0.66645
 C151 C -0.00427 0.42696 0.63812
 C152 C -0.00024 0.46727 0.61046
 C153 C 0.00693 0.53901 0.61074
 C154 C 0.00832 0.57218 0.63870
 C155 C 0.00361 0.53222 0.66681
 C156 C 0.00896 0.46025 0.72240
 C157 C 0.00445 0.52610 0.72284
 C158 C 0.00011 0.56220 0.69528
 C159 C -0.00641 0.62811 0.69533
 C160 C 0.00269 0.66915 0.66742
 C161 C 0.01317 0.64375 0.63934
 H162 H -0.00009 0.44510 0.58826
 H163 H 0.00900 0.56712 0.58880
 H164 H 0.01105 0.43430 0.74432
 H165 H 0.00681 0.54949 0.74501
 H166 H -0.00587 0.26747 0.66619
 H167 H 0.00158 0.72165 0.66744
 C168 C 0.35600 0.38196 0.30367
 C169 C 0.31521 0.35078 0.33145
 C170 C 0.34586 0.38096 0.35991
 C171 C 0.41992 0.44522 0.36077
 C172 C 0.46280 0.47621 0.33293
 C173 C 0.43189 0.44295 0.30446
 C174 C 0.47825 0.47076 0.27772
 C175 C 0.55211 0.53230 0.27863
 C176 C 0.58240 0.56852 0.30631
 C177 C 0.53699 0.54078 0.33358
 C178 C 0.45338 0.47829 0.38870
 C179 C 0.52361 0.54480 0.38895
 C180 C 0.56526 0.57809 0.36152
 C181 C 0.63550 0.64676 0.36152
 C182 C 0.68089 0.67207 0.33475
 C183 C 0.65630 0.63275 0.30742
 H184 H 0.45872 0.44437 0.25587
 H185 H 0.58452 0.55212 0.25724
 H186 H 0.42644 0.45370 0.41080
 H187 H 0.54610 0.56859 0.41103
 H188 H 0.25716 0.30430 0.33089
 H189 H 0.73574 0.72370 0.33505
 N190 N -0.08580 0.30615 0.59115
 N191 N -0.09994 0.25511 0.57023
 C192 C -0.05907 0.22209 0.57780
 C193 C -0.01885 0.25517 0.60391
 N194 N -0.03638 0.30797 0.61136
 H195 H 0.02009 0.24278 0.61607
 N196 N 0.72727 0.61843 0.26556
 N197 N 0.78043 0.66171 0.24464
 C198 C 0.79471 0.73357 0.24724
 C199 C 0.74846 0.73276 0.27049
 N200 N 0.70691 0.66003 0.28109
 H201 H 0.74601 0.78030 0.27943
 N202 N 0.38359 0.05456 -0.08176
 N203 N 0.33992 0.05920 -0.10326
 C204 C 0.26836 0.02089 -0.09186
 C205 C 0.26972 -0.00780 -0.06263
 N206 N 0.34250 0.01364 -0.05733
 H207 H 0.22266 -0.04106 -0.04673
 N208 N 0.08994 0.71207 0.59344
 N209 N 0.09700 0.76422 0.57237
 C210 C 0.04103 0.77882 0.57801
 C211 C -0.00060 0.73377 0.60331
 N212 N 0.03126 0.69257 0.61205
 H213 H -0.04822 0.73213 0.61478
 N214 N 0.32278 0.39855 0.25080
 N215 N 0.27604 0.35742 0.22901
 C216 C 0.23850 0.28447 0.24003
 C217 C 0.26434 0.28231 0.26929
 N218 N 0.31748 0.35444 0.27503
 H219 H 0.24671 0.23327 0.28489
 N220 N 0.61262 -0.11803 -0.06899
 N221 N 0.65419 -0.12781 -0.08960
 C222 C 0.72619 -0.06983 -0.08714
 C223 C 0.72694 -0.02400 -0.06425
 N224 N 0.65519 -0.05564 -0.05375
 H225 H 0.77471 0.02632 -0.05533
 N226 N 0.38812 0.07005 0.07678
 N227 N 0.34341 0.06946 0.09887
 C228 C 0.27166 0.02181 0.09040
 C229 C 0.27379 -0.00668 0.06233
 N230 N 0.34757 0.02369 0.05488
 H231 H 0.22653 -0.04622 0.04883
 N232 N 0.61475 0.71486 0.40171
 N233 N 0.65342 0.76514 0.42272
 C234 C 0.72481 0.77782 0.42184
 C235 C 0.72820 0.73298 0.39934
 N236 N 0.65846 0.69448 0.38761
 H237 H 0.77629 0.72938 0.39153
 N238 N 0.09018 0.37221 0.73771
 N239 N 0.09875 0.32878 0.75890
 C240 C 0.04321 0.25638 0.75481
 C241 C 0.00025 0.25701 0.73028
 N242 N 0.03095 0.33033 0.72050
 H243 H -0.04777 0.20917 0.72013
 N244 N 0.71540 0.08612 0.06788
 N245 N 0.76787 0.09873 0.08849
 C246 C 0.78475 0.04319 0.08608
 C247 C 0.74072 -0.00396 0.06320
 N248 N 0.69784 0.02437 0.05266
 H249 H 0.74063 -0.05308 0.05457
 N250 N 0.29164 0.38482 0.40967
 N251 N 0.24611 0.33723 0.43185
 C252 C 0.22354 0.26627 0.42300
 C253 C 0.25643 0.27180 0.39462
 N254 N 0.29969 0.34679 0.38737
 H255 H 0.25076 0.22603 0.38087
 N256 N -0.07596 0.60423 0.74417
 N257 N -0.08656 0.64243 0.76568
 C258 C -0.04309 0.71701 0.75751
 C259 C -0.00505 0.72321 0.73035
 N260 N -0.02638 0.65162 0.72295
 H261 H 0.03481 0.77463 0.71740
   
