data_POSCAR
  _audit_creation_date              2014-09-24
  _audit_creation_method            'ToBaCCo'
  _symmetry_space_group_name_H-M    'P1'
  _symmetry_Int_Tables_number       1
  _symmetry_cell_setting            triclinic
  loop_
  _symmetry_equiv_pos_as_xyz
 x,y,z
_cell_length_a 51.4647
_cell_length_b 51.8541
_cell_length_c 52.0043
_cell_angle_alpha 90.126500
_cell_angle_beta 90.001300
_cell_angle_gamma 90.406900
loop_
  _atom_site_label
  _atom_site_type_symbol
  _atom_site_fract_x
  _atom_site_fract_y
  _atom_site_fract_z
N1 N 0.28809 0.23552 0.21924
 N2 N 0.27737 0.25576 0.20857
 C3 C 0.29130 0.26255 0.18770
 C4 C 0.31192 0.24564 0.18505
 C5 C 0.30914 0.22873 0.20553
 H6 H 0.28678 0.27871 0.17547
 H7 H 0.32153 0.21271 0.21031
 Cu8 Cu 0.24646 0.27162 0.22308
 Cu9 Cu 0.27420 0.21961 0.25027
 Cu10 Cu 0.22051 0.24845 0.27787
 N11 N 0.21676 0.28794 0.23946
 N12 N 0.20687 0.27887 0.26091
 C13 C 0.18664 0.29355 0.26800
 C14 C 0.18353 0.31300 0.25003
 C15 C 0.20312 0.30878 0.23218
 H16 H 0.17509 0.29018 0.28502
 H17 H 0.20706 0.31988 0.21506
 N18 N 0.23696 0.21750 0.29222
 N19 N 0.25733 0.20639 0.28168
 C20 C 0.26372 0.18558 0.29575
 C21 C 0.24653 0.18341 0.31619
 C22 C 0.22986 0.20408 0.31323
 H23 H 0.27966 0.17289 0.29129
 H24 H 0.21366 0.20904 0.32541
 H25 H 0.23631 0.23146 0.24546
 H26 H 0.25819 0.25315 0.26453
 N27 N 0.71151 -0.23973 0.21822
 N28 N 0.72251 -0.26018 0.20816
 C29 C 0.70907 -0.26755 0.18718
 C30 C 0.68834 -0.25086 0.18372
 C31 C 0.69065 -0.23341 0.20399
 H32 H 0.71405 -0.28399 0.17547
 H33 H 0.67825 -0.21722 0.20819
 Cu34 Cu 0.75325 -0.27547 0.22343
 Cu35 Cu 0.72520 -0.22283 0.24901
 Cu36 Cu 0.77965 -0.25021 0.27693
 N37 N 0.78340 -0.29095 0.23969
 N38 N 0.79368 -0.28091 0.26056
 C39 C 0.81424 -0.29508 0.26771
 C40 C 0.81718 -0.31531 0.25037
 C41 C 0.79707 -0.31194 0.23285
 H42 H 0.82607 -0.29079 0.28435
 H43 H 0.79265 -0.32371 0.21625
 N44 N 0.76274 -0.21916 0.29071
 N45 N 0.74204 -0.20867 0.28019
 C46 C 0.73527 -0.18780 0.29411
 C47 C 0.75255 -0.18498 0.31444
 C48 C 0.76966 -0.20530 0.31154
 H49 H 0.71897 -0.17558 0.28971
 H50 H 0.78600 -0.20980 0.32371
 H51 H 0.76314 -0.23436 0.24427
 H52 H 0.74175 -0.25549 0.26430
 N53 N 0.70715 0.23950 0.78124
 N54 N 0.71804 0.26042 0.79073
 C55 C 0.70462 0.26807 0.81155
 C56 C 0.68408 0.25107 0.81546
 C57 C 0.68638 0.23314 0.79572
 H58 H 0.70950 0.28482 0.82297
 H59 H 0.67395 0.21665 0.79208
 Cu60 Cu 0.74877 0.27575 0.77516
 Cu61 Cu 0.72088 0.22225 0.75083
 Cu62 Cu 0.77637 0.24880 0.72316
 N63 N 0.78007 0.29010 0.75980
 N64 N 0.79087 0.27960 0.73949
 C65 C 0.81208 0.29348 0.73293
 C66 C 0.81483 0.31392 0.75014
 C67 C 0.79401 0.31095 0.76691
 H68 H 0.82443 0.28890 0.71678
 H69 H 0.78916 0.32302 0.78313
 N70 N 0.75878 0.21770 0.70951
 N71 N 0.73770 0.20766 0.72003
 C72 C 0.73036 0.18676 0.70636
 C73 C 0.74763 0.18336 0.68618
 C74 C 0.76539 0.20342 0.68888
 H75 H 0.71357 0.17498 0.71077
 H76 H 0.78199 0.20738 0.67678
 H77 H 0.75903 0.23413 0.75595
 H78 H 0.73837 0.25436 0.73460
 N79 N 0.29220 -0.23971 0.78234
 N80 N 0.28073 -0.26000 0.79242
 C81 C 0.29404 -0.26742 0.81338
 C82 C 0.31508 -0.25090 0.81675
 C83 C 0.31321 -0.23352 0.79657
 H84 H 0.28871 -0.28365 0.82529
 H85 H 0.32611 -0.21754 0.79242
 Cu86 Cu 0.24954 -0.27485 0.77718
 Cu87 Cu 0.27884 -0.22289 0.75161
 Cu88 Cu 0.22298 -0.24910 0.72423
 N89 N 0.21837 -0.28945 0.76168
 N90 N 0.20800 -0.27938 0.74098
 C91 C 0.18686 -0.29332 0.73429
 C92 C 0.18372 -0.31338 0.75178
 C93 C 0.20424 -0.31012 0.76889
 H94 H 0.17487 -0.28907 0.71781
 H95 H 0.20876 -0.32190 0.78536
 N96 N 0.24106 -0.21853 0.71017
 N97 N 0.26232 -0.20864 0.72054
 C98 C 0.26987 -0.18799 0.70670
 C99 C 0.25255 -0.18458 0.68658
 C100 C 0.23455 -0.20440 0.68948
 H101 H 0.28676 -0.17630 0.71103
 H102 H 0.21779 -0.20820 0.67753
 H103 H 0.24041 -0.23371 0.75665
 H104 H 0.26075 -0.25513 0.73612
 N105 N 0.71061 -0.23732 0.78032
 N106 N 0.72018 -0.25850 0.79023
 C107 C 0.70608 -0.26508 0.81106
 C108 C 0.68654 -0.24707 0.81442
 C109 C 0.69013 -0.22973 0.79444
 H110 H 0.70979 -0.28180 0.82281
 H111 H 0.67879 -0.21277 0.79038
 Cu112 Cu 0.75017 -0.27541 0.77505
 Cu113 Cu 0.72529 -0.22113 0.74984
 Cu114 Cu 0.77965 -0.24970 0.72321
 N115 N 0.78125 -0.29066 0.76023
 N116 N 0.79269 -0.28046 0.74007
 C117 C 0.81356 -0.29463 0.73384
 C118 C 0.81549 -0.31502 0.75103
 C119 C 0.79450 -0.31171 0.76754
 H120 H 0.82623 -0.29026 0.71786
 H121 H 0.78914 -0.32363 0.78372
 N122 N 0.76360 -0.21851 0.70888
 N123 N 0.74290 -0.20763 0.71901
 C124 C 0.73656 -0.18689 0.70486
 C125 C 0.75411 -0.18451 0.68477
 C126 C 0.77097 -0.20498 0.68802
 H127 H 0.72027 -0.17452 0.70893
 H128 H 0.78738 -0.20982 0.67606
 H129 H 0.74128 -0.25407 0.73424
 H130 H 0.76262 -0.23432 0.75582
 N131 N 0.28875 0.23787 0.78127
 N132 N 0.27938 0.25927 0.79100
 C133 C 0.29361 0.26607 0.81169
 C134 C 0.31303 0.24797 0.81517
 C135 C 0.30923 0.23036 0.79539
 H136 H 0.29008 0.28300 0.82328
 H137 H 0.32042 0.21324 0.79149
 Cu138 Cu 0.24940 0.27615 0.77583
 Cu139 Cu 0.27386 0.22133 0.75103
 Cu140 Cu 0.21938 0.24962 0.72453
 N141 N 0.21814 0.29109 0.76114
 N142 N 0.20650 0.28058 0.74120
 C143 C 0.18555 0.29463 0.73502
 C144 C 0.18382 0.31520 0.75201
 C145 C 0.20491 0.31224 0.76835
 H146 H 0.17261 0.29008 0.71928
 H147 H 0.21034 0.32454 0.78427
 N148 N 0.23528 0.21826 0.71036
 N149 N 0.25604 0.20747 0.72042
 C150 C 0.26228 0.18659 0.70635
 C151 C 0.24459 0.18402 0.68637
 C152 C 0.22777 0.20453 0.68963
 H153 H 0.27859 0.17425 0.71037
 H154 H 0.21130 0.20928 0.67773
 H155 H 0.25787 0.25410 0.73520
 H156 H 0.23665 0.23479 0.75722
 N157 N 0.29284 -0.23811 0.21961
 N158 N 0.28275 -0.25933 0.20994
 C159 C 0.29671 -0.26639 0.18919
 C160 C 0.31670 -0.24861 0.18568
 C161 C 0.31349 -0.23093 0.20544
 H162 H 0.29268 -0.28330 0.17766
 H163 H 0.32529 -0.21409 0.20942
 Cu164 Cu 0.25247 -0.27571 0.22557
 Cu165 Cu 0.27901 -0.22153 0.25016
 Cu166 Cu 0.22438 -0.24913 0.27780
 N167 N 0.22107 -0.29026 0.24079
 N168 N 0.21025 -0.27980 0.26113
 C169 C 0.18894 -0.29350 0.26754
 C170 C 0.18610 -0.31376 0.25028
 C171 C 0.20695 -0.31100 0.23356
 H172 H 0.17647 -0.28890 0.28359
 H173 H 0.21153 -0.32310 0.21727
 N174 N 0.24156 -0.21805 0.29179
 N175 N 0.26231 -0.20753 0.28114
 C176 C 0.26958 -0.18678 0.29502
 C177 C 0.25261 -0.18396 0.31551
 C178 C 0.23507 -0.20422 0.31276
 H179 H 0.28613 -0.17471 0.29053
 H180 H 0.21878 -0.20868 0.32511
 H181 H 0.26234 -0.25419 0.26623
 H182 H 0.24116 -0.23442 0.24487
 N183 N 0.70782 0.23750 0.21914
 N184 N 0.71801 0.25872 0.20965
 C185 C 0.70423 0.26581 0.18883
 C186 C 0.68425 0.24807 0.18506
 C187 C 0.68728 0.23037 0.20476
 H188 H 0.70839 0.28272 0.17742
 H189 H 0.67538 0.21358 0.20859
 Cu190 Cu 0.74814 0.27507 0.22563
 Cu191 Cu 0.72141 0.22090 0.24972
 Cu192 Cu 0.77571 0.24861 0.27807
 N193 N 0.77930 0.28973 0.24125
 N194 N 0.78993 0.27936 0.26169
 C195 C 0.81115 0.29313 0.26831
 C196 C 0.81413 0.31332 0.25108
 C197 C 0.79346 0.31046 0.23416
 H198 H 0.82349 0.28862 0.28447
 H199 H 0.78905 0.32243 0.21779
 N200 N 0.75846 0.21745 0.29171
 N201 N 0.73785 0.20689 0.28077
 C202 C 0.73053 0.18606 0.29441
 C203 C 0.74729 0.18322 0.31505
 C204 C 0.76479 0.20356 0.31264
 H205 H 0.71409 0.17392 0.28963
 H206 H 0.78092 0.20804 0.32520
 H207 H 0.73786 0.25357 0.26611
 H208 H 0.75932 0.23382 0.24493
 C209 C 0.25773 0.07911 0.51446
 C210 C 0.25809 0.07900 0.48808
 C211 C 0.25149 0.05418 0.48045
 N212 N 0.24705 0.03917 0.50122
 C213 C 0.25093 0.05436 0.52203
 C214 C 0.24802 0.04617 0.45471
 C215 C 0.24470 0.02005 0.44751
 C216 C 0.23597 0.01174 0.42365
 C217 C 0.23693 -0.01474 0.42381
 C218 C 0.24620 -0.02191 0.44778
 N219 N 0.25096 -0.00059 0.46209
 C220 C 0.25158 -0.04754 0.45519
 C221 C 0.25543 -0.05505 0.48098
 C222 C 0.26386 -0.07915 0.48873
 C223 C 0.26362 -0.07902 0.51511
 C224 C 0.25501 -0.05487 0.52258
 N225 N 0.24992 -0.04029 0.50169
 C226 C 0.25064 -0.04711 0.54826
 C227 C 0.24497 -0.02140 0.55528
 C228 C 0.23509 -0.01394 0.57894
 C229 C 0.23399 0.01255 0.57878
 C230 C 0.24325 0.02054 0.55503
 N231 N 0.24993 -0.00027 0.54083
 C232 C 0.24679 0.04657 0.54771
 H233 H 0.26187 0.09558 0.52665
 H234 H 0.26256 0.09536 0.47593
 H235 H 0.26014 0.00008 0.52360
 H236 H 0.22972 0.02354 0.40769
 H237 H 0.23157 -0.02730 0.40799
 H238 H 0.26953 -0.09517 0.47665
 H239 H 0.26907 -0.09493 0.52736
 H240 H 0.22732 0.02455 0.59447
 H241 H 0.26073 -0.00007 0.47957
 H242 H 0.22942 -0.02628 0.59476
 C243 C 0.73525 0.07828 0.48758
 C244 C 0.73567 0.07820 0.51396
 C245 C 0.74402 0.05395 0.52131
 N246 N 0.74878 0.03927 0.50035
 C247 C 0.74331 0.05406 0.47971
 C248 C 0.74846 0.04617 0.54695
 C249 C 0.75394 0.02042 0.55385
 C250 C 0.76395 0.01290 0.57741
 C251 C 0.76477 -0.01359 0.57718
 C252 C 0.75521 -0.02154 0.55350
 N253 N 0.74862 -0.00069 0.53940
 C254 C 0.75131 -0.04755 0.54615
 C255 C 0.74678 -0.05534 0.52050
 C256 C 0.73967 -0.08005 0.51293
 C257 C 0.73905 -0.07998 0.48656
 C258 C 0.74579 -0.05523 0.47892
 N259 N 0.75057 -0.04022 0.49969
 C260 C 0.74919 -0.04734 0.45317
 C261 C 0.75270 -0.02126 0.44598
 C262 C 0.76141 -0.01312 0.42208
 C263 C 0.76082 0.01338 0.42231
 C264 C 0.75179 0.02072 0.44635
 N265 N 0.74680 -0.00051 0.46064
 C266 C 0.74689 0.04646 0.45387
 H267 H 0.72968 0.09434 0.47558
 H268 H 0.73050 0.09420 0.52630
 H269 H 0.73717 -0.00086 0.47819
 H270 H 0.76989 0.02523 0.59321
 H271 H 0.77145 -0.02563 0.59278
 H272 H 0.73553 -0.09646 0.52512
 H273 H 0.73434 -0.09633 0.47441
 H274 H 0.76629 0.02582 0.40650
 H275 H 0.73826 -0.00096 0.52226
 H276 H 0.76744 -0.02503 0.40607
 C277 C 0.51136 0.26541 0.07954
 C278 C 0.48471 0.26491 0.07952
 C279 C 0.47712 0.25756 0.05499
 N280 N 0.49820 0.25354 0.04005
 C281 C 0.51915 0.25836 0.05501
 C282 C 0.45120 0.25276 0.04734
 C283 C 0.44387 0.24837 0.02148
 C284 C 0.42003 0.23841 0.01375
 C285 C 0.42011 0.23818 -0.01269
 C286 C 0.44399 0.24801 -0.02041
 N287 N 0.45830 0.25432 0.00053
 C288 C 0.45140 0.25210 -0.04627
 C289 C 0.47733 0.25684 -0.05395
 C290 C 0.48488 0.26424 -0.07845
 C291 C 0.51153 0.26501 -0.07843
 C292 C 0.51935 0.25803 -0.05393
 N293 N 0.49842 0.25298 -0.03901
 C294 C 0.54542 0.25481 -0.04618
 C295 C 0.55281 0.25072 -0.02033
 C296 C 0.57693 0.24185 -0.01260
 C297 C 0.57686 0.24178 0.01383
 C298 C 0.55271 0.25065 0.02154
 N299 N 0.53820 0.25617 0.00059
 C300 C 0.54517 0.25455 0.04739
 H301 H 0.52361 0.27016 0.09582
 H302 H 0.47235 0.26921 0.09579
 H303 H 0.52052 0.26573 0.00057
 H304 H 0.40419 0.23199 0.02589
 H305 H 0.40432 0.23157 -0.02483
 H306 H 0.47250 0.26848 -0.09470
 H307 H 0.52373 0.26996 -0.09466
 H308 H 0.59284 0.23592 0.02597
 H309 H 0.47571 0.26459 0.00049
 H310 H 0.59296 0.23607 -0.02474
 C311 C 0.48985 0.73458 0.07950
 C312 C 0.51650 0.73470 0.07920
 C313 C 0.52393 0.74259 0.05481
 N314 N 0.50274 0.74727 0.04024
 C315 C 0.48189 0.74231 0.05526
 C316 C 0.54983 0.74697 0.04688
 C317 C 0.55675 0.75217 0.02108
 C318 C 0.58055 0.76216 0.01332
 C319 C 0.58016 0.76291 -0.01310
 C320 C 0.55615 0.75333 -0.02077
 N321 N 0.54202 0.74677 0.00018
 C322 C 0.54853 0.74944 -0.04663
 C323 C 0.52254 0.74476 -0.05413
 C324 C 0.51476 0.73739 -0.07860
 C325 C 0.48811 0.73652 -0.07830
 C326 C 0.48052 0.74343 -0.05368
 N327 N 0.50159 0.74853 -0.03895
 C328 C 0.45453 0.74654 -0.04561
 C329 C 0.44747 0.75063 -0.01965
 C330 C 0.42347 0.75955 -0.01158
 C331 C 0.42387 0.75959 0.01485
 C332 C 0.44806 0.75059 0.02222
 N333 N 0.46231 0.74510 0.00106
 C334 C 0.45583 0.74639 0.04795
 H335 H 0.47771 0.72952 0.09574
 H336 H 0.52897 0.72975 0.09518
 H337 H 0.47994 0.73546 0.00077
 H338 H 0.59659 0.76818 0.02543
 H339 H 0.59587 0.76959 -0.02528
 H340 H 0.52698 0.73319 -0.09499
 H341 H 0.47576 0.73152 -0.09442
 H342 H 0.40805 0.76545 0.02721
 H343 H 0.52462 0.73648 0.00013
 H344 H 0.40731 0.76539 -0.02350
 C345 C 0.08000 0.51342 0.25460
 C346 C 0.08001 0.48695 0.25458
 C347 C 0.05548 0.47913 0.24663
 N348 N 0.04056 0.49987 0.24167
 C349 C 0.05545 0.52086 0.24669
 C350 C 0.04751 0.45324 0.24308
 C351 C 0.02141 0.44597 0.23831
 C352 C 0.01354 0.42194 0.22938
 C353 C -0.01318 0.42176 0.22958
 C354 C -0.02090 0.44569 0.23864
 N355 N 0.00030 0.46035 0.24384
 C356 C -0.04692 0.45262 0.24377
 C357 C -0.05483 0.47837 0.24760
 C358 C -0.07926 0.48580 0.25589
 C359 C -0.07928 0.51227 0.25600
 C360 C -0.05486 0.52010 0.24779
 N361 N -0.04001 0.49936 0.24252
 C362 C -0.04697 0.54598 0.24422
 C363 C -0.02096 0.55330 0.23911
 C364 C -0.01325 0.57736 0.23023
 C365 C 0.01347 0.57753 0.22991
 C366 C 0.02136 0.55357 0.23862
 N367 N 0.00026 0.53890 0.24414
 C368 C 0.04746 0.54662 0.24321
 H369 H 0.09619 0.52574 0.25993
 H370 H 0.09621 0.47489 0.25988
 H371 H 0.00037 0.52144 0.25390
 H372 H 0.02578 0.40604 0.22367
 H373 H -0.02552 0.40569 0.22406
 H374 H -0.09539 0.47347 0.26134
 H375 H -0.09542 0.52433 0.26154
 H376 H 0.02570 0.59361 0.22428
 H377 H 0.00039 0.47776 0.25376
 H378 H -0.02559 0.59329 0.22487
 C379 C 0.07904 0.48804 0.73684
 C380 C 0.07893 0.51449 0.73672
 C381 C 0.05410 0.52189 0.74377
 N382 N 0.03907 0.50089 0.74824
 C383 C 0.05428 0.48018 0.74397
 C384 C 0.04622 0.54761 0.74784
 C385 C 0.02007 0.55464 0.75201
 C386 C 0.01216 0.57829 0.76160
 C387 C -0.01455 0.57795 0.76167
 C388 C -0.02224 0.55412 0.75207
 N389 N -0.00102 0.54006 0.74612
 C390 C -0.04834 0.54651 0.74782
 C391 C -0.05595 0.52065 0.74342
 C392 C -0.08061 0.51278 0.73592
 C393 C -0.08048 0.48632 0.73568
 C394 C -0.05575 0.47893 0.74306
 N395 N -0.04080 0.49994 0.74781
 C396 C -0.04793 0.45321 0.74716
 C397 C -0.02183 0.44619 0.75160
 C398 C -0.01402 0.42254 0.76119
 C399 C 0.01268 0.42288 0.76152
 C400 C 0.02047 0.44672 0.75211
 N401 N -0.00069 0.46077 0.74600
 C402 C 0.04660 0.45434 0.74817
 H403 H 0.09554 0.47598 0.73241
 H404 H 0.09533 0.52685 0.73219
 H405 H -0.00067 0.47812 0.73601
 H406 H 0.02436 0.59418 0.76790
 H407 H -0.02688 0.59354 0.76801
 H408 H -0.09705 0.52482 0.73130
 H409 H -0.09679 0.47395 0.73086
 H410 H 0.02497 0.40730 0.76791
 H411 H -0.00093 0.52272 0.73607
 H412 H -0.02628 0.40666 0.76730
 C413 C 0.37221 0.24599 0.12699
 C414 C 0.35249 0.26487 0.12673
 C415 C 0.33292 0.26461 0.14558
 C416 C 0.33256 0.24577 0.16498
 C417 C 0.35217 0.22707 0.16510
 C418 C 0.37168 0.22714 0.14645
 C419 C 0.39280 0.24702 0.10657
 C420 C 0.41327 0.22912 0.10513
 C421 C 0.43205 0.23103 0.08586
 C422 C 0.43095 0.25079 0.06761
 C423 C 0.41066 0.26862 0.06866
 C424 C 0.39163 0.26690 0.08796
 C425 C 0.35241 0.28396 0.10770
 C426 C 0.37155 0.28496 0.08876
 H427 H 0.33731 0.29842 0.10747
 H428 H 0.37064 0.30016 0.07452
 H429 H 0.31805 0.27924 0.14503
 H430 H 0.35264 0.21222 0.17964
 H431 H 0.44758 0.21705 0.08516
 H432 H 0.40984 0.28390 0.05447
 H433 H 0.38615 0.21227 0.14771
 H434 H 0.41519 0.21352 0.11865
 C435 C 0.63119 0.74639 0.12446
 C436 C 0.62997 0.76543 0.14394
 C437 C 0.64891 0.76633 0.16343
 C438 C 0.66935 0.74838 0.16407
 C439 C 0.67033 0.72955 0.14454
 C440 C 0.65166 0.72857 0.12510
 C441 C 0.61058 0.74605 0.10403
 C442 C 0.61008 0.72788 0.08379
 C443 C 0.59038 0.72830 0.06536
 C444 C 0.57073 0.74678 0.06660
 C445 C 0.57104 0.76506 0.08649
 C446 C 0.59073 0.76480 0.10520
 C447 C 0.60981 0.78345 0.14393
 C448 C 0.59062 0.78314 0.12500
 H449 H 0.60881 0.79805 0.15885
 H450 H 0.57543 0.79749 0.12591
 H451 H 0.64742 0.78108 0.17809
 H452 H 0.68556 0.71533 0.14392
 H453 H 0.59037 0.71408 0.05006
 H454 H 0.55587 0.77945 0.08734
 H455 H 0.65369 0.71364 0.11081
 H456 H 0.62463 0.71316 0.08181
 C457 C 0.62620 0.25468 -0.12429
 C458 C 0.62512 0.23487 -0.14303
 C459 C 0.64398 0.23374 -0.16256
 C460 C 0.66417 0.25210 -0.16381
 C461 C 0.66517 0.27160 -0.14504
 C462 C 0.64655 0.27292 -0.12561
 C463 C 0.60563 0.25533 -0.10385
 C464 C 0.60484 0.27442 -0.08449
 C465 C 0.58527 0.27416 -0.06592
 C466 C 0.56605 0.25495 -0.06617
 C467 C 0.56656 0.23585 -0.08526
 C468 C 0.58612 0.23593 -0.10410
 C469 C 0.60525 0.21628 -0.14219
 C470 C 0.58621 0.21677 -0.12312
 H471 H 0.60440 0.20107 -0.15650
 H472 H 0.57127 0.20194 -0.12332
 H473 H 0.64279 0.21849 -0.17677
 H474 H 0.68038 0.28608 -0.14516
 H475 H 0.58506 0.28905 -0.05127
 H476 H 0.55169 0.22092 -0.08535
 H477 H 0.64853 0.28837 -0.11184
 H478 H 0.61906 0.28973 -0.08331
 C479 C 0.37319 0.74598 -0.12318
 C480 C 0.37409 0.76572 -0.14193
 C481 C 0.35516 0.76667 -0.16139
 C482 C 0.33509 0.74818 -0.16260
 C483 C 0.33429 0.72870 -0.14387
 C484 C 0.35298 0.72759 -0.12448
 C485 C 0.39384 0.74557 -0.10281
 C486 C 0.39478 0.72662 -0.08340
 C487 C 0.41447 0.72705 -0.06494
 C488 C 0.43366 0.74630 -0.06536
 C489 C 0.43294 0.76531 -0.08445
 C490 C 0.41327 0.76505 -0.10317
 C491 C 0.39386 0.78442 -0.14116
 C492 C 0.41300 0.78411 -0.12220
 H493 H 0.39457 0.79957 -0.15548
 H494 H 0.42787 0.79901 -0.12247
 H495 H 0.35620 0.78191 -0.17553
 H496 H 0.31921 0.71410 -0.14403
 H497 H 0.41483 0.71225 -0.05028
 H498 H 0.44777 0.78027 -0.08466
 H499 H 0.35117 0.71215 -0.11074
 H500 H 0.38061 0.71128 -0.08211
 C501 C 0.12460 0.37210 0.24950
 C502 C 0.14478 0.37237 0.23102
 C503 C 0.16396 0.35321 0.23135
 C504 C 0.16341 0.33347 0.24983
 C505 C 0.14331 0.33332 0.26809
 C506 C 0.12422 0.35229 0.26798
 C507 C 0.10445 0.39286 0.24845
 C508 C 0.08370 0.39439 0.26609
 C509 C 0.06540 0.41401 0.26423
 C510 C 0.06727 0.43256 0.24480
 C511 C 0.08780 0.43135 0.22714
 C512 C 0.10640 0.41173 0.22886
 C513 C 0.14567 0.39170 0.21224
 C514 C 0.12688 0.41090 0.21115
 H515 H 0.16113 0.39194 0.19808
 H516 H 0.12842 0.42536 0.19619
 H517 H 0.17931 0.35381 0.21713
 H518 H 0.14204 0.31843 0.28256
 H519 H 0.04967 0.41480 0.27804
 H520 H 0.08919 0.44572 0.21207
 H521 H 0.10931 0.35095 0.28249
 H522 H 0.08121 0.38072 0.28149
 C523 C 0.12600 0.62734 0.75279
 C524 C 0.12567 0.64650 0.73348
 C525 C 0.14469 0.66612 0.73326
 C526 C 0.16437 0.66712 0.75210
 C527 C 0.16434 0.64801 0.77130
 C528 C 0.14555 0.62851 0.77166
 C529 C 0.10555 0.60658 0.75222
 C530 C 0.10434 0.58654 0.77050
 C531 C 0.08505 0.56756 0.76900
 C532 C 0.06656 0.56803 0.74929
 C533 C 0.06737 0.58789 0.73108
 C534 C 0.08671 0.60710 0.73236
 C535 C 0.10641 0.64596 0.71443
 C536 C 0.08735 0.62671 0.71390
 H537 H 0.10608 0.66065 0.69964
 H538 H 0.07293 0.62714 0.69872
 H539 H 0.14397 0.68048 0.71822
 H540 H 0.17885 0.64777 0.78630
 H541 H 0.08453 0.55238 0.78328
 H542 H 0.05298 0.58820 0.71584
 H543 H 0.14681 0.61454 0.78691
 H544 H 0.11806 0.58508 0.78607
 C545 C -0.12458 0.62668 0.25045
 C546 C -0.14424 0.62662 0.23145
 C547 C -0.16344 0.64576 0.23155
 C548 C -0.16363 0.66529 0.25045
 C549 C -0.14408 0.66501 0.26938
 C550 C -0.12491 0.64610 0.26940
 C551 C -0.10427 0.60606 0.24949
 C552 C -0.08371 0.60459 0.26735
 C553 C -0.06526 0.58507 0.26553
 C554 C -0.06683 0.56657 0.24595
 C555 C -0.08712 0.56776 0.22805
 C556 C -0.10580 0.58732 0.22966
 C557 C -0.14465 0.60748 0.21238
 C558 C -0.12588 0.58825 0.21153
 H559 H -0.15973 0.60737 0.19784
 H560 H -0.12707 0.57391 0.19637
 H561 H -0.17818 0.64517 0.21673
 H562 H -0.14324 0.67945 0.28438
 H563 H -0.04965 0.58434 0.27949
 H564 H -0.08823 0.55346 0.21282
 H565 H -0.11054 0.64713 0.28445
 H566 H -0.08144 0.61827 0.28283
 C567 C -0.12763 0.37337 0.75146
 C568 C -0.12694 0.35394 0.73235
 C569 C -0.14589 0.33425 0.73203
 C570 C -0.16588 0.33347 0.75056
 C571 C -0.16621 0.35287 0.76955
 C572 C -0.14750 0.37243 0.77001
 C573 C -0.10723 0.39418 0.75103
 C574 C -0.10632 0.41441 0.76920
 C575 C -0.08706 0.43342 0.76785
 C576 C -0.06829 0.43280 0.74839
 C577 C -0.06881 0.41275 0.73029
 C578 C -0.08811 0.39348 0.73145
 C579 C -0.10739 0.35430 0.71358
 C580 C -0.08841 0.37363 0.71315
 H581 H -0.10679 0.33942 0.69893
 H582 H -0.07377 0.37306 0.69818
 H583 H -0.14490 0.31968 0.71715
 H584 H -0.18096 0.35330 0.78432
 H585 H -0.08676 0.44873 0.78205
 H586 H -0.05420 0.41228 0.71527
 H587 H -0.14906 0.38662 0.78510
 H588 H -0.12023 0.41599 0.78459
 C589 C 0.24436 0.12538 0.37589
 C590 C 0.26424 0.12516 0.35709
 C591 C 0.26484 0.14402 0.33771
 C592 C 0.24587 0.16338 0.33666
 C593 C 0.22622 0.16346 0.35540
 C594 C 0.22544 0.14482 0.37469
 C595 C 0.24448 0.10498 0.39632
 C596 C 0.22548 0.10345 0.41582
 C597 C 0.22664 0.08428 0.43457
 C598 C 0.24672 0.06622 0.43439
 C599 C 0.26559 0.06730 0.41499
 C600 C 0.26462 0.08649 0.39600
 C601 C 0.28349 0.10620 0.35777
 C602 C 0.28369 0.08732 0.37681
 H603 H 0.29872 0.10599 0.34337
 H604 H 0.29907 0.07315 0.37653
 H605 H 0.28024 0.14355 0.32356
 H606 H 0.21122 0.17794 0.35533
 H607 H 0.21184 0.08354 0.44937
 H608 H 0.28110 0.05325 0.41487
 H609 H 0.20985 0.14607 0.38848
 H610 H 0.20958 0.11682 0.41702
 C611 C 0.74585 0.12349 0.62803
 C612 C 0.76472 0.14345 0.62696
 C613 C 0.76519 0.16285 0.64588
 C614 C 0.74712 0.16279 0.66616
 C615 C 0.72851 0.14287 0.66714
 C616 C 0.72784 0.12354 0.64843
 C617 C 0.74595 0.10320 0.60740
 C618 C 0.72788 0.08263 0.60662
 C619 C 0.72879 0.06427 0.58698
 C620 C 0.74766 0.06593 0.56767
 C621 C 0.76578 0.08622 0.56818
 C622 C 0.76503 0.10486 0.58781
 C623 C 0.78303 0.14397 0.60703
 C624 C 0.78321 0.12507 0.58791
 H625 H 0.79751 0.15923 0.60619
 H626 H 0.79781 0.12635 0.57294
 H627 H 0.77970 0.17800 0.64462
 H628 H 0.71432 0.14200 0.68245
 H629 H 0.71467 0.04867 0.58678
 H630 H 0.78046 0.08741 0.55326
 H631 H 0.71307 0.10883 0.65037
 H632 H 0.71288 0.08033 0.62091
 C633 C 0.25407 -0.12472 0.62869
 C634 C 0.23528 -0.14475 0.62754
 C635 C 0.23494 -0.16417 0.64635
 C636 C 0.25306 -0.16408 0.66658
 C637 C 0.27165 -0.14414 0.66759
 C638 C 0.27220 -0.12478 0.64898
 C639 C 0.25376 -0.10433 0.60824
 C640 C 0.27166 -0.08361 0.60760
 C641 C 0.27054 -0.06516 0.58813
 C642 C 0.25162 -0.06689 0.56886
 C643 C 0.23365 -0.08731 0.56926
 C644 C 0.23461 -0.10602 0.58871
 C645 C 0.21690 -0.14530 0.60767
 C646 C 0.21656 -0.12635 0.58870
 H647 H 0.20250 -0.16063 0.60677
 H648 H 0.20192 -0.12765 0.57376
 H649 H 0.22047 -0.17936 0.64505
 H650 H 0.28590 -0.14326 0.68284
 H651 H 0.28454 -0.04947 0.58801
 H652 H 0.21894 -0.08854 0.55437
 H653 H 0.28695 -0.11005 0.65094
 H654 H 0.28669 -0.08126 0.62187
 C655 C 0.75367 -0.12680 0.37429
 C656 C 0.73392 -0.12680 0.35535
 C657 C 0.73365 -0.14569 0.33590
 C658 C 0.75283 -0.16484 0.33491
 C659 C 0.77237 -0.16467 0.35377
 C660 C 0.77282 -0.14602 0.37313
 C661 C 0.75324 -0.10639 0.39479
 C662 C 0.77208 -0.10473 0.41444
 C663 C 0.77071 -0.08550 0.43319
 C664 C 0.75056 -0.06752 0.43289
 C665 C 0.73180 -0.06877 0.41339
 C666 C 0.73299 -0.08804 0.39438
 C667 C 0.71450 -0.10800 0.35598
 C668 C 0.71403 -0.08907 0.37507
 H669 H 0.69936 -0.10794 0.34149
 H670 H 0.69855 -0.07501 0.37472
 H671 H 0.71835 -0.14539 0.32162
 H672 H 0.78754 -0.17897 0.35378
 H673 H 0.78541 -0.08464 0.44808
 H674 H 0.71623 -0.05479 0.41317
 H675 H 0.78835 -0.14709 0.38699
 H676 H 0.78802 -0.11802 0.41576
 C677 C 0.62704 0.75445 -0.12682
 C678 C 0.64646 0.73527 -0.12651
 C679 C 0.66579 0.73495 -0.14558
 C680 C 0.66619 0.75347 -0.16526
 C681 C 0.64688 0.77248 -0.16544
 C682 C 0.62762 0.77301 -0.14655
 C683 C 0.60665 0.75400 -0.10619
 C684 C 0.58650 0.77226 -0.10474
 C685 C 0.56781 0.77078 -0.08534
 C686 C 0.56872 0.75111 -0.06698
 C687 C 0.58874 0.73300 -0.06799
 C688 C 0.60766 0.73428 -0.08741
 C689 C 0.64646 0.71643 -0.10724
 C690 C 0.62747 0.71592 -0.08815
 H691 H 0.66133 0.70174 -0.10698
 H692 H 0.62827 0.70087 -0.07375
 H693 H 0.68047 0.72013 -0.14494
 H694 H 0.64641 0.78705 -0.18025
 H695 H 0.55251 0.78500 -0.08464
 H696 H 0.58941 0.71780 -0.05371
 H697 H 0.61335 0.78806 -0.14788
 H698 H 0.58476 0.78780 -0.11834
 C699 C 0.37267 0.24675 -0.12623
 C700 C 0.35307 0.26575 -0.12569
 C701 C 0.33368 0.26597 -0.14471
 C702 C 0.33344 0.24756 -0.16458
 C703 C 0.35296 0.22878 -0.16501
 C704 C 0.37227 0.22834 -0.14617
 C705 C 0.39309 0.24727 -0.10563
 C706 C 0.41333 0.22911 -0.10433
 C707 C 0.43206 0.23067 -0.08498
 C708 C 0.43111 0.25032 -0.06651
 C709 C 0.41097 0.26831 -0.06734
 C710 C 0.39199 0.26693 -0.08670
 C711 C 0.35296 0.28452 -0.10627
 C712 C 0.37203 0.28513 -0.08724
 H713 H 0.33796 0.29907 -0.10584
 H714 H 0.37116 0.30014 -0.07273
 H715 H 0.31882 0.28061 -0.14388
 H716 H 0.35359 0.21434 -0.18001
 H717 H 0.44745 0.21654 -0.08441
 H718 H 0.41026 0.28347 -0.05296
 H719 H 0.38672 0.21347 -0.14771
 H720 H 0.41511 0.21359 -0.11802
 C721 C 0.37706 0.75155 0.12778
 C722 C 0.35729 0.73244 0.12739
 C723 C 0.33765 0.73252 0.14618
 C724 C 0.33731 0.75140 0.16561
 C725 C 0.35698 0.77031 0.16583
 C726 C 0.37653 0.77043 0.14727
 C727 C 0.39771 0.75077 0.10745
 C728 C 0.41817 0.76897 0.10615
 C729 C 0.43692 0.76740 0.08686
 C730 C 0.43580 0.74769 0.06846
 C731 C 0.41559 0.72949 0.06944
 C732 C 0.39656 0.73088 0.08875
 C733 C 0.35724 0.71333 0.10831
 C734 C 0.37646 0.71255 0.08942
 H735 H 0.34211 0.69868 0.10798
 H736 H 0.37556 0.69735 0.07511
 H737 H 0.32268 0.71777 0.14554
 H738 H 0.35753 0.78517 0.18043
 H739 H 0.45239 0.78166 0.08621
 H740 H 0.41477 0.71425 0.05513
 H741 H 0.39103 0.78546 0.14863
 H742 H 0.42009 0.78458 0.11974
 C743 C 0.62419 0.24828 0.12687
 C744 C 0.64369 0.26766 0.12705
 C745 C 0.66326 0.26744 0.14591
 C746 C 0.66379 0.24815 0.16485
 C747 C 0.64442 0.22894 0.16446
 C748 C 0.62494 0.22896 0.14582
 C749 C 0.60355 0.24927 0.10653
 C750 C 0.58329 0.23089 0.10474
 C751 C 0.56448 0.23273 0.08555
 C752 C 0.56534 0.25289 0.06772
 C753 C 0.58539 0.27126 0.06915
 C754 C 0.60446 0.26961 0.08839
 C755 C 0.64353 0.28719 0.10848
 C756 C 0.62434 0.28815 0.08958
 H757 H 0.65846 0.30204 0.10858
 H758 H 0.62506 0.30369 0.07569
 H759 H 0.67799 0.28243 0.14574
 H760 H 0.64405 0.21373 0.17863
 H761 H 0.54915 0.21834 0.08453
 H762 H 0.58601 0.28683 0.05527
 H763 H 0.61067 0.21368 0.14672
 H764 H 0.58156 0.21495 0.11790
 C765 C -0.12791 0.62542 0.75230
 C766 C -0.12666 0.64513 0.73357
 C767 C -0.14533 0.66476 0.73331
 C768 C -0.16563 0.66530 0.75149
 C769 C -0.16663 0.64563 0.77009
 C770 C -0.14815 0.62605 0.77050
 C771 C -0.10766 0.60474 0.75180
 C772 C -0.10712 0.58429 0.76964
 C773 C -0.08788 0.56548 0.76826
 C774 C -0.06881 0.56653 0.74909
 C775 C -0.06904 0.58676 0.73129
 C776 C -0.08823 0.60583 0.73252
 C777 C -0.10682 0.64515 0.71512
 C778 C -0.08805 0.62592 0.71459
 H779 H -0.10581 0.66026 0.70078
 H780 H -0.07316 0.62680 0.69987
 H781 H -0.14380 0.67952 0.71872
 H782 H -0.18173 0.64503 0.78452
 H783 H -0.08781 0.55003 0.78225
 H784 H -0.05422 0.58756 0.71648
 H785 H -0.15016 0.61158 0.78523
 H786 H -0.12127 0.58243 0.78481
 C787 C -0.12516 0.37150 0.25007
 C788 C -0.14530 0.37184 0.23155
 C789 C -0.16497 0.35292 0.23200
 C790 C -0.16504 0.33339 0.25070
 C791 C -0.14500 0.33315 0.26902
 C792 C -0.12537 0.35187 0.26876
 C793 C -0.10455 0.39208 0.24893
 C794 C -0.08373 0.39351 0.26653
 C795 C -0.06513 0.41313 0.26470
 C796 C -0.06677 0.43175 0.24534
 C797 C -0.08725 0.43053 0.22763
 C798 C -0.10614 0.41093 0.22931
 C799 C -0.14572 0.39104 0.21264
 C800 C -0.12656 0.41014 0.21153
 H801 H -0.16112 0.39131 0.19844
 H802 H -0.12778 0.42455 0.19652
 H803 H -0.18019 0.35359 0.21768
 H804 H -0.14428 0.31847 0.28372
 H805 H -0.04939 0.41389 0.27852
 H806 H -0.08842 0.44493 0.21259
 H807 H -0.11058 0.35055 0.28336
 H808 H -0.08145 0.37978 0.28188
 C809 C 0.12620 0.37556 0.75309
 C810 C 0.12559 0.35627 0.73381
 C811 C 0.14431 0.33670 0.73363
 C812 C 0.16391 0.33587 0.75243
 C813 C 0.16437 0.35502 0.77156
 C814 C 0.14585 0.37457 0.77192
 C815 C 0.10591 0.39620 0.75249
 C816 C 0.10481 0.41632 0.77076
 C817 C 0.08558 0.43510 0.76927
 C818 C 0.06705 0.43433 0.74958
 C819 C 0.06782 0.41444 0.73135
 C820 C 0.08705 0.39543 0.73264
 C821 C 0.10635 0.35659 0.71477
 C822 C 0.08750 0.37574 0.71420
 H823 H 0.10586 0.34180 0.70001
 H824 H 0.07306 0.37513 0.69903
 H825 H 0.14351 0.32221 0.71865
 H826 H 0.17905 0.35506 0.78642
 H827 H 0.08508 0.45032 0.78356
 H828 H 0.05341 0.41388 0.71613
 H829 H 0.14733 0.38867 0.78712
 H830 H 0.11854 0.41793 0.78634
 C831 C 0.12553 0.62793 0.24926
 C832 C 0.14542 0.62778 0.23047
 C833 C 0.16503 0.64677 0.23090
 C834 C 0.16529 0.66615 0.24983
 C835 C 0.14547 0.66620 0.26839
 C836 C 0.12590 0.64744 0.26815
 C837 C 0.10499 0.60727 0.24819
 C838 C 0.08444 0.60566 0.26607
 C839 C 0.06588 0.58599 0.26430
 C840 C 0.06731 0.56750 0.24471
 C841 C 0.08754 0.56889 0.22673
 C842 C 0.10637 0.58855 0.22835
 C843 C 0.14565 0.60871 0.21135
 C844 C 0.12654 0.58954 0.21030
 H845 H 0.16086 0.60858 0.19694
 H846 H 0.12761 0.57522 0.19513
 H847 H 0.18007 0.64628 0.21636
 H848 H 0.14489 0.68075 0.28329
 H849 H 0.05035 0.58509 0.27833
 H850 H 0.08854 0.55458 0.21153
 H851 H 0.11129 0.64863 0.28294
 H852 H 0.08232 0.61928 0.28160
 C853 C 0.75572 -0.12684 0.62476
 C854 C 0.73619 -0.12639 0.64391
 C855 C 0.73582 -0.14512 0.66338
 C856 C 0.75466 -0.16459 0.66421
 C857 C 0.77399 -0.16492 0.64515
 C858 C 0.77456 -0.14639 0.62574
 C859 C 0.75537 -0.10652 0.60427
 C860 C 0.77398 -0.10521 0.58439
 C861 C 0.77265 -0.08602 0.56567
 C862 C 0.75279 -0.06773 0.56629
 C863 C 0.73428 -0.06865 0.58601
 C864 C 0.73541 -0.08785 0.60494
 C865 C 0.71707 -0.10730 0.64352
 C866 C 0.71667 -0.08847 0.62445
 H867 H 0.70210 -0.10694 0.65817
 H868 H 0.70141 -0.07418 0.62497
 H869 H 0.72070 -0.14440 0.67781
 H870 H 0.78887 -0.17953 0.64506
 H871 H 0.78715 -0.08541 0.55058
 H872 H 0.71894 -0.05442 0.58644
 H873 H 0.78989 -0.14781 0.61169
 H874 H 0.78969 -0.11877 0.58288
 C875 C 0.25485 -0.12502 0.37448
 C876 C 0.23544 -0.14449 0.37495
 C877 C 0.23482 -0.16362 0.35578
 C878 C 0.25329 -0.16376 0.33587
 C879 C 0.27247 -0.14437 0.33553
 C880 C 0.27329 -0.12532 0.35448
 C881 C 0.25479 -0.10489 0.39523
 C882 C 0.27333 -0.08475 0.39650
 C883 C 0.27226 -0.06633 0.41606
 C884 C 0.25279 -0.06755 0.43479
 C885 C 0.23433 -0.08751 0.43391
 C886 C 0.23520 -0.10617 0.41433
 C887 C 0.21670 -0.14472 0.39449
 C888 C 0.21656 -0.12596 0.41373
 H889 H 0.20182 -0.15962 0.39488
 H890 H 0.20159 -0.12696 0.42836
 H891 H 0.21983 -0.17834 0.35650
 H892 H 0.28704 -0.14369 0.32058
 H893 H 0.28666 -0.05100 0.41660
 H894 H 0.21922 -0.08834 0.44843
 H895 H 0.28850 -0.11101 0.35302
 H896 H 0.28877 -0.08278 0.38263
 C897 C 0.74454 0.12407 0.37355
 C898 C 0.76419 0.14329 0.37411
 C899 C 0.76499 0.16249 0.35508
 C900 C 0.74646 0.16293 0.33523
 C901 C 0.72704 0.14377 0.33480
 C902 C 0.72605 0.12466 0.35361
 C903 C 0.74438 0.10389 0.39417
 C904 C 0.72560 0.08397 0.39535
 C905 C 0.72644 0.06553 0.41481
 C906 C 0.74593 0.06648 0.43355
 C907 C 0.76466 0.08620 0.43273
 C908 C 0.76401 0.10488 0.41325
 C909 C 0.78298 0.14324 0.39361
 C910 C 0.78291 0.12444 0.41273
 H911 H 0.79804 0.15795 0.39407
 H912 H 0.79791 0.12522 0.42734
 H913 H 0.78018 0.17700 0.35585
 H914 H 0.71239 0.14334 0.31992
 H915 H 0.71184 0.05038 0.41528
 H916 H 0.77979 0.08682 0.44724
 H917 H 0.71065 0.11054 0.35208
 H918 H 0.71013 0.08220 0.38147
 C919 C 0.24264 0.12600 0.62650
 C920 C 0.26244 0.12581 0.64537
 C921 C 0.26292 0.14466 0.66481
 C922 C 0.24392 0.16397 0.66588
 C923 C 0.22431 0.16401 0.64711
 C924 C 0.22363 0.14537 0.62772
 C925 C 0.24290 0.10561 0.60599
 C926 C 0.22406 0.10409 0.58632
 C927 C 0.22533 0.08486 0.56756
 C928 C 0.24536 0.06676 0.56792
 C929 C 0.26410 0.06788 0.58741
 C930 C 0.26304 0.08712 0.60640
 C931 C 0.28172 0.10689 0.64474
 C932 C 0.28202 0.08797 0.62566
 H933 H 0.29689 0.10672 0.65919
 H934 H 0.29740 0.07381 0.62599
 H935 H 0.27827 0.14418 0.67902
 H936 H 0.20929 0.17848 0.64721
 H937 H 0.21066 0.08409 0.55263
 H938 H 0.27958 0.05380 0.58763
 H939 H 0.20808 0.14657 0.61391
 H940 H 0.20822 0.11751 0.58502
   
