data_POSCAR
  _audit_creation_date              2014-09-24
  _audit_creation_method            'ToBaCCo'
  _symmetry_space_group_name_H-M    'P1'
  _symmetry_Int_Tables_number       1
  _symmetry_cell_setting            triclinic
  loop_
  _symmetry_equiv_pos_as_xyz
 x,y,z
_cell_length_a 46.5521
_cell_length_b 46.5512
_cell_length_c 46.5392
_cell_angle_alpha 89.846100
_cell_angle_beta 90.170600
_cell_angle_gamma 89.821700
loop_
  _atom_site_label
  _atom_site_type_symbol
  _atom_site_fract_x
  _atom_site_fract_y
  _atom_site_fract_z
C1 C 0.24901 0.96673 -0.02377
 C2 C 0.25091 0.96651 0.00649
 C3 C 0.25365 0.99249 0.02130
 C4 C 0.25435 1.01876 0.00668
 C5 C 0.25214 1.01917 -0.02355
 C6 C 0.24959 0.99313 -0.03849
 H7 H 0.24801 0.99342 -0.06179
 H8 H 0.25518 0.99221 0.04461
 C9 C 0.75157 0.46518 0.50696
 C10 C 0.74941 0.46490 0.47675
 C11 C 0.75013 0.49097 0.46154
 C12 C 0.75308 0.51718 0.47600
 C13 C 0.75556 0.51728 0.50610
 C14 C 0.75473 0.49137 0.52127
 H15 H 0.75646 0.49161 0.54454
 H16 H 0.74834 0.49088 0.43828
 C17 C 0.74857 1.00593 0.96541
 C18 C 0.75051 0.97573 0.96542
 C19 C 0.74979 0.96078 0.99164
 C20 C 0.74727 0.97554 1.01776
 C21 C 0.74545 1.00572 1.01760
 C22 C 0.74606 1.02056 0.99149
 H23 H 0.74466 1.04386 0.99149
 H24 H 0.75126 0.93750 0.99168
 C25 C 0.24863 0.50709 0.46550
 C26 C 0.25032 0.47684 0.46591
 C27 C 0.24964 0.46232 0.49239
 C28 C 0.24740 0.47747 0.51830
 C29 C 0.24584 0.50763 0.51774
 C30 C 0.24642 0.52210 0.49142
 H31 H 0.24519 0.54540 0.49111
 H32 H 0.25091 0.43904 0.49284
 C33 C 1.01841 0.25134 0.02407
 C34 C 1.01794 0.25316 -0.00618
 C35 C 0.99162 0.25253 -0.02072
 C36 C 0.96571 0.25003 -0.00578
 C37 C 0.96604 0.24808 0.02444
 C38 C 0.99243 0.24880 0.03908
 H39 H 0.99270 0.24733 0.06238
 H40 H 0.99124 0.25395 -0.04403
 C41 C 0.46604 0.74870 0.52307
 C42 C 0.46573 0.75041 0.49283
 C43 C 0.49169 0.75259 0.47791
 C44 C 0.51793 0.75314 0.49251
 C45 C 0.51839 0.75157 0.52268
 C46 C 0.49244 0.74935 0.53772
 H47 H 0.49280 0.74809 0.56101
 H48 H 0.49147 0.75382 0.45461
 C49 C 0.00627 0.75018 0.03395
 C50 C -0.02398 0.75210 0.03397
 C51 C -0.03892 0.75160 0.00768
 C52 C -0.02417 0.74910 -0.01845
 C53 C 0.00599 0.74689 -0.01825
 C54 C 0.02084 0.74751 0.00785
 H55 H 0.04413 0.74596 0.00784
 H56 H -0.06221 0.75318 0.00755
 C57 C 0.50614 0.24604 0.48318
 C58 C 0.47604 0.24848 0.48306
 C59 C 0.46136 0.25130 0.50918
 C60 C 0.47635 0.25192 0.53540
 C61 C 0.50656 0.24978 0.53534
 C62 C 0.52108 0.24677 0.50924
 H63 H 0.54435 0.24505 0.50919
 H64 H 0.43811 0.25306 0.50908
 C65 C 0.98196 -0.00855 0.25456
 C66 C 0.98175 0.02161 0.25237
 C67 C 1.00783 0.03637 0.24979
 C68 C 1.03411 0.02151 0.24913
 C69 C 1.03418 -0.00876 0.25101
 C70 C 1.00810 -0.02339 0.25381
 H71 H 1.00813 -0.04671 0.25532
 H72 H 1.00766 0.05964 0.24822
 C73 C 0.53472 0.52360 0.74951
 C74 C 0.53459 0.49340 0.75173
 C75 C 0.50846 0.47897 0.75483
 C76 C 0.48246 0.49399 0.75555
 C77 C 0.48242 0.52408 0.75303
 C78 C 0.50856 0.53867 0.75014
 H79 H 0.50853 0.56192 0.74831
 H80 H 0.50835 0.45570 0.75660
 C81 C 1.02303 0.98357 0.74676
 C82 C 0.99290 0.98368 0.74492
 C83 C 0.97797 1.00974 0.74556
 C84 C 0.99255 1.03588 0.74814
 C85 C 1.02281 1.03589 0.75014
 C86 C 1.03775 1.00966 0.74936
 H87 H 1.06102 1.00954 0.75085
 H88 H 0.95467 1.00960 0.74412
 C89 C 0.52290 0.48154 0.24645
 C90 C 0.49275 0.48199 0.24476
 C91 C 0.47816 0.50826 0.24522
 C92 C 0.49307 0.53421 0.24747
 C93 C 0.52330 0.53390 0.24932
 C94 C 0.53794 0.50749 0.24873
 H95 H 0.56121 0.50712 0.25011
 H96 H 0.45487 0.50848 0.24390
 O97 O 0.26717 0.17546 0.19246
 O98 O 0.29948 0.16729 0.23278
 O99 O 0.19225 0.20894 0.23474
 O100 O 0.18173 0.24626 0.26316
 O101 O 0.22651 0.25081 0.15865
 O102 O 0.26664 0.28253 0.15123
 O103 O 0.26614 0.28909 0.30765
 O104 O 0.23299 0.24959 0.31452
 O105 O 0.34054 0.24966 0.27344
 O106 O 0.34905 0.21703 0.23237
 O107 O 0.30616 0.32329 0.23491
 O108 O 0.26457 0.33183 0.20111
 O109 O 0.26658 0.32360 0.27293
 O110 O 0.23505 0.33295 0.23238
 O111 O 0.34065 0.28853 0.23482
 O112 O 0.34960 0.24805 0.20219
 O113 O 0.30593 0.25095 0.30784
 O114 O 0.27155 0.21869 0.31732
 O115 O 0.26687 0.21055 0.15826
 O116 O 0.29822 0.25019 0.15056
 O117 O 0.19203 0.24949 0.19326
 O118 O 0.18483 0.28215 0.23351
 O119 O 0.22711 0.17458 0.23307
 O120 O 0.26839 0.16515 0.26349
 Zr121 Zr 0.26576 0.19782 0.23187
 O122 O 0.29205 0.22237 0.25924
 Zr123 Zr 0.21497 0.24801 0.23231
 O124 O 0.23944 0.27500 0.25919
 Zr125 Zr 0.26539 0.24889 0.18183
 O126 O 0.29230 0.27533 0.20668
 Zr127 Zr 0.26719 0.25009 0.28467
 O128 O 0.24036 0.22253 0.26019
 Zr129 Zr 0.31760 0.24990 0.23436
 O130 O 0.29335 0.22320 0.20672
 Zr131 Zr 0.26702 0.30057 0.23417
 O132 O 0.23981 0.27619 0.20707
 O133 O 0.23886 0.22180 0.20534
 O134 O 0.29406 0.27699 0.26119
 C135 C 0.26757 0.18419 0.16624
 C136 C 0.20082 0.18266 0.23475
 C137 C 0.20024 0.25091 0.16699
 C138 C 0.26606 0.31541 0.29924
 C139 C 0.33221 0.25033 0.29969
 C140 C 0.33244 0.31481 0.23509
 H141 H 0.30363 0.20930 0.27146
 H142 H 0.30418 0.28722 0.19375
 H143 H 0.22655 0.20959 0.19307
 H144 H 0.22638 0.28668 0.27117
 H145 H 0.22067 0.23302 0.30952
 H146 H 0.18861 0.25651 0.28043
 H147 H 0.34530 0.26321 0.18787
 H148 H 0.31363 0.23715 0.15745
 H149 H 0.26199 0.20125 0.31010
 H150 H 0.25262 0.16848 0.27730
 H151 H 0.28122 0.32902 0.18825
 H152 H 0.25292 0.29736 0.15786
 H153 H 0.31392 0.17378 0.21862
 H154 H 0.34496 0.20304 0.24785
 H155 H 0.19080 0.29628 0.21877
 H156 H 0.21992 0.32776 0.24632
 O157 O 0.74884 0.84088 0.22573
 O158 O 0.71721 0.84858 0.26583
 O159 O 0.82436 0.80689 0.26735
 O160 O 0.83451 0.76978 0.29683
 O161 O 0.79068 0.76575 0.19169
 O162 O 0.75040 0.73427 0.18348
 O163 O 0.75042 0.72638 0.34018
 O164 O 0.78370 0.76534 0.34726
 O165 O 0.67633 0.76487 0.30574
 O166 O 0.66770 0.79871 0.26466
 O167 O 0.71054 0.69232 0.26607
 O168 O 0.75251 0.68406 0.23356
 O169 O 0.74950 0.69209 0.30543
 O170 O 0.78172 0.68286 0.26514
 O171 O 0.67599 0.72700 0.26599
 O172 O 0.66679 0.76790 0.23451
 O173 O 0.71104 0.76398 0.34028
 O174 O 0.74507 0.79674 0.34960
 O175 O 0.74970 0.80629 0.19122
 O176 O 0.71892 0.76641 0.18264
 O177 O 0.82497 0.76643 0.22669
 O178 O 0.83198 0.73377 0.26667
 O179 O 0.78939 0.84118 0.26572
 O180 O 0.74827 0.84991 0.29693
 Zr181 Zr 0.75079 0.81792 0.26478
 O182 O 0.72446 0.79308 0.29177
 Zr183 Zr 0.80172 0.76781 0.26532
 O184 O 0.77723 0.74053 0.29184
 Zr185 Zr 0.75148 0.76747 0.21438
 O186 O 0.72452 0.74073 0.23889
 Zr187 Zr 0.74952 0.76531 0.31717
 O188 O 0.77635 0.79310 0.29308
 Zr189 Zr 0.69904 0.76569 0.26659
 O190 O 0.72333 0.79271 0.23926
 Zr191 Zr 0.74967 0.71518 0.26653
 O192 O 0.77693 0.73988 0.23975
 O193 O 0.77782 0.79429 0.23828
 O194 O 0.72265 0.73848 0.29346
 C195 C 0.74848 0.83254 0.19945
 C196 C 0.81571 0.83312 0.26712
 C197 C 0.81693 0.76529 0.20034
 C198 C 0.75007 0.70017 0.33175
 C199 C 0.68477 0.76411 0.33203
 C200 C 0.68422 0.70071 0.26576
 H201 H 0.71282 0.80596 0.30398
 H202 H 0.71272 0.72901 0.22573
 H203 H 0.79003 0.80658 0.22599
 H204 H 0.79023 0.72874 0.30391
 H205 H 0.79607 0.78194 0.34248
 H206 H 0.82805 0.75840 0.31356
 H207 H 0.67173 0.75376 0.21948
 H208 H 0.70336 0.77922 0.18945
 H209 H 0.75561 0.81383 0.34287
 H210 H 0.76471 0.84695 0.31014
 H211 H 0.73652 0.68753 0.21994
 H212 H 0.76410 0.71936 0.19013
 H213 H 0.70231 0.84186 0.25222
 H214 H 0.67106 0.81182 0.28101
 H215 H 0.82567 0.71941 0.25234
 H216 H 0.79645 0.68764 0.27971
 O217 O 0.75046 0.17470 0.78880
 O218 O 0.72106 0.16573 0.74926
 O219 O 0.82544 0.21216 0.74976
 O220 O 0.83698 0.25022 0.72463
 O221 O 0.78788 0.24969 0.82642
 O222 O 0.74847 0.27926 0.83510
 O223 O 0.74875 0.28881 0.67570
 O224 O 0.78064 0.25244 0.66695
 O225 O 0.67538 0.25120 0.71166
 O226 O 0.66496 0.22107 0.75033
 O227 O 0.71127 0.32489 0.74946
 O228 O 0.74992 0.33520 0.77965
 O229 O 0.74907 0.32377 0.70978
 O230 O 0.78389 0.33080 0.75276
 O231 O 0.67629 0.29087 0.74965
 O232 O 0.66927 0.24783 0.78434
 O233 O 0.70940 0.25138 0.67665
 O234 O 0.75072 0.21643 0.66936
 O235 O 0.74885 0.20830 0.82425
 O236 O 0.71540 0.24929 0.83141
 O237 O 0.82333 0.25080 0.79285
 O238 O 0.82916 0.28603 0.75135
 O239 O 0.79191 0.17663 0.74960
 O240 O 0.75109 0.16934 0.71625
 Zr241 Zr 0.75209 0.19874 0.75081
 O242 O 0.72410 0.22335 0.72496
 Zr243 Zr 0.80146 0.25006 0.75279
 O244 O 0.77685 0.27574 0.72453
 Zr245 Zr 0.75007 0.24815 0.80215
 O246 O 0.72430 0.27615 0.77740
 Zr247 Zr 0.74892 0.25066 0.69932
 O248 O 0.77732 0.22465 0.72385
 Zr249 Zr 0.69882 0.25125 0.75001
 O250 O 0.72323 0.22290 0.77618
 Zr251 Zr 0.74951 0.30132 0.74948
 O252 O 0.77553 0.27691 0.77804
 O253 O 0.77779 0.22242 0.77851
 O254 O 0.72229 0.27790 0.72281
 C255 C 0.74903 0.18219 0.81520
 C256 C 0.81799 0.18573 0.74899
 C257 C 0.81428 0.25080 0.81896
 C258 C 0.74881 0.31511 0.68355
 C259 C 0.68319 0.25140 0.68534
 C260 C 0.68497 0.31708 0.74947
 H261 H 0.71200 0.21032 0.71340
 H262 H 0.71262 0.28819 0.79039
 H263 H 0.79014 0.21003 0.79071
 H264 H 0.78979 0.28728 0.71229
 H265 H 0.79701 0.24069 0.67388
 H266 H 0.82953 0.25592 0.70554
 H267 H 0.67017 0.26581 0.79558
 H268 H 0.70236 0.23338 0.82617
 H269 H 0.73309 0.20480 0.67132
 H270 H 0.76659 0.17501 0.70289
 H271 H 0.73964 0.32831 0.79689
 H272 H 0.76001 0.29574 0.82831
 H273 H 0.70454 0.17253 0.76076
 H274 H 0.67193 0.20377 0.74020
 H275 H 0.82543 0.29752 0.76883
 H276 H 0.79485 0.33012 0.73459
 O277 O 0.23426 0.80869 0.79070
 O278 O 0.26556 0.81697 0.75038
 O279 O 0.15902 0.77450 0.74809
 O280 O 0.14898 0.73741 0.71953
 O281 O 0.19309 0.73393 0.82446
 O282 O 0.23324 0.70177 0.83261
 O283 O 0.23511 0.69475 0.67612
 O284 O 0.20058 0.73283 0.66858
 O285 O 0.30771 0.73407 0.71058
 O286 O 0.31619 0.76643 0.75240
 O287 O 0.27332 0.66022 0.75004
 O288 O 0.23180 0.65182 0.78240
 O289 O 0.23505 0.66031 0.71092
 O290 O 0.20210 0.65140 0.75108
 O291 O 0.30778 0.69477 0.74963
 O292 O 0.31696 0.73526 0.78193
 O293 O 0.27313 0.73389 0.67592
 O294 O 0.23446 0.76572 0.66635
 O295 O 0.23407 0.77380 0.82511
 O296 O 0.26483 0.73378 0.83353
 O297 O 0.15885 0.73464 0.78939
 O298 O 0.15250 0.70112 0.74989
 O299 O 0.19359 0.80901 0.74970
 O300 O 0.23360 0.81765 0.71890
 Zr301 Zr 0.23251 0.78595 0.75149
 O302 O 0.25931 0.76138 0.72464
 Zr303 Zr 0.18207 0.73562 0.75079
 O304 O 0.20682 0.70875 0.72410
 Zr305 Zr 0.23226 0.73524 0.80181
 O306 O 0.25938 0.70862 0.77731
 Zr307 Zr 0.23448 0.73378 0.69894
 O308 O 0.20735 0.76106 0.72321
 Zr309 Zr 0.28481 0.73371 0.74971
 O310 O 0.26023 0.76063 0.77695
 Zr311 Zr 0.23436 0.68332 0.74962
 O312 O 0.20700 0.70773 0.77649
 O313 O 0.20567 0.76212 0.77785
 O314 O 0.26140 0.70678 0.72272
 C315 C 0.23500 0.80014 0.81699
 C316 C 0.16735 0.80077 0.74804
 C317 C 0.16687 0.73376 0.81575
 C318 C 0.23534 0.66848 0.68462
 C319 C 0.29938 0.73418 0.68423
 C320 C 0.29957 0.66851 0.74992
 H321 H 0.27118 0.77449 0.71296
 H322 H 0.27121 0.69675 0.79043
 H323 H 0.19340 0.77453 0.78998
 H324 H 0.19404 0.69699 0.71191
 H325 H 0.18657 0.74778 0.67439
 H326 H 0.15495 0.72528 0.70318
 H327 H 0.31238 0.72048 0.79650
 H328 H 0.28051 0.74627 0.82655
 H329 H 0.24686 0.78165 0.67282
 H330 H 0.22045 0.81106 0.70352
 H331 H 0.24738 0.65556 0.79638
 H332 H 0.21934 0.68712 0.82603
 H333 H 0.28067 0.81019 0.76382
 H334 H 0.31255 0.78026 0.73662
 H335 H 0.15864 0.68727 0.76488
 H336 H 0.18788 0.65583 0.73586
 O337 O 0.24827 0.34274 0.72841
 O338 O 0.21657 0.35043 0.76854
 O339 O 0.32368 0.30855 0.77003
 O340 O 0.33375 0.27143 0.79952
 O341 O 0.28994 0.26749 0.69436
 O342 O 0.24956 0.23614 0.68613
 O343 O 0.24958 0.22811 0.84284
 O344 O 0.28292 0.26707 0.84994
 O345 O 0.17554 0.26677 0.80841
 O346 O 0.16704 0.30074 0.76735
 O347 O 0.20963 0.19424 0.76867
 O348 O 0.25158 0.18588 0.73620
 O349 O 0.24858 0.19386 0.80805
 O350 O 0.28081 0.18464 0.76776
 O351 O 0.17516 0.22900 0.76858
 O352 O 0.16601 0.26992 0.73720
 O353 O 0.21023 0.26577 0.84296
 O354 O 0.24432 0.29848 0.85232
 O355 O 0.24910 0.30816 0.69388
 O356 O 0.21817 0.26837 0.68530
 O357 O 0.32422 0.26807 0.72937
 O358 O 0.33115 0.23542 0.76936
 O359 O 0.28877 0.34291 0.76844
 O360 O 0.24769 0.35174 0.79960
 Zr361 Zr 0.25013 0.31974 0.76746
 O362 O 0.22375 0.29493 0.79446
 Zr363 Zr 0.30096 0.26952 0.76800
 O364 O 0.27641 0.24227 0.79451
 Zr365 Zr 0.25074 0.26932 0.71704
 O366 O 0.22373 0.24263 0.74155
 Zr367 Zr 0.24874 0.26708 0.81985
 O368 O 0.27562 0.29483 0.79577
 Zr369 Zr 0.19829 0.26762 0.76926
 O370 O 0.22263 0.29460 0.74193
 Zr371 Zr 0.24881 0.21700 0.76917
 O372 O 0.27612 0.24166 0.74240
 O373 O 0.27712 0.29607 0.74096
 O374 O 0.22183 0.24034 0.79611
 C375 C 0.24793 0.33442 0.70212
 C376 C 0.31508 0.33480 0.76982
 C377 C 0.31619 0.26694 0.70301
 C378 C 0.24917 0.20190 0.83439
 C379 C 0.18397 0.26593 0.83470
 C380 C 0.18333 0.20270 0.76833
 H381 H 0.21214 0.30783 0.80668
 H382 H 0.21190 0.23095 0.72838
 H383 H 0.28937 0.30833 0.72869
 H384 H 0.28939 0.23045 0.80657
 H385 H 0.29529 0.28367 0.84517
 H386 H 0.32725 0.26008 0.81625
 H387 H 0.17100 0.25588 0.72209
 H388 H 0.20268 0.28126 0.69209
 H389 H 0.25480 0.31560 0.84557
 H390 H 0.26408 0.34870 0.81286
 H391 H 0.23562 0.18942 0.72255
 H392 H 0.26323 0.22119 0.69276
 H393 H 0.20171 0.34378 0.75485
 H394 H 0.17038 0.31378 0.78377
 H395 H 0.32481 0.22107 0.75504
 H396 H 0.29551 0.18934 0.78237
 O397 O 0.76917 0.67590 0.69137
 O398 O 0.80134 0.66768 0.73172
 O399 O 0.69412 0.70931 0.73359
 O400 O 0.68351 0.74666 0.76193
 O401 O 0.72841 0.75115 0.65749
 O402 O 0.76854 0.78299 0.65018
 O403 O 0.76789 0.78942 0.80651
 O404 O 0.73475 0.74995 0.81338
 O405 O 0.84234 0.75010 0.77245
 O406 O 0.85092 0.71744 0.73135
 O407 O 0.80794 0.82368 0.73383
 O408 O 0.76639 0.83219 0.69998
 O409 O 0.76836 0.82393 0.77179
 O410 O 0.73688 0.83334 0.73128
 O411 O 0.84247 0.78896 0.73382
 O412 O 0.85151 0.74848 0.70120
 O413 O 0.80767 0.75134 0.80679
 O414 O 0.77331 0.71902 0.81618
 O415 O 0.76891 0.71101 0.65717
 O416 O 0.80010 0.75067 0.64945
 O417 O 0.69391 0.74981 0.69207
 O418 O 0.68667 0.78252 0.73231
 O419 O 0.72899 0.67496 0.73191
 O420 O 0.77025 0.66555 0.76238
 Zr421 Zr 0.76763 0.69822 0.73076
 O422 O 0.79389 0.72276 0.75816
 Zr423 Zr 0.71681 0.74838 0.73114
 O424 O 0.74124 0.77536 0.75805
 Zr425 Zr 0.76729 0.74932 0.68072
 O426 O 0.79418 0.77573 0.70560
 Zr427 Zr 0.76898 0.75044 0.78355
 O428 O 0.74217 0.72290 0.75904
 Zr429 Zr 0.81945 0.75031 0.73333
 O430 O 0.79523 0.72363 0.70565
 Zr431 Zr 0.76884 0.80094 0.73305
 O432 O 0.74164 0.77659 0.70592
 O433 O 0.74075 0.72219 0.70420
 O434 O 0.79585 0.77737 0.76011
 C435 C 0.76965 0.68466 0.66516
 C436 C 0.70270 0.68305 0.73360
 C437 C 0.70214 0.75123 0.66581
 C438 C 0.76781 0.81572 0.79808
 C439 C 0.83396 0.75076 0.79868
 C440 C 0.83422 0.81523 0.73406
 H441 H 0.80546 0.70969 0.77039
 H442 H 0.80607 0.78763 0.69269
 H443 H 0.72847 0.70996 0.69191
 H444 H 0.72816 0.78702 0.77001
 H445 H 0.72243 0.73339 0.80837
 H446 H 0.69039 0.75684 0.77923
 H447 H 0.84724 0.76366 0.68690
 H448 H 0.81558 0.73776 0.65640
 H449 H 0.76365 0.70161 0.80898
 H450 H 0.75444 0.66884 0.77615
 H451 H 0.78306 0.82940 0.68715
 H452 H 0.75470 0.79776 0.65673
 H453 H 0.81585 0.67421 0.71765
 H454 H 0.84686 0.70350 0.74688
 H455 H 0.69262 0.79662 0.71754
 H456 H 0.72170 0.82809 0.74514
 O457 O 0.25026 0.67476 0.28753
 O458 O 0.22078 0.66583 0.24802
 O459 O 0.32524 0.71211 0.24840
 O460 O 0.33679 0.75011 0.22318
 O461 O 0.28780 0.74979 0.32504
 O462 O 0.24841 0.77937 0.33374
 O463 O 0.24858 0.78881 0.17427
 O464 O 0.28041 0.75238 0.16556
 O465 O 0.17518 0.75133 0.21037
 O466 O 0.16473 0.72128 0.24903
 O467 O 0.21120 0.82503 0.24809
 O468 O 0.24990 0.83531 0.27818
 O469 O 0.24896 0.82380 0.20832
 O470 O 0.28385 0.83082 0.25127
 O471 O 0.17618 0.79106 0.24836
 O472 O 0.16916 0.74800 0.28307
 O473 O 0.20916 0.75141 0.17532
 O474 O 0.25043 0.71642 0.16802
 O475 O 0.24873 0.70841 0.32294
 O476 O 0.21530 0.74946 0.33007
 O477 O 0.32321 0.75083 0.29143
 O478 O 0.32905 0.78598 0.24988
 O479 O 0.29167 0.67663 0.24828
 O480 O 0.25079 0.66937 0.21497
 Zr481 Zr 0.25186 0.69879 0.24951
 O482 O 0.22388 0.72342 0.22366
 Zr483 Zr 0.30130 0.75005 0.25139
 O484 O 0.27670 0.77574 0.22311
 Zr485 Zr 0.24995 0.74825 0.30080
 O486 O 0.22421 0.77627 0.27604
 Zr487 Zr 0.24871 0.75068 0.19795
 O488 O 0.27709 0.72465 0.22250
 Zr489 Zr 0.19866 0.75139 0.24870
 O490 O 0.22306 0.72302 0.27487
 Zr491 Zr 0.24941 0.80139 0.24806
 O492 O 0.27542 0.77696 0.27662
 O493 O 0.27763 0.72247 0.27715
 O494 O 0.22213 0.77799 0.22144
 C495 C 0.24887 0.68228 0.31392
 C496 C 0.31776 0.68569 0.24765
 C497 C 0.31419 0.75088 0.31755
 C498 C 0.24867 0.81512 0.18209
 C499 C 0.18296 0.75148 0.18404
 C500 C 0.18489 0.81726 0.24816
 H501 H 0.21176 0.71040 0.21213
 H502 H 0.21256 0.78834 0.28903
 H503 H 0.28997 0.71008 0.28936
 H504 H 0.28963 0.78725 0.21085
 H505 H 0.29677 0.74059 0.17249
 H506 H 0.32932 0.75585 0.20410
 H507 H 0.17008 0.76600 0.29430
 H508 H 0.20226 0.73352 0.32488
 H509 H 0.23280 0.70479 0.17004
 H510 H 0.26629 0.67501 0.20159
 H511 H 0.23967 0.82844 0.29546
 H512 H 0.25995 0.79585 0.32691
 H513 H 0.20430 0.67265 0.25957
 H514 H 0.17172 0.70391 0.23903
 H515 H 0.32534 0.79751 0.26733
 H516 H 0.29477 0.83013 0.23308
 O517 O 0.73303 0.30568 0.29101
 O518 O 0.76429 0.31412 0.25076
 O519 O 0.65781 0.27159 0.24828
 O520 O 0.64781 0.23450 0.21966
 O521 O 0.69183 0.23095 0.32463
 O522 O 0.73194 0.19866 0.33270
 O523 O 0.73406 0.19203 0.17630
 O524 O 0.69957 0.23003 0.16871
 O525 O 0.80661 0.23136 0.21089
 O526 O 0.81500 0.26359 0.25282
 O527 O 0.77222 0.15736 0.25014
 O528 O 0.73061 0.14895 0.28254
 O529 O 0.73393 0.15753 0.21104
 O530 O 0.70107 0.14842 0.25106
 O531 O 0.80666 0.19193 0.24980
 O532 O 0.81575 0.23237 0.28227
 O533 O 0.77208 0.23121 0.17617
 O534 O 0.73331 0.26305 0.16668
 O535 O 0.73285 0.27071 0.32535
 O536 O 0.76350 0.23070 0.33380
 O537 O 0.65761 0.23171 0.28955
 O538 O 0.65133 0.19818 0.24998
 O539 O 0.69237 0.30610 0.25000
 O540 O 0.73239 0.31478 0.21922
 Zr541 Zr 0.73129 0.28304 0.25177
 O542 O 0.75817 0.25856 0.22493
 Zr543 Zr 0.68087 0.23270 0.25095
 O544 O 0.70570 0.20591 0.22425
 Zr545 Zr 0.73101 0.23222 0.30200
 O546 O 0.75822 0.20569 0.27751
 Zr547 Zr 0.73338 0.23100 0.19916
 O548 O 0.70617 0.25819 0.22343
 Zr549 Zr 0.78365 0.23086 0.24998
 O550 O 0.75900 0.25769 0.27722
 Zr551 Zr 0.73324 0.18045 0.24976
 O552 O 0.70579 0.20476 0.27662
 O553 O 0.70444 0.25916 0.27808
 O554 O 0.76028 0.20396 0.22293
 C555 C 0.73378 0.29705 0.31727
 C556 C 0.66613 0.29787 0.24829
 C557 C 0.66561 0.23082 0.31592
 C558 C 0.73427 0.16576 0.18477
 C559 C 0.79833 0.23153 0.18452
 C560 C 0.79847 0.16566 0.25003
 H561 H 0.77005 0.27171 0.21330
 H562 H 0.77004 0.19380 0.29062
 H563 H 0.69217 0.27155 0.29021
 H564 H 0.69295 0.19416 0.21203
 H565 H 0.68547 0.24488 0.17455
 H566 H 0.65382 0.22240 0.20329
 H567 H 0.81123 0.21746 0.29673
 H568 H 0.77926 0.24310 0.32682
 H569 H 0.74584 0.27889 0.17310
 H570 H 0.71925 0.30821 0.20383
 H571 H 0.74627 0.15257 0.29645
 H572 H 0.71798 0.18408 0.32612
 H573 H 0.77942 0.30731 0.26416
 H574 H 0.81138 0.27746 0.23707
 H575 H 0.65743 0.18434 0.26500
 H576 H 0.68672 0.15302 0.23602
 C577 C 0.26211 0.08620 0.05905
 N578 N 0.28688 0.08951 0.07409
 N579 N 0.28862 0.10892 0.09501
 C580 C 0.26557 0.12548 0.10163
 N581 N 0.24083 0.12223 0.08654
 N582 N 0.23909 0.10281 0.06563
 C583 C 0.25944 0.06345 0.03853
 C584 C 0.25707 0.04313 0.02273
 C585 C 0.26704 0.14576 0.12471
 C586 C 0.26767 0.16302 0.14395
 C587 C 0.76432 0.58667 0.55819
 N588 N 0.78879 0.58932 0.57383
 N589 N 0.79060 0.60881 0.59466
 C590 C 0.76789 0.62609 0.60058
 N591 N 0.74346 0.62351 0.58488
 N592 N 0.74165 0.60402 0.56406
 C593 C 0.76142 0.56378 0.53794
 C594 C 0.75878 0.54330 0.52243
 C595 C 0.76933 0.64632 0.62365
 C596 C 0.76988 0.66354 0.64289
 C597 C 0.74601 0.92823 0.08969
 N598 N 0.72167 0.91433 0.09748
 N599 N 0.72175 0.89658 0.11999
 C600 C 0.74617 0.89219 0.13537
 N601 N 0.77048 0.90615 0.12762
 N602 N 0.77040 0.92390 0.10511
 C603 C 0.74633 0.94595 0.06445
 C604 C 0.74673 0.96016 0.04276
 C605 C 0.74667 0.87182 0.15853
 C606 C 0.74734 0.85416 0.17749
 C607 C 0.24600 0.42991 0.59208
 N608 N 0.22146 0.41660 0.60028
 N609 N 0.22145 0.39892 0.62286
 C610 C 0.24598 0.39402 0.63791
 N611 N 0.27049 0.40740 0.62976
 N612 N 0.27051 0.42507 0.60718
 C613 C 0.24638 0.44750 0.56672
 C614 C 0.24681 0.46155 0.54493
 C615 C 0.24635 0.37370 0.66115
 C616 C 0.24692 0.35605 0.68014
 C617 C 0.74913 0.06417 0.90046
 N618 N 0.72390 0.07574 0.89140
 N619 N 0.72362 0.09962 0.87553
 C620 C 0.74856 0.11290 0.86860
 N621 N 0.77380 0.10129 0.87758
 N622 N 0.77407 0.07741 0.89345
 C623 C 0.74922 0.04083 0.92064
 C624 C 0.74909 0.02331 0.93975
 C625 C 0.74832 0.13844 0.85127
 C626 C 0.74842 0.15916 0.83569
 C627 C 0.24902 0.56465 0.39990
 N628 N 0.27396 0.57772 0.39258
 N629 N 0.27369 0.60146 0.37652
 C630 C 0.24843 0.61312 0.36762
 N631 N 0.22349 0.60002 0.37484
 N632 N 0.22377 0.57627 0.39091
 C633 C 0.24915 0.54148 0.42031
 C634 C 0.24907 0.52415 0.43960
 C635 C 0.24819 0.63858 0.35013
 C636 C 0.24828 0.65927 0.33447
 C637 C 0.24288 0.89888 0.92389
 N638 N 0.21712 0.89194 0.91214
 N639 N 0.21548 0.87247 0.89124
 C640 C 0.23958 0.85948 0.88128
 N641 N 0.26534 0.86636 0.89306
 N642 N 0.26698 0.88583 0.91396
 C643 C 0.24493 0.92175 0.94450
 C644 C 0.24678 0.94217 0.96033
 C645 C 0.23790 0.83892 0.85831
 C646 C 0.23656 0.82149 0.83919
 C647 C 0.74223 0.39537 0.42427
 N648 N 0.71649 0.38914 0.41209
 N649 N 0.71469 0.36971 0.39118
 C650 C 0.73861 0.35608 0.38165
 N651 N 0.76434 0.36225 0.39388
 N652 N 0.76614 0.38168 0.41479
 C653 C 0.74455 0.41827 0.44475
 C654 C 0.74667 0.43875 0.46041
 C655 C 0.73680 0.33565 0.35865
 C656 C 0.73538 0.31831 0.33949
 C657 C 0.09049 0.25282 0.07121
 N658 N 0.10577 0.22839 0.07587
 N659 N 0.12827 0.22842 0.09364
 C660 C 0.13615 0.25287 0.10729
 N661 N 0.12092 0.27732 0.10257
 N662 N 0.09843 0.27730 0.08480
 C663 C 0.06523 0.25240 0.05350
 C664 C 0.04351 0.25194 0.03935
 C665 C 0.15931 0.25250 0.12769
 C666 C 0.17827 0.25193 0.14537
 C667 C 0.59206 0.75300 0.57038
 N668 N 0.60715 0.72849 0.57526
 N669 N 0.62974 0.72853 0.59292
 C670 C 0.63792 0.75307 0.60623
 N671 N 0.62287 0.77760 0.60129
 N672 N 0.60029 0.77756 0.58363
 C673 C 0.56672 0.75259 0.55278
 C674 C 0.54496 0.75216 0.53870
 C675 C 0.66116 0.75273 0.62654
 C676 C 0.68016 0.75220 0.64418
 C677 C 0.05923 0.73916 0.91304
 N678 N 0.07404 0.71428 0.90953
 N679 N 0.09512 0.71258 0.89030
 C680 C 0.10214 0.73580 0.87417
 N681 N 0.08728 0.76065 0.87761
 N682 N 0.06621 0.76234 0.89684
 C683 C 0.03861 0.74175 0.93566
 C684 C 0.02276 0.74408 0.95591
 C685 C 0.12533 0.73435 0.85406
 C686 C 0.14462 0.73371 0.83690
 C687 C 0.55873 0.23731 0.41406
 N688 N 0.57377 0.21250 0.41100
 N689 N 0.59461 0.21053 0.39153
 C690 C 0.60114 0.23338 0.37467
 N691 N 0.58605 0.25815 0.37767
 N692 N 0.56522 0.26012 0.39714
 C693 C 0.53836 0.24026 0.43688
 C694 C 0.52270 0.24288 0.45726
 C695 C 0.62416 0.23169 0.35437
 C696 C 0.64336 0.23090 0.33710
 C697 C 0.92411 0.75797 0.10206
 N698 N 0.91423 0.73382 0.11500
 N699 N 0.89329 0.73535 0.13442
 C700 C 0.88141 0.76106 0.14133
 N701 N 0.89134 0.78523 0.12844
 N702 N 0.91229 0.78369 0.10903
 C703 C 0.94464 0.75603 0.07915
 C704 C 0.96034 0.75425 0.05864
 C705 C 0.85837 0.76261 0.16175
 C706 C 0.83919 0.76386 0.17909
 C707 C 0.42332 0.25875 0.60466
 N708 N 0.41372 0.23478 0.61817
 N709 N 0.39279 0.23652 0.63758
 C710 C 0.38064 0.26225 0.64394
 N711 N 0.39028 0.28623 0.63049
 N712 N 0.41122 0.28449 0.61108
 C713 C 0.44394 0.25653 0.58184
 C714 C 0.45977 0.25452 0.56145
 C715 C 0.35762 0.26401 0.66439
 C716 C 0.33845 0.26539 0.68175
 C717 C 0.90015 0.24979 0.93663
 N718 N 0.89093 0.27510 0.92535
 N719 N 0.87487 0.27555 0.90160
 C720 C 0.86790 0.25071 0.88815
 N721 N 0.87703 0.22539 0.89947
 N722 N 0.89309 0.22495 0.92323
 C723 C 0.92056 0.24956 0.95979
 C724 C 0.93985 0.24959 0.97712
 C725 C 0.85043 0.25112 0.86269
 C726 C 0.83479 0.25119 0.84200
 C727 C 0.40021 0.75020 0.43516
 N728 N 0.39294 0.72531 0.42195
 N729 N 0.37686 0.72567 0.39821
 C730 C 0.36790 0.75096 0.38670
 N731 N 0.37507 0.77586 0.39994
 N732 N 0.39116 0.77549 0.42369
 C733 C 0.42062 0.74999 0.45833
 C734 C 0.43989 0.75002 0.47569
 C735 C 0.35039 0.75130 0.36125
 C736 C 0.33473 0.75132 0.34057
 C737 C 0.10294 0.07514 0.24277
 N738 N 0.10971 0.08696 0.21699
 N739 N 0.12896 0.10804 0.21533
 C740 C 0.14188 0.11812 0.23943
 N741 N 0.13517 0.10627 0.26520
 N742 N 0.11592 0.08519 0.26686
 C743 C 0.08030 0.05433 0.24484
 C744 C 0.06004 0.03832 0.24672
 C745 C 0.16223 0.14122 0.23772
 C746 C 0.17954 0.16042 0.23635
 C747 C 0.60414 0.57627 0.74234
 N748 N 0.61055 0.58823 0.71654
 N749 N 0.63003 0.60908 0.71469
 C750 C 0.64354 0.61878 0.73861
 N751 N 0.63719 0.60678 0.76441
 N752 N 0.61771 0.58593 0.76626
 C753 C 0.58125 0.55579 0.74468
 C754 C 0.56080 0.54006 0.74680
 C755 C 0.66404 0.64172 0.73674
 C756 C 0.68142 0.66084 0.73526
 C757 C 0.93575 0.10000 0.74874
 N758 N 0.92265 0.10721 0.77370
 N759 N 0.89889 0.12325 0.77346
 C760 C 0.88724 0.13222 0.74823
 N761 N 0.90039 0.12510 0.72326
 N762 N 0.92415 0.10906 0.72351
 C763 C 0.95887 0.07956 0.74881
 C764 C 0.97615 0.06022 0.74865
 C765 C 0.86176 0.14965 0.74803
 C766 C 0.84104 0.16525 0.74821
 C767 C 0.43539 0.59972 0.24761
 N768 N 0.42250 0.60734 0.27257
 N769 N 0.39876 0.62342 0.27227
 C770 C 0.38693 0.63203 0.24699
 N771 N 0.39986 0.62450 0.22203
 N772 N 0.42360 0.60842 0.22234
 C773 C 0.45857 0.57933 0.24781
 C774 C 0.47593 0.56006 0.24781
 C775 C 0.36147 0.64952 0.24674
 C776 C 0.34079 0.66517 0.24689
 C777 C 0.07149 0.91042 0.74529
 N778 N 0.08609 0.90319 0.72119
 N779 N 0.10391 0.88073 0.72126
 C780 C 0.10766 0.86483 0.74544
 N781 N 0.09300 0.87201 0.76953
 N782 N 0.07518 0.89447 0.76946
 C783 C 0.05365 0.93558 0.74568
 C784 C 0.03935 0.95720 0.74612
 C785 C 0.12806 0.84168 0.74599
 C786 C 0.14574 0.82274 0.74675
 C787 C 0.57065 0.40789 0.24538
 N788 N 0.58455 0.39998 0.22107
 N789 N 0.60224 0.37741 0.22121
 C790 C 0.60656 0.36207 0.24567
 N791 N 0.59260 0.36993 0.26996
 N792 N 0.57491 0.39250 0.26982
 C793 C 0.55302 0.43321 0.24565
 C794 C 0.53892 0.45497 0.24598
 C795 C 0.62688 0.33885 0.24625
 C796 C 0.64452 0.31985 0.24701
 C797 C 0.91404 0.93986 0.26222
 N798 N 0.91069 0.92471 0.28691
 N799 N 0.89117 0.90390 0.28856
 C800 C 0.87456 0.89750 0.26549
 N801 N 0.87784 0.91272 0.24083
 N802 N 0.89736 0.93352 0.23918
 C803 C 0.93695 0.96016 0.25962
 C804 C 0.95743 0.97573 0.25726
 C805 C 0.85422 0.87450 0.26683
 C806 C 0.83693 0.85533 0.26734
 C807 C 0.41329 0.44156 0.76423
 N808 N 0.41060 0.42601 0.78876
 N809 N 0.39113 0.40517 0.79060
 C810 C 0.37390 0.39916 0.76787
 N811 N 0.37652 0.41476 0.74338
 N812 N 0.39599 0.43559 0.74154
 C813 C 0.43611 0.46190 0.76134
 C814 C 0.45651 0.47752 0.75873
 C815 C 0.35361 0.37614 0.76938
 C816 C 0.33632 0.35697 0.76999
 C817 C 0.08540 0.25922 0.94128
 N818 N 0.09912 0.23519 0.93216
 N819 N 0.11855 0.23672 0.91125
 C820 C 0.12468 0.26229 0.89868
 N821 N 0.11102 0.28633 0.90785
 N822 N 0.09159 0.28480 0.92876
 C823 C 0.06262 0.25720 0.96182
 C824 C 0.04230 0.25536 0.97768
 C825 C 0.14514 0.26379 0.87578
 C826 C 0.16257 0.26488 0.85673
 C827 C 0.58665 0.75839 0.43898
 N828 N 0.59971 0.73413 0.42951
 N829 N 0.61903 0.73541 0.40849
 C830 C 0.62568 0.76095 0.39615
 N831 N 0.61268 0.78522 0.40567
 N832 N 0.59336 0.78394 0.42669
 C833 C 0.56396 0.75668 0.45963
 C834 C 0.54370 0.75513 0.47557
 C835 C 0.64604 0.76223 0.37317
 C836 C 0.66341 0.76316 0.35407
 C837 C 0.92882 0.74953 0.90932
 N838 N 0.91969 0.72457 0.89748
 N839 N 0.90215 0.72490 0.87479
 C840 C 0.89321 0.75019 0.86326
 N841 N 0.90240 0.77515 0.87506
 N842 N 0.91994 0.77482 0.89775
 C843 C 0.94637 0.74920 0.93472
 C844 C 0.96049 0.74906 0.95648
 C845 C 0.87305 0.75052 0.83988
 C846 C 0.85551 0.75071 0.82077
 C847 C 0.42773 0.24886 0.40974
 N848 N 0.41820 0.22393 0.39817
 N849 N 0.40048 0.22429 0.37562
 C850 C 0.39175 0.24960 0.36398
 N851 N 0.40132 0.27454 0.37551
 N852 N 0.41905 0.27417 0.39805
 C853 C 0.44547 0.24852 0.43499
 C854 C 0.45973 0.24839 0.45665
 C855 C 0.37143 0.25000 0.34073
 C856 C 0.35381 0.25023 0.32171
 C857 C 0.06506 0.75185 0.09851
 N858 N 0.07639 0.72681 0.10838
 N859 N 0.10033 0.72681 0.12416
 C860 C 0.11393 0.75182 0.13020
 N861 N 0.10256 0.77687 0.12041
 N862 N 0.07862 0.77686 0.10462
 C863 C 0.04154 0.75151 0.07849
 C864 C 0.02385 0.75102 0.05953
 C865 C 0.13947 0.75181 0.14758
 C866 C 0.16012 0.75170 0.16328
 C867 C 0.56527 0.25174 0.59988
 N868 N 0.57646 0.22674 0.61000
 N869 N 0.60041 0.22675 0.62576
 C870 C 0.61417 0.25173 0.63152
 N871 N 0.60295 0.27676 0.62148
 N872 N 0.57899 0.27673 0.60572
 C873 C 0.54176 0.25134 0.57988
 C874 C 0.52409 0.25076 0.56091
 C875 C 0.63972 0.25174 0.64888
 C876 C 0.66037 0.25163 0.66457
 C877 C 0.89729 0.24028 0.07802
 N878 N 0.89193 0.21456 0.09068
 N879 N 0.87250 0.21245 0.11157
 C880 C 0.85797 0.23605 0.12060
 N881 N 0.86328 0.26175 0.10790
 N882 N 0.88270 0.26386 0.08701
 C883 C 0.91998 0.24297 0.05731
 C884 C 0.94021 0.24530 0.04133
 C885 C 0.83740 0.23396 0.14349
 C886 C 0.81988 0.23260 0.16251
 C887 C 0.39749 0.74182 0.57694
 N888 N 0.39168 0.71611 0.58941
 N889 N 0.37247 0.71426 0.61052
 C890 C 0.35863 0.73810 0.61996
 N891 N 0.36439 0.76379 0.60745
 N892 N 0.38360 0.76564 0.58635
 C893 C 0.42004 0.74420 0.55607
 C894 C 0.44022 0.74626 0.53998
 C895 C 0.33827 0.73626 0.64304
 C896 C 0.32086 0.73508 0.66216
 C897 C 0.25160 0.09139 0.92940
 N898 N 0.27643 0.10238 0.91896
 N899 N 0.27594 0.12500 0.90135
 C900 C 0.25061 0.13731 0.89363
 N901 N 0.22579 0.12636 0.90412
 N902 N 0.22628 0.10374 0.92174
 C903 C 0.25200 0.06603 0.94701
 C904 C 0.25218 0.04428 0.96114
 C905 C 0.25001 0.16066 0.87343
 C906 C 0.24957 0.17977 0.85589
 C907 C 0.75266 0.59017 0.42727
 N908 N 0.72737 0.60278 0.41994
 N909 N 0.72686 0.62527 0.40217
 C910 C 0.75164 0.63582 0.39118
 N911 N 0.77695 0.62326 0.39855
 N912 N 0.77745 0.60077 0.41633
 C913 C 0.75305 0.56502 0.44512
 C914 C 0.75320 0.54345 0.45950
 C915 C 0.75100 0.65905 0.37087
 C916 C 0.75052 0.67809 0.35328
 C917 C 0.73971 0.05887 0.08659
 N918 N 0.76382 0.06761 0.10041
 N919 N 0.76253 0.08859 0.11977
 C920 C 0.73715 0.10160 0.12572
 N921 N 0.71302 0.09282 0.11197
 N922 N 0.71431 0.07183 0.09261
 C923 C 0.74153 0.03833 0.06383
 C924 C 0.74323 0.02251 0.04348
 C925 C 0.73592 0.12458 0.14608
 C926 C 0.73506 0.14369 0.16343
 C927 C 0.24063 0.56146 0.58636
 N928 N 0.26486 0.57058 0.59972
 N929 N 0.26363 0.59159 0.61907
 C930 C 0.23818 0.60426 0.62549
 N931 N 0.21394 0.59509 0.61218
 N932 N 0.21517 0.57408 0.59283
 C933 C 0.24231 0.54074 0.56369
 C934 C 0.24385 0.52471 0.54347
 C935 C 0.23698 0.62725 0.64589
 C936 C 0.23614 0.64637 0.66328
 C937 C 0.75849 0.92269 0.89637
 N938 N 0.73487 0.91323 0.88215
 N939 N 0.73707 0.89227 0.86282
 C940 C 0.76291 0.87996 0.85726
 N941 N 0.78654 0.88946 0.87141
 N942 N 0.78434 0.91042 0.89075
 C943 C 0.75572 0.94330 0.91910
 C944 C 0.75333 0.95913 0.93943
 C945 C 0.76509 0.85696 0.83686
 C946 C 0.76656 0.83784 0.81948
 C947 C 0.25744 0.42273 0.39744
 N948 N 0.23364 0.41293 0.38378
 N949 N 0.23565 0.39186 0.36453
 C950 C 0.26148 0.37977 0.35848
 N951 N 0.28530 0.38961 0.37209
 N952 N 0.28329 0.41068 0.39134
 C953 C 0.25496 0.44365 0.41999
 C954 C 0.25283 0.45980 0.44013
 C955 C 0.26350 0.35671 0.33807
 C956 C 0.26488 0.33756 0.32067
 C957 C 0.24886 0.90145 0.06472
 N958 N 0.22378 0.89532 0.07816
 N959 N 0.22365 0.87931 0.10195
 C960 C 0.24863 0.86929 0.11328
 N961 N 0.27370 0.87534 0.09980
 N962 N 0.27382 0.89135 0.07601
 C963 C 0.24934 0.92169 0.04139
 C964 C 0.24994 0.94080 0.02387
 C965 C 0.24851 0.85173 0.13870
 C966 C 0.24853 0.83593 0.15929
 C967 C 0.74914 0.40085 0.56588
 N968 N 0.72408 0.39515 0.57953
 N969 N 0.72391 0.37933 0.60345
 C970 C 0.74884 0.36909 0.61469
 N971 N 0.77389 0.37472 0.60100
 N972 N 0.77406 0.39054 0.57709
 C973 C 0.74972 0.42085 0.54238
 C974 C 0.75044 0.43975 0.52465
 C975 C 0.74867 0.35167 0.64017
 C976 C 0.74868 0.33592 0.66078
 C977 C 0.07615 0.10470 0.75855
 N978 N 0.08555 0.11914 0.73505
 N979 N 0.10656 0.13839 0.73738
 C980 C 0.11898 0.14365 0.76324
 N981 N 0.10954 0.12927 0.78675
 N982 N 0.08853 0.11001 0.78442
 C983 C 0.05543 0.08207 0.75562
 C984 C 0.03951 0.06183 0.75311
 C985 C 0.14203 0.16398 0.76555
 C986 C 0.16118 0.18133 0.76708
 C987 C 0.57708 0.60250 0.25681
 N988 N 0.58918 0.60840 0.28269
 N989 N 0.61021 0.62766 0.28481
 C990 C 0.61995 0.64148 0.26108
 N991 N 0.60782 0.63563 0.23522
 N992 N 0.58679 0.61636 0.23310
 C993 C 0.55626 0.57991 0.25419
 C994 C 0.54021 0.55973 0.25194
 C995 C 0.64298 0.66188 0.26320
 C996 C 0.66210 0.67928 0.26461
 C997 C 0.09832 0.93445 0.24873
 N998 N 0.10856 0.92319 0.27366
 N999 N 0.12468 0.89948 0.27345
 C1000 C 0.13071 0.88605 0.24834
 N1001 N 0.12056 0.89735 0.22340
 N1002 N 0.10443 0.92106 0.22361
 C1003 C 0.07787 0.95758 0.24931
 C1004 C 0.05853 0.97486 0.25001
 C1005 C 0.14830 0.86066 0.24815
 C1006 C 0.16410 0.84007 0.24810
 C1007 C 0.59915 0.43472 0.74958
 N1008 N 0.60933 0.42351 0.77455
 N1009 N 0.62519 0.39962 0.77445
 C1010 C 0.63100 0.38597 0.74941
 N1011 N 0.62090 0.39722 0.72442
 N1012 N 0.60504 0.42111 0.72453
 C1013 C 0.57909 0.45817 0.75006
 C1014 C 0.56011 0.47583 0.75070
 C1015 C 0.64844 0.36049 0.74931
 C1016 C 0.66418 0.33988 0.74934
 C1017 C 0.90846 0.07004 0.25200
 N1018 N 0.89631 0.07807 0.22668
 N1019 N 0.87378 0.09581 0.22627
 C1020 C 0.86272 0.10606 0.25116
 N1021 N 0.87483 0.09798 0.27648
 N1022 N 0.89736 0.08024 0.27689
 C1023 C 0.93369 0.05226 0.25234
 C1024 C 0.95533 0.03797 0.25247
 C1025 C 0.83949 0.12639 0.25066
 C1026 C 0.82048 0.14403 0.25031
 C1027 C 0.40927 0.57263 0.75241
 N1028 N 0.39716 0.58054 0.72704
 N1029 N 0.37470 0.59836 0.72652
 C1030 C 0.36368 0.60879 0.75135
 N1031 N 0.37574 0.60082 0.77672
 N1032 N 0.39821 0.58301 0.77724
 C1033 C 0.43445 0.55479 0.75286
 C1034 C 0.45606 0.54046 0.75307
 C1035 C 0.34051 0.62918 0.75073
 C1036 C 0.32155 0.64686 0.75029
 C1037 C 0.94034 0.91425 0.73920
 N1038 N 0.92721 0.90827 0.71387
 N1039 N 0.90645 0.88867 0.71264
 C1040 C 0.89807 0.87462 0.73674
 N1041 N 0.91126 0.88054 0.76205
 N1042 N 0.93202 0.90014 0.76328
 C1043 C 0.96065 0.93723 0.74100
 C1044 C 0.97630 0.95770 0.74269
 C1045 C 0.87527 0.85407 0.73559
 C1046 C 0.85626 0.83660 0.73479
 C1047 C 0.43924 0.41319 0.23976
 N1048 N 0.43042 0.39970 0.26403
 N1049 N 0.40945 0.38030 0.26292
 C1050 C 0.39655 0.37398 0.23756
 N1051 N 0.40543 0.38741 0.21329
 N1052 N 0.42639 0.40681 0.21439
 C1053 C 0.45986 0.43593 0.24134
 C1054 C 0.47579 0.45621 0.24282
 C1055 C 0.37360 0.35356 0.23651
 C1056 C 0.35452 0.33616 0.23577
   
