data_POSCAR
  _audit_creation_date              2014-09-24
  _audit_creation_method            'ToBaCCo'
  _symmetry_space_group_name_H-M    'P1'
  _symmetry_Int_Tables_number       1
  _symmetry_cell_setting            triclinic
  loop_
  _symmetry_equiv_pos_as_xyz
 x,y,z
_cell_length_a 21.6097
_cell_length_b 21.6904
_cell_length_c 52.6096
_cell_angle_alpha 89.965000
_cell_angle_beta 88.561700
_cell_angle_gamma 120.599800
loop_
  _atom_site_label
  _atom_site_type_symbol
  _atom_site_fract_x
  _atom_site_fract_y
  _atom_site_fract_z
C1 C -0.02422 0.03416 0.51838
 C2 C -0.08362 -0.00967 0.49919
 C3 C -0.07138 -0.05575 0.48508
 C4 C -0.00089 -0.05317 0.49125
 C5 C -0.02017 -0.02302 0.53399
 C6 C -0.00894 -0.06927 0.52002
 C7 C 0.04529 0.07088 0.50229
 C8 C 0.05771 0.02611 0.48808
 H9 H -0.13270 -0.00836 0.49784
 H10 H 0.01009 -0.09002 0.48001
 H11 H -0.03104 -0.02953 0.55433
 H12 H 0.07823 0.12865 0.50029
 C13 C 0.95092 -0.04688 0.18262
 C14 C 1.00566 -0.05704 0.16626
 C15 C 1.05402 0.00311 0.15264
 C16 C 1.04318 0.06732 0.15676
 C17 C 0.99515 0.01453 0.19813
 C18 C 1.04673 0.07734 0.18427
 C19 C 0.91658 -0.02080 0.16367
 C20 C 0.96415 0.03863 0.15022
 H21 H 1.00746 -0.10583 0.16556
 H22 H 1.08069 0.11629 0.14558
 H23 H 0.99677 0.00916 0.21855
 H24 H 0.85937 -0.04925 0.16026
 C25 C 0.07177 1.01319 0.85134
 C26 C 0.08644 1.07556 0.83315
 C27 C 0.02944 1.06134 0.81838
 C28 C -0.03656 0.98613 0.82305
 C29 C 0.00370 0.99797 0.86635
 C30 C -0.05276 0.98400 0.85173
 C31 C 0.04786 0.94881 0.83413
 C32 C -0.00824 0.93450 0.81939
 H33 H 0.13511 1.12736 0.83287
 H34 H -0.08370 0.97308 0.81140
 H35 H 0.00263 1.00461 0.88674
 H36 H 0.07539 0.91876 0.83290
 O37 O 0.61086 0.08949 -0.02685
 O38 O 0.49939 0.09758 0.02662
 O39 O 0.62666 0.10805 0.02234
 O40 O 0.49486 0.09707 -0.02254
 O41 O 0.43498 -0.02085 -0.01905
 O42 O 0.57066 -0.00981 0.02511
 O43 O 0.44424 -0.02004 0.03034
 O44 O 0.55003 -0.02834 -0.02310
 Cu45 Cu 0.56406 0.10977 -0.00025
 Cu46 Cu 0.49407 -0.03127 0.00390
 C47 C 0.59823 0.02825 -0.03426
 C48 C 0.45152 0.03915 0.03727
 C49 C 0.62267 0.05151 0.03094
 C50 C 0.44254 0.03669 -0.02858
 O51 O -0.08679 0.50536 0.64451
 O52 O -0.07922 0.39504 0.69679
 O53 O -0.09201 0.50978 0.69427
 O54 O -0.08946 0.38513 0.64790
 O55 O 0.02915 0.44805 0.64589
 O56 O 0.02629 0.57623 0.69146
 O57 O 0.03909 0.46182 0.69520
 O58 O 0.03181 0.56794 0.64257
 Cu59 Cu -0.09865 0.44280 0.67132
 Cu60 Cu 0.04335 0.51965 0.66884
 C61 C -0.02822 0.55501 0.63437
 C62 C -0.01808 0.40903 0.70453
 C63 C -0.03392 0.56525 0.70031
 C64 C -0.03009 0.39515 0.63883
 O65 O 0.58848 0.51323 0.35964
 O66 O 0.47192 0.40295 0.30730
 O67 O 0.59568 0.51978 0.31050
 O68 O 0.47289 0.38399 0.35670
 O69 O 0.40807 0.43606 0.35970
 O70 O 0.53415 0.57539 0.31360
 O71 O 0.41119 0.45908 0.31143
 O72 O 0.52313 0.56457 0.36322
 Cu73 Cu 0.53798 0.44915 0.33343
 Cu74 Cu 0.46329 0.51430 0.33758
 C75 C 0.57608 0.55925 0.36993
 C76 C 0.42194 0.41356 0.30026
 C77 C 0.58622 0.57054 0.30398
 C78 C 0.41873 0.38537 0.36573
 C79 C -0.03108 0.19195 0.56749
 C80 C -0.08467 0.15683 0.54945
 C81 C -0.08408 0.10543 0.53348
 C82 C -0.02993 0.08791 0.53536
 C83 C 0.02350 0.12357 0.55345
 C84 C 0.02281 0.17449 0.56932
 C85 C -0.03131 0.24594 0.58472
 C86 C 0.03359 0.30783 0.59085
 C87 C 0.03409 0.35652 0.60832
 C88 C -0.03036 0.34454 0.61995
 C89 C -0.09543 0.28342 0.61343
 C90 C -0.09588 0.23463 0.59602
 H91 H -0.12559 0.08073 0.51967
 H92 H 0.06626 0.11178 0.55529
 H93 H 0.08498 0.40340 0.61276
 H94 H -0.14607 0.27266 0.62205
 H95 H 0.06416 0.19959 0.58328
 H96 H 0.08413 0.31861 0.58213
 H97 H -0.12647 0.16988 0.54744
 H98 H -0.14659 0.18709 0.59191
 C99 C 0.78704 0.78108 0.23080
 C100 C 0.83169 0.76754 0.21470
 C101 C 0.88441 0.82169 0.19886
 C102 C 0.89347 0.89070 0.19871
 C103 C 0.84698 0.90305 0.21431
 C104 C 0.79511 0.84942 0.23024
 C105 C 0.73400 0.72530 0.24882
 C106 C 0.66745 0.72012 0.25451
 C107 C 0.61946 0.67028 0.27257
 C108 C 0.63663 0.62399 0.28506
 C109 C 0.70255 0.62838 0.27911
 C110 C 0.75080 0.67867 0.26132
 H111 H 0.91731 0.80859 0.18695
 H112 H 0.85197 0.95535 0.21451
 H113 H 0.56871 0.66754 0.27658
 H114 H 0.71745 0.59361 0.28853
 H115 H 0.76257 0.86227 0.24260
 H116 H 0.65224 0.75440 0.24493
 H117 H 0.82584 0.71493 0.21431
 H118 H 0.80202 0.68204 0.25781
 C119 C 0.23585 0.02685 -0.09879
 C120 C 0.25431 0.08084 -0.11728
 C121 C 0.20236 0.07809 -0.13339
 C122 C 0.13062 0.02126 -0.13127
 C123 C 0.11291 -0.03297 -0.11292
 C124 C 0.16445 -0.02995 -0.09680
 C125 C 0.29030 0.02956 -0.08142
 C126 C 0.28903 -0.03359 -0.07420
 C127 C 0.33827 -0.03148 -0.05700
 C128 C 0.39027 0.03391 -0.04682
 C129 C 0.39225 0.09715 -0.05430
 C130 C 0.34272 0.09498 -0.07135
 H131 H 0.21944 0.11988 -0.14764
 H132 H 0.05850 -0.07817 -0.11104
 H133 H 0.33583 -0.08099 -0.05178
 H134 H 0.43158 0.14842 -0.04673
 H135 H 0.14803 -0.07192 -0.08257
 H136 H 0.25014 -0.08473 -0.08196
 H137 H 0.30926 0.12467 -0.11959
 H138 H 0.34453 0.14440 -0.07621
 C139 C -0.02924 0.74612 0.55819
 C140 C 0.02431 0.78179 0.53899
 C141 C 0.02944 0.84025 0.52564
 C142 C -0.01836 0.86422 0.53152
 C143 C -0.07416 0.82608 0.54965
 C144 C -0.07945 0.76790 0.56285
 C145 C -0.02922 0.69129 0.57511
 C146 C -0.09419 0.63225 0.58434
 C147 C -0.09414 0.58678 0.60320
 C148 C -0.02907 0.59929 0.61312
 C149 C 0.03594 0.65634 0.60303
 C150 C 0.03587 0.70183 0.58428
 H151 H 0.07246 0.86855 0.51157
 H152 H -0.11288 0.84243 0.55410
 H153 H -0.14505 0.54282 0.61037
 H154 H 0.08711 0.66732 0.61016
 H155 H -0.12089 0.74224 0.57762
 H156 H -0.14522 0.62213 0.57738
 H157 H 0.06321 0.76556 0.53474
 H158 H 0.08676 0.74728 0.57787
 C159 C 0.21663 0.23962 0.22572
 C160 C 0.22939 0.22691 0.20052
 C161 C 0.17252 0.17648 0.18601
 C162 C 0.10246 0.13597 0.19689
 C163 C 0.09028 0.15122 0.22193
 C164 C 0.14641 0.20253 0.23603
 C165 C 0.27544 0.29013 0.24192
 C166 C 0.26837 0.34249 0.25500
 C167 C 0.31731 0.38352 0.27334
 C168 C 0.37434 0.37278 0.27926
 C169 C 0.38321 0.32220 0.26543
 C170 C 0.33415 0.28130 0.24678
 H171 H 0.18491 0.16609 0.16700
 H172 H 0.03699 0.12358 0.23079
 H173 H 0.30904 0.42239 0.28341
 H174 H 0.42684 0.31308 0.26944
 H175 H 0.13526 0.21185 0.25540
 H176 H 0.22357 0.35024 0.25150
 H177 H 0.28334 0.25544 0.19221
 H178 H 0.34008 0.24060 0.23700
 C179 C 0.77633 -0.00709 -0.10923
 C180 C 0.80799 0.03421 -0.13149
 C181 C 0.86034 0.02757 -0.14544
 C182 C 0.88253 -0.01935 -0.13698
 C183 C 0.84909 -0.06232 -0.11530
 C184 C 0.79618 -0.05662 -0.10166
 C185 C 0.72589 0.00351 -0.09284
 C186 C 0.66394 -0.05613 -0.08244
 C187 C 0.62152 -0.04740 -0.06411
 C188 C 0.64008 0.02126 -0.05562
 C189 C 0.70013 0.08136 -0.06693
 C190 C 0.74268 0.07253 -0.08545
 H191 H 0.88630 0.06188 -0.16196
 H192 H 0.86588 -0.09848 -0.10842
 H193 H 0.57507 -0.09491 -0.05608
 H194 H 0.71559 0.13489 -0.06086
 H195 H 0.77321 -0.08857 -0.08445
 H196 H 0.64935 -0.10981 -0.08805
 H197 H 0.79328 0.07249 -0.13775
 H198 H 0.79056 0.11938 -0.09308
 C199 C 0.23266 0.02445 0.10702
 C200 C 0.20956 -0.01835 0.12928
 C201 C 0.15087 -0.02635 0.14390
 C202 C 0.11406 0.00841 0.13663
 C203 C 0.13708 0.05115 0.11441
 C204 C 0.19566 0.05908 0.09977
 C205 C 0.29312 0.03060 0.09084
 C206 C 0.34317 0.09584 0.07874
 C207 C 0.39679 0.09978 0.06209
 C208 C 0.40122 0.03847 0.05713
 C209 C 0.35264 -0.02603 0.06991
 C210 C 0.29937 -0.02991 0.08653
 H211 H 0.13533 -0.05849 0.16120
 H212 H 0.10915 0.07773 0.10808
 H213 H 0.43332 0.15021 0.05254
 H214 H 0.35444 -0.07436 0.06655
 H215 H 0.21104 0.09118 0.08247
 H216 H 0.34041 0.14369 0.08195
 H217 H 0.23742 -0.04505 0.13557
 H218 H 0.26134 -0.08112 0.09528
 C219 C 0.77515 0.77574 0.43795
 C220 C 0.75192 0.79760 0.45953
 C221 C 0.80137 0.85378 0.47441
 C222 C 0.87526 0.88928 0.46810
 C223 C 0.89843 0.86789 0.44643
 C224 C 0.84901 0.81191 0.43151
 C225 C 0.72244 0.71670 0.42187
 C226 C 0.73848 0.66709 0.41084
 C227 C 0.69003 0.61404 0.39464
 C228 C 0.62462 0.60961 0.38912
 C229 C 0.60791 0.65797 0.40075
 C230 C 0.65613 0.71077 0.41686
 H231 H 0.78189 0.86776 0.49132
 H232 H 0.95490 0.89451 0.44093
 H233 H 0.70454 0.57768 0.38598
 H234 H 0.55808 0.65630 0.39690
 H235 H 0.86861 0.79748 0.41474
 H236 H 0.78868 0.66952 0.41463
 H237 H 0.69555 0.77028 0.46525
 H238 H 0.64234 0.74848 0.42474
 C239 C 0.01110 0.21469 0.77185
 C240 C -0.02252 0.14228 0.76508
 C241 C -0.01455 0.09321 0.77977
 C242 C 0.02693 0.11520 0.80166
 C243 C 0.06153 0.18788 0.80824
 C244 C 0.05384 0.23711 0.79345
 C245 C 0.00223 0.26657 0.75616
 C246 C 0.06161 0.33444 0.75007
 C247 C 0.05435 0.38153 0.73398
 C248 C -0.01259 0.36208 0.72372
 C249 C -0.07256 0.29519 0.73053
 C250 C -0.06516 0.24785 0.74651
 H251 H -0.04090 0.03796 0.77389
 H252 H 0.09270 0.20646 0.82525
 H253 H 0.10167 0.43265 0.72912
 H254 H -0.12480 0.27856 0.72293
 H255 H 0.07994 0.29246 0.79926
 H256 H 0.11429 0.35022 0.75706
 H257 H -0.05451 0.12366 0.74825
 H258 H -0.11211 0.19628 0.75117
 C259 C 0.84946 0.07580 0.09407
 C260 C 0.88890 0.04251 0.08753
 C261 C 0.93348 0.03740 0.10517
 C262 C 0.93892 0.06515 0.12959
 C263 C 0.90334 0.10237 0.13563
 C264 C 0.85943 0.10829 0.11791
 C265 C 0.79296 0.07053 0.07724
 C266 C 0.78530 0.13008 0.07275
 C267 C 0.72979 0.12378 0.05781
 C268 C 0.68012 0.05751 0.04736
 C269 C 0.68758 -0.00212 0.05199
 C270 C 0.74364 0.00442 0.06665
 H271 H 0.95935 0.00708 0.10046
 H272 H 0.90559 0.12243 0.15464
 H273 H 0.72558 0.17079 0.05455
 H274 H 0.65046 -0.05375 0.04409
 H275 H 0.82927 0.13373 0.12351
 H276 H 0.82256 0.18159 0.08070
 H277 H 0.88264 0.01763 0.06920
 H278 H 0.74759 -0.04265 0.07016
 C279 C 0.21609 0.15159 0.43155
 C280 C 0.14424 0.10633 0.42481
 C281 C 0.09330 0.05867 0.44272
 C282 C 0.11337 0.05618 0.46767
 C283 C 0.18583 0.09812 0.47400
 C284 C 0.23700 0.14493 0.45600
 C285 C 0.26750 0.21010 0.41412
 C286 C 0.33775 0.22345 0.41011
 C287 C 0.38689 0.28062 0.39449
 C288 C 0.36719 0.32640 0.38292
 C289 C 0.29707 0.31339 0.38714
 C290 C 0.24758 0.25551 0.40244
 H291 H 0.03730 0.02823 0.43771
 H292 H 0.20184 0.09808 0.49335
 H293 H 0.44054 0.28923 0.39157
 H294 H 0.28020 0.34742 0.37836
 H295 H 0.29189 0.17954 0.46173
 H296 H 0.35442 0.18931 0.41893
 H297 H 0.12696 0.11019 0.40603
 H298 H 0.19404 0.24701 0.40557
 C299 C -0.04711 0.77298 0.76565
 C300 C -0.06839 0.75440 0.79129
 C301 C -0.06073 0.80648 0.80859
 C302 C -0.03318 0.87755 0.80045
 C303 C -0.01625 0.89541 0.77460
 C304 C -0.02271 0.84354 0.75732
 C305 C -0.04488 0.72029 0.74830
 C306 C 0.01753 0.73924 0.73353
 C307 C 0.02168 0.68854 0.71831
 C308 C -0.03692 0.61812 0.71729
 C309 C -0.09961 0.59941 0.73190
 C310 C -0.10329 0.64983 0.74743
 H311 H -0.07280 0.79221 0.82859
 H312 H 0.00651 0.95037 0.76812
 H313 H 0.07046 0.70468 0.70713
 H314 H -0.14571 0.54559 0.73147
 H315 H -0.00638 0.85900 0.73761
 H316 H 0.06371 0.79298 0.73416
 H317 H -0.08679 0.70060 0.79824
 H318 H -0.15195 0.63392 0.75866
   
