data_POSCAR
  _audit_creation_date              2014-09-24
  _audit_creation_method            'ToBaCCo'
  _symmetry_space_group_name_H-M    'P1'
  _symmetry_Int_Tables_number       1
  _symmetry_cell_setting            triclinic
  loop_
  _symmetry_equiv_pos_as_xyz
 x,y,z
_cell_length_a 22.9184
_cell_length_b 23.0344
_cell_length_c 22.3078
_cell_angle_alpha 93.174000
_cell_angle_beta 87.956300
_cell_angle_gamma 90.549100
loop_
  _atom_site_label
  _atom_site_type_symbol
  _atom_site_fract_x
  _atom_site_fract_y
  _atom_site_fract_z
C1 C 0.17325 0.21299 0.24641
 C2 C 0.15053 0.26327 0.22267
 C3 C 0.18415 0.29550 0.18257
 C4 C 0.24108 0.27862 0.16693
 C5 C 0.26360 0.22683 0.18667
 C6 C 0.22925 0.19398 0.22641
 H7 H 0.10673 0.27778 0.23539
 H8 H 0.26633 0.30428 0.13581
 H9 H 0.24689 0.15503 0.24342
 C10 C -0.19356 0.82653 0.23512
 C11 C -0.25345 0.83781 0.23025
 C12 C -0.29144 0.79658 0.20426
 C13 C -0.26938 0.74303 0.18212
 C14 C -0.20962 0.73101 0.18326
 C15 C -0.17154 0.77234 0.21128
 H16 H -0.27121 0.87889 0.24800
 H17 H -0.29839 0.71173 0.16023
 H18 H -0.12536 0.76312 0.21256
 C19 C -0.21936 0.17724 -0.27577
 C20 C -0.24455 0.14708 -0.22769
 C21 C -0.25689 0.17666 -0.17171
 C22 C -0.24013 0.23494 -0.16268
 C23 C -0.21407 0.26508 -0.20945
 C24 C -0.20741 0.23711 -0.26674
 H25 H -0.25468 0.10112 -0.23369
 H26 H -0.24699 0.25671 -0.11871
 H27 H -0.18650 0.26046 -0.30262
 C28 C 0.20507 0.83814 -0.25378
 C29 C 0.17323 0.78713 -0.24200
 C30 C 0.19110 0.75047 -0.19767
 C31 C 0.24003 0.76520 -0.16418
 C32 C 0.27192 0.81571 -0.17498
 C33 C 0.25463 0.85172 -0.21978
 H34 H 0.13572 0.77478 -0.26816
 H35 H 0.25395 0.73671 -0.13041
 H36 H 0.28020 0.89047 -0.22805
 C37 C 0.20654 1.15949 0.76586
 C38 C 0.17744 1.20005 0.80529
 C39 C 0.20766 1.23019 0.85129
 C40 C 0.26607 1.21526 0.86082
 C41 C 0.29387 1.17080 0.82488
 C42 C 0.26426 1.14410 0.77702
 H43 H 0.13355 1.21291 0.79591
 H44 H 0.28985 1.23811 0.89614
 H45 H 0.28691 1.11197 0.74762
 C46 C 0.79968 0.79573 0.70175
 C47 C 0.75619 0.81685 0.74304
 C48 C 0.75009 0.79410 0.80004
 C49 C 0.78579 0.74759 0.81405
 C50 C 0.82598 0.72297 0.77114
 C51 C 0.83255 0.74754 0.71527
 H52 H 0.73033 0.85379 0.73257
 H53 H 0.78102 0.72960 0.85779
 H54 H 0.86473 0.73004 0.68249
 C55 C 0.20266 0.80421 1.28100
 C56 C 0.16278 0.76135 1.26246
 C57 C 0.16103 0.74110 1.20231
 C58 C 0.19846 0.76648 1.15935
 C59 C 0.23946 0.80925 1.17766
 C60 C 0.24347 0.82520 1.23909
 H61 H 0.13222 0.74425 1.29538
 H62 H 0.19526 0.75398 1.11208
 H63 H 0.27318 0.85976 1.25317
 C64 C 0.83050 1.19567 1.27471
 C65 C 0.77988 1.16400 1.25880
 C66 C 0.74198 1.18524 1.21750
 C67 C 0.75461 1.23807 1.19149
 C68 C 0.80638 1.26911 1.20412
 C69 C 0.84374 1.24762 1.24617
 H70 H 0.76831 1.12403 1.27979
 H71 H 0.72421 1.25412 1.16026
 H72 H 0.88297 1.27178 1.25738
 O73 O 0.57708 0.95104 0.88480
 O74 O 0.42318 0.94467 1.11951
 O75 O 0.56556 0.90363 1.07501
 O76 O 0.40454 0.97079 0.95050
 O77 O 0.52834 0.94933 1.15241
 O78 O 0.48212 0.91775 0.93359
 O79 O 0.37411 0.99028 1.05376
 O80 O 0.58385 0.91607 0.97273
 C81 C 0.60462 0.91780 0.91959
 C82 C 0.37847 0.94924 1.08931
 C83 C 0.55211 0.90504 1.12884
 C84 C 0.42785 0.92300 0.93264
 O85 O 0.47676 1.01640 0.88319
 O86 O 0.52800 1.06032 1.14461
 O87 O 0.62735 1.02526 0.99838
 O88 O 0.43269 1.09819 1.04956
 O89 O 0.41903 1.05601 1.13000
 O90 O 0.56632 1.05185 0.93502
 O91 O 0.46008 1.07906 0.95235
 O92 O 0.60641 1.01454 1.10660
 Co93 Co 0.52473 0.98487 0.93894
 Co94 Co 0.47718 1.00234 1.12625
 Co95 Co 0.58827 0.96792 1.03732
 Co96 Co 0.42366 1.03225 1.00347
 O97 O 0.50113 0.99920 1.02913
 C98 C 0.45737 1.06554 0.89838
 C99 C 0.58264 1.05555 1.13975
 C100 C 0.61469 1.05759 0.95780
 C101 C 0.41668 1.10094 1.10250
 O102 O 0.04947 0.47632 0.07748
 O103 O 0.06018 0.54059 -0.13739
 O104 O 0.02279 0.37400 -0.06573
 O105 O 0.05339 0.59102 0.04326
 O106 O 0.07570 0.43934 -0.10802
 O107 O -0.00675 0.56340 0.10978
 O108 O 0.07549 0.59573 -0.05965
 O109 O 0.02508 0.39236 0.04208
 C110 C 0.05951 0.42389 0.07181
 C111 C 0.08523 0.58285 -0.11347
 C112 C 0.07160 0.39076 -0.08633
 C113 C 0.03533 0.59461 0.09620
 O114 O -0.09742 0.52770 0.05794
 O115 O -0.03403 0.41871 -0.13630
 O116 O -0.08937 0.42464 0.04400
 O117 O -0.03706 0.60661 -0.08726
 O118 O -0.04768 0.52576 -0.14623
 O119 O -0.05341 0.45904 0.12739
 O120 O -0.06243 0.60875 0.02599
 O121 O -0.09154 0.41396 -0.06086
 Co122 Co -0.02366 0.49823 0.06370
 Co123 Co 0.01178 0.48188 -0.12173
 Co124 Co -0.03069 0.40940 -0.01166
 Co125 Co 0.00530 0.59174 -0.01959
 O126 O -0.00639 0.49911 -0.02609
 C127 C -0.10235 0.58137 0.05327
 C128 C -0.08388 0.40953 -0.11586
 C129 C -0.08802 0.42164 0.10036
 C130 C -0.05714 0.57929 -0.13370
 O131 O 1.08435 0.08749 0.45008
 O132 O 0.88129 0.01604 0.53651
 O133 O 0.98935 0.06724 0.40331
 O134 O 1.04701 0.05073 0.62901
 O135 O 0.90477 0.03904 0.43186
 O136 O 1.07357 0.09631 0.55319
 O137 O 0.93869 0.05302 0.60690
 O138 O 1.08821 0.02841 0.37623
 C139 C 1.10024 0.07804 0.39680
 C140 C 0.89005 0.05016 0.58229
 C141 C 0.93639 0.07559 0.40713
 C142 C 1.07494 0.09174 0.60771
 O143 O 1.11852 -0.01173 0.56496
 O144 O 0.94777 -0.07082 0.40822
 O145 O 1.05782 -0.07283 0.41279
 O146 O 0.93624 -0.05834 0.59926
 O147 O 0.92461 -0.09258 0.50922
 O148 O 1.12760 -0.02464 0.45714
 O149 O 1.04785 -0.06062 0.60862
 O150 O 0.99372 -0.02587 0.33798
 Co151 Co 1.09434 0.03420 0.50526
 Co152 Co 0.92253 -0.02449 0.47379
 Co153 Co 1.02127 -0.00325 0.41100
 Co154 Co 0.99393 -0.00315 0.60032
 O155 O 1.00911 0.00268 0.50204
 C156 C 1.10145 -0.05092 0.59945
 C157 C 0.95018 -0.05875 0.35346
 C158 C 1.10973 -0.07004 0.42901
 C159 C 0.91351 -0.09465 0.56346
 N160 N 1.07644 0.17160 0.36141
 N161 N 1.09369 0.20805 0.32051
 C162 C 1.14073 0.18434 0.29073
 C163 C 1.15128 0.13103 0.31474
 N164 N 1.11016 0.12523 0.35864
 H165 H 1.18517 0.09982 0.30224
 N166 N 0.86409 -0.04324 0.29841
 N167 N 0.82413 -0.07291 0.26810
 C168 C 0.84139 -0.12896 0.26198
 C169 C 0.89440 -0.13243 0.29022
 N170 N 0.90654 -0.07785 0.31230
 H171 H 0.91948 -0.17087 0.29733
 N172 N 0.83599 0.13891 0.57943
 N173 N 0.80810 0.17577 0.61780
 C174 C 0.79890 0.14864 0.66948
 C175 C 0.82237 0.09340 0.66114
 N176 N 0.84512 0.08921 0.60442
 H177 H 0.82912 0.06251 0.69506
 N178 N 1.19748 -0.05633 0.63948
 N179 N 1.22588 -0.08361 0.67996
 C180 C 1.18981 -0.12512 0.70082
 C181 C 1.13756 -0.12221 0.67101
 N182 N 1.14441 -0.07848 0.63336
 H183 H 1.09776 -0.14690 0.67821
 N184 N 0.39432 1.20311 1.10441
 N185 N 0.35237 1.23822 1.12579
 C186 C 0.31809 1.20763 1.16342
 C187 C 0.34160 1.15276 1.16559
 N188 N 0.38849 1.15177 1.12770
 H189 H 0.32290 1.11517 1.18637
 N190 N 0.40461 0.82155 0.90465
 N191 N 0.36311 0.79137 0.87662
 C192 C 0.32401 0.83027 0.85974
 C193 C 0.34238 0.88502 0.87873
 N194 N 0.39258 0.87770 0.90646
 H195 H 0.32170 0.92623 0.87251
 N196 N 0.56382 0.80529 1.15328
 N197 N 0.60713 0.77389 1.17181
 C198 C 0.64723 0.81166 1.19423
 C199 C 0.62621 0.86710 1.18985
 N200 N 0.57423 0.86140 1.16429
 H201 H 0.65028 0.90763 1.19523
 N202 N 0.69694 1.12407 0.97000
 N203 N 0.73301 1.15497 0.93644
 C204 C 0.71563 1.14738 0.87932
 C205 C 0.66686 1.11180 0.87905
 N206 N 0.65650 1.09867 0.93654
 H207 H 0.64189 1.09641 0.84096
 N208 N 0.15448 0.42908 0.11693
 N209 N 0.18844 0.39653 0.14798
 C210 C 0.15991 0.34563 0.15436
 C211 C 0.10804 0.34730 0.12514
 N212 N 0.10655 0.39996 0.10226
 H213 H 0.07483 0.31372 0.12084
 N214 N -0.12797 0.39402 -0.21256
 N215 N -0.16323 0.35581 -0.23958
 C216 C -0.18597 0.32222 -0.19677
 C217 C -0.16384 0.34177 -0.14233
 N218 N -0.12779 0.38621 -0.15425
 H219 H -0.16715 0.32094 -0.09999
 N220 N 0.12167 0.61194 -0.21012
 N221 N 0.14673 0.65720 -0.23481
 C222 C 0.16155 0.69452 -0.18924
 C223 C 0.14539 0.67047 -0.13555
 N224 N 0.12053 0.61884 -0.15072
 H225 H 0.14849 0.68990 -0.09045
 N226 N -0.19367 0.58845 0.11236
 N227 N -0.22125 0.62627 0.15004
 C228 C -0.18946 0.67602 0.15168
 C229 C -0.14204 0.66778 0.11214
 N230 N -0.14663 0.61280 0.08817
 H231 H -0.10747 0.69848 0.10212
 N232 N 1.17694 0.10958 0.62000
 N233 N 1.21389 0.12274 0.66276
 C234 C 1.18166 0.13943 0.71222
 C235 C 1.12310 0.13593 0.69811
 N236 N 1.12236 0.11734 0.63984
 H237 H 1.08508 0.14296 0.72773
 N238 N 0.81181 -0.10879 0.58633
 N239 N 0.77915 -0.13572 0.62644
 C240 C 0.81401 -0.17437 0.65048
 C241 C 0.86910 -0.17023 0.62358
 N242 N 0.86579 -0.12895 0.58391
 H243 H 0.90927 -0.18909 0.63733
 N244 N 1.20836 -0.10026 0.40601
 N245 N 1.23613 -0.13318 0.36394
 C246 C 1.19539 -0.16747 0.33755
 C247 C 1.14184 -0.15507 0.36557
 N248 N 1.15165 -0.11194 0.40685
 H249 H 1.09916 -0.16815 0.35006
 N250 N 0.94325 0.17297 0.37242
 N251 N 0.91664 0.20561 0.33502
 C252 C 0.86786 0.17668 0.31813
 C253 C 0.86494 0.12538 0.34793
 N254 N 0.91279 0.12494 0.38103
 H255 H 0.83425 0.08964 0.34250
 N256 N 0.17473 0.36981 -0.07862
 N257 N 0.21213 0.32747 -0.09357
 C258 C 0.18091 0.28191 -0.11627
 C259 C 0.12256 0.29782 -0.11394
 N260 N 0.12083 0.35280 -0.09037
 H261 H 0.08555 0.27358 -0.13127
 N262 N -0.18662 0.38598 0.11032
 N263 N -0.21594 0.34369 0.13586
 C264 C -0.17981 0.31988 0.17396
 C265 C -0.12704 0.35038 0.17155
 N266 N -0.13341 0.39104 0.13124
 H267 H -0.08639 0.34037 0.19181
 N268 N -0.08310 0.60181 -0.23341
 N269 N -0.11269 0.64102 -0.26060
 C270 C -0.13979 0.67514 -0.21718
 C271 C -0.12550 0.65554 -0.16204
 N272 N -0.09001 0.61000 -0.17449
 H273 H -0.13710 0.67393 -0.11754
 N274 N 0.04697 0.63444 0.19768
 N275 N 0.07956 0.67326 0.22708
 C276 C 0.11744 0.69571 0.18652
 C277 C 0.10709 0.66909 0.13097
 N278 N 0.06295 0.63136 0.14015
 H279 H 0.12883 0.67645 0.08816
 N280 N 0.44301 1.16049 0.86308
 N281 N 0.39807 1.19165 0.84796
 C282 C 0.35464 1.15379 0.83519
 C283 C 0.37502 1.09818 0.84208
 N284 N 0.43065 1.10407 0.85951
 H285 H 0.34932 1.05851 0.84270
 N286 N 0.28892 0.89812 1.05936
 N287 N 0.25226 0.85853 1.08048
 C288 C 0.27271 0.84334 1.13344
 C289 C 0.32311 0.87496 1.14390
 N290 N 0.33141 0.90876 1.09720
 H291 H 0.35003 0.87520 1.18283
 N292 N 0.59336 1.14424 1.20146
 N293 N 0.63411 1.17999 1.22267
 C294 C 0.68586 1.15599 1.20595
 C295 C 0.67569 1.10414 1.17321
 N296 N 0.61712 1.09859 1.17157
 H297 H 0.70734 1.07488 1.15106
 N298 N 0.66532 0.83500 0.93253
 N299 N 0.70358 0.80098 0.90254
 C300 C 0.70896 0.81992 0.84651
 C301 C 0.67222 0.86727 0.84317
 N302 N 0.64605 0.87496 0.89790
 H303 H 0.66562 0.89388 0.80556
   
