data_POSCAR
  _audit_creation_date              2014-09-24
  _audit_creation_method            'ToBaCCo'
  _symmetry_space_group_name_H-M    'P1'
  _symmetry_Int_Tables_number       1
  _symmetry_cell_setting            triclinic
  loop_
  _symmetry_equiv_pos_as_xyz
 x,y,z
_cell_length_a 40.3121
_cell_length_b 39.8508
_cell_length_c 24.1087
_cell_angle_alpha 89.327500
_cell_angle_beta 90.908500
_cell_angle_gamma 95.511800
loop_
  _atom_site_label
  _atom_site_type_symbol
  _atom_site_fract_x
  _atom_site_fract_y
  _atom_site_fract_z
C1 C 0.05018 0.28033 -0.03391
 C2 C 0.04810 0.29709 0.01488
 C3 C 0.01575 0.30124 0.04073
 C4 C 0.07889 0.30953 0.04581
 C5 C 0.08315 0.27150 -0.05327
 C6 C 0.02069 0.27154 -0.07086
 C7 C 0.00334 0.33286 0.04101
 C8 C -0.02822 0.33636 0.06215
 C9 C -0.04737 0.30859 0.08632
 C10 C -0.03378 0.27718 0.08826
 C11 C -0.00286 0.27350 0.06475
 C12 C 0.10251 0.33260 0.02022
 C13 C 0.13555 0.33590 0.03921
 C14 C 0.14543 0.31642 0.08441
 C15 C 0.12087 0.29629 0.11381
 C16 C 0.08775 0.29301 0.09474
 C17 C 0.10295 0.25227 -0.01930
 C18 C 0.13635 0.24991 -0.03181
 C19 C 0.15003 0.26532 -0.07991
 C20 C 0.12945 0.28212 -0.11633
 C21 C 0.09629 0.28539 -0.10290
 C22 C 0.01641 0.23985 -0.09636
 C23 C -0.00996 0.23206 -0.13388
 C24 C -0.03290 0.25559 -0.14584
 C25 C -0.02867 0.28727 -0.12058
 C26 C -0.00173 0.29541 -0.08443
 H27 H 0.01764 0.35458 0.02299
 H28 H -0.03734 0.36105 0.06009
 H29 H -0.04730 0.25496 0.10597
 H30 H 0.00661 0.24896 0.06520
 H31 H 0.09601 0.34571 -0.01743
 H32 H 0.15373 0.35208 0.01627
 H33 H 0.06985 0.27513 0.11507
 H34 H 0.09297 0.24059 0.01844
 H35 H 0.15158 0.23634 -0.00363
 H36 H 0.13942 0.29413 -0.15383
 H37 H 0.08139 0.30013 -0.12978
 H38 H 0.03364 0.22117 -0.08749
 H39 H -0.01262 0.20752 -0.15314
 H40 H -0.04553 0.30617 -0.13025
 H41 H 0.00203 0.32072 -0.06839
 H42 H 0.12741 0.28145 0.14946
 C43 C 0.45959 0.76385 0.49256
 C44 C 0.45618 0.77371 0.54608
 C45 C 0.42441 0.76636 0.57549
 C46 C 0.48595 0.78584 0.58031
 C47 C 0.49342 0.76016 0.47099
 C48 C 0.43046 0.75604 0.45422
 C49 C 0.40756 0.79260 0.59633
 C50 C 0.37921 0.78528 0.62864
 C51 C 0.36846 0.75173 0.64244
 C52 C 0.38538 0.72555 0.62171
 C53 C 0.41287 0.73280 0.58766
 C54 C 0.50866 0.81211 0.56077
 C55 C 0.54068 0.81726 0.58409
 C56 C 0.55028 0.79673 0.62813
 C57 C 0.52628 0.77296 0.65149
 C58 C 0.49439 0.76759 0.62779
 C59 C 0.51460 0.73962 0.49955
 C60 C 0.54817 0.74077 0.48609
 C61 C 0.56077 0.76116 0.44206
 C62 C 0.53904 0.77962 0.41053
 C63 C 0.50556 0.77931 0.42518
 C64 C 0.43056 0.72970 0.41592
 C65 C 0.40456 0.72369 0.37713
 C66 C 0.37765 0.74357 0.37627
 C67 C 0.37733 0.76976 0.41467
 C68 C 0.40368 0.77624 0.45266
 H69 H 0.41653 0.81862 0.58788
 H70 H 0.36653 0.80577 0.64478
 H71 H 0.37739 0.69954 0.63210
 H72 H 0.42602 0.71233 0.57263
 H73 H 0.50246 0.82684 0.52469
 H74 H 0.55845 0.83611 0.56571
 H75 H 0.47731 0.74729 0.64382
 H76 H 0.50543 0.72402 0.53418
 H77 H 0.56436 0.72589 0.51035
 H78 H 0.54827 0.79542 0.37621
 H79 H 0.48953 0.79509 0.40243
 H80 H 0.45094 0.71387 0.41568
 H81 H 0.40543 0.70336 0.34793
 H82 H 0.35726 0.78596 0.41421
 H83 H 0.40351 0.79765 0.47977
 H84 H 0.53261 0.75691 0.68575
 C85 C 0.94930 0.71405 -0.02468
 C86 C 0.95049 0.72542 0.02879
 C87 C 0.98177 0.73093 0.06262
 C88 C 0.91915 0.73339 0.05567
 C89 C 0.91631 0.70378 -0.05129
 C90 C 0.97906 0.71429 -0.06101
 C91 C 1.00619 0.70794 0.06244
 C92 C 1.03457 0.71296 0.09677
 C93 C 1.03839 0.74040 0.13310
 C94 C 1.01401 0.76320 0.13344
 C95 C 0.98622 0.75872 0.09824
 C96 C 0.90836 0.71697 0.10494
 C97 C 0.87690 0.72146 0.12590
 C98 C 0.85580 0.74203 0.09728
 C99 C 0.86738 0.75977 0.04975
 C100 C 0.89906 0.75607 0.02986
 C101 C 0.90619 0.72093 -0.09878
 C102 C 0.87354 0.71516 -0.11896
 C103 C 0.85038 0.69215 -0.09186
 C104 C 0.86117 0.67349 -0.04638
 C105 C 0.89396 0.67900 -0.02660
 C106 C 1.00529 0.74026 -0.05859
 C107 C 1.03135 0.74153 -0.09635
 C108 C 1.03065 0.71825 -0.13991
 C109 C 1.00404 0.69285 -0.14321
 C110 C 0.97913 0.69038 -0.10348
 H111 H 1.00307 0.68585 0.03648
 H112 H 1.05287 0.69479 0.09639
 H113 H 1.01646 0.78460 0.16099
 H114 H 0.96794 0.77691 0.09931
 H115 H 0.92369 0.69966 0.12575
 H116 H 0.86844 0.70760 0.16275
 H117 H 0.90734 0.76970 -0.00733
 H118 H 0.92311 0.74006 -0.11849
 H119 H 0.86623 0.72996 -0.15417
 H120 H 0.84398 0.65541 -0.02497
 H121 H 0.90150 0.66516 0.00965
 H122 H 1.00529 0.76026 -0.02866
 H123 H 1.05099 0.76197 -0.09313
 H124 H 1.00272 0.67434 -0.17594
 H125 H 0.95926 0.67018 -0.10701
 H126 H 0.85172 0.77616 0.02752
 C127 C 0.54490 0.22818 0.45230
 C128 C 0.54150 0.23222 0.50811
 C129 C 0.57045 0.23568 0.54757
 C130 C 0.50781 0.23172 0.53272
 C131 C 0.51530 0.22722 0.41493
 C132 C 0.57739 0.22352 0.42671
 C133 C 0.56872 0.21743 0.59783
 C134 C 0.59542 0.22009 0.63550
 C135 C 0.62471 0.24048 0.62321
 C136 C 0.62658 0.25902 0.57333
 C137 C 0.59937 0.25724 0.53637
 C138 C 0.48451 0.20351 0.52603
 C139 C 0.45233 0.20369 0.54619
 C140 C 0.44324 0.23146 0.57564
 C141 C 0.46707 0.25894 0.58528
 C142 C 0.49913 0.25914 0.56362
 C143 C 0.49845 0.25614 0.40684
 C144 C 0.46715 0.25379 0.38061
 C145 C 0.45202 0.22234 0.36345
 C146 C 0.46960 0.19373 0.36926
 C147 C 0.50136 0.19629 0.39385
 C148 C 0.58907 0.24451 0.38263
 C149 C 0.62103 0.24254 0.36187
 C150 C 0.64183 0.21947 0.38487
 C151 C 0.62936 0.19728 0.42698
 C152 C 0.59732 0.19903 0.44728
 H153 H 0.54672 0.20081 0.60781
 H154 H 0.59343 0.20567 0.67386
 H155 H 0.64875 0.27545 0.56361
 H156 H 0.60097 0.27260 0.49901
 H157 H 0.49117 0.18145 0.50465
 H158 H 0.43456 0.18195 0.53909
 H159 H 0.51699 0.28088 0.57008
 H160 H 0.50888 0.28016 0.42312
 H161 H 0.45396 0.27615 0.37674
 H162 H 0.45840 0.16929 0.35599
 H163 H 0.51401 0.17373 0.40010
 H164 H 0.57394 0.26334 0.36578
 H165 H 0.62980 0.25996 0.32935
 H166 H 0.64464 0.17896 0.44505
 H167 H 0.58846 0.18200 0.48035
 H168 H 0.46061 0.28060 0.60801
 C169 C 0.74675 -0.00083 -0.01653
 C170 C 0.74868 0.00582 0.03892
 C171 C 0.74399 -0.02131 0.08240
 C172 C 0.76127 0.03975 0.05897
 C173 C 0.75282 0.02638 -0.05968
 C174 C 0.74497 -0.03612 -0.03616
 C175 C 0.71766 -0.04716 0.07960
 C176 C 0.71501 -0.07318 0.11939
 C177 C 0.73787 -0.07316 0.16421
 C178 C 0.76301 -0.04625 0.16842
 C179 C 0.76627 -0.02105 0.12785
 C180 C 0.74079 0.05858 0.09021
 C181 C 0.75375 0.08897 0.11396
 C182 C 0.78766 0.10021 0.10841
 C183 C 0.80807 0.08138 0.07696
 C184 C 0.79487 0.05155 0.05181
 C185 C 0.77344 0.02141 -0.10471
 C186 C 0.78099 0.04696 -0.14377
 C187 C 0.76883 0.07869 -0.13845
 C188 C 0.74749 0.08354 -0.09418
 C189 C 0.73895 0.05740 -0.05610
 C190 C 0.77226 -0.05486 -0.02717
 C191 C 0.77238 -0.08688 -0.04974
 C192 C 0.74490 -0.10126 -0.08101
 C193 C 0.71703 -0.08274 -0.08834
 C194 C 0.71739 -0.05015 -0.06700
 H195 H 0.69922 -0.04739 0.04648
 H196 H 0.69483 -0.09298 0.11514
 H197 H 0.78107 -0.04507 0.20227
 H198 H 0.78679 -0.00158 0.13180
 H199 H 0.71494 0.04948 0.09670
 H200 H 0.73765 0.10292 0.13860
 H201 H 0.81110 0.03694 0.02856
 H202 H 0.78446 -0.00210 -0.10932
 H203 H 0.79734 0.04201 -0.17733
 H204 H 0.73686 0.10723 -0.08925
 H205 H 0.72174 0.06159 -0.02348
 H206 H 0.79391 -0.04419 -0.00397
 H207 H 0.79425 -0.10029 -0.04282
 H208 H 0.69546 -0.09268 -0.11231
 H209 H 0.69627 -0.03578 -0.07464
 H210 H 0.83429 0.08959 0.07230
 C211 C 0.22417 0.48850 0.46808
 C212 C 0.22166 0.49057 0.52426
 C213 C 0.23505 0.46487 0.56119
 C214 C 0.20973 0.51968 0.55341
 C215 C 0.21482 0.51524 0.42847
 C216 C 0.24047 0.46029 0.44367
 C217 C 0.22232 0.43084 0.55962
 C218 C 0.23638 0.40702 0.59342
 C219 C 0.26315 0.41704 0.62957
 C220 C 0.27523 0.45124 0.63172
 C221 C 0.26131 0.47489 0.59792
 C222 C 0.18668 0.51335 0.59621
 C223 C 0.17960 0.53908 0.63159
 C224 C 0.19512 0.57184 0.62452
 C225 C 0.21708 0.57866 0.58014
 C226 C 0.22471 0.55266 0.54533
 C227 C 0.23582 0.52420 0.38350
 C228 C 0.22819 0.54895 0.34553
 C229 C 0.19991 0.56611 0.35232
 C230 C 0.17864 0.55753 0.39681
 C231 C 0.18557 0.53162 0.43386
 C232 C 0.27497 0.45901 0.45002
 C233 C 0.29077 0.43397 0.42389
 C234 C 0.27232 0.40953 0.39148
 C235 C 0.23762 0.41036 0.38624
 C236 C 0.22186 0.43582 0.41171
 H237 H 0.20172 0.42278 0.53199
 H238 H 0.22629 0.38092 0.59107
 H239 H 0.29575 0.45978 0.65920
 H240 H 0.27142 0.50106 0.59976
 H241 H 0.17514 0.48803 0.60361
 H242 H 0.16253 0.53318 0.66535
 H243 H 0.24330 0.55799 0.51369
 H244 H 0.25855 0.51231 0.37781
 H245 H 0.24494 0.55534 0.31148
 H246 H 0.15645 0.57039 0.40220
 H247 H 0.16819 0.52455 0.46667
 H248 H 0.28971 0.47793 0.47417
 H249 H 0.31753 0.43394 0.42854
 H250 H 0.22282 0.39211 0.36097
 H251 H 0.19524 0.43665 0.40619
 H252 H 0.22970 0.60362 0.57409
 C253 C 0.25512 0.99652 -0.03151
 C254 C 0.25373 0.99760 0.02511
 C255 C 0.26398 1.02990 0.05381
 C256 C 0.24632 0.96770 0.06173
 C257 C 0.24720 0.96573 -0.06671
 C258 C 0.26780 1.02772 -0.06171
 C259 C 0.29779 1.03860 0.06568
 C260 C 0.30885 1.07108 0.08307
 C261 C 0.28611 1.09512 0.09200
 C262 C 0.25182 1.08547 0.08387
 C263 C 0.24096 1.05337 0.06355
 C264 C 0.26350 0.93881 0.05703
 C265 C 0.25754 0.91177 0.09437
 C266 C 0.23519 0.91373 0.13811
 C267 C 0.21854 0.94283 0.14329
 C268 C 0.22389 0.96941 0.10535
 C269 C 0.22241 0.93951 -0.05360
 C270 C 0.21595 0.91164 -0.08880
 C271 C 0.23226 0.91073 -0.13993
 C272 C 0.25591 0.93746 -0.15381
 C273 C 0.26386 0.96383 -0.11739
 C274 C 0.24586 1.04832 -0.08772
 C275 C 0.25830 1.07745 -0.11648
 C276 C 0.29297 1.08628 -0.11953
 C277 C 0.31469 1.06499 -0.09387
 C278 C 0.30222 1.03603 -0.06547
 H279 H 0.31585 1.02074 0.05851
 H280 H 0.33537 1.07731 0.08950
 H281 H 0.23354 1.10321 0.08995
 H282 H 0.21477 1.04714 0.05397
 H283 H 0.28176 0.93734 0.02490
 H284 H 0.27110 0.88981 0.08997
 H285 H 0.21063 0.99152 0.11040
 H286 H 0.20756 0.94059 -0.01686
 H287 H 0.19698 0.89181 -0.07726
 H288 H 0.26926 0.93768 -0.19251
 H289 H 0.28314 0.98300 -0.12998
 H290 H 0.21919 1.04192 -0.08544
 H291 H 0.24068 1.09299 -0.13565
 H292 H 0.34149 1.07064 -0.09548
 H293 H 0.31944 1.01991 -0.04647
 H294 H 0.20119 0.94497 0.17662
 C295 C 0.73862 0.50005 0.48684
 C296 C 0.73997 0.49835 0.54336
 C297 C 0.72522 0.52379 0.57716
 C298 C 0.75764 0.47242 0.57350
 C299 C 0.75189 0.47440 0.45093
 C300 C 0.72555 0.52914 0.45721
 C301 C 0.74610 0.54698 0.60802
 C302 C 0.73290 0.57334 0.63523
 C303 C 0.69846 0.57641 0.63317
 C304 C 0.67739 0.55229 0.60424
 C305 C 0.69073 0.52636 0.57587
 C306 C 0.79109 0.46847 0.56235
 C307 C 0.80674 0.44219 0.58713
 C308 C 0.78939 0.41944 0.62395
 C309 C 0.75645 0.42461 0.63748
 C310 C 0.74079 0.45099 0.61263
 C311 C 0.74310 0.43965 0.45870
 C312 C 0.75414 0.41632 0.42187
 C313 C 0.77328 0.42749 0.37585
 C314 C 0.78228 0.46208 0.36848
 C315 C 0.77196 0.48523 0.40583
 C316 C 0.70027 0.52356 0.41674
 C317 C 0.69080 0.55022 0.38371
 C318 C 0.70668 0.58294 0.39017
 C319 C 0.73156 0.58854 0.43156
 C320 C 0.74101 0.56188 0.46445
 H321 H 0.77277 0.54534 0.60935
 H322 H 0.74966 0.59127 0.65796
 H323 H 0.65076 0.55408 0.60226
 H324 H 0.67429 0.50860 0.55220
 H325 H 0.80482 0.48525 0.53332
 H326 H 0.83225 0.43921 0.57631
 H327 H 0.71510 0.45392 0.62236
 H328 H 0.72697 0.43065 0.49228
 H329 H 0.74643 0.38977 0.42792
 H330 H 0.79701 0.47128 0.33329
 H331 H 0.77914 0.51182 0.39883
 H332 H 0.68839 0.49836 0.40997
 H333 H 0.67156 0.54509 0.35227
 H334 H 0.74437 0.61331 0.43798
 H335 H 0.76124 0.56660 0.49427
 H336 H 0.74238 0.40780 0.66594
 O337 O 0.28471 0.29225 0.14682
 O338 O 0.35135 0.26159 0.23418
 O339 O 0.31816 0.23751 0.14994
 O340 O 0.31906 0.31353 0.23468
 O341 O 0.28042 0.28774 0.28833
 O342 O 0.27819 0.21176 0.20094
 O343 O 0.31318 0.23372 0.28639
 O344 O 0.24649 0.26647 0.20112
 Cu345 Cu 0.32168 0.27894 0.18507
 Cu346 Cu 0.27564 0.24734 0.24947
 C347 C 0.25438 0.28545 0.15982
 C348 C 0.34356 0.24205 0.27480
 C349 C 0.29902 0.21134 0.16205
 C350 C 0.30026 0.31346 0.27640
 O351 O 0.73746 0.80334 0.29617
 O352 O 0.72541 0.71249 0.32253
 O353 O 0.76143 0.75122 0.25404
 O354 O 0.69908 0.76372 0.36050
 O355 O 0.65952 0.76027 0.29580
 O356 O 0.72119 0.74647 0.19056
 O357 O 0.68493 0.70734 0.25953
 O358 O 0.69827 0.79928 0.23087
 Cu359 Cu 0.73485 0.75825 0.31465
 Cu360 Cu 0.68695 0.75282 0.23776
 C361 C 0.72063 0.81681 0.25861
 C362 C 0.70278 0.69445 0.29663
 C363 C 0.75179 0.74715 0.20389
 C364 C 0.66858 0.76362 0.34620
 O365 O 0.85147 0.28126 0.22801
 O366 O 0.78166 0.24553 0.31312
 O367 O 0.82170 0.22195 0.24282
 O368 O 0.81039 0.30644 0.29643
 O369 O 0.77738 0.31519 0.22473
 O370 O 0.78460 0.22932 0.17646
 O371 O 0.74602 0.25621 0.24618
 O372 O 0.81658 0.28880 0.15833
 Cu373 Cu 0.81974 0.26308 0.27726
 Cu374 Cu 0.77752 0.27304 0.19453
 C375 C 0.84599 0.29071 0.17855
 C376 C 0.75199 0.24497 0.29452
 C377 C 0.80486 0.21127 0.20058
 C378 C 0.79247 0.32542 0.26876
 O379 O 0.20651 0.68965 0.21777
 O380 O 0.22248 0.78067 0.19164
 O381 O 0.25885 0.73294 0.22533
 O382 O 0.16991 0.73700 0.18842
 O383 O 0.15966 0.74658 0.27628
 O384 O 0.24818 0.74397 0.31245
 O385 O 0.21103 0.79057 0.27887
 O386 O 0.19672 0.69896 0.30587
 Cu387 Cu 0.21561 0.73416 0.19700
 Cu388 Cu 0.20290 0.74594 0.30218
 C389 C 0.19908 0.67871 0.26605
 C390 C 0.21892 0.80119 0.23049
 C391 C 0.26860 0.73774 0.27529
 C392 C 0.14968 0.74256 0.22642
 O393 O 0.79659 0.19427 0.71106
 O394 O 0.81291 0.28205 0.66572
 O395 O 0.84635 0.23714 0.70881
 O396 O 0.75688 0.24021 0.67508
 O397 O 0.74780 0.25434 0.76137
 O398 O 0.83750 0.25696 0.79192
 O399 O 0.79803 0.29961 0.74741
 O400 O 0.78688 0.21041 0.79616
 Cu401 Cu 0.80287 0.23702 0.68138
 Cu402 Cu 0.79180 0.25720 0.78274
 C403 C 0.78995 0.18716 0.76131
 C404 C 0.80790 0.30579 0.69810
 C405 C 0.85707 0.24654 0.75658
 C406 C 0.73702 0.24700 0.71299
 O407 O 0.24701 0.73403 0.77889
 O408 O 0.15774 0.73289 0.80717
 O409 O 0.19641 0.68882 0.77417
 O410 O 0.20785 0.77917 0.80990
 O411 O 0.19703 0.79175 0.72242
 O412 O 0.19054 0.70227 0.68561
 O413 O 0.14790 0.74230 0.71822
 O414 O 0.23816 0.74970 0.69211
 Cu415 Cu 0.20318 0.73259 0.80145
 Cu416 Cu 0.19213 0.74822 0.69592
 C417 C 0.25782 0.74190 0.73083
 C418 C 0.13752 0.73604 0.76709
 C419 C 0.19227 0.68024 0.72368
 C420 C 0.20460 0.80085 0.77165
 O421 O 0.24850 0.25080 0.77823
 O422 O 0.31012 0.23747 0.67353
 O423 O 0.28513 0.20242 0.75768
 O424 O 0.27792 0.28860 0.70223
 O425 O 0.31717 0.30796 0.76174
 O426 O 0.32777 0.22275 0.80992
 O427 O 0.35096 0.25931 0.72802
 O428 O 0.28873 0.26787 0.83761
 Cu429 Cu 0.27648 0.24289 0.72199
 Cu430 Cu 0.32513 0.26669 0.78992
 C431 C 0.25790 0.26090 0.82605
 C432 C 0.34084 0.24582 0.68243
 C433 C 0.30829 0.19813 0.79284
 C434 C 0.29618 0.31303 0.72373
 O435 O 0.66975 0.69440 0.76357
 O436 O 0.69594 0.77524 0.83314
 O437 O 0.64935 0.75494 0.75986
 O438 O 0.71288 0.71399 0.84029
 O439 O 0.74992 0.72705 0.77491
 O440 O 0.68658 0.76884 0.69550
 O441 O 0.73567 0.78547 0.77135
 O442 O 0.70914 0.70627 0.70174
 Cu443 Cu 0.67796 0.73353 0.80540
 Cu444 Cu 0.72242 0.74900 0.72750
 C445 C 0.68605 0.68611 0.72197
 C446 C 0.72143 0.79319 0.81528
 C447 C 0.65725 0.76900 0.71391
 C448 C 0.74219 0.71376 0.82168
 N449 N 0.33252 0.17235 0.11829
 N450 N 0.33024 0.14076 0.10130
 C451 C 0.29811 0.12819 0.10659
 C452 C 0.28068 0.15346 0.12781
 N453 N 0.30314 0.18047 0.13438
 H454 H 0.25474 0.15212 0.13932
 N455 N 0.65129 0.63339 0.70522
 N456 N 0.65372 0.60377 0.68182
 C457 C 0.68464 0.60481 0.66074
 C458 C 0.70091 0.63618 0.67134
 N459 N 0.67931 0.65318 0.69899
 H460 H 0.72619 0.64555 0.66103
 N461 N 0.75134 0.87118 0.27389
 N462 N 0.75696 0.90088 0.24902
 C463 C 0.73681 0.90054 0.20371
 C464 C 0.71820 0.86938 0.20211
 N465 N 0.72828 0.85190 0.24642
 H466 H 0.70090 0.85946 0.17023
 N467 N 0.31189 0.37316 0.72594
 N468 N 0.30374 0.40130 0.70202
 C469 C 0.27897 0.39251 0.66516
 C470 C 0.27221 0.35781 0.66720
 N471 N 0.29331 0.34687 0.70559
 H472 H 0.25400 0.34202 0.64341
 N473 N 0.87629 0.33426 0.12255
 N474 N 0.90565 0.34011 0.09849
 C475 C 0.92195 0.31222 0.10613
 C476 C 0.90138 0.28910 0.13644
 N477 N 0.87338 0.30384 0.14545
 H478 H 0.90617 0.26434 0.15159
 N479 N 0.31209 0.72189 0.74822
 N480 N 0.34178 0.72326 0.72508
 C481 C 0.34069 0.74393 0.68053
 C482 C 0.30944 0.75513 0.67680
 N483 N 0.29239 0.74076 0.71979
 H484 H 0.29977 0.77126 0.64521
 N485 N 0.09484 0.75918 0.24638
 N486 N 0.06504 0.75944 0.22264
 C487 C 0.06669 0.74486 0.17267
 C488 C 0.09862 0.73573 0.16634
 N489 N 0.11531 0.74519 0.21325
 H490 H 0.10882 0.72390 0.13107
 N491 N 0.67928 0.24288 0.74114
 N492 N 0.64895 0.24078 0.71884
 C493 C 0.65269 0.24270 0.66338
 C494 C 0.68636 0.24582 0.65222
 N495 N 0.70200 0.24575 0.70190
 H496 H 0.69825 0.24733 0.61219
 N497 N 0.79967 0.12869 0.74982
 N498 N 0.79475 0.09930 0.77587
 C499 C 0.77818 0.10441 0.82282
 C500 C 0.77328 0.13843 0.82471
 N501 N 0.78714 0.15249 0.77843
 H502 H 0.76147 0.15181 0.85657
 N503 N 0.19656 0.62074 0.23577
 N504 N 0.19636 0.59003 0.25728
 C505 C 0.19353 0.59302 0.31260
 C506 C 0.19228 0.62667 0.32453
 N507 N 0.19434 0.64308 0.27541
 H508 H 0.19298 0.63828 0.36496
 N509 N 0.22501 0.85752 0.74525
 N510 N 0.23368 0.88712 0.76806
 C511 C 0.22541 0.88444 0.82211
 C512 C 0.21127 0.85181 0.83172
 N513 N 0.21173 0.83597 0.78266
 H514 H 0.20322 0.84023 0.87069
 N515 N 0.78887 0.38488 0.25123
 N516 N 0.78420 0.41262 0.27844
 C517 C 0.78159 0.40397 0.33258
 C518 C 0.78515 0.36990 0.33786
 N519 N 0.78967 0.35911 0.28613
 H520 H 0.78354 0.35434 0.37501
 N521 N 0.23864 0.26354 0.92143
 N522 N 0.21007 0.26388 0.94795
 C523 C 0.18581 0.26457 0.90876
 C524 C 0.20036 0.26463 0.85751
 N525 N 0.23322 0.26396 0.86716
 H526 H 0.18823 0.26444 0.81710
 N527 N 0.64929 0.76125 0.44139
 N528 N 0.62079 0.75973 0.46837
 C529 C 0.59660 0.76336 0.43003
 C530 C 0.61111 0.76723 0.37875
 N531 N 0.64394 0.76570 0.38762
 H532 H 0.59888 0.76920 0.33870
 N533 N 0.76139 0.68096 0.89986
 N534 N 0.78996 0.67442 0.92369
 C535 C 0.81466 0.68943 0.89218
 C536 C 0.80021 0.70517 0.84796
 N537 N 0.76714 0.69937 0.85441
 H538 H 0.81228 0.72077 0.81570
 N539 N 0.36593 0.19921 0.33346
 N540 N 0.39477 0.19260 0.35622
 C541 C 0.41716 0.21884 0.34348
 C542 C 0.40118 0.24176 0.31219
 N543 N 0.36934 0.22856 0.30693
 H544 H 0.41162 0.26555 0.29475
 N545 N 0.76790 0.82405 0.86223
 N546 N 0.77490 0.85188 0.89118
 C547 C 0.74654 0.86725 0.89405
 C548 C 0.72157 0.84738 0.86611
 N549 N 0.73614 0.82089 0.84701
 H550 H 0.69570 0.85171 0.85954
 N551 N 0.32855 0.36466 0.31478
 N552 N 0.32210 0.39044 0.34566
 C553 C 0.28990 0.38493 0.36060
 C554 C 0.27683 0.35459 0.33817
 N555 N 0.30178 0.34288 0.31002
 H556 H 0.25158 0.34273 0.34049
 N557 N 0.34250 0.15650 0.83006
 N558 N 0.33919 0.12646 0.85423
 C559 C 0.30631 0.11600 0.85406
 C560 C 0.28952 0.14067 0.82779
 N561 N 0.31308 0.16534 0.81377
 H562 H 0.26295 0.14171 0.82213
 N563 N 0.67391 0.63777 0.28812
 N564 N 0.67405 0.60780 0.31269
 C565 C 0.69796 0.61071 0.35277
 C566 C 0.71256 0.64348 0.35158
 N567 N 0.69697 0.65942 0.31086
 H568 H 0.73240 0.65495 0.37786
 N569 N 0.08167 0.71132 0.74529
 N570 N 0.05279 0.70467 0.77052
 C571 C 0.05561 0.72031 0.82003
 C572 C 0.08729 0.73681 0.82421
 N573 N 0.10262 0.73054 0.77688
 H574 H 0.09894 0.75009 0.85944
 N575 N 0.72920 0.21245 0.37333
 N576 N 0.70030 0.20481 0.39799
 C577 C 0.67703 0.21961 0.36808
 C578 C 0.69276 0.23652 0.32379
 N579 N 0.72518 0.23141 0.32878
 H580 H 0.68205 0.25177 0.29202
 N581 N 0.91125 0.22541 0.74524
 N582 N 0.94070 0.22664 0.77076
 C583 C 0.93938 0.24733 0.81441
 C584 C 0.90808 0.25868 0.81496
 N585 N 0.89136 0.24443 0.77119
 H586 H 0.89819 0.27504 0.84481
 N587 N 0.32462 0.72201 0.25893
 N588 N 0.35390 0.72268 0.28496
 C589 C 0.35057 0.73747 0.33441
 C590 C 0.31818 0.74574 0.33790
 N591 N 0.30290 0.73571 0.29009
 H592 H 0.30669 0.75750 0.37199
 N593 N 0.21455 0.85970 0.25440
 N594 N 0.21820 0.89002 0.23092
 C595 C 0.22934 0.88604 0.17912
 C596 C 0.23238 0.85218 0.17157
 N597 N 0.22287 0.83669 0.21943
 H598 H 0.23957 0.83985 0.13445
 N599 N 0.83880 0.35053 0.64621
 N600 N 0.83462 0.38080 0.62565
 C601 C 0.80528 0.38947 0.64450
 C602 C 0.79177 0.36334 0.67820
 N603 N 0.81352 0.33975 0.67814
 H604 H 0.76753 0.36046 0.69726
 N605 N 0.83661 0.16330 0.18570
 N606 N 0.83318 0.13379 0.16043
 C607 C 0.80222 0.13041 0.13780
 C608 C 0.78679 0.15883 0.14971
 N609 N 0.80907 0.17862 0.17957
 H610 H 0.76186 0.16452 0.13813
 N611 N 0.18155 0.62025 0.74459
 N612 N 0.18153 0.59096 0.71914
 C613 C 0.19008 0.59783 0.66598
 C614 C 0.19519 0.63240 0.65959
 N615 N 0.18963 0.64535 0.70948
 H616 H 0.20268 0.64676 0.62272
 N617 N 0.76860 0.74858 0.10779
 N618 N 0.79587 0.74809 0.07811
 C619 C 0.82106 0.74372 0.11415
 C620 C 0.80838 0.74151 0.16710
 N621 N 0.77558 0.74472 0.16116
 H622 H 0.82170 0.73880 0.20599
 N623 N 0.35565 0.21961 0.59741
 N624 N 0.38230 0.21481 0.56831
 C625 C 0.40862 0.23157 0.59434
 C626 C 0.39723 0.24690 0.64060
 N627 N 0.36405 0.23868 0.64092
 H628 H 0.41163 0.26153 0.67174
 N629 N 0.23463 0.32214 0.08744
 N630 N 0.20615 0.33159 0.06736
 C631 C 0.18139 0.31505 0.09696
 C632 C 0.19580 0.29488 0.13577
 N633 N 0.22889 0.30002 0.12832
 H634 H 0.18362 0.27776 0.16594
 N635 N 0.63928 0.80498 0.63893
 N636 N 0.61118 0.81339 0.61572
 C637 C 0.58584 0.79784 0.64526
 C638 C 0.59949 0.77970 0.68765
 N639 N 0.63271 0.78475 0.68206
 H640 H 0.58675 0.76314 0.71801
   
