data_POSCAR
  _audit_creation_date              2014-09-24
  _audit_creation_method            'ToBaCCo'
  _symmetry_space_group_name_H-M    'P1'
  _symmetry_Int_Tables_number       1
  _symmetry_cell_setting            triclinic
  loop_
  _symmetry_equiv_pos_as_xyz
 x,y,z
_cell_length_a 32.5273
_cell_length_b 32.8366
_cell_length_c 7.5925
_cell_angle_alpha 89.786500
_cell_angle_beta 90.110000
_cell_angle_gamma 90.145700
loop_
  _atom_site_label
  _atom_site_type_symbol
  _atom_site_fract_x
  _atom_site_fract_y
  _atom_site_fract_z
C1 C 0.13252 0.25133 0.34306
 C2 C 0.15060 0.21536 0.40374
 C3 C 0.19153 0.21558 0.46103
 C4 C 0.21569 0.25130 0.44904
 C5 C 0.19697 0.28725 0.38521
 C6 C 0.15546 0.28731 0.33522
 C7 C 0.26053 0.25034 0.49434
 C8 C 0.28146 0.28574 0.55093
 C9 C 0.32388 0.28483 0.58392
 C10 C 0.34555 0.24837 0.56796
 C11 C 0.32532 0.21294 0.51445
 C12 C 0.28331 0.21405 0.47482
 H13 H 0.10083 0.25120 0.29797
 H14 H 0.20449 0.18755 0.51189
 H15 H 0.21459 0.31501 0.36919
 H16 H 0.26523 0.31418 0.56777
 H17 H 0.37841 0.24786 0.59310
 H18 H 0.26889 0.18669 0.42460
 C19 C 0.84493 0.24953 -0.07286
 C20 C 0.82339 0.28611 -0.08831
 C21 C 0.78101 0.28711 -0.05489
 C22 C 0.76004 0.25164 0.00149
 C23 C 0.78273 0.21524 0.02039
 C24 C 0.82465 0.21410 -0.01953
 C25 C 0.71527 0.25261 0.04734
 C26 C 0.69102 0.21697 0.03535
 C27 C 0.65020 0.21670 0.09332
 C28 C 0.63231 0.25256 0.15472
 C29 C 0.65533 0.28848 0.16261
 C30 C 0.69674 0.28846 0.11187
 H31 H 0.87774 0.24885 -0.09801
 H32 H 0.76485 0.31564 -0.07116
 H33 H 0.76841 0.18777 0.07040
 H34 H 0.70383 0.18903 -0.01598
 H35 H 0.60070 0.25237 0.20039
 H36 H 0.71445 0.31615 0.12789
 C37 C 0.65481 0.75062 0.43318
 C38 C 0.67512 0.71523 0.48590
 C39 C 0.71712 0.71647 0.52501
 C40 C 0.73985 0.75294 0.50585
 C41 C 0.71886 0.78837 0.45015
 C42 C 0.67641 0.78727 0.41750
 C43 C 0.78473 0.75397 0.55043
 C44 C 0.80355 0.78980 0.61498
 C45 C 0.84513 0.78981 0.66468
 C46 C 0.86795 0.75386 0.65550
 C47 C 0.84972 0.71811 0.59394
 C48 C 0.80881 0.71838 0.53721
 H49 H 0.62195 0.74984 0.40847
 H50 H 0.73148 0.68902 0.57446
 H51 H 0.73506 0.81695 0.43363
 H52 H 0.78589 0.81741 0.63174
 H53 H 0.89967 0.75341 0.70014
 H54 H 0.79585 0.69043 0.48607
 C55 C 0.36701 0.75240 0.84712
 C56 C 0.34416 0.78831 0.83849
 C57 C 0.30269 0.78819 0.88852
 C58 C 0.28395 0.75223 0.95301
 C59 C 0.30807 0.71661 0.96573
 C60 C 0.34891 0.71649 0.90857
 C61 C 0.23914 0.75113 0.99806
 C62 C 0.21635 0.71471 0.97914
 C63 C 0.17436 0.71344 1.01850
 C64 C 0.15416 0.74882 1.07116
 C65 C 0.17585 0.78541 1.08651
 C66 C 0.21825 0.78649 1.05375
 H67 H 0.39865 0.75218 0.80204
 H68 H 0.28511 0.81587 0.87194
 H69 H 0.29521 0.68855 1.01683
 H70 H 0.23073 0.68737 0.92955
 H71 H 0.12131 0.74818 1.09607
 H72 H 0.23451 0.81503 1.07005
 O73 O 1.02695 -0.04793 0.26037
 O74 O 0.94642 0.03018 0.20652
 O75 O 0.95136 -0.04796 0.14440
 O76 O 1.02105 0.03031 0.32503
 O77 O 1.04337 0.04348 0.05587
 O78 O 0.97391 -0.03456 -0.12413
 O79 O 0.96896 0.04335 -0.06244
 O80 O 1.04918 -0.03432 -0.00855
 Cu81 Cu 0.98418 -0.01036 0.26106
 Cu82 Cu 1.01120 0.00572 -0.06160
 C83 C 1.05150 -0.05445 0.13385
 C84 C 0.94455 0.05033 0.06379
 C85 C 0.95094 -0.05454 -0.02012
 C86 C 1.04347 0.05061 0.21988
 O87 O 0.54878 0.45215 0.64635
 O88 O 0.47923 0.52998 0.82734
 O89 O 0.47321 0.45180 0.76147
 O90 O 0.55378 0.53030 0.70932
 O91 O 0.53111 0.54355 0.44034
 O92 O 0.45087 0.46551 0.49254
 O93 O 0.45679 0.54325 0.55818
 O94 O 0.52611 0.46563 0.37781
 Cu95 Cu 0.51603 0.48954 0.76309
 Cu96 Cu 0.48888 0.50572 0.44040
 C97 C 0.54911 0.44568 0.48176
 C98 C 0.45679 0.55027 0.72229
 C99 C 0.44858 0.44528 0.63469
 C100 C 0.55557 0.55058 0.56690
 O101 O -0.04268 0.54378 -0.05729
 O102 O 0.02634 0.46544 0.12324
 O103 O 0.03159 0.54355 0.06237
 O104 O -0.04887 0.46591 0.00698
 O105 O -0.02653 0.45285 -0.26176
 O106 O 0.05425 0.53098 -0.20643
 O107 O 0.04901 0.45263 -0.14513
 O108 O -0.02023 0.53117 -0.32627
 Cu109 Cu -0.01075 0.50583 0.06063
 Cu110 Cu 0.01642 0.49045 -0.26182
 C111 C -0.04264 0.55123 -0.22128
 C112 C 0.04928 0.44569 0.01932
 C113 C 0.05606 0.55088 -0.06363
 C114 C -0.05122 0.44608 -0.13561
 O115 O 0.52056 1.03167 0.17362
 O116 O 0.45112 0.95310 0.35491
 O117 O 0.44598 1.03131 0.29154
 O118 O 0.52669 0.95343 0.23994
 O119 O 0.54896 0.96689 0.50888
 O120 O 0.46857 1.04430 0.56053
 O121 O 0.47372 0.96634 0.62347
 O122 O 0.54293 1.04468 0.44281
 Cu123 Cu 0.48381 0.99089 0.23804
 Cu124 Cu 0.51089 1.00677 0.56073
 C125 C 0.54297 1.05192 0.27865
 C126 C 0.45077 0.94638 0.51953
 C127 C 0.44411 1.05135 0.43390
 C128 C 0.55132 0.94689 0.36681
 C129 C 1.12947 0.17962 0.39059
 C130 C 1.11059 0.14843 0.36816
 C131 C 1.08801 0.11285 0.32878
 C132 C 1.06811 0.08361 0.28453
 C133 C 0.65229 0.67789 0.50510
 C134 C 0.63217 0.64722 0.52022
 C135 C 0.60722 0.61224 0.53704
 C136 C 0.58450 0.58338 0.55087
 C137 C -0.15387 0.32299 -0.12219
 C138 C -0.13261 0.35281 -0.14078
 C139 C -0.10565 0.38649 -0.15102
 C140 C -0.08131 0.41424 -0.14967
 C141 C 0.36348 0.82473 0.77168
 C142 C 0.38140 0.85413 0.71474
 C143 C 0.40414 0.88736 0.64720
 C144 C 0.42482 0.91479 0.58905
 C145 C -0.12808 0.68035 -0.39311
 C146 C -0.10931 0.64918 -0.37039
 C147 C -0.08689 0.61358 -0.33065
 C148 C -0.06712 0.58430 -0.28614
 C149 C 0.34702 1.17779 0.49597
 C150 C 0.36718 1.14727 0.48061
 C151 C 0.39224 1.11252 0.46366
 C152 C 0.41506 1.08388 0.44983
 C153 C 1.15327 -0.17776 0.11993
 C154 C 1.13221 -0.14792 0.13829
 C155 C 1.10551 -0.11419 0.14848
 C156 C 1.08139 -0.08638 0.14734
 C157 C 0.63621 0.32479 0.22943
 C158 C 0.61840 0.35407 0.28644
 C159 C 0.59573 0.38711 0.35407
 C160 C 0.57507 0.41434 0.41227
 C161 C 0.86349 -0.17584 -0.27202
 C162 C 0.88138 -0.14647 -0.21508
 C163 C 0.90415 -0.11333 -0.14755
 C164 C 0.92489 -0.08600 -0.08946
 C165 C 0.34650 0.32172 0.61820
 C166 C 0.36763 0.35161 0.63724
 C167 C 0.39443 0.38539 0.64816
 C168 C 0.41863 0.41326 0.64758
 C169 C 0.15268 0.67814 0.00037
 C170 C 0.13261 0.64746 -0.01497
 C171 C 0.10770 0.61247 -0.03224
 C172 C 0.08500 0.58363 -0.04666
 C173 C 0.62902 1.18097 0.10660
 C174 C 0.61010 1.14979 0.12927
 C175 C 0.58750 1.11422 0.16902
 C176 C 0.56759 1.08497 0.21362
 C177 C 0.13618 0.32378 0.26930
 C178 C 0.11833 0.35324 0.21307
 C179 C 0.09569 0.38655 0.14626
 C180 C 0.07511 0.41404 0.08856
 C181 C 0.65371 0.82407 0.38356
 C182 C 0.63251 0.85383 0.36462
 C183 C 0.60562 0.88743 0.35366
 C184 C 0.58135 0.91512 0.35412
 C185 C 0.84749 0.17688 -0.00007
 C186 C 0.86767 0.14636 0.01537
 C187 C 0.89273 0.11158 0.03267
 C188 C 0.91554 0.08291 0.04702
 C189 C 0.37113 0.67879 0.89515
 C190 C 0.38994 0.64770 0.87208
 C191 C 0.41241 0.61224 0.83200
 C192 C 0.43222 0.58312 0.78728
   
