data_POSCAR
  _audit_creation_date              2014-09-24
  _audit_creation_method            'ToBaCCo'
  _symmetry_space_group_name_H-M    'P1'
  _symmetry_Int_Tables_number       1
  _symmetry_cell_setting            triclinic
  loop_
  _symmetry_equiv_pos_as_xyz
 x,y,z
_cell_length_a 22.4764
_cell_length_b 22.4503
_cell_length_c 22.5022
_cell_angle_alpha 89.933600
_cell_angle_beta 90.002400
_cell_angle_gamma 89.866700
loop_
  _atom_site_label
  _atom_site_type_symbol
  _atom_site_fract_x
  _atom_site_fract_y
  _atom_site_fract_z
O1 O 0.29972 1.05821 0.44291
 O2 O 0.29908 0.94234 0.55864
 O3 O 0.29914 0.94220 0.44283
 O4 O 0.29959 1.05845 0.55883
 O5 O 0.20123 1.05912 0.55873
 O6 O 0.20077 0.94285 0.44276
 O7 O 0.20067 0.94299 0.55854
 O8 O 0.20131 1.05889 0.44284
 Cu9 Cu 0.30929 1.00025 0.50083
 Cu10 Cu 0.19109 1.00105 0.50073
 C11 C 0.25062 1.07802 0.42328
 C12 C 0.24977 0.92308 0.57807
 C13 C 0.24988 0.92290 0.42319
 C14 C 0.25048 1.07841 0.57841
 O15 O 0.69975 -0.05860 0.44338
 O16 O 0.70039 0.05713 0.55881
 O17 O 0.70013 0.05731 0.44314
 O18 O 0.70006 -0.05892 0.55926
 O19 O 0.79844 -0.05943 0.55902
 O20 O 0.79852 0.05682 0.44295
 O21 O 0.79881 0.05664 0.55857
 O22 O 0.79817 -0.05910 0.44319
 Cu23 Cu 0.69015 -0.00076 0.50120
 Cu24 Cu 0.80842 -0.00137 0.50094
 C25 C 0.74887 -0.07825 0.42371
 C26 C 0.74970 0.07649 0.57806
 C27 C 0.74934 0.07669 0.42344
 C28 C 0.74924 -0.07879 0.57878
 O29 O 0.29936 0.44040 0.94281
 O30 O 0.29945 0.55621 1.05842
 O31 O 0.29975 0.44016 1.05862
 O32 O 0.29937 0.55635 0.94279
 O33 O 0.20096 0.55644 0.94295
 O34 O 0.20136 0.44026 1.05883
 O35 O 0.20104 0.55628 1.05860
 O36 O 0.20095 0.44052 0.94299
 Cu37 Cu 0.30942 0.49823 1.00066
 Cu38 Cu 0.19114 0.49834 1.00088
 C39 C 0.25014 0.42101 0.92332
 C40 C 0.25025 0.57585 1.07794
 C41 C 0.25063 0.42062 1.07833
 C42 C 0.25011 0.57603 0.92334
 O43 O 0.44345 0.29891 1.05815
 O44 O 0.55913 0.29888 0.94277
 O45 O 0.44329 0.29844 0.94246
 O46 O 0.55940 0.29898 1.05862
 O47 O 0.55980 0.20050 1.05896
 O48 O 0.44374 0.19995 0.94279
 O49 O 0.55955 0.20035 0.94307
 O50 O 0.44387 0.20038 1.05852
 Cu51 Cu 0.50131 0.30874 1.00049
 Cu52 Cu 0.50182 0.19036 1.00090
 C53 C 0.42410 0.24966 1.07773
 C54 C 0.57875 0.24962 0.92337
 C55 C 0.42391 0.24910 0.92301
 C56 C 0.57919 0.24981 1.07845
 O57 O 0.44339 0.70037 -0.05864
 O58 O 0.55908 0.70112 0.05682
 O59 O 0.44323 0.70059 0.05703
 O60 O 0.55943 0.70092 -0.05907
 O61 O 0.55877 0.79940 -0.05935
 O62 O 0.44260 0.79909 0.05678
 O63 O 0.55842 0.79964 0.05657
 O64 O 0.44277 0.79890 -0.05892
 Cu65 Cu 0.50140 0.69082 -0.00097
 Cu66 Cu 0.50062 0.80919 -0.00130
 C67 C 0.42347 0.74952 -0.07814
 C68 C 0.57814 0.75049 0.07628
 C69 C 0.42328 0.74978 0.07650
 C70 C 0.57873 0.75021 -0.07885
 O71 O 1.05887 0.44289 0.29851
 O72 O 0.94305 0.55873 0.29873
 O73 O 0.94301 0.44271 0.29874
 O74 O 1.05901 0.55894 0.29878
 O75 O 1.05897 0.55915 0.20052
 O76 O 0.94291 0.44292 0.20047
 O77 O 0.94297 0.55892 0.20043
 O78 O 1.05881 0.44312 0.20021
 Cu79 Cu 1.00100 0.50082 0.30860
 Cu80 Cu 1.00091 0.50107 0.19049
 C81 C 1.07834 0.42346 0.24932
 C82 C 0.92342 0.57830 0.24960
 C83 C 0.92337 0.42318 0.24961
 C84 C 1.07863 0.57865 0.24966
 O85 O -0.05867 0.44320 0.70047
 O86 O 0.05685 0.55881 0.70124
 O87 O 0.05715 0.44283 0.70085
 O88 O -0.05914 0.55937 0.70088
 O89 O -0.05944 0.55894 0.79913
 O90 O 0.05689 0.44242 0.79911
 O91 O 0.05659 0.55837 0.79954
 O92 O -0.05896 0.44280 0.79877
 Cu93 Cu -0.00096 0.50114 0.69095
 Cu94 Cu -0.00130 0.50063 0.80905
 C95 C -0.07820 0.42341 0.74951
 C96 C 0.07630 0.57798 0.75051
 C97 C 0.07666 0.42295 0.74997
 C98 C -0.07895 0.57886 0.75001
 O99 O 0.44072 0.94288 0.29883
 O100 O 0.55642 1.05858 0.29919
 O101 O 0.44057 1.05891 0.29907
 O102 O 0.55646 0.94276 0.29910
 O103 O 0.55659 0.94299 0.20079
 O104 O 0.44073 1.05917 0.20079
 O105 O 0.55654 1.05883 0.20089
 O106 O 0.44088 0.94311 0.20053
 Cu107 Cu 0.49848 1.00078 0.30899
 Cu108 Cu 0.49865 1.00107 0.19081
 C109 C 0.42139 0.92339 0.24962
 C110 C 0.57607 1.07814 0.25009
 C111 C 0.42112 1.07869 0.24993
 C112 C 0.57610 0.92330 0.24995
 O113 O 1.05809 0.29905 0.55734
 O114 O 0.94224 0.29905 0.44175
 O115 O 0.94233 0.29912 0.55738
 O116 O 1.05805 0.29947 0.44164
 O117 O 1.05843 0.20094 0.44161
 O118 O 0.94265 0.20059 0.55735
 O119 O 0.94260 0.20052 0.44176
 O120 O 1.05844 0.20052 0.55727
 Cu121 Cu 1.00015 0.30914 0.49952
 Cu122 Cu 1.00058 0.19068 0.49949
 C123 C 1.07779 0.24977 0.57681
 C124 C 0.92285 0.24978 0.42230
 C125 C 0.92295 0.24981 0.57688
 C126 C 1.07777 0.25027 0.42210
 O127 O -0.05804 0.70079 0.55793
 O128 O 0.05768 0.70043 0.44232
 O129 O 0.05768 0.70062 0.55804
 O130 O -0.05807 0.70077 0.44233
 O131 O -0.05810 0.79931 0.44215
 O132 O 0.05766 0.79915 0.55782
 O133 O 0.05768 0.79896 0.44214
 O134 O -0.05809 0.79933 0.55772
 Cu135 Cu -0.00016 0.69068 0.50017
 Cu136 Cu -0.00019 0.80916 0.49993
 C137 C -0.07760 0.75011 0.57731
 C138 C 0.07717 0.74963 0.42271
 C139 C 0.07715 0.74987 0.57749
 C140 C -0.07763 0.75007 0.42275
 O141 O 0.70095 0.44228 1.05759
 O142 O 0.70095 0.55813 0.94212
 O143 O 0.70115 0.44231 0.94204
 O144 O 0.70108 0.55815 1.05765
 O145 O 0.79951 0.55793 1.05769
 O146 O 0.79958 0.44214 0.94206
 O147 O 0.79939 0.55794 0.94212
 O148 O 0.79938 0.44208 1.05766
 Cu149 Cu 0.69106 0.50023 0.99986
 Cu150 Cu 0.80945 0.49999 0.99990
 C151 C 0.75016 0.42264 1.07709
 C152 C 0.75016 0.57756 0.92265
 C153 C 0.75038 0.42271 0.92252
 C154 C 0.75029 0.57760 1.07715
 O155 O 0.44086 1.05879 0.70056
 O156 O 0.55681 0.94285 0.70076
 O157 O 0.44110 0.94282 0.70106
 O158 O 0.55676 1.05864 0.70072
 O159 O 0.55678 1.05874 0.79903
 O160 O 0.44118 0.94292 0.79937
 O161 O 0.55686 0.94291 0.79907
 O162 O 0.44092 1.05892 0.79885
 Cu163 Cu 0.49884 1.00080 0.69083
 Cu164 Cu 0.49890 1.00092 0.80903
 C165 C 0.42131 1.07842 0.74966
 C166 C 0.57639 0.92333 0.74994
 C167 C 0.42172 0.92325 0.75028
 C168 C 0.57639 1.07812 0.74983
 C169 C 0.25091 0.20592 0.29406
 C170 C 0.20656 0.25036 0.29382
 C171 C 0.20662 0.29461 0.24935
 C172 C 0.25093 0.29447 0.20505
 C173 C 0.29524 0.24996 0.20537
 C174 C 0.29523 0.20565 0.24980
 C175 C 0.74918 0.79442 0.29445
 C176 C 0.79381 0.75027 0.29434
 C177 C 0.79418 0.70621 0.24985
 C178 C 0.75000 0.70626 0.20547
 C179 C 0.70554 0.75059 0.20547
 C180 C 0.70507 0.79467 0.24997
 C181 C 0.75008 0.20558 0.70554
 C182 C 0.79439 0.24987 0.70534
 C183 C 0.79435 0.29429 0.74951
 C184 C 0.75029 0.29425 0.79401
 C185 C 0.70608 0.24990 0.79418
 C186 C 0.70581 0.20568 0.74985
 C187 C 0.24955 0.79417 0.70628
 C188 C 0.20531 0.74985 0.70632
 C189 C 0.20535 0.70549 0.75069
 C190 C 0.24979 0.70520 0.79486
 C191 C 0.29412 0.74948 0.79465
 C192 C 0.29393 0.79405 0.75048
 C193 C 0.20617 0.24934 0.70531
 C194 C 0.25061 0.20481 0.70513
 C195 C 0.29493 0.20469 0.74956
 C196 C 0.29487 0.24891 0.79409
 C197 C 0.25029 0.29328 0.79417
 C198 C 0.20592 0.29361 0.74980
 C199 C 0.79396 0.75029 0.70566
 C200 C 0.74948 0.79475 0.70555
 C201 C 0.70519 0.79473 0.75000
 C202 C 0.70526 0.75039 0.79447
 C203 C 0.74984 0.70603 0.79435
 C204 C 0.79424 0.70585 0.75002
 C205 C 0.20540 0.74948 0.29412
 C206 C 0.24963 0.79400 0.29413
 C207 C 0.29388 0.79403 0.24965
 C208 C 0.29416 0.74955 0.20537
 C209 C 0.24989 0.70506 0.20559
 C210 C 0.20539 0.70502 0.24984
 C211 C 0.79409 0.24987 0.29419
 C212 C 0.74958 0.20564 0.29439
 C213 C 0.70523 0.20583 0.25000
 C214 C 0.70536 0.25004 0.20541
 C215 C 0.74991 0.29421 0.20544
 C216 C 0.79430 0.29425 0.24977
 C217 C 0.25084 0.12285 0.37800
 C218 C 0.25093 0.16053 0.33987
 C219 C 0.74870 0.87710 0.37844
 C220 C 0.74878 0.83959 0.34029
 C221 C 0.74993 0.12176 0.62271
 C222 C 0.75006 0.15985 0.66027
 C223 C 0.24956 0.87788 0.62299
 C224 C 0.24949 0.83987 0.66078
 C225 C 0.37893 0.24972 0.12245
 C226 C 0.34091 0.24982 0.16008
 C227 C 0.37813 0.74929 0.87729
 C228 C 0.33994 0.74926 0.83981
 C229 C 0.62279 0.75073 0.12155
 C230 C 0.66032 0.75077 0.15968
 C231 C 0.62342 0.24965 0.87814
 C232 C 0.66094 0.24975 0.84002
 C233 C 0.12332 0.37833 0.24924
 C234 C 0.16115 0.34032 0.24924
 C235 C 0.87716 0.37813 0.74927
 C236 C 0.83962 0.34002 0.74926
 C237 C 0.12155 0.62264 0.75076
 C238 C 0.15964 0.66021 0.75083
 C239 C 0.87816 0.62315 0.24967
 C240 C 0.84003 0.66085 0.24973
 C241 C 0.12281 0.24970 0.62184
 C242 C 0.16066 0.24957 0.65973
 C243 C 0.87736 0.75023 0.62228
 C244 C 0.83948 0.75028 0.66012
 C245 C 0.12211 0.74951 0.37762
 C246 C 0.15991 0.74945 0.33970
 C247 C 0.87767 0.24975 0.37743
 C248 C 0.83969 0.24975 0.33968
 C249 C 0.25010 0.37622 0.87806
 C250 C 0.25012 0.33859 0.83995
 C251 C 0.75012 0.37759 0.12203
 C252 C 0.75003 0.33970 0.15988
 C253 C 0.75011 0.62260 0.87770
 C254 C 0.75001 0.66049 0.83986
 C255 C 0.25023 0.62114 0.12269
 C256 C 0.25013 0.65926 0.16030
 C257 C 0.37857 0.12110 0.74957
 C258 C 0.34059 0.15904 0.74952
 C259 C 0.37669 0.87805 0.24950
 C260 C 0.33912 0.83987 0.24949
 C261 C 0.62134 0.12291 0.25019
 C262 C 0.65944 0.16053 0.25017
 C263 C 0.62153 0.87825 0.74997
 C264 C 0.65951 0.84033 0.74997
 C265 C 0.74924 0.87845 0.62164
 C266 C 0.74931 0.84049 0.65972
 C267 C 0.25078 0.37793 0.12113
 C268 C 0.25088 0.34004 0.15920
 C269 C 0.25061 0.12117 0.62123
 C270 C 0.25066 0.15912 0.65929
 C271 C 0.24972 0.87768 0.37795
 C272 C 0.24964 0.83972 0.33993
 C273 C 0.74939 0.12193 0.37822
 C274 C 0.74946 0.15993 0.34020
 C275 C 0.62152 0.75031 0.87832
 C276 C 0.65950 0.75037 0.84029
 C277 C 0.12287 0.25042 0.37710
 C278 C 0.16083 0.25047 0.33929
 C279 C 0.62186 0.24997 0.12136
 C280 C 0.65973 0.25004 0.15949
 C281 C 0.37869 0.24890 0.87777
 C282 C 0.34069 0.24883 0.83980
 C283 C 0.37798 0.74966 0.12169
 C284 C 0.33995 0.74959 0.15964
 C285 C 0.87820 0.62182 0.75001
 C286 C 0.84012 0.65994 0.75002
 C287 C 0.37855 0.12160 0.24992
 C288 C 0.34075 0.15975 0.24989
 C289 C 0.12149 0.62138 0.24971
 C290 C 0.15957 0.65931 0.24977
 C291 C 0.87815 0.37793 0.24963
 C292 C 0.84014 0.33995 0.24968
 C293 C 0.12198 0.37758 0.74995
 C294 C 0.16005 0.33948 0.74990
 C295 C 0.87727 0.75014 0.37778
 C296 C 0.83937 0.75020 0.33994
 C297 C 0.87786 0.24974 0.62188
 C298 C 0.83996 0.24976 0.65974
 C299 C 0.12205 0.74983 0.62266
 C300 C 0.15981 0.74984 0.66065
 C301 C 0.75026 0.62272 0.12210
 C302 C 0.75019 0.66066 0.15991
 C303 C 0.24998 0.62131 0.87830
 C304 C 0.24990 0.65939 0.84045
 C305 C 0.75041 0.37770 0.87747
 C306 C 0.75039 0.33984 0.83958
 C307 C 0.62127 0.87818 0.24997
 C308 C 0.65929 0.84026 0.24998
 C309 C 0.62174 0.12284 0.74976
 C310 C 0.65993 0.16040 0.74978
 C311 C 0.37696 0.87793 0.75043
 C312 C 0.33932 0.83981 0.75051
   
