data_POSCAR
  _audit_creation_date              2014-09-24
  _audit_creation_method            'ToBaCCo'
  _symmetry_space_group_name_H-M    'P1'
  _symmetry_Int_Tables_number       1
  _symmetry_cell_setting            triclinic
  loop_
  _symmetry_equiv_pos_as_xyz
 x,y,z
_cell_length_a 25.7608
_cell_length_b 25.1525
_cell_length_c 25.2318
_cell_angle_alpha 90.589000
_cell_angle_beta 89.383600
_cell_angle_gamma 122.435600
loop_
  _atom_site_label
  _atom_site_type_symbol
  _atom_site_fract_x
  _atom_site_fract_y
  _atom_site_fract_z
C1 C 0.50979 0.05970 0.10242
 H2 H 0.54309 0.04753 0.11153
 C3 C 0.50154 0.09823 0.13697
 H4 H 0.52842 0.11519 0.17293
 C5 C 0.43666 0.05487 0.04308
 H6 H 0.41283 0.03911 0.00565
 C7 C 0.42705 0.09354 0.07649
 H8 H 0.39588 0.10717 0.06381
 N9 N 0.47799 0.03945 0.05628
 C10 C 0.56146 -0.06451 0.03715
 H11 H 0.59484 -0.03551 0.00728
 C12 C 0.57000 -0.10623 0.06628
 H13 H 0.61037 -0.10802 0.05841
 C14 C 0.47034 -0.09480 0.08529
 H15 H 0.43247 -0.08895 0.09362
 C16 C 0.47712 -0.13688 0.11533
 H17 H 0.44349 -0.16408 0.14588
 Zn18 Zn 0.49798 -0.00457 0.00762
 N19 N 0.51163 -0.06030 0.04646
 C20 C 0.59263 0.03704 -0.07096
 N21 N 0.57021 0.05525 -0.03037
 C22 C 0.59775 0.11704 -0.01670
 C23 C 0.64873 0.16333 -0.04484
 C24 C 0.64327 0.08203 -0.10071
 C25 C 0.37655 -0.09856 -0.01957
 C26 C 0.32720 -0.13687 -0.05294
 C27 C 0.38994 -0.07669 -0.12766
 C28 C 0.43802 -0.03942 -0.09263
 N29 N 0.43115 -0.05177 -0.03979
 H30 H 0.57017 -0.01236 -0.08115
 H31 H 0.58003 0.13093 0.01591
 H32 H 0.66982 0.21166 -0.03191
 H33 H 0.65959 0.06683 -0.13367
 H34 H 0.37118 -0.10671 0.02257
 H35 H 0.28471 -0.17443 -0.03538
 H36 H 0.39874 -0.06527 -0.16919
 H37 H 0.48095 -0.00078 -0.10803
 C38 C 0.52685 -0.14380 0.10557
 C39 C 0.46031 0.11628 0.12404
 C40 C 0.33330 -0.12737 -0.10815
 C41 C 0.67121 0.14628 -0.08858
 C42 C -0.08974 0.47296 0.58261
 H43 H -0.09379 0.42794 0.58483
 C44 C -0.13035 0.47934 0.55140
 H45 H -0.16550 0.43888 0.52943
 C46 C -0.03983 0.57968 0.60988
 H47 H -0.00500 0.61838 0.63339
 C48 C -0.07974 0.58817 0.57919
 H49 H -0.07375 0.63408 0.57899
 N50 N -0.04549 0.52273 0.61092
 C51 C 0.09222 0.47576 0.63907
 H52 H 0.09380 0.47700 0.68192
 C53 C 0.13250 0.46537 0.61002
 H54 H 0.16488 0.45829 0.63080
 C55 C 0.04953 0.48569 0.55993
 H56 H 0.01790 0.49466 0.54042
 C57 C 0.08888 0.47545 0.52937
 H58 H 0.08517 0.47472 0.48670
 Zn59 Zn 0.00331 0.50649 0.65506
 N60 N 0.05196 0.48588 0.61375
 C61 C -0.05252 0.38500 0.70408
 N62 N -0.05194 0.43918 0.69960
 C63 C -0.09365 0.44715 0.72581
 C64 C -0.13735 0.40033 0.75914
 C65 C -0.09550 0.33680 0.73732
 C66 C 0.10242 0.63077 0.67180
 C67 C 0.14588 0.68317 0.70120
 C68 C 0.09580 0.62591 0.78131
 C69 C 0.05353 0.57480 0.75038
 N70 N 0.05746 0.57805 0.69664
 H71 H -0.01993 0.37895 0.68188
 H72 H -0.09303 0.49011 0.72047
 H73 H -0.17078 0.40773 0.77819
 H74 H -0.09535 0.29400 0.74080
 H75 H 0.10503 0.63171 0.62896
 H76 H 0.18087 0.72360 0.67952
 H77 H 0.09181 0.62164 0.82408
 H78 H 0.01838 0.53209 0.76954
 C79 C 0.13207 0.46642 0.55446
 C80 C -0.12628 0.53719 0.54972
 C81 C 0.14339 0.68113 0.75713
 C82 C -0.13805 0.34451 0.76601
 C83 C 0.56137 0.46889 0.41385
 H84 H 0.51722 0.42481 0.41296
 C85 C 0.60850 0.47484 0.44512
 H86 H 0.60012 0.43511 0.46858
 C87 C 0.62629 0.57325 0.38261
 H88 H 0.63344 0.61080 0.35698
 C89 C 0.67492 0.58127 0.41333
 H90 H 0.71895 0.62521 0.41056
 N91 N 0.57089 0.51768 0.38350
 C92 C 0.38528 0.47186 0.35153
 H93 H 0.38539 0.46986 0.30868
 C94 C 0.33400 0.46384 0.37859
 H95 H 0.29438 0.45402 0.35593
 C96 C 0.43734 0.48682 0.43248
 H97 H 0.47822 0.49726 0.45329
 C98 C 0.38709 0.47919 0.46113
 H99 H 0.38959 0.48322 0.50394
 Zn100 Zn 0.50564 0.50125 0.33852
 N101 N 0.43565 0.48336 0.37863
 C102 C 0.43328 0.37653 0.29550
 N103 N 0.48894 0.43182 0.29559
 C104 C 0.53723 0.43857 0.26722
 C105 C 0.53054 0.38881 0.23671
 C106 C 0.42450 0.32532 0.26540
 C107 C 0.53911 0.62533 0.32110
 C108 C 0.54961 0.67706 0.29185
 C109 C 0.53587 0.61805 0.21143
 C110 C 0.52566 0.56744 0.24226
 N111 N 0.52736 0.57190 0.29605
 H112 H 0.39600 0.37152 0.31960
 H113 H 0.58129 0.48270 0.26885
 H114 H 0.56973 0.39510 0.21460
 H115 H 0.38028 0.28146 0.26709
 H116 H 0.53887 0.62712 0.36396
 H117 H 0.55782 0.71884 0.31251
 H118 H 0.53177 0.61207 0.16889
 H119 H 0.51424 0.52390 0.22309
 C120 C 0.33509 0.46893 0.43421
 C121 C 0.66623 0.53140 0.44512
 C122 C 0.54785 0.67386 0.23630
 C123 C 0.47371 0.33129 0.23533
 C124 C 0.17753 0.45881 0.52435
 C125 C 0.19686 0.48181 0.47533
 C126 C 0.24475 0.47902 0.44482
 C127 C 0.28394 0.46508 0.46529
 H128 H 0.17781 0.50556 0.45571
 H129 H 0.25003 0.49382 0.40400
 H130 H 0.19716 0.43599 0.54456
 H131 H 0.28209 0.45525 0.50711
 C132 C 0.53210 0.81039 0.13792
 C133 C 0.56557 0.78604 0.12373
 C134 C 0.56573 0.73616 0.15422
 C135 C 0.55348 0.72721 0.20637
 H136 H 0.58973 0.79847 0.08616
 H137 H 0.57775 0.70701 0.13240
 H138 H 0.50357 0.79297 0.17317
 H139 H 0.54749 0.76056 0.22870
 C140 C 0.28541 0.83200 0.86058
 C141 C 0.28435 0.83427 0.80486
 C142 C 0.23796 0.78771 0.77229
 C143 C 0.18680 0.73043 0.79009
 H144 H 0.32159 0.87358 0.78377
 H145 H 0.24484 0.79751 0.73040
 H146 H 0.24531 0.79451 0.88058
 H147 H 0.18015 0.72168 0.83213
 C148 C 0.82797 0.54094 0.51739
 C149 C 0.81825 0.58832 0.51944
 C150 C 0.76935 0.58778 0.48868
 C151 C 0.71629 0.53438 0.47620
 H152 H 0.84697 0.62970 0.54336
 H153 H 0.77643 0.63304 0.47921
 H154 H 0.79986 0.50139 0.49126
 H155 H 0.70783 0.49003 0.49076
 C156 C 0.45772 0.16271 0.15887
 C157 C 0.41411 0.17643 0.15658
 C158 C 0.41617 0.22692 0.18898
 C159 C 0.46922 0.27869 0.20417
 H160 H 0.37434 0.14912 0.13163
 H161 H 0.37282 0.22277 0.19686
 H162 H 0.49390 0.18670 0.18794
 H163 H 0.51222 0.28454 0.19128
 C164 C -0.27720 0.19374 0.87764
 C165 C -0.26035 0.25434 0.87575
 C166 C -0.21123 0.30340 0.84173
 C167 C -0.18383 0.29302 0.80090
 H168 H -0.28403 0.27055 0.89998
 H169 H -0.19868 0.35093 0.85086
 H170 H -0.25436 0.17722 0.85256
 H171 H -0.19460 0.24597 0.79234
   
