data_POSCAR
  _audit_creation_date              2014-09-24
  _audit_creation_method            'ToBaCCo'
  _symmetry_space_group_name_H-M    'P1'
  _symmetry_Int_Tables_number       1
  _symmetry_cell_setting            triclinic
  loop_
  _symmetry_equiv_pos_as_xyz
 x,y,z
_cell_length_a 26.9461
_cell_length_b 20.5558
_cell_length_c 20.3930
_cell_angle_alpha 89.988300
_cell_angle_beta 90.017100
_cell_angle_gamma 89.995000
loop_
  _atom_site_label
  _atom_site_type_symbol
  _atom_site_fract_x
  _atom_site_fract_y
  _atom_site_fract_z
C1 C 1.24997 0.24998 0.24974
 C2 C 0.74999 -0.25003 0.24986
 C3 C 0.74992 0.25004 -0.25016
 C4 C 1.24995 -0.24995 -0.25019
 C5 C 0.25006 0.24974 0.74998
 C6 C 0.75000 0.74980 0.74989
 C7 C 0.74999 0.24981 0.24985
 C8 C 0.24939 0.74898 0.25066
 O9 O 1.06930 0.11301 0.11860
 O10 O 1.12528 0.05418 0.05785
 C11 C 1.11411 0.09695 0.10219
 O12 O 0.93136 -0.11849 0.11432
 O13 O 0.87545 -0.05776 0.05529
 C14 C 0.88656 -0.10219 0.09798
 O15 O 1.06983 -0.11308 0.12004
 O16 O 1.12571 -0.05568 0.05777
 C17 C 1.11476 -0.09760 0.10320
 O18 O 0.93131 0.11823 0.11344
 O19 O 0.87538 0.05712 0.05493
 C20 C 0.88648 0.10187 0.09733
 Zr21 Zr 1.00030 0.08131 0.08237
 O22 O 0.99494 0.08084 0.18599
 O23 O 1.00562 0.18410 0.08261
 Zr24 Zr 1.00049 -0.08204 0.08314
 O25 O 0.99507 -0.08109 0.18673
 O26 O 1.00590 -0.18481 0.08394
 O27 O 1.04500 -0.00027 0.09588
 O28 O 0.95689 -0.00032 0.09479
 O29 O 0.93130 0.11813 -0.11317
 O30 O 0.87530 0.05652 -0.05533
 C31 C 0.88643 0.10170 -0.09730
 O32 O 1.06922 -0.11409 -0.11820
 O33 O 1.12520 -0.05542 -0.05728
 C34 C 1.11402 -0.09797 -0.10183
 O35 O 0.93122 -0.11998 -0.11213
 O36 O 0.87528 -0.05770 -0.05496
 C37 C 0.88639 -0.10316 -0.09655
 O38 O 1.06941 0.11142 -0.11943
 O39 O 1.12542 0.05410 -0.05717
 C40 C 1.11425 0.09585 -0.10259
 Zr41 Zr 1.00034 0.08074 -0.08248
 O42 O 0.99464 0.07958 -0.18606
 O43 O 1.00606 0.18347 -0.08379
 Zr44 Zr 1.00027 -0.08264 -0.08172
 O45 O 0.99469 -0.08222 -0.18532
 O46 O 1.00573 -0.18540 -0.08217
 Zr47 Zr 1.07511 -0.00067 0.00037
 Zr48 Zr 0.92555 -0.00056 0.00015
 O49 O 0.95686 -0.00095 -0.09440
 O50 O 1.04489 -0.00103 -0.09513
 O51 O 0.95584 0.09410 -0.00013
 O52 O 1.04373 -0.09448 0.00073
 O53 O 1.04368 0.09314 -0.00008
 O54 O 0.95586 -0.09528 0.00077
 H55 H 0.93464 -0.00013 0.13347
 H56 H 1.06588 -0.13297 0.00091
 H57 H 0.93452 -0.00105 -0.13302
 H58 H 1.06578 0.13167 -0.00031
 H59 H 0.97815 -0.20210 0.05742
 H60 H 0.97886 -0.20253 -0.05403
 H61 H 1.02312 -0.05712 -0.20264
 H62 H 1.02290 0.05402 -0.20321
 H63 H 0.97916 0.20094 -0.05590
 H64 H 0.97813 0.20120 0.05547
 H65 H 1.02348 0.05586 0.20322
 H66 H 1.02330 -0.05541 0.20380
 O67 O 1.06929 0.61402 0.61776
 O68 O 1.12527 0.55518 0.55704
 C69 C 1.11409 0.59784 0.60148
 O70 O 0.93132 0.38185 0.61300
 O71 O 0.87534 0.44330 0.55489
 C72 C 0.88646 0.39822 0.59699
 O73 O 1.06945 0.38845 0.61942
 O74 O 1.12548 0.44562 0.55710
 C75 C 1.11430 0.40392 0.60257
 O76 O 0.93135 0.61992 0.61176
 O77 O 0.87542 0.55686 0.55547
 C78 C 0.88652 0.60271 0.59662
 Zr79 Zr 1.00035 0.58253 0.58127
 O80 O 0.99480 0.58241 0.68486
 O81 O 1.00583 0.68529 0.58136
 Zr82 Zr 1.00038 0.41913 0.58234
 O83 O 0.99469 0.42044 0.68591
 O84 O 1.00606 0.31640 0.58379
 O85 O 1.04494 0.50091 0.59490
 O86 O 0.95695 0.50088 0.59403
 O87 O 0.93153 0.61818 0.38512
 O88 O 0.87556 0.55772 0.44428
 C89 C 0.88671 0.60204 0.40152
 O90 O 1.06929 0.38657 0.38123
 O91 O 1.12529 0.44541 0.44197
 C92 C 1.11410 0.40265 0.39762
 O93 O 0.93127 0.38147 0.38640
 O94 O 0.87535 0.44280 0.44467
 C95 C 0.88644 0.39795 0.40238
 O96 O 1.06999 0.61261 0.37962
 O97 O 1.12580 0.55522 0.44206
 C98 C 1.11489 0.59713 0.39660
 Zr99 Zr 1.00060 0.58161 0.41642
 O100 O 0.99520 0.58027 0.31282
 O101 O 1.00605 0.68437 0.41524
 Zr102 Zr 1.00033 0.41816 0.41764
 O103 O 0.99499 0.41773 0.31404
 O104 O 1.00564 0.31536 0.41830
 Zr105 Zr 1.07518 0.50034 0.49943
 Zr106 Zr 0.92559 0.50040 0.49946
 O107 O 0.95699 0.49988 0.40489
 O108 O 1.04504 0.49973 0.40393
 O109 O 0.95593 0.59509 0.49872
 O110 O 1.04376 0.40653 0.50007
 O111 O 1.04383 0.59417 0.49885
 O112 O 0.95583 0.40569 0.50004
 H113 H 0.93471 0.50095 0.63272
 H114 H 1.06588 0.36801 0.50035
 H115 H 0.93475 0.49967 0.36618
 H116 H 1.06596 0.63266 0.49864
 H117 H 0.97920 0.29892 0.55585
 H118 H 0.97755 0.29839 0.44440
 H119 H 1.02292 0.44379 0.29671
 H120 H 1.02365 0.55496 0.29584
 H121 H 0.97851 0.70176 0.44205
 H122 H 0.97875 0.70238 0.55351
 H123 H 1.02314 0.55716 0.70225
 H124 H 1.02294 0.44604 0.70304
 O125 O 0.56850 0.11373 0.61746
 O126 O 0.62448 0.05460 0.55708
 C127 C 0.61336 0.09758 0.60132
 O128 O 0.43066 -0.11902 0.61263
 O129 O 0.37459 -0.05770 0.55450
 C130 C 0.38583 -0.10262 0.59661
 O131 O 0.56866 -0.11339 0.61876
 O132 O 0.62453 -0.05586 0.55665
 C133 C 0.61347 -0.09787 0.60180
 O134 O 0.43065 0.11836 0.61227
 O135 O 0.37467 0.05606 0.55517
 C136 C 0.38584 0.10139 0.59692
 Zr137 Zr 0.49958 0.08176 0.58085
 O138 O 0.49435 0.08244 0.68446
 O139 O 0.50479 0.18457 0.57964
 Zr140 Zr 0.49963 -0.08173 0.58224
 O141 O 0.49406 -0.07940 0.68582
 O142 O 0.50506 -0.18445 0.58469
 O143 O 0.54418 0.00013 0.59483
 O144 O 0.45618 0.00001 0.59370
 O145 O 0.43073 0.11799 0.38607
 O146 O 0.37464 0.05649 0.44390
 C147 C 0.38589 0.10164 0.40206
 O148 O 0.56866 -0.11371 0.38068
 O149 O 0.62461 -0.05574 0.44245
 C150 C 0.61349 -0.09785 0.39742
 O151 O 0.43021 -0.11970 0.38580
 O152 O 0.37436 -0.05745 0.44311
 C153 C 0.38530 -0.10284 0.40124
 O154 O 0.56885 0.11135 0.37963
 O155 O 0.62479 0.05413 0.44205
 C156 C 0.61369 0.09592 0.39666
 Zr157 Zr 0.49964 0.08014 0.41604
 O158 O 0.49392 0.07709 0.31247
 O159 O 0.50518 0.18279 0.41248
 Zr160 Zr 0.49945 -0.08315 0.41756
 O161 O 0.49417 -0.08483 0.31398
 O162 O 0.50496 -0.18593 0.41940
 Zr163 Zr 0.57436 -0.00056 0.49943
 Zr164 Zr 0.42470 -0.00073 0.49915
 O165 O 0.45607 -0.00146 0.40459
 O166 O 0.54418 -0.00158 0.40385
 O167 O 0.45507 0.09395 0.49835
 O168 O 0.54294 -0.09443 0.49995
 O169 O 0.54292 0.09319 0.49842
 O170 O 0.45496 -0.09545 0.49997
 H171 H 0.43401 0.00001 0.63247
 H172 H 0.56499 -0.13301 0.50009
 H173 H 0.43383 -0.00145 0.36588
 H174 H 0.56498 0.13177 0.49817
 H175 H 0.47917 -0.20197 0.55521
 H176 H 0.47592 -0.20287 0.44366
 H177 H 0.52093 -0.05683 0.29652
 H178 H 0.52358 0.05430 0.29545
 H179 H 0.48024 0.20057 0.44319
 H180 H 0.47627 0.20146 0.55427
 H181 H 0.52205 0.05595 0.70179
 H182 H 0.52319 -0.05544 0.70280
 O183 O 0.56863 0.61338 0.11928
 O184 O 0.62460 0.55563 0.05740
 C185 C 0.61346 0.59763 0.10249
 O186 O 0.43061 0.38178 0.11323
 O187 O 0.37457 0.44351 0.05550
 C188 C 0.38579 0.39826 0.09728
 O189 O 0.56864 0.38802 0.11999
 O190 O 0.62454 0.44482 0.05725
 C191 C 0.61346 0.40323 0.10282
 O192 O 0.43023 0.61928 0.11410
 O193 O 0.37440 0.55723 0.05650
 C194 C 0.38532 0.60247 0.09854
 Zr195 Zr 0.49944 0.58264 0.08248
 O196 O 0.49406 0.58326 0.18608
 O197 O 0.50490 0.68542 0.08165
 Zr198 Zr 0.49960 0.41934 0.08321
 O199 O 0.49384 0.42135 0.18678
 O200 O 0.50519 0.31662 0.08549
 O201 O 0.54418 0.50104 0.09590
 O202 O 0.45606 0.50094 0.09494
 O203 O 0.43064 0.61927 -0.11268
 O204 O 0.37457 0.55760 -0.05500
 C205 C 0.38581 0.60273 -0.09687
 O206 O 0.56863 0.38659 -0.11800
 O207 O 0.62457 0.44560 -0.05734
 C208 C 0.61348 0.40270 -0.10170
 O209 O 0.43069 0.38167 -0.11284
 O210 O 0.37465 0.44282 -0.05456
 C211 C 0.38586 0.39803 -0.09689
 O212 O 0.56868 0.61348 -0.11866
 O213 O 0.62461 0.55504 -0.05740
 C214 C 0.61351 0.59752 -0.10210
 Zr215 Zr 0.49958 0.58177 -0.08243
 O216 O 0.49400 0.57942 -0.18601
 O217 O 0.50498 0.68448 -0.08502
 Zr218 Zr 0.49962 0.41841 -0.08154
 O219 O 0.49438 0.41846 -0.18516
 O220 O 0.50489 0.31561 -0.08114
 Zr221 Zr 0.57435 0.50054 0.00036
 Zr222 Zr 0.42472 0.50064 0.00032
 O223 O 0.45610 0.50010 -0.09422
 O224 O 0.54419 0.50005 -0.09511
 O225 O 0.45499 0.59531 -0.00005
 O226 O 0.54294 0.40675 0.00089
 O227 O 0.54285 0.59434 0.00003
 O228 O 0.45510 0.40594 0.00084
 H229 H 0.43383 0.50084 0.13365
 H230 H 0.56495 0.36812 0.00101
 H231 H 0.43380 0.50007 -0.13287
 H232 H 0.56493 0.63289 -0.00007
 H233 H 0.47919 0.29906 0.05620
 H234 H 0.47686 0.29859 -0.05495
 H235 H 0.52241 0.44442 -0.20233
 H236 H 0.52334 0.55592 -0.20301
 H237 H 0.47948 0.70197 -0.05494
 H238 H 0.47634 0.70248 0.05648
 H239 H 0.52156 0.55644 0.20343
 H240 H 0.52290 0.44532 0.20395
 C241 C 1.20080 0.16602 0.10882
 C242 C 1.18702 0.22862 0.14668
 C243 C 1.21673 0.20475 0.20680
 C244 C 1.23120 0.14217 0.16899
 C245 C 1.17021 0.17007 0.23392
 C246 C 1.14055 0.19478 0.17446
 C247 C 1.15452 0.13254 0.13698
 C248 C 1.18421 0.10771 0.19605
 H249 H 1.21332 0.16375 0.05703
 H250 H 1.18749 0.27760 0.12397
 H251 H 1.26844 0.11937 0.16635
 H252 H 1.15531 0.16867 0.28444
 H253 H 1.10326 0.21762 0.17734
 H254 H 1.18302 0.05751 0.21607
 C255 C 1.20091 0.66645 0.60871
 C256 C 1.18716 0.72898 0.64668
 C257 C 1.21671 0.70485 0.70685
 C258 C 1.23113 0.64232 0.66892
 C259 C 1.17007 0.67028 0.73373
 C260 C 1.14057 0.69525 0.67422
 C261 C 1.15449 0.63308 0.63660
 C262 C 1.18401 0.60797 0.69573
 H263 H 1.21349 0.66430 0.55694
 H264 H 1.18769 0.77800 0.62406
 H265 H 1.26832 0.61938 0.66645
 H266 H 1.15511 0.66877 0.78420
 H267 H 1.10333 0.71822 0.67703
 H268 H 1.18263 0.55776 0.71564
 C269 C 0.70041 0.16650 0.60849
 C270 C 0.68683 0.22911 0.64650
 C271 C 0.71647 0.20496 0.70664
 C272 C 0.73071 0.14240 0.66867
 C273 C 0.66978 0.17049 0.73356
 C274 C 0.64018 0.19542 0.67408
 C275 C 0.65393 0.13316 0.63643
 C276 C 0.68357 0.10815 0.69555
 H277 H 0.71301 0.16436 0.55672
 H278 H 0.68746 0.27815 0.62393
 H279 H 0.76789 0.11942 0.66611
 H280 H 0.65491 0.16899 0.78409
 H281 H 0.60296 0.21843 0.67696
 H282 H 0.68226 0.05816 0.71582
 C283 C 0.68330 0.69070 0.10948
 C284 C 0.66968 0.73080 0.17081
 C285 C 0.71659 0.70559 0.20623
 C286 C 0.73068 0.66563 0.14461
 C287 C 0.68726 0.64686 0.23317
 C288 C 0.64038 0.67274 0.19859
 C289 C 0.65398 0.63300 0.13739
 C290 C 0.70070 0.60684 0.17152
 H291 H 0.68161 0.70843 0.05811
 H292 H 0.65470 0.78077 0.16720
 H293 H 0.76775 0.66242 0.12125
 H294 H 0.68816 0.62634 0.28341
 H295 H 0.60327 0.67629 0.22198
 H296 H 0.71379 0.55584 0.17135
 C297 C 0.85955 -0.17491 0.19558
 C298 C 0.81276 -0.14772 0.22924
 C299 C 0.78333 -0.20730 0.20446
 C300 C 0.83017 -0.23384 0.16992
 C301 C 0.76924 -0.16948 0.14142
 C302 C 0.79933 -0.10985 0.16622
 C303 C 0.84597 -0.13734 0.13295
 C304 C 0.81658 -0.19589 0.10714
 H305 H 0.89668 -0.17779 0.21906
 H306 H 0.81192 -0.12544 0.27870
 H307 H 0.84514 -0.28390 0.16812
 H308 H 0.73213 -0.16701 0.11803
 H309 H 0.78657 -0.05863 0.16417
 H310 H 0.81828 -0.21555 0.05651
 C311 C 0.79942 0.32837 0.60525
 C312 C 0.81300 0.26710 0.64556
 C313 C 0.78335 0.29336 0.70479
 C314 C 0.76909 0.35451 0.66452
 C315 C 0.83003 0.32877 0.73045
 C316 C 0.85965 0.30176 0.67196
 C317 C 0.84589 0.36262 0.63205
 C318 C 0.81619 0.38966 0.69020
 H319 H 0.78679 0.32872 0.55346
 H320 H 0.81235 0.21727 0.62484
 H321 H 0.73191 0.37741 0.66112
 H322 H 0.84488 0.33213 0.78091
 H323 H 0.89688 0.27887 0.67565
 H324 H 0.81747 0.44042 0.70851
 C325 C 0.29907 -0.17232 0.60509
 C326 C 0.31280 -0.23333 0.64566
 C327 C 0.28320 -0.20681 0.70475
 C328 C 0.26878 -0.14589 0.66422
 C329 C 0.32980 -0.17117 0.73026
 C330 C 0.35938 -0.19848 0.67190
 C331 C 0.34546 -0.13791 0.63173
 C332 C 0.31583 -0.11052 0.68971
 H333 H 0.28649 -0.17221 0.55326
 H334 H 0.31227 -0.28323 0.62513
 H335 H 0.23159 -0.12305 0.66076
 H336 H 0.34471 -0.16756 0.78067
 H337 H 0.39664 -0.22129 0.67565
 H338 H 0.31712 -0.05951 0.70749
 C339 C 0.29906 0.32825 0.10522
 C340 C 0.31282 0.26706 0.14550
 C341 C 0.28318 0.29324 0.20471
 C342 C 0.26871 0.35433 0.16447
 C343 C 0.32975 0.32884 0.23041
 C344 C 0.35937 0.30187 0.17193
 C345 C 0.34540 0.36264 0.13208
 C346 C 0.31571 0.38967 0.19017
 H347 H 0.28646 0.32864 0.05342
 H348 H 0.31229 0.21724 0.12476
 H349 H 0.23150 0.37709 0.16102
 H350 H 0.34465 0.33222 0.28083
 H351 H 0.39665 0.27911 0.17560
 H352 H 0.31693 0.44059 0.20821
 C353 C 0.79944 0.17166 -0.10558
 C354 C 0.81304 0.23290 -0.14590
 C355 C 0.78334 0.20668 -0.20511
 C356 C 0.76906 0.14555 -0.16483
 C357 C 0.82998 0.17120 -0.23078
 C358 C 0.85966 0.19817 -0.17230
 C359 C 0.84587 0.13734 -0.13238
 C360 C 0.81612 0.11033 -0.19051
 H361 H 0.78684 0.17133 -0.05378
 H362 H 0.81243 0.28273 -0.12518
 H363 H 0.73187 0.12271 -0.16142
 H364 H 0.84480 0.16781 -0.28125
 H365 H 0.89690 0.22101 -0.17600
 H366 H 0.81736 0.05955 -0.20881
 C367 C 0.81676 0.69580 0.39248
 C368 C 0.83028 0.73379 0.32971
 C369 C 0.78340 0.70726 0.29520
 C370 C 0.76940 0.66940 0.35824
 C371 C 0.81283 0.64770 0.27036
 C372 C 0.85965 0.67489 0.30398
 C373 C 0.84614 0.63728 0.36659
 C374 C 0.79947 0.60980 0.33336
 H375 H 0.81850 0.71541 0.44313
 H376 H 0.84521 0.78387 0.33150
 H377 H 0.73231 0.66691 0.38167
 H378 H 0.81196 0.62543 0.22089
 H379 H 0.89676 0.67779 0.28049
 H380 H 0.78675 0.55857 0.33539
 C381 C 0.29922 0.17174 0.39419
 C382 C 0.31295 0.23293 0.35390
 C383 C 0.28326 0.20676 0.29472
 C384 C 0.26882 0.14568 0.33497
 C385 C 0.32980 0.17116 0.26898
 C386 C 0.35948 0.19811 0.32743
 C387 C 0.34554 0.13734 0.36728
 C388 C 0.31579 0.11033 0.30922
 H389 H 0.28669 0.17136 0.44601
 H390 H 0.31243 0.28276 0.37464
 H391 H 0.23163 0.12289 0.33847
 H392 H 0.34465 0.16778 0.21854
 H393 H 0.39676 0.22083 0.32374
 H394 H 0.31698 0.05940 0.29119
 C395 C 0.31584 0.61064 -0.19002
 C396 C 0.26879 0.64601 -0.16458
 C397 C 0.28320 0.70692 -0.20510
 C398 C 0.32982 0.67129 -0.23056
 C399 C 0.31279 0.73345 -0.14598
 C400 C 0.29906 0.67245 -0.10542
 C401 C 0.34546 0.63804 -0.13201
 C402 C 0.35938 0.69861 -0.17217
 H403 H 0.31714 0.55962 -0.20778
 H404 H 0.23161 0.62315 -0.16115
 H405 H 0.34472 0.66767 -0.28095
 H406 H 0.31225 0.78335 -0.12546
 H407 H 0.28649 0.67235 -0.05360
 H408 H 0.39664 0.72141 -0.17589
 C409 C 1.20087 -0.16647 -0.10909
 C410 C 1.18716 -0.22899 -0.14710
 C411 C 1.21668 -0.20479 -0.20724
 C412 C 1.23106 -0.14227 -0.16928
 C413 C 1.17002 -0.17025 -0.23413
 C414 C 1.14055 -0.19529 -0.17465
 C415 C 1.15443 -0.13313 -0.13699
 C416 C 1.18391 -0.10796 -0.19609
 H417 H 1.21345 -0.16435 -0.05730
 H418 H 1.18771 -0.27800 -0.12449
 H419 H 1.26824 -0.11930 -0.16678
 H420 H 1.15506 -0.16875 -0.28462
 H421 H 1.10332 -0.21829 -0.17748
 H422 H 1.18249 -0.05773 -0.21598
 C423 C 1.20089 0.33379 0.39076
 C424 C 1.18714 0.27118 0.35290
 C425 C 1.21673 0.29515 0.29273
 C426 C 1.23116 0.35774 0.33056
 C427 C 1.17012 0.32974 0.26571
 C428 C 1.14058 0.30493 0.32522
 C429 C 1.15451 0.36718 0.36271
 C430 C 1.18408 0.39210 0.30359
 H431 H 1.21347 0.33604 0.44254
 H432 H 1.18769 0.22220 0.37560
 H433 H 1.26837 0.38061 0.33312
 H434 H 1.15517 0.33112 0.21521
 H435 H 1.10332 0.28201 0.32239
 H436 H 1.18278 0.44230 0.28360
 C437 C 0.64039 -0.17290 0.30128
 C438 C 0.68721 -0.14697 0.26666
 C439 C 0.71661 -0.20569 0.29355
 C440 C 0.66975 -0.23095 0.32901
 C441 C 0.73073 -0.16573 0.35517
 C442 C 0.70069 -0.10696 0.32831
 C443 C 0.65402 -0.13316 0.36249
 C444 C 0.68341 -0.19085 0.39035
 H445 H 0.60325 -0.17648 0.27792
 H446 H 0.68806 -0.12645 0.21642
 H447 H 0.65479 -0.28092 0.33263
 H448 H 0.76783 -0.16249 0.37849
 H449 H 0.71377 -0.05597 0.32850
 H450 H 0.68178 -0.20861 0.44171
 C451 C 0.70054 0.33370 -0.10881
 C452 C 0.68690 0.27109 -0.14679
 C453 C 0.71653 0.29518 -0.20695
 C454 C 0.73082 0.35775 -0.16900
 C455 C 0.66984 0.32969 -0.23387
 C456 C 0.64026 0.30482 -0.17438
 C457 C 0.65407 0.36710 -0.13676
 C458 C 0.68368 0.39203 -0.19590
 H459 H 0.71316 0.33585 -0.05704
 H460 H 0.68752 0.22206 -0.12421
 H461 H 0.76802 0.38068 -0.16646
 H462 H 0.65494 0.33120 -0.28439
 H463 H 0.60303 0.28184 -0.17725
 H464 H 0.68240 0.44200 -0.21622
 C465 C 1.18403 0.18896 -0.10977
 C466 C 1.23120 0.16423 -0.14554
 C467 C 1.21673 0.20481 -0.20669
 C468 C 1.17001 0.22958 -0.17066
 C469 C 1.18729 0.14620 -0.23385
 C470 C 1.20112 0.10555 -0.17265
 C471 C 1.15461 0.13139 -0.13780
 C472 C 1.14061 0.17168 -0.19859
 H473 H 1.18266 0.20629 -0.05825
 H474 H 1.26837 0.16094 -0.12243
 H475 H 1.15504 0.27955 -0.16683
 H476 H 1.18778 0.12625 -0.28432
 H477 H 1.21390 0.05423 -0.17297
 H478 H 1.10337 0.17536 -0.22163
 C479 C 1.14174 0.67355 0.30070
 C480 C 1.17245 0.73069 0.32744
 C481 C 1.21683 0.70565 0.29273
 C482 C 1.18890 0.64967 0.26558
 C483 C 1.23224 0.66721 0.35097
 C484 C 1.18569 0.69067 0.38886
 C485 C 1.15574 0.63283 0.36148
 C486 C 1.20238 0.60758 0.32573
 H487 H 1.10483 0.67837 0.27694
 H488 H 1.15852 0.78108 0.33126
 H489 H 1.19002 0.63058 0.21487
 H490 H 1.26991 0.66514 0.37264
 H491 H 1.18568 0.70939 0.43991
 H492 H 1.21640 0.55684 0.32389
 C493 C 0.68342 0.18943 0.39004
 C494 C 0.73082 0.16479 0.35469
 C495 C 0.71660 0.20510 0.29332
 C496 C 0.66966 0.22988 0.32893
 C497 C 0.68735 0.14641 0.26608
 C498 C 0.70095 0.10604 0.32747
 C499 C 0.65420 0.13172 0.36186
 C500 C 0.64045 0.17185 0.30089
 H501 H 0.68177 0.20688 0.44149
 H502 H 0.76793 0.16160 0.37800
 H503 H 0.65460 0.27980 0.33274
 H504 H 0.68818 0.12625 0.21570
 H505 H 0.71425 0.05514 0.32721
 H506 H 0.60331 0.17541 0.27754
 C507 C 0.64037 0.69524 -0.17460
 C508 C 0.68707 0.72870 -0.14693
 C509 C 0.71661 0.70461 -0.20714
 C510 C 0.66987 0.67034 -0.23413
 C511 C 0.73081 0.64192 -0.16933
 C512 C 0.70060 0.66597 -0.10909
 C513 C 0.65407 0.63287 -0.13712
 C514 C 0.68360 0.60789 -0.19627
 H515 H 0.60318 0.71836 -0.17740
 H516 H 0.68776 0.77766 -0.12422
 H517 H 0.65496 0.66892 -0.28465
 H518 H 0.76796 0.61884 -0.16688
 H519 H 0.71318 0.66365 -0.05731
 H520 H 0.68216 0.55796 -0.21665
 C521 C 0.85959 -0.19909 -0.17190
 C522 C 0.81287 -0.23373 -0.14575
 C523 C 0.78334 -0.20709 -0.20492
 C524 C 0.83008 -0.17167 -0.23033
 C525 C 0.76909 -0.14612 -0.16441
 C526 C 0.79932 -0.17266 -0.10520
 C527 C 0.84585 -0.13844 -0.13175
 C528 C 0.81627 -0.11097 -0.18981
 H529 H 0.89678 -0.22206 -0.17561
 H530 H 0.81217 -0.28365 -0.12523
 H531 H 0.84497 -0.16802 -0.28073
 H532 H 0.73195 -0.12315 -0.16105
 H533 H 0.78666 -0.17251 -0.05343
 H534 H 0.81767 -0.06010 -0.20781
 C535 C 0.79915 0.38988 0.33401
 C536 C 0.81269 0.35225 0.27089
 C537 C 0.78339 0.29246 0.29544
 C538 C 0.76922 0.33002 0.35860
 C539 C 0.83030 0.26602 0.32996
 C540 C 0.85955 0.32520 0.30456
 C541 C 0.84587 0.36255 0.36731
 C542 C 0.81663 0.30372 0.39287
 H543 H 0.78621 0.44101 0.33617
 H544 H 0.81189 0.37464 0.22147
 H545 H 0.73210 0.33223 0.38196
 H546 H 0.84534 0.21597 0.33143
 H547 H 0.89668 0.32257 0.28111
 H548 H 0.81832 0.28390 0.44344
 C549 C 0.29732 -0.11172 0.33308
 C550 C 0.31077 -0.14917 0.26978
 C551 C 0.28175 -0.20968 0.29419
 C552 C 0.26778 -0.17202 0.35769
 C553 C 0.32924 -0.23525 0.32866
 C554 C 0.35797 -0.17560 0.30323
 C555 C 0.34440 -0.13845 0.36608
 C556 C 0.31557 -0.19766 0.39165
 H557 H 0.28413 -0.06061 0.33523
 H558 H 0.31031 -0.12588 0.22080
 H559 H 0.23114 -0.16948 0.38225
 H560 H 0.34545 -0.28463 0.33075
 H561 H 0.39504 -0.17776 0.27953
 H562 H 0.31748 -0.21760 0.44216
 C563 C 0.29893 0.38986 -0.16583
 C564 C 0.31276 0.35213 -0.22880
 C565 C 0.28339 0.29232 -0.20436
 C566 C 0.26894 0.32998 -0.14136
 C567 C 0.33016 0.26596 -0.16954
 C568 C 0.35946 0.32515 -0.19479
 C569 C 0.34549 0.36257 -0.13216
 C570 C 0.31621 0.30372 -0.10675
 H571 H 0.28614 0.44115 -0.16381
 H572 H 0.31225 0.37445 -0.27825
 H573 H 0.23177 0.33219 -0.11816
 H574 H 0.34519 0.21590 -0.16813
 H575 H 0.39669 0.32254 -0.21799
 H576 H 0.31772 0.28396 -0.05615
 C577 C 1.14153 -0.17254 0.19993
 C578 C 1.17005 -0.23155 0.17265
 C579 C 1.21747 -0.20768 0.20844
 C580 C 1.18873 -0.14764 0.23459
 C581 C 1.23200 -0.16798 0.14636
 C582 C 1.18426 -0.19196 0.11117
 C583 C 1.15555 -0.13338 0.13848
 C584 C 1.20265 -0.10821 0.17265
 H585 H 1.10441 -0.17518 0.22341
 H586 H 1.15342 -0.28051 0.16816
 H587 H 1.18927 -0.12588 0.28429
 H588 H 1.26879 -0.16516 0.12222
 H589 H 1.18257 -0.21006 0.05994
 H590 H 1.21615 -0.05721 0.17230
 C591 C 1.14065 0.32800 0.69853
 C592 C 1.17000 0.27006 0.67058
 C593 C 1.21675 0.29474 0.70663
 C594 C 1.18737 0.35339 0.73382
 C595 C 1.23124 0.33534 0.64551
 C596 C 1.18403 0.31069 0.60971
 C597 C 1.15466 0.36830 0.63777
 C598 C 1.20120 0.39404 0.67264
 H599 H 1.10342 0.32435 0.72157
 H600 H 1.15501 0.22011 0.66674
 H601 H 1.18788 0.37333 0.78429
 H602 H 1.26841 0.33857 0.62242
 H603 H 1.18263 0.29340 0.55818
 H604 H 1.21402 0.44535 0.67300
 C605 C 0.64038 -0.19566 0.67421
 C606 C 0.68709 -0.22910 0.64660
 C607 C 0.71662 -0.20502 0.70685
 C608 C 0.66985 -0.17077 0.73379
 C609 C 0.73081 -0.14232 0.66907
 C610 C 0.70061 -0.16636 0.60878
 C611 C 0.65407 -0.13328 0.63677
 C612 C 0.68357 -0.10831 0.69597
 H613 H 0.60319 -0.21878 0.67694
 H614 H 0.68782 -0.27806 0.62388
 H615 H 0.65491 -0.16936 0.78428
 H616 H 0.76795 -0.11924 0.66669
 H617 H 0.71322 -0.16402 0.55702
 H618 H 0.68212 -0.05837 0.71633
 C619 C 0.68337 0.30992 0.10956
 C620 C 0.73068 0.33477 0.14500
 C621 C 0.71652 0.29441 0.20635
 C622 C 0.66966 0.26942 0.17064
 C623 C 0.68710 0.35297 0.23353
 C624 C 0.70063 0.39339 0.17216
 C625 C 0.65397 0.36750 0.13767
 C626 C 0.64028 0.32733 0.19862
 H627 H 0.68179 0.29246 0.05810
 H628 H 0.76779 0.33812 0.12176
 H629 H 0.65473 0.21944 0.16682
 H630 H 0.68786 0.37313 0.28391
 H631 H 0.71376 0.44438 0.17241
 H632 H 0.60314 0.32361 0.22189
 C633 C 0.79927 0.10988 0.16568
 C634 C 0.81281 0.14751 0.22880
 C635 C 0.78343 0.20726 0.20425
 C636 C 0.76926 0.16969 0.14110
 C637 C 0.83030 0.23377 0.16974
 C638 C 0.85961 0.17464 0.19513
 C639 C 0.84593 0.13727 0.13238
 C640 C 0.81662 0.19606 0.10682
 H641 H 0.78637 0.05872 0.16352
 H642 H 0.81205 0.12512 0.27822
 H643 H 0.73215 0.16740 0.11771
 H644 H 0.84528 0.28385 0.16827
 H645 H 0.89676 0.17733 0.21856
 H646 H 0.81827 0.21589 0.05625
 C647 C 0.81633 0.61054 0.68980
 C648 C 0.83010 0.67125 0.73034
 C649 C 0.78339 0.70668 0.70479
 C650 C 0.76919 0.64570 0.66426
 C651 C 0.81300 0.73329 0.64570
 C652 C 0.85969 0.69863 0.67200
 C653 C 0.84599 0.63797 0.63183
 C654 C 0.79949 0.67221 0.60514
 H655 H 0.81771 0.55968 0.70784
 H656 H 0.84494 0.66759 0.78078
 H657 H 0.73205 0.62275 0.66080
 H658 H 0.81232 0.78321 0.62518
 H659 H 0.89688 0.72159 0.67582
 H660 H 0.78690 0.67206 0.55332
 C661 C 0.31624 0.19565 0.60684
 C662 C 0.26892 0.16947 0.64135
 C663 C 0.28338 0.20708 0.70438
 C664 C 0.33020 0.23336 0.66966
 C665 C 0.31267 0.14719 0.72884
 C666 C 0.29884 0.10952 0.66583
 C667 C 0.34544 0.13673 0.63226
 C668 C 0.35942 0.17409 0.69492
 H669 H 0.31778 0.21543 0.55624
 H670 H 0.23176 0.16736 0.61809
 H671 H 0.34528 0.28339 0.66827
 H672 H 0.31212 0.12486 0.77829
 H673 H 0.28599 0.05826 0.66377
 H674 H 0.39665 0.17659 0.71817
 C675 C 0.29763 0.61059 0.16711
 C676 C 0.31124 0.64773 0.23054
 C677 C 0.28182 0.70814 0.20676
 C678 C 0.26773 0.67083 0.14305
 C679 C 0.32900 0.73431 0.17201
 C680 C 0.35814 0.67475 0.19689
 C681 C 0.34444 0.63783 0.13394
 C682 C 0.31525 0.69698 0.10891
 H683 H 0.28462 0.55941 0.16472
 H684 H 0.31139 0.62398 0.27928
 H685 H 0.23098 0.66862 0.11868
 H686 H 0.34494 0.78383 0.16980
 H687 H 0.39529 0.67711 0.22034
 H688 H 0.31683 0.71721 0.05849
   
