data_POSCAR
  _audit_creation_date              2014-09-24
  _audit_creation_method            'ToBaCCo'
  _symmetry_space_group_name_H-M    'P1'
  _symmetry_Int_Tables_number       1
  _symmetry_cell_setting            triclinic
  loop_
  _symmetry_equiv_pos_as_xyz
 x,y,z
_cell_length_a 41.3489
_cell_length_b 43.2369
_cell_length_c 39.0250
_cell_angle_alpha 92.383000
_cell_angle_beta 88.153000
_cell_angle_gamma 92.906200
loop_
  _atom_site_label
  _atom_site_type_symbol
  _atom_site_fract_x
  _atom_site_fract_y
  _atom_site_fract_z
C1 C 0.16965 0.21955 0.20361
 C2 C 0.17412 0.24278 0.17952
 C3 C 0.19960 0.24171 0.15547
 C4 C 0.22091 0.21744 0.15521
 C5 C 0.21647 0.19470 0.17909
 C6 C 0.19085 0.19575 0.20328
 C7 C 0.14655 0.21376 0.22927
 N8 N 0.15368 0.18718 0.24406
 C9 C 0.18057 0.17598 0.22846
 C10 C 0.23978 0.17357 0.17253
 N11 N 0.25820 0.18296 0.14529
 C12 C 0.24709 0.20968 0.13428
 C13 C 0.19736 0.26647 0.13472
 N14 N 0.17134 0.28236 0.14570
 C15 C 0.15688 0.26820 0.17292
 H16 H 0.12602 0.22753 0.23631
 H17 H 0.19155 0.15477 0.23469
 H18 H 0.24287 0.15268 0.18623
 H19 H 0.25699 0.22222 0.11256
 H20 H 0.21305 0.27220 0.11291
 H21 H 0.13512 0.27555 0.18644
 C22 C -0.20255 0.77845 0.23384
 C23 C -0.20322 0.75511 0.20766
 C24 C -0.22587 0.75533 0.18217
 C25 C -0.24805 0.77885 0.18248
 C26 C -0.24744 0.80166 0.20845
 C27 C -0.22471 0.80144 0.23416
 C28 C -0.18167 0.78592 0.26022
 N29 N -0.19105 0.81264 0.27614
 C30 C -0.21718 0.82236 0.26048
 C31 C -0.26963 0.82282 0.20109
 N32 N -0.28361 0.81335 0.17135
 C33 C -0.27075 0.78658 0.15954
 C34 C -0.21965 0.73127 0.15908
 N35 N -0.19401 0.71655 0.17004
 C36 C -0.18361 0.73085 0.19953
 H37 H -0.16057 0.77363 0.26642
 H38 H -0.22895 0.84377 0.26685
 H39 H -0.27433 0.84416 0.21552
 H40 H -0.27653 0.77440 0.13552
 H41 H -0.23225 0.72536 0.13562
 H42 H -0.16287 0.72453 0.21347
 C43 C -0.21969 0.23476 -0.26669
 C44 C -0.22203 0.25890 -0.24163
 C45 C -0.24828 0.25905 -0.21853
 C46 C -0.27246 0.23512 -0.22018
 C47 C -0.27023 0.21153 -0.24514
 C48 C -0.24381 0.21136 -0.26842
 C49 C -0.19506 0.22621 -0.28936
 N50 N -0.20407 0.19845 -0.30454
 C51 C -0.23366 0.18911 -0.29196
 C52 C -0.29423 0.18936 -0.23803
 N53 N -0.31088 0.19895 -0.20947
 C54 C -0.29789 0.22679 -0.19815
 C55 C -0.24260 0.28325 -0.19507
 N56 N -0.21382 0.29771 -0.20356
 C57 C -0.20088 0.28306 -0.23175
 H58 H -0.17169 0.23829 -0.29298
 H59 H -0.24597 0.16691 -0.29792
 H60 H -0.29776 0.16690 -0.25111
 H61 H -0.30486 0.23890 -0.17440
 H62 H -0.25761 0.28918 -0.17274
 H63 H -0.17731 0.28882 -0.24333
 C64 C 0.19758 0.77764 -0.26006
 C65 C 0.20092 0.75272 -0.23869
 C66 C 0.22805 0.75184 -0.21877
 C67 C 0.25217 0.77584 -0.21999
 C68 C 0.24892 0.80025 -0.24129
 C69 C 0.22158 0.80115 -0.26133
 C70 C 0.17260 0.78627 -0.27970
 N71 N 0.18128 0.81423 -0.29262
 C72 C 0.21100 0.82359 -0.28159
 C73 C 0.27387 0.82170 -0.23485
 N74 N 0.29208 0.81084 -0.21025
 C75 C 0.27918 0.78292 -0.20077
 C76 C 0.22359 0.72654 -0.19855
 N77 N 0.19465 0.71215 -0.20591
 C78 C 0.18046 0.72788 -0.23020
 H79 H 0.14949 0.77381 -0.28323
 H80 H 0.22342 0.84563 -0.28683
 H81 H 0.27743 0.84429 -0.24578
 H82 H 0.28769 0.76967 -0.18021
 H83 H 0.23960 0.71969 -0.17911
 H84 H 0.15657 0.72228 -0.24000
 C85 C 0.23342 1.19593 0.78125
 C86 C 0.25448 1.19546 0.80877
 C87 C 0.25201 1.21704 0.83599
 C88 C 0.22844 1.23931 0.83605
 C89 C 0.20789 1.23977 0.80877
 C90 C 0.21039 1.21810 0.78134
 C91 C 0.22828 1.17650 0.75271
 N92 N 0.20290 1.18672 0.73592
 C93 C 0.19175 1.21200 0.75313
 C94 C 0.18612 1.26218 0.81635
 N95 N 0.19300 1.27530 0.84749
 C96 C 0.21872 1.26165 0.86000
 C97 C 0.27428 1.21014 0.85969
 N98 N 0.29007 1.18512 0.84741
 C99 C 0.27822 1.17583 0.81648
 H100 H 0.24108 1.15585 0.74554
 H101 H 0.17075 1.22422 0.74641
 H102 H 0.16612 1.26786 0.80088
 H103 H 0.22885 1.26688 0.88495
 H104 H 0.27829 1.22200 0.88429
 H105 H 0.28592 1.15596 0.80109
 C106 C 0.79204 0.80738 0.76885
 C107 C 0.76729 0.80683 0.79440
 C108 C 0.76622 0.78430 0.81877
 C109 C 0.78986 0.76209 0.81795
 C110 C 0.81416 0.76264 0.79267
 C111 C 0.81525 0.78533 0.76805
 C112 C 0.80045 0.82754 0.74314
 N113 N 0.82797 0.81793 0.72708
 C114 C 0.83731 0.79229 0.74203
 C115 C 0.83475 0.73973 0.79912
 N116 N 0.82344 0.72540 0.82758
 C117 C 0.79610 0.73874 0.83948
 C118 C 0.74075 0.79026 0.84129
 N119 N 0.72646 0.81567 0.83106
 C120 C 0.74239 0.82612 0.80259
 H121 H 0.78809 0.84807 0.73724
 H122 H 0.85904 0.78018 0.73515
 H123 H 0.85680 0.73444 0.78478
 H124 H 0.78238 0.73251 0.86250
 H125 H 0.73356 0.77752 0.86383
 H126 H 0.73670 0.84658 0.78933
 C127 C 0.23791 0.78061 1.26862
 C128 C 0.26181 0.77963 1.24225
 C129 C 0.26144 0.75509 1.21815
 C130 C 0.23719 0.73127 1.22014
 C131 C 0.21377 0.73221 1.24631
 C132 C 0.21413 0.75694 1.27062
 C133 C 0.22971 0.80335 1.29275
 N134 N 0.20179 0.79374 1.30910
 C135 C 0.19196 0.76556 1.29581
 C136 C 0.19109 0.70856 1.23960
 N137 N 0.20024 0.69339 1.21015
 C138 C 0.22827 0.70697 1.19787
 C139 C 0.28526 0.76177 1.19368
 N140 N 0.29998 0.78951 1.20253
 C141 C 0.28588 0.80077 1.23196
 H142 H 0.24200 0.82589 1.29665
 H143 H 0.16936 0.75315 1.30249
 H144 H 0.16854 0.70398 1.25380
 H145 H 0.24005 0.70089 1.17351
 H146 H 0.29061 0.74814 1.17047
 H147 H 0.29181 0.82321 1.24415
 C148 C 0.78846 1.20031 1.26784
 C149 C 0.76251 1.20069 1.24548
 C150 C 0.76041 1.22521 1.22397
 C151 C 0.78414 1.24955 1.22445
 C152 C 0.80964 1.24918 1.24654
 C153 C 0.81180 1.22450 1.26833
 C154 C 0.79827 1.17853 1.28967
 N155 N 0.82673 1.18920 1.30315
 C156 C 0.83533 1.21713 1.29032
 C157 C 0.83050 1.27404 1.23938
 N158 N 0.81815 1.28933 1.21362
 C159 C 0.78992 1.27467 1.20415
 C160 C 0.73437 1.21848 1.20338
 N161 N 0.72068 1.19066 1.21198
 C162 C 0.73759 1.17943 1.23752
 H163 H 0.78623 1.15623 1.29448
 H164 H 0.85755 1.23056 1.29570
 H165 H 0.85366 1.27974 1.25085
 H166 H 0.77556 1.28097 1.18303
 H167 H 0.72658 1.23226 1.18290
 H168 H 0.73276 1.15706 1.24862
 O169 O 0.51825 0.95845 0.95685
 O170 O 0.46631 0.96910 1.07307
 O171 O 0.56689 0.98920 1.03942
 O172 O 0.45990 0.95792 0.96475
 O173 O 0.52741 0.96928 1.07276
 O174 O 0.47809 0.98419 0.92152
 O175 O 0.45868 0.94672 1.02390
 O176 O 0.56289 0.98038 0.97641
 C177 C 0.54804 0.95768 0.96134
 C178 C 0.45778 0.94556 1.05551
 C179 C 0.55651 0.97061 1.06213
 C180 C 0.45722 0.96379 0.93348
 O181 O 0.48417 1.03445 0.95794
 O182 O 0.53008 1.02849 1.07843
 O183 O 0.54480 1.04146 0.97380
 O184 O 0.43439 1.00309 1.04086
 O185 O 0.47021 1.02999 1.07069
 O186 O 0.53444 1.01058 0.93273
 O187 O 0.43993 1.01616 0.98094
 O188 O 0.54953 1.04838 1.03239
 Co189 Co 0.50013 0.99626 0.95945
 Co190 Co 0.49855 0.99920 1.06778
 Co191 Co 0.55174 1.01338 1.00561
 Co192 Co 0.45281 0.98266 1.00331
 O193 O 0.50232 0.99909 1.01136
 C194 C 0.45503 1.03722 0.96518
 C195 C 0.54638 1.04926 1.06390
 C196 C 0.54830 1.03503 0.94283
 C197 C 0.44241 1.02668 1.05923
 O198 O 0.03308 0.48451 0.04190
 O199 O 0.02808 0.52855 -0.07783
 O200 O -0.00033 0.43722 -0.04224
 O201 O 0.04082 0.54218 0.02732
 O202 O 0.02837 0.47118 -0.07119
 O203 O 0.00818 0.53271 0.06770
 O204 O 0.04871 0.54676 -0.03105
 O205 O 0.01368 0.44240 0.01786
 C206 C 0.03573 0.45661 0.03419
 C207 C 0.04994 0.54367 -0.06260
 C208 C 0.02452 0.44461 -0.06007
 C209 C 0.03376 0.54600 0.05812
 O210 O -0.04609 0.51760 0.04228
 O211 O -0.03538 0.46866 -0.07432
 O212 O -0.04687 0.46179 0.03402
 O213 O -0.01256 0.56433 -0.03912
 O214 O -0.03396 0.52718 -0.07335
 O215 O -0.01933 0.47903 0.07761
 O216 O -0.02274 0.56021 0.02357
 O217 O -0.05874 0.46096 -0.02541
 Co218 Co -0.00670 0.50011 0.04007
 Co219 Co -0.00328 0.49891 -0.06824
 Co220 Co -0.02128 0.45497 -0.00454
 Co221 Co 0.01195 0.54930 -0.00501
 O222 O -0.00361 0.50224 -0.01177
 C223 C -0.04666 0.54612 0.03806
 C224 C -0.05985 0.46003 -0.05707
 C225 C -0.04032 0.45883 0.06515
 C226 C -0.03187 0.55501 -0.06244
 O227 O 1.06607 0.03917 0.46795
 O228 O 0.93736 0.01342 0.53678
 O229 O 0.98117 0.02309 0.43644
 O230 O 1.03102 0.05315 0.55320
 O231 O 0.95980 0.03923 0.48410
 O232 O 1.07456 0.03536 0.53096
 O233 O 0.97570 0.04491 0.54854
 O234 O 1.03823 0.01260 0.42948
 C235 C 1.05541 0.03629 0.43842
 C236 C 0.94657 0.03765 0.55212
 C237 C 0.96570 0.04301 0.45324
 C238 C 1.06073 0.05495 0.54937
 O239 O 1.07072 -0.02370 0.52608
 O240 O 0.92674 -0.01206 0.47631
 O241 O 1.02444 -0.04536 0.45391
 O242 O 0.97951 -0.01666 0.56554
 O243 O 0.96115 -0.03766 0.51791
 O244 O 1.07007 -0.02125 0.46153
 O245 O 1.03918 -0.00659 0.56913
 O246 O 0.96834 -0.03625 0.45626
 Co247 Co 1.06471 0.00719 0.49677
 Co248 Co 0.96245 0.00072 0.49975
 Co249 Co 1.00377 -0.00992 0.44888
 Co250 Co 1.00645 0.01738 0.55448
 O251 O 1.01149 0.00514 0.50162
 C252 C 1.06110 -0.02395 0.55706
 C253 C 0.93859 -0.03147 0.45369
 C254 C 1.05432 -0.04554 0.45343
 C255 C 0.96532 -0.03913 0.54939
 C256 C 1.13699 0.17324 0.26910
 C257 C 1.12288 0.15939 0.29173
 C258 C 1.10782 0.14111 0.31839
 C259 C 1.08274 0.11917 0.31062
 C260 C 1.07082 0.09877 0.33548
 C261 C 1.08401 0.10019 0.36817
 C262 C 1.10854 0.12262 0.37619
 C263 C 1.12045 0.14300 0.35134
 C264 C 1.07349 0.07777 0.39296
 C265 C 1.06514 0.05881 0.41367
 H266 H 1.07305 0.11725 0.28511
 H267 H 1.05191 0.08147 0.32898
 H268 H 1.11898 0.12385 0.40135
 H269 H 1.14010 0.15963 0.35752
 C270 C 0.82459 -0.17101 0.30048
 C271 C 0.83826 -0.15508 0.32218
 C272 C 0.85393 -0.13463 0.34726
 C273 C 0.88507 -0.14020 0.35785
 C274 C 0.90090 -0.11917 0.38064
 C275 C 0.88570 -0.09247 0.39290
 C276 C 0.85439 -0.08709 0.38267
 C277 C 0.83855 -0.10813 0.35989
 C278 C 0.90281 -0.07022 0.41500
 C279 C 0.91833 -0.05205 0.43297
 H280 H 0.89725 -0.16051 0.34811
 H281 H 0.92516 -0.12350 0.38831
 H282 H 0.84245 -0.06649 0.39189
 H283 H 0.81453 -0.10351 0.35172
 C284 C 0.81465 0.18071 0.67565
 C285 C 0.83112 0.16364 0.65816
 C286 C 0.85005 0.14201 0.63817
 C287 C 0.88184 0.15033 0.62743
 C288 C 0.90056 0.12868 0.60934
 C289 C 0.88759 0.09864 0.60196
 C290 C 0.85572 0.09042 0.61243
 C291 C 0.83700 0.11206 0.63051
 C292 C 0.90731 0.07624 0.58422
 C293 C 0.92465 0.05808 0.56953
 H294 H 0.89222 0.17337 0.63333
 H295 H 0.92521 0.13527 0.60139
 H296 H 0.84547 0.06726 0.60691
 H297 H 0.81248 0.10535 0.63883
 C298 C 1.16289 -0.16863 0.68937
 C299 C 1.14698 -0.15212 0.67319
 C300 C 1.12933 -0.13112 0.65411
 C301 C 1.12579 -0.13629 0.61874
 C302 C 1.11092 -0.11454 0.59977
 C303 C 1.09961 -0.08752 0.61610
 C304 C 1.10271 -0.08257 0.65156
 C305 C 1.11757 -0.10433 0.67053
 C306 C 1.08569 -0.06457 0.59620
 C307 C 1.07438 -0.04568 0.57882
 H308 H 1.13503 -0.15680 0.60574
 H309 H 1.10870 -0.11856 0.57234
 H310 H 1.09410 -0.06173 0.66442
 H311 H 1.12042 -0.09999 0.69783
 C312 C 0.28253 1.16745 1.13148
 C313 C 0.30435 1.15236 1.11994
 C314 C 0.32985 1.13289 1.10793
 C315 C 0.35362 1.12548 1.13059
 C316 C 0.37681 1.10435 1.12023
 C317 C 0.37631 1.09047 1.08718
 C318 C 0.35290 1.09827 1.06425
 C319 C 0.32965 1.11942 1.07464
 C320 C 0.39941 1.06779 1.07718
 C321 C 0.41889 1.04883 1.06906
 H322 H 0.35382 1.13556 1.15648
 H323 H 0.39481 1.09847 1.13814
 H324 H 0.35233 1.08767 1.03862
 H325 H 0.31121 1.12479 1.05702
 C326 C 0.31547 0.82733 0.80553
 C327 C 0.33613 0.84314 0.81991
 C328 C 0.35969 0.86314 0.83728
 C329 C 0.36819 0.89244 0.82470
 C330 C 0.38921 0.91293 0.84290
 C331 C 0.40178 0.90419 0.87376
 C332 C 0.39370 0.87471 0.88604
 C333 C 0.37268 0.85422 0.86785
 C334 C 0.42183 0.92580 0.89364
 C335 C 0.43818 0.94352 0.91125
 H336 H 0.35809 0.89963 0.80120
 H337 H 0.39521 0.93572 0.83326
 H338 H 0.40321 0.86778 0.90996
 H339 H 0.36609 0.83171 0.87792
 C340 C 0.69581 0.82967 1.15516
 C341 C 0.67740 0.84544 1.14122
 C342 C 0.65588 0.86559 1.12592
 C343 C 0.66514 0.88009 1.09543
 C344 C 0.64519 0.90149 1.08202
 C345 C 0.61600 0.90850 1.09913
 C346 C 0.60658 0.89371 1.12938
 C347 C 0.62650 0.87233 1.14277
 C348 C 0.59569 0.93090 1.08588
 C349 C 0.57816 0.94938 1.07503
 H350 H 0.68794 0.87522 1.08236
 H351 H 0.65264 0.91278 1.05857
 H352 H 0.58402 0.89894 1.14276
 H353 H 0.61925 0.86142 1.16650
 C354 C 0.66815 1.18101 0.80798
 C355 C 0.64988 1.16384 0.82373
 C356 C 0.62943 1.14221 0.84253
 C357 C 0.61865 1.14997 0.87602
 C358 C 0.60103 1.12797 0.89527
 C359 C 0.59417 1.09813 0.88111
 C360 C 0.60447 1.09053 0.84741
 C361 C 0.62208 1.11254 0.82816
 C362 C 0.57765 1.07513 0.90173
 C363 C 0.56416 1.05637 0.91993
 H364 H 0.62441 1.17277 0.88746
 H365 H 0.59324 1.13404 0.92135
 H366 H 0.59936 1.06750 0.83627
 H367 H 0.63052 1.10625 0.80236
 C368 C 0.15994 0.30816 0.13010
 C369 C 0.14963 0.33011 0.11663
 C370 C 0.13613 0.35577 0.10066
 C371 C 0.12627 0.38140 0.12076
 C372 C 0.10990 0.40475 0.10589
 C373 C 0.10336 0.40259 0.07083
 C374 C 0.11417 0.37747 0.05050
 C375 C 0.13056 0.35412 0.06538
 C376 C 0.08198 0.42376 0.05685
 C377 C 0.06200 0.43986 0.04595
 H378 H 0.13026 0.38282 0.14810
 H379 H 0.10124 0.42382 0.12196
 H380 H 0.10885 0.37532 0.02347
 H381 H 0.13788 0.33432 0.04962
 C382 C -0.19843 0.32192 -0.18426
 C383 C -0.18487 0.34242 -0.16744
 C384 C -0.16790 0.36627 -0.14718
 C385 C -0.15083 0.39077 -0.16323
 C386 C -0.13198 0.41237 -0.14385
 C387 C -0.13014 0.40961 -0.10831
 C388 C -0.14789 0.38559 -0.09214
 C389 C -0.16676 0.36399 -0.11152
 C390 C -0.10733 0.42920 -0.08921
 C391 C -0.08659 0.44421 -0.07397
 H392 H -0.15139 0.39267 -0.19080
 H393 H -0.11804 0.43061 -0.15670
 H394 H -0.14635 0.38298 -0.06475
 H395 H -0.17971 0.34505 -0.09885
 C396 C 0.18028 0.68689 -0.18872
 C397 C 0.16757 0.66551 -0.17362
 C398 C 0.15158 0.64068 -0.15512
 C399 C 0.15526 0.63927 -0.11965
 C400 C 0.13739 0.61691 -0.10108
 C401 C 0.11581 0.59584 -0.11790
 C402 C 0.11280 0.59671 -0.15351
 C403 C 0.13066 0.61907 -0.17208
 C404 C 0.09434 0.57562 -0.09828
 C405 C 0.07489 0.56011 -0.08188
 H406 H 0.17123 0.65597 -0.10624
 H407 H 0.13964 0.61669 -0.07351
 H408 H 0.09591 0.58077 -0.16672
 H409 H 0.12748 0.62006 -0.19946
 C410 C -0.17925 0.69186 0.15235
 C411 C -0.16632 0.67088 0.13690
 C412 C -0.15020 0.64634 0.11829
 C413 C -0.13996 0.62102 0.13564
 C414 C -0.12208 0.59842 0.11805
 C415 C -0.11441 0.60099 0.08300
 C416 C -0.12533 0.62591 0.06547
 C417 C -0.14321 0.64851 0.08306
 C418 C -0.09256 0.58001 0.06603
 C419 C -0.07258 0.56368 0.05265
 H420 H -0.14510 0.61916 0.16290
 H421 H -0.11344 0.57945 0.13196
 H422 H -0.11921 0.62835 0.03848
 H423 H -0.15088 0.66805 0.06941
 C424 C 1.18838 0.17248 0.70942
 C425 C 1.17411 0.15990 0.68579
 C426 C 1.15556 0.14511 0.65857
 C427 C 1.16826 0.12091 0.63823
 C428 C 1.14914 0.10510 0.61358
 C429 C 1.11725 0.11342 0.60915
 C430 C 1.10479 0.13807 0.62897
 C431 C 1.12392 0.15390 0.65360
 C432 C 1.09662 0.09484 0.58653
 C433 C 1.07976 0.07766 0.56879
 H434 H 1.19262 0.11382 0.64195
 H435 H 1.15891 0.08586 0.59863
 H436 H 1.08008 0.14451 0.62602
 H437 H 1.11380 0.17250 0.66930
 C438 C 0.84480 -0.16744 0.70259
 C439 C 0.86064 -0.15425 0.68063
 C440 C 0.88018 -0.13827 0.65504
 C441 C 0.86579 -0.12694 0.62639
 C442 C 0.88456 -0.10982 0.60269
 C443 C 0.91781 -0.10402 0.60747
 C444 C 0.93232 -0.11592 0.63574
 C445 C 0.91356 -0.13305 0.65943
 C446 C 0.93614 -0.08323 0.58546
 C447 C 0.95035 -0.06411 0.56818
 H448 H 0.84001 -0.13076 0.62278
 H449 H 0.87299 -0.10041 0.58116
 H450 H 0.95791 -0.11127 0.63994
 H451 H 0.92493 -0.14164 0.68154
 C452 C 1.18403 -0.18900 0.33050
 C453 C 1.16721 -0.17339 0.34935
 C454 C 1.14635 -0.15457 0.37073
 C455 C 1.15931 -0.13470 0.39661
 C456 C 1.13924 -0.11485 0.41565
 C457 C 1.10614 -0.11482 0.40892
 C458 C 1.09306 -0.13518 0.38355
 C459 C 1.11312 -0.15504 0.36452
 C460 C 1.08640 -0.09200 0.42587
 C461 C 1.07093 -0.07157 0.43904
 H462 H 1.18497 -0.13406 0.40153
 H463 H 1.14966 -0.09898 0.43499
 H464 H 1.06758 -0.13514 0.37789
 H465 H 1.10287 -0.17023 0.34447
 C466 C 0.84484 0.17383 0.32341
 C467 C 0.86173 0.16000 0.34154
 C468 C 0.88222 0.14334 0.36267
 C469 C 0.91242 0.13415 0.34974
 C470 C 0.93166 0.11656 0.36954
 C471 C 0.92083 0.10818 0.40241
 C472 C 0.89093 0.11793 0.41562
 C473 C 0.87169 0.13550 0.39581
 C474 C 0.93868 0.08709 0.42118
 C475 C 0.95211 0.06788 0.43627
 H476 H 0.92080 0.14005 0.32413
 H477 H 0.95456 0.10887 0.35891
 H478 H 0.88214 0.11129 0.44085
 H479 H 0.84838 0.14245 0.40606
 C480 C 0.17535 0.29642 -0.13631
 C481 C 0.15832 0.31542 -0.12267
 C482 C 0.13659 0.33774 -0.10823
 C483 C 0.10649 0.32768 -0.09408
 C484 C 0.08387 0.34927 -0.08326
 C485 C 0.09124 0.38099 -0.08665
 C486 C 0.12158 0.39109 -0.10014
 C487 C 0.14421 0.36949 -0.11096
 C488 C 0.06738 0.40312 -0.07724
 C489 C 0.04756 0.42188 -0.06955
 H490 H 0.10024 0.30316 -0.09216
 H491 H 0.06046 0.34122 -0.07288
 H492 H 0.12751 0.41558 -0.10287
 H493 H 0.16729 0.37750 -0.12216
 C494 C -0.16570 0.31370 0.19650
 C495 C -0.15128 0.33420 0.18152
 C496 C -0.13330 0.35793 0.16317
 C497 C -0.14534 0.36874 0.13297
 C498 C -0.12689 0.39036 0.11397
 C499 C -0.09634 0.40123 0.12510
 C500 C -0.08451 0.39075 0.15555
 C501 C -0.10296 0.36913 0.17455
 C502 C -0.07664 0.42212 0.10455
 C503 C -0.06004 0.43913 0.08684
 H504 H -0.16870 0.36009 0.12385
 H505 H -0.13620 0.39823 0.09038
 H506 H -0.06086 0.39892 0.16430
 H507 H -0.09336 0.36078 0.19777
 C508 C -0.16165 0.70335 -0.15749
 C509 C -0.14738 0.68352 -0.14439
 C510 C -0.12922 0.66020 -0.12957
 C511 C -0.12293 0.66194 -0.09446
 C512 C -0.10367 0.64021 -0.08055
 C513 C -0.09061 0.61672 -0.10174
 C514 C -0.09721 0.61479 -0.13676
 C515 C -0.11645 0.63650 -0.15065
 C516 C -0.06997 0.59494 -0.08776
 C517 C -0.05254 0.57671 -0.07621
 H518 H -0.13255 0.68028 -0.07797
 H519 H -0.09870 0.64191 -0.05343
 H520 H -0.08720 0.59674 -0.15337
 H521 H -0.12102 0.63505 -0.17787
 C522 C 0.18072 0.67110 0.19241
 C523 C 0.16318 0.65258 0.17716
 C524 C 0.14130 0.63152 0.15878
 C525 C 0.10920 0.62690 0.17086
 C526 C 0.08717 0.60824 0.15176
 C527 C 0.09719 0.59413 0.12053
 C528 C 0.12943 0.59831 0.10874
 C529 C 0.15144 0.61699 0.12782
 C530 C 0.07419 0.57659 0.09969
 C531 C 0.05534 0.56240 0.08129
 H532 H 0.10106 0.63820 0.19467
 H533 H 0.06227 0.60526 0.16102
 H534 H 0.13737 0.58761 0.08452
 H535 H 0.17615 0.62056 0.11815
 C536 C 0.31378 1.17028 0.86466
 C537 C 0.33401 1.15718 0.87940
 C538 C 0.35782 1.14076 0.89661
 C539 C 0.35183 1.13175 0.93042
 C540 C 0.37374 1.11361 0.94613
 C541 C 0.40178 1.10444 0.92813
 C542 C 0.40815 1.11411 0.89465
 C543 C 0.38625 1.13225 0.87895
 C544 C 0.42215 1.08256 0.94254
 C545 C 0.43801 1.06274 0.95354
 H546 H 0.32987 1.13807 0.94429
 H547 H 0.36836 1.10599 0.97189
 H548 H 0.42955 1.10688 0.88033
 H549 H 0.39108 1.13895 0.85276
 C550 C 0.32360 0.80552 1.18257
 C551 C 0.34355 0.81967 1.16530
 C552 C 0.36668 0.83738 1.14469
 C553 C 0.39318 0.85332 1.16000
 C554 C 0.41404 0.87269 1.14057
 C555 C 0.40856 0.87617 1.10571
 C556 C 0.38254 0.85962 1.09020
 C557 C 0.36168 0.84025 1.10963
 C558 C 0.42753 0.89900 1.08688
 C559 C 0.44217 0.91948 1.07196
 H560 H 0.39719 0.85142 1.18711
 H561 H 0.43386 0.88563 1.15293
 H562 H 0.37784 0.86238 1.06338
 H563 H 0.34118 0.82816 1.09755
 C564 C 0.69504 1.17494 1.19486
 C565 C 0.67331 1.16146 1.17954
 C566 C 0.64802 1.14518 1.16044
 C567 C 0.64446 1.15111 1.12576
 C568 C 0.62141 1.13386 1.10647
 C569 C 0.60176 1.11062 1.12179
 C570 C 0.60484 1.10515 1.15667
 C571 C 0.62790 1.12240 1.17595
 C572 C 0.58055 1.09060 1.10119
 C573 C 0.56409 1.07253 1.08399
 H574 H 0.65996 1.16859 1.11345
 H575 H 0.61949 1.13809 1.07946
 H576 H 0.59000 1.08704 1.16872
 H577 H 0.63050 1.11752 1.20270
 C578 C 0.70063 0.82998 0.84844
 C579 C 0.67865 0.84252 0.86355
 C580 C 0.65289 0.85817 0.88170
 C581 C 0.62719 0.86888 0.86367
 C582 C 0.60350 0.88613 0.88092
 C583 C 0.60534 0.89271 0.91630
 C584 C 0.63062 0.88138 0.93447
 C585 C 0.65431 0.86412 0.91722
 C586 C 0.58336 0.91369 0.93315
 C587 C 0.56630 0.93284 0.94654
 H588 H 0.62591 0.86455 0.83620
 H589 H 0.58430 0.89507 0.86652
 H590 H 0.63253 0.88662 0.96174
 H591 H 0.67414 0.85608 0.93142
   
