data_POSCAR
  _audit_creation_date              2014-09-24
  _audit_creation_method            'ToBaCCo'
  _symmetry_space_group_name_H-M    'P1'
  _symmetry_Int_Tables_number       1
  _symmetry_cell_setting            triclinic
  loop_
  _symmetry_equiv_pos_as_xyz
 x,y,z
_cell_length_a 22.0249
_cell_length_b 21.6640
_cell_length_c 21.7546
_cell_angle_alpha 90.388600
_cell_angle_beta 89.771300
_cell_angle_gamma 90.574100
loop_
  _atom_site_label
  _atom_site_type_symbol
  _atom_site_fract_x
  _atom_site_fract_y
  _atom_site_fract_z
N1 N 0.20900 0.21769 0.20795
 N2 N -0.22444 0.77260 0.22048
 N3 N -0.21816 0.21061 -0.20797
 N4 N 0.20318 0.80043 -0.22344
 N5 N 0.20958 1.19332 0.79324
 N6 N 0.80018 0.80179 0.79431
 N7 N 0.20748 0.77737 1.22477
 N8 N 0.78400 1.20884 1.20976
 O9 O 0.56336 0.95105 0.89341
 O10 O 0.44428 0.91206 1.10553
 O11 O 0.61098 0.93092 1.03094
 O12 O 0.37692 0.94228 0.96019
 O13 O 0.55294 0.92389 1.11194
 O14 O 0.45192 0.92155 0.89922
 O15 O 0.35379 0.94270 1.07547
 O16 O 0.61430 0.94198 0.98062
 C17 C 0.60883 0.93139 0.92203
 C18 C 0.38699 0.90572 1.10975
 C19 C 0.59743 0.90430 1.08218
 C20 C 0.39708 0.91529 0.91327
 O21 O 0.42282 1.04083 0.90247
 O22 O 0.54790 1.04323 1.13010
 O23 O 0.61485 1.04747 0.95257
 O24 O 0.38621 1.05379 1.04609
 O25 O 0.43593 1.03909 1.12852
 O26 O 0.53346 1.06971 0.90158
 O27 O 0.37664 1.04571 0.99242
 O28 O 0.57100 1.09048 1.04860
 Co29 Co 0.49339 0.99546 0.90902
 Co30 Co 0.49467 0.98192 1.10826
 Co31 Co 0.58700 1.01262 1.02436
 Co32 Co 0.41258 0.97605 1.02871
 O33 O 0.49799 0.99411 1.00854
 C34 C 0.38023 1.06165 0.93558
 C35 C 0.57455 1.08778 1.10542
 C36 C 0.58935 1.07594 0.90957
 C37 C 0.39669 1.06930 1.10079
 O38 O 0.05817 0.44597 0.10564
 O39 O 0.05929 0.55921 -0.11963
 O40 O 0.02709 0.36732 -0.07012
 O41 O 0.06503 0.60994 0.02335
 O42 O 0.07123 0.44442 -0.11334
 O43 O 0.04638 0.55999 0.10643
 O44 O 0.05765 0.61670 -0.03350
 O45 O 0.08054 0.40424 0.02055
 C46 C 0.09287 0.41214 0.07549
 C47 C 0.07684 0.60637 -0.08956
 C48 C 0.06769 0.38745 -0.10534
 C49 C 0.07571 0.60297 0.07951
 O50 O -0.07601 0.54289 0.08567
 O51 O -0.05204 0.43110 -0.11977
 O52 O -0.01626 0.34363 0.04598
 O53 O -0.04055 0.61734 -0.05593
 O54 O -0.05964 0.54824 -0.12592
 O55 O -0.06076 0.42678 0.08596
 O56 O -0.04259 0.63620 0.05904
 O57 O -0.07674 0.40205 -0.02744
 Co58 Co -0.00668 0.49389 0.08612
 Co59 Co 0.00505 0.49482 -0.11106
 Co60 Co 0.00171 0.40758 -0.00109
 Co61 Co -0.00992 0.57941 0.00904
 O62 O 0.00492 0.49551 -0.01358
 C63 C -0.07726 0.60122 0.09503
 C64 C -0.08852 0.40298 -0.08378
 C65 C -0.05172 0.36814 0.08816
 C66 C -0.06422 0.60283 -0.10576
 O67 O 1.07993 0.09011 0.45441
 O68 O 0.87589 0.06894 0.56493
 O69 O 0.92852 0.03823 0.37342
 O70 O 1.06808 0.09084 0.56691
 O71 O 0.87556 0.07829 0.45056
 O72 O 1.14600 0.04036 0.53368
 O73 O 0.96157 0.11242 0.57511
 O74 O 1.04150 0.04610 0.37405
 C75 C 1.07288 0.08965 0.39722
 C76 C 0.90608 0.11392 0.58378
 C77 C 0.89034 0.07727 0.39494
 C78 C 1.12401 0.07882 0.57376
 O79 O 1.08562 -0.06082 0.52867
 O80 O 0.86186 -0.03742 0.43885
 O81 O 1.04569 -0.07489 0.41424
 O82 O 0.93953 -0.00378 0.62100
 O83 O 0.88066 -0.05002 0.55377
 O84 O 1.12006 -0.01691 0.42956
 O85 O 1.04804 -0.02504 0.61129
 O86 O 0.94173 -0.08332 0.41165
 Co87 Co 1.07798 0.01545 0.49410
 Co88 Co 0.88482 0.01418 0.50147
 Co89 Co 0.98922 -0.01597 0.40083
 Co90 Co 1.00272 0.04087 0.58539
 O91 O 0.98534 0.01107 0.49305
 C92 C 1.07966 -0.06529 0.58525
 C93 C 0.88627 -0.08007 0.41020
 C94 C 1.10016 -0.06404 0.40423
 C95 C 0.89986 -0.04464 0.60775
 C96 C 1.08418 0.13601 0.29331
 C97 C 1.11667 0.16617 0.24696
 C98 C 1.17265 0.19449 0.25901
 C99 C 1.19391 0.19626 0.32034
 C100 C 1.16026 0.16688 0.36858
 C101 C 1.10524 0.13395 0.35448
 C102 C 1.18437 0.17111 0.42847
 N103 N 1.23741 0.20170 0.43876
 N104 N 1.26840 0.22869 0.39357
 C105 C 1.24838 0.22708 0.33485
 H106 H 1.04265 0.11214 0.28040
 H107 H 1.09958 0.16468 0.20037
 H108 H 1.16203 0.15207 0.46796
 H109 H 1.27494 0.25049 0.30018
 C110 C 0.84282 -0.09395 0.30729
 C111 C 0.81604 -0.12938 0.26093
 C112 C 0.79662 -0.19013 0.27194
 C113 C 0.80255 -0.21457 0.33195
 C114 C 0.83082 -0.17873 0.37895
 C115 C 0.85166 -0.11828 0.36601
 C116 C 0.83719 -0.20476 0.43747
 N117 N 0.81564 -0.26257 0.44825
 N118 N 0.78822 -0.29582 0.40450
 C119 C 0.78081 -0.27376 0.34681
 H120 H 0.85866 -0.04771 0.29663
 H121 H 0.81239 -0.11013 0.21531
 H122 H 0.85864 -0.17948 0.47472
 H123 H 0.75739 -0.30235 0.31341
 C124 C 0.81344 0.16281 0.62826
 C125 C 0.78283 0.18421 0.68072
 C126 C 0.81466 0.19648 0.73540
 C127 C 0.87911 0.19388 0.73381
 C128 C 0.90978 0.18372 0.67735
 C129 C 0.87725 0.15925 0.62679
 C130 C 0.97268 0.19439 0.67528
 N131 N 1.00363 0.20308 0.72813
 N132 N 0.97565 0.20263 0.78244
 C133 C 0.91459 0.19792 0.78717
 H134 H 0.78692 0.14583 0.58976
 H135 H 0.73374 0.18620 0.68030
 H136 H 0.99769 0.19588 0.63257
 H137 H 0.89505 0.19608 0.83255
 C138 C 1.08074 -0.13470 0.67557
 C139 C 1.11085 -0.16316 0.72406
 C140 C 1.17338 -0.17416 0.72205
 C141 C 1.20454 -0.16018 0.66614
 C142 C 1.17388 -0.12918 0.61717
 C143 C 1.11155 -0.11289 0.62368
 C144 C 1.20716 -0.11603 0.56347
 N145 N 1.26600 -0.13315 0.55852
 N146 N 1.29393 -0.16300 0.60338
 C147 C 1.26517 -0.17743 0.65661
 H148 H 1.03259 -0.12819 0.67880
 H149 H 1.08532 -0.17592 0.76450
 H150 H 1.18717 -0.09375 0.52460
 H151 H 1.28974 -0.20366 0.69004
 C152 C 0.29930 1.08372 1.15221
 C153 C 0.25455 1.11848 1.18084
 C154 C 0.26193 1.18232 1.18967
 C155 C 0.31841 1.21020 1.17285
 C156 C 0.36474 1.17388 1.14491
 C157 C 0.35434 1.11034 1.13385
 C158 C 0.41942 1.20281 1.12779
 N159 N 0.42744 1.26410 1.13848
 N160 N 0.38444 1.29809 1.16501
 C161 C 0.33030 1.27329 1.18254
 H162 H 0.29008 1.03563 1.14202
 H163 H 0.21168 1.09618 1.19161
 H164 H 0.45573 1.17720 1.10612
 H165 H 0.29747 1.30303 1.20440
 C166 C 0.30474 0.91891 0.84925
 C167 C 0.25895 0.89213 0.81335
 C168 C 0.25893 0.82894 0.79949
 C169 C 0.30971 0.79347 0.81777
 C170 C 0.35698 0.82099 0.85357
 C171 C 0.35347 0.88399 0.87091
 C172 C 0.40496 0.78360 0.87272
 N173 N 0.40610 0.72318 0.85601
 N174 N 0.36244 0.69770 0.82173
 C175 C 0.31434 0.73074 0.80211
 H176 H 0.30105 0.96720 0.86191
 H177 H 0.21977 0.91936 0.80169
 H178 H 0.44145 0.80173 0.90086
 H179 H 0.28052 0.70791 0.77386
 C180 C 0.63280 0.85219 1.17616
 C181 C 0.67744 0.82276 1.20968
 C182 C 0.72895 0.79828 1.18099
 C183 C 0.73232 0.79984 1.11527
 C184 C 0.68333 0.82488 1.08115
 C185 C 0.63646 0.85690 1.11180
 C186 C 0.68225 0.81573 1.01741
 N187 N 0.73002 0.78921 0.98865
 N188 N 0.77916 0.77262 1.01957
 C189 C 0.78263 0.77859 1.08148
 H190 H 0.59668 0.87438 1.20170
 H191 H 0.67297 0.82117 1.25924
 H192 H 0.64268 0.82681 0.99086
 H193 H 0.82495 0.76719 1.10264
 C194 C 0.63543 1.17554 0.87559
 C195 C 0.68214 1.20771 0.84559
 C196 C 0.72700 1.17658 0.81077
 C197 C 0.71795 1.11199 0.79954
 C198 C 0.66411 1.08270 0.82125
 C199 C 0.62724 1.11231 0.86574
 C200 C 0.64912 1.02409 0.79791
 N201 N 0.68922 0.99320 0.76211
 N202 N 0.74392 1.01665 0.74981
 C203 C 0.76036 1.07407 0.76897
 H204 H 0.60677 1.19981 0.90810
 H205 H 0.68614 1.25686 0.85408
 H206 H 0.60550 1.00337 0.80668
 H207 H 0.80651 1.08813 0.76054
 C208 C 0.13358 0.36792 0.17194
 C209 C 0.15826 0.31811 0.20318
 C210 C 0.18614 0.26906 0.17170
 C211 C 0.19245 0.27381 0.10628
 C212 C 0.17334 0.32831 0.07593
 C213 C 0.13804 0.37258 0.10772
 C214 C 0.18922 0.33623 0.01395
 N215 N 0.21604 0.28992 -0.01770
 N216 N 0.22708 0.23600 0.00854
 C217 C 0.21496 0.22594 0.06876
 H218 H 0.10792 0.40138 0.19828
 H219 H 0.15360 0.31684 0.25272
 H220 H 0.18179 0.37941 -0.00901
 H221 H 0.22147 0.18008 0.08527
 C222 C -0.14922 0.36575 -0.17313
 C223 C -0.17998 0.31801 -0.20343
 C224 C -0.19735 0.26393 -0.17233
 C225 C -0.18948 0.26189 -0.10749
 C226 C -0.16628 0.31449 -0.07584
 C227 C -0.13864 0.36342 -0.10962
 C228 C -0.17037 0.31501 -0.01143
 N229 N -0.18758 0.26331 0.01899
 N230 N -0.20090 0.21109 -0.01069
 C231 C -0.20152 0.20834 -0.07289
 H232 H -0.13085 0.40331 -0.20031
 H233 H -0.18615 0.32120 -0.25266
 H234 H -0.16242 0.35652 0.01491
 H235 H -0.21121 0.16428 -0.09416
 C236 C 0.11070 0.65798 -0.18601
 C237 C 0.13964 0.70579 -0.21788
 C238 C 0.17224 0.75260 -0.18688
 C239 C 0.17731 0.74750 -0.12134
 C240 C 0.15669 0.69299 -0.09142
 C241 C 0.11749 0.65142 -0.12216
 C242 C 0.17721 0.68155 -0.03179
 N243 N 0.20693 0.72652 -0.00029
 N244 N 0.21633 0.78208 -0.02439
 C245 C 0.20100 0.79451 -0.08324
 H246 H 0.08206 0.62622 -0.21174
 H247 H 0.13526 0.70695 -0.26740
 H248 H 0.17048 0.63723 -0.01034
 H249 H 0.20595 0.84120 -0.09847
 C250 C -0.09114 0.67955 0.17416
 C251 C -0.12652 0.72177 0.20581
 C252 C -0.19012 0.71824 0.20338
 C253 C -0.21770 0.66544 0.17577
 C254 C -0.18148 0.62259 0.14248
 C255 C -0.11777 0.63188 0.13954
 C256 C -0.21093 0.57379 0.11141
 N257 N -0.27209 0.56708 0.11586
 N258 N -0.30572 0.60605 0.14878
 C259 C -0.28060 0.65495 0.17889
 H260 H -0.04234 0.68683 0.17317
 H261 H -0.10391 0.76086 0.22728
 H262 H -0.18625 0.54066 0.08405
 H263 H -0.30986 0.68467 0.20563
 C264 C 1.14471 0.17116 0.63719
 C265 C 1.16507 0.19810 0.69149
 C266 C 1.19669 0.16427 0.73680
 C267 C 1.21475 0.10213 0.71917
 C268 C 1.20276 0.08006 0.65830
 C269 C 1.16111 0.11138 0.62090
 C270 C 1.23081 0.02553 0.63782
 N271 N 1.26314 -0.00874 0.67723
 N272 N 1.26679 0.00660 0.73618
 C273 C 1.24146 0.05869 0.75883
 H274 H 1.11489 0.19726 0.60783
 H275 H 1.15316 0.24592 0.69868
 H276 H 1.22931 0.01050 0.59073
 H277 H 1.24114 0.06269 0.80764
 C278 C 0.81780 -0.11487 0.64641
 C279 C 0.79429 -0.15626 0.68976
 C280 C 0.83034 -0.17660 0.73853
 C281 C 0.89206 -0.15660 0.73942
 C282 C 0.90771 -0.10156 0.70888
 C283 C 0.87437 -0.08546 0.65613
 C284 C 0.95362 -0.06429 0.73546
 N285 N 0.98816 -0.08712 0.78136
 N286 N 0.98105 -0.14505 0.80028
 C287 C 0.93546 -0.18134 0.77846
 H288 H 0.79000 -0.10271 0.60744
 H289 H 0.74736 -0.17122 0.68641
 H290 H 0.96118 -0.01708 0.72264
 H291 H 0.93431 -0.22928 0.78988
 C292 C 1.11954 -0.16658 0.35856
 C293 C 1.14430 -0.20505 0.31372
 C294 C 1.18594 -0.18259 0.26984
 C295 C 1.20168 -0.11794 0.27256
 C296 C 1.18194 -0.08079 0.32287
 C297 C 1.13716 -0.10442 0.36372
 C298 C 1.20473 -0.01969 0.32736
 N299 N 1.23877 0.00427 0.28143
 N300 N 1.25000 -0.02782 0.23057
 C301 C 1.23089 -0.08689 0.22373
 H302 H 1.08548 -0.18561 0.38933
 H303 H 1.13014 -0.25306 0.31292
 H304 H 1.19686 0.00990 0.36626
 H305 H 1.23697 -0.10758 0.17920
 C306 C 0.79802 0.12322 0.35154
 C307 C 0.76903 0.16327 0.31133
 C308 C 0.80411 0.19891 0.26992
 C309 C 0.86385 0.21497 0.29130
 C310 C 0.89386 0.17386 0.33108
 C311 C 0.86156 0.12311 0.35535
 C312 C 0.95327 0.18799 0.34985
 N313 N 0.97984 0.24187 0.33278
 N314 N 0.95009 0.28301 0.29960
 C315 C 0.89266 0.27205 0.27981
 H316 H 0.77106 0.08975 0.37678
 H317 H 0.72041 0.15832 0.30570
 H318 H 0.97729 0.15840 0.38070
 H319 H 0.86914 0.30953 0.25905
 C320 C 0.08054 0.28912 -0.15927
 C321 C 0.11444 0.24238 -0.18591
 C322 C 0.17795 0.24540 -0.18846
 C323 C 0.20673 0.30219 -0.17106
 C324 C 0.17161 0.35135 -0.14575
 C325 C 0.10796 0.34332 -0.13775
 C326 C 0.20197 0.40623 -0.12849
 N327 N 0.26253 0.41234 -0.13820
 N328 N 0.29472 0.36763 -0.16444
 C329 C 0.26885 0.31320 -0.18158
 H330 H 0.03205 0.28258 -0.15417
 H331 H 0.09167 0.20040 -0.20011
 H332 H 0.17874 0.44431 -0.10701
 H333 H 0.29669 0.28035 -0.20541
 C334 C -0.15014 0.34779 0.14083
 C335 C -0.19360 0.30726 0.16502
 C336 C -0.18140 0.24393 0.17033
 C337 C -0.12501 0.22164 0.14776
 C338 C -0.07841 0.26357 0.13123
 C339 C -0.09231 0.32675 0.12365
 C340 C -0.01924 0.24035 0.12367
 N341 N -0.01003 0.17859 0.12348
 N342 N -0.05588 0.13882 0.13073
 C343 C -0.11307 0.15844 0.14231
 H344 H -0.16185 0.39592 0.13574
 H345 H -0.23522 0.32611 0.18350
 H346 H 0.01987 0.27050 0.11892
 H347 H -0.14909 0.12499 0.14367
 C348 C -0.14270 0.64183 -0.18067
 C349 C -0.17883 0.69040 -0.20183
 C350 C -0.17716 0.74882 -0.17291
 C351 C -0.13865 0.75721 -0.12142
 C352 C -0.09212 0.71452 -0.11209
 C353 C -0.09829 0.65332 -0.13586
 C354 C -0.03892 0.73675 -0.08292
 N355 N -0.03927 0.79150 -0.05257
 N356 N -0.08865 0.82621 -0.05127
 C357 C -0.13833 0.81061 -0.08463
 H358 H -0.14801 0.59617 -0.20059
 H359 H -0.20799 0.68281 -0.24116
 H360 H 0.00311 0.71179 -0.08490
 H361 H -0.17779 0.83815 -0.07923
 C362 C 0.14828 0.63067 0.16297
 C363 C 0.17864 0.67309 0.20091
 C364 C 0.16763 0.73670 0.19704
 C365 C 0.12613 0.75778 0.15227
 C366 C 0.10290 0.71583 0.10749
 C367 C 0.11120 0.65060 0.11496
 C368 C 0.07430 0.74198 0.05602
 N369 N 0.06338 0.80325 0.05347
 N370 N 0.08052 0.84139 0.09821
 C371 C 0.11197 0.82092 0.14705
 H372 H 0.15559 0.58181 0.16971
 H373 H 0.21110 0.65634 0.23399
 H374 H 0.06441 0.71636 0.01539
 H375 H 0.12553 0.85472 0.18062
 C376 C 0.35283 1.13326 0.85270
 C377 C 0.31147 1.16433 0.81654
 C378 C 0.25049 1.16977 0.83429
 C379 C 0.23141 1.14267 0.89114
 C380 C 0.27414 1.11188 0.92907
 C381 C 0.33535 1.10476 0.90794
 C382 C 0.25211 1.08593 0.98447
 N383 N 0.19223 1.08670 0.99833
 N384 N 0.15207 1.11099 0.96053
 C385 C 0.16950 1.13793 0.90741
 H386 H 0.39880 1.12903 0.83538
 H387 H 0.32652 1.18181 0.77245
 H388 H 0.28021 1.06509 1.01788
 H389 H 0.13413 1.15188 0.87756
 C390 C 0.31469 0.81888 1.10473
 C391 C 0.27029 0.78343 1.13368
 C392 C 0.26438 0.78461 1.19837
 C393 C 0.31572 0.80479 1.23260
 C394 C 0.36356 0.83714 1.20249
 C395 C 0.35797 0.85127 1.13922
 C396 C 0.41436 0.85457 1.23713
 N397 N 0.41625 0.84231 1.29818
 N398 N 0.37066 0.81337 1.32673
 C399 C 0.32051 0.79395 1.29593
 H400 H 0.31188 0.82547 1.05549
 H401 H 0.23508 0.76441 1.10506
 H402 H 0.45384 0.87413 1.21559
 H403 H 0.28553 0.76892 1.32071
 C404 C 0.63905 1.18055 1.12667
 C405 C 0.69127 1.20947 1.14980
 C406 C 0.73435 1.17731 1.18495
 C407 C 0.72506 1.11206 1.19212
 C408 C 0.66934 1.08378 1.17343
 C409 C 0.62604 1.11855 1.13892
 C410 C 0.66121 1.02024 1.18714
 N411 N 0.70655 0.98715 1.21193
 N412 N 0.76002 1.01255 1.22459
 C413 C 0.77099 1.07309 1.21488
 H414 H 0.60821 1.20712 1.09886
 H415 H 0.69699 1.25806 1.14066
 H416 H 0.62029 0.99493 1.17899
 H417 H 0.81546 1.08987 1.22710
 C418 C 0.64700 0.84407 0.85729
 C419 C 0.69356 0.81284 0.82641
 C420 C 0.75214 0.83849 0.82170
 C421 C 0.76344 0.89787 0.84819
 C422 C 0.71827 0.92596 0.88515
 C423 C 0.65880 0.89974 0.88838
 C424 C 0.73460 0.97988 0.91778
 N425 N 0.79012 1.00610 0.91123
 N426 N 0.83187 0.98082 0.87533
 C427 C 0.82057 0.92769 0.84441
 H428 H 0.60204 0.82341 0.85908
 H429 H 0.68400 0.76814 0.80589
 H430 H 0.70510 1.00087 0.94959
 H431 H 0.85797 0.90780 0.82171
   
