data_POSCAR
  _audit_creation_date              2014-09-24
  _audit_creation_method            'ToBaCCo'
  _symmetry_space_group_name_H-M    'P1'
  _symmetry_Int_Tables_number       1
  _symmetry_cell_setting            triclinic
  loop_
  _symmetry_equiv_pos_as_xyz
 x,y,z
_cell_length_a 30.6069
_cell_length_b 30.2005
_cell_length_c 31.6165
_cell_angle_alpha 89.916100
_cell_angle_beta 92.039400
_cell_angle_gamma 89.826800
loop_
  _atom_site_label
  _atom_site_type_symbol
  _atom_site_fract_x
  _atom_site_fract_y
  _atom_site_fract_z
C1 C 0.32222 0.38564 1.37733
 N2 N 0.33749 0.34668 1.39317
 C3 C 0.37211 0.32554 1.37642
 N4 N 0.39138 0.34389 1.34211
 C5 C 0.37683 0.38378 1.32631
 N6 N 0.34258 0.40414 1.34440
 C7 C 1.18765 0.60878 0.88129
 N8 N 1.16753 0.59240 0.84552
 C9 C 1.12972 0.61064 0.82977
 N10 N 1.11228 0.64597 0.84958
 C11 C 1.13220 0.66349 0.88477
 N12 N 1.16978 0.64448 0.90049
 C13 C 0.68993 -0.12360 0.13613
 N14 N 0.67497 -0.10501 0.17200
 C15 C 0.63880 -0.12045 0.19029
 N16 N 0.61743 -0.15541 0.17288
 C17 C 0.63188 -0.17555 0.13762
 N18 N 0.66831 -0.15931 0.11909
 C19 C -0.20873 1.14733 -0.36569
 N20 N -0.19048 1.18169 -0.38612
 C21 C -0.15172 1.19875 -0.37218
 N22 N -0.13166 1.18125 -0.33704
 C23 C -0.14925 1.14652 -0.31642
 N24 N -0.18794 1.12931 -0.33104
 C25 C 0.69027 0.63043 0.64610
 N26 N 0.67782 0.61215 0.68293
 C27 C 0.63931 0.62290 0.69994
 N28 N 0.61282 0.65307 0.68000
 C29 C 0.62474 0.67259 0.64324
 N30 N 0.66361 0.66076 0.62624
 C31 C 0.85601 0.38386 0.11453
 N32 N 0.86630 0.39218 0.15596
 C33 C 0.90023 0.37075 0.17620
 N34 N 0.92219 0.33857 0.15520
 C35 C 0.91234 0.33017 0.11356
 N36 N 0.88013 0.35395 0.09355
 C37 C 0.31036 0.13836 0.85255
 N38 N 0.33213 0.17356 0.86985
 C39 C 0.36821 0.18967 0.85160
 N40 N 0.38201 0.17094 0.81565
 C41 C 0.36113 0.13559 0.79803
 N42 N 0.32513 0.11906 0.81669
 C43 C 0.15234 0.88838 0.36827
 N44 N 0.13376 0.90624 0.33257
 C45 C 0.09505 0.89132 0.31650
 N46 N 0.07458 0.85783 0.33611
 C47 C 0.09280 0.83872 0.37143
 N48 N 0.13183 0.85420 0.38736
 Zn49 Zn 0.00768 1.04738 -0.04206
 Zn50 Zn -0.03857 0.95911 -0.04855
 Zn51 Zn 0.05099 0.96617 -0.00780
 Zn52 Zn -0.02598 1.00414 0.03417
 O53 O -0.00150 0.99418 -0.01629
 O54 O -0.02534 1.05247 -0.08947
 O55 O -0.01348 0.90770 -0.06382
 O56 O 0.09523 0.99387 -0.03207
 O57 O -0.05765 0.98701 -0.09580
 O58 O 0.06334 1.05450 -0.05772
 O59 O 0.05096 0.91236 -0.03021
 O60 O 0.00571 0.98193 0.07660
 O61 O -0.08725 0.94329 -0.02173
 O62 O 0.06592 0.95844 0.04703
 O63 O -0.07872 0.97970 0.03849
 O64 O -0.03014 1.06134 0.04720
 O65 O -0.00460 1.09447 -0.00920
 C66 C -0.05088 1.02597 -0.10935
 C67 C 0.02357 0.89113 -0.05326
 C68 C 0.09690 1.02994 -0.05255
 C69 C 0.04347 0.96483 0.07945
 C70 C -0.10084 0.95402 0.01435
 C71 C -0.01950 1.09621 0.02779
 Zn72 Zn 0.45639 -0.00397 0.44476
 Zn73 Zn 0.45530 -0.05129 0.52889
 Zn74 Zn 0.53867 -0.03632 0.48470
 Zn75 Zn 0.49228 0.04047 0.52105
 O76 O 0.48548 -0.01290 0.49508
 O77 O 0.40417 -0.02916 0.44411
 O78 O 0.48579 -0.10199 0.54196
 O79 O 0.54877 -0.04284 0.42971
 O80 O 0.40415 -0.06773 0.50384
 O81 O 0.48373 -0.02675 0.40106
 O82 O 0.54556 -0.08991 0.50650
 O83 O 0.54806 0.05108 0.53649
 O84 O 0.43959 -0.02561 0.57786
 O85 O 0.58244 -0.00563 0.50831
 O86 O 0.46325 0.04287 0.56877
 O87 O 0.47415 0.08698 0.48895
 O88 O 0.44850 0.05343 0.43118
 C89 C 0.38552 -0.05530 0.46922
 C90 C 0.52316 -0.11448 0.52987
 C91 C 0.52263 -0.04040 0.39775
 C92 C 0.58286 0.02945 0.53022
 C93 C 0.44324 0.01432 0.59032
 C94 C 0.45726 0.08855 0.45168
 Zn95 Zn 1.00755 0.45099 0.47784
 Zn96 Zn 1.05692 0.52848 0.51073
 Zn97 Zn 0.96827 0.54156 0.46756
 Zn98 Zn 0.97813 0.50049 0.55355
 O99 O 1.00251 0.50543 0.50220
 O100 O 1.06309 0.43535 0.46917
 O101 O 1.06071 0.58166 0.48833
 O102 O 0.95244 0.51502 0.41764
 O103 O 1.09892 0.49596 0.48852
 O104 O 0.98069 0.44799 0.42681
 O105 O 0.99639 0.59228 0.45541
 O106 O 0.92812 0.53026 0.55602
 O107 O 1.07307 0.53571 0.56529
 O108 O 0.91823 0.55907 0.49203
 O109 O 1.01223 0.51920 0.59705
 O110 O 0.96556 0.44482 0.56607
 O111 O 0.98507 0.40803 0.50904
 C112 C 1.09830 0.45721 0.47326
 C113 C 1.03441 0.60580 0.46667
 C114 C 0.95940 0.47593 0.40415
 C115 C 0.90546 0.55301 0.52948
 C116 C 1.05166 0.53197 0.59869
 C117 C 0.96922 0.40913 0.54552
 Zn118 Zn 0.48319 0.48286 0.96313
 Zn119 Zn 0.56680 0.51733 0.99688
 Zn120 Zn 0.48565 0.52817 1.04813
 Zn121 Zn 0.52768 0.43891 1.03660
 O122 O 0.51557 0.49207 1.01151
 O123 O 0.50725 0.50390 0.91647
 O124 O 0.57239 0.57068 1.01879
 O125 O 0.43215 0.54432 1.02584
 O126 O 0.57191 0.52576 0.94122
 O127 O 0.43158 0.50901 0.96453
 O128 O 0.51519 0.57982 1.05892
 O129 O 0.50470 0.43479 1.08674
 O130 O 0.61424 0.48838 1.01665
 O131 O 0.47538 0.50043 1.09866
 O132 O 0.58481 0.43061 1.04798
 O133 O 0.50628 0.39217 1.00738
 O134 O 0.47243 0.42588 0.95330
 C135 C 0.54436 0.52091 0.91068
 C136 C 0.55067 0.59408 1.04381
 C137 C 0.41311 0.53392 0.99075
 C138 C 0.48438 0.46086 1.11047
 C139 C 0.61776 0.45382 1.03928
 C140 C 0.48295 0.39084 0.97336
 C141 C 1.27287 0.44917 0.38200
 C142 C 1.28483 0.40559 0.39361
 C143 C 1.25756 0.38168 0.42047
 C144 C 1.21840 0.40024 0.43397
 C145 C 1.20736 0.44426 0.42266
 C146 C 1.23497 0.46854 0.39701
 C147 C 1.16842 0.46296 0.43648
 C148 C 1.13943 0.43752 0.45975
 C149 C 1.14994 0.39346 0.46992
 C150 C 1.18953 0.37514 0.45773
 H151 H 1.26562 0.34788 0.42942
 H152 H 1.22682 0.50223 0.38784
 H153 H 1.16001 0.49686 0.42816
 H154 H 1.19727 0.34120 0.46636
 H155 H 1.29300 0.46869 0.36158
 H156 H 1.12784 0.37352 0.48794
 C157 C 0.24590 0.55351 0.87681
 C158 C 0.22682 0.58958 0.89766
 C159 C 0.24807 0.60606 0.93487
 C160 C 0.28772 0.58738 0.95029
 C161 C 0.30646 0.55182 0.92837
 C162 C 0.28518 0.53494 0.89196
 C163 C 0.34660 0.53400 0.94271
 C164 C 0.36893 0.55123 0.97873
 C165 C 0.34961 0.58594 1.00106
 C166 C 0.30934 0.60390 0.98693
 H167 H 0.23414 0.63361 0.95179
 H168 H 0.29916 0.50754 0.87489
 H169 H 0.36078 0.50699 0.92522
 H170 H 0.29542 0.63109 1.00431
 H171 H 0.23078 0.53961 0.84833
 H172 H 0.36606 0.59985 1.02885
 C173 C -0.25051 0.93000 0.13819
 C174 C -0.27255 0.89442 0.11786
 C175 C -0.25618 0.87833 0.07953
 C176 C -0.21873 0.89749 0.06223
 C177 C -0.19723 0.93272 0.08362
 C178 C -0.21344 0.94870 0.12140
 C179 C -0.15953 0.95140 0.06725
 C180 C -0.14248 0.93560 0.02946
 C181 C -0.16441 0.90106 0.00778
 C182 C -0.20214 0.88213 0.02405
 H183 H -0.27245 0.85121 0.06306
 H184 H -0.19734 0.97574 0.13814
 H185 H -0.14322 0.97810 0.08433
 H186 H -0.21809 0.85526 0.00697
 H187 H -0.26158 0.94367 0.16761
 H188 H -0.15196 0.88812 -0.02137
 C189 C 0.71465 0.16156 0.61067
 C190 C 0.74859 0.13115 0.61908
 C191 C 0.74261 0.08630 0.60947
 C192 C 0.70322 0.07209 0.59005
 C193 C 0.66896 0.10289 0.58190
 C194 C 0.67483 0.14745 0.59279
 C195 C 0.62967 0.08881 0.56238
 C196 C 0.62454 0.04458 0.54977
 C197 C 0.65896 0.01434 0.55734
 C198 C 0.69785 0.02789 0.57768
 H199 H 0.76920 0.06303 0.61533
 H200 H 0.64903 0.17150 0.58661
 H201 H 0.60335 0.11238 0.55645
 H202 H 0.72380 0.00391 0.58344
 H203 H 0.71913 0.19637 0.61780
 H204 H 0.65550 -0.02006 0.54821
 C205 C 0.37281 0.27401 0.43598
 C206 C 0.38690 0.28543 0.39528
 C207 C 0.41454 0.25551 0.37459
 C208 C 0.42606 0.21446 0.39359
 C209 C 0.41214 0.20443 0.43472
 C210 C 0.38591 0.23461 0.45565
 C211 C 0.42371 0.16389 0.45399
 C212 C 0.44714 0.13198 0.43193
 C213 C 0.45998 0.14147 0.39065
 C214 C 0.45025 0.18266 0.37192
 H215 H 0.42543 0.26309 0.34315
 H216 H 0.37473 0.22738 0.48706
 H217 H 0.41318 0.15647 0.48562
 H218 H 0.46096 0.18930 0.34025
 H219 H 0.35198 0.29596 0.45341
 H220 H 0.47808 0.11716 0.37314
 C221 C 0.84948 0.24864 0.56698
 C222 C 0.86704 0.23428 0.60651
 C223 C 0.90350 0.25654 0.62457
 C224 C 0.92113 0.29320 0.60429
 C225 C 0.90353 0.30682 0.56439
 C226 C 0.86798 0.28414 0.54587
 C227 C 0.92097 0.34373 0.54429
 C228 C 0.95426 0.36821 0.56459
 C229 C 0.97128 0.35504 0.60437
 C230 C 0.95534 0.31723 0.62383
 H231 H 0.91740 0.24647 0.65513
 H232 H 0.85396 0.29434 0.51543
 H233 H 0.90748 0.35459 0.51380
 H234 H 0.96899 0.30744 0.65454
 H235 H 0.82162 0.23222 0.55194
 H236 H 0.99691 0.37407 0.62028
 C237 C 0.13759 0.72235 -0.06215
 C238 C 0.11543 0.70214 -0.09685
 C239 C 0.07713 0.72259 -0.11396
 C240 C 0.06244 0.76308 -0.09794
 C241 C 0.08598 0.78350 -0.06415
 C242 C 0.12305 0.76258 -0.04607
 C243 C 0.07256 0.82489 -0.04939
 C244 C 0.03575 0.84640 -0.06789
 C245 C 0.01177 0.82528 -0.10072
 C246 C 0.02507 0.78399 -0.11570
 H247 H 0.05909 0.70768 -0.14038
 H248 H 0.14127 0.77771 -0.01990
 H249 H 0.09113 0.84053 -0.02371
 H250 H 0.00648 0.76871 -0.14155
 H251 H 0.16688 0.70769 -0.04781
 H252 H -0.01675 0.84108 -0.11540
 C253 C 0.57242 0.77074 1.14241
 C254 C 0.61015 0.78612 1.12245
 C255 C 0.62623 0.76121 1.08873
 C256 C 0.60627 0.72104 1.07660
 C257 C 0.56921 0.70567 1.09769
 C258 C 0.55224 0.73118 1.13013
 C259 C 0.55024 0.66468 1.08657
 C260 C 0.56828 0.63855 1.05485
 C261 C 0.60474 0.65472 1.03363
 C262 C 0.62342 0.69546 1.04429
 H263 H 0.65501 0.77217 1.07268
 H264 H 0.52375 0.72018 1.14657
 H265 H 0.52218 0.65279 1.10316
 H266 H 0.65170 0.70663 1.02761
 H267 H 0.55846 0.78890 1.16820
 H268 H 0.61929 0.63567 1.00875
 C269 C 0.38232 0.44823 1.27662
 C270 C 0.39641 0.40543 1.28903
 C271 C 0.42751 0.38378 1.26469
 C272 C 0.44312 0.40400 1.22796
 C273 C 0.42787 0.44654 1.21545
 C274 C 0.39785 0.46849 1.24039
 C275 C 0.44218 0.46601 1.17780
 C276 C 0.47130 0.44319 1.15217
 C277 C 0.48694 0.40129 1.16566
 C278 C 0.47311 0.38201 1.20302
 H279 H 0.43880 0.35093 1.27367
 H280 H 0.38584 0.50113 1.23157
 H281 H 0.42979 0.49821 1.16797
 H282 H 0.48539 0.34952 1.21204
 H283 H 0.35868 0.46619 1.29468
 H284 H 0.50968 0.38285 1.14694
 C285 C 0.65379 -0.08122 0.25871
 C286 C 0.62376 -0.10068 0.22975
 C287 C 0.57938 -0.10250 0.23931
 C288 C 0.56513 -0.08565 0.27769
 C289 C 0.59579 -0.06760 0.30738
 C290 C 0.63997 -0.06515 0.29742
 C291 C 0.58176 -0.05264 0.34660
 C292 C 0.53733 -0.05453 0.35605
 C293 C 0.50693 -0.07111 0.32578
 C294 C 0.52076 -0.08692 0.28704
 H295 H 0.55595 -0.11700 0.21686
 H296 H 0.66386 -0.05113 0.31966
 H297 H 0.60530 -0.03942 0.36967
 H298 H 0.49683 -0.10038 0.26452
 H299 H 0.68818 -0.07958 0.25191
 H300 H 0.47253 -0.07290 0.33252
 C301 C -0.09193 1.15290 -0.25868
 C302 C -0.12657 1.12884 -0.27787
 C303 C -0.13902 1.08835 -0.25990
 C304 C -0.11708 1.07221 -0.22323
 C305 C -0.08264 1.09706 -0.20418
 C306 C -0.07028 1.13724 -0.22217
 C307 C -0.06110 1.08151 -0.16731
 C308 C -0.07320 1.04118 -0.14900
 C309 C -0.10709 1.01628 -0.16841
 C310 C -0.12893 1.03173 -0.20517
 H311 H -0.16548 1.06934 -0.27446
 H312 H -0.04390 1.15663 -0.20796
 H313 H -0.03487 1.10097 -0.15287
 H314 H -0.15517 1.01214 -0.21935
 H315 H -0.08165 1.18424 -0.27165
 H316 H -0.11708 0.98510 -0.15490
 C317 C 1.06284 0.59621 0.78452
 C318 C 1.10850 0.59380 0.79034
 C319 C 1.13374 0.57762 0.75742
 C320 C 1.11364 0.56530 0.71857
 C321 C 1.06762 0.56762 0.71315
 C322 C 1.04251 0.58270 0.74647
 C323 C 1.04752 0.55573 0.67423
 C324 C 1.07288 0.54290 0.64010
 C325 C 1.11862 0.54113 0.64566
 C326 C 1.13880 0.55176 0.68468
 H327 H 1.16904 0.57627 0.76147
 H328 H 1.00723 0.58485 0.74283
 H329 H 1.01224 0.55763 0.67015
 H330 H 1.17411 0.54999 0.68816
 H331 H 1.04282 0.60858 0.80951
 H332 H 1.13879 0.53115 0.61985
 C333 C 0.76438 0.59757 0.65749
 C334 C 0.73336 0.61760 0.62958
 C335 C 0.74362 0.62311 0.58674
 C336 C 0.78384 0.60730 0.57201
 C337 C 0.81396 0.58652 0.60062
 C338 C 0.80415 0.58234 0.64325
 C339 C 0.85337 0.56958 0.58630
 C340 C 0.86377 0.57264 0.54346
 C341 C 0.83407 0.59392 0.51508
 C342 C 0.79443 0.61108 0.52923
 H343 H 0.72007 0.63843 0.56484
 H344 H 0.82705 0.56672 0.66559
 H345 H 0.87591 0.55362 0.60879
 H346 H 0.77192 0.62692 0.50668
 H347 H 0.75787 0.59331 0.69070
 H348 H 0.84126 0.59689 0.48191
 C349 C 0.81258 0.39992 1.04999
 C350 C 0.81824 0.40175 1.09445
 C351 C 0.78340 0.41716 1.11841
 C352 C 0.74266 0.42674 1.09865
 C353 C 0.73752 0.42472 1.05401
 C354 C 0.77302 0.41228 1.02998
 C355 C 0.69664 0.43397 1.03432
 C356 C 0.66047 0.44270 1.05894
 C357 C 0.66550 0.44361 1.10320
 C358 C 0.70643 0.43644 1.12292
 H359 H 0.78668 0.41823 1.15266
 H360 H 0.76971 0.41046 0.99579
 H361 H 0.69265 0.43332 1.00011
 H362 H 0.70958 0.43774 1.15714
 H363 H 0.83878 0.38864 1.03047
 H364 H 0.63781 0.45093 1.12246
 C365 C 0.24011 1.15679 -0.11416
 C366 C 0.26870 1.12443 -0.12932
 C367 C 0.25719 1.07954 -0.12662
 C368 C 0.21782 1.06715 -0.10818
 C369 C 0.18891 1.10014 -0.09387
 C370 C 0.20038 1.14484 -0.09711
 C371 C 0.14921 1.08791 -0.07620
 C372 C 0.13863 1.04304 -0.07119
 C373 C 0.16803 1.01048 -0.08454
 C374 C 0.20700 1.02240 -0.10333
 H375 H 0.27929 1.05440 -0.13787
 H376 H 0.17880 1.17055 -0.08612
 H377 H 0.12694 1.11324 -0.06561
 H378 H 0.22878 0.99661 -0.11382
 H379 H 0.24827 1.19160 -0.11612
 H380 H 0.16044 0.97567 -0.08115
 C381 C 0.21375 -0.06118 0.36215
 C382 C 0.19319 -0.09607 0.38346
 C383 C 0.21490 -0.11521 0.41919
 C384 C 0.25663 -0.10037 0.43256
 C385 C 0.27673 -0.06594 0.41015
 C386 C 0.25494 -0.04638 0.37534
 C387 C 0.31853 -0.05160 0.42259
 C388 C 0.34108 -0.07098 0.45737
 C389 C 0.32082 -0.10484 0.48004
 C390 C 0.27891 -0.11950 0.46766
 H391 H 0.19982 -0.14195 0.43628
 H392 H 0.26994 -0.01979 0.35800
 H393 H 0.33351 -0.02517 0.40499
 H394 H 0.26406 -0.14589 0.48536
 H395 H 0.19832 -0.04525 0.33476
 H396 H 0.33750 -0.12025 0.50705
 C397 C 0.55968 -0.27949 0.64380
 C398 C 0.59843 -0.29348 0.62472
 C399 C 0.61125 -0.27122 0.58798
 C400 C 0.58732 -0.23467 0.57203
 C401 C 0.54950 -0.22008 0.59240
 C402 C 0.53559 -0.24330 0.62784
 C403 C 0.52708 -0.18182 0.57771
 C404 C 0.54259 -0.15770 0.54323
 C405 C 0.57948 -0.17365 0.52253
 C406 C 0.60147 -0.21168 0.53664
 H407 H 0.64060 -0.28131 0.57232
 H408 H 0.50655 -0.23290 0.64382
 H409 H 0.49876 -0.17000 0.59401
 H410 H 0.63021 -0.22249 0.52041
 H411 H 0.54823 -0.29580 0.67183
 H412 H 0.59202 -0.15619 0.49561
 C413 C 1.03316 0.78498 0.37165
 C414 C 1.07348 0.80087 0.38851
 C415 C 1.09548 0.77622 0.42054
 C416 C 1.07926 0.73518 0.43322
 C417 C 1.03960 0.71897 0.41500
 C418 C 1.01633 0.74462 0.38496
 C419 C 1.02445 0.67696 0.42638
 C420 C 1.04898 0.65065 0.45519
 C421 C 1.08809 0.66748 0.47353
 C422 C 1.10296 0.70940 0.46282
 H423 H 1.12639 0.78768 0.43425
 H424 H 0.98572 0.73291 0.37086
 H425 H 0.99420 0.66443 0.41215
 H426 H 1.13339 0.72130 0.47714
 H427 H 1.01482 0.80320 0.34737
 H428 H 1.10744 0.64817 0.49624
 C429 C -0.07385 1.29189 0.04737
 C430 C -0.06865 1.29464 0.09186
 C431 C -0.04867 1.25891 0.11389
 C432 C -0.03834 1.21966 0.09233
 C433 C -0.04481 1.21723 0.04784
 C434 C -0.06131 1.25404 0.02562
 C435 C -0.03664 1.17741 0.02650
 C436 C -0.02425 1.13926 0.04933
 C437 C -0.01771 1.14197 0.09351
 C438 C -0.02397 1.18195 0.11473
 H439 H -0.04462 1.25999 0.14808
 H440 H -0.06639 1.25289 -0.00846
 H441 H -0.04207 1.17548 -0.00753
 H442 H -0.01899 1.18296 0.14882
 H443 H -0.08835 1.31891 0.02912
 H444 H -0.00775 1.11298 0.11167
 C445 C 0.40376 0.26222 0.84032
 C446 C 0.39071 0.22921 0.86846
 C447 C 0.40031 0.23386 0.91199
 C448 C 0.42308 0.27128 0.92723
 C449 C 0.43484 0.30495 0.89867
 C450 C 0.42516 0.30004 0.85532
 C451 C 0.45566 0.34326 0.91392
 C452 C 0.46579 0.34822 0.95730
 C453 C 0.45581 0.31385 0.98531
 C454 C 0.43427 0.27580 0.97044
 H455 H 0.39084 0.20806 0.93370
 H456 H 0.43419 0.32541 0.83301
 H457 H 0.46357 0.36951 0.89205
 H458 H 0.42589 0.25021 0.99277
 H459 H 0.39669 0.25905 0.80664
 H460 H 0.46310 0.31718 1.01893
 C461 C 0.66155 0.59174 0.77045
 C462 C 0.62798 0.60324 0.74091
 C463 C 0.58430 0.59502 0.75060
 C464 C 0.57436 0.57513 0.78933
 C465 C 0.60841 0.56457 0.81911
 C466 C 0.65186 0.57298 0.80932
 C467 C 0.59852 0.54602 0.85831
 C468 C 0.55501 0.53711 0.86808
 C469 C 0.52146 0.54642 0.83776
 C470 C 0.53101 0.56552 0.79886
 H471 H 0.55827 0.60333 0.72778
 H472 H 0.67836 0.56497 0.83169
 H473 H 0.62470 0.53876 0.88131
 H474 H 0.50448 0.57308 0.77637
 H475 H 0.69545 0.59786 0.76368
 H476 H 0.48762 0.54009 0.84461
 C477 C 0.40152 0.14631 0.73207
 C478 C 0.37677 0.11820 0.75739
 C479 C 0.36891 0.07437 0.74393
 C480 C 0.38672 0.05879 0.70611
 C481 C 0.41179 0.08765 0.68151
 C482 C 0.41867 0.13131 0.69458
 C483 C 0.42995 0.07261 0.64417
 C484 C 0.42388 0.02876 0.63048
 C485 C 0.39897 -0.00001 0.65501
 C486 C 0.38049 0.01490 0.69248
 H487 H 0.35002 0.05233 0.76320
 H488 H 0.43768 0.15386 0.67594
 H489 H 0.44903 0.09534 0.62578
 H490 H 0.36146 -0.00788 0.71080
 H491 H 0.40774 0.18033 0.74121
 H492 H 0.39363 -0.03395 0.64517
 C493 C 0.03317 0.90899 0.26609
 C494 C 0.07828 0.90747 0.27534
 C495 C 0.10777 0.91856 0.24403
 C496 C 0.09238 0.93001 0.20333
 C497 C 0.04686 0.93192 0.19434
 C498 C 0.01750 0.92171 0.22594
 C499 C 0.03142 0.94342 0.15375
 C500 C 0.06076 0.95210 0.12163
 C501 C 0.10592 0.94931 0.13047
 C502 C 0.12167 0.93872 0.17123
 H503 H 0.14270 0.91660 0.25089
 H504 H -0.01748 0.92285 0.21940
 H505 H -0.00355 0.94499 0.14698
 H506 H 0.15666 0.93710 0.17760
 H507 H 0.01010 0.90031 0.28993
 H508 H 0.12897 0.95605 0.10607
 C509 C 0.94223 0.35603 0.24472
 C510 C 0.91345 0.38308 0.22046
 C511 C 0.89863 0.42301 0.23829
 C512 C 0.91289 0.43598 0.27925
 C513 C 0.94179 0.40842 0.30315
 C514 C 0.95604 0.36842 0.28569
 C515 C 0.95636 0.42150 0.34393
 C516 C 0.94295 0.46219 0.36123
 C517 C 0.91427 0.48938 0.33702
 C518 C 0.89924 0.47633 0.29654
 H519 H 0.87674 0.44453 0.22000
 H520 H 0.97825 0.34688 0.30357
 H521 H 0.97865 0.40014 0.36196
 H522 H 0.87714 0.49797 0.27864
 H523 H 0.95418 0.32518 0.23201
 H524 H 0.90333 0.52077 0.34941
   
