data_POSCAR
  _audit_creation_date              2014-09-24
  _audit_creation_method            'ToBaCCo'
  _symmetry_space_group_name_H-M    'P1'
  _symmetry_Int_Tables_number       1
  _symmetry_cell_setting            triclinic
  loop_
  _symmetry_equiv_pos_as_xyz
 x,y,z
_cell_length_a 62.0632
_cell_length_b 61.5692
_cell_length_c 61.7534
_cell_angle_alpha 89.880100
_cell_angle_beta 89.364800
_cell_angle_gamma 90.262900
loop_
  _atom_site_label
  _atom_site_type_symbol
  _atom_site_fract_x
  _atom_site_fract_y
  _atom_site_fract_z
N1 N 0.29029 0.25299 0.23317
 N2 N 0.28126 0.27075 0.22583
 C3 C 0.29202 0.27744 0.20796
 C4 C 0.30874 0.26310 0.20383
 C5 C 0.30708 0.24779 0.22027
 H6 H 0.28770 0.29145 0.19841
 H7 H 0.31723 0.23380 0.22266
 Cu8 Cu 0.25588 0.28313 0.23979
 Cu9 Cu 0.27926 0.23758 0.25848
 Cu10 Cu 0.23298 0.25764 0.28277
 N11 N 0.22927 0.29339 0.25315
 N12 N 0.22039 0.28342 0.26984
 C13 C 0.20204 0.29365 0.27541
 C14 C 0.19915 0.31102 0.26141
 C15 C 0.21682 0.31029 0.24750
 H16 H 0.19144 0.28854 0.28846
 H17 H 0.22034 0.32115 0.23415
 N18 N 0.24810 0.23175 0.29349
 N19 N 0.26577 0.22418 0.28423
 C20 C 0.27210 0.20631 0.29497
 C21 C 0.25774 0.20235 0.31186
 C22 C 0.24272 0.21886 0.31038
 H23 H 0.28596 0.19668 0.29054
 H24 H 0.22887 0.22133 0.32082
 H25 H 0.24758 0.24720 0.25441
 H26 H 0.26437 0.26380 0.27318
 N27 N 0.70683 -0.25234 0.22992
 N28 N 0.71431 -0.27144 0.22424
 C29 C 0.70355 -0.27856 0.20682
 C30 C 0.68837 -0.26306 0.20114
 C31 C 0.69103 -0.24664 0.21633
 H32 H 0.70685 -0.29381 0.19887
 H33 H 0.68228 -0.23155 0.21749
 Cu34 Cu 0.73776 -0.28511 0.23967
 Cu35 Cu 0.71829 -0.23623 0.25438
 Cu36 Cu 0.76474 -0.25648 0.27709
 N37 N 0.76598 -0.29402 0.24961
 N38 N 0.77659 -0.28261 0.26396
 C39 C 0.79576 -0.29200 0.26746
 C40 C 0.79737 -0.31047 0.25463
 C41 C 0.77798 -0.31116 0.24354
 H42 H 0.80752 -0.28575 0.27863
 H43 H 0.77299 -0.32293 0.23163
 N44 N 0.75014 -0.23031 0.28802
 N45 N 0.73248 -0.22250 0.27930
 C46 C 0.72651 -0.20453 0.29018
 C47 C 0.74110 -0.20086 0.30661
 C48 C 0.75585 -0.21758 0.30472
 H49 H 0.71246 -0.19496 0.28653
 H50 H 0.76986 -0.22015 0.31461
 H51 H 0.74880 -0.24848 0.24893
 H52 H 0.73233 -0.26165 0.27097
 N53 N 0.70436 0.25575 0.76403
 N54 N 0.71186 0.27478 0.76997
 C55 C 0.70123 0.28132 0.78791
 C56 C 0.68613 0.26556 0.79346
 C57 C 0.68859 0.24958 0.77788
 H58 H 0.70425 0.29646 0.79622
 H59 H 0.67979 0.23444 0.77682
 Cu60 Cu 0.73500 0.28905 0.75396
 Cu61 Cu 0.71553 0.24042 0.73877
 Cu62 Cu 0.75670 0.26593 0.70978
 N63 N 0.76297 0.29810 0.74264
 N64 N 0.77135 0.28910 0.72526
 C65 C 0.79039 0.29864 0.72063
 C66 C 0.79438 0.31452 0.73609
 C67 C 0.77646 0.31360 0.74983
 H68 H 0.80047 0.29412 0.70701
 H69 H 0.77326 0.32341 0.76397
 N70 N 0.74427 0.23773 0.70134
 N71 N 0.72894 0.22781 0.71260
 C72 C 0.72448 0.20866 0.70314
 C73 C 0.73768 0.20632 0.68505
 C74 C 0.75001 0.22514 0.68446
 H75 H 0.71241 0.19730 0.70895
 H76 H 0.76258 0.22922 0.67289
 H77 H 0.74610 0.25432 0.73911
 H78 H 0.72523 0.26739 0.72204
 N79 N 0.29384 -0.25455 0.77129
 N80 N 0.28579 -0.27341 0.77730
 C81 C 0.29648 -0.28061 0.79473
 C82 C 0.31217 -0.26543 0.80000
 C83 C 0.30995 -0.24911 0.78466
 H84 H 0.29284 -0.29567 0.80304
 H85 H 0.31916 -0.23423 0.78336
 Cu86 Cu 0.26181 -0.28665 0.76216
 Cu87 Cu 0.28256 -0.23826 0.74690
 Cu88 Cu 0.23527 -0.25750 0.72479
 N89 N 0.23338 -0.29515 0.75231
 N90 N 0.22293 -0.28355 0.73802
 C91 C 0.20360 -0.29278 0.73453
 C92 C 0.20172 -0.31134 0.74731
 C93 C 0.22110 -0.31223 0.75836
 H94 H 0.19193 -0.28639 0.72337
 H95 H 0.22594 -0.32414 0.77021
 N96 N 0.25044 -0.23149 0.71372
 N97 N 0.26851 -0.22420 0.72213
 C98 C 0.27494 -0.20635 0.71117
 C99 C 0.26020 -0.20212 0.69501
 C100 C 0.24488 -0.21847 0.69717
 H101 H 0.28922 -0.19705 0.71485
 H102 H 0.23077 -0.22082 0.68735
 H103 H 0.25169 -0.24983 0.75273
 H104 H 0.26750 -0.26338 0.73059
 N105 N 0.70534 -0.25661 0.76367
 N106 N 0.71433 -0.27437 0.77108
 C107 C 0.70343 -0.28112 0.78883
 C108 C 0.68662 -0.26685 0.79282
 C109 C 0.68840 -0.25149 0.77643
 H110 H 0.70768 -0.29516 0.79836
 H111 H 0.67823 -0.23752 0.77396
 Cu112 Cu 0.73982 -0.28673 0.75733
 Cu113 Cu 0.71658 -0.24120 0.73840
 Cu114 Cu 0.76257 -0.26195 0.71402
 N115 N 0.76629 -0.29737 0.74399
 N116 N 0.77498 -0.28778 0.72700
 C117 C 0.79324 -0.29814 0.72142
 C118 C 0.79638 -0.31523 0.73578
 C119 C 0.77879 -0.31415 0.74988
 H120 H 0.80360 -0.29319 0.70812
 H121 H 0.77536 -0.32457 0.76359
 N122 N 0.74772 -0.23594 0.70326
 N123 N 0.73032 -0.22792 0.71267
 C124 C 0.72447 -0.20978 0.70207
 C125 C 0.73888 -0.20616 0.68514
 C126 C 0.75337 -0.22314 0.68641
 H127 H 0.71075 -0.19990 0.70639
 H128 H 0.76733 -0.22568 0.67613
 H129 H 0.73111 -0.26763 0.72389
 H130 H 0.74818 -0.25097 0.74234
 N131 N 0.29710 0.25796 0.76370
 N132 N 0.28870 0.27631 0.77048
 C133 C 0.29932 0.28308 0.78813
 C134 C 0.31535 0.26819 0.79266
 C135 C 0.31344 0.25248 0.77674
 H136 H 0.29554 0.29770 0.79702
 H137 H 0.32283 0.23782 0.77509
 Cu138 Cu 0.26439 0.28942 0.75601
 Cu139 Cu 0.28559 0.24209 0.73912
 Cu140 Cu 0.23777 0.26110 0.71811
 N141 N 0.23582 0.29777 0.74675
 N142 N 0.22541 0.28661 0.73205
 C143 C 0.20600 0.29567 0.72899
 C144 C 0.20409 0.31352 0.74252
 C145 C 0.22341 0.31433 0.75355
 H146 H 0.19420 0.28971 0.71768
 H147 H 0.22799 0.32582 0.76589
 N148 N 0.25296 0.23561 0.70632
 N149 N 0.27123 0.22842 0.71428
 C150 C 0.27744 0.21077 0.70305
 C151 C 0.26235 0.20656 0.68721
 C152 C 0.24706 0.22271 0.68981
 H153 H 0.29175 0.20150 0.70643
 H154 H 0.23267 0.22495 0.68041
 H155 H 0.27001 0.26735 0.72369
 H156 H 0.25462 0.25273 0.74556
 N157 N 0.29890 -0.26111 0.24035
 N158 N 0.28965 -0.27889 0.23320
 C159 C 0.30011 -0.28557 0.21521
 C160 C 0.31689 -0.27123 0.21086
 C161 C 0.31561 -0.25593 0.22723
 H162 H 0.29574 -0.29976 0.20594
 H163 H 0.32573 -0.24175 0.22917
 Cu164 Cu 0.26454 -0.29163 0.24754
 Cu165 Cu 0.28805 -0.24559 0.26555
 Cu166 Cu 0.24107 -0.26502 0.28930
 N167 N 0.23705 -0.30083 0.25999
 N168 N 0.22798 -0.29049 0.27625
 C169 C 0.20907 -0.30013 0.28126
 C170 C 0.20601 -0.31748 0.26733
 C171 C 0.22417 -0.31738 0.25405
 H172 H 0.19818 -0.29460 0.29384
 H173 H 0.22775 -0.32843 0.24094
 N174 N 0.25668 -0.23946 0.30021
 N175 N 0.27462 -0.23207 0.29117
 C176 C 0.28106 -0.21419 0.30186
 C177 C 0.26646 -0.21002 0.31847
 C178 C 0.25123 -0.22646 0.31690
 H179 H 0.29510 -0.20463 0.29753
 H180 H 0.23710 -0.22874 0.32703
 H181 H 0.27264 -0.27149 0.28056
 H182 H 0.25644 -0.25534 0.26091
 N183 N 0.69834 0.25821 0.23507
 N184 N 0.70689 0.27655 0.22817
 C185 C 0.69648 0.28315 0.21034
 C186 C 0.68042 0.26817 0.20585
 C187 C 0.68208 0.25258 0.22195
 H188 H 0.70039 0.29773 0.20131
 H189 H 0.67258 0.23790 0.22366
 Cu190 Cu 0.73106 0.28996 0.24274
 Cu191 Cu 0.70964 0.24251 0.25989
 Cu192 Cu 0.75710 0.26229 0.28139
 N193 N 0.75948 0.29869 0.25230
 N194 N 0.76964 0.28779 0.26733
 C195 C 0.78903 0.29701 0.27053
 C196 C 0.79118 0.31470 0.25674
 C197 C 0.77203 0.31526 0.24542
 H198 H 0.80066 0.29125 0.28208
 H199 H 0.76768 0.32657 0.23281
 N200 N 0.74181 0.23673 0.29325
 N201 N 0.72379 0.22909 0.28499
 C202 C 0.71772 0.21121 0.29613
 C203 C 0.73261 0.20742 0.31223
 C204 C 0.74763 0.22398 0.30991
 H205 H 0.70353 0.20164 0.29274
 H206 H 0.76204 0.22627 0.31931
 H207 H 0.72489 0.26804 0.27521
 H208 H 0.74064 0.25343 0.25378
 C209 C 0.26261 -0.01980 0.54835
 C210 C 0.26267 0.00025 0.55893
 C211 C 0.26211 0.01980 0.54741
 C212 C 0.26173 0.01945 0.52450
 C213 C 0.26181 -0.00076 0.51349
 C214 C 0.26235 -0.02047 0.52544
 C215 C 0.26333 -0.04026 0.51417
 C216 C 0.26345 -0.04074 0.49164
 C217 C 0.26254 -0.02146 0.47946
 C218 C 0.26184 -0.00126 0.49047
 C219 C 0.26197 0.03876 0.51231
 C220 C 0.26192 0.03827 0.48979
 C221 C 0.26168 0.01846 0.47853
 C222 C 0.26201 0.01782 0.45561
 C223 C 0.26285 -0.00221 0.44502
 C224 C 0.26301 -0.02178 0.45654
 H225 H 0.26438 -0.05560 0.52264
 H226 H 0.26458 -0.05644 0.48389
 H227 H 0.26251 0.05450 0.52004
 H228 H 0.26245 0.05366 0.48131
 H229 H 0.26287 0.00064 0.57649
 H230 H 0.26314 -0.00258 0.42745
 C231 C 0.74757 0.02006 0.54446
 C232 C 0.74802 0.00013 0.55535
 C233 C 0.74790 -0.01958 0.54412
 C234 C 0.74776 -0.01948 0.52119
 C235 C 0.74723 0.00060 0.50989
 C236 C 0.74732 0.02044 0.52154
 C237 C 0.74778 0.04012 0.50996
 C238 C 0.74737 0.04037 0.48745
 C239 C 0.74650 0.02094 0.47557
 C240 C 0.74686 0.00085 0.48686
 C241 C 0.74878 -0.03887 0.50925
 C242 C 0.74850 -0.03863 0.48672
 C243 C 0.74714 -0.01898 0.47519
 C244 C 0.74670 -0.01858 0.45227
 C245 C 0.74624 0.00136 0.44141
 C246 C 0.74595 0.02105 0.45265
 H247 H 0.74873 0.05559 0.51818
 H248 H 0.74805 0.05602 0.47948
 H249 H 0.75013 -0.05448 0.51718
 H250 H 0.74964 -0.05406 0.47846
 H251 H 0.74791 -0.00005 0.57292
 H252 H 0.74564 0.00155 0.42386
 C253 C 0.45196 0.26491 0.01867
 C254 C 0.44127 0.26499 -0.00113
 C255 C 0.45258 0.26426 -0.02084
 C256 C 0.47538 0.26333 -0.02084
 C257 C 0.48650 0.26380 -0.00089
 C258 C 0.47476 0.26451 0.01894
 C259 C 0.48612 0.26495 0.03850
 C260 C 0.50852 0.26436 0.03863
 C261 C 0.52052 0.26387 0.01919
 C262 C 0.50941 0.26341 -0.00077
 C263 C 0.48732 0.26138 -0.04021
 C264 C 0.50972 0.26085 -0.04009
 C265 C 0.52113 0.26234 -0.02060
 C266 C 0.54395 0.26214 -0.02036
 C267 C 0.55463 0.26242 -0.00053
 C268 C 0.54334 0.26338 0.01916
 H269 H 0.47782 0.26577 0.05397
 H270 H 0.51628 0.26419 0.05421
 H271 H 0.47948 0.25997 -0.05570
 H272 H 0.51797 0.25900 -0.05549
 H273 H 0.42380 0.26553 -0.00121
 H274 H 0.57211 0.26237 -0.00044
 C275 C 0.45457 0.73006 -0.01726
 C276 C 0.44400 0.73049 0.00285
 C277 C 0.45544 0.73069 0.02224
 C278 C 0.47826 0.73080 0.02162
 C279 C 0.48924 0.73025 0.00134
 C280 C 0.47737 0.72966 -0.01816
 C281 C 0.48859 0.72816 -0.03800
 C282 C 0.51100 0.72791 -0.03874
 C283 C 0.52312 0.72921 -0.01969
 C284 C 0.51215 0.73014 0.00057
 C285 C 0.49039 0.73165 0.04069
 C286 C 0.51280 0.73136 0.03995
 C287 C 0.52404 0.73074 0.02007
 C288 C 0.54684 0.73030 0.01915
 C289 C 0.55738 0.72927 -0.00095
 C290 C 0.54593 0.72901 -0.02031
 H291 H 0.48017 0.72688 -0.05318
 H292 H 0.51871 0.72642 -0.05446
 H293 H 0.48270 0.73257 0.05646
 H294 H 0.52118 0.73151 0.05520
 H295 H 0.42652 0.73059 0.00343
 H296 H 0.57486 0.72915 -0.00154
 C297 C -0.02131 0.54652 0.24719
 C298 C -0.00166 0.55735 0.24991
 C299 C 0.01768 0.54602 0.25200
 C300 C 0.01748 0.52303 0.25180
 C301 C -0.00224 0.51177 0.24875
 C302 C -0.02166 0.52353 0.24613
 C303 C -0.04081 0.51201 0.24212
 C304 C -0.04114 0.48942 0.24190
 C305 C -0.02232 0.47741 0.24561
 C306 C -0.00257 0.48868 0.24846
 C307 C 0.03639 0.51102 0.25505
 C308 C 0.03607 0.48843 0.25474
 C309 C 0.01682 0.47692 0.25118
 C310 C 0.01635 0.45393 0.25079
 C311 C -0.00333 0.44308 0.24849
 C312 C -0.02265 0.45442 0.24615
 H313 H -0.05576 0.52033 0.23892
 H314 H -0.05633 0.48146 0.23860
 H315 H 0.05163 0.51895 0.25813
 H316 H 0.05108 0.48009 0.25760
 H317 H -0.00142 0.57496 0.25055
 H318 H -0.00363 0.42546 0.24870
 C319 C -0.01989 0.54521 0.74932
 C320 C -0.00040 0.55644 0.75152
 C321 C 0.01911 0.54551 0.75418
 C322 C 0.01917 0.52252 0.75510
 C323 C -0.00040 0.51085 0.75242
 C324 C -0.01998 0.52221 0.74938
 C325 C -0.03901 0.51029 0.74596
 C326 C -0.03898 0.48769 0.74623
 C327 C -0.01991 0.47608 0.74988
 C328 C -0.00036 0.48775 0.75263
 C329 C 0.03818 0.51089 0.75902
 C330 C 0.03823 0.48829 0.75910
 C331 C 0.01925 0.47639 0.75540
 C332 C 0.01929 0.45340 0.75476
 C333 C -0.00019 0.44215 0.75252
 C334 C -0.01975 0.45308 0.75031
 H335 H -0.05412 0.51829 0.74275
 H336 H -0.05407 0.47944 0.74325
 H337 H 0.05323 0.51912 0.76224
 H338 H 0.05333 0.48025 0.76233
 H339 H -0.00041 0.57405 0.75100
 H340 H -0.00010 0.42453 0.75229
 C341 C 0.35387 0.26418 0.15015
 C342 C 0.35255 0.24609 0.16401
 C343 C 0.33805 0.24580 0.18147
 C344 C 0.32446 0.26359 0.18551
 C345 C 0.32592 0.28176 0.17172
 C346 C 0.34045 0.28205 0.15426
 C347 C 0.36899 0.26429 0.13133
 C348 C 0.38059 0.28318 0.12573
 C349 C 0.39456 0.28334 0.10782
 C350 C 0.39725 0.26461 0.09511
 C351 C 0.38574 0.24569 0.10078
 C352 C 0.37177 0.24553 0.11868
 C353 C 0.41175 0.26488 0.07581
 C354 C 0.42495 0.24697 0.07102
 C355 C 0.43821 0.24706 0.05258
 C356 C 0.43862 0.26512 0.03869
 C357 C 0.42547 0.28299 0.04337
 C358 C 0.41222 0.28293 0.06181
 H359 H 0.36287 0.23217 0.16144
 H360 H 0.33743 0.23148 0.19162
 H361 H 0.31586 0.29583 0.17432
 H362 H 0.34091 0.29615 0.14375
 H363 H 0.37905 0.29778 0.13535
 H364 H 0.40345 0.29807 0.10405
 H365 H 0.38719 0.23112 0.09110
 H366 H 0.36280 0.23083 0.12236
 H367 H 0.42509 0.23292 0.08159
 H368 H 0.44810 0.23303 0.04905
 H369 H 0.42543 0.29695 0.03266
 H370 H 0.40199 0.29682 0.06486
 C371 C 0.64472 0.73508 0.14860
 C372 C 0.64541 0.75313 0.16243
 C373 C 0.65967 0.75371 0.17978
 C374 C 0.67377 0.73627 0.18376
 C375 C 0.67292 0.71818 0.16980
 C376 C 0.65859 0.71761 0.15252
 C377 C 0.62970 0.73454 0.13006
 C378 C 0.61844 0.71540 0.12497
 C379 C 0.60456 0.71479 0.10732
 C380 C 0.60167 0.73328 0.09430
 C381 C 0.61284 0.75246 0.09947
 C382 C 0.62668 0.75309 0.11716
 C383 C 0.58730 0.73246 0.07522
 C384 C 0.57402 0.75017 0.07009
 C385 C 0.56073 0.74943 0.05197
 C386 C 0.56035 0.73093 0.03876
 C387 C 0.57364 0.71330 0.04373
 C388 C 0.58695 0.71402 0.06181
 H389 H 0.63473 0.76674 0.15996
 H390 H 0.65951 0.76799 0.18992
 H391 H 0.68330 0.70432 0.17201
 H392 H 0.65862 0.70358 0.14197
 H393 H 0.62018 0.70095 0.13481
 H394 H 0.59592 0.69987 0.10399
 H395 H 0.61123 0.76688 0.08956
 H396 H 0.63537 0.76798 0.12048
 H397 H 0.57378 0.76452 0.08018
 H398 H 0.55076 0.76329 0.04819
 H399 H 0.57374 0.69900 0.03354
 H400 H 0.59725 0.70028 0.06509
 C401 C 0.64198 0.26519 -0.15213
 C402 C 0.66013 0.27895 -0.15233
 C403 C 0.67435 0.27921 -0.17004
 C404 C 0.67085 0.26560 -0.18791
 C405 C 0.65268 0.25190 -0.18775
 C406 C 0.63839 0.25174 -0.17011
 C407 C 0.62698 0.26472 -0.13318
 C408 C 0.61789 0.24501 -0.12594
 C409 C 0.60395 0.24452 -0.10801
 C410 C 0.59885 0.26370 -0.09680
 C411 C 0.60789 0.28342 -0.10408
 C412 C 0.62175 0.28393 -0.12207
 C413 C 0.58439 0.26309 -0.07745
 C414 C 0.56946 0.27983 -0.07361
 C415 C 0.55619 0.27943 -0.05518
 C416 C 0.55735 0.26215 -0.04039
 C417 C 0.57222 0.24546 -0.04412
 C418 C 0.58559 0.24590 -0.06247
 H419 H 0.66358 0.28926 -0.13860
 H420 H 0.68830 0.28979 -0.16950
 H421 H 0.64931 0.24143 -0.20137
 H422 H 0.62437 0.24123 -0.17067
 H423 H 0.62178 0.22987 -0.13393
 H424 H 0.59707 0.22909 -0.10301
 H425 H 0.60452 0.29846 -0.09568
 H426 H 0.62826 0.29942 -0.12737
 H427 H 0.56796 0.29319 -0.08491
 H428 H 0.54504 0.29264 -0.05239
 H429 H 0.57355 0.23214 -0.03273
 H430 H 0.59716 0.23297 -0.06471
 C431 C 0.35654 0.73269 -0.14664
 C432 C 0.34199 0.71553 -0.15002
 C433 C 0.32768 0.71608 -0.16733
 C434 C 0.32758 0.73382 -0.18173
 C435 C 0.34229 0.75091 -0.17839
 C436 C 0.35657 0.75036 -0.16106
 C437 C 0.37153 0.73227 -0.12805
 C438 C 0.37553 0.75120 -0.11604
 C439 C 0.38944 0.75078 -0.09841
 C440 C 0.39967 0.73141 -0.09236
 C441 C 0.39575 0.71249 -0.10443
 C442 C 0.38184 0.71291 -0.12207
 C443 C 0.41415 0.73088 -0.07337
 C444 C 0.41348 0.71324 -0.05887
 C445 C 0.42678 0.71292 -0.04077
 C446 C 0.44111 0.73012 -0.03692
 C447 C 0.44181 0.74778 -0.05129
 C448 C 0.42850 0.74814 -0.06940
 H449 H 0.34139 0.70180 -0.13903
 H450 H 0.31666 0.70259 -0.16926
 H451 H 0.34288 0.76483 -0.18908
 H452 H 0.36780 0.76370 -0.15908
 H453 H 0.36758 0.76628 -0.12003
 H454 H 0.39185 0.76554 -0.08923
 H455 H 0.40365 0.69739 -0.10038
 H456 H 0.37935 0.69814 -0.13121
 H457 H 0.40237 0.69988 -0.06129
 H458 H 0.42587 0.69927 -0.02969
 H459 H 0.45261 0.76132 -0.04841
 H460 H 0.42952 0.76186 -0.08037
 C461 C 0.14569 0.35561 0.25991
 C462 C 0.14794 0.34096 0.27719
 C463 C 0.16532 0.32662 0.27776
 C464 C 0.18088 0.32655 0.26102
 C465 C 0.17867 0.34134 0.24380
 C466 C 0.16130 0.35569 0.24326
 C467 C 0.12698 0.37054 0.25908
 C468 C 0.12962 0.39215 0.25213
 C469 C 0.11194 0.40610 0.25113
 C470 C 0.09122 0.39873 0.25704
 C471 C 0.08861 0.37713 0.26402
 C472 C 0.10628 0.36320 0.26504
 C473 C 0.07235 0.41343 0.25575
 C474 C 0.05618 0.41291 0.27189
 C475 C 0.03815 0.42630 0.27039
 C476 C 0.03600 0.44056 0.25282
 C477 C 0.05209 0.44120 0.23671
 C478 C 0.07015 0.42781 0.23818
 H479 H 0.13635 0.34071 0.29043
 H480 H 0.16651 0.31569 0.29141
 H481 H 0.19015 0.34174 0.23051
 H482 H 0.15986 0.36659 0.22957
 H483 H 0.14542 0.39837 0.24772
 H484 H 0.11453 0.42274 0.24599
 H485 H 0.07280 0.37084 0.26832
 H486 H 0.10366 0.34654 0.27010
 H487 H 0.05753 0.40221 0.28574
 H488 H 0.02582 0.42554 0.28292
 H489 H 0.05051 0.45189 0.22287
 H490 H 0.08215 0.42836 0.22533
 C491 C 0.14861 0.64501 0.75171
 C492 C 0.14735 0.66392 0.73910
 C493 C 0.16485 0.67822 0.73754
 C494 C 0.18408 0.67412 0.74877
 C495 C 0.18518 0.65509 0.76149
 C496 C 0.16772 0.64070 0.76283
 C497 C 0.13002 0.62986 0.75321
 C498 C 0.13304 0.60734 0.75125
 C499 C 0.11540 0.59314 0.75205
 C500 C 0.09443 0.60116 0.75510
 C501 C 0.09145 0.62366 0.75736
 C502 C 0.10905 0.63786 0.75633
 C503 C 0.07563 0.58622 0.75550
 C504 C 0.05911 0.58877 0.77103
 C505 C 0.04100 0.57519 0.77090
 C506 C 0.03907 0.55883 0.75524
 C507 C 0.05555 0.55625 0.73970
 C508 C 0.07376 0.56969 0.73995
 H509 H 0.13287 0.66753 0.73017
 H510 H 0.16300 0.69253 0.72759
 H511 H 0.19951 0.65104 0.77040
 H512 H 0.16905 0.62629 0.77281
 H513 H 0.14902 0.60076 0.74869
 H514 H 0.11815 0.57586 0.75040
 H515 H 0.07545 0.63029 0.75954
 H516 H 0.10629 0.65513 0.75807
 H517 H 0.06021 0.60128 0.78327
 H518 H 0.02839 0.57754 0.78292
 H519 H 0.05413 0.54404 0.72720
 H520 H 0.08610 0.56758 0.72761
 C521 C -0.15000 0.64585 0.24995
 C522 C -0.14855 0.66460 0.26270
 C523 C -0.16590 0.67890 0.26436
 C524 C -0.18518 0.67494 0.25311
 C525 C -0.18648 0.65605 0.24028
 C526 C -0.16916 0.64166 0.23883
 C527 C -0.13153 0.63073 0.24832
 C528 C -0.13473 0.60819 0.25017
 C529 C -0.11719 0.59403 0.24932
 C530 C -0.09615 0.60212 0.24634
 C531 C -0.09301 0.62464 0.24416
 C532 C -0.11051 0.63880 0.24524
 C533 C -0.07745 0.58723 0.24595
 C534 C -0.06087 0.58994 0.23048
 C535 C -0.04287 0.57639 0.23061
 C536 C -0.04111 0.55990 0.24620
 C537 C -0.05763 0.55719 0.26170
 C538 C -0.07574 0.57060 0.26145
 H539 H -0.13402 0.66810 0.27163
 H540 H -0.16388 0.69309 0.27441
 H541 H -0.20087 0.65211 0.23137
 H542 H -0.17064 0.62737 0.22875
 H543 H -0.15075 0.60157 0.25270
 H544 H -0.12006 0.57673 0.25089
 H545 H -0.07696 0.63133 0.24203
 H546 H -0.10762 0.65609 0.24359
 H547 H -0.06186 0.60253 0.21827
 H548 H -0.03022 0.57883 0.21861
 H549 H -0.05635 0.54487 0.27416
 H550 H -0.08813 0.56837 0.27375
 C551 C -0.15112 0.35634 0.74030
 C552 C -0.16778 0.35736 0.75582
 C553 C -0.18572 0.34364 0.75445
 C554 C -0.18753 0.32845 0.73749
 C555 C -0.17073 0.32756 0.72194
 C556 C -0.15283 0.34131 0.72334
 C557 C -0.13198 0.37085 0.74180
 C558 C -0.11126 0.36296 0.73698
 C559 C -0.09327 0.37659 0.73824
 C560 C -0.09555 0.39843 0.74439
 C561 C -0.11624 0.40632 0.74931
 C562 C -0.13426 0.39269 0.74801
 C563 C -0.07638 0.41288 0.74567
 C564 C -0.07417 0.42763 0.76288
 C565 C -0.05588 0.44088 0.76428
 C566 C -0.03960 0.43978 0.74839
 C567 C -0.04175 0.42512 0.73119
 C568 C -0.05999 0.41183 0.72980
 H569 H -0.16682 0.36859 0.76925
 H570 H -0.19802 0.34504 0.76689
 H571 H -0.17122 0.31635 0.70852
 H572 H -0.14040 0.34033 0.71094
 H573 H -0.10892 0.34613 0.73251
 H574 H -0.07750 0.36993 0.73472
 H575 H -0.11854 0.42314 0.75382
 H576 H -0.15003 0.39934 0.75152
 H577 H -0.08637 0.42857 0.77551
 H578 H -0.05430 0.45184 0.77786
 H579 H -0.02928 0.42399 0.71883
 H580 H -0.06134 0.40083 0.71622
 C581 C 0.25865 0.14853 0.35672
 C582 C 0.27656 0.15305 0.34333
 C583 C 0.27632 0.17060 0.32897
 C584 C 0.25814 0.18407 0.32760
 C585 C 0.24032 0.17969 0.34122
 C586 C 0.24058 0.16213 0.35563
 C587 C 0.25882 0.12952 0.37156
 C588 C 0.25033 0.13103 0.39270
 C589 C 0.25078 0.11313 0.40667
 C590 C 0.25971 0.09333 0.39980
 C591 C 0.26800 0.09179 0.37859
 C592 C 0.26757 0.10966 0.36465
 C593 C 0.26045 0.07432 0.41462
 C594 C 0.27865 0.06079 0.41487
 C595 C 0.27920 0.04260 0.42839
 C596 C 0.26165 0.03767 0.44204
 C597 C 0.24347 0.05111 0.44193
 C598 C 0.24289 0.06934 0.42840
 H599 H 0.29088 0.14311 0.34407
 H600 H 0.29049 0.17357 0.31904
 H601 H 0.22598 0.18957 0.34058
 H602 H 0.22645 0.15893 0.36559
 H603 H 0.24370 0.14619 0.39856
 H604 H 0.24450 0.11491 0.42300
 H605 H 0.27459 0.07665 0.37265
 H606 H 0.27385 0.10786 0.34832
 H607 H 0.29253 0.06434 0.40467
 H608 H 0.29332 0.03233 0.42823
 H609 H 0.22966 0.04733 0.45216
 H610 H 0.22853 0.07925 0.42836
 C611 C 0.74048 0.15187 0.64122
 C612 C 0.72907 0.15031 0.66094
 C613 C 0.72814 0.16794 0.67511
 C614 C 0.73861 0.18761 0.66992
 C615 C 0.75002 0.18917 0.65016
 C616 C 0.75095 0.17151 0.63599
 C617 C 0.74151 0.13303 0.62626
 C618 C 0.76083 0.12781 0.61542
 C619 C 0.76188 0.10982 0.60169
 C620 C 0.74363 0.09666 0.59846
 C621 C 0.72427 0.10199 0.60916
 C622 C 0.72323 0.11996 0.62291
 C623 C 0.74483 0.07728 0.58421
 C624 C 0.72775 0.07207 0.57034
 C625 C 0.72871 0.05358 0.55728
 C626 C 0.74684 0.04007 0.55772
 C627 C 0.76388 0.04515 0.57157
 C628 C 0.76293 0.06363 0.58464
 H629 H 0.72113 0.13529 0.66561
 H630 H 0.71941 0.16597 0.69024
 H631 H 0.75811 0.20408 0.64547
 H632 H 0.75963 0.17332 0.62078
 H633 H 0.77525 0.13743 0.61784
 H634 H 0.77697 0.10626 0.59350
 H635 H 0.70999 0.09206 0.60719
 H636 H 0.70805 0.12369 0.63084
 H637 H 0.71368 0.08236 0.56950
 H638 H 0.71530 0.04975 0.54686
 H639 H 0.77789 0.03474 0.57228
 H640 H 0.77619 0.06700 0.59540
 C641 C 0.26136 -0.14897 0.64929
 C642 C 0.24333 -0.16278 0.65087
 C643 C 0.24296 -0.18005 0.66561
 C644 C 0.26066 -0.18396 0.67910
 C645 C 0.27877 -0.17023 0.67733
 C646 C 0.27910 -0.15295 0.66263
 C647 C 0.26161 -0.13034 0.63399
 C648 C 0.27012 -0.11017 0.64032
 C649 C 0.27042 -0.09259 0.62599
 C650 C 0.26225 -0.09476 0.60495
 C651 C 0.25369 -0.11493 0.59863
 C652 C 0.25336 -0.13252 0.61299
 C653 C 0.26261 -0.07600 0.58978
 C654 C 0.24498 -0.07184 0.57627
 C655 C 0.24510 -0.05377 0.56252
 C656 C 0.26289 -0.03964 0.56194
 C657 C 0.28054 -0.04378 0.57528
 C658 C 0.28045 -0.06183 0.58900
 H659 H 0.22930 -0.15997 0.64099
 H660 H 0.22866 -0.19011 0.66653
 H661 H 0.29282 -0.17278 0.68719
 H662 H 0.29337 -0.14280 0.66155
 H663 H 0.27623 -0.10787 0.65651
 H664 H 0.27674 -0.07717 0.63151
 H665 H 0.24754 -0.11720 0.58244
 H666 H 0.24695 -0.14793 0.60756
 H667 H 0.23088 -0.08226 0.57672
 H668 H 0.23121 -0.05060 0.55255
 H669 H 0.29436 -0.03296 0.57507
 H670 H 0.29439 -0.06474 0.59897
 C671 C 0.74171 -0.14831 0.35269
 C672 C 0.75396 -0.16711 0.35621
 C673 C 0.75368 -0.18417 0.34133
 C674 C 0.74111 -0.18288 0.32258
 C675 C 0.72869 -0.16417 0.31916
 C676 C 0.72901 -0.14708 0.33402
 C677 C 0.74239 -0.12996 0.36826
 C678 C 0.72361 -0.11832 0.37347
 C679 C 0.72438 -0.10075 0.38775
 C680 C 0.74395 -0.09441 0.39715
 C681 C 0.76268 -0.10619 0.39210
 C682 C 0.76192 -0.12374 0.37782
 C683 C 0.74489 -0.07533 0.41181
 C684 C 0.76232 -0.06068 0.41052
 C685 C 0.76302 -0.04245 0.42392
 C686 C 0.74639 -0.03857 0.43895
 C687 C 0.72894 -0.05309 0.44029
 C688 C 0.72824 -0.07137 0.42692
 H689 H 0.76362 -0.16873 0.37061
 H690 H 0.76321 -0.19843 0.34468
 H691 H 0.71899 -0.16248 0.30481
 H692 H 0.71965 -0.13269 0.33065
 H693 H 0.70827 -0.12284 0.36658
 H694 H 0.70970 -0.09187 0.39111
 H695 H 0.77796 -0.10188 0.39926
 H696 H 0.77672 -0.13221 0.37397
 H697 H 0.77520 -0.06305 0.39880
 H698 H 0.77648 -0.03126 0.42248
 H699 H 0.71582 -0.05017 0.45161
 H700 H 0.71470 -0.08244 0.42845
 C701 C 0.64107 0.73149 -0.15385
 C702 C 0.64203 0.74946 -0.16789
 C703 C 0.65665 0.74993 -0.18527
 C704 C 0.67072 0.73245 -0.18901
 C705 C 0.66959 0.71440 -0.17504
 C706 C 0.65497 0.71393 -0.15768
 C707 C 0.62594 0.73119 -0.13504
 C708 C 0.61498 0.71201 -0.12913
 C709 C 0.60126 0.71157 -0.11103
 C710 C 0.59817 0.73031 -0.09844
 C711 C 0.60892 0.74956 -0.10450
 C712 C 0.62266 0.74999 -0.12258
 C713 C 0.58417 0.72968 -0.07879
 C714 C 0.57041 0.74711 -0.07383
 C715 C 0.55773 0.74675 -0.05499
 C716 C 0.55850 0.72893 -0.04084
 C717 C 0.57217 0.71151 -0.04572
 C718 C 0.58483 0.71183 -0.06457
 H719 H 0.63135 0.76313 -0.16553
 H720 H 0.65699 0.76414 -0.19558
 H721 H 0.68001 0.70055 -0.17739
 H722 H 0.65481 0.69996 -0.14701
 H723 H 0.61689 0.69735 -0.13860
 H724 H 0.59293 0.69659 -0.10697
 H725 H 0.60713 0.76417 -0.09493
 H726 H 0.63112 0.76493 -0.12649
 H727 H 0.56942 0.76099 -0.08456
 H728 H 0.54743 0.76045 -0.05132
 H729 H 0.57312 0.69773 -0.03484
 H730 H 0.59551 0.69832 -0.06777
 C731 C 0.35915 0.26834 -0.15363
 C732 C 0.36311 0.25521 -0.17182
 C733 C 0.34899 0.25526 -0.18929
 C734 C 0.33060 0.26850 -0.18902
 C735 C 0.32677 0.28182 -0.17094
 C736 C 0.34085 0.28171 -0.15344
 C737 C 0.37381 0.26782 -0.13477
 C738 C 0.37885 0.28697 -0.12351
 C739 C 0.39217 0.28637 -0.10542
 C740 C 0.40079 0.26661 -0.09818
 C741 C 0.39597 0.24750 -0.10960
 C742 C 0.38262 0.24809 -0.12766
 C743 C 0.41444 0.26585 -0.07857
 C744 C 0.41222 0.24869 -0.06363
 C745 C 0.42479 0.24810 -0.04501
 C746 C 0.43988 0.26459 -0.04102
 C747 C 0.44207 0.28183 -0.05578
 C748 C 0.42955 0.28240 -0.07445
 H749 H 0.37725 0.24499 -0.17264
 H750 H 0.35262 0.24502 -0.20306
 H751 H 0.31267 0.29205 -0.17004
 H752 H 0.33714 0.29176 -0.13954
 H753 H 0.37254 0.30247 -0.12873
 H754 H 0.39538 0.30135 -0.09686
 H755 H 0.40257 0.23205 -0.10461
 H756 H 0.37888 0.23301 -0.13581
 H757 H 0.40047 0.23591 -0.06611
 H758 H 0.42271 0.23481 -0.03365
 H759 H 0.45345 0.29484 -0.05279
 H760 H 0.43179 0.29573 -0.08572
 C761 C 0.36125 0.72810 0.15662
 C762 C 0.34223 0.71563 0.15628
 C763 C 0.32796 0.71569 0.17393
 C764 C 0.33230 0.72830 0.19234
 C765 C 0.35138 0.74067 0.19274
 C766 C 0.36570 0.74054 0.17511
 C767 C 0.37616 0.72838 0.13761
 C768 C 0.38619 0.74782 0.13090
 C769 C 0.39972 0.74823 0.11267
 C770 C 0.40352 0.72922 0.10067
 C771 C 0.39369 0.70973 0.10752
 C772 C 0.38019 0.70932 0.12579
 C773 C 0.41732 0.72980 0.08085
 C774 C 0.43140 0.71259 0.07600
 C775 C 0.44395 0.71295 0.05706
 C776 C 0.44284 0.73063 0.04276
 C777 C 0.42882 0.74780 0.04750
 C778 C 0.41621 0.74743 0.06638
 H779 H 0.33812 0.70615 0.14215
 H780 H 0.31332 0.70615 0.17292
 H781 H 0.35541 0.75035 0.20674
 H782 H 0.38038 0.75005 0.17604
 H783 H 0.38326 0.76284 0.13951
 H784 H 0.40725 0.76345 0.10798
 H785 H 0.39609 0.69485 0.09852
 H786 H 0.37294 0.69402 0.13068
 H787 H 0.43278 0.69887 0.08689
 H788 H 0.45450 0.69942 0.05350
 H789 H 0.42757 0.76145 0.03649
 H790 H 0.40526 0.76075 0.06942
 C791 C 0.63696 0.26807 0.15189
 C792 C 0.65590 0.28069 0.15129
 C793 C 0.66988 0.28089 0.16887
 C794 C 0.66534 0.26835 0.18741
 C795 C 0.64637 0.25580 0.18808
 C796 C 0.63232 0.25572 0.17055
 C797 C 0.62232 0.26756 0.13299
 C798 C 0.61225 0.24809 0.12677
 C799 C 0.59890 0.24748 0.10872
 C800 C 0.59537 0.26630 0.09635
 C801 C 0.60529 0.28582 0.10267
 C802 C 0.61856 0.28646 0.12080
 C803 C 0.58169 0.26548 0.07675
 C804 C 0.56798 0.28284 0.07158
 C805 C 0.55543 0.28215 0.05294
 C806 C 0.55611 0.26398 0.03929
 C807 C 0.56982 0.24670 0.04430
 C808 C 0.58248 0.24742 0.06285
 H809 H 0.66018 0.29009 0.13703
 H810 H 0.68446 0.29053 0.16768
 H811 H 0.64224 0.24619 0.20222
 H812 H 0.61769 0.24611 0.17171
 H813 H 0.61499 0.23318 0.13564
 H814 H 0.59129 0.23223 0.10447
 H815 H 0.60312 0.30057 0.09338
 H816 H 0.62583 0.30179 0.12529
 H817 H 0.56684 0.29690 0.08202
 H818 H 0.54516 0.29578 0.04913
 H819 H 0.57077 0.23267 0.03378
 H820 H 0.59317 0.23398 0.06609
 C821 C -0.15065 0.64132 0.73799
 C822 C -0.15209 0.65687 0.72142
 C823 C -0.16957 0.67106 0.72059
 C824 C -0.18620 0.67009 0.73631
 C825 C -0.18481 0.65419 0.75272
 C826 C -0.16727 0.64006 0.75355
 C827 C -0.13171 0.62669 0.73921
 C828 C -0.13423 0.60478 0.74525
 C829 C -0.11634 0.59114 0.74662
 C830 C -0.09555 0.59910 0.74191
 C831 C -0.09303 0.62097 0.73583
 C832 C -0.11089 0.63461 0.73453
 C833 C -0.07649 0.58473 0.74348
 C834 C -0.05996 0.58576 0.72775
 C835 C -0.04175 0.57266 0.72951
 C836 C -0.03975 0.55823 0.74697
 C837 C -0.05619 0.55714 0.76272
 C838 C -0.07447 0.57018 0.76093
 H839 H -0.13973 0.65800 0.70895
 H840 H -0.16983 0.68271 0.70749
 H841 H -0.19703 0.65265 0.76523
 H842 H -0.16653 0.62842 0.76668
 H843 H -0.15008 0.59810 0.74865
 H844 H -0.11880 0.57429 0.75108
 H845 H -0.07718 0.62766 0.73247
 H846 H -0.10834 0.65149 0.73023
 H847 H -0.06117 0.59664 0.71403
 H848 H -0.02915 0.57379 0.71727
 H849 H -0.05473 0.54637 0.77650
 H850 H -0.08679 0.56927 0.77345
 C851 C -0.15418 0.35777 0.25016
 C852 C -0.17429 0.36365 0.24180
 C853 C -0.19201 0.34966 0.24386
 C854 C -0.19003 0.32953 0.25443
 C855 C -0.16989 0.32369 0.26279
 C856 C -0.15217 0.33762 0.26064
 C857 C -0.13535 0.37261 0.24813
 C858 C -0.11487 0.36442 0.24284
 C859 C -0.09701 0.37827 0.24155
 C860 C -0.09922 0.40061 0.24561
 C861 C -0.11975 0.40883 0.25068
 C862 C -0.13764 0.39499 0.25187
 C863 C -0.08007 0.41512 0.24511
 C864 C -0.07726 0.43093 0.26124
 C865 C -0.05877 0.44395 0.26136
 C866 C -0.04287 0.44157 0.24522
 C867 C -0.04568 0.42592 0.22901
 C868 C -0.06413 0.41283 0.22892
 H869 H -0.17627 0.37900 0.23347
 H870 H -0.20728 0.35477 0.23732
 H871 H -0.16769 0.30828 0.27089
 H872 H -0.13693 0.33275 0.26746
 H873 H -0.11266 0.34728 0.23964
 H874 H -0.08137 0.37143 0.23782
 H875 H -0.12197 0.42600 0.25370
 H876 H -0.15319 0.40173 0.25615
 H877 H -0.08909 0.43282 0.27412
 H878 H -0.05667 0.45566 0.27424
 H879 H -0.03350 0.42378 0.21650
 H880 H -0.06595 0.40092 0.21619
 C881 C 0.14979 0.35652 0.74918
 C882 C 0.14757 0.33636 0.73881
 C883 C 0.16518 0.32244 0.73663
 C884 C 0.18541 0.32832 0.74483
 C885 C 0.18761 0.34848 0.75526
 C886 C 0.17001 0.36244 0.75736
 C887 C 0.13110 0.37134 0.75128
 C888 C 0.13355 0.39374 0.74755
 C889 C 0.11581 0.40759 0.74892
 C890 C 0.09525 0.39935 0.75418
 C891 C 0.09285 0.37699 0.75819
 C892 C 0.11057 0.36313 0.75672
 C893 C 0.07625 0.41389 0.75495
 C894 C 0.06043 0.41146 0.77128
 C895 C 0.04214 0.42461 0.77147
 C896 C 0.03937 0.44048 0.75542
 C897 C 0.05514 0.44299 0.73915
 C898 C 0.07347 0.42991 0.73897
 H899 H 0.13225 0.33145 0.73211
 H900 H 0.16280 0.30702 0.72863
 H901 H 0.20296 0.35364 0.76166
 H902 H 0.17217 0.37780 0.76559
 H903 H 0.14914 0.40051 0.74315
 H904 H 0.11817 0.42478 0.74593
 H905 H 0.07718 0.37012 0.76206
 H906 H 0.10823 0.34598 0.75992
 H907 H 0.06223 0.39940 0.78390
 H908 H 0.03005 0.42235 0.78408
 H909 H 0.05306 0.45487 0.72638
 H910 H 0.08519 0.43191 0.72599
 C911 C 0.15081 0.63981 0.26431
 C912 C 0.15350 0.65388 0.28196
 C913 C 0.17146 0.66759 0.28302
 C914 C 0.18716 0.66760 0.26642
 C915 C 0.18453 0.65336 0.24886
 C916 C 0.16658 0.63963 0.24782
 C917 C 0.13148 0.62559 0.26296
 C918 C 0.13324 0.60411 0.25550
 C919 C 0.11497 0.59084 0.25400
 C920 C 0.09454 0.59877 0.25993
 C921 C 0.09280 0.62023 0.26744
 C922 C 0.11105 0.63348 0.26894
 C923 C 0.07508 0.58480 0.25814
 C924 C 0.05886 0.58532 0.27423
 C925 C 0.04033 0.57253 0.27232
 C926 C 0.03773 0.55889 0.25438
 C927 C 0.05382 0.55831 0.23827
 C928 C 0.07238 0.57108 0.24016
 H929 H 0.14179 0.65415 0.29509
 H930 H 0.17300 0.67808 0.29694
 H931 H 0.19613 0.65297 0.23567
 H932 H 0.16481 0.62918 0.23386
 H933 H 0.14879 0.59746 0.25107
 H934 H 0.11688 0.57428 0.24847
 H935 H 0.07725 0.62694 0.27177
 H936 H 0.10912 0.65006 0.27441
 H937 H 0.06058 0.59551 0.28837
 H938 H 0.02800 0.57323 0.28485
 H939 H 0.05189 0.54810 0.22415
 H940 H 0.08441 0.57058 0.22734
 C941 C 0.74060 -0.15226 0.64041
 C942 C 0.72795 -0.15133 0.65941
 C943 C 0.72724 -0.16886 0.67380
 C944 C 0.73922 -0.18775 0.66959
 C945 C 0.75176 -0.18873 0.65053
 C946 C 0.75243 -0.17121 0.63610
 C947 C 0.74167 -0.13342 0.62534
 C948 C 0.76131 -0.12727 0.61551
 C949 C 0.76242 -0.10926 0.60173
 C950 C 0.74392 -0.09693 0.59749
 C951 C 0.72425 -0.10318 0.60719
 C952 C 0.72313 -0.12121 0.62094
 C953 C 0.74521 -0.07742 0.58331
 C954 C 0.72858 -0.07269 0.56876
 C955 C 0.72956 -0.05403 0.55585
 C956 C 0.74729 -0.03988 0.55707
 C957 C 0.76390 -0.04451 0.57155
 C958 C 0.76291 -0.06313 0.58451
 H959 H 0.71893 -0.13684 0.66339
 H960 H 0.71760 -0.16738 0.68842
 H961 H 0.76097 -0.20310 0.64659
 H962 H 0.76206 -0.17259 0.62144
 H963 H 0.77593 -0.13618 0.61875
 H964 H 0.77777 -0.10502 0.59432
 H965 H 0.70975 -0.09390 0.60445
 H966 H 0.70771 -0.12565 0.62808
 H967 H 0.71484 -0.08346 0.56729
 H968 H 0.71645 -0.05055 0.54497
 H969 H 0.77757 -0.03362 0.57289
 H970 H 0.77580 -0.06610 0.59579
 C971 C 0.26648 -0.15549 0.36228
 C972 C 0.28452 -0.15980 0.34906
 C973 C 0.28460 -0.17760 0.33505
 C974 C 0.26661 -0.19151 0.33388
 C975 C 0.24867 -0.18732 0.34733
 C976 C 0.24862 -0.16953 0.36137
 C977 C 0.26618 -0.13619 0.37666
 C978 C 0.25742 -0.13751 0.39771
 C979 C 0.25706 -0.11925 0.41115
 C980 C 0.26544 -0.09927 0.40381
 C981 C 0.27416 -0.09796 0.38273
 C982 C 0.27454 -0.11620 0.36933
 C983 C 0.26503 -0.07979 0.41797
 C984 C 0.28261 -0.06528 0.41811
 C985 C 0.28200 -0.04661 0.43090
 C986 C 0.26391 -0.04216 0.44390
 C987 C 0.24637 -0.05660 0.44393
 C988 C 0.24694 -0.07530 0.43112
 H989 H 0.29867 -0.14948 0.34965
 H990 H 0.29883 -0.18038 0.32522
 H991 H 0.23446 -0.19751 0.34685
 H992 H 0.23438 -0.16650 0.37117
 H993 H 0.25110 -0.15275 0.40391
 H994 H 0.25051 -0.12085 0.42740
 H995 H 0.28036 -0.08272 0.37644
 H996 H 0.28104 -0.11457 0.35306
 H997 H 0.29688 -0.06842 0.40840
 H998 H 0.29565 -0.03557 0.43064
 H999 H 0.23215 -0.05321 0.45366
 H1000 H 0.23303 -0.08597 0.43113
 C1001 C 0.73487 0.15377 0.35711
 C1002 C 0.74688 0.17278 0.36083
 C1003 C 0.74598 0.19025 0.34639
 C1004 C 0.73300 0.18915 0.32791
 C1005 C 0.72074 0.17027 0.32436
 C1006 C 0.72170 0.15277 0.33876
 C1007 C 0.73640 0.13491 0.37207
 C1008 C 0.71806 0.12241 0.37734
 C1009 C 0.71964 0.10434 0.39096
 C1010 C 0.73960 0.09837 0.39967
 C1011 C 0.75789 0.11100 0.39458
 C1012 C 0.75632 0.12903 0.38092
 C1013 C 0.74142 0.07882 0.41367
 C1014 C 0.75926 0.06494 0.41161
 C1015 C 0.76083 0.04635 0.42449
 C1016 C 0.74466 0.04131 0.43974
 C1017 C 0.72676 0.05502 0.44180
 C1018 C 0.72520 0.07367 0.42897
 H1019 H 0.75688 0.17424 0.37502
 H1020 H 0.75540 0.20464 0.34982
 H1021 H 0.71074 0.16874 0.31020
 H1022 H 0.71250 0.13824 0.33524
 H1023 H 0.70244 0.12664 0.37099
 H1024 H 0.70529 0.09483 0.39437
 H1025 H 0.77345 0.10700 0.40122
 H1026 H 0.77080 0.13815 0.37699
 H1027 H 0.77182 0.06821 0.39972
 H1028 H 0.77463 0.03580 0.42251
 H1029 H 0.71397 0.05121 0.45328
 H1030 H 0.71136 0.08412 0.43110
 C1031 C 0.26198 0.15330 0.64185
 C1032 C 0.24397 0.16689 0.64402
 C1033 C 0.24413 0.18424 0.65858
 C1034 C 0.26231 0.18841 0.67136
 C1035 C 0.28039 0.17489 0.66902
 C1036 C 0.28021 0.15756 0.65446
 C1037 C 0.26167 0.13453 0.62677
 C1038 C 0.28007 0.12920 0.61445
 C1039 C 0.28003 0.11109 0.60085
 C1040 C 0.26158 0.09791 0.59923
 C1041 C 0.24307 0.10341 0.61129
 C1042 C 0.24311 0.12151 0.62491
 C1043 C 0.26183 0.07818 0.58544
 C1044 C 0.24389 0.07263 0.57284
 C1045 C 0.24404 0.05377 0.56025
 C1046 C 0.26214 0.04022 0.56001
 C1047 C 0.28003 0.04566 0.57259
 C1048 C 0.27992 0.06451 0.58513
 H1049 H 0.22977 0.16419 0.63435
 H1050 H 0.22988 0.19421 0.65989
 H1051 H 0.29474 0.17758 0.67842
 H1052 H 0.29426 0.14723 0.65336
 H1053 H 0.29449 0.13913 0.61523
 H1054 H 0.29442 0.10747 0.59149
 H1055 H 0.22871 0.09339 0.61062
 H1056 H 0.22878 0.12499 0.63442
 H1057 H 0.22980 0.08292 0.57262
 H1058 H 0.23003 0.04966 0.55077
 H1059 H 0.29404 0.03523 0.57275
 H1060 H 0.29383 0.06816 0.59493
   
