data_POSCAR
  _audit_creation_date              2014-09-24
  _audit_creation_method            'ToBaCCo'
  _symmetry_space_group_name_H-M    'P1'
  _symmetry_Int_Tables_number       1
  _symmetry_cell_setting            triclinic
  loop_
  _symmetry_equiv_pos_as_xyz
 x,y,z
_cell_length_a 25.7004
_cell_length_b 29.4413
_cell_length_c 33.1443
_cell_angle_alpha 89.991600
_cell_angle_beta 89.875400
_cell_angle_gamma 89.261200
loop_
  _atom_site_label
  _atom_site_type_symbol
  _atom_site_fract_x
  _atom_site_fract_y
  _atom_site_fract_z
O1 O 0.23482 0.28840 0.30129
 O2 O 0.18023 0.19977 0.23583
 O3 O 0.23659 0.20020 0.30100
 O4 O 0.17911 0.28841 0.23522
 O5 O 0.25150 0.28922 0.19933
 O6 O 0.30714 0.19886 0.26300
 O7 O 0.25121 0.20073 0.19828
 O8 O 0.30728 0.28642 0.26540
 Cu9 Cu 0.20039 0.24436 0.27195
 Cu10 Cu 0.28635 0.24407 0.22769
 C11 C 0.28100 0.30161 0.29508
 C12 C 0.20646 0.18503 0.20593
 C13 C 0.28177 0.18432 0.29320
 C14 C 0.20557 0.30381 0.20596
 O15 O 0.82218 0.29334 0.23276
 O16 O 0.76582 0.21157 0.30418
 O17 O 0.82208 0.20627 0.23864
 O18 O 0.76575 0.30012 0.29837
 O19 O 0.69449 0.29811 0.26146
 O20 O 0.75021 0.20339 0.20246
 O21 O 0.69426 0.20994 0.26768
 O22 O 0.75051 0.29135 0.19621
 Cu23 Cu 0.80099 0.25313 0.27237
 Cu24 Cu 0.71511 0.25051 0.22838
 C25 C 0.79627 0.30572 0.20198
 C26 C 0.72035 0.19657 0.29808
 C27 C 0.79601 0.18913 0.21006
 C28 C 0.72051 0.31524 0.29007
 O29 O 0.73538 0.78759 0.80307
 O30 O 0.68068 0.70160 0.73517
 O31 O 0.73825 0.69931 0.79987
 O32 O 0.67959 0.78959 0.73710
 O33 O 0.75169 0.79249 0.70099
 O34 O 0.80910 0.70067 0.76226
 O35 O 0.75161 0.70387 0.69767
 O36 O 0.80741 0.78791 0.76665
 Cu37 Cu 0.70130 0.74441 0.77252
 Cu38 Cu 0.78697 0.74648 0.72801
 C39 C 0.78120 0.80170 0.79688
 C40 C 0.70660 0.68829 0.70464
 C41 C 0.78397 0.68473 0.79200
 C42 C 0.70566 0.80641 0.70825
 O43 O 0.31842 0.80109 0.73324
 O44 O 0.26047 0.71298 0.79760
 O45 O 0.31921 0.71276 0.73261
 O46 O 0.26193 0.80110 0.79795
 O47 O 0.19171 0.80295 0.75985
 O48 O 0.24778 0.71233 0.69583
 O49 O 0.18938 0.71484 0.76040
 O50 O 0.24822 0.80111 0.69502
 Cu51 Cu 0.29716 0.75657 0.76907
 Cu52 Cu 0.21226 0.75774 0.72390
 C53 C 0.29295 0.81639 0.70326
 C54 C 0.21460 0.69954 0.79046
 C55 C 0.29348 0.69751 0.70301
 C56 C 0.21716 0.81750 0.78997
 C57 C 0.97138 -0.00386 -0.00092
 C58 C 1.02458 -0.00359 -0.00148
 C59 C 1.05502 0.01854 0.03101
 C60 C 1.05528 -0.02520 -0.03454
 C61 C 0.94107 -0.03193 -0.02973
 C62 C 0.94116 0.02295 0.02946
 C63 C 1.09256 0.05085 0.02098
 C64 C 1.11998 0.07322 0.05121
 C65 C 1.11047 0.06361 0.09209
 C66 C 1.07360 0.03057 0.10206
 C67 C 1.04658 0.00785 0.07179
 C68 C 1.04555 -0.01445 -0.07513
 C69 C 1.07478 -0.03511 -0.10582
 C70 C 1.11473 -0.06649 -0.09649
 C71 C 1.12472 -0.07669 -0.05576
 C72 C 1.09544 -0.05610 -0.02515
 C73 C 0.95392 -0.07791 -0.03617
 C74 C 0.92633 -0.10354 -0.06413
 C75 C 0.88429 -0.08414 -0.08521
 C76 C 0.86985 -0.03884 -0.07753
 C77 C 0.89819 -0.01286 -0.05016
 C78 C 0.90219 0.00195 0.05236
 C79 C 0.87662 0.02575 0.08320
 C80 C 0.89019 0.07067 0.09199
 C81 C 0.92757 0.09231 0.06811
 C82 C 0.95206 0.06894 0.03656
 H83 H 1.09976 0.05948 -0.01029
 H84 H 1.14769 0.09887 0.04258
 H85 H 1.06593 0.02214 0.13330
 H86 H 1.01856 -0.01767 0.08016
 H87 H 1.01538 0.00997 -0.08300
 H88 H 1.06647 -0.02624 -0.13687
 H89 H 1.10360 -0.06482 0.00598
 H90 H 0.98551 -0.09395 -0.01969
 H91 H 0.93741 -0.13873 -0.06896
 H92 H 0.83748 -0.02327 -0.09346
 H93 H 0.88713 0.02234 -0.04532
 H94 H 0.89269 -0.03330 0.04716
 H95 H 0.84760 0.00861 0.10117
 H96 H 0.93784 0.12726 0.07394
 H97 H 0.98066 0.08636 0.01843
 H98 H 1.15449 -0.10128 -0.04749
 C99 C 0.47026 0.50327 0.49252
 C100 C 0.52344 0.50420 0.49176
 C101 C 0.55339 0.52796 0.52349
 C102 C 0.55466 0.48152 0.45957
 C103 C 0.44033 0.47396 0.46447
 C104 C 0.43977 0.53062 0.52244
 C105 C 0.58743 0.56273 0.51273
 C106 C 0.61406 0.58676 0.54238
 C107 C 0.60772 0.57612 0.58346
 C108 C 0.57468 0.54016 0.59394
 C109 C 0.54784 0.51630 0.56427
 C110 C 0.54478 0.48999 0.41859
 C111 C 0.57456 0.46828 0.38877
 C112 C 0.61524 0.43815 0.39936
 C113 C 0.62540 0.43028 0.44045
 C114 C 0.59556 0.45188 0.47019
 C115 C 0.45367 0.42787 0.45928
 C116 C 0.42642 0.40106 0.43198
 C117 C 0.38430 0.41941 0.41025
 C118 C 0.36946 0.46489 0.41667
 C119 C 0.39740 0.49199 0.44343
 C120 C 0.40112 0.50988 0.54588
 C121 C 0.37507 0.53437 0.57609
 C122 C 0.38784 0.57975 0.58374
 C123 C 0.42490 0.60105 0.55933
 C124 C 0.44983 0.57698 0.52839
 H125 H 0.59224 0.57211 0.48134
 H126 H 0.63819 0.61435 0.53277
 H127 H 0.56974 0.53023 0.62515
 H128 H 0.52243 0.48895 0.57309
 H129 H 0.51407 0.51344 0.40972
 H130 H 0.56607 0.47535 0.35739
 H131 H 0.60387 0.44489 0.50163
 H132 H 0.48537 0.41266 0.47623
 H133 H 0.43781 0.36579 0.42822
 H134 H 0.33705 0.47971 0.40025
 H135 H 0.38599 0.52727 0.44729
 H136 H 0.39220 0.47436 0.54156
 H137 H 0.34635 0.51744 0.59450
 H138 H 0.43457 0.63631 0.56430
 H139 H 0.47800 0.59425 0.50974
 H140 H 0.65574 0.40669 0.44971
 C141 C 0.03208 0.50280 -0.00379
 C142 C -0.02087 0.49967 -0.00526
 C143 C -0.05021 0.47075 0.02352
 C144 C -0.05218 0.52500 -0.03571
 C145 C 0.06183 0.52789 -0.03496
 C146 C 0.06282 0.48033 0.02863
 C147 C -0.03632 0.42493 0.02962
 C148 C -0.06228 0.39902 0.05844
 C149 C -0.10373 0.41799 0.08063
 C150 C -0.11930 0.46306 0.07319
 C151 C -0.09258 0.48930 0.04500
 C152 C -0.08761 0.50161 -0.06002
 C153 C -0.11644 0.52473 -0.08939
 C154 C -0.11017 0.57153 -0.09490
 C155 C -0.07589 0.59526 -0.06998
 C156 C -0.04734 0.57221 -0.04037
 C157 C 0.09585 0.56232 -0.02328
 C158 C 0.12204 0.58778 -0.05233
 C159 C 0.11500 0.57903 -0.09363
 C160 C 0.08202 0.54364 -0.10523
 C161 C 0.05600 0.51806 -0.07616
 C162 C 0.05201 0.48887 0.06950
 C163 C 0.07720 0.46366 0.09958
 C164 C 0.11412 0.42991 0.08933
 C165 C 0.12650 0.42299 0.04844
 C166 C 0.10129 0.44814 0.01841
 H167 H -0.00497 0.40940 0.01242
 H168 H -0.05037 0.36400 0.06310
 H169 H -0.15127 0.47828 0.08994
 H170 H -0.10432 0.52439 0.04048
 H171 H -0.09229 0.46529 -0.05665
 H172 H -0.14310 0.50607 -0.10825
 H173 H -0.02129 0.59111 -0.02120
 H174 H 0.10096 0.57034 0.00835
 H175 H 0.14639 0.61528 -0.04244
 H176 H 0.07644 0.53567 -0.13681
 H177 H 0.03078 0.49095 -0.08577
 H178 H 0.02299 0.51411 0.07799
 H179 H 0.06741 0.47024 0.13085
 H180 H 0.15392 0.39673 0.03946
 H181 H 0.11011 0.44105 -0.01296
 H182 H -0.07154 0.63160 -0.07324
 C183 C 0.53306 1.00634 0.50039
 C184 C 0.47989 1.00788 0.50033
 C185 C 0.44874 0.98556 0.53239
 C186 C 0.44979 1.03078 0.46773
 C187 C 0.56411 1.03349 0.47132
 C188 C 0.56251 0.97788 0.52998
 C189 C 0.41023 0.95449 0.52165
 C190 C 0.38213 0.93177 0.55135
 C191 C 0.39189 0.93981 0.59242
 C192 C 0.42976 0.97164 0.60314
 C193 C 0.45754 0.99469 0.57338
 C194 C 0.45840 1.01978 0.42703
 C195 C 0.42849 1.04038 0.39681
 C196 C 0.38892 1.07194 0.40674
 C197 C 0.38031 1.08270 0.44756
 C198 C 0.41032 1.06219 0.47771
 C199 C 0.55445 1.08027 0.46622
 C200 C 0.58252 1.10503 0.43775
 C201 C 0.62123 1.08358 0.41446
 C202 C 0.63244 1.03738 0.42061
 C203 C 0.60406 1.01249 0.44883
 C204 C 0.60277 0.99703 0.55268
 C205 C 0.62781 0.97171 0.58277
 C206 C 0.61247 0.92707 0.59101
 C207 C 0.57374 0.90727 0.56727
 C208 C 0.54975 0.93213 0.53646
 H209 H 0.40280 0.94702 0.49020
 H210 H 0.35370 0.90704 0.54214
 H211 H 0.43769 0.97882 0.63456
 H212 H 0.48640 1.01919 0.58229
 H213 H 0.48788 0.99486 0.41870
 H214 H 0.43575 1.03108 0.36568
 H215 H 0.40295 1.07103 0.50895
 H216 H 0.52492 1.09750 0.48409
 H217 H 0.57414 1.14090 0.43400
 H218 H 0.66240 1.02042 0.40295
 H219 H 0.61254 0.97661 0.45256
 H220 H 0.61374 1.03202 0.54792
 H221 H 0.65786 0.98749 0.60060
 H222 H 0.56207 0.87256 0.57262
 H223 H 0.52016 0.91607 0.51840
 H224 H 0.35086 1.10745 0.45623
 C225 C 1.13558 0.13130 0.18692
 C226 C 1.18511 0.14900 0.18000
 C227 C 1.21398 0.13091 0.14734
 C228 C 1.19080 0.10101 0.11972
 C229 C 1.13832 0.08839 0.12425
 C230 C 1.11288 0.10162 0.15984
 C231 C 1.06009 0.12228 0.16580
 C232 C 1.08496 0.15493 0.19539
 H233 H 1.25346 0.14171 0.14178
 H234 H 1.21320 0.08957 0.09386
 H235 H 1.03287 0.09830 0.18048
 H236 H 1.04490 0.13915 0.13813
 H237 H 1.07185 0.14983 0.22702
 H238 H 1.08434 0.19080 0.18483
 C239 C 0.71120 0.63936 0.64274
 C240 C 0.68397 0.65474 0.67679
 C241 C 0.63314 0.63838 0.68248
 C242 C 0.60891 0.61227 0.65243
 C243 C 0.63460 0.60207 0.61568
 C244 C 0.68711 0.61443 0.61273
 C245 C 0.71777 0.63776 0.58046
 C246 C 0.74466 0.66416 0.61362
 H247 H 0.61093 0.64779 0.70906
 H248 H 0.56891 0.60239 0.65710
 H249 H 0.69395 0.66063 0.56105
 H250 H 0.74438 0.61402 0.56414
 H251 H 0.73593 0.70126 0.61281
 H252 H 0.78648 0.65489 0.61701
 C253 C -0.12632 0.34154 0.16986
 C254 C -0.17996 0.33623 0.17217
 C255 C -0.20981 0.36032 0.14307
 C256 C -0.18533 0.38779 0.11347
 C257 C -0.13040 0.39092 0.11168
 C258 C -0.10288 0.36682 0.14095
 C259 C -0.04949 0.35539 0.15542
 C260 C -0.07607 0.32628 0.18794
 H261 H -0.25181 0.35792 0.14303
 H262 H -0.20921 0.40561 0.09157
 H263 H -0.02942 0.38555 0.16779
 H264 H -0.02675 0.33504 0.13315
 H265 H -0.07087 0.33937 0.21911
 H266 H -0.06910 0.28919 0.18406
 C267 C 0.36499 0.86948 0.68547
 C268 C 0.31516 0.85272 0.67808
 C269 C 0.28678 0.87230 0.64594
 C270 C 0.31064 0.90282 0.61915
 C271 C 0.36336 0.91451 0.62398
 C272 C 0.38840 0.89969 0.65917
 C273 C 0.44075 0.87802 0.66451
 C274 C 0.41510 0.84480 0.69325
 H275 H 0.24710 0.86229 0.64015
 H276 H 0.28857 0.91548 0.59364
 H277 H 0.46843 0.90105 0.67976
 H278 H 0.45568 0.86185 0.63637
 H279 H 0.42819 0.84863 0.72499
 H280 H 0.41503 0.80930 0.68177
 C281 C -0.14114 0.63701 -0.18978
 C282 C -0.19289 0.65128 -0.18358
 C283 C -0.21987 0.63139 -0.15088
 C284 C -0.19343 0.60341 -0.12287
 C285 C -0.13955 0.59533 -0.12670
 C286 C -0.11515 0.60997 -0.16198
 C287 C -0.06476 0.63349 -0.16859
 C288 C -0.09324 0.66338 -0.19904
 H289 H -0.26057 0.63932 -0.14554
 H290 H -0.21427 0.59063 -0.09689
 H291 H -0.03496 0.61077 -0.18262
 H292 H -0.05137 0.65259 -0.14172
 H293 H -0.07962 0.65798 -0.23055
 H294 H -0.09660 0.69952 -0.18951
 C295 C 0.35364 1.13262 0.30988
 C296 C 0.30400 1.15077 0.31800
 C297 C 0.27812 1.13428 0.35263
 C298 C 0.30456 1.10630 0.38065
 C299 C 0.35730 1.09391 0.37457
 C300 C 0.37929 1.10470 0.33719
 C301 C 0.43099 1.12423 0.32724
 C302 C 0.40292 1.15517 0.29747
 H303 H 0.23869 1.14517 0.35956
 H304 H 0.28447 1.09637 0.40793
 H305 H 0.45691 1.09882 0.31230
 H306 H 0.44846 1.14269 0.35305
 H307 H 0.41329 1.14789 0.26552
 H308 H 0.40382 1.19164 0.30615
 C309 C 1.14630 -0.12957 -0.19310
 C310 C 1.19580 -0.14818 -0.18552
 C311 C 1.22291 -0.13106 -0.15179
 C312 C 1.19783 -0.10195 -0.12392
 C313 C 1.14513 -0.08913 -0.12912
 C314 C 1.12185 -0.10066 -0.16579
 C315 C 1.06966 -0.12004 -0.17406
 C316 C 1.09636 -0.15194 -0.20386
 H317 H 1.26239 -0.14219 -0.14543
 H318 H 1.21892 -0.09154 -0.09732
 H319 H 1.04336 -0.09486 -0.18882
 H320 H 1.05311 -0.13769 -0.14739
 H321 H 1.08498 -0.14534 -0.23568
 H322 H 1.09534 -0.18819 -0.19445
 C323 C 0.64787 0.37011 0.30569
 C324 C 0.69776 0.35295 0.31396
 C325 C 0.72469 0.37231 0.34666
 C326 C 0.69909 0.40261 0.37328
 C327 C 0.64607 0.41424 0.36769
 C328 C 0.62288 0.40017 0.33170
 C329 C 0.57117 0.37924 0.32459
 C330 C 0.59855 0.34609 0.29625
 H331 H 0.76432 0.36191 0.35326
 H332 H 0.72003 0.41483 0.39933
 H333 H 0.54417 0.40297 0.30875
 H334 H 0.55514 0.36291 0.35212
 H335 H 0.58685 0.35049 0.26421
 H336 H 0.59856 0.31045 0.30741
 C337 C 0.85870 -0.16089 -0.17347
 C338 C 0.80513 -0.16674 -0.17436
 C339 C 0.77604 -0.14241 -0.14482
 C340 C 0.80134 -0.11440 -0.11607
 C341 C 0.85632 -0.11101 -0.11562
 C342 C 0.88288 -0.13517 -0.14541
 C343 C 0.93579 -0.14665 -0.16090
 C344 C 0.90842 -0.17630 -0.19247
 H345 H 0.73410 -0.14521 -0.14369
 H346 H 0.77815 -0.09652 -0.09369
 H347 H 0.95927 -0.16662 -0.13889
 H348 H 0.95506 -0.11651 -0.17400
 H349 H 0.91569 -0.21329 -0.18826
 H350 H 0.91264 -0.16365 -0.22389
 C351 C 0.35890 0.33846 0.32480
 C352 C 0.30518 0.33377 0.32320
 C353 C 0.27606 0.35999 0.35141
 C354 C 0.30140 0.38882 0.37949
 C355 C 0.35646 0.39123 0.38064
 C356 C 0.38310 0.36500 0.35227
 C357 C 0.43605 0.35198 0.33774
 C358 C 0.40861 0.32140 0.30691
 H359 H 0.23402 0.35814 0.35196
 H360 H 0.27810 0.40822 0.40078
 H361 H 0.45878 0.33264 0.36064
 H362 H 0.45620 0.38119 0.32379
 H363 H 0.41495 0.28451 0.31247
 H364 H 0.41369 0.33257 0.27513
 C365 C 0.21460 0.65059 -0.14763
 C366 C 0.18980 0.66670 -0.18216
 C367 C 0.13831 0.65138 -0.18821
 C368 C 0.11411 0.62215 -0.15989
 C369 C 0.14051 0.60764 -0.12450
 C370 C 0.19126 0.62311 -0.12021
 C371 C 0.23755 0.62223 -0.09315
 C372 C 0.26370 0.65357 -0.12415
 H373 H 0.11634 0.66250 -0.21432
 H374 H 0.07432 0.61210 -0.16519
 H375 H 0.25585 0.58788 -0.09128
 H376 H 0.23007 0.63921 -0.06374
 H377 H 0.29718 0.63738 -0.14013
 H378 H 0.27047 0.68845 -0.11263
 C379 C 0.64844 1.14841 0.31876
 C380 C 0.69881 1.16485 0.32468
 C381 C 0.72670 1.14753 0.35828
 C382 C 0.70207 1.11952 0.38698
 C383 C 0.64908 1.10884 0.38293
 C384 C 0.62429 1.12131 0.34710
 C385 C 0.57216 1.14222 0.33923
 C386 C 0.59864 1.17227 0.30822
 H387 H 0.76666 1.15713 0.36349
 H388 H 0.72351 1.10839 0.41336
 H389 H 0.55622 1.16156 0.36535
 H390 H 0.54526 1.11747 0.32550
 H391 H 0.59860 1.20882 0.31673
 H392 H 0.58631 1.16513 0.27675
 C393 C 0.21044 0.35656 0.14684
 C394 C 0.18247 0.33823 0.17880
 C395 C 0.12997 0.35309 0.18229
 C396 C 0.10790 0.38385 0.15383
 C397 C 0.13755 0.40047 0.12092
 C398 C 0.18925 0.38560 0.11932
 C399 C 0.23837 0.38806 0.09540
 C400 C 0.26210 0.35502 0.12653
 H401 H 0.10560 0.34031 0.20632
 H402 H 0.06728 0.39335 0.15694
 H403 H 0.25560 0.42248 0.09621
 H404 H 0.23491 0.37274 0.06491
 H405 H 0.29308 0.37031 0.14531
 H406 H 0.27141 0.32087 0.11394
 C407 C 0.71240 0.86958 0.65767
 C408 C 0.68201 0.84228 0.68282
 C409 C 0.62764 0.84963 0.68218
 C410 C 0.60481 0.87865 0.65320
 C411 C 0.63598 0.90162 0.62492
 C412 C 0.68995 0.89900 0.62981
 C413 C 0.73157 0.88983 0.59933
 C414 C 0.75614 0.85746 0.62979
 H415 H 0.60246 0.83065 0.70207
 H416 H 0.56282 0.88148 0.65169
 H417 H 0.75547 0.92033 0.59340
 H418 H 0.71671 0.87250 0.57194
 H419 H 0.79424 0.86927 0.64127
 H420 H 0.75543 0.82133 0.62002
 C421 C 0.78954 0.12548 0.15989
 C422 C 0.81965 0.15283 0.18510
 C423 C 0.87408 0.14579 0.18438
 C424 C 0.89723 0.11732 0.15510
 C425 C 0.86634 0.09459 0.12663
 C426 C 0.81235 0.09654 0.13174
 C427 C 0.77055 0.10550 0.10150
 C428 C 0.74560 0.13735 0.13227
 H429 H 0.89907 0.16488 0.20424
 H430 H 0.93925 0.11500 0.15334
 H431 H 0.74709 0.07479 0.09548
 H432 H 0.78511 0.12322 0.07415
 H433 H 0.70768 0.12503 0.14385
 H434 H 0.74576 0.17356 0.12271
 C435 C 0.28706 0.63569 0.65102
 C436 C 0.31722 0.66241 0.67673
 C437 C 0.37160 0.65505 0.67610
 C438 C 0.39472 0.62671 0.64668
 C439 C 0.36384 0.60436 0.61795
 C440 C 0.30981 0.60687 0.62271
 C441 C 0.26851 0.61675 0.59227
 C442 C 0.24363 0.64844 0.62323
 H443 H 0.39659 0.67356 0.69639
 H444 H 0.43675 0.62393 0.64521
 H445 H 0.24467 0.58641 0.58572
 H446 H 0.28366 0.63469 0.56524
 H447 H 0.20540 0.63638 0.63439
 H448 H 0.24444 0.68478 0.61412
   
