data_POSCAR
  _audit_creation_date              2014-09-24
  _audit_creation_method            'ToBaCCo'
  _symmetry_space_group_name_H-M    'P1'
  _symmetry_Int_Tables_number       1
  _symmetry_cell_setting            triclinic
  loop_
  _symmetry_equiv_pos_as_xyz
 x,y,z
_cell_length_a 28.7392
_cell_length_b 28.6250
_cell_length_c 28.4582
_cell_angle_alpha 89.951000
_cell_angle_beta 89.926600
_cell_angle_gamma 89.892900
loop_
  _atom_site_label
  _atom_site_type_symbol
  _atom_site_fract_x
  _atom_site_fract_y
  _atom_site_fract_z
C1 C 0.16376 0.16291 0.22460
 C2 C 0.14311 0.20236 0.20402
 C3 C 0.16281 0.22334 0.16438
 C4 C 0.20313 0.20439 0.14446
 C5 C 0.22443 0.16486 0.16434
 C6 C 0.20438 0.14412 0.20439
 H7 H 0.11224 0.21752 0.21927
 H8 H 0.21805 0.22143 0.11406
 H9 H 0.22088 0.11393 0.22036
 C10 C -0.16638 0.83428 0.22622
 C11 C -0.20625 0.85420 0.20566
 C12 C -0.22614 0.83435 0.16545
 C13 C -0.20581 0.79463 0.14539
 C14 C -0.16618 0.77427 0.16542
 C15 C -0.14645 0.79430 0.20568
 H16 H -0.22261 0.88465 0.22101
 H17 H -0.22134 0.77910 0.11468
 H18 H -0.11603 0.77825 0.22145
 C19 C -0.16694 0.16358 -0.22850
 C20 C -0.20684 0.14560 -0.20631
 C21 C -0.22535 0.16749 -0.16633
 C22 C -0.20359 0.20734 -0.14827
 C23 C -0.16392 0.22571 -0.17004
 C24 C -0.14559 0.20365 -0.20997
 H25 H -0.22418 0.11508 -0.22021
 H26 H -0.21776 0.22482 -0.11774
 H27 H -0.11513 0.21791 -0.22717
 C28 C 0.16531 0.83573 -0.22321
 C29 C 0.14604 0.79608 -0.20172
 C30 C 0.16641 0.77670 -0.16161
 C31 C 0.20598 0.79745 -0.14219
 C32 C 0.22574 0.83715 -0.16302
 C33 C 0.20518 0.85630 -0.20346
 H34 H 0.11573 0.77921 -0.21640
 H35 H 0.22182 0.78209 -0.11148
 H36 H 0.22076 0.88663 -0.22000
 C37 C 0.16557 1.16253 0.77269
 C38 C 0.14492 1.20264 0.79190
 C39 C 0.16412 1.22421 0.83163
 C40 C 0.20410 1.20508 0.85246
 C41 C 0.22502 1.16495 0.83358
 C42 C 0.20540 1.14373 0.79395
 H43 H 0.11442 1.21736 0.77520
 H44 H 0.21943 1.22192 0.88281
 H45 H 0.22168 1.11310 0.77922
 C46 C 0.83394 0.83393 0.77427
 C47 C 0.79450 0.85479 0.79447
 C48 C 0.77353 0.83560 0.83444
 C49 C 0.79252 0.79532 0.85491
 C50 C 0.83216 0.77385 0.83540
 C51 C 0.85276 0.79354 0.79509
 H52 H 0.77950 0.88560 0.77879
 H53 H 0.77569 0.78067 0.88557
 H54 H 0.88304 0.77700 0.77949
 C55 C 0.16665 0.83569 1.22468
 C56 C 0.14564 0.79591 1.20536
 C57 C 0.16424 0.77468 1.16511
 C58 C 0.20392 0.79378 1.14380
 C59 C 0.22514 0.83359 1.16280
 C60 C 0.20625 0.85450 1.20298
 H61 H 0.11536 0.78113 1.22240
 H62 H 0.21857 0.77699 1.11308
 H63 H 0.22329 0.88487 1.21756
 C64 C 0.83409 1.16492 1.22746
 C65 C 0.79394 1.14705 1.20604
 C66 C 0.77476 1.16886 1.16650
 C67 C 0.79618 1.20874 1.14781
 C68 C 0.83639 1.22723 1.16868
 C69 C 0.85526 1.20499 1.20848
 H70 H 0.77676 1.11654 1.22024
 H71 H 0.78129 1.22596 1.11745
 H72 H 0.88601 1.21893 1.22529
 N73 N 0.54943 1.08643 0.95228
 N74 N 0.58605 1.11389 0.94771
 N75 N 0.45154 1.05466 0.91918
 N76 N 0.41491 1.05936 0.89166
 N77 N 0.45135 1.08676 0.95212
 N78 N 0.41464 1.11422 0.94792
 N79 N 0.54947 1.05416 0.91951
 N80 N 0.58598 1.05874 0.89176
 C81 C 0.60829 1.09617 0.90973
 C82 C 0.39248 1.09672 0.90997
 N83 N 0.45112 0.92153 0.95049
 N84 N 0.41444 0.89432 0.94550
 N85 N 0.54950 0.95367 0.91874
 N86 N 0.58616 0.94881 0.89114
 N87 N 0.54910 0.92104 0.95118
 N88 N 0.58535 0.89306 0.94659
 N89 N 0.45141 0.95425 0.91813
 N90 N 0.41500 0.95020 0.89019
 Mn91 Mn 0.50050 1.00421 0.91828
 C92 C 0.39247 0.91259 0.90768
 C93 C 0.60796 0.91079 0.90897
 N94 N 0.45067 1.08569 1.05323
 N95 N 0.41371 1.11279 1.05772
 N96 N 0.54870 1.05297 1.08582
 N97 N 0.58535 1.05734 1.11344
 N98 N 0.54870 1.08562 1.05337
 N99 N 0.58523 1.11307 1.05797
 N100 N 0.45063 1.05293 1.08557
 N101 N 0.41372 1.05683 1.11295
 Mn102 Mn 0.50003 1.08675 1.00276
 C103 C 0.39124 1.09441 1.09522
 C104 C 0.60755 1.09508 1.09563
 N105 N 0.54863 0.92028 1.05210
 N106 N 0.58522 0.89273 1.05653
 N107 N 0.45047 0.95245 1.08453
 N108 N 0.41367 0.94739 1.11190
 N109 N 0.45076 0.92050 1.05145
 N110 N 0.41432 0.89284 1.05534
 N111 N 0.54852 0.95244 1.08498
 N112 N 0.58499 0.94766 1.11271
 Mn113 Mn 0.49989 0.92026 1.00131
 Mn114 Mn 0.49959 1.00270 1.08586
 Cl115 Cl 0.50001 1.00349 1.00206
 C116 C 0.60733 0.91021 1.09454
 C117 C 0.39170 0.90998 1.09322
 N118 N -0.08218 0.44984 0.04933
 N119 N -0.10982 0.41333 0.05444
 N120 N -0.04988 0.54809 0.08253
 N121 N -0.05417 0.58457 0.11054
 N122 N -0.08236 0.54842 0.05011
 N123 N -0.10964 0.58522 0.05513
 N124 N -0.04971 0.44977 0.08177
 N125 N -0.05432 0.41328 0.10977
 C126 C -0.09197 0.39102 0.09234
 C127 C -0.09165 0.60718 0.09304
 N128 N 0.08232 0.54848 0.04909
 N129 N 0.10962 0.58521 0.05359
 N130 N 0.05023 0.44997 0.08107
 N131 N 0.05475 0.41297 0.10832
 N132 N 0.08244 0.45023 0.04833
 N133 N 0.10986 0.41343 0.05238
 N134 N 0.05011 0.54832 0.08185
 N135 N 0.05460 0.58499 0.10957
 Mn136 Mn 0.00019 0.49904 0.08239
 C137 C 0.09194 0.60744 0.09152
 C138 C 0.09213 0.39078 0.09001
 N139 N -0.08279 0.54955 -0.05114
 N140 N -0.11054 0.58612 -0.05557
 N141 N -0.05030 0.45147 -0.08480
 N142 N -0.05472 0.41512 -0.11290
 N143 N -0.08252 0.45099 -0.05202
 N144 N -0.10979 0.41426 -0.05695
 N145 N -0.05056 0.54990 -0.08391
 N146 N -0.05553 0.58668 -0.11154
 Mn147 Mn -0.08311 0.49968 -0.00093
 C148 C -0.09315 0.60879 -0.09345
 C149 C -0.09202 0.39245 -0.09515
 N150 N 0.08214 0.45097 -0.05253
 N151 N 0.10955 0.41424 -0.05725
 N152 N 0.04961 0.54970 -0.08419
 N153 N 0.05402 0.58691 -0.11126
 N154 N 0.08199 0.54915 -0.05168
 N155 N 0.10930 0.58589 -0.05566
 N156 N 0.04979 0.45121 -0.08507
 N157 N 0.05429 0.41454 -0.11284
 Mn158 Mn 0.08278 0.49969 -0.00171
 Mn159 Mn -0.00037 0.50059 -0.08512
 Cl160 Cl -0.00018 0.49975 -0.00136
 C161 C 0.09180 0.39204 -0.09507
 C162 C 0.09148 0.60887 -0.09299
 N163 N 0.95241 -0.08637 0.54968
 N164 N 0.94793 -0.11407 0.58652
 N165 N 0.91996 -0.05451 0.45055
 N166 N 0.89244 -0.05937 0.41382
 N167 N 0.95246 -0.08683 0.45064
 N168 N 0.94790 -0.11462 0.41388
 N169 N 0.91984 -0.05411 0.54957
 N170 N 0.89231 -0.05898 0.58641
 C171 C 0.91025 -0.09656 0.60891
 C172 C 0.91023 -0.09703 0.39146
 N173 N 0.95116 0.07865 0.44956
 N174 N 0.94608 0.10659 0.41301
 N175 N 0.91878 0.04655 0.54880
 N176 N 0.89091 0.05139 0.58539
 N177 N 0.95070 0.07932 0.54855
 N178 N 0.94543 0.10736 0.58501
 N179 N 0.91904 0.04608 0.44969
 N180 N 0.89119 0.05097 0.41311
 Mn181 Mn 0.91879 -0.00402 0.49967
 C182 C 0.90854 0.08890 0.39074
 C183 C 0.90793 0.08950 0.60747
 N184 N 1.05261 -0.08600 0.45100
 N185 N 1.05723 -0.11335 0.41398
 N186 N 1.08436 -0.05253 0.54975
 N187 N 1.11173 -0.05627 0.58675
 N188 N 1.05248 -0.08532 0.55002
 N189 N 1.05725 -0.11229 0.58738
 N190 N 1.08465 -0.05336 0.45096
 N191 N 1.11196 -0.05756 0.41392
 Mn192 Mn 1.00250 -0.08676 0.50033
 C193 C 1.09448 -0.09519 0.39145
 C194 C 1.09444 -0.09375 0.60969
 N195 N 1.05075 0.07996 0.54856
 N196 N 1.05490 0.10784 0.58521
 N197 N 1.08385 0.04683 0.45012
 N198 N 1.11161 0.05113 0.41340
 N199 N 1.05128 0.07905 0.44958
 N200 N 1.05595 0.10618 0.41235
 N201 N 1.08332 0.04775 0.54891
 N202 N 1.11057 0.05278 0.58581
 Mn203 Mn 1.00097 0.07985 0.49905
 Mn204 Mn 1.08461 -0.00283 0.49995
 Cl205 Cl 1.00167 -0.00344 0.49975
 C206 C 1.09242 0.09044 0.60788
 C207 C 1.09378 0.08834 0.39037
 C208 C 1.08532 0.11016 0.29961
 C209 C 1.10176 0.16123 0.29358
 C210 C 1.14503 0.14342 0.26674
 C211 C 1.12869 0.09254 0.27234
 C212 C 1.17272 0.14024 0.31290
 C213 C 1.12937 0.15785 0.34004
 C214 C 1.11300 0.10717 0.34561
 C215 C 1.15612 0.08913 0.31910
 H216 H 1.04915 0.09756 0.29463
 H217 H 1.07804 0.19056 0.28473
 H218 H 1.12849 0.06577 0.24414
 H219 H 1.20887 0.15280 0.31811
 H220 H 1.12955 0.18453 0.36833
 H221 H 1.17825 0.05925 0.33009
 C222 C 0.88626 -0.08736 0.30136
 C223 C 0.90369 -0.13020 0.27301
 C224 C 0.85305 -0.14705 0.26834
 C225 C 0.83541 -0.10434 0.29620
 C226 C 0.85758 -0.17565 0.31398
 C227 C 0.90844 -0.15855 0.31921
 C228 C 0.89066 -0.11597 0.34685
 C229 C 0.84016 -0.13280 0.34220
 H230 H 0.89837 -0.05085 0.29661
 H231 H 0.92971 -0.12913 0.24417
 H232 H 0.80561 -0.08108 0.28791
 H233 H 0.84552 -0.21214 0.31894
 H234 H 0.93867 -0.18065 0.32907
 H235 H 0.81424 -0.13383 0.37113
 C236 C 0.83764 0.12663 0.65646
 C237 C 0.83301 0.09963 0.70342
 C238 C 0.85136 0.14289 0.72974
 C239 C 0.85573 0.17004 0.68320
 C240 C 0.90177 0.12517 0.72497
 C241 C 0.88368 0.08176 0.69813
 C242 C 0.88795 0.10900 0.65176
 C243 C 0.90633 0.15212 0.67797
 H244 H 0.81148 0.12714 0.62780
 H245 H 0.80300 0.07724 0.71304
 H246 H 0.84400 0.20654 0.67727
 H247 H 0.92806 0.12460 0.75351
 H248 H 0.89547 0.04524 0.70380
 H249 H 0.93667 0.17355 0.66717
 C250 C 1.08556 -0.11510 0.70070
 C251 C 1.10358 -0.16563 0.70756
 C252 C 1.14606 -0.14621 0.73428
 C253 C 1.12816 -0.09590 0.72790
 C254 C 1.17397 -0.14290 0.68820
 C255 C 1.13139 -0.16210 0.66113
 C256 C 1.11350 -0.11196 0.65478
 C257 C 1.15583 -0.09239 0.68125
 H258 H 1.04897 -0.10345 0.70533
 H259 H 1.08091 -0.19554 0.71698
 H260 H 1.12691 -0.06876 0.75571
 H261 H 1.21054 -0.15451 0.68333
 H262 H 1.13260 -0.18913 0.63321
 H263 H 1.17711 -0.06205 0.66997
 C264 C 0.30125 1.11583 1.08501
 C265 C 0.27365 1.09664 1.12770
 C266 C 0.26694 1.14696 1.14552
 C267 C 0.29407 1.16636 1.10295
 C268 C 0.31211 1.14367 1.17436
 C269 C 0.31938 1.09315 1.15630
 C270 C 0.34627 1.11269 1.11388
 C271 C 0.33961 1.16285 1.13168
 H272 H 0.29727 1.10416 1.04804
 H273 H 0.24616 1.06948 1.12612
 H274 H 0.28500 1.19628 1.07989
 H275 H 0.31632 1.15531 1.21131
 H276 H 0.33022 1.06283 1.17807
 H277 H 0.36719 1.18990 1.13322
 C278 C 0.30274 0.89044 0.91679
 C279 C 0.27535 0.90846 0.87350
 C280 C 0.26983 0.85774 0.85648
 C281 C 0.29681 0.83955 0.89963
 C282 C 0.31532 0.86133 0.82808
 C283 C 0.32139 0.91226 0.84536
 C284 C 0.34808 0.89383 0.88839
 C285 C 0.34261 0.84329 0.87134
 H286 H 0.29800 0.90269 0.95348
 H287 H 0.24728 0.93514 0.87431
 H288 H 0.28786 0.80985 0.92299
 H289 H 0.32016 0.84914 0.79138
 H290 H 0.33195 0.94239 0.82323
 H291 H 0.37071 0.81665 0.87053
 C292 C 0.69694 0.88714 1.08493
 C293 C 0.72438 0.90523 1.12808
 C294 C 0.72984 0.85457 1.14541
 C295 C 0.70285 0.83628 1.10241
 C296 C 0.68439 0.85849 1.17383
 C297 C 0.67842 0.90935 1.15629
 C298 C 0.65167 0.89090 1.11342
 C299 C 0.65705 0.84038 1.13072
 H300 H 0.70160 0.89918 1.04812
 H301 H 0.75250 0.93174 1.12709
 H302 H 0.71195 0.80637 1.07938
 H303 H 0.67959 0.84646 1.21061
 H304 H 0.66794 0.93963 1.17826
 H305 H 0.62888 0.81392 1.13171
 C306 C 0.69855 1.11854 0.91760
 C307 C 0.72477 1.09897 0.87423
 C308 C 0.73070 1.14908 0.85558
 C309 C 0.70497 1.16891 0.89879
 C310 C 0.68459 1.14550 0.82838
 C311 C 0.67821 1.09520 0.84721
 C312 C 0.65262 1.11510 0.89029
 C313 C 0.65845 1.16511 0.87171
 H314 H 0.70380 1.10721 0.95453
 H315 H 0.75244 1.07187 0.87514
 H316 H 0.71531 1.19917 0.92072
 H317 H 0.67919 1.15678 0.79146
 H318 H 0.66686 1.06467 0.82613
 H319 H 0.63071 1.19214 0.87081
 C320 C 0.12759 0.34027 0.15962
 C321 C 0.09975 0.29421 0.16303
 C322 C 0.14259 0.26746 0.14453
 C323 C 0.17054 0.31316 0.14131
 C324 C 0.12583 0.27341 0.09355
 C325 C 0.08282 0.30065 0.11184
 C326 C 0.11085 0.34616 0.10879
 C327 C 0.15357 0.31963 0.09012
 H328 H 0.12821 0.36830 0.18655
 H329 H 0.07677 0.28466 0.19287
 H330 H 0.20684 0.31790 0.15370
 H331 H 0.12522 0.24543 0.06658
 H332 H 0.04652 0.29607 0.09939
 H333 H 0.17549 0.33058 0.05992
 C334 C -0.12819 0.34284 -0.16558
 C335 C -0.10043 0.29663 -0.17006
 C336 C -0.14290 0.26981 -0.15105
 C337 C -0.17080 0.31558 -0.14680
 C338 C -0.12520 0.27515 -0.10031
 C339 C -0.08255 0.30249 -0.11908
 C340 C -0.11058 0.34807 -0.11493
 C341 C -0.15293 0.32135 -0.09587
 H342 H -0.12934 0.37119 -0.19219
 H343 H -0.07834 0.28693 -0.20054
 H344 H -0.20731 0.32062 -0.15847
 H345 H -0.12403 0.24687 -0.07363
 H346 H -0.04604 0.29761 -0.10734
 H347 H -0.17438 0.33187 -0.06517
 C348 C 0.11446 0.69846 -0.08166
 C349 C 0.16513 0.70454 -0.09912
 C350 C 0.14682 0.73244 -0.14158
 C351 C 0.09638 0.72686 -0.12429
 C352 C 0.14286 0.68739 -0.17078
 C353 C 0.16096 0.65910 -0.12820
 C354 C 0.11063 0.65361 -0.11099
 C355 C 0.09222 0.68133 -0.15332
 H356 H 0.10247 0.70244 -0.04477
 H357 H 0.19503 0.71346 -0.07621
 H358 H 0.07004 0.75523 -0.12276
 H359 H 0.15484 0.68322 -0.20764
 H360 H 0.18726 0.63069 -0.12974
 H361 H 0.06204 0.67133 -0.17542
 C362 C -0.16064 0.65720 0.13008
 C363 C -0.14228 0.68428 0.17330
 C364 C -0.14609 0.73010 0.14522
 C365 C -0.16461 0.70336 0.10211
 C366 C -0.09574 0.72449 0.12760
 C367 C -0.09173 0.67813 0.15544
 C368 C -0.11045 0.65165 0.11246
 C369 C -0.11407 0.69732 0.08434
 H370 H -0.18715 0.62905 0.13099
 H371 H -0.15411 0.67927 0.21011
 H372 H -0.19442 0.71267 0.07920
 H373 H -0.06919 0.75260 0.12669
 H374 H -0.06152 0.66730 0.17718
 H375 H -0.10220 0.70219 0.04753
 C376 C 1.09249 0.15257 0.67895
 C377 C 1.09680 0.12505 0.72566
 C378 C 1.14709 0.14266 0.73081
 C379 C 1.14299 0.17042 0.68465
 C380 C 1.16579 0.09972 0.70402
 C381 C 1.11526 0.08197 0.69836
 C382 C 1.11130 0.10979 0.65238
 C383 C 1.16145 0.12736 0.65748
 H384 H 1.06214 0.17408 0.66817
 H385 H 1.07035 0.12416 0.75411
 H386 H 1.15464 0.20700 0.67929
 H387 H 1.19572 0.07693 0.71311
 H388 H 1.10358 0.04536 0.70345
 H389 H 1.18779 0.12821 0.62893
 C390 C 0.88687 -0.08760 0.69923
 C391 C 0.83607 -0.10455 0.70457
 C392 C 0.85376 -0.14754 0.73213
 C393 C 0.90437 -0.13069 0.72721
 C394 C 0.85802 -0.17578 0.68629
 C395 C 0.84053 -0.13269 0.65843
 C396 C 0.89095 -0.11581 0.65354
 C397 C 0.90886 -0.15865 0.68078
 H398 H 0.89901 -0.05113 0.70411
 H399 H 0.80645 -0.08100 0.71271
 H400 H 0.93055 -0.12992 0.75586
 H401 H 0.84594 -0.21224 0.68121
 H402 H 0.81445 -0.13343 0.62971
 H403 H 0.93902 -0.18069 0.67053
 C404 C 1.16369 -0.13075 0.34046
 C405 C 1.14531 -0.17346 0.31285
 C406 C 1.14872 -0.14497 0.26709
 C407 C 1.16736 -0.10238 0.29428
 C408 C 1.09834 -0.12767 0.27316
 C409 C 1.09473 -0.15595 0.31944
 C410 C 1.11344 -0.11352 0.34647
 C411 C 1.11673 -0.08494 0.30089
 H412 H 1.19031 -0.13192 0.36867
 H413 H 1.15731 -0.21006 0.31748
 H414 H 1.19705 -0.07946 0.28493
 H415 H 1.07160 -0.12645 0.24506
 H416 H 1.06467 -0.17779 0.33024
 H417 H 1.10470 -0.04831 0.29655
 C418 C 0.83866 0.12706 0.34216
 C419 C 0.85719 0.17055 0.31573
 C420 C 0.85260 0.14393 0.26898
 C421 C 0.83382 0.10056 0.29503
 C422 C 0.90281 0.12562 0.27347
 C423 C 0.90760 0.15203 0.32071
 C424 C 0.88874 0.10882 0.34660
 C425 C 0.88428 0.08212 0.30002
 H426 H 0.81247 0.12753 0.37086
 H427 H 0.84587 0.20712 0.32197
 H428 H 0.80365 0.07837 0.28556
 H429 H 0.92913 0.12511 0.24489
 H430 H 0.93815 0.17304 0.33162
 H431 H 0.89567 0.04553 0.29403
 C432 C 0.15327 0.32107 -0.09494
 C433 C 0.12587 0.27469 -0.09849
 C434 C 0.14349 0.26860 -0.14921
 C435 C 0.17109 0.31451 -0.14586
 C436 C 0.10076 0.29509 -0.16838
 C437 C 0.08298 0.30165 -0.11743
 C438 C 0.11066 0.34739 -0.11422
 C439 C 0.12825 0.34139 -0.16483
 H440 H 0.17472 0.33215 -0.06452
 H441 H 0.12499 0.24685 -0.07132
 H442 H 0.20755 0.31946 -0.15775
 H443 H 0.07841 0.28517 -0.19851
 H444 H 0.04653 0.29683 -0.10548
 H445 H 0.12911 0.36929 -0.19193
 C446 C -0.15392 0.32033 0.09446
 C447 C -0.12660 0.27382 0.09883
 C448 C -0.14361 0.26897 0.14994
 C449 C -0.17114 0.31501 0.14577
 C450 C -0.10057 0.29554 0.16796
 C451 C -0.08341 0.30091 0.11660
 C452 C -0.11102 0.34678 0.11252
 C453 C -0.12796 0.34199 0.16353
 H454 H -0.17572 0.33084 0.06405
 H455 H -0.12604 0.24542 0.07229
 H456 H -0.20741 0.32063 0.15802
 H457 H -0.07784 0.28623 0.19804
 H458 H -0.04713 0.29553 0.10428
 H459 H -0.12846 0.37050 0.18995
 C460 C -0.09443 0.68019 -0.15548
 C461 C -0.14505 0.68600 -0.17319
 C462 C -0.14922 0.73175 -0.14504
 C463 C -0.09880 0.72644 -0.12755
 C464 C -0.16754 0.70473 -0.10189
 C465 C -0.16313 0.65859 -0.12992
 C466 C -0.11283 0.65334 -0.11247
 C467 C -0.11689 0.69894 -0.08427
 H468 H -0.06416 0.66976 -0.17738
 H469 H -0.15684 0.68086 -0.20996
 H470 H -0.07239 0.75468 -0.12660
 H471 H -0.19744 0.71373 -0.07890
 H472 H -0.18943 0.63026 -0.13082
 H473 H -0.10504 0.70386 -0.04750
 C474 C 0.12882 0.65758 0.16106
 C475 C 0.17129 0.68470 0.14173
 C476 C 0.14347 0.73051 0.14587
 C477 C 0.10112 0.70379 0.16542
 C478 C 0.12532 0.72484 0.09535
 C479 C 0.15295 0.67855 0.09101
 C480 C 0.11073 0.65200 0.11065
 C481 C 0.08280 0.69764 0.11466
 H482 H 0.13016 0.62944 0.18789
 H483 H 0.20791 0.67971 0.15308
 H484 H 0.07909 0.71345 0.19595
 H485 H 0.12398 0.75292 0.06845
 H486 H 0.17411 0.66779 0.06019
 H487 H 0.04616 0.70245 0.10328
 C488 C 0.32038 1.15767 0.90959
 C489 C 0.31425 1.17502 0.85839
 C490 C 0.26931 1.14612 0.85444
 C491 C 0.27488 1.12901 0.90541
 C492 C 0.29715 1.10374 0.83611
 C493 C 0.34239 1.13254 0.84023
 C494 C 0.34791 1.11540 0.89103
 C495 C 0.30312 1.08649 0.88726
 H496 H 0.33041 1.17965 0.94004
 H497 H 0.31848 1.21164 0.84628
 H498 H 0.24668 1.12764 0.93207
 H499 H 0.28884 1.08053 0.80609
 H500 H 0.37062 1.13391 0.81360
 H501 H 0.29902 1.04984 0.89937
 C502 C 0.30234 0.88646 1.08245
 C503 C 0.29653 0.83535 1.09938
 C504 C 0.26913 0.85317 1.14232
 C505 C 0.27443 0.90404 1.12558
 C506 C 0.31430 0.85697 1.17110
 C507 C 0.34212 0.83937 1.12801
 C508 C 0.34732 0.89015 1.11136
 C509 C 0.32004 0.90802 1.15419
 H510 H 0.29794 0.89897 1.04580
 H511 H 0.28727 0.80553 1.07636
 H512 H 0.24612 0.93045 1.12462
 H513 H 0.31887 0.84452 1.20777
 H514 H 0.37049 0.81302 1.12896
 H515 H 0.33008 0.93809 1.17657
 C516 C 0.67919 1.09515 1.15665
 C517 C 0.72486 1.09952 1.12806
 C518 C 0.73049 1.14994 1.14596
 C519 C 0.68528 1.14574 1.17473
 C520 C 0.70320 1.16894 1.10347
 C521 C 0.69708 1.11831 1.08540
 C522 C 0.65204 1.11423 1.11428
 C523 C 0.65758 1.16455 1.13209
 H524 H 0.66895 1.06461 1.17837
 H525 H 0.75298 1.07294 1.12645
 H526 H 0.68076 1.15731 1.21168
 H527 H 0.71255 1.19924 1.08104
 H528 H 0.70144 1.10668 1.04845
 H529 H 0.62940 1.19107 1.13370
 C530 C 0.67777 0.84796 0.90905
 C531 C 0.68368 0.82985 0.85816
 C532 C 0.72979 0.85685 0.85425
 C533 C 0.72436 0.87476 0.90495
 C534 C 0.70388 0.90012 0.83515
 C535 C 0.65742 0.87322 0.83925
 C536 C 0.65208 0.89109 0.88979
 C537 C 0.69801 0.91818 0.88606
 H538 H 0.66661 0.82669 0.93968
 H539 H 0.67812 0.79329 0.84649
 H540 H 0.75229 0.87527 0.93185
 H541 H 0.71360 0.92253 0.80489
 H542 H 0.62944 0.87271 0.81240
 H543 H 0.70341 0.95476 0.89776
   
