data_POSCAR
  _audit_creation_date              2014-09-24
  _audit_creation_method            'ToBaCCo'
  _symmetry_space_group_name_H-M    'P1'
  _symmetry_Int_Tables_number       1
  _symmetry_cell_setting            triclinic
  loop_
  _symmetry_equiv_pos_as_xyz
 x,y,z
_cell_length_a 44.0910
_cell_length_b 44.8064
_cell_length_c 26.2917
_cell_angle_alpha 89.987000
_cell_angle_beta 89.921000
_cell_angle_gamma 119.711700
loop_
  _atom_site_label
  _atom_site_type_symbol
  _atom_site_fract_x
  _atom_site_fract_y
  _atom_site_fract_z
C1 C 0.54686 1.07427 0.45289
 C2 C 0.55654 1.09191 0.49946
 C3 C 0.55163 1.07497 0.54629
 C4 C 0.53734 1.03868 0.54623
 C5 C 0.52516 1.02000 0.50012
 C6 C 0.52954 1.03771 0.45344
 C7 C 0.51488 1.01822 0.40909
 C8 C 0.49952 0.98266 0.40943
 C9 C 0.49651 0.96475 0.45466
 C10 C 0.50883 0.98342 0.50063
 C11 C 0.53737 1.02078 0.59021
 C12 C 0.52190 0.98519 0.59051
 C13 C 0.50543 0.96567 0.54696
 C14 C 0.48820 0.92905 0.54755
 C15 C 0.47823 0.91149 0.50087
 C16 C 0.48187 0.92867 0.45498
 H17 H 0.51466 1.03012 0.37345
 H18 H 0.48994 0.96938 0.37364
 H19 H 0.55028 1.03413 0.62470
 H20 H 0.52383 0.97323 0.62516
 H21 H 0.56843 1.11966 0.49921
 H22 H 0.46512 0.88364 0.50007
 C23 C -0.07183 0.46828 0.45259
 C24 C -0.09016 0.45782 0.49846
 C25 C -0.07369 0.47021 0.54560
 C26 C -0.03677 0.49260 0.54652
 C27 C -0.01763 0.50252 0.50011
 C28 C -0.03529 0.49041 0.45308
 C29 C -0.01584 0.49986 0.40771
 C30 C 0.02008 0.52154 0.40820
 C31 C 0.03817 0.53442 0.45413
 C32 C 0.01939 0.52415 0.50066
 C33 C -0.01806 0.50381 0.59242
 C34 C 0.01784 0.52569 0.59287
 C35 C 0.03752 0.53523 0.54765
 C36 C 0.07459 0.55670 0.54786
 C37 C 0.09213 0.56781 0.50107
 C38 C 0.07469 0.55668 0.45470
 H39 H -0.02815 0.49024 0.37123
 H40 H 0.03356 0.52774 0.37202
 H41 H -0.03066 0.49552 0.62898
 H42 H 0.02979 0.53509 0.62953
 H43 H -0.11831 0.44146 0.49695
 H44 H 0.12033 0.58386 0.50035
 C45 C 0.51636 0.44414 0.45536
 C46 C 0.52340 0.43328 0.50145
 C47 C 0.51427 0.44156 0.54851
 C48 C 0.49528 0.45968 0.54861
 C49 C 0.48859 0.47149 0.50207
 C50 C 0.49901 0.46352 0.45531
 C51 C 0.49058 0.47393 0.40957
 C52 C 0.47286 0.49235 0.40965
 C53 C 0.46282 0.50115 0.45547
 C54 C 0.47042 0.49039 0.50215
 C55 C 0.47994 0.46355 0.59326
 C56 C 0.46224 0.48197 0.59334
 C57 C 0.45893 0.49751 0.54878
 C58 C 0.44158 0.51721 0.54885
 C59 C 0.43362 0.52668 0.50187
 C60 C 0.44414 0.51924 0.45570
 H61 H 0.49702 0.46741 0.37304
 H62 H 0.46657 0.49906 0.37318
 H63 H 0.48036 0.45134 0.62852
 H64 H 0.45012 0.48283 0.62866
 H65 H 0.53820 0.41987 0.50033
 H66 H 0.42080 0.54200 0.50087
 O67 O 0.38540 0.66805 -0.05682
 O68 O 0.39271 0.72875 -0.04180
 C69 C 0.37273 0.73529 -0.06868
 O70 O 0.34034 0.72204 -0.05981
 O71 O 0.27872 0.66910 -0.04408
 C72 C 0.27221 0.64226 -0.06914
 O73 O 0.28571 0.62384 -0.05829
 O74 O 0.33970 0.61652 -0.04022
 C75 C 0.36671 0.63626 -0.06620
 O76 O 0.38512 0.65788 0.04459
 O77 O 0.38894 0.71716 0.05952
 C78 C 0.37485 0.73535 0.06834
 O79 O 0.35002 0.73361 0.04145
 O80 O 0.28976 0.67892 0.05724
 C81 C 0.27137 0.64722 0.06748
 O82 O 0.27360 0.62406 0.04247
 O83 O 0.32941 0.61985 0.06057
 C84 C 0.36164 0.63330 0.07060
 Cr85 Cr 0.38619 0.69220 0.00134
 Cr86 Cr 0.31550 0.69987 -0.00125
 Cr87 Cr 0.30817 0.62290 0.00111
 O88 O 0.33661 0.67165 0.00040
 O89 O 0.60998 0.33601 -0.04112
 O90 O 0.61572 0.28183 -0.05866
 C91 C 0.63369 0.26763 -0.06895
 O92 O 0.66062 0.27342 -0.04360
 O93 O 0.71535 0.33327 -0.06029
 C94 C 0.72951 0.36515 -0.06961
 O95 O 0.72381 0.38552 -0.04277
 O96 O 0.66290 0.38018 -0.05754
 C97 C 0.63055 0.36242 -0.06701
 O98 O 0.61292 0.32606 0.05977
 O99 O 0.61557 0.27017 0.04230
 C100 C 0.63867 0.26744 0.06759
 O101 O 0.67097 0.28487 0.05742
 O102 O 0.72760 0.34321 0.04070
 C103 C 0.73024 0.36806 0.06743
 O104 O 0.71237 0.38259 0.05872
 O105 O 0.65290 0.38048 0.04391
 C106 C 0.62746 0.35785 0.06981
 Cr107 Cr 0.61540 0.30453 0.00056
 Cr108 Cr 0.69262 0.30952 -0.00140
 Cr109 Cr 0.68717 0.38037 0.00057
 O110 O 0.66505 0.33147 -0.00007
 C111 C 0.45515 0.86761 -0.31906
 C112 C 0.45253 0.89740 -0.32206
 C113 C 0.46398 0.91800 -0.36560
 C114 C 0.47863 0.90936 -0.40694
 C115 C 0.48083 0.87903 -0.40336
 C116 C 0.46940 0.85852 -0.35971
 C117 C 0.44208 0.84573 -0.27502
 C118 C 0.43063 0.82714 -0.23847
 C119 C 0.41638 0.80465 -0.19525
 C120 C 0.38089 0.79013 -0.18351
 C121 C 0.36673 0.76777 -0.14215
 C122 C 0.38794 0.75960 -0.11188
 C123 C 0.42367 0.77450 -0.12388
 C124 C 0.43776 0.79686 -0.16531
 H125 H 0.44102 0.90438 -0.29111
 H126 H 0.46001 0.93996 -0.36764
 H127 H 0.49208 0.87145 -0.43392
 H128 H 0.47144 0.83543 -0.35785
 H129 H 0.36409 0.79595 -0.20649
 H130 H 0.33914 0.75676 -0.13410
 H131 H 0.44073 0.76873 -0.10148
 H132 H 0.46527 0.80792 -0.17412
 C133 C 0.13816 0.58516 -0.32036
 C134 C 0.11150 0.55116 -0.32669
 C135 C 0.09029 0.54171 -0.36990
 C136 C 0.09506 0.56628 -0.40728
 C137 C 0.12261 0.60030 -0.40083
 C138 C 0.14372 0.60966 -0.35757
 C139 C 0.16032 0.59480 -0.27627
 C140 C 0.17915 0.60292 -0.23962
 C141 C 0.20194 0.61254 -0.19624
 C142 C 0.21687 0.59254 -0.18223
 C143 C 0.23953 0.60209 -0.14072
 C144 C 0.24761 0.63185 -0.11255
 C145 C 0.23232 0.65171 -0.12682
 C146 C 0.20964 0.64209 -0.16841
 H147 H 0.10737 0.53184 -0.29853
 H148 H 0.07080 0.51492 -0.37477
 H149 H 0.12732 0.61994 -0.42872
 H150 H 0.16446 0.63603 -0.35321
 H151 H 0.21112 0.56965 -0.20356
 H152 H 0.25084 0.58622 -0.13088
 H153 H 0.23800 0.67478 -0.10607
 H154 H 0.19826 0.65778 -0.17901
 C155 C 0.41787 0.55531 -0.31811
 C156 C 0.44986 0.55608 -0.32228
 C157 C 0.45765 0.54331 -0.36590
 C158 C 0.43334 0.52911 -0.40602
 C159 C 0.40143 0.52913 -0.40151
 C160 C 0.39372 0.54188 -0.35783
 C161 C 0.40995 0.56879 -0.27351
 C162 C 0.40309 0.58019 -0.23647
 C163 C 0.39463 0.59396 -0.19271
 C164 C 0.41532 0.62872 -0.18026
 C165 C 0.40652 0.64241 -0.13874
 C166 C 0.37682 0.62147 -0.10905
 C167 C 0.35638 0.58645 -0.12163
 C168 C 0.36525 0.57284 -0.16320
 H169 H 0.46898 0.56693 -0.29206
 H170 H 0.48320 0.54555 -0.36883
 H171 H 0.38190 0.51839 -0.43120
 H172 H 0.36890 0.54126 -0.35505
 H173 H 0.43809 0.64532 -0.20293
 H174 H 0.42280 0.66946 -0.13022
 H175 H 0.33333 0.56962 -0.09971
 H176 H 0.34902 0.54590 -0.17258
 C177 C 0.57706 0.13602 -0.32039
 C178 C 0.54609 0.10443 -0.32247
 C179 C 0.53775 0.08410 -0.36620
 C180 C 0.56048 0.09489 -0.40854
 C181 C 0.59137 0.12710 -0.40597
 C182 C 0.59962 0.14730 -0.36222
 C183 C 0.58563 0.15722 -0.27573
 C184 C 0.59324 0.17546 -0.23879
 C185 C 0.60276 0.19775 -0.19525
 C186 C 0.58312 0.21337 -0.18225
 C187 C 0.59298 0.23588 -0.14092
 C188 C 0.62270 0.24310 -0.11199
 C189 C 0.64213 0.22703 -0.12520
 C190 C 0.63220 0.20454 -0.16657
 H191 H 0.52819 0.09566 -0.29051
 H192 H 0.51298 0.06037 -0.36740
 H193 H 0.60978 0.13633 -0.43730
 H194 H 0.62367 0.17175 -0.36102
 H195 H 0.56033 0.20836 -0.20430
 H196 H 0.57745 0.24780 -0.13188
 H197 H 0.66516 0.23203 -0.10386
 H198 H 0.64765 0.19265 -0.17641
 C199 C 0.86119 0.43951 -0.32386
 C200 C 0.88603 0.47416 -0.33088
 C201 C 0.90754 0.48447 -0.37395
 C202 C 0.90496 0.46016 -0.41032
 C203 C 0.87894 0.42553 -0.40347
 C204 C 0.85753 0.41531 -0.36042
 C205 C 0.83944 0.42852 -0.27918
 C206 C 0.82098 0.41844 -0.24204
 C207 C 0.79863 0.40544 -0.19813
 C208 C 0.79186 0.42733 -0.16822
 C209 C 0.76963 0.41435 -0.12609
 C210 C 0.75385 0.37925 -0.11337
 C211 C 0.76103 0.35755 -0.14359
 C212 C 0.78325 0.37058 -0.18563
 H213 H 0.88869 0.49321 -0.30319
 H214 H 0.92575 0.51160 -0.37930
 H215 H 0.87588 0.40606 -0.43067
 H216 H 0.83824 0.38844 -0.35551
 H217 H 0.80361 0.45436 -0.17761
 H218 H 0.76462 0.43176 -0.10375
 H219 H 0.74933 0.33042 -0.13500
 H220 H 0.78829 0.35341 -0.20855
 C221 C 0.55141 0.41627 -0.31872
 C222 C 0.55338 0.44830 -0.32275
 C223 C 0.54093 0.45662 -0.36628
 C224 C 0.52585 0.43282 -0.40646
 C225 C 0.52467 0.40085 -0.40209
 C226 C 0.53710 0.39262 -0.35849
 C227 C 0.56458 0.40781 -0.27421
 C228 C 0.57572 0.40052 -0.23723
 C229 C 0.58920 0.39159 -0.19354
 C230 C 0.62458 0.41121 -0.18101
 C231 C 0.63798 0.40199 -0.13950
 C232 C 0.61610 0.37293 -0.10990
 C233 C 0.58047 0.35356 -0.12258
 C234 C 0.56715 0.36285 -0.16413
 H235 H 0.56492 0.46702 -0.29249
 H236 H 0.54411 0.48213 -0.36911
 H237 H 0.51322 0.38172 -0.43183
 H238 H 0.53555 0.36777 -0.35583
 H239 H 0.64190 0.43348 -0.20359
 H240 H 0.66552 0.41745 -0.13091
 H241 H 0.56291 0.33103 -0.10072
 H242 H 0.53973 0.34745 -0.17357
 C243 C 0.86585 0.43495 0.31726
 C244 C 0.88549 0.47003 0.32860
 C245 C 0.90622 0.48091 0.37228
 C246 C 0.90769 0.45681 0.40486
 C247 C 0.88794 0.42167 0.39335
 C248 C 0.86719 0.41080 0.34963
 C249 C 0.84360 0.42374 0.27321
 C250 C 0.82465 0.41442 0.23665
 C251 C 0.80165 0.40332 0.19342
 C252 C 0.78221 0.41940 0.18194
 C253 C 0.75922 0.40818 0.14069
 C254 C 0.75536 0.38064 0.11028
 C255 C 0.77524 0.36480 0.12197
 C256 C 0.79820 0.37608 0.16327
 H257 H 0.88446 0.48891 0.30400
 H258 H 0.92084 0.50808 0.38106
 H259 H 0.88848 0.40273 0.41836
 H260 H 0.85195 0.38359 0.34136
 H261 H 0.78465 0.44049 0.20508
 H262 H 0.74432 0.42093 0.13286
 H263 H 0.77287 0.34351 0.09948
 H264 H 0.81309 0.36341 0.17188
 C265 C 0.57607 0.13529 0.31919
 C266 C 0.56057 0.14294 0.35978
 C267 C 0.55070 0.12268 0.40366
 C268 C 0.55570 0.09398 0.40750
 C269 C 0.57187 0.08693 0.36648
 C270 C 0.58177 0.10731 0.32264
 C271 C 0.58663 0.15662 0.27446
 C272 C 0.59550 0.17492 0.23745
 C273 C 0.60618 0.19725 0.19381
 C274 C 0.58135 0.20067 0.16518
 C275 C 0.59183 0.22323 0.12378
 C276 C 0.62737 0.24272 0.11048
 C277 C 0.65210 0.23884 0.13932
 C278 C 0.64153 0.21626 0.18068
 H279 H 0.55614 0.16463 0.35756
 H280 H 0.53827 0.12899 0.43411
 H281 H 0.57782 0.06624 0.36886
 H282 H 0.59423 0.10147 0.29169
 H283 H 0.55391 0.18613 0.17512
 H284 H 0.57212 0.22561 0.10250
 H285 H 0.67965 0.25344 0.13023
 H286 H 0.66098 0.21386 0.20268
 C287 C 0.55300 0.41775 0.32086
 C288 C 0.56704 0.45229 0.33470
 C289 C 0.55488 0.46100 0.37825
 C290 C 0.52841 0.43522 0.40809
 C291 C 0.51453 0.40065 0.39414
 C292 C 0.52670 0.39197 0.35063
 C293 C 0.56590 0.40858 0.27670
 C294 C 0.57656 0.40038 0.24007
 C295 C 0.58905 0.38995 0.19678
 C296 C 0.61713 0.41437 0.16796
 C297 C 0.62956 0.40402 0.12644
 C298 C 0.61402 0.36904 0.11322
 C299 C 0.58569 0.34474 0.14240
 C300 C 0.57334 0.35516 0.18384
 H301 H 0.58752 0.47242 0.31209
 H302 H 0.56620 0.48777 0.38894
 H303 H 0.49434 0.38045 0.41703
 H304 H 0.51576 0.36517 0.34039
 H305 H 0.62953 0.44138 0.17772
 H306 H 0.65143 0.42340 0.10489
 H307 H 0.57312 0.31762 0.13339
 H308 H 0.55161 0.33603 0.20595
 C309 C 0.13750 0.58803 0.31954
 C310 C 0.11384 0.59975 0.32861
 C311 C 0.09323 0.58956 0.37262
 C312 C 0.09605 0.56742 0.40770
 C313 C 0.11996 0.55595 0.39856
 C314 C 0.14052 0.56614 0.35464
 C315 C 0.15900 0.59854 0.27459
 C316 C 0.17744 0.60707 0.23740
 C317 C 0.19997 0.61704 0.19357
 C318 C 0.22001 0.65175 0.18032
 C319 C 0.24294 0.66156 0.13894
 C320 C 0.24614 0.63673 0.11023
 C321 C 0.22558 0.60185 0.12360
 C322 C 0.20268 0.59212 0.16500
 H323 H 0.11141 0.61680 0.30178
 H324 H 0.07511 0.59885 0.37940
 H325 H 0.12255 0.53900 0.42540
 H326 H 0.15880 0.55701 0.34808
 H327 H 0.21819 0.67126 0.20228
 H328 H 0.25838 0.68862 0.12979
 H329 H 0.22741 0.58207 0.10242
 H330 H 0.18735 0.56518 0.17504
 C331 C 0.44578 0.86651 0.32075
 C332 C 0.42748 0.88230 0.33964
 C333 C 0.43928 0.90275 0.38329
 C334 C 0.46960 0.90771 0.40814
 C335 C 0.48770 0.89166 0.38927
 C336 C 0.47589 0.87123 0.34568
 C337 C 0.43350 0.84504 0.27630
 C338 C 0.42345 0.82675 0.23935
 C339 C 0.41172 0.80451 0.19566
 C340 C 0.38438 0.80207 0.16567
 C341 C 0.37258 0.77985 0.12388
 C342 C 0.38799 0.75975 0.11159
 C343 C 0.41564 0.76263 0.14186
 C344 C 0.42738 0.78485 0.18355
 H345 H 0.40406 0.87868 0.32079
 H346 H 0.42484 0.91467 0.39779
 H347 H 0.51096 0.89503 0.40833
 H348 H 0.49015 0.85901 0.33153
 H349 H 0.37205 0.81715 0.17476
 H350 H 0.35121 0.77822 0.10151
 H351 H 0.42808 0.74754 0.13359
 H352 H 0.44854 0.78653 0.20656
 C353 C 0.41897 0.55688 0.32148
 C354 C 0.39234 0.53147 0.35129
 C355 C 0.40062 0.51897 0.39471
 C356 C 0.43562 0.53162 0.40852
 C357 C 0.46226 0.55721 0.37864
 C358 C 0.45395 0.56969 0.33519
 C359 C 0.41023 0.57012 0.27740
 C360 C 0.40239 0.58106 0.24083
 C361 C 0.39239 0.59391 0.19760
 C362 C 0.35710 0.57942 0.18477
 C363 C 0.34711 0.59210 0.14333
 C364 C 0.37236 0.61954 0.11406
 C365 C 0.40782 0.63386 0.12719
 C366 C 0.41774 0.62111 0.16870
 H367 H 0.36520 0.52148 0.34115
 H368 H 0.37977 0.49948 0.41764
 H369 H 0.48938 0.56758 0.38923
 H370 H 0.47474 0.58948 0.31253
 H371 H 0.33726 0.55839 0.20694
 H372 H 0.31960 0.58049 0.13439
 H373 H 0.42792 0.65502 0.10557
 H374 H 0.44513 0.63255 0.17837
   
