data_POSCAR
  _audit_creation_date              2014-09-24
  _audit_creation_method            'ToBaCCo'
  _symmetry_space_group_name_H-M    'P1'
  _symmetry_Int_Tables_number       1
  _symmetry_cell_setting            triclinic
  loop_
  _symmetry_equiv_pos_as_xyz
 x,y,z
_cell_length_a 44.7854
_cell_length_b 46.2681
_cell_length_c 46.1318
_cell_angle_alpha 89.992000
_cell_angle_beta 89.816500
_cell_angle_gamma 90.151500
loop_
  _atom_site_label
  _atom_site_type_symbol
  _atom_site_fract_x
  _atom_site_fract_y
  _atom_site_fract_z
C1 C 0.33662 0.37438 1.37088
 C2 C 0.35071 0.34977 1.38251
 C3 C 0.37411 0.33585 1.36756
 C4 C 0.38387 0.34749 1.34094
 C5 C 0.37088 0.37255 1.32939
 C6 C 0.34732 0.38576 1.34446
 H7 H 0.34277 0.34085 1.40284
 H8 H 0.40191 0.33719 1.32919
 H9 H 0.33700 0.40480 1.33526
 C10 C 1.16131 0.62835 0.87004
 C11 C 1.14878 0.61576 0.84505
 C12 C 1.12343 0.62766 0.83177
 C13 C 1.11033 0.65247 0.84386
 C14 C 1.12231 0.66547 0.86879
 C15 C 1.14765 0.65315 0.88179
 H16 H 1.15897 0.59677 0.83558
 H17 H 1.09092 0.66189 0.83365
 H18 H 1.15698 0.66320 0.90094
 C19 C 0.65823 -0.13072 0.12498
 C20 C 0.64561 -0.11804 0.14991
 C21 C 0.62183 -0.13136 0.16462
 C22 C 0.60997 -0.15736 0.15403
 C23 C 0.62149 -0.17018 0.12866
 C24 C 0.64565 -0.15658 0.11438
 H25 H 0.65483 -0.09820 0.15863
 H26 H 0.59164 -0.16745 0.16565
 H27 H 0.65501 -0.16640 0.09508
 C28 C -0.15825 1.12970 -0.36874
 C29 C -0.14360 1.15319 -0.38172
 C30 C -0.11861 1.16620 -0.36847
 C31 C -0.10778 1.15424 -0.34240
 C32 C -0.12200 1.13034 -0.32938
 C33 C -0.14743 1.11847 -0.34262
 H34 H -0.15254 1.16190 -0.40168
 H35 H -0.08845 1.16371 -0.33197
 H36 H -0.15894 1.10037 -0.33267
 C37 C 0.65699 0.63279 0.62249
 C38 C 0.64406 0.61943 0.64682
 C39 C 0.62123 0.63322 0.66245
 C40 C 0.61043 0.66004 0.65287
 C41 C 0.62238 0.67325 0.62797
 C42 C 0.64586 0.65955 0.61313
 H43 H 0.65284 0.59905 0.65457
 H44 H 0.59278 0.67062 0.66494
 H45 H 0.65558 0.66972 0.59417
 C46 C 0.83727 0.36654 0.12774
 C47 C 0.85123 0.38103 0.15079
 C48 C 0.87577 0.36863 0.16491
 C49 C 0.88753 0.34243 0.15469
 C50 C 0.87419 0.32772 0.13134
 C51 C 0.84866 0.33983 0.11843
 H52 H 0.84199 0.40114 0.15879
 H53 H 0.90665 0.33318 0.16560
 H54 H 0.83788 0.32880 0.10056
 C55 C 0.33848 0.12572 0.87382
 C56 C 0.35109 0.15186 0.88368
 C57 C 0.37447 0.16529 0.86849
 C58 C 0.38536 0.15251 0.84305
 C59 C 0.37352 0.12625 0.83287
 C60 C 0.35035 0.11283 0.84858
 H61 H 0.34247 0.16216 0.90306
 H62 H 0.40329 0.16303 0.83126
 H63 H 0.34097 0.09278 0.84057
 C64 C 0.16262 0.87230 0.37671
 C65 C 0.15055 0.88392 0.35103
 C66 C 0.12836 0.86912 0.33560
 C67 C 0.11764 0.84267 0.34613
 C68 C 0.12822 0.83127 0.37233
 C69 C 0.15058 0.84621 0.38758
 H70 H 0.15911 0.90403 0.34223
 H71 H 0.10045 0.83128 0.33419
 H72 H 0.15922 0.83692 0.40740
 Zn73 Zn 0.00951 1.03223 -0.01272
 Zn74 Zn -0.02366 0.97597 -0.02114
 Zn75 Zn 0.03507 0.97742 0.00964
 Zn76 Zn -0.01855 1.00307 0.03780
 O77 O 0.00050 0.99712 0.00330
 O78 O -0.00700 1.03640 -0.04764
 O79 O -0.00710 0.94202 -0.03210
 O80 O 0.06772 0.99640 -0.00256
 O81 O -0.03190 0.99537 -0.05404
 O82 O 0.04869 1.03770 -0.01795
 O83 O 0.03583 0.94360 -0.00849
 O84 O 0.00164 0.98920 0.06830
 O85 O -0.05914 0.96678 -0.00471
 O86 O 0.04092 0.96928 0.04703
 O87 O -0.05439 0.98647 0.03883
 O88 O -0.02548 1.04032 0.04524
 O89 O -0.00337 1.06233 0.00838
 C90 C -0.02370 1.02022 -0.06283
 C91 C 0.01774 0.93077 -0.02519
 C92 C 0.07088 1.02136 -0.01350
 C93 C 0.02593 0.97521 0.06961
 C94 C -0.06939 0.97224 0.02042
 C95 C -0.01823 1.06318 0.03180
 Zn96 Zn 0.53746 -0.01161 0.48975
 Zn97 Zn 0.47793 -0.01651 0.51949
 Zn98 Zn 0.50871 0.04069 0.51498
 Zn99 Zn 0.48367 0.01358 0.46184
 O100 O 0.50188 0.00647 0.49654
 O101 O 0.53966 -0.04565 0.50772
 O102 O 0.46766 0.00047 0.55324
 O103 O 0.54737 0.04687 0.52209
 O104 O 0.49562 -0.04998 0.52933
 O105 O 0.56917 0.00883 0.50208
 O106 O 0.49082 0.04261 0.54938
 O107 O 0.47812 0.05130 0.45505
 O108 O 0.44343 -0.02579 0.50199
 O109 O 0.49564 0.07140 0.49510
 O110 O 0.44745 -0.00271 0.46001
 O111 O 0.50404 -0.00025 0.43129
 O112 O 0.54362 -0.01960 0.45226
 C113 C 0.52141 -0.05973 0.52339
 C114 C 0.47444 0.02512 0.56341
 C115 C 0.57062 0.03253 0.51588
 C116 C 0.48343 0.07344 0.47041
 C117 C 0.43289 -0.01863 0.47750
 C118 C 0.52840 -0.01413 0.42980
 Zn119 Zn 0.96186 0.47971 0.49235
 Zn120 Zn 1.02126 0.47762 0.52204
 Zn121 Zn 1.01485 0.50663 0.46399
 Zn122 Zn 0.98848 0.53377 0.51627
 O123 O 0.99667 0.49935 0.49872
 O124 O 0.96116 0.44541 0.50990
 O125 O 1.05636 0.46945 0.50470
 O126 O 0.99438 0.49311 0.43355
 O127 O 1.00495 0.44331 0.53196
 O128 O 0.95558 0.47212 0.45477
 O129 O 1.05095 0.49064 0.46193
 O130 O 1.00233 0.56452 0.49674
 O131 O 1.03000 0.49551 0.55572
 O132 O 1.02091 0.54424 0.45723
 O133 O 1.00470 0.53636 0.55136
 O134 O 0.94939 0.53954 0.52135
 O135 O 0.92949 0.49883 0.50499
 C136 C 0.97985 0.43218 0.52562
 C137 C 1.06625 0.47592 0.47967
 C138 C 0.97028 0.47873 0.43216
 C139 C 1.01544 0.56645 0.47242
 C140 C 1.02159 0.51975 0.56572
 C141 C 0.92685 0.52367 0.51638
 Zn142 Zn 0.48275 0.49178 0.96048
 Zn143 Zn 0.47598 0.52082 1.01856
 Zn144 Zn 0.50775 0.46408 1.01299
 Zn145 Zn 0.53586 0.51757 0.98945
 O146 O 0.50052 0.49864 0.99542
 O147 O 0.44688 0.50828 0.95818
 O148 O 0.46583 0.50282 1.05188
 O149 O 0.49448 0.43364 0.99283
 O150 O 0.44153 0.53000 1.00073
 O151 O 0.47666 0.45420 0.95324
 O152 O 0.49015 0.46140 1.04752
 O153 O 0.56762 0.49789 1.00250
 O154 O 0.49303 0.55462 1.02912
 O155 O 0.54655 0.45786 1.01923
 O156 O 0.53704 0.55161 1.00730
 O157 O 0.54284 0.52543 0.95200
 O158 O 0.50381 0.50550 0.93041
 C159 C 0.43178 0.52358 0.97569
 C160 C 0.47324 0.47821 1.06171
 C161 C 0.48197 0.43187 0.96828
 C162 C 0.56951 0.47326 1.01445
 C163 C 0.51855 0.56513 1.02309
 C164 C 0.52817 0.51949 0.92928
 C165 C 1.26150 0.40899 0.40959
 N166 N 1.27592 0.38642 0.42201
 N167 N 1.30047 0.37554 0.40981
 C168 C 1.31160 0.38676 0.38471
 N169 N 1.29722 0.40961 0.37263
 N170 N 1.27269 0.42046 0.38477
 C171 C 1.23348 0.42008 0.42184
 N172 N 1.21801 0.44080 0.40755
 N173 N 1.19192 0.45013 0.41771
 C174 C 1.18031 0.43915 0.44260
 N175 N 1.19587 0.41856 0.45708
 N176 N 1.22198 0.40915 0.44685
 C177 C 1.15097 0.44892 0.45291
 N178 N 1.13949 0.43960 0.47857
 N179 N 1.11254 0.44826 0.48733
 C180 C 1.09611 0.46642 0.47065
 N181 N 1.10765 0.47570 0.44505
 N182 N 1.13457 0.46715 0.43637
 C183 C 0.23851 0.59511 0.90562
 N184 N 0.22466 0.61804 0.91808
 N185 N 0.19962 0.62864 0.90675
 C186 C 0.18737 0.61674 0.88255
 N187 N 0.20127 0.59363 0.87035
 N188 N 0.22632 0.58308 0.88160
 C189 C 0.26666 0.58387 0.91734
 N190 N 0.28161 0.56273 0.90304
 N191 N 0.30752 0.55291 0.91305
 C192 C 0.31943 0.56378 0.93778
 N193 N 0.30441 0.58483 0.95221
 N194 N 0.27850 0.59474 0.94214
 C195 C 0.34838 0.55320 0.94818
 N196 N 0.35986 0.56225 0.97387
 N197 N 0.38636 0.55274 0.98285
 C198 C 0.40235 0.53394 0.96639
 N199 N 0.39084 0.52494 0.94076
 N200 N 0.36435 0.53433 0.93185
 C201 C -0.26575 0.90390 0.08750
 N202 N -0.27910 0.88028 0.07582
 N203 N -0.30388 0.86938 0.08764
 C204 C -0.31639 0.88163 0.11158
 N205 N -0.30309 0.90553 0.12292
 N206 N -0.27828 0.91639 0.11118
 C207 C -0.23750 0.91509 0.07565
 N208 N -0.22263 0.93646 0.08969
 N209 N -0.19638 0.94589 0.07988
 C210 C -0.18400 0.93440 0.05560
 N211 N -0.19896 0.91316 0.04137
 N212 N -0.22522 0.90362 0.05127
 C213 C -0.15449 0.94434 0.04573
 N214 N -0.14252 0.93514 0.02025
 N215 N -0.11545 0.94406 0.01190
 C216 C -0.09938 0.96234 0.02886
 N217 N -0.11141 0.97147 0.05428
 N218 N -0.13844 0.96270 0.06253
 C219 C 0.76273 0.09795 0.59465
 N220 N 0.76607 0.09915 0.62385
 N221 N 0.79143 0.10873 0.63544
 C222 C 0.81427 0.11782 0.61826
 N223 N 0.81089 0.11667 0.58902
 N224 N 0.78565 0.10672 0.57742
 C225 C 0.73440 0.08815 0.58208
 N226 N 0.73308 0.07829 0.55438
 N227 N 0.70719 0.06954 0.54313
 C228 C 0.68167 0.07077 0.55907
 N229 N 0.68302 0.08078 0.58668
 N230 N 0.70893 0.08914 0.59804
 C231 C 0.65299 0.06148 0.54690
 N232 N 0.62706 0.07108 0.55871
 N233 N 0.60089 0.06227 0.54831
 C234 C 0.59964 0.04326 0.52595
 N235 N 0.62557 0.03358 0.51413
 N236 N 0.65180 0.04271 0.52429
 C237 C 0.41127 0.26066 0.39933
 N238 N 0.41853 0.27046 0.37252
 N239 N 0.40684 0.29492 0.36247
 C240 C 0.38711 0.31042 0.37863
 N241 N 0.37991 0.30045 0.40552
 N242 N 0.39186 0.27616 0.41572
 C243 C 0.42365 0.23336 0.41009
 N244 N 0.42274 0.22685 0.43878
 N245 N 0.43354 0.20182 0.44841
 C246 C 0.44532 0.18228 0.42965
 N247 N 0.44615 0.18877 0.40097
 N248 N 0.43567 0.21393 0.39138
 C249 C 0.45621 0.15428 0.44011
 N250 N 0.45956 0.13177 0.42152
 N251 N 0.46844 0.10604 0.43114
 C252 C 0.47466 0.10201 0.45963
 N253 N 0.47161 0.12461 0.47818
 N254 N 0.46239 0.15024 0.46861
 C255 C 0.91736 0.24125 0.59746
 N256 N 0.89393 0.22796 0.58448
 N257 N 0.88274 0.20351 0.59522
 C258 C 0.89440 0.19129 0.61947
 N259 N 0.91812 0.20456 0.63226
 N260 N 0.92939 0.22903 0.62147
 C261 C 0.92846 0.26900 0.58619
 N262 N 0.95261 0.28229 0.59805
 N263 N 0.96179 0.30795 0.58820
 C264 C 0.94704 0.32125 0.56625
 N265 N 0.92300 0.30789 0.55441
 N266 N 0.91392 0.28225 0.56415
 C267 C 0.95619 0.34994 0.55574
 N268 N 0.93890 0.36409 0.53629
 N269 N 0.94657 0.39025 0.52683
 C270 C 0.97189 0.40326 0.53635
 N271 N 0.98932 0.38910 0.55575
 N272 N 0.98155 0.36292 0.56535
 C273 C 0.08585 0.74240 -0.09814
 N274 N 0.07259 0.72856 -0.12065
 N275 N 0.08396 0.70402 -0.13098
 C276 C 0.10900 0.69233 -0.11922
 N277 N 0.12207 0.70621 -0.09661
 N278 N 0.11075 0.73073 -0.08630
 C279 C 0.07412 0.76993 -0.08709
 N280 N 0.08888 0.78417 -0.06578
 N281 N 0.07896 0.80945 -0.05601
 C282 C 0.05386 0.82147 -0.06710
 N283 N 0.03895 0.80720 -0.08836
 N284 N 0.04894 0.78187 -0.09820
 C285 C 0.04373 0.84972 -0.05638
 N286 N 0.01799 0.86196 -0.06589
 N287 N 0.00941 0.88778 -0.05601
 C288 C 0.02636 0.90223 -0.03636
 N289 N 0.05202 0.88992 -0.02694
 N290 N 0.06052 0.86419 -0.03671
 C291 C 0.58696 0.75306 1.09732
 N292 N 0.61054 0.76601 1.08409
 N293 N 0.62151 0.79081 1.09414
 C294 C 0.60949 0.80371 1.11794
 N295 N 0.58580 0.79063 1.13112
 N296 N 0.57473 0.76584 1.12101
 C297 C 0.57545 0.72543 1.08626
 N298 N 0.55063 0.71292 1.09782
 N299 N 0.54067 0.68765 1.08775
 C300 C 0.55526 0.67398 1.06585
 N301 N 0.58002 0.68653 1.05434
 N302 N 0.58988 0.71179 1.06431
 C303 C 0.54507 0.64584 1.05485
 N304 N 0.56199 0.63140 1.03522
 N305 N 0.55336 0.60577 1.02521
 C306 C 0.52739 0.59358 1.03432
 N307 N 0.51030 0.60803 1.05391
 N308 N 0.51904 0.63371 1.06405
 C309 C 0.40136 0.40654 1.25009
 N310 N 0.38031 0.42070 1.26581
 N311 N 0.37066 0.40995 1.29096
 C312 C 0.38167 0.38465 1.30142
 N313 N 0.40278 0.37061 1.28562
 N314 N 0.41240 0.38131 1.26047
 C315 C 0.41197 0.41807 1.22223
 N316 N 0.43220 0.40307 1.20633
 N317 N 0.44181 0.41320 1.18095
 C318 C 0.43160 0.43875 1.17051
 N319 N 0.41139 0.45383 1.18642
 N320 N 0.40172 0.44365 1.21183
 C321 C 0.44228 0.44949 1.14235
 N322 N 0.43318 0.47539 1.13170
 N323 N 0.44302 0.48476 1.10602
 C324 C 0.46224 0.46849 1.09011
 N325 N 0.47127 0.44265 1.10081
 N326 N 0.46151 0.43334 1.12643
 C327 C 0.59116 -0.09518 0.24244
 N328 N 0.59253 -0.12430 0.23910
 N329 N 0.60171 -0.13579 0.21414
 C330 C 0.61023 -0.11859 0.19173
 N331 N 0.60891 -0.08945 0.19511
 N332 N 0.59935 -0.07796 0.21994
 C333 C 0.58175 -0.08258 0.27020
 N334 N 0.57161 -0.05498 0.27163
 N335 N 0.56328 -0.04357 0.29693
 C336 C 0.56524 -0.05923 0.32175
 N337 N 0.57554 -0.08676 0.32031
 N338 N 0.58347 -0.09829 0.29498
 C339 C 0.55630 -0.04678 0.34972
 N340 N 0.56664 -0.05822 0.37484
 N341 N 0.55820 -0.04736 0.40030
 C342 C 0.53884 -0.02488 0.40161
 N343 N 0.52842 -0.01345 0.37649
 N344 N 0.53718 -0.02407 0.35098
 C345 C -0.09089 1.09573 -0.25086
 N346 N -0.11290 1.08230 -0.26589
 N347 N -0.12266 1.09326 -0.29081
 C348 C -0.11079 1.11805 -0.30175
 N349 N -0.08866 1.13139 -0.28669
 N350 N -0.07893 1.12047 -0.26172
 C351 C -0.08047 1.08387 -0.22314
 N352 N -0.05974 1.09823 -0.20724
 N353 N -0.05058 1.08771 -0.18191
 C354 C -0.06176 1.06241 -0.17156
 N355 N -0.08242 1.04799 -0.18749
 N356 N -0.09163 1.05855 -0.21281
 C357 C -0.05182 1.05111 -0.14344
 N358 N -0.06184 1.02523 -0.13338
 N359 N -0.05287 1.01524 -0.10773
 C360 C -0.03362 1.03082 -0.09122
 N361 N -0.02363 1.05666 -0.10131
 N362 N -0.03253 1.06661 -0.12694
 C363 C 1.09000 0.59160 0.75476
 N364 N 1.11238 0.57842 0.76942
 N365 N 1.12278 0.58973 0.79396
 C366 C 1.11122 0.61462 0.80486
 N367 N 1.08870 0.62765 0.79019
 N368 N 1.07831 0.61638 0.76563
 C369 C 1.07909 0.57971 0.72722
 N370 N 1.05792 0.59395 0.71188
 N371 N 1.04848 0.58368 0.68655
 C372 C 1.05982 0.55876 0.67560
 N373 N 1.08091 0.54441 0.69099
 N374 N 1.09039 0.55473 0.71634
 C375 C 1.04973 0.54804 0.64730
 N376 N 1.06009 0.52274 0.63626
 N377 N 1.05109 0.51349 0.61031
 C378 C 1.03147 0.52929 0.59451
 N379 N 1.02113 0.55452 0.60561
 N380 N 1.03006 0.56371 0.63151
 C381 C 0.73320 0.59737 0.58326
 N382 N 0.71434 0.58033 0.59884
 N383 N 0.68988 0.59141 0.61102
 C384 C 0.68325 0.61989 0.60788
 N385 N 0.70202 0.63677 0.59202
 N386 N 0.72655 0.62577 0.58004
 C387 C 0.76108 0.58582 0.57119
 N388 N 0.78269 0.60414 0.56166
 N389 N 0.80858 0.59399 0.55179
 C390 C 0.81374 0.56513 0.55083
 N391 N 0.79202 0.54674 0.56007
 N392 N 0.76618 0.55691 0.57020
 C393 C 0.84279 0.55425 0.54097
 N394 N 0.84675 0.52583 0.53468
 N395 N 0.87344 0.51608 0.52638
 C396 C 0.89714 0.53436 0.52437
 N397 N 0.89314 0.56273 0.53068
 N398 N 0.86644 0.57251 0.53869
 C399 C 0.75983 0.40003 1.08949
 N400 N 0.76611 0.37142 1.08790
 N401 N 0.79083 0.36092 1.09984
 C402 C 0.81015 0.37856 1.11406
 N403 N 0.80380 0.40723 1.11570
 N404 N 0.77915 0.41779 1.10354
 C405 C 0.73220 0.41128 1.07675
 N406 N 0.72774 0.44015 1.07380
 N407 N 0.70238 0.45015 1.06260
 C408 C 0.68050 0.43162 1.05415
 N409 N 0.68498 0.40278 1.05712
 N410 N 0.71041 0.39279 1.06809
 C411 C 0.65204 0.44243 1.04284
 N412 N 0.62817 0.42445 1.04064
 N413 N 0.60198 0.43426 1.03132
 C414 C 0.59876 0.46237 1.02355
 N415 N 0.62271 0.48034 1.02547
 N416 N 0.64886 0.47057 1.03505
 C417 C 0.26446 1.09108 -0.08530
 N418 N 0.27855 1.07621 -0.10666
 N419 N 0.30264 1.08721 -0.11968
 C420 C 0.31380 1.11340 -0.11168
 N421 N 0.29982 1.12793 -0.08992
 N422 N 0.27556 1.11711 -0.07713
 C423 C 0.23682 1.07998 -0.07221
 N424 N 0.21804 1.09818 -0.05807
 N425 N 0.19221 1.08858 -0.04736
 C426 C 0.18437 1.06037 -0.05010
 N427 N 0.20331 1.04207 -0.06394
 N428 N 0.22901 1.05174 -0.07496
 C429 C 0.15532 1.05019 -0.03939
 N430 N 0.15003 1.02158 -0.03522
 N431 N 0.12328 1.01241 -0.02636
 C432 C 0.10078 1.03149 -0.02172
 N433 N 0.10608 1.06008 -0.02592
 N434 N 0.13292 1.06928 -0.03442
 C435 C 0.23713 -0.09033 0.41373
 N436 N 0.22439 -0.11410 0.42585
 N437 N 0.19993 -0.12582 0.41433
 C438 C 0.18719 -0.11426 0.39023
 N439 N 0.19982 -0.09016 0.37852
 N440 N 0.22427 -0.07848 0.38998
 C441 C 0.26525 -0.07844 0.42497
 N442 N 0.27935 -0.05674 0.41059
 N443 N 0.30560 -0.04678 0.41972
 C444 C 0.31872 -0.05810 0.44363
 N445 N 0.30452 -0.07966 0.45820
 N446 N 0.27827 -0.08971 0.44899
 C447 C 0.34817 -0.04763 0.45290
 N448 N 0.36083 -0.05732 0.47778
 N449 N 0.38780 -0.04804 0.48575
 C450 C 0.40311 -0.02886 0.46903
 N451 N 0.39043 -0.01921 0.44418
 N452 N 0.36345 -0.02839 0.43629
 C453 C 0.59001 -0.24702 0.59809
 N454 N 0.57547 -0.26147 0.61954
 N455 N 0.58574 -0.28673 0.62914
 C456 C 0.61090 -0.29854 0.61762
 N457 N 0.62533 -0.28399 0.59616
 N458 N 0.61514 -0.25874 0.58662
 C459 C 0.57901 -0.21917 0.58730
 N460 N 0.59497 -0.20434 0.56713
 N461 N 0.58529 -0.17907 0.55714
 C462 C 0.55923 -0.16770 0.56687
 N463 N 0.54317 -0.18252 0.58703
 N464 N 0.55292 -0.20782 0.59710
 C465 C 0.54895 -0.13973 0.55569
 N466 N 0.52211 -0.12860 0.56368
 N467 N 0.51314 -0.10314 0.55335
 C468 C 0.53073 -0.08792 0.53475
 N469 N 0.55752 -0.09909 0.52683
 N470 N 0.56644 -0.12452 0.53706
 C471 C 1.09322 0.75282 0.40306
 N472 N 1.10580 0.77200 0.42168
 N473 N 1.11718 0.79685 0.41195
 C474 C 1.11617 0.80352 0.38328
 N475 N 1.10351 0.78428 0.36475
 N476 N 1.09238 0.75937 0.37442
 C477 C 1.08073 0.72536 0.41355
 N478 N 1.07342 0.70416 0.39451
 N479 N 1.06221 0.67914 0.40385
 C480 C 1.05763 0.67451 0.43257
 N481 N 1.06478 0.69577 0.45164
 N482 N 1.07622 0.72073 0.44230
 C483 C 1.04572 0.64672 0.44278
 N484 N 1.03621 0.64346 0.47057
 N485 N 1.02600 0.61800 0.47989
 C486 C 1.02512 0.59487 0.46180
 N487 N 1.03460 0.59815 0.43402
 N488 N 1.04457 0.62365 0.42464
 C489 C -0.09197 1.25001 0.10233
 N490 N -0.07602 1.26672 0.12085
 N491 N -0.08703 1.29172 0.13039
 C492 C -0.11419 1.30125 0.12141
 N493 N -0.12990 1.28449 0.10260
 N494 N -0.11914 1.25928 0.09346
 C495 C -0.08029 1.22220 0.09227
 N496 N -0.09929 1.20034 0.08554
 N497 N -0.08883 1.17495 0.07657
 C498 C -0.05902 1.17067 0.07351
 N499 N -0.03999 1.19261 0.07999
 N500 N -0.05044 1.21787 0.08946
 C501 C -0.04775 1.14275 0.06332
 N502 N -0.02204 1.14107 0.04773
 N503 N -0.01249 1.11569 0.03767
 C504 C -0.02806 1.09109 0.04332
 N505 N -0.05356 1.09278 0.05918
 N506 N -0.06336 1.11818 0.06880
 C507 C 0.41010 0.24387 0.89797
 N508 N 0.39692 0.22518 0.91677
 N509 N 0.38556 0.20025 0.90740
 C510 C 0.38717 0.19294 0.87892
 N511 N 0.40054 0.21161 0.86017
 N512 N 0.41167 0.23665 0.86949
 C513 C 0.42214 0.27156 0.90822
 N514 N 0.42948 0.29276 0.88912
 N515 N 0.43984 0.31811 0.89847
 C516 C 0.44350 0.32306 0.92725
 N517 N 0.43636 0.30178 0.94634
 N518 N 0.42575 0.27653 0.93700
 C519 C 0.45438 0.35115 0.93764
 N520 N 0.46308 0.35450 0.96560
 N521 N 0.47232 0.38014 0.97522
 C522 C 0.47297 0.40341 0.95730
 N523 N 0.46427 0.40006 0.92933
 N524 N 0.45527 0.37436 0.91964
 C525 C 0.59195 0.59741 0.74097
 N526 N 0.59938 0.58005 0.71836
 N527 N 0.60846 0.59139 0.69327
 C528 C 0.61001 0.62051 0.68974
 N529 N 0.60224 0.63783 0.71228
 N530 N 0.59353 0.62649 0.73747
 C531 C 0.58298 0.58506 0.76897
 N532 N 0.58508 0.60106 0.79353
 N533 N 0.57727 0.58989 0.81907
 C534 C 0.56675 0.56241 0.82092
 N535 N 0.56447 0.54644 0.79633
 N536 N 0.57266 0.55750 0.77082
 C537 C 0.55758 0.55046 0.84903
 N538 N 0.53836 0.52777 0.85051
 N539 N 0.52917 0.51769 0.87610
 C540 C 0.53922 0.52968 0.90111
 N541 N 0.55872 0.55214 0.89962
 N542 N 0.56760 0.56246 0.87404
 C543 C 0.40462 0.09158 0.75421
 N544 N 0.41565 0.11687 0.76453
 N545 N 0.40596 0.12762 0.78959
 C546 C 0.38481 0.11356 0.80540
 N547 N 0.37386 0.08812 0.79508
 N548 N 0.38359 0.07732 0.76997
 C549 C 0.41502 0.08044 0.72615
 N550 N 0.40473 0.05498 0.71537
 N551 N 0.41405 0.04544 0.68959
 C552 C 0.43392 0.06110 0.67370
 N553 N 0.44418 0.08649 0.68455
 N554 N 0.43493 0.09596 0.71027
 C555 C 0.44417 0.05124 0.64510
 N556 N 0.46277 0.06822 0.62924
 N557 N 0.47224 0.05978 0.60325
 C558 C 0.46352 0.03399 0.59208
 N559 N 0.44490 0.01690 0.60792
 N560 N 0.43535 0.02540 0.63398
 C561 C 0.09674 0.90212 0.25698
 N562 N 0.09962 0.87320 0.26094
 N563 N 0.10939 0.86273 0.28606
 C564 C 0.11701 0.88081 0.30802
 N565 N 0.11426 0.90976 0.30399
 N566 N 0.10412 0.92023 0.27898
 C567 C 0.08616 0.91351 0.22920
 N568 N 0.07467 0.94057 0.22729
 N569 N 0.06497 0.95073 0.20198
 C570 C 0.06679 0.93432 0.17765
 N571 N 0.07845 0.90734 0.17955
 N572 N 0.08778 0.89706 0.20490
 C573 C 0.05642 0.94540 0.14967
 N574 N 0.06618 0.93328 0.12461
 N575 N 0.05669 0.94307 0.09912
 C576 C 0.03680 0.96510 0.09777
 N577 N 0.02691 0.97717 0.12284
 N578 N 0.03670 0.96761 0.14835
 C579 C 0.90618 0.40444 0.24284
 N580 N 0.90627 0.37544 0.23863
 N581 N 0.89728 0.36423 0.21355
 C582 C 0.88754 0.38156 0.19182
 N583 N 0.88740 0.41063 0.19604
 N584 N 0.89677 0.42189 0.22104
 C585 C 0.91525 0.41644 0.27092
 N586 N 0.92447 0.44431 0.27336
 N587 N 0.93283 0.45488 0.29898
 C588 C 0.93180 0.43806 0.32311
 N589 N 0.92236 0.41029 0.32066
 N590 N 0.91442 0.39962 0.29501
 C591 C 0.94104 0.44941 0.35139
 N592 N 0.93159 0.43644 0.37618
 N593 N 0.94048 0.44616 0.40193
 C594 C 0.95947 0.46898 0.40381
 N595 N 0.96899 0.48195 0.37902
 N596 N 0.95977 0.47246 0.35326
   
