data_POSCAR
  _audit_creation_date              2014-09-24
  _audit_creation_method            'ToBaCCo'
  _symmetry_space_group_name_H-M    'P1'
  _symmetry_Int_Tables_number       1
  _symmetry_cell_setting            triclinic
  loop_
  _symmetry_equiv_pos_as_xyz
 x,y,z
_cell_length_a 16.6059
_cell_length_b 16.6016
_cell_length_c 17.7745
_cell_angle_alpha 89.898900
_cell_angle_beta 90.341400
_cell_angle_gamma 93.128700
loop_
  _atom_site_label
  _atom_site_type_symbol
  _atom_site_fract_x
  _atom_site_fract_y
  _atom_site_fract_z
C1 C 0.43761 1.02679 -0.66343
 C2 C 0.51401 1.02229 -0.69818
 C3 C 0.58584 1.01979 -0.65434
 C4 C 0.58111 1.03285 -0.57525
 C5 C 0.50555 1.03455 -0.53979
 C6 C 0.43466 1.03675 -0.58365
 C7 C 0.36265 1.05302 -0.54617
 C8 C 0.35808 1.05123 -0.46796
 C9 C 0.42558 1.03412 -0.42367
 C10 C 0.50094 1.03280 -0.45958
 C11 C 0.65028 1.04891 -0.53020
 C12 C 0.64596 1.04515 -0.45217
 C13 C 0.57183 1.02805 -0.41601
 C14 C 0.56722 1.01131 -0.33743
 C15 C 0.49109 1.01137 -0.30221
 C16 C 0.41985 1.02043 -0.34485
 H17 H 0.30877 1.06686 -0.57705
 H18 H 0.30090 1.06331 -0.44268
 H19 H 0.70873 1.06320 -0.55488
 H20 H 0.70137 1.05537 -0.42037
 H21 H 0.51628 1.01025 -0.75803
 H22 H 0.48611 0.99614 -0.24302
 C23 C -0.67291 1.46016 -0.06201
 C24 C -0.70016 1.53824 -0.06045
 C25 C -0.64808 1.60372 -0.03879
 C26 C -0.57143 1.58848 -0.00856
 C27 C -0.54246 1.51025 -0.01334
 C28 C -0.59260 1.44619 -0.04210
 C29 C -0.56194 1.36912 -0.04779
 C30 C -0.48450 1.35529 -0.02376
 C31 C -0.43580 1.41693 0.01021
 C32 C -0.46421 1.49552 0.01344
 C33 C -0.52643 1.64715 0.03329
 C34 C -0.44991 1.63289 0.05920
 C35 C -0.41517 1.55934 0.04449
 C36 C -0.33475 1.54627 0.06526
 C37 C -0.30913 1.46690 0.06637
 C38 C -0.35931 1.40227 0.04048
 H39 H -0.59704 1.31821 -0.07075
 H40 H -0.46375 1.29547 -0.03236
 H41 H -0.55080 1.70378 0.04894
 H42 H -0.41931 1.67945 0.09291
 H43 H -0.76112 1.54795 -0.07924
 H44 H -0.24843 1.45494 0.08417
 C45 C 0.00443 0.42661 0.33928
 C46 C 0.00900 0.50072 0.29995
 C47 C 0.01544 0.57421 0.34006
 C48 C 0.02421 0.57241 0.41951
 C49 C 0.00641 0.50007 0.45867
 C50 C -0.00864 0.42802 0.41818
 C51 C -0.04073 0.35997 0.45727
 C52 C -0.04519 0.36001 0.53525
 C53 C -0.01622 0.42752 0.57737
 C54 C 0.00245 0.49987 0.53854
 C55 C 0.04963 0.64125 0.46115
 C56 C 0.04658 0.64079 0.53944
 C57 C 0.01624 0.57204 0.57906
 C58 C 0.00143 0.57329 0.65800
 C59 C -0.00509 0.49875 0.69730
 C60 C -0.00855 0.42490 0.65708
 H61 H -0.06299 0.30625 0.42765
 H62 H -0.07114 0.30634 0.56241
 H63 H 0.07188 0.69609 0.43344
 H64 H 0.06759 0.69512 0.56874
 H65 H 0.00979 0.50152 0.23901
 H66 H -0.00798 0.49822 0.75817
 O67 O -0.21877 0.97482 -0.09027
 O68 O 0.19963 1.02132 -0.11306
 O69 O -0.02034 1.10629 -0.19380
 O70 O -0.01136 0.88882 -0.19193
 O71 O 0.00376 0.79140 -0.10124
 O72 O -0.02295 1.20682 -0.10427
 O73 O 0.09457 1.00015 -0.19800
 O74 O -0.12590 0.98602 -0.18638
 Zr75 Zr -0.01230 0.99806 -0.13218
 O76 O 0.07176 0.93769 -0.07237
 O77 O -0.08603 1.06372 -0.06557
 C78 C -0.19910 0.97744 -0.16097
 C79 C 0.17088 1.00897 -0.18024
 C80 C -0.02088 1.18140 -0.17317
 C81 C -0.00585 0.81461 -0.17037
 H82 H 0.08943 1.11466 -0.10892
 O83 O 0.05974 1.07939 -0.07270
 H84 H -0.11081 0.87772 -0.09091
 O85 O -0.07526 0.91740 -0.06331
 O86 O 0.21529 1.02662 0.09030
 O87 O -0.20417 0.98016 0.11106
 O88 O 0.08953 1.22176 -0.01278
 O89 O 0.12180 0.81059 -0.01469
 O90 O -0.08862 0.78145 0.01756
 O91 O -0.12517 1.19309 0.00401
 O92 O 0.01341 1.11292 0.18928
 O93 O 0.01137 0.89482 0.19148
 O94 O -0.00207 1.21064 0.09869
 O95 O 0.02049 0.79579 0.10145
 O96 O 0.19540 1.13743 -0.02070
 O97 O -0.21614 1.08317 0.01246
 O98 O -0.19582 0.86366 0.02775
 O99 O 0.21264 0.92054 -0.02050
 O100 O 0.12158 1.01148 0.18539
 O101 O -0.09873 0.98985 0.19665
 Zr102 Zr 0.14073 1.01987 -0.00836
 Zr103 Zr -0.14402 0.98282 0.00744
 Zr104 Zr -0.01205 1.14210 -0.00215
 Zr105 Zr 0.00979 0.86076 -0.00064
 Zr106 Zr 0.00831 1.00320 0.13035
 O107 O -0.06301 0.92157 0.07067
 O108 O 0.07200 1.08536 0.06292
 C109 C 0.19523 1.01800 0.16073
 C110 C -0.17527 0.98282 0.17877
 C111 C 0.16411 1.20739 -0.02427
 C112 C 0.19326 0.84405 -0.02359
 C113 C -0.16214 0.79462 0.03351
 C114 C -0.19714 1.15994 0.01166
 C115 C 0.01007 1.18722 0.16740
 C116 C 0.01485 0.82036 0.17040
 H117 H -0.10611 1.09648 0.10498
 O118 O -0.07389 1.06511 0.07016
 H119 H 0.12030 0.90731 0.09182
 O120 O 0.08189 0.93874 0.06277
 N121 N 0.23920 0.95718 0.27885
 N122 N 0.30585 0.95758 0.32622
 C123 C 0.36513 1.00602 0.29617
 C124 C 0.33842 1.03408 0.22586
 C125 C 0.25770 1.00403 0.21894
 H126 H 0.37056 1.07576 0.18835
 H127 H 0.18421 0.92582 0.28965
 H128 H 0.30793 0.92468 0.37629
 N129 N -0.21911 0.94497 0.30739
 N130 N -0.28633 0.95312 0.35242
 C131 C -0.34110 0.99454 0.31364
 C132 C -0.31174 1.00815 0.24084
 C133 C -0.23439 0.97819 0.24042
 H134 H -0.34017 1.04035 0.19582
 H135 H -0.16668 0.91789 0.32409
 H136 H -0.29295 0.92672 0.40555
 N137 N -0.24805 0.92538 -0.28319
 N138 N -0.31199 0.93535 -0.33236
 C139 C -0.36498 0.98234 -0.29876
 C140 C -0.33755 0.99972 -0.22532
 C141 C -0.26255 0.96496 -0.21927
 H142 H -0.36401 1.03925 -0.18512
 H143 H -0.19619 0.89568 -0.29641
 H144 H -0.31663 0.90946 -0.38584
 N145 N 0.21454 0.95503 -0.30239
 N146 N 0.28049 0.95493 -0.34338
 C147 C 0.33929 1.00190 -0.31007
 C148 C 0.30979 1.03093 -0.24282
 C149 C 0.22978 1.00063 -0.24099
 H150 H 0.34117 1.06982 -0.20216
 H151 H 0.16062 0.92262 -0.31559
 H152 H 0.28489 0.92274 -0.39350
 N153 N 0.24078 1.27440 -0.12661
 N154 N 0.27567 1.34607 -0.14071
 C155 C 0.27018 1.39220 -0.07889
 C156 C 0.22894 1.34860 -0.02350
 C157 C 0.21328 1.27395 -0.05557
 H158 H 0.21816 1.36634 0.03398
 H159 H 0.23659 1.22657 -0.16481
 H160 H 0.30807 1.36078 -0.18948
 N161 N 0.33284 0.81559 -0.05800
 N162 N 0.37710 0.74717 -0.06371
 C163 C 0.32728 0.68255 -0.04730
 C164 C 0.25049 0.70730 -0.03439
 C165 C 0.25736 0.79051 -0.03915
 H166 H 0.19788 0.67037 -0.01755
 H167 H 0.35577 0.87487 -0.06557
 H168 H 0.43779 0.74763 -0.07893
 N169 N -0.16739 0.67731 0.11710
 N170 N -0.21335 0.60536 0.12424
 C171 C -0.27856 0.61070 0.07965
 C172 C -0.27509 0.68563 0.04312
 C173 C -0.20473 0.72486 0.06796
 H174 H -0.31339 0.70507 -0.00217
 H175 H -0.11005 0.68783 0.14029
 H176 H -0.19784 0.55702 0.15804
 N177 N -0.33173 1.19070 0.05967
 N178 N -0.37286 1.25530 0.07104
 C179 C -0.32999 1.32017 0.04398
 C180 C -0.25770 1.29647 0.01584
 C181 C -0.26177 1.21381 0.02608
 H182 H -0.20962 1.33383 -0.00936
 H183 H -0.35067 1.13237 0.07630
 H184 H -0.42936 1.25464 0.09665
 N185 N 0.05875 1.22782 0.29283
 N186 N 0.05709 1.29374 0.34032
 C187 C 0.02025 1.35303 0.30383
 C188 C 0.00120 1.32735 0.23050
 C189 C 0.02404 1.24749 0.22735
 H190 H -0.03039 1.35975 0.18758
 H191 H 0.08187 1.17261 0.30746
 H192 H 0.08307 1.29586 0.39400
 N193 N 0.03038 1.22108 -0.29710
 N194 N 0.03773 1.28918 -0.34213
 C195 C 0.00156 1.34967 -0.30729
 C196 C -0.02480 1.32256 -0.23642
 C197 C -0.00789 1.24074 -0.23399
 H198 H -0.05586 1.35603 -0.19437
 H199 H 0.05362 1.16563 -0.31023
 H200 H 0.06917 1.29175 -0.39288
 N201 N -0.05024 0.77363 -0.29709
 N202 N -0.04968 0.70700 -0.34381
 C203 C -0.01413 0.64732 -0.30668
 C204 C 0.00440 0.67353 -0.23320
 C205 C -0.01705 0.75411 -0.23089
 H206 H 0.03438 0.64078 -0.18948
 H207 H -0.07187 0.82915 -0.31271
 H208 H -0.07572 0.70472 -0.39746
 N209 N -0.03810 0.77411 0.29240
 N210 N -0.04144 0.70904 0.33471
 C211 C 0.00188 0.65228 0.30234
 C212 C 0.03160 0.68183 0.23388
 C213 C 0.00552 0.76024 0.23082
 H214 H 0.06807 0.65177 0.19349
 H215 H -0.06693 0.82665 0.30503
 H216 H -0.07334 0.70399 0.38513
   
