data_POSCAR
  _audit_creation_date              2014-09-24
  _audit_creation_method            'ToBaCCo'
  _symmetry_space_group_name_H-M    'P1'
  _symmetry_Int_Tables_number       1
  _symmetry_cell_setting            triclinic
  loop_
  _symmetry_equiv_pos_as_xyz
 x,y,z
_cell_length_a 11.8239
_cell_length_b 11.7655
_cell_length_c 11.7811
_cell_angle_alpha 90.145900
_cell_angle_beta 90.292000
_cell_angle_gamma 90.097800
loop_
  _atom_site_label
  _atom_site_type_symbol
  _atom_site_fract_x
  _atom_site_fract_y
  _atom_site_fract_z
C1 C 0.27221 1.01961 -0.63004
 C2 C 0.22644 0.98601 -0.52074
 C3 C 0.27525 1.01668 -0.41218
 C4 C 0.37329 1.08064 -0.41566
 C5 C 0.42809 1.09507 -0.52086
 C6 C 0.37216 1.08116 -0.62632
 C7 C 0.42730 1.11895 -0.72405
 C8 C 0.54370 1.11900 -0.72420
 C9 C 0.59985 1.08313 -0.62606
 C10 C 0.54508 1.09820 -0.52071
 C11 C 0.42773 1.11964 -0.31738
 C12 C 0.54446 1.12566 -0.31751
 C13 C 0.60153 1.08896 -0.41502
 C14 C 0.70264 1.02928 -0.41048
 C15 C 0.74901 0.99474 -0.51947
 C16 C 0.69910 1.02118 -0.62943
 H17 H 0.38424 1.13655 -0.80221
 H18 H 0.58659 1.13550 -0.80250
 H19 H 0.38329 1.13518 -0.23935
 H20 H 0.58732 1.14780 -0.23972
 H21 H 0.14874 0.93766 -0.51940
 H22 H 0.82523 0.94395 -0.51884
 C23 C -0.62793 1.27886 0.02214
 C24 C -0.52046 1.23275 -0.01469
 C25 C -0.41155 1.27822 0.01855
 C26 C -0.41323 1.37372 0.08758
 C27 C -0.51723 1.42951 0.10512
 C28 C -0.62273 1.37473 0.09015
 C29 C -0.72011 1.43081 0.12686
 C30 C -0.71913 1.54803 0.12722
 C31 C -0.62072 1.60273 0.09124
 C32 C -0.51616 1.54725 0.10730
 C33 C -0.31430 1.42750 0.12535
 C34 C -0.31333 1.54508 0.12954
 C35 C -0.41082 1.60259 0.09329
 C36 C -0.40710 1.70078 0.02758
 C37 C -0.51609 1.74437 -0.01051
 C38 C -0.62442 1.69623 0.02071
 H39 H -0.79921 1.38810 0.13935
 H40 H -0.79745 1.59235 0.13952
 H41 H -0.23656 1.38215 0.13948
 H42 H -0.23490 1.58769 0.14854
 H43 H -0.52116 1.15667 -0.06609
 H44 H -0.51732 1.81780 -0.06570
 C45 C 0.02100 0.36926 0.27396
 C46 C -0.01271 0.47859 0.22756
 C47 C 0.01838 0.58725 0.27555
 C48 C 0.08347 0.58435 0.37324
 C49 C 0.09829 0.47937 0.42895
 C50 C 0.08345 0.37341 0.37374
 C51 C 0.12083 0.27574 0.42982
 C52 C 0.12212 0.27666 0.54667
 C53 C 0.08616 0.37522 0.60197
 C54 C 0.10158 0.48031 0.54642
 C55 C 0.12222 0.68314 0.42720
 C56 C 0.12759 0.68386 0.54444
 C57 C 0.09123 0.58644 0.60215
 C58 C 0.02979 0.59138 0.70225
 C59 C -0.00550 0.48240 0.74853
 C60 C 0.02195 0.37229 0.69975
 H61 H 0.13662 0.19695 0.38724
 H62 H 0.13855 0.19867 0.59063
 H63 H 0.13743 0.76106 0.38203
 H64 H 0.14849 0.76220 0.58702
 H65 H -0.06179 0.47998 0.15002
 H66 H -0.05779 0.48309 0.82365
 O67 O -0.27872 1.01271 -0.19950
 O68 O 0.25217 0.99135 -0.19607
 O69 O -0.00699 1.16115 -0.28575
 O70 O 0.01337 0.80279 -0.27929
 O71 O -0.03620 0.67582 -0.14290
 O72 O -0.03267 1.29006 -0.14192
 O73 O 0.10819 0.98279 -0.32703
 O74 O -0.14091 0.96707 -0.32604
 Zr75 Zr -0.01529 0.98163 -0.21464
 O76 O 0.08659 0.87793 -0.12019
 O77 O -0.12073 1.08759 -0.12340
 C78 C -0.23939 1.00091 -0.30584
 C79 C 0.21131 0.99295 -0.30284
 C80 C -0.01012 1.26813 -0.24365
 C81 C 0.00012 0.69616 -0.24060
 H82 H 0.13354 1.13913 -0.16186
 O83 O 0.08320 1.08845 -0.11834
 H84 H -0.16925 0.83131 -0.17085
 O85 O -0.12094 0.87992 -0.12177
 O86 O 0.24914 1.00450 0.15923
 O87 O -0.28592 0.99276 0.15919
 O88 O 0.15533 1.25433 0.00259
 O89 O 0.15901 0.71397 -0.01137
 O90 O -0.19737 0.72071 0.01141
 O91 O -0.19745 1.25417 -0.00867
 O92 O 0.00448 1.15796 0.25131
 O93 O -0.00907 0.80276 0.25260
 O94 O -0.03083 1.28921 0.11264
 O95 O -0.01693 0.67253 0.10766
 O96 O 0.28723 1.11382 -0.02427
 O97 O -0.32771 1.10989 -0.01995
 O98 O -0.32469 0.85787 -0.03632
 O99 O 0.28878 0.85966 -0.02328
 O100 O 0.11066 0.96947 0.28948
 O101 O -0.14191 0.97054 0.28855
 Zr102 Zr 0.17876 0.98603 -0.01904
 Zr103 Zr -0.21498 0.98528 -0.02030
 Zr104 Zr -0.02120 1.18073 -0.01494
 Zr105 Zr -0.01970 0.78583 -0.01612
 Zr106 Zr -0.01555 0.98000 0.17954
 O107 O -0.12320 0.87986 0.08596
 O108 O 0.08483 1.08699 0.08662
 C109 C 0.21094 0.99560 0.26646
 C110 C -0.24387 0.99068 0.26629
 C111 C 0.26238 1.21534 -0.00274
 C112 C 0.26546 0.75637 -0.01016
 C113 C -0.30363 0.75926 -0.00161
 C114 C -0.30361 1.21336 -0.00770
 C115 C -0.00405 1.26560 0.21308
 C116 C -0.00666 0.69628 0.21127
 H117 H -0.16291 1.13435 0.13794
 O118 O -0.11942 1.08417 0.08697
 H119 H 0.13718 0.83682 0.13329
 O120 O 0.08643 0.88132 0.08360
   
