data_POSCAR
  _audit_creation_date              2014-09-24
  _audit_creation_method            'ToBaCCo'
  _symmetry_space_group_name_H-M    'P1'
  _symmetry_Int_Tables_number       1
  _symmetry_cell_setting            triclinic
  loop_
  _symmetry_equiv_pos_as_xyz
 x,y,z
_cell_length_a 29.7128
_cell_length_b 29.7161
_cell_length_c 8.3153
_cell_angle_alpha 89.701600
_cell_angle_beta 89.999900
_cell_angle_gamma 89.907000
loop_
  _atom_site_label
  _atom_site_type_symbol
  _atom_site_fract_x
  _atom_site_fract_y
  _atom_site_fract_z
O1 O 0.28223 0.29323 0.42193
 O2 O 0.19871 0.20537 0.33412
 O3 O 0.28292 0.20597 0.42211
 O4 O 0.19818 0.29321 0.33412
 O5 O 0.21823 0.29350 0.07872
 O6 O 0.30247 0.20580 0.16653
 O7 O 0.21843 0.20620 0.07840
 O8 O 0.30233 0.29368 0.16657
 Cu9 Cu 0.23831 0.24937 0.40330
 Cu10 Cu 0.26256 0.24983 0.09733
 C11 C 0.30668 0.30846 0.30879
 C12 C 0.19414 0.19081 0.19168
 C13 C 0.30736 0.19086 0.30902
 C14 C 0.19368 0.30833 0.19183
 O15 O 0.80165 0.29279 0.33373
 O16 O 0.71721 0.20554 0.42200
 O17 O 0.80146 0.20494 0.33442
 O18 O 0.71763 0.29279 0.42195
 O19 O 0.69754 0.29320 0.16659
 O20 O 0.78175 0.20572 0.07869
 O21 O 0.69766 0.20532 0.16641
 O22 O 0.78159 0.29303 0.07834
 Cu23 Cu 0.76169 0.24894 0.40325
 Cu24 Cu 0.73744 0.24935 0.09729
 C25 C 0.80609 0.30789 0.19141
 C26 C 0.69281 0.19041 0.30892
 C27 C 0.80610 0.19037 0.19202
 C28 C 0.69314 0.30801 0.30880
 O29 O 0.78249 0.79295 0.92221
 O30 O 0.69848 0.70559 0.83397
 O31 O 0.78268 0.70569 0.92170
 O32 O 0.69841 0.79343 0.83416
 O33 O 0.71845 0.79369 0.57875
 O34 O 0.80224 0.70551 0.66613
 O35 O 0.71821 0.70638 0.57825
 O36 O 0.80256 0.79339 0.66683
 Cu37 Cu 0.73832 0.74936 0.90324
 Cu38 Cu 0.76256 0.74980 0.59727
 C39 C 0.80702 0.80808 0.80915
 C40 C 0.69385 0.69108 0.69149
 C41 C 0.80702 0.69048 0.80853
 C42 C 0.69397 0.80860 0.69191
 O43 O 0.21752 0.70670 0.92157
 O44 O 0.30151 0.79446 0.83448
 O45 O 0.21732 0.79396 0.92238
 O46 O 0.30160 0.70662 0.83369
 O47 O 0.28157 0.70728 0.57828
 O48 O 0.19776 0.79507 0.66682
 O49 O 0.28178 0.79458 0.57877
 O50 O 0.19745 0.70719 0.66618
 Cu51 Cu 0.26169 0.75039 0.90326
 Cu52 Cu 0.23744 0.75108 0.59729
 C53 C 0.19300 0.69198 0.80834
 C54 C 0.30614 0.80949 0.69213
 C55 C 0.19296 0.80957 0.80937
 C56 C 0.30605 0.69197 0.69132
 O57 O 1.04485 -0.05260 0.08438
 O58 O 0.95685 0.03110 0.17225
 O59 O 0.95697 -0.05289 0.08450
 O60 O 1.04419 0.03133 0.17210
 O61 O 1.04445 0.05148 -0.08358
 O62 O 0.95692 -0.03244 -0.17090
 O63 O 0.95659 0.05150 -0.08319
 O64 O 1.04417 -0.03254 -0.17146
 Cu65 Cu 1.00073 -0.01298 0.15362
 Cu66 Cu 1.00053 0.01174 -0.15257
 C67 C 1.05949 -0.05700 -0.05822
 C68 C 0.94170 0.05572 0.05914
 C69 C 0.94202 -0.05714 -0.05774
 C70 C 1.05926 0.05587 0.05879
 O71 O 0.54370 0.44801 0.58387
 O72 O 0.45616 0.53217 0.67138
 O73 O 0.45592 0.44816 0.58397
 O74 O 0.54350 0.53198 0.67155
 O75 O 0.54376 0.55224 0.41597
 O76 O 0.45617 0.46840 0.32836
 O77 O 0.45592 0.55242 0.41579
 O78 O 0.54347 0.46825 0.32827
 Cu79 Cu 0.49982 0.48787 0.65300
 Cu80 Cu 0.49983 0.51256 0.34680
 C81 C 0.55852 0.44362 0.44150
 C82 C 0.44107 0.55678 0.55814
 C83 C 0.44111 0.44382 0.44159
 C84 C 0.55861 0.55654 0.55834
 O85 O -0.04487 0.55179 0.08275
 O86 O 0.04313 0.46790 0.17150
 O87 O 0.04303 0.55209 0.08290
 O88 O -0.04418 0.46766 0.17133
 O89 O -0.04443 0.44817 -0.08426
 O90 O 0.04310 0.53231 -0.17241
 O91 O 0.04340 0.44816 -0.08384
 O92 O -0.04419 0.53241 -0.17300
 Cu93 Cu -0.00073 0.51205 0.15233
 Cu94 Cu -0.00053 0.48808 -0.15359
 C95 C -0.05951 0.55657 -0.05985
 C96 C 0.05827 0.44355 0.05854
 C97 C 0.05800 0.55671 -0.05933
 C98 C -0.05923 0.44339 0.05815
 O99 O 0.45619 1.05284 0.58340
 O100 O 0.54383 0.96854 0.67206
 O101 O 0.54419 1.05268 0.58346
 O102 O 0.45652 0.96873 0.67226
 O103 O 0.45624 0.94910 0.41680
 O104 O 0.54379 1.03312 0.32789
 O105 O 0.54409 0.94892 0.41660
 O106 O 0.45656 1.03326 0.32783
 Cu107 Cu 0.50019 1.01290 0.65301
 Cu108 Cu 0.50017 0.98891 0.34708
 C109 C 0.44140 1.05753 0.44094
 C110 C 0.55893 0.94421 0.55898
 C111 C 0.55897 1.05733 0.44099
 C112 C 0.44140 0.94445 0.55920
 C113 C 1.13798 0.13345 0.28415
 C114 C 1.16010 0.15585 0.15761
 C115 C 1.14907 0.14478 -0.00169
 C116 C 1.11632 0.11234 -0.03376
 C117 C 1.09419 0.08996 0.09279
 C118 C 1.10554 0.10070 0.25208
 H119 H 1.14581 0.14114 0.40820
 H120 H 1.16545 0.16151 -0.10179
 H121 H 1.10841 0.10472 -0.15780
 H122 H 1.08903 0.08411 0.35220
 C123 C 0.64862 0.64524 0.49803
 C124 C 0.65968 0.65624 0.65735
 C125 C 0.63752 0.63388 0.78385
 C126 C 0.60499 0.60122 0.75173
 C127 C 0.59362 0.59053 0.59242
 C128 C 0.61579 0.61289 0.46591
 H129 H 0.66504 0.66194 0.39797
 H130 H 0.64538 0.64152 0.90792
 H131 H 0.58845 0.58464 0.85181
 H132 H 0.60786 0.60531 0.34185
 C133 C -0.14894 0.35454 -0.00206
 C134 C -0.15985 0.34293 0.15726
 C135 C -0.13768 0.36493 0.28375
 C136 C -0.10531 0.39784 0.25161
 C137 C -0.09409 0.40915 0.09229
 C138 C -0.11626 0.38714 -0.03420
 H139 H -0.16536 0.33813 -0.10212
 H140 H -0.14543 0.35683 0.40782
 H141 H -0.08877 0.41413 0.35167
 H142 H -0.10844 0.39518 -0.15827
 C143 C 0.35136 0.85595 0.49890
 C144 C 0.34030 0.84445 0.65818
 C145 C 0.36246 0.86643 0.78473
 C146 C 0.39500 0.89920 0.75267
 C147 C 0.40637 0.91037 0.59337
 C148 C 0.38419 0.88840 0.46684
 H149 H 0.33495 0.83955 0.39878
 H150 H 0.35460 0.85840 0.90878
 H151 H 0.41154 0.91547 0.85275
 H152 H 0.39212 0.89634 0.34278
 C153 C -0.15251 0.64223 -0.00063
 C154 C -0.16058 0.65709 -0.15924
 C155 C -0.13522 0.63795 -0.28485
 C156 C -0.10285 0.60493 -0.25270
 C157 C -0.09453 0.59070 -0.09420
 C158 C -0.11965 0.60971 0.03145
 H159 H -0.17121 0.65603 0.09958
 H160 H -0.14037 0.64828 -0.40864
 H161 H -0.08390 0.59097 -0.35197
 H162 H -0.11408 0.59925 0.15485
 C163 C 0.36541 1.13862 0.21586
 C164 C 0.33997 1.15769 0.34142
 C165 C 0.34817 1.14297 0.50011
 C166 C 0.38120 1.11062 0.53229
 C167 C 0.40635 1.09164 0.40665
 C168 C 0.39793 1.10577 0.24810
 H169 H 0.36017 1.14886 0.09202
 H170 H 0.32944 1.15673 0.60029
 H171 H 0.38685 1.10024 0.65572
 H172 H 0.41690 1.09183 0.14885
 C173 C 1.15247 -0.14289 0.00062
 C174 C 1.16054 -0.15719 -0.15811
 C175 C 1.13517 -0.13763 -0.28358
 C176 C 1.10279 -0.10475 -0.25121
 C177 C 1.09447 -0.09105 -0.09263
 C178 C 1.11959 -0.11048 0.03291
 H179 H 1.17117 -0.15702 0.10073
 H180 H 1.14032 -0.14754 -0.40744
 H181 H 1.08384 -0.09046 -0.35041
 H182 H 1.11402 -0.10044 0.15637
 C183 C 0.63695 0.36550 0.21616
 C184 C 0.65913 0.34311 0.34275
 C185 C 0.64826 0.35438 0.50202
 C186 C 0.61560 0.38701 0.53403
 C187 C 0.59341 0.40939 0.40746
 C188 C 0.60460 0.39844 0.24817
 H189 H 0.64467 0.35765 0.09213
 H190 H 0.66470 0.33767 0.60215
 H191 H 0.60781 0.39478 0.65807
 H192 H 0.58803 0.41502 0.14806
 C193 C 0.85216 -0.14600 0.00262
 C194 C 0.84116 -0.15706 -0.15671
 C195 C 0.86334 -0.13472 -0.28321
 C196 C 0.89580 -0.10200 -0.25109
 C197 C 0.90710 -0.09123 -0.09178
 C198 C 0.88494 -0.11359 0.03473
 H199 H 0.83573 -0.16269 0.10268
 H200 H 0.85553 -0.14241 -0.40727
 H201 H 0.91234 -0.08543 -0.35117
 H202 H 0.89282 -0.10596 0.15879
 C203 C 0.35144 0.35478 0.50206
 C204 C 0.34060 0.34354 0.34278
 C205 C 0.36274 0.36590 0.21621
 C206 C 0.39505 0.39878 0.24824
 C207 C 0.40622 0.40970 0.40753
 C208 C 0.38406 0.38736 0.53410
 H209 H 0.33503 0.33810 0.60218
 H210 H 0.35504 0.35807 0.09217
 H211 H 0.41160 0.41534 0.14814
 H212 H 0.39184 0.39510 0.65814
 C213 C 0.13672 0.63502 -0.28446
 C214 C 0.15887 0.65697 -0.15782
 C215 C 0.14785 0.64539 0.00142
 C216 C 0.11508 0.61286 0.03333
 C217 C 0.09294 0.59090 -0.09330
 C218 C 0.10427 0.60217 -0.25255
 H219 H 0.14456 0.64312 -0.40847
 H220 H 0.16425 0.66176 0.10160
 H221 H 0.10718 0.60483 0.15735
 H222 H 0.08774 0.58591 -0.35271
 C223 C 0.63490 1.13821 0.21581
 C224 C 0.66029 1.15727 0.34135
 C225 C 0.65211 1.14258 0.50007
 C226 C 0.61912 1.11028 0.53228
 C227 C 0.59400 1.09134 0.40666
 C228 C 0.60242 1.10542 0.24809
 H229 H 0.64012 1.14842 0.09196
 H230 H 0.67081 1.15632 0.60024
 H231 H 0.61349 1.09993 0.65572
 H232 H 0.58348 1.09151 0.14884
 C233 C 0.14846 0.35489 -0.00156
 C234 C 0.15946 0.34334 0.15775
 C235 C 0.13721 0.36533 0.28424
 C236 C 0.10466 0.39817 0.25211
 C237 C 0.09334 0.40941 0.09279
 C238 C 0.11560 0.38742 -0.03369
 H239 H 0.16494 0.33850 -0.10163
 H240 H 0.14503 0.35726 0.40831
 H241 H 0.08805 0.41445 0.35215
 H242 H 0.10772 0.39541 -0.15777
 C243 C 0.64891 0.85536 0.49863
 C244 C 0.65988 0.84373 0.65791
 C245 C 0.63768 0.86576 0.78446
 C246 C 0.60521 0.89868 0.75241
 C247 C 0.59392 0.90998 0.59311
 C248 C 0.61613 0.88797 0.46658
 H249 H 0.66535 0.83893 0.39852
 H250 H 0.64547 0.85763 0.90851
 H251 H 0.58864 0.91498 0.85250
 H252 H 0.60827 0.89601 0.34252
 C253 C 0.86249 0.13305 0.28457
 C254 C 0.84030 0.15544 0.15802
 C255 C 0.85141 0.14443 -0.00127
 C256 C 0.88434 0.11206 -0.03331
 C257 C 0.90656 0.08970 0.09324
 C258 C 0.89512 0.10038 0.25253
 H259 H 0.85459 0.14071 0.40862
 H260 H 0.83498 0.16115 -0.10138
 H261 H 0.89232 0.10449 -0.15736
 H262 H 0.91169 0.08379 0.35263
 C263 C 0.36234 0.63455 0.78363
 C264 C 0.34015 0.65696 0.65713
 C265 C 0.35111 0.64583 0.49781
 C266 C 0.38389 0.61332 0.46569
 C267 C 0.40610 0.59092 0.59220
 C268 C 0.39481 0.60173 0.75151
 H269 H 0.35456 0.64229 0.90770
 H270 H 0.33466 0.66256 0.39775
 H271 H 0.39176 0.60565 0.34163
 H272 H 0.41138 0.58514 0.85159
   
