data_POSCAR
  _audit_creation_date              2014-09-24
  _audit_creation_method            'ToBaCCo'
  _symmetry_space_group_name_H-M    'P1'
  _symmetry_Int_Tables_number       1
  _symmetry_cell_setting            triclinic
  loop_
  _symmetry_equiv_pos_as_xyz
 x,y,z
_cell_length_a 37.8481
_cell_length_b 40.5029
_cell_length_c 40.7837
_cell_angle_alpha 90.063900
_cell_angle_beta 88.675700
_cell_angle_gamma 89.270900
loop_
  _atom_site_label
  _atom_site_type_symbol
  _atom_site_fract_x
  _atom_site_fract_y
  _atom_site_fract_z
Si1 Si 0.25316 0.24916 0.24848
 Si2 Si 0.75292 0.74801 0.24598
 Si3 Si 0.74855 0.24348 0.74677
 Si4 Si 0.24840 0.74605 0.74777
 C5 C 0.05519 0.05083 0.01602
 H6 H 0.06073 0.05024 -0.01011
 C7 C 0.07429 0.07168 0.03614
 H8 H 0.09468 0.08712 0.02548
 C9 C 0.02143 0.03187 0.06178
 H10 H 0.00053 0.01659 0.07160
 C11 C 0.03928 0.05297 0.08266
 H12 H 0.03237 0.05353 0.10857
 N13 N 0.02983 0.03100 0.02916
 C14 C 0.02077 -0.04428 -0.04684
 H15 H -0.00756 -0.04375 -0.04990
 C16 C 0.04197 -0.06550 -0.06602
 H17 H 0.02972 -0.08070 -0.08429
 C18 C 0.07087 -0.02467 -0.01945
 H19 H 0.08196 -0.00938 -0.00069
 C20 C 0.09304 -0.04576 -0.03787
 H21 H 0.12106 -0.04625 -0.03308
 Zn22 Zn 0.00444 0.00366 0.00061
 N23 N 0.03549 -0.02389 -0.02460
 C24 C -0.01775 0.03137 -0.05991
 N25 N -0.02236 0.03175 -0.02672
 C26 C -0.04556 0.05319 -0.01181
 C27 C -0.06603 0.07472 -0.03045
 C28 C -0.03778 0.05238 -0.07949
 C29 C -0.00881 -0.04714 0.04456
 C30 C -0.02844 -0.07002 0.06258
 C31 C -0.08173 -0.04658 0.04020
 C32 C -0.06102 -0.02424 0.02241
 N33 N -0.02525 -0.02478 0.02509
 H34 H 0.00166 0.01504 -0.07132
 H35 H -0.04829 0.05337 0.01465
 H36 H -0.08484 0.09116 -0.01815
 H37 H -0.03366 0.05181 -0.10585
 H38 H 0.01971 -0.04719 0.04596
 H39 H -0.01487 -0.08741 0.07819
 H40 H -0.11014 -0.04606 0.03761
 H41 H -0.07353 -0.00681 0.00621
 C42 C 0.07872 -0.06638 -0.06177
 C43 C 0.06623 0.07292 0.06984
 C44 C -0.06540 -0.06994 0.06051
 C45 C -0.06243 0.07432 -0.06480
 C46 C 0.05047 0.54912 0.51707
 H47 H 0.05701 0.54697 0.49118
 C48 C 0.06955 0.57041 0.53673
 H49 H 0.09093 0.58459 0.52597
 C50 C 0.01419 0.53377 0.56256
 H51 H -0.00777 0.51988 0.57242
 C52 C 0.03204 0.55534 0.58294
 H53 H 0.02415 0.55746 0.60856
 N54 N 0.02395 0.53073 0.53036
 C55 C 0.01648 0.45500 0.45449
 H56 H -0.01167 0.45594 0.45046
 C57 C 0.03830 0.43458 0.43498
 H58 H 0.02666 0.42035 0.41562
 C59 C 0.06563 0.47316 0.48421
 H60 H 0.07612 0.48765 0.50389
 C61 C 0.08838 0.45285 0.46549
 H62 H 0.11621 0.45212 0.47102
 Zn63 Zn -0.00098 0.50244 0.50229
 N64 N 0.03049 0.47443 0.47795
 C65 C -0.02069 0.53076 0.44110
 N66 N -0.02728 0.52998 0.47403
 C67 C -0.05251 0.54983 0.48828
 C68 C -0.07347 0.57038 0.46910
 C69 C -0.04086 0.55119 0.42100
 C70 C -0.01687 0.45604 0.55097
 C71 C -0.03802 0.43597 0.57088
 C72 C -0.08882 0.45385 0.54050
 C73 C -0.06672 0.47379 0.52133
 N74 N -0.03153 0.47497 0.52723
 H75 H 0.00024 0.51567 0.43030
 H76 H -0.05663 0.54931 0.51461
 H77 H -0.09365 0.58577 0.48086
 H78 H -0.03576 0.55102 0.39477
 H79 H 0.01128 0.45711 0.55484
 H80 H -0.02589 0.42201 0.59034
 H81 H -0.11670 0.45312 0.53521
 H82 H -0.07773 0.48813 0.50164
 C83 C 0.07489 0.43353 0.44012
 C84 C 0.06032 0.57365 0.57007
 C85 C -0.07462 0.43485 0.56595
 C86 C -0.06794 0.57102 0.43496
 C87 C 0.54084 0.04870 0.51831
 H88 H 0.54105 0.05356 0.49223
 C89 C 0.55982 0.06885 0.53919
 H90 H 0.57418 0.08947 0.52889
 C91 C 0.52053 0.01659 0.56326
 H92 H 0.50491 -0.00356 0.57265
 C93 C 0.53949 0.03584 0.58498
 H94 H 0.53876 0.02962 0.61079
 N95 N 0.52187 0.02306 0.53055
 C96 C 0.51435 -0.04784 0.45077
 H97 H 0.48599 -0.04871 0.44822
 C98 C 0.53638 -0.06763 0.43086
 H99 H 0.52467 -0.08316 0.41255
 C100 C 0.56378 -0.02607 0.47764
 H101 H 0.57429 -0.01025 0.49630
 C102 C 0.58679 -0.04570 0.45848
 H103 H 0.61487 -0.04478 0.46278
 Zn104 Zn 0.49660 -0.00256 0.50038
 N105 N 0.52831 -0.02734 0.47333
 C106 C 0.47432 0.02855 0.44182
 N107 N 0.46925 0.02687 0.47491
 C108 C 0.44529 0.04689 0.49074
 C109 C 0.42416 0.06871 0.47306
 C110 C 0.45397 0.05020 0.42322
 C111 C 0.48381 -0.05770 0.53962
 C112 C 0.46404 -0.08113 0.55683
 C113 C 0.41074 -0.05443 0.53814
 C114 C 0.43154 -0.03158 0.52118
 N115 N 0.46739 -0.03322 0.52273
 H116 H 0.49415 0.01318 0.42972
 H117 H 0.44239 0.04564 0.51717
 H118 H 0.40503 0.08429 0.48604
 H119 H 0.45789 0.05072 0.39684
 H120 H 0.51237 -0.05878 0.53998
 H121 H 0.47760 -0.09992 0.57080
 H122 H 0.38224 -0.05272 0.53672
 H123 H 0.41893 -0.01266 0.50680
 C124 C 0.57318 -0.06684 0.43462
 C125 C 0.55952 0.06246 0.57308
 C126 C 0.42698 -0.07947 0.55646
 C127 C 0.42826 0.07040 0.43881
 C128 C 0.55298 0.55063 0.01385
 H129 H 0.55862 0.54951 -0.01225
 C130 C 0.57252 0.57135 0.03371
 H131 H 0.59336 0.58614 0.02286
 C132 C 0.51840 0.53329 0.05974
 H133 H 0.49694 0.51878 0.06970
 C134 C 0.53673 0.55426 0.08036
 H135 H 0.52966 0.55542 0.10622
 N136 N 0.52696 0.53165 0.02718
 C137 C 0.51649 0.45743 -0.04977
 H138 H 0.48824 0.45866 -0.05321
 C139 C 0.53763 0.43690 -0.06980
 H140 H 0.52538 0.42289 -0.08897
 C141 C 0.56654 0.47493 -0.02097
 H142 H 0.57766 0.48923 -0.00148
 C143 C 0.58864 0.45449 -0.04020
 H144 H 0.61659 0.45343 -0.03519
 Zn145 Zn 0.50084 0.50479 -0.00125
 N146 N 0.53126 0.47658 -0.02650
 C147 C 0.47999 0.53391 -0.06176
 N148 N 0.47504 0.53369 -0.02860
 C149 C 0.45154 0.55473 -0.01353
 C150 C 0.43033 0.57570 -0.03201
 C151 C 0.45954 0.55474 -0.08119
 C152 C 0.48423 0.45589 0.04473
 C153 C 0.46273 0.43580 0.06431
 C154 C 0.41153 0.46020 0.03911
 C155 C 0.43401 0.47965 0.01984
 N156 N 0.46963 0.47766 0.02342
 H157 H 0.49962 0.51789 -0.07327
 H158 H 0.44876 0.55464 0.01294
 H159 H 0.41131 0.59186 -0.01961
 H160 H 0.46312 0.55398 -0.10760
 H161 H 0.51266 0.45455 0.04682
 H162 H 0.47480 0.41917 0.08169
 H163 H 0.38324 0.46221 0.03604
 H164 H 0.42286 0.49627 0.00206
 C165 C 0.57435 0.43543 -0.06536
 C166 C 0.56431 0.57337 0.06734
 C167 C 0.42584 0.43810 0.06188
 C168 C 0.43389 0.57555 -0.06633
 C169 C 0.18556 -0.23965 -0.21822
 C170 C 0.16478 -0.22136 -0.19578
 C171 C 0.17938 -0.19533 -0.17828
 C172 C 0.21549 -0.18849 -0.18255
 C173 C 0.23636 -0.20700 -0.20467
 C174 C 0.22134 -0.23200 -0.22353
 N175 N 0.15699 -0.17593 -0.15678
 N176 N 0.16759 -0.14940 -0.14370
 C177 C 0.14531 -0.12959 -0.12250
 C178 C 0.15716 -0.09867 -0.11260
 C179 C 0.13566 -0.07819 -0.09281
 C180 C 0.10191 -0.08850 -0.08224
 C181 C 0.09035 -0.11990 -0.09182
 C182 C 0.11177 -0.14021 -0.11187
 H183 H 0.17344 -0.25974 -0.23111
 H184 H 0.13711 -0.22718 -0.19231
 H185 H 0.22755 -0.16882 -0.16892
 H186 H 0.26415 -0.20122 -0.20754
 H187 H 0.18293 -0.09019 -0.12073
 H188 H 0.14523 -0.05402 -0.08637
 H189 H 0.06483 -0.12891 -0.08364
 H190 H 0.10215 -0.16416 -0.11902
 C191 C 0.18759 0.26681 0.27992
 C192 C 0.16593 0.28534 0.30141
 C193 C 0.17982 0.31144 0.31932
 C194 C 0.21598 0.31857 0.31587
 C195 C 0.23772 0.29982 0.29460
 C196 C 0.22354 0.27424 0.27604
 N197 N 0.15676 0.33009 0.34089
 N198 N 0.16680 0.35595 0.35558
 C199 C 0.14368 0.37451 0.37718
 C200 C 0.15495 0.40483 0.38925
 C201 C 0.13275 0.42393 0.40977
 C202 C 0.09884 0.41281 0.41890
 C203 C 0.08783 0.38202 0.40709
 C204 C 0.10996 0.36311 0.38632
 H205 H 0.17622 0.24646 0.26684
 H206 H 0.13821 0.27937 0.30414
 H207 H 0.22745 0.33839 0.32973
 H208 H 0.26560 0.30538 0.29252
 H209 H 0.18085 0.41392 0.38232
 H210 H 0.14193 0.44770 0.41793
 H211 H 0.06219 0.37239 0.41406
 H212 H 0.10075 0.33958 0.37752
 C213 C 0.68746 -0.23723 0.27932
 C214 C 0.66563 -0.21919 0.30112
 C215 C 0.67930 -0.19313 0.31927
 C216 C 0.71548 -0.18601 0.31629
 C217 C 0.73737 -0.20433 0.29486
 C218 C 0.72330 -0.22940 0.27556
 N219 N 0.65594 -0.17406 0.34016
 N220 N 0.66552 -0.14717 0.35325
 C221 C 0.64228 -0.12785 0.37401
 C222 C 0.65277 -0.09638 0.38363
 C223 C 0.63040 -0.07653 0.40324
 C224 C 0.59715 -0.08803 0.41393
 C225 C 0.58694 -0.11992 0.40455
 C226 C 0.60920 -0.13959 0.38464
 H227 H 0.67622 -0.25722 0.26560
 H228 H 0.63789 -0.22517 0.30351
 H229 H 0.72679 -0.16629 0.33041
 H230 H 0.76517 -0.19846 0.29281
 H231 H 0.67818 -0.08703 0.37549
 H232 H 0.63894 -0.05196 0.40953
 H233 H 0.56188 -0.12986 0.41285
 H234 H 0.60064 -0.16397 0.37773
 C235 C 0.68272 0.26510 -0.22424
 C236 C 0.66138 0.28499 -0.20372
 C237 C 0.67601 0.31076 -0.18591
 C238 C 0.71246 0.31662 -0.18901
 C239 C 0.73387 0.29651 -0.20931
 C240 C 0.71927 0.27030 -0.22674
 N241 N 0.65335 0.33037 -0.16485
 N242 N 0.66409 0.35603 -0.15027
 C243 C 0.64134 0.37527 -0.12891
 C244 C 0.65328 0.40547 -0.11710
 C245 C 0.63160 0.42499 -0.09650
 C246 C 0.59758 0.41442 -0.08698
 C247 C 0.58587 0.38382 -0.09864
 C248 C 0.60746 0.36448 -0.11950
 H249 H 0.67038 0.24577 -0.23791
 H250 H 0.63328 0.28040 -0.20176
 H251 H 0.72439 0.33656 -0.17568
 H252 H 0.76180 0.30168 -0.21159
 H253 H 0.67932 0.41407 -0.12422
 H254 H 0.64131 0.44862 -0.08849
 H255 H 0.56015 0.37459 -0.09137
 H256 H 0.59775 0.34106 -0.12808
 C257 C -0.22112 0.18181 -0.23453
 C258 C -0.20056 0.16105 -0.21512
 C259 C -0.18305 0.17363 -0.18807
 C260 C -0.18612 0.20748 -0.18073
 C261 C -0.20659 0.22827 -0.20023
 C262 C -0.22454 0.21555 -0.22708
 N263 N -0.16220 0.15162 -0.16874
 N264 N -0.14674 0.16108 -0.14305
 C265 C -0.12577 0.13898 -0.12390
 C266 C -0.11095 0.15061 -0.09505
 C267 C -0.09043 0.12966 -0.07576
 C268 C -0.08423 0.09664 -0.08519
 C269 C -0.09906 0.08505 -0.11426
 C270 C -0.11971 0.10599 -0.13342
 H271 H -0.23389 0.17140 -0.25553
 H272 H -0.19817 0.13507 -0.22120
 H273 H -0.17261 0.21787 -0.16010
 H274 H -0.20820 0.25424 -0.19429
 H275 H -0.11534 0.17600 -0.08750
 H276 H -0.07902 0.13939 -0.05371
 H277 H -0.09509 0.05965 -0.12194
 H278 H -0.13091 0.09638 -0.15562
 C279 C -0.17928 0.72975 0.27021
 C280 C -0.15664 0.71142 0.29007
 C281 C -0.17025 0.68800 0.31205
 C282 C -0.20695 0.68307 0.31396
 C283 C -0.22950 0.70120 0.29398
 C284 C -0.21582 0.72445 0.27183
 N285 N -0.14647 0.66948 0.33202
 N286 N -0.15772 0.64999 0.35426
 C287 C -0.13455 0.63084 0.37422
 C288 C -0.14914 0.61230 0.39995
 C289 C -0.12748 0.59307 0.41981
 C290 C -0.09073 0.59186 0.41406
 C291 C -0.07608 0.61042 0.38811
 C292 C -0.09780 0.62989 0.36840
 H293 H -0.16814 0.74805 0.25386
 H294 H -0.12845 0.71558 0.28848
 H295 H -0.21818 0.66514 0.33073
 H296 H -0.25769 0.69698 0.29574
 H297 H -0.17744 0.61273 0.40457
 H298 H -0.13954 0.57871 0.43935
 H299 H -0.04782 0.61014 0.38330
 H300 H -0.08592 0.64400 0.34860
 C301 C 0.31978 0.23043 0.27461
 C302 C 0.34164 0.21236 0.29536
 C303 C 0.32712 0.19027 0.31816
 C304 C 0.29024 0.18655 0.32018
 C305 C 0.26842 0.20444 0.29928
 C306 C 0.28307 0.22620 0.27614
 N307 N 0.35031 0.17153 0.33848
 N308 N 0.33874 0.15280 0.36123
 C309 C 0.36183 0.13333 0.38099
 C310 C 0.34739 0.11510 0.40703
 C311 C 0.36902 0.09506 0.42618
 C312 C 0.40555 0.09271 0.41935
 C313 C 0.42004 0.11124 0.39331
 C314 C 0.39841 0.13147 0.37434
 H315 H 0.33170 0.24761 0.25752
 H316 H 0.36999 0.21557 0.29369
 H317 H 0.27835 0.16963 0.33760
 H318 H 0.24009 0.20109 0.30099
 H319 H 0.31923 0.11625 0.41231
 H320 H 0.35708 0.08079 0.44585
 H321 H 0.44815 0.11016 0.38771
 H322 H 0.41020 0.14532 0.35431
 C323 C 0.31551 0.73054 -0.22997
 C324 C 0.33888 0.71294 -0.21024
 C325 C 0.32623 0.68948 -0.18787
 C326 C 0.28973 0.68374 -0.18539
 C327 C 0.26639 0.70107 -0.20528
 C328 C 0.27907 0.72434 -0.22803
 N329 N 0.35082 0.67174 -0.16809
 N330 N 0.34052 0.65275 -0.14504
 C331 C 0.36463 0.63431 -0.12541
 C332 C 0.35125 0.61666 -0.09853
 C333 C 0.37383 0.59792 -0.07910
 C334 C 0.41026 0.59628 -0.08649
 C335 C 0.42369 0.61401 -0.11355
 C336 C 0.40108 0.63303 -0.13279
 H337 H 0.32618 0.74905 -0.24633
 H338 H 0.36692 0.71778 -0.21217
 H339 H 0.27925 0.66577 -0.16825
 H340 H 0.23836 0.69614 -0.20292
 H341 H 0.32319 0.61735 -0.09270
 H342 H 0.36270 0.58416 -0.05867
 H343 H 0.45170 0.61334 -0.11964
 H344 H 0.41201 0.64643 -0.15353
 C345 C -0.23397 -0.18913 0.21732
 C346 C -0.21643 -0.16733 0.19623
 C347 C -0.18926 -0.17871 0.17514
 C348 C -0.18033 -0.21253 0.17475
 C349 C -0.19808 -0.23439 0.19571
 C350 C -0.22440 -0.22270 0.21768
 N351 N -0.17097 -0.15539 0.15482
 N352 N -0.14432 -0.16352 0.13686
 C353 C -0.12576 -0.13994 0.11703
 C354 C -0.09495 -0.14999 0.10004
 C355 C -0.07546 -0.12733 0.08147
 C356 C -0.08667 -0.09417 0.07943
 C357 C -0.11798 -0.08426 0.09606
 C358 C -0.13732 -0.10691 0.11481
 H359 H -0.25505 -0.17961 0.23310
 H360 H -0.22381 -0.14141 0.19649
 H361 H -0.15965 -0.22199 0.15841
 H362 H -0.19092 -0.26037 0.19509
 H363 H -0.08583 -0.17538 0.10149
 H364 H -0.05170 -0.13576 0.06856
 H365 H -0.12707 -0.05882 0.09515
 H366 H -0.16109 -0.09854 0.12774
 C367 C -0.18542 0.26334 0.71923
 C368 C -0.16349 0.28322 0.69979
 C369 C -0.17734 0.31084 0.68370
 C370 C -0.21356 0.31852 0.68740
 C371 C -0.23553 0.29851 0.70668
 C372 C -0.22158 0.27080 0.72264
 N373 N -0.15427 0.33019 0.66332
 N374 N -0.16461 0.35667 0.64954
 C375 C -0.14167 0.37570 0.62871
 C376 C -0.15368 0.40619 0.61706
 C377 C -0.13198 0.42540 0.59671
 C378 C -0.09783 0.41425 0.58738
 C379 C -0.08597 0.38341 0.59897
 C380 C -0.10762 0.36436 0.61952
 H381 H -0.17414 0.24189 0.73108
 H382 H -0.13567 0.27700 0.69706
 H383 H -0.22493 0.33967 0.67512
 H384 H -0.26345 0.30448 0.70890
 H385 H -0.17986 0.41522 0.62400
 H386 H -0.14179 0.44922 0.58872
 H387 H -0.06010 0.37379 0.59186
 H388 H -0.09784 0.34071 0.62800
 C389 C 0.26003 -0.19324 0.71829
 C390 C 0.27723 -0.17229 0.69611
 C391 C 0.30347 -0.18462 0.67456
 C392 C 0.31168 -0.21855 0.67467
 C393 C 0.29433 -0.23959 0.69672
 C394 C 0.26916 -0.22696 0.71945
 N395 N 0.32172 -0.16206 0.65338
 N396 N 0.34740 -0.17107 0.63462
 C397 C 0.36600 -0.14807 0.61415
 C398 C 0.39548 -0.15908 0.59571
 C399 C 0.41514 -0.13693 0.57665
 C400 C 0.40544 -0.10332 0.57562
 C401 C 0.37544 -0.09244 0.59373
 C402 C 0.35592 -0.11458 0.61288
 H403 H 0.23959 -0.18280 0.73423
 H404 H 0.27032 -0.14626 0.69590
 H405 H 0.33158 -0.22875 0.65794
 H406 H 0.30111 -0.26567 0.69639
 H407 H 0.40347 -0.18483 0.59644
 H408 H 0.43787 -0.14609 0.56265
 H409 H 0.36756 -0.06664 0.59372
 H410 H 0.33325 -0.10544 0.62696
 C411 C 0.30330 0.25939 0.19743
 C412 C 0.32336 0.27806 0.17525
 C413 C 0.31849 0.31230 0.17351
 C414 C 0.29289 0.32773 0.19408
 C415 C 0.27297 0.30905 0.21646
 C416 C 0.27851 0.27483 0.21863
 N417 N 0.34026 0.33074 0.15114
 N418 N 0.33594 0.36162 0.14675
 C419 C 0.35837 0.38002 0.12490
 C420 C 0.35040 0.41330 0.11915
 C421 C 0.37208 0.43209 0.09841
 C422 C 0.40240 0.41791 0.08327
 C423 C 0.41036 0.38446 0.08907
 C424 C 0.38849 0.36562 0.10961
 H425 H 0.30752 0.23291 0.19838
 H426 H 0.34285 0.26585 0.15944
 H427 H 0.28848 0.35416 0.19304
 H428 H 0.25332 0.32142 0.23189
 H429 H 0.32736 0.42471 0.13088
 H430 H 0.36553 0.45790 0.09469
 H431 H 0.43336 0.37281 0.07750
 H432 H 0.39526 0.33993 0.11371
 C433 C 0.23772 0.18643 0.22126
 C434 C 0.21926 0.16491 0.20124
 C435 C 0.19045 0.17641 0.18341
 C436 C 0.18078 0.20999 0.18514
 C437 C 0.19980 0.23166 0.20451
 C438 C 0.22790 0.21989 0.22320
 N439 N 0.17193 0.15376 0.16327
 N440 N 0.14077 0.15988 0.15368
 C441 C 0.12261 0.13771 0.13273
 C442 C 0.08578 0.14014 0.13097
 C443 C 0.06733 0.11873 0.11083
 C444 C 0.08566 0.09518 0.09148
 C445 C 0.12265 0.09309 0.09282
 C446 C 0.14101 0.11397 0.11357
 H447 H 0.25993 0.17693 0.23474
 H448 H 0.22721 0.13916 0.19981
 H449 H 0.15896 0.21952 0.17112
 H450 H 0.19241 0.25758 0.20511
 H451 H 0.07135 0.15844 0.14551
 H452 H 0.03880 0.12083 0.10996
 H453 H 0.13722 0.07504 0.07808
 H454 H 0.16952 0.11187 0.11435
 C455 C 0.23466 0.68548 0.71956
 C456 C 0.21588 0.66451 0.69926
 C457 C 0.18613 0.67617 0.68293
 C458 C 0.17578 0.70944 0.68641
 C459 C 0.19500 0.73063 0.70612
 C460 C 0.22408 0.71866 0.72352
 N461 N 0.16733 0.65399 0.66251
 N462 N 0.13603 0.66027 0.65339
 C463 C 0.11760 0.63841 0.63234
 C464 C 0.08083 0.64140 0.63041
 C465 C 0.06208 0.62012 0.61038
 C466 C 0.08006 0.59608 0.59134
 C467 C 0.11701 0.59346 0.59282
 C468 C 0.13565 0.61426 0.61342
 H469 H 0.25770 0.67567 0.73158
 H470 H 0.22439 0.63903 0.69637
 H471 H 0.15323 0.71914 0.67352
 H472 H 0.18693 0.75635 0.70793
 H473 H 0.06666 0.66001 0.64477
 H474 H 0.03360 0.62266 0.60941
 H475 H 0.13134 0.57500 0.57839
 H476 H 0.16412 0.61168 0.61434
 C477 C 0.72690 0.22166 0.68395
 C478 C 0.70763 0.20221 0.66259
 C479 C 0.68337 0.17931 0.67490
 C480 C 0.67900 0.17557 0.70900
 C481 C 0.69866 0.19467 0.73035
 C482 C 0.72236 0.21820 0.71801
 N483 N 0.66391 0.15992 0.65233
 N484 N 0.63756 0.14274 0.66150
 C485 C 0.61850 0.12292 0.63899
 C486 C 0.58622 0.10952 0.64919
 C487 C 0.56690 0.09016 0.62779
 C488 C 0.57988 0.08338 0.59581
 C489 C 0.61257 0.09670 0.58580
 C490 C 0.63160 0.11644 0.60710
 H491 H 0.74541 0.23916 0.67367
 H492 H 0.71144 0.20512 0.63636
 H493 H 0.66076 0.15768 0.71911
 H494 H 0.69546 0.19099 0.75655
 H495 H 0.57582 0.11440 0.67370
 H496 H 0.54159 0.08088 0.63622
 H497 H 0.62378 0.09151 0.56166
 H498 H 0.65670 0.12628 0.59877
 C499 C 0.73906 0.68637 0.21576
 C500 C 0.72058 0.66524 0.19536
 C501 C 0.69073 0.67668 0.17901
 C502 C 0.68007 0.70989 0.18249
 C503 C 0.69906 0.73121 0.20226
 C504 C 0.72817 0.71940 0.21958
 N505 N 0.67199 0.65430 0.15875
 N506 N 0.64038 0.66011 0.15025
 C507 C 0.62188 0.63810 0.12940
 C508 C 0.58500 0.64045 0.12832
 C509 C 0.56618 0.61909 0.10844
 C510 C 0.58416 0.59563 0.08869
 C511 C 0.62119 0.59363 0.08936
 C512 C 0.63994 0.61449 0.10982
 H513 H 0.76202 0.67690 0.22816
 H514 H 0.72928 0.63980 0.19258
 H515 H 0.65740 0.71939 0.16964
 H516 H 0.69078 0.75684 0.20434
 H517 H 0.57082 0.65863 0.14320
 H518 H 0.53763 0.62117 0.10809
 H519 H 0.63552 0.57564 0.07434
 H520 H 0.66848 0.61242 0.11009
   
