data_POSCAR
  _audit_creation_date              2014-09-24
  _audit_creation_method            'ToBaCCo'
  _symmetry_space_group_name_H-M    'P1'
  _symmetry_Int_Tables_number       1
  _symmetry_cell_setting            triclinic
  loop_
  _symmetry_equiv_pos_as_xyz
 x,y,z
_cell_length_a 37.0722
_cell_length_b 37.0654
_cell_length_c 37.5635
_cell_angle_alpha 88.686500
_cell_angle_beta 92.160700
_cell_angle_gamma 86.973800
loop_
  _atom_site_label
  _atom_site_type_symbol
  _atom_site_fract_x
  _atom_site_fract_y
  _atom_site_fract_z
C1 C 0.19419 0.55449 1.05177
 H2 H 0.19694 0.57719 1.03363
 C3 C 0.16708 0.55580 1.07655
 H4 H 0.15042 0.58051 1.07799
 C5 C 0.21281 0.49491 1.07084
 H6 H 0.22949 0.47056 1.06724
 C7 C 0.18603 0.49499 1.09603
 H8 H 0.18320 0.47024 1.11117
 N9 N 0.21602 0.52420 1.04904
 C10 C 0.28646 0.56668 0.97021
 H11 H 0.27833 0.55024 0.94820
 C12 C 0.31272 0.59174 0.96554
 H13 H 0.32348 0.59524 0.93943
 C14 C 0.28292 0.58083 1.03120
 H15 H 0.27217 0.57532 1.05702
 C16 C 0.30974 0.60573 1.02787
 H17 H 0.31924 0.61923 1.05140
 Zn18 Zn 0.24435 0.52095 1.00849
 N19 N 0.27226 0.56159 1.00264
 C20 C 0.19935 0.54645 0.94949
 N21 N 0.21079 0.51697 0.96991
 C22 C 0.19441 0.48517 0.96703
 C23 C 0.16563 0.48192 0.94255
 C24 C 0.17033 0.54451 0.92491
 C25 C 0.29954 0.47740 1.04224
 C26 C 0.32783 0.45102 1.04511
 C27 C 0.31167 0.43215 0.98583
 C28 C 0.28345 0.45875 0.98419
 N29 N 0.27795 0.48071 1.01218
 H30 H 0.21157 0.57197 0.95344
 H31 H 0.20320 0.46250 0.98445
 H32 H 0.15344 0.45618 0.94047
 H33 H 0.16082 0.56864 0.90989
 H34 H 0.29516 0.49580 1.06379
 H35 H 0.34444 0.44881 1.06947
 H36 H 0.31602 0.41621 0.96264
 H37 H 0.26699 0.46283 0.95993
 C38 C 0.32570 0.61080 0.99484
 C39 C 0.16164 0.52536 1.09860
 C40 C 0.33472 0.42824 1.01643
 C41 C 0.15271 0.51202 0.92154
 C42 C 0.79683 0.51918 -0.05358
 H43 H 0.79458 0.54187 -0.03605
 C44 C 0.82305 0.51812 -0.07931
 H45 H 0.84101 0.54009 -0.08163
 C46 C 0.77843 0.46123 -0.06974
 H47 H 0.76210 0.43847 -0.06484
 C48 C 0.80446 0.45898 -0.09562
 H49 H 0.80775 0.43469 -0.11092
 N50 N 0.77539 0.49088 -0.04913
 C51 C 0.69583 0.53501 0.02261
 H52 H 0.70113 0.51577 0.04452
 C53 C 0.66758 0.56114 0.02420
 H54 H 0.65237 0.56220 0.04806
 C55 C 0.70925 0.55554 -0.03533
 H56 H 0.72464 0.55221 -0.05901
 C57 C 0.68085 0.58193 -0.03501
 H58 H 0.67488 0.59873 -0.05866
 Zn59 Zn 0.74674 0.49056 -0.00870
 N60 N 0.71574 0.53242 -0.00692
 C61 C 0.78390 0.51570 0.05239
 N62 N 0.77946 0.48691 0.03116
 C63 C 0.80171 0.45661 0.03485
 C64 C 0.83016 0.45462 0.06039
 C65 C 0.81204 0.51489 0.07822
 C66 C 0.69284 0.45189 -0.03933
 C67 C 0.66464 0.42855 -0.04078
 C68 C 0.68351 0.40552 0.01800
 C69 C 0.71176 0.42915 0.01816
 N70 N 0.71547 0.45206 -0.01008
 H71 H 0.76679 0.54005 0.04818
 H72 H 0.79801 0.43440 0.01711
 H73 H 0.84768 0.43034 0.06273
 H74 H 0.81596 0.53868 0.09378
 H75 H 0.69605 0.47085 -0.06116
 H76 H 0.64702 0.42909 -0.06445
 H77 H 0.68031 0.38891 0.04144
 H78 H 0.72948 0.43049 0.04157
 C79 C 0.65893 0.58445 -0.00524
 C80 C 0.82728 0.48750 -0.10020
 C81 C 0.65881 0.40566 -0.01143
 C82 C 0.83605 0.48430 0.08205
 C83 C -0.04810 0.30618 0.45899
 H84 H -0.06866 0.30390 0.47848
 C85 C -0.05148 0.33377 0.43292
 H86 H -0.07569 0.35138 0.43210
 C87 C 0.00809 0.28543 0.43715
 H88 H 0.03207 0.26759 0.43986
 C89 C 0.00593 0.31265 0.41075
 H90 H 0.02884 0.31466 0.39402
 N91 N -0.01853 0.28289 0.46080
 C92 C -0.04756 0.19726 0.53430
 H93 H -0.02593 0.19948 0.55415
 C94 C -0.07058 0.16889 0.53680
 H95 H -0.06693 0.15055 0.55946
 C96 C -0.07673 0.21808 0.47995
 H97 H -0.07791 0.23636 0.45705
 C98 C -0.10013 0.18970 0.48118
 H99 H -0.11914 0.18675 0.45899
 Zn100 Zn -0.01181 0.25123 0.50099
 N101 N -0.05066 0.22087 0.50602
 C102 C -0.02703 0.27998 0.56935
 N103 N -0.00556 0.28075 0.54082
 C104 C 0.02025 0.30522 0.53807
 C105 C 0.02497 0.33067 0.56435
 C106 C -0.02269 0.30448 0.59672
 C107 C 0.02864 0.19810 0.46727
 C108 C 0.05414 0.16939 0.46470
 C109 C 0.07974 0.18436 0.52221
 C110 C 0.05409 0.21332 0.52338
 N111 N 0.02888 0.21920 0.49636
 H112 H -0.04798 0.26089 0.57072
 H113 H 0.03650 0.30561 0.51474
 H114 H 0.04469 0.35073 0.56045
 H115 H -0.03985 0.30313 0.61933
 H116 H 0.00776 0.20290 0.44655
 H117 H 0.05327 0.15305 0.44120
 H118 H 0.09811 0.17897 0.54492
 H119 H 0.05301 0.22975 0.54677
 C120 C -0.09663 0.16395 0.50945
 C121 C -0.02383 0.33816 0.40858
 C122 C 0.07952 0.16141 0.49289
 C123 C 0.00330 0.33070 0.59430
 C124 C 0.98318 0.69215 0.53900
 H125 H 0.96028 0.69900 0.52097
 C126 C 0.98224 0.66268 0.56261
 H127 H 0.95798 0.64770 0.56326
 C128 C 1.04313 0.70263 0.55868
 H129 H 1.06737 0.71724 0.55582
 C130 C 1.04340 0.67320 0.58266
 H131 H 1.06781 0.66582 0.59846
 N132 N 1.01343 0.71115 0.53716
 C133 C 0.96862 0.79480 0.46278
 H134 H 0.98592 0.78916 0.44079
 C135 C 0.94199 0.82279 0.45953
 H136 H 0.93840 0.83783 0.43450
 C137 C 0.95337 0.78249 0.52235
 H138 H 0.95894 0.76756 0.54718
 C139 C 0.92674 0.81072 0.52044
 H140 H 0.91221 0.81711 0.54405
 Zn141 Zn 1.01527 0.74344 0.49785
 N142 N 0.97386 0.77537 0.49381
 C143 C 0.98826 0.70757 0.43771
 N144 N 1.01844 0.71367 0.45790
 C145 C 1.04982 0.69369 0.45420
 C146 C 1.05164 0.66616 0.42950
 C147 C 0.98883 0.68012 0.41285
 C148 C 1.05878 0.79077 0.53347
 C149 C 1.08325 0.81792 0.53677
 C150 C 1.09925 0.80862 0.47580
 C151 C 1.07477 0.78122 0.47382
 N152 N 1.05487 0.77319 0.50234
 H153 H 0.96311 0.72248 0.44237
 H154 H 1.07306 0.69823 0.47150
 H155 H 1.07671 0.65014 0.42732
 H156 H 0.96396 0.67453 0.39878
 H157 H 1.04192 0.78450 0.55543
 H158 H 1.08580 0.83148 0.56183
 H159 H 1.11343 0.81581 0.45222
 H160 H 1.07021 0.76784 0.44890
 C161 C 0.92118 0.83175 0.48889
 C162 C 1.01302 0.65214 0.58407
 C163 C 1.10314 0.82796 0.50738
 C164 C 1.02070 0.65866 0.40883
 C165 C 0.44578 -0.03778 0.29717
 H166 H 0.46058 -0.06281 0.29161
 C167 C 0.42111 -0.03684 0.32441
 H168 H 0.41688 -0.06135 0.33953
 C169 C 0.43639 0.02544 0.28692
 H170 H 0.44377 0.04988 0.27342
 C171 C 0.41184 0.02763 0.31410
 H172 H 0.39970 0.05374 0.32066
 N173 N 0.45308 -0.00686 0.27927
 C174 C 0.53057 -0.05395 0.20696
 H175 H 0.55354 -0.03903 0.21548
 C176 C 0.53410 -0.07865 0.17973
 H177 H 0.56059 -0.08351 0.16919
 C178 C 0.46853 -0.06471 0.21090
 H179 H 0.44266 -0.05783 0.22206
 C180 C 0.47070 -0.08945 0.18339
 H181 H 0.44592 -0.10095 0.17429
 Zn182 Zn 0.49400 -0.00663 0.25097
 N183 N 0.49816 -0.04731 0.22182
 C184 C 0.55272 -0.03588 0.29468
 N185 N 0.53382 -0.00495 0.28364
 C186 C 0.53870 0.02680 0.30009
 C187 C 0.56344 0.02833 0.32888
 C188 C 0.57756 -0.03563 0.32360
 C189 C 0.45881 0.03951 0.20026
 C190 C 0.45552 0.06531 0.17260
 C191 C 0.51800 0.07842 0.18390
 C192 C 0.52000 0.05252 0.21167
 N193 N 0.49065 0.03361 0.21913
 H194 H 0.54722 -0.06114 0.28225
 H195 H 0.52248 0.05077 0.29154
 H196 H 0.56694 0.05394 0.34138
 H197 H 0.59123 -0.06083 0.33283
 H198 H 0.43618 0.02340 0.20615
 H199 H 0.42989 0.06947 0.15790
 H200 H 0.54210 0.09188 0.17731
 H201 H 0.54546 0.04631 0.22607
 C202 C 0.50371 -0.09618 0.16637
 C203 C 0.40461 -0.00362 0.33375
 C204 C 0.48555 0.08469 0.16359
 C205 C 0.58270 -0.00332 0.34154
 C206 C 0.55626 -0.01641 0.70068
 H207 H 0.53963 -0.03924 0.70427
 C208 C 0.58146 -0.01667 0.67396
 H209 H 0.58427 -0.03983 0.65705
 C210 C 0.57024 0.04313 0.71599
 H211 H 0.56457 0.06696 0.73130
 C212 C 0.59552 0.04410 0.68938
 H213 H 0.60972 0.06846 0.68472
 N214 N 0.55095 0.01330 0.72083
 C215 C 0.47829 -0.02691 0.79923
 H216 H 0.45558 -0.00803 0.79286
 C217 C 0.47651 -0.05177 0.82738
 H218 H 0.45180 -0.05262 0.84167
 C219 C 0.53830 -0.04785 0.78846
 H220 H 0.56275 -0.04516 0.77403
 C221 C 0.53779 -0.07303 0.81678
 H222 H 0.56195 -0.08979 0.82369
 Zn223 Zn 0.51016 0.01536 0.74947
 N224 N 0.50891 -0.02514 0.78065
 C225 C 0.45084 -0.01178 0.71104
 N226 N 0.46963 0.01809 0.71741
 C227 C 0.46349 0.04882 0.69719
 C228 C 0.43770 0.05028 0.66908
 C229 C 0.42511 -0.01164 0.68289
 C230 C 0.54056 0.05689 0.80157
 C231 C 0.54077 0.08043 0.82997
 C232 C 0.47961 0.10095 0.81260
 C233 C 0.48063 0.07708 0.78430
 N234 N 0.51064 0.05522 0.77979
 H235 H 0.45719 -0.03639 0.72651
 H236 H 0.47950 0.07187 0.70223
 H237 H 0.43341 0.07502 0.65326
 H238 H 0.41204 -0.03632 0.67719
 H239 H 0.56376 0.03861 0.79783
 H240 H 0.56479 0.08070 0.84705
 H241 H 0.45476 0.11661 0.81700
 H242 H 0.45666 0.07438 0.76750
 C243 C 0.50684 -0.07457 0.83720
 C244 C 0.60093 0.01409 0.66783
 C245 C 0.50961 0.10204 0.83656
 C246 C 0.41866 0.01950 0.66105
 C247 C 0.21664 -0.03608 0.50219
 C248 C 0.23245 -0.00273 0.49917
 C249 C 0.21068 0.02930 0.49646
 C250 C 0.17291 0.02842 0.49691
 C251 C 0.15733 -0.00526 0.50003
 C252 C 0.17890 -0.03764 0.50273
 C253 C 0.27190 -0.00105 0.49886
 C254 C 0.28947 -0.00291 0.46657
 C255 C 0.32678 0.00132 0.46575
 C256 C 0.34644 0.00657 0.49774
 C257 C 0.32914 0.00824 0.53041
 C258 C 0.29163 0.00458 0.53060
 H259 H 0.23382 -0.06066 0.50459
 H260 H 0.22336 0.05473 0.49332
 H261 H 0.27386 -0.00635 0.44202
 H262 H 0.27748 0.00694 0.55518
 H263 H 0.12830 -0.00632 0.50008
 H264 H 0.37543 0.00870 0.49712
 C265 C 0.79138 -0.03473 0.49556
 C266 C 0.77167 -0.00213 0.50088
 C267 C 0.78950 0.03017 0.50332
 C268 C 0.82709 0.03031 0.49998
 C269 C 0.84660 -0.00271 0.49516
 C270 C 0.82909 -0.03538 0.49302
 C271 C 0.73215 -0.00151 0.50302
 C272 C 0.71604 0.00403 0.53568
 C273 C 0.67826 0.00650 0.53759
 C274 C 0.65679 0.00332 0.50626
 C275 C 0.67267 -0.00197 0.47321
 C276 C 0.71054 -0.00464 0.47199
 H277 H 0.77720 -0.05942 0.49317
 H278 H 0.77388 0.05508 0.50775
 H279 H 0.73299 0.00698 0.55948
 H280 H 0.72343 -0.00783 0.44676
 H281 H 0.87564 -0.00295 0.49311
 H282 H 0.62770 0.00424 0.50781
 C283 C 0.52598 0.28974 0.99699
 C284 C 0.49409 0.27293 1.00447
 C285 C 0.46306 0.29386 1.01254
 C286 C 0.46338 0.33173 1.01267
 C287 C 0.49571 0.34828 1.00543
 C288 C 0.52721 0.32751 0.99769
 C289 C 0.49305 0.23334 1.00358
 C290 C 0.48830 0.21342 1.03504
 C291 C 0.48732 0.17566 1.03455
 C292 C 0.49031 0.15819 1.00190
 C293 C 0.49462 0.17786 0.97000
 C294 C 0.49645 0.21557 0.97124
 H295 H 0.54981 0.27330 0.99060
 H296 H 0.43856 0.28053 1.01840
 H297 H 0.48533 0.22746 1.05982
 H298 H 0.50044 0.23127 0.94716
 H299 H 0.49632 0.37741 1.00564
 H300 H 0.48941 0.12907 1.00131
 C301 C 0.52888 0.71539 -0.00740
 C302 C 0.49737 0.73770 -0.00544
 C303 C 0.46349 0.72264 -0.00593
 C304 C 0.46083 0.68515 -0.00854
 C305 C 0.49266 0.66304 -0.01019
 C306 C 0.52687 0.67779 -0.00976
 C307 C 0.49998 0.77697 -0.00312
 C308 C 0.50233 0.79809 -0.03421
 C309 C 0.50524 0.83564 -0.03238
 C310 C 0.50613 0.85158 0.00128
 C311 C 0.50408 0.83055 0.03269
 C312 C 0.50069 0.79316 0.03016
 H313 H 0.55485 0.72747 -0.00636
 H314 H 0.43929 0.74024 -0.00488
 H315 H 0.50114 0.78520 -0.05979
 H316 H 0.49925 0.77650 0.05411
 H317 H 0.49087 0.63413 -0.01140
 H318 H 0.50818 0.88033 0.00291
 C319 C 1.00810 0.53054 0.28711
 C320 C 0.99861 0.50006 0.26830
 C321 C 0.98937 0.46894 0.28693
 C322 C 0.99012 0.46777 0.32434
 C323 C 0.99951 0.49865 0.34289
 C324 C 1.00823 0.53036 0.32450
 C325 C 0.99895 0.50064 0.22907
 C326 C 1.03071 0.50795 0.21186
 C327 C 1.03143 0.50878 0.17455
 C328 C 0.99964 0.50267 0.15453
 C329 C 0.96741 0.49568 0.17143
 C330 C 0.96752 0.49428 0.20884
 H331 H 1.01540 0.55443 0.27247
 H332 H 0.98219 0.44536 0.27223
 H333 H 1.05500 0.51286 0.22761
 H334 H 0.94310 0.48849 0.22238
 H335 H 1.00055 0.49796 0.37157
 H336 H 0.99990 0.50333 0.12591
 C337 C 0.00269 0.52538 0.71106
 C338 C -0.00191 0.49437 0.73209
 C339 C -0.00116 0.46037 0.71662
 C340 C 0.00570 0.45707 0.68047
 C341 C 0.01056 0.48810 0.65954
 C342 C 0.00825 0.52267 0.67438
 C343 C -0.00578 0.49715 0.77070
 C344 C -0.03910 0.49189 0.78579
 C345 C -0.04212 0.49217 0.82288
 C346 C -0.01145 0.49803 0.84467
 C347 C 0.02224 0.50300 0.82985
 C348 C 0.02467 0.50280 0.79264
 H349 H 0.00100 0.55131 0.72346
 H350 H -0.00464 0.43642 0.73298
 H351 H -0.06242 0.48686 0.76869
 H352 H 0.05050 0.50555 0.78057
 H353 H 0.01589 0.48520 0.63155
 H354 H -0.01409 0.49924 0.87318
 C355 C 0.13823 0.12538 0.50872
 C356 C 0.10366 0.12805 0.49249
 C357 C 0.09238 0.09615 0.47611
 C358 C 0.11496 0.06402 0.47683
 C359 C 0.14972 0.06243 0.49408
 C360 C 0.16013 0.09463 0.50895
 C361 C 0.18940 0.11068 0.53064
 C362 C 0.16484 0.14545 0.53023
 H363 H 0.06573 0.09544 0.46347
 H364 H 0.10499 0.04056 0.46384
 H365 H 0.21441 0.11374 0.51569
 H366 H 0.19339 0.09748 0.55747
 H367 H 0.17555 0.16824 0.51484
 H368 H 0.15533 0.15217 0.55710
 C369 C 0.59279 0.59676 0.00572
 C370 C 0.62553 0.60872 -0.00656
 C371 C 0.62404 0.64258 -0.02482
 C372 C 0.59187 0.66480 -0.02701
 C373 C 0.56013 0.65363 -0.01131
 C374 C 0.56108 0.61836 0.00290
 C375 C 0.54780 0.60464 0.03731
 C376 C 0.58278 0.58150 0.04109
 H377 H 0.64803 0.65257 -0.03632
 H378 H 0.59222 0.69097 -0.04034
 H379 H 0.52356 0.58854 0.03346
 H380 H 0.54545 0.62598 0.05756
 H381 H 0.57861 0.55205 0.04023
 H382 H 0.60030 0.59004 0.06369
 C383 C 0.86390 -0.13292 0.50528
 C384 C 0.89612 -0.13550 0.48716
 C385 C 0.90447 -0.10389 0.46774
 C386 C 0.88209 -0.07172 0.46840
 C387 C 0.85045 -0.06989 0.48847
 C388 C 0.84203 -0.10214 0.50529
 C389 C 0.81743 -0.11714 0.53161
 C390 C 0.84183 -0.15202 0.53145
 H391 H 0.92908 -0.10330 0.45318
 H392 H 0.89005 -0.04819 0.45367
 H393 H 0.78980 -0.12039 0.52005
 H394 H 0.81875 -0.10300 0.55737
 H395 H 0.82838 -0.17526 0.51959
 H396 H 0.85638 -0.15778 0.55751
 C397 C 0.36534 0.36650 1.00638
 C398 C 0.36666 0.40198 1.01854
 C399 C 0.39954 0.41133 1.03538
 C400 C 0.43062 0.38772 1.03564
 C401 C 0.42975 0.35389 1.01922
 C402 C 0.39582 0.34299 1.00743
 C403 C 0.38462 0.32500 0.97406
 C404 C 0.35158 0.35111 0.97223
 H405 H 0.40202 0.43780 1.04651
 H406 H 0.45562 0.39676 1.04726
 H407 H 0.37796 0.29649 0.97907
 H408 H 0.40344 0.32923 0.95215
 H409 H 0.32583 0.33753 0.97539
 H410 H 0.35210 0.37000 0.94891
 C411 C 0.89987 0.09656 0.51764
 C412 C 0.88292 0.13038 0.50809
 C413 C 0.84789 0.13030 0.49184
 C414 C 0.82978 0.09793 0.48846
 C415 C 0.84624 0.06459 0.50106
 C416 C 0.88216 0.06475 0.51381
 C417 C 0.89946 0.04773 0.54688
 C418 C 0.91837 0.08267 0.55180
 H419 H 0.83396 0.15535 0.48256
 H420 H 0.80276 0.09925 0.47639
 H421 H 0.91830 0.02444 0.54115
 H422 H 0.87968 0.04246 0.56766
 H423 H 0.94818 0.07932 0.54968
 H424 H 0.90906 0.09737 0.57553
 C425 C 0.38524 0.62398 -0.03142
 C426 C 0.35769 0.63310 -0.00840
 C427 C 0.36375 0.66323 0.01332
 C428 C 0.39678 0.68106 0.01260
 C429 C 0.42502 0.66901 -0.00944
 C430 C 0.41723 0.64037 -0.03138
 C431 C 0.43379 0.61400 -0.05623
 C432 C 0.39781 0.59528 -0.05595
 H433 H 0.34339 0.67272 0.03130
 H434 H 0.40067 0.70324 0.03036
 H435 H 0.45645 0.59681 -0.04371
 H436 H 0.43934 0.62675 -0.08239
 H437 H 0.40008 0.56807 -0.04272
 H438 H 0.38292 0.59693 -0.08222
 C439 C 0.11529 -0.10962 0.52833
 C440 C 0.12539 -0.13983 0.50877
 C441 C 0.15667 -0.13654 0.48852
 C442 C 0.17485 -0.10372 0.48727
 C443 C 0.16204 -0.07296 0.50580
 C444 C 0.13209 -0.07790 0.52637
 C445 C 0.10484 -0.05843 0.54818
 C446 C 0.08568 -0.09415 0.55005
 H447 H 0.16686 -0.15899 0.47321
 H448 H 0.19801 -0.10210 0.47070
 H449 H 0.08849 -0.03692 0.53292
 H450 H 0.11657 -0.05026 0.57425
 H451 H 0.05903 -0.09300 0.53535
 H452 H 0.08606 -0.10626 0.57741
 C453 C 0.62637 0.34821 1.00146
 C454 C 0.62598 0.38406 0.98841
 C455 C 0.59300 0.39857 0.97245
 C456 C 0.56124 0.37947 0.97349
 C457 C 0.56137 0.34518 0.99053
 C458 C 0.59506 0.32917 1.00184
 C459 C 0.60625 0.30931 1.03568
 C460 C 0.64019 0.33056 1.03595
 H461 H 0.59106 0.42565 0.96089
 H462 H 0.53635 0.39233 0.96228
 H463 H 0.61169 0.27995 1.03158
 H464 H 0.58814 0.31604 1.05780
 H465 H 0.66526 0.31332 1.03282
 H466 H 0.64096 0.34938 1.05852
 C467 C 0.50153 0.14120 1.12986
 C468 C 0.48350 0.10913 1.13163
 C469 C 0.46374 0.10044 1.10016
 C470 C 0.46390 0.12255 1.06885
 C471 C 0.48367 0.15424 1.06794
 C472 C 0.50102 0.16280 1.09997
 C473 C 0.52711 0.18776 1.11569
 C474 C 0.52748 0.16361 1.14960
 H475 H 0.44923 0.07589 1.09911
 H476 H 0.44895 0.11444 1.04532
 H477 H 0.51473 0.21533 1.11930
 H478 H 0.55325 0.18656 1.10210
 H479 H 0.51509 0.17713 1.17262
 H480 H 0.55416 0.14922 1.15544
 C481 C 0.03454 0.61418 0.63801
 C482 C 0.01435 0.61805 0.60578
 C483 C -0.00400 0.58775 0.59425
 C484 C -0.00555 0.55685 0.61647
 C485 C 0.01105 0.55525 0.65098
 C486 C 0.03244 0.58401 0.66035
 C487 C 0.03439 0.60663 0.69284
 C488 C 0.03743 0.63931 0.66819
 H489 H -0.01804 0.58815 0.56845
 H490 H -0.02123 0.53486 0.60714
 H491 H 0.05931 0.60004 0.70962
 H492 H 0.00885 0.60834 0.70741
 H493 H 0.06438 0.65108 0.67022
 H494 H 0.01393 0.65919 0.66881
 C495 C 0.48941 0.91289 -0.09975
 C496 C 0.50672 0.90183 -0.13031
 C497 C 0.52485 0.86715 -0.12783
 C498 C 0.52465 0.84552 -0.09606
 C499 C 0.50675 0.85806 -0.06556
 C500 C 0.48997 0.89257 -0.06909
 C501 C 0.46805 0.92027 -0.04993
 C502 C 0.46770 0.94338 -0.08447
 H503 H 0.53879 0.85646 -0.15043
 H504 H 0.53887 0.81923 -0.09539
 H505 H 0.48344 0.93220 -0.02757
 H506 H 0.44106 0.91085 -0.04338
 H507 H 0.48322 0.96811 -0.08198
 H508 H 0.44027 0.94752 -0.09733
 C509 C 0.95289 0.39957 0.38892
 C510 C 0.97488 0.36802 0.38398
 C511 C 0.99675 0.36860 0.35376
 C512 C 1.00050 0.40073 0.33377
 C513 C 0.98293 0.43352 0.34339
 C514 C 0.95742 0.43143 0.36984
 C515 C 0.94869 0.45440 0.40084
 C516 C 0.94354 0.41961 0.42174
 H517 H 1.01186 0.34467 0.34561
 H518 H 1.01890 0.40029 0.31205
 H519 H 0.92321 0.47127 0.39608
 H520 H 0.97189 0.46874 0.41199
 H521 H 0.91500 0.41669 0.42890
 H522 H 0.96391 0.41429 0.44400
 C523 C 0.53476 0.88397 0.11247
 C524 C 0.50615 0.88168 0.13598
 C525 C 0.47963 0.85685 0.12671
 C526 C 0.47956 0.83963 0.09359
 C527 C 0.50546 0.84707 0.06828
 C528 C 0.53401 0.86782 0.07950
 C529 C 0.55216 0.89816 0.06201
 C530 C 0.55325 0.91582 0.09806
 H531 H 0.45841 0.85077 0.14449
 H532 H 0.45812 0.82187 0.08709
 H533 H 0.53458 0.91429 0.04234
 H534 H 0.57939 0.88964 0.05282
 H535 H 0.53618 0.94137 0.09875
 H536 H 0.58124 0.91735 0.10940
 C537 C -0.02248 0.36916 0.64284
 C538 C 0.00677 0.35860 0.62204
 C539 C 0.03898 0.37699 0.62748
 C540 C 0.03933 0.40826 0.64807
 C541 C 0.00789 0.42114 0.66453
 C542 C -0.02181 0.39950 0.66380
 C543 C -0.06071 0.40972 0.65556
 C544 C -0.06155 0.37661 0.63248
 H545 H 0.06339 0.36864 0.61435
 H546 H 0.06352 0.42340 0.64956
 H547 H -0.06477 0.43566 0.64009
 H548 H -0.07728 0.40759 0.67950
 H549 H -0.06605 0.38330 0.60359
 H550 H -0.07880 0.35555 0.64311
 C551 C 0.51713 0.10586 0.90308
 C552 C 0.50659 0.12237 0.87007
 C553 C 0.48758 0.15639 0.87074
 C554 C 0.48303 0.17445 0.90309
 C555 C 0.49691 0.15869 0.93573
 C556 C 0.51198 0.12334 0.93485
 C557 C 0.54623 0.10725 0.95183
 C558 C 0.55249 0.08854 0.91690
 H559 H 0.47710 0.16954 0.84618
 H560 H 0.46907 0.20086 0.90237
 H561 H 0.54125 0.08816 0.97415
 H562 H 0.56614 0.12784 0.95806
 H563 H 0.55182 0.05864 0.91926
 H564 H 0.57617 0.09876 0.90330
 C565 C 1.00912 0.62864 0.34988
 C566 C 1.02146 0.62677 0.38565
 C567 C 1.03651 0.59300 0.39875
 C568 C 1.03416 0.56170 0.37832
 C569 C 1.01707 0.56344 0.34403
 C570 C 1.00767 0.59799 0.32956
 C571 C 0.97496 0.61233 0.30848
 C572 C 0.97615 0.64592 0.33095
 H573 H 1.04805 0.59030 0.42566
 H574 H 1.04436 0.53607 0.39008
 H575 H 0.95096 0.59627 0.31297
 H576 H 0.98074 0.61764 0.28007
 H577 H 0.95226 0.64878 0.34776
 H578 H 0.98222 0.67056 0.31535
 C579 C 1.10094 0.54854 0.11524
 C580 C 1.13168 0.52481 0.12113
 C581 C 1.13013 0.49951 0.14993
 C582 C 1.09782 0.49514 0.16779
 C583 C 1.06581 0.51535 0.15720
 C584 C 1.06889 0.54348 0.13219
 C585 C 1.04616 0.55576 0.10010
 C586 C 1.08113 0.56153 0.08152
 H587 H 1.15346 0.48242 0.15864
 H588 H 1.09745 0.47455 0.18869
 H589 H 1.03012 0.58133 0.10455
 H590 H 1.03093 0.53407 0.08760
 H591 H 1.08501 0.59051 0.07536
 H592 H 1.08574 0.54304 0.05903
 C593 C 0.65704 -0.00245 0.63512
 C594 C 0.62359 0.01660 0.63660
 C595 C 0.61158 0.03815 0.60666
 C596 C 0.63015 0.03619 0.57465
 C597 C 0.66137 0.01299 0.57219
 C598 C 0.67564 -0.00389 0.60379
 C599 C 0.68915 -0.04206 0.61121
 C600 C 0.66872 -0.04049 0.64560
 H601 H 0.58656 0.05456 0.60728
 H602 H 0.61916 0.05152 0.55148
 H603 H 0.71899 -0.04448 0.61577
 H604 H 0.67807 -0.06109 0.59167
 H605 H 0.68685 -0.04200 0.66990
 H606 H 0.64600 -0.05885 0.64593
 C607 C -0.14112 0.50122 0.84358
 C608 C -0.14179 0.48326 0.87666
 C609 C -0.11088 0.46192 0.88832
 C610 C -0.07867 0.46319 0.86975
 C611 C -0.07704 0.48553 0.83898
 C612 C -0.10954 0.50201 0.82497
 C613 C -0.11809 0.53994 0.81190
 C614 C -0.15274 0.53906 0.83232
 H615 H -0.11083 0.44646 0.91315
 H616 H -0.05462 0.44835 0.88055
 H617 H -0.12298 0.54166 0.78251
 H618 H -0.09868 0.55917 0.82274
 H619 H -0.17753 0.54026 0.81465
 H620 H -0.15340 0.55794 0.85487
 C621 C 0.35744 -0.02520 0.37475
 C622 C 0.38324 -0.00077 0.36611
 C623 C 0.38930 0.02640 0.39129
 C624 C 0.37075 0.02739 0.42362
 C625 C 0.34518 0.00157 0.43153
 C626 C 0.33902 -0.02369 0.40540
 C627 C 0.31976 -0.05708 0.39788
 C628 C 0.34041 -0.05868 0.36305
 H629 H 0.40919 0.04617 0.38661
 H630 H 0.37657 0.04823 0.44242
 H631 H 0.29014 -0.05159 0.39354
 H632 H 0.32796 -0.07948 0.41715
 H633 H 0.32275 -0.05392 0.33865
 H634 H 0.36015 -0.08225 0.36236
 C635 C 0.09121 0.48937 0.90643
 C636 C 0.12008 0.51009 0.89763
 C637 C 0.11566 0.52998 0.86489
 C638 C 0.08379 0.52823 0.84290
 C639 C 0.05508 0.50680 0.85307
 C640 C 0.06036 0.48834 0.88576
 C641 C 0.04355 0.46274 0.91056
 C642 C 0.07824 0.46418 0.93410
 H643 H 0.13691 0.54651 0.85590
 H644 H 0.08167 0.54388 0.81816
 H645 H 0.03997 0.43596 0.89857
 H646 H 0.01938 0.47498 0.92323
 H647 H 0.09414 0.43790 0.93590
 H648 H 0.07401 0.47761 0.95989
 C649 C 0.59790 0.01848 0.40312
 C650 C 0.60639 -0.00309 0.37433
 C651 C 0.63840 -0.02568 0.37904
 C652 C 0.65993 -0.02574 0.41118
 C653 C 0.64997 -0.00350 0.43987
 C654 C 0.61806 0.01781 0.43420
 C655 C 0.59372 0.04527 0.45092
 C656 C 0.57071 0.04578 0.41596
 H657 H 0.64713 -0.04305 0.35789
 H658 H 0.68409 -0.04347 0.41355
 H659 H 0.60714 0.07093 0.45574
 H660 H 0.57960 0.03411 0.47395
 H661 H 0.57064 0.07204 0.40110
 H662 H 0.54376 0.03450 0.41890
 C663 C 0.90161 0.46856 0.09839
 C664 C 0.86816 0.48439 0.10688
 C665 C 0.86754 0.50267 0.13963
 C666 C 0.89957 0.50564 0.16107
 C667 C 0.93341 0.49081 0.15032
 C668 C 0.93252 0.47219 0.11847
 C669 C 0.95577 0.45397 0.09197
 C670 C 0.92089 0.45025 0.06917
 H671 H 0.84250 0.51512 0.14853
 H672 H 0.89792 0.52070 0.18537
 H673 H 0.96831 0.42774 0.10238
 H674 H 0.97454 0.47238 0.07937
 H675 H 0.91356 0.42176 0.06619
 H676 H 0.91967 0.46696 0.04415
 C677 C 0.36334 -0.00040 0.62669
 C678 C 0.39450 0.01916 0.62858
 C679 C 0.40273 0.03770 0.59666
 C680 C 0.38106 0.03510 0.56497
 C681 C 0.35030 0.01391 0.56401
 C682 C 0.34218 -0.00232 0.59639
 C683 C 0.31789 -0.02831 0.61262
 C684 C 0.34155 -0.02601 0.64694
 H685 H 0.42661 0.05321 0.59560
 H686 H 0.38877 0.04943 0.54125
 H687 H 0.32007 -0.05523 0.60020
 H688 H 0.28992 -0.01659 0.61519
 H689 H 0.35664 -0.05199 0.65414
 H690 H 0.32733 -0.01275 0.66907
   
