data_POSCAR
  _audit_creation_date              2014-09-24
  _audit_creation_method            'ToBaCCo'
  _symmetry_space_group_name_H-M    'P1'
  _symmetry_Int_Tables_number       1
  _symmetry_cell_setting            triclinic
  loop_
  _symmetry_equiv_pos_as_xyz
 x,y,z
_cell_length_a 24.3112
_cell_length_b 22.8765
_cell_length_c 23.3173
_cell_angle_alpha 85.143800
_cell_angle_beta 93.396500
_cell_angle_gamma 93.649800
loop_
  _atom_site_label
  _atom_site_type_symbol
  _atom_site_fract_x
  _atom_site_fract_y
  _atom_site_fract_z
C1 C 0.32880 0.33820 0.22738
 H2 H 0.33310 0.33905 0.27375
 C3 C 0.36584 0.37194 0.19270
 H4 H 0.39866 0.39910 0.21232
 C5 C 0.28242 0.29975 0.14512
 H6 H 0.25100 0.27036 0.12672
 C7 C 0.31854 0.33277 0.10893
 H8 H 0.31434 0.32913 0.06283
 N9 N 0.28804 0.30308 0.20321
 C10 C 0.16590 0.26912 0.33411
 H11 H 0.16277 0.22158 0.33767
 C12 C 0.13354 0.30005 0.36723
 H13 H 0.10546 0.27637 0.39659
 C14 C 0.20575 0.35830 0.29098
 H15 H 0.23330 0.38086 0.26064
 C16 C 0.17413 0.39090 0.32326
 H17 H 0.17781 0.43848 0.31807
 Zn18 Zn 0.24351 0.25369 0.25348
 N19 N 0.20155 0.29851 0.29741
 C20 C 0.29334 0.20569 0.36024
 N21 N 0.29233 0.20763 0.30164
 C22 C 0.32811 0.17760 0.27432
 C23 C 0.36590 0.14263 0.30601
 C24 C 0.33061 0.17109 0.39367
 C25 C 0.15554 0.22976 0.17323
 C26 C 0.12096 0.19527 0.13780
 C27 C 0.16365 0.10902 0.18247
 C28 C 0.19747 0.14505 0.21690
 N29 N 0.19392 0.20442 0.21064
 H30 H 0.26544 0.23088 0.38115
 H31 H 0.32694 0.18065 0.22771
 H32 H 0.39386 0.11844 0.28381
 H33 H 0.33100 0.16927 0.44027
 H34 H 0.15305 0.27699 0.16970
 H35 H 0.09186 0.21591 0.10670
 H36 H 0.16792 0.06197 0.18654
 H37 H 0.22711 0.12549 0.24785
 C38 C 0.13787 0.36149 0.36182
 C39 C 0.36080 0.36887 0.13297
 C40 C 0.12570 0.13442 0.14195
 C41 C 0.36702 0.13914 0.36618
 C42 C 0.82999 0.84077 0.22590
 H43 H 0.83447 0.84203 0.27223
 C44 C 0.86669 0.87453 0.19081
 H45 H 0.89936 0.90208 0.21019
 C46 C 0.78354 0.80129 0.14421
 H47 H 0.75226 0.77150 0.12620
 C48 C 0.81929 0.83428 0.10759
 H49 H 0.81478 0.83012 0.06156
 N50 N 0.78937 0.80513 0.20223
 C51 C 0.66737 0.77054 0.33336
 H52 H 0.66444 0.72300 0.33677
 C53 C 0.63480 0.80117 0.36653
 H54 H 0.60676 0.77725 0.39578
 C55 C 0.70695 0.86002 0.29058
 H56 H 0.73451 0.88281 0.26038
 C57 C 0.67511 0.89233 0.32292
 H58 H 0.67861 0.93992 0.31791
 Zn59 Zn 0.74525 0.75565 0.25290
 N60 N 0.70300 0.80022 0.29681
 C61 C 0.79492 0.70767 0.35976
 N62 N 0.79433 0.70997 0.30116
 C63 C 0.83034 0.68013 0.27394
 C64 C 0.86780 0.64482 0.30573
 C65 C 0.83184 0.67274 0.39328
 C66 C 0.65721 0.73062 0.17301
 C67 C 0.62282 0.69566 0.13786
 C68 C 0.66628 0.61001 0.18284
 C69 C 0.69990 0.64650 0.21698
 N70 N 0.69588 0.70580 0.21043
 H71 H 0.76683 0.73268 0.38060
 H72 H 0.82946 0.68340 0.22734
 H73 H 0.89584 0.62066 0.28361
 H74 H 0.83179 0.67051 0.43987
 H75 H 0.65435 0.77781 0.16926
 H76 H 0.59348 0.71589 0.10675
 H77 H 0.67092 0.56303 0.18714
 H78 H 0.72974 0.62734 0.24795
 C79 C 0.63887 0.86261 0.36135
 C80 C 0.86145 0.87095 0.13110
 C81 C 0.62805 0.63489 0.14230
 C82 C 0.86835 0.64081 0.36590
 C83 C 0.83080 0.33728 0.72905
 H84 H 0.83545 0.33818 0.77541
 C85 C 0.86733 0.37133 0.69401
 H86 H 0.90013 0.39875 0.71332
 C87 C 0.78399 0.29853 0.64717
 H88 H 0.75260 0.26893 0.62903
 C89 C 0.81958 0.33184 0.61064
 H90 H 0.81500 0.32820 0.56455
 N91 N 0.79005 0.30189 0.70525
 C92 C 0.66825 0.26797 0.83659
 H93 H 0.66527 0.22043 0.84044
 C94 C 0.63559 0.29902 0.86930
 H95 H 0.60748 0.27542 0.89868
 C96 C 0.70783 0.35704 0.79296
 H97 H 0.73533 0.37952 0.76253
 C98 C 0.67591 0.38975 0.82482
 H99 H 0.67935 0.43732 0.81925
 Zn100 Zn 0.74581 0.25241 0.75578
 N101 N 0.70388 0.29725 0.79979
 C102 C 0.79569 0.20361 0.86230
 N103 N 0.79479 0.20621 0.80368
 C104 C 0.83058 0.17648 0.77606
 C105 C 0.86822 0.14104 0.80741
 C106 C 0.83278 0.16855 0.89547
 C107 C 0.65751 0.22858 0.67593
 C108 C 0.62300 0.19422 0.64033
 C109 C 0.66616 0.10793 0.68422
 C110 C 0.69991 0.14383 0.71884
 N111 N 0.69611 0.20318 0.71301
 H112 H 0.76774 0.22854 0.88343
 H113 H 0.82945 0.18003 0.72945
 H114 H 0.89605 0.11713 0.78468
 H115 H 0.83284 0.16631 0.94211
 H116 H 0.65485 0.27578 0.67274
 H117 H 0.59374 0.21494 0.60946
 H118 H 0.67065 0.06092 0.68789
 H119 H 0.72974 0.12421 0.74953
 C120 C 0.63958 0.36046 0.86339
 C121 C 0.86178 0.36829 0.63428
 C122 C 0.62803 0.13344 0.64397
 C123 C 0.86921 0.13673 0.86768
 C124 C 0.32922 0.83929 0.72786
 H125 H 0.33353 0.84046 0.77420
 C126 C 0.36615 0.87294 0.69297
 H127 H 0.39887 0.90037 0.71238
 C128 C 0.28299 0.80008 0.64591
 H129 H 0.25170 0.77040 0.62772
 C130 C 0.31899 0.83298 0.60952
 H131 H 0.31480 0.82900 0.56348
 N132 N 0.28860 0.80382 0.70395
 C133 C 0.16651 0.76945 0.83504
 H134 H 0.16372 0.72190 0.83880
 C135 C 0.13365 0.80026 0.86777
 H136 H 0.10558 0.77646 0.89706
 C137 C 0.20584 0.85876 0.79165
 H138 H 0.23335 0.88141 0.76133
 C139 C 0.17371 0.89123 0.82353
 H140 H 0.17699 0.93881 0.81808
 Zn141 Zn 0.24433 0.75432 0.75443
 N142 N 0.20211 0.79896 0.79835
 C143 C 0.29427 0.70583 0.86105
 N144 N 0.29341 0.70840 0.80243
 C145 C 0.32935 0.67881 0.77486
 C146 C 0.36711 0.64359 0.80628
 C147 C 0.33151 0.67095 0.89422
 C148 C 0.15641 0.72984 0.67430
 C149 C 0.12207 0.69513 0.63887
 C150 C 0.16526 0.60920 0.68358
 C151 C 0.19883 0.64544 0.71801
 N152 N 0.19493 0.70476 0.71171
 H153 H 0.26620 0.73063 0.88216
 H154 H 0.32825 0.68231 0.72824
 H155 H 0.39514 0.61970 0.78386
 H156 H 0.33173 0.66856 0.94083
 H157 H 0.15365 0.77703 0.67074
 H158 H 0.09285 0.71556 0.60775
 H159 H 0.16981 0.56220 0.68766
 H160 H 0.22857 0.62608 0.74897
 C161 C 0.13740 0.86170 0.86199
 C162 C 0.36113 0.86942 0.63329
 C163 C 0.12719 0.63434 0.64303
 C164 C 0.36803 0.63937 0.86645
 C165 C 0.04275 -0.04320 -0.04376
 C166 C 0.07725 -0.00387 -0.00355
 C167 C 0.04625 0.02830 0.02746
 C168 C -0.01641 0.01845 0.01563
 C169 C 0.00340 -0.08078 -0.00469
 C170 C -0.02749 -0.04840 0.02631
 C171 C 0.00584 -0.00161 -0.08121
 C172 C -0.02507 0.03055 -0.05006
 H173 H 0.12208 -0.00207 0.00048
 H174 H -0.04158 0.04479 0.04095
 H175 H -0.00008 -0.12851 -0.00217
 H176 H 0.00356 0.00132 -0.12805
 C177 C 0.04442 0.45668 0.45712
 C178 C 0.07904 0.49581 0.49743
 C179 C 0.04810 0.52790 0.52862
 C180 C -0.01457 0.51816 0.51684
 C181 C 0.00509 0.41901 0.49612
 C182 C -0.02570 0.45130 0.52730
 C183 C 0.00754 0.49843 0.41987
 C184 C -0.02327 0.53051 0.45119
 H185 H 0.12387 0.49763 0.50133
 H186 H -0.03968 0.54442 0.54229
 H187 H 0.00162 0.37128 0.49856
 H188 H 0.00529 0.50163 0.37303
 C189 C 0.54504 -0.04292 0.45700
 C190 C 0.57965 -0.00388 0.49740
 C191 C 0.54872 0.02813 0.52865
 C192 C 0.48605 0.01843 0.51685
 C193 C 0.50569 -0.08067 0.49595
 C194 C 0.47488 -0.04843 0.52718
 C195 C 0.50815 -0.00112 0.41983
 C196 C 0.47731 0.03087 0.45121
 H197 H 0.62447 -0.00218 0.50141
 H198 H 0.46096 0.04466 0.54235
 H199 H 0.50207 -0.12839 0.49815
 H200 H 0.50562 0.00187 0.37299
 C201 C 0.54531 0.45611 -0.04253
 C202 C 0.57986 0.49537 -0.00229
 C203 C 0.54888 0.52758 0.02872
 C204 C 0.48623 0.51782 0.01686
 C205 C 0.50590 0.41857 -0.00352
 C206 C 0.47504 0.45099 0.02746
 C207 C 0.50848 0.49779 -0.07999
 C208 C 0.47760 0.52998 -0.04881
 H209 H 0.62469 0.49726 0.00162
 H210 H 0.46110 0.54417 0.04220
 H211 H 0.50219 0.37085 -0.00118
 H212 H 0.50616 0.50070 -0.12682
 C213 C 0.10397 -0.10553 -0.10485
 C214 C 0.07620 -0.07765 -0.07723
 C215 C 0.10501 0.39437 0.39543
 C216 C 0.07762 0.42228 0.42340
 C217 C 0.60583 -0.10483 0.39509
 C218 C 0.57831 -0.07716 0.42317
 C219 C 0.60633 0.39349 -0.10352
 C220 C 0.57868 0.42155 -0.07596
 C221 C -0.09630 0.10265 -0.10276
 C222 C -0.06406 0.07033 -0.07748
 C223 C -0.09401 0.60321 0.39873
 C224 C -0.06200 0.57062 0.42393
 C225 C 0.40533 0.10225 0.39892
 C226 C 0.43792 0.07028 0.42404
 C227 C 0.40616 0.60203 -0.10109
 C228 C 0.43853 0.56971 -0.07611
 C229 C -0.10117 -0.09973 0.09620
 C230 C -0.06776 -0.07540 0.06469
 C231 C -0.09899 0.39967 0.59741
 C232 C -0.06577 0.42417 0.56582
 C233 C 0.40084 -0.09969 0.59665
 C234 C 0.43444 -0.07548 0.56532
 C235 C 0.40064 0.39985 0.09655
 C236 C 0.43439 0.42407 0.06541
 C237 C 0.09471 0.09827 0.10240
 C238 C 0.07124 0.06692 0.06856
 C239 C 0.09645 0.59800 0.60348
 C240 C 0.07311 0.56655 0.56967
 C241 C 0.59716 0.09750 0.60414
 C242 C 0.57375 0.06640 0.57005
 C243 C 0.59723 0.59826 0.10306
 C244 C 0.57387 0.56655 0.06949
   
