data_POSCAR
  _audit_creation_date              2014-09-24
  _audit_creation_method            'ToBaCCo'
  _symmetry_space_group_name_H-M    'P1'
  _symmetry_Int_Tables_number       1
  _symmetry_cell_setting            triclinic
  loop_
  _symmetry_equiv_pos_as_xyz
 x,y,z
_cell_length_a 48.6463
_cell_length_b 49.0130
_cell_length_c 49.4295
_cell_angle_alpha 90.056700
_cell_angle_beta 90.011800
_cell_angle_gamma 90.326900
loop_
  _atom_site_label
  _atom_site_type_symbol
  _atom_site_fract_x
  _atom_site_fract_y
  _atom_site_fract_z
C1 C 0.06405 0.31156 -0.02578
 C2 C 0.07799 0.31125 -0.00082
 C3 C 0.06410 0.31148 0.02391
 C4 C 0.03510 0.31300 0.02425
 C5 C 0.02030 0.31379 -0.00043
 C6 C 0.03480 0.31438 -0.02546
 C7 C 0.01975 0.32038 -0.04895
 C8 C -0.00873 0.32181 -0.04857
 C9 C -0.02385 0.31706 -0.02474
 C10 C -0.00909 0.31492 -0.00003
 C11 C 0.02064 0.31560 0.04864
 C12 C -0.00784 0.31689 0.04903
 C13 C -0.02345 0.31487 0.02509
 C14 C -0.05279 0.31521 0.02539
 C15 C -0.06672 0.31766 0.00056
 C16 C -0.05314 0.31701 -0.02456
 H17 H 0.02965 0.32570 -0.06775
 H18 H -0.01848 0.32820 -0.06711
 H19 H 0.03119 0.31771 0.06778
 H20 H -0.01707 0.32092 0.06843
 H21 H 0.10015 0.30907 -0.00033
 H22 H -0.08898 0.31738 0.00069
 C23 C 0.55761 0.81183 0.47370
 C24 C 0.57240 0.81189 0.49795
 C25 C 0.55923 0.81240 0.52308
 C26 C 0.53012 0.81313 0.52416
 C27 C 0.51474 0.81322 0.49971
 C28 C 0.52852 0.81277 0.47440
 C29 C 0.51284 0.81342 0.45052
 C30 C 0.48427 0.81304 0.45135
 C31 C 0.47010 0.81293 0.47611
 C32 C 0.48548 0.81308 0.50056
 C33 C 0.51593 0.81295 0.54892
 C34 C 0.48737 0.81305 0.54975
 C35 C 0.47170 0.81242 0.52587
 C36 C 0.44262 0.81127 0.52656
 C37 C 0.42784 0.81124 0.50232
 C38 C 0.44100 0.81186 0.47719
 H39 H 0.52240 0.81423 0.43081
 H40 H 0.47356 0.81264 0.43222
 H41 H 0.52661 0.81249 0.56806
 H42 H 0.47779 0.81363 0.56946
 H43 H 0.59467 0.81078 0.49728
 H44 H 0.40557 0.80991 0.50299
 C45 C 0.94105 0.69857 -0.02551
 C46 C 0.92655 0.69887 -0.00114
 C47 C 0.93999 0.69921 0.02382
 C48 C 0.96909 0.69976 0.02463
 C49 C 0.98429 0.69877 0.00016
 C50 C 0.97018 0.69833 -0.02506
 C51 C 0.98557 0.69934 -0.04904
 C52 C 1.01409 0.70026 -0.04842
 C53 C 1.02856 0.70020 -0.02379
 C54 C 1.01362 0.69971 0.00087
 C55 C 0.98332 0.70335 0.04905
 C56 C 1.01183 0.70471 0.04973
 C57 C 1.02778 0.70163 0.02612
 C58 C 1.05723 0.70286 0.02651
 C59 C 1.07115 0.70395 0.00157
 C60 C 1.05750 0.70231 -0.02320
 H61 H 0.97584 0.70021 -0.06865
 H62 H 1.02454 0.70188 -0.06764
 H63 H 0.97260 0.70643 0.06794
 H64 H 1.02063 0.70978 0.06906
 H65 H 0.90425 0.69892 -0.00163
 H66 H 1.09343 0.70501 0.00112
 C67 C 0.56377 0.19240 0.52613
 C68 C 0.57830 0.19247 0.50172
 C69 C 0.56488 0.19209 0.47671
 C70 C 0.53575 0.19137 0.47591
 C71 C 0.52060 0.19118 0.50051
 C72 C 0.53465 0.19156 0.52570
 C73 C 0.51919 0.19088 0.54972
 C74 C 0.49061 0.19112 0.54915
 C75 C 0.47617 0.19114 0.52452
 C76 C 0.49132 0.19116 0.49993
 C77 C 0.52130 0.19156 0.45129
 C78 C 0.49273 0.19127 0.45072
 C79 C 0.47728 0.19172 0.47474
 C80 C 0.44818 0.19250 0.47431
 C81 C 0.43364 0.19237 0.49870
 C82 C 0.44705 0.19186 0.52372
 H83 H 0.52893 0.19011 0.56934
 H84 H 0.48009 0.19148 0.56838
 H85 H 0.53181 0.19213 0.43206
 H86 H 0.48297 0.19067 0.43109
 H87 H 0.60059 0.19346 0.50219
 H88 H 0.41137 0.19332 0.49822
 C89 C 0.68971 -0.05865 0.02373
 C90 C 0.68778 -0.07202 -0.00140
 C91 C 0.68860 -0.05807 -0.02624
 C92 C 0.68821 -0.02899 -0.02583
 C93 C 0.68990 -0.01478 -0.00080
 C94 C 0.68983 -0.02952 0.02404
 C95 C 0.68742 -0.01456 0.04827
 C96 C 0.68849 0.01372 0.04849
 C97 C 0.69111 0.02862 0.02443
 C98 C 0.69063 0.01442 -0.00057
 C99 C 0.68348 -0.01364 -0.04940
 C100 C 0.68435 0.01467 -0.04915
 C101 C 0.68990 0.02931 -0.02529
 C102 C 0.69214 0.05843 -0.02495
 C103 C 0.69228 0.07173 0.00030
 C104 C 0.69231 0.05743 0.02473
 H105 H 0.68325 -0.02416 0.06744
 H106 H 0.68613 0.02377 0.06782
 H107 H 0.67744 -0.02310 -0.06822
 H108 H 0.67896 0.02470 -0.06780
 H109 H 0.68828 -0.09412 -0.00167
 H110 H 0.69416 0.09376 0.00126
 C111 C 0.20209 0.43851 0.52439
 C112 C 0.20494 0.42525 0.49951
 C113 C 0.20248 0.43923 0.47500
 C114 C 0.19786 0.46774 0.47520
 C115 C 0.19576 0.48172 0.50030
 C116 C 0.19758 0.46703 0.52499
 C117 C 0.19573 0.48141 0.54953
 C118 C 0.19210 0.50952 0.54991
 C119 C 0.19116 0.52465 0.52579
 C120 C 0.19255 0.51058 0.50071
 C121 C 0.19614 0.48279 0.45109
 C122 C 0.19239 0.51088 0.45151
 C123 C 0.19127 0.52533 0.47605
 C124 C 0.18866 0.55411 0.47663
 C125 C 0.18664 0.56755 0.50152
 C126 C 0.18863 0.55344 0.52603
 H127 H 0.19737 0.47125 0.56883
 H128 H 0.18997 0.51918 0.56945
 H129 H 0.19795 0.47317 0.43150
 H130 H 0.19036 0.52105 0.43223
 H131 H 0.20854 0.40342 0.49920
 H132 H 0.18541 0.58964 0.50183
 C133 C 0.28797 0.93749 -0.02415
 C134 C 0.28775 0.92427 0.00108
 C135 C 0.28809 0.93857 0.02547
 C136 C 0.28861 0.96739 0.02525
 C137 C 0.28859 0.98160 0.00026
 C138 C 0.28700 0.96667 -0.02447
 C139 C 0.28138 0.98136 -0.04820
 C140 C 0.28093 1.00963 -0.04840
 C141 C 0.28625 1.02502 -0.02492
 C142 C 0.28841 1.01082 0.00008
 C143 C 0.28688 0.98234 0.04935
 C144 C 0.28649 1.01060 0.04921
 C145 C 0.28864 1.02559 0.02498
 C146 C 0.28823 1.05473 0.02469
 C147 C 0.28631 1.06801 -0.00041
 C148 C 0.28635 1.05410 -0.02525
 H149 H 0.27527 0.97149 -0.06675
 H150 H 0.27447 1.01892 -0.06708
 H151 H 0.28461 0.97240 0.06873
 H152 H 0.28284 1.02006 0.06851
 H153 H 0.28816 0.90217 0.00207
 H154 H 0.28679 1.09011 -0.00069
 C155 C 0.80782 0.44197 0.52503
 C156 C 0.80982 0.42790 0.50047
 C157 C 0.80789 0.44136 0.47559
 C158 C 0.80525 0.47016 0.47510
 C159 C 0.80397 0.48489 0.49982
 C160 C 0.80531 0.47078 0.52486
 C161 C 0.80446 0.48592 0.54902
 C162 C 0.80105 0.51406 0.54872
 C163 C 0.79933 0.52849 0.52423
 C164 C 0.80098 0.51379 0.49949
 C165 C 0.80420 0.48467 0.45061
 C166 C 0.80062 0.51279 0.45027
 C167 C 0.79902 0.52783 0.47443
 C168 C 0.79471 0.55641 0.47431
 C169 C 0.79246 0.57037 0.49887
 C170 C 0.79518 0.55708 0.52372
 H171 H 0.80651 0.47625 0.56855
 H172 H 0.79951 0.52424 0.56805
 H173 H 0.80619 0.47453 0.43130
 H174 H 0.79890 0.52247 0.43073
 H175 H 0.81116 0.40581 0.50071
 H176 H 0.78919 0.59226 0.49862
 O177 O 0.25211 0.20790 0.23378
 O178 O 0.23000 0.26117 0.28134
 O179 O 0.21520 0.24593 0.23282
 O180 O 0.26725 0.22351 0.28206
 O181 O 0.29739 0.25208 0.26405
 O182 O 0.24532 0.27467 0.21508
 O183 O 0.26023 0.28984 0.26362
 O184 O 0.28215 0.23654 0.21573
 Cu185 Cu 0.23811 0.23174 0.25929
 Cu186 Cu 0.27430 0.26616 0.23782
 C187 C 0.27066 0.21322 0.21648
 C188 C 0.24155 0.28446 0.28080
 C189 C 0.22150 0.26398 0.21544
 C190 C 0.29110 0.23417 0.28157
 O191 O 0.75209 0.78956 0.23214
 O192 O 0.77192 0.73707 0.28175
 O193 O 0.78831 0.75092 0.23343
 O194 O 0.73583 0.77587 0.28073
 O195 O 0.70546 0.74727 0.26307
 O196 O 0.75795 0.72247 0.21551
 O197 O 0.74163 0.70855 0.26385
 O198 O 0.72165 0.76105 0.21448
 Cu199 Cu 0.76506 0.76624 0.25880
 Cu200 Cu 0.72860 0.73199 0.23744
 C201 C 0.73369 0.78411 0.21468
 C202 C 0.76001 0.71394 0.28132
 C203 C 0.78200 0.73265 0.21626
 C204 C 0.71183 0.76558 0.28019
 O205 O 0.79792 0.24484 0.23404
 O206 O 0.74600 0.22101 0.28313
 O207 O 0.76036 0.20693 0.23412
 O208 O 0.78335 0.25908 0.28312
 O209 O 0.75339 0.28811 0.26614
 O210 O 0.73036 0.23603 0.21730
 O211 O 0.71604 0.25010 0.26624
 O212 O 0.76791 0.27388 0.21715
 Cu213 Cu 0.77494 0.23007 0.26029
 Cu214 Cu 0.73895 0.26496 0.24001
 C215 C 0.79163 0.26317 0.21702
 C216 C 0.72227 0.23169 0.28320
 C217 C 0.74159 0.21271 0.21724
 C218 C 0.77200 0.28235 0.28318
 O219 O 0.20421 0.75287 0.23959
 O220 O 0.25631 0.77725 0.28820
 O221 O 0.24113 0.79125 0.23956
 O222 O 0.21915 0.73888 0.28841
 O223 O 0.24930 0.71017 0.27115
 O224 O 0.27124 0.76252 0.22223
 O225 O 0.28644 0.74856 0.27086
 O226 O 0.23436 0.72414 0.22235
 Cu227 Cu 0.22717 0.76792 0.26571
 Cu228 Cu 0.26336 0.73344 0.24496
 C229 C 0.21054 0.73460 0.22247
 C230 C 0.28021 0.76697 0.28785
 C231 C 0.25971 0.78570 0.22241
 C232 C 0.23063 0.71568 0.28822
 O233 O 0.78174 0.26204 0.71867
 O234 O 0.75969 0.20980 0.76778
 O235 O 0.74439 0.22404 0.71909
 O236 O 0.79671 0.24821 0.76760
 O237 O 0.76669 0.27713 0.78476
 O238 O 0.71445 0.25291 0.73645
 O239 O 0.72974 0.23869 0.78507
 O240 O 0.75172 0.29091 0.73588
 Cu241 Cu 0.77365 0.23312 0.74156
 Cu242 Cu 0.73766 0.26780 0.76229
 C243 C 0.77025 0.28524 0.71869
 C244 C 0.74115 0.21544 0.78494
 C245 C 0.72061 0.23460 0.71934
 C246 C 0.79048 0.26661 0.78461
 O247 O 0.29013 0.74396 0.73361
 O248 O 0.23727 0.72120 0.78195
 O249 O 0.25205 0.70653 0.73329
 O250 O 0.27512 0.75866 0.78213
 O251 O 0.24580 0.78800 0.76455
 O252 O 0.22274 0.73591 0.71578
 O253 O 0.20796 0.75056 0.76440
 O254 O 0.26080 0.77332 0.71610
 Cu255 Cu 0.26660 0.72961 0.75948
 Cu256 Cu 0.23137 0.76488 0.73841
 C257 C 0.28440 0.76241 0.71655
 C258 C 0.21374 0.73226 0.78161
 C259 C 0.23360 0.71243 0.71611
 C260 C 0.26417 0.78212 0.78181
 O261 O 0.25637 0.28518 0.73326
 O262 O 0.27791 0.23175 0.78093
 O263 O 0.29323 0.24705 0.73266
 O264 O 0.24123 0.26996 0.78170
 O265 O 0.21090 0.24145 0.76387
 O266 O 0.26293 0.21867 0.71455
 O267 O 0.24767 0.20328 0.76286
 O268 O 0.22598 0.25676 0.71536
 Cu269 Cu 0.27022 0.26135 0.75893
 Cu270 Cu 0.23382 0.22720 0.73734
 C271 C 0.23769 0.27997 0.71603
 C272 C 0.26625 0.20851 0.78017
 C273 C 0.28688 0.22913 0.71513
 C274 C 0.21734 0.25939 0.78136
 O275 O 0.74535 0.71210 0.73257
 O276 O 0.72475 0.76460 0.78161
 O277 O 0.70935 0.75100 0.73278
 O278 O 0.76132 0.72619 0.78104
 O279 O 0.79189 0.75458 0.76347
 O280 O 0.73991 0.77961 0.71556
 O281 O 0.75542 0.79314 0.76445
 O282 O 0.77581 0.74057 0.71495
 Cu283 Cu 0.73212 0.73563 0.75875
 Cu284 Cu 0.76883 0.76984 0.73787
 C285 C 0.76387 0.71745 0.71525
 C286 C 0.73671 0.78769 0.78158
 C287 C 0.71589 0.76936 0.71580
 C288 C 0.78541 0.73633 0.78056
 N289 N 0.28182 0.11372 0.06897
 C290 C 0.29353 0.10478 0.09211
 N291 N 0.30401 0.07925 0.09293
 N292 N 0.30250 0.06307 0.07126
 C293 C 0.29011 0.07156 0.04809
 N294 N 0.28031 0.09753 0.04740
 C295 C 0.29346 0.12188 0.11567
 C296 C 0.29204 0.13687 0.13495
 C297 C 0.28875 0.15531 0.15724
 N298 N 0.30174 0.17987 0.15728
 N299 N 0.29658 0.19809 0.17662
 C300 C 0.27816 0.19239 0.19651
 N301 N 0.26536 0.16770 0.19653
 N302 N 0.27054 0.14949 0.17719
 N303 N 0.77024 0.60824 0.57246
 C304 C 0.78978 0.60752 0.59197
 N305 N 0.81107 0.58996 0.58935
 N306 N 0.81269 0.57357 0.56786
 C307 C 0.79295 0.57405 0.54841
 N308 N 0.77185 0.59188 0.55101
 C309 C 0.78793 0.62548 0.61484
 C310 C 0.78548 0.64097 0.63364
 C311 C 0.78148 0.65979 0.65554
 N312 N 0.76295 0.65411 0.67525
 N313 N 0.75778 0.67231 0.69461
 C314 C 0.77093 0.69683 0.69488
 N315 N 0.78960 0.70240 0.67519
 N316 N 0.79477 0.68419 0.65582
 N317 N 0.68937 0.88206 0.06819
 C318 C 0.70202 0.89191 0.09059
 N319 N 0.71057 0.91825 0.09093
 N320 N 0.70636 0.93429 0.06959
 C321 C 0.69323 0.92482 0.04712
 N322 N 0.68520 0.89814 0.04689
 C323 C 0.70682 0.87438 0.11336
 C324 C 0.71088 0.85922 0.13214
 C325 C 0.71584 0.84063 0.15402
 N326 N 0.73480 0.84658 0.17329
 N327 N 0.74016 0.82877 0.19294
 C328 C 0.72674 0.80440 0.19396
 N329 N 0.70768 0.79857 0.17470
 N330 N 0.70232 0.81638 0.15507
 N331 N 0.18723 0.40582 0.59023
 C332 C 0.20913 0.38905 0.59304
 N333 N 0.22863 0.38863 0.57349
 N334 N 0.22643 0.40460 0.55183
 C335 C 0.20475 0.42168 0.54906
 N336 N 0.18503 0.42181 0.56854
 C337 C 0.21160 0.37154 0.61613
 C338 C 0.21448 0.35635 0.63506
 C339 C 0.21884 0.33771 0.65697
 N340 N 0.23774 0.34343 0.67635
 N341 N 0.24329 0.32525 0.69559
 C342 C 0.23015 0.30074 0.69605
 N343 N 0.21109 0.29515 0.67672
 N344 N 0.20555 0.31333 0.65748
 N345 N 0.88823 0.31437 0.07089
 C346 C 0.89843 0.30140 0.09284
 N347 N 0.92495 0.29312 0.09257
 N348 N 0.94080 0.29787 0.07107
 C349 C 0.93095 0.31128 0.04904
 N350 N 0.90412 0.31909 0.04943
 C351 C 0.88104 0.29577 0.11569
 C352 C 0.86601 0.29089 0.13452
 C353 C 0.84760 0.28481 0.15647
 N354 N 0.85442 0.26603 0.17542
 N355 N 0.83679 0.25951 0.19505
 C356 C 0.81173 0.27154 0.19639
 N357 N 0.80503 0.29043 0.17745
 N358 N 0.82266 0.29695 0.15783
 N359 N 0.38846 0.82030 0.57789
 C360 C 0.39474 0.80066 0.59611
 N361 N 0.41710 0.78485 0.59186
 N362 N 0.43276 0.78863 0.57006
 C363 C 0.42668 0.80847 0.55188
 N364 N 0.40411 0.82409 0.55611
 C365 C 0.37695 0.79554 0.61865
 C366 C 0.36146 0.79081 0.63708
 C367 C 0.34243 0.78468 0.65836
 N368 N 0.34853 0.76558 0.67722
 N369 N 0.33018 0.75880 0.69610
 C370 C 0.30512 0.77085 0.69668
 N371 N 0.29913 0.79006 0.67783
 N372 N 0.31748 0.79684 0.65897
 N373 N 0.11555 0.71344 0.07157
 C374 C 0.10587 0.70375 0.09537
 N375 N 0.08012 0.69313 0.09635
 N376 N 0.06443 0.69260 0.07422
 C377 C 0.07363 0.70300 0.05034
 N378 N 0.09983 0.71290 0.04953
 C379 C 0.12243 0.70592 0.11932
 C380 C 0.13688 0.70885 0.13895
 C381 C 0.15471 0.71356 0.16164
 N382 N 0.14774 0.73188 0.18100
 N383 N 0.16527 0.73806 0.20083
 C384 C 0.19039 0.72616 0.20194
 N385 N 0.19722 0.70767 0.18263
 N386 N 0.17969 0.70150 0.16280
 N387 N 0.59021 0.21681 0.59198
 C388 C 0.61221 0.20039 0.59578
 N389 N 0.61803 0.18110 0.57701
 N390 N 0.60226 0.17823 0.55514
 C391 C 0.58003 0.19444 0.55137
 N392 N 0.57444 0.21394 0.57010
 C393 C 0.62995 0.20436 0.61865
 C394 C 0.64522 0.20821 0.63749
 C395 C 0.66379 0.21355 0.65944
 N396 N 0.68881 0.20151 0.66014
 N397 N 0.70673 0.20775 0.67962
 C398 C 0.70023 0.22625 0.69902
 N399 N 0.67508 0.23814 0.69835
 N400 N 0.65717 0.23190 0.67888
 N401 N 0.71044 0.08028 0.90667
 C402 C 0.70517 0.10736 0.90789
 N403 N 0.69547 0.11807 0.93123
 N404 N 0.69100 0.10217 0.95262
 C405 C 0.69580 0.07483 0.95159
 N406 N 0.70594 0.06440 0.92812
 C407 C 0.71048 0.12475 0.88509
 C408 C 0.71506 0.13992 0.86640
 C409 C 0.72075 0.15861 0.84472
 N410 N 0.70795 0.18309 0.84375
 N411 N 0.71411 0.20102 0.82440
 C412 C 0.73330 0.19508 0.80536
 N413 N 0.74600 0.17049 0.80632
 N414 N 0.73984 0.15256 0.82568
 N415 N 0.21403 0.58421 0.41285
 C416 C 0.19631 0.60509 0.40907
 N417 N 0.17576 0.60899 0.42716
 N418 N 0.17294 0.59240 0.44834
 C419 C 0.19048 0.57124 0.45204
 N420 N 0.21123 0.56764 0.43402
 C421 C 0.20021 0.62362 0.38695
 C422 C 0.20422 0.63935 0.36864
 C423 C 0.20982 0.65828 0.34721
 N424 N 0.19713 0.68282 0.34654
 N425 N 0.20342 0.70097 0.32744
 C426 C 0.22265 0.69518 0.30839
 N427 N 0.23523 0.67053 0.30904
 N428 N 0.22893 0.65239 0.32815
 N429 N 0.29944 0.91454 0.90637
 C430 C 0.29125 0.88812 0.90788
 N431 N 0.28263 0.87805 0.93192
 N432 N 0.28185 0.89401 0.95370
 C433 C 0.28928 0.92080 0.95235
 N434 N 0.29866 0.93046 0.92824
 C435 C 0.29011 0.87127 0.88416
 C436 C 0.28791 0.85658 0.86471
 C437 C 0.28383 0.83855 0.84217
 N438 N 0.29627 0.81387 0.84155
 N439 N 0.29056 0.79611 0.82187
 C440 C 0.27214 0.80243 0.80222
 N441 N 0.25988 0.82724 0.80280
 N442 N 0.26561 0.84499 0.82247
 N443 N 0.78412 0.41126 0.41106
 C444 C 0.80232 0.39076 0.40735
 N445 N 0.82258 0.38706 0.42581
 N446 N 0.82465 0.40346 0.44725
 C447 C 0.80665 0.42426 0.45087
 N448 N 0.78618 0.42765 0.43249
 C449 C 0.79935 0.37254 0.38475
 C450 C 0.79613 0.35714 0.36595
 C451 C 0.79135 0.33868 0.34384
 N452 N 0.80416 0.31419 0.34294
 N453 N 0.79847 0.29644 0.32323
 C454 C 0.77977 0.30259 0.30379
 N455 N 0.76712 0.32720 0.30467
 N456 N 0.77281 0.34494 0.32437
 N457 N 0.08380 0.29278 0.90534
 C458 C 0.11132 0.29718 0.90596
 N459 N 0.12300 0.30649 0.92907
 N460 N 0.10765 0.31141 0.95081
 C461 C 0.07990 0.30747 0.95038
 N462 N 0.06847 0.29772 0.92714
 C463 C 0.12812 0.29142 0.88276
 C464 C 0.14291 0.28653 0.86378
 C465 C 0.16128 0.28057 0.84182
 N466 N 0.18642 0.29260 0.84076
 N467 N 0.20408 0.28620 0.82118
 C468 C 0.19721 0.26753 0.80198
 N469 N 0.17195 0.25560 0.80301
 N470 N 0.15428 0.26201 0.82261
 N471 N 0.61128 0.82186 0.42189
 C472 C 0.60471 0.80237 0.40348
 N473 N 0.58246 0.78621 0.40788
 N474 N 0.56715 0.78953 0.42996
 C475 C 0.57347 0.80924 0.44831
 N476 N 0.59597 0.82519 0.44397
 C477 C 0.62197 0.79789 0.38042
 C478 C 0.63692 0.79362 0.36148
 C479 C 0.65528 0.78789 0.33955
 N480 N 0.64834 0.76927 0.32040
 N481 N 0.66615 0.76261 0.30104
 C482 C 0.69149 0.77435 0.30023
 N483 N 0.69830 0.79313 0.31934
 N484 N 0.68049 0.79978 0.33869
 N485 N 0.88944 0.72156 0.92512
 C486 C 0.89276 0.70367 0.90450
 N487 N 0.91212 0.68397 0.90664
 N488 N 0.92775 0.68232 0.92875
 C489 C 0.92465 0.70046 0.94934
 N490 N 0.90503 0.71993 0.94717
 C491 C 0.87574 0.70584 0.88089
 C492 C 0.86081 0.70890 0.86168
 C493 C 0.84242 0.71395 0.83956
 N494 N 0.84934 0.73220 0.82008
 N495 N 0.83136 0.73881 0.80087
 C496 C 0.80582 0.72748 0.80054
 N497 N 0.79902 0.70906 0.81996
 N498 N 0.81700 0.70245 0.83918
 N499 N 0.39383 0.18139 0.42336
 C500 C 0.39975 0.20089 0.40480
 N501 N 0.42186 0.21738 0.40876
 N502 N 0.43764 0.21438 0.43058
 C503 C 0.43195 0.19467 0.44909
 N504 N 0.40961 0.17838 0.44517
 C505 C 0.38198 0.20497 0.38202
 C506 C 0.36666 0.20884 0.36328
 C507 C 0.34797 0.21405 0.34146
 N508 N 0.35467 0.23221 0.32183
 N509 N 0.33671 0.23821 0.30240
 C510 C 0.31145 0.22628 0.30198
 N511 N 0.30486 0.20800 0.32159
 N512 N 0.32283 0.20199 0.34102
 N513 N 0.70798 0.92138 0.90533
 C514 C 0.70110 0.89457 0.90543
 N515 N 0.68978 0.88363 0.92799
 N516 N 0.68537 0.89906 0.94973
 C517 C 0.69186 0.92613 0.94983
 N518 N 0.70354 0.93678 0.92712
 C519 C 0.70654 0.87763 0.88235
 C520 C 0.71121 0.86276 0.86347
 C521 C 0.71685 0.84427 0.84165
 N522 N 0.73641 0.85025 0.82298
 N523 N 0.74246 0.83242 0.80351
 C524 C 0.72917 0.80801 0.80210
 N525 N 0.70953 0.80215 0.82076
 N526 N 0.70348 0.81997 0.84020
 N527 N 0.18902 0.40822 0.40801
 C528 C 0.21118 0.39183 0.40503
 N529 N 0.23041 0.39113 0.42484
 N530 N 0.22768 0.40645 0.44692
 C531 C 0.20572 0.42316 0.44987
 N532 N 0.18628 0.42358 0.43012
 C533 C 0.21414 0.37485 0.38157
 C534 C 0.21734 0.36001 0.36239
 C535 C 0.22198 0.34164 0.34027
 N536 N 0.24107 0.34760 0.32114
 N537 N 0.24685 0.32962 0.30175
 C538 C 0.23378 0.30507 0.30089
 N539 N 0.21455 0.29926 0.31997
 N540 N 0.20877 0.31724 0.33936
 N541 N 0.29847 0.07581 0.90499
 C542 C 0.28931 0.10185 0.90572
 N543 N 0.27957 0.11202 0.92927
 N544 N 0.27872 0.09656 0.95135
 C545 C 0.28724 0.07015 0.95082
 N546 N 0.29762 0.06037 0.92717
 C547 C 0.28879 0.11832 0.88179
 C548 C 0.28721 0.13289 0.86225
 C549 C 0.28397 0.15103 0.83977
 N550 N 0.29736 0.17537 0.83935
 N551 N 0.29230 0.19342 0.81987
 C552 C 0.27362 0.18775 0.80020
 N553 N 0.26042 0.16327 0.80055
 N554 N 0.26548 0.14523 0.82003
 N555 N 0.80892 0.58788 0.40770
 C556 C 0.78728 0.60501 0.40504
 N557 N 0.76806 0.60588 0.42485
 N558 N 0.77031 0.59007 0.44661
 C559 C 0.79176 0.57266 0.44926
 N560 N 0.81117 0.57203 0.42950
 C561 C 0.78488 0.62257 0.38195
 C562 C 0.78208 0.63783 0.36304
 C563 C 0.77784 0.65653 0.34112
 N564 N 0.79113 0.68092 0.34069
 N565 N 0.78585 0.69904 0.32131
 C566 C 0.76706 0.69339 0.30174
 N567 N 0.75389 0.66888 0.30215
 N568 N 0.75918 0.65077 0.32153
 N569 N 0.08840 0.68504 0.91064
 C570 C 0.10700 0.70551 0.90758
 N571 N 0.10936 0.72476 0.92714
 N572 N 0.09348 0.72372 0.94905
 C573 C 0.07456 0.70349 0.95206
 N574 N 0.07250 0.68399 0.93259
 C575 C 0.12407 0.70704 0.88401
 C576 C 0.13886 0.70933 0.86460
 C577 C 0.15699 0.71330 0.84207
 N578 N 0.18168 0.70064 0.84130
 N579 N 0.19952 0.70613 0.82157
 C580 C 0.19326 0.72450 0.80200
 N581 N 0.16842 0.73698 0.80271
 N582 N 0.15059 0.73149 0.82245
 N583 N 0.61766 0.21672 0.42897
 C584 C 0.61530 0.19877 0.40822
 N585 N 0.59638 0.17839 0.40986
 N586 N 0.58020 0.17617 0.43155
 C587 C 0.58227 0.19440 0.45221
 N588 N 0.60151 0.21452 0.45060
 C589 C 0.63267 0.20163 0.38488
 C590 C 0.64766 0.20506 0.36572
 C591 C 0.66593 0.21028 0.34347
 N592 N 0.65919 0.22882 0.32426
 N593 N 0.67693 0.23518 0.30469
 C594 C 0.70205 0.22327 0.30367
 N595 N 0.70868 0.20458 0.32284
 N596 N 0.69093 0.19822 0.34242
 N597 N 0.88737 0.31672 0.93063
 C598 C 0.89783 0.30554 0.90782
 N599 N 0.92468 0.29844 0.90727
 N600 N 0.94060 0.30256 0.92884
 C601 C 0.93047 0.31412 0.95178
 N602 N 0.90333 0.32082 0.95217
 C603 C 0.88037 0.30023 0.88500
 C604 C 0.86531 0.29540 0.86621
 C605 C 0.84687 0.28919 0.84438
 N606 N 0.82184 0.30114 0.84318
 N607 N 0.80407 0.29433 0.82377
 C608 C 0.81074 0.27531 0.80491
 N609 N 0.83589 0.26348 0.80607
 N610 N 0.85366 0.27030 0.82550
 N611 N 0.38824 0.78574 0.43026
 C612 C 0.38973 0.80373 0.40953
 N613 N 0.40812 0.82461 0.41085
 N614 N 0.42463 0.82728 0.43226
 C615 C 0.42340 0.80903 0.45293
 N616 N 0.40471 0.78840 0.45161
 C617 C 0.37194 0.80039 0.38659
 C618 C 0.35653 0.79644 0.36786
 C619 C 0.33775 0.79049 0.34623
 N620 N 0.31244 0.80194 0.34579
 N621 N 0.29425 0.79484 0.32685
 C622 C 0.30074 0.77598 0.30777
 N623 N 0.32616 0.76467 0.30818
 N624 N 0.34434 0.77177 0.32712
 N625 N 0.26714 0.88691 0.07561
 C626 C 0.28556 0.89101 0.09578
 N627 N 0.30498 0.91079 0.09301
 N628 N 0.30581 0.92610 0.07074
 C629 C 0.28712 0.92225 0.05063
 N630 N 0.26796 0.90220 0.05339
 C631 C 0.28428 0.87446 0.11964
 C632 C 0.28213 0.85996 0.13920
 C633 C 0.27830 0.84205 0.16181
 N634 N 0.29142 0.81775 0.16275
 N635 N 0.28603 0.80004 0.18251
 C636 C 0.26727 0.80603 0.20194
 N637 N 0.25432 0.83048 0.20106
 N638 N 0.25972 0.84818 0.18130
 N639 N 0.78342 0.41363 0.59006
 C640 C 0.80123 0.39288 0.59418
 N641 N 0.82148 0.38848 0.57587
 N642 N 0.82392 0.40444 0.55417
 C643 C 0.80630 0.42547 0.55012
 N644 N 0.78585 0.42957 0.56837
 C645 C 0.79782 0.37503 0.61698
 C646 C 0.79434 0.35983 0.63586
 C647 C 0.78944 0.34145 0.65798
 N648 N 0.80241 0.31706 0.65903
 N649 N 0.79672 0.29936 0.67873
 C650 C 0.77785 0.30545 0.69804
 N651 N 0.76501 0.32996 0.69701
 N652 N 0.77071 0.34765 0.67730
 N653 N 0.68471 0.11227 0.07545
 C654 C 0.70368 0.10525 0.09425
 N655 N 0.71860 0.08227 0.09054
 N656 N 0.71460 0.06674 0.06873
 C657 C 0.69543 0.07357 0.04995
 N658 N 0.68071 0.09675 0.05365
 C659 C 0.70890 0.12268 0.11705
 C660 C 0.71364 0.13777 0.13578
 C661 C 0.71972 0.15626 0.15754
 N662 N 0.73909 0.14998 0.17623
 N663 N 0.74572 0.16778 0.19560
 C664 C 0.73322 0.19246 0.19689
 N665 N 0.71375 0.19862 0.17822
 N666 N 0.70712 0.18082 0.15887
 N667 N 0.17645 0.60742 0.57675
 C668 C 0.19695 0.60287 0.59476
 N669 N 0.21433 0.58178 0.59055
 N670 N 0.21126 0.56566 0.56905
 C671 C 0.19059 0.56993 0.55109
 N672 N 0.17338 0.59128 0.55524
 C673 C 0.20125 0.62106 0.61713
 C674 C 0.20559 0.63658 0.63558
 C675 C 0.21155 0.65537 0.65709
 N676 N 0.23046 0.64906 0.67621
 N677 N 0.23715 0.66709 0.69534
 C678 C 0.22518 0.69204 0.69595
 N679 N 0.20615 0.69825 0.67685
 N680 N 0.19946 0.68021 0.65772
 N681 N 0.88523 0.71898 0.07130
 C682 C 0.88972 0.70208 0.09250
 N683 N 0.91073 0.68405 0.09127
 N684 N 0.92685 0.68308 0.06948
 C685 C 0.92261 0.70027 0.04834
 N686 N 0.90133 0.71802 0.04957
 C687 C 0.87253 0.70378 0.11595
 C688 C 0.85757 0.70642 0.13516
 C689 C 0.83922 0.71101 0.15734
 N690 N 0.84604 0.72906 0.17704
 N691 N 0.82801 0.73539 0.19629
 C692 C 0.80254 0.72393 0.19642
 N693 N 0.79584 0.70567 0.17678
 N694 N 0.81388 0.69935 0.15752
 N695 N 0.39403 0.21592 0.57120
 C696 C 0.39602 0.19782 0.59179
 N697 N 0.41490 0.17759 0.59021
 N698 N 0.43136 0.17566 0.56870
 C699 C 0.42961 0.19403 0.54818
 N700 N 0.41045 0.21400 0.54975
 C701 C 0.37823 0.20030 0.61484
 C702 C 0.36285 0.20346 0.63372
 C703 C 0.34413 0.20841 0.65563
 N704 N 0.31881 0.19669 0.65575
 N705 N 0.30072 0.20285 0.67505
 C706 C 0.30733 0.22100 0.69482
 N707 N 0.33276 0.23258 0.69471
 N708 N 0.35084 0.22642 0.67543
 N709 N 0.12026 0.31920 0.07367
 C710 C 0.11327 0.30042 0.09262
 N711 N 0.08995 0.28553 0.08928
 N712 N 0.07403 0.28938 0.06769
 C713 C 0.08080 0.30837 0.04878
 N714 N 0.10434 0.32305 0.05209
 C715 C 0.13101 0.29549 0.11526
 C716 C 0.14627 0.29097 0.13391
 C717 C 0.16490 0.28513 0.15562
 N718 N 0.15811 0.26658 0.17486
 N719 N 0.17598 0.26017 0.19425
 C720 C 0.20124 0.27210 0.19502
 N721 N 0.20791 0.29077 0.17580
 N722 N 0.19004 0.29717 0.15642
 N723 N 0.59131 0.82566 0.58979
 C724 C 0.60957 0.80490 0.59144
 N725 N 0.61141 0.78694 0.57068
 N726 N 0.59535 0.78946 0.54903
 C727 C 0.57675 0.80994 0.54743
 N728 N 0.57523 0.82820 0.56809
 C729 C 0.62674 0.80162 0.61482
 C730 C 0.64157 0.79783 0.63398
 C731 C 0.65973 0.79219 0.65615
 N732 N 0.65260 0.77356 0.67520
 N733 N 0.67028 0.76673 0.69462
 C734 C 0.69571 0.77828 0.69560
 N735 N 0.70271 0.79707 0.67660
 N736 N 0.68503 0.80389 0.65719
   
