data_POSCAR
  _audit_creation_date              2014-09-24
  _audit_creation_method            'ToBaCCo'
  _symmetry_space_group_name_H-M    'P1'
  _symmetry_Int_Tables_number       1
  _symmetry_cell_setting            triclinic
  loop_
  _symmetry_equiv_pos_as_xyz
 x,y,z
_cell_length_a 19.8568
_cell_length_b 32.9831
_cell_length_c 12.9975
_cell_angle_alpha 89.537200
_cell_angle_beta 90.358900
_cell_angle_gamma 90.210100
loop_
  _atom_site_label
  _atom_site_type_symbol
  _atom_site_fract_x
  _atom_site_fract_y
  _atom_site_fract_z
C1 C 0.72139 0.34050 0.58253
 C2 C 0.71405 0.35823 0.48410
 C3 C 0.72620 0.33732 0.39294
 C4 C 0.75252 0.29763 0.39932
 C5 C 0.76637 0.27983 0.49722
 C6 C 0.75116 0.30133 0.58914
 C7 C 0.76341 0.28208 0.68445
 C8 C 0.78940 0.24326 0.69022
 C9 C 0.80464 0.22141 0.60122
 C10 C 0.79287 0.23968 0.50322
 C11 C 0.76577 0.27543 0.31015
 C12 C 0.79116 0.23625 0.31594
 C13 C 0.80566 0.21759 0.41136
 C14 C 0.82961 0.17697 0.41783
 C15 C 0.83966 0.15992 0.51630
 C16 C 0.82725 0.18090 0.60790
 H17 H 0.75257 0.29596 0.75711
 H18 H 0.79533 0.23026 0.76631
 H19 H 0.75653 0.28815 0.23438
 H20 H 0.79767 0.22069 0.24395
 H21 H 0.69696 0.38903 0.47701
 H22 H 0.86487 0.13101 0.52287
 C23 C 0.20043 0.83091 0.60584
 C24 C 0.19835 0.85360 0.51459
 C25 C 0.21488 0.83697 0.41996
 C26 C 0.23592 0.79588 0.41527
 C27 C 0.24080 0.77277 0.50788
 C28 C 0.22284 0.79048 0.60315
 C29 C 0.22773 0.76740 0.69384
 C30 C 0.24989 0.72771 0.69189
 C31 C 0.26909 0.70940 0.59921
 C32 C 0.26284 0.73177 0.50552
 C33 C 0.25262 0.77735 0.32192
 C34 C 0.27262 0.73673 0.31910
 C35 C 0.27854 0.71335 0.40991
 C36 C 0.29953 0.67217 0.40840
 C37 C 0.30695 0.65139 0.50241
 C38 C 0.29235 0.66895 0.59783
 H39 H 0.21507 0.77987 0.76796
 H40 H 0.25040 0.71150 0.76445
 H41 H 0.25028 0.79413 0.25010
 H42 H 0.28340 0.72393 0.24471
 H43 H 0.17858 0.88421 0.51552
 H44 H 0.33118 0.62211 0.50158
 C45 C 0.31802 0.31820 -0.59342
 C46 C 0.33030 0.33734 -0.49927
 C47 C 0.31693 0.31859 -0.40463
 C48 C 0.29227 0.27834 -0.40344
 C49 C 0.28034 0.25780 -0.49767
 C50 C 0.29349 0.27779 -0.59289
 C51 C 0.28200 0.25679 -0.68481
 C52 C 0.25895 0.21689 -0.68394
 C53 C 0.24456 0.19636 -0.59102
 C54 C 0.25584 0.21707 -0.49653
 C55 C 0.27951 0.25809 -0.31034
 C56 C 0.25630 0.21837 -0.30894
 C57 C 0.24303 0.19729 -0.40076
 C58 C 0.21928 0.15667 -0.39911
 C59 C 0.20954 0.13686 -0.49359
 C60 C 0.22113 0.15550 -0.58972
 H61 H 0.29103 0.27090 -0.75888
 H62 H 0.25382 0.20235 -0.75771
 H63 H 0.28759 0.27266 -0.23701
 H64 H 0.25026 0.20436 -0.23416
 H65 H 0.35432 0.36688 -0.49937
 H66 H 0.18340 0.10815 -0.49259
 C67 C -0.31971 0.67684 -0.41106
 C68 C -0.32740 0.65715 -0.50614
 C69 C -0.31998 0.67701 -0.60161
 C70 C -0.30392 0.71894 -0.60206
 C71 C -0.29486 0.73975 -0.50740
 C72 C -0.30231 0.71867 -0.41199
 C73 C -0.28936 0.73970 -0.32014
 C74 C -0.27230 0.78059 -0.32105
 C75 C -0.26739 0.80250 -0.41379
 C76 C -0.27758 0.78180 -0.50819
 C77 C -0.29448 0.74043 -0.69481
 C78 C -0.27806 0.78128 -0.69546
 C79 C -0.26802 0.80262 -0.60345
 C80 C -0.25013 0.84437 -0.60455
 C81 C -0.24926 0.86490 -0.50999
 C82 C -0.25107 0.84431 -0.41507
 H83 H -0.29060 0.72470 -0.24595
 H84 H -0.26292 0.79456 -0.24748
 H85 H -0.29867 0.72604 -0.76891
 H86 H -0.27472 0.79596 -0.76991
 H87 H -0.34853 0.62696 -0.50628
 H88 H -0.24044 0.89708 -0.50778
 N89 N 0.07855 1.06562 -0.10527
 N90 N 0.12512 1.09211 -0.13439
 N91 N -0.06933 1.04695 -0.16606
 N92 N -0.11151 1.05833 -0.23866
 N93 N -0.06114 1.07559 -0.09741
 N94 N -0.09618 1.10818 -0.12488
 N95 N 0.07151 1.03709 -0.17432
 N96 N 0.11397 1.04269 -0.25045
 C97 C 0.14765 1.07663 -0.22424
 C98 C -0.12863 1.09615 -0.21204
 N99 N -0.09409 0.93184 -0.11046
 N100 N -0.13413 0.90336 -0.14881
 N101 N 0.05265 0.95170 -0.18206
 N102 N 0.10203 0.94570 -0.24702
 N103 N 0.04602 0.92085 -0.11874
 N104 N 0.09055 0.89246 -0.13980
 N105 N -0.08781 0.96185 -0.17689
 N106 N -0.12374 0.95462 -0.26016
 Mn107 Mn -0.00805 0.99945 -0.17484
 C108 C -0.15383 0.91876 -0.24109
 C109 C 0.12524 0.90880 -0.21971
 N110 N -0.05358 1.07108 0.12849
 N111 N -0.08749 1.10265 0.16310
 N112 N 0.08450 1.03009 0.18189
 N113 N 0.12713 1.03592 0.25859
 N114 N 0.08578 1.06131 0.11798
 N115 N 0.12862 1.08919 0.15130
 N116 N -0.05589 1.04092 0.19529
 N117 N -0.09272 1.05083 0.27513
 Mn118 Mn 0.01221 1.06886 0.01102
 C119 C -0.11281 1.08906 0.25379
 C120 C 0.15523 1.07240 0.23777
 N121 N 0.05220 0.91545 0.10006
 N122 N 0.08530 0.88146 0.11720
 N123 N -0.07620 0.95505 0.18573
 N124 N -0.12146 0.95178 0.25883
 N125 N -0.08675 0.92783 0.11408
 N126 N -0.13864 0.90439 0.13862
 N127 N 0.06440 0.94199 0.17274
 N128 N 0.10685 0.92635 0.24128
 Mn129 Mn -0.02118 0.92371 -0.00364
 Mn130 Mn 0.00464 0.99192 0.18466
 Cl131 Cl -0.00327 0.99607 0.00476
 C132 C 0.12053 0.88886 0.20390
 C133 C -0.16026 0.92039 0.22851
 N134 N 0.56711 0.54434 0.17518
 N135 N 0.60884 0.55356 0.25047
 N136 N 0.42323 0.57091 0.11161
 N137 N 0.38339 0.60050 0.14206
 N138 N 0.42500 0.54143 0.18042
 N139 N 0.38522 0.55008 0.25824
 N140 N 0.56352 0.57416 0.10762
 N141 N 0.60150 0.60501 0.13768
 C142 C 0.63070 0.59106 0.22572
 C143 C 0.35885 0.58662 0.23259
 N144 N 0.41705 0.54087 -0.17688
 N145 N 0.37378 0.54793 -0.25174
 N146 N 0.55890 0.57478 -0.11710
 N147 N 0.59797 0.60513 -0.14795
 N148 N 0.55891 0.54556 -0.18509
 N149 N 0.59932 0.55458 -0.26187
 N150 N 0.41825 0.57100 -0.11149
 N151 N 0.37661 0.59996 -0.14239
 Mn152 Mn 0.49112 0.57308 -0.00238
 C153 C 0.34812 0.58440 -0.22880
 C154 C 0.62399 0.59143 -0.23746
 N155 N 0.43173 0.45332 0.17941
 N156 N 0.39131 0.44318 0.25551
 N157 N 0.57521 0.42888 0.10520
 N158 N 0.62220 0.40183 0.12802
 N159 N 0.57400 0.45762 0.17459
 N160 N 0.62133 0.45151 0.24454
 N161 N 0.43470 0.42394 0.11177
 N162 N 0.39722 0.39278 0.14152
 Mn163 Mn 0.49922 0.49913 0.17807
 C164 C 0.36940 0.40571 0.23030
 C165 C 0.65141 0.41694 0.21417
 N166 N 0.56508 0.45955 -0.18624
 N167 N 0.59867 0.45137 -0.27011
 N168 N 0.42948 0.42459 -0.11126
 N169 N 0.39331 0.39298 -0.14112
 N170 N 0.42374 0.45448 -0.17810
 N171 N 0.38249 0.44432 -0.25346
 N172 N 0.57002 0.42963 -0.11923
 N173 N 0.60682 0.39999 -0.15795
 Mn174 Mn 0.49102 0.50018 -0.18147
 Mn175 Mn 0.50256 0.42641 -0.00320
 Cl176 Cl 0.49596 0.49969 -0.00195
 C177 C 0.62581 0.41484 -0.25113
 C178 C 0.36300 0.40627 -0.22875
 C179 C 0.33780 0.34031 0.31068
 C180 C 0.33044 0.38062 0.30247
 H181 H 0.36564 0.32422 0.25250
 H182 H 0.30294 0.39673 0.36103
 C183 C -0.22316 0.86342 0.30579
 C184 C -0.21237 0.90347 0.29610
 H185 H -0.20254 0.84449 0.24625
 H186 H -0.23401 0.92482 0.34882
 C187 C 0.66354 0.65563 0.30708
 C188 C 0.66882 0.61521 0.30029
 H189 H 0.64176 0.67178 0.24229
 H190 H 0.69456 0.59806 0.35995
 C191 C 0.20137 1.13456 0.31934
 C192 C 0.19630 1.09385 0.31480
 H193 H 0.18535 1.15176 0.25246
 H194 H 0.21657 1.07501 0.37602
 C195 C 0.69740 0.36164 -0.32957
 C196 C 0.65115 0.39105 -0.33673
 H197 H 0.71425 0.35404 -0.25290
 H198 H 0.62767 0.39899 -0.40917
 C199 C 0.17018 0.84858 -0.30067
 C200 C 0.17556 0.88804 -0.28088
 H201 H 0.13546 0.83005 -0.25647
 H202 H 0.20927 0.90690 -0.32591
 C203 C 0.30854 0.64746 -0.31058
 C204 C 0.30891 0.60695 -0.30551
 H205 H 0.32531 0.66405 -0.24358
 H206 H 0.28782 0.58921 -0.36772
 C207 C -0.15749 1.16142 -0.29708
 C208 C -0.16609 1.12140 -0.28539
 H209 H -0.13564 1.17850 -0.23434
 H210 H -0.19324 1.10469 -0.34410
 C211 C 0.66256 0.65562 -0.31922
 C212 C 0.66396 0.61496 -0.31165
 H213 H 0.64263 0.67230 -0.25493
 H214 H 0.68828 0.59718 -0.37027
 C215 C 0.19727 1.13723 -0.30714
 C216 C 0.19282 1.09677 -0.29740
 H217 H 0.17848 1.15538 -0.24468
 H218 H 0.21492 1.07720 -0.35438
 C219 C 0.33557 0.34086 -0.30923
 C220 C 0.32592 0.38089 -0.30213
 H221 H 0.36393 0.32509 -0.24985
 H222 H 0.29807 0.39664 -0.36214
 C223 C -0.22936 0.86684 -0.32061
 C224 C -0.18024 0.89472 -0.32658
 H225 H -0.25221 0.86058 -0.24683
 H226 H -0.15620 0.90090 -0.39958
 C227 C 0.32211 0.65090 0.31302
 C228 C 0.31772 0.61026 0.30435
 H229 H 0.34986 0.66798 0.25570
 H230 H 0.29018 0.59283 0.36121
 C231 C -0.15117 1.15423 0.32991
 C232 C -0.14830 1.11342 0.33060
 H233 H -0.13556 1.16985 0.26059
 H234 H -0.16879 1.09620 0.39438
 C235 C 0.70101 0.35588 0.29448
 C236 C 0.70177 0.39617 0.27889
 H237 H 0.67150 0.33695 0.24337
 H238 H 0.73100 0.41530 0.32979
 C239 C 0.20312 0.86430 0.33072
 C240 C 0.15492 0.85638 0.26202
 H241 H 0.22074 0.89534 0.33752
 H242 H 0.13477 0.82591 0.25583
   
