data_POSCAR
  _audit_creation_date              2014-09-24
  _audit_creation_method            'ToBaCCo'
  _symmetry_space_group_name_H-M    'P1'
  _symmetry_Int_Tables_number       1
  _symmetry_cell_setting            triclinic
  loop_
  _symmetry_equiv_pos_as_xyz
 x,y,z
_cell_length_a 18.0676
_cell_length_b 18.0230
_cell_length_c 18.1360
_cell_angle_alpha 89.415500
_cell_angle_beta 89.919000
_cell_angle_gamma 90.131700
loop_
  _atom_site_label
  _atom_site_type_symbol
  _atom_site_fract_x
  _atom_site_fract_y
  _atom_site_fract_z
C1 C 0.49495 1.00459 -0.70101
 C2 C 0.42799 1.01205 -0.66177
 C3 C 0.43066 1.01165 -0.58452
 C4 C 0.49847 1.01575 -0.54643
 C5 C 0.56419 1.01742 -0.58843
 C6 C 0.56385 1.00454 -0.66457
 C7 C 0.50110 1.01565 -0.46364
 C8 C 0.56750 0.99952 -0.42593
 C9 C 0.57064 0.99905 -0.34910
 C10 C 0.50583 1.00945 -0.30792
 C11 C 0.43858 1.02372 -0.34400
 C12 C 0.43716 1.02925 -0.42104
 H13 H 0.49326 0.99897 -0.76036
 H14 H 0.37884 1.00640 -0.55528
 H15 H 0.61679 1.02887 -0.56279
 H16 H 0.61779 0.98583 -0.45487
 H17 H 0.50778 1.00671 -0.24823
 H18 H 0.38529 1.04454 -0.44632
 C19 C -0.69972 1.52266 0.00190
 C20 C -0.66998 1.45064 -0.00043
 C21 C -0.59272 1.44282 -0.00362
 C22 C -0.54625 1.50456 -0.01766
 C23 C -0.57942 1.57494 -0.02611
 C24 C -0.65459 1.58490 -0.01129
 C25 C -0.46388 1.49632 -0.02355
 C26 C -0.41695 1.55783 -0.01202
 C27 C -0.34010 1.55213 -0.01972
 C28 C -0.30927 1.48305 -0.03727
 C29 C -0.35391 1.41944 -0.04116
 C30 C -0.43087 1.42686 -0.03704
 H31 H -0.75860 1.53015 0.01092
 H32 H -0.57022 1.38768 0.00129
 H33 H -0.54695 1.62339 -0.04064
 H34 H -0.43908 1.61033 0.00575
 H35 H -0.24979 1.47759 -0.04269
 H36 H -0.46363 1.37718 -0.04245
 C37 C -0.06104 0.31054 0.49825
 C38 C -0.03463 0.34275 0.43149
 C39 C -0.01736 0.41922 0.43243
 C40 C -0.02629 0.46197 0.49703
 C41 C -0.04680 0.42545 0.56293
 C42 C -0.05906 0.34942 0.56446
 C43 C -0.01277 0.54390 0.49628
 C44 C 0.00279 0.58268 0.56178
 C45 C 0.00480 0.66066 0.56311
 C46 C 0.00326 0.69953 0.49540
 C47 C -0.00866 0.66156 0.42943
 C48 C -0.01904 0.58487 0.43037
 H49 H -0.07961 0.25355 0.50109
 H50 H 0.00689 0.44470 0.38401
 H51 H -0.05074 0.45434 0.61464
 H52 H 0.01294 0.55315 0.61289
 H53 H 0.00724 0.75955 0.49388
 H54 H -0.03273 0.55820 0.37900
 O55 O -0.18817 0.97988 -0.10937
 O56 O 0.19163 1.02441 -0.09931
 O57 O -0.01130 1.10186 -0.19516
 O58 O 0.01448 0.90542 -0.19635
 O59 O 0.02348 0.81329 -0.10770
 O60 O -0.02684 1.19097 -0.10563
 O61 O 0.10533 1.01467 -0.19238
 O62 O -0.09692 0.99550 -0.19765
 Zr63 Zr 0.00219 1.00311 -0.13530
 O64 O 0.07529 0.94259 -0.07201
 O65 O -0.07339 1.06116 -0.07296
 C66 C -0.16520 0.98582 -0.17686
 C67 C 0.17264 1.02333 -0.16791
 C68 C -0.02244 1.16914 -0.17389
 C69 C 0.02042 0.83663 -0.17578
 H70 H 0.08643 1.11256 -0.10058
 O71 O 0.05848 1.07668 -0.06981
 H72 H -0.08615 0.89296 -0.10565
 O73 O -0.05871 0.92789 -0.07409
 O74 O 0.18662 1.02188 0.09576
 O75 O -0.19295 0.97744 0.08854
 O76 O 0.07489 1.20358 0.00072
 O77 O 0.11759 0.82163 -0.00503
 O78 O -0.07710 0.79853 -0.00671
 O79 O -0.12115 1.17915 -0.00967
 O80 O -0.00734 1.09432 0.18387
 O81 O -0.00137 0.90138 0.18424
 O82 O -0.02778 1.18822 0.10077
 O83 O 0.01214 0.81173 0.09549
 O84 O 0.17555 1.12481 0.00036
 O85 O -0.20225 1.08006 -0.01351
 O86 O -0.17762 0.87649 -0.00380
 O87 O 0.19886 0.92087 -0.00413
 O88 O 0.09643 1.00719 0.18488
 O89 O -0.10597 0.98964 0.18022
 Zr90 Zr 0.12831 1.01610 -0.00318
 Zr91 Zr -0.13094 0.98569 -0.00884
 Zr92 Zr -0.01624 1.13145 -0.00367
 Zr93 Zr 0.01327 0.87136 -0.00669
 Zr94 Zr -0.00349 0.99879 0.12261
 O95 O -0.06194 0.92531 0.05890
 O96 O 0.05728 1.07518 0.06327
 C97 C 0.16484 1.01585 0.16342
 C98 C -0.17371 0.98252 0.15707
 C99 C 0.14533 1.19054 -0.00025
 C100 C 0.18322 0.85013 -0.00411
 C101 C -0.14733 0.81069 -0.00237
 C102 C -0.18684 1.15079 -0.01346
 C103 C -0.02243 1.16206 0.16839
 C104 C 0.00338 0.83372 0.16311
 H105 H -0.11212 1.08652 0.08986
 O106 O -0.07667 1.05860 0.05936
 H107 H 0.10430 0.91165 0.09362
 O108 O 0.07118 0.94071 0.06118
 C109 C 0.30113 1.06590 0.31757
 C110 C 0.35922 1.01455 0.30064
 C111 C 0.34851 0.96508 0.24242
 C112 C 0.28385 0.96522 0.20181
 C113 C 0.22564 1.01351 0.21781
 C114 C 0.23353 1.06434 0.27624
 C115 C 0.31088 1.12346 0.36929
 C116 C 0.25497 1.17477 0.38271
 C117 C 0.18895 1.17166 0.34371
 C118 C 0.17813 1.11733 0.29075
 H119 H 0.36245 1.13180 0.39797
 H120 H 0.26362 1.21833 0.42247
 H121 H 0.14677 1.21296 0.35309
 H122 H 0.12682 1.11855 0.26025
 H123 H 0.39040 0.92474 0.22816
 H124 H 0.28038 0.92831 0.15533
 C125 C -0.30639 0.95435 0.32260
 C126 C -0.36875 0.99583 0.29565
 C127 C -0.36248 1.03117 0.22663
 C128 C -0.29842 1.02668 0.18512
 C129 C -0.23627 0.98754 0.21021
 C130 C -0.23873 0.95318 0.28102
 C131 C -0.31097 0.90918 0.38686
 C132 C -0.24916 0.87211 0.41431
 C133 C -0.18207 0.87647 0.37717
 C134 C -0.17707 0.91497 0.31042
 H135 H -0.36246 0.90008 0.41583
 H136 H -0.25359 0.83904 0.46430
 H137 H -0.13423 0.84750 0.39878
 H138 H -0.12459 0.91287 0.28240
 H139 H -0.40680 1.06524 0.20480
 H140 H -0.29741 1.05536 0.13228
 C141 C -0.33607 0.92091 -0.27908
 C142 C -0.35701 0.98885 -0.31251
 C143 C -0.30728 1.04868 -0.31298
 C144 C -0.24158 1.04516 -0.27295
 C145 C -0.22306 0.98078 -0.23357
 C146 C -0.26793 0.91659 -0.24001
 C147 C -0.38081 0.85696 -0.28451
 C148 C -0.35765 0.78959 -0.25400
 C149 C -0.29014 0.78491 -0.21737
 C150 C -0.24591 0.84789 -0.20935
 H151 H -0.43308 0.85818 -0.31357
 H152 H -0.39192 0.74061 -0.25938
 H153 H -0.27214 0.73218 -0.19491
 H154 H -0.19373 0.84204 -0.18063
 H155 H -0.32171 1.10017 -0.34073
 H156 H -0.20738 1.09445 -0.26898
 C157 C 0.35544 1.08925 -0.25223
 C158 C 0.36840 1.03075 -0.30203
 C159 C 0.31269 0.97772 -0.31371
 C160 C 0.24679 0.97900 -0.27357
 C161 C 0.23451 1.03354 -0.22070
 C162 C 0.28791 1.09091 -0.21157
 C163 C 0.40748 1.14702 -0.24301
 C164 C 0.39336 1.20509 -0.19483
 C165 C 0.32720 1.20724 -0.15572
 C166 C 0.27475 1.15112 -0.16407
 H167 H 0.45888 1.14847 -0.27362
 H168 H 0.43347 1.24923 -0.18846
 H169 H 0.31623 1.25315 -0.11941
 H170 H 0.22297 1.15657 -0.13494
 H171 H 0.32146 0.93334 -0.35260
 H172 H 0.20689 0.93480 -0.28106
 C173 C 0.22529 1.38106 -0.05595
 C174 C 0.28375 1.38717 -0.00354
 C175 C 0.29888 1.32589 0.04286
 C176 C 0.25467 1.26230 0.04222
 C177 C 0.19415 1.25695 -0.00539
 C178 C 0.18032 1.31580 -0.05658
 C179 C 0.21437 1.43532 -0.11215
 C180 C 0.15784 1.42839 -0.16359
 C181 C 0.11302 1.36596 -0.16286
 C182 C 0.12527 1.30944 -0.11147
 H183 H 0.25045 1.48263 -0.11912
 H184 H 0.14994 1.47092 -0.20541
 H185 H 0.06994 1.36046 -0.20376
 H186 H 0.09284 1.25988 -0.11718
 H187 H 0.34377 1.32823 0.08233
 H188 H 0.26670 1.21761 0.08076
 C189 C 0.29220 0.68442 0.06357
 C190 C 0.31656 0.65677 -0.00517
 C191 C 0.31128 0.70208 -0.06837
 C192 C 0.27378 0.76972 -0.06596
 C193 C 0.24295 0.79480 0.00012
 C194 C 0.25499 0.75380 0.06614
 C195 C 0.30630 0.64560 0.13024
 C196 C 0.28513 0.67504 0.19770
 C197 C 0.24823 0.74251 0.20009
 C198 C 0.23091 0.78051 0.13494
 H199 H 0.33590 0.59347 0.13106
 H200 H 0.29792 0.64562 0.24842
 H201 H 0.23374 0.76559 0.25295
 H202 H 0.20064 0.83190 0.13898
 H203 H 0.33147 0.68254 -0.12101
 H204 H 0.26428 0.80010 -0.11693
 C205 C -0.22782 0.61468 0.03799
 C206 C -0.29207 0.61822 -0.00661
 C207 C -0.31059 0.68588 -0.04056
 C208 C -0.26497 0.74791 -0.03439
 C209 C -0.19650 0.74374 0.00161
 C210 C -0.17719 0.67564 0.03849
 C211 C -0.21404 0.55239 0.08400
 C212 C -0.14870 0.54635 0.12393
 C213 C -0.09642 0.60259 0.11990
 C214 C -0.11049 0.66642 0.07832
 H215 H -0.25429 0.50849 0.09101
 H216 H -0.13877 0.49799 0.15838
 H217 H -0.04554 0.59790 0.15108
 H218 H -0.06912 0.70849 0.08122
 H219 H -0.36039 0.69058 -0.07347
 H220 H -0.28198 0.79898 -0.06123
 C221 C -0.33380 1.28548 -0.08422
 C222 C -0.31947 1.34475 -0.03514
 C223 C -0.27371 1.33213 0.02584
 C224 C -0.23784 1.26499 0.03579
 C225 C -0.24632 1.20717 -0.01460
 C226 C -0.29821 1.21535 -0.07276
 C227 C -0.38095 1.29470 -0.14553
 C228 C -0.39759 1.23499 -0.19081
 C229 C -0.36641 1.16578 -0.17698
 C230 C -0.31510 1.15633 -0.12028
 H231 H -0.40562 1.34774 -0.15888
 H232 H -0.43521 1.24232 -0.23667
 H233 H -0.38222 1.11927 -0.21049
 H234 H -0.29095 1.10204 -0.11283
 H235 H -0.26417 1.37547 0.06567
 H236 H -0.19935 1.25961 0.08136
 C237 C -0.01424 1.22104 0.37018
 C238 C -0.02527 1.29905 0.36624
 C239 C -0.03290 1.33094 0.29472
 C240 C -0.03269 1.28709 0.23087
 C241 C -0.03250 1.20937 0.23604
 C242 C -0.03198 1.17672 0.30869
 C243 C 0.01635 1.18524 0.43295
 C244 C 0.01071 1.10865 0.44222
 C245 C -0.02544 1.06705 0.38921
 C246 C -0.04737 1.10081 0.32332
 H247 H 0.04357 1.21644 0.47564
 H248 H 0.03150 1.08222 0.49186
 H249 H -0.03507 1.00834 0.39829
 H250 H -0.07768 1.06720 0.28515
 H251 H -0.04083 1.38996 0.28714
 H252 H -0.03436 1.31417 0.17732
 C253 C 0.02331 1.27805 -0.34895
 C254 C -0.04728 1.30823 -0.36542
 C255 C -0.10522 1.29970 -0.31458
 C256 C -0.09508 1.25850 -0.24953
 C257 C -0.02704 1.22432 -0.23438
 C258 C 0.03305 1.23443 -0.28399
 C259 C 0.08477 1.29047 -0.39598
 C260 C 0.15323 1.25862 -0.38070
 C261 C 0.16233 1.21464 -0.31810
 C262 C 0.10323 1.20278 -0.26988
 H263 H 0.08081 1.32497 -0.44493
 H264 H 0.19950 1.26824 -0.41760
 H265 H 0.21574 1.19030 -0.30670
 H266 H 0.11346 1.16977 -0.22098
 H267 H -0.15894 1.32366 -0.32613
 H268 H -0.14163 1.25019 -0.21258
 C269 C -0.03864 0.68159 -0.30739
 C270 C 0.00812 0.69912 -0.36907
 C271 C 0.05841 0.75825 -0.36277
 C272 C 0.06440 0.79836 -0.29801
 C273 C 0.02031 0.78186 -0.23643
 C274 C -0.03136 0.72234 -0.24036
 C275 C -0.09742 0.62960 -0.31272
 C276 C -0.14298 0.61345 -0.25265
 C277 C -0.13343 0.65051 -0.18673
 C278 C -0.07952 0.70537 -0.18095
 H279 H -0.11106 0.60245 -0.36367
 H280 H -0.18696 0.57293 -0.25779
 H281 H -0.16954 0.63834 -0.14044
 H282 H -0.07741 0.73452 -0.12972
 H283 H 0.09475 0.77311 -0.40818
 H284 H 0.10313 0.84430 -0.29653
 C285 C -0.07485 0.71217 0.31657
 C286 C -0.00938 0.70174 0.35836
 C287 C 0.05797 0.72975 0.33210
 C288 C 0.06133 0.76822 0.26553
 C289 C -0.00197 0.77915 0.22302
 C290 C -0.07130 0.75286 0.24902
 C291 C -0.14417 0.68600 0.34192
 C292 C -0.20849 0.70011 0.30169
 C293 C -0.20524 0.74168 0.23664
 C294 C -0.13753 0.76875 0.21090
 H295 H -0.14945 0.65550 0.39334
 H296 H -0.26129 0.67983 0.32179
 H297 H -0.25545 0.75358 0.20630
 H298 H -0.13742 0.80189 0.16082
 H299 H 0.10816 0.72280 0.36408
 H300 H 0.11281 0.79365 0.24880
   
