data_POSCAR
  _audit_creation_date              2014-09-24
  _audit_creation_method            'ToBaCCo'
  _symmetry_space_group_name_H-M    'P1'
  _symmetry_Int_Tables_number       1
  _symmetry_cell_setting            triclinic
  loop_
  _symmetry_equiv_pos_as_xyz
 x,y,z
_cell_length_a 28.9119
_cell_length_b 28.8582
_cell_length_c 29.1518
_cell_angle_alpha 89.485000
_cell_angle_beta 89.805000
_cell_angle_gamma 89.930400
loop_
  _atom_site_label
  _atom_site_type_symbol
  _atom_site_fract_x
  _atom_site_fract_y
  _atom_site_fract_z
C1 C 0.35087 0.35116 1.41021
 C2 C 0.31216 0.37069 1.43183
 C3 C 0.28897 0.40916 1.41241
 C4 C 0.30486 0.42687 1.36989
 C5 C 0.34368 0.40786 1.34805
 C6 C 0.36703 0.37004 1.36845
 C7 C 0.37303 0.31236 1.42937
 C8 C 0.41187 0.29228 1.40787
 C9 C 0.42797 0.31179 1.36627
 C10 C 0.40569 0.35020 1.34636
 C11 C 0.42024 0.36791 1.30374
 C12 C 0.39620 0.40463 1.28270
 C13 C 0.35854 0.42503 1.30529
 H14 H 0.30070 0.35638 1.46444
 H15 H 0.28588 0.45436 1.35271
 H16 H 0.36021 0.29792 1.46145
 H17 H 0.45623 0.29546 1.34793
 H18 H 0.44939 0.35233 1.28612
 H19 H 0.34010 0.45337 1.28886
 C20 C 1.15180 0.65455 0.90330
 C21 C 1.19170 0.63543 0.92315
 C22 C 1.21350 0.59648 0.90382
 C23 C 1.19525 0.57782 0.86314
 C24 C 1.15504 0.59623 0.84328
 C25 C 1.13303 0.63462 0.86357
 C26 C 1.13086 0.69382 0.92222
 C27 C 1.09051 0.71314 0.90278
 C28 C 1.07186 0.69267 0.86322
 C29 C 1.09283 0.65369 0.84354
 C30 C 1.07488 0.63411 0.80351
 C31 C 1.09657 0.59578 0.78330
 C32 C 1.13678 0.57719 0.80312
 H33 H 1.20672 0.65187 0.95290
 H34 H 1.21165 0.54800 0.84755
 H35 H 1.14559 0.70898 0.95278
 H36 H 1.04215 0.70830 0.84652
 H37 H 1.04417 0.64877 0.78777
 H38 H 1.15396 0.54816 0.78692
 C39 C 0.65398 -0.15848 0.09803
 C40 C 0.69685 -0.14265 0.08150
 C41 C 0.71856 -0.10458 0.10179
 C42 C 0.69649 -0.08108 0.13768
 C43 C 0.65375 -0.09656 0.15464
 C44 C 0.63236 -0.13551 0.13483
 C45 C 0.63315 -0.19774 0.07922
 C46 C 0.59060 -0.21466 0.09630
 C47 C 0.56963 -0.19169 0.13351
 C48 C 0.59014 -0.15233 0.15277
 C49 C 0.57005 -0.13052 0.19083
 C50 C 0.59144 -0.09196 0.21075
 C51 C 0.63302 -0.07494 0.19231
 H52 H 0.71410 -0.16070 0.05381
 H53 H 0.71341 -0.05160 0.15317
 H54 H 0.64992 -0.21488 0.05067
 H55 H 0.53832 -0.20562 0.14885
 H56 H 0.53828 -0.14396 0.20565
 H57 H 0.64999 -0.04586 0.20847
 C58 C -0.14858 1.15343 -0.40553
 C59 C -0.18536 1.13295 -0.42915
 C60 C -0.20791 1.09322 -0.41148
 C61 C -0.19256 1.07446 -0.36928
 C62 C -0.15567 1.09441 -0.34546
 C63 C -0.13379 1.13428 -0.36341
 C64 C -0.12708 1.19347 -0.42286
 C65 C -0.09119 1.21472 -0.39851
 C66 C -0.07674 1.19577 -0.35642
 C67 C -0.09780 1.15563 -0.33870
 C68 C -0.08432 1.13715 -0.29615
 C69 C -0.10635 1.09768 -0.27794
 C70 C -0.14131 1.07594 -0.30317
 H71 H -0.19612 1.14784 -0.46168
 H72 H -0.21092 1.04572 -0.35347
 H73 H -0.13860 1.20865 -0.45502
 H74 H -0.04970 1.21286 -0.33723
 H75 H -0.05718 1.15382 -0.27674
 H76 H -0.15778 1.04506 -0.28937
 C77 C 0.64927 0.65165 0.58940
 C78 C 0.68887 0.63239 0.56923
 C79 C 0.70955 0.59269 0.58829
 C80 C 0.69048 0.57214 0.62784
 C81 C 0.65086 0.59099 0.64838
 C82 C 0.63004 0.63088 0.62904
 C83 C 0.62941 0.69207 0.57123
 C84 C 0.58986 0.71201 0.59152
 C85 C 0.57101 0.69102 0.63125
 C86 C 0.59085 0.65078 0.65012
 C87 C 0.57304 0.63091 0.69056
 C88 C 0.59380 0.59137 0.70996
 C89 C 0.63261 0.57154 0.68875
 H90 H 0.70441 0.64882 0.53935
 H91 H 0.70708 0.54197 0.64296
 H92 H 0.64442 0.70770 0.54066
 H93 H 0.54206 0.70717 0.64868
 H94 H 0.54340 0.64643 0.70740
 H95 H 0.64909 0.54155 0.70435
 C96 C 0.84877 0.34672 0.09348
 C97 C 0.80885 0.36566 0.07342
 C98 C 0.78764 0.40568 0.09153
 C99 C 0.80684 0.42553 0.13127
 C100 C 0.84688 0.40716 0.15145
 C101 C 0.86785 0.36750 0.13259
 C102 C 0.86955 0.30694 0.07523
 C103 C 0.91005 0.28786 0.09476
 C104 C 0.92807 0.30859 0.13457
 C105 C 0.90734 0.34805 0.15346
 C106 C 0.92535 0.36814 0.19319
 C107 C 0.90531 0.40832 0.21162
 C108 C 0.86584 0.42743 0.19072
 H109 H 0.79504 0.34981 0.04281
 H110 H 0.78965 0.45439 0.14770
 H111 H 0.85309 0.28992 0.04660
 H112 H 0.95916 0.29483 0.15033
 H113 H 0.95489 0.35239 0.21007
 H114 H 0.84988 0.45803 0.20522
 C115 C 0.35147 0.15038 0.90510
 C116 C 0.31206 0.13079 0.92564
 C117 C 0.29083 0.09112 0.90707
 C118 C 0.30996 0.07182 0.86688
 C119 C 0.34965 0.09073 0.84631
 C120 C 0.37034 0.13035 0.86525
 C121 C 0.37180 0.19030 0.92329
 C122 C 0.41059 0.21044 0.90201
 C123 C 0.42905 0.19064 0.86215
 C124 C 0.40923 0.15066 0.84366
 C125 C 0.42699 0.13128 0.80337
 C126 C 0.40721 0.09112 0.78492
 C127 C 0.36833 0.07124 0.80638
 H128 H 0.29834 0.14616 0.95664
 H129 H 0.29280 0.04317 0.85023
 H130 H 0.35721 0.20620 0.95364
 H131 H 0.45837 0.20691 0.84524
 H132 H 0.45606 0.14757 0.78604
 H133 H 0.35257 0.04069 0.79177
 C134 C 0.15118 0.85051 0.41196
 C135 C 0.19138 0.86751 0.43262
 C136 C 0.21584 0.90444 0.41245
 C137 C 0.19772 0.92706 0.37367
 C138 C 0.15719 0.91088 0.35305
 C139 C 0.13417 0.87195 0.37177
 C140 C 0.12917 0.81098 0.42957
 C141 C 0.09000 0.79230 0.40783
 C142 C 0.07329 0.81401 0.36762
 C143 C 0.09527 0.85343 0.34933
 C144 C 0.08062 0.87310 0.30761
 C145 C 0.10414 0.91123 0.28837
 C146 C 0.14097 0.93124 0.31241
 H147 H 0.20511 0.85059 0.46304
 H148 H 0.21655 0.95575 0.35827
 H149 H 0.14266 0.79457 0.46036
 H150 H 0.04480 0.79869 0.34904
 H151 H 0.05193 0.85785 0.28926
 H152 H 0.15853 0.96124 0.29804
 Zn153 Zn 0.01705 1.05222 -0.03016
 Zn154 Zn -0.02600 1.01576 0.05592
 Zn155 Zn -0.03663 0.96350 -0.03194
 Zn156 Zn 0.05455 0.96780 0.01488
 O157 O 0.00207 0.99984 0.00207
 O158 O -0.00127 1.10409 -0.00197
 O159 O -0.08049 0.98764 0.06325
 O160 O -0.05352 0.99088 -0.08490
 O161 O -0.03715 1.07661 0.05959
 O162 O -0.01103 1.05481 -0.08447
 O163 O -0.08901 0.94930 -0.00168
 O164 O 0.05435 0.91101 -0.00814
 O165 O 0.00700 1.00003 0.10595
 O166 O -0.01117 0.90858 -0.04670
 O167 O 0.06450 0.96111 0.07462
 O168 O 0.10536 0.99461 -0.00783
 O169 O 0.07783 1.05739 -0.04194
 C170 C -0.02551 1.11037 0.03383
 C171 C -0.10320 0.96027 0.03804
 C172 C -0.04044 1.02870 -0.10337
 C173 C 0.02628 0.88964 -0.03369
 C174 C 0.04404 0.97664 0.10975
 C175 C 0.11151 1.03104 -0.03165
 Zn176 Zn 0.47150 0.01922 0.44672
 Zn177 Zn 0.46775 -0.03317 0.53574
 Zn178 Zn 0.55545 -0.02906 0.48167
 Zn179 Zn 0.52106 0.05545 0.52862
 O180 O 0.50386 0.00314 0.49823
 O181 O 0.41502 -0.00567 0.44591
 O182 O 0.49306 -0.08876 0.54763
 O183 O 0.56058 -0.03617 0.42119
 O184 O 0.41258 -0.04561 0.51118
 O185 O 0.49860 0.00003 0.39467
 O186 O 0.55636 -0.08632 0.50512
 O187 O 0.58231 0.05966 0.53615
 O188 O 0.45646 -0.00713 0.59019
 O189 O 0.60792 -0.00267 0.50058
 O190 O 0.49720 0.05778 0.58524
 O191 O 0.50238 0.10775 0.50033
 O192 O 0.46351 0.08038 0.44101
 C193 C 0.39439 -0.03271 0.47366
 C194 C 0.52927 -0.10796 0.53208
 C195 C 0.53533 -0.02312 0.38802
 C196 C 0.61530 0.03337 0.52402
 C197 C 0.47082 0.03043 0.60734
 C198 C 0.47794 0.11404 0.46470
 Zn199 Zn 0.94850 0.47017 0.48306
 Zn200 Zn 1.03715 0.46663 0.53564
 Zn201 Zn 1.03188 0.51776 0.44585
 Zn202 Zn 0.98395 0.55542 0.52774
 O203 O 1.00046 0.50242 0.49817
 O204 O 0.94690 0.41423 0.50927
 O205 O 1.09336 0.45620 0.51126
 O206 O 1.00475 0.49676 0.39499
 O207 O 1.01236 0.41077 0.54820
 O208 O 0.94380 0.46004 0.42274
 O209 O 1.08914 0.49482 0.44537
 O210 O 1.00255 0.60705 0.49871
 O211 O 1.04731 0.49309 0.59025
 O212 O 1.03889 0.57880 0.43814
 O213 O 1.00777 0.55854 0.58403
 O214 O 0.92300 0.56085 0.53493
 O215 O 0.89610 0.49825 0.50092
 C216 C 0.97465 0.39256 0.53538
 C217 C 1.11153 0.47022 0.47392
 C218 C 0.96912 0.47201 0.38898
 C219 C 1.02551 0.61281 0.46199
 C220 C 1.03330 0.53112 0.60693
 C221 C 0.88946 0.53562 0.52263
 Zn222 Zn 0.51459 0.44579 1.02899
 Zn223 Zn 0.46924 0.48470 0.94571
 Zn224 Zn 0.46199 0.53533 1.03462
 Zn225 Zn 0.55206 0.53069 0.98393
 O226 O 0.49938 0.49918 0.99844
 O227 O 0.49776 0.39444 0.99908
 O228 O 0.41251 0.50856 0.94347
 O229 O 0.44749 0.50746 1.08838
 O230 O 0.46227 0.42388 0.93840
 O231 O 0.48613 0.44135 1.08306
 O232 O 0.40735 0.54817 1.00780
 O233 O 0.55283 0.58726 1.00790
 O234 O 0.49808 0.50512 0.89510
 O235 O 0.48777 0.59043 1.04786
 O236 O 0.56026 0.53867 0.92349
 O237 O 0.60310 0.50297 1.00523
 O238 O 0.57531 0.44088 1.04056
 C239 C 0.47553 0.38927 0.96202
 C240 C 0.38983 0.53438 0.97043
 C241 C 0.45855 0.46785 1.10431
 C242 C 0.52523 0.60891 1.03404
 C243 C 0.53583 0.52677 0.88951
 C244 C 0.60911 0.46679 1.02951
 C245 C 1.17228 0.41073 0.46619
 C246 C 1.21566 0.39584 0.45161
 C247 C 1.24837 0.42719 0.43327
 C248 C 1.23776 0.47552 0.43437
 C249 C 1.19306 0.49045 0.44841
 C250 C 1.15974 0.45740 0.46296
 C251 C 1.18380 0.53838 0.44932
 N252 N 1.21742 0.56915 0.43808
 N253 N 1.25979 0.55536 0.42660
 C254 C 1.27126 0.50985 0.42496
 H255 H 1.14740 0.38514 0.47794
 H256 H 1.22209 0.35886 0.45174
 H257 H 1.15069 0.55189 0.46012
 H258 H 1.30686 0.50114 0.41767
 C259 C 0.33488 0.55588 0.90951
 C260 C 0.29204 0.56975 0.89301
 C261 C 0.25487 0.57844 0.92285
 C262 C 0.26100 0.56953 0.97072
 C263 C 0.30495 0.55479 0.98757
 C264 C 0.34258 0.54913 0.95653
 C265 C 0.30879 0.54388 1.03465
 N266 N 0.27153 0.54761 1.06267
 N267 N 0.23038 0.56062 1.04687
 C268 C 0.22369 0.57106 1.00200
 H269 H 0.36275 0.55125 0.88501
 H270 H 0.28886 0.57610 0.85645
 H271 H 0.34035 0.53100 1.04962
 H272 H 0.18886 0.57889 0.99118
 C273 C -0.18596 0.94249 0.02657
 C274 C -0.22902 0.92713 0.04200
 C275 C -0.23461 0.90966 0.08663
 C276 C -0.19560 0.90586 0.11577
 C277 C -0.15171 0.92142 0.10010
 C278 C -0.14728 0.94094 0.05540
 C279 C -0.11343 0.91539 0.12937
 N280 N -0.11918 0.89598 0.17152
 N281 N -0.16043 0.88172 0.18629
 C282 C -0.19872 0.88575 0.15985
 H283 H -0.18306 0.95678 -0.00782
 H284 H -0.25845 0.92967 0.01919
 H285 H -0.07879 0.92491 0.11904
 H286 H -0.23101 0.87255 0.17337
 C287 C 0.67554 0.09236 0.53575
 C288 C 0.71893 0.10703 0.54993
 C289 C 0.75199 0.07540 0.56685
 C290 C 0.74138 0.02714 0.56530
 C291 C 0.69630 0.01234 0.55262
 C292 C 0.66313 0.04553 0.53758
 C293 C 0.68603 -0.03531 0.55637
 N294 N 0.71977 -0.06607 0.56730
 N295 N 0.76299 -0.05255 0.57505
 C296 C 0.77501 -0.00720 0.57402
 H297 H 0.65092 0.11822 0.52410
 H298 H 0.72515 0.14402 0.55048
 H299 H 0.65169 -0.04874 0.55115
 H300 H 0.81092 0.00150 0.57940
 C301 C 0.41655 0.17093 0.45010
 C302 C 0.40042 0.21469 0.43794
 C303 C 0.43105 0.25051 0.42529
 C304 C 0.47961 0.24187 0.42813
 C305 C 0.49590 0.19700 0.44076
 C306 C 0.46389 0.16139 0.45140
 C307 C 0.54390 0.18919 0.44204
 N308 N 0.57357 0.22460 0.43362
 N309 N 0.55848 0.26720 0.42413
 C310 C 0.51271 0.27714 0.42149
 H311 H 0.39167 0.14406 0.45849
 H312 H 0.36331 0.21959 0.43596
 H313 H 0.55816 0.15539 0.44983
 H314 H 0.50277 0.31272 0.41523
 C315 C 0.91468 0.33959 0.56474
 C316 C 0.89872 0.29697 0.58058
 C317 C 0.92856 0.25898 0.58442
 C318 C 0.97561 0.26402 0.57140
 C319 C 0.99202 0.30759 0.55495
 C320 C 0.96112 0.34587 0.55213
 C321 C 1.03837 0.31055 0.54026
 N322 N 1.06628 0.27283 0.54291
 N323 N 1.05097 0.23222 0.55872
 C324 C 1.00661 0.22645 0.57280
 H325 H 0.89043 0.36820 0.56271
 H326 H 0.86264 0.29366 0.59028
 H327 H 1.05271 0.34199 0.52587
 H328 H 0.99592 0.19241 0.58437
 C329 C 0.08652 0.83376 -0.05555
 C330 C 0.10241 0.79090 -0.06982
 C331 C 0.07171 0.75461 -0.07941
 C332 C 0.02348 0.76173 -0.07143
 C333 C 0.00723 0.80571 -0.05614
 C334 C 0.03924 0.84241 -0.04920
 C335 C -0.04026 0.81040 -0.04606
 N336 N -0.06922 0.77396 -0.05115
 N337 N -0.05400 0.73280 -0.06476
 C338 C -0.00878 0.72527 -0.07445
 H339 H 0.11177 0.86088 -0.05016
 H340 H 0.13926 0.78700 -0.07561
 H341 H -0.05487 0.84195 -0.03284
 H342 H 0.00150 0.69041 -0.08293
 C343 C 0.58571 0.66344 1.05773
 C344 C 0.60189 0.70623 1.07182
 C345 C 0.57171 0.74377 1.07878
 C346 C 0.52382 0.73772 1.06849
 C347 C 0.50729 0.69367 1.05390
 C348 C 0.53867 0.65598 1.04934
 C349 C 0.46027 0.68976 1.04198
 N350 N 0.43199 0.72712 1.04437
 N351 N 0.44755 0.76842 1.05700
 C352 C 0.49239 0.77514 1.06849
 H353 H 0.61044 0.63544 1.05413
 H354 H 0.63843 0.70912 1.07945
 H355 H 0.44562 0.65797 1.02948
 H356 H 0.50309 0.81007 1.07596
 C357 C 0.44133 0.48053 1.18657
 C358 C 0.42677 0.46505 1.22973
 C359 C 0.40913 0.42020 1.23584
 C360 C 0.40399 0.39113 1.19727
 C361 C 0.41870 0.40684 1.15335
 C362 C 0.43875 0.45153 1.14838
 C363 C 0.41154 0.37761 1.11557
 N364 N 0.39179 0.33543 1.12181
 N365 N 0.37829 0.32060 1.16308
 C366 C 0.38349 0.34700 1.20093
 H367 H 0.45606 0.51490 1.18324
 H368 H 0.43026 0.48785 1.25883
 H369 H 0.42047 0.38805 1.08099
 H370 H 0.37092 0.33345 1.23332
 C371 C 0.56138 -0.08427 0.33575
 C372 C 0.57361 -0.10132 0.29296
 C373 C 0.57333 -0.07254 0.25410
 C374 C 0.55939 -0.02565 0.25842
 C375 C 0.54705 -0.00807 0.30220
 C376 C 0.54805 -0.03791 0.34118
 C377 C 0.53550 0.03918 0.30539
 N378 N 0.53471 0.06620 0.26709
 N379 N 0.54494 0.04933 0.22591
 C380 C 0.55723 0.00439 0.22026
 H381 H 0.56221 -0.10769 0.36501
 H382 H 0.58450 -0.13715 0.29032
 H383 H 0.52763 0.05518 0.33783
 H384 H 0.56499 -0.00747 0.18600
 C385 C -0.02963 1.04988 -0.18466
 C386 C -0.04549 1.06692 -0.22656
 C387 C -0.09209 1.07891 -0.23258
 C388 C -0.12336 1.07362 -0.19519
 C389 C -0.10731 1.05524 -0.15277
 C390 C -0.06001 1.04350 -0.14770
 C391 C -0.13893 1.05104 -0.11616
 N392 N -0.18346 1.06464 -0.12178
 N393 N -0.19839 1.08253 -0.16129
 C394 C -0.16989 1.08777 -0.19801
 H395 H 0.00676 1.04165 -0.18099
 H396 H -0.02107 1.07099 -0.25459
 H397 H -0.12868 1.03755 -0.08301
 H398 H -0.18385 1.10366 -0.22867
 C399 C 1.06209 0.59105 0.65919
 C400 C 1.07726 0.60671 0.70151
 C401 C 1.07867 0.57696 0.73967
 C402 C 1.06325 0.53057 0.73520
 C403 C 1.04774 0.51449 0.69193
 C404 C 1.04794 0.54503 0.65343
 C405 C 1.03094 0.46881 0.68932
 N406 N 1.03058 0.44122 0.72721
 N407 N 1.04536 0.45624 0.76763
 C408 C 1.06141 0.49996 0.77299
 H409 H 1.06219 0.61503 0.63036
 H410 H 1.08870 0.64231 0.70437
 H411 H 1.01721 0.45486 0.65796
 H412 H 1.07188 0.51048 0.80688
 C413 C 0.83623 0.56530 0.58133
 C414 C 0.79288 0.57801 0.59760
 C415 C 0.75389 0.57544 0.56949
 C416 C 0.75870 0.55907 0.52401
 C417 C 0.80310 0.54643 0.50713
 C418 C 0.84214 0.54929 0.53642
 C419 C 0.80679 0.53258 0.46109
 N420 N 0.76837 0.52976 0.43470
 N421 N 0.72660 0.54010 0.45105
 C422 C 0.72043 0.55461 0.49475
 H423 H 0.86551 0.56767 0.60430
 H424 H 0.78983 0.59072 0.63236
 H425 H 0.83970 0.52454 0.44545
 H426 H 0.68569 0.56234 0.50622
 C427 C 0.66803 0.40679 1.04526
 C428 C 0.71171 0.39185 1.05872
 C429 C 0.74604 0.42344 1.07226
 C430 C 0.73586 0.47181 1.06899
 C431 C 0.69042 0.48689 1.05752
 C432 C 0.65642 0.45389 1.04474
 C433 C 0.68071 0.53472 1.05988
 N434 N 0.71517 0.56532 1.06793
 N435 N 0.75862 0.55148 1.07407
 C436 C 0.77021 0.50598 1.07440
 H437 H 0.64277 0.38100 1.03550
 H438 H 0.71753 0.35482 1.06084
 H439 H 0.64621 0.54837 1.05595
 H440 H 0.80631 0.49708 1.07815
 C441 C 0.17084 1.09063 -0.04701
 C442 C 0.21477 1.10527 -0.06011
 C443 C 0.24901 1.07350 -0.07389
 C444 C 0.23842 1.02522 -0.07132
 C445 C 0.19276 1.01046 -0.06016
 C446 C 0.15889 1.04366 -0.04708
 C447 C 0.18272 0.96278 -0.06311
 N448 N 0.21702 0.93193 -0.07149
 N449 N 0.26062 0.94542 -0.07741
 C450 C 0.27255 0.99080 -0.07716
 H451 H 0.14570 1.11655 -0.03698
 H452 H 0.22090 1.14227 -0.06175
 H453 H 0.14807 0.94942 -0.05942
 H454 H 0.30874 0.99940 -0.08081
 C455 C 0.31139 -0.02065 0.45844
 C456 C 0.26832 -0.03596 0.44365
 C457 C 0.26184 -0.08199 0.43011
 C458 C 0.29985 -0.11327 0.43144
 C459 C 0.34338 -0.09784 0.44751
 C460 C 0.34895 -0.05113 0.46079
 C461 C 0.38058 -0.12937 0.44802
 N462 N 0.37445 -0.17325 0.43305
 N463 N 0.33384 -0.18756 0.41717
 C464 C 0.29653 -0.15909 0.41549
 H465 H 0.31551 0.01531 0.46796
 H466 H 0.23984 -0.01155 0.44230
 H467 H 0.41460 -0.11945 0.45962
 H468 H 0.26502 -0.17253 0.40101
 C469 C 0.58866 -0.16615 0.55082
 C470 C 0.60361 -0.20988 0.56423
 C471 C 0.57205 -0.24556 0.57435
 C472 C 0.52393 -0.23692 0.56758
 C473 C 0.50864 -0.19204 0.55339
 C474 C 0.54153 -0.15602 0.54610
 C475 C 0.46109 -0.18569 0.54470
 N476 N 0.43124 -0.22151 0.54989
 N477 N 0.44558 -0.26355 0.56236
 C478 C 0.49075 -0.27261 0.57080
 H479 H 0.61448 -0.13952 0.54500
 H480 H 0.64043 -0.21497 0.56901
 H481 H 0.44711 -0.15326 0.53255
 H482 H 0.50024 -0.30803 0.57841
 C483 C 1.08643 0.66911 0.44418
 C484 C 1.10223 0.71316 0.43282
 C485 C 1.07127 0.74968 0.42336
 C486 C 1.02284 0.74119 0.42789
 C487 C 1.00689 0.69601 0.43974
 C488 C 1.03916 0.65995 0.44780
 C489 C 0.95895 0.68840 0.44300
 N490 N 0.92911 0.72418 0.43707
 N491 N 0.94398 0.76699 0.42827
 C492 C 0.98964 0.77680 0.42388
 H493 H 1.11151 0.64186 0.45056
 H494 H 1.13925 0.71799 0.42930
 H495 H 0.94489 0.65441 0.45029
 H496 H 0.99943 0.81251 0.41830
 C497 C -0.04076 1.16889 0.09313
 C498 C -0.05515 1.21219 0.10807
 C499 C -0.06980 1.24676 0.07695
 C500 C -0.06653 1.23729 0.02902
 C501 C -0.05406 1.19217 0.01391
 C502 C -0.04039 1.15785 0.04648
 C503 C -0.05646 1.18306 -0.03346
 N504 N -0.06553 1.21787 -0.06363
 N505 N -0.07263 1.26108 -0.04975
 C506 C -0.07296 1.27205 -0.00467
 H507 H -0.03041 1.14337 0.11860
 H508 H -0.05723 1.21741 0.14476
 H509 H -0.05172 1.14879 -0.04714
 H510 H -0.07751 1.30803 0.00427
 C511 C 0.41675 0.33667 0.93117
 C512 C 0.40067 0.29356 0.91770
 C513 C 0.42946 0.25461 0.91926
 C514 C 0.47549 0.25923 0.93519
 C515 C 0.49216 0.30339 0.94861
 C516 C 0.46213 0.34236 0.94696
 C517 C 0.53871 0.30696 0.96209
 N518 N 0.56580 0.26859 0.96379
 N519 N 0.54967 0.22698 0.95271
 C520 C 0.50550 0.22098 0.93852
 H521 H 0.39320 0.36590 0.92972
 H522 H 0.36547 0.29065 0.90539
 H523 H 0.55419 0.33976 0.97069
 H524 H 0.49426 0.18636 0.93014
 C525 C 0.56779 0.58533 0.83624
 C526 C 0.58055 0.60137 0.79290
 C527 C 0.57711 0.57279 0.75454
 C528 C 0.56017 0.52700 0.76002
 C529 C 0.54768 0.51033 0.80436
 C530 C 0.55092 0.54022 0.84270
 C531 C 0.53347 0.46383 0.80872
 N532 N 0.52999 0.43694 0.77098
 N533 N 0.54000 0.45320 0.72923
 C534 C 0.55490 0.49725 0.72245
 H535 H 0.57052 0.60871 0.86499
 H536 H 0.59373 0.63636 0.78931
 H537 H 0.52576 0.44818 0.84163
 H538 H 0.56232 0.50859 0.68775
 C539 C 0.40944 0.05137 0.66214
 C540 C 0.39417 0.06602 0.70497
 C541 C 0.42527 0.07172 0.74133
 C542 C 0.47266 0.06059 0.73454
 C543 C 0.48835 0.04687 0.69051
 C544 C 0.45637 0.04281 0.65410
 C545 C 0.53556 0.03650 0.68469
 N546 N 0.56478 0.03911 0.72085
 N547 N 0.54995 0.05107 0.76238
 C548 C 0.50496 0.06161 0.77054
 H549 H 0.38461 0.04809 0.63459
 H550 H 0.35784 0.07413 0.70942
 H551 H 0.54941 0.02577 0.65195
 H552 H 0.49486 0.06991 0.80523
 C553 C 0.03092 0.95930 0.19216
 C554 C 0.04508 0.94221 0.23468
 C555 C 0.09117 0.92928 0.24226
 C556 C 0.12389 0.93464 0.20613
 C557 C 0.11011 0.95499 0.16381
 C558 C 0.06257 0.96508 0.15595
 C559 C 0.14477 0.96480 0.13099
 N560 N 0.18894 0.95094 0.13838
 N561 N 0.20100 0.92830 0.17645
 C562 C 0.17004 0.91945 0.21039
 H563 H -0.00545 0.96685 0.18721
 H564 H 0.01963 0.93848 0.26183
 H565 H 0.13773 0.98421 0.09998
 H566 H 0.18189 0.90030 0.24010
 C567 C 0.90871 0.44889 0.33396
 C568 C 0.89308 0.43438 0.29141
 C569 C 0.92375 0.42839 0.25470
 C570 C 0.97133 0.43843 0.26105
 C571 C 0.98793 0.45072 0.30523
 C572 C 0.95586 0.45706 0.34201
 C573 C 1.03622 0.45483 0.31075
 N574 N 1.06484 0.45116 0.27403
 N575 N 1.04878 0.44311 0.23215
 C576 C 1.00309 0.43673 0.22440
 H577 H 0.88343 0.45339 0.36109
 H578 H 0.85661 0.42685 0.28741
 H579 H 1.05214 0.45984 0.34365
 H580 H 0.99206 0.43068 0.18958
   
