data_POSCAR
  _audit_creation_date              2014-09-24
  _audit_creation_method            'ToBaCCo'
  _symmetry_space_group_name_H-M    'P1'
  _symmetry_Int_Tables_number       1
  _symmetry_cell_setting            triclinic
  loop_
  _symmetry_equiv_pos_as_xyz
 x,y,z
_cell_length_a 35.9433
_cell_length_b 36.1835
_cell_length_c 36.2613
_cell_angle_alpha 89.983700
_cell_angle_beta 89.963700
_cell_angle_gamma 89.916500
loop_
  _atom_site_label
  _atom_site_type_symbol
  _atom_site_fract_x
  _atom_site_fract_y
  _atom_site_fract_z
C1 C 0.32591 0.37066 1.37050
 N2 N 0.34255 0.33948 1.38344
 C3 C 0.37299 0.32495 1.36655
 N4 N 0.38680 0.34213 1.33616
 C5 C 0.37074 0.37342 1.32283
 N6 N 0.34028 0.38749 1.34010
 C7 C 1.17235 0.62988 0.87828
 N8 N 1.15813 0.61417 0.84732
 C9 C 1.12773 0.62856 0.83038
 N10 N 1.11130 0.65919 0.84473
 C11 C 1.12492 0.67539 0.87577
 N12 N 1.15553 0.66052 0.89227
 C13 C 0.66899 -0.12707 0.12024
 N14 N 0.65369 -0.15885 0.10723
 C15 C 0.62444 -0.17508 0.12474
 N16 N 0.61083 -0.15925 0.15597
 C17 C 0.62551 -0.12734 0.16916
 N18 N 0.65441 -0.11137 0.15111
 C19 C -0.17332 1.12995 -0.37080
 N20 N -0.15657 1.16092 -0.38390
 C21 C -0.12629 1.17544 -0.36680
 N22 N -0.11281 1.15837 -0.33619
 C23 C -0.12907 1.12724 -0.32277
 N24 N -0.15942 1.11325 -0.34017
 C25 C 0.67053 0.62875 0.62141
 N26 N 0.65695 0.61329 0.65275
 C27 C 0.62677 0.62783 0.66999
 N28 N 0.61014 0.65836 0.65562
 C29 C 0.62333 0.67431 0.62424
 N30 N 0.65363 0.65926 0.60737
 C31 C 0.82413 0.36991 0.13189
 N32 N 0.83875 0.38686 0.16208
 C33 C 0.86933 0.37281 0.17916
 N34 N 0.88523 0.34142 0.16584
 C35 C 0.87117 0.32414 0.13566
 N36 N 0.84064 0.33866 0.11896
 C37 C 0.32450 0.12933 0.86915
 N38 N 0.34140 0.16016 0.88236
 C39 C 0.37217 0.17406 0.86568
 N40 N 0.38602 0.15681 0.83539
 C41 C 0.36955 0.12589 0.82181
 N42 N 0.33871 0.11233 0.83878
 C43 C 0.17292 0.87040 0.37669
 N44 N 0.15643 0.83972 0.39090
 C45 C 0.12571 0.82479 0.37477
 N46 N 0.11164 0.84096 0.34388
 C47 C 0.12773 0.87164 0.32934
 N48 N 0.15825 0.88609 0.34591
 Zn49 Zn 0.00709 1.04606 -0.01769
 Zn50 Zn -0.02977 0.97211 -0.02583
 Zn51 Zn 0.04429 0.97910 0.01180
 Zn52 Zn -0.02346 1.00844 0.04840
 O53 O -0.00057 1.00132 0.00407
 O54 O -0.01560 1.04951 -0.06107
 O55 O -0.00694 0.92939 -0.03863
 O56 O 0.08277 1.00541 -0.00517
 O57 O -0.04231 0.99496 -0.06837
 O58 O 0.05512 1.05544 -0.02686
 O59 O 0.04752 0.93576 -0.01096
 O60 O 0.00244 0.99041 0.08643
 O61 O -0.07310 0.95941 -0.00406
 O62 O 0.05345 0.96958 0.05945
 O63 O -0.06758 0.98631 0.05046
 O64 O -0.03211 1.05617 0.05863
 O65 O -0.01002 1.08400 0.00900
 C66 C -0.03511 1.02734 -0.07999
 C67 C 0.02540 0.91729 -0.03098
 C68 C 0.08434 1.03660 -0.02107
 C69 C 0.03401 0.97480 0.08822
 C70 C -0.08593 0.96686 0.02777
 C71 C -0.02586 1.08536 0.04025
 Zn72 Zn 0.54622 -0.02145 0.48850
 Zn73 Zn 0.47171 -0.02782 0.52510
 Zn74 Zn 0.50926 0.04582 0.51786
 Zn75 Zn 0.47942 0.00900 0.45108
 O76 O 0.50154 0.00129 0.49571
 O77 O 0.54896 -0.06461 0.51160
 O78 O 0.45842 -0.00504 0.56742
 O79 O 0.55732 0.05496 0.52699
 O80 O 0.49403 -0.07057 0.53845
 O81 O 0.58479 0.00477 0.50535
 O82 O 0.48634 0.04904 0.56121
 O83 O 0.47042 0.05677 0.44152
 O84 O 0.42903 -0.04058 0.50241
 O85 O 0.49226 0.08405 0.49150
 O86 O 0.43555 -0.01372 0.44792
 O87 O 0.50627 -0.00801 0.41313
 O88 O 0.55559 -0.03150 0.44105
 C89 C 0.52642 -0.08286 0.53137
 C90 C 0.46606 0.02703 0.57955
 C91 C 0.58649 0.03603 0.52111
 C92 C 0.47648 0.08575 0.46027
 C93 C 0.41692 -0.03340 0.47025
 C94 C 0.53722 -0.02487 0.41191
 Zn95 Zn 1.01032 0.45415 0.48210
 Zn96 Zn 1.04713 0.52110 0.51203
 Zn97 Zn 0.97309 0.52805 0.47433
 Zn98 Zn 0.97952 0.49132 0.54837
 O99 O 1.00242 0.49875 0.50411
 O100 O 1.05844 0.44489 0.47309
 O101 O 1.05022 0.56449 0.48931
 O102 O 0.96036 0.50530 0.43182
 O103 O 1.08575 0.49492 0.49507
 O104 O 0.98762 0.45087 0.43867
 O105 O 0.99580 0.57070 0.46148
 O106 O 0.93538 0.51352 0.55057
 O107 O 1.05613 0.53050 0.55976
 O108 O 0.92992 0.54092 0.49628
 O109 O 1.00530 0.50914 0.58655
 O110 O 0.97093 0.44352 0.55827
 O111 O 0.99329 0.41605 0.50855
 C112 C 1.08753 0.46379 0.47908
 C113 C 1.02805 0.58287 0.46919
 C114 C 0.96775 0.47302 0.41999
 C115 C 0.91709 0.53331 0.52808
 C116 C 1.03670 0.52499 0.58848
 C117 C 0.97732 0.41446 0.53971
 Zn118 Zn 0.47862 0.49140 0.95228
 Zn119 Zn 0.54639 0.52058 0.98871
 Zn120 Zn 0.47223 0.52787 1.02634
 Zn121 Zn 0.50916 0.45379 1.01839
 O122 O 0.50150 0.49851 0.99654
 O123 O 0.50473 0.50890 0.91419
 O124 O 0.54959 0.56392 1.01140
 O125 O 0.42919 0.54127 1.00435
 O126 O 0.55566 0.52990 0.94100
 O127 O 0.43482 0.51423 0.94991
 O128 O 0.49523 0.57027 1.03939
 O129 O 0.48625 0.45046 1.06173
 O130 O 0.58482 0.49428 1.00589
 O131 O 0.45929 0.50502 1.06874
 O132 O 0.55720 0.44433 1.02768
 O133 O 0.49213 0.41586 0.99174
 O134 O 0.46956 0.44372 0.94235
 C135 C 0.53626 0.52449 0.91227
 C136 C 0.52753 0.58231 1.03163
 C137 C 0.41659 0.53411 0.97238
 C138 C 0.46650 0.47267 1.08047
 C139 C 0.58639 0.46316 1.02193
 C140 C 0.47600 0.41451 0.96066
 C141 C 1.22768 0.41117 0.42113
 C142 C 1.24429 0.37838 0.43355
 C143 C 1.27706 0.36540 0.41736
 C144 C 1.29373 0.38463 0.38780
 C145 C 1.27700 0.41773 0.37565
 C146 C 1.24451 0.43092 0.39231
 C147 C 1.19236 0.42429 0.43758
 C148 C 1.18810 0.46141 0.44799
 C149 C 1.15434 0.47400 0.46246
 C150 C 1.12400 0.44981 0.46625
 C151 C 1.12841 0.41257 0.45613
 C152 C 1.16237 0.39988 0.44219
 H153 H 1.28888 0.33990 0.42776
 H154 H 1.28882 0.43352 0.35314
 H155 H 1.15174 0.50288 0.46989
 H156 H 1.10555 0.39329 0.45875
 H157 H 1.23203 0.45619 0.38209
 H158 H 1.21094 0.48067 0.44492
 H159 H 1.23194 0.36283 0.45596
 H160 H 1.16492 0.37117 0.43412
 C161 C 0.27288 0.58831 0.92365
 C162 C 0.25464 0.56954 0.89499
 C163 C 0.22131 0.58293 0.88050
 C164 C 0.20484 0.61536 0.89455
 C165 C 0.22233 0.63330 0.92440
 C166 C 0.25602 0.62002 0.93862
 C167 C 0.30995 0.57534 0.93670
 C168 C 0.31998 0.57706 0.97419
 C169 C 0.35480 0.56415 0.98596
 C170 C 0.38013 0.54906 0.96051
 C171 C 0.37022 0.54783 0.92307
 C172 C 0.33575 0.56098 0.91131
 H173 H 0.20870 0.56779 0.85799
 H174 H 0.21065 0.65824 0.93621
 H175 H 0.36164 0.56541 1.01502
 H176 H 0.38924 0.53683 0.90264
 H177 H 0.26942 0.63528 0.96057
 H178 H 0.30067 0.58772 0.99451
 H179 H 0.26625 0.54443 0.88348
 H180 H 0.32945 0.56014 0.88213
 C181 C -0.23139 0.91569 0.07432
 C182 C -0.25043 0.93496 0.10222
 C183 C -0.28370 0.92138 0.11667
 C184 C -0.29922 0.88823 0.10338
 C185 C -0.28111 0.86999 0.07403
 C186 C -0.24753 0.88345 0.05986
 C187 C -0.19409 0.92839 0.06181
 C188 C -0.18309 0.92557 0.02465
 C189 C -0.14780 0.93761 0.01344
 C190 C -0.12293 0.95290 0.03914
 C191 C -0.13388 0.95539 0.07626
 C192 C -0.16886 0.94315 0.08746
 H193 H -0.29687 0.93678 0.13873
 H194 H -0.29207 0.84452 0.06275
 H195 H -0.14020 0.93544 -0.01538
 H196 H -0.11528 0.96667 0.09687
 H197 H -0.23353 0.86781 0.03850
 H198 H -0.20194 0.91459 0.00414
 H199 H -0.23935 0.96046 0.11328
 H200 H -0.17594 0.94486 0.11643
 C201 C 0.72683 0.08909 0.57800
 C202 C 0.74604 0.06739 0.60389
 C203 C 0.77861 0.08049 0.62036
 C204 C 0.79285 0.11542 0.61097
 C205 C 0.77394 0.13678 0.58451
 C206 C 0.74119 0.12384 0.56837
 C207 C 0.69140 0.07593 0.56184
 C208 C 0.66048 0.09963 0.55975
 C209 C 0.62654 0.08684 0.54604
 C210 C 0.62292 0.05018 0.53375
 C211 C 0.65412 0.02673 0.53509
 C212 C 0.68795 0.03942 0.54919
 H213 H 0.79252 0.06330 0.64057
 H214 H 0.78410 0.16382 0.57664
 H215 H 0.60303 0.10559 0.54537
 H216 H 0.65222 -0.00169 0.52591
 H217 H 0.72708 0.14096 0.54824
 H218 H 0.66231 0.12782 0.56961
 H219 H 0.73537 0.04062 0.61203
 H220 H 0.71148 0.02071 0.55020
 C221 C 0.42135 0.22567 0.40614
 C222 C 0.43453 0.24210 0.37362
 C223 C 0.41904 0.27516 0.36082
 C224 C 0.38946 0.29225 0.37993
 C225 C 0.37641 0.27552 0.41260
 C226 C 0.39236 0.24282 0.42563
 C227 C 0.43726 0.19039 0.41951
 C228 C 0.44720 0.18624 0.45672
 C229 C 0.46082 0.15249 0.46972
 C230 C 0.46422 0.12204 0.44589
 C231 C 0.45462 0.12633 0.40855
 C232 C 0.44154 0.16029 0.39544
 H233 H 0.43003 0.28696 0.33562
 H234 H 0.35382 0.28760 0.42831
 H235 H 0.46791 0.15002 0.49865
 H236 H 0.45703 0.10339 0.38952
 H237 H 0.38152 0.23048 0.45064
 H238 H 0.44438 0.20915 0.47573
 H239 H 0.45705 0.22945 0.35826
 H240 H 0.43382 0.16278 0.36667
 C241 C 0.92226 0.27459 0.59379
 C242 C 0.89356 0.25739 0.57406
 C243 C 0.87757 0.22471 0.58700
 C244 C 0.89029 0.20807 0.61984
 C245 C 0.91961 0.22520 0.63920
 C246 C 0.93514 0.25825 0.62647
 C247 C 0.93821 0.30986 0.58049
 C248 C 0.94208 0.34005 0.60451
 C249 C 0.95514 0.37400 0.59140
 C250 C 0.96515 0.37818 0.55415
 C251 C 0.96217 0.34763 0.53039
 C252 C 0.94857 0.31390 0.54338
 H253 H 0.85519 0.21259 0.57111
 H254 H 0.93036 0.21347 0.66454
 H255 H 0.95721 0.39702 0.61037
 H256 H 0.96957 0.35001 0.50153
 H257 H 0.95744 0.27094 0.64203
 H258 H 0.93403 0.33764 0.63320
 H259 H 0.88297 0.26966 0.54891
 H260 H 0.94608 0.29092 0.52441
 C261 C 0.07790 0.77506 -0.08346
 C262 C 0.06368 0.75842 -0.11547
 C263 C 0.07858 0.72514 -0.12853
 C264 C 0.10840 0.70777 -0.11006
 C265 C 0.12186 0.72409 -0.07743
 C266 C 0.10670 0.75709 -0.06427
 C267 C 0.06389 0.81163 -0.07067
 C268 C 0.08876 0.83756 -0.05580
 C269 C 0.07609 0.87171 -0.04318
 C270 C 0.03821 0.88114 -0.04541
 C271 C 0.01327 0.85563 -0.06091
 C272 C 0.02597 0.82114 -0.07331
 H273 H 0.06719 0.71362 -0.15366
 H274 H 0.14437 0.71158 -0.06196
 H275 H 0.09615 0.89087 -0.03180
 H276 H -0.01609 0.86207 -0.06290
 H277 H 0.11771 0.76862 -0.03899
 H278 H 0.11825 0.83165 -0.05420
 H279 H 0.04173 0.77164 -0.13111
 H280 H 0.00601 0.80170 -0.08436
 C281 C 0.57974 0.72402 1.08495
 C282 C 0.56594 0.74006 1.11747
 C283 C 0.58028 0.77356 1.13038
 C284 C 0.60906 0.79181 1.11119
 C285 C 0.62234 0.77590 1.07826
 C286 C 0.60775 0.74262 1.06528
 C287 C 0.56589 0.68755 1.07198
 C288 C 0.59073 0.66198 1.05631
 C289 C 0.57811 0.62795 1.04346
 C290 C 0.54034 0.61833 1.04622
 C291 C 0.51546 0.64351 1.06247
 C292 C 0.52810 0.67786 1.07512
 H293 H 0.56912 0.78471 1.15581
 H294 H 0.64411 0.78903 1.06231
 H295 H 0.59813 0.60904 1.03147
 H296 H 0.48618 0.63691 1.06488
 H297 H 0.61846 0.73147 1.03967
 H298 H 0.62013 0.66810 1.05427
 H299 H 0.54465 0.72629 1.13350
 H300 H 0.50817 0.69705 1.08677
 C301 C 0.41259 0.42135 1.22222
 C302 C 0.37851 0.43330 1.23710
 C303 C 0.36522 0.41841 1.27022
 C304 C 0.38567 0.39113 1.28905
 C305 C 0.42020 0.37998 1.27465
 C306 C 0.43355 0.39501 1.24178
 C307 C 0.42577 0.43500 1.18580
 C308 C 0.44310 0.41053 1.16110
 C309 C 0.45609 0.42290 1.12705
 C310 C 0.45188 0.46007 1.11657
 C311 C 0.43405 0.48458 1.14094
 C312 C 0.42115 0.47217 1.17527
 H313 H 0.33849 0.42760 1.28055
 H314 H 0.43691 0.35938 1.28865
 H315 H 0.46935 0.40315 1.10884
 H316 H 0.43044 0.51340 1.13369
 H317 H 0.46031 0.38582 1.23155
 H318 H 0.44633 0.38156 1.16791
 H319 H 0.36155 0.45332 1.22259
 H320 H 0.40813 0.49178 1.19379
 C321 C 0.58762 -0.08101 0.27159
 C322 C 0.60417 -0.05832 0.24485
 C323 C 0.61639 -0.07333 0.21143
 C324 C 0.61148 -0.11112 0.20390
 C325 C 0.59410 -0.13358 0.23040
 C326 C 0.58264 -0.11873 0.26410
 C327 C 0.57586 -0.06558 0.30746
 C328 C 0.58807 -0.08187 0.34043
 C329 C 0.57636 -0.06790 0.37442
 C330 C 0.55158 -0.03787 0.37601
 C331 C 0.53953 -0.02146 0.34296
 C332 C 0.55191 -0.03496 0.30896
 H333 H 0.62960 -0.05537 0.19145
 H334 H 0.59013 -0.16282 0.22543
 H335 H 0.58594 -0.08120 0.39945
 H336 H 0.52048 0.00176 0.34341
 H337 H 0.56971 -0.13664 0.28431
 H338 H 0.60674 -0.10540 0.33982
 H339 H 0.60832 -0.02916 0.25017
 H340 H 0.54211 -0.02208 0.28380
 C341 C -0.08801 1.07918 -0.22190
 C342 C -0.12193 1.06727 -0.23705
 C343 C -0.13497 1.08225 -0.27022
 C344 C -0.11444 1.10959 -0.28884
 C345 C -0.08008 1.12072 -0.27414
 C346 C -0.06698 1.10560 -0.24121
 C347 C -0.07509 1.06538 -0.18545
 C348 C -0.05805 1.08976 -0.16053
 C349 C -0.04531 1.07726 -0.12645
 C350 C -0.04947 1.04004 -0.11614
 C351 C -0.06701 1.01562 -0.14074
 C352 C -0.07966 1.02816 -0.17510
 H353 H -0.16157 1.07306 -0.28077
 H354 H -0.06331 1.14135 -0.28797
 H355 H -0.03227 1.09695 -0.10807
 H356 H -0.07057 0.98677 -0.13362
 H357 H -0.04033 1.11477 -0.23077
 H358 H -0.05487 1.11876 -0.16720
 H359 H -0.13895 1.04720 -0.22272
 H360 H -0.09245 1.00863 -0.19379
 C361 C 1.08827 0.58116 0.72876
 C362 C 1.06634 0.60685 0.74809
 C363 C 1.07901 0.62217 0.78118
 C364 C 1.11370 0.61178 0.79581
 C365 C 1.13533 0.58563 0.77666
 C366 C 1.12283 0.57065 0.74341
 C367 C 1.07538 0.56575 0.69313
 C368 C 1.09965 0.56380 0.66280
 C369 C 1.08724 0.55025 0.62888
 C370 C 1.05040 0.53797 0.62472
 C371 C 1.02632 0.53936 0.65528
 C372 C 1.03863 0.55331 0.68906
 H373 H 1.06165 0.64219 0.79525
 H374 H 1.16221 0.57703 0.78709
 H375 H 1.10645 0.54955 0.60587
 H376 H 0.99775 0.53021 0.65296
 H377 H 1.14011 0.55065 0.72922
 H378 H 1.12804 0.57350 0.66513
 H379 H 1.03970 0.61563 0.73722
 H380 H 1.01947 0.55420 0.71211
 C381 C 0.77239 0.58630 0.57516
 C382 C 0.75798 0.62040 0.56320
 C383 C 0.72433 0.63380 0.57737
 C384 C 0.70452 0.61346 0.60396
 C385 C 0.71836 0.57885 0.61497
 C386 C 0.75176 0.56538 0.60064
 C387 C 0.80950 0.57315 0.56257
 C388 C 0.83356 0.55560 0.58759
 C389 C 0.86835 0.54286 0.57625
 C390 C 0.88021 0.54755 0.53962
 C391 C 0.85644 0.56553 0.51457
 C392 C 0.82139 0.57817 0.52593
 H393 H 0.71445 0.66059 0.56832
 H394 H 0.70358 0.56223 0.63503
 H395 H 0.88605 0.52945 0.59639
 H396 H 0.86476 0.56948 0.48613
 H397 H 0.76160 0.53861 0.60977
 H398 H 0.82570 0.55206 0.61620
 H399 H 0.77332 0.63733 0.54383
 H400 H 0.80340 0.59136 0.50592
 C401 C 0.72590 0.41042 1.08126
 C402 C 0.74243 0.37752 1.06901
 C403 C 0.77515 0.36453 1.08525
 C404 C 0.79190 0.38385 1.11467
 C405 C 0.77523 0.41703 1.12670
 C406 C 0.74277 0.43025 1.10999
 C407 C 0.69070 0.42360 1.06461
 C408 C 0.68663 0.46070 1.05399
 C409 C 0.65305 0.47329 1.03913
 C410 C 0.62270 0.44915 1.03515
 C411 C 0.62692 0.41195 1.04552
 C412 C 0.66069 0.39925 1.05985
 H413 H 0.78690 0.33896 1.07494
 H414 H 0.78710 0.43289 1.14911
 H415 H 0.65060 0.50214 1.03154
 H416 H 0.60404 0.39271 1.04279
 H417 H 0.73036 0.45560 1.12007
 H418 H 0.70948 0.47991 1.05715
 H419 H 0.73008 0.36192 1.04667
 H420 H 0.66309 0.37057 1.06807
 C421 C 0.22421 1.08927 -0.07967
 C422 C 0.23864 1.12405 -0.07033
 C423 C 0.27145 1.13678 -0.08658
 C424 C 0.29035 1.11517 -0.11286
 C425 C 0.27596 1.08026 -0.12206
 C426 C 0.24333 1.06737 -0.10548
 C427 C 0.18888 1.07622 -0.06313
 C428 C 0.18557 1.03983 -0.05012
 C429 C 0.15188 1.02725 -0.03553
 C430 C 0.12069 1.05072 -0.03407
 C431 C 0.12418 1.08727 -0.04672
 C432 C 0.15798 1.09994 -0.06092
 H433 H 0.28172 1.16381 -0.07885
 H434 H 0.28986 1.06289 -0.14212
 H435 H 0.15007 0.99891 -0.02610
 H436 H 0.10067 1.10601 -0.04598
 H437 H 0.23259 1.04057 -0.11340
 H438 H 0.20908 1.02111 -0.05119
 H439 H 0.22461 1.14133 -0.05027
 H440 H 0.15972 1.12805 -0.07104
 C441 C 0.27358 -0.08770 0.42115
 C442 C 0.25507 -0.06907 0.39252
 C443 C 0.22172 -0.08259 0.37830
 C444 C 0.20551 -0.11502 0.39258
 C445 C 0.22335 -0.13288 0.42230
 C446 C 0.25705 -0.11948 0.43625
 C447 C 0.31049 -0.07447 0.43419
 C448 C 0.32047 -0.07625 0.47167
 C449 C 0.35519 -0.06331 0.48352
 C450 C 0.38049 -0.04810 0.45816
 C451 C 0.37060 -0.04666 0.42071
 C452 C 0.33620 -0.05985 0.40887
 H453 H 0.20885 -0.06753 0.35584
 H454 H 0.21190 -0.15784 0.43426
 H455 H 0.36198 -0.06470 0.51258
 H456 H 0.38961 -0.03551 0.40037
 H457 H 0.27067 -0.13467 0.45815
 H458 H 0.30122 -0.08703 0.49196
 H459 H 0.26646 -0.04395 0.38089
 H460 H 0.32991 -0.05890 0.37969
 C461 C 0.57687 -0.22570 0.58385
 C462 C 0.56273 -0.24217 0.61601
 C463 C 0.57738 -0.27561 0.62893
 C464 C 0.60682 -0.29329 0.61014
 C465 C 0.62007 -0.27719 0.57729
 C466 C 0.60518 -0.24403 0.56430
 C467 C 0.56339 -0.18890 0.57130
 C468 C 0.58867 -0.16326 0.55655
 C469 C 0.57650 -0.12894 0.54395
 C470 C 0.53873 -0.11906 0.54605
 C471 C 0.51340 -0.14426 0.56151
 C472 C 0.52560 -0.17891 0.57393
 H473 H 0.56616 -0.28699 0.65422
 H474 H 0.64225 -0.28995 0.56155
 H475 H 0.59686 -0.11004 0.53261
 H476 H 0.48411 -0.13745 0.56341
 H477 H 0.61607 -0.23261 0.53889
 H478 H 0.61808 -0.16958 0.55499
 H479 H 0.54111 -0.22866 0.63187
 H480 H 0.50537 -0.19812 0.58493
 C481 C 1.07966 0.72505 0.41614
 C482 C 1.10855 0.74311 0.43501
 C483 C 1.12342 0.77612 0.42165
 C484 C 1.10953 0.79238 0.38914
 C485 C 1.07964 0.77491 0.37097
 C486 C 1.06505 0.74161 0.38422
 C487 C 1.06590 0.68851 0.42914
 C488 C 1.02800 0.67897 0.42676
 C489 C 1.01553 0.64448 0.43929
 C490 C 1.04066 0.61902 0.45469
 C491 C 1.07851 0.62850 0.45672
 C492 C 1.09097 0.66264 0.44395
 H493 H 1.14600 0.78871 0.43688
 H494 H 1.06794 0.78638 0.34593
 H495 H 0.98618 0.63800 0.43747
 H496 H 1.09871 0.60937 0.46803
 H497 H 1.04303 0.72833 0.36881
 H498 H 1.00789 0.69836 0.41580
 H499 H 1.11986 0.73164 0.46021
 H500 H 1.12044 0.66859 0.44535
 C501 C -0.08078 1.22485 0.09570
 C502 C -0.06743 1.24118 0.12818
 C503 C -0.08284 1.27424 0.14113
 C504 C -0.11250 1.29138 0.12221
 C505 C -0.12576 1.27470 0.08963
 C506 C -0.10988 1.24203 0.07645
 C507 C -0.06485 1.18968 0.08204
 C508 C -0.05494 1.18586 0.04479
 C509 C -0.04138 1.15222 0.03146
 C510 C -0.03802 1.12153 0.05501
 C511 C -0.04759 1.12549 0.09241
 C512 C -0.06059 1.15935 0.10586
 H513 H -0.07171 1.28600 0.16627
 H514 H -0.14842 1.28681 0.07408
 H515 H -0.03432 1.15002 0.00250
 H516 H -0.04521 1.10236 0.11122
 H517 H -0.12084 1.22976 0.05147
 H518 H -0.05775 1.20896 0.02598
 H519 H -0.04483 1.22849 0.14336
 H520 H -0.06829 1.16160 0.13465
 C521 C 0.42141 0.27465 0.90592
 C522 C 0.43110 0.26078 0.87105
 C523 C 0.41560 0.22779 0.85820
 C524 C 0.38973 0.20826 0.87980
 C525 C 0.38020 0.22214 0.91476
 C526 C 0.39603 0.25487 0.92775
 C527 C 0.43709 0.31003 0.91932
 C528 C 0.45017 0.31318 0.95567
 C529 C 0.46357 0.34691 0.96881
 C530 C 0.46379 0.37833 0.94599
 C531 C 0.45112 0.37505 0.90946
 C532 C 0.43810 0.34117 0.89621
 H533 H 0.42350 0.21789 0.83112
 H534 H 0.36043 0.20776 0.93213
 H535 H 0.47311 0.34852 0.99708
 H536 H 0.45099 0.39873 0.89119
 H537 H 0.38782 0.26516 0.95461
 H538 H 0.45000 0.28948 0.97393
 H539 H 0.45082 0.27539 0.85381
 H540 H 0.42791 0.33954 0.86816
 C541 C 0.58797 0.58068 0.77202
 C542 C 0.56594 0.60634 0.75278
 C543 C 0.57844 0.62163 0.71960
 C544 C 0.61306 0.61124 0.70479
 C545 C 0.63484 0.58519 0.72389
 C546 C 0.62252 0.57024 0.75724
 C547 C 0.57513 0.56517 0.80762
 C548 C 0.59938 0.56321 0.83794
 C549 C 0.58693 0.54964 0.87187
 C550 C 0.55008 0.53737 0.87602
 C551 C 0.52605 0.53872 0.84545
 C552 C 0.53840 0.55267 0.81167
 H553 H 0.56097 0.64158 0.70558
 H554 H 0.66168 0.57661 0.71331
 H555 H 0.60609 0.54897 0.89489
 H556 H 0.49748 0.52956 0.84776
 H557 H 0.63987 0.55027 0.77137
 H558 H 0.62776 0.57294 0.83560
 H559 H 0.53932 0.61508 0.76376
 H560 H 0.51927 0.55355 0.78863
 C561 C 0.41155 0.07791 0.72126
 C562 C 0.37708 0.06657 0.73567
 C563 C 0.36373 0.08144 0.76879
 C564 C 0.38450 0.10808 0.78807
 C565 C 0.41941 0.11857 0.77415
 C566 C 0.43282 0.10356 0.74129
 C567 C 0.42485 0.06437 0.68483
 C568 C 0.44290 0.08875 0.66057
 C569 C 0.45604 0.07649 0.62654
 C570 C 0.45129 0.03953 0.61563
 C571 C 0.43274 0.01513 0.63955
 C572 C 0.41968 0.02743 0.67386
 H573 H 0.33671 0.07277 0.77875
 H574 H 0.43638 0.13865 0.78851
 H575 H 0.46986 0.09616 0.60868
 H576 H 0.42869 -0.01352 0.63195
 H577 H 0.45987 0.11224 0.73144
 H578 H 0.44657 0.11757 0.66772
 H579 H 0.35989 0.04708 0.72079
 H580 H 0.40610 0.00790 0.69203
 C581 C 0.08688 0.91889 0.22816
 C582 C 0.12143 0.92969 0.24256
 C583 C 0.13436 0.91477 0.27568
 C584 C 0.11319 0.88839 0.29495
 C585 C 0.07850 0.87773 0.28060
 C586 C 0.06540 0.89299 0.24763
 C587 C 0.07360 0.93416 0.19261
 C588 C 0.03669 0.94629 0.18874
 C589 C 0.02405 0.96016 0.15503
 C590 C 0.04797 0.96179 0.12436
 C591 C 0.08496 0.94980 0.12832
 C592 C 0.09769 0.93632 0.16216
 H593 H 0.16122 0.92358 0.28590
 H594 H 0.06150 0.85753 0.29477
 H595 H -0.00463 0.96909 0.15285
 H596 H 0.10405 0.95069 0.10522
 H597 H 0.03878 0.88399 0.23694
 H598 H 0.01767 0.94522 0.21189
 H599 H 0.13836 0.94987 0.22826
 H600 H 0.12620 0.92685 0.16435
 C601 C 0.91253 0.42129 0.27890
 C602 C 0.93332 0.39503 0.25905
 C603 C 0.91951 0.37981 0.22647
 C604 C 0.88467 0.39070 0.21264
 C605 C 0.86437 0.41791 0.23174
 C606 C 0.87812 0.43298 0.26458
 C607 C 0.92623 0.43511 0.31507
 C608 C 0.92141 0.47222 0.32569
 C609 C 0.93466 0.48474 0.35982
 C610 C 0.95307 0.46039 0.38394
 C611 C 0.95757 0.42329 0.37334
 C612 C 0.94423 0.41081 0.33948
 H613 H 0.93612 0.35929 0.21224
 H614 H 0.83742 0.42690 0.22185
 H615 H 0.93080 0.51350 0.36717
 H616 H 0.97128 0.40365 0.39135
 H617 H 0.86127 0.45293 0.27933
 H618 H 0.90790 0.49171 0.30739
 H619 H 0.96032 0.38604 0.26881
 H620 H 0.94766 0.38188 0.33263
   
