data_POSCAR
  _audit_creation_date              2014-09-24
  _audit_creation_method            'ToBaCCo'
  _symmetry_space_group_name_H-M    'P1'
  _symmetry_Int_Tables_number       1
  _symmetry_cell_setting            triclinic
  loop_
  _symmetry_equiv_pos_as_xyz
 x,y,z
_cell_length_a 28.6202
_cell_length_b 28.6303
_cell_length_c 62.7682
_cell_angle_alpha 91.459000
_cell_angle_beta 91.069600
_cell_angle_gamma 120.031300
loop_
  _atom_site_label
  _atom_site_type_symbol
  _atom_site_fract_x
  _atom_site_fract_y
  _atom_site_fract_z
C1 C 0.01874 0.00921 0.50071
 C2 C 0.98653 -0.02295 0.16591
 C3 C -0.00564 1.01783 0.83350
 O4 O 0.55658 0.04240 -0.01961
 O5 O 0.46305 0.03571 0.02166
 O6 O 0.55601 0.03933 0.02170
 O7 O 0.46706 0.04569 -0.01943
 O8 O 0.42149 -0.04318 -0.02295
 O9 O 0.51256 -0.04952 0.01800
 O10 O 0.41955 -0.05316 0.01814
 O11 O 0.51098 -0.04646 -0.02330
 Cu12 Cu 0.51508 0.04964 0.00144
 Cu13 Cu 0.46167 -0.05694 -0.00288
 C14 C 0.54976 -0.00121 -0.02843
 C15 C 0.42509 -0.01016 0.02688
 C16 C 0.55017 -0.00586 0.02677
 C17 C 0.42879 0.00264 -0.02813
 O18 O -0.03876 0.44594 0.68693
 O19 O -0.03443 0.53743 0.64546
 O20 O -0.03807 0.44449 0.64555
 O21 O -0.04208 0.53542 0.68668
 O22 O 0.04692 0.58103 0.68927
 O23 O 0.05091 0.48798 0.64832
 O24 O 0.05456 0.58094 0.64805
 O25 O 0.05022 0.49159 0.68969
 Cu26 Cu -0.04720 0.48640 0.66589
 Cu27 Cu 0.05952 0.53985 0.66910
 C28 C 0.00531 0.45314 0.69532
 C29 C 0.01111 0.57506 0.63974
 C30 C 0.00678 0.45003 0.64002
 C31 C 0.00144 0.57405 0.69491
 O32 O 0.52911 0.55527 0.31282
 O33 O 0.44049 0.46658 0.35394
 O34 O 0.52990 0.55952 0.35424
 O35 O 0.43620 0.46583 0.31254
 O36 O 0.47962 0.42030 0.31247
 O37 O 0.57550 0.51618 0.35401
 O38 O 0.48603 0.42318 0.35389
 O39 O 0.57259 0.50981 0.31257
 Cu40 Cu 0.47949 0.51622 0.33340
 Cu41 Cu 0.53287 0.46294 0.33322
 C42 C 0.56627 0.54767 0.30574
 C43 C 0.44814 0.42946 0.36087
 C44 C 0.56901 0.55449 0.36115
 C45 C 0.44126 0.42674 0.30548
 C46 C 0.04510 0.12127 0.54233
 C47 C 0.00433 0.13284 0.53736
 C48 C -0.03337 0.10359 0.52079
 C49 C -0.03034 0.06276 0.50923
 C50 C 0.00985 0.04954 0.51442
 C51 C 0.04828 0.08070 0.53085
 C52 C 0.00264 0.17589 0.54902
 C53 C 0.00274 0.21226 0.55916
 C54 C 0.00391 0.25479 0.57148
 C55 C 0.00515 0.29070 0.58237
 C56 C 0.00621 0.33271 0.59583
 C57 C -0.04216 0.33076 0.60075
 C58 C -0.04176 0.36962 0.61478
 C59 C 0.00714 0.41106 0.62414
 C60 C 0.05573 0.41333 0.61878
 C61 C 0.05521 0.37430 0.60473
 H62 H 0.07507 0.14423 0.55490
 H63 H -0.06449 0.11302 0.51652
 H64 H -0.05853 0.04294 0.49587
 H65 H 0.08137 0.07385 0.53467
 H66 H -0.08031 0.29870 0.59400
 H67 H -0.07989 0.36669 0.61854
 H68 H 0.09400 0.44464 0.62572
 H69 H 0.09290 0.37609 0.60106
 C70 C 0.88233 0.89627 0.20751
 C71 C 0.86942 0.84327 0.20252
 C72 C 0.89537 0.83280 0.18596
 C73 C 0.93421 0.87532 0.17442
 C74 C 0.94871 0.92938 0.17960
 C75 C 0.92089 0.93866 0.19605
 C76 C 0.82823 0.79998 0.21411
 C77 C 0.79340 0.76520 0.22426
 C78 C 0.75267 0.72591 0.23661
 C79 C 0.71827 0.69328 0.24758
 C80 C 0.67805 0.65510 0.26116
 C81 C 0.68120 0.61037 0.26766
 C82 C 0.64414 0.57488 0.28183
 C83 C 0.60336 0.58368 0.28975
 C84 C 0.59987 0.62823 0.28283
 C85 C 0.63708 0.66374 0.26864
 H86 H 0.86189 0.90482 0.22007
 H87 H 0.88483 0.79170 0.18168
 H88 H 0.95137 0.86536 0.16107
 H89 H 0.92873 0.97910 0.19988
 H90 H 0.71281 0.60336 0.26202
 H91 H 0.64797 0.54098 0.28682
 H92 H 0.56902 0.63615 0.28864
 H93 H 0.63438 0.69836 0.26375
 C94 C 0.13725 0.05398 -0.15010
 C95 C 0.12951 0.03086 -0.13022
 C96 C 0.07829 0.00599 -0.12171
 C97 C 0.03473 0.00364 -0.13304
 C98 C 0.04139 0.02777 -0.15307
 C99 C 0.09373 0.05186 -0.16152
 C100 C 0.17303 0.02960 -0.11889
 C101 C 0.20804 0.02696 -0.10895
 C102 C 0.24765 0.02271 -0.09681
 C103 C 0.28066 0.01875 -0.08600
 C104 C 0.31942 0.01432 -0.07253
 C105 C 0.31075 -0.03648 -0.06708
 C106 C 0.34687 -0.04053 -0.05295
 C107 C 0.39204 0.00630 -0.04406
 C108 C 0.40084 0.05712 -0.04997
 C109 C 0.36476 0.06104 -0.06409
 H110 H 0.17661 0.07236 -0.15707
 H111 H 0.07155 -0.01323 -0.10654
 H112 H -0.00460 -0.01915 -0.12628
 H113 H 0.10079 0.06791 -0.17731
 H114 H 0.27565 -0.07292 -0.07348
 H115 H 0.33894 -0.08021 -0.04871
 H116 H 0.43521 0.09398 -0.04345
 H117 H 0.37179 0.10056 -0.06815
 C118 C 0.01306 0.91922 0.54654
 C119 C 0.03484 0.88993 0.53719
 C120 C 0.05430 0.90118 0.51659
 C121 C 0.05143 0.94126 0.50531
 C122 C 0.03011 0.97185 0.51458
 C123 C 0.01001 0.95911 0.53533
 C124 C 0.03403 0.84637 0.54845
 C125 C 0.03179 0.80983 0.55836
 C126 C 0.02803 0.76736 0.57052
 C127 C 0.02454 0.73169 0.58137
 C128 C 0.02070 0.69016 0.59491
 C129 C 0.06776 0.69239 0.60287
 C130 C 0.06450 0.65424 0.61711
 C131 C 0.01400 0.61325 0.62363
 C132 C -0.03320 0.61066 0.61522
 C133 C -0.02980 0.64897 0.60097
 H134 H -0.00325 0.91002 0.56231
 H135 H 0.07035 0.87802 0.50902
 H136 H 0.06452 0.94741 0.48905
 H137 H -0.01032 0.97819 0.54274
 H138 H 0.10706 0.72417 0.59834
 H139 H 0.10162 0.65740 0.62325
 H140 H -0.07264 0.57968 0.61994
 H141 H -0.06651 0.64700 0.59495
 C142 C 0.08553 0.06614 0.21184
 C143 C 0.11316 0.11624 0.20253
 C144 C 0.09823 0.12222 0.18189
 C145 C 0.05604 0.07806 0.17055
 C146 C 0.02694 0.02717 0.17980
 C147 C 0.04351 0.02198 0.20056
 C148 C 0.15847 0.16042 0.21394
 C149 C 0.19645 0.19620 0.22395
 C150 C 0.24060 0.23699 0.23619
 C151 C 0.27770 0.27123 0.24709
 C152 C 0.32089 0.31171 0.26064
 C153 C 0.31987 0.35828 0.26710
 C154 C 0.35972 0.39619 0.28133
 C155 C 0.40125 0.38802 0.28936
 C156 C 0.40262 0.34160 0.28244
 C157 C 0.36258 0.30363 0.26819
 H158 H 0.09754 0.06074 0.22764
 H159 H 0.12003 0.16065 0.17436
 H160 H 0.04691 0.08329 0.15427
 H161 H 0.02565 -0.01664 0.20795
 H162 H 0.28774 0.36488 0.26140
 H163 H 0.35748 0.43149 0.28629
 H164 H 0.43397 0.33411 0.28834
 H165 H 0.36364 0.26760 0.26334
 C166 C 0.84824 -0.03280 -0.14836
 C167 C 0.85768 0.00224 -0.13080
 C168 C 0.91053 0.04082 -0.12452
 C169 C 0.95382 0.04442 -0.13566
 C170 C 0.94555 0.00844 -0.15309
 C171 C 0.89162 -0.02935 -0.15958
 C172 C 0.81350 0.00011 -0.11942
 C173 C 0.77777 -0.00027 -0.10942
 C174 C 0.73713 0.00026 -0.09720
 C175 C 0.70312 0.00087 -0.08635
 C176 C 0.66307 0.00111 -0.07289
 C177 C 0.61693 -0.04760 -0.06849
 C178 C 0.57953 -0.04812 -0.05438
 C179 C 0.58778 0.00019 -0.04443
 C180 C 0.63375 0.04916 -0.04928
 C181 C 0.67119 0.04955 -0.06341
 H182 H 0.80731 -0.06213 -0.15364
 H183 H 0.91832 0.06881 -0.11116
 H184 H 0.99415 0.07595 -0.13076
 H185 H 0.88258 -0.05531 -0.17369
 H186 H 0.61030 -0.08534 -0.07569
 H187 H 0.54457 -0.08651 -0.05102
 H188 H 0.64130 0.08699 -0.04187
 H189 H 0.70689 0.08749 -0.06667
 C190 C 0.09498 -0.05815 0.14984
 C191 C 0.10629 -0.03881 0.12925
 C192 C 0.07682 -0.01737 0.11994
 C193 C 0.03673 -0.01445 0.13119
 C194 C 0.02398 -0.03435 0.15195
 C195 C 0.05470 -0.05541 0.16116
 C196 C 0.15018 -0.03766 0.11797
 C197 C 0.18703 -0.03504 0.10806
 C198 C 0.22992 -0.03077 0.09592
 C199 C 0.26599 -0.02676 0.08508
 C200 C 0.30804 -0.02222 0.07156
 C201 C 0.34963 0.02864 0.06607
 C202 C 0.38854 0.03280 0.05186
 C203 C 0.38616 -0.01395 0.04293
 C204 C 0.34473 -0.06483 0.04888
 C205 C 0.30599 -0.06886 0.06308
 H206 H 0.11828 -0.07393 0.15738
 H207 H 0.08606 -0.00116 0.10417
 H208 H 0.01755 0.00568 0.12382
 H209 H 0.04852 -0.06837 0.17742
 H210 H 0.35148 0.06503 0.07249
 H211 H 0.41985 0.07252 0.04759
 H212 H 0.34172 -0.10163 0.04233
 H213 H 0.27391 -0.10842 0.06717
 C214 C 0.87345 0.89769 0.48483
 C215 C 0.87950 0.88246 0.46419
 C216 C 0.92969 0.90980 0.45486
 C217 C 0.97386 0.95184 0.46611
 C218 C 0.96862 0.96874 0.48687
 C219 C 0.91764 0.93991 0.49615
 C220 C 0.83527 0.83716 0.45280
 C221 C 0.79947 0.79918 0.44279
 C222 C 0.75867 0.75504 0.43054
 C223 C 0.72444 0.71796 0.41962
 C224 C 0.68398 0.67478 0.40604
 C225 C 0.69210 0.63315 0.39833
 C226 C 0.65416 0.59313 0.38406
 C227 C 0.60771 0.59448 0.37729
 C228 C 0.59951 0.63596 0.38549
 C229 C 0.63739 0.67578 0.39974
 H230 H 0.83495 0.87611 0.49239
 H231 H 0.93512 0.89755 0.43905
 H232 H 1.01254 0.96949 0.45869
 H233 H 0.91236 0.94928 0.51243
 H234 H 0.72815 0.63210 0.40306
 H235 H 0.66168 0.56182 0.37803
 H236 H 0.56418 0.63818 0.38064
 H237 H 0.63075 0.70787 0.40556
 C238 C -0.02942 0.09751 0.79183
 C239 C 0.00805 0.15064 0.79820
 C240 C 0.04252 0.16092 0.81596
 C241 C 0.03968 0.11810 0.82727
 C242 C 0.00320 0.06363 0.82065
 C243 C -0.03247 0.05473 0.80304
 C244 C 0.00943 0.19423 0.78677
 C245 C 0.00916 0.22943 0.77673
 C246 C 0.00787 0.26943 0.76446
 C247 C 0.00660 0.30285 0.75355
 C248 C 0.00557 0.34219 0.74002
 C249 C 0.05397 0.38802 0.73507
 C250 C 0.05366 0.42467 0.72089
 C251 C 0.00483 0.41595 0.71140
 C252 C -0.04381 0.37031 0.71680
 C253 C -0.04337 0.33362 0.73101
 H254 H -0.05713 0.08907 0.77836
 H255 H 0.07089 0.20208 0.82134
 H256 H 0.06520 0.12804 0.84153
 H257 H -0.06359 0.01425 0.79805
 H258 H 0.09209 0.39499 0.74191
 H259 H 0.09182 0.45940 0.71710
 H260 H -0.08203 0.36242 0.70976
 H261 H -0.08108 0.29814 0.73469
 C262 C 0.87476 -0.04921 0.12440
 C263 C 0.86345 -0.00819 0.12939
 C264 C 0.89272 0.02958 0.14597
 C265 C 0.93333 0.02639 0.15750
 C266 C 0.94632 -0.01402 0.15228
 C267 C 0.91512 -0.05254 0.13586
 C268 C 0.82073 -0.00622 0.11773
 C269 C 0.78469 -0.00597 0.10758
 C270 C 0.74259 -0.00665 0.09526
 C271 C 0.70708 -0.00738 0.08437
 C272 C 0.66560 -0.00774 0.07092
 C273 C 0.62442 -0.05625 0.06150
 C274 C 0.58597 -0.05600 0.04746
 C275 C 0.58843 -0.00711 0.04264
 C276 C 0.62943 0.04127 0.05253
 C277 C 0.66770 0.04090 0.06654
 H278 H 0.85178 -0.07922 0.11183
 H279 H 0.88349 0.06090 0.15025
 H280 H 0.95317 0.05467 0.17086
 H281 H 0.92180 -0.08577 0.13201
 H282 H 0.62251 -0.09414 0.06475
 H283 H 0.55499 -0.09388 0.04010
 H284 H 0.63249 0.07962 0.04919
 H285 H 0.69945 0.07869 0.07371
 C286 C 0.16307 0.10044 0.48057
 C287 C 0.15259 0.12613 0.46403
 C288 C 0.09956 0.11299 0.45906
 C289 C 0.05714 0.07446 0.47053
 C290 C 0.06643 0.04691 0.48696
 C291 C 0.12053 0.06164 0.49212
 C292 C 0.19590 0.16734 0.45244
 C293 C 0.23070 0.20217 0.44230
 C294 C 0.26998 0.24293 0.42996
 C295 C 0.30261 0.27735 0.41900
 C296 C 0.34078 0.31760 0.40543
 C297 C 0.33208 0.35854 0.39812
 C298 C 0.36758 0.39577 0.38394
 C299 C 0.41215 0.39234 0.37686
 C300 C 0.42101 0.35158 0.38461
 C301 C 0.38553 0.31450 0.39878
 H302 H 0.20419 0.11117 0.48484
 H303 H 0.09100 0.13324 0.44651
 H304 H 0.01668 0.06647 0.46672
 H305 H 0.13048 0.04470 0.50546
 H306 H 0.29744 0.36120 0.40313
 H307 H 0.35961 0.42660 0.37826
 H308 H 0.45493 0.34780 0.37950
 H309 H 0.39258 0.28291 0.40428
 C310 C -0.04429 0.87170 0.81654
 C311 C -0.02076 0.87881 0.79670
 C312 C 0.00505 0.92992 0.78816
 C313 C 0.00791 0.97394 0.79943
 C314 C -0.01647 0.96777 0.81938
 C315 C -0.04160 0.91575 0.82789
 C316 C -0.02021 0.83469 0.78542
 C317 C -0.01817 0.79915 0.77553
 C318 C -0.01464 0.75886 0.76343
 C319 C -0.01133 0.72526 0.75265
 C320 C -0.00768 0.68576 0.73923
 C321 C 0.04275 0.69407 0.73327
 C322 C 0.04599 0.65719 0.71917
 C323 C -0.00130 0.61162 0.71082
 C324 C -0.05174 0.60320 0.71724
 C325 C -0.05484 0.64004 0.73133
 H326 H -0.06346 0.83243 0.82352
 H327 H 0.02447 0.93615 0.77301
 H328 H 0.03105 1.01325 0.79274
 H329 H -0.05794 0.90942 0.84364
 H330 H 0.07953 0.72946 0.73924
 H331 H 0.08539 0.66485 0.71453
 H332 H -0.08893 0.56854 0.71115
 H333 H -0.09408 0.63329 0.73578
   
