data_POSCAR
  _audit_creation_date              2014-09-24
  _audit_creation_method            'ToBaCCo'
  _symmetry_space_group_name_H-M    'P1'
  _symmetry_Int_Tables_number       1
  _symmetry_cell_setting            triclinic
  loop_
  _symmetry_equiv_pos_as_xyz
 x,y,z
_cell_length_a 17.2983
_cell_length_b 17.6010
_cell_length_c 17.3037
_cell_angle_alpha 89.114100
_cell_angle_beta 98.710100
_cell_angle_gamma 90.891200
loop_
  _atom_site_label
  _atom_site_type_symbol
  _atom_site_fract_x
  _atom_site_fract_y
  _atom_site_fract_z
N1 N 0.26631 0.25885 0.22265
 N2 N 0.79079 -0.24240 0.25965
 N3 N 0.76107 0.22902 0.77613
 N4 N 0.23047 -0.24138 0.72276
 N5 N 0.72339 -0.27178 0.73947
 N6 N 0.23966 0.25711 0.71008
 N7 N 0.27681 -0.24118 0.23387
 N8 N 0.77668 0.25803 0.27035
 O9 O 0.26425 0.07968 0.39597
 O10 O 0.24955 -0.06648 0.54990
 O11 O 0.26464 -0.06845 0.40221
 O12 O 0.25120 0.08246 0.54424
 O13 O 0.12248 0.08115 0.51452
 O14 O 0.13594 -0.07078 0.37272
 O15 O 0.12085 -0.06742 0.51978
 O16 O 0.13550 0.07742 0.36680
 Cu17 Cu 0.27028 0.00696 0.47630
 Cu18 Cu 0.11603 0.00495 0.44024
 C19 C 0.20165 0.10350 0.35533
 C20 C 0.18273 -0.09213 0.56068
 C21 C 0.20238 -0.09548 0.36338
 C22 C 0.18489 0.10791 0.55345
 O23 O 0.66006 0.05448 0.57776
 O24 O 0.67377 -0.07719 0.42062
 O25 O 0.68894 -0.08952 0.57156
 O26 O 0.67046 0.07009 0.42949
 O27 O 0.79902 0.08363 0.44692
 O28 O 0.81735 -0.07401 0.58787
 O29 O 0.80265 -0.06618 0.43706
 O30 O 0.78842 0.06979 0.59656
 Cu31 Cu 0.66077 -0.01179 0.49805
 Cu32 Cu 0.81433 0.00536 0.51864
 C33 C 0.72140 0.08422 0.61463
 C34 C 0.73905 -0.09567 0.40259
 C35 C 0.75713 -0.10899 0.60343
 C36 C 0.73198 0.10384 0.41385
 O37 O 0.42427 0.28985 0.05728
 O38 O 0.56682 0.32038 -0.07927
 O39 O 0.41677 0.29180 -0.09592
 O40 O 0.57022 0.33215 0.06937
 O41 O 0.59875 0.21020 0.07795
 O42 O 0.44262 0.16940 -0.08766
 O43 O 0.59212 0.19771 -0.07149
 O44 O 0.45174 0.16778 0.06575
 Cu45 Cu 0.49087 0.32020 -0.01329
 Cu46 Cu 0.52367 0.17437 -0.00287
 C47 C 0.41465 0.22389 0.08582
 C48 C 0.60456 0.26371 -0.09771
 C49 C 0.40391 0.22475 -0.12099
 C50 C 0.61170 0.27822 0.10105
 O51 O 0.58739 0.66962 0.05791
 O52 O 0.42187 0.71053 -0.09833
 O53 O 0.57121 0.69756 -0.09152
 O54 O 0.43385 0.66783 0.04863
 O55 O 0.44245 0.78989 0.07613
 O56 O 0.57907 0.82027 -0.06641
 O57 O 0.43046 0.83246 -0.06972
 O58 O 0.59581 0.79205 0.08365
 Cu59 Cu 0.50255 0.67449 -0.02315
 Cu60 Cu 0.51311 0.82032 0.00959
 C61 C 0.62086 0.72500 0.09648
 C62 C 0.39887 0.77858 -0.11132
 C63 C 0.59747 0.76352 -0.10406
 C64 C 0.41382 0.72394 0.08571
 O65 O 0.12720 0.42885 0.36376
 O66 O -0.01486 0.58060 0.37736
 O67 O -0.01985 0.43194 0.37948
 O68 O 0.13289 0.57705 0.36455
 O69 O 0.10362 0.57926 0.23585
 O70 O -0.05012 0.43274 0.25084
 O71 O -0.04467 0.58176 0.24869
 O72 O 0.09756 0.43112 0.23512
 Cu73 Cu 0.05956 0.50444 0.38393
 Cu74 Cu 0.02334 0.50633 0.22977
 C75 C 0.13656 0.40421 0.29732
 C76 C -0.05378 0.60733 0.31495
 C77 C -0.06081 0.40713 0.31770
 C78 C 0.14425 0.60319 0.29841
 O79 O 0.05365 0.58432 0.69963
 O80 O -0.08761 0.42699 0.68191
 O81 O -0.09564 0.57035 0.71330
 O82 O 0.06353 0.43400 0.69941
 O83 O 0.07675 0.41986 0.82793
 O84 O -0.07989 0.55184 0.84124
 O85 O -0.07152 0.41150 0.81027
 O86 O 0.07083 0.57076 0.82802
 Cu87 Cu -0.01790 0.50605 0.68613
 Cu88 Cu 0.00225 0.48905 0.83881
 C89 C 0.08667 0.60447 0.76662
 C90 C -0.10336 0.39204 0.74207
 C91 C -0.11547 0.58298 0.78002
 C92 C 0.09605 0.40254 0.76285
 C93 C 0.32058 0.26897 0.16773
 C94 C 0.36050 0.21171 0.14326
 H95 H 0.32700 0.32534 0.14308
 H96 H 0.35331 0.15453 0.16525
 C97 C 0.72990 0.76903 0.19389
 C98 C 0.68913 0.71123 0.15711
 H99 H 0.71247 0.82685 0.17831
 H100 H 0.70462 0.65313 0.17327
 C101 C 0.70183 0.21708 -0.17477
 C102 C 0.66434 0.27534 -0.14886
 H103 H 0.68530 0.15923 -0.16146
 H104 H 0.67788 0.33303 -0.16558
 C105 C 0.29676 0.74182 -0.21902
 C106 C 0.33515 0.79616 -0.17521
 H107 H 0.31143 0.68278 -0.20645
 H108 H 0.31799 0.85486 -0.18523
 C109 C 0.21141 0.31908 0.22564
 C110 C 0.19282 0.34311 0.29347
 H111 H 0.18790 0.34797 0.17158
 H112 H 0.22012 0.31756 0.34798
 C113 C 0.16587 0.70500 0.71312
 C114 C 0.14558 0.66607 0.77452
 H115 H 0.13444 0.69503 0.65502
 H116 H 0.17509 0.67813 0.83292
 C117 C -0.15270 0.69887 0.25607
 C118 C -0.10975 0.66890 0.32002
 H119 H -0.14738 0.67610 0.19928
 H120 H -0.11635 0.68901 0.37744
 C121 C -0.18535 0.29215 0.79014
 C122 C -0.15817 0.32767 0.73093
 H123 H -0.17015 0.31313 0.84915
 H124 H -0.17759 0.30931 0.67157
 C125 C 0.26916 0.19409 0.27548
 C126 C 0.20337 0.16370 0.29551
 H127 H 0.32533 0.17029 0.29913
 H128 H 0.14751 0.18573 0.26826
 C129 C 0.77282 0.17370 0.71867
 C130 C 0.71270 0.13595 0.67848
 H131 H 0.83097 0.16719 0.70369
 H132 H 0.65406 0.14527 0.69085
 C133 C 0.23761 -0.18173 0.66578
 C134 C 0.17551 -0.15191 0.62023
 H135 H 0.29547 -0.15933 0.66102
 H136 H 0.11719 -0.17185 0.62634
 C137 C 0.79981 -0.18769 0.32208
 C138 C 0.73738 -0.15191 0.34045
 H139 H 0.85709 -0.17690 0.35535
 H140 H 0.67989 -0.16671 0.30988
 C141 C 0.67418 0.71654 -0.20138
 C142 C 0.64862 0.77495 -0.16383
 H143 H 0.66052 0.65875 -0.18493
 H144 H 0.66565 0.83255 -0.17734
 C145 C 0.30536 0.26868 -0.22902
 C146 C 0.34312 0.21095 -0.18909
 H147 H 0.32014 0.32647 -0.21090
 H148 H 0.32763 0.15283 -0.20512
 C149 C 0.33173 0.76900 0.17961
 C150 C 0.35631 0.71176 0.13977
 H151 H 0.35634 0.82539 0.17317
 H152 H 0.33436 0.65455 0.14699
 C153 C 0.71858 0.24125 0.20395
 C154 C 0.67537 0.29571 0.16501
 H155 H 0.70567 0.18221 0.18950
 H156 H 0.68567 0.35444 0.18193
 C157 C -0.21883 0.67300 0.72821
 C158 C -0.17979 0.63430 0.78835
 H159 H -0.20272 0.66719 0.67045
 H160 H -0.19332 0.64262 0.84672
 C161 C -0.16603 0.31741 0.26311
 C162 C -0.12038 0.34733 0.32510
 H163 H -0.16116 0.33963 0.20523
 H164 H -0.12653 0.32758 0.38345
 C165 C 0.17704 0.31157 0.70143
 C166 C 0.15745 0.34555 0.76433
 H167 H 0.14491 0.32390 0.64398
 H168 H 0.18691 0.32910 0.82178
 C169 C 0.22394 0.69406 0.23096
 C170 C 0.20391 0.66359 0.29670
 H171 H 0.20035 0.67025 0.17480
 H172 H 0.23112 0.68564 0.35255
 C173 C 0.70920 -0.20891 0.68557
 C174 C 0.76832 -0.17338 0.65822
 H175 H 0.65014 -0.18802 0.67038
 H176 H 0.82773 -0.19159 0.67767
 C177 C 0.27393 -0.18099 0.28882
 C178 C 0.20612 -0.15678 0.30733
 H179 H 0.32805 -0.15217 0.31233
 H180 H 0.15156 -0.18228 0.28004
 C181 C 0.78591 0.20453 0.33506
 C182 C 0.72432 0.16557 0.35506
 H183 H 0.84392 0.19454 0.36675
 H184 H 0.66601 0.17763 0.32532
 C185 C 0.24353 0.19889 0.65309
 C186 C 0.17971 0.16924 0.60963
 H187 H 0.30039 0.17620 0.64784
 H188 H 0.12223 0.18932 0.61613
   
