data_POSCAR
  _audit_creation_date              2014-09-24
  _audit_creation_method            'ToBaCCo'
  _symmetry_space_group_name_H-M    'P1'
  _symmetry_Int_Tables_number       1
  _symmetry_cell_setting            triclinic
  loop_
  _symmetry_equiv_pos_as_xyz
 x,y,z
_cell_length_a 33.9083
_cell_length_b 34.4203
_cell_length_c 38.4142
_cell_angle_alpha 88.788700
_cell_angle_beta 99.982300
_cell_angle_gamma 82.383400
loop_
  _atom_site_label
  _atom_site_type_symbol
  _atom_site_fract_x
  _atom_site_fract_y
  _atom_site_fract_z
N1 N 0.32438 0.23591 0.15119
 N2 N 0.29459 0.25958 0.13192
 C3 C 0.30707 0.27317 0.10322
 C4 C 0.34680 0.25715 0.10443
 C5 C 0.35696 0.23349 0.13515
 H6 H 0.28879 0.29369 0.08320
 H7 H 0.38595 0.21637 0.14531
 Cu8 Cu 0.24273 0.27225 0.14648
 Cu9 Cu 0.31817 0.21110 0.19587
 Cu10 Cu 0.23206 0.24669 0.22880
 N11 N 0.19936 0.29813 0.16798
 N12 N 0.19575 0.28910 0.20059
 C13 C 0.16476 0.31340 0.20934
 C14 C 0.14828 0.33878 0.18052
 C15 C 0.17085 0.32821 0.15476
 H16 H 0.15528 0.31301 0.23480
 H17 H 0.16761 0.34220 0.12875
 N18 N 0.27259 0.20371 0.25286
 N19 N 0.30553 0.19026 0.24045
 C20 C 0.32613 0.16002 0.26181
 C21 C 0.30501 0.15413 0.28872
 C22 C 0.27128 0.18230 0.28231
 H23 H 0.35375 0.14270 0.25753
 H24 H 0.24709 0.18617 0.29745
 H25 H 0.25566 0.21661 0.18891
 H26 H 0.28019 0.25971 0.20618
 N27 N 0.62420 -0.23575 0.25126
 N28 N 0.64630 -0.26792 0.24404
 C29 C 0.63364 -0.27682 0.21047
 C30 C 0.60180 -0.24884 0.19567
 C31 C 0.59627 -0.22315 0.22232
 H32 H 0.64727 -0.30141 0.19752
 H33 H 0.57443 -0.19694 0.22059
 Cu34 Cu 0.69143 -0.29434 0.27786
 Cu35 Cu 0.63488 -0.21333 0.29786
 Cu36 Cu 0.73088 -0.24479 0.34627
 N37 N 0.74609 -0.31003 0.30287
 N38 N 0.76182 -0.29011 0.32935
 C39 C 0.80091 -0.30513 0.34005
 C40 C 0.81009 -0.33582 0.31885
 C41 C 0.77455 -0.33832 0.29564
 H42 H 0.82146 -0.29375 0.36086
 H43 H 0.77009 -0.35804 0.27419
 N44 N 0.69467 -0.19983 0.35914
 N45 N 0.65810 -0.18787 0.34096
 C46 C 0.64140 -0.15644 0.35631
 C47 C 0.66879 -0.14847 0.38546
 C48 C 0.70213 -0.17646 0.38648
 H49 H 0.61177 -0.14023 0.34678
 H50 H 0.72990 -0.17929 0.40560
 H51 H 0.69492 -0.22820 0.29741
 H52 H 0.67356 -0.25815 0.32860
 N53 N 0.77511 0.18202 0.85522
 N54 N 0.78723 0.21233 0.87216
 C55 C 0.76839 0.21772 0.90026
 C56 C 0.74404 0.18865 0.90120
 C57 C 0.74914 0.16649 0.87241
 H58 H 0.77226 0.24073 0.91877
 H59 H 0.73424 0.14146 0.86414
 Cu60 Cu 0.82688 0.24135 0.85604
 Cu61 Cu 0.79235 0.16565 0.81141
 Cu62 Cu 0.86663 0.21297 0.78459
 N63 N 0.86333 0.27150 0.83633
 N64 N 0.87716 0.26128 0.80743
 C65 C 0.90007 0.28786 0.79881
 C66 C 0.90107 0.31596 0.82400
 C67 C 0.87761 0.30465 0.84749
 H68 H 0.91532 0.28646 0.77627
 H69 H 0.87084 0.31991 0.87052
 N70 N 0.84394 0.16983 0.75896
 N71 N 0.81412 0.15311 0.76803
 C72 C 0.80395 0.12626 0.74422
 C73 C 0.82901 0.12586 0.71944
 C74 C 0.85400 0.15367 0.72956
 H75 H 0.78071 0.10778 0.74518
 H76 H 0.87732 0.16192 0.71609
 H77 H 0.84808 0.18265 0.82526
 H78 H 0.80924 0.21867 0.79653
 N79 N 0.28856 -0.22747 0.74777
 N80 N 0.27418 -0.25838 0.75857
 C81 C 0.28861 -0.26605 0.79315
 C82 C 0.31356 -0.23871 0.80487
 C83 C 0.31318 -0.21461 0.77538
 H84 H 0.28064 -0.28926 0.80889
 H85 H 0.32831 -0.18895 0.77437
 Cu86 Cu 0.23601 -0.28524 0.72776
 Cu87 Cu 0.27107 -0.20608 0.69890
 Cu88 Cu 0.17494 -0.22738 0.66453
 N89 N 0.18658 -0.30164 0.70296
 N90 N 0.16239 -0.27860 0.67828
 C91 C 0.12876 -0.29508 0.66747
 C92 C 0.13206 -0.33025 0.68662
 C93 C 0.16928 -0.33365 0.70881
 H94 H 0.10322 -0.28177 0.64810
 H95 H 0.18203 -0.35669 0.72873
 N96 N 0.19953 -0.18481 0.64499
 N97 N 0.23676 -0.17769 0.65673
 C98 C 0.24546 -0.14933 0.63559
 C99 C 0.21188 -0.13815 0.60954
 C100 C 0.18347 -0.16110 0.61639
 H101 H 0.27406 -0.13798 0.63875
 H102 H 0.15377 -0.16153 0.60076
 H103 H 0.21714 -0.21638 0.70818
 H104 H 0.23580 -0.24699 0.67336
 N105 N 0.66608 -0.22128 0.83704
 N106 N 0.69516 -0.24484 0.85725
 C107 C 0.68456 -0.25046 0.88895
 C108 C 0.64690 -0.22939 0.88846
 C109 C 0.63591 -0.21114 0.85516
 H110 H 0.70227 -0.26928 0.91053
 H111 H 0.60783 -0.19266 0.84463
 Cu112 Cu 0.74242 -0.26812 0.83908
 Cu113 Cu 0.66880 -0.20729 0.78819
 Cu114 Cu 0.75829 -0.24106 0.75905
 N115 N 0.78966 -0.29144 0.82093
 N116 N 0.79484 -0.28210 0.78881
 C117 C 0.82797 -0.30452 0.78175
 C118 C 0.84450 -0.32883 0.81126
 C119 C 0.81965 -0.31960 0.83567
 H120 H 0.83900 -0.30338 0.75701
 H121 H 0.82241 -0.33351 0.86165
 N122 N 0.71711 -0.19974 0.73329
 N123 N 0.68285 -0.18741 0.74409
 C124 C 0.66249 -0.15743 0.72236
 C125 C 0.68508 -0.15058 0.69684
 C126 C 0.71942 -0.17791 0.70441
 H127 H 0.63434 -0.14049 0.72588
 H128 H 0.74492 -0.18053 0.69076
 H129 H 0.70904 -0.25523 0.77761
 H130 H 0.73111 -0.21224 0.79784
 N131 N 0.36292 0.20797 0.75736
 N132 N 0.34494 0.23917 0.77032
 C133 C 0.36757 0.24634 0.80144
 C134 C 0.40130 0.21795 0.80787
 C135 C 0.39735 0.19424 0.77942
 H136 H 0.35981 0.26988 0.81829
 H137 H 0.41800 0.16874 0.77520
 Cu138 Cu 0.29273 0.26629 0.74604
 Cu139 Cu 0.34043 0.18752 0.71313
 Cu140 Cu 0.25253 0.22879 0.66588
 N141 N 0.24013 0.28866 0.71717
 N142 N 0.22482 0.27405 0.68703
 C143 C 0.18839 0.29466 0.67432
 C144 C 0.18027 0.32336 0.69761
 C145 C 0.21360 0.31883 0.72448
 H146 H 0.16891 0.28900 0.65008
 H147 H 0.21783 0.33588 0.74782
 N148 N 0.29086 0.19328 0.64492
 N149 N 0.32609 0.17830 0.66345
 C150 C 0.34614 0.15405 0.64349
 C151 C 0.32192 0.15319 0.61084
 C152 C 0.28692 0.17836 0.61252
 H153 H 0.37523 0.13663 0.65266
 H154 H 0.26023 0.18441 0.59219
 H155 H 0.30034 0.25074 0.69527
 H156 H 0.27317 0.21928 0.72018
 N157 N 0.22890 -0.19858 0.15062
 N158 N 0.20639 -0.21958 0.12927
 C159 C 0.22219 -0.22550 0.09981
 C160 C 0.25656 -0.20760 0.10286
 C161 C 0.26013 -0.19064 0.13541
 H162 H 0.21062 -0.24291 0.07827
 H163 H 0.28415 -0.17492 0.14757
 Cu164 Cu 0.16198 -0.24155 0.14405
 Cu165 Cu 0.21712 -0.18643 0.19767
 Cu166 Cu 0.12211 -0.20485 0.21140
 N167 N 0.11703 -0.26266 0.15882
 N168 N 0.10283 -0.24953 0.18674
 C169 C 0.07477 -0.27142 0.19370
 C170 C 0.07122 -0.29946 0.16855
 C171 C 0.09823 -0.29302 0.14676
 H172 H 0.05882 -0.26765 0.21573
 H173 H 0.10515 -0.31055 0.12499
 N174 N 0.15472 -0.17079 0.24108
 N175 N 0.19122 -0.16454 0.23672
 C176 C 0.20559 -0.14076 0.26191
 C177 C 0.17662 -0.13183 0.28287
 C178 C 0.14490 -0.15129 0.26898
 H179 H 0.23469 -0.13045 0.26461
 H180 H 0.11687 -0.15152 0.27874
 H181 H 0.17895 -0.22747 0.20634
 H182 H 0.15737 -0.18269 0.17764
 N183 N 0.73376 0.21051 0.25780
 N184 N 0.75144 0.23155 0.23752
 C185 C 0.72797 0.23764 0.20524
 C186 C 0.69406 0.21938 0.20547
 C187 C 0.69869 0.20256 0.23907
 H188 H 0.73519 0.25383 0.18328
 H189 H 0.67850 0.18488 0.24884
 Cu190 Cu 0.80364 0.24972 0.25485
 Cu191 Cu 0.75852 0.19100 0.30622
 Cu192 Cu 0.85258 0.21072 0.33369
 N193 N 0.84368 0.27616 0.28464
 N194 N 0.86224 0.26105 0.31585
 C195 C 0.88761 0.28526 0.33094
 C196 C 0.88488 0.31714 0.30786
 C197 C 0.85689 0.31046 0.27862
 H198 H 0.90687 0.27987 0.35661
 H199 H 0.84685 0.32906 0.25483
 N200 N 0.83178 0.16879 0.35605
 N201 N 0.79445 0.16182 0.34575
 C202 C 0.78636 0.13412 0.36765
 C203 C 0.82064 0.12302 0.39278
 C204 C 0.84898 0.14546 0.38467
 H205 H 0.75742 0.12361 0.36588
 H206 H 0.87908 0.14611 0.39943
 H207 H 0.78672 0.24039 0.30131
 H208 H 0.80658 0.19451 0.28136
 C209 C 0.33935 0.09401 0.46917
 C210 C 0.33713 0.09285 0.43315
 C211 C 0.31047 0.06676 0.42151
 N212 N 0.29609 0.05219 0.44902
 C213 C 0.31407 0.06847 0.47823
 C214 C 0.29778 0.05913 0.38570
 C215 C 0.27145 0.03157 0.37442
 C216 C 0.25154 0.02966 0.33995
 C217 C 0.22956 -0.00124 0.33960
 C218 C 0.23717 -0.01770 0.37375
 N219 N 0.26310 0.00222 0.39474
 C220 C 0.22108 -0.05100 0.38425
 C221 C 0.22380 -0.06363 0.41984
 C222 C 0.21320 -0.09893 0.43048
 C223 C 0.21699 -0.09893 0.46662
 C224 C 0.22975 -0.06363 0.47677
 N225 N 0.23385 -0.04204 0.44815
 C226 C 0.23429 -0.05090 0.51171
 C227 C 0.25124 -0.01674 0.52214
 C228 C 0.24954 0.00026 0.55426
 C229 C 0.26969 0.03244 0.55451
 C230 C 0.28279 0.03446 0.52232
 N231 N 0.27202 0.00395 0.50302
 C232 C 0.30609 0.06280 0.51267
 H233 H 0.35709 0.11200 0.48662
 H234 H 0.35273 0.10979 0.41725
 H235 H 0.28174 -0.00444 0.47980
 H236 H 0.25244 0.04870 0.31741
 H237 H 0.21020 -0.01045 0.31673
 H238 H 0.20359 -0.12220 0.41393
 H239 H 0.21079 -0.12214 0.48347
 H240 H 0.27413 0.05194 0.57611
 H241 H 0.27743 -0.00613 0.42041
 H242 H 0.23523 -0.00944 0.57535
 C243 C 0.80849 0.08888 0.53515
 C244 C 0.80824 0.09041 0.57074
 C245 C 0.79358 0.05689 0.58055
 N246 N 0.78472 0.03498 0.55219
 C247 C 0.79375 0.05461 0.52444
 C248 C 0.79112 0.04588 0.61560
 C249 C 0.77007 0.01510 0.62386
 C250 C 0.77353 -0.00213 0.65735
 C251 C 0.74746 -0.02979 0.65448
 C252 C 0.72911 -0.02898 0.61923
 N253 N 0.74262 -0.00113 0.60084
 C254 C 0.69928 -0.05243 0.60560
 C255 C 0.68603 -0.05682 0.56923
 C256 C 0.65533 -0.07800 0.55561
 C257 C 0.65421 -0.07830 0.51967
 C258 C 0.68436 -0.05739 0.51269
 N259 N 0.70396 -0.04456 0.54304
 C260 C 0.69560 -0.05363 0.47925
 C261 C 0.72610 -0.03160 0.47270
 C262 C 0.74311 -0.03327 0.44235
 C263 C 0.77044 -0.00680 0.44557
 C264 C 0.76896 0.01065 0.47756
 N265 N 0.74163 -0.00433 0.49379
 C266 C 0.79084 0.04129 0.48980
 H267 H 0.81808 0.11070 0.51898
 H268 H 0.81759 0.11370 0.58737
 H269 H 0.73101 0.00660 0.51590
 H270 H 0.79288 0.00435 0.68138
 H271 H 0.74263 -0.04829 0.67603
 H272 H 0.63635 -0.09248 0.57012
 H273 H 0.63425 -0.09310 0.50099
 H274 H 0.78897 -0.00083 0.42635
 H275 H 0.73080 0.00895 0.57498
 H276 H 0.73653 -0.05144 0.42003
 C277 C 0.54003 0.26412 0.10828
 C278 C 0.49987 0.27203 0.09331
 C279 C 0.49632 0.25764 0.05970
 N280 N 0.53290 0.24159 0.05341
 C281 C 0.55960 0.24558 0.08313
 C282 C 0.45943 0.25639 0.03657
 C283 C 0.45761 0.24501 0.00137
 C284 C 0.42433 0.23212 -0.01885
 C285 C 0.43448 0.22388 -0.05131
 C286 C 0.47348 0.23249 -0.05010
 N287 N 0.48730 0.24565 -0.01793
 C288 C 0.49497 0.22840 -0.07848
 C289 C 0.53686 0.22967 -0.07443
 C290 C 0.55781 0.23033 -0.10228
 C291 C 0.59810 0.22514 -0.08765
 C292 C 0.60033 0.22175 -0.05135
 N293 N 0.56285 0.22455 -0.04329
 C294 C 0.63632 0.21017 -0.02699
 C295 C 0.63781 0.20861 0.00993
 C296 C 0.66942 0.18868 0.03411
 C297 C 0.65920 0.19370 0.06706
 C298 C 0.62180 0.21690 0.06202
 N299 N 0.60923 0.22637 0.02714
 C300 C 0.60065 0.22916 0.08938
 H301 H 0.55333 0.27094 0.13475
 H302 H 0.47603 0.28623 0.10597
 H303 H 0.58406 0.24617 0.01605
 H304 H 0.39604 0.22815 -0.01078
 H305 H 0.41537 0.21234 -0.07304
 H306 H 0.54537 0.23298 -0.13028
 H307 H 0.62284 0.22269 -0.10222
 H308 H 0.67710 0.18117 0.09179
 H309 H 0.51402 0.25751 -0.01049
 H310 H 0.69670 0.17175 0.02855
 C311 C 0.41477 0.77527 0.09364
 C312 C 0.45586 0.77089 0.10570
 C313 C 0.47258 0.78756 0.07961
 N314 N 0.44333 0.80251 0.05239
 C315 C 0.40804 0.79446 0.06062
 C316 C 0.51421 0.78791 0.08040
 C317 C 0.52951 0.79939 0.05055
 C318 C 0.56788 0.80947 0.05184
 C319 C 0.57449 0.81079 0.01749
 C320 C 0.54019 0.80076 -0.00366
 N321 N 0.51264 0.79454 0.01667
 C322 C 0.53781 0.79100 -0.03944
 C323 C 0.50070 0.78733 -0.06151
 C324 C 0.49638 0.76842 -0.09318
 C325 C 0.45550 0.76985 -0.10505
 C326 C 0.43644 0.78967 -0.08027
 N327 N 0.46403 0.80080 -0.05396
 C328 C 0.39437 0.79626 -0.08123
 C329 C 0.37768 0.81098 -0.05229
 C330 C 0.33760 0.82675 -0.05433
 C331 C 0.33081 0.82914 -0.02008
 C332 C 0.36684 0.81415 0.00178
 N333 N 0.39545 0.80387 -0.01806
 C334 C 0.37026 0.80305 0.03788
 H335 H 0.39277 0.76421 0.10710
 H336 H 0.47162 0.75613 0.13032
 H337 H 0.42258 0.78579 -0.00939
 H338 H 0.58948 0.81360 0.07529
 H339 H 0.60226 0.81634 0.00926
 H340 H 0.52000 0.75364 -0.10573
 H341 H 0.44159 0.75684 -0.12865
 H342 H 0.30196 0.83834 -0.01225
 H343 H 0.48745 0.78054 0.00892
 H344 H 0.31513 0.83365 -0.07809
 C345 C 0.06690 0.54055 0.18728
 C346 C 0.07680 0.50054 0.18875
 C347 C 0.04705 0.48525 0.20304
 N348 N 0.01936 0.51445 0.21041
 C349 C 0.03156 0.54828 0.20088
 C350 C 0.04475 0.44487 0.20712
 C351 C 0.01728 0.43009 0.22591
 C352 C 0.00819 0.39206 0.22445
 C353 C -0.01832 0.38885 0.24734
 C354 C -0.02503 0.42517 0.26187
 N355 N -0.00274 0.44999 0.24903
 C356 C -0.04926 0.43353 0.28797
 C357 C -0.06105 0.47165 0.29854
 C358 C -0.08228 0.48005 0.32581
 C359 C -0.09023 0.52024 0.32606
 C360 C -0.07377 0.53486 0.29881
 N361 N -0.05627 0.50516 0.28183
 C362 C -0.07763 0.57492 0.28862
 C363 C -0.05985 0.58936 0.26130
 C364 C -0.07030 0.62677 0.24562
 C365 C -0.04573 0.62981 0.22095
 C366 C -0.02073 0.59430 0.22259
 N367 N -0.02928 0.56993 0.24747
 C368 C 0.01037 0.58611 0.20260
 H369 H 0.08403 0.56153 0.17762
 H370 H 0.10303 0.48459 0.18042
 H371 H -0.01238 0.54334 0.25711
 H372 H 0.01949 0.36894 0.20861
 H373 H -0.03082 0.36251 0.25273
 H374 H -0.09161 0.45940 0.34333
 H375 H -0.10686 0.53681 0.34380
 H376 H -0.04610 0.65535 0.20392
 H377 H 0.00212 0.47732 0.25840
 H378 H -0.09334 0.64946 0.25125
 C379 C 0.09257 0.47777 0.68377
 C380 C 0.08696 0.51812 0.68222
 C381 C 0.06376 0.52966 0.70746
 N382 N 0.05533 0.49790 0.72462
 C383 C 0.07250 0.46617 0.70986
 C384 C 0.05219 0.56899 0.71513
 C385 C 0.02607 0.58021 0.73913
 C386 C 0.02094 0.61719 0.75265
 C387 C -0.00792 0.61693 0.77383
 C388 C -0.01979 0.57993 0.77231
 N389 N 0.00082 0.55782 0.75090
 C390 C -0.05038 0.56817 0.78911
 C391 C -0.05774 0.52896 0.79155
 C392 C -0.09191 0.51761 0.80164
 C393 C -0.08659 0.47741 0.80291
 C394 C -0.04920 0.46560 0.79378
 N395 N -0.03156 0.49718 0.78680
 C396 C -0.03105 0.42621 0.79421
 C397 C 0.00333 0.41480 0.77864
 C398 C 0.02623 0.37802 0.78325
 C399 C 0.05536 0.37820 0.76231
 C400 C 0.04976 0.41526 0.74591
 N401 N 0.01776 0.43723 0.75569
 C402 C 0.07234 0.42680 0.72080
 H403 H 0.10973 0.45909 0.66776
 H404 H 0.09875 0.53683 0.66467
 H405 H 0.00384 0.46427 0.74421
 H406 H 0.03642 0.64177 0.74778
 H407 H -0.01905 0.64128 0.78846
 H408 H -0.11810 0.53634 0.80726
 H409 H -0.10800 0.45907 0.80958
 H410 H 0.07802 0.35378 0.75949
 H411 H -0.00521 0.53069 0.74177
 H412 H 0.02233 0.35349 0.79979
 N413 N 0.39072 0.28990 0.03323
 N414 N 0.36002 0.29059 0.05044
 C415 C 0.37235 0.26518 0.07862
 C416 C 0.41166 0.24882 0.07824
 N417 N 0.42205 0.26518 0.04957
 H418 H 0.43062 0.22683 0.09654
 N419 N 0.56839 0.73736 0.10647
 N420 N 0.59233 0.72662 0.13703
 C421 C 0.58181 0.75267 0.16066
 C422 C 0.55021 0.77991 0.14358
 N423 N 0.54291 0.76910 0.10978
 H424 H 0.53463 0.80516 0.15426
 N425 N 0.67574 0.15490 -0.04844
 N426 N 0.70381 0.14809 -0.06843
 C427 C 0.71699 0.18261 -0.07377
 C428 C 0.69618 0.21093 -0.05629
 N429 N 0.67079 0.19234 -0.04077
 H430 H 0.69664 0.24231 -0.05750
 N431 N 0.34619 0.75237 -0.10195
 N432 N 0.32461 0.74218 -0.13151
 C433 C 0.33270 0.76427 -0.15808
 C434 C 0.36023 0.78858 -0.14384
 N435 N 0.36781 0.78001 -0.10868
 H436 H 0.37330 0.81014 -0.15744
 N437 N 0.07237 0.42113 0.15567
 N438 N 0.09981 0.39329 0.14766
 C439 C 0.11534 0.37160 0.17774
 C440 C 0.09662 0.38694 0.20453
 N441 N 0.07005 0.41783 0.18963
 H442 H 0.10243 0.37743 0.23221
 N443 N 0.04521 0.62386 0.67249
 N444 N 0.06590 0.65178 0.66438
 C445 C 0.10253 0.64498 0.68549
 C446 C 0.10382 0.61169 0.70668
 N447 N 0.06750 0.59949 0.69762
 H448 H 0.12781 0.59869 0.72765
 N449 N -0.08827 0.62340 0.33262
 N450 N -0.11807 0.64799 0.34144
 C451 C -0.15216 0.64238 0.31929
 C452 C -0.14242 0.61341 0.29669
 N453 N -0.10237 0.60246 0.30595
 H454 H -0.16202 0.60214 0.27508
 N455 N -0.05761 0.40193 0.84438
 N456 N -0.07689 0.37308 0.85288
 C457 C -0.07911 0.34901 0.82560
 C458 C -0.06034 0.36393 0.80006
 N459 N -0.04753 0.39713 0.81277
 H460 H -0.05811 0.35302 0.77414
 N461 N 0.34538 0.07100 0.34716
 N462 N 0.34834 0.09573 0.32111
 C463 C 0.31489 0.12263 0.31657
 C464 C 0.29129 0.11372 0.34073
 N465 N 0.31141 0.08136 0.35920
 H466 H 0.26193 0.12838 0.34386
 N467 N 0.85080 0.07250 0.64515
 N468 N 0.86176 0.09424 0.67223
 C469 C 0.82983 0.10112 0.68886
 C470 C 0.79881 0.08293 0.67114
 N471 N 0.81311 0.06549 0.64392
 H472 H 0.76841 0.08371 0.67652
 N473 N 0.17806 -0.07620 0.53184
 N474 N 0.17107 -0.09936 0.55736
 C475 C 0.20669 -0.10988 0.57929
 C476 C 0.23597 -0.09228 0.56643
 N477 N 0.21674 -0.07160 0.53675
 H478 H 0.26811 -0.09548 0.57663
 N479 N 0.63973 -0.06420 0.43255
 N480 N 0.63144 -0.08893 0.40714
 C481 C 0.66432 -0.11628 0.40964
 C482 C 0.69299 -0.10771 0.43743
 N483 N 0.67653 -0.07498 0.45086
 H484 H 0.72315 -0.12306 0.44654
 N485 N 0.60579 0.75549 -0.03410
 N486 N 0.63552 0.74944 -0.05240
 C487 C 0.62313 0.77075 -0.08309
 C488 C 0.58485 0.79025 -0.08309
 N489 N 0.57510 0.77981 -0.05202
 H490 H 0.56581 0.80960 -0.10366
 N491 N 0.48824 0.18490 -0.12747
 N492 N 0.46413 0.18127 -0.15783
 C493 C 0.43441 0.21200 -0.16164
 C494 C 0.44099 0.23482 -0.13263
 N495 N 0.47494 0.21677 -0.11195
 H496 H 0.42310 0.26166 -0.12706
 N497 N 0.30919 0.77236 0.03165
 N498 N 0.27845 0.76915 0.04795
 C499 C 0.28423 0.78980 0.07736
 C500 C 0.31967 0.80590 0.07872
 N501 N 0.33427 0.79421 0.04959
 H502 H 0.33340 0.82418 0.09862
 N503 N 0.60476 0.20074 0.14861
 N504 N 0.62875 0.19768 0.17988
 C505 C 0.66036 0.21653 0.17648
 C506 C 0.65512 0.23132 0.14205
 N507 N 0.62006 0.22070 0.12556
 H508 H 0.67462 0.24805 0.13017
 N509 N -0.07915 0.59330 0.83931
 N510 N -0.10810 0.62035 0.84596
 C511 C -0.12239 0.64183 0.81556
 C512 C -0.10100 0.62737 0.79000
 N513 N -0.07446 0.59698 0.80594
 H514 H -0.10601 0.63613 0.76218
 N515 N -0.04731 0.38550 0.33596
 N516 N -0.06417 0.35405 0.34216
 C517 C -0.09175 0.35009 0.31307
 C518 C -0.09158 0.38014 0.28890
 N519 N -0.06335 0.40139 0.30415
 H520 H -0.10884 0.38517 0.26234
 N521 N 0.08358 0.38140 0.67464
 N522 N 0.11170 0.35366 0.66753
 C523 C 0.14314 0.35150 0.69469
 C524 C 0.13351 0.37883 0.71874
 N525 N 0.09614 0.39671 0.70520
 H526 H 0.15142 0.38479 0.74373
 N527 N 0.02315 0.61620 0.14838
 N528 N 0.03959 0.64641 0.13833
 C529 C 0.04773 0.66768 0.16711
 C530 C 0.03584 0.64967 0.19518
 N531 N 0.02075 0.61760 0.18238
 H532 H 0.04049 0.65732 0.22265
 N533 N 0.64837 -0.06509 0.64064
 N534 N 0.64345 -0.09093 0.66507
 C535 C 0.67665 -0.11816 0.67005
 C536 C 0.70207 -0.10838 0.64796
 N537 N 0.68339 -0.07512 0.63023
 H538 H 0.73178 -0.12303 0.64579
 N539 N 0.15997 -0.07690 0.35761
 N540 N 0.14716 -0.09853 0.33101
 C541 C 0.17827 -0.10721 0.31363
 C542 C 0.21068 -0.09022 0.33033
 N543 N 0.19792 -0.07157 0.35762
 H544 H 0.24067 -0.09185 0.32387
 N545 N 0.85029 0.06390 0.47250
 N546 N 0.85938 0.08586 0.44706
 C547 C 0.82483 0.09610 0.42364
 C548 C 0.79428 0.07980 0.43535
 N549 N 0.81141 0.05994 0.46585
 H550 H 0.76246 0.08340 0.42383
 N551 N 0.36069 0.08022 0.55680
 N552 N 0.36605 0.10402 0.58334
 C553 C 0.33028 0.12667 0.58282
 C554 C 0.30276 0.11621 0.55505
 N555 N 0.32294 0.08705 0.53965
 H556 H 0.27073 0.12670 0.54819
   
