data_POSCAR
  _audit_creation_date              2014-09-24
  _audit_creation_method            'ToBaCCo'
  _symmetry_space_group_name_H-M    'P1'
  _symmetry_Int_Tables_number       1
  _symmetry_cell_setting            triclinic
  loop_
  _symmetry_equiv_pos_as_xyz
 x,y,z
_cell_length_a 29.6239
_cell_length_b 31.1055
_cell_length_c 19.3877
_cell_angle_alpha 90.164700
_cell_angle_beta 88.731900
_cell_angle_gamma 89.576600
loop_
  _atom_site_label
  _atom_site_type_symbol
  _atom_site_fract_x
  _atom_site_fract_y
  _atom_site_fract_z
C1 C 0.16925 0.26307 0.06874
 C2 C 0.17248 0.21908 0.06555
 C3 C 0.19231 0.20572 0.12608
 N4 N 0.20338 0.24035 0.16435
 C5 C 0.18923 0.27543 0.12951
 C6 C 0.19767 0.16255 0.14843
 C7 C 0.23004 0.15170 0.19863
 C8 C 0.23020 0.11398 0.23698
 C9 C 0.26796 0.11469 0.27655
 C10 C 0.28997 0.15290 0.26201
 N11 N 0.26650 0.17546 0.21477
 C12 C 0.33108 0.16579 0.29143
 C13 C 0.34423 0.20943 0.29040
 C14 C 0.38779 0.22456 0.29822
 C15 C 0.38450 0.26844 0.30271
 C16 C 0.33931 0.27863 0.29524
 N17 N 0.31473 0.24264 0.28724
 C18 C 0.32070 0.32016 0.30227
 C19 C 0.27814 0.33079 0.27524
 C20 C 0.25294 0.36742 0.29081
 C21 C 0.21585 0.36669 0.24907
 C22 C 0.21922 0.32933 0.20995
 N23 N 0.25727 0.30778 0.22614
 C24 C 0.19031 0.31772 0.15616
 H25 H 0.15405 0.28328 0.03028
 H26 H 0.16141 0.19937 0.02318
 H27 H 0.27076 0.28129 0.19968
 H28 H 0.20534 0.08868 0.23775
 H29 H 0.27742 0.09015 0.31306
 H30 H 0.41871 0.20598 0.30108
 H31 H 0.41215 0.29039 0.31034
 H32 H 0.18979 0.39119 0.24715
 H33 H 0.27694 0.20365 0.19044
 H34 H 0.26063 0.39237 0.32762
 C35 C 0.83740 0.24459 0.08868
 C36 C 0.84234 0.28832 0.09480
 C37 C 0.82447 0.29966 0.15897
 N38 N 0.80933 0.26434 0.19258
 C39 C 0.81768 0.23052 0.15003
 C40 C 0.82526 0.34138 0.18792
 C41 C 0.79735 0.35271 0.24556
 C42 C 0.80256 0.38839 0.28787
 C43 C 0.76558 0.38989 0.33213
 C44 C 0.73975 0.35435 0.31713
 N45 N 0.75923 0.33181 0.26467
 C46 C 0.69812 0.34436 0.34911
 C47 C 0.68083 0.30237 0.35084
 C48 C 0.63807 0.29182 0.37525
 C49 C 0.63575 0.24794 0.37382
 C50 C 0.67738 0.23302 0.34900
 N51 N 0.70489 0.26648 0.33467
 C52 C 0.69018 0.18919 0.34306
 C53 C 0.72927 0.17640 0.30422
 C54 C 0.75276 0.13794 0.31173
 C55 C 0.78656 0.13726 0.26205
 C56 C 0.78370 0.17580 0.22674
 N57 N 0.74898 0.19965 0.25295
 C58 C 0.81123 0.18708 0.16939
 H59 H 0.84759 0.22545 0.04426
 H60 H 0.85717 0.30938 0.05632
 H61 H 0.73672 0.22822 0.23221
 H62 H 0.82995 0.41118 0.28722
 H63 H 0.75875 0.41400 0.37143
 H64 H 0.61139 0.31349 0.39265
 H65 H 0.60648 0.22933 0.38900
 H66 H 0.81095 0.11159 0.25362
 H67 H 0.74456 0.30630 0.23861
 H68 H 0.74673 0.11301 0.34954
 C69 C 0.61306 0.71942 0.67738
 C70 C 0.61526 0.76328 0.67073
 C71 C 0.65987 0.77429 0.68082
 N72 N 0.68492 0.73886 0.69330
 C73 C 0.65647 0.70528 0.69086
 C74 C 0.67789 0.81595 0.67484
 C75 C 0.71951 0.82680 0.70401
 C76 C 0.74285 0.86451 0.69123
 C77 C 0.77828 0.86513 0.73588
 C78 C 0.77559 0.82770 0.77452
 N79 N 0.74002 0.80432 0.75422
 C80 C 0.80171 0.81826 0.83261
 C81 C 0.80614 0.77547 0.85654
 C82 C 0.81995 0.76304 0.92130
 C83 C 0.82126 0.71880 0.92101
 C84 C 0.80847 0.70561 0.85590
 N85 N 0.79857 0.74034 0.81704
 C86 C 0.80619 0.66244 0.83187
 C87 C 0.77415 0.65068 0.78163
 C88 C 0.77355 0.61185 0.74568
 C89 C 0.73464 0.61144 0.70837
 C90 C 0.71289 0.65024 0.72110
 N91 N 0.73711 0.67406 0.76547
 C92 C 0.67064 0.66200 0.69440
 H93 H 0.58302 0.70018 0.67234
 H94 H 0.58724 0.78456 0.66001
 H95 H 0.72646 0.70265 0.78899
 H96 H 0.73456 0.88954 0.65486
 H97 H 0.80260 0.89072 0.74042
 H98 H 0.82702 0.78346 0.96494
 H99 H 0.82931 0.69870 0.96457
 H100 H 0.72381 0.58564 0.67516
 H101 H 0.72704 0.77769 0.78010
 H102 H 0.79830 0.58613 0.74587
 C103 C 0.17066 0.73793 0.91836
 C104 C 0.17120 0.78193 0.92081
 C105 C 0.18696 0.79590 0.85671
 N106 N 0.19576 0.76158 0.81533
 C107 C 0.18561 0.72613 0.85268
 C108 C 0.18761 0.83924 0.83379
 C109 C 0.21964 0.85347 0.78270
 C110 C 0.22768 0.89603 0.76413
 C111 C 0.26380 0.89601 0.71846
 C112 C 0.27793 0.85374 0.71117
 N113 N 0.25153 0.82827 0.75133
 C114 C 0.31575 0.84012 0.67074
 C115 C 0.32657 0.79643 0.65795
 C116 C 0.36696 0.78165 0.62866
 C117 C 0.36262 0.73817 0.62013
 C118 C 0.31997 0.72780 0.64529
 N119 N 0.29794 0.76337 0.66824
 C120 C 0.30079 0.68665 0.64269
 C121 C 0.26127 0.67602 0.68065
 C122 C 0.23326 0.64195 0.66599
 C123 C 0.20048 0.64124 0.71738
 C124 C 0.21019 0.67419 0.76318
 N125 N 0.24677 0.69583 0.73939
 C126 C 0.18653 0.68365 0.82603
 H127 H 0.16042 0.71715 0.96046
 H128 H 0.16157 0.80103 0.96550
 H129 H 0.26369 0.71989 0.76576
 H130 H 0.21165 0.92489 0.78418
 H131 H 0.27880 0.92421 0.69508
 H132 H 0.39650 0.80020 0.61462
 H133 H 0.38801 0.71667 0.59814
 H134 H 0.17240 0.61922 0.71990
 H135 H 0.25766 0.79610 0.76150
 H136 H 0.23589 0.62021 0.62238
 O137 O 0.94860 0.01795 0.09567
 O138 O 1.04399 -0.04443 0.02098
 O139 O 1.03392 0.03155 0.07156
 O140 O 0.95934 -0.06052 0.04180
 O141 O 0.94180 -0.03343 -0.05934
 O142 O 1.01930 0.05699 -0.03201
 O143 O 1.02780 -0.02015 -0.08262
 O144 O 0.93562 0.04569 -0.00685
 Cu145 Cu 0.99735 -0.01655 0.06807
 Cu146 Cu 0.97902 0.01437 -0.05574
 C147 C 0.92786 0.04444 0.05777
 C148 C 1.05215 -0.04289 -0.04347
 C149 C 1.03949 0.05975 0.02486
 C150 C 0.93872 -0.06318 -0.01468
 O151 O 0.43979 0.49760 0.60501
 O152 O 0.53378 0.43674 0.52535
 O153 O 0.52727 0.50408 0.60482
 O154 O 0.44599 0.43330 0.51924
 O155 O 0.44622 0.47628 0.42880
 O156 O 0.52653 0.54704 0.51438
 O157 O 0.53441 0.48013 0.43535
 O158 O 0.43885 0.54081 0.51485
 Cu159 Cu 0.48671 0.46351 0.57248
 Cu160 Cu 0.48632 0.51536 0.46423
 C161 C 0.42334 0.52962 0.57381
 C162 C 0.55052 0.44814 0.46758
 C163 C 0.54086 0.53766 0.57375
 C164 C 0.43225 0.44278 0.45950
 O165 O -0.03098 0.45975 -0.00542
 O166 O 0.06079 0.52973 -0.06546
 O167 O 0.05689 0.45636 -0.00216
 O168 O -0.02691 0.53732 -0.05879
 O169 O -0.02330 0.56941 0.04272
 O170 O 0.05573 0.48658 0.10106
 O171 O 0.06311 0.56043 0.03726
 O172 O -0.03243 0.49257 0.09577
 Cu173 Cu 0.01464 0.49263 -0.04310
 Cu174 Cu 0.01586 0.53009 0.07961
 C175 C -0.04751 0.46417 0.05500
 C176 C 0.07768 0.55692 -0.02471
 C177 C 0.07042 0.45786 0.05966
 C178 C -0.03833 0.56784 -0.01785
 O179 O 0.55650 0.99825 0.38535
 O180 O 0.46100 0.94382 0.47166
 O181 O 0.46926 1.00788 0.38639
 O182 O 0.54831 0.93429 0.47192
 O183 O 0.55226 0.97948 0.55961
 O184 O 0.47243 1.05213 0.47541
 O185 O 0.46514 0.98809 0.56051
 O186 O 0.55950 1.04340 0.47318
 Cu187 Cu 0.50846 0.96647 0.42000
 Cu188 Cu 0.51284 1.02030 0.52599
 C189 C 0.57379 1.03064 0.41425
 C190 C 0.44693 0.95647 0.53077
 C191 C 0.45740 1.04260 0.41650
 C192 C 0.56347 0.94428 0.53062
 C193 C 1.17060 0.12866 0.12333
 C194 C 1.12901 0.13301 0.09819
 C195 C 1.10249 0.09475 0.08135
 C196 C 1.06855 0.09689 0.03739
 H197 H 1.11246 0.16397 0.09469
 H198 H 1.11084 0.06437 0.10543
 H199 H 1.18289 0.09598 0.12897
 H200 H 1.06206 0.12646 0.00973
 C201 C 0.64142 0.62758 0.66682
 C202 C 0.62287 0.63096 0.60458
 C203 C 0.59189 0.59951 0.57406
 C204 C 0.57347 0.56598 0.60740
 H205 H 0.63059 0.65886 0.57326
 H206 H 0.58266 0.60574 0.52124
 H207 H 0.63744 0.59871 0.69716
 H208 H 0.58165 0.55906 0.66029
 C209 C -0.14085 0.37214 0.15906
 C210 C -0.14843 0.41452 0.15244
 C211 C -0.11287 0.44450 0.12897
 C212 C -0.08368 0.43487 0.07753
 H213 H -0.18057 0.42836 0.16864
 H214 H -0.11217 0.47603 0.15280
 H215 H -0.10841 0.35899 0.14247
 H216 H -0.08709 0.40493 0.04945
 C217 C 0.34532 0.87349 0.63954
 C218 C 0.35411 0.87398 0.57137
 C219 C 0.38781 0.90163 0.53645
 C220 C 0.40991 0.93379 0.56663
 H221 H 0.33797 0.85035 0.53914
 H222 H 0.39568 0.89367 0.48308
 H223 H 0.35961 0.89698 0.67372
 H224 H 0.40190 0.94341 0.61911
 C225 C -0.16538 0.62944 -0.14218
 C226 C -0.12591 0.63555 -0.11117
 C227 C -0.09796 0.59861 -0.09000
 C228 C -0.06794 0.60306 -0.04027
 H229 H -0.11257 0.66742 -0.10348
 H230 H -0.10263 0.56749 -0.11406
 H231 H -0.17478 0.59628 -0.15038
 H232 H -0.06576 0.63355 -0.01333
 C233 C 0.35801 1.13395 0.32321
 C234 C 0.38412 1.14175 0.37764
 C235 C 0.41271 1.10926 0.41126
 C236 C 0.42633 1.07219 0.38181
 H237 H 0.38302 1.17299 0.40235
 H238 H 0.42493 1.11779 0.46171
 H239 H 0.35439 1.10098 0.30650
 H240 H 0.41602 1.06369 0.33041
 C241 C 1.15505 -0.13232 -0.13603
 C242 C 1.13381 -0.10096 -0.17060
 C243 C 1.09737 -0.07363 -0.14007
 C244 C 1.09012 -0.06843 -0.07203
 H245 H 1.13973 -0.09743 -0.22555
 H246 H 1.07589 -0.05692 -0.17587
 H247 H 1.14145 -0.13985 -0.08559
 H248 H 1.11202 -0.08361 -0.03529
 C249 C 0.67195 0.37821 0.38605
 C250 C 0.64929 0.40831 0.35133
 C251 C 0.61285 0.43522 0.38277
 C252 C 0.58883 0.42315 0.43880
 H253 H 0.65599 0.41203 0.29651
 H254 H 0.60343 0.46421 0.35565
 H255 H 0.66630 0.37390 0.44088
 H256 H 0.59657 0.39334 0.46469
 C257 C 0.82219 -0.14426 -0.13169
 C258 C 0.86202 -0.14469 -0.10063
 C259 C 0.88238 -0.10386 -0.07877
 C260 C 0.91324 -0.10252 -0.02970
 H261 H 0.88113 -0.17424 -0.09531
 H262 H 0.87258 -0.07445 -0.10458
 H263 H 0.80502 -0.11351 -0.13627
 H264 H 0.92118 -0.13145 -0.00124
 C265 C 0.34612 0.35118 0.34461
 C266 C 0.35462 0.39161 0.32489
 C267 C 0.38481 0.42106 0.36230
 C268 C 0.40000 0.41401 0.42613
 H269 H 0.34136 0.40301 0.27659
 H270 H 0.39514 0.44981 0.33500
 H271 H 0.36210 0.33807 0.38954
 H272 H 0.38908 0.38644 0.45564
 C273 C 0.16012 0.65235 -0.13887
 C274 C 0.16723 0.60966 -0.14199
 C275 C 0.13563 0.57867 -0.11005
 C276 C 0.11336 0.58591 -0.05012
 H277 H 0.19538 0.59626 -0.17147
 H278 H 0.13078 0.54870 -0.13742
 H279 H 0.13243 0.66366 -0.10612
 H280 H 0.12067 0.61413 -0.01959
 C281 C 0.66382 1.15910 0.38056
 C282 C 0.65658 1.11842 0.36102
 C283 C 0.62498 1.09171 0.40157
 C284 C 0.60983 1.05432 0.37762
 H285 H 0.67056 1.10597 0.31282
 H286 H 0.61193 1.10412 0.45047
 H287 H 0.64481 1.17060 0.42545
 H288 H 0.62204 1.04222 0.32809
 C289 C 0.15704 0.35000 0.13248
 C290 C 0.15861 0.36651 0.06870
 C291 C 0.12546 0.39835 0.04356
 C292 C 0.10321 0.42616 0.08513
 H293 H 0.18411 0.35496 0.03213
 H294 H 0.12084 0.39992 -0.01164
 H295 H 0.13145 0.36053 0.16957
 H296 H 0.11000 0.42691 0.13974
 C297 C 0.65208 0.85029 0.63969
 C298 C 0.63326 0.84400 0.57819
 C299 C 0.60603 0.87634 0.54128
 C300 C 0.59365 0.91478 0.56717
 H301 H 0.63766 0.81308 0.55296
 H302 H 0.59432 0.86688 0.49096
 H303 H 0.65090 0.88147 0.66430
 H304 H 0.60413 0.92494 0.61760
 C305 C 0.83424 0.15125 0.13084
 C306 C 0.87722 0.15315 0.10847
 C307 C 0.90009 0.11769 0.07088
 C308 C 0.89719 0.07640 0.08994
 H309 H 0.89642 0.18223 0.11552
 H310 H 0.92446 0.12670 0.03106
 H311 H 0.81578 0.12164 0.12405
 H312 H 0.87731 0.06750 0.13518
 C313 C 0.32323 0.65431 0.59700
 C314 C 0.33612 0.61601 0.62065
 C315 C 0.36785 0.58886 0.58012
 C316 C 0.38666 0.55416 0.60825
 H317 H 0.32658 0.60656 0.67274
 H318 H 0.37820 0.59894 0.52870
 H319 H 0.33516 0.66461 0.54644
 H320 H 0.37637 0.54454 0.65994
   
