data_POSCAR
  _audit_creation_date              2014-09-24
  _audit_creation_method            'ToBaCCo'
  _symmetry_space_group_name_H-M    'P1'
  _symmetry_Int_Tables_number       1
  _symmetry_cell_setting            triclinic
  loop_
  _symmetry_equiv_pos_as_xyz
 x,y,z
_cell_length_a 29.0487
_cell_length_b 29.0487
_cell_length_c 24.0030
_cell_angle_alpha 89.943600
_cell_angle_beta 89.943200
_cell_angle_gamma 89.999000
loop_
  _atom_site_label
  _atom_site_type_symbol
  _atom_site_fract_x
  _atom_site_fract_y
  _atom_site_fract_z
O1 O 0.04404 0.29955 -0.05276
 O2 O -0.04736 0.29855 0.05559
 O3 O 0.04381 0.29913 0.05564
 O4 O -0.04710 0.29914 -0.05286
 O5 O -0.04580 0.22301 -0.05255
 O6 O 0.04332 0.22300 0.05448
 O7 O -0.04602 0.22245 0.05443
 O8 O 0.04352 0.22342 -0.05245
 Cu9 Cu -0.00170 0.30692 0.00145
 Cu10 Cu -0.00121 0.21544 0.00094
 C11 C 0.05968 0.26125 -0.06995
 C12 C -0.06259 0.25994 0.07237
 C13 C 0.05941 0.26068 0.07239
 C14 C -0.06225 0.26068 -0.07009
 O15 O 0.54605 0.79935 0.44514
 O16 O 0.45502 0.79958 0.55386
 O17 O 0.54622 0.79914 0.55364
 O18 O 0.45483 0.79945 0.44539
 O19 O 0.45552 0.72333 0.44615
 O20 O 0.54511 0.72303 0.55297
 O21 O 0.45568 0.72345 0.55320
 O22 O 0.54496 0.72323 0.44590
 Cu23 Cu 0.50056 0.80719 0.49950
 Cu24 Cu 0.50030 0.71574 0.49956
 C25 C 0.56135 0.76088 0.42810
 C26 C 0.43950 0.76118 0.57094
 C27 C 0.56156 0.76064 0.57066
 C28 C 0.43927 0.76105 0.42843
 O29 O 1.04796 0.70185 0.05394
 O30 O 0.95682 0.70101 -0.05461
 O31 O 1.04806 0.70193 -0.05458
 O32 O 0.95674 0.70127 0.05386
 O33 O 0.95707 0.77740 0.05298
 O34 O 1.04646 0.77803 -0.05407
 O35 O 0.95704 0.77713 -0.05404
 O36 O 1.04648 0.77794 0.05301
 Cu37 Cu 1.00247 0.69371 -0.00033
 Cu38 Cu 1.00171 0.78514 -0.00055
 C39 C 1.06309 0.74042 0.07090
 C40 C 0.94104 0.73930 -0.07170
 C41 C 1.06315 0.74050 -0.07171
 C42 C 0.94101 0.73962 0.07078
 O43 O 0.54480 0.19984 0.55429
 O44 O 0.45392 0.19990 0.44573
 O45 O 0.54507 0.19996 0.44589
 O46 O 0.45367 0.20002 0.55421
 O47 O 0.45463 0.27614 0.55337
 O48 O 0.54422 0.27608 0.44652
 O49 O 0.45487 0.27603 0.44635
 O50 O 0.54396 0.27597 0.55348
 Cu51 Cu 0.49934 0.19210 0.50003
 Cu52 Cu 0.49941 0.28359 0.49992
 C53 C 0.56020 0.23828 0.57126
 C54 C 0.43860 0.23836 0.42863
 C55 C 0.56055 0.23840 0.42887
 C56 C 0.43828 0.23849 0.57118
 O57 O 0.70040 0.04406 -0.05301
 O58 O 0.70165 -0.04742 0.05521
 O59 O 0.70104 0.04376 0.05540
 O60 O 0.70111 -0.04706 -0.05324
 O61 O 0.77723 -0.04560 -0.05319
 O62 O 0.77717 0.04337 0.05400
 O63 O 0.77775 -0.04598 0.05379
 O64 O 0.77653 0.04370 -0.05295
 Cu65 Cu 0.69322 -0.00173 0.00118
 Cu66 Cu 0.78470 -0.00108 0.00036
 C67 C 0.73865 0.05978 -0.07033
 C68 C 0.74029 -0.06263 0.07182
 C69 C 0.73948 0.05940 0.07206
 C70 C 0.73959 -0.06211 -0.07063
 O71 O 0.20028 0.54594 0.44564
 O72 O 0.20032 0.45495 0.55443
 O73 O 0.20040 0.54615 0.55419
 O74 O 0.20042 0.45472 0.44598
 O75 O 0.27654 0.45562 0.44660
 O76 O 0.27651 0.54527 0.55336
 O77 O 0.27644 0.45584 0.55363
 O78 O 0.27640 0.54506 0.44625
 Cu79 Cu 0.19255 0.50045 0.50007
 Cu80 Cu 0.28399 0.50047 0.49995
 C81 C 0.23872 0.56132 0.42849
 C82 C 0.23876 0.43954 0.57144
 C83 C 0.23884 0.56159 0.57115
 C84 C 0.23887 0.43924 0.42898
 O85 O 0.29832 1.04788 0.05432
 O86 O 0.29893 0.95681 -0.05435
 O87 O 0.29828 1.04807 -0.05421
 O88 O 0.29887 0.95667 0.05411
 O89 O 0.22275 0.95710 0.05347
 O90 O 0.22217 1.04662 -0.05343
 O91 O 0.22281 0.95718 -0.05353
 O92 O 0.22222 1.04650 0.05365
 Cu93 Cu 0.30641 1.00242 -0.00005
 Cu94 Cu 0.21498 1.00181 0.00004
 C95 C 0.25978 1.06303 0.07144
 C96 C 0.26059 0.94111 -0.07131
 C97 C 0.25973 1.06326 -0.07117
 C98 C 0.26052 0.94097 0.07112
 O99 O 0.80004 0.54474 0.55372
 O100 O 0.79969 0.45382 0.44522
 O101 O 0.79989 0.54496 0.44529
 O102 O 0.79948 0.45360 0.55366
 O103 O 0.72336 0.45482 0.55298
 O104 O 0.72376 0.54435 0.44607
 O105 O 0.72357 0.45501 0.44600
 O106 O 0.72391 0.54416 0.55305
 Cu107 Cu 0.80761 0.49925 0.49946
 Cu108 Cu 0.71611 0.49962 0.49953
 C109 C 0.76165 0.56027 0.57076
 C110 C 0.76119 0.43859 0.42824
 C111 C 0.76150 0.56054 0.42832
 C112 C 0.76095 0.43834 0.57069
 C113 C 0.23420 0.17563 0.16011
 C114 C 0.19371 0.19454 0.13894
 C115 C 0.17482 0.23477 0.16083
 C116 C 0.19682 0.25737 0.20541
 C117 C 0.23810 0.23854 0.22753
 C118 C 0.25695 0.19741 0.20483
 C119 C 0.29775 0.17938 0.22740
 C120 C 0.31981 0.20129 0.27160
 C121 C 0.30178 0.24198 0.29460
 C122 C 0.26055 0.26086 0.27239
 C123 C 0.17880 0.29806 0.22837
 C124 C 0.20093 0.32006 0.27244
 C125 C 0.24175 0.30204 0.29499
 C126 C 0.26453 0.32390 0.33961
 C127 C 0.30490 0.30490 0.36098
 C128 C 0.32370 0.26454 0.33929
 H129 H 0.31289 0.14813 0.21099
 H130 H 0.35116 0.18615 0.28768
 H131 H 0.14742 0.31319 0.21235
 H132 H 0.18582 0.35133 0.28879
 H133 H 0.17644 0.17749 0.10453
 H134 H 0.32214 0.32198 0.39539
 C135 C 0.73582 0.67573 0.33881
 C136 C 0.69539 0.69459 0.36025
 C137 C 0.67651 0.73494 0.33860
 C138 C 0.69849 0.75763 0.29391
 C139 C 0.73977 0.73883 0.27161
 C140 C 0.75859 0.69764 0.29415
 C141 C 0.79942 0.67966 0.27150
 C142 C 0.82155 0.70170 0.22736
 C143 C 0.80355 0.74243 0.20446
 C144 C 0.76226 0.76123 0.22673
 C145 C 0.68049 0.79836 0.27101
 C146 C 0.70261 0.82039 0.22684
 C147 C 0.74343 0.80241 0.20418
 C148 C 0.76621 0.82431 0.15950
 C149 C 0.80667 0.80545 0.13811
 C150 C 0.82555 0.76512 0.15981
 H151 H 0.81454 0.64836 0.28782
 H152 H 0.85293 0.68660 0.21125
 H153 H 0.64911 0.81346 0.28714
 H154 H 0.68749 0.85169 0.21051
 H155 H 0.67816 0.67741 0.39468
 H156 H 0.82392 0.82262 0.10369
 C157 C 0.82446 0.23401 0.16030
 C158 C 0.80564 0.19354 0.13902
 C159 C 0.76533 0.17465 0.16080
 C160 C 0.74262 0.19662 0.20537
 C161 C 0.76138 0.23790 0.22753
 C162 C 0.80255 0.25676 0.20493
 C163 C 0.82052 0.29758 0.22750
 C164 C 0.79846 0.31966 0.27163
 C165 C 0.75774 0.30161 0.29455
 C166 C 0.73895 0.26035 0.27234
 C167 C 0.70189 0.17858 0.22828
 C168 C 0.67980 0.20068 0.27234
 C169 C 0.69776 0.24151 0.29490
 C170 C 0.67581 0.26427 0.33949
 C171 C 0.69467 0.30469 0.36086
 C172 C 0.73503 0.32355 0.33917
 H173 H 0.85180 0.31273 0.21115
 H174 H 0.81355 0.35103 0.28770
 H175 H 0.68681 0.14719 0.21223
 H176 H 0.64850 0.18554 0.28866
 H177 H 0.82281 0.17630 0.10463
 H178 H 0.67749 0.32192 0.39525
 C179 C 0.17580 0.76599 0.15933
 C180 C 0.19473 0.80647 0.13804
 C181 C 0.23498 0.82536 0.15986
 C182 C 0.25757 0.80333 0.20452
 C183 C 0.23871 0.76204 0.22674
 C184 C 0.19758 0.74322 0.20409
 C185 C 0.17953 0.70240 0.22675
 C186 C 0.20144 0.68031 0.27100
 C187 C 0.24212 0.69830 0.29397
 C188 C 0.26101 0.73955 0.27167
 C189 C 0.29825 0.82132 0.22747
 C190 C 0.32022 0.79917 0.27161
 C191 C 0.30218 0.75835 0.29425
 C192 C 0.32401 0.73556 0.33894
 C193 C 0.30503 0.69517 0.36038
 C194 C 0.26468 0.67634 0.33872
 H195 H 0.14828 0.68729 0.21037
 H196 H 0.18628 0.64895 0.28713
 H197 H 0.31339 0.85270 0.21138
 H198 H 0.35149 0.81427 0.28795
 H199 H 0.17767 0.82375 0.10360
 H200 H 0.32211 0.67792 0.39484
 C201 C 0.82292 0.23455 0.84047
 C202 C 0.80400 0.19422 0.86212
 C203 C 0.76377 0.17521 0.84041
 C204 C 0.74126 0.19701 0.79553
 C205 C 0.76017 0.23818 0.77301
 C206 C 0.80125 0.25709 0.79555
 C207 C 0.81941 0.29777 0.77264
 C208 C 0.79762 0.31966 0.72821
 C209 C 0.75698 0.30158 0.70530
 C210 C 0.73801 0.26045 0.72787
 C211 C 0.70061 0.17893 0.77262
 C212 C 0.67877 0.20088 0.72826
 C213 C 0.69690 0.24157 0.70537
 C214 C 0.67521 0.26416 0.66049
 C215 C 0.69423 0.30442 0.63873
 C216 C 0.73453 0.32334 0.66035
 H217 H 0.85065 0.31295 0.78897
 H218 H 0.81284 0.35092 0.71189
 H219 H 0.68542 0.14765 0.78892
 H220 H 0.64751 0.18572 0.71195
 H221 H 0.82106 0.17713 0.89671
 H222 H 0.67719 0.32150 0.60412
 C223 C 0.17603 0.76626 0.84019
 C224 C 0.19495 0.80670 0.86148
 C225 C 0.23524 0.82561 0.83967
 C226 C 0.25785 0.80357 0.79499
 C227 C 0.23896 0.76230 0.77278
 C228 C 0.19780 0.74352 0.79545
 C229 C 0.17969 0.70275 0.77284
 C230 C 0.20158 0.68067 0.72858
 C231 C 0.24230 0.69860 0.70557
 C232 C 0.26125 0.73981 0.72785
 C233 C 0.29859 0.82150 0.77198
 C234 C 0.32055 0.79932 0.72785
 C235 C 0.30246 0.75855 0.70526
 C236 C 0.32428 0.73575 0.66060
 C237 C 0.30526 0.69543 0.63914
 C238 C 0.26486 0.67663 0.66079
 H239 H 0.14840 0.68767 0.78926
 H240 H 0.18637 0.64936 0.71248
 H241 H 0.31376 0.85283 0.78804
 H242 H 0.35188 0.81438 0.71147
 H243 H 0.17783 0.82392 0.89593
 H244 H 0.32237 0.67821 0.60469
 C245 C 0.23421 0.17637 0.84110
 C246 C 0.19392 0.19543 0.86267
 C247 C 0.17507 0.23576 0.84092
 C248 C 0.19697 0.25826 0.79605
 C249 C 0.23810 0.23924 0.77358
 C250 C 0.25686 0.19804 0.79617
 C251 C 0.29749 0.17981 0.77330
 C252 C 0.31947 0.20161 0.72886
 C253 C 0.30153 0.24235 0.70591
 C254 C 0.26046 0.26141 0.72845
 C255 C 0.17904 0.29900 0.77311
 C256 C 0.20107 0.32085 0.72875
 C257 C 0.24172 0.30263 0.70589
 C258 C 0.26439 0.32434 0.66100
 C259 C 0.30461 0.30521 0.63931
 C260 C 0.32338 0.26480 0.66096
 H261 H 0.31256 0.14850 0.78965
 H262 H 0.35070 0.18632 0.71256
 H263 H 0.14779 0.31427 0.78937
 H264 H 0.18602 0.35217 0.71243
 H265 H 0.17674 0.17840 0.89725
 H266 H 0.32176 0.32222 0.60471
 C267 C 0.73600 0.67530 0.66007
 C268 C 0.69563 0.69421 0.63855
 C269 C 0.67671 0.73453 0.66017
 C270 C 0.69860 0.75707 0.70494
 C271 C 0.73985 0.73822 0.72727
 C272 C 0.75872 0.69711 0.70472
 C273 C 0.79954 0.67908 0.72735
 C274 C 0.82163 0.70105 0.77149
 C275 C 0.80357 0.74169 0.79445
 C276 C 0.76226 0.76049 0.77219
 C277 C 0.68052 0.79770 0.72792
 C278 C 0.70253 0.81958 0.77217
 C279 C 0.74333 0.80154 0.79481
 C280 C 0.76597 0.82330 0.83954
 C281 C 0.80645 0.80451 0.86091
 C282 C 0.82551 0.76431 0.83915
 H283 H 0.81470 0.64783 0.71099
 H284 H 0.85301 0.68594 0.78757
 H285 H 0.64918 0.81285 0.71180
 H286 H 0.68734 0.85080 0.78856
 H287 H 0.67848 0.67709 0.60410
 H288 H 0.82358 0.82165 0.89536
 C289 C 0.25743 0.09973 0.10634
 C290 C 0.24998 0.13385 0.13351
 C291 C 0.75945 0.59908 0.60743
 C292 C 0.75178 0.63340 0.63400
 C293 C 0.74284 0.90048 0.10640
 C294 C 0.75044 0.86620 0.13322
 C295 C 0.24108 0.40067 0.60819
 C296 C 0.24872 0.36632 0.63485
 C297 C 0.90056 0.25744 0.10703
 C298 C 0.86632 0.24984 0.13393
 C299 C 0.40063 0.75898 0.60772
 C300 C 0.36628 0.75140 0.63440
 C301 C 0.09983 0.74281 0.10573
 C302 C 0.13399 0.75026 0.13281
 C303 C 0.59902 0.24060 0.60790
 C304 C 0.63332 0.24835 0.63445
 C305 C 0.74055 0.09876 0.89304
 C306 C 0.74805 0.13318 0.86646
 C307 C 0.24104 0.60012 0.39161
 C308 C 0.24877 0.63442 0.36486
 C309 C 0.25852 0.90214 0.89205
 C310 C 0.25098 0.86770 0.86553
 C311 C 0.75873 0.39977 0.39162
 C312 C 0.75090 0.36546 0.36511
 C313 C 0.09866 0.25922 0.89344
 C314 C 0.13308 0.25161 0.86690
 C315 C 0.60021 0.75849 0.39132
 C316 C 0.63454 0.75076 0.36468
 C317 C 0.90208 0.74127 0.89164
 C318 C 0.86764 0.74870 0.86507
 C319 C 0.39983 0.24074 0.39190
 C320 C 0.36556 0.24858 0.36529
 C321 C 0.74204 0.89918 0.89257
 C322 C 0.74996 0.86501 0.86584
 C323 C 0.24119 0.40026 0.39239
 C324 C 0.24883 0.36588 0.36579
 C325 C 0.25736 0.10014 0.89423
 C326 C 0.24989 0.13444 0.86739
 C327 C 0.75929 0.59945 0.39163
 C328 C 0.75161 0.63380 0.36499
 C329 C 0.09997 0.74293 0.89359
 C330 C 0.13420 0.75048 0.86664
 C331 C 0.59950 0.24073 0.39225
 C332 C 0.63387 0.24847 0.36565
 C333 C 0.89897 0.25829 0.89322
 C334 C 0.86472 0.25046 0.86661
 C335 C 0.40033 0.75884 0.39178
 C336 C 0.36598 0.75124 0.36513
 C337 C 0.25839 0.90194 0.10764
 C338 C 0.25076 0.86746 0.13405
 C339 C 0.75841 0.39946 0.60741
 C340 C 0.75051 0.36518 0.63410
 C341 C 0.74179 0.09827 0.10862
 C342 C 0.74954 0.13265 0.13501
 C343 C 0.24118 0.60045 0.60792
 C344 C 0.24892 0.63474 0.63464
 C345 C 0.90204 0.74173 0.10739
 C346 C 0.86760 0.74936 0.13388
 C347 C 0.39944 0.24090 0.60797
 C348 C 0.36519 0.24876 0.63471
 C349 C 0.09834 0.25835 0.10886
 C350 C 0.13277 0.25059 0.13516
 C351 C 0.60046 0.75819 0.60736
 C352 C 0.63477 0.75041 0.63402
   
