data_POSCAR
  _audit_creation_date              2014-09-24
  _audit_creation_method            'ToBaCCo'
  _symmetry_space_group_name_H-M    'P1'
  _symmetry_Int_Tables_number       1
  _symmetry_cell_setting            triclinic
  loop_
  _symmetry_equiv_pos_as_xyz
 x,y,z
_cell_length_a 10.5307
_cell_length_b 33.2759
_cell_length_c 9.4465
_cell_angle_alpha 92.094300
_cell_angle_beta 97.558400
_cell_angle_gamma 92.032400
loop_
  _atom_site_label
  _atom_site_type_symbol
  _atom_site_fract_x
  _atom_site_fract_y
  _atom_site_fract_z
N1 N 0.27805 0.04543 0.19484
 N2 N 0.33782 0.08051 0.18374
 N3 N 0.21641 -0.03810 0.30818
 N4 N 0.23794 -0.07077 0.38104
 N5 N 0.27029 -0.03987 0.19043
 N6 N 0.32710 -0.07436 0.17889
 N7 N 0.22244 0.04563 0.31149
 N8 N 0.24631 0.08026 0.38418
 C9 C 0.31941 0.10152 0.30419
 C10 C 0.30797 -0.09288 0.29999
 N11 N -0.15844 -0.04191 0.27743
 N12 N -0.21561 -0.07777 0.27977
 N13 N -0.04259 0.04597 0.36159
 N14 N -0.01721 0.08382 0.40892
 N15 N -0.15761 0.04237 0.28763
 N16 N -0.21502 0.07934 0.28803
 N17 N -0.04697 -0.04037 0.35891
 N18 N -0.02623 -0.07545 0.41730
 Mn19 Mn 0.08732 0.00341 0.33700
 C20 C -0.13298 -0.09823 0.36888
 C21 C -0.12363 0.10388 0.36277
 N22 N 0.18821 -0.04142 -0.11350
 N23 N 0.24654 -0.07791 -0.13107
 N24 N 0.08312 0.04396 -0.18273
 N25 N 0.07420 0.07778 -0.25259
 N26 N 0.19655 0.04259 -0.10701
 N27 N 0.26868 0.07454 -0.12588
 N28 N 0.07690 -0.04190 -0.19447
 N29 N 0.05489 -0.07678 -0.26670
 Mn30 Mn 0.23420 0.00153 0.04081
 C31 C 0.15920 -0.09846 -0.22740
 C32 C 0.19193 0.09612 -0.21691
 N33 N -0.24031 0.04140 -0.01620
 N34 N -0.30448 0.07454 -0.00531
 N35 N -0.18459 -0.04334 -0.13940
 N36 N -0.19747 -0.07904 -0.20659
 N37 N -0.24546 -0.04321 -0.02653
 N38 N -0.30674 -0.08082 -0.01827
 N39 N -0.18060 0.04188 -0.12987
 N40 N -0.20185 0.07541 -0.19806
 Mn41 Mn -0.20083 -0.00047 0.13158
 Mn42 Mn -0.05214 0.00033 -0.16354
 Cl43 Cl 0.01727 0.00120 0.08620
 C44 C -0.28042 0.09528 -0.11998
 C45 C -0.27235 -0.10166 -0.13183
 N46 N 0.74981 0.53947 0.53113
 N47 N 0.81371 0.57414 0.52431
 N48 N 0.67214 0.45441 0.63238
 N49 N 0.68771 0.42032 0.69865
 N50 N 0.73304 0.45445 0.51965
 N51 N 0.79233 0.42042 0.50732
 N52 N 0.69203 0.53942 0.64633
 N53 N 0.71433 0.57411 0.71909
 C54 C 0.79168 0.59524 0.64312
 C55 C 0.76411 0.39960 0.62017
 N56 N 0.29610 0.46049 0.60900
 N57 N 0.21882 0.42957 0.62608
 N58 N 0.43077 0.54264 0.69943
 N59 N 0.45625 0.57635 0.77786
 N60 N 0.32092 0.54467 0.61686
 N61 N 0.26886 0.57957 0.63764
 N62 N 0.40874 0.45705 0.68454
 N63 N 0.41173 0.42292 0.75254
 Mn64 Mn 0.55166 0.49816 0.66750
 C65 C 0.29147 0.40653 0.71608
 C66 C 0.35382 0.59882 0.73976
 N67 N 0.65013 0.45453 0.21758
 N68 N 0.70191 0.41916 0.21252
 N69 N 0.55519 0.53928 0.14565
 N70 N 0.54205 0.57428 0.08480
 N71 N 0.66620 0.53901 0.22736
 N72 N 0.73083 0.57355 0.22287
 N73 N 0.53647 0.45330 0.14051
 N74 N 0.50839 0.41651 0.08396
 Mn75 Mn 0.70072 0.49699 0.37294
 C76 C 0.61376 0.39578 0.12811
 C77 C 0.65306 0.59504 0.13187
 N78 N 0.23849 0.54431 0.31355
 N79 N 0.18499 0.57937 0.32444
 N80 N 0.27196 0.45798 0.19030
 N81 N 0.24428 0.42355 0.11741
 N82 N 0.21577 0.45905 0.30660
 N83 N 0.15168 0.42467 0.31709
 N84 N 0.29245 0.54170 0.19606
 N85 N 0.27475 0.57448 0.12277
 Mn86 Mn 0.26674 0.50233 0.46206
 Mn87 Mn 0.41383 0.49794 0.16626
 Cl88 Cl 0.48310 0.49884 0.41733
 C89 C 0.20668 0.59748 0.20337
 C90 C 0.16798 0.40328 0.19657
 C91 C 0.33941 0.14513 0.32443
 C92 C 0.30380 0.16940 0.21020
 C93 C 0.27497 0.21204 0.23121
 C94 C 0.17480 0.22794 0.14037
 C95 C 0.14318 0.26804 0.15819
 C96 C 0.21141 0.29283 0.26795
 C97 C 0.31195 0.27697 0.35835
 C98 C 0.34358 0.23686 0.34057
 C99 C 0.18179 0.33538 0.29009
 C100 C 0.14443 0.35977 0.17668
 H101 H 0.27589 0.15524 0.10495
 H102 H 0.11917 0.20892 0.05761
 H103 H 0.06390 0.27932 0.08819
 H104 H 0.36751 0.29599 0.44115
 H105 H 0.42281 0.22556 0.41068
 H106 H 0.21138 0.34951 0.39511
 H107 H 0.35144 0.15787 0.43254
 H108 H 0.13032 0.34707 0.06842
 C109 C 0.85780 0.85788 0.38144
 C110 C 0.76508 0.83434 0.29262
 C111 C 0.76772 0.79000 0.27187
 C112 C 0.69285 0.77143 0.15172
 C113 C 0.69366 0.72988 0.12525
 C114 C 0.76828 0.70573 0.22008
 C115 C 0.84374 0.72432 0.33986
 C116 C 0.84348 0.76595 0.36588
 C117 C 0.76709 0.66125 0.20155
 C118 C 0.67160 0.63843 0.11419
 H119 H 0.69302 0.84957 0.22402
 H120 H 0.63408 0.78917 0.07703
 H121 H 0.63615 0.71715 0.03018
 H122 H 0.90131 0.70644 0.41530
 H123 H 0.90097 0.77881 0.46073
 H124 H 0.83632 0.64552 0.27204
 H125 H 0.93457 0.84414 0.44728
 H126 H 0.59797 0.65279 0.04609
 C127 C 0.68466 0.13727 0.85967
 C128 C 0.73509 0.16010 0.75740
 C129 C 0.73105 0.20456 0.75155
 C130 C 0.80223 0.22403 0.65683
 C131 C 0.80821 0.26597 0.65208
 C132 C 0.74152 0.28960 0.74167
 C133 C 0.67017 0.27011 0.83623
 C134 C 0.66377 0.22816 0.84062
 C135 C 0.73863 0.33414 0.73682
 C136 C 0.79417 0.35714 0.63859
 H137 H 0.78994 0.14482 0.68392
 H138 H 0.85739 0.20675 0.58944
 H139 H 0.86682 0.27933 0.57953
 H140 H 0.61517 0.28739 0.90369
 H141 H 0.60468 0.21477 0.91267
 H142 H 0.68228 0.34943 0.80866
 H143 H 0.62913 0.15077 0.93572
 H144 H 0.85148 0.34363 0.56437
 C145 C 0.16689 0.86286 0.73195
 C146 C 0.26884 0.83946 0.78577
 C147 C 0.26579 0.79503 0.76644
 C148 C 0.33864 0.77280 0.86887
 C149 C 0.33303 0.73073 0.85934
 C150 C 0.25644 0.70999 0.74450
 C151 C 0.18413 0.73227 0.64188
 C152 C 0.18997 0.77431 0.65125
 C153 C 0.25161 0.66552 0.72522
 C154 C 0.34767 0.64126 0.78639
 H155 H 0.34782 0.85349 0.85816
 H156 H 0.39834 0.78804 0.95832
 H157 H 0.38795 0.71485 0.94285
 H158 H 0.12447 0.71709 0.55232
 H159 H 0.13563 0.79026 0.56745
 H160 H 0.17564 0.65171 0.64841
 H161 H 0.08619 0.84895 0.66275
 H162 H 0.42760 0.65417 0.85891
 C163 C 0.23148 0.13655 0.74522
 C164 C 0.14698 0.16782 0.73016
 C165 C 0.19341 0.21053 0.73572
 C166 C 0.11822 0.24027 0.78720
 C167 C 0.16134 0.28062 0.79968
 C168 C 0.28123 0.29208 0.76053
 C169 C 0.35609 0.26240 0.70853
 C170 C 0.31295 0.22211 0.69574
 C171 C 0.32933 0.33458 0.76845
 C172 C 0.24680 0.36627 0.75039
 H173 H 0.04604 0.16120 0.73424
 H174 H 0.02795 0.23207 0.82322
 H175 H 0.10157 0.30251 0.84252
 H176 H 0.44645 0.27060 0.67278
 H177 H 0.37307 0.20038 0.65278
 H178 H 0.43107 0.34072 0.76817
 H179 H 0.33370 0.14323 0.75753
 H180 H 0.14419 0.36015 0.73472
 C181 C 0.70327 0.85876 0.84434
 C182 C 0.76542 0.83612 0.74856
 C183 C 0.75805 0.79183 0.74436
 C184 C 0.87136 0.77064 0.75363
 C185 C 0.86680 0.72856 0.75064
 C186 C 0.74834 0.70712 0.73707
 C187 C 0.63504 0.72841 0.72785
 C188 C 0.63974 0.77048 0.73128
 C189 C 0.73966 0.66274 0.73467
 C190 C 0.82160 0.63863 0.66732
 H191 H 0.83643 0.85058 0.69205
 H192 H 0.96337 0.78680 0.76579
 H193 H 0.95552 0.71286 0.76143
 H194 H 0.54284 0.71236 0.71617
 H195 H 0.55133 0.78637 0.72169
 H196 H 0.65665 0.64866 0.77224
 H197 H 0.64286 0.84329 0.91110
 H198 H 0.89674 0.65228 0.61492
 C199 C 0.32854 0.86453 0.32309
 C200 C 0.29967 0.83659 0.20927
 C201 C 0.27827 0.79347 0.23148
 C202 C 0.18132 0.77159 0.14137
 C203 C 0.15794 0.73073 0.16043
 C204 C 0.23163 0.71124 0.27015
 C205 C 0.32860 0.73309 0.36016
 C206 C 0.35193 0.77394 0.34114
 C207 C 0.21040 0.66815 0.29234
 C208 C 0.18762 0.64007 0.17838
 H209 H 0.27191 0.84736 0.10325
 H210 H 0.12321 0.78623 0.05652
 H211 H 0.08184 0.71453 0.09046
 H212 H 0.38692 0.71843 0.44487
 H213 H 0.42815 0.79005 0.41115
 H214 H 0.23403 0.65761 0.39939
 H215 H 0.33850 0.85464 0.43179
 H216 H 0.18151 0.64989 0.06972
 C217 C 0.86980 0.14407 0.37009
 C218 C 0.76249 0.16315 0.30248
 C219 C 0.75530 0.20688 0.27822
 C220 C 0.63706 0.22157 0.22021
 C221 C 0.62463 0.26223 0.19076
 C222 C 0.73156 0.28917 0.21686
 C223 C 0.84968 0.27455 0.27548
 C224 C 0.86223 0.23386 0.30460
 C225 C 0.72434 0.33282 0.19146
 C226 C 0.61886 0.35159 0.11982
 H227 H 0.67864 0.14467 0.25841
 H228 H 0.55371 0.20134 0.19633
 H229 H 0.53119 0.27214 0.14793
 H230 H 0.93282 0.29486 0.29982
 H231 H 0.95569 0.22400 0.34744
 H232 H 0.80699 0.35166 0.23640
 H233 H 0.95237 0.16160 0.42218
 H234 H 0.53559 0.33439 0.06805
   
