data_POSCAR
  _audit_creation_date              2014-09-24
  _audit_creation_method            'ToBaCCo'
  _symmetry_space_group_name_H-M    'P1'
  _symmetry_Int_Tables_number       1
  _symmetry_cell_setting            triclinic
  loop_
  _symmetry_equiv_pos_as_xyz
 x,y,z
_cell_length_a 55.1829
_cell_length_b 55.2177
_cell_length_c 34.2847
_cell_angle_alpha 90.001900
_cell_angle_beta 89.976400
_cell_angle_gamma 89.927000
loop_
  _atom_site_label
  _atom_site_type_symbol
  _atom_site_fract_x
  _atom_site_fract_y
  _atom_site_fract_z
C1 C -0.02265 0.27131 0.01867
 C2 C -0.02284 0.26609 -0.02219
 C3 C -0.00051 0.26252 -0.04145
 C4 C 0.02199 0.26602 -0.02282
 C5 C 0.02190 0.27191 0.01754
 C6 C -0.00017 0.27528 0.03706
 H7 H 0.00044 0.27879 0.06817
 H8 H -0.00068 0.25875 -0.07246
 C9 C 0.47807 0.77462 0.52175
 C10 C 0.47749 0.77437 0.48043
 C11 C 0.49940 0.77450 0.45963
 C12 C 0.52187 0.77438 0.47879
 C13 C 0.52246 0.77421 0.52011
 C14 C 0.50055 0.77459 0.54091
 H15 H 0.50100 0.77451 0.57253
 H16 H 0.49896 0.77435 0.42801
 C17 C 1.02233 0.73088 0.02158
 C18 C 1.02243 0.72763 -0.01961
 C19 C 1.00044 0.72567 -0.03992
 C20 C 0.97781 0.72815 -0.02119
 C21 C 0.97773 0.73130 0.02003
 C22 C 0.99971 0.73300 0.04036
 H23 H 0.99890 0.73505 0.07179
 H24 H 1.00125 0.72370 -0.07136
 C25 C 0.52226 0.22708 0.51828
 C26 C 0.52210 0.22721 0.47695
 C27 C 0.49981 0.22739 0.45724
 C28 C 0.47770 0.22749 0.47751
 C29 C 0.47787 0.22685 0.51882
 C30 C 0.50016 0.22663 0.53853
 H31 H 0.50030 0.22645 0.57016
 H32 H 0.49966 0.22779 0.42561
 C33 C 0.73143 -0.02306 0.02130
 C34 C 0.72811 -0.02268 -0.01994
 C35 C 0.72599 -0.00045 -0.03948
 C36 C 0.72826 0.02166 -0.01976
 C37 C 0.73188 0.02154 0.02107
 C38 C 0.73366 -0.00065 0.04079
 H39 H 0.73590 -0.00023 0.07219
 H40 H 0.72402 -0.00041 -0.07096
 C41 C 0.22868 0.47825 0.52321
 C42 C 0.22578 0.47840 0.48215
 C43 C 0.22394 0.50065 0.46256
 C44 C 0.22592 0.52275 0.48253
 C45 C 0.22884 0.52262 0.52359
 C46 C 0.23040 0.50036 0.54323
 H47 H 0.23220 0.50025 0.57473
 H48 H 0.22236 0.50076 0.43103
 C49 C 0.26642 1.02365 0.02295
 C50 C 0.27096 1.02333 -0.01821
 C51 C 0.27458 1.00077 -0.03671
 C52 C 0.27146 0.97878 -0.01691
 C53 C 0.26605 0.97909 0.02335
 C54 C 0.26317 1.00136 0.04240
 H55 H 0.25998 1.00114 0.07361
 H56 H 0.27770 1.00008 -0.06792
 C57 C 0.77245 0.52186 0.52110
 C58 C 0.77500 0.52178 0.47998
 C59 C 0.77686 0.49956 0.46029
 C60 C 0.77515 0.47743 0.48028
 C61 C 0.77250 0.47754 0.52139
 C62 C 0.77101 0.49975 0.54109
 H63 H 0.76945 0.49983 0.57263
 H64 H 0.77820 0.49947 0.42873
 O65 O 0.22982 0.26566 0.20068
 O66 O 0.28712 0.25681 0.25381
 O67 O 0.26341 0.23246 0.20099
 O68 O 0.25351 0.28981 0.25371
 O69 O 0.23387 0.27003 0.29993
 O70 O 0.24381 0.21273 0.24732
 O71 O 0.26751 0.23708 0.30013
 O72 O 0.21018 0.24588 0.24692
 Cu73 Cu 0.26042 0.26315 0.22262
 Cu74 Cu 0.23686 0.23943 0.27819
 C75 C 0.21026 0.25725 0.21472
 C76 C 0.28704 0.24558 0.28613
 C77 C 0.25524 0.21284 0.21517
 C78 C 0.24211 0.28964 0.28590
 O79 O 0.76468 0.73115 0.30067
 O80 O 0.75567 0.78825 0.24701
 O81 O 0.73168 0.76492 0.30059
 O82 O 0.78876 0.75475 0.24746
 O83 O 0.76883 0.73501 0.20153
 O84 O 0.71170 0.74517 0.25474
 O85 O 0.73570 0.76848 0.20115
 O86 O 0.74474 0.71141 0.25477
 Cu87 Cu 0.76219 0.76173 0.27858
 Cu88 Cu 0.73822 0.73801 0.22347
 C89 C 0.75622 0.71157 0.28686
 C90 C 0.74425 0.78805 0.21485
 C91 C 0.71199 0.75678 0.28671
 C92 C 0.78849 0.74330 0.21535
 O93 O 0.79097 0.24330 0.25008
 O94 O 0.73341 0.23393 0.30234
 O95 O 0.75748 0.21026 0.24908
 O96 O 0.76668 0.26736 0.30268
 O97 O 0.74719 0.28722 0.25635
 O98 O 0.73798 0.23022 0.20285
 O99 O 0.71390 0.25384 0.25608
 O100 O 0.77149 0.26320 0.20379
 Cu101 Cu 0.76408 0.23673 0.28073
 Cu102 Cu 0.74067 0.26064 0.22516
 C103 C 0.79100 0.25470 0.21792
 C104 C 0.71387 0.24230 0.28814
 C105 C 0.74627 0.21058 0.21672
 C106 C 0.75845 0.28700 0.28863
 O107 O 0.20980 0.75587 0.24999
 O108 O 0.26692 0.76538 0.30345
 O109 O 0.24276 0.78944 0.25057
 O110 O 0.23372 0.73201 0.30309
 O111 O 0.25372 0.71251 0.25690
 O112 O 0.26272 0.76998 0.20427
 O113 O 0.28687 0.74592 0.25715
 O114 O 0.22981 0.73637 0.20380
 Cu115 Cu 0.23631 0.76265 0.28143
 Cu116 Cu 0.26031 0.73926 0.22589
 C117 C 0.21011 0.74457 0.21772
 C118 C 0.28659 0.75712 0.28950
 C119 C 0.25410 0.78946 0.21833
 C120 C 0.24225 0.71251 0.28902
 O121 O 0.76502 0.26740 0.69897
 O122 O 0.75510 0.21030 0.75216
 O123 O 0.73145 0.23444 0.69882
 O124 O 0.78865 0.24339 0.75214
 O125 O 0.76895 0.26332 0.79819
 O126 O 0.71174 0.25441 0.74482
 O127 O 0.73538 0.23026 0.79816
 O128 O 0.74532 0.28734 0.74503
 Cu129 Cu 0.76202 0.23685 0.72092
 Cu130 Cu 0.73835 0.26081 0.77619
 C131 C 0.75679 0.28707 0.71291
 C132 C 0.74366 0.21059 0.78431
 C133 C 0.71190 0.24307 0.71260
 C134 C 0.78853 0.25486 0.78424
 O135 O 0.28842 0.74717 0.74646
 O136 O 0.23127 0.73708 0.79958
 O137 O 0.25547 0.71349 0.74640
 O138 O 0.26451 0.77044 0.80021
 O139 O 0.24454 0.79037 0.75447
 O140 O 0.23554 0.73330 0.70050
 O141 O 0.21134 0.75693 0.75372
 O142 O 0.26845 0.76705 0.70069
 Cu143 Cu 0.26192 0.74004 0.77775
 Cu144 Cu 0.23796 0.76390 0.72274
 C145 C 0.28814 0.75881 0.71451
 C146 C 0.21160 0.74538 0.78573
 C147 C 0.24404 0.71369 0.71427
 C148 C 0.25603 0.79008 0.78658
 O149 O 0.26262 0.22784 0.79419
 O150 O 0.25384 0.28540 0.74201
 O151 O 0.22964 0.26135 0.79461
 O152 O 0.28682 0.25164 0.74139
 O153 O 0.26692 0.23234 0.69495
 O154 O 0.20971 0.24210 0.74815
 O155 O 0.23394 0.26618 0.69549
 O156 O 0.24268 0.20850 0.74783
 Cu157 Cu 0.26025 0.25851 0.77266
 Cu158 Cu 0.23632 0.23537 0.71688
 C159 C 0.25400 0.20842 0.78008
 C160 C 0.24245 0.28559 0.70984
 C161 C 0.20998 0.25319 0.78059
 C162 C 0.28660 0.24036 0.70911
 O163 O 0.73316 0.76555 0.69665
 O164 O 0.79041 0.75677 0.75014
 O165 O 0.76678 0.73254 0.69716
 O166 O 0.75680 0.78989 0.74966
 O167 O 0.73709 0.77016 0.79586
 O168 O 0.74707 0.71285 0.74343
 O169 O 0.77067 0.73706 0.79634
 O170 O 0.71347 0.74583 0.74291
 Cu171 Cu 0.76376 0.76319 0.71877
 Cu172 Cu 0.74009 0.73952 0.77430
 C173 C 0.71360 0.75704 0.71057
 C174 C 0.79026 0.74545 0.78239
 C175 C 0.75852 0.71296 0.71130
 C176 C 0.74534 0.78976 0.78178
 N177 N 0.28019 0.08479 0.05644
 C178 C 0.26819 0.08555 0.09089
 N179 N 0.25609 0.06562 0.10313
 N180 N 0.25566 0.04569 0.08126
 C181 C 0.26699 0.04496 0.04599
 N182 N 0.27974 0.06482 0.03461
 C183 C 0.26748 0.10746 0.11341
 C184 C 0.26631 0.12595 0.13203
 C185 C 0.26429 0.14803 0.15392
 N186 N 0.27324 0.16905 0.13943
 N187 N 0.27057 0.18969 0.15913
 C188 C 0.25881 0.19001 0.19394
 N189 N 0.24992 0.16892 0.20840
 N190 N 0.25260 0.14828 0.18871
 N191 N 0.78647 0.58358 0.55634
 C192 C 0.77129 0.58569 0.58725
 N193 N 0.75668 0.56686 0.59665
 N194 N 0.75710 0.54658 0.57562
 C195 C 0.77204 0.54449 0.54429
 N196 N 0.78691 0.56329 0.53531
 C197 C 0.77030 0.60772 0.60932
 C198 C 0.76906 0.62625 0.62780
 C199 C 0.76709 0.64829 0.64969
 N200 N 0.75544 0.64852 0.68450
 N201 N 0.75293 0.66912 0.70434
 C202 C 0.76196 0.69017 0.68999
 N203 N 0.77368 0.68987 0.65515
 N204 N 0.77619 0.66927 0.63532
 N205 N 0.72517 0.91354 0.04976
 C206 C 0.73235 0.91422 0.08750
 N207 N 0.73900 0.93567 0.10331
 N208 N 0.73864 0.95580 0.08190
 C209 C 0.73180 0.95532 0.04373
 N210 N 0.72482 0.93370 0.02843
 C211 C 0.73340 0.89243 0.11022
 C212 C 0.73463 0.87409 0.12920
 C213 C 0.73647 0.85223 0.15162
 N214 N 0.72707 0.83123 0.13785
 N215 N 0.72936 0.81079 0.15820
 C216 C 0.74114 0.81068 0.19298
 N217 N 0.75048 0.83176 0.20672
 N218 N 0.74819 0.85219 0.18637
 N219 N 0.21469 0.41642 0.55805
 C220 C 0.23015 0.41407 0.58853
 N221 N 0.24489 0.43281 0.59789
 N222 N 0.24433 0.45322 0.57720
 C223 C 0.22913 0.45555 0.54625
 N224 N 0.21413 0.43685 0.53737
 C225 C 0.23129 0.39183 0.61014
 C226 C 0.23259 0.37312 0.62814
 C227 C 0.23454 0.35083 0.64944
 N228 N 0.24622 0.35021 0.68420
 N229 N 0.24858 0.32942 0.70358
 C230 C 0.23934 0.30856 0.68884
 N231 N 0.22760 0.30925 0.65404
 N232 N 0.22525 0.33004 0.63466
 N233 N 0.93635 0.27971 0.10086
 C234 C 0.91702 0.26626 0.08983
 N235 N 0.91783 0.25424 0.05544
 N236 N 0.93724 0.25591 0.03250
 C237 C 0.95648 0.26993 0.04267
 N238 N 0.95576 0.28137 0.07786
 C239 C 0.89576 0.26495 0.11387
 C240 C 0.87759 0.26375 0.13332
 C241 C 0.85565 0.26213 0.15566
 N242 N 0.85539 0.25045 0.19045
 N243 N 0.83481 0.24832 0.21054
 C244 C 0.81382 0.25778 0.19648
 N245 N 0.81418 0.26952 0.16169
 N246 N 0.83475 0.27165 0.14162
 N247 N 0.41634 0.78843 0.55763
 C248 C 0.41499 0.77426 0.58985
 N249 N 0.43440 0.76062 0.60008
 N250 N 0.45449 0.76095 0.57855
 C251 C 0.45582 0.77481 0.54588
 N252 N 0.43645 0.78877 0.53609
 C253 C 0.39303 0.77299 0.61215
 C254 C 0.37457 0.77136 0.63077
 C255 C 0.35260 0.76883 0.65275
 N256 N 0.35262 0.75677 0.68720
 N257 N 0.33209 0.75373 0.70706
 C258 C 0.31084 0.76262 0.69308
 N259 N 0.31089 0.77474 0.65861
 N260 N 0.33143 0.77777 0.63875
 N261 N 0.08546 0.72471 0.05182
 C262 C 0.08434 0.73186 0.08955
 N263 N 0.06267 0.73843 0.10479
 N264 N 0.04277 0.73802 0.08283
 C265 C 0.04370 0.73123 0.04465
 N266 N 0.06553 0.72432 0.02994
 C267 C 0.10593 0.73302 0.11278
 C268 C 0.12416 0.73433 0.13202
 C269 C 0.14597 0.73626 0.15454
 N270 N 0.14585 0.74784 0.18942
 N271 N 0.16626 0.75028 0.20978
 C272 C 0.18748 0.74124 0.19592
 N273 N 0.18753 0.72960 0.16102
 N274 N 0.16711 0.72716 0.14067
 N275 N 0.58308 0.24543 0.55238
 C276 C 0.58579 0.23165 0.58481
 N277 N 0.56770 0.21645 0.59547
 N278 N 0.54756 0.21496 0.57419
 C279 C 0.54488 0.22849 0.54137
 N280 N 0.56294 0.24394 0.53110
 C281 C 0.60754 0.23317 0.60759
 C282 C 0.62585 0.23449 0.62661
 C283 C 0.64773 0.23620 0.64904
 N284 N 0.64779 0.24776 0.68393
 N285 N 0.66821 0.24975 0.70440
 C286 C 0.68925 0.24022 0.69066
 N287 N 0.68911 0.22859 0.65575
 N288 N 0.66869 0.22661 0.63529
 N289 N 0.74595 0.08202 0.94339
 C290 C 0.73088 0.08484 0.91251
 N291 N 0.71491 0.06700 0.90384
 N292 N 0.71395 0.04700 0.92555
 C293 C 0.72882 0.04422 0.95683
 N294 N 0.74499 0.06203 0.96507
 C295 C 0.73205 0.10639 0.88918
 C296 C 0.73334 0.12460 0.86991
 C297 C 0.73527 0.14642 0.84738
 N298 N 0.74696 0.14635 0.81259
 N299 N 0.74942 0.16677 0.79226
 C300 C 0.74027 0.18795 0.80606
 N301 N 0.72851 0.18794 0.84087
 N302 N 0.72605 0.16752 0.86119
 N303 N 0.21340 0.56832 0.40618
 C304 C 0.22944 0.58602 0.41523
 N305 N 0.24430 0.58302 0.44631
 N306 N 0.24308 0.56298 0.46784
 C307 C 0.22682 0.54532 0.45923
 N308 N 0.21217 0.54827 0.42773
 C309 C 0.23080 0.60766 0.39218
 C310 C 0.23220 0.62598 0.37319
 C311 C 0.23416 0.64794 0.35107
 N312 N 0.22476 0.66889 0.36511
 N313 N 0.22715 0.68945 0.34513
 C314 C 0.23904 0.68973 0.31045
 N315 N 0.24839 0.66870 0.29641
 N316 N 0.24600 0.64814 0.31641
 N317 N 0.28606 0.93301 0.90782
 C318 C 0.26950 0.91552 0.91543
 N319 N 0.25377 0.91864 0.94537
 N320 N 0.25460 0.93861 0.96711
 C321 C 0.27132 0.95609 0.95991
 N322 N 0.28691 0.95299 0.92960
 C323 C 0.26830 0.89407 0.89187
 C324 C 0.26687 0.87591 0.87246
 C325 C 0.26474 0.85414 0.84986
 N326 N 0.27401 0.83300 0.86341
 N327 N 0.27138 0.81262 0.84306
 C328 C 0.25938 0.81267 0.80848
 N329 N 0.25017 0.83389 0.79493
 N330 N 0.25279 0.85427 0.81530
 N331 N 0.78763 0.43162 0.40425
 C332 C 0.77175 0.41385 0.41374
 N333 N 0.75695 0.41693 0.44488
 N334 N 0.75810 0.43710 0.46610
 C335 C 0.77421 0.45483 0.45709
 N336 N 0.78878 0.45181 0.42550
 C337 C 0.77046 0.39206 0.39106
 C338 C 0.76904 0.37363 0.37237
 C339 C 0.76695 0.35159 0.35047
 N340 N 0.77595 0.33055 0.36486
 N341 N 0.77341 0.30996 0.34501
 C342 C 0.76176 0.30974 0.31012
 N343 N 0.75282 0.33086 0.29576
 N344 N 0.75537 0.35144 0.31561
 N345 N 0.06302 0.25512 0.89569
 C346 C 0.08424 0.26378 0.90973
 N347 N 0.08487 0.27319 0.94618
 N348 N 0.06488 0.27382 0.96796
 C349 C 0.04350 0.26492 0.95445
 N350 N 0.04307 0.25577 0.91755
 C351 C 0.10584 0.26279 0.88645
 C352 C 0.12406 0.26178 0.86711
 C353 C 0.14586 0.26029 0.84439
 N354 N 0.16691 0.26950 0.85833
 N355 N 0.18731 0.26750 0.83775
 C356 C 0.18733 0.25623 0.80254
 N357 N 0.16620 0.24710 0.78860
 N358 N 0.14580 0.24910 0.80919
 N359 N 0.58370 0.78758 0.44291
 C360 C 0.58500 0.77329 0.41081
 N361 N 0.56552 0.75978 0.40065
 N362 N 0.54541 0.76035 0.42212
 C363 C 0.54414 0.77433 0.45467
 N364 N 0.56357 0.78816 0.46439
 C365 C 0.60698 0.77176 0.38859
 C366 C 0.62546 0.76994 0.37007
 C367 C 0.64747 0.76720 0.34823
 N368 N 0.64746 0.75512 0.31379
 N369 N 0.66801 0.75194 0.29403
 C370 C 0.68927 0.76069 0.30809
 N371 N 0.68922 0.77281 0.34256
 N372 N 0.66866 0.77600 0.36231
 N373 N 0.91517 0.73789 0.94847
 C374 C 0.91610 0.73173 0.91029
 N375 N 0.93745 0.72431 0.89486
 N376 N 0.95723 0.72300 0.91707
 C377 C 0.95648 0.72892 0.95564
 N378 N 0.93496 0.73657 0.97057
 C379 C 0.89474 0.73334 0.88657
 C380 C 0.87656 0.73492 0.86725
 C381 C 0.85466 0.73705 0.84495
 N382 N 0.83360 0.72786 0.85890
 N383 N 0.81310 0.73038 0.83878
 C384 C 0.81297 0.74221 0.80406
 N385 N 0.83410 0.75135 0.79011
 N386 N 0.85461 0.74882 0.81024
 N387 N 0.43206 0.21811 0.40024
 C388 C 0.41394 0.23311 0.41172
 N389 N 0.41675 0.24640 0.44465
 N390 N 0.43699 0.24461 0.46563
 C391 C 0.45506 0.22935 0.45456
 N392 N 0.45230 0.21632 0.42123
 C393 C 0.39205 0.23487 0.38935
 C394 C 0.37359 0.23639 0.37071
 C395 C 0.35156 0.23831 0.34872
 N396 N 0.35134 0.24983 0.31379
 N397 N 0.33079 0.25197 0.29368
 C398 C 0.30978 0.24266 0.30781
 N399 N 0.31007 0.23109 0.34277
 N400 N 0.33062 0.22895 0.36288
 N401 N 0.71262 0.93063 0.90723
 C402 C 0.73205 0.91562 0.90944
 N403 N 0.75021 0.92093 0.93461
 N404 N 0.74892 0.94054 0.95714
 C405 C 0.72929 0.95538 0.95551
 N406 N 0.71131 0.95026 0.92977
 C407 C 0.73334 0.89422 0.88581
 C408 C 0.73471 0.87604 0.86648
 C409 C 0.73669 0.85417 0.84411
 N410 N 0.74846 0.85411 0.80939
 N411 N 0.75100 0.83361 0.78928
 C412 C 0.74187 0.81249 0.80325
 N413 N 0.73002 0.81264 0.83798
 N414 N 0.72749 0.83314 0.85808
 N415 N 0.21316 0.43345 0.40490
 C416 C 0.22904 0.41553 0.41376
 N417 N 0.24383 0.41818 0.44502
 N418 N 0.24268 0.43808 0.46688
 C419 C 0.22658 0.45597 0.45846
 N420 N 0.21200 0.45337 0.42679
 C421 C 0.23034 0.39403 0.39034
 C422 C 0.23171 0.37581 0.37106
 C423 C 0.23367 0.35396 0.34862
 N424 N 0.24537 0.35395 0.31382
 N425 N 0.24784 0.33348 0.29359
 C426 C 0.23872 0.31234 0.30751
 N427 N 0.22696 0.31244 0.34232
 N428 N 0.22449 0.33290 0.36253
 N429 N 0.27837 0.06383 0.89887
 C430 C 0.26505 0.08324 0.91006
 N431 N 0.25349 0.08269 0.94489
 N432 N 0.25546 0.06343 0.96807
 C433 C 0.26933 0.04410 0.95768
 N434 N 0.28032 0.04457 0.92210
 C435 C 0.26351 0.10433 0.88574
 C436 C 0.26226 0.12234 0.86597
 C437 C 0.26074 0.14412 0.84330
 N438 N 0.27047 0.16498 0.85700
 N439 N 0.26855 0.18542 0.83658
 C440 C 0.25683 0.18568 0.80177
 N441 N 0.24716 0.16473 0.78805
 N442 N 0.24909 0.14428 0.80849
 N443 N 0.75615 0.58203 0.44410
 C444 C 0.77063 0.58497 0.41254
 N445 N 0.78653 0.56719 0.40295
 N446 N 0.78800 0.54714 0.42448
 C447 C 0.77375 0.54426 0.45648
 N448 N 0.75762 0.56199 0.46559
 C449 C 0.76902 0.60665 0.38960
 C450 C 0.76736 0.62502 0.37078
 C451 C 0.76506 0.64703 0.34882
 N452 N 0.77424 0.66805 0.36288
 N453 N 0.77156 0.68861 0.34299
 C454 C 0.75958 0.68884 0.30840
 N455 N 0.75044 0.66774 0.29437
 N456 N 0.75312 0.64718 0.31426
 N457 N 0.07030 0.71197 0.90948
 C458 C 0.08513 0.73148 0.91196
 N459 N 0.07931 0.74975 0.93664
 N460 N 0.05938 0.74849 0.95847
 C461 C 0.04471 0.72879 0.95658
 N462 N 0.05035 0.71069 0.93132
 C463 C 0.10680 0.73281 0.88893
 C464 C 0.12514 0.73427 0.86998
 C465 C 0.14710 0.73642 0.84784
 N466 N 0.16819 0.72728 0.86187
 N467 N 0.18873 0.72994 0.84189
 C468 C 0.18887 0.74185 0.80723
 N469 N 0.16771 0.75092 0.79322
 N470 N 0.14717 0.74826 0.81321
 N471 N 0.56657 0.24157 0.39987
 C472 C 0.58589 0.22789 0.41045
 N473 N 0.58421 0.21360 0.44250
 N474 N 0.56390 0.21318 0.46352
 C475 C 0.54462 0.22717 0.45339
 N476 N 0.54627 0.24115 0.42089
 C477 C 0.60806 0.22915 0.38862
 C478 C 0.62668 0.23070 0.37039
 C479 C 0.64887 0.23306 0.34886
 N480 N 0.66987 0.22398 0.36331
 N481 N 0.69058 0.22678 0.34381
 C482 C 0.69098 0.23878 0.30923
 N483 N 0.66991 0.24781 0.29481
 N484 N 0.64920 0.24501 0.31431
 N485 N 0.93523 0.25464 0.89802
 C486 C 0.91542 0.26727 0.90949
 N487 N 0.91621 0.27991 0.94332
 N488 N 0.93612 0.27962 0.96530
 C489 C 0.95588 0.26639 0.95469
 N490 N 0.95511 0.25437 0.92004
 C491 C 0.89360 0.26652 0.88680
 C492 C 0.87517 0.26535 0.86803
 C493 C 0.85317 0.26340 0.84601
 N494 N 0.83216 0.27262 0.86020
 N495 N 0.81156 0.27007 0.84035
 C496 C 0.81129 0.25818 0.80567
 N497 N 0.83238 0.24901 0.79150
 N498 N 0.85297 0.25156 0.81136
 N499 N 0.41623 0.75606 0.44832
 C500 C 0.41325 0.76960 0.41569
 N501 N 0.43132 0.78461 0.40423
 N502 N 0.45169 0.78616 0.42494
 C503 C 0.45463 0.77287 0.45796
 N504 N 0.43660 0.75760 0.46902
 C505 C 0.39130 0.76797 0.39343
 C506 C 0.37285 0.76652 0.37476
 C507 C 0.35088 0.76461 0.35258
 N508 N 0.35086 0.75325 0.31752
 N509 N 0.33039 0.75107 0.29723
 C510 C 0.30926 0.76019 0.31132
 N511 N 0.30935 0.77161 0.34641
 N512 N 0.32983 0.77379 0.36670
 N513 N 0.24812 0.93443 0.09832
 C514 C 0.26376 0.91598 0.09133
 N515 N 0.28018 0.91819 0.06214
 N516 N 0.28086 0.93820 0.04048
 C517 C 0.26503 0.95664 0.04703
 N518 N 0.24880 0.95445 0.07663
 C519 C 0.26281 0.89426 0.11426
 C520 C 0.26188 0.87591 0.13326
 C521 C 0.26054 0.85396 0.15557
 N522 N 0.27021 0.83314 0.14148
 N523 N 0.26841 0.81261 0.16171
 C524 C 0.25689 0.81223 0.19671
 N525 N 0.24729 0.83314 0.21080
 N526 N 0.24910 0.85367 0.19057
 N527 N 0.75613 0.43291 0.59712
 C528 C 0.77075 0.41397 0.58816
 N529 N 0.78618 0.41590 0.55754
 N530 N 0.78683 0.43612 0.53634
 C531 C 0.77194 0.45503 0.54486
 N532 N 0.75677 0.45311 0.57592
 C533 C 0.76950 0.39199 0.61036
 C534 C 0.76804 0.37352 0.62892
 C535 C 0.76582 0.35153 0.65090
 N536 N 0.77483 0.33044 0.63672
 N537 N 0.77214 0.30990 0.65666
 C538 C 0.76033 0.30977 0.69142
 N539 N 0.75137 0.33094 0.70557
 N540 N 0.75406 0.35147 0.68563
 N541 N 0.71839 0.08292 0.05853
 C542 C 0.73431 0.08483 0.08848
 N543 N 0.74936 0.06605 0.09635
 N544 N 0.74860 0.04599 0.07481
 C545 C 0.73288 0.04407 0.04448
 N546 N 0.71763 0.06284 0.03699
 C547 C 0.73544 0.10655 0.11134
 C548 C 0.73669 0.12481 0.13048
 C549 C 0.73852 0.14659 0.15307
 N550 N 0.75000 0.14645 0.18802
 N551 N 0.75228 0.16681 0.20854
 C552 C 0.74314 0.18800 0.19475
 N553 N 0.73160 0.18806 0.15978
 N554 N 0.72933 0.16769 0.13927
 N555 N 0.24548 0.56740 0.59903
 C556 C 0.23091 0.58637 0.59000
 N557 N 0.21542 0.58439 0.55950
 N558 N 0.21466 0.56411 0.53847
 C559 C 0.22950 0.54517 0.54702
 N560 N 0.24473 0.54713 0.57799
 C561 C 0.23223 0.60845 0.61202
 C562 C 0.23368 0.62701 0.63040
 C563 C 0.23580 0.64910 0.65221
 N564 N 0.22656 0.67009 0.63801
 N565 N 0.22903 0.69068 0.65790
 C566 C 0.24085 0.69096 0.69265
 N567 N 0.25004 0.66990 0.70680
 N568 N 0.24757 0.64932 0.68692
 N569 N 0.91959 0.71296 0.06434
 C570 C 0.91487 0.73191 0.08834
 N571 N 0.93083 0.75052 0.09014
 N572 N 0.95082 0.75031 0.06837
 C573 C 0.95542 0.73156 0.04382
 N574 N 0.93960 0.71273 0.04256
 C575 C 0.89307 0.73253 0.11111
 C576 C 0.87471 0.73348 0.13010
 C577 C 0.85282 0.73517 0.15252
 N578 N 0.85278 0.74673 0.18740
 N579 N 0.83230 0.74907 0.20765
 C580 C 0.81118 0.73994 0.19368
 N581 N 0.81130 0.72829 0.15878
 N582 N 0.83179 0.72596 0.13853
 N583 N 0.43341 0.23998 0.59651
 C584 C 0.41411 0.22650 0.58538
 N585 N 0.41579 0.21273 0.55274
 N586 N 0.43611 0.21262 0.53169
 C587 C 0.45536 0.22643 0.54239
 N588 N 0.45370 0.23988 0.57546
 C589 C 0.39195 0.22746 0.60727
 C590 C 0.37337 0.22884 0.62565
 C591 C 0.35128 0.23109 0.64749
 N592 N 0.33017 0.22236 0.63300
 N593 N 0.30956 0.22513 0.65280
 C594 C 0.30937 0.23677 0.68770
 N595 N 0.33056 0.24545 0.70215
 N596 N 0.35117 0.24267 0.68236
 N597 N 0.07856 0.25089 0.06355
 C598 C 0.08404 0.26960 0.08754
 N599 N 0.06908 0.28910 0.08876
 N600 N 0.04933 0.28993 0.06640
 C601 C 0.04403 0.27137 0.04184
 N602 N 0.05884 0.25170 0.04122
 C603 C 0.10552 0.26871 0.11106
 C604 C 0.12377 0.26751 0.13029
 C605 C 0.14570 0.26562 0.15257
 N606 N 0.14585 0.25384 0.18727
 N607 N 0.16641 0.25135 0.20728
 C608 C 0.18750 0.26052 0.19320
 N609 N 0.18727 0.27235 0.15848
 N610 N 0.16671 0.27484 0.13848
 N611 N 0.58362 0.75548 0.55230
 C612 C 0.58670 0.76911 0.58481
 N613 N 0.56872 0.78430 0.59617
 N614 N 0.54835 0.78595 0.57549
 C615 C 0.54530 0.77258 0.54259
 N616 N 0.56324 0.75713 0.53162
 C617 C 0.60868 0.76742 0.60698
 C618 C 0.62717 0.76596 0.62557
 C619 C 0.64918 0.76409 0.64763
 N620 N 0.64936 0.75264 0.68261
 N621 N 0.66988 0.75057 0.70283
 C622 C 0.69090 0.75990 0.68876
 N623 N 0.69065 0.77141 0.65375
 N624 N 0.67013 0.77348 0.63353
   
