data_POSCAR
  _audit_creation_date              2014-09-24
  _audit_creation_method            'ToBaCCo'
  _symmetry_space_group_name_H-M    'P1'
  _symmetry_Int_Tables_number       1
  _symmetry_cell_setting            triclinic
  loop_
  _symmetry_equiv_pos_as_xyz
 x,y,z
_cell_length_a 33.8394
_cell_length_b 33.5036
_cell_length_c 17.6441
_cell_angle_alpha 89.989400
_cell_angle_beta 90.064500
_cell_angle_gamma 107.452400
loop_
  _atom_site_label
  _atom_site_type_symbol
  _atom_site_fract_x
  _atom_site_fract_y
  _atom_site_fract_z
C1 C 0.45361 0.91144 0.57288
 C2 C 0.43792 0.89265 0.50363
 C3 C 0.45539 0.90927 0.43459
 C4 C 0.48732 0.94777 0.43308
 C5 C 0.50082 0.96965 0.50167
 C6 C 0.48428 0.95134 0.57193
 C7 C 0.49717 0.97455 0.63861
 C8 C 0.52734 1.01317 0.63713
 C9 C 0.54387 1.03224 0.56833
 C10 C 0.53085 1.00997 0.49990
 C11 C 0.50594 0.96502 0.36474
 C12 C 0.53627 1.00364 0.36341
 C13 C 0.54768 1.02786 0.42966
 C14 C 0.57744 1.06829 0.42808
 C15 C 0.59317 1.08754 0.49720
 C16 C 0.57472 1.07191 0.56663
 H17 H 0.48376 0.96357 0.69310
 H18 H 0.53775 1.02762 0.69125
 H19 H 0.49734 0.94875 0.31142
 H20 H 0.55104 1.01406 0.30960
 H21 H 0.41427 0.86244 0.50329
 H22 H 0.61591 1.11830 0.49640
 C23 C -0.09251 0.45756 0.43562
 C24 C -0.10944 0.44096 0.50501
 C25 C -0.08992 0.45597 0.57405
 C26 C -0.04956 0.48545 0.57254
 C27 C -0.03140 0.50146 0.50185
 C28 C -0.05339 0.48818 0.43338
 C29 C -0.03525 0.50503 0.36427
 C30 C 0.00427 0.53352 0.36208
 C31 C 0.02758 0.54558 0.42873
 C32 C 0.00928 0.53008 0.49939
 C33 C -0.02550 0.49688 0.63874
 C34 C 0.01403 0.52527 0.63641
 C35 C 0.03207 0.54215 0.56739
 C36 C 0.07260 0.57035 0.56447
 C37 C 0.08994 0.58589 0.49472
 C38 C 0.06870 0.57282 0.42676
 H39 H -0.05128 0.49594 0.31096
 H40 H 0.01644 0.54589 0.30741
 H41 H -0.03627 0.48309 0.69311
 H42 H 0.03056 0.53339 0.68947
 H43 H -0.14001 0.41820 0.50505
 H44 H 0.12165 0.60622 0.49304
 C45 C 0.45302 0.55820 0.57165
 C46 C 0.43819 0.56790 0.50200
 C47 C 0.45293 0.55750 0.43314
 C48 C 0.48106 0.53363 0.43286
 C49 C 0.49475 0.52130 0.50266
 C50 C 0.48077 0.53360 0.57228
 C51 C 0.49149 0.51735 0.64012
 C52 C 0.51709 0.49182 0.64024
 C53 C 0.53337 0.48116 0.57252
 C54 C 0.52105 0.49509 0.50279
 C55 C 0.49408 0.51990 0.36470
 C56 C 0.51973 0.49433 0.36482
 C57 C 0.53347 0.48139 0.43311
 C58 C 0.55746 0.45331 0.43362
 C59 C 0.56789 0.43860 0.50260
 C60 C 0.55807 0.45346 0.57214
 H61 H 0.47860 0.52239 0.69399
 H62 H 0.52220 0.47891 0.69419
 H63 H 0.48346 0.52763 0.31037
 H64 H 0.52754 0.48369 0.31058
 H65 H 0.41685 0.58649 0.50103
 H66 H 0.58657 0.41731 0.50182
 O67 O 0.36460 0.67591 -0.08443
 O68 O 0.36524 0.75322 -0.06421
 C69 C 0.33910 0.76510 -0.10297
 O70 O 0.30074 0.75433 -0.08800
 O71 O 0.23081 0.69669 -0.06563
 C72 C 0.22493 0.66260 -0.10180
 O73 O 0.24374 0.63622 -0.08643
 O74 O 0.31188 0.61786 -0.06571
 C75 C 0.34400 0.63881 -0.10145
 O76 O 0.36548 0.66394 0.06656
 O77 O 0.36313 0.74025 0.08685
 C78 C 0.34322 0.76592 0.10063
 O79 O 0.31135 0.76686 0.06328
 O80 O 0.24323 0.70609 0.08557
 C81 C 0.22501 0.66801 0.10069
 O82 O 0.23140 0.63780 0.06422
 O83 O 0.30131 0.62211 0.08615
 C84 C 0.33948 0.63482 0.10258
 Cr85 Cr 0.36221 0.70759 0.00118
 Cr86 Cr 0.27277 0.72946 -0.00111
 Cr87 Cr 0.27332 0.63080 -0.00030
 O88 O 0.30276 0.68923 0.00000
 O89 O 0.61865 0.31186 -0.06471
 O90 O 0.63734 0.24337 -0.08536
 C91 C 0.66416 0.22556 -0.10244
 O92 O 0.69794 0.23148 -0.06629
 O93 O 0.75447 0.30224 -0.08702
 C94 C 0.76469 0.34094 -0.10212
 O95 O 0.75257 0.36712 -0.06354
 O96 O 0.67571 0.36565 -0.08327
 C97 C 0.63910 0.34449 -0.10035
 O98 O 0.62312 0.30128 0.08718
 O99 O 0.63921 0.23098 0.06549
 C100 C 0.66935 0.22521 0.10231
 O101 O 0.70693 0.24338 0.08605
 O102 O 0.76652 0.31241 0.06441
 C103 C 0.76545 0.34458 0.10161
 O104 O 0.74002 0.36465 0.08758
 O105 O 0.66416 0.36627 0.06776
 C106 C 0.63546 0.33982 0.10370
 Cr107 Cr 0.63188 0.27313 0.00077
 Cr108 Cr 0.72989 0.27355 -0.00057
 Cr109 Cr 0.70739 0.36348 0.00211
 O110 O 0.68968 0.30338 0.00079
 C111 C 0.38311 0.84222 -0.29318
 C112 C 0.41028 0.83856 -0.23537
 N113 N 0.45122 0.85947 -0.24133
 C114 C 0.46625 0.88428 -0.30218
 C115 C 0.43909 0.88845 -0.36040
 N116 N 0.39817 0.86635 -0.35453
 N117 N 0.34211 0.82151 -0.28719
 C118 C 0.32699 0.79714 -0.22592
 C119 C 0.35422 0.79276 -0.16836
 N120 N 0.39536 0.81364 -0.17476
 H121 H 0.49932 0.89912 -0.30645
 H122 H 0.29417 0.78078 -0.22293
 C123 C 0.13875 0.63182 -0.28222
 C124 C 0.15449 0.60158 -0.24929
 N125 N 0.14233 0.56179 -0.27607
 C126 C 0.11516 0.55083 -0.33468
 C127 C 0.09959 0.58104 -0.36821
 N128 N 0.11197 0.62102 -0.34146
 N129 N 0.15088 0.67156 -0.25487
 C130 C 0.17815 0.68246 -0.19616
 C131 C 0.19443 0.65234 -0.16386
 N132 N 0.18202 0.61257 -0.19150
 H133 H 0.10623 0.51902 -0.35578
 H134 H 0.18743 0.71439 -0.17573
 C135 C 0.38480 0.58645 -0.29215
 C136 C 0.41307 0.60781 -0.23679
 N137 N 0.45393 0.61175 -0.24504
 C138 C 0.46784 0.59507 -0.30598
 C139 C 0.43968 0.57391 -0.36226
 N140 N 0.39882 0.57094 -0.35414
 N141 N 0.34375 0.58126 -0.28273
 C142 C 0.32968 0.59669 -0.22048
 C143 C 0.35805 0.61925 -0.16619
 N144 N 0.39920 0.62437 -0.17582
 H145 H 0.50074 0.59956 -0.31175
 H146 H 0.29684 0.59245 -0.21445
 C147 C 0.63572 0.14440 -0.29153
 C148 C 0.60435 0.15183 -0.24695
 N149 N 0.56411 0.13302 -0.26479
 C150 C 0.55364 0.10650 -0.32469
 C151 C 0.58487 0.09834 -0.36947
 N152 N 0.62533 0.11856 -0.35258
 N153 N 0.67602 0.16274 -0.27236
 C154 C 0.68631 0.18824 -0.21066
 C155 C 0.65485 0.19635 -0.16689
 N156 N 0.61460 0.17792 -0.18658
 H157 H 0.52119 0.09276 -0.33841
 H158 H 0.71863 0.20273 -0.19696
 C159 C 0.84061 0.38536 -0.29266
 C160 C 0.83860 0.41253 -0.23336
 N161 N 0.86088 0.45354 -0.23798
 C162 C 0.88538 0.46859 -0.29900
 C163 C 0.88766 0.44142 -0.35888
 N164 N 0.86435 0.40050 -0.35415
 N165 N 0.81870 0.34427 -0.28803
 C166 C 0.79469 0.32905 -0.22666
 C167 C 0.79190 0.35630 -0.16762
 N168 N 0.81398 0.39756 -0.17262
 H169 H 0.90139 0.50178 -0.30210
 H170 H 0.77734 0.29616 -0.22475
 C171 C 0.58670 0.38505 -0.29129
 C172 C 0.60760 0.41373 -0.23593
 N173 N 0.61112 0.45491 -0.24430
 C174 C 0.59445 0.46876 -0.30536
 C175 C 0.57375 0.44018 -0.36164
 N176 N 0.57119 0.39901 -0.35339
 N177 N 0.58195 0.34366 -0.28177
 C178 C 0.59739 0.32965 -0.21942
 C179 C 0.61949 0.35844 -0.16513
 N180 N 0.62417 0.39993 -0.17486
 H181 H 0.59859 0.50193 -0.31122
 H182 H 0.59351 0.29654 -0.21333
 C183 C 0.84978 0.38894 0.28167
 C184 C 0.82885 0.41471 0.24776
 N185 N 0.83530 0.45431 0.27366
 C186 C 0.86158 0.46925 0.33244
 C187 C 0.88204 0.44334 0.36726
 N188 N 0.87554 0.40363 0.34117
 N189 N 0.84352 0.34946 0.25524
 C190 C 0.81709 0.33447 0.19657
 C191 C 0.79544 0.35993 0.16344
 N192 N 0.80202 0.39956 0.19007
 H193 H 0.86586 0.50073 0.35291
 H194 H 0.81252 0.30279 0.17695
 C195 C 0.63923 0.14394 0.29133
 C196 C 0.60956 0.14401 0.23588
 N197 N 0.57023 0.11868 0.24401
 C198 C 0.55916 0.09287 0.30481
 C199 C 0.58879 0.09218 0.36093
 N200 N 0.62807 0.11867 0.35290
 N201 N 0.67861 0.16946 0.28308
 C202 C 0.68958 0.19522 0.22196
 C203 C 0.65963 0.19598 0.16697
 N204 N 0.62027 0.17018 0.17561
 H205 H 0.52698 0.07469 0.31088
 H206 H 0.72110 0.21549 0.21724
 C207 C 0.57998 0.38271 0.28897
 C208 C 0.60783 0.41113 0.24112
 N209 N 0.61765 0.45279 0.25544
 C210 C 0.60096 0.46731 0.31567
 C211 C 0.57319 0.43890 0.36384
 N212 N 0.56362 0.39716 0.34944
 N213 N 0.57025 0.34108 0.27493
 C214 C 0.58720 0.32645 0.21527
 C215 C 0.61555 0.35474 0.16756
 N216 N 0.62508 0.39655 0.18186
 H217 H 0.60980 0.50060 0.32677
 H218 H 0.57895 0.29304 0.20582
 C219 C 0.13998 0.63693 0.28265
 C220 C 0.14548 0.60597 0.23382
 N221 N 0.12436 0.56522 0.24657
 C222 C 0.09809 0.55393 0.30636
 C223 C 0.09260 0.58478 0.35577
 N224 N 0.11405 0.62564 0.34283
 N225 N 0.16159 0.67763 0.27031
 C226 C 0.18867 0.68879 0.21153
 C227 C 0.19477 0.65775 0.16317
 N228 N 0.17275 0.61703 0.17566
 H229 H 0.08257 0.52110 0.31661
 H230 H 0.20566 0.72145 0.20342
 C231 C 0.38748 0.85149 0.27998
 C232 C 0.41264 0.82966 0.24712
 N233 N 0.45160 0.83556 0.27385
 C234 C 0.46651 0.86216 0.33244
 C235 C 0.44124 0.88361 0.36616
 N236 N 0.40213 0.87761 0.33930
 N237 N 0.34860 0.84568 0.25276
 C238 C 0.33364 0.81887 0.19432
 C239 C 0.35850 0.79634 0.16222
 N240 N 0.39752 0.80248 0.18963
 H241 H 0.49746 0.86595 0.35364
 H242 H 0.30246 0.81470 0.17405
 C243 C 0.38262 0.57934 0.28806
 C244 C 0.41057 0.60768 0.24023
 N245 N 0.45183 0.61803 0.25470
 C246 C 0.46641 0.60140 0.31505
 C247 C 0.43847 0.57314 0.36321
 N248 N 0.39712 0.56305 0.34866
 N249 N 0.34138 0.56910 0.27389
 C250 C 0.32669 0.58601 0.21413
 C251 C 0.35450 0.61486 0.16646
 N252 N 0.39592 0.62490 0.18088
 H253 H 0.49938 0.61066 0.32627
 H254 H 0.29360 0.57735 0.20459
   
