data_POSCAR
  _audit_creation_date              2014-09-24
  _audit_creation_method            'ToBaCCo'
  _symmetry_space_group_name_H-M    'P1'
  _symmetry_Int_Tables_number       1
  _symmetry_cell_setting            triclinic
  loop_
  _symmetry_equiv_pos_as_xyz
 x,y,z
_cell_length_a 37.4317
_cell_length_b 38.0294
_cell_length_c 37.1750
_cell_angle_alpha 90.033600
_cell_angle_beta 90.097400
_cell_angle_gamma 90.205100
loop_
  _atom_site_label
  _atom_site_type_symbol
  _atom_site_fract_x
  _atom_site_fract_y
  _atom_site_fract_z
N1 N 0.13924 0.16257 0.23561
 N2 N 0.16176 0.13627 0.23279
 C3 C 0.15884 0.11566 0.26218
 C4 C 0.13295 0.13001 0.28451
 C5 C 0.12126 0.15973 0.26675
 H6 H 0.17425 0.09207 0.26669
 H7 H 0.10072 0.17767 0.27564
 Cu8 Cu 0.19239 0.13147 0.19065
 Cu9 Cu 0.13319 0.19735 0.19781
 Cu10 Cu 0.19578 0.19656 0.12947
 N11 N 0.23166 0.13527 0.15640
 N12 N 0.23318 0.16108 0.13292
 C13 C 0.26266 0.15732 0.11259
 C14 C 0.28068 0.12757 0.12385
 C15 C 0.26019 0.11419 0.15185
 H16 H 0.27031 0.17477 0.09093
 H17 H 0.26540 0.09096 0.16774
 N18 N 0.16005 0.23440 0.13501
 N19 N 0.13619 0.23460 0.16112
 C20 C 0.11567 0.26348 0.15789
 C21 C 0.12711 0.28235 0.12822
 C22 C 0.15528 0.26318 0.11444
 H23 H 0.09404 0.27018 0.17581
 H24 H 0.17107 0.26983 0.09107
 H25 H 0.15439 0.17082 0.15450
 H26 H 0.18651 0.19475 0.18405
 N27 N -0.13355 0.84283 0.23131
 N28 N -0.15608 0.86905 0.22798
 C29 C -0.15192 0.89113 0.25600
 C30 C -0.12532 0.87806 0.27799
 C31 C -0.11415 0.84734 0.26148
 H32 H -0.16727 0.91481 0.26024
 H33 H -0.09361 0.82950 0.27054
 Cu34 Cu -0.18925 0.87153 0.18790
 Cu35 Cu -0.13069 0.80525 0.19594
 Cu36 Cu -0.20112 0.80079 0.13544
 N37 N -0.23187 0.86598 0.15862
 N38 N -0.23693 0.83786 0.13865
 C39 C -0.26836 0.84077 0.12124
 C40 C -0.28381 0.87258 0.13094
 C41 C -0.25989 0.88775 0.15475
 H42 H -0.27871 0.82137 0.10266
 H43 H -0.26261 0.91287 0.16813
 N44 N -0.16566 0.76275 0.14099
 N45 N -0.13856 0.76477 0.16371
 C46 C -0.11874 0.73540 0.16090
 C47 C -0.13411 0.71385 0.13512
 C48 C -0.16379 0.73196 0.12317
 H49 H -0.09493 0.73020 0.17645
 H50 H -0.18241 0.72335 0.10268
 H51 H -0.15633 0.82747 0.15243
 H52 H -0.18498 0.80788 0.18809
 N53 N -0.13039 0.15965 -0.22691
 N54 N -0.15350 0.13362 -0.22499
 C55 C -0.14903 0.11237 -0.25360
 C56 C -0.12165 0.12582 -0.27445
 C57 C -0.11036 0.15586 -0.25666
 H58 H -0.16466 0.08897 -0.25901
 H59 H -0.08931 0.17376 -0.26458
 Cu60 Cu -0.18750 0.13017 -0.18558
 Cu61 Cu -0.12748 0.19615 -0.19051
 Cu62 Cu -0.19892 0.19992 -0.13166
 N63 N -0.23006 0.13515 -0.15600
 N64 N -0.23483 0.16303 -0.13566
 C65 C -0.26615 0.15998 -0.11823
 C66 C -0.28191 0.12848 -0.12808
 C67 C -0.25824 0.11332 -0.15224
 H68 H -0.27650 0.17902 -0.09934
 H69 H -0.26105 0.08842 -0.16602
 N70 N -0.16323 0.23789 -0.13590
 N71 N -0.13566 0.23610 -0.15792
 C72 C -0.11586 0.26554 -0.15448
 C73 C -0.13181 0.28686 -0.12902
 C74 C -0.16174 0.26858 -0.11790
 H75 H -0.09180 0.27101 -0.16952
 H76 H -0.18084 0.27707 -0.09794
 H77 H -0.15440 0.17295 -0.14832
 H78 H -0.18193 0.19373 -0.18423
 N79 N 0.13878 0.83387 -0.23539
 N80 N 0.16604 0.85569 -0.23748
 C81 C 0.16176 0.87658 -0.26640
 C82 C 0.13006 0.86736 -0.28323
 C83 C 0.11619 0.84022 -0.26282
 H84 H 0.18033 0.89686 -0.27456
 H85 H 0.09149 0.82614 -0.26765
 Cu86 Cu 0.20476 0.85441 -0.20253
 Cu87 Cu 0.13456 0.79925 -0.19699
 Cu88 Cu 0.20369 0.79551 -0.13538
 N89 N 0.24304 0.85236 -0.16710
 N90 N 0.24288 0.82883 -0.14120
 C91 C 0.27229 0.83309 -0.12072
 C92 C 0.29194 0.86092 -0.13464
 C93 C 0.27259 0.87243 -0.16402
 H94 H 0.27850 0.81733 -0.09736
 H95 H 0.27958 0.89397 -0.18167
 N96 N 0.16505 0.76020 -0.13720
 N97 N 0.13849 0.76170 -0.16057
 C98 C 0.11669 0.73388 -0.15537
 C99 C 0.13028 0.71398 -0.12735
 C100 C 0.16088 0.73140 -0.11657
 H101 H 0.09297 0.72842 -0.17105
 H102 H 0.17886 0.72343 -0.09531
 H103 H 0.16488 0.82597 -0.15955
 H104 H 0.18886 0.79408 -0.18919
 N105 N 0.16542 1.14388 0.77006
 N106 N 0.13851 1.16603 0.76999
 C107 C 0.11845 1.16040 0.74040
 C108 C 0.13363 1.13315 0.72095
 C109 C 0.16335 1.12336 0.74060
 H110 H 0.09467 1.17507 0.73372
 H111 H 0.18189 1.10258 0.73406
 Cu112 Cu 0.13200 1.20036 0.80838
 Cu113 Cu 0.19989 1.14225 0.80936
 Cu114 Cu 0.19550 1.20936 0.87180
 N115 N 0.13539 1.24243 0.83825
 N116 N 0.16125 1.24596 0.86195
 C117 C 0.15805 1.27699 0.87878
 C118 C 0.12848 1.29386 0.86528
 C119 C 0.11451 1.27127 0.83947
 H120 H 0.17548 1.28629 0.90001
 H121 H 0.09109 1.27537 0.82295
 N122 N 0.23397 1.17466 0.87132
 N123 N 0.23623 1.14917 0.84734
 C124 C 0.26607 1.13048 0.85398
 C125 C 0.28315 1.14512 0.88357
 C126 C 0.26210 1.17297 0.89376
 H127 H 0.27462 1.10799 0.83847
 H128 H 0.26715 1.19084 0.91583
 H129 H 0.17063 1.16601 0.84893
 H130 H 0.19598 1.19558 0.81810
 N131 N 0.84744 0.86561 0.77130
 N132 N 0.86834 0.83826 0.76682
 C133 C 0.88791 0.84284 0.73684
 C134 C 0.87874 0.87496 0.72187
 C135 C 0.85318 0.88873 0.74455
 H136 H 0.90710 0.82411 0.72675
 H137 H 0.83926 0.91343 0.74144
 Cu138 Cu 0.86817 0.79956 0.80094
 Cu139 Cu 0.81365 0.86839 0.81094
 Cu140 Cu 0.79063 0.78609 0.84364
 N141 N 0.86095 0.75888 0.83166
 N142 N 0.83030 0.75360 0.84801
 C143 C 0.83187 0.72342 0.86674
 C144 C 0.86539 0.70917 0.86216
 C145 C 0.88327 0.73233 0.83965
 H146 H 0.81029 0.71279 0.88276
 H147 H 0.91031 0.73013 0.82977
 N148 N 0.76065 0.82792 0.85002
 N149 N 0.77009 0.85954 0.83885
 C150 C 0.74478 0.88274 0.84841
 C151 C 0.71817 0.86469 0.86658
 C152 C 0.72914 0.83011 0.86717
 H153 H 0.74570 0.91051 0.84228
 H154 H 0.71529 0.80821 0.87948
 H155 H 0.82709 0.82559 0.84440
 H156 H 0.80562 0.81721 0.79982
 N157 N 0.15595 0.86721 1.22868
 N158 N 0.13031 0.84351 1.22848
 C159 C 0.11056 0.84719 1.25845
 C160 C 0.12453 0.87472 1.27837
 C161 C 0.15337 0.88688 1.25865
 H162 H 0.08767 0.83111 1.26529
 H163 H 0.17110 0.90842 1.26533
 Cu164 Cu 0.12509 0.81017 1.18911
 Cu165 Cu 0.19001 0.87146 1.18960
 Cu166 Cu 0.19022 0.80342 1.12755
 N167 N 0.12936 0.76894 1.15845
 N168 N 0.15528 0.76620 1.13482
 C169 C 0.15196 0.73549 1.11714
 C170 C 0.12230 0.71797 1.13049
 C171 C 0.10865 0.73996 1.15668
 H172 H 0.16962 0.72693 1.09592
 H173 H 0.08526 0.73525 1.17306
 N174 N 0.22776 0.83977 1.12954
 N175 N 0.22756 0.86572 1.15313
 C176 C 0.25689 0.88571 1.14832
 C177 C 0.27646 0.87163 1.12028
 C178 C 0.25724 0.84260 1.10903
 H179 H 0.26358 0.90852 1.16434
 H180 H 0.26452 0.82467 1.08769
 H181 H 0.16323 0.84555 1.14891
 H182 H 0.18892 0.81788 1.18112
 N183 N 0.83311 1.14278 1.23896
 N184 N 0.86153 1.16250 1.23369
 C185 C 0.88475 1.15753 1.26088
 C186 C 0.87016 1.13335 1.28441
 C187 C 0.83730 1.12451 1.26967
 H188 H 0.91041 1.17048 1.26340
 H189 H 0.81801 1.10595 1.28012
 Cu190 Cu 0.86543 1.19298 1.19210
 Cu191 Cu 0.79365 1.14098 1.20472
 Cu192 Cu 0.80119 1.19409 1.12919
 N193 N 0.86094 1.23184 1.15855
 N194 N 0.83586 1.23206 1.13378
 C195 C 0.83923 1.26132 1.11375
 C196 C 0.86778 1.28061 1.12682
 C197 C 0.88102 1.26112 1.15534
 H198 H 0.82212 1.26812 1.09134
 H199 H 0.90355 1.26749 1.17240
 N200 N 0.76045 1.16225 1.13734
 N201 N 0.75706 1.14276 1.16652
 C202 C 0.72620 1.12456 1.16440
 C203 C 0.70940 1.13301 1.13249
 C204 C 0.73184 1.15704 1.11594
 H205 H 0.71667 1.10615 1.18439
 H206 H 0.72774 1.16992 1.09036
 H207 H 0.82311 1.15392 1.16057
 H208 H 0.80104 1.19125 1.18413
 N209 N 0.53875 1.05836 0.95950
 N210 N 0.56567 1.08069 0.95662
 N211 N 0.46677 1.03017 0.92989
 N212 N 0.44089 1.03190 0.90589
 N213 N 0.46362 1.05525 0.95395
 N214 N 0.43533 1.07480 0.94691
 N215 N 0.54154 1.03313 0.93556
 N216 N 0.57039 1.03765 0.91567
 C217 C 0.58512 1.06748 0.92913
 C218 C 0.42159 1.05985 0.91674
 N219 N 0.46757 0.93131 0.95830
 N220 N 0.44050 0.90950 0.95331
 N221 N 0.54374 0.95758 0.93813
 N222 N 0.57261 0.95376 0.91827
 N223 N 0.54255 0.93368 0.96356
 N224 N 0.57066 0.91289 0.96171
 N225 N 0.46889 0.95480 0.93248
 N226 N 0.44274 0.94962 0.90918
 Mn227 Mn 0.50531 0.99391 0.93362
 C228 C 0.42537 0.92121 0.92247
 C229 C 0.58911 0.92579 0.93333
 N230 N 0.45832 1.05781 1.03154
 N231 N 0.43058 1.07904 1.03390
 N232 N 0.53268 1.03685 1.06233
 N233 N 0.55932 1.04167 1.08510
 N234 N 0.53345 1.06064 1.03675
 N235 N 0.56075 1.08228 1.04142
 N236 N 0.45760 1.03432 1.05742
 N237 N 0.42930 1.03895 1.07808
 Mn238 Mn 0.49846 1.05849 0.99542
 C239 C 0.41269 1.06696 1.06302
 C240 C 0.57648 1.07018 1.07183
 N241 N 0.53716 0.93586 1.04058
 N242 N 0.56481 0.91538 1.04685
 N243 N 0.46007 0.95864 1.05970
 N244 N 0.43104 0.95468 1.07937
 N245 N 0.46232 0.93356 1.03553
 N246 N 0.43493 0.91177 1.03816
 N247 N 0.53524 0.96097 1.06475
 N248 N 0.56170 0.95817 1.08820
 Mn249 Mn 0.50237 0.93319 0.99951
 Mn250 Mn 0.49640 0.99771 1.06153
 Cl251 Cl 0.50062 0.99586 0.99755
 C252 C 0.57983 0.92951 1.07668
 C253 C 0.41574 0.92525 1.06567
 N254 N -0.04250 0.46492 -0.06071
 N255 N -0.04627 0.43769 -0.08251
 N256 N -0.06694 0.53854 -0.03417
 N257 N -0.08847 0.56570 -0.03812
 N258 N -0.04200 0.53887 -0.05895
 N259 N -0.04579 0.56620 -0.08039
 N260 N -0.06742 0.46462 -0.03590
 N261 N -0.08879 0.43729 -0.04008
 C262 C -0.07540 0.42085 -0.06929
 C263 C -0.07491 0.58264 -0.06708
 N264 N -0.04319 0.53591 0.06869
 N265 N -0.04718 0.56308 0.09054
 N266 N -0.06803 0.46265 0.04135
 N267 N -0.08979 0.43543 0.04418
 N268 N -0.04335 0.46166 0.06647
 N269 N -0.04761 0.43366 0.08704
 N270 N -0.06755 0.53649 0.04324
 N271 N -0.08874 0.56385 0.04704
 Mn272 Mn -0.06789 0.50061 0.00364
 C273 C -0.07587 0.58011 0.07668
 C274 C -0.07679 0.41766 0.07281
 N275 N 0.03474 0.53910 -0.05832
 N276 N 0.03926 0.56666 -0.07946
 N277 N 0.05906 0.46457 -0.03509
 N278 N 0.08043 0.43741 -0.03961
 N279 N 0.03441 0.46514 -0.06024
 N280 N 0.03835 0.43849 -0.08261
 N281 N 0.05920 0.53858 -0.03297
 N282 N 0.08105 0.56569 -0.03618
 Mn283 Mn -0.00384 0.50199 -0.05999
 C284 C 0.06832 0.58293 -0.06529
 C285 C 0.06723 0.42151 -0.06940
 N286 N 0.03386 0.46144 0.06709
 N287 N 0.03818 0.43351 0.08783
 N288 N 0.05868 0.53657 0.04453
 N289 N 0.07974 0.56413 0.04912
 N290 N 0.03387 0.53564 0.06945
 N291 N 0.03738 0.56253 0.09167
 N292 N 0.05877 0.46263 0.04227
 N293 N 0.08069 0.43573 0.04545
 Mn294 Mn -0.00471 0.49861 0.06844
 Mn295 Mn 0.05935 0.50062 0.00470
 Cl296 Cl -0.00426 0.50046 0.00423
 C297 C 0.06762 0.41782 0.07394
 C298 C 0.06618 0.57996 0.07874
 N299 N 0.96176 -0.05904 0.53754
 N300 N 0.95761 -0.08038 0.56519
 N301 N 0.93759 -0.03260 0.46224
 N302 N 0.91586 -0.03563 0.43439
 N303 N 0.96166 -0.05760 0.46187
 N304 N 0.95705 -0.07830 0.43374
 N305 N 0.93750 -0.03422 0.53792
 N306 N 0.91611 -0.03800 0.56586
 C307 C 0.92895 -0.06696 0.58252
 C308 C 0.92833 -0.06428 0.41692
 N309 N 0.96515 0.06696 0.46476
 N310 N 0.96133 0.08931 0.43786
 N311 N 0.93959 0.04132 0.53956
 N312 N 0.91792 0.04495 0.56723
 N313 N 0.96516 0.06503 0.54058
 N314 N 0.96160 0.08543 0.56912
 N315 N 0.93976 0.04306 0.46403
 N316 N 0.91797 0.04848 0.43667
 Mn317 Mn 0.93819 0.00440 0.50090
 C318 C 0.93176 0.07745 0.42064
 C319 C 0.93191 0.07256 0.58537
 N320 N 1.03831 -0.05957 0.46205
 N321 N 1.04132 -0.08066 0.43409
 N322 N 1.06414 -0.03737 0.53808
 N323 N 1.08575 -0.04288 0.56563
 N324 N 1.03851 -0.06103 0.53746
 N325 N 1.04201 -0.08332 0.56438
 N326 N 1.06390 -0.03586 0.46215
 N327 N 1.08504 -0.04018 0.43405
 Mn328 Mn 1.00005 -0.05969 0.49975
 C329 C 1.07055 -0.06834 0.41693
 C330 C 1.07155 -0.07171 0.58169
 N331 N 1.04221 0.06332 0.54049
 N332 N 1.04696 0.08402 0.56862
 N333 N 1.06622 0.04007 0.46394
 N334 N 1.08741 0.04395 0.43581
 N335 N 1.04211 0.06508 0.46476
 N336 N 1.04623 0.08661 0.43724
 N337 N 1.06646 0.03846 0.53983
 N338 N 1.08835 0.04157 0.56758
 Mn339 Mn 1.00369 0.06555 0.50268
 Mn340 Mn 1.06569 0.00132 0.50098
 Cl341 Cl 1.00194 0.00293 0.50107
 C342 C 1.07589 0.07016 0.58524
 C343 C 1.07464 0.07322 0.41952
 C344 C 1.11970 0.11799 0.31747
 C345 C 1.13077 0.08835 0.33362
 C346 C 1.11630 0.07462 0.36810
 C347 C 1.08854 0.08846 0.38593
 H348 H 1.15157 0.07278 0.32130
 H349 H 1.12906 0.05133 0.37881
 H350 H 1.09931 0.13398 0.32976
 H351 H 1.07470 0.11129 0.37594
 C352 C 0.88743 -0.10579 0.31171
 C353 C 0.91280 -0.12055 0.33219
 C354 C 0.92676 -0.10547 0.36613
 C355 C 0.91274 -0.07778 0.38332
 H356 H 0.92486 -0.14497 0.32367
 H357 H 0.94977 -0.11853 0.37765
 H358 H 0.87546 -0.08107 0.31921
 H359 H 0.88941 -0.06444 0.37313
 C360 C 0.89170 0.11068 0.69165
 C361 C 0.91780 0.12582 0.67231
 C362 C 0.93205 0.11167 0.63811
 C363 C 0.91659 0.08586 0.61906
 H364 H 0.93027 0.14970 0.68204
 H365 H 0.95626 0.12381 0.62800
 H366 H 0.87953 0.08628 0.68306
 H367 H 0.89198 0.07374 0.62785
 C368 C 1.11371 -0.11763 0.68412
 C369 C 1.12920 -0.09176 0.66511
 C370 C 1.11393 -0.07583 0.63216
 C371 C 1.08565 -0.08862 0.61425
 H372 H 1.15440 -0.08087 0.67413
 H373 H 1.12735 -0.05260 0.62199
 H374 H 1.08814 -0.12838 0.67622
 H375 H 1.07205 -0.11215 0.62310
 C376 C 0.31245 1.11469 1.10893
 C377 C 0.32871 1.08532 1.12059
 C378 C 0.36232 1.07071 1.10558
 C379 C 0.37932 1.08288 1.07633
 H380 H 0.31736 1.07076 1.14282
 H381 H 0.37329 1.04822 1.11958
 H382 H 0.32384 1.12969 1.08709
 H383 H 0.36899 1.10488 1.06127
 C384 C 0.32400 0.87565 0.87756
 C385 C 0.34170 0.86379 0.90655
 C386 C 0.37517 0.87939 0.92089
 C387 C 0.39305 0.90624 0.90588
 H388 H 0.33122 0.84166 0.92152
 H389 H 0.38529 0.86796 0.94556
 H390 H 0.33411 0.89782 0.86253
 H391 H 0.38409 0.91832 0.88122
 C392 C 0.68406 0.88757 1.11931
 C393 C 0.66229 0.87183 1.09546
 C394 C 0.62896 0.88726 1.08101
 C395 C 0.61255 0.91598 1.09383
 H396 H 0.66943 0.84652 1.08437
 H397 H 0.61724 0.87347 1.05835
 H398 H 0.67746 0.91322 1.12987
 H399 H 0.62275 0.92993 1.11702
 C400 C 0.68550 1.11571 0.88497
 C401 C 0.67152 1.08452 0.87525
 C402 C 0.63735 1.06999 0.88903
 C403 C 0.61855 1.08362 0.91635
 H404 H 0.68529 1.06834 0.85579
 H405 H 0.62777 1.04618 0.87616
 H406 H 0.67153 1.13239 0.90375
 H407 H 0.62759 1.10683 0.93046
 C408 C 0.11303 0.31561 0.11341
 C409 C 0.08542 0.33290 0.12817
 C410 C 0.07009 0.36622 0.11422
 C411 C 0.08387 0.38501 0.08707
 H412 H 0.07258 0.32212 0.15178
 H413 H 0.04623 0.37568 0.12749
 H414 H 0.12598 0.32542 0.08950
 H415 H 0.10783 0.37664 0.07348
 C416 C -0.12018 0.32142 -0.11536
 C417 C -0.08965 0.33697 -0.12574
 C418 C -0.07637 0.37107 -0.11167
 C419 C -0.09032 0.38781 -0.08329
 H420 H -0.07308 0.32437 -0.14573
 H421 H -0.05316 0.38218 -0.12489
 H422 H -0.13764 0.33380 -0.09609
 H423 H -0.11280 0.37708 -0.06880
 C424 C 0.11647 0.68103 -0.11164
 C425 C 0.08605 0.66566 -0.12271
 C426 C 0.07120 0.63255 -0.10774
 C427 C 0.08433 0.61564 -0.07900
 H428 H 0.07091 0.67750 -0.14432
 H429 H 0.04780 0.62197 -0.12117
 H430 H 0.13239 0.66953 -0.09050
 H431 H 0.10717 0.62566 -0.06445
 C432 C -0.12203 0.67933 0.12174
 C433 C -0.09177 0.66393 0.13302
 C434 C -0.07803 0.62987 0.11934
 C435 C -0.09102 0.61313 0.09040
 H436 H -0.07579 0.67661 0.15357
 H437 H -0.05530 0.61883 0.13337
 H438 H -0.13892 0.66683 0.10191
 H439 H -0.11300 0.62387 0.07518
 C440 C 1.12143 0.11685 0.68697
 C441 C 1.09183 0.12733 0.66968
 C442 C 1.07804 0.11197 0.63569
 C443 C 1.09173 0.08390 0.61877
 H444 H 1.07637 0.14877 0.68066
 H445 H 1.05473 0.12466 0.62436
 H446 H 1.13759 0.09577 0.67641
 H447 H 1.11465 0.07018 0.62938
 C448 C 0.89183 -0.10848 0.68859
 C449 C 0.91526 -0.12420 0.66667
 C450 C 0.92880 -0.10867 0.63285
 C451 C 0.91400 -0.08115 0.61603
 H452 H 0.92601 -0.14960 0.67388
 H453 H 0.95180 -0.12137 0.62097
 H454 H 0.88165 -0.08260 0.68250
 H455 H 0.89040 -0.06851 0.62649
 C456 C 1.11044 -0.11225 0.31286
 C457 C 1.12511 -0.08509 0.33073
 C458 C 1.11154 -0.07069 0.36517
 C459 C 1.08364 -0.08384 0.38328
 H460 H 1.14833 -0.07203 0.31967
 H461 H 1.12541 -0.04791 0.37585
 H462 H 1.08715 -0.12571 0.32305
 H463 H 1.06916 -0.10654 0.37362
 C464 C 0.88724 0.12005 0.31747
 C465 C 0.87165 0.09599 0.33868
 C466 C 0.88793 0.08109 0.37160
 C467 C 0.91705 0.09397 0.38809
 H468 H 0.84576 0.08547 0.33135
 H469 H 0.87449 0.05843 0.38302
 H470 H 0.91355 0.13015 0.32366
 H471 H 0.93058 0.11713 0.37813
 C472 C 0.11547 0.32800 -0.12179
 C473 C 0.08311 0.34075 -0.12968
 C474 C 0.06905 0.37386 -0.11427
 C475 C 0.08226 0.38914 -0.08450
 H476 H 0.06594 0.32661 -0.14820
 H477 H 0.04594 0.38519 -0.12738
 H478 H 0.13338 0.34235 -0.10427
 H479 H 0.10421 0.37760 -0.06984
 C480 C -0.11948 0.31446 0.11231
 C481 C -0.09189 0.33225 0.12664
 C482 C -0.07788 0.36616 0.11284
 C483 C -0.09234 0.38444 0.08569
 H484 H -0.07812 0.32152 0.14974
 H485 H -0.05424 0.37641 0.12609
 H486 H -0.13354 0.32434 0.08908
 H487 H -0.11601 0.37530 0.07191
 C488 C -0.12183 0.67639 -0.12132
 C489 C -0.08865 0.66428 -0.12622
 C490 C -0.07501 0.63146 -0.11008
 C491 C -0.08998 0.61514 -0.08189
 H492 H -0.07049 0.67827 -0.14377
 H493 H -0.05070 0.62100 -0.12160
 H494 H -0.14079 0.66198 -0.10506
 H495 H -0.11330 0.62574 -0.06872
 C496 C 0.10709 0.68385 0.11919
 C497 C 0.12189 0.66419 0.09323
 C498 C 0.10730 0.63040 0.07978
 C499 C 0.07977 0.61293 0.09440
 H500 H 0.14584 0.67344 0.07999
 H501 H 0.12038 0.61948 0.05635
 H502 H 0.08285 0.67554 0.13245
 H503 H 0.06639 0.62261 0.11811
 C504 C 0.31644 1.13450 0.90159
 C505 C 0.33640 1.10776 0.89022
 C506 C 0.36926 1.09799 0.90950
 C507 C 0.38907 1.07121 0.89804
 H508 H 0.32850 1.09283 0.86668
 H509 H 0.37713 1.11257 0.93333
 H510 H 0.32472 1.14930 0.92513
 H511 H 0.38103 1.05667 0.87425
 C512 C 0.31072 0.88374 1.10521
 C513 C 0.32831 0.91177 1.11826
 C514 C 0.36275 0.92519 1.10434
 C515 C 0.38187 0.91002 1.07817
 H516 H 0.31706 0.92635 1.14048
 H517 H 0.37274 0.94906 1.11676
 H518 H 0.32115 0.86886 1.08286
 H519 H 0.37303 0.88614 1.06518
 C520 C 0.67512 1.11832 1.11975
 C521 C 0.66067 1.12680 1.08787
 C522 C 0.62677 1.11205 1.07362
 C523 C 0.60925 1.08466 1.08800
 H524 H 0.67401 1.14584 1.07090
 H525 H 0.61651 1.12394 1.04925
 H526 H 0.66189 1.10008 1.13759
 H527 H 0.61918 1.07147 1.11168
 C528 C 0.68489 0.87820 0.88228
 C529 C 0.67488 0.91181 0.87899
 C530 C 0.64112 0.92579 0.89348
 C531 C 0.62287 0.91092 0.92049
 H532 H 0.69107 0.92989 0.86351
 H533 H 0.63159 0.95010 0.88177
 H534 H 0.66796 0.85941 0.89597
 H535 H 0.63278 0.88774 0.93400
   
