data_POSCAR
  _audit_creation_date              2014-09-24
  _audit_creation_method            'ToBaCCo'
  _symmetry_space_group_name_H-M    'P1'
  _symmetry_Int_Tables_number       1
  _symmetry_cell_setting            triclinic
  loop_
  _symmetry_equiv_pos_as_xyz
 x,y,z
_cell_length_a 15.3501
_cell_length_b 16.6037
_cell_length_c 15.7166
_cell_angle_alpha 89.381600
_cell_angle_beta 89.855200
_cell_angle_gamma 90.208800
loop_
  _atom_site_label
  _atom_site_type_symbol
  _atom_site_fract_x
  _atom_site_fract_y
  _atom_site_fract_z
C1 C 0.46544 1.02807 -0.57522
 C2 C 0.53499 0.97237 -0.57554
 C3 C 0.56068 0.93784 -0.49822
 C4 C 0.53928 0.97506 -0.42197
 C5 C 0.47049 1.03068 -0.42147
 C6 C 0.44263 1.06387 -0.49835
 H7 H 0.39208 1.10918 -0.49732
 H8 H 0.60966 0.89100 -0.49778
 C9 C -0.54421 1.42507 -0.02814
 C10 C -0.45669 1.42572 0.00162
 C11 C -0.41676 1.50101 0.01616
 C12 C -0.45934 1.57554 0.00538
 C13 C -0.54672 1.57504 -0.02479
 C14 C -0.58133 1.50017 -0.05027
 H15 H -0.64359 1.50018 -0.08209
 H16 H -0.34857 1.50189 0.03347
 C17 C 0.00383 0.42665 0.44853
 C18 C -0.00093 0.41990 0.53958
 C19 C 0.00207 0.49140 0.58764
 C20 C -0.00017 0.57030 0.55270
 C21 C -0.00120 0.57721 0.46204
 C22 C 0.00573 0.50614 0.41399
 H23 H 0.01033 0.51452 0.34571
 H24 H 0.00488 0.48433 0.65614
 O25 O -0.22019 1.00500 -0.11157
 O26 O 0.22526 0.99309 -0.10742
 O27 O 0.00312 1.10330 -0.22266
 O28 O 0.00566 0.88917 -0.21632
 O29 O -0.00051 0.79068 -0.11118
 O30 O -0.00294 1.20489 -0.12310
 O31 O 0.12224 0.99709 -0.21368
 O32 O -0.11514 0.99699 -0.21599
 Zr33 Zr 0.00272 0.99751 -0.14748
 O34 O 0.07917 0.92390 -0.07257
 O35 O -0.07560 1.07365 -0.07824
 C36 C -0.19494 1.00069 -0.18932
 C37 C 0.20152 0.99556 -0.18569
 C38 C -0.00112 1.17835 -0.20146
 C39 C 0.00283 0.81464 -0.19094
 H40 H 0.11749 1.10530 -0.11262
 O41 O 0.07971 1.07170 -0.07554
 H42 H -0.11438 0.89137 -0.10838
 O43 O -0.07663 0.92576 -0.07303
 O44 O 0.22375 1.00110 0.11397
 O45 O -0.22376 1.00115 0.11042
 O46 O 0.12341 1.20601 -0.00324
 O47 O 0.11902 0.79206 0.00296
 O48 O -0.12263 0.79390 0.01266
 O49 O -0.11730 1.20872 -0.00185
 O50 O -0.00011 1.10923 0.22219
 O51 O 0.00095 0.89616 0.22738
 O52 O 0.00548 1.20776 0.11706
 O53 O -0.00632 0.79471 0.12779
 O54 O 0.22683 1.10534 0.00333
 O55 O -0.22193 1.10872 -0.00634
 O56 O -0.22491 0.89529 0.00288
 O57 O 0.22454 0.89149 0.00409
 O58 O 0.11912 1.00983 0.21870
 O59 O -0.12072 0.99438 0.21675
 Zr60 Zr 0.15172 0.99862 0.00318
 Zr61 Zr -0.14947 1.00145 0.00043
 Zr62 Zr 0.00209 1.14396 -0.00140
 Zr63 Zr -0.00090 0.85575 0.00634
 Zr64 Zr 0.00004 1.00179 0.15193
 O65 O -0.07861 0.92801 0.08043
 O66 O 0.07935 1.07447 0.07782
 C67 C 0.19895 1.00809 0.19152
 C68 C -0.20013 0.99508 0.18851
 C69 C 0.20356 1.18015 -0.00108
 C70 C 0.19969 0.81706 0.00158
 C71 C -0.20246 0.82047 0.00976
 C72 C -0.19770 1.18335 -0.00465
 C73 C 0.00363 1.18372 0.19691
 C74 C -0.00426 0.82114 0.20612
 H75 H -0.11444 1.10875 0.11246
 O76 O -0.07663 1.07477 0.07679
 H77 H 0.11485 0.89288 0.11877
 O78 O 0.07750 0.92648 0.08163
 N79 N 0.41002 0.98126 0.29195
 C80 C 0.40455 1.03198 0.35876
 N81 N 0.32999 1.07506 0.36910
 N82 N 0.26317 1.06664 0.31665
 C83 C 0.26869 1.01456 0.25170
 N84 N 0.34375 0.97375 0.23853
 N85 N -0.41171 1.01968 0.28955
 C86 C -0.40576 0.96812 0.35681
 N87 N -0.33130 0.92466 0.36640
 N88 N -0.26476 0.93398 0.31333
 C89 C -0.27042 0.98729 0.24837
 N90 N -0.34567 1.02804 0.23539
 N91 N -0.40657 1.02320 -0.28939
 C92 C -0.39931 0.97312 -0.35666
 N93 N -0.32308 0.93303 -0.36800
 N94 N -0.25650 0.94349 -0.31576
 C95 C -0.26384 0.99480 -0.25024
 N96 N -0.34044 1.03272 -0.23619
 N97 N 0.41390 0.97719 -0.28618
 C98 C 0.40749 1.03158 -0.35088
 N99 N 0.33168 1.07260 -0.36069
 N100 N 0.26470 1.05926 -0.30911
 C101 C 0.27108 1.00387 -0.24605
 N102 N 0.34738 0.96484 -0.23341
 N103 N 0.31536 1.36790 -0.05717
 C104 C 0.39822 1.35737 -0.02833
 N105 N 0.41753 1.28530 0.00921
 N106 N 0.35638 1.22785 0.01749
 C107 C 0.27315 1.24099 -0.00953
 N108 N 0.25445 1.31171 -0.04802
 N109 N 0.31001 0.62852 -0.04810
 C110 C 0.39393 0.64100 -0.02307
 N111 N 0.41373 0.71385 0.01091
 N112 N 0.35242 0.77056 0.01855
 C113 C 0.26852 0.75600 -0.00548
 N114 N 0.24889 0.68408 -0.03953
 N115 N -0.33349 0.64325 0.07019
 C116 C -0.40314 0.64831 0.01686
 N117 N -0.40752 0.71258 -0.03725
 N118 N -0.34485 0.76869 -0.03782
 C119 C -0.27397 0.76132 0.01355
 N120 N -0.27018 0.69820 0.06850
 N121 N -0.32514 1.35975 0.05754
 C122 C -0.39780 1.35432 0.00834
 N123 N -0.40459 1.29078 -0.04516
 N124 N -0.34149 1.23558 -0.04874
 C125 C -0.26780 1.24340 -0.00140
 N126 N -0.26153 1.30583 0.05276
 N127 N 0.00953 1.38066 0.30325
 C128 C 0.00444 1.36218 0.38806
 N129 N -0.00055 1.28267 0.40985
 N130 N -0.00050 1.22592 0.34954
 C131 C 0.00444 1.24586 0.26491
 N132 N 0.00951 1.32464 0.24340
 N133 N -0.06814 1.34900 -0.33902
 C134 C -0.01195 1.34527 -0.40632
 N135 N 0.04752 1.28470 -0.40626
 N136 N 0.04987 1.23088 -0.34207
 C137 C -0.00441 1.23723 -0.27349
 N138 N -0.06464 1.29654 -0.27429
 N139 N 0.01007 0.71686 -0.40387
 C140 C -0.00327 0.63796 -0.38332
 N141 N -0.01521 0.61901 -0.29935
 N142 N -0.01305 0.67447 -0.23883
 C143 C 0.00115 0.75275 -0.25906
 N144 N 0.01185 0.77295 -0.34304
 N145 N 0.04276 0.71496 0.41075
 C146 C -0.01388 0.65181 0.40864
 N147 N -0.06809 0.64651 0.34021
 N148 N -0.06525 0.69999 0.27638
 C149 C -0.00779 0.76196 0.27776
 N150 N 0.04440 0.76972 0.34744
   
